GER.pdb
 OpenBabel07022418223D

 48 47  0  0  1  0  0  0  0  0999 V2000
    4.2990   -4.5050    2.5360 N   0  0  0  0  0  0  0  0  0  0  0  0
    4.0290   -3.1360    2.1420 C   0  0  0  0  0  0  0  0  0  0  0  0
    2.7930   -3.1010    1.2670 C   0  0  0  0  0  0  0  0  0  0  0  0
    2.2070   -4.1600    1.0120 O   0  0  0  0  0  0  0  0  0  0  0  0
    3.8030   -4.7190    3.4460 H   0  0  0  0  0  0  0  0  0  0  0  0
    3.9320   -5.1900    1.8450 H   0  0  0  0  0  0  0  0  0  0  0  0
    4.8880   -2.6900    1.5890 H   0  0  0  0  0  0  0  0  0  0  0  0
    3.8580   -2.5570    3.0780 H   0  0  0  0  0  0  0  0  0  0  0  0
    2.3140   -1.8840    0.7500 N   0  0  0  0  0  0  0  0  0  0  0  0
    1.1900   -1.6920   -0.0940 C   0  0  1  0  0  0  0  0  0  0  0  0
    0.7540   -2.9050   -0.8910 C   0  0  0  0  0  0  0  0  0  0  0  0
    1.7470   -3.4160   -1.8760 C   0  0  0  0  0  0  0  0  0  0  0  0
    2.0540   -2.4560   -2.9790 C   0  0  0  0  0  0  0  0  0  0  0  0
    1.4660   -1.3710   -3.1200 O   0  0  0  0  0  0  0  0  0  0  0  0
    0.0230   -1.1330    0.5980 C   0  0  0  0  0  0  0  0  0  0  0  0
    0.0640   -0.9260    1.8570 O   0  0  0  0  0  0  0  0  0  0  0  0
    3.0450   -2.7470   -3.9240 O   0  0  0  0  0  0  0  0  0  0  0  0
    2.8610   -1.0160    1.0250 H   0  0  0  0  0  0  0  0  0  0  0  0
    1.5740   -1.0040   -0.9350 H   0  0  0  0  0  0  0  0  0  0  0  0
    0.3180   -3.7070   -0.2540 H   0  0  0  0  0  0  0  0  0  0  0  0
   -0.1390   -2.5550   -1.4940 H   0  0  0  0  0  0  0  0  0  0  0  0
    2.7230   -3.6910   -1.4550 H   0  0  0  0  0  0  0  0  0  0  0  0
    1.2690   -4.3000   -2.3990 H   0  0  0  0  0  0  0  0  0  0  0  0
    3.4540   -2.0140   -4.4660 H   0  0  0  0  0  0  0  0  0  0  0  0
   -2.7640    3.7590    4.4730 N   0  0  0  0  0  0  0  0  0  0  0  0
   -1.7920    3.5600    3.4550 C   0  0  0  0  0  0  0  0  0  0  0  0
   -0.5630    3.8330    3.7410 N   0  0  0  0  0  0  0  0  0  0  0  0
   -2.0900    3.0850    2.1640 N   0  0  0  0  0  0  0  0  0  0  0  0
   -1.0640    2.4970    1.3150 C   0  0  0  0  0  0  0  0  0  0  0  0
   -1.5920    2.0590   -0.0080 C   0  0  0  0  0  0  0  0  0  0  0  0
   -2.6630    1.0400    0.0310 C   0  0  0  0  0  0  0  0  0  0  0  0
   -2.2800   -0.2570    0.6840 C   0  0  2  0  0  0  0  0  0  0  0  0
   -1.1600   -0.8090   -0.0800 N   0  0  0  0  0  0  0  0  0  0  0  0
   -3.4310   -1.2030    0.6380 C   0  0  0  0  0  0  0  0  0  0  0  0
   -4.5280   -0.9890    1.2070 O   0  0  0  0  0  0  0  0  0  0  0  0
   -3.3070   -2.3900   -0.0660 O   0  0  0  0  0  0  0  0  0  0  0  0
   -2.4780    3.4820    5.4590 H   0  0  0  0  0  0  0  0  0  0  0  0
   -3.7060    4.1440    4.3210 H   0  0  0  0  0  0  0  0  0  0  0  0
   -0.2680    4.1880    4.6760 H   0  0  0  0  0  0  0  0  0  0  0  0
   -3.0540    3.1570    1.8150 H   0  0  0  0  0  0  0  0  0  0  0  0
   -0.5590    1.7410    1.9080 H   0  0  0  0  0  0  0  0  0  0  0  0
   -0.3130    3.3210    1.1570 H   0  0  0  0  0  0  0  0  0  0  0  0
   -0.7430    1.7040   -0.6280 H   0  0  0  0  0  0  0  0  0  0  0  0
   -1.9780    2.9680   -0.5290 H   0  0  0  0  0  0  0  0  0  0  0  0
   -3.6290    1.4420    0.4370 H   0  0  0  0  0  0  0  0  0  0  0  0
   -2.9150    0.7800   -1.0400 H   0  0  0  0  0  0  0  0  0  0  0  0
   -2.0240   -0.1430    1.7470 H   0  0  0  0  0  0  0  0  0  0  0  0
   -1.2450   -0.9510   -1.1040 H   0  0  0  0  0  0  0  0  0  0  0  0
  1  5  1  0  0  0  0
  2  1  1  0  0  0  0
  2  8  1  0  0  0  0
  3  2  1  0  0  0  0
  4  3  2  0  0  0  0
  6  1  1  0  0  0  0
  7  2  1  0  0  0  0
  9 18  1  0  0  0  0
  9  3  1  0  0  0  0
 10 19  1  6  0  0  0
 10 15  1  0  0  0  0
 10  9  1  0  0  0  0
 11 20  1  0  0  0  0
 11 10  1  0  0  0  0
 12 22  1  0  0  0  0
 12 11  1  0  0  0  0
 13 12  1  0  0  0  0
 14 13  2  0  0  0  0
 15 16  2  0  0  0  0
 17 13  1  0  0  0  0
 21 11  1  0  0  0  0
 23 12  1  0  0  0  0
 24 17  1  0  0  0  0
 25 37  1  0  0  0  0
 26 27  2  0  0  0  0
 26 25  1  0  0  0  0
 27 39  1  0  0  0  0
 28 26  1  0  0  0  0
 29 41  1  0  0  0  0
 29 28  1  0  0  0  0
 30 31  1  0  0  0  0
 30 29  1  0  0  0  0
 31 45  1  0  0  0  0
 31 32  1  0  0  0  0
 32 47  1  1  0  0  0
 33 15  1  0  0  0  0
 33 32  1  0  0  0  0
 34 32  1  0  0  0  0
 34 35  1  0  0  0  0
 36 34  2  0  0  0  0
 38 25  1  0  0  0  0
 40 28  1  0  0  0  0
 42 29  1  0  0  0  0
 43 30  1  0  0  0  0
 44 30  1  0  0  0  0
 46 31  1  0  0  0  0
 48 33  1  0  0  0  0
M  END
$$$$
