GES.pdb
 OpenBabel07022418223D

 36 35  0  0  1  0  0  0  0  0999 V2000
    2.9980   -4.2190    2.8620 N   0  0  0  0  0  0  0  0  0  0  0  0
    3.6680   -3.7310    1.6980 C   0  0  0  0  0  0  0  0  0  0  0  0
    2.7760   -2.8400    0.8850 C   0  0  0  0  0  0  0  0  0  0  0  0
    3.2150   -2.3230   -0.1800 O   0  0  0  0  0  0  0  0  0  0  0  0
    3.1750   -3.7130    3.7320 H   0  0  0  0  0  0  0  0  0  0  0  0
    2.0570   -4.5820    2.7040 H   0  0  0  0  0  0  0  0  0  0  0  0
    3.9040   -4.5920    1.0400 H   0  0  0  0  0  0  0  0  0  0  0  0
    4.6230   -3.2430    1.9310 H   0  0  0  0  0  0  0  0  0  0  0  0
    1.4520   -2.5390    1.2470 N   0  0  0  0  0  0  0  0  0  0  0  0
    0.6280   -1.6460    0.3890 C   0  0  1  0  0  0  0  0  0  0  0  0
   -0.5590   -2.4110   -0.0790 C   0  0  0  0  0  0  0  0  0  0  0  0
   -1.4670   -1.6400   -0.9710 C   0  0  0  0  0  0  0  0  0  0  0  0
   -0.8650   -1.1670   -2.2340 C   0  0  0  0  0  0  0  0  0  0  0  0
    0.3100   -1.4340   -2.5490 O   0  0  0  0  0  0  0  0  0  0  0  0
    0.2530   -0.4580    1.1750 C   0  0  0  0  0  0  0  0  0  0  0  0
    0.4260   -0.5030    2.4190 O   0  0  0  0  0  0  0  0  0  0  0  0
   -1.6440   -0.4020   -3.0850 O   0  0  0  0  0  0  0  0  0  0  0  0
    1.0350   -2.9280    2.1030 H   0  0  0  0  0  0  0  0  0  0  0  0
    1.2360   -1.3390   -0.4710 H   0  0  0  0  0  0  0  0  0  0  0  0
   -0.2480   -3.3520   -0.6200 H   0  0  0  0  0  0  0  0  0  0  0  0
   -1.1890   -2.7970    0.7580 H   0  0  0  0  0  0  0  0  0  0  0  0
   -1.9800   -0.7970   -0.4680 H   0  0  0  0  0  0  0  0  0  0  0  0
   -2.3380   -2.3270   -1.3040 H   0  0  0  0  0  0  0  0  0  0  0  0
   -1.2690    0.1790   -3.8220 H   0  0  0  0  0  0  0  0  0  0  0  0
    0.0040    3.3990   -0.1310 O   0  0  0  0  0  0  0  0  0  0  0  0
    0.2430    3.0670    1.1980 C   0  0  0  0  0  0  0  0  0  0  0  0
   -0.6230    1.8660    1.5370 C   0  0  2  0  0  0  0  0  0  0  0  0
   -0.2780    0.7350    0.6620 N   0  0  0  0  0  0  0  0  0  0  0  0
   -2.0510    2.1900    1.4070 C   0  0  0  0  0  0  0  0  0  0  0  0
   -2.8140    1.5520    0.6370 O   0  0  0  0  0  0  0  0  0  0  0  0
   -2.6400    3.2400    2.1430 O   0  0  0  0  0  0  0  0  0  0  0  0
    0.7240    3.9870   -0.5010 H   0  0  0  0  0  0  0  0  0  0  0  0
    1.2990    2.8540    1.4180 H   0  0  0  0  0  0  0  0  0  0  0  0
   -0.0700    3.9400    1.8040 H   0  0  0  0  0  0  0  0  0  0  0  0
   -0.4000    1.5570    2.5690 H   0  0  0  0  0  0  0  0  0  0  0  0
   -0.4320    0.8880   -0.3470 H   0  0  0  0  0  0  0  0  0  0  0  0
  1  5  1  0  0  0  0
  2  8  1  0  0  0  0
  2  1  1  0  0  0  0
  3  9  1  0  0  0  0
  3  2  1  0  0  0  0
  4  3  2  0  0  0  0
  6  1  1  0  0  0  0
  7  2  1  0  0  0  0
  9 18  1  0  0  0  0
 10 19  1  6  0  0  0
 10 15  1  0  0  0  0
 10  9  1  0  0  0  0
 11 10  1  0  0  0  0
 11 21  1  0  0  0  0
 12 22  1  0  0  0  0
 12 11  1  0  0  0  0
 13 12  1  0  0  0  0
 14 13  2  0  0  0  0
 15 16  2  0  0  0  0
 17 13  1  0  0  0  0
 20 11  1  0  0  0  0
 23 12  1  0  0  0  0
 24 17  1  0  0  0  0
 25 26  1  0  0  0  0
 26 33  1  0  0  0  0
 26 27  1  0  0  0  0
 26 34  1  0  0  0  0
 27 35  1  1  0  0  0
 28 15  1  0  0  0  0
 28 27  1  0  0  0  0
 29 27  1  0  0  0  0
 29 31  1  0  0  0  0
 30 29  2  0  0  0  0
 32 25  1  0  0  0  0
 36 28  1  0  0  0  0
M  END
$$$$
