GFC.pdb
 OpenBabel07022418243D

 40 40  0  0  1  0  0  0  0  0999 V2000
    0.7650   -5.5050   -0.0600 N   0  0  0  0  0  0  0  0  0  0  0  0
    0.1680   -4.1860   -0.1090 C   0  0  0  0  0  0  0  0  0  0  0  0
    1.2090   -3.1820    0.0850 C   0  0  0  0  0  0  0  0  0  0  0  0
    2.4060   -3.5240    0.2580 O   0  0  0  0  0  0  0  0  0  0  0  0
    0.1240   -6.1920   -0.5090 H   0  0  0  0  0  0  0  0  0  0  0  0
    1.7190   -5.5030   -0.5000 H   0  0  0  0  0  0  0  0  0  0  0  0
   -0.3810   -4.0930   -1.0670 H   0  0  0  0  0  0  0  0  0  0  0  0
   -0.6150   -4.1310    0.6900 H   0  0  0  0  0  0  0  0  0  0  0  0
    1.0020   -1.7800    0.0990 N   0  0  0  0  0  0  0  0  0  0  0  0
    1.9920   -0.7900    0.2840 C   0  0  1  0  0  0  0  0  0  0  0  0
    2.2120    0.1900   -0.8040 C   0  0  0  0  0  0  0  0  0  0  0  0
    1.0230    1.0090   -1.1520 C   0  0  0  0  0  0  0  0  0  0  0  0
    0.1010    0.5930   -2.1080 C   0  0  0  0  0  0  0  0  0  0  0  0
   -1.0000    1.3410   -2.4410 C   0  0  0  0  0  0  0  0  0  0  0  0
   -1.2260    2.5430   -1.8260 C   0  0  0  0  0  0  0  0  0  0  0  0
   -0.3450    2.9860   -0.8820 C   0  0  0  0  0  0  0  0  0  0  0  0
    0.7680    2.2220   -0.5520 C   0  0  0  0  0  0  0  0  0  0  0  0
    1.7170   -0.0880    1.5660 C   0  0  0  0  0  0  0  0  0  0  0  0
    2.4470    0.8390    2.0040 O   0  0  0  0  0  0  0  0  0  0  0  0
    0.0210   -1.4490   -0.0410 H   0  0  0  0  0  0  0  0  0  0  0  0
    2.9740   -1.3390    0.4170 H   0  0  0  0  0  0  0  0  0  0  0  0
    2.7010   -0.2170   -1.7070 H   0  0  0  0  0  0  0  0  0  0  0  0
    2.9670    0.9390   -0.4150 H   0  0  0  0  0  0  0  0  0  0  0  0
    0.2380   -0.3420   -2.6150 H   0  0  0  0  0  0  0  0  0  0  0  0
   -1.7010    0.9980   -3.1850 H   0  0  0  0  0  0  0  0  0  0  0  0
   -2.0960    3.1630   -2.0700 H   0  0  0  0  0  0  0  0  0  0  0  0
   -0.5060    3.9280   -0.3880 H   0  0  0  0  0  0  0  0  0  0  0  0
    1.4310    2.6240    0.2010 H   0  0  0  0  0  0  0  0  0  0  0  0
    0.5930   -0.4350    2.3810 N   0  0  0  0  0  0  0  0  0  0  0  0
    0.2980    0.2270    3.6320 C   0  0  1  0  0  0  0  0  0  0  0  0
   -1.1060    0.8240    3.5220 C   0  0  0  0  0  0  0  0  0  0  0  0
   -2.2860   -0.5160    3.2140 S   0  0  0  0  0  0  0  0  0  0  0  0
    0.2360   -0.7940    4.6980 C   0  0  0  0  0  0  0  0  0  0  0  0
    0.4290   -1.9960    4.4070 O   0  0  0  0  0  0  0  0  0  0  0  0
   -0.0280   -0.4990    6.0260 O   0  0  0  0  0  0  0  0  0  0  0  0
   -0.0220   -1.1880    2.0510 H   0  0  0  0  0  0  0  0  0  0  0  0
    1.0360    1.0190    3.8720 H   0  0  0  0  0  0  0  0  0  0  0  0
   -1.3540    1.3470    4.4610 H   0  0  0  0  0  0  0  0  0  0  0  0
   -1.1380    1.5820    2.7070 H   0  0  0  0  0  0  0  0  0  0  0  0
   -2.5650   -0.6250    1.8390 H   0  0  0  0  0  0  0  0  0  0  0  0
  2  1  1  0  0  0  0
  2  3  1  0  0  0  0
  2  8  1  0  0  0  0
  3  9  1  0  0  0  0
  3  4  2  0  0  0  0
  5  1  1  0  0  0  0
  6  1  1  0  0  0  0
  7  2  1  0  0  0  0
  9 10  1  0  0  0  0
 10 21  1  1  0  0  0
 10 18  1  0  0  0  0
 11 23  1  0  0  0  0
 11 10  1  0  0  0  0
 12 11  1  0  0  0  0
 12 17  1  0  0  0  0
 13 12  2  0  0  0  0
 14 13  1  0  0  0  0
 14 15  2  0  0  0  0
 15 16  1  0  0  0  0
 16 17  2  0  0  0  0
 16 27  1  0  0  0  0
 17 28  1  0  0  0  0
 18 19  2  0  0  0  0
 18 29  1  0  0  0  0
 20  9  1  0  0  0  0
 22 11  1  0  0  0  0
 24 13  1  0  0  0  0
 25 14  1  0  0  0  0
 26 15  1  0  0  0  0
 29 30  1  0  0  0  0
 30 37  1  1  0  0  0
 30 33  1  0  0  0  0
 31 30  1  0  0  0  0
 31 38  1  0  0  0  0
 32 31  1  0  0  0  0
 33 35  1  0  0  0  0
 34 33  2  0  0  0  0
 36 29  1  0  0  0  0
 39 31  1  0  0  0  0
 40 32  1  0  0  0  0
M  END
$$$$
