GFK.pdb
 OpenBabel07022418243D

 50 50  0  0  1  0  0  0  0  0999 V2000
    3.3150   -2.8480    2.3150 N   0  0  0  0  0  0  0  0  0  0  0  0
    3.1740   -2.3340    3.6480 C   0  0  0  0  0  0  0  0  0  0  0  0
    2.5240   -1.0040    3.6500 C   0  0  0  0  0  0  0  0  0  0  0  0
    2.2780   -0.3280    4.6710 O   0  0  0  0  0  0  0  0  0  0  0  0
    2.5100   -3.4940    2.0620 H   0  0  0  0  0  0  0  0  0  0  0  0
    4.1750   -3.4290    2.1930 H   0  0  0  0  0  0  0  0  0  0  0  0
    4.1330   -2.3380    4.2080 H   0  0  0  0  0  0  0  0  0  0  0  0
    2.4940   -3.0200    4.2110 H   0  0  0  0  0  0  0  0  0  0  0  0
    2.1450   -0.4380    2.4080 N   0  0  0  0  0  0  0  0  0  0  0  0
    1.5140    0.8300    2.2640 C   0  0  1  0  0  0  0  0  0  0  0  0
    2.2660    1.8450    1.4810 C   0  0  0  0  0  0  0  0  0  0  0  0
    2.5680    1.4900    0.1030 C   0  0  0  0  0  0  0  0  0  0  0  0
    3.7520    0.8300   -0.1600 C   0  0  0  0  0  0  0  0  0  0  0  0
    4.1230    0.4530   -1.4410 C   0  0  0  0  0  0  0  0  0  0  0  0
    3.2590    0.7620   -2.4710 C   0  0  0  0  0  0  0  0  0  0  0  0
    2.0610    1.4290   -2.2080 C   0  0  0  0  0  0  0  0  0  0  0  0
    1.7170    1.7930   -0.9230 C   0  0  0  0  0  0  0  0  0  0  0  0
    0.1320    0.6080    1.7630 C   0  0  0  0  0  0  0  0  0  0  0  0
   -0.6570    1.5760    1.5450 O   0  0  0  0  0  0  0  0  0  0  0  0
    2.3270   -0.9640    1.4990 H   0  0  0  0  0  0  0  0  0  0  0  0
    1.3920    1.2540    3.3000 H   0  0  0  0  0  0  0  0  0  0  0  0
    1.6510    2.7760    1.4710 H   0  0  0  0  0  0  0  0  0  0  0  0
    3.1840    2.1100    2.0540 H   0  0  0  0  0  0  0  0  0  0  0  0
    4.4600    0.5700    0.6340 H   0  0  0  0  0  0  0  0  0  0  0  0
    5.0580   -0.0650   -1.6290 H   0  0  0  0  0  0  0  0  0  0  0  0
    3.5220    0.4800   -3.4810 H   0  0  0  0  0  0  0  0  0  0  0  0
    1.4400    1.6340   -3.0680 H   0  0  0  0  0  0  0  0  0  0  0  0
    0.7670    2.3120   -0.7840 H   0  0  0  0  0  0  0  0  0  0  0  0
   -0.3680   -0.6810    1.5060 N   0  0  0  0  0  0  0  0  0  0  0  0
   -1.7890   -0.8380    0.9960 C   0  0  1  0  0  0  0  0  0  0  0  0
   -1.7130   -1.6660   -0.2290 C   0  0  0  0  0  0  0  0  0  0  0  0
   -2.7900   -1.8990   -1.1630 C   0  0  0  0  0  0  0  0  0  0  0  0
   -4.1650   -2.2820   -0.8750 C   0  0  0  0  0  0  0  0  0  0  0  0
   -5.0730   -1.2190   -0.3040 C   0  0  0  0  0  0  0  0  0  0  0  0
   -5.2120   -0.1190   -1.2860 N   0  0  0  0  0  0  0  0  0  0  0  0
   -2.3620   -1.6250    2.1490 C   0  0  0  0  0  0  0  0  0  0  0  0
   -3.4700   -2.1140    2.1790 O   0  0  0  0  0  0  0  0  0  0  0  0
   -1.5700   -1.8160    3.2880 O   0  0  0  0  0  0  0  0  0  0  0  0
    0.1850   -1.5310    1.6480 H   0  0  0  0  0  0  0  0  0  0  0  0
   -2.2430    0.1250    0.8960 H   0  0  0  0  0  0  0  0  0  0  0  0
   -0.8460   -1.1920   -0.8430 H   0  0  0  0  0  0  0  0  0  0  0  0
   -1.1870   -2.6670    0.0390 H   0  0  0  0  0  0  0  0  0  0  0  0
   -2.3830   -2.7030   -1.9020 H   0  0  0  0  0  0  0  0  0  0  0  0
   -2.7890   -1.0050   -1.9130 H   0  0  0  0  0  0  0  0  0  0  0  0
   -4.1650   -3.1810   -0.1980 H   0  0  0  0  0  0  0  0  0  0  0  0
   -4.6730   -2.6920   -1.8110 H   0  0  0  0  0  0  0  0  0  0  0  0
   -6.0690   -1.6410   -0.1400 H   0  0  0  0  0  0  0  0  0  0  0  0
   -4.7150   -0.7350    0.5850 H   0  0  0  0  0  0  0  0  0  0  0  0
   -5.1330   -0.4990   -2.2480 H   0  0  0  0  0  0  0  0  0  0  0  0
   -4.5370    0.6450   -1.0820 H   0  0  0  0  0  0  0  0  0  0  0  0
  1  2  1  0  0  0  0
  2  3  1  0  0  0  0
  2  7  1  0  0  0  0
  2  8  1  0  0  0  0
  3  4  2  0  0  0  0
  5  1  1  0  0  0  0
  6  1  1  0  0  0  0
  9  3  1  0  0  0  0
 10  9  1  0  0  0  0
 10 21  1  1  0  0  0
 11 23  1  0  0  0  0
 11 10  1  0  0  0  0
 12 11  1  0  0  0  0
 13 12  1  0  0  0  0
 13 24  1  0  0  0  0
 14 13  2  0  0  0  0
 15 16  2  0  0  0  0
 15 14  1  0  0  0  0
 16 17  1  0  0  0  0
 17 28  1  0  0  0  0
 17 12  2  0  0  0  0
 18 10  1  0  0  0  0
 19 18  2  0  0  0  0
 20  9  1  0  0  0  0
 22 11  1  0  0  0  0
 25 14  1  0  0  0  0
 26 15  1  0  0  0  0
 27 16  1  0  0  0  0
 29 39  1  0  0  0  0
 29 18  1  0  0  0  0
 30 40  1  6  0  0  0
 30 29  1  0  0  0  0
 30 36  1  0  0  0  0
 31 42  1  0  0  0  0
 31 30  1  0  0  0  0
 32 33  1  0  0  0  0
 32 31  1  0  0  0  0
 33 34  1  0  0  0  0
 33 45  1  0  0  0  0
 34 47  1  0  0  0  0
 34 48  1  0  0  0  0
 35 50  1  0  0  0  0
 35 34  1  0  0  0  0
 36 37  2  0  0  0  0
 36 38  1  0  0  0  0
 41 31  1  0  0  0  0
 43 32  1  0  0  0  0
 44 32  1  0  0  0  0
 46 33  1  0  0  0  0
 49 35  1  0  0  0  0
M  END
$$$$
