GFN.pdb
 OpenBabel07022418243D

 43 43  0  0  1  0  0  0  0  0999 V2000
   -1.0650   -5.1210    1.8740 N   0  0  0  0  0  0  0  0  0  0  0  0
    0.1910   -4.8490    2.4930 C   0  0  0  0  0  0  0  0  0  0  0  0
    0.8500   -3.6290    2.0270 C   0  0  0  0  0  0  0  0  0  0  0  0
    1.9770   -3.3530    2.5600 O   0  0  0  0  0  0  0  0  0  0  0  0
   -1.8750   -4.6650    2.3490 H   0  0  0  0  0  0  0  0  0  0  0  0
   -1.0750   -4.9760    0.8610 H   0  0  0  0  0  0  0  0  0  0  0  0
    0.8850   -5.7060    2.2610 H   0  0  0  0  0  0  0  0  0  0  0  0
    0.0380   -4.8370    3.6070 H   0  0  0  0  0  0  0  0  0  0  0  0
    0.2920   -2.7800    1.0370 N   0  0  0  0  0  0  0  0  0  0  0  0
    1.0400   -1.5950    0.6550 C   0  0  1  0  0  0  0  0  0  0  0  0
    1.2910   -1.6430   -0.8310 C   0  0  0  0  0  0  0  0  0  0  0  0
    2.0450   -0.4930   -1.3620 C   0  0  0  0  0  0  0  0  0  0  0  0
    3.4190   -0.5190   -1.3650 C   0  0  0  0  0  0  0  0  0  0  0  0
    4.1580    0.5240   -1.8630 C   0  0  0  0  0  0  0  0  0  0  0  0
    3.4760    1.6290   -2.3740 C   0  0  0  0  0  0  0  0  0  0  0  0
    2.1160    1.6560   -2.3710 C   0  0  0  0  0  0  0  0  0  0  0  0
    1.3890    0.6040   -1.8690 C   0  0  0  0  0  0  0  0  0  0  0  0
    0.2680   -0.3530    1.0160 C   0  0  0  0  0  0  0  0  0  0  0  0
    0.8090    0.7350    0.8060 O   0  0  0  0  0  0  0  0  0  0  0  0
   -0.6130   -2.9830    0.5920 H   0  0  0  0  0  0  0  0  0  0  0  0
    1.9940   -1.5380    1.1900 H   0  0  0  0  0  0  0  0  0  0  0  0
    0.2970   -1.7100   -1.3270 H   0  0  0  0  0  0  0  0  0  0  0  0
    1.8440   -2.5620   -1.1130 H   0  0  0  0  0  0  0  0  0  0  0  0
    3.9200   -1.3750   -0.9690 H   0  0  0  0  0  0  0  0  0  0  0  0
    5.2220    0.5340   -1.8790 H   0  0  0  0  0  0  0  0  0  0  0  0
    4.0780    2.4370   -2.7600 H   0  0  0  0  0  0  0  0  0  0  0  0
    1.6370    2.5470   -2.7830 H   0  0  0  0  0  0  0  0  0  0  0  0
    0.3160    0.6260   -1.8730 H   0  0  0  0  0  0  0  0  0  0  0  0
    0.6930    3.4040    2.6570 N   0  0  0  0  0  0  0  0  0  0  0  0
   -0.1080    2.2490    2.7450 C   0  0  0  0  0  0  0  0  0  0  0  0
    0.1920    1.3800    3.6150 O   0  0  0  0  0  0  0  0  0  0  0  0
   -1.2650    2.0180    1.8730 C   0  0  0  0  0  0  0  0  0  0  0  0
   -1.8590    0.6280    1.9830 C   0  0  2  0  0  0  0  0  0  0  0  0
   -1.0260   -0.4500    1.5730 N   0  0  0  0  0  0  0  0  0  0  0  0
   -3.1980    0.6160    1.4080 C   0  0  0  0  0  0  0  0  0  0  0  0
   -3.5940   -0.2690    0.5950 O   0  0  0  0  0  0  0  0  0  0  0  0
   -4.1530    1.5920    1.7160 O   0  0  0  0  0  0  0  0  0  0  0  0
    0.2640    4.2990    2.3580 H   0  0  0  0  0  0  0  0  0  0  0  0
    1.6990    3.3370    2.8930 H   0  0  0  0  0  0  0  0  0  0  0  0
   -2.0710    2.7190    2.2290 H   0  0  0  0  0  0  0  0  0  0  0  0
   -0.9990    2.1960    0.8290 H   0  0  0  0  0  0  0  0  0  0  0  0
   -1.9330    0.5340    3.1390 H   0  0  0  0  0  0  0  0  0  0  0  0
   -1.3930   -1.4650    1.6880 H   0  0  0  0  0  0  0  0  0  0  0  0
  1  5  1  0  0  0  0
  1  2  1  0  0  0  0
  2  8  1  0  0  0  0
  3  2  1  0  0  0  0
  3  4  2  0  0  0  0
  6  1  1  0  0  0  0
  7  2  1  0  0  0  0
  9  3  1  0  0  0  0
 10 18  1  0  0  0  0
 10  9  1  0  0  0  0
 10 21  1  1  0  0  0
 11 10  1  0  0  0  0
 12 11  1  0  0  0  0
 13 12  1  0  0  0  0
 13 24  1  0  0  0  0
 14 13  2  0  0  0  0
 15 16  2  0  0  0  0
 15 14  1  0  0  0  0
 16 17  1  0  0  0  0
 17 12  2  0  0  0  0
 18 34  1  0  0  0  0
 19 18  2  0  0  0  0
 20  9  1  0  0  0  0
 22 11  1  0  0  0  0
 23 11  1  0  0  0  0
 25 14  1  0  0  0  0
 26 15  1  0  0  0  0
 27 16  1  0  0  0  0
 28 17  1  0  0  0  0
 29 30  1  0  0  0  0
 29 39  1  0  0  0  0
 30 31  2  0  0  0  0
 32 33  1  0  0  0  0
 32 40  1  0  0  0  0
 32 30  1  0  0  0  0
 33 42  1  1  0  0  0
 34 43  1  0  0  0  0
 34 33  1  0  0  0  0
 35 37  1  0  0  0  0
 35 33  1  0  0  0  0
 36 35  2  0  0  0  0
 38 29  1  0  0  0  0
 41 32  1  0  0  0  0
M  END
$$$$
