GFQ.pdb
 OpenBabel07022418243D

 46 46  0  0  1  0  0  0  0  0999 V2000
    1.9240   -3.8430    4.4830 N   0  0  0  0  0  0  0  0  0  0  0  0
    1.4980   -3.6490    3.1130 C   0  0  0  0  0  0  0  0  0  0  0  0
    1.7380   -2.2330    2.7490 C   0  0  0  0  0  0  0  0  0  0  0  0
    2.2290   -1.4450    3.5790 O   0  0  0  0  0  0  0  0  0  0  0  0
    1.7860   -4.8260    4.8050 H   0  0  0  0  0  0  0  0  0  0  0  0
    2.9620   -3.6740    4.5430 H   0  0  0  0  0  0  0  0  0  0  0  0
    0.3830   -3.8030    3.0860 H   0  0  0  0  0  0  0  0  0  0  0  0
    1.9910   -4.3520    2.4100 H   0  0  0  0  0  0  0  0  0  0  0  0
    1.4450   -1.6830    1.4950 N   0  0  0  0  0  0  0  0  0  0  0  0
    1.6810   -0.3250    1.1650 C   0  0  1  0  0  0  0  0  0  0  0  0
    2.5880   -0.0290    0.0500 C   0  0  0  0  0  0  0  0  0  0  0  0
    2.7560    1.4210   -0.2050 C   0  0  0  0  0  0  0  0  0  0  0  0
    3.7080    2.1720    0.4940 C   0  0  0  0  0  0  0  0  0  0  0  0
    3.9120    3.5070    0.2810 C   0  0  0  0  0  0  0  0  0  0  0  0
    3.1670    4.1840   -0.6570 C   0  0  0  0  0  0  0  0  0  0  0  0
    2.2200    3.4800   -1.3650 C   0  0  0  0  0  0  0  0  0  0  0  0
    2.0240    2.1330   -1.1400 C   0  0  0  0  0  0  0  0  0  0  0  0
    0.3530    0.3220    1.0130 C   0  0  0  0  0  0  0  0  0  0  0  0
    0.1780    1.5360    0.7700 O   0  0  0  0  0  0  0  0  0  0  0  0
    1.0290   -2.2790    0.7430 H   0  0  0  0  0  0  0  0  0  0  0  0
    2.1230    0.1610    2.0850 H   0  0  0  0  0  0  0  0  0  0  0  0
    2.0900   -0.4190   -0.8950 H   0  0  0  0  0  0  0  0  0  0  0  0
    3.5530   -0.5720    0.0510 H   0  0  0  0  0  0  0  0  0  0  0  0
    4.2890    1.6360    1.2280 H   0  0  0  0  0  0  0  0  0  0  0  0
    4.6710    4.0610    0.8520 H   0  0  0  0  0  0  0  0  0  0  0  0
    3.3350    5.2570   -0.8240 H   0  0  0  0  0  0  0  0  0  0  0  0
    1.6410    4.0300   -2.1010 H   0  0  0  0  0  0  0  0  0  0  0  0
    1.2650    1.5840   -1.7210 H   0  0  0  0  0  0  0  0  0  0  0  0
   -4.2360   -3.7540   -1.3320 N   0  0  0  0  0  0  0  0  0  0  0  0
   -3.8820   -2.3880   -1.2130 C   0  0  0  0  0  0  0  0  0  0  0  0
   -4.2110   -1.6040   -2.1380 O   0  0  0  0  0  0  0  0  0  0  0  0
   -3.1420   -1.8620   -0.0420 C   0  0  0  0  0  0  0  0  0  0  0  0
   -2.9120   -0.3740   -0.1960 C   0  0  0  0  0  0  0  0  0  0  0  0
   -2.1540    0.1870    0.9960 C   0  0  2  0  0  0  0  0  0  0  0  0
   -0.8660   -0.4410    1.1430 N   0  0  0  0  0  0  0  0  0  0  0  0
   -2.9670    0.1020    2.2360 C   0  0  0  0  0  0  0  0  0  0  0  0
   -4.1120    0.6220    2.2120 O   0  0  0  0  0  0  0  0  0  0  0  0
   -2.5540   -0.5020    3.3990 O   0  0  0  0  0  0  0  0  0  0  0  0
   -3.9050   -4.4380   -0.6220 H   0  0  0  0  0  0  0  0  0  0  0  0
   -4.8220   -4.1080   -2.1120 H   0  0  0  0  0  0  0  0  0  0  0  0
   -2.2030   -2.4250    0.0590 H   0  0  0  0  0  0  0  0  0  0  0  0
   -3.7200   -2.0090    0.8990 H   0  0  0  0  0  0  0  0  0  0  0  0
   -2.3670   -0.1230   -1.1160 H   0  0  0  0  0  0  0  0  0  0  0  0
   -3.9040    0.1230   -0.2080 H   0  0  0  0  0  0  0  0  0  0  0  0
   -2.0020    1.2600    0.7860 H   0  0  0  0  0  0  0  0  0  0  0  0
   -0.7830   -1.4720    1.3490 H   0  0  0  0  0  0  0  0  0  0  0  0
  1  6  1  0  0  0  0
  1  5  1  0  0  0  0
  2  1  1  0  0  0  0
  3  2  1  0  0  0  0
  3  4  2  0  0  0  0
  7  2  1  0  0  0  0
  8  2  1  0  0  0  0
  9  3  1  0  0  0  0
 10  9  1  0  0  0  0
 10 21  1  1  0  0  0
 11 23  1  0  0  0  0
 11 10  1  0  0  0  0
 12 11  1  0  0  0  0
 12 13  1  0  0  0  0
 13 24  1  0  0  0  0
 14 13  2  0  0  0  0
 14 25  1  0  0  0  0
 15 14  1  0  0  0  0
 16 17  1  0  0  0  0
 16 15  2  0  0  0  0
 17 12  2  0  0  0  0
 18 35  1  0  0  0  0
 18 10  1  0  0  0  0
 19 18  2  0  0  0  0
 20  9  1  0  0  0  0
 22 11  1  0  0  0  0
 26 15  1  0  0  0  0
 27 16  1  0  0  0  0
 28 17  1  0  0  0  0
 29 30  1  0  0  0  0
 29 39  1  0  0  0  0
 30 32  1  0  0  0  0
 31 30  2  0  0  0  0
 32 41  1  0  0  0  0
 32 42  1  0  0  0  0
 33 32  1  0  0  0  0
 33 34  1  0  0  0  0
 34 45  1  6  0  0  0
 34 35  1  0  0  0  0
 34 36  1  0  0  0  0
 35 46  1  0  0  0  0
 36 38  1  0  0  0  0
 37 36  2  0  0  0  0
 40 29  1  0  0  0  0
 43 33  1  0  0  0  0
 44 33  1  0  0  0  0
M  END
$$$$
