GFS.pdb
 OpenBabel07022418243D

 40 40  0  0  1  0  0  0  0  0999 V2000
    0.7990   -4.7600    1.1920 N   0  0  0  0  0  0  0  0  0  0  0  0
    1.9690   -4.2810    1.8900 C   0  0  0  0  0  0  0  0  0  0  0  0
    2.1310   -2.8280    1.6640 C   0  0  0  0  0  0  0  0  0  0  0  0
    3.0960   -2.2450    2.1960 O   0  0  0  0  0  0  0  0  0  0  0  0
    0.8970   -4.6130    0.1760 H   0  0  0  0  0  0  0  0  0  0  0  0
   -0.0300   -4.2820    1.5710 H   0  0  0  0  0  0  0  0  0  0  0  0
    1.9590   -4.5530    2.9560 H   0  0  0  0  0  0  0  0  0  0  0  0
    2.8690   -4.7780    1.4530 H   0  0  0  0  0  0  0  0  0  0  0  0
    1.2090   -2.1090    0.8590 N   0  0  0  0  0  0  0  0  0  0  0  0
    1.3330   -0.6770    0.6120 C   0  0  1  0  0  0  0  0  0  0  0  0
    1.5190   -0.4210   -0.8500 C   0  0  0  0  0  0  0  0  0  0  0  0
    1.6540    0.9810   -1.2260 C   0  0  0  0  0  0  0  0  0  0  0  0
    0.5420    1.7180   -1.5620 C   0  0  0  0  0  0  0  0  0  0  0  0
    0.6110    3.0440   -1.9210 C   0  0  0  0  0  0  0  0  0  0  0  0
    1.8440    3.6660   -1.9470 C   0  0  0  0  0  0  0  0  0  0  0  0
    2.9550    2.9250   -1.6100 C   0  0  0  0  0  0  0  0  0  0  0  0
    2.8730    1.5990   -1.2530 C   0  0  0  0  0  0  0  0  0  0  0  0
    0.1770   -0.0090    1.2290 C   0  0  0  0  0  0  0  0  0  0  0  0
    0.1050    1.2440    1.1360 O   0  0  0  0  0  0  0  0  0  0  0  0
    0.4210   -2.6500    0.4400 H   0  0  0  0  0  0  0  0  0  0  0  0
    2.2500   -0.3430    1.1690 H   0  0  0  0  0  0  0  0  0  0  0  0
    2.4460   -0.9500   -1.1550 H   0  0  0  0  0  0  0  0  0  0  0  0
    0.6960   -0.9090   -1.4180 H   0  0  0  0  0  0  0  0  0  0  0  0
   -0.4270    1.2470   -1.5490 H   0  0  0  0  0  0  0  0  0  0  0  0
   -0.2970    3.6050   -2.1840 H   0  0  0  0  0  0  0  0  0  0  0  0
    1.9190    4.7150   -2.2280 H   0  0  0  0  0  0  0  0  0  0  0  0
    3.9250    3.4050   -1.6280 H   0  0  0  0  0  0  0  0  0  0  0  0
    3.7380    0.9990   -0.9840 H   0  0  0  0  0  0  0  0  0  0  0  0
   -3.2770   -1.9780    1.9720 O   0  0  0  0  0  0  0  0  0  0  0  0
   -3.2450   -0.5900    1.8160 C   0  0  0  0  0  0  0  0  0  0  0  0
   -1.9910   -0.0680    2.5270 C   0  0  2  0  0  0  0  0  0  0  0  0
   -0.8570   -0.6780    1.9170 N   0  0  0  0  0  0  0  0  0  0  0  0
   -2.0870   -0.3280    3.9810 C   0  0  0  0  0  0  0  0  0  0  0  0
   -3.0170    0.1260    4.6920 O   0  0  0  0  0  0  0  0  0  0  0  0
   -1.1220   -1.1010    4.6090 O   0  0  0  0  0  0  0  0  0  0  0  0
   -2.7410   -2.4070    1.2580 H   0  0  0  0  0  0  0  0  0  0  0  0
   -4.1470   -0.1120    2.2420 H   0  0  0  0  0  0  0  0  0  0  0  0
   -3.0980   -0.3260    0.7370 H   0  0  0  0  0  0  0  0  0  0  0  0
   -1.9580    1.0320    2.3880 H   0  0  0  0  0  0  0  0  0  0  0  0
   -0.7630   -1.7340    1.9750 H   0  0  0  0  0  0  0  0  0  0  0  0
  1  6  1  0  0  0  0
  1  2  1  0  0  0  0
  2  7  1  0  0  0  0
  3  2  1  0  0  0  0
  3  4  2  0  0  0  0
  5  1  1  0  0  0  0
  8  2  1  0  0  0  0
  9  3  1  0  0  0  0
 10  9  1  0  0  0  0
 10 21  1  1  0  0  0
 10 18  1  0  0  0  0
 11 10  1  0  0  0  0
 12 11  1  0  0  0  0
 13 24  1  0  0  0  0
 13 12  2  0  0  0  0
 14 13  1  0  0  0  0
 15 14  2  0  0  0  0
 15 16  1  0  0  0  0
 16 17  2  0  0  0  0
 17 12  1  0  0  0  0
 17 28  1  0  0  0  0
 18 32  1  0  0  0  0
 19 18  2  0  0  0  0
 20  9  1  0  0  0  0
 22 11  1  0  0  0  0
 23 11  1  0  0  0  0
 25 14  1  0  0  0  0
 26 15  1  0  0  0  0
 27 16  1  0  0  0  0
 30 29  1  0  0  0  0
 30 37  1  0  0  0  0
 30 31  1  0  0  0  0
 31 39  1  6  0  0  0
 31 33  1  0  0  0  0
 32 40  1  0  0  0  0
 32 31  1  0  0  0  0
 33 35  2  0  0  0  0
 33 34  1  0  0  0  0
 36 29  1  0  0  0  0
 38 30  1  0  0  0  0
M  END
$$$$
