GFW.pdb
 OpenBabel07022418243D

 53 55  0  0  1  0  0  0  0  0999 V2000
   -2.0990    2.0990    6.1180 N   0  0  0  0  0  0  0  0  0  0  0  0
   -1.8810    3.1360    5.1280 C   0  0  0  0  0  0  0  0  0  0  0  0
   -1.1470    2.5300    3.9690 C   0  0  0  0  0  0  0  0  0  0  0  0
   -0.8310    3.2260    2.9620 O   0  0  0  0  0  0  0  0  0  0  0  0
   -2.8050    1.4030    5.8530 H   0  0  0  0  0  0  0  0  0  0  0  0
   -1.2330    1.6760    6.4660 H   0  0  0  0  0  0  0  0  0  0  0  0
   -1.1640    3.8630    5.5770 H   0  0  0  0  0  0  0  0  0  0  0  0
   -2.8320    3.5870    4.8470 H   0  0  0  0  0  0  0  0  0  0  0  0
   -0.7770    1.1620    3.9480 N   0  0  0  0  0  0  0  0  0  0  0  0
   -0.0470    0.5740    2.7900 C   0  0  1  0  0  0  0  0  0  0  0  0
    1.2470    0.0240    3.2600 C   0  0  0  0  0  0  0  0  0  0  0  0
    2.0970   -0.5940    2.2370 C   0  0  0  0  0  0  0  0  0  0  0  0
    2.0770   -1.9730    1.9970 C   0  0  0  0  0  0  0  0  0  0  0  0
    2.8930   -2.5260    1.0330 C   0  0  0  0  0  0  0  0  0  0  0  0
    3.7430   -1.7580    0.2830 C   0  0  0  0  0  0  0  0  0  0  0  0
    3.7900   -0.3970    0.4920 C   0  0  0  0  0  0  0  0  0  0  0  0
    2.9680    0.1290    1.4580 C   0  0  0  0  0  0  0  0  0  0  0  0
   -0.9620   -0.3200    2.0920 C   0  0  0  0  0  0  0  0  0  0  0  0
   -2.0900   -0.5450    2.6720 O   0  0  0  0  0  0  0  0  0  0  0  0
   -1.0260    0.5670    4.7660 H   0  0  0  0  0  0  0  0  0  0  0  0
    0.1390    1.4410    2.1000 H   0  0  0  0  0  0  0  0  0  0  0  0
    1.1090   -0.6920    4.1100 H   0  0  0  0  0  0  0  0  0  0  0  0
    1.8430    0.8990    3.6660 H   0  0  0  0  0  0  0  0  0  0  0  0
    1.4110   -2.6000    2.5810 H   0  0  0  0  0  0  0  0  0  0  0  0
    2.8760   -3.6000    0.8470 H   0  0  0  0  0  0  0  0  0  0  0  0
    4.3710   -2.2150   -0.4640 H   0  0  0  0  0  0  0  0  0  0  0  0
    4.4710    0.1830   -0.1150 H   0  0  0  0  0  0  0  0  0  0  0  0
    3.0020    1.1980    1.6260 H   0  0  0  0  0  0  0  0  0  0  0  0
   -0.7900   -0.9690    0.8650 N   0  0  0  0  0  0  0  0  0  0  0  0
   -1.8270   -1.8170    0.3310 C   0  0  1  0  0  0  0  0  0  0  0  0
   -2.4720   -1.1990   -0.8840 C   0  0  0  0  0  0  0  0  0  0  0  0
   -1.5320   -0.9040   -1.9920 C   0  0  0  0  0  0  0  0  0  0  0  0
   -0.9040    0.3500   -2.1930 C   0  0  0  0  0  0  0  0  0  0  0  0
   -0.0950    0.2680   -3.2380 N   0  0  0  0  0  0  0  0  0  0  0  0
   -0.1180   -0.9630   -3.7800 C   0  0  0  0  0  0  0  0  0  0  0  0
    0.5290   -1.5290   -4.8630 C   0  0  0  0  0  0  0  0  0  0  0  0
    0.3020   -2.8400   -5.2110 C   0  0  0  0  0  0  0  0  0  0  0  0
   -0.5870   -3.5560   -4.4430 C   0  0  0  0  0  0  0  0  0  0  0  0
   -1.2420   -2.9980   -3.3520 C   0  0  0  0  0  0  0  0  0  0  0  0
   -1.0210   -1.6860   -2.9940 C   0  0  0  0  0  0  0  0  0  0  0  0
   -1.3980   -3.1790    0.0580 C   0  0  0  0  0  0  0  0  0  0  0  0
   -2.1660   -4.1270   -0.2530 O   0  0  0  0  0  0  0  0  0  0  0  0
   -0.0530   -3.5090    0.1350 O   0  0  0  0  0  0  0  0  0  0  0  0
    0.0950   -0.8160    0.3470 H   0  0  0  0  0  0  0  0  0  0  0  0
   -2.6880   -1.8940    1.0780 H   0  0  0  0  0  0  0  0  0  0  0  0
   -3.2300   -1.9320   -1.2870 H   0  0  0  0  0  0  0  0  0  0  0  0
   -3.0350   -0.2800   -0.6710 H   0  0  0  0  0  0  0  0  0  0  0  0
   -1.1240    1.1870   -1.5330 H   0  0  0  0  0  0  0  0  0  0  0  0
    0.4840    1.0600   -3.5910 H   0  0  0  0  0  0  0  0  0  0  0  0
    1.2280   -0.9680   -5.4680 H   0  0  0  0  0  0  0  0  0  0  0  0
    0.8080   -3.3020   -6.0640 H   0  0  0  0  0  0  0  0  0  0  0  0
   -0.8260   -4.5980   -4.6480 H   0  0  0  0  0  0  0  0  0  0  0  0
   -1.9470   -3.5650   -2.7720 H   0  0  0  0  0  0  0  0  0  0  0  0
  1  6  1  0  0  0  0
  2  7  1  0  0  0  0
  2  1  1  0  0  0  0
  3  2  1  0  0  0  0
  4  3  2  0  0  0  0
  5  1  1  0  0  0  0
  8  2  1  0  0  0  0
  9  3  1  0  0  0  0
  9 20  1  0  0  0  0
 10 21  1  6  0  0  0
 10 11  1  0  0  0  0
 10  9  1  0  0  0  0
 11 23  1  0  0  0  0
 11 22  1  0  0  0  0
 12 11  1  0  0  0  0
 13 12  1  0  0  0  0
 13 24  1  0  0  0  0
 14 13  2  0  0  0  0
 15 16  2  0  0  0  0
 15 14  1  0  0  0  0
 16 17  1  0  0  0  0
 17 28  1  0  0  0  0
 17 12  2  0  0  0  0
 18 19  2  0  0  0  0
 18 10  1  0  0  0  0
 25 14  1  0  0  0  0
 26 15  1  0  0  0  0
 27 16  1  0  0  0  0
 29 18  1  0  0  0  0
 30 29  1  0  0  0  0
 30 45  1  1  0  0  0
 31 47  1  0  0  0  0
 31 30  1  0  0  0  0
 32 31  1  0  0  0  0
 33 32  2  0  0  0  0
 33 48  1  0  0  0  0
 34 33  1  0  0  0  0
 35 34  1  0  0  0  0
 35 40  1  0  0  0  0
 36 35  2  0  0  0  0
 37 36  1  0  0  0  0
 37 38  2  0  0  0  0
 38 39  1  0  0  0  0
 39 40  2  0  0  0  0
 39 53  1  0  0  0  0
 40 32  1  0  0  0  0
 41 43  1  0  0  0  0
 41 30  1  0  0  0  0
 42 41  2  0  0  0  0
 44 29  1  0  0  0  0
 46 31  1  0  0  0  0
 49 34  1  0  0  0  0
 50 36  1  0  0  0  0
 51 37  1  0  0  0  0
 52 38  1  0  0  0  0
M  END
$$$$
