GGD.pdb
 OpenBabel07022418223D

 29 28  0  0  1  0  0  0  0  0999 V2000
   -2.9460   -3.4180    1.8370 N   0  0  0  0  0  0  0  0  0  0  0  0
   -2.0750   -4.3800    2.4630 C   0  0  0  0  0  0  0  0  0  0  0  0
   -0.6850   -3.9000    2.3880 C   0  0  0  0  0  0  0  0  0  0  0  0
    0.2070   -4.6520    2.9040 O   0  0  0  0  0  0  0  0  0  0  0  0
   -2.8090   -3.4090    0.7960 H   0  0  0  0  0  0  0  0  0  0  0  0
   -2.7610   -2.4670    2.1930 H   0  0  0  0  0  0  0  0  0  0  0  0
   -2.1360   -5.3830    1.9720 H   0  0  0  0  0  0  0  0  0  0  0  0
   -2.3650   -4.5490    3.5310 H   0  0  0  0  0  0  0  0  0  0  0  0
   -0.2640   -2.6920    1.8000 N   0  0  0  0  0  0  0  0  0  0  0  0
    1.1210   -2.3570    1.8080 C   0  0  0  0  0  0  0  0  0  0  0  0
    1.4960   -1.0910    1.1950 C   0  0  0  0  0  0  0  0  0  0  0  0
    2.7260   -0.7380    1.2030 O   0  0  0  0  0  0  0  0  0  0  0  0
   -0.9610   -2.0720    1.3720 H   0  0  0  0  0  0  0  0  0  0  0  0
    1.7490   -3.1510    1.3000 H   0  0  0  0  0  0  0  0  0  0  0  0
    1.4690   -2.4080    2.8840 H   0  0  0  0  0  0  0  0  0  0  0  0
    0.6400   -0.1500    0.5590 N   0  0  0  0  0  0  0  0  0  0  0  0
    1.1460    1.0870   -0.0050 C   0  0  1  0  0  0  0  0  0  0  0  0
    1.0960    1.1180   -1.5250 C   0  0  0  0  0  0  0  0  0  0  0  0
    1.6380    2.4250   -1.9980 C   0  0  0  0  0  0  0  0  0  0  0  0
    0.9040    3.3560   -2.4520 O   0  0  0  0  0  0  0  0  0  0  0  0
    0.4490    2.2310    0.6210 C   0  0  0  0  0  0  0  0  0  0  0  0
    0.6760    3.4250    0.3050 O   0  0  0  0  0  0  0  0  0  0  0  0
    3.0150    2.7040   -1.9620 O   0  0  0  0  0  0  0  0  0  0  0  0
   -0.5230    2.0400    1.6220 O   0  0  0  0  0  0  0  0  0  0  0  0
   -0.3700   -0.3800    0.5110 H   0  0  0  0  0  0  0  0  0  0  0  0
    2.2410    1.2120    0.2290 H   0  0  0  0  0  0  0  0  0  0  0  0
    0.0670    0.9830   -1.8970 H   0  0  0  0  0  0  0  0  0  0  0  0
    1.7140    0.3310   -1.9730 H   0  0  0  0  0  0  0  0  0  0  0  0
    3.3430    3.5780   -1.5070 H   0  0  0  0  0  0  0  0  0  0  0  0
  1  6  1  0  0  0  0
  1  2  1  0  0  0  0
  2  8  1  0  0  0  0
  3  2  1  0  0  0  0
  3  4  2  0  0  0  0
  5  1  1  0  0  0  0
  7  2  1  0  0  0  0
  9 10  1  0  0  0  0
  9  3  1  0  0  0  0
 10 15  1  0  0  0  0
 11 12  2  0  0  0  0
 11 10  1  0  0  0  0
 13  9  1  0  0  0  0
 14 10  1  0  0  0  0
 16 11  1  0  0  0  0
 17 26  1  1  0  0  0
 17 16  1  0  0  0  0
 17 21  1  0  0  0  0
 18 17  1  0  0  0  0
 19 23  1  0  0  0  0
 19 18  1  0  0  0  0
 20 19  2  0  0  0  0
 21 24  1  0  0  0  0
 22 21  2  0  0  0  0
 23 29  1  0  0  0  0
 25 16  1  0  0  0  0
 27 18  1  0  0  0  0
 28 18  1  0  0  0  0
M  END
$$$$
