GGE.pdb
 OpenBabel07022418223D

 32 31  0  0  1  0  0  0  0  0999 V2000
    0.3310   -0.8100    4.6560 N   0  0  0  0  0  0  0  0  0  0  0  0
    1.3170   -1.6550    4.0020 C   0  0  0  0  0  0  0  0  0  0  0  0
    0.7030   -2.2530    2.7730 C   0  0  0  0  0  0  0  0  0  0  0  0
   -0.4970   -1.9760    2.4780 O   0  0  0  0  0  0  0  0  0  0  0  0
   -0.6280   -1.2310    4.5740 H   0  0  0  0  0  0  0  0  0  0  0  0
    0.3420    0.1680    4.2650 H   0  0  0  0  0  0  0  0  0  0  0  0
    2.1870   -1.0470    3.6750 H   0  0  0  0  0  0  0  0  0  0  0  0
    1.5620   -2.4560    4.7010 H   0  0  0  0  0  0  0  0  0  0  0  0
    1.4220   -3.1250    1.9210 N   0  0  0  0  0  0  0  0  0  0  0  0
    0.7910   -3.6680    0.7440 C   0  0  0  0  0  0  0  0  0  0  0  0
    0.3910   -2.6550   -0.2480 C   0  0  0  0  0  0  0  0  0  0  0  0
   -0.2030   -3.0820   -1.2790 O   0  0  0  0  0  0  0  0  0  0  0  0
    2.4120   -3.3590    2.1710 H   0  0  0  0  0  0  0  0  0  0  0  0
   -0.1200   -4.2140    1.0770 H   0  0  0  0  0  0  0  0  0  0  0  0
    1.5060   -4.3770    0.2410 H   0  0  0  0  0  0  0  0  0  0  0  0
    0.6080   -1.2640   -0.1600 N   0  0  0  0  0  0  0  0  0  0  0  0
    0.1660   -0.3310   -1.2020 C   0  0  1  0  0  0  0  0  0  0  0  0
   -0.8620    0.5550   -0.5410 C   0  0  0  0  0  0  0  0  0  0  0  0
   -1.4590    1.5920   -1.4310 C   0  0  0  0  0  0  0  0  0  0  0  0
   -2.4490    2.3560   -0.6060 C   0  0  0  0  0  0  0  0  0  0  0  0
   -2.0330    3.2300    0.2100 O   0  0  0  0  0  0  0  0  0  0  0  0
    1.3050    0.3840   -1.7780 C   0  0  0  0  0  0  0  0  0  0  0  0
    2.4890    0.2020   -1.3620 O   0  0  0  0  0  0  0  0  0  0  0  0
   -3.8150    2.1410   -0.7030 O   0  0  0  0  0  0  0  0  0  0  0  0
    1.1350    1.2860   -2.8010 O   0  0  0  0  0  0  0  0  0  0  0  0
    1.1040   -0.8840    0.6550 H   0  0  0  0  0  0  0  0  0  0  0  0
   -0.3320   -0.8850   -2.0130 H   0  0  0  0  0  0  0  0  0  0  0  0
   -1.6820   -0.1090   -0.1930 H   0  0  0  0  0  0  0  0  0  0  0  0
   -0.4170    1.0740    0.3540 H   0  0  0  0  0  0  0  0  0  0  0  0
   -2.0370    1.0600   -2.2370 H   0  0  0  0  0  0  0  0  0  0  0  0
   -0.7530    2.2540   -1.9330 H   0  0  0  0  0  0  0  0  0  0  0  0
   -4.4270    2.6830   -0.0820 H   0  0  0  0  0  0  0  0  0  0  0  0
  2  1  1  0  0  0  0
  2  8  1  0  0  0  0
  3  2  1  0  0  0  0
  4  3  2  0  0  0  0
  5  1  1  0  0  0  0
  6  1  1  0  0  0  0
  7  2  1  0  0  0  0
  9 13  1  0  0  0  0
  9  3  1  0  0  0  0
 10 14  1  0  0  0  0
 10  9  1  0  0  0  0
 11 16  1  0  0  0  0
 11 10  1  0  0  0  0
 12 11  2  0  0  0  0
 15 10  1  0  0  0  0
 16 26  1  0  0  0  0
 17 27  1  6  0  0  0
 17 18  1  0  0  0  0
 17 16  1  0  0  0  0
 18 28  1  0  0  0  0
 18 29  1  0  0  0  0
 19 20  1  0  0  0  0
 19 18  1  0  0  0  0
 20 21  2  0  0  0  0
 22 23  1  0  0  0  0
 22 17  1  0  0  0  0
 24 20  1  0  0  0  0
 24 32  1  0  0  0  0
 25 22  2  0  0  0  0
 30 19  1  0  0  0  0
 31 19  1  0  0  0  0
M  END
$$$$
