GGG.pdb
 OpenBabel07022418223D

 23 22  0  0  0  0  0  0  0  0999 V2000
    1.0290    0.5280    4.1170 N   0  0  0  0  0  0  0  0  0  0  0  0
    1.3250   -0.8630    4.2750 C   0  0  0  0  0  0  0  0  0  0  0  0
    1.1160   -1.6060    3.0080 C   0  0  0  0  0  0  0  0  0  0  0  0
    1.3090   -2.8330    2.8960 O   0  0  0  0  0  0  0  0  0  0  0  0
    1.4080    1.0370    4.9420 H   0  0  0  0  0  0  0  0  0  0  0  0
   -0.0130    0.6420    4.1080 H   0  0  0  0  0  0  0  0  0  0  0  0
    0.7740   -1.3560    5.0940 H   0  0  0  0  0  0  0  0  0  0  0  0
    2.4090   -0.9490    4.5160 H   0  0  0  0  0  0  0  0  0  0  0  0
    0.6690   -0.9090    1.8240 N   0  0  0  0  0  0  0  0  0  0  0  0
    0.4770   -1.6490    0.6220 C   0  0  0  0  0  0  0  0  0  0  0  0
    0.0230   -0.8440   -0.5150 C   0  0  0  0  0  0  0  0  0  0  0  0
   -0.1860   -1.4030   -1.6620 O   0  0  0  0  0  0  0  0  0  0  0  0
    0.5200    0.1050    1.9570 H   0  0  0  0  0  0  0  0  0  0  0  0
   -0.2870   -2.4610    0.7580 H   0  0  0  0  0  0  0  0  0  0  0  0
    1.4160   -2.2370    0.3580 H   0  0  0  0  0  0  0  0  0  0  0  0
   -0.2080    0.5390   -0.4410 N   0  0  0  0  0  0  0  0  0  0  0  0
   -0.6590    1.2820   -1.6060 C   0  0  0  0  0  0  0  0  0  0  0  0
    0.3100    1.1880   -2.7240 C   0  0  0  0  0  0  0  0  0  0  0  0
    0.0840    1.7720   -3.8140 O   0  0  0  0  0  0  0  0  0  0  0  0
    1.4970    0.4710   -2.6420 O   0  0  0  0  0  0  0  0  0  0  0  0
   -0.0700    1.0760    0.4290 H   0  0  0  0  0  0  0  0  0  0  0  0
   -0.8160    2.3370   -1.3200 H   0  0  0  0  0  0  0  0  0  0  0  0
   -1.6380    0.9030   -1.9870 H   0  0  0  0  0  0  0  0  0  0  0  0
  1  2  1  0  0  0  0
  1  5  1  0  0  0  0
  2  8  1  0  0  0  0
  2  7  1  0  0  0  0
  3  2  1  0  0  0  0
  4  3  2  0  0  0  0
  6  1  1  0  0  0  0
  9 13  1  0  0  0  0
  9  3  1  0  0  0  0
 10 14  1  0  0  0  0
 10  9  1  0  0  0  0
 11 16  1  0  0  0  0
 11 10  1  0  0  0  0
 12 11  2  0  0  0  0
 15 10  1  0  0  0  0
 16 21  1  0  0  0  0
 17 22  1  0  0  0  0
 17 16  1  0  0  0  0
 18 20  1  0  0  0  0
 18 17  1  0  0  0  0
 19 18  2  0  0  0  0
 23 17  1  0  0  0  0
M  END
$$$$
