GGH.pdb
 OpenBabel07022418223D

 33 33  0  0  1  0  0  0  0  0999 V2000
   -0.7380   -3.3370    5.4420 N   0  0  0  0  0  0  0  0  0  0  0  0
    0.0360   -3.9910    4.4050 C   0  0  0  0  0  0  0  0  0  0  0  0
   -0.4220   -3.4600    3.0740 C   0  0  0  0  0  0  0  0  0  0  0  0
   -1.3300   -2.5960    3.0110 O   0  0  0  0  0  0  0  0  0  0  0  0
   -0.8940   -2.3270    5.2400 H   0  0  0  0  0  0  0  0  0  0  0  0
   -0.3690   -3.5390    6.3810 H   0  0  0  0  0  0  0  0  0  0  0  0
    1.1040   -3.7520    4.5780 H   0  0  0  0  0  0  0  0  0  0  0  0
   -0.1370   -5.0730    4.3920 H   0  0  0  0  0  0  0  0  0  0  0  0
    0.1410   -3.9010    1.8560 N   0  0  0  0  0  0  0  0  0  0  0  0
   -0.3360   -3.3530    0.6150 C   0  0  0  0  0  0  0  0  0  0  0  0
   -0.1120   -1.8710    0.5700 C   0  0  0  0  0  0  0  0  0  0  0  0
    0.4440   -1.3320    1.5770 O   0  0  0  0  0  0  0  0  0  0  0  0
    0.8960   -4.6150    1.8310 H   0  0  0  0  0  0  0  0  0  0  0  0
   -1.4100   -3.5880    0.4400 H   0  0  0  0  0  0  0  0  0  0  0  0
    0.2140   -3.7680   -0.2440 H   0  0  0  0  0  0  0  0  0  0  0  0
   -0.5080   -1.1030   -0.5530 N   0  0  0  0  0  0  0  0  0  0  0  0
   -0.2360    0.3410   -0.4810 C   0  0  1  0  0  0  0  0  0  0  0  0
    0.6080    0.7620   -1.6500 C   0  0  0  0  0  0  0  0  0  0  0  0
    0.9330    2.1980   -1.5750 C   0  0  0  0  0  0  0  0  0  0  0  0
    1.6940    2.8770   -2.5460 C   0  0  0  0  0  0  0  0  0  0  0  0
    1.8090    4.1590   -2.1900 N   0  0  0  0  0  0  0  0  0  0  0  0
    1.1550    4.3330   -1.0340 C   0  0  0  0  0  0  0  0  0  0  0  0
    0.6390    3.1450   -0.6860 N   0  0  0  0  0  0  0  0  0  0  0  0
   -1.5790    0.9760   -0.5170 C   0  0  0  0  0  0  0  0  0  0  0  0
   -1.7280    2.2260   -0.4490 O   0  0  0  0  0  0  0  0  0  0  0  0
   -2.7070    0.1440   -0.6310 O   0  0  0  0  0  0  0  0  0  0  0  0
   -0.9520   -1.5700   -1.3450 H   0  0  0  0  0  0  0  0  0  0  0  0
    0.2430    0.5580    0.4730 H   0  0  0  0  0  0  0  0  0  0  0  0
    1.5700    0.2070   -1.5930 H   0  0  0  0  0  0  0  0  0  0  0  0
    0.0820    0.5520   -2.6010 H   0  0  0  0  0  0  0  0  0  0  0  0
    2.0950    2.3810   -3.4200 H   0  0  0  0  0  0  0  0  0  0  0  0
    2.3320    4.8890   -2.7440 H   0  0  0  0  0  0  0  0  0  0  0  0
    1.0700    5.2590   -0.4990 H   0  0  0  0  0  0  0  0  0  0  0  0
  1  6  1  0  0  0  0
  2  7  1  0  0  0  0
  2  1  1  0  0  0  0
  3  2  1  0  0  0  0
  4  3  2  0  0  0  0
  5  1  1  0  0  0  0
  8  2  1  0  0  0  0
  9  3  1  0  0  0  0
 10  9  1  0  0  0  0
 11 10  1  0  0  0  0
 11 12  2  0  0  0  0
 13  9  1  0  0  0  0
 14 10  1  0  0  0  0
 15 10  1  0  0  0  0
 16 17  1  0  0  0  0
 16 11  1  0  0  0  0
 17 28  1  1  0  0  0
 18 29  1  0  0  0  0
 18 19  1  0  0  0  0
 18 17  1  0  0  0  0
 19 23  1  0  0  0  0
 20 21  1  0  0  0  0
 20 19  2  0  0  0  0
 21 22  1  0  0  0  0
 22 23  2  0  0  0  0
 22 33  1  0  0  0  0
 24 17  1  0  0  0  0
 24 25  1  0  0  0  0
 26 24  2  0  0  0  0
 27 16  1  0  0  0  0
 30 18  1  0  0  0  0
 31 20  1  0  0  0  0
 32 21  1  0  0  0  0
M  END
$$$$
