GGP.pdb
 OpenBabel07022418223D

 30 30  0  0  1  0  0  0  0  0999 V2000
   -1.3880   -1.5690    3.9340 N   0  0  0  0  0  0  0  0  0  0  0  0
   -0.6690   -2.4620    3.0790 C   0  0  0  0  0  0  0  0  0  0  0  0
    0.5290   -1.8680    2.4790 C   0  0  0  0  0  0  0  0  0  0  0  0
    1.2440   -2.5400    1.7140 O   0  0  0  0  0  0  0  0  0  0  0  0
   -0.8210   -1.1700    4.6870 H   0  0  0  0  0  0  0  0  0  0  0  0
   -2.0330   -0.9340    3.4540 H   0  0  0  0  0  0  0  0  0  0  0  0
   -1.3480   -2.7910    2.2530 H   0  0  0  0  0  0  0  0  0  0  0  0
   -0.4200   -3.3980    3.6370 H   0  0  0  0  0  0  0  0  0  0  0  0
    0.9170   -0.5080    2.7450 N   0  0  0  0  0  0  0  0  0  0  0  0
    2.0650    0.0930    2.1750 C   0  0  0  0  0  0  0  0  0  0  0  0
    2.0250    0.2640    0.7300 C   0  0  0  0  0  0  0  0  0  0  0  0
    3.1420    0.7000    0.1950 O   0  0  0  0  0  0  0  0  0  0  0  0
    0.2600   -0.0030    3.4070 H   0  0  0  0  0  0  0  0  0  0  0  0
    2.1720    1.1060    2.6640 H   0  0  0  0  0  0  0  0  0  0  0  0
    2.9560   -0.5220    2.4920 H   0  0  0  0  0  0  0  0  0  0  0  0
    0.9700    0.0360   -0.1650 N   0  0  0  0  0  0  0  0  0  0  0  0
    1.1580    0.1720   -1.6350 C   0  0  0  0  0  0  0  0  0  0  0  0
   -0.1740    0.5050   -2.2100 C   0  0  0  0  0  0  0  0  0  0  0  0
   -1.0500    0.7400   -1.0190 C   0  0  0  0  0  0  0  0  0  0  0  0
   -0.4280   -0.2740   -0.0180 C   0  0  1  0  0  0  0  0  0  0  0  0
   -0.7820   -1.5910   -0.5900 C   0  0  0  0  0  0  0  0  0  0  0  0
   -2.0100   -1.9190   -0.5010 O   0  0  0  0  0  0  0  0  0  0  0  0
    0.1200   -2.4310   -1.1830 O   0  0  0  0  0  0  0  0  0  0  0  0
    1.5580   -0.7850   -1.9830 H   0  0  0  0  0  0  0  0  0  0  0  0
    1.9150    0.9700   -1.7930 H   0  0  0  0  0  0  0  0  0  0  0  0
   -0.1940    1.3980   -2.8530 H   0  0  0  0  0  0  0  0  0  0  0  0
   -0.5500   -0.3810   -2.7630 H   0  0  0  0  0  0  0  0  0  0  0  0
   -1.0010    1.7550   -0.6110 H   0  0  0  0  0  0  0  0  0  0  0  0
   -2.0860    0.3840   -1.1860 H   0  0  0  0  0  0  0  0  0  0  0  0
   -0.8540   -0.0730    0.9780 H   0  0  0  0  0  0  0  0  0  0  0  0
  1  5  1  0  0  0  0
  2  8  1  0  0  0  0
  2  1  1  0  0  0  0
  3  9  1  0  0  0  0
  3  2  1  0  0  0  0
  4  3  2  0  0  0  0
  6  1  1  0  0  0  0
  7  2  1  0  0  0  0
  9 13  1  0  0  0  0
 10 15  1  0  0  0  0
 10 14  1  0  0  0  0
 10  9  1  0  0  0  0
 11 10  1  0  0  0  0
 12 11  2  0  0  0  0
 16 20  1  0  0  0  0
 16 11  1  0  0  0  0
 17 16  1  0  0  0  0
 18 17  1  0  0  0  0
 18 19  1  0  0  0  0
 19 28  1  0  0  0  0
 19 20  1  0  0  0  0
 20 30  1  1  0  0  0
 21 22  1  0  0  0  0
 21 20  1  0  0  0  0
 23 21  2  0  0  0  0
 24 17  1  0  0  0  0
 25 17  1  0  0  0  0
 26 18  1  0  0  0  0
 27 18  1  0  0  0  0
 29 19  1  0  0  0  0
M  END
$$$$
