GHE.pdb
 OpenBabel07022418233D

 42 42  0  0  1  0  0  0  0  0999 V2000
   -0.1700   -4.4240   -0.1120 N   0  0  0  0  0  0  0  0  0  0  0  0
    1.1980   -4.4730   -0.5330 C   0  0  0  0  0  0  0  0  0  0  0  0
    1.7370   -3.0940   -0.6650 C   0  0  0  0  0  0  0  0  0  0  0  0
    2.9510   -2.9310   -1.0310 O   0  0  0  0  0  0  0  0  0  0  0  0
   -0.3680   -5.0980    0.6600 H   0  0  0  0  0  0  0  0  0  0  0  0
   -0.8530   -4.5150   -0.9000 H   0  0  0  0  0  0  0  0  0  0  0  0
    1.3050   -5.0370   -1.4960 H   0  0  0  0  0  0  0  0  0  0  0  0
    1.7760   -4.9910    0.2700 H   0  0  0  0  0  0  0  0  0  0  0  0
    0.9510   -1.9410   -0.3980 N   0  0  0  0  0  0  0  0  0  0  0  0
    1.5160   -0.5920   -0.5380 C   0  0  1  0  0  0  0  0  0  0  0  0
    0.6620    0.0900   -1.6150 C   0  0  0  0  0  0  0  0  0  0  0  0
    1.1080    1.4820   -1.8800 C   0  0  0  0  0  0  0  0  0  0  0  0
    2.0540    1.8560   -2.8110 C   0  0  0  0  0  0  0  0  0  0  0  0
    2.2000    3.1790   -2.7730 N   0  0  0  0  0  0  0  0  0  0  0  0
    1.3710    3.6780   -1.8370 C   0  0  0  0  0  0  0  0  0  0  0  0
    0.7140    2.6310   -1.3040 N   0  0  0  0  0  0  0  0  0  0  0  0
    1.3440    0.1860    0.7110 C   0  0  0  0  0  0  0  0  0  0  0  0
    1.7820    1.3480    0.7690 O   0  0  0  0  0  0  0  0  0  0  0  0
   -0.0380   -2.0950   -0.1030 H   0  0  0  0  0  0  0  0  0  0  0  0
    2.5610   -0.6630   -0.8430 H   0  0  0  0  0  0  0  0  0  0  0  0
   -0.4030    0.0510   -1.3110 H   0  0  0  0  0  0  0  0  0  0  0  0
    0.7250   -0.5250   -2.5590 H   0  0  0  0  0  0  0  0  0  0  0  0
    2.5980    1.1960   -3.4720 H   0  0  0  0  0  0  0  0  0  0  0  0
    2.8490    3.7520   -3.3650 H   0  0  0  0  0  0  0  0  0  0  0  0
    1.2710    4.7240   -1.5830 H   0  0  0  0  0  0  0  0  0  0  0  0
    0.6890   -0.3650    1.8450 N   0  0  0  0  0  0  0  0  0  0  0  0
    0.5140    0.3990    3.0840 C   0  0  1  0  0  0  0  0  0  0  0  0
   -0.9580    0.6260    3.3770 C   0  0  0  0  0  0  0  0  0  0  0  0
   -1.6490   -0.7130    3.5250 C   0  0  0  0  0  0  0  0  0  0  0  0
   -3.0890   -0.5660    3.8080 C   0  0  0  0  0  0  0  0  0  0  0  0
   -3.4510   -0.2730    4.9700 O   0  0  0  0  0  0  0  0  0  0  0  0
    1.0880   -0.3500    4.2250 C   0  0  0  0  0  0  0  0  0  0  0  0
    1.0610    0.0940    5.4010 O   0  0  0  0  0  0  0  0  0  0  0  0
   -4.0640   -0.7390    2.8420 O   0  0  0  0  0  0  0  0  0  0  0  0
    1.7000   -1.6080    4.0670 O   0  0  0  0  0  0  0  0  0  0  0  0
    0.3420   -1.3400    1.7480 H   0  0  0  0  0  0  0  0  0  0  0  0
    0.9870    1.3910    2.9670 H   0  0  0  0  0  0  0  0  0  0  0  0
   -1.0060    1.1310    4.3600 H   0  0  0  0  0  0  0  0  0  0  0  0
   -1.4490    1.2750    2.6520 H   0  0  0  0  0  0  0  0  0  0  0  0
   -1.5160   -1.2590    2.5730 H   0  0  0  0  0  0  0  0  0  0  0  0
   -1.1290   -1.3050    4.3050 H   0  0  0  0  0  0  0  0  0  0  0  0
   -5.0440   -0.4830    2.9940 H   0  0  0  0  0  0  0  0  0  0  0  0
  1  5  1  0  0  0  0
  2  1  1  0  0  0  0
  2  8  1  0  0  0  0
  3  2  1  0  0  0  0
  3  9  1  0  0  0  0
  4  3  2  0  0  0  0
  6  1  1  0  0  0  0
  7  2  1  0  0  0  0
  9 19  1  0  0  0  0
 10 20  1  6  0  0  0
 10  9  1  0  0  0  0
 10 17  1  0  0  0  0
 11 21  1  0  0  0  0
 11 10  1  0  0  0  0
 12 11  1  0  0  0  0
 12 16  1  0  0  0  0
 13 14  1  0  0  0  0
 13 12  2  0  0  0  0
 14 15  1  0  0  0  0
 15 25  1  0  0  0  0
 15 16  2  0  0  0  0
 17 18  2  0  0  0  0
 17 26  1  0  0  0  0
 22 11  1  0  0  0  0
 23 13  1  0  0  0  0
 24 14  1  0  0  0  0
 26 27  1  0  0  0  0
 27 37  1  6  0  0  0
 27 28  1  0  0  0  0
 27 32  1  0  0  0  0
 28 29  1  0  0  0  0
 28 38  1  0  0  0  0
 29 30  1  0  0  0  0
 29 41  1  0  0  0  0
 30 31  2  0  0  0  0
 32 33  1  0  0  0  0
 34 42  1  0  0  0  0
 34 30  1  0  0  0  0
 35 32  2  0  0  0  0
 36 26  1  0  0  0  0
 39 28  1  0  0  0  0
 40 29  1  0  0  0  0
M  END
$$$$
