GHF.pdb
 OpenBabel07022418233D

 46 47  0  0  1  0  0  0  0  0999 V2000
    5.6040   -1.6920    2.1040 N   0  0  0  0  0  0  0  0  0  0  0  0
    4.3120   -2.2160    1.6720 C   0  0  0  0  0  0  0  0  0  0  0  0
    3.4070   -1.0350    1.4860 C   0  0  0  0  0  0  0  0  0  0  0  0
    3.7900    0.1460    1.6900 O   0  0  0  0  0  0  0  0  0  0  0  0
    6.2990   -2.4440    2.2490 H   0  0  0  0  0  0  0  0  0  0  0  0
    5.4800   -1.1920    3.0110 H   0  0  0  0  0  0  0  0  0  0  0  0
    3.9340   -2.8930    2.4690 H   0  0  0  0  0  0  0  0  0  0  0  0
    4.3830   -2.7330    0.7120 H   0  0  0  0  0  0  0  0  0  0  0  0
    2.0660   -1.2500    1.0620 N   0  0  0  0  0  0  0  0  0  0  0  0
    1.1650   -0.1360    0.8720 C   0  0  1  0  0  0  0  0  0  0  0  0
    0.7020   -0.0340   -0.5670 C   0  0  0  0  0  0  0  0  0  0  0  0
    1.8930    0.1570   -1.4330 C   0  0  0  0  0  0  0  0  0  0  0  0
    2.6890   -0.7850   -2.0490 C   0  0  0  0  0  0  0  0  0  0  0  0
    3.6730   -0.1590   -2.7480 N   0  0  0  0  0  0  0  0  0  0  0  0
    3.4930    1.1590   -2.5710 C   0  0  0  0  0  0  0  0  0  0  0  0
    2.4270    1.3600   -1.7830 N   0  0  0  0  0  0  0  0  0  0  0  0
    0.0300   -0.2200    1.8140 C   0  0  0  0  0  0  0  0  0  0  0  0
   -0.0190   -1.1830    2.6190 O   0  0  0  0  0  0  0  0  0  0  0  0
    1.7690   -2.2500    0.8970 H   0  0  0  0  0  0  0  0  0  0  0  0
    1.7150    0.7960    1.1080 H   0  0  0  0  0  0  0  0  0  0  0  0
    0.2520   -1.0290   -0.8220 H   0  0  0  0  0  0  0  0  0  0  0  0
   -0.0360    0.7500   -0.7210 H   0  0  0  0  0  0  0  0  0  0  0  0
    2.5310   -1.8510   -1.9690 H   0  0  0  0  0  0  0  0  0  0  0  0
    4.4110   -0.6250   -3.3050 H   0  0  0  0  0  0  0  0  0  0  0  0
    4.1190    1.9200   -3.0030 H   0  0  0  0  0  0  0  0  0  0  0  0
   -1.0130    0.7500    1.8480 N   0  0  0  0  0  0  0  0  0  0  0  0
   -2.1320    0.7300    2.7230 C   0  0  1  0  0  0  0  0  0  0  0  0
   -2.9000   -0.5810    2.7610 C   0  0  0  0  0  0  0  0  0  0  0  0
   -3.4270   -0.8650    1.4180 C   0  0  0  0  0  0  0  0  0  0  0  0
   -2.7500   -1.6480    0.5290 C   0  0  0  0  0  0  0  0  0  0  0  0
   -3.2490   -1.9060   -0.7560 C   0  0  0  0  0  0  0  0  0  0  0  0
   -4.4560   -1.3550   -1.1320 C   0  0  0  0  0  0  0  0  0  0  0  0
   -5.1560   -0.5610   -0.2470 C   0  0  0  0  0  0  0  0  0  0  0  0
   -4.6510   -0.3180    1.0120 C   0  0  0  0  0  0  0  0  0  0  0  0
   -1.8370    1.1590    4.1020 C   0  0  0  0  0  0  0  0  0  0  0  0
   -2.6690    1.2140    5.0150 O   0  0  0  0  0  0  0  0  0  0  0  0
   -0.5210    1.5340    4.4060 O   0  0  0  0  0  0  0  0  0  0  0  0
   -0.8810    1.5300    1.1300 H   0  0  0  0  0  0  0  0  0  0  0  0
   -2.8820    1.4890    2.3080 H   0  0  0  0  0  0  0  0  0  0  0  0
   -3.7170   -0.5030    3.5270 H   0  0  0  0  0  0  0  0  0  0  0  0
   -2.2800   -1.4290    3.1030 H   0  0  0  0  0  0  0  0  0  0  0  0
   -1.8250   -2.0980    0.7840 H   0  0  0  0  0  0  0  0  0  0  0  0
   -2.6920   -2.5320   -1.4470 H   0  0  0  0  0  0  0  0  0  0  0  0
   -4.8480   -1.5430   -2.1060 H   0  0  0  0  0  0  0  0  0  0  0  0
   -6.1110   -0.1010   -0.4870 H   0  0  0  0  0  0  0  0  0  0  0  0
   -5.1840    0.3000    1.7170 H   0  0  0  0  0  0  0  0  0  0  0  0
  1  5  1  0  0  0  0
  1  6  1  0  0  0  0
  2  1  1  0  0  0  0
  2  7  1  0  0  0  0
  3  2  1  0  0  0  0
  3  4  2  0  0  0  0
  8  2  1  0  0  0  0
  9  3  1  0  0  0  0
 10  9  1  0  0  0  0
 10 20  1  1  0  0  0
 10 17  1  0  0  0  0
 11 10  1  0  0  0  0
 12 11  1  0  0  0  0
 13 23  1  0  0  0  0
 13 12  2  0  0  0  0
 14 15  1  0  0  0  0
 14 13  1  0  0  0  0
 15 16  2  0  0  0  0
 16 12  1  0  0  0  0
 17 26  1  0  0  0  0
 17 18  2  0  0  0  0
 19  9  1  0  0  0  0
 21 11  1  0  0  0  0
 22 11  1  0  0  0  0
 24 14  1  0  0  0  0
 25 15  1  0  0  0  0
 26 27  1  0  0  0  0
 27 39  1  6  0  0  0
 27 28  1  0  0  0  0
 27 35  1  0  0  0  0
 28 41  1  0  0  0  0
 28 40  1  0  0  0  0
 29 28  1  0  0  0  0
 30 42  1  0  0  0  0
 30 29  2  0  0  0  0
 31 30  1  0  0  0  0
 32 31  2  0  0  0  0
 32 33  1  0  0  0  0
 33 34  2  0  0  0  0
 34 29  1  0  0  0  0
 34 46  1  0  0  0  0
 35 37  2  0  0  0  0
 35 36  1  0  0  0  0
 38 26  1  0  0  0  0
 43 31  1  0  0  0  0
 44 32  1  0  0  0  0
 45 33  1  0  0  0  0
M  END
$$$$
