GHI.pdb
 OpenBabel07022418233D

 45 45  0  0  1  0  0  0  0  0999 V2000
   -3.4110   -0.2890   -1.3220 N   0  0  0  0  0  0  0  0  0  0  0  0
   -3.2800   -1.7150   -1.5670 C   0  0  0  0  0  0  0  0  0  0  0  0
   -1.8630   -2.0960   -1.3490 C   0  0  0  0  0  0  0  0  0  0  0  0
   -1.4920   -3.3030   -1.5040 O   0  0  0  0  0  0  0  0  0  0  0  0
   -3.2340   -0.0720   -0.3170 H   0  0  0  0  0  0  0  0  0  0  0  0
   -4.3260    0.0760   -1.6710 H   0  0  0  0  0  0  0  0  0  0  0  0
   -3.5140   -1.8960   -2.6410 H   0  0  0  0  0  0  0  0  0  0  0  0
   -3.9710   -2.2760   -0.8960 H   0  0  0  0  0  0  0  0  0  0  0  0
   -0.8930   -1.1470   -0.9690 N   0  0  0  0  0  0  0  0  0  0  0  0
    0.5000   -1.5350   -0.7580 C   0  0  1  0  0  0  0  0  0  0  0  0
    1.3460   -0.7080   -1.7160 C   0  0  0  0  0  0  0  0  0  0  0  0
    2.7810   -1.0390   -1.5690 C   0  0  0  0  0  0  0  0  0  0  0  0
    3.4350   -2.0150   -2.2770 C   0  0  0  0  0  0  0  0  0  0  0  0
    4.7070   -2.0400   -1.8940 N   0  0  0  0  0  0  0  0  0  0  0  0
    4.8530   -1.0870   -0.9550 C   0  0  0  0  0  0  0  0  0  0  0  0
    3.6760   -0.4690   -0.7500 N   0  0  0  0  0  0  0  0  0  0  0  0
    0.8890   -1.2950    0.6490 C   0  0  0  0  0  0  0  0  0  0  0  0
    2.0250   -1.5530    1.0570 O   0  0  0  0  0  0  0  0  0  0  0  0
   -1.1760   -0.1550   -0.8360 H   0  0  0  0  0  0  0  0  0  0  0  0
    0.5900   -2.6090   -0.9560 H   0  0  0  0  0  0  0  0  0  0  0  0
    1.0480   -0.9030   -2.7480 H   0  0  0  0  0  0  0  0  0  0  0  0
    1.2300    0.3650   -1.4480 H   0  0  0  0  0  0  0  0  0  0  0  0
    2.9860   -2.6660   -3.0310 H   0  0  0  0  0  0  0  0  0  0  0  0
    5.4690   -2.6650   -2.2390 H   0  0  0  0  0  0  0  0  0  0  0  0
    5.7850   -0.8680   -0.4510 H   0  0  0  0  0  0  0  0  0  0  0  0
   -1.4310    2.0750    2.2820 C   0  0  0  0  0  0  0  0  0  0  0  0
   -1.0540    1.4500    3.6020 C   0  0  0  0  0  0  0  0  0  0  0  0
    0.2990    0.7970    3.5840 C   0  0  2  0  0  0  0  0  0  0  0  0
    1.4250    1.7380    3.2590 C   0  0  0  0  0  0  0  0  0  0  0  0
    0.3680   -0.5310    2.9610 C   0  0  2  0  0  0  0  0  0  0  0  0
    0.0290   -0.7640    1.6380 N   0  0  0  0  0  0  0  0  0  0  0  0
   -0.3630   -1.4920    3.8310 C   0  0  0  0  0  0  0  0  0  0  0  0
   -0.2380   -1.5020    5.0810 O   0  0  0  0  0  0  0  0  0  0  0  0
   -1.2110   -2.4070    3.2350 O   0  0  0  0  0  0  0  0  0  0  0  0
   -1.5720    3.1720    2.3420 H   0  0  0  0  0  0  0  0  0  0  0  0
   -2.4120    1.6540    1.9780 H   0  0  0  0  0  0  0  0  0  0  0  0
   -0.7190    1.8580    1.4730 H   0  0  0  0  0  0  0  0  0  0  0  0
   -1.8290    0.7140    3.9460 H   0  0  0  0  0  0  0  0  0  0  0  0
   -1.1260    2.2660    4.3560 H   0  0  0  0  0  0  0  0  0  0  0  0
    0.5110    0.5740    4.6720 H   0  0  0  0  0  0  0  0  0  0  0  0
    1.4370    2.5980    3.9580 H   0  0  0  0  0  0  0  0  0  0  0  0
    1.5050    2.0110    2.2020 H   0  0  0  0  0  0  0  0  0  0  0  0
    2.3730    1.1680    3.4950 H   0  0  0  0  0  0  0  0  0  0  0  0
    1.4560   -0.8530    3.0770 H   0  0  0  0  0  0  0  0  0  0  0  0
   -0.9530   -0.5250    1.3500 H   0  0  0  0  0  0  0  0  0  0  0  0
  1  5  1  0  0  0  0
  2  3  1  0  0  0  0
  2  1  1  0  0  0  0
  2  8  1  0  0  0  0
  3  9  1  0  0  0  0
  4  3  2  0  0  0  0
  6  1  1  0  0  0  0
  7  2  1  0  0  0  0
  9 19  1  0  0  0  0
  9 10  1  0  0  0  0
 10 20  1  6  0  0  0
 10 17  1  0  0  0  0
 11 12  1  0  0  0  0
 11 22  1  0  0  0  0
 11 10  1  0  0  0  0
 12 16  1  0  0  0  0
 13 14  1  0  0  0  0
 13 12  2  0  0  0  0
 14 15  1  0  0  0  0
 15 16  2  0  0  0  0
 15 25  1  0  0  0  0
 17 18  2  0  0  0  0
 17 31  1  0  0  0  0
 21 11  1  0  0  0  0
 23 13  1  0  0  0  0
 24 14  1  0  0  0  0
 26 35  1  0  0  0  0
 26 27  1  0  0  0  0
 27 38  1  0  0  0  0
 27 39  1  0  0  0  0
 28 27  1  0  0  0  0
 28 40  1  1  0  0  0
 29 43  1  0  0  0  0
 29 28  1  0  0  0  0
 29 41  1  0  0  0  0
 30 44  1  1  0  0  0
 30 28  1  0  0  0  0
 30 32  1  0  0  0  0
 31 30  1  0  0  0  0
 32 33  1  0  0  0  0
 34 32  2  0  0  0  0
 36 26  1  0  0  0  0
 37 26  1  0  0  0  0
 42 29  1  0  0  0  0
 45 31  1  0  0  0  0
M  END
$$$$
