GHM.pdb
 OpenBabel07022418233D

 43 43  0  0  1  0  0  0  0  0999 V2000
   -3.9530   -1.6680    2.4460 N   0  0  0  0  0  0  0  0  0  0  0  0
   -3.4180   -2.9820    2.1750 C   0  0  0  0  0  0  0  0  0  0  0  0
   -2.2780   -2.9160    1.2440 C   0  0  0  0  0  0  0  0  0  0  0  0
   -1.7310   -4.0280    0.9390 O   0  0  0  0  0  0  0  0  0  0  0  0
   -3.1970   -1.0820    2.8270 H   0  0  0  0  0  0  0  0  0  0  0  0
   -4.3670   -1.2900    1.5830 H   0  0  0  0  0  0  0  0  0  0  0  0
   -4.1740   -3.6630    1.7340 H   0  0  0  0  0  0  0  0  0  0  0  0
   -3.0660   -3.4510    3.1310 H   0  0  0  0  0  0  0  0  0  0  0  0
   -1.7840   -1.7080    0.6930 N   0  0  0  0  0  0  0  0  0  0  0  0
   -0.6520   -1.7980   -0.2120 C   0  0  1  0  0  0  0  0  0  0  0  0
   -0.9520   -1.2340   -1.5560 C   0  0  0  0  0  0  0  0  0  0  0  0
    0.2360   -1.3620   -2.4310 C   0  0  0  0  0  0  0  0  0  0  0  0
    0.5050   -2.4730   -3.2440 C   0  0  0  0  0  0  0  0  0  0  0  0
    1.6530   -2.2690   -3.9030 N   0  0  0  0  0  0  0  0  0  0  0  0
    2.1230   -1.0690   -3.5390 C   0  0  0  0  0  0  0  0  0  0  0  0
    1.2660   -0.5260   -2.6520 N   0  0  0  0  0  0  0  0  0  0  0  0
    0.4600   -1.0470    0.4150 C   0  0  0  0  0  0  0  0  0  0  0  0
    1.6080   -0.9460   -0.0860 O   0  0  0  0  0  0  0  0  0  0  0  0
   -2.2210   -0.8050    0.9340 H   0  0  0  0  0  0  0  0  0  0  0  0
   -0.3290   -2.8580   -0.3490 H   0  0  0  0  0  0  0  0  0  0  0  0
   -1.8640   -1.6530   -2.0240 H   0  0  0  0  0  0  0  0  0  0  0  0
   -1.1070   -0.1230   -1.4160 H   0  0  0  0  0  0  0  0  0  0  0  0
   -0.1510   -3.3300   -3.2880 H   0  0  0  0  0  0  0  0  0  0  0  0
    2.0990   -2.9170   -4.5720 H   0  0  0  0  0  0  0  0  0  0  0  0
    3.0440   -0.6020   -3.8960 H   0  0  0  0  0  0  0  0  0  0  0  0
    3.5730    3.3190    0.6040 C   0  0  0  0  0  0  0  0  0  0  0  0
    3.6800    2.4440    2.1810 S   0  0  0  0  0  0  0  0  0  0  0  0
    2.1440    2.5360    3.1230 C   0  0  0  0  0  0  0  0  0  0  0  0
    1.0140    1.8130    2.4650 C   0  0  0  0  0  0  0  0  0  0  0  0
    1.3390    0.3560    2.2860 C   0  0  2  0  0  0  0  0  0  0  0  0
    0.2840   -0.3780    1.6570 N   0  0  0  0  0  0  0  0  0  0  0  0
    1.7180   -0.3310    3.5390 C   0  0  0  0  0  0  0  0  0  0  0  0
    1.0930   -1.3710    3.8650 O   0  0  0  0  0  0  0  0  0  0  0  0
    2.7190    0.0740    4.4040 O   0  0  0  0  0  0  0  0  0  0  0  0
    4.0670    2.7720   -0.2260 H   0  0  0  0  0  0  0  0  0  0  0  0
    2.5380    3.5990    0.3350 H   0  0  0  0  0  0  0  0  0  0  0  0
    4.1360    4.2720    0.7240 H   0  0  0  0  0  0  0  0  0  0  0  0
    2.3050    2.3290    4.1790 H   0  0  0  0  0  0  0  0  0  0  0  0
    1.8450    3.6310    3.0910 H   0  0  0  0  0  0  0  0  0  0  0  0
    0.0910    1.8890    3.0420 H   0  0  0  0  0  0  0  0  0  0  0  0
    0.9080    2.2440    1.4370 H   0  0  0  0  0  0  0  0  0  0  0  0
    2.2480    0.2710    1.6210 H   0  0  0  0  0  0  0  0  0  0  0  0
   -0.6440   -0.3960    2.1680 H   0  0  0  0  0  0  0  0  0  0  0  0
  1  5  1  0  0  0  0
  2  1  1  0  0  0  0
  2  8  1  0  0  0  0
  3  2  1  0  0  0  0
  4  3  2  0  0  0  0
  6  1  1  0  0  0  0
  7  2  1  0  0  0  0
  9 19  1  0  0  0  0
  9  3  1  0  0  0  0
 10 20  1  6  0  0  0
 10 17  1  0  0  0  0
 10  9  1  0  0  0  0
 11 22  1  0  0  0  0
 11 10  1  0  0  0  0
 12 11  1  0  0  0  0
 13 12  2  0  0  0  0
 14 15  1  0  0  0  0
 14 13  1  0  0  0  0
 15 16  2  0  0  0  0
 16 12  1  0  0  0  0
 17 31  1  0  0  0  0
 18 17  2  0  0  0  0
 21 11  1  0  0  0  0
 23 13  1  0  0  0  0
 24 14  1  0  0  0  0
 25 15  1  0  0  0  0
 26 37  1  0  0  0  0
 26 27  1  0  0  0  0
 27 28  1  0  0  0  0
 28 38  1  0  0  0  0
 29 40  1  0  0  0  0
 29 28  1  0  0  0  0
 30 42  1  6  0  0  0
 30 29  1  0  0  0  0
 30 32  1  0  0  0  0
 31 43  1  0  0  0  0
 31 30  1  0  0  0  0
 32 33  2  0  0  0  0
 32 34  1  0  0  0  0
 35 26  1  0  0  0  0
 36 26  1  0  0  0  0
 39 28  1  0  0  0  0
 41 29  1  0  0  0  0
M  END
$$$$
