GHN.pdb
 OpenBabel07022418233D

 40 40  0  0  1  0  0  0  0  0999 V2000
   -3.2680   -1.2950    2.1420 N   0  0  0  0  0  0  0  0  0  0  0  0
   -3.0050   -2.5380    1.4440 C   0  0  0  0  0  0  0  0  0  0  0  0
   -1.9540   -2.3340    0.4440 C   0  0  0  0  0  0  0  0  0  0  0  0
   -1.5040   -3.2170   -0.3210 O   0  0  0  0  0  0  0  0  0  0  0  0
   -3.0320   -1.3140    3.1390 H   0  0  0  0  0  0  0  0  0  0  0  0
   -4.1920   -0.8960    1.9120 H   0  0  0  0  0  0  0  0  0  0  0  0
   -3.9570   -2.9110    1.0400 H   0  0  0  0  0  0  0  0  0  0  0  0
   -2.5960   -3.2420    2.2250 H   0  0  0  0  0  0  0  0  0  0  0  0
   -1.3570   -1.0720    0.2750 N   0  0  0  0  0  0  0  0  0  0  0  0
   -0.3290   -0.7860   -0.6720 C   0  0  1  0  0  0  0  0  0  0  0  0
   -0.6020    0.2270   -1.6950 C   0  0  0  0  0  0  0  0  0  0  0  0
    0.5520    0.4190   -2.6100 C   0  0  0  0  0  0  0  0  0  0  0  0
    0.8310   -0.2460   -3.7900 C   0  0  0  0  0  0  0  0  0  0  0  0
    1.9610    0.2320   -4.2950 N   0  0  0  0  0  0  0  0  0  0  0  0
    2.4110    1.1800   -3.4730 C   0  0  0  0  0  0  0  0  0  0  0  0
    1.5560    1.2930   -2.4510 N   0  0  0  0  0  0  0  0  0  0  0  0
    0.9030   -0.5960    0.1230 C   0  0  0  0  0  0  0  0  0  0  0  0
    1.9990   -0.3550   -0.4500 O   0  0  0  0  0  0  0  0  0  0  0  0
   -1.6460   -0.2250    0.8650 H   0  0  0  0  0  0  0  0  0  0  0  0
   -0.1500   -1.7580   -1.2180 H   0  0  0  0  0  0  0  0  0  0  0  0
   -1.4680    0.0550   -2.3450 H   0  0  0  0  0  0  0  0  0  0  0  0
   -0.8010    1.2600   -1.2860 H   0  0  0  0  0  0  0  0  0  0  0  0
    0.1940   -1.0210   -4.1890 H   0  0  0  0  0  0  0  0  0  0  0  0
    2.3930   -0.1030   -5.1860 H   0  0  0  0  0  0  0  0  0  0  0  0
    3.3000    1.7740   -3.5760 H   0  0  0  0  0  0  0  0  0  0  0  0
    0.7260    1.4790    5.2360 N   0  0  0  0  0  0  0  0  0  0  0  0
    0.9530    0.4630    4.2580 C   0  0  0  0  0  0  0  0  0  0  0  0
    0.2370   -0.5520    4.2170 O   0  0  0  0  0  0  0  0  0  0  0  0
    2.0470    0.6380    3.3040 C   0  0  0  0  0  0  0  0  0  0  0  0
    2.1080   -0.4910    2.3380 C   0  0  2  0  0  0  0  0  0  0  0  0
    0.9270   -0.6700    1.5240 N   0  0  0  0  0  0  0  0  0  0  0  0
    2.3780   -1.7970    3.0000 C   0  0  0  0  0  0  0  0  0  0  0  0
    1.6580   -2.8130    2.8240 O   0  0  0  0  0  0  0  0  0  0  0  0
    3.4640   -1.9430    3.8590 O   0  0  0  0  0  0  0  0  0  0  0  0
    0.0720    1.2900    6.0120 H   0  0  0  0  0  0  0  0  0  0  0  0
    1.2040    2.4040    5.1820 H   0  0  0  0  0  0  0  0  0  0  0  0
    1.9720    1.6080    2.7560 H   0  0  0  0  0  0  0  0  0  0  0  0
    3.0400    0.6720    3.8340 H   0  0  0  0  0  0  0  0  0  0  0  0
    3.0180   -0.2980    1.6960 H   0  0  0  0  0  0  0  0  0  0  0  0
    0.0060   -0.8710    1.9630 H   0  0  0  0  0  0  0  0  0  0  0  0
  1  5  1  0  0  0  0
  2  1  1  0  0  0  0
  2  8  1  0  0  0  0
  3  2  1  0  0  0  0
  4  3  2  0  0  0  0
  6  1  1  0  0  0  0
  7  2  1  0  0  0  0
  9  3  1  0  0  0  0
  9 19  1  0  0  0  0
 10 20  1  6  0  0  0
 10 17  1  0  0  0  0
 10  9  1  0  0  0  0
 11 22  1  0  0  0  0
 11 10  1  0  0  0  0
 12 16  1  0  0  0  0
 12 11  1  0  0  0  0
 13 12  2  0  0  0  0
 14 13  1  0  0  0  0
 14 15  1  0  0  0  0
 15 16  2  0  0  0  0
 17 31  1  0  0  0  0
 18 17  2  0  0  0  0
 21 11  1  0  0  0  0
 23 13  1  0  0  0  0
 24 14  1  0  0  0  0
 25 15  1  0  0  0  0
 26 35  1  0  0  0  0
 27 26  1  0  0  0  0
 28 27  2  0  0  0  0
 29 38  1  0  0  0  0
 29 27  1  0  0  0  0
 30 39  1  6  0  0  0
 30 32  1  0  0  0  0
 30 29  1  0  0  0  0
 31 40  1  0  0  0  0
 31 30  1  0  0  0  0
 32 34  1  0  0  0  0
 33 32  2  0  0  0  0
 36 26  1  0  0  0  0
 37 29  1  0  0  0  0
M  END
$$$$
