GHP.pdb
 OpenBabel07022418233D

 40 41  0  0  1  0  0  0  0  0999 V2000
   -0.5520   -4.9920    2.0310 N   0  0  0  0  0  0  0  0  0  0  0  0
   -0.6750   -3.7170    1.3940 C   0  0  0  0  0  0  0  0  0  0  0  0
    0.6610   -3.1420    1.0050 C   0  0  0  0  0  0  0  0  0  0  0  0
    1.7270   -3.7500    1.2350 O   0  0  0  0  0  0  0  0  0  0  0  0
   -0.6440   -5.7450    1.3110 H   0  0  0  0  0  0  0  0  0  0  0  0
    0.2780   -5.0700    2.6270 H   0  0  0  0  0  0  0  0  0  0  0  0
   -1.1300   -2.9800    2.0710 H   0  0  0  0  0  0  0  0  0  0  0  0
   -1.2590   -3.8040    0.4520 H   0  0  0  0  0  0  0  0  0  0  0  0
    0.6460   -1.8860    0.3710 N   0  0  0  0  0  0  0  0  0  0  0  0
    1.8690   -1.2360   -0.0480 C   0  0  1  0  0  0  0  0  0  0  0  0
    1.8110   -1.1100   -1.5490 C   0  0  0  0  0  0  0  0  0  0  0  0
    0.6270   -0.3000   -1.9140 C   0  0  0  0  0  0  0  0  0  0  0  0
   -0.6540   -0.7940   -2.1760 C   0  0  0  0  0  0  0  0  0  0  0  0
   -1.4010    0.2610   -2.4700 N   0  0  0  0  0  0  0  0  0  0  0  0
   -0.6750    1.3680   -2.4090 C   0  0  0  0  0  0  0  0  0  0  0  0
    0.5620    1.0330   -2.0690 N   0  0  0  0  0  0  0  0  0  0  0  0
    2.0830    0.0940    0.5640 C   0  0  0  0  0  0  0  0  0  0  0  0
    3.1010    0.7200    0.1080 O   0  0  0  0  0  0  0  0  0  0  0  0
   -0.2490   -1.3900    0.1810 H   0  0  0  0  0  0  0  0  0  0  0  0
    2.7390   -1.9190    0.2410 H   0  0  0  0  0  0  0  0  0  0  0  0
    2.7490   -0.7040   -1.9770 H   0  0  0  0  0  0  0  0  0  0  0  0
    1.6370   -2.1530   -1.9390 H   0  0  0  0  0  0  0  0  0  0  0  0
   -0.8990   -1.8390   -2.1260 H   0  0  0  0  0  0  0  0  0  0  0  0
   -2.4270    0.2000   -2.7160 H   0  0  0  0  0  0  0  0  0  0  0  0
   -1.0670    2.3610   -2.6090 H   0  0  0  0  0  0  0  0  0  0  0  0
    1.2970    0.6990    1.5630 N   0  0  0  0  0  0  0  0  0  0  0  0
    1.5820    2.0470    2.1130 C   0  0  0  0  0  0  0  0  0  0  0  0
    1.6470    1.6480    3.5730 C   0  0  0  0  0  0  0  0  0  0  0  0
    0.3550    0.8860    3.7240 C   0  0  0  0  0  0  0  0  0  0  0  0
    0.1440    0.3030    2.3110 C   0  0  1  0  0  0  0  0  0  0  0  0
   -1.1310    0.8760    1.7470 C   0  0  0  0  0  0  0  0  0  0  0  0
   -1.1350    1.6510    0.7610 O   0  0  0  0  0  0  0  0  0  0  0  0
   -2.3530    0.5590    2.3090 O   0  0  0  0  0  0  0  0  0  0  0  0
    0.6970    2.6970    1.9860 H   0  0  0  0  0  0  0  0  0  0  0  0
    2.5130    2.4510    1.7240 H   0  0  0  0  0  0  0  0  0  0  0  0
    2.4990    0.9500    3.6740 H   0  0  0  0  0  0  0  0  0  0  0  0
    1.7140    2.5200    4.2460 H   0  0  0  0  0  0  0  0  0  0  0  0
   -0.4660    1.5890    3.9740 H   0  0  0  0  0  0  0  0  0  0  0  0
    0.4930    0.1140    4.4790 H   0  0  0  0  0  0  0  0  0  0  0  0
   -0.0080   -0.7570    2.4670 H   0  0  0  0  0  0  0  0  0  0  0  0
  1  6  1  0  0  0  0
  2  1  1  0  0  0  0
  2  7  1  0  0  0  0
  3  4  2  0  0  0  0
  3  2  1  0  0  0  0
  5  1  1  0  0  0  0
  8  2  1  0  0  0  0
  9  3  1  0  0  0  0
 10 20  1  1  0  0  0
 10  9  1  0  0  0  0
 10 17  1  0  0  0  0
 11 10  1  0  0  0  0
 12 11  1  0  0  0  0
 13 23  1  0  0  0  0
 13 12  2  0  0  0  0
 14 15  1  0  0  0  0
 14 13  1  0  0  0  0
 15 16  2  0  0  0  0
 16 12  1  0  0  0  0
 17 26  1  0  0  0  0
 18 17  2  0  0  0  0
 19  9  1  0  0  0  0
 21 11  1  0  0  0  0
 22 11  1  0  0  0  0
 24 14  1  0  0  0  0
 25 15  1  0  0  0  0
 26 27  1  0  0  0  0
 26 30  1  0  0  0  0
 27 28  1  0  0  0  0
 28 36  1  0  0  0  0
 28 29  1  0  0  0  0
 28 37  1  0  0  0  0
 29 38  1  0  0  0  0
 29 39  1  0  0  0  0
 30 40  1  1  0  0  0
 30 29  1  0  0  0  0
 31 33  1  0  0  0  0
 31 30  1  0  0  0  0
 32 31  2  0  0  0  0
 34 27  1  0  0  0  0
 35 27  1  0  0  0  0
M  END
$$$$
