GHS.pdb
 OpenBabel07022418233D

 37 37  0  0  1  0  0  0  0  0999 V2000
    1.1960   -0.2230    5.0720 N   0  0  0  0  0  0  0  0  0  0  0  0
    1.6300   -0.1450    3.6930 C   0  0  0  0  0  0  0  0  0  0  0  0
    0.4390   -0.0870    2.8170 C   0  0  0  0  0  0  0  0  0  0  0  0
   -0.7120   -0.1100    3.3180 O   0  0  0  0  0  0  0  0  0  0  0  0
    0.3090    0.3120    5.2360 H   0  0  0  0  0  0  0  0  0  0  0  0
    0.9960   -1.2320    5.3030 H   0  0  0  0  0  0  0  0  0  0  0  0
    2.1620   -1.1100    3.4750 H   0  0  0  0  0  0  0  0  0  0  0  0
    2.3150    0.7160    3.5540 H   0  0  0  0  0  0  0  0  0  0  0  0
    0.5190   -0.0050    1.4000 N   0  0  0  0  0  0  0  0  0  0  0  0
   -0.6160    0.0510    0.5340 C   0  0  1  0  0  0  0  0  0  0  0  0
   -0.6410    1.2410   -0.3630 C   0  0  0  0  0  0  0  0  0  0  0  0
   -0.6580    2.5230    0.3890 C   0  0  0  0  0  0  0  0  0  0  0  0
   -0.6830    3.7760   -0.1820 C   0  0  0  0  0  0  0  0  0  0  0  0
   -0.6930    4.7090    0.7730 N   0  0  0  0  0  0  0  0  0  0  0  0
   -0.6750    4.0620    1.9540 C   0  0  0  0  0  0  0  0  0  0  0  0
   -0.6540    2.7460    1.7160 N   0  0  0  0  0  0  0  0  0  0  0  0
   -0.6970   -1.1660   -0.3510 C   0  0  0  0  0  0  0  0  0  0  0  0
   -1.6400   -1.2730   -1.1750 O   0  0  0  0  0  0  0  0  0  0  0  0
    1.4750    0.0140    0.9790 H   0  0  0  0  0  0  0  0  0  0  0  0
   -1.5360    0.0200    1.1580 H   0  0  0  0  0  0  0  0  0  0  0  0
   -1.5430    1.1450   -1.0200 H   0  0  0  0  0  0  0  0  0  0  0  0
    0.2420    1.2660   -1.0200 H   0  0  0  0  0  0  0  0  0  0  0  0
   -0.6920    3.9930   -1.2390 H   0  0  0  0  0  0  0  0  0  0  0  0
   -0.7110    5.7660    0.6640 H   0  0  0  0  0  0  0  0  0  0  0  0
   -0.6780    4.5880    2.9080 H   0  0  0  0  0  0  0  0  0  0  0  0
    1.4550   -4.4270   -2.8560 O   0  0  0  0  0  0  0  0  0  0  0  0
    1.4420   -3.3060   -2.0400 C   0  0  0  0  0  0  0  0  0  0  0  0
    0.2250   -3.3840   -1.1120 C   0  0  2  0  0  0  0  0  0  0  0  0
    0.2570   -2.2050   -0.2910 N   0  0  0  0  0  0  0  0  0  0  0  0
    0.2110   -4.6300   -0.3440 C   0  0  0  0  0  0  0  0  0  0  0  0
    0.1830   -5.7390   -0.9300 O   0  0  0  0  0  0  0  0  0  0  0  0
    0.2270   -4.6280    1.0420 O   0  0  0  0  0  0  0  0  0  0  0  0
    0.5240   -4.5750   -3.1560 H   0  0  0  0  0  0  0  0  0  0  0  0
    2.3660   -3.2540   -1.4220 H   0  0  0  0  0  0  0  0  0  0  0  0
    1.3240   -2.3690   -2.6240 H   0  0  0  0  0  0  0  0  0  0  0  0
   -0.6710   -3.3040   -1.7720 H   0  0  0  0  0  0  0  0  0  0  0  0
    1.0500   -2.1240    0.3950 H   0  0  0  0  0  0  0  0  0  0  0  0
  1  5  1  0  0  0  0
  1  6  1  0  0  0  0
  2  1  1  0  0  0  0
  3  4  2  0  0  0  0
  3  2  1  0  0  0  0
  7  2  1  0  0  0  0
  8  2  1  0  0  0  0
  9  3  1  0  0  0  0
 10 20  1  1  0  0  0
 10  9  1  0  0  0  0
 11 12  1  0  0  0  0
 11 10  1  0  0  0  0
 12 16  1  0  0  0  0
 13 12  2  0  0  0  0
 13 14  1  0  0  0  0
 14 15  1  0  0  0  0
 15 25  1  0  0  0  0
 16 15  2  0  0  0  0
 17 29  1  0  0  0  0
 17 10  1  0  0  0  0
 18 17  2  0  0  0  0
 19  9  1  0  0  0  0
 21 11  1  0  0  0  0
 22 11  1  0  0  0  0
 23 13  1  0  0  0  0
 24 14  1  0  0  0  0
 26 27  1  0  0  0  0
 27 34  1  0  0  0  0
 27 28  1  0  0  0  0
 28 36  1  6  0  0  0
 28 30  1  0  0  0  0
 28 29  1  0  0  0  0
 29 37  1  0  0  0  0
 30 32  1  0  0  0  0
 31 30  2  0  0  0  0
 33 26  1  0  0  0  0
 35 27  1  0  0  0  0
M  END
$$$$
