GHT.pdb
 OpenBabel07022418233D

 40 40  0  0  1  0  0  0  0  0999 V2000
   -2.0610   -5.1150    0.4230 N   0  0  0  0  0  0  0  0  0  0  0  0
   -1.7470   -3.7530    0.0570 C   0  0  0  0  0  0  0  0  0  0  0  0
   -0.3620   -3.4580    0.4860 C   0  0  0  0  0  0  0  0  0  0  0  0
    0.3130   -4.3420    1.0630 O   0  0  0  0  0  0  0  0  0  0  0  0
   -1.5890   -5.7900   -0.2470 H   0  0  0  0  0  0  0  0  0  0  0  0
   -1.5680   -5.2950    1.3460 H   0  0  0  0  0  0  0  0  0  0  0  0
   -2.4670   -3.0890    0.5850 H   0  0  0  0  0  0  0  0  0  0  0  0
   -1.8450   -3.6780   -1.0470 H   0  0  0  0  0  0  0  0  0  0  0  0
    0.2560   -2.1920    0.2720 N   0  0  0  0  0  0  0  0  0  0  0  0
    1.6100   -1.9050    0.6910 C   0  0  1  0  0  0  0  0  0  0  0  0
    2.4180   -1.6320   -0.5550 C   0  0  0  0  0  0  0  0  0  0  0  0
    1.8710   -0.4740   -1.3070 C   0  0  0  0  0  0  0  0  0  0  0  0
    0.9000   -0.5110   -2.3130 C   0  0  0  0  0  0  0  0  0  0  0  0
    0.6570    0.7280   -2.7610 N   0  0  0  0  0  0  0  0  0  0  0  0
    1.4680    1.5310   -2.0420 C   0  0  0  0  0  0  0  0  0  0  0  0
    2.1910    0.8050   -1.1750 N   0  0  0  0  0  0  0  0  0  0  0  0
    1.6730   -0.7900    1.6650 C   0  0  0  0  0  0  0  0  0  0  0  0
    2.7950   -0.4380    2.1110 O   0  0  0  0  0  0  0  0  0  0  0  0
   -0.3110   -1.4720   -0.2050 H   0  0  0  0  0  0  0  0  0  0  0  0
    2.0730   -2.7840    1.1840 H   0  0  0  0  0  0  0  0  0  0  0  0
    3.5000   -1.5350   -0.3440 H   0  0  0  0  0  0  0  0  0  0  0  0
    2.3020   -2.5200   -1.2100 H   0  0  0  0  0  0  0  0  0  0  0  0
    0.4460   -1.4380   -2.6410 H   0  0  0  0  0  0  0  0  0  0  0  0
   -0.0210    1.0230   -3.5130 H   0  0  0  0  0  0  0  0  0  0  0  0
    1.5360    2.6020   -2.1400 H   0  0  0  0  0  0  0  0  0  0  0  0
    0.6720    2.8830    1.4150 C   0  0  0  0  0  0  0  0  0  0  0  0
   -0.0430    2.2640    2.5780 C   0  0  1  0  0  0  0  0  0  0  0  0
   -1.4080    2.0500    2.2970 O   0  0  0  0  0  0  0  0  0  0  0  0
    0.6060    1.0090    3.0880 C   0  0  2  0  0  0  0  0  0  0  0  0
    0.5350   -0.0810    2.1350 N   0  0  0  0  0  0  0  0  0  0  0  0
   -0.1560    0.5730    4.2930 C   0  0  0  0  0  0  0  0  0  0  0  0
   -0.2570    1.3390    5.2890 O   0  0  0  0  0  0  0  0  0  0  0  0
   -0.7790   -0.6640    4.3840 O   0  0  0  0  0  0  0  0  0  0  0  0
    0.2930    2.4770    0.4460 H   0  0  0  0  0  0  0  0  0  0  0  0
    0.4520    3.9780    1.4310 H   0  0  0  0  0  0  0  0  0  0  0  0
    1.7530    2.7740    1.5390 H   0  0  0  0  0  0  0  0  0  0  0  0
   -0.0290    3.0000    3.4090 H   0  0  0  0  0  0  0  0  0  0  0  0
   -1.7700    2.7270    1.6930 H   0  0  0  0  0  0  0  0  0  0  0  0
    1.6200    1.2360    3.4120 H   0  0  0  0  0  0  0  0  0  0  0  0
   -0.3920   -0.3780    1.7610 H   0  0  0  0  0  0  0  0  0  0  0  0
  1  6  1  0  0  0  0
  2  1  1  0  0  0  0
  2  3  1  0  0  0  0
  2  7  1  0  0  0  0
  3  4  2  0  0  0  0
  5  1  1  0  0  0  0
  8  2  1  0  0  0  0
  9  3  1  0  0  0  0
  9 10  1  0  0  0  0
 10 20  1  1  0  0  0
 10 17  1  0  0  0  0
 11 21  1  0  0  0  0
 11 10  1  0  0  0  0
 12 16  1  0  0  0  0
 12 11  1  0  0  0  0
 13 12  2  0  0  0  0
 14 13  1  0  0  0  0
 14 15  1  0  0  0  0
 15 16  2  0  0  0  0
 17 18  2  0  0  0  0
 17 30  1  0  0  0  0
 19  9  1  0  0  0  0
 22 11  1  0  0  0  0
 23 13  1  0  0  0  0
 24 14  1  0  0  0  0
 25 15  1  0  0  0  0
 26 35  1  0  0  0  0
 26 36  1  0  0  0  0
 26 27  1  0  0  0  0
 27 29  1  0  0  0  0
 27 37  1  1  0  0  0
 28 27  1  0  0  0  0
 29 39  1  1  0  0  0
 29 31  1  0  0  0  0
 30 29  1  0  0  0  0
 31 33  2  0  0  0  0
 31 32  1  0  0  0  0
 34 26  1  0  0  0  0
 38 28  1  0  0  0  0
 40 30  1  0  0  0  0
M  END
$$$$
