GHW.pdb
 OpenBabel07022418233D

 50 52  0  0  1  0  0  0  0  0999 V2000
    3.8760   -2.7920   -0.6990 N   0  0  0  0  0  0  0  0  0  0  0  0
    4.6090   -3.0120    0.5290 C   0  0  0  0  0  0  0  0  0  0  0  0
    4.3190   -1.9140    1.4820 C   0  0  0  0  0  0  0  0  0  0  0  0
    4.8800   -1.9540    2.6050 O   0  0  0  0  0  0  0  0  0  0  0  0
    2.8590   -2.7840   -0.5630 H   0  0  0  0  0  0  0  0  0  0  0  0
    4.1570   -1.8600   -1.0990 H   0  0  0  0  0  0  0  0  0  0  0  0
    5.6770   -3.1020    0.3260 H   0  0  0  0  0  0  0  0  0  0  0  0
    4.1940   -3.9470    0.9960 H   0  0  0  0  0  0  0  0  0  0  0  0
    3.4560   -0.8510    1.1810 N   0  0  0  0  0  0  0  0  0  0  0  0
    3.1420    0.2370    2.0690 C   0  0  1  0  0  0  0  0  0  0  0  0
    3.5620    1.5790    1.5200 C   0  0  0  0  0  0  0  0  0  0  0  0
    2.8950    1.8810    0.2260 C   0  0  0  0  0  0  0  0  0  0  0  0
    1.6940    2.5250    0.0430 C   0  0  0  0  0  0  0  0  0  0  0  0
    1.4460    2.5940   -1.2680 N   0  0  0  0  0  0  0  0  0  0  0  0
    2.4710    2.0040   -1.9130 C   0  0  0  0  0  0  0  0  0  0  0  0
    3.3520    1.5710   -0.9940 N   0  0  0  0  0  0  0  0  0  0  0  0
    1.6700    0.2720    2.2540 C   0  0  0  0  0  0  0  0  0  0  0  0
    1.1780    1.1530    3.0100 O   0  0  0  0  0  0  0  0  0  0  0  0
    2.9980   -0.8310    0.2430 H   0  0  0  0  0  0  0  0  0  0  0  0
    3.6860    0.0770    3.0110 H   0  0  0  0  0  0  0  0  0  0  0  0
    3.2150    2.3410    2.2500 H   0  0  0  0  0  0  0  0  0  0  0  0
    4.6670    1.6910    1.4680 H   0  0  0  0  0  0  0  0  0  0  0  0
    1.0340    2.9240    0.8370 H   0  0  0  0  0  0  0  0  0  0  0  0
    0.5880    3.0380   -1.7110 H   0  0  0  0  0  0  0  0  0  0  0  0
    2.5100    1.9290   -2.9920 H   0  0  0  0  0  0  0  0  0  0  0  0
    0.8030   -0.6310    1.6250 N   0  0  0  0  0  0  0  0  0  0  0  0
   -0.6670   -0.5890    1.8140 C   0  0  1  0  0  0  0  0  0  0  0  0
   -1.2660   -0.3220    0.4840 C   0  0  0  0  0  0  0  0  0  0  0  0
   -2.7270   -0.2500    0.3920 C   0  0  0  0  0  0  0  0  0  0  0  0
   -3.5020    0.9120    0.5010 C   0  0  0  0  0  0  0  0  0  0  0  0
   -4.8050    0.6090    0.4040 N   0  0  0  0  0  0  0  0  0  0  0  0
   -4.9340   -0.7130    0.2320 C   0  0  0  0  0  0  0  0  0  0  0  0
   -6.0320   -1.5200    0.0650 C   0  0  0  0  0  0  0  0  0  0  0  0
   -5.9210   -2.8800   -0.1180 C   0  0  0  0  0  0  0  0  0  0  0  0
   -4.6590   -3.4240   -0.1300 C   0  0  0  0  0  0  0  0  0  0  0  0
   -3.5770   -2.6160    0.0380 C   0  0  0  0  0  0  0  0  0  0  0  0
   -3.6460   -1.2550    0.2240 C   0  0  0  0  0  0  0  0  0  0  0  0
   -1.0750   -1.8770    2.3660 C   0  0  0  0  0  0  0  0  0  0  0  0
   -2.2410   -2.1160    2.7810 O   0  0  0  0  0  0  0  0  0  0  0  0
   -0.1450   -2.9200    2.4510 O   0  0  0  0  0  0  0  0  0  0  0  0
    1.1820   -1.3590    1.0050 H   0  0  0  0  0  0  0  0  0  0  0  0
   -0.8750    0.2460    2.5330 H   0  0  0  0  0  0  0  0  0  0  0  0
   -0.8810    0.6810    0.1090 H   0  0  0  0  0  0  0  0  0  0  0  0
   -0.8780   -1.0440   -0.2780 H   0  0  0  0  0  0  0  0  0  0  0  0
   -3.1100    1.9000    0.6420 H   0  0  0  0  0  0  0  0  0  0  0  0
   -5.6220    1.2650    0.4490 H   0  0  0  0  0  0  0  0  0  0  0  0
   -7.0210   -1.0680    0.0770 H   0  0  0  0  0  0  0  0  0  0  0  0
   -6.7760   -3.5440   -0.2540 H   0  0  0  0  0  0  0  0  0  0  0  0
   -4.5100   -4.4770   -0.2690 H   0  0  0  0  0  0  0  0  0  0  0  0
   -2.5640   -3.0380    0.0310 H   0  0  0  0  0  0  0  0  0  0  0  0
  1  5  1  0  0  0  0
  1  2  1  0  0  0  0
  2  8  1  0  0  0  0
  2  3  1  0  0  0  0
  3  4  2  0  0  0  0
  6  1  1  0  0  0  0
  7  2  1  0  0  0  0
  9  3  1  0  0  0  0
  9 10  1  0  0  0  0
 10 17  1  0  0  0  0
 10 20  1  1  0  0  0
 11 10  1  0  0  0  0
 11 21  1  0  0  0  0
 12 11  1  0  0  0  0
 13 12  2  0  0  0  0
 13 23  1  0  0  0  0
 14 13  1  0  0  0  0
 15 14  1  0  0  0  0
 15 16  2  0  0  0  0
 16 12  1  0  0  0  0
 17 18  2  0  0  0  0
 19  9  1  0  0  0  0
 22 11  1  0  0  0  0
 24 14  1  0  0  0  0
 25 15  1  0  0  0  0
 26 27  1  0  0  0  0
 26 17  1  0  0  0  0
 27 38  1  0  0  0  0
 27 42  1  1  0  0  0
 28 27  1  0  0  0  0
 29 28  1  0  0  0  0
 29 30  2  0  0  0  0
 30 45  1  0  0  0  0
 31 46  1  0  0  0  0
 31 30  1  0  0  0  0
 32 31  1  0  0  0  0
 33 47  1  0  0  0  0
 33 32  2  0  0  0  0
 34 33  1  0  0  0  0
 35 34  2  0  0  0  0
 35 36  1  0  0  0  0
 36 37  2  0  0  0  0
 37 32  1  0  0  0  0
 37 29  1  0  0  0  0
 38 40  2  0  0  0  0
 38 39  1  0  0  0  0
 41 26  1  0  0  0  0
 43 28  1  0  0  0  0
 44 28  1  0  0  0  0
 48 34  1  0  0  0  0
 49 35  1  0  0  0  0
 50 36  1  0  0  0  0
M  END
$$$$
