GID.pdb
 OpenBabel07022418233D

 41 40  0  0  1  0  0  0  0  0999 V2000
   -4.1530   -2.5140   -1.8860 N   0  0  0  0  0  0  0  0  0  0  0  0
   -2.7480   -2.6710   -1.6770 C   0  0  0  0  0  0  0  0  0  0  0  0
   -2.2330   -1.8100   -0.5770 C   0  0  0  0  0  0  0  0  0  0  0  0
   -3.0090   -1.0670    0.0400 O   0  0  0  0  0  0  0  0  0  0  0  0
   -4.7240   -3.2970   -1.4980 H   0  0  0  0  0  0  0  0  0  0  0  0
   -4.4940   -1.5760   -1.5820 H   0  0  0  0  0  0  0  0  0  0  0  0
   -2.5170   -3.7200   -1.4520 H   0  0  0  0  0  0  0  0  0  0  0  0
   -2.2220   -2.4040   -2.6030 H   0  0  0  0  0  0  0  0  0  0  0  0
    2.3110   -3.4660    2.2050 C   0  0  0  0  0  0  0  0  0  0  0  0
    1.4660   -2.6930    1.2300 C   0  0  0  0  0  0  0  0  0  0  0  0
    0.3760   -1.8990    1.8840 C   0  0  2  0  0  0  0  0  0  0  0  0
   -0.5980   -2.6990    2.6610 C   0  0  0  0  0  0  0  0  0  0  0  0
   -0.2820   -1.0460    0.8090 C   0  0  2  0  0  0  0  0  0  0  0  0
   -0.8500   -1.8560   -0.2500 N   0  0  0  0  0  0  0  0  0  0  0  0
    0.6920   -0.0730    0.2480 C   0  0  0  0  0  0  0  0  0  0  0  0
    0.8980   -0.0630   -0.9920 O   0  0  0  0  0  0  0  0  0  0  0  0
    1.7480   -4.2640    2.7300 H   0  0  0  0  0  0  0  0  0  0  0  0
    3.0970   -3.9830    1.6150 H   0  0  0  0  0  0  0  0  0  0  0  0
    2.8450   -2.7980    2.9180 H   0  0  0  0  0  0  0  0  0  0  0  0
    2.1420   -2.0000    0.6880 H   0  0  0  0  0  0  0  0  0  0  0  0
    1.0800   -3.4110    0.4760 H   0  0  0  0  0  0  0  0  0  0  0  0
    0.8720   -1.1750    2.5780 H   0  0  0  0  0  0  0  0  0  0  0  0
   -0.7540   -3.7260    2.3290 H   0  0  0  0  0  0  0  0  0  0  0  0
   -1.6110   -2.2020    2.6250 H   0  0  0  0  0  0  0  0  0  0  0  0
   -0.3480   -2.7420    3.7550 H   0  0  0  0  0  0  0  0  0  0  0  0
   -1.1240   -0.4410    1.2530 H   0  0  0  0  0  0  0  0  0  0  0  0
   -0.2480   -2.5030   -0.8060 H   0  0  0  0  0  0  0  0  0  0  0  0
    1.3890    0.8360    1.0590 N   0  0  0  0  0  0  0  0  0  0  0  0
    2.3470    1.8090    0.5910 C   0  0  1  0  0  0  0  0  0  0  0  0
    1.9940    3.2070    1.0010 C   0  0  0  0  0  0  0  0  0  0  0  0
    0.6860    3.5910    0.4610 C   0  0  0  0  0  0  0  0  0  0  0  0
    0.0160    2.7950   -0.2410 O   0  0  0  0  0  0  0  0  0  0  0  0
    3.7180    1.5120    1.0990 C   0  0  0  0  0  0  0  0  0  0  0  0
    3.9240    0.5260    1.8300 O   0  0  0  0  0  0  0  0  0  0  0  0
    0.1660    4.8670    0.7290 O   0  0  0  0  0  0  0  0  0  0  0  0
    4.7670    2.3350    0.7560 O   0  0  0  0  0  0  0  0  0  0  0  0
    1.1940    0.7990    2.0930 H   0  0  0  0  0  0  0  0  0  0  0  0
    2.4020    1.7700   -0.5310 H   0  0  0  0  0  0  0  0  0  0  0  0
    1.9810    3.2380    2.1100 H   0  0  0  0  0  0  0  0  0  0  0  0
    2.7860    3.8880    0.6190 H   0  0  0  0  0  0  0  0  0  0  0  0
   -0.8500    4.9580    0.7320 H   0  0  0  0  0  0  0  0  0  0  0  0
  1  2  1  0  0  0  0
  1  6  1  0  0  0  0
  1  5  1  0  0  0  0
  2  7  1  0  0  0  0
  2  3  1  0  0  0  0
  3 14  1  0  0  0  0
  3  4  2  0  0  0  0
  8  2  1  0  0  0  0
  9 17  1  0  0  0  0
  9 19  1  0  0  0  0
 10 11  1  0  0  0  0
 10  9  1  0  0  0  0
 11 22  1  1  0  0  0
 11 12  1  0  0  0  0
 12 25  1  0  0  0  0
 13 26  1  1  0  0  0
 13 11  1  0  0  0  0
 14 13  1  0  0  0  0
 15 13  1  0  0  0  0
 15 28  1  0  0  0  0
 16 15  2  0  0  0  0
 18  9  1  0  0  0  0
 20 10  1  0  0  0  0
 21 10  1  0  0  0  0
 23 12  1  0  0  0  0
 24 12  1  0  0  0  0
 27 14  1  0  0  0  0
 28 37  1  0  0  0  0
 29 38  1  6  0  0  0
 29 30  1  0  0  0  0
 29 28  1  0  0  0  0
 29 33  1  0  0  0  0
 30 39  1  0  0  0  0
 31 35  1  0  0  0  0
 31 30  1  0  0  0  0
 32 31  2  0  0  0  0
 33 34  1  0  0  0  0
 35 41  1  0  0  0  0
 36 33  2  0  0  0  0
 40 30  1  0  0  0  0
M  END
$$$$
