GIL.pdb
 OpenBabel07022418233D

 47 46  0  0  1  0  0  0  0  0999 V2000
   -0.0490   -5.9430   -2.7420 N   0  0  0  0  0  0  0  0  0  0  0  0
    0.7320   -4.7770   -2.3910 C   0  0  0  0  0  0  0  0  0  0  0  0
    0.1440   -4.1340   -1.2070 C   0  0  0  0  0  0  0  0  0  0  0  0
   -0.8930   -4.6460   -0.6890 O   0  0  0  0  0  0  0  0  0  0  0  0
    0.2400   -6.7520   -2.1270 H   0  0  0  0  0  0  0  0  0  0  0  0
   -1.0450   -5.7360   -2.4890 H   0  0  0  0  0  0  0  0  0  0  0  0
    1.7760   -5.1190   -2.2360 H   0  0  0  0  0  0  0  0  0  0  0  0
    0.7330   -4.0890   -3.2850 H   0  0  0  0  0  0  0  0  0  0  0  0
    1.6320   -2.4660    4.0710 C   0  0  0  0  0  0  0  0  0  0  0  0
    0.6390   -1.9680    3.0120 C   0  0  0  0  0  0  0  0  0  0  0  0
    1.0470   -2.5330    1.6820 C   0  0  2  0  0  0  0  0  0  0  0  0
    2.4320   -2.0730    1.3120 C   0  0  0  0  0  0  0  0  0  0  0  0
    0.0230   -2.3570    0.6010 C   0  0  2  0  0  0  0  0  0  0  0  0
    0.6440   -2.9770   -0.5920 N   0  0  0  0  0  0  0  0  0  0  0  0
   -0.3660   -0.9770    0.3110 C   0  0  0  0  0  0  0  0  0  0  0  0
   -0.0220   -0.4030   -0.7800 O   0  0  0  0  0  0  0  0  0  0  0  0
    2.0270   -3.4360    3.7050 H   0  0  0  0  0  0  0  0  0  0  0  0
    2.4340   -1.7340    4.2230 H   0  0  0  0  0  0  0  0  0  0  0  0
    1.0760   -2.5840    5.0300 H   0  0  0  0  0  0  0  0  0  0  0  0
    0.6370   -0.8500    3.0080 H   0  0  0  0  0  0  0  0  0  0  0  0
   -0.3660   -2.2960    3.3170 H   0  0  0  0  0  0  0  0  0  0  0  0
    1.1660   -3.6510    1.8730 H   0  0  0  0  0  0  0  0  0  0  0  0
    2.9700   -1.7840    2.2550 H   0  0  0  0  0  0  0  0  0  0  0  0
    2.4050   -1.1300    0.7000 H   0  0  0  0  0  0  0  0  0  0  0  0
    3.0340   -2.8550    0.8130 H   0  0  0  0  0  0  0  0  0  0  0  0
   -0.8550   -2.9810    0.8580 H   0  0  0  0  0  0  0  0  0  0  0  0
    1.4900   -2.5100   -0.9690 H   0  0  0  0  0  0  0  0  0  0  0  0
   -1.7970    4.1800    1.5490 C   0  0  0  0  0  0  0  0  0  0  0  0
   -0.6990    3.5720    0.7200 C   0  0  0  0  0  0  0  0  0  0  0  0
    0.5440    4.4360    1.0150 C   0  0  0  0  0  0  0  0  0  0  0  0
   -0.4110    2.1530    1.0300 C   0  0  0  0  0  0  0  0  0  0  0  0
   -1.5080    1.1770    0.8670 C   0  0  2  0  0  0  0  0  0  0  0  0
   -1.1420   -0.1810    1.1920 N   0  0  0  0  0  0  0  0  0  0  0  0
   -2.2230    1.2510   -0.4480 C   0  0  0  0  0  0  0  0  0  0  0  0
   -2.4770    0.2290   -1.1400 O   0  0  0  0  0  0  0  0  0  0  0  0
   -2.6600    2.4440   -1.0040 O   0  0  0  0  0  0  0  0  0  0  0  0
   -1.4850    4.2820    2.6300 H   0  0  0  0  0  0  0  0  0  0  0  0
   -2.7670    3.6870    1.4460 H   0  0  0  0  0  0  0  0  0  0  0  0
   -1.9230    5.2310    1.1990 H   0  0  0  0  0  0  0  0  0  0  0  0
   -0.9180    3.7770   -0.3440 H   0  0  0  0  0  0  0  0  0  0  0  0
    1.3510    4.2240    0.3110 H   0  0  0  0  0  0  0  0  0  0  0  0
    0.2230    5.4870    1.0370 H   0  0  0  0  0  0  0  0  0  0  0  0
    0.8490    4.1680    2.0560 H   0  0  0  0  0  0  0  0  0  0  0  0
    0.0400    2.1190    2.0440 H   0  0  0  0  0  0  0  0  0  0  0  0
    0.4330    1.8250    0.3520 H   0  0  0  0  0  0  0  0  0  0  0  0
   -2.3290    1.4570    1.6040 H   0  0  0  0  0  0  0  0  0  0  0  0
   -1.4890   -0.5790    2.1200 H   0  0  0  0  0  0  0  0  0  0  0  0
  1  6  1  0  0  0  0
  1  2  1  0  0  0  0
  1  5  1  0  0  0  0
  2  7  1  0  0  0  0
  2  3  1  0  0  0  0
  3  4  2  0  0  0  0
  3 14  1  0  0  0  0
  8  2  1  0  0  0  0
  9 18  1  0  0  0  0
  9 19  1  0  0  0  0
 10 21  1  0  0  0  0
 10  9  1  0  0  0  0
 11 22  1  1  0  0  0
 11 10  1  0  0  0  0
 12 11  1  0  0  0  0
 12 23  1  0  0  0  0
 13 26  1  1  0  0  0
 13 11  1  0  0  0  0
 14 13  1  0  0  0  0
 15 13  1  0  0  0  0
 15 33  1  0  0  0  0
 16 15  2  0  0  0  0
 17  9  1  0  0  0  0
 20 10  1  0  0  0  0
 24 12  1  0  0  0  0
 25 12  1  0  0  0  0
 27 14  1  0  0  0  0
 28 37  1  0  0  0  0
 29 30  1  0  0  0  0
 29 31  1  0  0  0  0
 29 28  1  0  0  0  0
 30 42  1  0  0  0  0
 30 43  1  0  0  0  0
 31 44  1  0  0  0  0
 32 31  1  0  0  0  0
 32 33  1  0  0  0  0
 32 46  1  1  0  0  0
 33 47  1  0  0  0  0
 34 32  1  0  0  0  0
 35 34  2  0  0  0  0
 36 34  1  0  0  0  0
 38 28  1  0  0  0  0
 39 28  1  0  0  0  0
 40 29  1  0  0  0  0
 41 30  1  0  0  0  0
 45 31  1  0  0  0  0
M  END
$$$$
