GIN.pdb
 OpenBabel07022418233D

 42 41  0  0  1  0  0  0  0  0999 V2000
   -1.8670   -3.2650   -2.7430 N   0  0  0  0  0  0  0  0  0  0  0  0
   -0.7300   -2.4460   -2.3680 C   0  0  0  0  0  0  0  0  0  0  0  0
   -0.6910   -2.4290   -0.8710 C   0  0  0  0  0  0  0  0  0  0  0  0
   -1.5280   -3.0410   -0.1610 O   0  0  0  0  0  0  0  0  0  0  0  0
   -2.7050   -3.0690   -2.1410 H   0  0  0  0  0  0  0  0  0  0  0  0
   -1.6130   -4.2600   -2.5690 H   0  0  0  0  0  0  0  0  0  0  0  0
    0.1760   -2.9600   -2.7200 H   0  0  0  0  0  0  0  0  0  0  0  0
   -0.8310   -1.4280   -2.7810 H   0  0  0  0  0  0  0  0  0  0  0  0
    2.9500   -4.3670    1.9110 C   0  0  0  0  0  0  0  0  0  0  0  0
    1.6790   -3.7740    1.3420 C   0  0  0  0  0  0  0  0  0  0  0  0
    1.6490   -2.2980    1.7750 C   0  0  2  0  0  0  0  0  0  0  0  0
    1.6560   -2.3310    3.2900 C   0  0  0  0  0  0  0  0  0  0  0  0
    0.4070   -1.6490    1.2780 C   0  0  2  0  0  0  0  0  0  0  0  0
    0.3240   -1.6990   -0.1690 N   0  0  0  0  0  0  0  0  0  0  0  0
    0.1440   -0.2980    1.7280 C   0  0  0  0  0  0  0  0  0  0  0  0
    0.1800   -0.0700    2.9800 O   0  0  0  0  0  0  0  0  0  0  0  0
    3.7120   -3.6110    2.1420 H   0  0  0  0  0  0  0  0  0  0  0  0
    3.4230   -5.0850    1.1870 H   0  0  0  0  0  0  0  0  0  0  0  0
    2.7370   -4.9760    2.8180 H   0  0  0  0  0  0  0  0  0  0  0  0
    1.7890   -3.8390    0.2230 H   0  0  0  0  0  0  0  0  0  0  0  0
    0.7990   -4.3170    1.6970 H   0  0  0  0  0  0  0  0  0  0  0  0
    2.5870   -1.8680    1.4400 H   0  0  0  0  0  0  0  0  0  0  0  0
    1.9410   -1.3770    3.7560 H   0  0  0  0  0  0  0  0  0  0  0  0
    0.6250   -2.5620    3.6450 H   0  0  0  0  0  0  0  0  0  0  0  0
    2.2970   -3.1720    3.6670 H   0  0  0  0  0  0  0  0  0  0  0  0
   -0.4520   -2.2870    1.6510 H   0  0  0  0  0  0  0  0  0  0  0  0
    1.0300   -1.1840   -0.7750 H   0  0  0  0  0  0  0  0  0  0  0  0
    1.2730    5.5660    1.0080 N   0  0  0  0  0  0  0  0  0  0  0  0
    0.4780    4.4720    1.4930 C   0  0  0  0  0  0  0  0  0  0  0  0
   -0.3420    4.7270    2.4000 O   0  0  0  0  0  0  0  0  0  0  0  0
    0.6190    3.1180    0.9520 C   0  0  0  0  0  0  0  0  0  0  0  0
   -0.4100    2.1680    1.4730 C   0  0  2  0  0  0  0  0  0  0  0  0
   -0.1530    0.8110    0.9050 N   0  0  0  0  0  0  0  0  0  0  0  0
   -1.7700    2.5340    1.0470 C   0  0  0  0  0  0  0  0  0  0  0  0
   -2.3170    3.6020    1.3680 O   0  0  0  0  0  0  0  0  0  0  0  0
   -2.5090    1.6740    0.2520 O   0  0  0  0  0  0  0  0  0  0  0  0
    2.1450    5.4450    0.4650 H   0  0  0  0  0  0  0  0  0  0  0  0
    0.9870    6.5570    1.1930 H   0  0  0  0  0  0  0  0  0  0  0  0
    1.6530    2.7190    1.0360 H   0  0  0  0  0  0  0  0  0  0  0  0
    0.4540    3.1790   -0.1650 H   0  0  0  0  0  0  0  0  0  0  0  0
   -0.2850    2.0450    2.5620 H   0  0  0  0  0  0  0  0  0  0  0  0
   -0.1870    0.6530   -0.1080 H   0  0  0  0  0  0  0  0  0  0  0  0
  1  6  1  0  0  0  0
  1  2  1  0  0  0  0
  1  5  1  0  0  0  0
  2  3  1  0  0  0  0
  3 14  1  0  0  0  0
  3  4  2  0  0  0  0
  7  2  1  0  0  0  0
  8  2  1  0  0  0  0
  9 17  1  0  0  0  0
  9 19  1  0  0  0  0
 10 21  1  0  0  0  0
 10 11  1  0  0  0  0
 10  9  1  0  0  0  0
 11 22  1  6  0  0  0
 11 12  1  0  0  0  0
 12 24  1  0  0  0  0
 12 25  1  0  0  0  0
 12 23  1  0  0  0  0
 13 26  1  1  0  0  0
 13 15  1  0  0  0  0
 13 11  1  0  0  0  0
 14 13  1  0  0  0  0
 15 16  2  0  0  0  0
 18  9  1  0  0  0  0
 20 10  1  0  0  0  0
 27 14  1  0  0  0  0
 28 38  1  0  0  0  0
 28 29  1  0  0  0  0
 29 30  2  0  0  0  0
 31 39  1  0  0  0  0
 31 32  1  0  0  0  0
 31 29  1  0  0  0  0
 32 41  1  1  0  0  0
 33 32  1  0  0  0  0
 33 15  1  0  0  0  0
 34 35  1  0  0  0  0
 34 32  1  0  0  0  0
 36 34  2  0  0  0  0
 37 28  1  0  0  0  0
 40 31  1  0  0  0  0
 42 33  1  0  0  0  0
M  END
$$$$
