GIV.pdb
 OpenBabel07022418233D

 44 43  0  0  1  0  0  0  0  0999 V2000
    2.4000   -1.5010    3.7420 N   0  0  0  0  0  0  0  0  0  0  0  0
    3.0500   -2.3090    2.7410 C   0  0  0  0  0  0  0  0  0  0  0  0
    2.2120   -2.5150    1.5420 C   0  0  0  0  0  0  0  0  0  0  0  0
    2.6710   -3.2010    0.6040 O   0  0  0  0  0  0  0  0  0  0  0  0
    2.3970   -0.5090    3.4200 H   0  0  0  0  0  0  0  0  0  0  0  0
    2.9710   -1.5470    4.6120 H   0  0  0  0  0  0  0  0  0  0  0  0
    3.2660   -3.3100    3.1650 H   0  0  0  0  0  0  0  0  0  0  0  0
    4.0140   -1.8670    2.4020 H   0  0  0  0  0  0  0  0  0  0  0  0
   -2.5200   -0.8770    1.2410 C   0  0  0  0  0  0  0  0  0  0  0  0
   -2.2570   -2.3240    1.2430 C   0  0  0  0  0  0  0  0  0  0  0  0
   -1.2050   -2.8350    0.3310 C   0  0  2  0  0  0  0  0  0  0  0  0
   -1.0590   -4.3610    0.4610 C   0  0  0  0  0  0  0  0  0  0  0  0
    0.0770   -2.1570    0.2470 C   0  0  2  0  0  0  0  0  0  0  0  0
    0.9190   -1.9970    1.3600 N   0  0  0  0  0  0  0  0  0  0  0  0
   -0.0360   -0.8880   -0.5240 C   0  0  0  0  0  0  0  0  0  0  0  0
   -0.7720   -0.7790   -1.5460 O   0  0  0  0  0  0  0  0  0  0  0  0
   -2.8220   -0.4680    0.2560 H   0  0  0  0  0  0  0  0  0  0  0  0
   -1.7440   -0.2280    1.6440 H   0  0  0  0  0  0  0  0  0  0  0  0
   -3.4260   -0.7000    1.8960 H   0  0  0  0  0  0  0  0  0  0  0  0
   -3.2530   -2.8240    1.0270 H   0  0  0  0  0  0  0  0  0  0  0  0
   -2.0250   -2.7000    2.2680 H   0  0  0  0  0  0  0  0  0  0  0  0
   -1.6520   -2.7220   -0.7140 H   0  0  0  0  0  0  0  0  0  0  0  0
   -1.6680   -4.9160   -0.2810 H   0  0  0  0  0  0  0  0  0  0  0  0
   -0.0140   -4.6730    0.2910 H   0  0  0  0  0  0  0  0  0  0  0  0
   -1.4470   -4.7000    1.4590 H   0  0  0  0  0  0  0  0  0  0  0  0
    0.6950   -2.8130   -0.4710 H   0  0  0  0  0  0  0  0  0  0  0  0
    0.5460   -1.4150    2.1700 H   0  0  0  0  0  0  0  0  0  0  0  0
    1.0020    2.7490    1.3760 C   0  0  0  0  0  0  0  0  0  0  0  0
    0.1730    2.6040    0.1210 C   0  0  0  0  0  0  0  0  0  0  0  0
   -1.2470    2.3680    0.4930 C   0  0  0  0  0  0  0  0  0  0  0  0
    0.6840    1.5380   -0.7960 C   0  0  2  0  0  0  0  0  0  0  0  0
    0.6910    0.2730   -0.1460 N   0  0  0  0  0  0  0  0  0  0  0  0
    1.9840    1.9020   -1.3960 C   0  0  0  0  0  0  0  0  0  0  0  0
    2.9660    1.1360   -1.3120 O   0  0  0  0  0  0  0  0  0  0  0  0
    2.1510    3.0960   -2.0660 O   0  0  0  0  0  0  0  0  0  0  0  0
    0.9110    1.8970    2.0540 H   0  0  0  0  0  0  0  0  0  0  0  0
    0.6300    3.6500    1.9090 H   0  0  0  0  0  0  0  0  0  0  0  0
    2.0540    2.9730    1.0890 H   0  0  0  0  0  0  0  0  0  0  0  0
    0.2460    3.5660   -0.4430 H   0  0  0  0  0  0  0  0  0  0  0  0
   -1.8120    3.3290    0.3640 H   0  0  0  0  0  0  0  0  0  0  0  0
   -1.3640    2.1290    1.5740 H   0  0  0  0  0  0  0  0  0  0  0  0
   -1.7440    1.6240   -0.1380 H   0  0  0  0  0  0  0  0  0  0  0  0
   -0.0770    1.4450   -1.6310 H   0  0  0  0  0  0  0  0  0  0  0  0
    1.3000    0.1650    0.7180 H   0  0  0  0  0  0  0  0  0  0  0  0
  1  6  1  0  0  0  0
  2  7  1  0  0  0  0
  2  1  1  0  0  0  0
  3  2  1  0  0  0  0
  4  3  2  0  0  0  0
  5  1  1  0  0  0  0
  8  2  1  0  0  0  0
  9 10  1  0  0  0  0
  9 18  1  0  0  0  0
  9 19  1  0  0  0  0
 10 21  1  0  0  0  0
 11 22  1  6  0  0  0
 11 12  1  0  0  0  0
 11 10  1  0  0  0  0
 12 25  1  0  0  0  0
 13 26  1  6  0  0  0
 13 11  1  0  0  0  0
 13 14  1  0  0  0  0
 14  3  1  0  0  0  0
 14 27  1  0  0  0  0
 15 32  1  0  0  0  0
 15 13  1  0  0  0  0
 16 15  2  0  0  0  0
 17  9  1  0  0  0  0
 20 10  1  0  0  0  0
 23 12  1  0  0  0  0
 24 12  1  0  0  0  0
 28 37  1  0  0  0  0
 28 36  1  0  0  0  0
 29 30  1  0  0  0  0
 29 28  1  0  0  0  0
 30 41  1  0  0  0  0
 31 43  1  6  0  0  0
 31 32  1  0  0  0  0
 31 29  1  0  0  0  0
 32 44  1  0  0  0  0
 33 34  1  0  0  0  0
 33 31  1  0  0  0  0
 35 33  2  0  0  0  0
 38 28  1  0  0  0  0
 39 29  1  0  0  0  0
 40 30  1  0  0  0  0
 42 30  1  0  0  0  0
M  END
$$$$
