GIY.pdb
 OpenBabel07022418233D

 49 49  0  0  1  0  0  0  0  0999 V2000
   -1.4860   -4.5040    1.2780 N   0  0  0  0  0  0  0  0  0  0  0  0
   -0.0660   -4.5850    1.4340 C   0  0  0  0  0  0  0  0  0  0  0  0
    0.4780   -3.2000    1.6950 C   0  0  0  0  0  0  0  0  0  0  0  0
    1.7020   -3.0500    1.8600 O   0  0  0  0  0  0  0  0  0  0  0  0
   -1.9600   -5.4220    1.4210 H   0  0  0  0  0  0  0  0  0  0  0  0
   -1.7990   -4.0050    0.4370 H   0  0  0  0  0  0  0  0  0  0  0  0
    0.3960   -5.0040    0.5230 H   0  0  0  0  0  0  0  0  0  0  0  0
    0.1590   -5.1610    2.3500 H   0  0  0  0  0  0  0  0  0  0  0  0
    0.4540   -0.1880    5.0000 C   0  0  0  0  0  0  0  0  0  0  0  0
    1.3870   -0.8900    4.0160 C   0  0  0  0  0  0  0  0  0  0  0  0
    1.2000   -0.3500    2.6190 C   0  0  2  0  0  0  0  0  0  0  0  0
    1.4840    1.1270    2.6420 C   0  0  0  0  0  0  0  0  0  0  0  0
   -0.1050   -0.7310    2.0010 C   0  0  2  0  0  0  0  0  0  0  0  0
   -0.3730   -2.0970    1.7530 N   0  0  0  0  0  0  0  0  0  0  0  0
   -0.6660    0.2180    1.0260 C   0  0  0  0  0  0  0  0  0  0  0  0
   -0.5230    1.4660    1.0990 O   0  0  0  0  0  0  0  0  0  0  0  0
    0.8610   -0.4560    6.0180 H   0  0  0  0  0  0  0  0  0  0  0  0
    0.4740    0.8990    4.8590 H   0  0  0  0  0  0  0  0  0  0  0  0
   -0.5570   -0.6230    4.9690 H   0  0  0  0  0  0  0  0  0  0  0  0
    1.1590   -1.9480    4.0540 H   0  0  0  0  0  0  0  0  0  0  0  0
    2.4250   -0.7450    4.3410 H   0  0  0  0  0  0  0  0  0  0  0  0
    2.0770   -0.7800    2.0600 H   0  0  0  0  0  0  0  0  0  0  0  0
    1.8070    1.4390    1.6180 H   0  0  0  0  0  0  0  0  0  0  0  0
    0.6990    1.7580    3.0460 H   0  0  0  0  0  0  0  0  0  0  0  0
    2.3900    1.3100    3.2840 H   0  0  0  0  0  0  0  0  0  0  0  0
   -0.7850   -0.5520    2.9560 H   0  0  0  0  0  0  0  0  0  0  0  0
   -1.4120   -2.3430    1.5750 H   0  0  0  0  0  0  0  0  0  0  0  0
    4.2370    0.9640   -2.0240 O   0  0  0  0  0  0  0  0  0  0  0  0
    2.8560    0.8220   -2.1310 C   0  0  0  0  0  0  0  0  0  0  0  0
    2.0760    1.8720   -2.5310 C   0  0  0  0  0  0  0  0  0  0  0  0
    0.7230    1.6810   -2.6210 C   0  0  0  0  0  0  0  0  0  0  0  0
    0.0970    0.4820   -2.3300 C   0  0  0  0  0  0  0  0  0  0  0  0
   -1.3710    0.2940   -2.4330 C   0  0  0  0  0  0  0  0  0  0  0  0
   -2.0010    0.6490   -1.0790 C   0  0  2  0  0  0  0  0  0  0  0  0
   -1.4370   -0.2310   -0.1080 N   0  0  0  0  0  0  0  0  0  0  0  0
   -3.4640    0.4650   -1.2530 C   0  0  0  0  0  0  0  0  0  0  0  0
   -4.0790    1.1820   -2.0810 O   0  0  0  0  0  0  0  0  0  0  0  0
    0.9130   -0.5660   -1.9270 C   0  0  0  0  0  0  0  0  0  0  0  0
    2.2790   -0.4040   -1.8270 C   0  0  0  0  0  0  0  0  0  0  0  0
   -4.2040   -0.4690   -0.5410 O   0  0  0  0  0  0  0  0  0  0  0  0
    4.8220    0.1590   -1.8350 H   0  0  0  0  0  0  0  0  0  0  0  0
    2.5470    2.8190   -2.7630 H   0  0  0  0  0  0  0  0  0  0  0  0
    0.1060    2.5180   -2.9390 H   0  0  0  0  0  0  0  0  0  0  0  0
   -1.8220    0.8780   -3.2520 H   0  0  0  0  0  0  0  0  0  0  0  0
   -1.5720   -0.7940   -2.5760 H   0  0  0  0  0  0  0  0  0  0  0  0
   -1.8050    1.7100   -0.9030 H   0  0  0  0  0  0  0  0  0  0  0  0
   -1.5650   -1.2490   -0.1840 H   0  0  0  0  0  0  0  0  0  0  0  0
    0.4150   -1.5150   -1.6970 H   0  0  0  0  0  0  0  0  0  0  0  0
    2.8930   -1.2350   -1.5120 H   0  0  0  0  0  0  0  0  0  0  0  0
  1  5  1  0  0  0  0
  1  2  1  0  0  0  0
  2  3  1  0  0  0  0
  2  8  1  0  0  0  0
  3 14  1  0  0  0  0
  3  4  2  0  0  0  0
  6  1  1  0  0  0  0
  7  2  1  0  0  0  0
  9 17  1  0  0  0  0
 10 20  1  0  0  0  0
 10 21  1  0  0  0  0
 10  9  1  0  0  0  0
 11 22  1  6  0  0  0
 11 12  1  0  0  0  0
 11 10  1  0  0  0  0
 12 24  1  0  0  0  0
 12 25  1  0  0  0  0
 13 11  1  0  0  0  0
 13 26  1  1  0  0  0
 14 13  1  0  0  0  0
 15 16  2  0  0  0  0
 15 13  1  0  0  0  0
 18  9  1  0  0  0  0
 19  9  1  0  0  0  0
 23 12  1  0  0  0  0
 27 14  1  0  0  0  0
 28 41  1  0  0  0  0
 29 28  1  0  0  0  0
 29 39  1  0  0  0  0
 30 29  2  0  0  0  0
 31 30  1  0  0  0  0
 31 32  2  0  0  0  0
 32 38  1  0  0  0  0
 33 32  1  0  0  0  0
 33 34  1  0  0  0  0
 34 46  1  1  0  0  0
 34 35  1  0  0  0  0
 35 15  1  0  0  0  0
 36 34  1  0  0  0  0
 36 40  1  0  0  0  0
 37 36  2  0  0  0  0
 38 39  2  0  0  0  0
 38 48  1  0  0  0  0
 39 49  1  0  0  0  0
 42 30  1  0  0  0  0
 43 31  1  0  0  0  0
 44 33  1  0  0  0  0
 45 33  1  0  0  0  0
 47 35  1  0  0  0  0
M  END
$$$$
