GKC.pdb
 OpenBabel07022418243D

 41 40  0  0  1  0  0  0  0  0999 V2000
    0.5970   -2.8960    4.5980 N   0  0  0  0  0  0  0  0  0  0  0  0
    1.7630   -3.3440    3.8950 C   0  0  0  0  0  0  0  0  0  0  0  0
    1.7840   -2.8890    2.4750 C   0  0  0  0  0  0  0  0  0  0  0  0
    2.7750   -3.2400    1.7850 O   0  0  0  0  0  0  0  0  0  0  0  0
    0.8520   -2.4890    5.5290 H   0  0  0  0  0  0  0  0  0  0  0  0
   -0.0200   -3.7120    4.7740 H   0  0  0  0  0  0  0  0  0  0  0  0
    1.8970   -4.4480    3.9240 H   0  0  0  0  0  0  0  0  0  0  0  0
    2.6550   -2.9050    4.3870 H   0  0  0  0  0  0  0  0  0  0  0  0
    0.7880   -2.1150    1.8900 N   0  0  0  0  0  0  0  0  0  0  0  0
    0.8780   -1.6910    0.4430 C   0  0  1  0  0  0  0  0  0  0  0  0
   -0.3960   -2.0680   -0.2100 C   0  0  0  0  0  0  0  0  0  0  0  0
   -0.6510   -1.9190   -1.6350 C   0  0  0  0  0  0  0  0  0  0  0  0
   -0.5710   -0.6510   -2.3620 C   0  0  0  0  0  0  0  0  0  0  0  0
   -1.0420   -0.8610   -3.8450 C   0  0  0  0  0  0  0  0  0  0  0  0
   -0.9450    0.4180   -4.5190 N   0  0  0  0  0  0  0  0  0  0  0  0
    1.0040   -0.1850    0.5290 C   0  0  0  0  0  0  0  0  0  0  0  0
    1.1670    0.5850   -0.4200 O   0  0  0  0  0  0  0  0  0  0  0  0
   -0.0450   -1.8120    2.4070 H   0  0  0  0  0  0  0  0  0  0  0  0
    1.7340   -2.1630   -0.0370 H   0  0  0  0  0  0  0  0  0  0  0  0
   -1.2850   -1.6790    0.4160 H   0  0  0  0  0  0  0  0  0  0  0  0
   -0.5170   -3.2010    0.0220 H   0  0  0  0  0  0  0  0  0  0  0  0
   -1.6310   -2.4600   -1.9190 H   0  0  0  0  0  0  0  0  0  0  0  0
    0.0970   -2.6360   -2.1640 H   0  0  0  0  0  0  0  0  0  0  0  0
   -1.1550    0.1460   -1.9140 H   0  0  0  0  0  0  0  0  0  0  0  0
    0.4700   -0.2920   -2.5540 H   0  0  0  0  0  0  0  0  0  0  0  0
   -2.0950   -1.1600   -3.8140 H   0  0  0  0  0  0  0  0  0  0  0  0
   -0.4190   -1.6080   -4.3340 H   0  0  0  0  0  0  0  0  0  0  0  0
   -0.7600    1.2090   -3.8700 H   0  0  0  0  0  0  0  0  0  0  0  0
   -0.2240    0.3420   -5.2700 H   0  0  0  0  0  0  0  0  0  0  0  0
    0.9390    0.4870    1.8110 N   0  0  0  0  0  0  0  0  0  0  0  0
    1.0610    1.9240    1.8660 C   0  0  1  0  0  0  0  0  0  0  0  0
   -0.1660    2.5740    2.4750 C   0  0  0  0  0  0  0  0  0  0  0  0
   -1.6600    2.2270    1.5560 S   0  0  0  0  0  0  0  0  0  0  0  0
    2.2700    2.2420    2.6400 C   0  0  0  0  0  0  0  0  0  0  0  0
    2.5840    3.4320    2.8230 O   0  0  0  0  0  0  0  0  0  0  0  0
    3.0560    1.2480    3.1620 O   0  0  0  0  0  0  0  0  0  0  0  0
    0.8120   -0.0450    2.6770 H   0  0  0  0  0  0  0  0  0  0  0  0
    1.1980    2.3730    0.8590 H   0  0  0  0  0  0  0  0  0  0  0  0
   -0.2180    2.2780    3.5510 H   0  0  0  0  0  0  0  0  0  0  0  0
    0.0110    3.6710    2.4620 H   0  0  0  0  0  0  0  0  0  0  0  0
   -2.7420    2.1320    2.4510 H   0  0  0  0  0  0  0  0  0  0  0  0
  1  6  1  0  0  0  0
  1  5  1  0  0  0  0
  2  7  1  0  0  0  0
  2  8  1  0  0  0  0
  2  1  1  0  0  0  0
  3  2  1  0  0  0  0
  4  3  2  0  0  0  0
  9 18  1  0  0  0  0
  9  3  1  0  0  0  0
 10 19  1  6  0  0  0
 10 16  1  0  0  0  0
 10  9  1  0  0  0  0
 11 21  1  0  0  0  0
 11 20  1  0  0  0  0
 11 10  1  0  0  0  0
 12 11  1  0  0  0  0
 13 24  1  0  0  0  0
 13 12  1  0  0  0  0
 14 26  1  0  0  0  0
 14 13  1  0  0  0  0
 15 28  1  0  0  0  0
 15 14  1  0  0  0  0
 16 30  1  0  0  0  0
 17 16  2  0  0  0  0
 22 12  1  0  0  0  0
 23 12  1  0  0  0  0
 25 13  1  0  0  0  0
 27 14  1  0  0  0  0
 29 15  1  0  0  0  0
 30 31  1  0  0  0  0
 30 37  1  0  0  0  0
 31 38  1  6  0  0  0
 31 32  1  0  0  0  0
 31 34  1  0  0  0  0
 32 39  1  0  0  0  0
 33 41  1  0  0  0  0
 33 32  1  0  0  0  0
 34 35  2  0  0  0  0
 34 36  1  0  0  0  0
 40 32  1  0  0  0  0
M  END
$$$$
