GKE.pdb
 OpenBabel07022418243D

 46 45  0  0  1  0  0  0  0  0999 V2000
    0.1440   -6.1190    0.5930 N   0  0  0  0  0  0  0  0  0  0  0  0
    0.2630   -4.9170   -0.2130 C   0  0  0  0  0  0  0  0  0  0  0  0
    0.1390   -3.6930    0.6330 C   0  0  0  0  0  0  0  0  0  0  0  0
   -0.0470   -3.7660    1.8750 O   0  0  0  0  0  0  0  0  0  0  0  0
    0.9430   -6.0990    1.2730 H   0  0  0  0  0  0  0  0  0  0  0  0
   -0.7750   -6.1890    1.0700 H   0  0  0  0  0  0  0  0  0  0  0  0
   -0.4600   -4.9020   -1.0500 H   0  0  0  0  0  0  0  0  0  0  0  0
    1.2990   -4.9360   -0.6560 H   0  0  0  0  0  0  0  0  0  0  0  0
    0.2270   -2.3980    0.0730 N   0  0  0  0  0  0  0  0  0  0  0  0
    0.1130   -1.2090    0.8810 C   0  0  1  0  0  0  0  0  0  0  0  0
    1.5040   -0.5850    0.9300 C   0  0  0  0  0  0  0  0  0  0  0  0
    2.0060   -0.2190   -0.4190 C   0  0  0  0  0  0  0  0  0  0  0  0
    3.3540    0.3980   -0.4760 C   0  0  0  0  0  0  0  0  0  0  0  0
    4.4870   -0.4160    0.0400 C   0  0  0  0  0  0  0  0  0  0  0  0
    4.4010   -0.7950    1.4200 N   0  0  0  0  0  0  0  0  0  0  0  0
   -0.8960   -0.2600    0.3570 C   0  0  0  0  0  0  0  0  0  0  0  0
   -1.5050   -0.5310   -0.6950 O   0  0  0  0  0  0  0  0  0  0  0  0
    0.3730   -2.2960   -0.9450 H   0  0  0  0  0  0  0  0  0  0  0  0
   -0.0930   -1.5300    1.9220 H   0  0  0  0  0  0  0  0  0  0  0  0
    2.1390   -1.4020    1.3830 H   0  0  0  0  0  0  0  0  0  0  0  0
    1.5650    0.2740    1.5960 H   0  0  0  0  0  0  0  0  0  0  0  0
    1.9630   -1.0560   -1.1510 H   0  0  0  0  0  0  0  0  0  0  0  0
    1.2870    0.5460   -0.8350 H   0  0  0  0  0  0  0  0  0  0  0  0
    3.3580    1.3690    0.0830 H   0  0  0  0  0  0  0  0  0  0  0  0
    3.5840    0.6800   -1.5400 H   0  0  0  0  0  0  0  0  0  0  0  0
    5.4070    0.2330   -0.0470 H   0  0  0  0  0  0  0  0  0  0  0  0
    4.7280   -1.2980   -0.6220 H   0  0  0  0  0  0  0  0  0  0  0  0
    4.5920   -0.0400    2.0840 H   0  0  0  0  0  0  0  0  0  0  0  0
    4.9080   -1.6880    1.6320 H   0  0  0  0  0  0  0  0  0  0  0  0
   -1.1960    0.9660    1.0260 N   0  0  0  0  0  0  0  0  0  0  0  0
   -2.1720    1.9070    0.5350 C   0  0  1  0  0  0  0  0  0  0  0  0
   -3.1770    2.2420    1.5710 C   0  0  0  0  0  0  0  0  0  0  0  0
   -4.0070    1.1380    2.1170 C   0  0  0  0  0  0  0  0  0  0  0  0
   -3.2750    0.0540    2.7920 C   0  0  0  0  0  0  0  0  0  0  0  0
   -3.1890   -1.1300    2.3700 O   0  0  0  0  0  0  0  0  0  0  0  0
   -1.5050    3.2120    0.1590 C   0  0  0  0  0  0  0  0  0  0  0  0
   -2.1290    4.1850   -0.3010 O   0  0  0  0  0  0  0  0  0  0  0  0
   -2.6260    0.3970    4.0030 O   0  0  0  0  0  0  0  0  0  0  0  0
   -0.1220    3.2930    0.3510 O   0  0  0  0  0  0  0  0  0  0  0  0
   -0.6520    1.1380    1.9060 H   0  0  0  0  0  0  0  0  0  0  0  0
   -2.6570    1.4900   -0.3940 H   0  0  0  0  0  0  0  0  0  0  0  0
   -2.6580    2.7730    2.4140 H   0  0  0  0  0  0  0  0  0  0  0  0
   -3.8880    3.0180    1.1610 H   0  0  0  0  0  0  0  0  0  0  0  0
   -4.7090    0.7510    1.3390 H   0  0  0  0  0  0  0  0  0  0  0  0
   -4.7030    1.5830    2.8910 H   0  0  0  0  0  0  0  0  0  0  0  0
   -1.9990   -0.3270    4.3800 H   0  0  0  0  0  0  0  0  0  0  0  0
  1  6  1  0  0  0  0
  1  5  1  0  0  0  0
  2  1  1  0  0  0  0
  2  3  1  0  0  0  0
  3  4  2  0  0  0  0
  7  2  1  0  0  0  0
  8  2  1  0  0  0  0
  9  3  1  0  0  0  0
  9 10  1  0  0  0  0
 10 11  1  0  0  0  0
 10 19  1  1  0  0  0
 11 20  1  0  0  0  0
 11 21  1  0  0  0  0
 12 11  1  0  0  0  0
 13 12  1  0  0  0  0
 13 14  1  0  0  0  0
 13 24  1  0  0  0  0
 14 15  1  0  0  0  0
 15 29  1  0  0  0  0
 15 28  1  0  0  0  0
 16 10  1  0  0  0  0
 16 30  1  0  0  0  0
 17 16  2  0  0  0  0
 18  9  1  0  0  0  0
 22 12  1  0  0  0  0
 23 12  1  0  0  0  0
 25 13  1  0  0  0  0
 26 14  1  0  0  0  0
 27 14  1  0  0  0  0
 30 40  1  0  0  0  0
 31 41  1  6  0  0  0
 31 30  1  0  0  0  0
 31 32  1  0  0  0  0
 32 33  1  0  0  0  0
 32 42  1  0  0  0  0
 33 34  1  0  0  0  0
 33 45  1  0  0  0  0
 34 38  1  0  0  0  0
 35 34  2  0  0  0  0
 36 39  1  0  0  0  0
 36 31  1  0  0  0  0
 37 36  2  0  0  0  0
 38 46  1  0  0  0  0
 43 32  1  0  0  0  0
 44 33  1  0  0  0  0
M  END
$$$$
