GKI.pdb
 OpenBabel07022418243D

 49 48  0  0  1  0  0  0  0  0999 V2000
    2.5320   -5.7350    2.0160 N   0  0  0  0  0  0  0  0  0  0  0  0
    2.0220   -5.1210    0.8140 C   0  0  0  0  0  0  0  0  0  0  0  0
    1.7280   -3.6890    1.0550 C   0  0  0  0  0  0  0  0  0  0  0  0
    1.9450   -3.2120    2.2050 O   0  0  0  0  0  0  0  0  0  0  0  0
    1.7450   -6.0370    2.6420 H   0  0  0  0  0  0  0  0  0  0  0  0
    3.1170   -5.0450    2.5300 H   0  0  0  0  0  0  0  0  0  0  0  0
    2.7480   -5.2780    0.0070 H   0  0  0  0  0  0  0  0  0  0  0  0
    1.1050   -5.6910    0.5310 H   0  0  0  0  0  0  0  0  0  0  0  0
    1.2220   -2.8180    0.0880 N   0  0  0  0  0  0  0  0  0  0  0  0
    0.9440   -1.3930    0.3760 C   0  0  1  0  0  0  0  0  0  0  0  0
    1.9130   -0.6450   -0.4660 C   0  0  0  0  0  0  0  0  0  0  0  0
    1.9100    0.8220   -0.4300 C   0  0  0  0  0  0  0  0  0  0  0  0
    3.0020    1.3700   -1.3560 C   0  0  0  0  0  0  0  0  0  0  0  0
    4.3770    0.9180   -0.9620 C   0  0  0  0  0  0  0  0  0  0  0  0
    4.6260    1.3820    0.4050 N   0  0  0  0  0  0  0  0  0  0  0  0
   -0.4730   -1.1040    0.1840 C   0  0  0  0  0  0  0  0  0  0  0  0
   -1.2400   -1.9920   -0.3330 O   0  0  0  0  0  0  0  0  0  0  0  0
    1.0230   -3.1380   -0.8690 H   0  0  0  0  0  0  0  0  0  0  0  0
    1.2200   -1.2530    1.4360 H   0  0  0  0  0  0  0  0  0  0  0  0
    1.7940   -1.0040   -1.5240 H   0  0  0  0  0  0  0  0  0  0  0  0
    2.9470   -1.0040   -0.1850 H   0  0  0  0  0  0  0  0  0  0  0  0
    0.9620    1.2940   -0.7800 H   0  0  0  0  0  0  0  0  0  0  0  0
    2.1430    1.2180    0.5800 H   0  0  0  0  0  0  0  0  0  0  0  0
    2.7890    1.0570   -2.4170 H   0  0  0  0  0  0  0  0  0  0  0  0
    2.9640    2.4610   -1.3500 H   0  0  0  0  0  0  0  0  0  0  0  0
    5.1670    1.4520   -1.5760 H   0  0  0  0  0  0  0  0  0  0  0  0
    4.5400   -0.1620   -1.0170 H   0  0  0  0  0  0  0  0  0  0  0  0
    5.6350    1.6040    0.5570 H   0  0  0  0  0  0  0  0  0  0  0  0
    4.0050    2.2000    0.6000 H   0  0  0  0  0  0  0  0  0  0  0  0
   -2.0610   -0.9700    3.0480 C   0  0  0  0  0  0  0  0  0  0  0  0
   -3.3650   -0.4000    2.5920 C   0  0  0  0  0  0  0  0  0  0  0  0
   -3.2700    0.6760    1.5780 C   0  0  2  0  0  0  0  0  0  0  0  0
   -4.6750    1.1690    1.2180 C   0  0  0  0  0  0  0  0  0  0  0  0
   -2.4640    0.4070    0.3570 C   0  0  2  0  0  0  0  0  0  0  0  0
   -1.0800    0.1270    0.5450 N   0  0  0  0  0  0  0  0  0  0  0  0
   -2.6610    1.4560   -0.6740 C   0  0  0  0  0  0  0  0  0  0  0  0
   -1.6470    1.9530   -1.2170 O   0  0  0  0  0  0  0  0  0  0  0  0
   -3.9010    1.9230   -1.0750 O   0  0  0  0  0  0  0  0  0  0  0  0
   -2.1030   -1.1740    4.1600 H   0  0  0  0  0  0  0  0  0  0  0  0
   -1.2530   -0.2380    2.8820 H   0  0  0  0  0  0  0  0  0  0  0  0
   -1.8150   -1.9370    2.5560 H   0  0  0  0  0  0  0  0  0  0  0  0
   -4.1100   -1.1920    2.3310 H   0  0  0  0  0  0  0  0  0  0  0  0
   -3.8310    0.0780    3.5120 H   0  0  0  0  0  0  0  0  0  0  0  0
   -2.7780    1.5550    2.0940 H   0  0  0  0  0  0  0  0  0  0  0  0
   -5.1250    0.6010    0.4030 H   0  0  0  0  0  0  0  0  0  0  0  0
   -4.6440    2.2510    1.1010 H   0  0  0  0  0  0  0  0  0  0  0  0
   -5.3020    0.9690    2.1370 H   0  0  0  0  0  0  0  0  0  0  0  0
   -2.9090   -0.5300   -0.1120 H   0  0  0  0  0  0  0  0  0  0  0  0
   -0.4750    0.8840    0.9830 H   0  0  0  0  0  0  0  0  0  0  0  0
  1  6  1  0  0  0  0
  1  5  1  0  0  0  0
  2  3  1  0  0  0  0
  2  1  1  0  0  0  0
  3  4  2  0  0  0  0
  7  2  1  0  0  0  0
  8  2  1  0  0  0  0
  9 10  1  0  0  0  0
  9  3  1  0  0  0  0
 10 19  1  1  0  0  0
 11 12  1  0  0  0  0
 11 21  1  0  0  0  0
 11 10  1  0  0  0  0
 12 23  1  0  0  0  0
 13 25  1  0  0  0  0
 13 14  1  0  0  0  0
 13 12  1  0  0  0  0
 14 15  1  0  0  0  0
 15 28  1  0  0  0  0
 15 29  1  0  0  0  0
 16 10  1  0  0  0  0
 16 35  1  0  0  0  0
 17 16  2  0  0  0  0
 18  9  1  0  0  0  0
 20 11  1  0  0  0  0
 22 12  1  0  0  0  0
 24 13  1  0  0  0  0
 26 14  1  0  0  0  0
 27 14  1  0  0  0  0
 30 39  1  0  0  0  0
 31 30  1  0  0  0  0
 31 43  1  0  0  0  0
 32 44  1  1  0  0  0
 32 31  1  0  0  0  0
 33 32  1  0  0  0  0
 33 47  1  0  0  0  0
 34 48  1  6  0  0  0
 34 35  1  0  0  0  0
 34 32  1  0  0  0  0
 35 49  1  0  0  0  0
 36 34  1  0  0  0  0
 37 36  2  0  0  0  0
 38 36  1  0  0  0  0
 40 30  1  0  0  0  0
 41 30  1  0  0  0  0
 42 31  1  0  0  0  0
 45 33  1  0  0  0  0
 46 33  1  0  0  0  0
M  END
$$$$
