GKK.pdb
 OpenBabel07022418243D

 51 50  0  0  1  0  0  0  0  0999 V2000
    1.9020   -3.8310    1.1310 N   0  0  0  0  0  0  0  0  0  0  0  0
    2.8550   -2.8980    1.6540 C   0  0  0  0  0  0  0  0  0  0  0  0
    2.5640   -1.4950    1.3460 C   0  0  0  0  0  0  0  0  0  0  0  0
    3.3550   -0.6200    1.7710 O   0  0  0  0  0  0  0  0  0  0  0  0
    1.2050   -4.1710    1.7970 H   0  0  0  0  0  0  0  0  0  0  0  0
    1.5840   -3.6320    0.1790 H   0  0  0  0  0  0  0  0  0  0  0  0
    3.8550   -3.1460    1.2110 H   0  0  0  0  0  0  0  0  0  0  0  0
    2.9740   -3.0460    2.7530 H   0  0  0  0  0  0  0  0  0  0  0  0
    1.4630   -1.0150    0.6070 N   0  0  0  0  0  0  0  0  0  0  0  0
    1.1410    0.3210    0.2840 C   0  0  1  0  0  0  0  0  0  0  0  0
    0.6620    0.6490   -1.0430 C   0  0  0  0  0  0  0  0  0  0  0  0
    1.4330    0.3670   -2.2700 C   0  0  0  0  0  0  0  0  0  0  0  0
    2.7460    0.9470   -2.5160 C   0  0  0  0  0  0  0  0  0  0  0  0
    3.8660    0.5760   -1.6000 C   0  0  0  0  0  0  0  0  0  0  0  0
    5.1170    1.2440   -2.0390 N   0  0  0  0  0  0  0  0  0  0  0  0
   -0.0080    0.6620    1.2640 C   0  0  0  0  0  0  0  0  0  0  0  0
   -0.5100    1.8060    1.2130 O   0  0  0  0  0  0  0  0  0  0  0  0
    0.7890   -1.7560    0.2460 H   0  0  0  0  0  0  0  0  0  0  0  0
    1.9140    1.0070    0.6390 H   0  0  0  0  0  0  0  0  0  0  0  0
   -0.4280    0.3970   -1.2240 H   0  0  0  0  0  0  0  0  0  0  0  0
    0.5700    1.8020   -1.0460 H   0  0  0  0  0  0  0  0  0  0  0  0
    0.7510    0.7000   -3.1310 H   0  0  0  0  0  0  0  0  0  0  0  0
    1.4950   -0.7490   -2.4830 H   0  0  0  0  0  0  0  0  0  0  0  0
    2.7170    2.0700   -2.6700 H   0  0  0  0  0  0  0  0  0  0  0  0
    3.0990    0.6030   -3.5520 H   0  0  0  0  0  0  0  0  0  0  0  0
    4.1210   -0.5160   -1.6850 H   0  0  0  0  0  0  0  0  0  0  0  0
    3.7110    0.7910   -0.5410 H   0  0  0  0  0  0  0  0  0  0  0  0
    5.0050    2.2650   -1.8150 H   0  0  0  0  0  0  0  0  0  0  0  0
    5.8700    0.9020   -1.4070 H   0  0  0  0  0  0  0  0  0  0  0  0
   -0.4910   -0.2670    2.1940 N   0  0  0  0  0  0  0  0  0  0  0  0
   -1.5620    0.0030    3.1310 C   0  0  1  0  0  0  0  0  0  0  0  0
   -2.6740   -1.0030    2.8180 C   0  0  0  0  0  0  0  0  0  0  0  0
   -3.1570   -0.8270    1.3890 C   0  0  0  0  0  0  0  0  0  0  0  0
   -4.2470   -1.8480    1.1580 C   0  0  0  0  0  0  0  0  0  0  0  0
   -4.8020   -1.7550   -0.2510 C   0  0  0  0  0  0  0  0  0  0  0  0
   -3.7880   -1.9840   -1.2550 N   0  0  0  0  0  0  0  0  0  0  0  0
   -1.1240   -0.3090    4.5340 C   0  0  0  0  0  0  0  0  0  0  0  0
    0.0520   -0.7450    4.7380 O   0  0  0  0  0  0  0  0  0  0  0  0
   -1.9670   -0.1360    5.6120 O   0  0  0  0  0  0  0  0  0  0  0  0
   -0.0620   -1.2180    2.2250 H   0  0  0  0  0  0  0  0  0  0  0  0
   -1.9620    1.0230    3.0380 H   0  0  0  0  0  0  0  0  0  0  0  0
   -3.5300   -0.7800    3.4850 H   0  0  0  0  0  0  0  0  0  0  0  0
   -2.2430   -2.0000    2.9580 H   0  0  0  0  0  0  0  0  0  0  0  0
   -2.3280   -1.0200    0.6850 H   0  0  0  0  0  0  0  0  0  0  0  0
   -3.5330    0.2090    1.3130 H   0  0  0  0  0  0  0  0  0  0  0  0
   -5.1060   -1.5920    1.8350 H   0  0  0  0  0  0  0  0  0  0  0  0
   -3.8740   -2.8590    1.3190 H   0  0  0  0  0  0  0  0  0  0  0  0
   -5.2270   -0.7260   -0.4360 H   0  0  0  0  0  0  0  0  0  0  0  0
   -5.6530   -2.4550   -0.3780 H   0  0  0  0  0  0  0  0  0  0  0  0
   -4.0870   -2.6850   -1.9560 H   0  0  0  0  0  0  0  0  0  0  0  0
   -3.5620   -1.0940   -1.7860 H   0  0  0  0  0  0  0  0  0  0  0  0
  1  2  1  0  0  0  0
  1  5  1  0  0  0  0
  2  8  1  0  0  0  0
  3  2  1  0  0  0  0
  3  4  2  0  0  0  0
  6  1  1  0  0  0  0
  7  2  1  0  0  0  0
  9  3  1  0  0  0  0
 10  9  1  0  0  0  0
 10 19  1  1  0  0  0
 10 16  1  0  0  0  0
 11 10  1  0  0  0  0
 12 11  1  0  0  0  0
 13 12  1  0  0  0  0
 13 14  1  0  0  0  0
 14 27  1  0  0  0  0
 15 28  1  0  0  0  0
 15 14  1  0  0  0  0
 15 29  1  0  0  0  0
 16 30  1  0  0  0  0
 17 16  2  0  0  0  0
 18  9  1  0  0  0  0
 20 11  1  0  0  0  0
 21 11  1  0  0  0  0
 22 12  1  0  0  0  0
 23 12  1  0  0  0  0
 24 13  1  0  0  0  0
 25 13  1  0  0  0  0
 26 14  1  0  0  0  0
 30 40  1  0  0  0  0
 30 31  1  0  0  0  0
 31 41  1  6  0  0  0
 31 37  1  0  0  0  0
 32 43  1  0  0  0  0
 32 31  1  0  0  0  0
 32 42  1  0  0  0  0
 33 32  1  0  0  0  0
 34 47  1  0  0  0  0
 34 33  1  0  0  0  0
 34 46  1  0  0  0  0
 35 34  1  0  0  0  0
 36 35  1  0  0  0  0
 37 38  2  0  0  0  0
 37 39  1  0  0  0  0
 44 33  1  0  0  0  0
 45 33  1  0  0  0  0
 48 35  1  0  0  0  0
 49 35  1  0  0  0  0
 50 36  1  0  0  0  0
 51 36  1  0  0  0  0
M  END
$$$$
