GKM.pdb
 OpenBabel07022418243D

 47 46  0  0  1  0  0  0  0  0999 V2000
    1.5200   -4.6640   -1.5000 N   0  0  0  0  0  0  0  0  0  0  0  0
    1.7970   -4.7860   -0.0930 C   0  0  0  0  0  0  0  0  0  0  0  0
    1.4590   -3.5540    0.6570 C   0  0  0  0  0  0  0  0  0  0  0  0
    1.6230   -3.4510    1.8950 O   0  0  0  0  0  0  0  0  0  0  0  0
    1.7780   -5.5630   -1.9600 H   0  0  0  0  0  0  0  0  0  0  0  0
    2.1670   -3.9200   -1.8800 H   0  0  0  0  0  0  0  0  0  0  0  0
    2.8730   -5.0040    0.0580 H   0  0  0  0  0  0  0  0  0  0  0  0
    1.2300   -5.6260    0.3700 H   0  0  0  0  0  0  0  0  0  0  0  0
    0.9150   -2.3840    0.0010 N   0  0  0  0  0  0  0  0  0  0  0  0
    0.5790   -1.1750    0.7070 C   0  0  1  0  0  0  0  0  0  0  0  0
    1.5180   -0.0460    0.6070 C   0  0  0  0  0  0  0  0  0  0  0  0
    1.8510    0.5860   -0.6570 C   0  0  0  0  0  0  0  0  0  0  0  0
    2.4910   -0.1610   -1.7500 C   0  0  0  0  0  0  0  0  0  0  0  0
    3.8080   -0.7950   -1.4290 C   0  0  0  0  0  0  0  0  0  0  0  0
    4.8120    0.1710   -1.0240 N   0  0  0  0  0  0  0  0  0  0  0  0
   -0.8420   -0.8330    0.5340 C   0  0  0  0  0  0  0  0  0  0  0  0
   -1.5440   -1.5920   -0.1620 O   0  0  0  0  0  0  0  0  0  0  0  0
    0.7710   -2.5100   -1.0260 H   0  0  0  0  0  0  0  0  0  0  0  0
    0.6370   -1.4950    1.8100 H   0  0  0  0  0  0  0  0  0  0  0  0
    1.1120    0.7640    1.3020 H   0  0  0  0  0  0  0  0  0  0  0  0
    2.4430   -0.3720    1.2010 H   0  0  0  0  0  0  0  0  0  0  0  0
    0.9110    1.0980   -1.0470 H   0  0  0  0  0  0  0  0  0  0  0  0
    2.5200    1.4940   -0.4830 H   0  0  0  0  0  0  0  0  0  0  0  0
    1.8330   -0.9030   -2.2150 H   0  0  0  0  0  0  0  0  0  0  0  0
    2.7380    0.5360   -2.6320 H   0  0  0  0  0  0  0  0  0  0  0  0
    4.1870   -1.2480   -2.3730 H   0  0  0  0  0  0  0  0  0  0  0  0
    3.7300   -1.6410   -0.7080 H   0  0  0  0  0  0  0  0  0  0  0  0
    5.1240    0.0600   -0.0500 H   0  0  0  0  0  0  0  0  0  0  0  0
    4.5930    1.1370   -1.3100 H   0  0  0  0  0  0  0  0  0  0  0  0
   -3.6670    0.2130    5.6420 C   0  0  0  0  0  0  0  0  0  0  0  0
   -3.9170    1.7590    4.7230 S   0  0  0  0  0  0  0  0  0  0  0  0
   -3.0130    1.7200    3.1590 C   0  0  0  0  0  0  0  0  0  0  0  0
   -3.6000    0.6630    2.2360 C   0  0  0  0  0  0  0  0  0  0  0  0
   -2.8590    0.6130    0.9220 C   0  0  2  0  0  0  0  0  0  0  0  0
   -1.4430    0.2920    1.1060 N   0  0  0  0  0  0  0  0  0  0  0  0
   -2.9950    1.8930    0.1800 C   0  0  0  0  0  0  0  0  0  0  0  0
   -4.1490    2.3270   -0.0670 O   0  0  0  0  0  0  0  0  0  0  0  0
   -1.9200    2.6480   -0.2630 O   0  0  0  0  0  0  0  0  0  0  0  0
   -4.2660    0.2370    6.5640 H   0  0  0  0  0  0  0  0  0  0  0  0
   -2.5930    0.0980    5.8070 H   0  0  0  0  0  0  0  0  0  0  0  0
   -3.9720   -0.6130    4.9500 H   0  0  0  0  0  0  0  0  0  0  0  0
   -1.9630    1.5220    3.3670 H   0  0  0  0  0  0  0  0  0  0  0  0
   -3.1720    2.7000    2.6500 H   0  0  0  0  0  0  0  0  0  0  0  0
   -4.6500    0.8770    2.0090 H   0  0  0  0  0  0  0  0  0  0  0  0
   -3.5140   -0.3030    2.7430 H   0  0  0  0  0  0  0  0  0  0  0  0
   -3.3090   -0.1740    0.2820 H   0  0  0  0  0  0  0  0  0  0  0  0
   -0.9000    0.9550    1.6950 H   0  0  0  0  0  0  0  0  0  0  0  0
  1  2  1  0  0  0  0
  2  7  1  0  0  0  0
  2  8  1  0  0  0  0
  2  3  1  0  0  0  0
  3  4  2  0  0  0  0
  5  1  1  0  0  0  0
  6  1  1  0  0  0  0
  9  3  1  0  0  0  0
  9 10  1  0  0  0  0
 10 19  1  1  0  0  0
 11 10  1  0  0  0  0
 11 21  1  0  0  0  0
 11 20  1  0  0  0  0
 12 23  1  0  0  0  0
 12 11  1  0  0  0  0
 13 14  1  0  0  0  0
 13 12  1  0  0  0  0
 14 15  1  0  0  0  0
 14 27  1  0  0  0  0
 15 28  1  0  0  0  0
 16 10  1  0  0  0  0
 16 35  1  0  0  0  0
 17 16  2  0  0  0  0
 18  9  1  0  0  0  0
 22 12  1  0  0  0  0
 24 13  1  0  0  0  0
 25 13  1  0  0  0  0
 26 14  1  0  0  0  0
 29 15  1  0  0  0  0
 30 40  1  0  0  0  0
 30 39  1  0  0  0  0
 31 30  1  0  0  0  0
 32 42  1  0  0  0  0
 32 31  1  0  0  0  0
 33 45  1  0  0  0  0
 33 32  1  0  0  0  0
 34 46  1  6  0  0  0
 34 35  1  0  0  0  0
 34 33  1  0  0  0  0
 35 47  1  0  0  0  0
 36 34  1  0  0  0  0
 37 36  1  0  0  0  0
 38 36  2  0  0  0  0
 41 30  1  0  0  0  0
 43 32  1  0  0  0  0
 44 33  1  0  0  0  0
M  END
$$$$
