GKT.pdb
 OpenBabel07022418243D

 44 43  0  0  1  0  0  0  0  0999 V2000
    0.2540   -5.6520    3.0810 N   0  0  0  0  0  0  0  0  0  0  0  0
    1.2570   -5.0030    2.2970 C   0  0  0  0  0  0  0  0  0  0  0  0
    0.7120   -3.7360    1.6660 C   0  0  0  0  0  0  0  0  0  0  0  0
   -0.4880   -3.4550    1.9130 O   0  0  0  0  0  0  0  0  0  0  0  0
    0.3320   -5.4140    4.0750 H   0  0  0  0  0  0  0  0  0  0  0  0
   -0.7070   -5.5830    2.6900 H   0  0  0  0  0  0  0  0  0  0  0  0
    2.1070   -4.6890    2.9680 H   0  0  0  0  0  0  0  0  0  0  0  0
    1.5870   -5.6750    1.4890 H   0  0  0  0  0  0  0  0  0  0  0  0
    1.5010   -2.9280    0.8550 N   0  0  0  0  0  0  0  0  0  0  0  0
    0.9420   -1.6700    0.2360 C   0  0  1  0  0  0  0  0  0  0  0  0
   -0.1120   -2.0460   -0.7000 C   0  0  0  0  0  0  0  0  0  0  0  0
   -0.8540   -1.0700   -1.4760 C   0  0  0  0  0  0  0  0  0  0  0  0
   -0.3830   -0.1960   -2.5210 C   0  0  0  0  0  0  0  0  0  0  0  0
    0.6090    0.8680   -2.3690 C   0  0  0  0  0  0  0  0  0  0  0  0
    1.9090    0.4670   -1.9800 N   0  0  0  0  0  0  0  0  0  0  0  0
    0.5810   -0.8400    1.4000 C   0  0  0  0  0  0  0  0  0  0  0  0
    0.7500   -1.3150    2.5750 O   0  0  0  0  0  0  0  0  0  0  0  0
    2.4830   -3.1990    0.6780 H   0  0  0  0  0  0  0  0  0  0  0  0
    1.8320   -1.2880   -0.2940 H   0  0  0  0  0  0  0  0  0  0  0  0
    0.4270   -2.7720   -1.4510 H   0  0  0  0  0  0  0  0  0  0  0  0
   -0.8350   -2.8090   -0.2220 H   0  0  0  0  0  0  0  0  0  0  0  0
   -1.5120   -0.4050   -0.7790 H   0  0  0  0  0  0  0  0  0  0  0  0
   -1.7780   -1.6470   -1.9660 H   0  0  0  0  0  0  0  0  0  0  0  0
   -1.3120    0.3360   -2.9810 H   0  0  0  0  0  0  0  0  0  0  0  0
   -0.0890   -0.8560   -3.4380 H   0  0  0  0  0  0  0  0  0  0  0  0
    0.2100    1.6630   -1.6720 H   0  0  0  0  0  0  0  0  0  0  0  0
    0.6860    1.4860   -3.3480 H   0  0  0  0  0  0  0  0  0  0  0  0
    2.5370    0.2360   -2.7630 H   0  0  0  0  0  0  0  0  0  0  0  0
    2.3560    1.1490   -1.3190 H   0  0  0  0  0  0  0  0  0  0  0  0
    0.5870    3.2210    1.2790 C   0  0  0  0  0  0  0  0  0  0  0  0
    0.6330    2.4180    2.5600 C   0  0  1  0  0  0  0  0  0  0  0  0
    0.3280    3.1800    3.6670 O   0  0  0  0  0  0  0  0  0  0  0  0
   -0.2870    1.2340    2.5310 C   0  0  2  0  0  0  0  0  0  0  0  0
    0.0600    0.4490    1.3500 N   0  0  0  0  0  0  0  0  0  0  0  0
   -1.7120    1.5970    2.5490 C   0  0  0  0  0  0  0  0  0  0  0  0
   -2.5210    1.2620    1.6460 O   0  0  0  0  0  0  0  0  0  0  0  0
   -2.2160    2.3450    3.6020 O   0  0  0  0  0  0  0  0  0  0  0  0
    1.3470    2.9050    0.5670 H   0  0  0  0  0  0  0  0  0  0  0  0
    0.7630    4.2850    1.5460 H   0  0  0  0  0  0  0  0  0  0  0  0
   -0.4430    3.1340    0.8830 H   0  0  0  0  0  0  0  0  0  0  0  0
    1.6720    2.0290    2.6520 H   0  0  0  0  0  0  0  0  0  0  0  0
    0.9210    2.8990    4.4070 H   0  0  0  0  0  0  0  0  0  0  0  0
   -0.0490    0.5950    3.4060 H   0  0  0  0  0  0  0  0  0  0  0  0
   -0.1000    0.9240    0.4550 H   0  0  0  0  0  0  0  0  0  0  0  0
  1  5  1  0  0  0  0
  2  7  1  0  0  0  0
  2  1  1  0  0  0  0
  3  4  2  0  0  0  0
  3  2  1  0  0  0  0
  6  1  1  0  0  0  0
  8  2  1  0  0  0  0
  9  3  1  0  0  0  0
 10 19  1  6  0  0  0
 10  9  1  0  0  0  0
 10 16  1  0  0  0  0
 11 21  1  0  0  0  0
 11 10  1  0  0  0  0
 12 22  1  0  0  0  0
 12 11  1  0  0  0  0
 13 14  1  0  0  0  0
 13 12  1  0  0  0  0
 14 15  1  0  0  0  0
 14 26  1  0  0  0  0
 15 29  1  0  0  0  0
 16 17  2  0  0  0  0
 18  9  1  0  0  0  0
 20 11  1  0  0  0  0
 23 12  1  0  0  0  0
 24 13  1  0  0  0  0
 25 13  1  0  0  0  0
 27 14  1  0  0  0  0
 28 15  1  0  0  0  0
 30 39  1  0  0  0  0
 30 31  1  0  0  0  0
 31 41  1  1  0  0  0
 31 32  1  0  0  0  0
 32 42  1  0  0  0  0
 33 35  1  0  0  0  0
 33 31  1  0  0  0  0
 33 43  1  1  0  0  0
 34 16  1  0  0  0  0
 34 33  1  0  0  0  0
 35 37  1  0  0  0  0
 36 35  2  0  0  0  0
 38 30  1  0  0  0  0
 40 30  1  0  0  0  0
 44 34  1  0  0  0  0
M  END
$$$$
