GKV.pdb
 OpenBabel07022418243D

 46 45  0  0  1  0  0  0  0  0999 V2000
    4.5890   -4.2190    2.0500 N   0  0  0  0  0  0  0  0  0  0  0  0
    3.2020   -4.4400    1.7210 C   0  0  0  0  0  0  0  0  0  0  0  0
    2.6300   -3.1750    1.2090 C   0  0  0  0  0  0  0  0  0  0  0  0
    3.3580   -2.1630    1.1340 O   0  0  0  0  0  0  0  0  0  0  0  0
    4.8490   -3.1970    2.0350 H   0  0  0  0  0  0  0  0  0  0  0  0
    4.8470   -4.6120    2.9830 H   0  0  0  0  0  0  0  0  0  0  0  0
    3.2000   -5.1550    0.8470 H   0  0  0  0  0  0  0  0  0  0  0  0
    2.6150   -4.8890    2.5240 H   0  0  0  0  0  0  0  0  0  0  0  0
    1.2820   -3.0790    0.8020 N   0  0  0  0  0  0  0  0  0  0  0  0
    0.7490   -1.7690    0.2890 C   0  0  1  0  0  0  0  0  0  0  0  0
    0.2570   -2.0080   -1.0870 C   0  0  0  0  0  0  0  0  0  0  0  0
   -0.3150   -0.9560   -1.8960 C   0  0  0  0  0  0  0  0  0  0  0  0
    0.3370    0.2130   -2.4330 C   0  0  0  0  0  0  0  0  0  0  0  0
    0.9810    1.2950   -1.7090 C   0  0  0  0  0  0  0  0  0  0  0  0
    2.1140    0.9710   -0.9210 N   0  0  0  0  0  0  0  0  0  0  0  0
   -0.2800   -1.3490    1.2620 C   0  0  0  0  0  0  0  0  0  0  0  0
   -0.5940   -2.1490    2.1910 O   0  0  0  0  0  0  0  0  0  0  0  0
    0.6780   -3.9140    0.8630 H   0  0  0  0  0  0  0  0  0  0  0  0
    1.6060   -1.1150    0.3510 H   0  0  0  0  0  0  0  0  0  0  0  0
   -0.4980   -2.8940   -1.0710 H   0  0  0  0  0  0  0  0  0  0  0  0
    1.0950   -2.5330   -1.7000 H   0  0  0  0  0  0  0  0  0  0  0  0
   -1.3080   -0.6130   -1.3910 H   0  0  0  0  0  0  0  0  0  0  0  0
   -0.8270   -1.4780   -2.8310 H   0  0  0  0  0  0  0  0  0  0  0  0
   -0.4730    0.7380   -3.0970 H   0  0  0  0  0  0  0  0  0  0  0  0
    1.0370   -0.1260   -3.2940 H   0  0  0  0  0  0  0  0  0  0  0  0
    0.2990    1.9290   -1.0870 H   0  0  0  0  0  0  0  0  0  0  0  0
    1.3770    2.0940   -2.4540 H   0  0  0  0  0  0  0  0  0  0  0  0
    2.7790    1.7650   -0.7700 H   0  0  0  0  0  0  0  0  0  0  0  0
    2.6780    0.1910   -1.3530 H   0  0  0  0  0  0  0  0  0  0  0  0
   -2.3750    1.8390    4.1180 C   0  0  0  0  0  0  0  0  0  0  0  0
   -1.4310    1.3940    3.0490 C   0  0  0  0  0  0  0  0  0  0  0  0
   -1.0460    2.5580    2.1920 C   0  0  0  0  0  0  0  0  0  0  0  0
   -1.9690    0.2220    2.2540 C   0  0  2  0  0  0  0  0  0  0  0  0
   -0.9460   -0.1140    1.2400 N   0  0  0  0  0  0  0  0  0  0  0  0
   -3.2210    0.5250    1.5600 C   0  0  0  0  0  0  0  0  0  0  0  0
   -3.2630    0.4660    0.3080 O   0  0  0  0  0  0  0  0  0  0  0  0
   -4.3990    0.8820    2.2010 O   0  0  0  0  0  0  0  0  0  0  0  0
   -3.0620    1.0380    4.4610 H   0  0  0  0  0  0  0  0  0  0  0  0
   -1.7690    2.1560    5.0130 H   0  0  0  0  0  0  0  0  0  0  0  0
   -2.9130    2.7490    3.7900 H   0  0  0  0  0  0  0  0  0  0  0  0
   -0.4890    1.0170    3.5440 H   0  0  0  0  0  0  0  0  0  0  0  0
   -1.7320    2.7270    1.3490 H   0  0  0  0  0  0  0  0  0  0  0  0
   -1.0930    3.4960    2.8180 H   0  0  0  0  0  0  0  0  0  0  0  0
    0.0290    2.5020    1.8690 H   0  0  0  0  0  0  0  0  0  0  0  0
   -2.0830   -0.6150    2.9550 H   0  0  0  0  0  0  0  0  0  0  0  0
   -0.7070    0.5750    0.5050 H   0  0  0  0  0  0  0  0  0  0  0  0
  1  6  1  0  0  0  0
  2  1  1  0  0  0  0
  2  8  1  0  0  0  0
  3  2  1  0  0  0  0
  4  3  2  0  0  0  0
  5  1  1  0  0  0  0
  7  2  1  0  0  0  0
  9 18  1  0  0  0  0
  9  3  1  0  0  0  0
 10 19  1  6  0  0  0
 10  9  1  0  0  0  0
 10 16  1  0  0  0  0
 11 20  1  0  0  0  0
 11 10  1  0  0  0  0
 12 22  1  0  0  0  0
 12 11  1  0  0  0  0
 13 12  1  0  0  0  0
 13 14  1  0  0  0  0
 14 26  1  0  0  0  0
 14 15  1  0  0  0  0
 15 28  1  0  0  0  0
 16 17  2  0  0  0  0
 21 11  1  0  0  0  0
 23 12  1  0  0  0  0
 24 13  1  0  0  0  0
 25 13  1  0  0  0  0
 27 14  1  0  0  0  0
 29 15  1  0  0  0  0
 30 38  1  0  0  0  0
 30 39  1  0  0  0  0
 31 41  1  0  0  0  0
 31 30  1  0  0  0  0
 32 43  1  0  0  0  0
 32 31  1  0  0  0  0
 33 45  1  1  0  0  0
 33 31  1  0  0  0  0
 34 16  1  0  0  0  0
 34 33  1  0  0  0  0
 35 37  1  0  0  0  0
 35 33  1  0  0  0  0
 36 35  2  0  0  0  0
 40 30  1  0  0  0  0
 42 32  1  0  0  0  0
 44 32  1  0  0  0  0
 46 34  1  0  0  0  0
M  END
$$$$
