GKY.pdb
 OpenBabel07022418243D

 51 51  0  0  1  0  0  0  0  0999 V2000
    0.9080    3.2470    1.8120 N   0  0  0  0  0  0  0  0  0  0  0  0
    0.7020    2.0040    2.5040 C   0  0  0  0  0  0  0  0  0  0  0  0
    0.6690    0.8800    1.5020 C   0  0  0  0  0  0  0  0  0  0  0  0
    0.4980   -0.2850    1.9150 O   0  0  0  0  0  0  0  0  0  0  0  0
    1.6750    3.8200    2.2520 H   0  0  0  0  0  0  0  0  0  0  0  0
    0.0200    3.8110    1.7420 H   0  0  0  0  0  0  0  0  0  0  0  0
   -0.2930    2.0580    3.0230 H   0  0  0  0  0  0  0  0  0  0  0  0
    1.4750    1.7710    3.2540 H   0  0  0  0  0  0  0  0  0  0  0  0
    0.8310    1.1510    0.1210 N   0  0  0  0  0  0  0  0  0  0  0  0
    0.8110    0.1520   -0.8940 C   0  0  1  0  0  0  0  0  0  0  0  0
    1.8790   -0.8910   -0.8440 C   0  0  0  0  0  0  0  0  0  0  0  0
    3.2610   -0.4080   -0.9860 C   0  0  0  0  0  0  0  0  0  0  0  0
    3.8520    0.4830    0.0260 C   0  0  0  0  0  0  0  0  0  0  0  0
    4.0440   -0.0770    1.3990 C   0  0  0  0  0  0  0  0  0  0  0  0
    4.9560   -1.2420    1.3200 N   0  0  0  0  0  0  0  0  0  0  0  0
   -0.5410   -0.3670   -1.1160 C   0  0  0  0  0  0  0  0  0  0  0  0
   -0.7860   -1.2490   -2.0070 O   0  0  0  0  0  0  0  0  0  0  0  0
    0.9730    2.1820   -0.1220 H   0  0  0  0  0  0  0  0  0  0  0  0
    1.0520    0.7260   -1.8870 H   0  0  0  0  0  0  0  0  0  0  0  0
    1.6800   -1.5730   -1.7220 H   0  0  0  0  0  0  0  0  0  0  0  0
    1.7730   -1.5290    0.0560 H   0  0  0  0  0  0  0  0  0  0  0  0
    3.4300    0.0810   -1.9880 H   0  0  0  0  0  0  0  0  0  0  0  0
    3.9260   -1.3230   -1.0390 H   0  0  0  0  0  0  0  0  0  0  0  0
    4.8960    0.7350   -0.3400 H   0  0  0  0  0  0  0  0  0  0  0  0
    3.3670    1.4900    0.0800 H   0  0  0  0  0  0  0  0  0  0  0  0
    4.6630    0.6870    1.9580 H   0  0  0  0  0  0  0  0  0  0  0  0
    3.1660   -0.3490    1.9530 H   0  0  0  0  0  0  0  0  0  0  0  0
    5.2470   -1.5170    2.2880 H   0  0  0  0  0  0  0  0  0  0  0  0
    4.3550   -2.0170    0.9240 H   0  0  0  0  0  0  0  0  0  0  0  0
   -0.7680   -5.6890    2.2510 O   0  0  0  0  0  0  0  0  0  0  0  0
   -1.4660   -4.5800    1.8310 C   0  0  0  0  0  0  0  0  0  0  0  0
   -1.2980   -3.3580    2.4560 C   0  0  0  0  0  0  0  0  0  0  0  0
   -2.0040   -2.2790    2.0160 C   0  0  0  0  0  0  0  0  0  0  0  0
   -2.8830   -2.3440    0.9720 C   0  0  0  0  0  0  0  0  0  0  0  0
   -3.6000   -1.1390    0.5340 C   0  0  0  0  0  0  0  0  0  0  0  0
   -3.0010   -0.4140   -0.6240 C   0  0  2  0  0  0  0  0  0  0  0  0
   -1.6770    0.0590   -0.3830 N   0  0  0  0  0  0  0  0  0  0  0  0
   -3.9390    0.6650   -0.9990 C   0  0  0  0  0  0  0  0  0  0  0  0
   -3.5350    1.8320   -1.0740 O   0  0  0  0  0  0  0  0  0  0  0  0
   -3.0420   -3.5710    0.3570 C   0  0  0  0  0  0  0  0  0  0  0  0
   -2.3430   -4.6900    0.7750 C   0  0  0  0  0  0  0  0  0  0  0  0
   -5.2480    0.3610   -1.2610 O   0  0  0  0  0  0  0  0  0  0  0  0
   -0.8570   -6.0340    3.1990 H   0  0  0  0  0  0  0  0  0  0  0  0
   -0.5990   -3.3140    3.2820 H   0  0  0  0  0  0  0  0  0  0  0  0
   -1.8870   -1.3220    2.5140 H   0  0  0  0  0  0  0  0  0  0  0  0
   -4.6970   -1.3710    0.3400 H   0  0  0  0  0  0  0  0  0  0  0  0
   -3.6660   -0.4720    1.4510 H   0  0  0  0  0  0  0  0  0  0  0  0
   -2.9130   -1.1650   -1.4720 H   0  0  0  0  0  0  0  0  0  0  0  0
   -1.5460    0.7590    0.3800 H   0  0  0  0  0  0  0  0  0  0  0  0
   -3.7270   -3.6750   -0.4750 H   0  0  0  0  0  0  0  0  0  0  0  0
   -2.4820   -5.6390    0.2800 H   0  0  0  0  0  0  0  0  0  0  0  0
  1  5  1  0  0  0  0
  1  2  1  0  0  0  0
  2  7  1  0  0  0  0
  2  8  1  0  0  0  0
  3  4  2  0  0  0  0
  3  2  1  0  0  0  0
  6  1  1  0  0  0  0
  9  3  1  0  0  0  0
 10 19  1  6  0  0  0
 10 11  1  0  0  0  0
 10  9  1  0  0  0  0
 11 21  1  0  0  0  0
 12 11  1  0  0  0  0
 12 13  1  0  0  0  0
 13 25  1  0  0  0  0
 13 14  1  0  0  0  0
 14 27  1  0  0  0  0
 14 26  1  0  0  0  0
 15 14  1  0  0  0  0
 15 28  1  0  0  0  0
 16 10  1  0  0  0  0
 16 37  1  0  0  0  0
 17 16  2  0  0  0  0
 18  9  1  0  0  0  0
 20 11  1  0  0  0  0
 22 12  1  0  0  0  0
 23 12  1  0  0  0  0
 24 13  1  0  0  0  0
 29 15  1  0  0  0  0
 30 43  1  0  0  0  0
 31 30  1  0  0  0  0
 31 32  1  0  0  0  0
 32 44  1  0  0  0  0
 33 32  2  0  0  0  0
 33 45  1  0  0  0  0
 34 33  1  0  0  0  0
 35 34  1  0  0  0  0
 35 47  1  0  0  0  0
 36 48  1  6  0  0  0
 36 37  1  0  0  0  0
 36 35  1  0  0  0  0
 37 49  1  0  0  0  0
 38 36  1  0  0  0  0
 39 38  1  0  0  0  0
 40 41  1  0  0  0  0
 40 34  2  0  0  0  0
 41 31  2  0  0  0  0
 42 38  2  0  0  0  0
 46 35  1  0  0  0  0
 50 40  1  0  0  0  0
 51 41  1  0  0  0  0
M  END
$$$$
