GLA.pdb
 OpenBabel07022418233D

 38 37  0  0  1  0  0  0  0  0999 V2000
   -4.5790   -1.9950   -2.0090 N   0  0  0  0  0  0  0  0  0  0  0  0
   -3.2010   -2.3350   -1.7110 C   0  0  0  0  0  0  0  0  0  0  0  0
   -2.6410   -1.3680   -0.7070 C   0  0  0  0  0  0  0  0  0  0  0  0
   -3.3630   -0.4400   -0.2640 O   0  0  0  0  0  0  0  0  0  0  0  0
   -4.6690   -1.5400   -2.9520 H   0  0  0  0  0  0  0  0  0  0  0  0
   -4.9990   -1.3430   -1.3120 H   0  0  0  0  0  0  0  0  0  0  0  0
   -3.2280   -3.3660   -1.2680 H   0  0  0  0  0  0  0  0  0  0  0  0
   -2.5730   -2.4020   -2.6140 H   0  0  0  0  0  0  0  0  0  0  0  0
    0.7310   -2.8050    3.4790 C   0  0  0  0  0  0  0  0  0  0  0  0
    0.5850   -2.3520    2.0150 C   0  0  0  0  0  0  0  0  0  0  0  0
    1.9640   -2.0900    1.5330 C   0  0  0  0  0  0  0  0  0  0  0  0
   -0.3570   -1.2290    2.0110 C   0  0  0  0  0  0  0  0  0  0  0  0
   -0.7010   -0.5790    0.7250 C   0  0  2  0  0  0  0  0  0  0  0  0
   -1.3060   -1.4730   -0.2390 N   0  0  0  0  0  0  0  0  0  0  0  0
    0.3710    0.2490    0.1480 C   0  0  0  0  0  0  0  0  0  0  0  0
    0.7370    0.1970   -1.0580 O   0  0  0  0  0  0  0  0  0  0  0  0
    1.6930   -2.4810    3.9060 H   0  0  0  0  0  0  0  0  0  0  0  0
   -0.0690   -2.3960    4.1110 H   0  0  0  0  0  0  0  0  0  0  0  0
    0.6820   -3.9100    3.5490 H   0  0  0  0  0  0  0  0  0  0  0  0
    0.1750   -3.2300    1.4600 H   0  0  0  0  0  0  0  0  0  0  0  0
    2.0680   -1.4900    0.6310 H   0  0  0  0  0  0  0  0  0  0  0  0
    2.4160   -3.0960    1.2760 H   0  0  0  0  0  0  0  0  0  0  0  0
    2.6320   -1.7270    2.3690 H   0  0  0  0  0  0  0  0  0  0  0  0
    0.0190   -0.4340    2.7050 H   0  0  0  0  0  0  0  0  0  0  0  0
   -1.3330   -1.5600    2.4760 H   0  0  0  0  0  0  0  0  0  0  0  0
   -1.5250    0.1610    0.9750 H   0  0  0  0  0  0  0  0  0  0  0  0
   -0.7270   -2.2520   -0.6220 H   0  0  0  0  0  0  0  0  0  0  0  0
    1.7800    3.4700    0.5890 C   0  0  0  0  0  0  0  0  0  0  0  0
    2.0980    1.9950    0.4500 C   0  0  2  0  0  0  0  0  0  0  0  0
    1.0500    1.1740    0.9840 N   0  0  0  0  0  0  0  0  0  0  0  0
    3.3380    1.7460    1.2130 C   0  0  0  0  0  0  0  0  0  0  0  0
    3.3310    0.9210    2.1570 O   0  0  0  0  0  0  0  0  0  0  0  0
    4.5390    2.3850    0.9420 O   0  0  0  0  0  0  0  0  0  0  0  0
    1.2520    3.6930    1.5290 H   0  0  0  0  0  0  0  0  0  0  0  0
    1.2300    3.7730   -0.3180 H   0  0  0  0  0  0  0  0  0  0  0  0
    2.7520    4.0070    0.6110 H   0  0  0  0  0  0  0  0  0  0  0  0
    2.2800    1.7980   -0.6260 H   0  0  0  0  0  0  0  0  0  0  0  0
    0.8200    1.2970    2.0120 H   0  0  0  0  0  0  0  0  0  0  0  0
  1  2  1  0  0  0  0
  1  6  1  0  0  0  0
  2  7  1  0  0  0  0
  2  3  1  0  0  0  0
  3  4  2  0  0  0  0
  3 14  1  0  0  0  0
  5  1  1  0  0  0  0
  8  2  1  0  0  0  0
  9 19  1  0  0  0  0
  9 17  1  0  0  0  0
  9 18  1  0  0  0  0
 10  9  1  0  0  0  0
 11 10  1  0  0  0  0
 11 23  1  0  0  0  0
 12 10  1  0  0  0  0
 12 25  1  0  0  0  0
 12 24  1  0  0  0  0
 13 26  1  1  0  0  0
 13 12  1  0  0  0  0
 14 13  1  0  0  0  0
 15 13  1  0  0  0  0
 15 30  1  0  0  0  0
 16 15  2  0  0  0  0
 20 10  1  0  0  0  0
 21 11  1  0  0  0  0
 22 11  1  0  0  0  0
 27 14  1  0  0  0  0
 28 36  1  0  0  0  0
 28 34  1  0  0  0  0
 29 37  1  6  0  0  0
 29 28  1  0  0  0  0
 29 30  1  0  0  0  0
 29 31  1  0  0  0  0
 30 38  1  0  0  0  0
 31 32  1  0  0  0  0
 33 31  2  0  0  0  0
 35 28  1  0  0  0  0
M  END
$$$$
