GLK.pdb
 OpenBabel07022418233D

 49 48  0  0  1  0  0  0  0  0999 V2000
   -1.1070   -5.3120   -1.5610 N   0  0  0  0  0  0  0  0  0  0  0  0
   -0.2180   -4.1980   -1.8340 C   0  0  0  0  0  0  0  0  0  0  0  0
   -0.0960   -3.3610   -0.6110 C   0  0  0  0  0  0  0  0  0  0  0  0
   -0.7170   -3.6750    0.4350 O   0  0  0  0  0  0  0  0  0  0  0  0
   -1.7120   -5.0940   -0.7460 H   0  0  0  0  0  0  0  0  0  0  0  0
   -0.5920   -6.1980   -1.4500 H   0  0  0  0  0  0  0  0  0  0  0  0
   -0.6800   -3.6300   -2.6810 H   0  0  0  0  0  0  0  0  0  0  0  0
    0.7660   -4.6210   -2.1120 H   0  0  0  0  0  0  0  0  0  0  0  0
    4.4550   -2.0450    1.6900 C   0  0  0  0  0  0  0  0  0  0  0  0
    3.0160   -2.4610    1.3340 C   0  0  0  0  0  0  0  0  0  0  0  0
    3.1110   -3.5110    0.2940 C   0  0  0  0  0  0  0  0  0  0  0  0
    2.2940   -1.2140    0.9930 C   0  0  0  0  0  0  0  0  0  0  0  0
    0.8480   -1.3560    0.6120 C   0  0  2  0  0  0  0  0  0  0  0  0
    0.7060   -2.1930   -0.5560 N   0  0  0  0  0  0  0  0  0  0  0  0
    0.3490    0.0270    0.2800 C   0  0  0  0  0  0  0  0  0  0  0  0
   -0.0900    0.2610   -0.8650 O   0  0  0  0  0  0  0  0  0  0  0  0
    5.1020   -2.9510    1.5560 H   0  0  0  0  0  0  0  0  0  0  0  0
    4.7560   -1.3300    0.9020 H   0  0  0  0  0  0  0  0  0  0  0  0
    4.5070   -1.6430    2.7090 H   0  0  0  0  0  0  0  0  0  0  0  0
    2.6350   -2.9460    2.2700 H   0  0  0  0  0  0  0  0  0  0  0  0
    4.1060   -4.0390    0.4350 H   0  0  0  0  0  0  0  0  0  0  0  0
    3.1450   -3.1370   -0.7280 H   0  0  0  0  0  0  0  0  0  0  0  0
    2.3790   -4.3550    0.4510 H   0  0  0  0  0  0  0  0  0  0  0  0
    2.3990   -0.5420    1.8980 H   0  0  0  0  0  0  0  0  0  0  0  0
    2.8430   -0.6260    0.2000 H   0  0  0  0  0  0  0  0  0  0  0  0
    0.2620   -1.7820    1.4550 H   0  0  0  0  0  0  0  0  0  0  0  0
    1.2160   -1.9350   -1.4280 H   0  0  0  0  0  0  0  0  0  0  0  0
    0.3630    1.0720    1.2350 N   0  0  0  0  0  0  0  0  0  0  0  0
   -0.0970    2.4140    0.9900 C   0  0  1  0  0  0  0  0  0  0  0  0
   -1.2050    2.8390    1.8900 C   0  0  0  0  0  0  0  0  0  0  0  0
   -2.4400    2.0110    1.8080 C   0  0  0  0  0  0  0  0  0  0  0  0
   -3.0660    1.9950    0.4370 C   0  0  0  0  0  0  0  0  0  0  0  0
   -4.3090    1.1020    0.5450 C   0  0  0  0  0  0  0  0  0  0  0  0
   -3.9190   -0.2290    0.9520 N   0  0  0  0  0  0  0  0  0  0  0  0
    0.9860    3.4170    1.0790 C   0  0  0  0  0  0  0  0  0  0  0  0
    0.7090    4.6280    0.8840 O   0  0  0  0  0  0  0  0  0  0  0  0
    2.3110    3.1220    1.3680 O   0  0  0  0  0  0  0  0  0  0  0  0
    0.7500    0.8060    2.1910 H   0  0  0  0  0  0  0  0  0  0  0  0
   -0.4590    2.4450   -0.0700 H   0  0  0  0  0  0  0  0  0  0  0  0
   -0.8270    2.7550    2.9440 H   0  0  0  0  0  0  0  0  0  0  0  0
   -1.3810    3.9210    1.7310 H   0  0  0  0  0  0  0  0  0  0  0  0
   -2.2360    1.0070    2.1980 H   0  0  0  0  0  0  0  0  0  0  0  0
   -3.1940    2.4670    2.4940 H   0  0  0  0  0  0  0  0  0  0  0  0
   -2.4240    1.6170   -0.3540 H   0  0  0  0  0  0  0  0  0  0  0  0
   -3.4480    2.9870    0.1370 H   0  0  0  0  0  0  0  0  0  0  0  0
   -4.8860    1.0810   -0.3820 H   0  0  0  0  0  0  0  0  0  0  0  0
   -4.9300    1.5480    1.3550 H   0  0  0  0  0  0  0  0  0  0  0  0
   -4.6250   -0.6970    1.5270 H   0  0  0  0  0  0  0  0  0  0  0  0
   -3.5430   -0.7700    0.1620 H   0  0  0  0  0  0  0  0  0  0  0  0
  1  6  1  0  0  0  0
  1  5  1  0  0  0  0
  2  1  1  0  0  0  0
  2  3  1  0  0  0  0
  3 14  1  0  0  0  0
  3  4  2  0  0  0  0
  7  2  1  0  0  0  0
  8  2  1  0  0  0  0
  9 19  1  0  0  0  0
 10  9  1  0  0  0  0
 10 20  1  0  0  0  0
 11 21  1  0  0  0  0
 11 23  1  0  0  0  0
 11 10  1  0  0  0  0
 12 10  1  0  0  0  0
 12 24  1  0  0  0  0
 13 12  1  0  0  0  0
 13 26  1  1  0  0  0
 14 13  1  0  0  0  0
 15 13  1  0  0  0  0
 15 28  1  0  0  0  0
 16 15  2  0  0  0  0
 17  9  1  0  0  0  0
 18  9  1  0  0  0  0
 22 11  1  0  0  0  0
 25 12  1  0  0  0  0
 27 14  1  0  0  0  0
 28 38  1  0  0  0  0
 29 39  1  6  0  0  0
 29 35  1  0  0  0  0
 29 28  1  0  0  0  0
 29 30  1  0  0  0  0
 30 40  1  0  0  0  0
 31 30  1  0  0  0  0
 31 42  1  0  0  0  0
 31 43  1  0  0  0  0
 32 33  1  0  0  0  0
 32 31  1  0  0  0  0
 33 34  1  0  0  0  0
 33 47  1  0  0  0  0
 34 48  1  0  0  0  0
 35 37  1  0  0  0  0
 36 35  2  0  0  0  0
 41 30  1  0  0  0  0
 44 32  1  0  0  0  0
 45 32  1  0  0  0  0
 46 33  1  0  0  0  0
 49 34  1  0  0  0  0
M  END
$$$$
