GLN.pdb
 OpenBabel07022418233D

 42 41  0  0  1  0  0  0  0  0999 V2000
   -4.2840   -1.9600   -0.7780 N   0  0  0  0  0  0  0  0  0  0  0  0
   -3.3310   -0.9080   -0.5970 C   0  0  0  0  0  0  0  0  0  0  0  0
   -1.9970   -1.5130   -0.3800 C   0  0  0  0  0  0  0  0  0  0  0  0
   -1.9040   -2.7650   -0.3790 O   0  0  0  0  0  0  0  0  0  0  0  0
   -3.9170   -2.9090   -0.6790 H   0  0  0  0  0  0  0  0  0  0  0  0
   -5.2330   -1.7890   -0.4360 H   0  0  0  0  0  0  0  0  0  0  0  0
   -3.5990   -0.2110    0.2240 H   0  0  0  0  0  0  0  0  0  0  0  0
   -3.2760   -0.3180   -1.5330 H   0  0  0  0  0  0  0  0  0  0  0  0
    3.6630   -1.6060   -2.0830 C   0  0  0  0  0  0  0  0  0  0  0  0
    2.7270   -1.8770   -0.9040 C   0  0  0  0  0  0  0  0  0  0  0  0
    2.5260   -3.3690   -0.7400 C   0  0  0  0  0  0  0  0  0  0  0  0
    1.4110   -1.1750   -1.1010 C   0  0  0  0  0  0  0  0  0  0  0  0
    0.4930   -1.4510    0.0410 C   0  0  2  0  0  0  0  0  0  0  0  0
   -0.8050   -0.7730   -0.1710 N   0  0  0  0  0  0  0  0  0  0  0  0
    1.0080   -1.0030    1.3590 C   0  0  0  0  0  0  0  0  0  0  0  0
    2.0810   -1.4470    1.8420 O   0  0  0  0  0  0  0  0  0  0  0  0
    4.5910   -1.1020   -1.7790 H   0  0  0  0  0  0  0  0  0  0  0  0
    3.9380   -2.5420   -2.6050 H   0  0  0  0  0  0  0  0  0  0  0  0
    3.1630   -0.9040   -2.7990 H   0  0  0  0  0  0  0  0  0  0  0  0
    3.3010   -1.5300   -0.0180 H   0  0  0  0  0  0  0  0  0  0  0  0
    2.1800   -3.6630    0.2610 H   0  0  0  0  0  0  0  0  0  0  0  0
    1.7890   -3.7360   -1.4840 H   0  0  0  0  0  0  0  0  0  0  0  0
    3.4850   -3.9130   -0.9210 H   0  0  0  0  0  0  0  0  0  0  0  0
    0.9650   -1.5490   -2.0430 H   0  0  0  0  0  0  0  0  0  0  0  0
    1.5840   -0.0890   -1.2730 H   0  0  0  0  0  0  0  0  0  0  0  0
    0.3250   -2.5490    0.0660 H   0  0  0  0  0  0  0  0  0  0  0  0
   -0.8530    0.2500   -0.1720 H   0  0  0  0  0  0  0  0  0  0  0  0
    0.2510    3.5440    1.8930 N   0  0  0  0  0  0  0  0  0  0  0  0
    0.2010    2.6700    3.0260 C   0  0  0  0  0  0  0  0  0  0  0  0
   -0.8750    2.6740    3.7190 O   0  0  0  0  0  0  0  0  0  0  0  0
    1.3520    1.8080    3.3590 C   0  0  0  0  0  0  0  0  0  0  0  0
    0.8650    0.3630    3.4260 C   0  0  2  0  0  0  0  0  0  0  0  0
    0.3110   -0.0410    2.1500 N   0  0  0  0  0  0  0  0  0  0  0  0
   -0.1300    0.1920    4.4910 C   0  0  0  0  0  0  0  0  0  0  0  0
   -1.3000   -0.2530    4.2430 O   0  0  0  0  0  0  0  0  0  0  0  0
    0.2180    0.5240    5.8000 O   0  0  0  0  0  0  0  0  0  0  0  0
    1.1590    3.6800    1.3780 H   0  0  0  0  0  0  0  0  0  0  0  0
   -0.6160    4.0500    1.5740 H   0  0  0  0  0  0  0  0  0  0  0  0
    1.7070    2.0920    4.3750 H   0  0  0  0  0  0  0  0  0  0  0  0
    2.1370    1.9270    2.6020 H   0  0  0  0  0  0  0  0  0  0  0  0
    1.7590   -0.2600    3.6240 H   0  0  0  0  0  0  0  0  0  0  0  0
   -0.5850    0.3710    1.8230 H   0  0  0  0  0  0  0  0  0  0  0  0
  1  5  1  0  0  0  0
  1  2  1  0  0  0  0
  1  6  1  0  0  0  0
  2  3  1  0  0  0  0
  2  7  1  0  0  0  0
  3  4  2  0  0  0  0
  3 14  1  0  0  0  0
  8  2  1  0  0  0  0
  9 17  1  0  0  0  0
  9 10  1  0  0  0  0
 10 11  1  0  0  0  0
 10 20  1  0  0  0  0
 11 21  1  0  0  0  0
 12 10  1  0  0  0  0
 12 13  1  0  0  0  0
 13 26  1  1  0  0  0
 13 15  1  0  0  0  0
 14 13  1  0  0  0  0
 15 16  2  0  0  0  0
 15 33  1  0  0  0  0
 18  9  1  0  0  0  0
 19  9  1  0  0  0  0
 22 11  1  0  0  0  0
 23 11  1  0  0  0  0
 24 12  1  0  0  0  0
 25 12  1  0  0  0  0
 27 14  1  0  0  0  0
 28 29  1  0  0  0  0
 29 31  1  0  0  0  0
 29 30  2  0  0  0  0
 31 32  1  0  0  0  0
 31 39  1  0  0  0  0
 32 41  1  1  0  0  0
 32 34  1  0  0  0  0
 33 32  1  0  0  0  0
 34 36  1  0  0  0  0
 35 34  2  0  0  0  0
 37 28  1  0  0  0  0
 38 28  1  0  0  0  0
 40 31  1  0  0  0  0
 42 33  1  0  0  0  0
M  END
$$$$
