GLT.pdb
 OpenBabel07022418233D

 42 41  0  0  1  0  0  0  0  0999 V2000
   -3.4230   -2.5860    2.2240 N   0  0  0  0  0  0  0  0  0  0  0  0
   -3.7760   -1.6350    1.2080 C   0  0  0  0  0  0  0  0  0  0  0  0
   -2.6030   -0.7970    0.8040 C   0  0  0  0  0  0  0  0  0  0  0  0
   -2.7470    0.0870   -0.0790 O   0  0  0  0  0  0  0  0  0  0  0  0
   -2.9270   -3.4060    1.8240 H   0  0  0  0  0  0  0  0  0  0  0  0
   -4.2100   -2.8330    2.8580 H   0  0  0  0  0  0  0  0  0  0  0  0
   -4.6460   -1.0150    1.4970 H   0  0  0  0  0  0  0  0  0  0  0  0
   -4.1000   -2.2140    0.3030 H   0  0  0  0  0  0  0  0  0  0  0  0
   -0.9480    2.5320    2.0240 C   0  0  0  0  0  0  0  0  0  0  0  0
   -0.4670    1.4360    2.9410 C   0  0  0  0  0  0  0  0  0  0  0  0
   -1.6200    0.8320    3.6680 C   0  0  0  0  0  0  0  0  0  0  0  0
    0.4300    0.4530    2.2520 C   0  0  0  0  0  0  0  0  0  0  0  0
   -0.1840   -0.2630    1.0990 C   0  0  2  0  0  0  0  0  0  0  0  0
   -1.3550   -1.0410    1.4480 N   0  0  0  0  0  0  0  0  0  0  0  0
    0.8710   -1.1580    0.5240 C   0  0  0  0  0  0  0  0  0  0  0  0
    0.6290   -2.3870    0.4240 O   0  0  0  0  0  0  0  0  0  0  0  0
   -0.8840    3.5320    2.5020 H   0  0  0  0  0  0  0  0  0  0  0  0
   -0.3960    2.5710    1.0770 H   0  0  0  0  0  0  0  0  0  0  0  0
   -2.0430    2.3590    1.8360 H   0  0  0  0  0  0  0  0  0  0  0  0
    0.1830    1.9520    3.7080 H   0  0  0  0  0  0  0  0  0  0  0  0
   -1.4620   -0.2170    3.9810 H   0  0  0  0  0  0  0  0  0  0  0  0
   -1.7890    1.4010    4.6230 H   0  0  0  0  0  0  0  0  0  0  0  0
   -2.5610    0.9800    3.0910 H   0  0  0  0  0  0  0  0  0  0  0  0
    0.8180   -0.2550    3.0160 H   0  0  0  0  0  0  0  0  0  0  0  0
    1.3040    1.0180    1.8680 H   0  0  0  0  0  0  0  0  0  0  0  0
   -0.4530    0.4840    0.3130 H   0  0  0  0  0  0  0  0  0  0  0  0
   -1.2820   -1.7850    2.1750 H   0  0  0  0  0  0  0  0  0  0  0  0
    2.2640   -1.3760   -2.7960 C   0  0  0  0  0  0  0  0  0  0  0  0
    3.4780   -1.2100   -1.8750 C   0  0  1  0  0  0  0  0  0  0  0  0
    4.0030    0.0520   -2.0320 O   0  0  0  0  0  0  0  0  0  0  0  0
    3.1050   -1.5340   -0.4450 C   0  0  2  0  0  0  0  0  0  0  0  0
    2.1280   -0.6480    0.0960 N   0  0  0  0  0  0  0  0  0  0  0  0
    4.3660   -1.5680    0.3410 C   0  0  0  0  0  0  0  0  0  0  0  0
    4.5770   -0.9080    1.3670 O   0  0  0  0  0  0  0  0  0  0  0  0
    5.3700   -2.4110   -0.1250 O   0  0  0  0  0  0  0  0  0  0  0  0
    2.5650   -1.4920   -3.8410 H   0  0  0  0  0  0  0  0  0  0  0  0
    1.7570   -2.3410   -2.5120 H   0  0  0  0  0  0  0  0  0  0  0  0
    1.5450   -0.5740   -2.5990 H   0  0  0  0  0  0  0  0  0  0  0  0
    4.2400   -1.9360   -2.2260 H   0  0  0  0  0  0  0  0  0  0  0  0
    4.9520    0.1130   -1.7610 H   0  0  0  0  0  0  0  0  0  0  0  0
    2.7010   -2.5630   -0.4470 H   0  0  0  0  0  0  0  0  0  0  0  0
    2.2920    0.3920    0.1970 H   0  0  0  0  0  0  0  0  0  0  0  0
  1  6  1  0  0  0  0
  2  7  1  0  0  0  0
  2  1  1  0  0  0  0
  3  2  1  0  0  0  0
  3 14  1  0  0  0  0
  4  3  2  0  0  0  0
  5  1  1  0  0  0  0
  8  2  1  0  0  0  0
  9 17  1  0  0  0  0
  9 10  1  0  0  0  0
 10 11  1  0  0  0  0
 10 20  1  0  0  0  0
 11 21  1  0  0  0  0
 11 22  1  0  0  0  0
 12 10  1  0  0  0  0
 12 24  1  0  0  0  0
 13 26  1  6  0  0  0
 13 14  1  0  0  0  0
 13 12  1  0  0  0  0
 14 27  1  0  0  0  0
 15 13  1  0  0  0  0
 16 15  2  0  0  0  0
 18  9  1  0  0  0  0
 19  9  1  0  0  0  0
 23 11  1  0  0  0  0
 25 12  1  0  0  0  0
 28 38  1  0  0  0  0
 28 37  1  0  0  0  0
 28 29  1  0  0  0  0
 29 39  1  6  0  0  0
 29 31  1  0  0  0  0
 30 29  1  0  0  0  0
 30 40  1  0  0  0  0
 31 41  1  1  0  0  0
 31 32  1  0  0  0  0
 31 33  1  0  0  0  0
 32 42  1  0  0  0  0
 32 15  1  0  0  0  0
 33 34  1  0  0  0  0
 35 33  2  0  0  0  0
 36 28  1  0  0  0  0
M  END
$$$$
