GLY.pdb
 OpenBabel07022418233D

 49 49  0  0  1  0  0  0  0  0999 V2000
    0.8270   -2.6020    4.2100 N   0  0  0  0  0  0  0  0  0  0  0  0
    0.0380   -1.6630    4.9470 C   0  0  0  0  0  0  0  0  0  0  0  0
   -0.2880   -0.4430    4.1780 C   0  0  0  0  0  0  0  0  0  0  0  0
   -0.9790    0.4460    4.7380 O   0  0  0  0  0  0  0  0  0  0  0  0
    0.3270   -2.8940    3.3520 H   0  0  0  0  0  0  0  0  0  0  0  0
    1.7670   -2.1890    4.0410 H   0  0  0  0  0  0  0  0  0  0  0  0
    0.5170   -1.3600    5.8880 H   0  0  0  0  0  0  0  0  0  0  0  0
   -0.9180   -2.1710    5.2350 H   0  0  0  0  0  0  0  0  0  0  0  0
    1.7460    0.7940   -0.3120 C   0  0  0  0  0  0  0  0  0  0  0  0
    2.1420    1.2170    1.0670 C   0  0  0  0  0  0  0  0  0  0  0  0
    3.1710    2.3490    0.8770 C   0  0  0  0  0  0  0  0  0  0  0  0
    1.0160    1.8010    1.8210 C   0  0  0  0  0  0  0  0  0  0  0  0
   -0.1830    0.9830    2.0800 C   0  0  2  0  0  0  0  0  0  0  0  0
    0.1300   -0.2080    2.8430 N   0  0  0  0  0  0  0  0  0  0  0  0
   -1.0960    0.7300    0.9640 C   0  0  0  0  0  0  0  0  0  0  0  0
   -1.4370    1.6400    0.1650 O   0  0  0  0  0  0  0  0  0  0  0  0
    1.6180    1.7350   -0.9160 H   0  0  0  0  0  0  0  0  0  0  0  0
    2.5740    0.2470   -0.8120 H   0  0  0  0  0  0  0  0  0  0  0  0
    0.8440    0.2040   -0.4060 H   0  0  0  0  0  0  0  0  0  0  0  0
    2.7110    0.4360    1.6150 H   0  0  0  0  0  0  0  0  0  0  0  0
    3.7170    2.4410    1.8360 H   0  0  0  0  0  0  0  0  0  0  0  0
    2.6510    3.2950    0.6230 H   0  0  0  0  0  0  0  0  0  0  0  0
    3.9090    2.0580    0.1000 H   0  0  0  0  0  0  0  0  0  0  0  0
    1.4220    2.1060    2.8340 H   0  0  0  0  0  0  0  0  0  0  0  0
    0.7710    2.7900    1.3400 H   0  0  0  0  0  0  0  0  0  0  0  0
   -0.8040    1.6050    2.8120 H   0  0  0  0  0  0  0  0  0  0  0  0
    0.7080   -0.9750    2.4030 H   0  0  0  0  0  0  0  0  0  0  0  0
    2.9430   -2.1060   -3.4810 O   0  0  0  0  0  0  0  0  0  0  0  0
    1.6970   -2.1130   -2.8780 C   0  0  0  0  0  0  0  0  0  0  0  0
    1.5660   -2.5590   -1.5790 C   0  0  0  0  0  0  0  0  0  0  0  0
    0.3340   -2.5660   -0.9820 C   0  0  0  0  0  0  0  0  0  0  0  0
   -0.7970   -2.1400   -1.6350 C   0  0  0  0  0  0  0  0  0  0  0  0
   -2.1310   -2.1320   -1.0320 C   0  0  0  0  0  0  0  0  0  0  0  0
   -2.5400   -0.8890   -0.3350 C   0  0  2  0  0  0  0  0  0  0  0  0
   -1.6260   -0.5840    0.7620 N   0  0  0  0  0  0  0  0  0  0  0  0
   -3.9150   -1.1550    0.2360 C   0  0  0  0  0  0  0  0  0  0  0  0
   -4.8550   -1.4380   -0.5380 O   0  0  0  0  0  0  0  0  0  0  0  0
   -0.6290   -1.6970   -2.9440 C   0  0  0  0  0  0  0  0  0  0  0  0
    0.5940   -1.6740   -3.5800 C   0  0  0  0  0  0  0  0  0  0  0  0
   -4.1650   -1.0950    1.5920 O   0  0  0  0  0  0  0  0  0  0  0  0
    3.7350   -2.5390   -3.0240 H   0  0  0  0  0  0  0  0  0  0  0  0
    2.4810   -2.8960   -1.0710 H   0  0  0  0  0  0  0  0  0  0  0  0
    0.2460   -2.9140    0.0260 H   0  0  0  0  0  0  0  0  0  0  0  0
   -2.8910   -2.3120   -1.8450 H   0  0  0  0  0  0  0  0  0  0  0  0
   -2.2360   -3.0370   -0.3790 H   0  0  0  0  0  0  0  0  0  0  0  0
   -2.5870    0.0190   -0.9600 H   0  0  0  0  0  0  0  0  0  0  0  0
   -1.3260   -1.3140    1.4380 H   0  0  0  0  0  0  0  0  0  0  0  0
   -1.4900   -1.3470   -3.5140 H   0  0  0  0  0  0  0  0  0  0  0  0
    0.6750   -1.3160   -4.6140 H   0  0  0  0  0  0  0  0  0  0  0  0
  1  2  1  0  0  0  0
  2  8  1  0  0  0  0
  2  7  1  0  0  0  0
  3  4  2  0  0  0  0
  3  2  1  0  0  0  0
  5  1  1  0  0  0  0
  6  1  1  0  0  0  0
  9 10  1  0  0  0  0
 10 20  1  0  0  0  0
 10 12  1  0  0  0  0
 11 10  1  0  0  0  0
 11 21  1  0  0  0  0
 12 13  1  0  0  0  0
 12 24  1  0  0  0  0
 13 26  1  1  0  0  0
 13 14  1  0  0  0  0
 14  3  1  0  0  0  0
 15 13  1  0  0  0  0
 16 15  2  0  0  0  0
 17  9  1  0  0  0  0
 18  9  1  0  0  0  0
 19  9  1  0  0  0  0
 22 11  1  0  0  0  0
 23 11  1  0  0  0  0
 25 12  1  0  0  0  0
 27 14  1  0  0  0  0
 28 41  1  0  0  0  0
 28 29  1  0  0  0  0
 29 30  1  0  0  0  0
 30 42  1  0  0  0  0
 30 31  2  0  0  0  0
 31 43  1  0  0  0  0
 32 33  1  0  0  0  0
 32 31  1  0  0  0  0
 33 45  1  0  0  0  0
 33 34  1  0  0  0  0
 34 46  1  6  0  0  0
 34 36  1  0  0  0  0
 34 35  1  0  0  0  0
 35 15  1  0  0  0  0
 35 47  1  0  0  0  0
 36 40  1  0  0  0  0
 37 36  2  0  0  0  0
 38 32  2  0  0  0  0
 39 38  1  0  0  0  0
 39 29  2  0  0  0  0
 44 33  1  0  0  0  0
 48 38  1  0  0  0  0
 49 39  1  0  0  0  0
M  END
$$$$
