GMA.pdb
 OpenBabel07022418243D

 36 35  0  0  1  0  0  0  0  0999 V2000
   -2.1440   -4.4200   -0.2560 N   0  0  0  0  0  0  0  0  0  0  0  0
   -2.8830   -3.7590    0.7780 C   0  0  0  0  0  0  0  0  0  0  0  0
   -2.2480   -2.5200    1.2490 C   0  0  0  0  0  0  0  0  0  0  0  0
   -2.8150   -1.8680    2.1530 O   0  0  0  0  0  0  0  0  0  0  0  0
   -2.4000   -5.4510   -0.2450 H   0  0  0  0  0  0  0  0  0  0  0  0
   -2.3650   -4.0660   -1.1940 H   0  0  0  0  0  0  0  0  0  0  0  0
   -3.8810   -3.4590    0.3420 H   0  0  0  0  0  0  0  0  0  0  0  0
   -3.1410   -4.4460    1.6140 H   0  0  0  0  0  0  0  0  0  0  0  0
    3.5990   -2.9940    2.5630 C   0  0  0  0  0  0  0  0  0  0  0  0
    3.5650   -1.6920    1.3010 S   0  0  0  0  0  0  0  0  0  0  0  0
    1.8980   -1.5010    0.6130 C   0  0  0  0  0  0  0  0  0  0  0  0
    0.9900   -0.9830    1.7070 C   0  0  0  0  0  0  0  0  0  0  0  0
   -0.4250   -0.7920    1.2240 C   0  0  2  0  0  0  0  0  0  0  0  0
   -1.0220   -2.0000    0.7480 N   0  0  0  0  0  0  0  0  0  0  0  0
   -0.3720    0.2050    0.0990 C   0  0  0  0  0  0  0  0  0  0  0  0
   -0.8150   -0.0830   -1.0450 O   0  0  0  0  0  0  0  0  0  0  0  0
    4.0350   -2.5250    3.4880 H   0  0  0  0  0  0  0  0  0  0  0  0
    4.2790   -3.7950    2.2550 H   0  0  0  0  0  0  0  0  0  0  0  0
    2.5640   -3.3620    2.7970 H   0  0  0  0  0  0  0  0  0  0  0  0
    1.5220   -2.4140    0.1410 H   0  0  0  0  0  0  0  0  0  0  0  0
    1.9970   -0.7390   -0.2170 H   0  0  0  0  0  0  0  0  0  0  0  0
    1.4130   -0.0430    2.0960 H   0  0  0  0  0  0  0  0  0  0  0  0
    0.9650   -1.7710    2.4930 H   0  0  0  0  0  0  0  0  0  0  0  0
   -1.0060   -0.3060    2.0260 H   0  0  0  0  0  0  0  0  0  0  0  0
   -0.5630   -2.5580   -0.0060 H   0  0  0  0  0  0  0  0  0  0  0  0
   -0.4030    3.7970   -0.3440 C   0  0  0  0  0  0  0  0  0  0  0  0
    0.2550    2.5020   -0.7490 C   0  0  2  0  0  0  0  0  0  0  0  0
    0.1750    1.4970    0.2900 N   0  0  0  0  0  0  0  0  0  0  0  0
    1.6930    2.7970   -0.9890 C   0  0  0  0  0  0  0  0  0  0  0  0
    2.0330    3.6500   -1.8570 O   0  0  0  0  0  0  0  0  0  0  0  0
    2.7250    2.1770   -0.3000 O   0  0  0  0  0  0  0  0  0  0  0  0
   -1.4650    3.8500   -0.6500 H   0  0  0  0  0  0  0  0  0  0  0  0
    0.1160    4.6130   -0.8910 H   0  0  0  0  0  0  0  0  0  0  0  0
   -0.2360    3.9460    0.7230 H   0  0  0  0  0  0  0  0  0  0  0  0
   -0.1630    2.1420   -1.7110 H   0  0  0  0  0  0  0  0  0  0  0  0
    0.5450    1.7490    1.2320 H   0  0  0  0  0  0  0  0  0  0  0  0
  1  5  1  0  0  0  0
  1  2  1  0  0  0  0
  2  3  1  0  0  0  0
  2  8  1  0  0  0  0
  3  4  2  0  0  0  0
  6  1  1  0  0  0  0
  7  2  1  0  0  0  0
  9 19  1  0  0  0  0
  9 17  1  0  0  0  0
 10  9  1  0  0  0  0
 11 10  1  0  0  0  0
 11 12  1  0  0  0  0
 12 22  1  0  0  0  0
 12 23  1  0  0  0  0
 13 12  1  0  0  0  0
 13 24  1  1  0  0  0
 14 13  1  0  0  0  0
 14  3  1  0  0  0  0
 15 28  1  0  0  0  0
 15 13  1  0  0  0  0
 16 15  2  0  0  0  0
 18  9  1  0  0  0  0
 20 11  1  0  0  0  0
 21 11  1  0  0  0  0
 25 14  1  0  0  0  0
 26 34  1  0  0  0  0
 27 35  1  6  0  0  0
 27 26  1  0  0  0  0
 27 28  1  0  0  0  0
 28 36  1  0  0  0  0
 29 27  1  0  0  0  0
 29 31  1  0  0  0  0
 30 29  2  0  0  0  0
 32 26  1  0  0  0  0
 33 26  1  0  0  0  0
M  END
$$$$
