GME.pdb
 OpenBabel07022418243D

 42 41  0  0  1  0  0  0  0  0999 V2000
    3.5740   -3.3900   -0.6980 N   0  0  0  0  0  0  0  0  0  0  0  0
    3.3510   -2.5730   -1.8470 C   0  0  0  0  0  0  0  0  0  0  0  0
    2.1700   -1.6920   -1.7380 C   0  0  0  0  0  0  0  0  0  0  0  0
    1.8570   -0.9250   -2.6790 O   0  0  0  0  0  0  0  0  0  0  0  0
    4.6240   -3.4440   -0.5440 H   0  0  0  0  0  0  0  0  0  0  0  0
    3.3050   -4.3900   -0.9380 H   0  0  0  0  0  0  0  0  0  0  0  0
    3.2820   -3.2210   -2.7660 H   0  0  0  0  0  0  0  0  0  0  0  0
    4.2530   -1.9310   -2.0460 H   0  0  0  0  0  0  0  0  0  0  0  0
    0.2850   -4.5320    0.7850 C   0  0  0  0  0  0  0  0  0  0  0  0
   -1.0930   -4.0800   -0.1980 S   0  0  0  0  0  0  0  0  0  0  0  0
   -1.7980   -2.4970   -0.1200 C   0  0  0  0  0  0  0  0  0  0  0  0
   -1.1170   -1.3700   -0.7670 C   0  0  0  0  0  0  0  0  0  0  0  0
    0.2120   -0.8660   -0.4050 C   0  0  2  0  0  0  0  0  0  0  0  0
    1.3610   -1.7110   -0.5320 N   0  0  0  0  0  0  0  0  0  0  0  0
    0.2670   -0.2740    0.9720 C   0  0  0  0  0  0  0  0  0  0  0  0
    1.1910   -0.5300    1.7870 O   0  0  0  0  0  0  0  0  0  0  0  0
    0.1940   -5.5360    1.2840 H   0  0  0  0  0  0  0  0  0  0  0  0
    1.1920   -4.6410    0.1480 H   0  0  0  0  0  0  0  0  0  0  0  0
    0.5530   -3.8120    1.5960 H   0  0  0  0  0  0  0  0  0  0  0  0
   -2.0210   -2.1560    0.9590 H   0  0  0  0  0  0  0  0  0  0  0  0
   -2.8700   -2.4870   -0.5330 H   0  0  0  0  0  0  0  0  0  0  0  0
   -1.0840   -1.5280   -1.9140 H   0  0  0  0  0  0  0  0  0  0  0  0
   -1.8090   -0.4310   -0.7190 H   0  0  0  0  0  0  0  0  0  0  0  0
    0.4020   -0.0160   -1.1590 H   0  0  0  0  0  0  0  0  0  0  0  0
    1.7380   -2.3500    0.1910 H   0  0  0  0  0  0  0  0  0  0  0  0
   -0.7430    0.6240    1.4350 N   0  0  0  0  0  0  0  0  0  0  0  0
   -0.6890    1.2020    2.7800 C   0  0  1  0  0  0  0  0  0  0  0  0
   -0.8490    2.6810    2.6360 C   0  0  0  0  0  0  0  0  0  0  0  0
    0.2320    3.2610    1.7930 C   0  0  0  0  0  0  0  0  0  0  0  0
    1.5960    3.0770    2.2930 C   0  0  0  0  0  0  0  0  0  0  0  0
    1.8170    2.4840    3.3760 O   0  0  0  0  0  0  0  0  0  0  0  0
   -1.8980    0.6630    3.5020 C   0  0  0  0  0  0  0  0  0  0  0  0
   -2.7040   -0.1210    2.9420 O   0  0  0  0  0  0  0  0  0  0  0  0
    2.7050    3.5440    1.6050 O   0  0  0  0  0  0  0  0  0  0  0  0
   -2.1690    1.0070    4.8090 O   0  0  0  0  0  0  0  0  0  0  0  0
   -1.5330    0.8810    0.8240 H   0  0  0  0  0  0  0  0  0  0  0  0
    0.1780    0.8600    3.3400 H   0  0  0  0  0  0  0  0  0  0  0  0
   -1.8160    2.8600    2.1220 H   0  0  0  0  0  0  0  0  0  0  0  0
   -0.8530    3.1450    3.6460 H   0  0  0  0  0  0  0  0  0  0  0  0
    0.1930    2.7820    0.7750 H   0  0  0  0  0  0  0  0  0  0  0  0
    0.0070    4.3470    1.5740 H   0  0  0  0  0  0  0  0  0  0  0  0
    3.5610    3.7980    2.0780 H   0  0  0  0  0  0  0  0  0  0  0  0
  1  5  1  0  0  0  0
  2  3  1  0  0  0  0
  2  1  1  0  0  0  0
  3 14  1  0  0  0  0
  4  3  2  0  0  0  0
  6  1  1  0  0  0  0
  7  2  1  0  0  0  0
  8  2  1  0  0  0  0
  9 17  1  0  0  0  0
  9 19  1  0  0  0  0
 10 11  1  0  0  0  0
 10  9  1  0  0  0  0
 11 20  1  0  0  0  0
 12 23  1  0  0  0  0
 12 13  1  0  0  0  0
 12 11  1  0  0  0  0
 13 24  1  6  0  0  0
 13 15  1  0  0  0  0
 14 13  1  0  0  0  0
 14 25  1  0  0  0  0
 15 26  1  0  0  0  0
 15 16  2  0  0  0  0
 18  9  1  0  0  0  0
 21 11  1  0  0  0  0
 22 12  1  0  0  0  0
 26 27  1  0  0  0  0
 27 37  1  1  0  0  0
 27 32  1  0  0  0  0
 28 27  1  0  0  0  0
 28 39  1  0  0  0  0
 29 30  1  0  0  0  0
 29 28  1  0  0  0  0
 30 31  2  0  0  0  0
 32 35  1  0  0  0  0
 33 32  2  0  0  0  0
 34 42  1  0  0  0  0
 34 30  1  0  0  0  0
 36 26  1  0  0  0  0
 38 28  1  0  0  0  0
 40 29  1  0  0  0  0
 41 29  1  0  0  0  0
M  END
$$$$
