GMF.pdb
 OpenBabel07022418243D

 46 46  0  0  1  0  0  0  0  0999 V2000
    4.3770   -3.7900   -0.1830 N   0  0  0  0  0  0  0  0  0  0  0  0
    4.6230   -2.5670   -0.9180 C   0  0  0  0  0  0  0  0  0  0  0  0
    3.4630   -1.6800   -0.8210 C   0  0  0  0  0  0  0  0  0  0  0  0
    3.3880   -0.5450   -1.3610 O   0  0  0  0  0  0  0  0  0  0  0  0
    4.2620   -3.6290    0.8310 H   0  0  0  0  0  0  0  0  0  0  0  0
    3.6000   -4.3600   -0.5500 H   0  0  0  0  0  0  0  0  0  0  0  0
    4.9190   -2.8220   -1.9550 H   0  0  0  0  0  0  0  0  0  0  0  0
    5.5020   -2.0800   -0.4050 H   0  0  0  0  0  0  0  0  0  0  0  0
   -1.5640   -4.8390   -1.7110 C   0  0  0  0  0  0  0  0  0  0  0  0
   -1.3670   -3.2410   -2.5370 S   0  0  0  0  0  0  0  0  0  0  0  0
    0.1030   -2.3610   -1.9370 C   0  0  0  0  0  0  0  0  0  0  0  0
   -0.0480   -1.9620   -0.4870 C   0  0  0  0  0  0  0  0  0  0  0  0
    1.1570   -1.2320    0.0360 C   0  0  2  0  0  0  0  0  0  0  0  0
    2.3250   -2.0930   -0.0770 N   0  0  0  0  0  0  0  0  0  0  0  0
    1.0420   -0.8370    1.4510 C   0  0  0  0  0  0  0  0  0  0  0  0
    1.8810   -1.2460    2.3140 O   0  0  0  0  0  0  0  0  0  0  0  0
   -0.6180   -5.4150   -1.6820 H   0  0  0  0  0  0  0  0  0  0  0  0
   -1.9900   -4.6450   -0.7080 H   0  0  0  0  0  0  0  0  0  0  0  0
   -2.2850   -5.4580   -2.2830 H   0  0  0  0  0  0  0  0  0  0  0  0
    0.2470   -1.4910   -2.6010 H   0  0  0  0  0  0  0  0  0  0  0  0
    0.9490   -3.0970   -2.0350 H   0  0  0  0  0  0  0  0  0  0  0  0
   -0.9830   -1.4170   -0.3930 H   0  0  0  0  0  0  0  0  0  0  0  0
   -0.1450   -2.8970    0.1090 H   0  0  0  0  0  0  0  0  0  0  0  0
    1.3540   -0.2940   -0.5380 H   0  0  0  0  0  0  0  0  0  0  0  0
    2.3630   -3.0410    0.3860 H   0  0  0  0  0  0  0  0  0  0  0  0
   -0.0200    0.0120    1.8610 N   0  0  0  0  0  0  0  0  0  0  0  0
   -0.2010    0.4450    3.2370 C   0  0  1  0  0  0  0  0  0  0  0  0
   -0.0780    1.9370    3.2880 C   0  0  0  0  0  0  0  0  0  0  0  0
   -1.0480    2.6620    2.4760 C   0  0  0  0  0  0  0  0  0  0  0  0
   -0.8460    3.0170    1.1540 C   0  0  0  0  0  0  0  0  0  0  0  0
   -1.8070    3.7010    0.4530 C   0  0  0  0  0  0  0  0  0  0  0  0
   -3.0140    4.0670    1.0230 C   0  0  0  0  0  0  0  0  0  0  0  0
   -3.2190    3.7120    2.3470 C   0  0  0  0  0  0  0  0  0  0  0  0
   -2.2500    3.0280    3.0390 C   0  0  0  0  0  0  0  0  0  0  0  0
   -1.4920    0.0040    3.7960 C   0  0  0  0  0  0  0  0  0  0  0  0
   -2.3460   -0.6610    3.1670 O   0  0  0  0  0  0  0  0  0  0  0  0
   -1.7980    0.3400    5.1070 O   0  0  0  0  0  0  0  0  0  0  0  0
   -0.6680    0.3070    1.1010 H   0  0  0  0  0  0  0  0  0  0  0  0
    0.6120   -0.0020    3.8200 H   0  0  0  0  0  0  0  0  0  0  0  0
    0.9520    2.2030    2.9240 H   0  0  0  0  0  0  0  0  0  0  0  0
   -0.1690    2.2630    4.3450 H   0  0  0  0  0  0  0  0  0  0  0  0
    0.1020    2.7220    0.7270 H   0  0  0  0  0  0  0  0  0  0  0  0
   -1.6450    3.9790   -0.5880 H   0  0  0  0  0  0  0  0  0  0  0  0
   -3.7560    4.6020    0.4620 H   0  0  0  0  0  0  0  0  0  0  0  0
   -4.1670    4.0070    2.7730 H   0  0  0  0  0  0  0  0  0  0  0  0
   -2.4970    2.7890    4.0800 H   0  0  0  0  0  0  0  0  0  0  0  0
  1  5  1  0  0  0  0
  2  3  1  0  0  0  0
  2  8  1  0  0  0  0
  2  1  1  0  0  0  0
  3 14  1  0  0  0  0
  4  3  2  0  0  0  0
  6  1  1  0  0  0  0
  7  2  1  0  0  0  0
  9 17  1  0  0  0  0
  9 18  1  0  0  0  0
 10 11  1  0  0  0  0
 10  9  1  0  0  0  0
 11 12  1  0  0  0  0
 12 22  1  0  0  0  0
 12 13  1  0  0  0  0
 12 23  1  0  0  0  0
 13 24  1  6  0  0  0
 13 15  1  0  0  0  0
 14 13  1  0  0  0  0
 14 25  1  0  0  0  0
 15 26  1  0  0  0  0
 15 16  2  0  0  0  0
 19  9  1  0  0  0  0
 20 11  1  0  0  0  0
 21 11  1  0  0  0  0
 26 27  1  0  0  0  0
 27 28  1  0  0  0  0
 27 35  1  0  0  0  0
 27 39  1  1  0  0  0
 28 41  1  0  0  0  0
 29 34  1  0  0  0  0
 29 28  1  0  0  0  0
 30 29  2  0  0  0  0
 31 32  2  0  0  0  0
 31 30  1  0  0  0  0
 32 33  1  0  0  0  0
 33 45  1  0  0  0  0
 33 34  2  0  0  0  0
 34 46  1  0  0  0  0
 35 37  1  0  0  0  0
 36 35  2  0  0  0  0
 38 26  1  0  0  0  0
 40 28  1  0  0  0  0
 42 30  1  0  0  0  0
 43 31  1  0  0  0  0
 44 32  1  0  0  0  0
M  END
$$$$
