GMG.pdb
 OpenBabel07022418243D

 33 32  0  0  1  0  0  0  0  0999 V2000
   -3.4280   -3.4290   -0.7010 N   0  0  0  0  0  0  0  0  0  0  0  0
   -2.3270   -2.6440   -1.2310 C   0  0  0  0  0  0  0  0  0  0  0  0
   -1.6380   -1.9760   -0.0960 C   0  0  0  0  0  0  0  0  0  0  0  0
   -2.0270   -2.1320    1.0930 O   0  0  0  0  0  0  0  0  0  0  0  0
   -3.2410   -4.4590   -0.7550 H   0  0  0  0  0  0  0  0  0  0  0  0
   -3.6760   -3.1430    0.2750 H   0  0  0  0  0  0  0  0  0  0  0  0
   -1.6720   -3.2880   -1.8260 H   0  0  0  0  0  0  0  0  0  0  0  0
   -2.7800   -1.9020   -1.9330 H   0  0  0  0  0  0  0  0  0  0  0  0
    4.1410   -2.1290    2.8760 C   0  0  0  0  0  0  0  0  0  0  0  0
    3.4780   -2.8620    1.3670 S   0  0  0  0  0  0  0  0  0  0  0  0
    1.7390   -2.3830    1.1960 C   0  0  0  0  0  0  0  0  0  0  0  0
    1.6030   -0.8880    0.9610 C   0  0  0  0  0  0  0  0  0  0  0  0
    0.1640   -0.4760    0.8200 C   0  0  2  0  0  0  0  0  0  0  0  0
   -0.5060   -1.1280   -0.2890 N   0  0  0  0  0  0  0  0  0  0  0  0
    0.0720    0.9930    0.6160 C   0  0  0  0  0  0  0  0  0  0  0  0
    0.5790    1.7880    1.4410 O   0  0  0  0  0  0  0  0  0  0  0  0
    5.1370   -2.6000    3.1110 H   0  0  0  0  0  0  0  0  0  0  0  0
    4.2720   -1.0400    2.7890 H   0  0  0  0  0  0  0  0  0  0  0  0
    3.4920   -2.3770    3.7540 H   0  0  0  0  0  0  0  0  0  0  0  0
    1.2240   -2.7050    2.1120 H   0  0  0  0  0  0  0  0  0  0  0  0
    1.3530   -2.8710    0.2710 H   0  0  0  0  0  0  0  0  0  0  0  0
    2.2520   -0.5480    0.1300 H   0  0  0  0  0  0  0  0  0  0  0  0
    1.9890   -0.3920    1.8770 H   0  0  0  0  0  0  0  0  0  0  0  0
   -0.3210   -0.7030    1.7900 H   0  0  0  0  0  0  0  0  0  0  0  0
   -0.1770   -0.9940   -1.2690 H   0  0  0  0  0  0  0  0  0  0  0  0
   -0.5870    1.5610   -0.5070 N   0  0  0  0  0  0  0  0  0  0  0  0
   -0.6610    2.9850   -0.6780 C   0  0  0  0  0  0  0  0  0  0  0  0
   -1.3610    3.6270    0.4510 C   0  0  0  0  0  0  0  0  0  0  0  0
   -1.5240    4.8590    0.4740 O   0  0  0  0  0  0  0  0  0  0  0  0
   -1.8350    2.8530    1.4870 O   0  0  0  0  0  0  0  0  0  0  0  0
   -1.0190    0.9440   -1.2120 H   0  0  0  0  0  0  0  0  0  0  0  0
    0.3420    3.4620   -0.7890 H   0  0  0  0  0  0  0  0  0  0  0  0
   -1.2190    3.2440   -1.6020 H   0  0  0  0  0  0  0  0  0  0  0  0
  1  6  1  0  0  0  0
  2  1  1  0  0  0  0
  2  3  1  0  0  0  0
  3  4  2  0  0  0  0
  5  1  1  0  0  0  0
  7  2  1  0  0  0  0
  8  2  1  0  0  0  0
  9 17  1  0  0  0  0
  9 19  1  0  0  0  0
 10  9  1  0  0  0  0
 11 10  1  0  0  0  0
 11 20  1  0  0  0  0
 12 11  1  0  0  0  0
 12 23  1  0  0  0  0
 13 12  1  0  0  0  0
 13 24  1  1  0  0  0
 14  3  1  0  0  0  0
 14 13  1  0  0  0  0
 15 13  1  0  0  0  0
 15 16  2  0  0  0  0
 18  9  1  0  0  0  0
 21 11  1  0  0  0  0
 22 12  1  0  0  0  0
 25 14  1  0  0  0  0
 26 15  1  0  0  0  0
 27 26  1  0  0  0  0
 27 28  1  0  0  0  0
 28 29  2  0  0  0  0
 28 30  1  0  0  0  0
 31 26  1  0  0  0  0
 32 27  1  0  0  0  0
 33 27  1  0  0  0  0
M  END
$$$$
