GMK.pdb
 OpenBabel07022418243D

 47 46  0  0  1  0  0  0  0  0999 V2000
   -0.3530   -4.9680   -1.7580 N   0  0  0  0  0  0  0  0  0  0  0  0
   -0.7440   -4.0660   -2.8010 C   0  0  0  0  0  0  0  0  0  0  0  0
   -0.3750   -2.6610   -2.4680 C   0  0  0  0  0  0  0  0  0  0  0  0
   -0.6670   -1.7790   -3.3050 O   0  0  0  0  0  0  0  0  0  0  0  0
    0.6710   -4.9450   -1.6330 H   0  0  0  0  0  0  0  0  0  0  0  0
   -0.8510   -4.7330   -0.8810 H   0  0  0  0  0  0  0  0  0  0  0  0
   -1.8590   -4.0960   -2.9410 H   0  0  0  0  0  0  0  0  0  0  0  0
   -0.2520   -4.3430   -3.7690 H   0  0  0  0  0  0  0  0  0  0  0  0
    3.8670   -2.1930   -0.8740 C   0  0  0  0  0  0  0  0  0  0  0  0
    3.7380   -0.7260   -1.8830 S   0  0  0  0  0  0  0  0  0  0  0  0
    2.1850   -0.4890   -2.7380 C   0  0  0  0  0  0  0  0  0  0  0  0
    1.0540   -0.0930   -1.8520 C   0  0  0  0  0  0  0  0  0  0  0  0
    0.7050   -1.0790   -0.7990 C   0  0  2  0  0  0  0  0  0  0  0  0
    0.2760   -2.3760   -1.2450 N   0  0  0  0  0  0  0  0  0  0  0  0
   -0.2140   -0.5250    0.2360 C   0  0  0  0  0  0  0  0  0  0  0  0
   -1.2050   -1.2030    0.5850 O   0  0  0  0  0  0  0  0  0  0  0  0
    4.8670   -2.7080   -1.0460 H   0  0  0  0  0  0  0  0  0  0  0  0
    3.0900   -2.9780   -1.0910 H   0  0  0  0  0  0  0  0  0  0  0  0
    3.8580   -2.0200    0.2220 H   0  0  0  0  0  0  0  0  0  0  0  0
    1.9050   -1.4730   -3.2340 H   0  0  0  0  0  0  0  0  0  0  0  0
    2.2920    0.2140   -3.6090 H   0  0  0  0  0  0  0  0  0  0  0  0
    0.2050    0.1830   -2.5180 H   0  0  0  0  0  0  0  0  0  0  0  0
    1.3260    0.8890   -1.3710 H   0  0  0  0  0  0  0  0  0  0  0  0
    1.7140   -1.2790   -0.2930 H   0  0  0  0  0  0  0  0  0  0  0  0
    0.4630   -3.2110   -0.5960 H   0  0  0  0  0  0  0  0  0  0  0  0
   -0.0230    0.7360    0.8490 N   0  0  0  0  0  0  0  0  0  0  0  0
   -0.9570    1.2470    1.8680 C   0  0  1  0  0  0  0  0  0  0  0  0
   -0.1290    1.5420    3.1020 C   0  0  0  0  0  0  0  0  0  0  0  0
   -0.9140    2.0710    4.2520 C   0  0  0  0  0  0  0  0  0  0  0  0
   -1.9940    1.1920    4.7600 C   0  0  0  0  0  0  0  0  0  0  0  0
   -1.5900   -0.1450    5.2680 C   0  0  0  0  0  0  0  0  0  0  0  0
   -0.9410   -0.9630    4.2650 N   0  0  0  0  0  0  0  0  0  0  0  0
   -1.5160    2.5160    1.3490 C   0  0  0  0  0  0  0  0  0  0  0  0
   -2.3660    3.1950    1.9990 O   0  0  0  0  0  0  0  0  0  0  0  0
   -1.1270    3.0150    0.1190 O   0  0  0  0  0  0  0  0  0  0  0  0
    0.8040    1.2950    0.5540 H   0  0  0  0  0  0  0  0  0  0  0  0
   -1.7660    0.5230    2.0490 H   0  0  0  0  0  0  0  0  0  0  0  0
    0.6080    2.3310    2.7570 H   0  0  0  0  0  0  0  0  0  0  0  0
    0.4790    0.6690    3.3180 H   0  0  0  0  0  0  0  0  0  0  0  0
   -0.1880    2.2260    5.1080 H   0  0  0  0  0  0  0  0  0  0  0  0
   -1.3350    3.0800    4.0730 H   0  0  0  0  0  0  0  0  0  0  0  0
   -2.5520    1.7160    5.5780 H   0  0  0  0  0  0  0  0  0  0  0  0
   -2.7590    1.0400    3.9600 H   0  0  0  0  0  0  0  0  0  0  0  0
   -1.0190   -0.1120    6.2180 H   0  0  0  0  0  0  0  0  0  0  0  0
   -2.5410   -0.6960    5.5290 H   0  0  0  0  0  0  0  0  0  0  0  0
   -0.3480   -1.6980    4.6920 H   0  0  0  0  0  0  0  0  0  0  0  0
   -1.6380   -1.3130    3.5910 H   0  0  0  0  0  0  0  0  0  0  0  0
  1  5  1  0  0  0  0
  1  6  1  0  0  0  0
  2  3  1  0  0  0  0
  2  1  1  0  0  0  0
  3 14  1  0  0  0  0
  4  3  2  0  0  0  0
  7  2  1  0  0  0  0
  8  2  1  0  0  0  0
  9 19  1  0  0  0  0
 10  9  1  0  0  0  0
 11 10  1  0  0  0  0
 11 12  1  0  0  0  0
 12 23  1  0  0  0  0
 12 13  1  0  0  0  0
 13 24  1  1  0  0  0
 13 15  1  0  0  0  0
 14 13  1  0  0  0  0
 14 25  1  0  0  0  0
 15 16  2  0  0  0  0
 15 26  1  0  0  0  0
 17  9  1  0  0  0  0
 18  9  1  0  0  0  0
 20 11  1  0  0  0  0
 21 11  1  0  0  0  0
 22 12  1  0  0  0  0
 26 27  1  0  0  0  0
 27 37  1  1  0  0  0
 27 28  1  0  0  0  0
 28 39  1  0  0  0  0
 28 29  1  0  0  0  0
 29 30  1  0  0  0  0
 29 40  1  0  0  0  0
 30 31  1  0  0  0  0
 30 42  1  0  0  0  0
 31 45  1  0  0  0  0
 31 44  1  0  0  0  0
 32 46  1  0  0  0  0
 32 31  1  0  0  0  0
 33 27  1  0  0  0  0
 33 34  1  0  0  0  0
 35 33  2  0  0  0  0
 36 26  1  0  0  0  0
 38 28  1  0  0  0  0
 41 29  1  0  0  0  0
 43 30  1  0  0  0  0
 47 32  1  0  0  0  0
M  END
$$$$
