GML.pdb
 OpenBabel07022418243D

 45 44  0  0  1  0  0  0  0  0999 V2000
   -1.2420   -6.2140    0.9580 N   0  0  0  0  0  0  0  0  0  0  0  0
   -0.2150   -5.2120    0.8200 C   0  0  0  0  0  0  0  0  0  0  0  0
   -0.7890   -3.8900    1.1460 C   0  0  0  0  0  0  0  0  0  0  0  0
   -2.0050   -3.8200    1.4750 O   0  0  0  0  0  0  0  0  0  0  0  0
   -1.9480   -6.0130    1.6740 H   0  0  0  0  0  0  0  0  0  0  0  0
   -0.8510   -7.1770    1.1570 H   0  0  0  0  0  0  0  0  0  0  0  0
    0.6120   -5.4880    1.5140 H   0  0  0  0  0  0  0  0  0  0  0  0
    0.1930   -5.2520   -0.2140 H   0  0  0  0  0  0  0  0  0  0  0  0
    2.9090   -2.8170    3.4350 C   0  0  0  0  0  0  0  0  0  0  0  0
    1.1380   -2.9330    3.8380 S   0  0  0  0  0  0  0  0  0  0  0  0
    0.3600   -1.3410    3.7580 C   0  0  0  0  0  0  0  0  0  0  0  0
    0.2830   -0.7110    2.4240 C   0  0  0  0  0  0  0  0  0  0  0  0
   -0.4600   -1.4600    1.3790 C   0  0  2  0  0  0  0  0  0  0  0  0
    0.0490   -2.7500    1.0750 N   0  0  0  0  0  0  0  0  0  0  0  0
   -0.4810   -0.6690    0.0880 C   0  0  0  0  0  0  0  0  0  0  0  0
   -0.0810   -1.1960   -0.9800 O   0  0  0  0  0  0  0  0  0  0  0  0
    3.4270   -2.5120    4.3870 H   0  0  0  0  0  0  0  0  0  0  0  0
    3.1200   -1.9890    2.7180 H   0  0  0  0  0  0  0  0  0  0  0  0
    3.2880   -3.7990    3.0890 H   0  0  0  0  0  0  0  0  0  0  0  0
    0.9390   -0.6370    4.4250 H   0  0  0  0  0  0  0  0  0  0  0  0
   -0.6450   -1.4040    4.2330 H   0  0  0  0  0  0  0  0  0  0  0  0
    1.3250   -0.5300    2.0280 H   0  0  0  0  0  0  0  0  0  0  0  0
   -0.1470    0.3030    2.5500 H   0  0  0  0  0  0  0  0  0  0  0  0
   -1.5480   -1.5160    1.6700 H   0  0  0  0  0  0  0  0  0  0  0  0
    1.0350   -2.8950    0.7970 H   0  0  0  0  0  0  0  0  0  0  0  0
    1.7400    4.1060   -0.7090 C   0  0  0  0  0  0  0  0  0  0  0  0
    0.4990    3.3440   -0.2180 C   0  0  0  0  0  0  0  0  0  0  0  0
    0.8390    2.7330    1.0970 C   0  0  0  0  0  0  0  0  0  0  0  0
    0.1420    2.3930   -1.3070 C   0  0  0  0  0  0  0  0  0  0  0  0
   -1.0400    1.5280   -1.0850 C   0  0  2  0  0  0  0  0  0  0  0  0
   -0.9450    0.6640    0.0540 N   0  0  0  0  0  0  0  0  0  0  0  0
   -1.4070    0.8740   -2.3650 C   0  0  0  0  0  0  0  0  0  0  0  0
   -1.3730    1.6640   -3.3780 O   0  0  0  0  0  0  0  0  0  0  0  0
   -1.7660   -0.4090   -2.5970 O   0  0  0  0  0  0  0  0  0  0  0  0
    2.6340    3.4720   -0.4440 H   0  0  0  0  0  0  0  0  0  0  0  0
    1.6980    4.2010   -1.8000 H   0  0  0  0  0  0  0  0  0  0  0  0
    1.8100    5.1020   -0.2470 H   0  0  0  0  0  0  0  0  0  0  0  0
   -0.2830    4.1240   -0.0760 H   0  0  0  0  0  0  0  0  0  0  0  0
    0.0400    2.8360    1.8590 H   0  0  0  0  0  0  0  0  0  0  0  0
    1.7740    3.2130    1.4810 H   0  0  0  0  0  0  0  0  0  0  0  0
    1.0420    1.6500    0.9370 H   0  0  0  0  0  0  0  0  0  0  0  0
    0.0190    3.0220   -2.2370 H   0  0  0  0  0  0  0  0  0  0  0  0
    1.0480    1.7830   -1.5230 H   0  0  0  0  0  0  0  0  0  0  0  0
   -1.9850    2.1620   -0.8900 H   0  0  0  0  0  0  0  0  0  0  0  0
   -1.2620    1.0270    1.0220 H   0  0  0  0  0  0  0  0  0  0  0  0
  1  6  1  0  0  0  0
  1  5  1  0  0  0  0
  2  1  1  0  0  0  0
  2  3  1  0  0  0  0
  2  7  1  0  0  0  0
  3  4  2  0  0  0  0
  8  2  1  0  0  0  0
  9 10  1  0  0  0  0
  9 17  1  0  0  0  0
 11 10  1  0  0  0  0
 11 21  1  0  0  0  0
 11 20  1  0  0  0  0
 12 23  1  0  0  0  0
 12 11  1  0  0  0  0
 13 24  1  1  0  0  0
 13 12  1  0  0  0  0
 14  3  1  0  0  0  0
 14 13  1  0  0  0  0
 15 13  1  0  0  0  0
 16 15  2  0  0  0  0
 18  9  1  0  0  0  0
 19  9  1  0  0  0  0
 22 12  1  0  0  0  0
 25 14  1  0  0  0  0
 26 35  1  0  0  0  0
 26 37  1  0  0  0  0
 26 27  1  0  0  0  0
 27 38  1  0  0  0  0
 27 28  1  0  0  0  0
 28 40  1  0  0  0  0
 28 39  1  0  0  0  0
 29 30  1  0  0  0  0
 29 27  1  0  0  0  0
 30 44  1  1  0  0  0
 30 31  1  0  0  0  0
 31 15  1  0  0  0  0
 31 45  1  0  0  0  0
 32 30  1  0  0  0  0
 33 32  2  0  0  0  0
 34 32  1  0  0  0  0
 36 26  1  0  0  0  0
 41 28  1  0  0  0  0
 42 29  1  0  0  0  0
 43 29  1  0  0  0  0
M  END
$$$$
