GMN.pdb
 OpenBabel07022418243D

 40 39  0  0  1  0  0  0  0  0999 V2000
   -1.0600   -4.9610   -2.2610 N   0  0  0  0  0  0  0  0  0  0  0  0
   -0.1600   -3.8230   -2.1980 C   0  0  0  0  0  0  0  0  0  0  0  0
   -0.3270   -3.1370   -0.8990 C   0  0  0  0  0  0  0  0  0  0  0  0
   -1.1670   -3.5740   -0.0590 O   0  0  0  0  0  0  0  0  0  0  0  0
   -0.8850   -5.6410   -1.4880 H   0  0  0  0  0  0  0  0  0  0  0  0
   -2.0660   -4.6870   -2.2190 H   0  0  0  0  0  0  0  0  0  0  0  0
    0.8690   -4.2090   -2.3650 H   0  0  0  0  0  0  0  0  0  0  0  0
   -0.4310   -3.1520   -3.0610 H   0  0  0  0  0  0  0  0  0  0  0  0
    3.2030   -2.4440    4.3230 C   0  0  0  0  0  0  0  0  0  0  0  0
    3.3940   -3.0760    2.6460 S   0  0  0  0  0  0  0  0  0  0  0  0
    1.8320   -2.9590    1.7330 C   0  0  0  0  0  0  0  0  0  0  0  0
    1.5090   -1.5000    1.5510 C   0  0  0  0  0  0  0  0  0  0  0  0
    0.2050   -1.3420    0.7820 C   0  0  2  0  0  0  0  0  0  0  0  0
    0.4060   -1.9880   -0.5080 N   0  0  0  0  0  0  0  0  0  0  0  0
   -0.0920    0.1160    0.6090 C   0  0  0  0  0  0  0  0  0  0  0  0
   -0.0950    0.5240   -0.5710 O   0  0  0  0  0  0  0  0  0  0  0  0
    2.7110   -1.4520    4.3670 H   0  0  0  0  0  0  0  0  0  0  0  0
    4.2230   -2.3330    4.7580 H   0  0  0  0  0  0  0  0  0  0  0  0
    2.6360   -3.1550    4.9580 H   0  0  0  0  0  0  0  0  0  0  0  0
    1.9740   -3.4020    0.7200 H   0  0  0  0  0  0  0  0  0  0  0  0
    1.0020   -3.4480    2.2900 H   0  0  0  0  0  0  0  0  0  0  0  0
    1.4130   -0.9570    2.4980 H   0  0  0  0  0  0  0  0  0  0  0  0
    2.2990   -1.0020    0.9480 H   0  0  0  0  0  0  0  0  0  0  0  0
   -0.5940   -1.8170    1.3800 H   0  0  0  0  0  0  0  0  0  0  0  0
    1.1090   -1.5930   -1.1600 H   0  0  0  0  0  0  0  0  0  0  0  0
    0.6790    3.4560   -1.7000 N   0  0  0  0  0  0  0  0  0  0  0  0
    0.5960    3.0620   -0.3440 C   0  0  0  0  0  0  0  0  0  0  0  0
    1.6560    2.6970    0.2510 O   0  0  0  0  0  0  0  0  0  0  0  0
   -0.7180    3.0780    0.3630 C   0  0  0  0  0  0  0  0  0  0  0  0
   -0.6220    2.3760    1.7080 C   0  0  2  0  0  0  0  0  0  0  0  0
   -0.3490    0.9760    1.6670 N   0  0  0  0  0  0  0  0  0  0  0  0
   -1.5510    2.8320    2.7170 C   0  0  0  0  0  0  0  0  0  0  0  0
   -1.9030    4.0410    2.8750 O   0  0  0  0  0  0  0  0  0  0  0  0
   -2.1460    1.9430    3.6190 O   0  0  0  0  0  0  0  0  0  0  0  0
   -0.1800    3.6050   -2.2470 H   0  0  0  0  0  0  0  0  0  0  0  0
    1.6080    3.6000   -2.1550 H   0  0  0  0  0  0  0  0  0  0  0  0
   -1.0120    4.1200    0.5640 H   0  0  0  0  0  0  0  0  0  0  0  0
   -1.4920    2.6210   -0.2980 H   0  0  0  0  0  0  0  0  0  0  0  0
    0.4370    2.8030    2.0340 H   0  0  0  0  0  0  0  0  0  0  0  0
   -0.3420    0.4970    2.6370 H   0  0  0  0  0  0  0  0  0  0  0  0
  1  6  1  0  0  0  0
  1  2  1  0  0  0  0
  1  5  1  0  0  0  0
  2  3  1  0  0  0  0
  3 14  1  0  0  0  0
  3  4  2  0  0  0  0
  7  2  1  0  0  0  0
  8  2  1  0  0  0  0
  9 17  1  0  0  0  0
  9 18  1  0  0  0  0
  9 19  1  0  0  0  0
 10  9  1  0  0  0  0
 11 21  1  0  0  0  0
 11 10  1  0  0  0  0
 12 11  1  0  0  0  0
 12 22  1  0  0  0  0
 13 24  1  1  0  0  0
 13 12  1  0  0  0  0
 14 13  1  0  0  0  0
 15 13  1  0  0  0  0
 15 31  1  0  0  0  0
 16 15  2  0  0  0  0
 20 11  1  0  0  0  0
 23 12  1  0  0  0  0
 25 14  1  0  0  0  0
 26 27  1  0  0  0  0
 27 28  2  0  0  0  0
 27 29  1  0  0  0  0
 29 37  1  0  0  0  0
 29 30  1  0  0  0  0
 30 39  1  1  0  0  0
 30 32  1  0  0  0  0
 31 30  1  0  0  0  0
 31 40  1  0  0  0  0
 32 33  2  0  0  0  0
 32 34  1  0  0  0  0
 35 26  1  0  0  0  0
 36 26  1  0  0  0  0
 38 29  1  0  0  0  0
M  END
$$$$
