GMP.pdb
 OpenBabel07022418243D

 40 40  0  0  1  0  0  0  0  0999 V2000
    2.4810   -3.2840    1.3980 N   0  0  0  0  0  0  0  0  0  0  0  0
    2.1850   -3.5720    0.0130 C   0  0  0  0  0  0  0  0  0  0  0  0
    1.2010   -2.6420   -0.5550 C   0  0  0  0  0  0  0  0  0  0  0  0
    0.8520   -2.7710   -1.7370 O   0  0  0  0  0  0  0  0  0  0  0  0
    3.5090   -3.3030    1.5430 H   0  0  0  0  0  0  0  0  0  0  0  0
    1.9570   -3.9120    2.0590 H   0  0  0  0  0  0  0  0  0  0  0  0
    3.1030   -3.5930   -0.6120 H   0  0  0  0  0  0  0  0  0  0  0  0
    1.7330   -4.6050   -0.0380 H   0  0  0  0  0  0  0  0  0  0  0  0
   -4.0110   -3.2250    1.4530 C   0  0  0  0  0  0  0  0  0  0  0  0
   -3.6600   -1.5300    1.9280 S   0  0  0  0  0  0  0  0  0  0  0  0
   -1.9370   -1.0600    1.5740 C   0  0  0  0  0  0  0  0  0  0  0  0
   -1.7600   -1.0610    0.0980 C   0  0  0  0  0  0  0  0  0  0  0  0
   -0.3230   -0.6750   -0.3080 C   0  0  2  0  0  0  0  0  0  0  0  0
    0.6190   -1.5700    0.2250 N   0  0  0  0  0  0  0  0  0  0  0  0
   -0.1830    0.7580   -0.1240 C   0  0  0  0  0  0  0  0  0  0  0  0
   -1.2630    1.3940   -0.5690 O   0  0  0  0  0  0  0  0  0  0  0  0
   -4.0920   -3.8690    2.3490 H   0  0  0  0  0  0  0  0  0  0  0  0
   -3.2620   -3.6780    0.7920 H   0  0  0  0  0  0  0  0  0  0  0  0
   -5.0160   -3.2220    0.9440 H   0  0  0  0  0  0  0  0  0  0  0  0
   -1.7990   -0.0480    2.0090 H   0  0  0  0  0  0  0  0  0  0  0  0
   -1.2790   -1.7370    2.1230 H   0  0  0  0  0  0  0  0  0  0  0  0
   -2.4100   -0.2810   -0.3460 H   0  0  0  0  0  0  0  0  0  0  0  0
   -2.0020   -2.0150   -0.3660 H   0  0  0  0  0  0  0  0  0  0  0  0
   -0.3550   -0.8640   -1.4310 H   0  0  0  0  0  0  0  0  0  0  0  0
    0.9780   -1.5470    1.2260 H   0  0  0  0  0  0  0  0  0  0  0  0
    0.7720    1.5860    0.3920 N   0  0  0  0  0  0  0  0  0  0  0  0
    0.4990    3.0680    0.5710 C   0  0  0  0  0  0  0  0  0  0  0  0
    0.8080    3.1620    2.0570 C   0  0  0  0  0  0  0  0  0  0  0  0
    1.8470    2.0430    2.3170 C   0  0  0  0  0  0  0  0  0  0  0  0
    2.0990    1.5510    0.8840 C   0  0  1  0  0  0  0  0  0  0  0  0
    2.9830    0.4470    0.7360 C   0  0  0  0  0  0  0  0  0  0  0  0
    3.6800   -0.0590    1.6930 O   0  0  0  0  0  0  0  0  0  0  0  0
    3.1870   -0.1920   -0.4810 O   0  0  0  0  0  0  0  0  0  0  0  0
   -0.5130    3.3160    0.2940 H   0  0  0  0  0  0  0  0  0  0  0  0
    1.3140    3.5490    0.0190 H   0  0  0  0  0  0  0  0  0  0  0  0
   -0.1170    2.9850    2.6090 H   0  0  0  0  0  0  0  0  0  0  0  0
    1.2550    4.1370    2.3330 H   0  0  0  0  0  0  0  0  0  0  0  0
    2.7460    2.4750    2.7740 H   0  0  0  0  0  0  0  0  0  0  0  0
    1.3450    1.2570    2.8800 H   0  0  0  0  0  0  0  0  0  0  0  0
    2.6070    2.5010    0.4010 H   0  0  0  0  0  0  0  0  0  0  0  0
  1  5  1  0  0  0  0
  1  6  1  0  0  0  0
  2  1  1  0  0  0  0
  3  2  1  0  0  0  0
  3 14  1  0  0  0  0
  4  3  2  0  0  0  0
  7  2  1  0  0  0  0
  8  2  1  0  0  0  0
  9 10  1  0  0  0  0
  9 17  1  0  0  0  0
 11 10  1  0  0  0  0
 11 20  1  0  0  0  0
 11 21  1  0  0  0  0
 12 11  1  0  0  0  0
 13 24  1  6  0  0  0
 13 15  1  0  0  0  0
 13 12  1  0  0  0  0
 13 14  1  0  0  0  0
 14 25  1  0  0  0  0
 15 26  1  0  0  0  0
 16 15  2  0  0  0  0
 18  9  1  0  0  0  0
 19  9  1  0  0  0  0
 22 12  1  0  0  0  0
 23 12  1  0  0  0  0
 26 27  1  0  0  0  0
 26 30  1  0  0  0  0
 27 28  1  0  0  0  0
 28 29  1  0  0  0  0
 28 37  1  0  0  0  0
 28 36  1  0  0  0  0
 29 38  1  0  0  0  0
 29 39  1  0  0  0  0
 30 40  1  6  0  0  0
 30 29  1  0  0  0  0
 31 30  1  0  0  0  0
 31 32  1  0  0  0  0
 33 31  2  0  0  0  0
 34 27  1  0  0  0  0
 35 27  1  0  0  0  0
M  END
$$$$
