GMS.pdb
 OpenBabel07022418243D

 37 36  0  0  1  0  0  0  0  0999 V2000
    0.1250   -3.5040   -2.8250 N   0  0  0  0  0  0  0  0  0  0  0  0
   -1.2240   -3.6360   -2.3500 C   0  0  0  0  0  0  0  0  0  0  0  0
   -1.4160   -2.8150   -1.1180 C   0  0  0  0  0  0  0  0  0  0  0  0
   -2.5280   -2.7740   -0.5180 O   0  0  0  0  0  0  0  0  0  0  0  0
    0.8580   -3.7020   -2.1380 H   0  0  0  0  0  0  0  0  0  0  0  0
    0.2280   -2.6150   -3.3490 H   0  0  0  0  0  0  0  0  0  0  0  0
   -1.8950   -3.2100   -3.1380 H   0  0  0  0  0  0  0  0  0  0  0  0
   -1.5290   -4.6790   -2.1470 H   0  0  0  0  0  0  0  0  0  0  0  0
    2.8330   -3.5300    3.1700 C   0  0  0  0  0  0  0  0  0  0  0  0
    2.9210   -1.7740    2.7620 S   0  0  0  0  0  0  0  0  0  0  0  0
    1.8300   -1.3820    1.3710 C   0  0  0  0  0  0  0  0  0  0  0  0
    0.3720   -1.5690    1.7440 C   0  0  0  0  0  0  0  0  0  0  0  0
   -0.5540   -1.2540    0.6260 C   0  0  2  0  0  0  0  0  0  0  0  0
   -0.3830   -2.0450   -0.5550 N   0  0  0  0  0  0  0  0  0  0  0  0
   -0.2930    0.1760    0.2250 C   0  0  0  0  0  0  0  0  0  0  0  0
    0.0180    0.5010   -0.9500 O   0  0  0  0  0  0  0  0  0  0  0  0
    2.6400   -4.1180    2.2440 H   0  0  0  0  0  0  0  0  0  0  0  0
    3.8360   -3.8620    3.5480 H   0  0  0  0  0  0  0  0  0  0  0  0
    2.0830   -3.7350    3.9650 H   0  0  0  0  0  0  0  0  0  0  0  0
    2.1220   -1.9560    0.4760 H   0  0  0  0  0  0  0  0  0  0  0  0
    2.0020   -0.3140    1.1210 H   0  0  0  0  0  0  0  0  0  0  0  0
    0.1710   -0.8360    2.5590 H   0  0  0  0  0  0  0  0  0  0  0  0
    0.1910   -2.5630    2.2090 H   0  0  0  0  0  0  0  0  0  0  0  0
   -1.5920   -1.3750    0.9800 H   0  0  0  0  0  0  0  0  0  0  0  0
    0.5580   -2.0380   -1.0060 H   0  0  0  0  0  0  0  0  0  0  0  0
   -1.6870    3.4500    2.4170 O   0  0  0  0  0  0  0  0  0  0  0  0
   -1.3260    3.5170    1.0820 C   0  0  0  0  0  0  0  0  0  0  0  0
   -0.1520    2.6100    0.8580 C   0  0  2  0  0  0  0  0  0  0  0  0
   -0.3830    1.2430    1.1620 N   0  0  0  0  0  0  0  0  0  0  0  0
    1.0190    3.1040    1.6220 C   0  0  0  0  0  0  0  0  0  0  0  0
    1.6100    2.2990    2.3850 O   0  0  0  0  0  0  0  0  0  0  0  0
    1.4710    4.4170    1.5140 O   0  0  0  0  0  0  0  0  0  0  0  0
   -2.6370    3.6790    2.5730 H   0  0  0  0  0  0  0  0  0  0  0  0
   -2.1530    3.3580    0.3870 H   0  0  0  0  0  0  0  0  0  0  0  0
   -0.9610    4.5660    0.9080 H   0  0  0  0  0  0  0  0  0  0  0  0
    0.1170    2.6750   -0.2360 H   0  0  0  0  0  0  0  0  0  0  0  0
   -0.6410    0.9860    2.1420 H   0  0  0  0  0  0  0  0  0  0  0  0
  1  2  1  0  0  0  0
  1  5  1  0  0  0  0
  2  8  1  0  0  0  0
  2  3  1  0  0  0  0
  3 14  1  0  0  0  0
  3  4  2  0  0  0  0
  6  1  1  0  0  0  0
  7  2  1  0  0  0  0
  9 18  1  0  0  0  0
  9 19  1  0  0  0  0
 10  9  1  0  0  0  0
 11 12  1  0  0  0  0
 11 10  1  0  0  0  0
 12 23  1  0  0  0  0
 12 22  1  0  0  0  0
 13 24  1  1  0  0  0
 13 12  1  0  0  0  0
 14 13  1  0  0  0  0
 15 13  1  0  0  0  0
 15 29  1  0  0  0  0
 16 15  2  0  0  0  0
 17  9  1  0  0  0  0
 20 11  1  0  0  0  0
 21 11  1  0  0  0  0
 25 14  1  0  0  0  0
 26 33  1  0  0  0  0
 27 26  1  0  0  0  0
 28 36  1  6  0  0  0
 28 27  1  0  0  0  0
 28 29  1  0  0  0  0
 28 30  1  0  0  0  0
 29 37  1  0  0  0  0
 30 31  1  0  0  0  0
 32 30  2  0  0  0  0
 34 27  1  0  0  0  0
 35 27  1  0  0  0  0
M  END
$$$$
