GMT.pdb
 OpenBabel07022418243D

 40 39  0  0  1  0  0  0  0  0999 V2000
    2.4280   -4.4500   -0.9040 N   0  0  0  0  0  0  0  0  0  0  0  0
    2.3900   -3.6770   -2.1310 C   0  0  0  0  0  0  0  0  0  0  0  0
    1.6140   -2.4300   -1.8910 C   0  0  0  0  0  0  0  0  0  0  0  0
    1.4160   -1.5680   -2.7750 O   0  0  0  0  0  0  0  0  0  0  0  0
    3.1830   -4.0970   -0.2550 H   0  0  0  0  0  0  0  0  0  0  0  0
    2.6400   -5.4580   -1.0630 H   0  0  0  0  0  0  0  0  0  0  0  0
    3.4300   -3.3870   -2.3550 H   0  0  0  0  0  0  0  0  0  0  0  0
    1.9850   -4.2720   -2.9610 H   0  0  0  0  0  0  0  0  0  0  0  0
   -3.5470   -3.7780    0.3910 C   0  0  0  0  0  0  0  0  0  0  0  0
   -2.8450   -2.6920    1.6620 S   0  0  0  0  0  0  0  0  0  0  0  0
   -1.1390   -2.2270    1.2460 C   0  0  0  0  0  0  0  0  0  0  0  0
   -1.1140   -1.3660    0.0020 C   0  0  0  0  0  0  0  0  0  0  0  0
    0.3010   -0.9670   -0.3570 C   0  0  2  0  0  0  0  0  0  0  0  0
    1.0510   -2.1720   -0.5920 N   0  0  0  0  0  0  0  0  0  0  0  0
    0.8710   -0.1810    0.7860 C   0  0  0  0  0  0  0  0  0  0  0  0
    1.8850   -0.5760    1.4210 O   0  0  0  0  0  0  0  0  0  0  0  0
   -4.4380   -4.2880    0.8020 H   0  0  0  0  0  0  0  0  0  0  0  0
   -3.7750   -3.1610   -0.4960 H   0  0  0  0  0  0  0  0  0  0  0  0
   -2.7610   -4.5090    0.0660 H   0  0  0  0  0  0  0  0  0  0  0  0
   -0.6060   -1.7910    2.0970 H   0  0  0  0  0  0  0  0  0  0  0  0
   -0.6240   -3.1900    0.9960 H   0  0  0  0  0  0  0  0  0  0  0  0
   -1.7620   -0.4620    0.1210 H   0  0  0  0  0  0  0  0  0  0  0  0
   -1.5730   -1.9500   -0.8220 H   0  0  0  0  0  0  0  0  0  0  0  0
    0.2490   -0.3210   -1.2640 H   0  0  0  0  0  0  0  0  0  0  0  0
    1.2010   -2.8730    0.1650 H   0  0  0  0  0  0  0  0  0  0  0  0
    1.7240    4.0510    2.9970 C   0  0  0  0  0  0  0  0  0  0  0  0
    1.1870    3.2330    1.8440 C   0  0  1  0  0  0  0  0  0  0  0  0
    2.1760    3.1990    0.8640 O   0  0  0  0  0  0  0  0  0  0  0  0
    0.7980    1.8410    2.2930 C   0  0  2  0  0  0  0  0  0  0  0  0
    0.2850    1.0470    1.1980 N   0  0  0  0  0  0  0  0  0  0  0  0
   -0.2590    1.9060    3.3320 C   0  0  0  0  0  0  0  0  0  0  0  0
   -1.3810    1.3340    3.1960 O   0  0  0  0  0  0  0  0  0  0  0  0
   -0.0820    2.6040    4.5310 O   0  0  0  0  0  0  0  0  0  0  0  0
    2.4040    4.8660    2.6350 H   0  0  0  0  0  0  0  0  0  0  0  0
    2.3640    3.4070    3.6380 H   0  0  0  0  0  0  0  0  0  0  0  0
    0.9010    4.5100    3.5820 H   0  0  0  0  0  0  0  0  0  0  0  0
    0.2790    3.7570    1.4430 H   0  0  0  0  0  0  0  0  0  0  0  0
    2.0120    3.9910    0.2800 H   0  0  0  0  0  0  0  0  0  0  0  0
    1.6910    1.3870    2.7620 H   0  0  0  0  0  0  0  0  0  0  0  0
   -0.5530    1.3550    0.6580 H   0  0  0  0  0  0  0  0  0  0  0  0
  1  5  1  0  0  0  0
  2  3  1  0  0  0  0
  2  1  1  0  0  0  0
  3 14  1  0  0  0  0
  4  3  2  0  0  0  0
  6  1  1  0  0  0  0
  7  2  1  0  0  0  0
  8  2  1  0  0  0  0
  9 17  1  0  0  0  0
  9 10  1  0  0  0  0
 11 10  1  0  0  0  0
 11 20  1  0  0  0  0
 12 22  1  0  0  0  0
 12 11  1  0  0  0  0
 13 24  1  6  0  0  0
 13 12  1  0  0  0  0
 13 15  1  0  0  0  0
 14 13  1  0  0  0  0
 14 25  1  0  0  0  0
 15 30  1  0  0  0  0
 15 16  2  0  0  0  0
 18  9  1  0  0  0  0
 19  9  1  0  0  0  0
 21 11  1  0  0  0  0
 23 12  1  0  0  0  0
 26 36  1  0  0  0  0
 26 35  1  0  0  0  0
 27 37  1  6  0  0  0
 27 29  1  0  0  0  0
 27 26  1  0  0  0  0
 28 27  1  0  0  0  0
 29 39  1  1  0  0  0
 29 31  1  0  0  0  0
 30 29  1  0  0  0  0
 31 33  1  0  0  0  0
 32 31  2  0  0  0  0
 34 26  1  0  0  0  0
 38 28  1  0  0  0  0
 40 30  1  0  0  0  0
M  END
$$$$
