GNC.pdb
 OpenBabel07022418223D

 34 33  0  0  1  0  0  0  0  0999 V2000
   -2.6940   -3.1490   -1.7340 N   0  0  0  0  0  0  0  0  0  0  0  0
   -2.9190   -3.4310   -0.3520 C   0  0  0  0  0  0  0  0  0  0  0  0
   -1.9040   -2.7540    0.5310 C   0  0  0  0  0  0  0  0  0  0  0  0
   -1.9670   -2.9060    1.7770 O   0  0  0  0  0  0  0  0  0  0  0  0
   -2.9490   -3.9330   -2.3730 H   0  0  0  0  0  0  0  0  0  0  0  0
   -3.0350   -2.2300   -2.0460 H   0  0  0  0  0  0  0  0  0  0  0  0
   -3.0350   -4.4900   -0.1160 H   0  0  0  0  0  0  0  0  0  0  0  0
   -3.8980   -2.9430   -0.0710 H   0  0  0  0  0  0  0  0  0  0  0  0
    3.0170   -3.6790    0.3450 N   0  0  0  0  0  0  0  0  0  0  0  0
    1.7330   -3.1480    0.6480 C   0  0  0  0  0  0  0  0  0  0  0  0
    0.8570   -3.9340    1.0500 O   0  0  0  0  0  0  0  0  0  0  0  0
    1.5300   -1.6910    0.4640 C   0  0  0  0  0  0  0  0  0  0  0  0
    0.1270   -1.2780    0.8240 C   0  0  2  0  0  0  0  0  0  0  0  0
   -0.8660   -1.9440    0.0180 N   0  0  0  0  0  0  0  0  0  0  0  0
   -0.0780    0.1780    0.7130 C   0  0  0  0  0  0  0  0  0  0  0  0
   -1.0110    0.6050   -0.0080 O   0  0  0  0  0  0  0  0  0  0  0  0
    3.4280   -4.4860    0.8680 H   0  0  0  0  0  0  0  0  0  0  0  0
    3.5900   -3.2700   -0.4200 H   0  0  0  0  0  0  0  0  0  0  0  0
    1.6560   -1.4560   -0.6240 H   0  0  0  0  0  0  0  0  0  0  0  0
    2.3000   -1.1390    0.9940 H   0  0  0  0  0  0  0  0  0  0  0  0
   -0.0090   -1.5100    1.9170 H   0  0  0  0  0  0  0  0  0  0  0  0
   -0.8400   -1.8360   -1.0260 H   0  0  0  0  0  0  0  0  0  0  0  0
    0.7390    1.1270    1.3900 N   0  0  0  0  0  0  0  0  0  0  0  0
    0.4480    2.5210    1.2090 C   0  0  1  0  0  0  0  0  0  0  0  0
    0.0630    3.1760    2.5370 C   0  0  0  0  0  0  0  0  0  0  0  0
   -0.2870    4.9370    2.2120 S   0  0  0  0  0  0  0  0  0  0  0  0
    1.5940    3.2620    0.6250 C   0  0  0  0  0  0  0  0  0  0  0  0
    1.5410    4.4900    0.3890 O   0  0  0  0  0  0  0  0  0  0  0  0
    2.7490    2.5580    0.3380 O   0  0  0  0  0  0  0  0  0  0  0  0
    1.5120    0.8120    1.9890 H   0  0  0  0  0  0  0  0  0  0  0  0
   -0.4140    2.6940    0.5350 H   0  0  0  0  0  0  0  0  0  0  0  0
    0.8890    3.1250    3.2650 H   0  0  0  0  0  0  0  0  0  0  0  0
   -0.8450    2.7280    2.9530 H   0  0  0  0  0  0  0  0  0  0  0  0
   -0.7970    5.1100    0.9210 H   0  0  0  0  0  0  0  0  0  0  0  0
  1  2  1  0  0  0  0
  2  7  1  0  0  0  0
  2  8  1  0  0  0  0
  2  3  1  0  0  0  0
  3  4  2  0  0  0  0
  5  1  1  0  0  0  0
  6  1  1  0  0  0  0
  9 10  1  0  0  0  0
  9 17  1  0  0  0  0
 10 11  2  0  0  0  0
 12 10  1  0  0  0  0
 12 13  1  0  0  0  0
 12 20  1  0  0  0  0
 13 21  1  1  0  0  0
 14  3  1  0  0  0  0
 14 13  1  0  0  0  0
 15 13  1  0  0  0  0
 15 23  1  0  0  0  0
 16 15  2  0  0  0  0
 18  9  1  0  0  0  0
 19 12  1  0  0  0  0
 22 14  1  0  0  0  0
 23 30  1  0  0  0  0
 24 31  1  6  0  0  0
 24 23  1  0  0  0  0
 24 25  1  0  0  0  0
 25 33  1  0  0  0  0
 25 32  1  0  0  0  0
 26 25  1  0  0  0  0
 27 24  1  0  0  0  0
 28 27  1  0  0  0  0
 29 27  2  0  0  0  0
 34 26  1  0  0  0  0
M  END
$$$$
