GNG.pdb
 OpenBabel07022418223D

 30 29  0  0  1  0  0  0  0  0999 V2000
   -2.0620   -2.7300   -2.8920 N   0  0  0  0  0  0  0  0  0  0  0  0
   -1.2440   -1.6530   -2.3860 C   0  0  0  0  0  0  0  0  0  0  0  0
   -0.5620   -2.0480   -1.1380 C   0  0  0  0  0  0  0  0  0  0  0  0
   -0.7570   -3.2010   -0.6850 O   0  0  0  0  0  0  0  0  0  0  0  0
   -3.0750   -2.5250   -2.7190 H   0  0  0  0  0  0  0  0  0  0  0  0
   -1.8390   -3.6590   -2.5000 H   0  0  0  0  0  0  0  0  0  0  0  0
   -0.5020   -1.2890   -3.1500 H   0  0  0  0  0  0  0  0  0  0  0  0
   -1.9130   -0.7790   -2.1720 H   0  0  0  0  0  0  0  0  0  0  0  0
    3.7500   -0.9420    2.7130 N   0  0  0  0  0  0  0  0  0  0  0  0
    3.2060   -1.8610    1.7820 C   0  0  0  0  0  0  0  0  0  0  0  0
    3.3610   -3.0970    2.0040 O   0  0  0  0  0  0  0  0  0  0  0  0
    2.4700   -1.4750    0.5690 C   0  0  0  0  0  0  0  0  0  0  0  0
    0.9700   -1.5880    0.8030 C   0  0  2  0  0  0  0  0  0  0  0  0
    0.3050   -1.2000   -0.4170 N   0  0  0  0  0  0  0  0  0  0  0  0
    0.5430   -0.6840    1.8860 C   0  0  0  0  0  0  0  0  0  0  0  0
    0.9970   -0.8070    3.0570 O   0  0  0  0  0  0  0  0  0  0  0  0
    3.9270    0.0730    2.4980 H   0  0  0  0  0  0  0  0  0  0  0  0
    3.9980   -1.2460    3.6710 H   0  0  0  0  0  0  0  0  0  0  0  0
    2.6980   -0.4150    0.3470 H   0  0  0  0  0  0  0  0  0  0  0  0
    2.7610   -2.1450   -0.2600 H   0  0  0  0  0  0  0  0  0  0  0  0
    0.7190   -2.6460    1.0500 H   0  0  0  0  0  0  0  0  0  0  0  0
    0.4690   -0.2450   -0.7930 H   0  0  0  0  0  0  0  0  0  0  0  0
   -0.3870    0.3440    1.6380 N   0  0  0  0  0  0  0  0  0  0  0  0
   -0.8570    1.2650    2.6350 C   0  0  0  0  0  0  0  0  0  0  0  0
   -1.8240    2.2120    2.0450 C   0  0  0  0  0  0  0  0  0  0  0  0
   -2.1020    2.1140    0.8210 O   0  0  0  0  0  0  0  0  0  0  0  0
   -2.4530    3.2170    2.7640 O   0  0  0  0  0  0  0  0  0  0  0  0
   -0.7710    0.4460    0.6520 H   0  0  0  0  0  0  0  0  0  0  0  0
   -1.2710    0.7550    3.5410 H   0  0  0  0  0  0  0  0  0  0  0  0
    0.0360    1.8820    2.9360 H   0  0  0  0  0  0  0  0  0  0  0  0
  1  5  1  0  0  0  0
  1  6  1  0  0  0  0
  1  2  1  0  0  0  0
  2  8  1  0  0  0  0
  2  3  1  0  0  0  0
  3  4  2  0  0  0  0
  3 14  1  0  0  0  0
  7  2  1  0  0  0  0
  9 18  1  0  0  0  0
 10 11  2  0  0  0  0
 10  9  1  0  0  0  0
 12 13  1  0  0  0  0
 12 10  1  0  0  0  0
 13 21  1  1  0  0  0
 13 15  1  0  0  0  0
 14 13  1  0  0  0  0
 15 16  2  0  0  0  0
 17  9  1  0  0  0  0
 19 12  1  0  0  0  0
 20 12  1  0  0  0  0
 22 14  1  0  0  0  0
 23 15  1  0  0  0  0
 23 24  1  0  0  0  0
 24 30  1  0  0  0  0
 24 29  1  0  0  0  0
 25 24  1  0  0  0  0
 25 27  1  0  0  0  0
 26 25  2  0  0  0  0
 28 23  1  0  0  0  0
M  END
$$$$
