GNI.pdb
 OpenBabel07022418223D

 42 41  0  0  1  0  0  0  0  0999 V2000
   -2.3990   -4.5000    3.6580 N   0  0  0  0  0  0  0  0  0  0  0  0
   -0.9870   -4.6940    3.9020 C   0  0  0  0  0  0  0  0  0  0  0  0
   -0.1430   -3.9810    2.9240 C   0  0  0  0  0  0  0  0  0  0  0  0
    1.1070   -4.0660    3.0210 O   0  0  0  0  0  0  0  0  0  0  0  0
   -2.6060   -3.4810    3.5510 H   0  0  0  0  0  0  0  0  0  0  0  0
   -2.7230   -4.9660    2.7820 H   0  0  0  0  0  0  0  0  0  0  0  0
   -0.7700   -4.3260    4.9270 H   0  0  0  0  0  0  0  0  0  0  0  0
   -0.8110   -5.8040    3.8890 H   0  0  0  0  0  0  0  0  0  0  0  0
   -2.3630   -2.2010   -0.3780 N   0  0  0  0  0  0  0  0  0  0  0  0
   -1.2560   -2.7720   -1.0490 C   0  0  0  0  0  0  0  0  0  0  0  0
   -1.4100   -3.1380   -2.2520 O   0  0  0  0  0  0  0  0  0  0  0  0
    0.0720   -2.9780   -0.4630 C   0  0  0  0  0  0  0  0  0  0  0  0
    0.2120   -2.5340    0.9590 C   0  0  2  0  0  0  0  0  0  0  0  0
   -0.6750   -3.1990    1.8720 N   0  0  0  0  0  0  0  0  0  0  0  0
    0.0900   -1.0420    1.0890 C   0  0  0  0  0  0  0  0  0  0  0  0
   -0.7070   -0.5370    1.9160 O   0  0  0  0  0  0  0  0  0  0  0  0
   -3.2010   -2.7760   -0.0860 H   0  0  0  0  0  0  0  0  0  0  0  0
   -2.4090   -1.1870   -0.1400 H   0  0  0  0  0  0  0  0  0  0  0  0
    0.3620   -4.0450   -0.5410 H   0  0  0  0  0  0  0  0  0  0  0  0
    0.8560   -2.4240   -1.0490 H   0  0  0  0  0  0  0  0  0  0  0  0
    1.2850   -2.7500    1.2400 H   0  0  0  0  0  0  0  0  0  0  0  0
   -1.7050   -3.1040    1.7580 H   0  0  0  0  0  0  0  0  0  0  0  0
    2.3130    4.1350   -0.1130 C   0  0  0  0  0  0  0  0  0  0  0  0
    2.0420    3.3370    1.1160 C   0  0  0  0  0  0  0  0  0  0  0  0
    1.9930    1.8560    0.9460 C   0  0  2  0  0  0  0  0  0  0  0  0
    3.2990    1.3820    0.3710 C   0  0  0  0  0  0  0  0  0  0  0  0
    0.7560    1.2680    0.4070 C   0  0  2  0  0  0  0  0  0  0  0  0
    0.8690   -0.1910    0.2860 N   0  0  0  0  0  0  0  0  0  0  0  0
    0.1540    1.8560   -0.7920 C   0  0  0  0  0  0  0  0  0  0  0  0
   -0.0900    1.1520   -1.8430 O   0  0  0  0  0  0  0  0  0  0  0  0
   -0.2200    3.1790   -0.9500 O   0  0  0  0  0  0  0  0  0  0  0  0
    2.4200    3.5720   -1.0480 H   0  0  0  0  0  0  0  0  0  0  0  0
    3.3410    4.6220    0.0150 H   0  0  0  0  0  0  0  0  0  0  0  0
    1.6290    4.9920   -0.2780 H   0  0  0  0  0  0  0  0  0  0  0  0
    1.0420    3.6870    1.5070 H   0  0  0  0  0  0  0  0  0  0  0  0
    2.8060    3.5520    1.8960 H   0  0  0  0  0  0  0  0  0  0  0  0
    2.0400    1.4560    2.0360 H   0  0  0  0  0  0  0  0  0  0  0  0
    3.4000    1.6640   -0.7100 H   0  0  0  0  0  0  0  0  0  0  0  0
    3.5030    0.3190    0.5240 H   0  0  0  0  0  0  0  0  0  0  0  0
    4.1000    1.9470    0.8950 H   0  0  0  0  0  0  0  0  0  0  0  0
   -0.0270    1.4160    1.2170 H   0  0  0  0  0  0  0  0  0  0  0  0
    1.5470   -0.6130   -0.4170 H   0  0  0  0  0  0  0  0  0  0  0  0
  1  2  1  0  0  0  0
  2  7  1  0  0  0  0
  3  4  2  0  0  0  0
  3  2  1  0  0  0  0
  5  1  1  0  0  0  0
  6  1  1  0  0  0  0
  8  2  1  0  0  0  0
  9 18  1  0  0  0  0
  9 17  1  0  0  0  0
 10 12  1  0  0  0  0
 10  9  1  0  0  0  0
 11 10  2  0  0  0  0
 12 13  1  0  0  0  0
 13 15  1  0  0  0  0
 13 21  1  1  0  0  0
 13 14  1  0  0  0  0
 14  3  1  0  0  0  0
 15 16  2  0  0  0  0
 19 12  1  0  0  0  0
 20 12  1  0  0  0  0
 22 14  1  0  0  0  0
 23 33  1  0  0  0  0
 23 24  1  0  0  0  0
 24 35  1  0  0  0  0
 24 36  1  0  0  0  0
 25 24  1  0  0  0  0
 25 37  1  1  0  0  0
 26 39  1  0  0  0  0
 26 40  1  0  0  0  0
 26 25  1  0  0  0  0
 27 25  1  0  0  0  0
 27 41  1  1  0  0  0
 28 27  1  0  0  0  0
 28 15  1  0  0  0  0
 29 27  1  0  0  0  0
 30 29  2  0  0  0  0
 31 29  1  0  0  0  0
 32 23  1  0  0  0  0
 34 23  1  0  0  0  0
 38 26  1  0  0  0  0
 42 28  1  0  0  0  0
M  END
$$$$
