GNK.pdb
 OpenBabel07022418223D

 44 43  0  0  1  0  0  0  0  0999 V2000
   -2.3110   -5.1710   -0.1740 N   0  0  0  0  0  0  0  0  0  0  0  0
   -2.3030   -3.8500   -0.7280 C   0  0  0  0  0  0  0  0  0  0  0  0
   -0.9390   -3.2390   -0.6370 C   0  0  0  0  0  0  0  0  0  0  0  0
   -0.0240   -3.9230   -0.1130 O   0  0  0  0  0  0  0  0  0  0  0  0
   -1.3680   -5.6160   -0.2230 H   0  0  0  0  0  0  0  0  0  0  0  0
   -2.5990   -5.2090    0.8460 H   0  0  0  0  0  0  0  0  0  0  0  0
   -2.9920   -3.2230   -0.0990 H   0  0  0  0  0  0  0  0  0  0  0  0
   -2.7000   -3.7900   -1.7620 H   0  0  0  0  0  0  0  0  0  0  0  0
    3.6290   -1.1630   -1.8430 N   0  0  0  0  0  0  0  0  0  0  0  0
    2.5130   -0.3630   -2.2010 C   0  0  0  0  0  0  0  0  0  0  0  0
    2.7140    0.8780   -2.3430 O   0  0  0  0  0  0  0  0  0  0  0  0
    1.1970   -1.0040   -2.3850 C   0  0  0  0  0  0  0  0  0  0  0  0
    0.6050   -1.3220   -1.0540 C   0  0  2  0  0  0  0  0  0  0  0  0
   -0.6810   -1.9360   -1.1230 N   0  0  0  0  0  0  0  0  0  0  0  0
    0.6010   -0.0970   -0.2150 C   0  0  0  0  0  0  0  0  0  0  0  0
    1.6720    0.4970   -0.0100 O   0  0  0  0  0  0  0  0  0  0  0  0
    3.6500   -2.2060   -1.8720 H   0  0  0  0  0  0  0  0  0  0  0  0
    4.5440   -0.7290   -1.5120 H   0  0  0  0  0  0  0  0  0  0  0  0
    0.5140   -0.3830   -3.0170 H   0  0  0  0  0  0  0  0  0  0  0  0
    1.3960   -1.9310   -2.9980 H   0  0  0  0  0  0  0  0  0  0  0  0
    1.3300   -2.0270   -0.5460 H   0  0  0  0  0  0  0  0  0  0  0  0
   -1.4710   -1.4160   -1.5460 H   0  0  0  0  0  0  0  0  0  0  0  0
   -0.5440    0.4440    0.3730 N   0  0  0  0  0  0  0  0  0  0  0  0
   -0.6790    1.5670    1.1980 C   0  0  1  0  0  0  0  0  0  0  0  0
    0.4930    2.1660    1.8790 C   0  0  0  0  0  0  0  0  0  0  0  0
    1.2350    1.3500    2.8630 C   0  0  0  0  0  0  0  0  0  0  0  0
    0.4000    0.8890    4.0390 C   0  0  0  0  0  0  0  0  0  0  0  0
    1.2370    0.0460    4.9820 C   0  0  0  0  0  0  0  0  0  0  0  0
    1.7740   -1.1420    4.3900 N   0  0  0  0  0  0  0  0  0  0  0  0
   -1.4700    2.5990    0.5190 C   0  0  0  0  0  0  0  0  0  0  0  0
   -1.6810    3.6990    1.1320 O   0  0  0  0  0  0  0  0  0  0  0  0
   -2.0060    2.4530   -0.7540 O   0  0  0  0  0  0  0  0  0  0  0  0
   -1.4500   -0.0870    0.1520 H   0  0  0  0  0  0  0  0  0  0  0  0
   -1.3290    1.1940    2.0800 H   0  0  0  0  0  0  0  0  0  0  0  0
    1.2570    2.5910    1.1690 H   0  0  0  0  0  0  0  0  0  0  0  0
    0.1240    3.0690    2.4300 H   0  0  0  0  0  0  0  0  0  0  0  0
    1.9880    2.0790    3.3260 H   0  0  0  0  0  0  0  0  0  0  0  0
    1.8410    0.5230    2.5520 H   0  0  0  0  0  0  0  0  0  0  0  0
    0.0960    1.7940    4.6450 H   0  0  0  0  0  0  0  0  0  0  0  0
   -0.5400    0.3930    3.7620 H   0  0  0  0  0  0  0  0  0  0  0  0
    0.7030   -0.2170    5.9010 H   0  0  0  0  0  0  0  0  0  0  0  0
    2.1220    0.6760    5.2890 H   0  0  0  0  0  0  0  0  0  0  0  0
    1.5690   -1.9930    4.9620 H   0  0  0  0  0  0  0  0  0  0  0  0
    1.5010   -1.2830    3.3820 H   0  0  0  0  0  0  0  0  0  0  0  0
  1  6  1  0  0  0  0
  2  3  1  0  0  0  0
  2  1  1  0  0  0  0
  2  7  1  0  0  0  0
  3  4  2  0  0  0  0
  5  1  1  0  0  0  0
  8  2  1  0  0  0  0
  9 18  1  0  0  0  0
 10  9  1  0  0  0  0
 11 10  2  0  0  0  0
 12 10  1  0  0  0  0
 12 13  1  0  0  0  0
 13 21  1  1  0  0  0
 13 15  1  0  0  0  0
 14 13  1  0  0  0  0
 14  3  1  0  0  0  0
 15 16  2  0  0  0  0
 15 23  1  0  0  0  0
 17  9  1  0  0  0  0
 19 12  1  0  0  0  0
 20 12  1  0  0  0  0
 22 14  1  0  0  0  0
 23 24  1  0  0  0  0
 24 25  1  0  0  0  0
 24 34  1  1  0  0  0
 25 36  1  0  0  0  0
 25 26  1  0  0  0  0
 26 37  1  0  0  0  0
 26 27  1  0  0  0  0
 27 39  1  0  0  0  0
 27 28  1  0  0  0  0
 28 42  1  0  0  0  0
 28 41  1  0  0  0  0
 29 43  1  0  0  0  0
 29 28  1  0  0  0  0
 30 31  1  0  0  0  0
 30 24  1  0  0  0  0
 32 30  2  0  0  0  0
 33 23  1  0  0  0  0
 35 25  1  0  0  0  0
 38 26  1  0  0  0  0
 40 27  1  0  0  0  0
 44 29  1  0  0  0  0
M  END
$$$$
