GNM.pdb
 OpenBabel07022418223D

 40 39  0  0  1  0  0  0  0  0999 V2000
   -1.6680   -2.5990   -1.6240 N   0  0  0  0  0  0  0  0  0  0  0  0
   -1.6310   -3.5870   -0.5670 C   0  0  0  0  0  0  0  0  0  0  0  0
   -0.5120   -3.3670    0.3820 C   0  0  0  0  0  0  0  0  0  0  0  0
   -0.4150   -4.1890    1.3290 O   0  0  0  0  0  0  0  0  0  0  0  0
   -2.0740   -1.7280   -1.2160 H   0  0  0  0  0  0  0  0  0  0  0  0
   -0.7490   -2.4620   -2.0540 H   0  0  0  0  0  0  0  0  0  0  0  0
   -2.6040   -3.4730   -0.0050 H   0  0  0  0  0  0  0  0  0  0  0  0
   -1.6460   -4.6230   -0.9590 H   0  0  0  0  0  0  0  0  0  0  0  0
    4.5010   -1.4790   -0.9690 N   0  0  0  0  0  0  0  0  0  0  0  0
    3.2010   -1.4180   -0.4030 C   0  0  0  0  0  0  0  0  0  0  0  0
    2.3840   -0.5840   -0.8900 O   0  0  0  0  0  0  0  0  0  0  0  0
    2.8790   -2.3160    0.7030 C   0  0  0  0  0  0  0  0  0  0  0  0
    1.4950   -2.1330    1.2210 C   0  0  2  0  0  0  0  0  0  0  0  0
    0.4270   -2.3350    0.3080 N   0  0  0  0  0  0  0  0  0  0  0  0
    1.4270   -0.8510    1.9680 C   0  0  0  0  0  0  0  0  0  0  0  0
    2.3620   -0.4750    2.7360 O   0  0  0  0  0  0  0  0  0  0  0  0
    5.1200   -0.6540   -0.9500 H   0  0  0  0  0  0  0  0  0  0  0  0
    4.8130   -2.3640   -1.3980 H   0  0  0  0  0  0  0  0  0  0  0  0
    3.1510   -3.3750    0.5150 H   0  0  0  0  0  0  0  0  0  0  0  0
    3.5640   -2.0170    1.5540 H   0  0  0  0  0  0  0  0  0  0  0  0
    1.3780   -2.9960    1.9880 H   0  0  0  0  0  0  0  0  0  0  0  0
    0.3360   -1.6460   -0.4950 H   0  0  0  0  0  0  0  0  0  0  0  0
   -1.8180    1.3460   -0.7640 C   0  0  0  0  0  0  0  0  0  0  0  0
   -0.0390    1.6070   -0.5020 S   0  0  0  0  0  0  0  0  0  0  0  0
    0.1490    2.9290    0.7230 C   0  0  0  0  0  0  0  0  0  0  0  0
   -0.3650    2.4490    2.0320 C   0  0  0  0  0  0  0  0  0  0  0  0
    0.3030    1.2900    2.6510 C   0  0  2  0  0  0  0  0  0  0  0  0
    0.3120    0.0590    1.8910 N   0  0  0  0  0  0  0  0  0  0  0  0
   -0.5000    0.9650    3.9030 C   0  0  0  0  0  0  0  0  0  0  0  0
   -0.7060    1.8240    4.7940 O   0  0  0  0  0  0  0  0  0  0  0  0
   -1.0230   -0.2990    4.0820 O   0  0  0  0  0  0  0  0  0  0  0  0
   -2.2000    0.4570   -0.2360 H   0  0  0  0  0  0  0  0  0  0  0  0
   -2.0700    1.3190   -1.8440 H   0  0  0  0  0  0  0  0  0  0  0  0
   -2.4060    2.2120   -0.3540 H   0  0  0  0  0  0  0  0  0  0  0  0
   -0.4520    3.7900    0.3270 H   0  0  0  0  0  0  0  0  0  0  0  0
    1.1880    3.3100    0.7630 H   0  0  0  0  0  0  0  0  0  0  0  0
   -0.2850    3.3260    2.7430 H   0  0  0  0  0  0  0  0  0  0  0  0
   -1.4670    2.2180    1.9990 H   0  0  0  0  0  0  0  0  0  0  0  0
    1.3130    1.5360    3.0510 H   0  0  0  0  0  0  0  0  0  0  0  0
   -0.4690   -0.2260    1.2660 H   0  0  0  0  0  0  0  0  0  0  0  0
  1  5  1  0  0  0  0
  1  2  1  0  0  0  0
  2  7  1  0  0  0  0
  2  3  1  0  0  0  0
  3  4  2  0  0  0  0
  6  1  1  0  0  0  0
  8  2  1  0  0  0  0
  9 17  1  0  0  0  0
  9 10  1  0  0  0  0
 10 12  1  0  0  0  0
 11 10  2  0  0  0  0
 12 13  1  0  0  0  0
 12 20  1  0  0  0  0
 13 15  1  0  0  0  0
 13 21  1  1  0  0  0
 14  3  1  0  0  0  0
 14 13  1  0  0  0  0
 15 16  2  0  0  0  0
 18  9  1  0  0  0  0
 19 12  1  0  0  0  0
 22 14  1  0  0  0  0
 23 24  1  0  0  0  0
 23 34  1  0  0  0  0
 23 32  1  0  0  0  0
 24 25  1  0  0  0  0
 25 36  1  0  0  0  0
 25 26  1  0  0  0  0
 26 27  1  0  0  0  0
 26 37  1  0  0  0  0
 27 39  1  1  0  0  0
 27 29  1  0  0  0  0
 28 15  1  0  0  0  0
 28 27  1  0  0  0  0
 29 31  2  0  0  0  0
 29 30  1  0  0  0  0
 33 23  1  0  0  0  0
 35 25  1  0  0  0  0
 38 26  1  0  0  0  0
 40 28  1  0  0  0  0
M  END
$$$$
