GNP.pdb
 OpenBabel07022418223D

 37 37  0  0  1  0  0  0  0  0999 V2000
    3.3610   -4.4040    3.0770 N   0  0  0  0  0  0  0  0  0  0  0  0
    3.4520   -3.4510    1.9900 C   0  0  0  0  0  0  0  0  0  0  0  0
    2.0730   -2.8280    1.8510 C   0  0  0  0  0  0  0  0  0  0  0  0
    1.1700   -3.1890    2.6060 O   0  0  0  0  0  0  0  0  0  0  0  0
    3.3530   -3.8780    3.9830 H   0  0  0  0  0  0  0  0  0  0  0  0
    2.4420   -4.9160    3.0500 H   0  0  0  0  0  0  0  0  0  0  0  0
    3.7090   -4.0200    1.0800 H   0  0  0  0  0  0  0  0  0  0  0  0
    4.2190   -2.6950    2.1540 H   0  0  0  0  0  0  0  0  0  0  0  0
   -1.9940   -3.3210    2.1690 N   0  0  0  0  0  0  0  0  0  0  0  0
   -1.0130   -2.8240    1.2400 C   0  0  0  0  0  0  0  0  0  0  0  0
   -0.6020   -3.6110    0.3330 O   0  0  0  0  0  0  0  0  0  0  0  0
   -0.5620   -1.4410    1.4150 C   0  0  0  0  0  0  0  0  0  0  0  0
    0.6380   -1.1500    0.5350 C   0  0  2  0  0  0  0  0  0  0  0  0
    1.8310   -1.8510    0.8720 N   0  0  0  0  0  0  0  0  0  0  0  0
    0.8180    0.2400    0.1610 C   0  0  0  0  0  0  0  0  0  0  0  0
    1.9050    0.7940    0.4600 O   0  0  0  0  0  0  0  0  0  0  0  0
   -2.9170   -3.6130    1.7670 H   0  0  0  0  0  0  0  0  0  0  0  0
   -1.8110   -3.3920    3.1920 H   0  0  0  0  0  0  0  0  0  0  0  0
   -1.3200   -0.6860    1.2640 H   0  0  0  0  0  0  0  0  0  0  0  0
   -0.2820   -1.3540    2.5030 H   0  0  0  0  0  0  0  0  0  0  0  0
    0.2890   -1.7100   -0.4230 H   0  0  0  0  0  0  0  0  0  0  0  0
    2.7250   -1.6120    0.2920 H   0  0  0  0  0  0  0  0  0  0  0  0
   -0.1720    0.9810   -0.5210 N   0  0  0  0  0  0  0  0  0  0  0  0
   -1.4470    0.6250   -1.0750 C   0  0  0  0  0  0  0  0  0  0  0  0
   -2.3430    1.8240   -0.7960 C   0  0  0  0  0  0  0  0  0  0  0  0
   -1.3660    2.9210   -1.2660 C   0  0  0  0  0  0  0  0  0  0  0  0
   -0.0150    2.4270   -0.7800 C   0  0  1  0  0  0  0  0  0  0  0  0
    0.3180    3.0630    0.5260 C   0  0  0  0  0  0  0  0  0  0  0  0
    0.3120    2.4590    1.6050 O   0  0  0  0  0  0  0  0  0  0  0  0
    0.6540    4.4140    0.5290 O   0  0  0  0  0  0  0  0  0  0  0  0
   -1.3150    0.6670   -2.2140 H   0  0  0  0  0  0  0  0  0  0  0  0
   -1.8640   -0.3340   -0.8700 H   0  0  0  0  0  0  0  0  0  0  0  0
   -3.2730    1.8210   -1.3600 H   0  0  0  0  0  0  0  0  0  0  0  0
   -2.5430    1.9950    0.2590 H   0  0  0  0  0  0  0  0  0  0  0  0
   -1.4400    2.9380   -2.3600 H   0  0  0  0  0  0  0  0  0  0  0  0
   -1.5920    3.8940   -0.8370 H   0  0  0  0  0  0  0  0  0  0  0  0
    0.7330    2.6320   -1.5380 H   0  0  0  0  0  0  0  0  0  0  0  0
  1  5  1  0  0  0  0
  2  8  1  0  0  0  0
  2  1  1  0  0  0  0
  3  2  1  0  0  0  0
  3  4  2  0  0  0  0
  6  1  1  0  0  0  0
  7  2  1  0  0  0  0
  9 18  1  0  0  0  0
 10 12  1  0  0  0  0
 10  9  1  0  0  0  0
 11 10  2  0  0  0  0
 12 20  1  0  0  0  0
 13 21  1  6  0  0  0
 13 14  1  0  0  0  0
 13 12  1  0  0  0  0
 14  3  1  0  0  0  0
 15 16  2  0  0  0  0
 15 13  1  0  0  0  0
 17  9  1  0  0  0  0
 19 12  1  0  0  0  0
 22 14  1  0  0  0  0
 23 15  1  0  0  0  0
 24 32  1  0  0  0  0
 24 25  1  0  0  0  0
 24 23  1  0  0  0  0
 25 34  1  0  0  0  0
 26 36  1  0  0  0  0
 26 25  1  0  0  0  0
 26 27  1  0  0  0  0
 27 37  1  6  0  0  0
 27 23  1  0  0  0  0
 27 28  1  0  0  0  0
 28 30  2  0  0  0  0
 28 29  1  0  0  0  0
 31 24  1  0  0  0  0
 33 25  1  0  0  0  0
 35 26  1  0  0  0  0
M  END
$$$$
