GNS.pdb
 OpenBabel07022418223D

 34 33  0  0  1  0  0  0  0  0999 V2000
   -0.4010   -4.5640   -1.3920 N   0  0  0  0  0  0  0  0  0  0  0  0
    0.4230   -3.4010   -1.1940 C   0  0  0  0  0  0  0  0  0  0  0  0
    0.0150   -2.7900    0.1170 C   0  0  0  0  0  0  0  0  0  0  0  0
   -0.8960   -3.2910    0.8310 O   0  0  0  0  0  0  0  0  0  0  0  0
   -1.1600   -4.4160   -2.0910 H   0  0  0  0  0  0  0  0  0  0  0  0
   -0.7570   -4.9140   -0.4750 H   0  0  0  0  0  0  0  0  0  0  0  0
    1.4850   -3.7030   -1.0950 H   0  0  0  0  0  0  0  0  0  0  0  0
    0.2640   -2.6790   -2.0280 H   0  0  0  0  0  0  0  0  0  0  0  0
    3.2590   -2.2690    3.8770 N   0  0  0  0  0  0  0  0  0  0  0  0
    2.0990   -2.1240    3.0330 C   0  0  0  0  0  0  0  0  0  0  0  0
    1.6090   -3.2100    2.6310 O   0  0  0  0  0  0  0  0  0  0  0  0
    1.5610   -0.7830    2.6930 C   0  0  0  0  0  0  0  0  0  0  0  0
    0.3670   -0.9390    1.8120 C   0  0  2  0  0  0  0  0  0  0  0  0
    0.6610   -1.6200    0.5780 N   0  0  0  0  0  0  0  0  0  0  0  0
   -0.2980    0.3870    1.5410 C   0  0  0  0  0  0  0  0  0  0  0  0
   -0.6160    1.0980    2.5180 O   0  0  0  0  0  0  0  0  0  0  0  0
    4.1290   -1.7250    3.6870 H   0  0  0  0  0  0  0  0  0  0  0  0
    3.2720   -2.9130    4.6960 H   0  0  0  0  0  0  0  0  0  0  0  0
    1.2990   -0.2450    3.6270 H   0  0  0  0  0  0  0  0  0  0  0  0
    2.3800   -0.2510    2.1570 H   0  0  0  0  0  0  0  0  0  0  0  0
   -0.4100   -1.4970    2.3890 H   0  0  0  0  0  0  0  0  0  0  0  0
    1.4160   -1.2280   -0.0440 H   0  0  0  0  0  0  0  0  0  0  0  0
    0.8470    3.3830   -0.1700 O   0  0  0  0  0  0  0  0  0  0  0  0
   -0.3360    3.0530   -0.8610 C   0  0  0  0  0  0  0  0  0  0  0  0
   -1.2010    2.1080   -0.0760 C   0  0  2  0  0  0  0  0  0  0  0  0
   -0.5750    0.8600    0.2340 N   0  0  0  0  0  0  0  0  0  0  0  0
   -2.4870    1.9740   -0.7780 C   0  0  0  0  0  0  0  0  0  0  0  0
   -3.0150    0.8780   -1.0920 O   0  0  0  0  0  0  0  0  0  0  0  0
   -3.1630    3.1380   -1.1170 O   0  0  0  0  0  0  0  0  0  0  0  0
    0.6640    4.2010    0.3800 H   0  0  0  0  0  0  0  0  0  0  0  0
   -0.0860    2.6170   -1.8500 H   0  0  0  0  0  0  0  0  0  0  0  0
   -0.9210    3.9960   -0.9830 H   0  0  0  0  0  0  0  0  0  0  0  0
   -1.4230    2.6230    0.9040 H   0  0  0  0  0  0  0  0  0  0  0  0
   -0.2810    0.2110   -0.5510 H   0  0  0  0  0  0  0  0  0  0  0  0
  1  2  1  0  0  0  0
  1  6  1  0  0  0  0
  2  7  1  0  0  0  0
  2  3  1  0  0  0  0
  3 14  1  0  0  0  0
  3  4  2  0  0  0  0
  5  1  1  0  0  0  0
  8  2  1  0  0  0  0
  9 18  1  0  0  0  0
 10  9  1  0  0  0  0
 11 10  2  0  0  0  0
 12 10  1  0  0  0  0
 12 19  1  0  0  0  0
 13 21  1  1  0  0  0
 13 12  1  0  0  0  0
 14 13  1  0  0  0  0
 15 13  1  0  0  0  0
 15 16  2  0  0  0  0
 17  9  1  0  0  0  0
 20 12  1  0  0  0  0
 22 14  1  0  0  0  0
 23 30  1  0  0  0  0
 24 23  1  0  0  0  0
 24 25  1  0  0  0  0
 25 26  1  0  0  0  0
 25 33  1  1  0  0  0
 26 15  1  0  0  0  0
 27 25  1  0  0  0  0
 28 27  1  0  0  0  0
 29 27  2  0  0  0  0
 31 24  1  0  0  0  0
 32 24  1  0  0  0  0
 34 26  1  0  0  0  0
M  END
$$$$
