GNT.pdb
 OpenBabel07022418223D

 37 36  0  0  1  0  0  0  0  0999 V2000
   -0.8720   -4.2590    1.1630 N   0  0  0  0  0  0  0  0  0  0  0  0
   -0.5050   -4.0590    2.5310 C   0  0  0  0  0  0  0  0  0  0  0  0
    0.5000   -2.9590    2.6870 C   0  0  0  0  0  0  0  0  0  0  0  0
    0.9050   -2.6850    3.8520 O   0  0  0  0  0  0  0  0  0  0  0  0
   -1.4760   -3.5050    0.7730 H   0  0  0  0  0  0  0  0  0  0  0  0
   -1.1450   -5.2140    0.9140 H   0  0  0  0  0  0  0  0  0  0  0  0
   -1.4500   -3.7990    3.0880 H   0  0  0  0  0  0  0  0  0  0  0  0
   -0.1590   -5.0060    2.9480 H   0  0  0  0  0  0  0  0  0  0  0  0
    1.8570   -1.7350   -1.2250 N   0  0  0  0  0  0  0  0  0  0  0  0
    3.0910   -1.6750   -0.5230 C   0  0  0  0  0  0  0  0  0  0  0  0
    4.1230   -1.8460   -1.2630 O   0  0  0  0  0  0  0  0  0  0  0  0
    3.2270   -1.4430    0.9150 C   0  0  0  0  0  0  0  0  0  0  0  0
    1.9480   -1.1780    1.6480 C   0  0  2  0  0  0  0  0  0  0  0  0
    0.9810   -2.2460    1.5610 N   0  0  0  0  0  0  0  0  0  0  0  0
    1.3350    0.1250    1.3230 C   0  0  0  0  0  0  0  0  0  0  0  0
    2.0420    1.1700    1.3460 O   0  0  0  0  0  0  0  0  0  0  0  0
    1.6940   -2.6170   -1.7970 H   0  0  0  0  0  0  0  0  0  0  0  0
    1.1410   -0.9950   -1.2070 H   0  0  0  0  0  0  0  0  0  0  0  0
    3.8320   -2.2400    1.3450 H   0  0  0  0  0  0  0  0  0  0  0  0
    3.8480   -0.5050    1.0300 H   0  0  0  0  0  0  0  0  0  0  0  0
    2.1850   -1.1080    2.7640 H   0  0  0  0  0  0  0  0  0  0  0  0
    0.6170   -2.5090    0.6260 H   0  0  0  0  0  0  0  0  0  0  0  0
   -1.6910    3.0340   -1.0560 C   0  0  0  0  0  0  0  0  0  0  0  0
   -1.1070    1.6740   -0.7530 C   0  0  1  0  0  0  0  0  0  0  0  0
   -0.0070    1.4480   -1.5840 O   0  0  0  0  0  0  0  0  0  0  0  0
   -0.6080    1.5940    0.6700 C   0  0  2  0  0  0  0  0  0  0  0  0
   -0.0320    0.2910    0.9780 N   0  0  0  0  0  0  0  0  0  0  0  0
   -1.6540    1.9510    1.6680 C   0  0  0  0  0  0  0  0  0  0  0  0
   -1.9240    1.1430    2.6190 O   0  0  0  0  0  0  0  0  0  0  0  0
   -2.3670    3.1200    1.6340 O   0  0  0  0  0  0  0  0  0  0  0  0
   -2.8150    2.9780   -1.0600 H   0  0  0  0  0  0  0  0  0  0  0  0
   -1.3090    3.7650   -0.3290 H   0  0  0  0  0  0  0  0  0  0  0  0
   -1.4070    3.2840   -2.1010 H   0  0  0  0  0  0  0  0  0  0  0  0
   -1.9070    0.9250   -0.9200 H   0  0  0  0  0  0  0  0  0  0  0  0
    0.2930    2.3100   -1.9310 H   0  0  0  0  0  0  0  0  0  0  0  0
    0.2240    2.3380    0.7720 H   0  0  0  0  0  0  0  0  0  0  0  0
   -0.6330   -0.5810    0.9520 H   0  0  0  0  0  0  0  0  0  0  0  0
  1  2  1  0  0  0  0
  2  3  1  0  0  0  0
  2  8  1  0  0  0  0
  2  7  1  0  0  0  0
  3  4  2  0  0  0  0
  5  1  1  0  0  0  0
  6  1  1  0  0  0  0
  9 18  1  0  0  0  0
  9 10  1  0  0  0  0
 10 12  1  0  0  0  0
 11 10  2  0  0  0  0
 12 20  1  0  0  0  0
 12 19  1  0  0  0  0
 12 13  1  0  0  0  0
 13 21  1  1  0  0  0
 14 13  1  0  0  0  0
 14  3  1  0  0  0  0
 15 16  2  0  0  0  0
 15 13  1  0  0  0  0
 17  9  1  0  0  0  0
 22 14  1  0  0  0  0
 23 24  1  0  0  0  0
 23 32  1  0  0  0  0
 24 34  1  6  0  0  0
 24 26  1  0  0  0  0
 25 24  1  0  0  0  0
 26 36  1  1  0  0  0
 26 27  1  0  0  0  0
 26 28  1  0  0  0  0
 27 15  1  0  0  0  0
 28 29  1  0  0  0  0
 30 28  2  0  0  0  0
 31 23  1  0  0  0  0
 33 23  1  0  0  0  0
 35 25  1  0  0  0  0
 37 27  1  0  0  0  0
M  END
$$$$
