GPA.pdb
 OpenBabel07022418243D

 33 33  0  0  1  0  0  0  0  0999 V2000
    1.3610   -2.1620    3.1700 N   0  0  0  0  0  0  0  0  0  0  0  0
    2.3040   -1.6720    2.2340 C   0  0  0  0  0  0  0  0  0  0  0  0
    1.7720   -1.5290    0.8710 C   0  0  0  0  0  0  0  0  0  0  0  0
    2.5860   -1.0830   -0.0140 O   0  0  0  0  0  0  0  0  0  0  0  0
    1.5940   -3.0980    3.5650 H   0  0  0  0  0  0  0  0  0  0  0  0
    1.0560   -1.4850    3.8970 H   0  0  0  0  0  0  0  0  0  0  0  0
    2.6650   -0.6750    2.5800 H   0  0  0  0  0  0  0  0  0  0  0  0
    3.2450   -2.2890    2.1920 H   0  0  0  0  0  0  0  0  0  0  0  0
    0.4670   -1.8310    0.4480 N   0  0  0  0  0  0  0  0  0  0  0  0
   -0.6790   -2.3480    1.1430 C   0  0  0  0  0  0  0  0  0  0  0  0
   -1.1210   -3.4270    0.1300 C   0  0  0  0  0  0  0  0  0  0  0  0
   -1.2060   -2.5570   -1.1050 C   0  0  0  0  0  0  0  0  0  0  0  0
   -0.0350   -1.6460   -0.9370 C   0  0  1  0  0  0  0  0  0  0  0  0
   -0.4840   -0.2470   -1.1230 C   0  0  0  0  0  0  0  0  0  0  0  0
   -0.9390    0.0900   -2.2370 O   0  0  0  0  0  0  0  0  0  0  0  0
   -1.4590   -1.5520    1.0900 H   0  0  0  0  0  0  0  0  0  0  0  0
   -0.5350   -2.7670    2.1220 H   0  0  0  0  0  0  0  0  0  0  0  0
   -0.2710   -4.1300    0.0280 H   0  0  0  0  0  0  0  0  0  0  0  0
   -2.0640   -3.8850    0.4150 H   0  0  0  0  0  0  0  0  0  0  0  0
   -2.1690   -1.9810   -1.0030 H   0  0  0  0  0  0  0  0  0  0  0  0
   -1.1810   -3.1460   -2.0380 H   0  0  0  0  0  0  0  0  0  0  0  0
    0.7500   -1.9480   -1.6480 H   0  0  0  0  0  0  0  0  0  0  0  0
   -1.8000    2.4600    0.8790 C   0  0  0  0  0  0  0  0  0  0  0  0
   -0.8150    2.0650   -0.1730 C   0  0  2  0  0  0  0  0  0  0  0  0
   -0.4030    0.6800   -0.0870 N   0  0  0  0  0  0  0  0  0  0  0  0
    0.4070    2.8990   -0.0010 C   0  0  0  0  0  0  0  0  0  0  0  0
    0.3190    4.1540   -0.0350 O   0  0  0  0  0  0  0  0  0  0  0  0
    1.6690    2.3640    0.2000 O   0  0  0  0  0  0  0  0  0  0  0  0
   -1.5650    3.4910    1.2450 H   0  0  0  0  0  0  0  0  0  0  0  0
   -1.8110    1.7880    1.7560 H   0  0  0  0  0  0  0  0  0  0  0  0
   -2.8050    2.4890    0.4220 H   0  0  0  0  0  0  0  0  0  0  0  0
   -1.1970    2.2610   -1.1800 H   0  0  0  0  0  0  0  0  0  0  0  0
   -0.0170    0.3680    0.8360 H   0  0  0  0  0  0  0  0  0  0  0  0
  1  5  1  0  0  0  0
  1  6  1  0  0  0  0
  2  7  1  0  0  0  0
  2  1  1  0  0  0  0
  3  2  1  0  0  0  0
  4  3  2  0  0  0  0
  8  2  1  0  0  0  0
  9  3  1  0  0  0  0
  9 10  1  0  0  0  0
 10 17  1  0  0  0  0
 11 19  1  0  0  0  0
 11 10  1  0  0  0  0
 12 20  1  0  0  0  0
 12 13  1  0  0  0  0
 12 11  1  0  0  0  0
 13 22  1  6  0  0  0
 13  9  1  0  0  0  0
 14 13  1  0  0  0  0
 14 25  1  0  0  0  0
 15 14  2  0  0  0  0
 16 10  1  0  0  0  0
 18 11  1  0  0  0  0
 21 12  1  0  0  0  0
 23 29  1  0  0  0  0
 23 30  1  0  0  0  0
 24 32  1  6  0  0  0
 24 25  1  0  0  0  0
 24 26  1  0  0  0  0
 24 23  1  0  0  0  0
 25 33  1  0  0  0  0
 26 28  1  0  0  0  0
 27 26  2  0  0  0  0
 31 23  1  0  0  0  0
M  END
$$$$
