GPG.pdb
 OpenBabel07022418243D

 30 30  0  0  1  0  0  0  0  0999 V2000
   -0.3400    0.0740    3.7370 N   0  0  0  0  0  0  0  0  0  0  0  0
   -0.3240   -1.2790    4.1460 C   0  0  0  0  0  0  0  0  0  0  0  0
    0.0660   -2.2880    3.1570 C   0  0  0  0  0  0  0  0  0  0  0  0
    0.0400   -3.5020    3.6320 O   0  0  0  0  0  0  0  0  0  0  0  0
   -1.3050    0.4110    3.5890 H   0  0  0  0  0  0  0  0  0  0  0  0
    0.2490    0.7240    4.2970 H   0  0  0  0  0  0  0  0  0  0  0  0
    0.3960   -1.3240    5.0240 H   0  0  0  0  0  0  0  0  0  0  0  0
   -1.2990   -1.5700    4.6500 H   0  0  0  0  0  0  0  0  0  0  0  0
    0.4380   -2.0600    1.8340 N   0  0  0  0  0  0  0  0  0  0  0  0
    0.7930   -3.1040    0.8980 C   0  0  0  0  0  0  0  0  0  0  0  0
    1.9810   -2.5050    0.1830 C   0  0  0  0  0  0  0  0  0  0  0  0
    2.0130   -1.0440    0.5620 C   0  0  0  0  0  0  0  0  0  0  0  0
    0.5690   -0.8720    1.0800 C   0  0  1  0  0  0  0  0  0  0  0  0
   -0.3810   -0.6660    0.0040 C   0  0  0  0  0  0  0  0  0  0  0  0
   -1.2920   -1.4860   -0.2150 O   0  0  0  0  0  0  0  0  0  0  0  0
    1.1420   -4.0090    1.4620 H   0  0  0  0  0  0  0  0  0  0  0  0
   -0.0120   -3.3660    0.1830 H   0  0  0  0  0  0  0  0  0  0  0  0
    1.8180   -2.6410   -0.9180 H   0  0  0  0  0  0  0  0  0  0  0  0
    2.9310   -3.0190    0.4380 H   0  0  0  0  0  0  0  0  0  0  0  0
    2.7310   -0.7980    1.3410 H   0  0  0  0  0  0  0  0  0  0  0  0
    2.1230   -0.4440   -0.3660 H   0  0  0  0  0  0  0  0  0  0  0  0
    0.6810    0.0590    1.7280 H   0  0  0  0  0  0  0  0  0  0  0  0
   -0.2910    0.4780   -0.8230 N   0  0  0  0  0  0  0  0  0  0  0  0
   -1.1810    0.7650   -1.9070 C   0  0  0  0  0  0  0  0  0  0  0  0
   -0.7850    2.0380   -2.5450 C   0  0  0  0  0  0  0  0  0  0  0  0
    0.2060    2.6580   -2.0900 O   0  0  0  0  0  0  0  0  0  0  0  0
   -1.4460    2.5990   -3.6280 O   0  0  0  0  0  0  0  0  0  0  0  0
    0.4890    1.1600   -0.6210 H   0  0  0  0  0  0  0  0  0  0  0  0
   -1.2410   -0.0720   -2.6340 H   0  0  0  0  0  0  0  0  0  0  0  0
   -2.1910    0.9610   -1.4410 H   0  0  0  0  0  0  0  0  0  0  0  0
  1  2  1  0  0  0  0
  1  6  1  0  0  0  0
  2  8  1  0  0  0  0
  2  7  1  0  0  0  0
  3  4  2  0  0  0  0
  3  2  1  0  0  0  0
  5  1  1  0  0  0  0
  9  3  1  0  0  0  0
 10 16  1  0  0  0  0
 10  9  1  0  0  0  0
 11 19  1  0  0  0  0
 11 12  1  0  0  0  0
 11 10  1  0  0  0  0
 12 13  1  0  0  0  0
 12 20  1  0  0  0  0
 13 22  1  1  0  0  0
 13  9  1  0  0  0  0
 14 13  1  0  0  0  0
 15 14  2  0  0  0  0
 17 10  1  0  0  0  0
 18 11  1  0  0  0  0
 21 12  1  0  0  0  0
 23 28  1  0  0  0  0
 23 14  1  0  0  0  0
 24 30  1  0  0  0  0
 24 23  1  0  0  0  0
 25 26  1  0  0  0  0
 25 24  1  0  0  0  0
 27 25  2  0  0  0  0
 29 24  1  0  0  0  0
M  END
$$$$
