GPH.pdb
 OpenBabel07022418243D

 40 41  0  0  1  0  0  0  0  0999 V2000
    0.3780   -4.9110    2.1630 N   0  0  0  0  0  0  0  0  0  0  0  0
   -0.2700   -3.6810    1.7620 C   0  0  0  0  0  0  0  0  0  0  0  0
    0.1120   -2.5730    2.6950 C   0  0  0  0  0  0  0  0  0  0  0  0
    0.8940   -2.8640    3.6350 O   0  0  0  0  0  0  0  0  0  0  0  0
   -0.0120   -5.7130    1.6530 H   0  0  0  0  0  0  0  0  0  0  0  0
    1.4200   -4.8270    2.1120 H   0  0  0  0  0  0  0  0  0  0  0  0
   -1.3660   -3.8810    1.8380 H   0  0  0  0  0  0  0  0  0  0  0  0
   -0.0560   -3.4460    0.7170 H   0  0  0  0  0  0  0  0  0  0  0  0
   -0.3920   -1.2540    2.5160 N   0  0  0  0  0  0  0  0  0  0  0  0
   -0.0540   -0.1510    3.4040 C   0  0  0  0  0  0  0  0  0  0  0  0
   -1.3050    0.6820    3.3510 C   0  0  0  0  0  0  0  0  0  0  0  0
   -1.7450    0.5560    1.9290 C   0  0  0  0  0  0  0  0  0  0  0  0
   -1.2760   -0.7910    1.4910 C   0  0  1  0  0  0  0  0  0  0  0  0
   -0.6290   -0.6300    0.1690 C   0  0  0  0  0  0  0  0  0  0  0  0
   -1.3120   -0.2780   -0.8290 O   0  0  0  0  0  0  0  0  0  0  0  0
    0.1420   -0.5140    4.4360 H   0  0  0  0  0  0  0  0  0  0  0  0
    0.8400    0.3710    3.0660 H   0  0  0  0  0  0  0  0  0  0  0  0
   -2.0370    0.2340    4.0540 H   0  0  0  0  0  0  0  0  0  0  0  0
   -1.0270    1.7130    3.6420 H   0  0  0  0  0  0  0  0  0  0  0  0
   -2.8510    0.6400    1.8700 H   0  0  0  0  0  0  0  0  0  0  0  0
   -1.3400    1.3990    1.3500 H   0  0  0  0  0  0  0  0  0  0  0  0
   -2.1480   -1.4700    1.4190 H   0  0  0  0  0  0  0  0  0  0  0  0
    0.7530   -0.8610   -0.0250 N   0  0  0  0  0  0  0  0  0  0  0  0
    1.3870   -0.7070   -1.3200 C   0  0  1  0  0  0  0  0  0  0  0  0
    2.3520    0.4710   -1.2550 C   0  0  0  0  0  0  0  0  0  0  0  0
    1.5500    1.6730   -0.9120 C   0  0  0  0  0  0  0  0  0  0  0  0
    1.2520    2.1900    0.3310 C   0  0  0  0  0  0  0  0  0  0  0  0
    0.5010    3.2940    0.1760 N   0  0  0  0  0  0  0  0  0  0  0  0
    0.3100    3.4990   -1.1270 C   0  0  0  0  0  0  0  0  0  0  0  0
    0.9480    2.5150   -1.7850 N   0  0  0  0  0  0  0  0  0  0  0  0
    2.0760   -1.9490   -1.7190 C   0  0  0  0  0  0  0  0  0  0  0  0
    2.6740   -1.9850   -2.8230 O   0  0  0  0  0  0  0  0  0  0  0  0
    2.0990   -3.0870   -0.9330 O   0  0  0  0  0  0  0  0  0  0  0  0
    1.3190   -1.1490    0.7980 H   0  0  0  0  0  0  0  0  0  0  0  0
    0.6190   -0.4210   -2.1010 H   0  0  0  0  0  0  0  0  0  0  0  0
    3.0220    0.2470   -0.3740 H   0  0  0  0  0  0  0  0  0  0  0  0
    2.9340    0.5820   -2.1680 H   0  0  0  0  0  0  0  0  0  0  0  0
    1.5610    1.7920    1.2880 H   0  0  0  0  0  0  0  0  0  0  0  0
    0.1260    3.8950    0.9330 H   0  0  0  0  0  0  0  0  0  0  0  0
   -0.2460    4.2960   -1.6030 H   0  0  0  0  0  0  0  0  0  0  0  0
  2  7  1  0  0  0  0
  2  1  1  0  0  0  0
  2  3  1  0  0  0  0
  3  4  2  0  0  0  0
  5  1  1  0  0  0  0
  6  1  1  0  0  0  0
  8  2  1  0  0  0  0
  9  3  1  0  0  0  0
  9 10  1  0  0  0  0
 10 16  1  0  0  0  0
 11 10  1  0  0  0  0
 11 19  1  0  0  0  0
 11 18  1  0  0  0  0
 12 11  1  0  0  0  0
 13 22  1  6  0  0  0
 13 12  1  0  0  0  0
 13  9  1  0  0  0  0
 14 13  1  0  0  0  0
 15 14  2  0  0  0  0
 17 10  1  0  0  0  0
 20 12  1  0  0  0  0
 21 12  1  0  0  0  0
 23 14  1  0  0  0  0
 23 34  1  0  0  0  0
 24 35  1  6  0  0  0
 24 25  1  0  0  0  0
 24 23  1  0  0  0  0
 25 26  1  0  0  0  0
 25 36  1  0  0  0  0
 26 27  2  0  0  0  0
 27 38  1  0  0  0  0
 28 27  1  0  0  0  0
 28 39  1  0  0  0  0
 29 28  1  0  0  0  0
 30 29  2  0  0  0  0
 30 26  1  0  0  0  0
 31 24  1  0  0  0  0
 31 33  1  0  0  0  0
 32 31  2  0  0  0  0
 37 25  1  0  0  0  0
 40 29  1  0  0  0  0
M  END
$$$$
