GPI.pdb
 OpenBabel07022418243D

 42 42  0  0  1  0  0  0  0  0999 V2000
   -2.8120    2.9920    1.3900 N   0  0  0  0  0  0  0  0  0  0  0  0
   -1.4290    2.8860    1.0340 C   0  0  0  0  0  0  0  0  0  0  0  0
   -1.1980    1.7420    0.1220 C   0  0  0  0  0  0  0  0  0  0  0  0
   -2.1930    1.0380   -0.2140 O   0  0  0  0  0  0  0  0  0  0  0  0
   -2.8780    3.4510    2.3350 H   0  0  0  0  0  0  0  0  0  0  0  0
   -3.1980    2.0200    1.4890 H   0  0  0  0  0  0  0  0  0  0  0  0
   -1.0740    3.8440    0.5900 H   0  0  0  0  0  0  0  0  0  0  0  0
   -0.7930    2.7250    1.9360 H   0  0  0  0  0  0  0  0  0  0  0  0
    0.0890    1.4390   -0.3630 N   0  0  0  0  0  0  0  0  0  0  0  0
    1.2870    2.1870   -0.0360 C   0  0  0  0  0  0  0  0  0  0  0  0
    2.2930    1.8480   -1.1140 C   0  0  0  0  0  0  0  0  0  0  0  0
    1.7850    0.6060   -1.7950 C   0  0  0  0  0  0  0  0  0  0  0  0
    0.4130    0.3580   -1.2450 C   0  0  1  0  0  0  0  0  0  0  0  0
    0.2810   -0.9360   -0.5490 C   0  0  0  0  0  0  0  0  0  0  0  0
    0.5390   -1.9690   -1.2210 O   0  0  0  0  0  0  0  0  0  0  0  0
    1.6200    1.8690    0.9640 H   0  0  0  0  0  0  0  0  0  0  0  0
    1.0760    3.2690    0.0130 H   0  0  0  0  0  0  0  0  0  0  0  0
    2.3630    2.7170   -1.7800 H   0  0  0  0  0  0  0  0  0  0  0  0
    3.2620    1.6860   -0.5990 H   0  0  0  0  0  0  0  0  0  0  0  0
    1.7250    0.8270   -2.8800 H   0  0  0  0  0  0  0  0  0  0  0  0
    2.4680   -0.2530   -1.6800 H   0  0  0  0  0  0  0  0  0  0  0  0
   -0.3270    0.3670   -2.0720 H   0  0  0  0  0  0  0  0  0  0  0  0
    2.5370   -3.4050    0.9950 C   0  0  0  0  0  0  0  0  0  0  0  0
    2.1700   -2.2450    1.8710 C   0  0  0  0  0  0  0  0  0  0  0  0
    0.8130   -2.4530    2.5050 C   0  0  2  0  0  0  0  0  0  0  0  0
    0.8520   -3.6850    3.3260 C   0  0  0  0  0  0  0  0  0  0  0  0
   -0.2150   -2.4120    1.4120 C   0  0  2  0  0  0  0  0  0  0  0  0
   -0.1070   -1.0920    0.7900 N   0  0  0  0  0  0  0  0  0  0  0  0
   -1.5740   -2.7100    1.8400 C   0  0  0  0  0  0  0  0  0  0  0  0
   -1.8530   -3.7920    2.3910 O   0  0  0  0  0  0  0  0  0  0  0  0
   -2.5850   -1.7940    1.6430 O   0  0  0  0  0  0  0  0  0  0  0  0
    3.4330   -3.8950    1.4320 H   0  0  0  0  0  0  0  0  0  0  0  0
    1.7740   -4.1810    0.8860 H   0  0  0  0  0  0  0  0  0  0  0  0
    2.8350   -3.0560   -0.0350 H   0  0  0  0  0  0  0  0  0  0  0  0
    2.9400   -2.0570    2.6540 H   0  0  0  0  0  0  0  0  0  0  0  0
    2.0690   -1.3270    1.2320 H   0  0  0  0  0  0  0  0  0  0  0  0
    0.6600   -1.5570    3.1750 H   0  0  0  0  0  0  0  0  0  0  0  0
    1.6310   -3.5200    4.1290 H   0  0  0  0  0  0  0  0  0  0  0  0
    1.2020   -4.5870    2.7860 H   0  0  0  0  0  0  0  0  0  0  0  0
   -0.0670   -3.9220    3.8810 H   0  0  0  0  0  0  0  0  0  0  0  0
    0.0560   -3.1410    0.6190 H   0  0  0  0  0  0  0  0  0  0  0  0
   -0.3260   -0.2230    1.3620 H   0  0  0  0  0  0  0  0  0  0  0  0
  1  6  1  0  0  0  0
  1  5  1  0  0  0  0
  2  1  1  0  0  0  0
  2  8  1  0  0  0  0
  3  2  1  0  0  0  0
  4  3  2  0  0  0  0
  7  2  1  0  0  0  0
  9 10  1  0  0  0  0
  9  3  1  0  0  0  0
 10 17  1  0  0  0  0
 10 16  1  0  0  0  0
 11 19  1  0  0  0  0
 11 10  1  0  0  0  0
 12 21  1  0  0  0  0
 12 13  1  0  0  0  0
 12 11  1  0  0  0  0
 13 22  1  6  0  0  0
 13 14  1  0  0  0  0
 13  9  1  0  0  0  0
 14 28  1  0  0  0  0
 15 14  2  0  0  0  0
 18 11  1  0  0  0  0
 20 12  1  0  0  0  0
 23 32  1  0  0  0  0
 23 24  1  0  0  0  0
 24 25  1  0  0  0  0
 24 35  1  0  0  0  0
 25 37  1  1  0  0  0
 25 26  1  0  0  0  0
 26 40  1  0  0  0  0
 26 38  1  0  0  0  0
 27 41  1  6  0  0  0
 27 29  1  0  0  0  0
 27 25  1  0  0  0  0
 28 42  1  0  0  0  0
 28 27  1  0  0  0  0
 29 30  1  0  0  0  0
 31 29  2  0  0  0  0
 33 23  1  0  0  0  0
 34 23  1  0  0  0  0
 36 24  1  0  0  0  0
 39 26  1  0  0  0  0
M  END
$$$$
