GPK.pdb
 OpenBabel07022418243D

 44 44  0  0  1  0  0  0  0  0999 V2000
   -1.0220   -6.0000    0.2180 N   0  0  0  0  0  0  0  0  0  0  0  0
   -0.0100   -5.3050    0.9370 C   0  0  0  0  0  0  0  0  0  0  0  0
    0.2350   -3.9230    0.4920 C   0  0  0  0  0  0  0  0  0  0  0  0
    1.1220   -3.2470    1.1130 O   0  0  0  0  0  0  0  0  0  0  0  0
   -1.9870   -5.8400    0.5310 H   0  0  0  0  0  0  0  0  0  0  0  0
   -0.8130   -7.0170    0.0660 H   0  0  0  0  0  0  0  0  0  0  0  0
   -0.3070   -5.3100    2.0240 H   0  0  0  0  0  0  0  0  0  0  0  0
    0.9380   -5.9120    0.9090 H   0  0  0  0  0  0  0  0  0  0  0  0
   -0.4480   -3.2990   -0.5730 N   0  0  0  0  0  0  0  0  0  0  0  0
   -1.4400   -3.9080   -1.4360 C   0  0  0  0  0  0  0  0  0  0  0  0
   -1.4740   -2.9680   -2.6430 C   0  0  0  0  0  0  0  0  0  0  0  0
   -1.2880   -1.6410   -1.9660 C   0  0  0  0  0  0  0  0  0  0  0  0
   -0.2430   -1.8990   -0.9420 C   0  0  1  0  0  0  0  0  0  0  0  0
   -0.3820   -1.0070    0.2450 C   0  0  0  0  0  0  0  0  0  0  0  0
   -0.7480   -1.4960    1.3290 O   0  0  0  0  0  0  0  0  0  0  0  0
   -2.4510   -3.9340   -1.0160 H   0  0  0  0  0  0  0  0  0  0  0  0
   -1.0760   -4.9110   -1.7720 H   0  0  0  0  0  0  0  0  0  0  0  0
   -0.6480   -3.2350   -3.3220 H   0  0  0  0  0  0  0  0  0  0  0  0
   -2.4560   -3.0510   -3.1660 H   0  0  0  0  0  0  0  0  0  0  0  0
   -2.2750   -1.3810   -1.5030 H   0  0  0  0  0  0  0  0  0  0  0  0
   -1.0250   -0.8360   -2.6850 H   0  0  0  0  0  0  0  0  0  0  0  0
    0.7550   -1.8030   -1.3590 H   0  0  0  0  0  0  0  0  0  0  0  0
   -0.1170    0.3770    0.1990 N   0  0  0  0  0  0  0  0  0  0  0  0
   -0.2470    1.2740    1.3530 C   0  0  1  0  0  0  0  0  0  0  0  0
    1.0280    2.0150    1.5990 C   0  0  0  0  0  0  0  0  0  0  0  0
    0.9660    2.9220    2.7800 C   0  0  0  0  0  0  0  0  0  0  0  0
    2.2080    3.6960    3.0820 C   0  0  0  0  0  0  0  0  0  0  0  0
    3.4350    2.9260    3.3910 C   0  0  0  0  0  0  0  0  0  0  0  0
    3.9410    2.0610    2.3830 N   0  0  0  0  0  0  0  0  0  0  0  0
   -1.3140    2.2380    0.9950 C   0  0  0  0  0  0  0  0  0  0  0  0
   -1.8290    2.2150   -0.1880 O   0  0  0  0  0  0  0  0  0  0  0  0
   -1.8390    3.1950    1.8250 O   0  0  0  0  0  0  0  0  0  0  0  0
    0.1870    0.7730   -0.7110 H   0  0  0  0  0  0  0  0  0  0  0  0
   -0.5750    0.7470    2.2650 H   0  0  0  0  0  0  0  0  0  0  0  0
    1.2700    2.6730    0.7100 H   0  0  0  0  0  0  0  0  0  0  0  0
    1.9040    1.3430    1.6810 H   0  0  0  0  0  0  0  0  0  0  0  0
    0.7710    2.2960    3.7130 H   0  0  0  0  0  0  0  0  0  0  0  0
    0.0720    3.6120    2.7840 H   0  0  0  0  0  0  0  0  0  0  0  0
    1.9750    4.3000    4.0120 H   0  0  0  0  0  0  0  0  0  0  0  0
    2.4090    4.4780    2.3130 H   0  0  0  0  0  0  0  0  0  0  0  0
    3.2410    2.2780    4.2950 H   0  0  0  0  0  0  0  0  0  0  0  0
    4.2390    3.6680    3.6190 H   0  0  0  0  0  0  0  0  0  0  0  0
    4.5040    1.3180    2.8120 H   0  0  0  0  0  0  0  0  0  0  0  0
    4.4170    2.5520    1.5940 H   0  0  0  0  0  0  0  0  0  0  0  0
  1  5  1  0  0  0  0
  1  2  1  0  0  0  0
  2  7  1  0  0  0  0
  3  2  1  0  0  0  0
  3  4  2  0  0  0  0
  6  1  1  0  0  0  0
  8  2  1  0  0  0  0
  9  3  1  0  0  0  0
 10 16  1  0  0  0  0
 10  9  1  0  0  0  0
 11 12  1  0  0  0  0
 11 10  1  0  0  0  0
 12 20  1  0  0  0  0
 12 13  1  0  0  0  0
 13 22  1  6  0  0  0
 13  9  1  0  0  0  0
 13 14  1  0  0  0  0
 14 15  2  0  0  0  0
 17 10  1  0  0  0  0
 18 11  1  0  0  0  0
 19 11  1  0  0  0  0
 21 12  1  0  0  0  0
 23 14  1  0  0  0  0
 23 24  1  0  0  0  0
 24 25  1  0  0  0  0
 24 34  1  1  0  0  0
 25 36  1  0  0  0  0
 25 26  1  0  0  0  0
 26 38  1  0  0  0  0
 26 27  1  0  0  0  0
 26 37  1  0  0  0  0
 27 28  1  0  0  0  0
 27 39  1  0  0  0  0
 28 42  1  0  0  0  0
 28 41  1  0  0  0  0
 29 43  1  0  0  0  0
 29 28  1  0  0  0  0
 30 24  1  0  0  0  0
 30 32  1  0  0  0  0
 31 30  2  0  0  0  0
 33 23  1  0  0  0  0
 35 25  1  0  0  0  0
 40 27  1  0  0  0  0
 44 29  1  0  0  0  0
M  END
$$$$
