GPL.pdb
 OpenBabel07022418243D

 42 42  0  0  1  0  0  0  0  0999 V2000
    0.5980   -4.6440    3.0260 N   0  0  0  0  0  0  0  0  0  0  0  0
    1.8770   -4.2120    2.6100 C   0  0  0  0  0  0  0  0  0  0  0  0
    1.8730   -3.4720    1.3410 C   0  0  0  0  0  0  0  0  0  0  0  0
    2.9830   -3.0240    0.8660 O   0  0  0  0  0  0  0  0  0  0  0  0
    0.2250   -4.1730    3.8780 H   0  0  0  0  0  0  0  0  0  0  0  0
    0.4620   -5.6770    3.0420 H   0  0  0  0  0  0  0  0  0  0  0  0
    2.5500   -5.1060    2.5690 H   0  0  0  0  0  0  0  0  0  0  0  0
    2.2620   -3.5200    3.4270 H   0  0  0  0  0  0  0  0  0  0  0  0
    0.6900   -3.2160    0.5950 N   0  0  0  0  0  0  0  0  0  0  0  0
   -0.6070   -3.6580    0.9890 C   0  0  0  0  0  0  0  0  0  0  0  0
   -1.6210   -3.2640   -0.0680 C   0  0  0  0  0  0  0  0  0  0  0  0
   -0.7110   -3.0140   -1.2530 C   0  0  0  0  0  0  0  0  0  0  0  0
    0.5700   -2.4890   -0.6440 C   0  0  1  0  0  0  0  0  0  0  0  0
    0.3820   -1.0350   -0.4610 C   0  0  0  0  0  0  0  0  0  0  0  0
    0.2710   -0.3380   -1.5000 O   0  0  0  0  0  0  0  0  0  0  0  0
   -0.9220   -3.2380    1.9880 H   0  0  0  0  0  0  0  0  0  0  0  0
   -0.6570   -4.7770    1.1200 H   0  0  0  0  0  0  0  0  0  0  0  0
   -2.3820   -4.0220   -0.2490 H   0  0  0  0  0  0  0  0  0  0  0  0
   -2.0970   -2.3280    0.2670 H   0  0  0  0  0  0  0  0  0  0  0  0
   -1.1840   -2.2120   -1.8680 H   0  0  0  0  0  0  0  0  0  0  0  0
   -0.5480   -3.9280   -1.8540 H   0  0  0  0  0  0  0  0  0  0  0  0
    1.3840   -2.7330   -1.3550 H   0  0  0  0  0  0  0  0  0  0  0  0
    0.6850    4.0530   -0.0880 C   0  0  0  0  0  0  0  0  0  0  0  0
    1.5200    3.1790    0.7670 C   0  0  0  0  0  0  0  0  0  0  0  0
    1.3910    3.7060    2.1980 C   0  0  0  0  0  0  0  0  0  0  0  0
    1.3800    1.7260    0.6780 C   0  0  0  0  0  0  0  0  0  0  0  0
    0.1330    1.0240    1.0080 C   0  0  2  0  0  0  0  0  0  0  0  0
    0.3260   -0.4310    0.8090 N   0  0  0  0  0  0  0  0  0  0  0  0
   -1.1320    1.4460    0.4090 C   0  0  0  0  0  0  0  0  0  0  0  0
   -1.8200    0.6200   -0.3110 O   0  0  0  0  0  0  0  0  0  0  0  0
   -1.7360    2.6850    0.5190 O   0  0  0  0  0  0  0  0  0  0  0  0
    1.3550    4.8630   -0.5700 H   0  0  0  0  0  0  0  0  0  0  0  0
   -0.0180    4.6780    0.4990 H   0  0  0  0  0  0  0  0  0  0  0  0
    0.2390    3.5760   -0.9820 H   0  0  0  0  0  0  0  0  0  0  0  0
    2.6060    3.4140    0.5070 H   0  0  0  0  0  0  0  0  0  0  0  0
    2.2420    3.3990    2.8180 H   0  0  0  0  0  0  0  0  0  0  0  0
    1.4180    4.8120    2.1130 H   0  0  0  0  0  0  0  0  0  0  0  0
    0.4010    3.4430    2.6270 H   0  0  0  0  0  0  0  0  0  0  0  0
    1.7640    1.4210   -0.3560 H   0  0  0  0  0  0  0  0  0  0  0  0
    2.1780    1.2790    1.3790 H   0  0  0  0  0  0  0  0  0  0  0  0
   -0.0300    1.1190    2.1300 H   0  0  0  0  0  0  0  0  0  0  0  0
    0.4300   -1.0700    1.6260 H   0  0  0  0  0  0  0  0  0  0  0  0
  1  6  1  0  0  0  0
  1  5  1  0  0  0  0
  2  1  1  0  0  0  0
  2  8  1  0  0  0  0
  3  2  1  0  0  0  0
  4  3  2  0  0  0  0
  7  2  1  0  0  0  0
  9 10  1  0  0  0  0
  9  3  1  0  0  0  0
 10 17  1  0  0  0  0
 10 16  1  0  0  0  0
 11 19  1  0  0  0  0
 11 10  1  0  0  0  0
 12 13  1  0  0  0  0
 12 11  1  0  0  0  0
 13 22  1  6  0  0  0
 13 14  1  0  0  0  0
 13  9  1  0  0  0  0
 14 28  1  0  0  0  0
 15 14  2  0  0  0  0
 18 11  1  0  0  0  0
 20 12  1  0  0  0  0
 21 12  1  0  0  0  0
 23 33  1  0  0  0  0
 23 24  1  0  0  0  0
 24 25  1  0  0  0  0
 25 38  1  0  0  0  0
 25 36  1  0  0  0  0
 26 24  1  0  0  0  0
 26 27  1  0  0  0  0
 26 40  1  0  0  0  0
 27 41  1  1  0  0  0
 28 27  1  0  0  0  0
 28 42  1  0  0  0  0
 29 31  1  0  0  0  0
 29 27  1  0  0  0  0
 30 29  2  0  0  0  0
 32 23  1  0  0  0  0
 34 23  1  0  0  0  0
 35 24  1  0  0  0  0
 37 25  1  0  0  0  0
 39 26  1  0  0  0  0
M  END
$$$$
