GPP.pdb
 OpenBabel07022418243D

 37 38  0  0  1  0  0  0  0  0999 V2000
   -0.7720   -5.2860    1.9640 N   0  0  0  0  0  0  0  0  0  0  0  0
   -0.4990   -4.2550    2.8820 C   0  0  0  0  0  0  0  0  0  0  0  0
   -0.2100   -2.9030    2.3340 C   0  0  0  0  0  0  0  0  0  0  0  0
    0.0320   -2.0450    3.2670 O   0  0  0  0  0  0  0  0  0  0  0  0
   -1.7880   -5.5290    1.8720 H   0  0  0  0  0  0  0  0  0  0  0  0
   -0.1960   -6.1610    2.0730 H   0  0  0  0  0  0  0  0  0  0  0  0
   -1.3710   -4.1940    3.5880 H   0  0  0  0  0  0  0  0  0  0  0  0
    0.3470   -4.5670    3.5730 H   0  0  0  0  0  0  0  0  0  0  0  0
   -0.1760   -2.4990    1.0090 N   0  0  0  0  0  0  0  0  0  0  0  0
   -0.4920   -3.3370   -0.1730 C   0  0  0  0  0  0  0  0  0  0  0  0
   -1.5270   -2.4160   -0.8300 C   0  0  0  0  0  0  0  0  0  0  0  0
   -1.2190   -0.9980   -0.2970 C   0  0  0  0  0  0  0  0  0  0  0  0
    0.1300   -1.2670    0.3430 C   0  0  1  0  0  0  0  0  0  0  0  0
    0.7850   -0.1880    1.0110 C   0  0  0  0  0  0  0  0  0  0  0  0
    1.2670   -0.3730    2.1890 O   0  0  0  0  0  0  0  0  0  0  0  0
   -0.8640   -4.3100    0.0240 H   0  0  0  0  0  0  0  0  0  0  0  0
    0.4300   -3.2910   -0.8090 H   0  0  0  0  0  0  0  0  0  0  0  0
   -2.5150   -2.7420   -0.5090 H   0  0  0  0  0  0  0  0  0  0  0  0
   -1.3980   -2.4090   -1.9380 H   0  0  0  0  0  0  0  0  0  0  0  0
   -1.9870   -0.6900    0.4130 H   0  0  0  0  0  0  0  0  0  0  0  0
   -1.1460   -0.3040   -1.1290 H   0  0  0  0  0  0  0  0  0  0  0  0
    0.7920   -1.5870   -0.5400 H   0  0  0  0  0  0  0  0  0  0  0  0
    0.9870    1.1180    0.5250 N   0  0  0  0  0  0  0  0  0  0  0  0
    0.5730    1.6410   -0.7510 C   0  0  0  0  0  0  0  0  0  0  0  0
    1.3520    2.9590   -0.9340 C   0  0  0  0  0  0  0  0  0  0  0  0
    2.4620    2.7900    0.0730 C   0  0  0  0  0  0  0  0  0  0  0  0
    1.6780    2.1860    1.2510 C   0  0  1  0  0  0  0  0  0  0  0  0
    0.7060    3.2130    1.6820 C   0  0  0  0  0  0  0  0  0  0  0  0
   -0.5120    3.0760    1.4070 O   0  0  0  0  0  0  0  0  0  0  0  0
    1.0970    4.3390    2.3900 O   0  0  0  0  0  0  0  0  0  0  0  0
    0.7670    0.9910   -1.6040 H   0  0  0  0  0  0  0  0  0  0  0  0
   -0.5210    1.8960   -0.6830 H   0  0  0  0  0  0  0  0  0  0  0  0
    0.7070    3.7930   -0.5740 H   0  0  0  0  0  0  0  0  0  0  0  0
    1.6930    3.0890   -1.9610 H   0  0  0  0  0  0  0  0  0  0  0  0
    2.9710    3.7130    0.3450 H   0  0  0  0  0  0  0  0  0  0  0  0
    3.1710    1.9960   -0.2880 H   0  0  0  0  0  0  0  0  0  0  0  0
    2.3320    1.8160    2.0370 H   0  0  0  0  0  0  0  0  0  0  0  0
  1  6  1  0  0  0  0
  1  2  1  0  0  0  0
  2  8  1  0  0  0  0
  2  7  1  0  0  0  0
  3  2  1  0  0  0  0
  3  4  2  0  0  0  0
  5  1  1  0  0  0  0
  9  3  1  0  0  0  0
 10 16  1  0  0  0  0
 10  9  1  0  0  0  0
 11 18  1  0  0  0  0
 11 12  1  0  0  0  0
 11 10  1  0  0  0  0
 12 13  1  0  0  0  0
 12 20  1  0  0  0  0
 13 22  1  6  0  0  0
 13  9  1  0  0  0  0
 13 14  1  0  0  0  0
 14 15  2  0  0  0  0
 17 10  1  0  0  0  0
 19 11  1  0  0  0  0
 21 12  1  0  0  0  0
 23 14  1  0  0  0  0
 23 27  1  0  0  0  0
 24 32  1  0  0  0  0
 24 23  1  0  0  0  0
 25 24  1  0  0  0  0
 25 33  1  0  0  0  0
 25 26  1  0  0  0  0
 26 35  1  0  0  0  0
 26 27  1  0  0  0  0
 27 28  1  0  0  0  0
 27 37  1  1  0  0  0
 28 30  1  0  0  0  0
 29 28  2  0  0  0  0
 31 24  1  0  0  0  0
 34 25  1  0  0  0  0
 36 26  1  0  0  0  0
M  END
$$$$
