GPV.pdb
 OpenBabel07022418243D

 39 39  0  0  1  0  0  0  0  0999 V2000
   -2.6950   -2.8910    3.9660 N   0  0  0  0  0  0  0  0  0  0  0  0
   -1.5730   -3.3750    3.2240 C   0  0  0  0  0  0  0  0  0  0  0  0
   -1.0440   -2.3180    2.3360 C   0  0  0  0  0  0  0  0  0  0  0  0
   -1.6100   -1.2120    2.3470 O   0  0  0  0  0  0  0  0  0  0  0  0
   -2.4370   -2.3290    4.7850 H   0  0  0  0  0  0  0  0  0  0  0  0
   -3.3590   -2.3910    3.3220 H   0  0  0  0  0  0  0  0  0  0  0  0
   -0.7920   -3.6880    3.9770 H   0  0  0  0  0  0  0  0  0  0  0  0
   -1.8090   -4.3020    2.6530 H   0  0  0  0  0  0  0  0  0  0  0  0
    0.0530   -2.5660    1.5200 N   0  0  0  0  0  0  0  0  0  0  0  0
    0.6950   -3.9260    1.4960 C   0  0  0  0  0  0  0  0  0  0  0  0
    0.9240   -4.1500   -0.0060 C   0  0  0  0  0  0  0  0  0  0  0  0
    0.6320   -2.8010   -0.6410 C   0  0  0  0  0  0  0  0  0  0  0  0
    0.8650   -1.8950    0.5660 C   0  0  1  0  0  0  0  0  0  0  0  0
    0.6670   -0.5230    0.2170 C   0  0  0  0  0  0  0  0  0  0  0  0
    0.7450   -0.2460   -1.0410 O   0  0  0  0  0  0  0  0  0  0  0  0
    1.6720   -3.8420    1.9800 H   0  0  0  0  0  0  0  0  0  0  0  0
    0.0250   -4.6890    1.8750 H   0  0  0  0  0  0  0  0  0  0  0  0
    0.2220   -4.8960   -0.4030 H   0  0  0  0  0  0  0  0  0  0  0  0
    1.9740   -4.4070   -0.2170 H   0  0  0  0  0  0  0  0  0  0  0  0
    1.3040   -2.5650   -1.4710 H   0  0  0  0  0  0  0  0  0  0  0  0
   -0.4440   -2.7200   -0.8900 H   0  0  0  0  0  0  0  0  0  0  0  0
    1.9420   -2.1020    0.9020 H   0  0  0  0  0  0  0  0  0  0  0  0
    1.1300    4.0880   -0.2580 C   0  0  0  0  0  0  0  0  0  0  0  0
    1.4360    2.7160    0.2980 C   0  0  0  0  0  0  0  0  0  0  0  0
    2.4790    2.0920   -0.5820 C   0  0  0  0  0  0  0  0  0  0  0  0
    0.2070    1.9160    0.5100 C   0  0  2  0  0  0  0  0  0  0  0  0
    0.4030    0.5930    1.0410 N   0  0  0  0  0  0  0  0  0  0  0  0
   -0.7840    1.9860   -0.6020 C   0  0  0  0  0  0  0  0  0  0  0  0
   -1.4420    0.9820   -0.9590 O   0  0  0  0  0  0  0  0  0  0  0  0
   -1.0310    3.1580   -1.3000 O   0  0  0  0  0  0  0  0  0  0  0  0
    0.1860    4.5170    0.1400 H   0  0  0  0  0  0  0  0  0  0  0  0
    1.0960    4.0920   -1.3710 H   0  0  0  0  0  0  0  0  0  0  0  0
    1.9150    4.8300    0.0250 H   0  0  0  0  0  0  0  0  0  0  0  0
    1.9550    2.9180    1.2840 H   0  0  0  0  0  0  0  0  0  0  0  0
    2.1390    2.0390   -1.6310 H   0  0  0  0  0  0  0  0  0  0  0  0
    3.3300    2.8370   -0.6090 H   0  0  0  0  0  0  0  0  0  0  0  0
    2.9260    1.1750   -0.1850 H   0  0  0  0  0  0  0  0  0  0  0  0
   -0.3620    2.4600    1.3550 H   0  0  0  0  0  0  0  0  0  0  0  0
    0.3830    0.4130    2.0940 H   0  0  0  0  0  0  0  0  0  0  0  0
  1  5  1  0  0  0  0
  2  1  1  0  0  0  0
  2  7  1  0  0  0  0
  3  4  2  0  0  0  0
  3  2  1  0  0  0  0
  6  1  1  0  0  0  0
  8  2  1  0  0  0  0
  9  3  1  0  0  0  0
 10  9  1  0  0  0  0
 10 17  1  0  0  0  0
 10 16  1  0  0  0  0
 11 10  1  0  0  0  0
 12 11  1  0  0  0  0
 12 13  1  0  0  0  0
 13 22  1  1  0  0  0
 13  9  1  0  0  0  0
 14 13  1  0  0  0  0
 14 27  1  0  0  0  0
 15 14  2  0  0  0  0
 18 11  1  0  0  0  0
 19 11  1  0  0  0  0
 20 12  1  0  0  0  0
 21 12  1  0  0  0  0
 23 33  1  0  0  0  0
 23 31  1  0  0  0  0
 23 24  1  0  0  0  0
 24 26  1  0  0  0  0
 24 34  1  0  0  0  0
 25 37  1  0  0  0  0
 25 24  1  0  0  0  0
 26 27  1  0  0  0  0
 26 38  1  1  0  0  0
 27 39  1  0  0  0  0
 28 26  1  0  0  0  0
 29 28  1  0  0  0  0
 30 28  2  0  0  0  0
 32 23  1  0  0  0  0
 35 25  1  0  0  0  0
 36 25  1  0  0  0  0
M  END
$$$$
