GQC.pdb
 OpenBabel07022418233D

 37 36  0  0  1  0  0  0  0  0999 V2000
   -3.1970    0.5710   -2.2950 N   0  0  0  0  0  0  0  0  0  0  0  0
   -1.9820    1.2550   -2.6930 C   0  0  0  0  0  0  0  0  0  0  0  0
   -0.9240    0.9500   -1.6650 C   0  0  0  0  0  0  0  0  0  0  0  0
    0.2370    1.4150   -1.7580 O   0  0  0  0  0  0  0  0  0  0  0  0
   -4.0380    1.1670   -2.3840 H   0  0  0  0  0  0  0  0  0  0  0  0
   -3.3190   -0.3440   -2.7500 H   0  0  0  0  0  0  0  0  0  0  0  0
   -1.6290    0.9430   -3.6910 H   0  0  0  0  0  0  0  0  0  0  0  0
   -2.1830    2.3470   -2.6420 H   0  0  0  0  0  0  0  0  0  0  0  0
    0.1910    4.0090    1.7040 N   0  0  0  0  0  0  0  0  0  0  0  0
    0.3610    2.6040    1.6630 C   0  0  0  0  0  0  0  0  0  0  0  0
    1.4710    2.1370    1.3560 O   0  0  0  0  0  0  0  0  0  0  0  0
   -0.7790    1.7320    1.9860 C   0  0  0  0  0  0  0  0  0  0  0  0
   -0.5290    0.2740    1.8080 C   0  0  0  0  0  0  0  0  0  0  0  0
   -0.1860   -0.1660    0.4350 C   0  0  2  0  0  0  0  0  0  0  0  0
   -1.2040    0.1220   -0.5480 N   0  0  0  0  0  0  0  0  0  0  0  0
    0.1800   -1.6210    0.4250 C   0  0  0  0  0  0  0  0  0  0  0  0
   -0.3580   -2.4470   -0.3340 O   0  0  0  0  0  0  0  0  0  0  0  0
    0.1920    4.5620    0.8110 H   0  0  0  0  0  0  0  0  0  0  0  0
    0.0620    4.5570    2.5840 H   0  0  0  0  0  0  0  0  0  0  0  0
   -1.0720    1.9490    3.0540 H   0  0  0  0  0  0  0  0  0  0  0  0
   -1.6980    2.0140    1.4040 H   0  0  0  0  0  0  0  0  0  0  0  0
    0.3550    0.0280    2.4670 H   0  0  0  0  0  0  0  0  0  0  0  0
   -1.3720   -0.2770    2.2720 H   0  0  0  0  0  0  0  0  0  0  0  0
    0.7320    0.3590    0.1200 H   0  0  0  0  0  0  0  0  0  0  0  0
   -2.1680   -0.2880   -0.4330 H   0  0  0  0  0  0  0  0  0  0  0  0
    1.1830   -2.0810    1.3160 N   0  0  0  0  0  0  0  0  0  0  0  0
    1.6050   -3.4660    1.3810 C   0  0  1  0  0  0  0  0  0  0  0  0
    3.1030   -3.4620    1.0440 C   0  0  0  0  0  0  0  0  0  0  0  0
    4.0150   -2.4500    2.2400 S   0  0  0  0  0  0  0  0  0  0  0  0
    1.3980   -4.0160    2.7370 C   0  0  0  0  0  0  0  0  0  0  0  0
    0.9140   -3.2870    3.6300 O   0  0  0  0  0  0  0  0  0  0  0  0
    1.7250   -5.3190    3.0480 O   0  0  0  0  0  0  0  0  0  0  0  0
    1.6670   -1.4290    1.9700 H   0  0  0  0  0  0  0  0  0  0  0  0
    1.0660   -4.1150    0.6720 H   0  0  0  0  0  0  0  0  0  0  0  0
    3.2750   -3.0350    0.0430 H   0  0  0  0  0  0  0  0  0  0  0  0
    3.5240   -4.4890    1.0970 H   0  0  0  0  0  0  0  0  0  0  0  0
    5.3870   -2.7340    2.1120 H   0  0  0  0  0  0  0  0  0  0  0  0
  2  8  1  0  0  0  0
  2  1  1  0  0  0  0
  2  3  1  0  0  0  0
  3 15  1  0  0  0  0
  4  3  2  0  0  0  0
  5  1  1  0  0  0  0
  6  1  1  0  0  0  0
  7  2  1  0  0  0  0
  9 19  1  0  0  0  0
 10  9  1  0  0  0  0
 10 12  1  0  0  0  0
 11 10  2  0  0  0  0
 12 20  1  0  0  0  0
 13 12  1  0  0  0  0
 13 23  1  0  0  0  0
 13 22  1  0  0  0  0
 14 24  1  6  0  0  0
 14 13  1  0  0  0  0
 15 25  1  0  0  0  0
 15 14  1  0  0  0  0
 16 14  1  0  0  0  0
 16 26  1  0  0  0  0
 17 16  2  0  0  0  0
 18  9  1  0  0  0  0
 21 12  1  0  0  0  0
 26 27  1  0  0  0  0
 26 33  1  0  0  0  0
 27 34  1  6  0  0  0
 27 30  1  0  0  0  0
 28 36  1  0  0  0  0
 28 27  1  0  0  0  0
 28 29  1  0  0  0  0
 30 32  2  0  0  0  0
 30 31  1  0  0  0  0
 35 28  1  0  0  0  0
 37 29  1  0  0  0  0
M  END
$$$$
