GQF.pdb
 OpenBabel07022418233D

 46 46  0  0  1  0  0  0  0  0999 V2000
    1.4320   -5.2150   -0.8000 N   0  0  0  0  0  0  0  0  0  0  0  0
    0.6600   -3.9970   -0.7990 C   0  0  0  0  0  0  0  0  0  0  0  0
    1.5570   -2.8110   -0.8330 C   0  0  0  0  0  0  0  0  0  0  0  0
    2.7950   -2.9640   -0.8570 O   0  0  0  0  0  0  0  0  0  0  0  0
    1.3150   -5.7880   -1.6470 H   0  0  0  0  0  0  0  0  0  0  0  0
    1.3000   -5.7640    0.0700 H   0  0  0  0  0  0  0  0  0  0  0  0
    0.0860   -3.9660    0.1630 H   0  0  0  0  0  0  0  0  0  0  0  0
   -0.0350   -3.9990   -1.6540 H   0  0  0  0  0  0  0  0  0  0  0  0
   -1.3790    2.5720   -2.2650 N   0  0  0  0  0  0  0  0  0  0  0  0
   -0.1580    1.9870   -1.8180 C   0  0  0  0  0  0  0  0  0  0  0  0
    0.2020    2.3770   -0.6960 O   0  0  0  0  0  0  0  0  0  0  0  0
    0.5950    1.0290   -2.5950 C   0  0  0  0  0  0  0  0  0  0  0  0
    1.8400    0.4460   -2.1110 C   0  0  0  0  0  0  0  0  0  0  0  0
    1.9090   -0.3430   -0.8720 C   0  0  2  0  0  0  0  0  0  0  0  0
    1.0550   -1.5030   -0.8390 N   0  0  0  0  0  0  0  0  0  0  0  0
    1.9270    0.3800    0.4160 C   0  0  0  0  0  0  0  0  0  0  0  0
    2.7110    1.3480    0.5590 O   0  0  0  0  0  0  0  0  0  0  0  0
   -1.4330    2.9190   -3.2410 H   0  0  0  0  0  0  0  0  0  0  0  0
   -2.2100    2.6550   -1.6340 H   0  0  0  0  0  0  0  0  0  0  0  0
   -0.0780    0.1650   -2.9430 H   0  0  0  0  0  0  0  0  0  0  0  0
    0.7650    1.5250   -3.6130 H   0  0  0  0  0  0  0  0  0  0  0  0
    2.6000    1.2840   -2.0100 H   0  0  0  0  0  0  0  0  0  0  0  0
    2.3170   -0.1790   -2.9280 H   0  0  0  0  0  0  0  0  0  0  0  0
    2.9660   -0.8010   -0.8880 H   0  0  0  0  0  0  0  0  0  0  0  0
   -0.0070   -1.3810   -0.8190 H   0  0  0  0  0  0  0  0  0  0  0  0
    1.0980    0.0380    1.5130 N   0  0  0  0  0  0  0  0  0  0  0  0
    1.0800    0.7090    2.7810 C   0  0  1  0  0  0  0  0  0  0  0  0
   -0.2180    1.3430    3.1370 C   0  0  0  0  0  0  0  0  0  0  0  0
   -1.3820    0.4770    3.2300 C   0  0  0  0  0  0  0  0  0  0  0  0
   -2.1880    0.1860    2.1440 C   0  0  0  0  0  0  0  0  0  0  0  0
   -3.2630   -0.6390    2.3500 C   0  0  0  0  0  0  0  0  0  0  0  0
   -3.5630   -1.1810    3.5890 C   0  0  0  0  0  0  0  0  0  0  0  0
   -2.7670   -0.8960    4.6730 C   0  0  0  0  0  0  0  0  0  0  0  0
   -1.6800   -0.0660    4.4790 C   0  0  0  0  0  0  0  0  0  0  0  0
    1.5190   -0.1610    3.8980 C   0  0  0  0  0  0  0  0  0  0  0  0
    1.6110    0.2120    5.0840 O   0  0  0  0  0  0  0  0  0  0  0  0
    1.8640   -1.4990    3.6470 O   0  0  0  0  0  0  0  0  0  0  0  0
    0.4460   -0.7700    1.3870 H   0  0  0  0  0  0  0  0  0  0  0  0
    1.8350    1.5540    2.7580 H   0  0  0  0  0  0  0  0  0  0  0  0
   -0.1310    1.9180    4.0840 H   0  0  0  0  0  0  0  0  0  0  0  0
   -0.4660    2.1340    2.3630 H   0  0  0  0  0  0  0  0  0  0  0  0
   -1.9440    0.6130    1.1900 H   0  0  0  0  0  0  0  0  0  0  0  0
   -3.8900   -0.8620    1.4930 H   0  0  0  0  0  0  0  0  0  0  0  0
   -4.4450   -1.8350    3.6720 H   0  0  0  0  0  0  0  0  0  0  0  0
   -3.0210   -1.3320    5.6320 H   0  0  0  0  0  0  0  0  0  0  0  0
   -1.0900    0.1270    5.3670 H   0  0  0  0  0  0  0  0  0  0  0  0
  1  2  1  0  0  0  0
  1  6  1  0  0  0  0
  2  7  1  0  0  0  0
  3  2  1  0  0  0  0
  4  3  2  0  0  0  0
  5  1  1  0  0  0  0
  8  2  1  0  0  0  0
  9 10  1  0  0  0  0
  9 19  1  0  0  0  0
 10 11  2  0  0  0  0
 12 13  1  0  0  0  0
 12 10  1  0  0  0  0
 13 22  1  0  0  0  0
 13 14  1  0  0  0  0
 14 24  1  6  0  0  0
 14 15  1  0  0  0  0
 14 16  1  0  0  0  0
 15  3  1  0  0  0  0
 15 25  1  0  0  0  0
 16 17  2  0  0  0  0
 16 26  1  0  0  0  0
 18  9  1  0  0  0  0
 20 12  1  0  0  0  0
 21 12  1  0  0  0  0
 23 13  1  0  0  0  0
 26 27  1  0  0  0  0
 27 39  1  6  0  0  0
 27 28  1  0  0  0  0
 27 35  1  0  0  0  0
 28 29  1  0  0  0  0
 28 40  1  0  0  0  0
 29 34  1  0  0  0  0
 30 31  1  0  0  0  0
 30 29  2  0  0  0  0
 31 32  2  0  0  0  0
 32 44  1  0  0  0  0
 32 33  1  0  0  0  0
 33 45  1  0  0  0  0
 34 33  2  0  0  0  0
 34 46  1  0  0  0  0
 35 36  1  0  0  0  0
 37 35  2  0  0  0  0
 38 26  1  0  0  0  0
 41 28  1  0  0  0  0
 42 30  1  0  0  0  0
 43 31  1  0  0  0  0
M  END
$$$$
