GQK.pdb
 OpenBabel07022418233D

 47 46  0  0  1  0  0  0  0  0999 V2000
    4.2960   -1.7420    1.9360 N   0  0  0  0  0  0  0  0  0  0  0  0
    4.9330   -1.4130    0.7000 C   0  0  0  0  0  0  0  0  0  0  0  0
    3.9420   -1.3450   -0.4020 C   0  0  0  0  0  0  0  0  0  0  0  0
    4.2870   -1.0690   -1.5800 O   0  0  0  0  0  0  0  0  0  0  0  0
    4.8130   -1.3440    2.7570 H   0  0  0  0  0  0  0  0  0  0  0  0
    4.1510   -2.7690    2.0680 H   0  0  0  0  0  0  0  0  0  0  0  0
    5.6210   -2.2720    0.4490 H   0  0  0  0  0  0  0  0  0  0  0  0
    5.5600   -0.5190    0.7340 H   0  0  0  0  0  0  0  0  0  0  0  0
    0.8880   -4.8980    1.3890 N   0  0  0  0  0  0  0  0  0  0  0  0
    1.3720   -4.3200    0.1830 C   0  0  0  0  0  0  0  0  0  0  0  0
    2.6120   -4.2680    0.0280 O   0  0  0  0  0  0  0  0  0  0  0  0
    0.4690   -3.7990   -0.8660 C   0  0  0  0  0  0  0  0  0  0  0  0
    1.0980   -2.8250   -1.7770 C   0  0  0  0  0  0  0  0  0  0  0  0
    1.5600   -1.5290   -1.2360 C   0  0  2  0  0  0  0  0  0  0  0  0
    2.5410   -1.5880   -0.1920 N   0  0  0  0  0  0  0  0  0  0  0  0
    0.4580   -0.5940   -0.8820 C   0  0  0  0  0  0  0  0  0  0  0  0
   -0.4930   -0.4160   -1.6820 O   0  0  0  0  0  0  0  0  0  0  0  0
    1.0280   -5.9070    1.5790 H   0  0  0  0  0  0  0  0  0  0  0  0
    0.3980   -4.2580    2.0510 H   0  0  0  0  0  0  0  0  0  0  0  0
   -0.4870   -3.4420   -0.4120 H   0  0  0  0  0  0  0  0  0  0  0  0
    0.1390   -4.7140   -1.4470 H   0  0  0  0  0  0  0  0  0  0  0  0
    2.0040   -3.3270   -2.2440 H   0  0  0  0  0  0  0  0  0  0  0  0
    0.4260   -2.6970   -2.6820 H   0  0  0  0  0  0  0  0  0  0  0  0
    2.1030   -1.0370   -2.1210 H   0  0  0  0  0  0  0  0  0  0  0  0
    2.2860   -1.7920    0.8200 H   0  0  0  0  0  0  0  0  0  0  0  0
    0.4260    0.1200    0.3350 N   0  0  0  0  0  0  0  0  0  0  0  0
   -0.6850    1.0090    0.5990 C   0  0  1  0  0  0  0  0  0  0  0  0
   -1.3620    0.6870    1.9000 C   0  0  0  0  0  0  0  0  0  0  0  0
   -2.5120    1.5190    2.2850 C   0  0  0  0  0  0  0  0  0  0  0  0
   -3.6660    1.5150    1.3240 C   0  0  0  0  0  0  0  0  0  0  0  0
   -4.7750    2.4070    1.8400 C   0  0  0  0  0  0  0  0  0  0  0  0
   -5.2080    1.9000    3.1250 N   0  0  0  0  0  0  0  0  0  0  0  0
   -0.1510    2.3930    0.6190 C   0  0  0  0  0  0  0  0  0  0  0  0
    1.0770    2.5730    0.4460 O   0  0  0  0  0  0  0  0  0  0  0  0
   -0.9580    3.4960    0.8230 O   0  0  0  0  0  0  0  0  0  0  0  0
    1.1730    0.0200    1.0330 H   0  0  0  0  0  0  0  0  0  0  0  0
   -1.3920    0.9910   -0.2620 H   0  0  0  0  0  0  0  0  0  0  0  0
   -0.6100    0.7220    2.7140 H   0  0  0  0  0  0  0  0  0  0  0  0
   -1.6740   -0.3900    1.8380 H   0  0  0  0  0  0  0  0  0  0  0  0
   -2.2330    2.5660    2.5040 H   0  0  0  0  0  0  0  0  0  0  0  0
   -2.8650    1.1280    3.2890 H   0  0  0  0  0  0  0  0  0  0  0  0
   -3.3870    1.7000    0.2900 H   0  0  0  0  0  0  0  0  0  0  0  0
   -4.0910    0.4670    1.3510 H   0  0  0  0  0  0  0  0  0  0  0  0
   -4.4730    3.4480    1.9710 H   0  0  0  0  0  0  0  0  0  0  0  0
   -5.6010    2.3400    1.1020 H   0  0  0  0  0  0  0  0  0  0  0  0
   -5.8220    1.0520    2.9540 H   0  0  0  0  0  0  0  0  0  0  0  0
   -5.8190    2.6050    3.5930 H   0  0  0  0  0  0  0  0  0  0  0  0
  1  6  1  0  0  0  0
  1  5  1  0  0  0  0
  2  8  1  0  0  0  0
  2  1  1  0  0  0  0
  3 15  1  0  0  0  0
  3  2  1  0  0  0  0
  4  3  2  0  0  0  0
  7  2  1  0  0  0  0
  9 18  1  0  0  0  0
  9 19  1  0  0  0  0
 10  9  1  0  0  0  0
 11 10  2  0  0  0  0
 12 20  1  0  0  0  0
 12 10  1  0  0  0  0
 13 14  1  0  0  0  0
 13 12  1  0  0  0  0
 14 24  1  6  0  0  0
 14 16  1  0  0  0  0
 14 15  1  0  0  0  0
 15 25  1  0  0  0  0
 16 26  1  0  0  0  0
 17 16  2  0  0  0  0
 21 12  1  0  0  0  0
 22 13  1  0  0  0  0
 23 13  1  0  0  0  0
 26 27  1  0  0  0  0
 26 36  1  0  0  0  0
 27 37  1  6  0  0  0
 27 33  1  0  0  0  0
 27 28  1  0  0  0  0
 28 29  1  0  0  0  0
 28 38  1  0  0  0  0
 29 40  1  0  0  0  0
 29 41  1  0  0  0  0
 30 43  1  0  0  0  0
 30 31  1  0  0  0  0
 30 29  1  0  0  0  0
 31 44  1  0  0  0  0
 31 32  1  0  0  0  0
 32 47  1  0  0  0  0
 33 35  1  0  0  0  0
 34 33  2  0  0  0  0
 39 28  1  0  0  0  0
 42 30  1  0  0  0  0
 45 31  1  0  0  0  0
 46 32  1  0  0  0  0
M  END
$$$$
