GQR.pdb
 OpenBabel07022418233D

 49 48  0  0  1  0  0  0  0  0999 V2000
    1.7840   -5.0900    1.8930 N   0  0  0  0  0  0  0  0  0  0  0  0
    0.6740   -4.7290    1.0240 C   0  0  0  0  0  0  0  0  0  0  0  0
    0.9970   -3.4130    0.4090 C   0  0  0  0  0  0  0  0  0  0  0  0
    2.0820   -2.8070    0.6700 O   0  0  0  0  0  0  0  0  0  0  0  0
    1.5230   -5.1510    2.8860 H   0  0  0  0  0  0  0  0  0  0  0  0
    2.2930   -5.9470    1.5480 H   0  0  0  0  0  0  0  0  0  0  0  0
   -0.2940   -4.7330    1.5650 H   0  0  0  0  0  0  0  0  0  0  0  0
    0.6070   -5.5340    0.2580 H   0  0  0  0  0  0  0  0  0  0  0  0
    2.5480    1.6800   -3.2380 N   0  0  0  0  0  0  0  0  0  0  0  0
    2.1780    0.3720   -2.8210 C   0  0  0  0  0  0  0  0  0  0  0  0
    2.9770   -0.2280   -2.0590 O   0  0  0  0  0  0  0  0  0  0  0  0
    0.9260   -0.2720   -3.2460 C   0  0  0  0  0  0  0  0  0  0  0  0
    0.6030   -1.5690   -2.5820 C   0  0  0  0  0  0  0  0  0  0  0  0
    0.4680   -1.4440   -1.1020 C   0  0  2  0  0  0  0  0  0  0  0  0
    0.1330   -2.7500   -0.4990 N   0  0  0  0  0  0  0  0  0  0  0  0
   -0.4750   -0.4040   -0.6550 C   0  0  0  0  0  0  0  0  0  0  0  0
   -0.3030    0.7910   -0.9930 O   0  0  0  0  0  0  0  0  0  0  0  0
    1.8500    2.4120   -3.4830 H   0  0  0  0  0  0  0  0  0  0  0  0
    3.5540    1.9170   -3.3050 H   0  0  0  0  0  0  0  0  0  0  0  0
    0.9900   -0.5000   -4.3690 H   0  0  0  0  0  0  0  0  0  0  0  0
    0.0410    0.4250   -3.2150 H   0  0  0  0  0  0  0  0  0  0  0  0
    1.4090   -2.3080   -2.8230 H   0  0  0  0  0  0  0  0  0  0  0  0
   -0.3600   -1.9280   -3.0610 H   0  0  0  0  0  0  0  0  0  0  0  0
    1.4640   -1.2000   -0.6800 H   0  0  0  0  0  0  0  0  0  0  0  0
   -0.7760   -3.1870   -0.7610 H   0  0  0  0  0  0  0  0  0  0  0  0
    1.2780    0.9830    5.8060 N   0  0  0  0  0  0  0  0  0  0  0  0
    1.4100    0.7400    4.4140 C   0  0  0  0  0  0  0  0  0  0  0  0
    2.2070    1.4480    3.6540 N   0  0  0  0  0  0  0  0  0  0  0  0
    0.6790   -0.2960    3.7730 N   0  0  0  0  0  0  0  0  0  0  0  0
    0.0430   -0.0300    2.4680 C   0  0  0  0  0  0  0  0  0  0  0  0
   -1.0880    0.9250    2.6120 C   0  0  0  0  0  0  0  0  0  0  0  0
   -1.8430    1.3140    1.4120 C   0  0  0  0  0  0  0  0  0  0  0  0
   -2.5470    0.2350    0.6490 C   0  0  2  0  0  0  0  0  0  0  0  0
   -1.5920   -0.7220    0.1620 N   0  0  0  0  0  0  0  0  0  0  0  0
   -3.4090    0.7850   -0.4140 C   0  0  0  0  0  0  0  0  0  0  0  0
   -3.2470    0.4030   -1.5980 O   0  0  0  0  0  0  0  0  0  0  0  0
   -4.3880    1.7150   -0.1110 O   0  0  0  0  0  0  0  0  0  0  0  0
    0.4820    1.5170    6.1750 H   0  0  0  0  0  0  0  0  0  0  0  0
    1.9960    0.6170    6.4570 H   0  0  0  0  0  0  0  0  0  0  0  0
    2.7430    2.2140    4.1530 H   0  0  0  0  0  0  0  0  0  0  0  0
    0.6100   -1.2190    4.2500 H   0  0  0  0  0  0  0  0  0  0  0  0
    0.8030    0.4060    1.7780 H   0  0  0  0  0  0  0  0  0  0  0  0
   -0.3410   -1.0150    2.1580 H   0  0  0  0  0  0  0  0  0  0  0  0
   -1.7750    0.5940    3.4340 H   0  0  0  0  0  0  0  0  0  0  0  0
   -0.6280    1.8810    3.0240 H   0  0  0  0  0  0  0  0  0  0  0  0
   -2.6710    2.0150    1.7590 H   0  0  0  0  0  0  0  0  0  0  0  0
   -1.2310    1.9710    0.7520 H   0  0  0  0  0  0  0  0  0  0  0  0
   -3.2110   -0.2960    1.4030 H   0  0  0  0  0  0  0  0  0  0  0  0
   -1.7220   -1.7260    0.4080 H   0  0  0  0  0  0  0  0  0  0  0  0
  1  5  1  0  0  0  0
  2  7  1  0  0  0  0
  2  1  1  0  0  0  0
  3  4  2  0  0  0  0
  3  2  1  0  0  0  0
  6  1  1  0  0  0  0
  8  2  1  0  0  0  0
  9 10  1  0  0  0  0
 10 11  2  0  0  0  0
 12 21  1  0  0  0  0
 12 10  1  0  0  0  0
 12 13  1  0  0  0  0
 13 14  1  0  0  0  0
 14 24  1  1  0  0  0
 14 16  1  0  0  0  0
 14 15  1  0  0  0  0
 15  3  1  0  0  0  0
 16 34  1  0  0  0  0
 17 16  2  0  0  0  0
 18  9  1  0  0  0  0
 19  9  1  0  0  0  0
 20 12  1  0  0  0  0
 22 13  1  0  0  0  0
 23 13  1  0  0  0  0
 25 15  1  0  0  0  0
 26 38  1  0  0  0  0
 26 39  1  0  0  0  0
 27 26  1  0  0  0  0
 28 40  1  0  0  0  0
 28 27  2  0  0  0  0
 29 41  1  0  0  0  0
 29 27  1  0  0  0  0
 30 31  1  0  0  0  0
 30 29  1  0  0  0  0
 31 45  1  0  0  0  0
 31 44  1  0  0  0  0
 32 46  1  0  0  0  0
 32 31  1  0  0  0  0
 33 48  1  1  0  0  0
 33 32  1  0  0  0  0
 34 49  1  0  0  0  0
 34 33  1  0  0  0  0
 35 37  1  0  0  0  0
 35 33  1  0  0  0  0
 36 35  2  0  0  0  0
 42 30  1  0  0  0  0
 43 30  1  0  0  0  0
 47 32  1  0  0  0  0
M  END
$$$$
