GQV.pdb
 OpenBabel07022418233D

 42 41  0  0  1  0  0  0  0  0999 V2000
   -3.6590   -4.2910    3.2320 N   0  0  0  0  0  0  0  0  0  0  0  0
   -3.1440   -3.8920    1.9340 C   0  0  0  0  0  0  0  0  0  0  0  0
   -1.8490   -3.1610    2.1470 C   0  0  0  0  0  0  0  0  0  0  0  0
   -1.3810   -2.9810    3.2920 O   0  0  0  0  0  0  0  0  0  0  0  0
   -2.8730   -4.3030    3.9210 H   0  0  0  0  0  0  0  0  0  0  0  0
   -4.3740   -3.6000    3.5950 H   0  0  0  0  0  0  0  0  0  0  0  0
   -2.9110   -4.8180    1.3660 H   0  0  0  0  0  0  0  0  0  0  0  0
   -3.9010   -3.2740    1.4510 H   0  0  0  0  0  0  0  0  0  0  0  0
    1.3970   -2.5350   -3.1790 N   0  0  0  0  0  0  0  0  0  0  0  0
    1.2670   -1.9950   -1.8350 C   0  0  0  0  0  0  0  0  0  0  0  0
    1.0580   -0.7810   -1.8310 O   0  0  0  0  0  0  0  0  0  0  0  0
    1.4040   -2.9580   -0.7780 C   0  0  0  0  0  0  0  0  0  0  0  0
    1.3420   -2.5750    0.6320 C   0  0  0  0  0  0  0  0  0  0  0  0
    0.1530   -1.9300    1.1830 C   0  0  2  0  0  0  0  0  0  0  0  0
   -1.0850   -2.6370    1.0840 N   0  0  0  0  0  0  0  0  0  0  0  0
    0.0060   -0.4880    0.8850 C   0  0  0  0  0  0  0  0  0  0  0  0
   -1.1190   -0.0800    0.5030 O   0  0  0  0  0  0  0  0  0  0  0  0
    2.1060   -3.2760   -3.3880 H   0  0  0  0  0  0  0  0  0  0  0  0
    0.8080   -2.2130   -3.9600 H   0  0  0  0  0  0  0  0  0  0  0  0
    2.3490   -3.5490   -1.0050 H   0  0  0  0  0  0  0  0  0  0  0  0
    0.6130   -3.7550   -0.9480 H   0  0  0  0  0  0  0  0  0  0  0  0
    2.2020   -1.8470    0.8010 H   0  0  0  0  0  0  0  0  0  0  0  0
    1.6440   -3.4240    1.3200 H   0  0  0  0  0  0  0  0  0  0  0  0
    0.3340   -1.9130    2.3180 H   0  0  0  0  0  0  0  0  0  0  0  0
   -1.4580   -2.7760    0.1070 H   0  0  0  0  0  0  0  0  0  0  0  0
    2.3000    2.5890    2.6680 C   0  0  0  0  0  0  0  0  0  0  0  0
    0.9920    2.7140    1.9640 C   0  0  0  0  0  0  0  0  0  0  0  0
    0.6370    4.1450    1.6280 C   0  0  0  0  0  0  0  0  0  0  0  0
    0.8880    1.8670    0.7120 C   0  0  2  0  0  0  0  0  0  0  0  0
    1.0500    0.4590    1.0050 N   0  0  0  0  0  0  0  0  0  0  0  0
    1.8620    2.3560   -0.2920 C   0  0  0  0  0  0  0  0  0  0  0  0
    1.8340    3.5570   -0.6590 O   0  0  0  0  0  0  0  0  0  0  0  0
    2.8330    1.5510   -0.8690 O   0  0  0  0  0  0  0  0  0  0  0  0
    2.6090    3.6100    3.0020 H   0  0  0  0  0  0  0  0  0  0  0  0
    2.2290    1.9720    3.5860 H   0  0  0  0  0  0  0  0  0  0  0  0
    3.0800    2.1150    2.0370 H   0  0  0  0  0  0  0  0  0  0  0  0
    0.1990    2.3550    2.6670 H   0  0  0  0  0  0  0  0  0  0  0  0
    1.5210    4.7490    1.3220 H   0  0  0  0  0  0  0  0  0  0  0  0
    0.2370    4.6770    2.5370 H   0  0  0  0  0  0  0  0  0  0  0  0
   -0.1870    4.1710    0.8930 H   0  0  0  0  0  0  0  0  0  0  0  0
   -0.1430    2.0230    0.3350 H   0  0  0  0  0  0  0  0  0  0  0  0
    1.9790    0.1100    1.3220 H   0  0  0  0  0  0  0  0  0  0  0  0
  1  6  1  0  0  0  0
  1  5  1  0  0  0  0
  2  3  1  0  0  0  0
  2  1  1  0  0  0  0
  3  4  2  0  0  0  0
  7  2  1  0  0  0  0
  8  2  1  0  0  0  0
  9 10  1  0  0  0  0
 10 11  2  0  0  0  0
 10 12  1  0  0  0  0
 12 13  1  0  0  0  0
 13 22  1  0  0  0  0
 13 14  1  0  0  0  0
 13 23  1  0  0  0  0
 14 24  1  1  0  0  0
 15 14  1  0  0  0  0
 15  3  1  0  0  0  0
 16 30  1  0  0  0  0
 16 14  1  0  0  0  0
 17 16  2  0  0  0  0
 18  9  1  0  0  0  0
 19  9  1  0  0  0  0
 20 12  1  0  0  0  0
 21 12  1  0  0  0  0
 25 15  1  0  0  0  0
 26 34  1  0  0  0  0
 26 35  1  0  0  0  0
 27 37  1  0  0  0  0
 27 26  1  0  0  0  0
 28 27  1  0  0  0  0
 28 39  1  0  0  0  0
 29 41  1  6  0  0  0
 29 30  1  0  0  0  0
 29 27  1  0  0  0  0
 30 42  1  0  0  0  0
 31 29  1  0  0  0  0
 32 31  1  0  0  0  0
 33 31  2  0  0  0  0
 36 26  1  0  0  0  0
 38 28  1  0  0  0  0
 40 28  1  0  0  0  0
M  END
$$$$
