GQW.pdb
 OpenBabel07022418233D

 50 51  0  0  1  0  0  0  0  0999 V2000
    4.9450   -3.6120    0.5990 N   0  0  0  0  0  0  0  0  0  0  0  0
    4.6350   -3.6490    2.0040 C   0  0  0  0  0  0  0  0  0  0  0  0
    3.7930   -2.4600    2.3620 C   0  0  0  0  0  0  0  0  0  0  0  0
    3.3960   -2.2760    3.5460 O   0  0  0  0  0  0  0  0  0  0  0  0
    4.0530   -3.5920    0.0580 H   0  0  0  0  0  0  0  0  0  0  0  0
    5.4340   -2.7090    0.4150 H   0  0  0  0  0  0  0  0  0  0  0  0
    5.5990   -3.6500    2.5550 H   0  0  0  0  0  0  0  0  0  0  0  0
    4.0360   -4.5360    2.2880 H   0  0  0  0  0  0  0  0  0  0  0  0
    3.7240    1.6250   -2.2130 N   0  0  0  0  0  0  0  0  0  0  0  0
    3.0870    1.4030   -0.9410 C   0  0  0  0  0  0  0  0  0  0  0  0
    1.8540    1.2820   -0.9810 O   0  0  0  0  0  0  0  0  0  0  0  0
    3.8940    1.3380    0.2620 C   0  0  0  0  0  0  0  0  0  0  0  0
    3.2440    0.9640    1.5440 C   0  0  0  0  0  0  0  0  0  0  0  0
    2.6000   -0.3350    1.6850 C   0  0  2  0  0  0  0  0  0  0  0  0
    3.3990   -1.4920    1.4280 N   0  0  0  0  0  0  0  0  0  0  0  0
    1.2830   -0.4520    1.0830 C   0  0  0  0  0  0  0  0  0  0  0  0
    1.0430   -1.3970    0.2910 O   0  0  0  0  0  0  0  0  0  0  0  0
    3.5320    0.9560   -2.9710 H   0  0  0  0  0  0  0  0  0  0  0  0
    4.3520    2.4190   -2.3780 H   0  0  0  0  0  0  0  0  0  0  0  0
    4.3000    2.3940    0.4210 H   0  0  0  0  0  0  0  0  0  0  0  0
    4.7680    0.6730    0.0140 H   0  0  0  0  0  0  0  0  0  0  0  0
    3.8840    1.2620    2.4360 H   0  0  0  0  0  0  0  0  0  0  0  0
    2.4060    1.7390    1.6580 H   0  0  0  0  0  0  0  0  0  0  0  0
    2.3960   -0.4400    2.8380 H   0  0  0  0  0  0  0  0  0  0  0  0
    3.7150   -1.6140    0.4210 H   0  0  0  0  0  0  0  0  0  0  0  0
    0.1830    0.4510    1.3300 N   0  0  0  0  0  0  0  0  0  0  0  0
   -1.1100    0.2670    0.6980 C   0  0  1  0  0  0  0  0  0  0  0  0
   -2.0970   -0.0110    1.8400 C   0  0  0  0  0  0  0  0  0  0  0  0
   -3.4730   -0.2200    1.3200 C   0  0  0  0  0  0  0  0  0  0  0  0
   -4.5340    0.6500    1.3510 C   0  0  0  0  0  0  0  0  0  0  0  0
   -5.6060    0.0780    0.7750 N   0  0  0  0  0  0  0  0  0  0  0  0
   -5.2400   -1.1540    0.3740 C   0  0  0  0  0  0  0  0  0  0  0  0
   -5.9740   -2.1280   -0.2640 C   0  0  0  0  0  0  0  0  0  0  0  0
   -5.3770   -3.3360   -0.5810 C   0  0  0  0  0  0  0  0  0  0  0  0
   -4.0730   -3.5470   -0.2600 C   0  0  0  0  0  0  0  0  0  0  0  0
   -3.3420   -2.5760    0.3760 C   0  0  0  0  0  0  0  0  0  0  0  0
   -3.9250   -1.3720    0.6960 C   0  0  0  0  0  0  0  0  0  0  0  0
   -1.4950    1.5340    0.0400 C   0  0  0  0  0  0  0  0  0  0  0  0
   -0.7540    2.5430    0.0910 O   0  0  0  0  0  0  0  0  0  0  0  0
   -2.6830    1.6830   -0.6650 O   0  0  0  0  0  0  0  0  0  0  0  0
    0.3610    1.2330    1.9780 H   0  0  0  0  0  0  0  0  0  0  0  0
   -1.1010   -0.5920    0.0130 H   0  0  0  0  0  0  0  0  0  0  0  0
   -2.0860    0.8700    2.5250 H   0  0  0  0  0  0  0  0  0  0  0  0
   -1.7570   -0.8810    2.4380 H   0  0  0  0  0  0  0  0  0  0  0  0
   -4.5030    1.6470    1.7770 H   0  0  0  0  0  0  0  0  0  0  0  0
   -6.5200    0.5460    0.6830 H   0  0  0  0  0  0  0  0  0  0  0  0
   -7.0140   -1.9430   -0.5130 H   0  0  0  0  0  0  0  0  0  0  0  0
   -5.9990   -4.0710   -1.0840 H   0  0  0  0  0  0  0  0  0  0  0  0
   -3.5920   -4.4850   -0.5010 H   0  0  0  0  0  0  0  0  0  0  0  0
   -2.3030   -2.7260    0.6400 H   0  0  0  0  0  0  0  0  0  0  0  0
  1  2  1  0  0  0  0
  2  8  1  0  0  0  0
  2  3  1  0  0  0  0
  2  7  1  0  0  0  0
  3  4  2  0  0  0  0
  5  1  1  0  0  0  0
  6  1  1  0  0  0  0
  9 10  1  0  0  0  0
 10 12  1  0  0  0  0
 11 10  2  0  0  0  0
 12 20  1  0  0  0  0
 12 13  1  0  0  0  0
 13 23  1  0  0  0  0
 13 14  1  0  0  0  0
 13 22  1  0  0  0  0
 14 24  1  1  0  0  0
 15 14  1  0  0  0  0
 15  3  1  0  0  0  0
 16 26  1  0  0  0  0
 16 14  1  0  0  0  0
 17 16  2  0  0  0  0
 18  9  1  0  0  0  0
 19  9  1  0  0  0  0
 21 12  1  0  0  0  0
 25 15  1  0  0  0  0
 26 41  1  0  0  0  0
 27 42  1  6  0  0  0
 27 26  1  0  0  0  0
 27 28  1  0  0  0  0
 28 44  1  0  0  0  0
 28 43  1  0  0  0  0
 29 30  2  0  0  0  0
 29 28  1  0  0  0  0
 30 45  1  0  0  0  0
 31 30  1  0  0  0  0
 32 37  1  0  0  0  0
 32 31  1  0  0  0  0
 33 32  2  0  0  0  0
 34 33  1  0  0  0  0
 34 35  2  0  0  0  0
 35 36  1  0  0  0  0
 36 50  1  0  0  0  0
 36 37  2  0  0  0  0
 37 29  1  0  0  0  0
 38 39  1  0  0  0  0
 38 27  1  0  0  0  0
 40 38  2  0  0  0  0
 46 31  1  0  0  0  0
 47 33  1  0  0  0  0
 48 34  1  0  0  0  0
 49 35  1  0  0  0  0
M  END
$$$$
