GRC.pdb
 OpenBabel07022418213D

 43 42  0  0  1  0  0  0  0  0999 V2000
   -2.8840   -4.1270   -1.8540 N   0  0  0  0  0  0  0  0  0  0  0  0
   -2.9350   -2.7170   -1.6300 C   0  0  0  0  0  0  0  0  0  0  0  0
   -1.7400   -2.2640   -0.8360 C   0  0  0  0  0  0  0  0  0  0  0  0
   -0.8950   -3.1260   -0.4870 O   0  0  0  0  0  0  0  0  0  0  0  0
   -2.0320   -4.3440   -2.4110 H   0  0  0  0  0  0  0  0  0  0  0  0
   -2.8310   -4.5980   -0.9190 H   0  0  0  0  0  0  0  0  0  0  0  0
   -3.8400   -2.5160   -0.9910 H   0  0  0  0  0  0  0  0  0  0  0  0
   -3.0470   -2.1190   -2.5360 H   0  0  0  0  0  0  0  0  0  0  0  0
    5.0250   -1.1550    0.4980 N   0  0  0  0  0  0  0  0  0  0  0  0
    4.1240   -1.4690   -0.5520 C   0  0  0  0  0  0  0  0  0  0  0  0
    4.2880   -2.5330   -1.2400 N   0  0  0  0  0  0  0  0  0  0  0  0
    3.0470   -0.6050   -0.8320 N   0  0  0  0  0  0  0  0  0  0  0  0
    1.9190   -0.9930   -1.6570 C   0  0  0  0  0  0  0  0  0  0  0  0
    0.9410    0.1320   -1.7730 C   0  0  0  0  0  0  0  0  0  0  0  0
    0.3630    0.6010   -0.4820 C   0  0  0  0  0  0  0  0  0  0  0  0
   -0.4040   -0.4290    0.2910 C   0  0  2  0  0  0  0  0  0  0  0  0
   -1.5290   -0.9310   -0.4690 N   0  0  0  0  0  0  0  0  0  0  0  0
   -0.8990    0.1780    1.5540 C   0  0  0  0  0  0  0  0  0  0  0  0
   -2.1340    0.1710    1.7700 O   0  0  0  0  0  0  0  0  0  0  0  0
    5.9920   -0.7720    0.3380 H   0  0  0  0  0  0  0  0  0  0  0  0
    4.6860   -1.3230    1.4870 H   0  0  0  0  0  0  0  0  0  0  0  0
    3.6630   -2.8170   -2.0190 H   0  0  0  0  0  0  0  0  0  0  0  0
    3.0720    0.3520   -0.4250 H   0  0  0  0  0  0  0  0  0  0  0  0
    1.4300   -1.8890   -1.2330 H   0  0  0  0  0  0  0  0  0  0  0  0
    2.2910   -1.2220   -2.6730 H   0  0  0  0  0  0  0  0  0  0  0  0
    0.0960   -0.1930   -2.4320 H   0  0  0  0  0  0  0  0  0  0  0  0
    1.3750    1.0180   -2.2820 H   0  0  0  0  0  0  0  0  0  0  0  0
    1.1640    1.0090    0.1880 H   0  0  0  0  0  0  0  0  0  0  0  0
   -0.3110    1.4450   -0.6910 H   0  0  0  0  0  0  0  0  0  0  0  0
    0.3080   -1.2750    0.5070 H   0  0  0  0  0  0  0  0  0  0  0  0
   -2.2450   -0.2230   -0.7680 H   0  0  0  0  0  0  0  0  0  0  0  0
   -0.0320    0.7610    2.5190 N   0  0  0  0  0  0  0  0  0  0  0  0
   -0.4980    1.3560    3.7550 C   0  0  1  0  0  0  0  0  0  0  0  0
    0.0910    0.5160    4.8960 C   0  0  0  0  0  0  0  0  0  0  0  0
   -0.4020    1.1370    6.5070 S   0  0  0  0  0  0  0  0  0  0  0  0
   -0.0380    2.7360    3.9380 C   0  0  0  0  0  0  0  0  0  0  0  0
   -0.3850    3.3480    4.9800 O   0  0  0  0  0  0  0  0  0  0  0  0
    0.7610    3.4340    3.0450 O   0  0  0  0  0  0  0  0  0  0  0  0
    0.9830    0.7340    2.2790 H   0  0  0  0  0  0  0  0  0  0  0  0
   -1.5800    1.3150    3.8760 H   0  0  0  0  0  0  0  0  0  0  0  0
    1.2030    0.6020    4.8240 H   0  0  0  0  0  0  0  0  0  0  0  0
   -0.1710   -0.5550    4.7470 H   0  0  0  0  0  0  0  0  0  0  0  0
   -1.2280    0.2380    7.2040 H   0  0  0  0  0  0  0  0  0  0  0  0
  1  2  1  0  0  0  0
  1  6  1  0  0  0  0
  2  7  1  0  0  0  0
  2  3  1  0  0  0  0
  3  4  2  0  0  0  0
  3 17  1  0  0  0  0
  5  1  1  0  0  0  0
  8  2  1  0  0  0  0
  9 21  1  0  0  0  0
 10  9  1  0  0  0  0
 11 10  2  0  0  0  0
 12 10  1  0  0  0  0
 12 23  1  0  0  0  0
 13 24  1  0  0  0  0
 13 12  1  0  0  0  0
 14 13  1  0  0  0  0
 14 15  1  0  0  0  0
 15 28  1  0  0  0  0
 15 16  1  0  0  0  0
 16 30  1  1  0  0  0
 16 18  1  0  0  0  0
 17 16  1  0  0  0  0
 18 19  2  0  0  0  0
 18 32  1  0  0  0  0
 20  9  1  0  0  0  0
 22 11  1  0  0  0  0
 25 13  1  0  0  0  0
 26 14  1  0  0  0  0
 27 14  1  0  0  0  0
 29 15  1  0  0  0  0
 31 17  1  0  0  0  0
 32 33  1  0  0  0  0
 33 40  1  1  0  0  0
 33 36  1  0  0  0  0
 33 34  1  0  0  0  0
 34 35  1  0  0  0  0
 35 43  1  0  0  0  0
 36 37  1  0  0  0  0
 38 36  2  0  0  0  0
 39 32  1  0  0  0  0
 41 34  1  0  0  0  0
 42 34  1  0  0  0  0
M  END
$$$$
