GRE.pdb
 OpenBabel07022418213D

 48 47  0  0  1  0  0  0  0  0999 V2000
    2.2730   -4.5320    0.2300 N   0  0  0  0  0  0  0  0  0  0  0  0
    1.7240   -3.7950    1.3410 C   0  0  0  0  0  0  0  0  0  0  0  0
    1.7100   -2.3340    0.9570 C   0  0  0  0  0  0  0  0  0  0  0  0
    2.1350   -1.9730   -0.1590 O   0  0  0  0  0  0  0  0  0  0  0  0
    1.6550   -5.3220   -0.0750 H   0  0  0  0  0  0  0  0  0  0  0  0
    2.4030   -3.9240   -0.6120 H   0  0  0  0  0  0  0  0  0  0  0  0
    2.2940   -3.9400    2.2890 H   0  0  0  0  0  0  0  0  0  0  0  0
    0.6970   -4.1720    1.5260 H   0  0  0  0  0  0  0  0  0  0  0  0
    2.3800   -1.0620   -3.3090 N   0  0  0  0  0  0  0  0  0  0  0  0
    3.1910   -0.1480   -2.6040 C   0  0  0  0  0  0  0  0  0  0  0  0
    4.4550   -0.4190   -2.4340 N   0  0  0  0  0  0  0  0  0  0  0  0
    2.7330    1.0830   -2.0440 N   0  0  0  0  0  0  0  0  0  0  0  0
    3.3980    1.6840   -0.8980 C   0  0  0  0  0  0  0  0  0  0  0  0
    3.1600    0.8130    0.3530 C   0  0  0  0  0  0  0  0  0  0  0  0
    1.6950    0.7980    0.5620 C   0  0  0  0  0  0  0  0  0  0  0  0
    1.1440    0.0230    1.7020 C   0  0  2  0  0  0  0  0  0  0  0  0
    1.2310   -1.3490    1.8230 N   0  0  0  0  0  0  0  0  0  0  0  0
   -0.1800    0.5480    2.0590 C   0  0  0  0  0  0  0  0  0  0  0  0
   -0.4500    1.7940    2.0950 O   0  0  0  0  0  0  0  0  0  0  0  0
    2.5050   -2.1070   -3.1530 H   0  0  0  0  0  0  0  0  0  0  0  0
    1.6460   -0.8040   -3.9910 H   0  0  0  0  0  0  0  0  0  0  0  0
    4.9140   -1.2660   -2.7830 H   0  0  0  0  0  0  0  0  0  0  0  0
    1.8910    1.5130   -2.5170 H   0  0  0  0  0  0  0  0  0  0  0  0
    2.8900    2.6500   -0.7070 H   0  0  0  0  0  0  0  0  0  0  0  0
    4.4870    1.8230   -1.0640 H   0  0  0  0  0  0  0  0  0  0  0  0
    3.6480    1.4120    1.1940 H   0  0  0  0  0  0  0  0  0  0  0  0
    3.7280   -0.0860    0.2790 H   0  0  0  0  0  0  0  0  0  0  0  0
    1.4020    1.8750    0.7730 H   0  0  0  0  0  0  0  0  0  0  0  0
    1.1660    0.6070   -0.4040 H   0  0  0  0  0  0  0  0  0  0  0  0
    1.8770    0.4140    2.5540 H   0  0  0  0  0  0  0  0  0  0  0  0
    0.8620   -1.7330    2.7780 H   0  0  0  0  0  0  0  0  0  0  0  0
   -1.2060   -0.3670    2.3790 N   0  0  0  0  0  0  0  0  0  0  0  0
   -2.5610    0.0620    2.7610 C   0  0  1  0  0  0  0  0  0  0  0  0
   -3.3980   -0.2230    1.5090 C   0  0  0  0  0  0  0  0  0  0  0  0
   -4.8430    0.1550    1.6940 C   0  0  0  0  0  0  0  0  0  0  0  0
   -5.6250   -0.1280    0.4470 C   0  0  0  0  0  0  0  0  0  0  0  0
   -5.5720    0.7070   -0.5090 O   0  0  0  0  0  0  0  0  0  0  0  0
   -2.9590   -0.7430    3.9160 C   0  0  0  0  0  0  0  0  0  0  0  0
   -4.0570   -0.5320    4.4740 O   0  0  0  0  0  0  0  0  0  0  0  0
   -6.4060   -1.2620    0.2920 O   0  0  0  0  0  0  0  0  0  0  0  0
   -2.1400   -1.7340    4.4000 O   0  0  0  0  0  0  0  0  0  0  0  0
   -1.0790   -1.4020    2.3660 H   0  0  0  0  0  0  0  0  0  0  0  0
   -2.5270    1.1580    2.9260 H   0  0  0  0  0  0  0  0  0  0  0  0
   -2.9310    0.3860    0.6940 H   0  0  0  0  0  0  0  0  0  0  0  0
   -3.3280   -1.2790    1.1970 H   0  0  0  0  0  0  0  0  0  0  0  0
   -5.3160   -0.3150    2.5530 H   0  0  0  0  0  0  0  0  0  0  0  0
   -4.9030    1.2740    1.8360 H   0  0  0  0  0  0  0  0  0  0  0  0
   -6.7890   -1.5710   -0.5900 H   0  0  0  0  0  0  0  0  0  0  0  0
  1  2  1  0  0  0  0
  2  8  1  0  0  0  0
  2  7  1  0  0  0  0
  3  2  1  0  0  0  0
  3 17  1  0  0  0  0
  4  3  2  0  0  0  0
  5  1  1  0  0  0  0
  6  1  1  0  0  0  0
  9 20  1  0  0  0  0
  9 10  1  0  0  0  0
 10 11  2  0  0  0  0
 10 12  1  0  0  0  0
 12 13  1  0  0  0  0
 13 24  1  0  0  0  0
 13 14  1  0  0  0  0
 14 15  1  0  0  0  0
 14 26  1  0  0  0  0
 15 28  1  0  0  0  0
 15 16  1  0  0  0  0
 16 17  1  0  0  0  0
 16 18  1  0  0  0  0
 16 30  1  1  0  0  0
 17 31  1  0  0  0  0
 18 19  2  0  0  0  0
 18 32  1  0  0  0  0
 21  9  1  0  0  0  0
 22 11  1  0  0  0  0
 23 12  1  0  0  0  0
 25 13  1  0  0  0  0
 27 14  1  0  0  0  0
 29 15  1  0  0  0  0
 32 33  1  0  0  0  0
 33 43  1  1  0  0  0
 33 38  1  0  0  0  0
 34 35  1  0  0  0  0
 34 33  1  0  0  0  0
 35 47  1  0  0  0  0
 35 46  1  0  0  0  0
 36 35  1  0  0  0  0
 37 36  2  0  0  0  0
 38 41  2  0  0  0  0
 38 39  1  0  0  0  0
 40 36  1  0  0  0  0
 42 32  1  0  0  0  0
 44 34  1  0  0  0  0
 45 34  1  0  0  0  0
 48 40  1  0  0  0  0
M  END
$$$$
