GRH.pdb
 OpenBabel07022418213D

 49 49  0  0  1  0  0  0  0  0999 V2000
    4.0700   -3.9870    3.2420 N   0  0  0  0  0  0  0  0  0  0  0  0
    3.8610   -3.9500    1.8190 C   0  0  0  0  0  0  0  0  0  0  0  0
    2.9560   -2.8170    1.5020 C   0  0  0  0  0  0  0  0  0  0  0  0
    2.6880   -2.6720    0.2680 O   0  0  0  0  0  0  0  0  0  0  0  0
    3.1660   -4.1120    3.7320 H   0  0  0  0  0  0  0  0  0  0  0  0
    4.5020   -3.0930    3.5480 H   0  0  0  0  0  0  0  0  0  0  0  0
    3.4200   -4.9280    1.5280 H   0  0  0  0  0  0  0  0  0  0  0  0
    4.8120   -3.8760    1.2490 H   0  0  0  0  0  0  0  0  0  0  0  0
    0.7790    4.4140   -1.7400 N   0  0  0  0  0  0  0  0  0  0  0  0
    1.6610    3.3190   -1.5550 C   0  0  0  0  0  0  0  0  0  0  0  0
    1.7050    2.3310   -2.4010 N   0  0  0  0  0  0  0  0  0  0  0  0
    2.5240    3.2860   -0.4230 N   0  0  0  0  0  0  0  0  0  0  0  0
    2.9520    2.0570    0.1610 C   0  0  0  0  0  0  0  0  0  0  0  0
    1.7920    1.2990    0.8480 C   0  0  0  0  0  0  0  0  0  0  0  0
    2.4000    0.0640    1.3900 C   0  0  0  0  0  0  0  0  0  0  0  0
    1.5610   -0.8860    2.1420 C   0  0  2  0  0  0  0  0  0  0  0  0
    2.4480   -1.9830    2.5190 N   0  0  0  0  0  0  0  0  0  0  0  0
    0.3910   -1.4600    1.4840 C   0  0  0  0  0  0  0  0  0  0  0  0
    0.3130   -2.6970    1.2470 O   0  0  0  0  0  0  0  0  0  0  0  0
    0.1660    4.7740   -0.9900 H   0  0  0  0  0  0  0  0  0  0  0  0
    0.7520    4.8710   -2.6730 H   0  0  0  0  0  0  0  0  0  0  0  0
    1.0760    2.3490   -3.2330 H   0  0  0  0  0  0  0  0  0  0  0  0
    2.8290    4.2190   -0.0400 H   0  0  0  0  0  0  0  0  0  0  0  0
    3.6930    2.2430    0.9580 H   0  0  0  0  0  0  0  0  0  0  0  0
    3.4000    1.3520   -0.5550 H   0  0  0  0  0  0  0  0  0  0  0  0
    1.0870    1.1240    0.0060 H   0  0  0  0  0  0  0  0  0  0  0  0
    1.4180    1.9910    1.6230 H   0  0  0  0  0  0  0  0  0  0  0  0
    3.2090    0.4100    2.1120 H   0  0  0  0  0  0  0  0  0  0  0  0
    2.9900   -0.4340    0.5820 H   0  0  0  0  0  0  0  0  0  0  0  0
    1.2650   -0.4150    3.1430 H   0  0  0  0  0  0  0  0  0  0  0  0
    2.7110   -2.1610    3.4980 H   0  0  0  0  0  0  0  0  0  0  0  0
   -0.7060   -0.6540    1.0880 N   0  0  0  0  0  0  0  0  0  0  0  0
   -1.8280   -1.3320    0.4330 C   0  0  1  0  0  0  0  0  0  0  0  0
   -2.9550   -1.2920    1.4490 C   0  0  0  0  0  0  0  0  0  0  0  0
   -4.1330   -1.9600    0.8720 C   0  0  0  0  0  0  0  0  0  0  0  0
   -5.1630   -1.4260    0.1500 C   0  0  0  0  0  0  0  0  0  0  0  0
   -6.0450   -2.4190   -0.1730 N   0  0  0  0  0  0  0  0  0  0  0  0
   -5.5500   -3.5480    0.3500 C   0  0  0  0  0  0  0  0  0  0  0  0
   -4.4000   -3.2850    0.9820 N   0  0  0  0  0  0  0  0  0  0  0  0
   -2.1550   -0.7210   -0.8520 C   0  0  0  0  0  0  0  0  0  0  0  0
   -1.5090    0.2880   -1.2650 O   0  0  0  0  0  0  0  0  0  0  0  0
   -3.1540   -1.1740   -1.6950 O   0  0  0  0  0  0  0  0  0  0  0  0
   -0.7450    0.3880    1.2540 H   0  0  0  0  0  0  0  0  0  0  0  0
   -1.6120   -2.4070    0.2830 H   0  0  0  0  0  0  0  0  0  0  0  0
   -3.1920   -0.2340    1.7060 H   0  0  0  0  0  0  0  0  0  0  0  0
   -2.6130   -1.8150    2.3830 H   0  0  0  0  0  0  0  0  0  0  0  0
   -5.2540   -0.3820   -0.1140 H   0  0  0  0  0  0  0  0  0  0  0  0
   -6.9180   -2.2530   -0.7270 H   0  0  0  0  0  0  0  0  0  0  0  0
   -6.0050   -4.5200    0.2770 H   0  0  0  0  0  0  0  0  0  0  0  0
  1  6  1  0  0  0  0
  1  5  1  0  0  0  0
  2  1  1  0  0  0  0
  3  2  1  0  0  0  0
  3 17  1  0  0  0  0
  4  3  2  0  0  0  0
  7  2  1  0  0  0  0
  8  2  1  0  0  0  0
  9 10  1  0  0  0  0
  9 20  1  0  0  0  0
 10 12  1  0  0  0  0
 11 10  2  0  0  0  0
 12 23  1  0  0  0  0
 12 13  1  0  0  0  0
 13 14  1  0  0  0  0
 13 24  1  0  0  0  0
 14 15  1  0  0  0  0
 14 27  1  0  0  0  0
 15 28  1  0  0  0  0
 15 16  1  0  0  0  0
 16 17  1  0  0  0  0
 16 30  1  1  0  0  0
 17 31  1  0  0  0  0
 18 16  1  0  0  0  0
 19 18  2  0  0  0  0
 21  9  1  0  0  0  0
 22 11  1  0  0  0  0
 25 13  1  0  0  0  0
 26 14  1  0  0  0  0
 29 15  1  0  0  0  0
 32 43  1  0  0  0  0
 32 18  1  0  0  0  0
 33 44  1  6  0  0  0
 33 32  1  0  0  0  0
 33 34  1  0  0  0  0
 34 45  1  0  0  0  0
 34 46  1  0  0  0  0
 35 39  1  0  0  0  0
 35 34  1  0  0  0  0
 36 35  2  0  0  0  0
 37 36  1  0  0  0  0
 37 38  1  0  0  0  0
 38 39  2  0  0  0  0
 40 33  1  0  0  0  0
 41 40  1  0  0  0  0
 42 40  2  0  0  0  0
 47 36  1  0  0  0  0
 48 37  1  0  0  0  0
 49 38  1  0  0  0  0
M  END
$$$$
