GRM.pdb
 OpenBabel07022418213D

 49 48  0  0  1  0  0  0  0  0999 V2000
    3.3910   -3.6940    1.1000 N   0  0  0  0  0  0  0  0  0  0  0  0
    3.2150   -2.5550    1.9490 C   0  0  0  0  0  0  0  0  0  0  0  0
    2.3610   -1.4990    1.3400 C   0  0  0  0  0  0  0  0  0  0  0  0
    1.9210   -1.7450    0.1930 O   0  0  0  0  0  0  0  0  0  0  0  0
    3.1000   -4.5920    1.5060 H   0  0  0  0  0  0  0  0  0  0  0  0
    3.0300   -3.5190    0.1370 H   0  0  0  0  0  0  0  0  0  0  0  0
    4.2090   -2.1270    2.2100 H   0  0  0  0  0  0  0  0  0  0  0  0
    2.7650   -2.8930    2.9070 H   0  0  0  0  0  0  0  0  0  0  0  0
    1.4930   -0.3800   -3.6860 N   0  0  0  0  0  0  0  0  0  0  0  0
    1.4760    0.9920   -3.3230 C   0  0  0  0  0  0  0  0  0  0  0  0
    0.5140    1.7560   -3.7330 N   0  0  0  0  0  0  0  0  0  0  0  0
    2.5120    1.5480   -2.5100 N   0  0  0  0  0  0  0  0  0  0  0  0
    2.2440    2.6670   -1.6330 C   0  0  0  0  0  0  0  0  0  0  0  0
    1.3280    2.2920   -0.4710 C   0  0  0  0  0  0  0  0  0  0  0  0
    2.0190    1.2140    0.2970 C   0  0  0  0  0  0  0  0  0  0  0  0
    1.2900    0.7050    1.4920 C   0  0  2  0  0  0  0  0  0  0  0  0
    2.1120   -0.3180    2.0850 N   0  0  0  0  0  0  0  0  0  0  0  0
   -0.0610    0.1990    1.2870 C   0  0  0  0  0  0  0  0  0  0  0  0
   -0.9180    0.8860    0.6710 O   0  0  0  0  0  0  0  0  0  0  0  0
    2.3090   -0.8980   -4.0450 H   0  0  0  0  0  0  0  0  0  0  0  0
    0.5980   -0.9040   -3.5780 H   0  0  0  0  0  0  0  0  0  0  0  0
   -0.2530    1.3520   -4.3350 H   0  0  0  0  0  0  0  0  0  0  0  0
    3.4570    1.0960   -2.5950 H   0  0  0  0  0  0  0  0  0  0  0  0
    3.2360    2.9940   -1.2150 H   0  0  0  0  0  0  0  0  0  0  0  0
    1.8040    3.5000   -2.2210 H   0  0  0  0  0  0  0  0  0  0  0  0
    0.3680    2.0260   -0.9040 H   0  0  0  0  0  0  0  0  0  0  0  0
    1.2170    3.2090    0.1440 H   0  0  0  0  0  0  0  0  0  0  0  0
    2.3860    0.4050   -0.3500 H   0  0  0  0  0  0  0  0  0  0  0  0
    2.9640    1.6930    0.7000 H   0  0  0  0  0  0  0  0  0  0  0  0
    1.2500    1.5540    2.2700 H   0  0  0  0  0  0  0  0  0  0  0  0
    2.5240   -0.2130    3.0350 H   0  0  0  0  0  0  0  0  0  0  0  0
   -4.1320   -3.2100    4.4580 C   0  0  0  0  0  0  0  0  0  0  0  0
   -4.4640   -3.0070    2.6860 S   0  0  0  0  0  0  0  0  0  0  0  0
   -4.2500   -1.2630    2.2460 C   0  0  0  0  0  0  0  0  0  0  0  0
   -2.8190   -0.8230    2.3830 C   0  0  0  0  0  0  0  0  0  0  0  0
   -1.8360   -1.5720    1.5420 C   0  0  2  0  0  0  0  0  0  0  0  0
   -0.4770   -1.0680    1.7620 N   0  0  0  0  0  0  0  0  0  0  0  0
   -2.1500   -1.5880    0.0880 C   0  0  0  0  0  0  0  0  0  0  0  0
   -3.2460   -2.0000   -0.3580 O   0  0  0  0  0  0  0  0  0  0  0  0
   -1.2580   -1.1500   -0.8990 O   0  0  0  0  0  0  0  0  0  0  0  0
   -5.1380   -3.2760    4.9670 H   0  0  0  0  0  0  0  0  0  0  0  0
   -3.6630   -2.2910    4.8580 H   0  0  0  0  0  0  0  0  0  0  0  0
   -3.5850   -4.1300    4.6670 H   0  0  0  0  0  0  0  0  0  0  0  0
   -4.6000   -1.1190    1.2130 H   0  0  0  0  0  0  0  0  0  0  0  0
   -4.8960   -0.6460    2.9220 H   0  0  0  0  0  0  0  0  0  0  0  0
   -2.7620    0.2800    2.1710 H   0  0  0  0  0  0  0  0  0  0  0  0
   -2.5450   -0.9860    3.4650 H   0  0  0  0  0  0  0  0  0  0  0  0
   -1.8520   -2.6460    1.8450 H   0  0  0  0  0  0  0  0  0  0  0  0
    0.1760   -1.6880    2.3000 H   0  0  0  0  0  0  0  0  0  0  0  0
  1  5  1  0  0  0  0
  1  2  1  0  0  0  0
  2  7  1  0  0  0  0
  2  8  1  0  0  0  0
  3  2  1  0  0  0  0
  3 17  1  0  0  0  0
  4  3  2  0  0  0  0
  6  1  1  0  0  0  0
  9 21  1  0  0  0  0
  9 10  1  0  0  0  0
 10 12  1  0  0  0  0
 11 10  2  0  0  0  0
 12 13  1  0  0  0  0
 13 24  1  0  0  0  0
 13 14  1  0  0  0  0
 14 27  1  0  0  0  0
 14 15  1  0  0  0  0
 15 29  1  0  0  0  0
 15 16  1  0  0  0  0
 16 17  1  0  0  0  0
 16 30  1  1  0  0  0
 17 31  1  0  0  0  0
 18 16  1  0  0  0  0
 18 37  1  0  0  0  0
 19 18  2  0  0  0  0
 20  9  1  0  0  0  0
 22 11  1  0  0  0  0
 23 12  1  0  0  0  0
 25 13  1  0  0  0  0
 26 14  1  0  0  0  0
 28 15  1  0  0  0  0
 32 43  1  0  0  0  0
 32 42  1  0  0  0  0
 32 41  1  0  0  0  0
 33 32  1  0  0  0  0
 34 35  1  0  0  0  0
 34 33  1  0  0  0  0
 34 45  1  0  0  0  0
 35 47  1  0  0  0  0
 36 37  1  0  0  0  0
 36 48  1  1  0  0  0
 36 35  1  0  0  0  0
 37 49  1  0  0  0  0
 38 36  1  0  0  0  0
 39 38  1  0  0  0  0
 40 38  2  0  0  0  0
 44 34  1  0  0  0  0
 46 35  1  0  0  0  0
M  END
$$$$
