GRN.pdb
 OpenBabel07022418213D

 46 45  0  0  1  0  0  0  0  0999 V2000
    1.4310   -3.5110   -0.9300 N   0  0  0  0  0  0  0  0  0  0  0  0
    2.7150   -3.3250   -0.3270 C   0  0  0  0  0  0  0  0  0  0  0  0
    2.7540   -2.0560    0.4790 C   0  0  0  0  0  0  0  0  0  0  0  0
    3.7830   -1.6990    1.0900 O   0  0  0  0  0  0  0  0  0  0  0  0
    1.0710   -4.4880   -0.9100 H   0  0  0  0  0  0  0  0  0  0  0  0
    1.3080   -3.0240   -1.8310 H   0  0  0  0  0  0  0  0  0  0  0  0
    3.4660   -3.2050   -1.1420 H   0  0  0  0  0  0  0  0  0  0  0  0
    2.9620   -4.1480    0.3660 H   0  0  0  0  0  0  0  0  0  0  0  0
   -1.4160    1.6680   -2.4330 N   0  0  0  0  0  0  0  0  0  0  0  0
   -0.1860    2.3090   -2.1640 C   0  0  0  0  0  0  0  0  0  0  0  0
    0.8770    1.9530   -2.8200 N   0  0  0  0  0  0  0  0  0  0  0  0
   -0.0590    3.3300   -1.2030 N   0  0  0  0  0  0  0  0  0  0  0  0
    1.0650    3.4940   -0.3360 C   0  0  0  0  0  0  0  0  0  0  0  0
    1.1900    2.4390    0.7300 C   0  0  0  0  0  0  0  0  0  0  0  0
    1.3170    1.0580    0.2140 C   0  0  0  0  0  0  0  0  0  0  0  0
    1.5010   -0.0080    1.2800 C   0  0  2  0  0  0  0  0  0  0  0  0
    1.5990   -1.2670    0.5340 N   0  0  0  0  0  0  0  0  0  0  0  0
    0.4580   -0.0520    2.2960 C   0  0  0  0  0  0  0  0  0  0  0  0
    0.2520    0.9230    3.0700 O   0  0  0  0  0  0  0  0  0  0  0  0
   -1.4080    0.6500   -2.6480 H   0  0  0  0  0  0  0  0  0  0  0  0
   -2.2810    2.2410   -2.4060 H   0  0  0  0  0  0  0  0  0  0  0  0
    0.8280    1.2160   -3.5260 H   0  0  0  0  0  0  0  0  0  0  0  0
   -0.8590    4.0230   -1.1200 H   0  0  0  0  0  0  0  0  0  0  0  0
    1.9990    3.3970   -0.9700 H   0  0  0  0  0  0  0  0  0  0  0  0
    1.1410    4.5210    0.0840 H   0  0  0  0  0  0  0  0  0  0  0  0
    2.1210    2.7130    1.3110 H   0  0  0  0  0  0  0  0  0  0  0  0
    0.3720    2.5500    1.4840 H   0  0  0  0  0  0  0  0  0  0  0  0
    0.3660    0.8150   -0.3580 H   0  0  0  0  0  0  0  0  0  0  0  0
    2.1370    0.9770   -0.5200 H   0  0  0  0  0  0  0  0  0  0  0  0
    2.4980    0.1330    1.7440 H   0  0  0  0  0  0  0  0  0  0  0  0
    0.7280   -1.5520    0.0300 H   0  0  0  0  0  0  0  0  0  0  0  0
   -2.1510   -3.4280    1.8050 N   0  0  0  0  0  0  0  0  0  0  0  0
   -3.0150   -2.3250    1.9700 C   0  0  0  0  0  0  0  0  0  0  0  0
   -4.0890   -2.3240    1.3170 O   0  0  0  0  0  0  0  0  0  0  0  0
   -2.7710   -1.1680    2.8430 C   0  0  0  0  0  0  0  0  0  0  0  0
   -1.4290   -1.1660    3.5350 C   0  0  2  0  0  0  0  0  0  0  0  0
   -0.4110   -1.1580    2.5200 N   0  0  0  0  0  0  0  0  0  0  0  0
   -1.2750   -2.2220    4.5270 C   0  0  0  0  0  0  0  0  0  0  0  0
   -2.1050   -2.3450    5.4490 O   0  0  0  0  0  0  0  0  0  0  0  0
   -0.2170   -3.1040    4.4720 O   0  0  0  0  0  0  0  0  0  0  0  0
   -1.9020   -4.1020    2.5590 H   0  0  0  0  0  0  0  0  0  0  0  0
   -1.6970   -3.6290    0.8650 H   0  0  0  0  0  0  0  0  0  0  0  0
   -3.5870   -1.1060    3.5950 H   0  0  0  0  0  0  0  0  0  0  0  0
   -2.8850   -0.2540    2.2020 H   0  0  0  0  0  0  0  0  0  0  0  0
   -1.4050   -0.1810    4.1070 H   0  0  0  0  0  0  0  0  0  0  0  0
   -0.2950   -1.9930    1.9200 H   0  0  0  0  0  0  0  0  0  0  0  0
  1  5  1  0  0  0  0
  1  2  1  0  0  0  0
  2  8  1  0  0  0  0
  2  3  1  0  0  0  0
  3 17  1  0  0  0  0
  3  4  2  0  0  0  0
  6  1  1  0  0  0  0
  7  2  1  0  0  0  0
  9 21  1  0  0  0  0
  9 10  1  0  0  0  0
 10 12  1  0  0  0  0
 11 10  2  0  0  0  0
 12 23  1  0  0  0  0
 12 13  1  0  0  0  0
 13 25  1  0  0  0  0
 13 14  1  0  0  0  0
 14 26  1  0  0  0  0
 14 27  1  0  0  0  0
 15 14  1  0  0  0  0
 15 16  1  0  0  0  0
 16 30  1  1  0  0  0
 16 18  1  0  0  0  0
 17 16  1  0  0  0  0
 18 37  1  0  0  0  0
 18 19  2  0  0  0  0
 20  9  1  0  0  0  0
 22 11  1  0  0  0  0
 24 13  1  0  0  0  0
 28 15  1  0  0  0  0
 29 15  1  0  0  0  0
 31 17  1  0  0  0  0
 32 33  1  0  0  0  0
 32 41  1  0  0  0  0
 33 35  1  0  0  0  0
 34 33  2  0  0  0  0
 35 36  1  0  0  0  0
 35 43  1  0  0  0  0
 36 45  1  1  0  0  0
 36 38  1  0  0  0  0
 37 36  1  0  0  0  0
 38 39  1  0  0  0  0
 40 38  2  0  0  0  0
 42 32  1  0  0  0  0
 44 35  1  0  0  0  0
 46 37  1  0  0  0  0
M  END
$$$$
