GSE.pdb
 OpenBabel07022418243D

 36 35  0  0  1  0  0  0  0  0999 V2000
    0.9750   -0.9450    4.4250 N   0  0  0  0  0  0  0  0  0  0  0  0
    2.2940   -1.1100    3.8270 C   0  0  0  0  0  0  0  0  0  0  0  0
    2.1550   -1.6220    2.4550 C   0  0  0  0  0  0  0  0  0  0  0  0
    3.1580   -1.8460    1.7330 O   0  0  0  0  0  0  0  0  0  0  0  0
    0.4350   -0.1750    3.9750 H   0  0  0  0  0  0  0  0  0  0  0  0
    0.4550   -1.8440    4.4930 H   0  0  0  0  0  0  0  0  0  0  0  0
    2.8260   -0.1500    3.8990 H   0  0  0  0  0  0  0  0  0  0  0  0
    2.8020   -1.8960    4.4430 H   0  0  0  0  0  0  0  0  0  0  0  0
   -1.3450   -3.3920    1.2340 O   0  0  0  0  0  0  0  0  0  0  0  0
   -0.1160   -3.6600    0.6350 C   0  0  0  0  0  0  0  0  0  0  0  0
    0.6740   -2.3790    0.5700 C   0  0  2  0  0  0  0  0  0  0  0  0
    0.8730   -1.8760    1.9130 N   0  0  0  0  0  0  0  0  0  0  0  0
   -0.0500   -1.3340   -0.2190 C   0  0  0  0  0  0  0  0  0  0  0  0
   -0.2910   -1.6320   -1.4080 O   0  0  0  0  0  0  0  0  0  0  0  0
   -1.5870   -2.4720    1.0050 H   0  0  0  0  0  0  0  0  0  0  0  0
   -0.2700   -4.0040   -0.4000 H   0  0  0  0  0  0  0  0  0  0  0  0
    0.4580   -4.3990    1.2270 H   0  0  0  0  0  0  0  0  0  0  0  0
    1.6530   -2.5250    0.0430 H   0  0  0  0  0  0  0  0  0  0  0  0
    0.0340   -1.6930    2.5010 H   0  0  0  0  0  0  0  0  0  0  0  0
   -0.4140   -0.1140    0.3790 N   0  0  0  0  0  0  0  0  0  0  0  0
   -1.0940    0.9200   -0.3040 C   0  0  1  0  0  0  0  0  0  0  0  0
   -0.5290    1.2310   -1.6400 C   0  0  0  0  0  0  0  0  0  0  0  0
    0.8800    1.7180   -1.5310 C   0  0  0  0  0  0  0  0  0  0  0  0
    1.8640    0.8210   -0.9250 C   0  0  0  0  0  0  0  0  0  0  0  0
    2.1910    0.8370    0.3030 O   0  0  0  0  0  0  0  0  0  0  0  0
   -2.5500    0.7590   -0.2770 C   0  0  0  0  0  0  0  0  0  0  0  0
   -3.0210   -0.2360    0.3260 O   0  0  0  0  0  0  0  0  0  0  0  0
    2.5190   -0.1400   -1.7180 O   0  0  0  0  0  0  0  0  0  0  0  0
   -3.4470    1.6300   -0.8710 O   0  0  0  0  0  0  0  0  0  0  0  0
   -0.1600    0.0060    1.3920 H   0  0  0  0  0  0  0  0  0  0  0  0
   -0.9090    1.9040    0.2840 H   0  0  0  0  0  0  0  0  0  0  0  0
   -1.1040    2.0420   -2.1660 H   0  0  0  0  0  0  0  0  0  0  0  0
   -0.5230    0.3960   -2.3750 H   0  0  0  0  0  0  0  0  0  0  0  0
    0.8200    2.6290   -0.8480 H   0  0  0  0  0  0  0  0  0  0  0  0
    1.2400    2.1420   -2.5080 H   0  0  0  0  0  0  0  0  0  0  0  0
    3.0800   -0.8350   -1.2710 H   0  0  0  0  0  0  0  0  0  0  0  0
  1  6  1  0  0  0  0
  2  7  1  0  0  0  0
  2  1  1  0  0  0  0
  2  8  1  0  0  0  0
  3  2  1  0  0  0  0
  4  3  2  0  0  0  0
  5  1  1  0  0  0  0
 10 17  1  0  0  0  0
 10  9  1  0  0  0  0
 11 18  1  6  0  0  0
 11 10  1  0  0  0  0
 11 12  1  0  0  0  0
 12  3  1  0  0  0  0
 12 19  1  0  0  0  0
 13 20  1  0  0  0  0
 13 11  1  0  0  0  0
 14 13  2  0  0  0  0
 15  9  1  0  0  0  0
 16 10  1  0  0  0  0
 20 30  1  0  0  0  0
 21 26  1  0  0  0  0
 21 31  1  1  0  0  0
 21 20  1  0  0  0  0
 22 23  1  0  0  0  0
 22 21  1  0  0  0  0
 23 24  1  0  0  0  0
 23 34  1  0  0  0  0
 24 25  2  0  0  0  0
 26 27  1  0  0  0  0
 28 36  1  0  0  0  0
 28 24  1  0  0  0  0
 29 26  2  0  0  0  0
 32 22  1  0  0  0  0
 33 22  1  0  0  0  0
 35 23  1  0  0  0  0
M  END
$$$$
