GSH.pdb
 OpenBabel07022418243D

 37 37  0  0  1  0  0  0  0  0999 V2000
   -0.7480   -4.2520    3.4680 N   0  0  0  0  0  0  0  0  0  0  0  0
    0.6760   -4.0320    3.4950 C   0  0  0  0  0  0  0  0  0  0  0  0
    1.0720   -3.2000    2.3300 C   0  0  0  0  0  0  0  0  0  0  0  0
    2.2650   -2.8680    2.1260 O   0  0  0  0  0  0  0  0  0  0  0  0
   -1.2800   -3.3560    3.5130 H   0  0  0  0  0  0  0  0  0  0  0  0
   -1.0050   -4.8040    2.5990 H   0  0  0  0  0  0  0  0  0  0  0  0
    0.9290   -3.5490    4.4420 H   0  0  0  0  0  0  0  0  0  0  0  0
    1.1560   -5.0490    3.4400 H   0  0  0  0  0  0  0  0  0  0  0  0
   -1.2870   -2.7590   -1.1230 O   0  0  0  0  0  0  0  0  0  0  0  0
    0.0930   -2.5810   -1.0510 C   0  0  0  0  0  0  0  0  0  0  0  0
    0.4940   -1.9400    0.2640 C   0  0  2  0  0  0  0  0  0  0  0  0
    0.1010   -2.7500    1.3970 N   0  0  0  0  0  0  0  0  0  0  0  0
   -0.2410   -0.6580    0.3470 C   0  0  0  0  0  0  0  0  0  0  0  0
   -1.0300   -0.4650    1.2990 O   0  0  0  0  0  0  0  0  0  0  0  0
   -1.5020   -3.5550   -1.6870 H   0  0  0  0  0  0  0  0  0  0  0  0
    0.3750   -1.8740   -1.8550 H   0  0  0  0  0  0  0  0  0  0  0  0
    0.5550   -3.5830   -1.1870 H   0  0  0  0  0  0  0  0  0  0  0  0
    1.6010   -1.7830    0.3060 H   0  0  0  0  0  0  0  0  0  0  0  0
   -0.9280   -2.9980    1.5140 H   0  0  0  0  0  0  0  0  0  0  0  0
   -0.0690    0.3650   -0.6360 N   0  0  0  0  0  0  0  0  0  0  0  0
   -0.7850    1.6270   -0.5650 C   0  0  1  0  0  0  0  0  0  0  0  0
    0.2470    2.7370   -0.4310 C   0  0  0  0  0  0  0  0  0  0  0  0
    1.0150    2.4800    0.8140 C   0  0  0  0  0  0  0  0  0  0  0  0
    2.1680    1.7350    0.9470 C   0  0  0  0  0  0  0  0  0  0  0  0
    2.5550    1.7450    2.2480 N   0  0  0  0  0  0  0  0  0  0  0  0
    1.6580    2.4850    2.9130 C   0  0  0  0  0  0  0  0  0  0  0  0
    0.7330    2.9290    2.0630 N   0  0  0  0  0  0  0  0  0  0  0  0
   -1.6220    1.8370   -1.7700 C   0  0  0  0  0  0  0  0  0  0  0  0
   -1.6540    0.9850   -2.6900 O   0  0  0  0  0  0  0  0  0  0  0  0
   -2.3940    2.9760   -1.9180 O   0  0  0  0  0  0  0  0  0  0  0  0
    0.5990    0.1550   -1.4080 H   0  0  0  0  0  0  0  0  0  0  0  0
   -1.4440    1.6830    0.3070 H   0  0  0  0  0  0  0  0  0  0  0  0
    0.9100    2.6480   -1.3150 H   0  0  0  0  0  0  0  0  0  0  0  0
   -0.2810    3.7120   -0.4020 H   0  0  0  0  0  0  0  0  0  0  0  0
    2.7120    1.2100    0.1770 H   0  0  0  0  0  0  0  0  0  0  0  0
    3.3900    1.2620    2.6190 H   0  0  0  0  0  0  0  0  0  0  0  0
    1.6920    2.6810    3.9660 H   0  0  0  0  0  0  0  0  0  0  0  0
  1  2  1  0  0  0  0
  1  5  1  0  0  0  0
  2  7  1  0  0  0  0
  3  2  1  0  0  0  0
  4  3  2  0  0  0  0
  6  1  1  0  0  0  0
  8  2  1  0  0  0  0
  9 10  1  0  0  0  0
 10 11  1  0  0  0  0
 11 18  1  1  0  0  0
 11 13  1  0  0  0  0
 11 12  1  0  0  0  0
 12 19  1  0  0  0  0
 12  3  1  0  0  0  0
 13 14  2  0  0  0  0
 15  9  1  0  0  0  0
 16 10  1  0  0  0  0
 17 10  1  0  0  0  0
 20 21  1  0  0  0  0
 20 13  1  0  0  0  0
 21 22  1  0  0  0  0
 21 32  1  1  0  0  0
 22 34  1  0  0  0  0
 22 23  1  0  0  0  0
 23 24  2  0  0  0  0
 23 27  1  0  0  0  0
 24 25  1  0  0  0  0
 25 36  1  0  0  0  0
 25 26  1  0  0  0  0
 26 37  1  0  0  0  0
 27 26  2  0  0  0  0
 28 21  1  0  0  0  0
 29 28  2  0  0  0  0
 30 28  1  0  0  0  0
 31 20  1  0  0  0  0
 33 22  1  0  0  0  0
 35 24  1  0  0  0  0
M  END
$$$$
