GSQ.pdb
 OpenBabel07022418243D

 37 36  0  0  1  0  0  0  0  0999 V2000
    2.2620    0.4020    3.5540 N   0  0  0  0  0  0  0  0  0  0  0  0
    3.3680   -0.4900    3.2440 C   0  0  0  0  0  0  0  0  0  0  0  0
    2.8130   -1.6450    2.4510 C   0  0  0  0  0  0  0  0  0  0  0  0
    3.6650   -2.5110    2.1060 O   0  0  0  0  0  0  0  0  0  0  0  0
    2.5850    1.3200    3.9070 H   0  0  0  0  0  0  0  0  0  0  0  0
    1.5240   -0.0530    4.1000 H   0  0  0  0  0  0  0  0  0  0  0  0
    3.8360   -0.8480    4.1760 H   0  0  0  0  0  0  0  0  0  0  0  0
    4.1180    0.0140    2.6110 H   0  0  0  0  0  0  0  0  0  0  0  0
   -1.0700   -2.5690    2.5200 O   0  0  0  0  0  0  0  0  0  0  0  0
   -0.0850   -3.5490    2.2640 C   0  0  0  0  0  0  0  0  0  0  0  0
    0.9460   -2.8440    1.3720 C   0  0  2  0  0  0  0  0  0  0  0  0
    1.4440   -1.7310    2.1300 N   0  0  0  0  0  0  0  0  0  0  0  0
    0.1970   -2.4080    0.1610 C   0  0  0  0  0  0  0  0  0  0  0  0
   -0.2830   -3.3090   -0.5740 O   0  0  0  0  0  0  0  0  0  0  0  0
   -1.4030   -2.2340    1.6520 H   0  0  0  0  0  0  0  0  0  0  0  0
    0.3640   -3.9240    3.1820 H   0  0  0  0  0  0  0  0  0  0  0  0
   -0.5960   -4.3520    1.6930 H   0  0  0  0  0  0  0  0  0  0  0  0
    1.7530   -3.5690    1.1020 H   0  0  0  0  0  0  0  0  0  0  0  0
    0.8000   -0.9910    2.4410 H   0  0  0  0  0  0  0  0  0  0  0  0
   -0.9990    3.4970    0.3610 N   0  0  0  0  0  0  0  0  0  0  0  0
   -1.2290    2.3830   -0.5290 C   0  0  0  0  0  0  0  0  0  0  0  0
   -0.7860    2.5540   -1.6860 O   0  0  0  0  0  0  0  0  0  0  0  0
   -1.9240    1.1800   -0.0730 C   0  0  0  0  0  0  0  0  0  0  0  0
   -1.9950    0.0110   -0.9620 C   0  0  0  0  0  0  0  0  0  0  0  0
   -0.7390   -0.6440   -1.3930 C   0  0  2  0  0  0  0  0  0  0  0  0
    0.0040   -1.0650   -0.1930 N   0  0  0  0  0  0  0  0  0  0  0  0
    0.1200    0.0240   -2.3410 C   0  0  0  0  0  0  0  0  0  0  0  0
    1.3120    0.3170   -2.0600 O   0  0  0  0  0  0  0  0  0  0  0  0
   -0.3150    0.3820   -3.6340 O   0  0  0  0  0  0  0  0  0  0  0  0
   -0.0110    3.7980    0.4610 H   0  0  0  0  0  0  0  0  0  0  0  0
   -1.7790    3.9510    0.8550 H   0  0  0  0  0  0  0  0  0  0  0  0
   -1.6100    0.9000    0.9820 H   0  0  0  0  0  0  0  0  0  0  0  0
   -3.0010    1.5150    0.1030 H   0  0  0  0  0  0  0  0  0  0  0  0
   -2.6500    0.2710   -1.8340 H   0  0  0  0  0  0  0  0  0  0  0  0
   -2.6040   -0.7830   -0.4230 H   0  0  0  0  0  0  0  0  0  0  0  0
   -1.0900   -1.6100   -1.9200 H   0  0  0  0  0  0  0  0  0  0  0  0
    0.4080   -0.3320    0.4270 H   0  0  0  0  0  0  0  0  0  0  0  0
  1  5  1  0  0  0  0
  1  6  1  0  0  0  0
  2  1  1  0  0  0  0
  2  7  1  0  0  0  0
  3  2  1  0  0  0  0
  4  3  2  0  0  0  0
  8  2  1  0  0  0  0
 10  9  1  0  0  0  0
 10 16  1  0  0  0  0
 11 18  1  6  0  0  0
 11 12  1  0  0  0  0
 11 10  1  0  0  0  0
 12 19  1  0  0  0  0
 12  3  1  0  0  0  0
 13 11  1  0  0  0  0
 14 13  2  0  0  0  0
 15  9  1  0  0  0  0
 17 10  1  0  0  0  0
 20 30  1  0  0  0  0
 20 31  1  0  0  0  0
 21 23  1  0  0  0  0
 21 20  1  0  0  0  0
 22 21  2  0  0  0  0
 23 33  1  0  0  0  0
 23 32  1  0  0  0  0
 24 35  1  0  0  0  0
 24 23  1  0  0  0  0
 25 36  1  6  0  0  0
 25 24  1  0  0  0  0
 25 26  1  0  0  0  0
 26 13  1  0  0  0  0
 26 37  1  0  0  0  0
 27 28  1  0  0  0  0
 27 25  1  0  0  0  0
 29 27  2  0  0  0  0
 34 24  1  0  0  0  0
M  END
$$$$
