GSW.pdb
 OpenBabel07022418253D

 44 45  0  0  1  0  0  0  0  0999 V2000
    7.1000   -1.2090    2.3530 N   0  0  0  0  0  0  0  0  0  0  0  0
    6.4130   -1.3400    1.0890 C   0  0  0  0  0  0  0  0  0  0  0  0
    5.0370   -0.8110    1.2580 C   0  0  0  0  0  0  0  0  0  0  0  0
    4.6540   -0.3510    2.3660 O   0  0  0  0  0  0  0  0  0  0  0  0
    7.1870   -0.1900    2.5650 H   0  0  0  0  0  0  0  0  0  0  0  0
    6.4940   -1.6220    3.1000 H   0  0  0  0  0  0  0  0  0  0  0  0
    6.4070   -2.3940    0.7320 H   0  0  0  0  0  0  0  0  0  0  0  0
    6.9910   -0.7640    0.3190 H   0  0  0  0  0  0  0  0  0  0  0  0
    1.4080    1.5160   -0.5220 O   0  0  0  0  0  0  0  0  0  0  0  0
    2.6460    0.9240   -0.5730 C   0  0  0  0  0  0  0  0  0  0  0  0
    2.7220   -0.2660    0.3670 C   0  0  2  0  0  0  0  0  0  0  0  0
    4.0850   -0.7870    0.2110 N   0  0  0  0  0  0  0  0  0  0  0  0
    1.7240   -1.2860    0.0290 C   0  0  0  0  0  0  0  0  0  0  0  0
    2.0580   -2.4570   -0.3600 O   0  0  0  0  0  0  0  0  0  0  0  0
    1.5280    2.4470   -0.1740 H   0  0  0  0  0  0  0  0  0  0  0  0
    2.8590    0.5500   -1.6010 H   0  0  0  0  0  0  0  0  0  0  0  0
    3.4630    1.6200   -0.2850 H   0  0  0  0  0  0  0  0  0  0  0  0
    2.5480    0.1080    1.3830 H   0  0  0  0  0  0  0  0  0  0  0  0
    4.3570   -1.1580   -0.7230 H   0  0  0  0  0  0  0  0  0  0  0  0
    0.3450   -0.9850    0.1290 N   0  0  0  0  0  0  0  0  0  0  0  0
   -0.7180   -1.9350   -0.1860 C   0  0  1  0  0  0  0  0  0  0  0  0
   -1.4610   -2.2100    1.0770 C   0  0  0  0  0  0  0  0  0  0  0  0
   -2.0560   -0.9980    1.7180 C   0  0  0  0  0  0  0  0  0  0  0  0
   -1.4700   -0.2830    2.7650 C   0  0  0  0  0  0  0  0  0  0  0  0
   -2.2570    0.7390    3.0540 N   0  0  0  0  0  0  0  0  0  0  0  0
   -3.3470    0.7540    2.2580 C   0  0  0  0  0  0  0  0  0  0  0  0
   -4.4380    1.6050    2.1860 C   0  0  0  0  0  0  0  0  0  0  0  0
   -5.4280    1.3710    1.2630 C   0  0  0  0  0  0  0  0  0  0  0  0
   -5.3110    0.2850    0.4240 C   0  0  0  0  0  0  0  0  0  0  0  0
   -4.2230   -0.5680    0.4920 C   0  0  0  0  0  0  0  0  0  0  0  0
   -3.2200   -0.3510    1.4070 C   0  0  0  0  0  0  0  0  0  0  0  0
   -1.4850   -1.5930   -1.3660 C   0  0  0  0  0  0  0  0  0  0  0  0
   -1.3030   -0.5040   -1.9580 O   0  0  0  0  0  0  0  0  0  0  0  0
   -2.4340   -2.4600   -1.8720 O   0  0  0  0  0  0  0  0  0  0  0  0
   -0.0040   -0.0430    0.4450 H   0  0  0  0  0  0  0  0  0  0  0  0
   -0.1530   -2.8870   -0.4470 H   0  0  0  0  0  0  0  0  0  0  0  0
   -0.8020   -2.6790    1.8340 H   0  0  0  0  0  0  0  0  0  0  0  0
   -2.2730   -2.9660    0.8750 H   0  0  0  0  0  0  0  0  0  0  0  0
   -0.5170   -0.5860    3.2130 H   0  0  0  0  0  0  0  0  0  0  0  0
   -2.0680    1.4570    3.8070 H   0  0  0  0  0  0  0  0  0  0  0  0
   -4.5160    2.4500    2.8480 H   0  0  0  0  0  0  0  0  0  0  0  0
   -6.2980    1.9960    1.1580 H   0  0  0  0  0  0  0  0  0  0  0  0
   -6.0800    0.0770   -0.3140 H   0  0  0  0  0  0  0  0  0  0  0  0
   -4.1330   -1.4210   -0.1500 H   0  0  0  0  0  0  0  0  0  0  0  0
  1  5  1  0  0  0  0
  1  6  1  0  0  0  0
  2  3  1  0  0  0  0
  2  1  1  0  0  0  0
  3  4  2  0  0  0  0
  7  2  1  0  0  0  0
  8  2  1  0  0  0  0
  9 15  1  0  0  0  0
 10  9  1  0  0  0  0
 10 17  1  0  0  0  0
 10 11  1  0  0  0  0
 11 18  1  1  0  0  0
 12 11  1  0  0  0  0
 12  3  1  0  0  0  0
 13 20  1  0  0  0  0
 13 11  1  0  0  0  0
 14 13  2  0  0  0  0
 16 10  1  0  0  0  0
 19 12  1  0  0  0  0
 20 35  1  0  0  0  0
 21 36  1  6  0  0  0
 21 20  1  0  0  0  0
 21 22  1  0  0  0  0
 22 23  1  0  0  0  0
 22 37  1  0  0  0  0
 23 24  2  0  0  0  0
 24 25  1  0  0  0  0
 24 39  1  0  0  0  0
 25 40  1  0  0  0  0
 26 25  1  0  0  0  0
 27 26  1  0  0  0  0
 27 41  1  0  0  0  0
 28 27  2  0  0  0  0
 29 30  2  0  0  0  0
 29 28  1  0  0  0  0
 30 31  1  0  0  0  0
 31 23  1  0  0  0  0
 31 26  2  0  0  0  0
 32 21  1  0  0  0  0
 33 32  2  0  0  0  0
 34 32  1  0  0  0  0
 38 22  1  0  0  0  0
 42 28  1  0  0  0  0
 43 29  1  0  0  0  0
 44 30  1  0  0  0  0
M  END
$$$$
