GTF.pdb
 OpenBabel07022418253D

 43 43  0  0  1  0  0  0  0  0999 V2000
    3.6900   -3.1100    0.4620 N   0  0  0  0  0  0  0  0  0  0  0  0
    4.0370   -2.6340   -0.8610 C   0  0  0  0  0  0  0  0  0  0  0  0
    2.9340   -1.8300   -1.4510 C   0  0  0  0  0  0  0  0  0  0  0  0
    3.1150   -1.3600   -2.6010 O   0  0  0  0  0  0  0  0  0  0  0  0
    4.4900   -3.6570    0.8460 H   0  0  0  0  0  0  0  0  0  0  0  0
    2.8350   -3.7080    0.4380 H   0  0  0  0  0  0  0  0  0  0  0  0
    4.1200   -3.5500   -1.5060 H   0  0  0  0  0  0  0  0  0  0  0  0
    5.0020   -2.1310   -0.8630 H   0  0  0  0  0  0  0  0  0  0  0  0
   -1.0900   -2.0120   -0.1870 C   0  0  0  0  0  0  0  0  0  0  0  0
   -0.5910   -1.6130   -1.5560 C   0  0  1  0  0  0  0  0  0  0  0  0
   -1.6020   -0.8320   -2.1570 O   0  0  0  0  0  0  0  0  0  0  0  0
    0.6680   -0.8000   -1.3780 C   0  0  2  0  0  0  0  0  0  0  0  0
    1.7090   -1.5770   -0.7830 N   0  0  0  0  0  0  0  0  0  0  0  0
    0.3130    0.4000   -0.6010 C   0  0  0  0  0  0  0  0  0  0  0  0
   -0.6240    1.1450   -0.9870 O   0  0  0  0  0  0  0  0  0  0  0  0
   -0.3170   -2.2610    0.5380 H   0  0  0  0  0  0  0  0  0  0  0  0
   -1.8460   -2.8150   -0.3220 H   0  0  0  0  0  0  0  0  0  0  0  0
   -1.6770   -1.1430    0.2320 H   0  0  0  0  0  0  0  0  0  0  0  0
   -0.4020   -2.4950   -2.2060 H   0  0  0  0  0  0  0  0  0  0  0  0
   -2.3050   -1.4250   -2.5260 H   0  0  0  0  0  0  0  0  0  0  0  0
    1.0430   -0.4540   -2.3910 H   0  0  0  0  0  0  0  0  0  0  0  0
    1.6390   -2.0020    0.1720 H   0  0  0  0  0  0  0  0  0  0  0  0
    0.9600    0.8220    0.6020 N   0  0  0  0  0  0  0  0  0  0  0  0
    0.6000    1.9990    1.3370 C   0  0  1  0  0  0  0  0  0  0  0  0
    0.2880    1.6330    2.7600 C   0  0  0  0  0  0  0  0  0  0  0  0
   -0.8170    0.6880    2.9030 C   0  0  0  0  0  0  0  0  0  0  0  0
   -0.6530   -0.6790    2.9440 C   0  0  0  0  0  0  0  0  0  0  0  0
   -1.7290   -1.5360    3.0920 C   0  0  0  0  0  0  0  0  0  0  0  0
   -3.0080   -1.0450    3.2040 C   0  0  0  0  0  0  0  0  0  0  0  0
   -3.1910    0.3210    3.1640 C   0  0  0  0  0  0  0  0  0  0  0  0
   -2.1230    1.1790    3.0170 C   0  0  0  0  0  0  0  0  0  0  0  0
    1.5740    3.0830    1.2520 C   0  0  0  0  0  0  0  0  0  0  0  0
    1.3750    4.1550    1.8450 O   0  0  0  0  0  0  0  0  0  0  0  0
    2.7250    2.9460    0.5200 O   0  0  0  0  0  0  0  0  0  0  0  0
    1.7380    0.2140    0.9380 H   0  0  0  0  0  0  0  0  0  0  0  0
   -0.3660    2.3700    0.8780 H   0  0  0  0  0  0  0  0  0  0  0  0
    1.1990    1.1700    3.2450 H   0  0  0  0  0  0  0  0  0  0  0  0
    0.0740    2.6120    3.2820 H   0  0  0  0  0  0  0  0  0  0  0  0
    0.3370   -1.1030    2.8600 H   0  0  0  0  0  0  0  0  0  0  0  0
   -1.5770   -2.6120    3.1230 H   0  0  0  0  0  0  0  0  0  0  0  0
   -3.8630   -1.6970    3.3200 H   0  0  0  0  0  0  0  0  0  0  0  0
   -4.2020    0.6940    3.2520 H   0  0  0  0  0  0  0  0  0  0  0  0
   -2.2570    2.2520    2.9840 H   0  0  0  0  0  0  0  0  0  0  0  0
  1  5  1  0  0  0  0
  2  1  1  0  0  0  0
  3  2  1  0  0  0  0
  3 13  1  0  0  0  0
  4  3  2  0  0  0  0
  6  1  1  0  0  0  0
  7  2  1  0  0  0  0
  8  2  1  0  0  0  0
  9 18  1  0  0  0  0
  9 16  1  0  0  0  0
 10 19  1  6  0  0  0
 10 12  1  0  0  0  0
 10  9  1  0  0  0  0
 11 10  1  0  0  0  0
 12 21  1  6  0  0  0
 12 13  1  0  0  0  0
 12 14  1  0  0  0  0
 13 22  1  0  0  0  0
 14 23  1  0  0  0  0
 15 14  2  0  0  0  0
 17  9  1  0  0  0  0
 20 11  1  0  0  0  0
 23 35  1  0  0  0  0
 23 24  1  0  0  0  0
 24 36  1  6  0  0  0
 24 25  1  0  0  0  0
 25 26  1  0  0  0  0
 25 37  1  0  0  0  0
 25 38  1  0  0  0  0
 26 27  2  0  0  0  0
 26 31  1  0  0  0  0
 27 28  1  0  0  0  0
 28 40  1  0  0  0  0
 28 29  2  0  0  0  0
 29 41  1  0  0  0  0
 30 29  1  0  0  0  0
 30 42  1  0  0  0  0
 31 30  2  0  0  0  0
 32 24  1  0  0  0  0
 32 33  1  0  0  0  0
 34 32  2  0  0  0  0
 39 27  1  0  0  0  0
 43 31  1  0  0  0  0
M  END
$$$$
