GTH.pdb
 OpenBabel07022418253D

 40 40  0  0  1  0  0  0  0  0999 V2000
   -0.9540   -4.2140    0.7070 N   0  0  0  0  0  0  0  0  0  0  0  0
    0.4140   -4.6790    0.6480 C   0  0  0  0  0  0  0  0  0  0  0  0
    1.3080   -3.5670    0.2560 C   0  0  0  0  0  0  0  0  0  0  0  0
    2.5500   -3.7160    0.1340 O   0  0  0  0  0  0  0  0  0  0  0  0
   -1.1030   -3.4390    1.3640 H   0  0  0  0  0  0  0  0  0  0  0  0
   -1.2460   -3.9550   -0.2530 H   0  0  0  0  0  0  0  0  0  0  0  0
    0.4500   -5.5120   -0.0900 H   0  0  0  0  0  0  0  0  0  0  0  0
    0.6700   -5.0470    1.6700 H   0  0  0  0  0  0  0  0  0  0  0  0
    2.2730    0.5120   -1.9980 C   0  0  0  0  0  0  0  0  0  0  0  0
    1.2410   -0.5880   -1.7210 C   0  0  1  0  0  0  0  0  0  0  0  0
    1.3690   -1.5380   -2.7040 O   0  0  0  0  0  0  0  0  0  0  0  0
    1.5950   -1.1740   -0.3790 C   0  0  2  0  0  0  0  0  0  0  0  0
    0.7700   -2.2790    0.0030 N   0  0  0  0  0  0  0  0  0  0  0  0
    1.5460   -0.1320    0.6860 C   0  0  0  0  0  0  0  0  0  0  0  0
    2.1990    0.9370    0.5660 O   0  0  0  0  0  0  0  0  0  0  0  0
    2.5510    0.5130   -3.0830 H   0  0  0  0  0  0  0  0  0  0  0  0
    1.8580    1.5070   -1.7700 H   0  0  0  0  0  0  0  0  0  0  0  0
    3.2070    0.2870   -1.4440 H   0  0  0  0  0  0  0  0  0  0  0  0
    0.2640   -0.0880   -1.7080 H   0  0  0  0  0  0  0  0  0  0  0  0
    2.2590   -1.4600   -3.1560 H   0  0  0  0  0  0  0  0  0  0  0  0
    2.6470   -1.5230   -0.4260 H   0  0  0  0  0  0  0  0  0  0  0  0
   -0.2720   -2.0830    0.0870 H   0  0  0  0  0  0  0  0  0  0  0  0
    0.7600   -0.3300    1.8540 N   0  0  0  0  0  0  0  0  0  0  0  0
    0.6560    0.6240    2.9310 C   0  0  1  0  0  0  0  0  0  0  0  0
   -0.7760    1.0260    3.1090 C   0  0  0  0  0  0  0  0  0  0  0  0
   -1.3310    1.6460    1.8910 C   0  0  0  0  0  0  0  0  0  0  0  0
   -2.6450    2.1020    1.8110 C   0  0  0  0  0  0  0  0  0  0  0  0
   -2.8530    2.6060    0.6010 N   0  0  0  0  0  0  0  0  0  0  0  0
   -1.7120    2.4820   -0.0840 C   0  0  0  0  0  0  0  0  0  0  0  0
   -0.7920    1.9020    0.6940 N   0  0  0  0  0  0  0  0  0  0  0  0
    1.1690    0.0530    4.2050 C   0  0  0  0  0  0  0  0  0  0  0  0
    1.1360    0.7780    5.2200 O   0  0  0  0  0  0  0  0  0  0  0  0
    1.6640   -1.2330    4.2590 O   0  0  0  0  0  0  0  0  0  0  0  0
    0.2350   -1.2440    1.9010 H   0  0  0  0  0  0  0  0  0  0  0  0
    1.2720    1.5140    2.6640 H   0  0  0  0  0  0  0  0  0  0  0  0
   -1.3850    0.1230    3.3740 H   0  0  0  0  0  0  0  0  0  0  0  0
   -0.8880    1.7760    3.9290 H   0  0  0  0  0  0  0  0  0  0  0  0
   -3.4070    2.0700    2.5880 H   0  0  0  0  0  0  0  0  0  0  0  0
   -3.7520    3.0320    0.2290 H   0  0  0  0  0  0  0  0  0  0  0  0
   -1.5390    2.7930   -1.1030 H   0  0  0  0  0  0  0  0  0  0  0  0
  1  5  1  0  0  0  0
  2  1  1  0  0  0  0
  2  8  1  0  0  0  0
  3  2  1  0  0  0  0
  4  3  2  0  0  0  0
  6  1  1  0  0  0  0
  7  2  1  0  0  0  0
  9 17  1  0  0  0  0
  9 10  1  0  0  0  0
  9 18  1  0  0  0  0
 10 19  1  1  0  0  0
 10 12  1  0  0  0  0
 11 10  1  0  0  0  0
 12 21  1  6  0  0  0
 12 13  1  0  0  0  0
 12 14  1  0  0  0  0
 13 22  1  0  0  0  0
 13  3  1  0  0  0  0
 14 23  1  0  0  0  0
 15 14  2  0  0  0  0
 16  9  1  0  0  0  0
 20 11  1  0  0  0  0
 23 34  1  0  0  0  0
 23 24  1  0  0  0  0
 24 35  1  6  0  0  0
 24 25  1  0  0  0  0
 24 31  1  0  0  0  0
 25 36  1  0  0  0  0
 25 37  1  0  0  0  0
 26 25  1  0  0  0  0
 27 26  2  0  0  0  0
 27 38  1  0  0  0  0
 28 27  1  0  0  0  0
 29 28  1  0  0  0  0
 29 30  2  0  0  0  0
 30 26  1  0  0  0  0
 31 33  2  0  0  0  0
 31 32  1  0  0  0  0
 39 28  1  0  0  0  0
 40 29  1  0  0  0  0
M  END
$$$$
