GTL.pdb
 OpenBabel07022418253D

 42 41  0  0  1  0  0  0  0  0999 V2000
   -1.0910   -4.2650    4.0350 N   0  0  0  0  0  0  0  0  0  0  0  0
    0.0920   -3.5840    4.5210 C   0  0  0  0  0  0  0  0  0  0  0  0
    0.7840   -2.8110    3.4650 C   0  0  0  0  0  0  0  0  0  0  0  0
    1.8190   -2.1890    3.7930 O   0  0  0  0  0  0  0  0  0  0  0  0
   -1.9480   -3.7070    4.0680 H   0  0  0  0  0  0  0  0  0  0  0  0
   -0.9320   -4.7650    3.1510 H   0  0  0  0  0  0  0  0  0  0  0  0
    0.8020   -4.4050    4.8330 H   0  0  0  0  0  0  0  0  0  0  0  0
   -0.1180   -2.9920    5.4190 H   0  0  0  0  0  0  0  0  0  0  0  0
    2.5220   -2.1500   -0.8950 C   0  0  0  0  0  0  0  0  0  0  0  0
    1.6320   -2.8990    0.0530 C   0  0  1  0  0  0  0  0  0  0  0  0
    2.4760   -3.7740    0.7610 O   0  0  0  0  0  0  0  0  0  0  0  0
    1.0780   -1.9490    1.1020 C   0  0  2  0  0  0  0  0  0  0  0  0
    0.3580   -2.7310    2.1230 N   0  0  0  0  0  0  0  0  0  0  0  0
    0.1050   -0.9790    0.5640 C   0  0  0  0  0  0  0  0  0  0  0  0
   -1.1090   -1.0380    0.9690 O   0  0  0  0  0  0  0  0  0  0  0  0
    3.2590   -2.9280   -1.2800 H   0  0  0  0  0  0  0  0  0  0  0  0
    1.9980   -1.8410   -1.8410 H   0  0  0  0  0  0  0  0  0  0  0  0
    3.1500   -1.3820   -0.4500 H   0  0  0  0  0  0  0  0  0  0  0  0
    0.8610   -3.4160   -0.5280 H   0  0  0  0  0  0  0  0  0  0  0  0
    3.2800   -3.2490    0.9950 H   0  0  0  0  0  0  0  0  0  0  0  0
    1.9500   -1.4900    1.6050 H   0  0  0  0  0  0  0  0  0  0  0  0
   -0.5040   -3.2520    1.8560 H   0  0  0  0  0  0  0  0  0  0  0  0
   -1.1120    2.6650    1.6100 C   0  0  0  0  0  0  0  0  0  0  0  0
    0.0970    2.7990    0.7070 C   0  0  0  0  0  0  0  0  0  0  0  0
    1.3080    2.2130    1.3230 C   0  0  0  0  0  0  0  0  0  0  0  0
   -0.2140    2.3590   -0.6890 C   0  0  0  0  0  0  0  0  0  0  0  0
   -0.6560    0.9550   -0.8530 C   0  0  2  0  0  0  0  0  0  0  0  0
    0.3800    0.0410   -0.3780 N   0  0  0  0  0  0  0  0  0  0  0  0
   -0.8680    0.7380   -2.3310 C   0  0  0  0  0  0  0  0  0  0  0  0
   -0.2210   -0.1070   -2.9780 O   0  0  0  0  0  0  0  0  0  0  0  0
   -1.8120    1.4990   -3.0070 O   0  0  0  0  0  0  0  0  0  0  0  0
   -1.1350    1.6230    2.0060 H   0  0  0  0  0  0  0  0  0  0  0  0
   -2.0550    2.8880    1.0610 H   0  0  0  0  0  0  0  0  0  0  0  0
   -0.9910    3.3940    2.4430 H   0  0  0  0  0  0  0  0  0  0  0  0
    0.2680    3.9160    0.6330 H   0  0  0  0  0  0  0  0  0  0  0  0
    2.1090    1.9850    0.5920 H   0  0  0  0  0  0  0  0  0  0  0  0
    1.1330    1.3340    1.9680 H   0  0  0  0  0  0  0  0  0  0  0  0
    1.7700    2.9780    2.0160 H   0  0  0  0  0  0  0  0  0  0  0  0
   -1.0600    3.0200   -1.0430 H   0  0  0  0  0  0  0  0  0  0  0  0
    0.6120    2.5650   -1.4000 H   0  0  0  0  0  0  0  0  0  0  0  0
   -1.6320    0.7430   -0.3870 H   0  0  0  0  0  0  0  0  0  0  0  0
    1.3550    0.1300   -0.7230 H   0  0  0  0  0  0  0  0  0  0  0  0
  1  5  1  0  0  0  0
  1  2  1  0  0  0  0
  2  7  1  0  0  0  0
  2  8  1  0  0  0  0
  3  4  2  0  0  0  0
  3  2  1  0  0  0  0
  6  1  1  0  0  0  0
  9 18  1  0  0  0  0
  9 10  1  0  0  0  0
 10 19  1  6  0  0  0
 10 11  1  0  0  0  0
 10 12  1  0  0  0  0
 11 20  1  0  0  0  0
 12 21  1  1  0  0  0
 12 13  1  0  0  0  0
 13  3  1  0  0  0  0
 14 15  2  0  0  0  0
 14 12  1  0  0  0  0
 16  9  1  0  0  0  0
 17  9  1  0  0  0  0
 22 13  1  0  0  0  0
 23 32  1  0  0  0  0
 23 34  1  0  0  0  0
 24 25  1  0  0  0  0
 24 23  1  0  0  0  0
 25 37  1  0  0  0  0
 25 38  1  0  0  0  0
 26 24  1  0  0  0  0
 27 26  1  0  0  0  0
 27 41  1  1  0  0  0
 27 28  1  0  0  0  0
 28 14  1  0  0  0  0
 29 27  1  0  0  0  0
 30 29  1  0  0  0  0
 31 29  2  0  0  0  0
 33 23  1  0  0  0  0
 35 24  1  0  0  0  0
 36 25  1  0  0  0  0
 39 26  1  0  0  0  0
 40 26  1  0  0  0  0
 42 28  1  0  0  0  0
M  END
$$$$
