GTN.pdb
 OpenBabel07022418253D

 37 36  0  0  1  0  0  0  0  0999 V2000
    2.1990   -4.1590    2.4740 N   0  0  0  0  0  0  0  0  0  0  0  0
    0.9360   -4.8060    2.1910 C   0  0  0  0  0  0  0  0  0  0  0  0
   -0.0360   -3.7890    1.7710 C   0  0  0  0  0  0  0  0  0  0  0  0
   -1.2330   -4.0950    1.4620 O   0  0  0  0  0  0  0  0  0  0  0  0
    2.5650   -3.7050    1.6110 H   0  0  0  0  0  0  0  0  0  0  0  0
    2.1040   -3.4870    3.2430 H   0  0  0  0  0  0  0  0  0  0  0  0
    0.5860   -5.4100    3.0450 H   0  0  0  0  0  0  0  0  0  0  0  0
    1.0910   -5.5470    1.3530 H   0  0  0  0  0  0  0  0  0  0  0  0
    0.5760    0.0910    2.9570 C   0  0  0  0  0  0  0  0  0  0  0  0
   -0.7540   -0.4710    2.5010 C   0  0  1  0  0  0  0  0  0  0  0  0
   -1.6120    0.5630    2.2200 O   0  0  0  0  0  0  0  0  0  0  0  0
   -0.5670   -1.3750    1.2920 C   0  0  2  0  0  0  0  0  0  0  0  0
    0.3490   -2.4260    1.7010 N   0  0  0  0  0  0  0  0  0  0  0  0
    0.0250   -0.6430    0.1430 C   0  0  0  0  0  0  0  0  0  0  0  0
    1.1590   -1.0040   -0.2600 O   0  0  0  0  0  0  0  0  0  0  0  0
    0.3580    0.8690    3.7150 H   0  0  0  0  0  0  0  0  0  0  0  0
    1.1580    0.5120    2.1200 H   0  0  0  0  0  0  0  0  0  0  0  0
    1.1780   -0.6910    3.4830 H   0  0  0  0  0  0  0  0  0  0  0  0
   -1.1750   -1.0730    3.3070 H   0  0  0  0  0  0  0  0  0  0  0  0
   -1.3760    1.3530    2.7790 H   0  0  0  0  0  0  0  0  0  0  0  0
   -1.5610   -1.8040    1.0590 H   0  0  0  0  0  0  0  0  0  0  0  0
    1.3140   -2.1290    1.9430 H   0  0  0  0  0  0  0  0  0  0  0  0
   -1.0350    3.1270    0.1150 N   0  0  0  0  0  0  0  0  0  0  0  0
    0.3160    3.1990   -0.2880 C   0  0  0  0  0  0  0  0  0  0  0  0
    1.0360    4.1180    0.1380 O   0  0  0  0  0  0  0  0  0  0  0  0
    0.8840    2.1960   -1.2100 C   0  0  0  0  0  0  0  0  0  0  0  0
   -0.1250    1.1680   -1.6170 C   0  0  2  0  0  0  0  0  0  0  0  0
   -0.6550    0.4350   -0.4950 N   0  0  0  0  0  0  0  0  0  0  0  0
    0.3820    0.2700   -2.7030 C   0  0  0  0  0  0  0  0  0  0  0  0
    0.9280    0.7930   -3.6990 O   0  0  0  0  0  0  0  0  0  0  0  0
    0.2660   -1.1000   -2.6450 O   0  0  0  0  0  0  0  0  0  0  0  0
   -1.2870    3.0900    1.1260 H   0  0  0  0  0  0  0  0  0  0  0  0
   -1.7770    3.1110   -0.6330 H   0  0  0  0  0  0  0  0  0  0  0  0
    1.7120    1.6820   -0.6410 H   0  0  0  0  0  0  0  0  0  0  0  0
    1.3630    2.6760   -2.0790 H   0  0  0  0  0  0  0  0  0  0  0  0
   -1.0100    1.7100   -2.0830 H   0  0  0  0  0  0  0  0  0  0  0  0
   -1.5920    0.6760   -0.0970 H   0  0  0  0  0  0  0  0  0  0  0  0
  1  6  1  0  0  0  0
  2  1  1  0  0  0  0
  2  7  1  0  0  0  0
  3  2  1  0  0  0  0
  4  3  2  0  0  0  0
  5  1  1  0  0  0  0
  8  2  1  0  0  0  0
  9 18  1  0  0  0  0
  9 16  1  0  0  0  0
 10  9  1  0  0  0  0
 10 19  1  1  0  0  0
 11 10  1  0  0  0  0
 11 20  1  0  0  0  0
 12 21  1  6  0  0  0
 12 13  1  0  0  0  0
 12 10  1  0  0  0  0
 13  3  1  0  0  0  0
 13 22  1  0  0  0  0
 14 12  1  0  0  0  0
 15 14  2  0  0  0  0
 17  9  1  0  0  0  0
 23 32  1  0  0  0  0
 24 23  1  0  0  0  0
 24 25  2  0  0  0  0
 26 34  1  0  0  0  0
 26 24  1  0  0  0  0
 27 36  1  6  0  0  0
 27 26  1  0  0  0  0
 27 28  1  0  0  0  0
 28 37  1  0  0  0  0
 28 14  1  0  0  0  0
 29 31  1  0  0  0  0
 29 27  1  0  0  0  0
 30 29  2  0  0  0  0
 33 23  1  0  0  0  0
 35 26  1  0  0  0  0
M  END
$$$$
