GTR.pdb
 OpenBabel07022418253D

 46 45  0  0  1  0  0  0  0  0999 V2000
    1.6260   -5.7760    2.6600 N   0  0  0  0  0  0  0  0  0  0  0  0
    1.9810   -5.9530    1.2850 C   0  0  0  0  0  0  0  0  0  0  0  0
    1.1590   -5.0470    0.4450 C   0  0  0  0  0  0  0  0  0  0  0  0
    1.3100   -5.0420   -0.7910 O   0  0  0  0  0  0  0  0  0  0  0  0
    1.7150   -6.6570    3.2210 H   0  0  0  0  0  0  0  0  0  0  0  0
    2.1430   -4.9800    3.1040 H   0  0  0  0  0  0  0  0  0  0  0  0
    3.0700   -5.8040    1.0910 H   0  0  0  0  0  0  0  0  0  0  0  0
    1.7720   -7.0150    0.9940 H   0  0  0  0  0  0  0  0  0  0  0  0
   -2.9860   -2.8440   -0.3910 C   0  0  0  0  0  0  0  0  0  0  0  0
   -2.0740   -3.6640    0.4750 C   0  0  1  0  0  0  0  0  0  0  0  0
   -2.2010   -5.0210    0.1120 O   0  0  0  0  0  0  0  0  0  0  0  0
   -0.6310   -3.2760    0.2210 C   0  0  2  0  0  0  0  0  0  0  0  0
    0.2020   -4.1900    1.0450 N   0  0  0  0  0  0  0  0  0  0  0  0
   -0.3370   -1.9230    0.7600 C   0  0  0  0  0  0  0  0  0  0  0  0
    0.4180   -1.7970    1.7920 O   0  0  0  0  0  0  0  0  0  0  0  0
   -3.9070   -3.4630   -0.5980 H   0  0  0  0  0  0  0  0  0  0  0  0
   -2.5700   -2.6180   -1.3730 H   0  0  0  0  0  0  0  0  0  0  0  0
   -3.3290   -1.9370    0.1330 H   0  0  0  0  0  0  0  0  0  0  0  0
   -2.2620   -3.5940    1.5530 H   0  0  0  0  0  0  0  0  0  0  0  0
   -3.0770   -5.3210    0.4810 H   0  0  0  0  0  0  0  0  0  0  0  0
   -0.3140   -3.4270   -0.8140 H   0  0  0  0  0  0  0  0  0  0  0  0
    0.0270   -4.1450    2.0680 H   0  0  0  0  0  0  0  0  0  0  0  0
    2.9550    6.2470    1.9520 N   0  0  0  0  0  0  0  0  0  0  0  0
    2.1790    5.0670    1.7390 C   0  0  0  0  0  0  0  0  0  0  0  0
    2.3280    4.1030    2.5800 N   0  0  0  0  0  0  0  0  0  0  0  0
    1.2870    4.9730    0.6520 N   0  0  0  0  0  0  0  0  0  0  0  0
    0.3570    3.8110    0.5110 C   0  0  0  0  0  0  0  0  0  0  0  0
    1.0990    2.5830    0.2060 C   0  0  0  0  0  0  0  0  0  0  0  0
    0.4510    1.3060   -0.0830 C   0  0  0  0  0  0  0  0  0  0  0  0
   -0.4430    0.6160    0.8770 C   0  0  2  0  0  0  0  0  0  0  0  0
   -0.8190   -0.7070    0.2310 N   0  0  0  0  0  0  0  0  0  0  0  0
   -1.7400    1.2650    1.0450 C   0  0  0  0  0  0  0  0  0  0  0  0
   -2.0180    2.2720    1.7380 O   0  0  0  0  0  0  0  0  0  0  0  0
   -2.8650    0.7330    0.3570 O   0  0  0  0  0  0  0  0  0  0  0  0
    3.3560    6.8070    1.1610 H   0  0  0  0  0  0  0  0  0  0  0  0
    3.1200    6.5470    2.9530 H   0  0  0  0  0  0  0  0  0  0  0  0
    2.9760    4.1450    3.3950 H   0  0  0  0  0  0  0  0  0  0  0  0
    1.2750    5.7280   -0.0670 H   0  0  0  0  0  0  0  0  0  0  0  0
   -0.1640    3.8060    1.5020 H   0  0  0  0  0  0  0  0  0  0  0  0
   -0.3810    4.0530   -0.2560 H   0  0  0  0  0  0  0  0  0  0  0  0
    1.7690    2.7950   -0.7180 H   0  0  0  0  0  0  0  0  0  0  0  0
    1.9400    2.4240    0.9840 H   0  0  0  0  0  0  0  0  0  0  0  0
   -0.0820    1.4140   -1.0930 H   0  0  0  0  0  0  0  0  0  0  0  0
    1.2520    0.5460   -0.3590 H   0  0  0  0  0  0  0  0  0  0  0  0
    0.1110    0.3510    1.7620 H   0  0  0  0  0  0  0  0  0  0  0  0
   -1.4240   -0.7100   -0.5960 H   0  0  0  0  0  0  0  0  0  0  0  0
  1  6  1  0  0  0  0
  1  5  1  0  0  0  0
  2  1  1  0  0  0  0
  3 13  1  0  0  0  0
  3  2  1  0  0  0  0
  4  3  2  0  0  0  0
  7  2  1  0  0  0  0
  8  2  1  0  0  0  0
  9 18  1  0  0  0  0
  9 10  1  0  0  0  0
 10 19  1  1  0  0  0
 11 10  1  0  0  0  0
 11 20  1  0  0  0  0
 12 21  1  6  0  0  0
 12 10  1  0  0  0  0
 12 14  1  0  0  0  0
 12 13  1  0  0  0  0
 13 22  1  0  0  0  0
 14 15  2  0  0  0  0
 16  9  1  0  0  0  0
 17  9  1  0  0  0  0
 23 36  1  0  0  0  0
 24 23  1  0  0  0  0
 24 25  2  0  0  0  0
 25 37  1  0  0  0  0
 26 24  1  0  0  0  0
 27 26  1  0  0  0  0
 27 39  1  0  0  0  0
 28 27  1  0  0  0  0
 28 42  1  0  0  0  0
 29 28  1  0  0  0  0
 29 30  1  0  0  0  0
 30 32  1  0  0  0  0
 30 45  1  1  0  0  0
 31 14  1  0  0  0  0
 31 30  1  0  0  0  0
 32 33  1  0  0  0  0
 34 32  2  0  0  0  0
 35 23  1  0  0  0  0
 38 26  1  0  0  0  0
 40 27  1  0  0  0  0
 41 28  1  0  0  0  0
 43 29  1  0  0  0  0
 44 29  1  0  0  0  0
 46 31  1  0  0  0  0
M  END
$$$$
