GTW.pdb
 OpenBabel07022418253D

 47 48  0  0  1  0  0  0  0  0999 V2000
    3.5730   -0.3180    0.7010 N   0  0  0  0  0  0  0  0  0  0  0  0
    3.0190    0.3240   -0.4810 C   0  0  0  0  0  0  0  0  0  0  0  0
    1.9710   -0.5150   -1.1110 C   0  0  0  0  0  0  0  0  0  0  0  0
    1.3970   -0.1020   -2.1620 O   0  0  0  0  0  0  0  0  0  0  0  0
    3.9610   -1.2430    0.3470 H   0  0  0  0  0  0  0  0  0  0  0  0
    4.3840    0.1900    1.0700 H   0  0  0  0  0  0  0  0  0  0  0  0
    3.8470    0.4320   -1.2090 H   0  0  0  0  0  0  0  0  0  0  0  0
    2.6560    1.3460   -0.2560 H   0  0  0  0  0  0  0  0  0  0  0  0
   -0.2110   -4.6840   -2.2330 C   0  0  0  0  0  0  0  0  0  0  0  0
    0.8700   -4.0260   -1.3710 C   0  0  1  0  0  0  0  0  0  0  0  0
    2.0440   -4.1230   -2.1580 O   0  0  0  0  0  0  0  0  0  0  0  0
    0.5290   -2.5920   -1.2400 C   0  0  2  0  0  0  0  0  0  0  0  0
    1.5540   -1.7770   -0.6080 N   0  0  0  0  0  0  0  0  0  0  0  0
   -0.8190   -2.3250   -0.6440 C   0  0  0  0  0  0  0  0  0  0  0  0
   -1.7750   -3.0170   -1.0170 O   0  0  0  0  0  0  0  0  0  0  0  0
    0.2160   -5.4990   -2.8700 H   0  0  0  0  0  0  0  0  0  0  0  0
   -0.9790   -5.1350   -1.5590 H   0  0  0  0  0  0  0  0  0  0  0  0
   -0.7060   -3.9470   -2.8800 H   0  0  0  0  0  0  0  0  0  0  0  0
    0.9770   -4.5740   -0.4330 H   0  0  0  0  0  0  0  0  0  0  0  0
    2.0990   -5.0470   -2.5560 H   0  0  0  0  0  0  0  0  0  0  0  0
    0.4320   -2.1410   -2.2810 H   0  0  0  0  0  0  0  0  0  0  0  0
    2.0490   -2.1010    0.2700 H   0  0  0  0  0  0  0  0  0  0  0  0
   -0.9710   -1.3160    0.3040 N   0  0  0  0  0  0  0  0  0  0  0  0
   -2.2400   -0.9760    0.9390 C   0  0  1  0  0  0  0  0  0  0  0  0
   -1.9790   -0.9480    2.4110 C   0  0  0  0  0  0  0  0  0  0  0  0
   -0.9270    0.0170    2.7920 C   0  0  0  0  0  0  0  0  0  0  0  0
    0.4140   -0.3480    2.9900 C   0  0  0  0  0  0  0  0  0  0  0  0
    1.1070    0.7470    3.2840 N   0  0  0  0  0  0  0  0  0  0  0  0
    0.3170    1.8220    3.2970 C   0  0  0  0  0  0  0  0  0  0  0  0
    0.5230    3.1530    3.5460 C   0  0  0  0  0  0  0  0  0  0  0  0
   -0.5180    4.0480    3.4960 C   0  0  0  0  0  0  0  0  0  0  0  0
   -1.7820    3.5980    3.1930 C   0  0  0  0  0  0  0  0  0  0  0  0
   -2.0310    2.2650    2.9360 C   0  0  0  0  0  0  0  0  0  0  0  0
   -0.9760    1.3800    2.9880 C   0  0  0  0  0  0  0  0  0  0  0  0
   -2.8700    0.1930    0.3470 C   0  0  0  0  0  0  0  0  0  0  0  0
   -4.0170    0.5470    0.7100 O   0  0  0  0  0  0  0  0  0  0  0  0
   -2.2450    0.9580   -0.6310 O   0  0  0  0  0  0  0  0  0  0  0  0
   -0.1460   -0.7570    0.5970 H   0  0  0  0  0  0  0  0  0  0  0  0
   -2.8980   -1.8700    0.7240 H   0  0  0  0  0  0  0  0  0  0  0  0
   -1.7330   -1.9790    2.7510 H   0  0  0  0  0  0  0  0  0  0  0  0
   -2.9340   -0.6790    2.9420 H   0  0  0  0  0  0  0  0  0  0  0  0
    0.7710   -1.3540    2.9080 H   0  0  0  0  0  0  0  0  0  0  0  0
    2.1320    0.7590    3.4790 H   0  0  0  0  0  0  0  0  0  0  0  0
    1.5190    3.5540    3.7920 H   0  0  0  0  0  0  0  0  0  0  0  0
   -0.3840    5.1190    3.6910 H   0  0  0  0  0  0  0  0  0  0  0  0
   -2.6510    4.2550    3.1400 H   0  0  0  0  0  0  0  0  0  0  0  0
   -3.0180    1.9090    2.7100 H   0  0  0  0  0  0  0  0  0  0  0  0
  1  6  1  0  0  0  0
  2  8  1  0  0  0  0
  2  1  1  0  0  0  0
  3 13  1  0  0  0  0
  3  2  1  0  0  0  0
  4  3  2  0  0  0  0
  5  1  1  0  0  0  0
  7  2  1  0  0  0  0
  9 17  1  0  0  0  0
  9 10  1  0  0  0  0
 10 12  1  0  0  0  0
 10 19  1  1  0  0  0
 11 10  1  0  0  0  0
 12 21  1  6  0  0  0
 12 14  1  0  0  0  0
 12 13  1  0  0  0  0
 13 22  1  0  0  0  0
 14 23  1  0  0  0  0
 15 14  2  0  0  0  0
 16  9  1  0  0  0  0
 18  9  1  0  0  0  0
 20 11  1  0  0  0  0
 23 38  1  0  0  0  0
 23 24  1  0  0  0  0
 24 39  1  6  0  0  0
 24 25  1  0  0  0  0
 25 40  1  0  0  0  0
 25 26  1  0  0  0  0
 25 41  1  0  0  0  0
 26 34  1  0  0  0  0
 26 27  2  0  0  0  0
 27 28  1  0  0  0  0
 28 29  1  0  0  0  0
 28 43  1  0  0  0  0
 29 30  1  0  0  0  0
 30 44  1  0  0  0  0
 31 30  2  0  0  0  0
 31 45  1  0  0  0  0
 32 31  1  0  0  0  0
 33 34  1  0  0  0  0
 33 32  2  0  0  0  0
 34 29  2  0  0  0  0
 35 36  1  0  0  0  0
 35 24  1  0  0  0  0
 37 35  2  0  0  0  0
 42 27  1  0  0  0  0
 46 32  1  0  0  0  0
 47 33  1  0  0  0  0
M  END
$$$$
