GTY.pdb
 OpenBabel07022418253D

 44 44  0  0  1  0  0  0  0  0999 V2000
    3.6110   -2.0170   -2.0140 N   0  0  0  0  0  0  0  0  0  0  0  0
    2.7310   -2.2490   -0.8860 C   0  0  0  0  0  0  0  0  0  0  0  0
    1.3390   -2.0450   -1.3340 C   0  0  0  0  0  0  0  0  0  0  0  0
    1.0700   -1.7310   -2.5250 O   0  0  0  0  0  0  0  0  0  0  0  0
    4.3880   -2.6960   -2.0670 H   0  0  0  0  0  0  0  0  0  0  0  0
    3.1390   -1.8760   -2.9100 H   0  0  0  0  0  0  0  0  0  0  0  0
    3.0000   -1.5280   -0.0760 H   0  0  0  0  0  0  0  0  0  0  0  0
    2.9450   -3.2690   -0.5040 H   0  0  0  0  0  0  0  0  0  0  0  0
   -2.2640   -3.4810    0.7680 C   0  0  0  0  0  0  0  0  0  0  0  0
   -2.0940   -3.0900   -0.6610 C   0  0  1  0  0  0  0  0  0  0  0  0
   -3.3420   -2.6670   -1.1370 O   0  0  0  0  0  0  0  0  0  0  0  0
   -1.1400   -1.9840   -0.8940 C   0  0  2  0  0  0  0  0  0  0  0  0
    0.2070   -2.1800   -0.4790 N   0  0  0  0  0  0  0  0  0  0  0  0
   -1.7000   -0.6900   -0.3410 C   0  0  0  0  0  0  0  0  0  0  0  0
   -2.8630   -0.3300   -0.5600 O   0  0  0  0  0  0  0  0  0  0  0  0
   -1.6490   -2.9420    1.4940 H   0  0  0  0  0  0  0  0  0  0  0  0
   -2.0680   -4.5820    0.9190 H   0  0  0  0  0  0  0  0  0  0  0  0
   -3.3330   -3.3770    1.1160 H   0  0  0  0  0  0  0  0  0  0  0  0
   -1.8270   -3.9670   -1.3170 H   0  0  0  0  0  0  0  0  0  0  0  0
   -3.8520   -3.4510   -1.4430 H   0  0  0  0  0  0  0  0  0  0  0  0
   -1.0960   -1.7720   -2.0020 H   0  0  0  0  0  0  0  0  0  0  0  0
    0.3880   -2.4410    0.5150 H   0  0  0  0  0  0  0  0  0  0  0  0
    4.3330    0.8770    4.0580 O   0  0  0  0  0  0  0  0  0  0  0  0
    3.0040    1.0180    3.6800 C   0  0  0  0  0  0  0  0  0  0  0  0
    2.1060   -0.0250    3.5850 C   0  0  0  0  0  0  0  0  0  0  0  0
    0.7870    0.1160    3.2100 C   0  0  0  0  0  0  0  0  0  0  0  0
    0.3160    1.3730    2.9070 C   0  0  0  0  0  0  0  0  0  0  0  0
   -1.1080    1.5010    2.5020 C   0  0  0  0  0  0  0  0  0  0  0  0
   -1.3010    1.3800    1.0200 C   0  0  2  0  0  0  0  0  0  0  0  0
   -0.8680    0.1440    0.4560 N   0  0  0  0  0  0  0  0  0  0  0  0
   -0.7750    2.5600    0.2740 C   0  0  0  0  0  0  0  0  0  0  0  0
   -1.0650    3.6980    0.6650 O   0  0  0  0  0  0  0  0  0  0  0  0
    1.1600    2.4400    2.9840 C   0  0  0  0  0  0  0  0  0  0  0  0
    2.4630    2.2680    3.3590 C   0  0  0  0  0  0  0  0  0  0  0  0
    0.0180    2.3740   -0.8310 O   0  0  0  0  0  0  0  0  0  0  0  0
    5.0280    0.9250    3.3060 H   0  0  0  0  0  0  0  0  0  0  0  0
    2.4700   -1.0180    3.8210 H   0  0  0  0  0  0  0  0  0  0  0  0
    0.1210   -0.7670    3.1570 H   0  0  0  0  0  0  0  0  0  0  0  0
   -1.4630    2.4970    2.8140 H   0  0  0  0  0  0  0  0  0  0  0  0
   -1.7430    0.7660    3.0300 H   0  0  0  0  0  0  0  0  0  0  0  0
   -2.4190    1.4360    0.8390 H   0  0  0  0  0  0  0  0  0  0  0  0
    0.1250   -0.2000    0.6260 H   0  0  0  0  0  0  0  0  0  0  0  0
    0.8310    3.4430    2.7540 H   0  0  0  0  0  0  0  0  0  0  0  0
    3.1700    3.1080    3.4300 H   0  0  0  0  0  0  0  0  0  0  0  0
  1  2  1  0  0  0  0
  2  8  1  0  0  0  0
  2  7  1  0  0  0  0
  3  2  1  0  0  0  0
  3 13  1  0  0  0  0
  4  3  2  0  0  0  0
  5  1  1  0  0  0  0
  6  1  1  0  0  0  0
  9 17  1  0  0  0  0
  9 18  1  0  0  0  0
  9 16  1  0  0  0  0
 10 19  1  6  0  0  0
 10  9  1  0  0  0  0
 11 10  1  0  0  0  0
 12 21  1  6  0  0  0
 12 10  1  0  0  0  0
 12 13  1  0  0  0  0
 12 14  1  0  0  0  0
 13 22  1  0  0  0  0
 14 30  1  0  0  0  0
 15 14  2  0  0  0  0
 20 11  1  0  0  0  0
 24 23  1  0  0  0  0
 25 24  1  0  0  0  0
 25 37  1  0  0  0  0
 26 25  2  0  0  0  0
 27 33  2  0  0  0  0
 27 26  1  0  0  0  0
 28 39  1  0  0  0  0
 28 27  1  0  0  0  0
 28 40  1  0  0  0  0
 29 41  1  6  0  0  0
 29 28  1  0  0  0  0
 30 42  1  0  0  0  0
 30 29  1  0  0  0  0
 31 32  1  0  0  0  0
 31 29  1  0  0  0  0
 33 34  1  0  0  0  0
 34 44  1  0  0  0  0
 34 24  2  0  0  0  0
 35 31  2  0  0  0  0
 36 23  1  0  0  0  0
 38 26  1  0  0  0  0
 43 33  1  0  0  0  0
M  END
$$$$
