GVC.pdb
 OpenBabel07022418253D

 36 35  0  0  1  0  0  0  0  0999 V2000
   -4.1280   -2.0420    1.3990 N   0  0  0  0  0  0  0  0  0  0  0  0
   -3.2210   -1.2960    0.5760 C   0  0  0  0  0  0  0  0  0  0  0  0
   -1.8210   -1.7930    0.6890 C   0  0  0  0  0  0  0  0  0  0  0  0
   -1.6070   -2.7590    1.4530 O   0  0  0  0  0  0  0  0  0  0  0  0
   -4.2640   -1.5980    2.3520 H   0  0  0  0  0  0  0  0  0  0  0  0
   -5.0810   -1.9950    0.9470 H   0  0  0  0  0  0  0  0  0  0  0  0
   -3.5500   -1.2120   -0.4830 H   0  0  0  0  0  0  0  0  0  0  0  0
   -3.2050   -0.2440    0.9720 H   0  0  0  0  0  0  0  0  0  0  0  0
    0.3130   -3.4230   -1.6690 C   0  0  0  0  0  0  0  0  0  0  0  0
    1.1720   -2.2570   -1.1680 C   0  0  0  0  0  0  0  0  0  0  0  0
    2.5670   -2.7910   -1.0610 C   0  0  0  0  0  0  0  0  0  0  0  0
    0.6080   -1.7250    0.1070 C   0  0  2  0  0  0  0  0  0  0  0  0
   -0.7400   -1.2350   -0.0120 N   0  0  0  0  0  0  0  0  0  0  0  0
    1.4260   -0.6750    0.7320 C   0  0  0  0  0  0  0  0  0  0  0  0
    2.6540   -0.7830    0.9790 O   0  0  0  0  0  0  0  0  0  0  0  0
    0.5970   -3.6730   -2.7340 H   0  0  0  0  0  0  0  0  0  0  0  0
   -0.7570   -3.1340   -1.7260 H   0  0  0  0  0  0  0  0  0  0  0  0
    0.5020   -4.3370   -1.0960 H   0  0  0  0  0  0  0  0  0  0  0  0
    1.1920   -1.4390   -1.9170 H   0  0  0  0  0  0  0  0  0  0  0  0
    3.3510   -2.0180   -1.1010 H   0  0  0  0  0  0  0  0  0  0  0  0
    2.6990   -3.5050   -0.2220 H   0  0  0  0  0  0  0  0  0  0  0  0
    2.7310   -3.4170   -1.9880 H   0  0  0  0  0  0  0  0  0  0  0  0
    0.5800   -2.5820    0.8310 H   0  0  0  0  0  0  0  0  0  0  0  0
   -0.9890   -0.4150   -0.6460 H   0  0  0  0  0  0  0  0  0  0  0  0
    0.8610    0.5820    1.1150 N   0  0  0  0  0  0  0  0  0  0  0  0
    1.6520    1.6300    1.7340 C   0  0  1  0  0  0  0  0  0  0  0  0
    1.6890    2.8840    0.8930 C   0  0  0  0  0  0  0  0  0  0  0  0
    2.7170    4.0910    1.8110 S   0  0  0  0  0  0  0  0  0  0  0  0
    1.1020    1.9630    3.0660 C   0  0  0  0  0  0  0  0  0  0  0  0
    1.6340    2.8470    3.7780 O   0  0  0  0  0  0  0  0  0  0  0  0
   -0.0140    1.2910    3.5330 O   0  0  0  0  0  0  0  0  0  0  0  0
   -0.1520    0.8020    0.9650 H   0  0  0  0  0  0  0  0  0  0  0  0
    2.7210    1.3040    1.8520 H   0  0  0  0  0  0  0  0  0  0  0  0
    0.6970    3.3570    0.7800 H   0  0  0  0  0  0  0  0  0  0  0  0
    2.2140    2.6950   -0.0500 H   0  0  0  0  0  0  0  0  0  0  0  0
    3.8790    3.4470    2.3230 H   0  0  0  0  0  0  0  0  0  0  0  0
  1  5  1  0  0  0  0
  2  3  1  0  0  0  0
  2  8  1  0  0  0  0
  2  1  1  0  0  0  0
  3  4  2  0  0  0  0
  6  1  1  0  0  0  0
  7  2  1  0  0  0  0
  9 10  1  0  0  0  0
  9 18  1  0  0  0  0
 10 11  1  0  0  0  0
 10 12  1  0  0  0  0
 11 21  1  0  0  0  0
 12 14  1  0  0  0  0
 12 23  1  1  0  0  0
 13 12  1  0  0  0  0
 13  3  1  0  0  0  0
 14 15  2  0  0  0  0
 14 25  1  0  0  0  0
 16  9  1  0  0  0  0
 17  9  1  0  0  0  0
 19 10  1  0  0  0  0
 20 11  1  0  0  0  0
 22 11  1  0  0  0  0
 24 13  1  0  0  0  0
 25 26  1  0  0  0  0
 26 33  1  1  0  0  0
 26 29  1  0  0  0  0
 27 26  1  0  0  0  0
 27 28  1  0  0  0  0
 28 36  1  0  0  0  0
 29 31  2  0  0  0  0
 29 30  1  0  0  0  0
 32 25  1  0  0  0  0
 34 27  1  0  0  0  0
 35 27  1  0  0  0  0
M  END
$$$$
