GVN.pdb
 OpenBabel07022418253D

 39 38  0  0  1  0  0  0  0  0999 V2000
    1.0320   -3.8530    4.1250 N   0  0  0  0  0  0  0  0  0  0  0  0
    1.9200   -4.2180    3.0400 C   0  0  0  0  0  0  0  0  0  0  0  0
    1.5650   -3.4290    1.8230 C   0  0  0  0  0  0  0  0  0  0  0  0
    2.1980   -3.5690    0.7390 O   0  0  0  0  0  0  0  0  0  0  0  0
    1.1850   -2.8460    4.3430 H   0  0  0  0  0  0  0  0  0  0  0  0
    0.0510   -4.1180    3.9570 H   0  0  0  0  0  0  0  0  0  0  0  0
    2.9600   -3.9360    3.3570 H   0  0  0  0  0  0  0  0  0  0  0  0
    1.8450   -5.2940    2.7830 H   0  0  0  0  0  0  0  0  0  0  0  0
   -1.7130   -1.5070   -1.0140 C   0  0  0  0  0  0  0  0  0  0  0  0
   -1.2110   -2.1840    0.2310 C   0  0  0  0  0  0  0  0  0  0  0  0
   -1.0810   -3.6770   -0.0800 C   0  0  0  0  0  0  0  0  0  0  0  0
    0.1640   -1.7260    0.6450 C   0  0  2  0  0  0  0  0  0  0  0  0
    0.5030   -2.4990    1.8550 N   0  0  0  0  0  0  0  0  0  0  0  0
    0.2950   -0.2940    0.9210 C   0  0  0  0  0  0  0  0  0  0  0  0
    0.5530    0.1040    2.1130 O   0  0  0  0  0  0  0  0  0  0  0  0
   -2.1420   -0.5160   -0.7950 H   0  0  0  0  0  0  0  0  0  0  0  0
   -0.9420   -1.4930   -1.8110 H   0  0  0  0  0  0  0  0  0  0  0  0
   -2.5350   -2.1710   -1.4490 H   0  0  0  0  0  0  0  0  0  0  0  0
   -1.9420   -2.1220    1.0640 H   0  0  0  0  0  0  0  0  0  0  0  0
   -0.4760   -3.8630   -0.9790 H   0  0  0  0  0  0  0  0  0  0  0  0
   -0.5990   -4.2200    0.7530 H   0  0  0  0  0  0  0  0  0  0  0  0
   -2.0850   -4.1080   -0.2560 H   0  0  0  0  0  0  0  0  0  0  0  0
    0.8730   -2.0420   -0.1360 H   0  0  0  0  0  0  0  0  0  0  0  0
   -0.0770   -2.3150    2.7030 H   0  0  0  0  0  0  0  0  0  0  0  0
    2.3020    4.5220    1.1020 N   0  0  0  0  0  0  0  0  0  0  0  0
    1.5920    4.1680   -0.0790 C   0  0  0  0  0  0  0  0  0  0  0  0
    1.0960    5.1250   -0.7450 O   0  0  0  0  0  0  0  0  0  0  0  0
    1.4730    2.7460   -0.4520 C   0  0  0  0  0  0  0  0  0  0  0  0
    0.3110    2.1340    0.2960 C   0  0  2  0  0  0  0  0  0  0  0  0
    0.1630    0.7230   -0.0440 N   0  0  0  0  0  0  0  0  0  0  0  0
   -0.9170    2.8490   -0.0750 C   0  0  0  0  0  0  0  0  0  0  0  0
   -1.0580    4.0660    0.1690 O   0  0  0  0  0  0  0  0  0  0  0  0
   -1.9520    2.1900   -0.7070 O   0  0  0  0  0  0  0  0  0  0  0  0
    2.1280    5.3800    1.6630 H   0  0  0  0  0  0  0  0  0  0  0  0
    3.0500    3.8780    1.4270 H   0  0  0  0  0  0  0  0  0  0  0  0
    1.3590    2.6450   -1.5480 H   0  0  0  0  0  0  0  0  0  0  0  0
    2.4380    2.2650   -0.1980 H   0  0  0  0  0  0  0  0  0  0  0  0
    0.4930    2.1790    1.3950 H   0  0  0  0  0  0  0  0  0  0  0  0
   -0.0370    0.5270   -1.0450 H   0  0  0  0  0  0  0  0  0  0  0  0
  1  5  1  0  0  0  0
  2  7  1  0  0  0  0
  2  1  1  0  0  0  0
  3 13  1  0  0  0  0
  3  2  1  0  0  0  0
  4  3  2  0  0  0  0
  6  1  1  0  0  0  0
  8  2  1  0  0  0  0
  9 16  1  0  0  0  0
  9 10  1  0  0  0  0
 10 12  1  0  0  0  0
 10 19  1  0  0  0  0
 11 10  1  0  0  0  0
 11 21  1  0  0  0  0
 12 23  1  6  0  0  0
 12 14  1  0  0  0  0
 12 13  1  0  0  0  0
 13 24  1  0  0  0  0
 14 15  2  0  0  0  0
 17  9  1  0  0  0  0
 18  9  1  0  0  0  0
 20 11  1  0  0  0  0
 22 11  1  0  0  0  0
 25 35  1  0  0  0  0
 25 34  1  0  0  0  0
 26 25  1  0  0  0  0
 27 26  2  0  0  0  0
 28 37  1  0  0  0  0
 28 26  1  0  0  0  0
 28 29  1  0  0  0  0
 29 38  1  1  0  0  0
 30 29  1  0  0  0  0
 30 14  1  0  0  0  0
 31 32  1  0  0  0  0
 31 29  1  0  0  0  0
 33 31  2  0  0  0  0
 36 28  1  0  0  0  0
 39 30  1  0  0  0  0
M  END
$$$$
