GVP.pdb
 OpenBabel07022418253D

 39 39  0  0  1  0  0  0  0  0999 V2000
   -3.0030   -1.3550    2.1460 N   0  0  0  0  0  0  0  0  0  0  0  0
   -2.0190   -1.9950    2.9630 C   0  0  0  0  0  0  0  0  0  0  0  0
   -0.6820   -2.0360    2.3660 C   0  0  0  0  0  0  0  0  0  0  0  0
    0.2610   -2.5750    2.9950 O   0  0  0  0  0  0  0  0  0  0  0  0
   -3.5250   -0.5820    2.6380 H   0  0  0  0  0  0  0  0  0  0  0  0
   -3.7270   -2.0480    1.8530 H   0  0  0  0  0  0  0  0  0  0  0  0
   -2.3180   -3.0400    3.2050 H   0  0  0  0  0  0  0  0  0  0  0  0
   -2.0090   -1.4600    3.9570 H   0  0  0  0  0  0  0  0  0  0  0  0
    0.5510   -3.8900   -0.2640 C   0  0  0  0  0  0  0  0  0  0  0  0
    1.0250   -2.4980   -0.6560 C   0  0  0  0  0  0  0  0  0  0  0  0
    2.4650   -2.6490   -1.0930 C   0  0  0  0  0  0  0  0  0  0  0  0
    0.9790   -1.5650    0.5480 C   0  0  2  0  0  0  0  0  0  0  0  0
   -0.3530   -1.4890    1.0710 N   0  0  0  0  0  0  0  0  0  0  0  0
    1.6380   -0.3180    0.2070 C   0  0  0  0  0  0  0  0  0  0  0  0
    2.8100   -0.3380   -0.3570 O   0  0  0  0  0  0  0  0  0  0  0  0
    1.0100   -4.1790    0.7140 H   0  0  0  0  0  0  0  0  0  0  0  0
   -0.5300   -3.9700   -0.1840 H   0  0  0  0  0  0  0  0  0  0  0  0
    0.9100   -4.6320   -1.0060 H   0  0  0  0  0  0  0  0  0  0  0  0
    0.4140   -2.1580   -1.5020 H   0  0  0  0  0  0  0  0  0  0  0  0
    2.6310   -3.6950   -1.4820 H   0  0  0  0  0  0  0  0  0  0  0  0
    3.1930   -2.5670   -0.2610 H   0  0  0  0  0  0  0  0  0  0  0  0
    2.7410   -1.9730   -1.9210 H   0  0  0  0  0  0  0  0  0  0  0  0
    1.6200   -2.1020    1.3190 H   0  0  0  0  0  0  0  0  0  0  0  0
   -1.1190   -1.0540    0.5160 H   0  0  0  0  0  0  0  0  0  0  0  0
    1.1380    0.9860    0.4210 N   0  0  0  0  0  0  0  0  0  0  0  0
    1.8100    2.2360   -0.0150 C   0  0  0  0  0  0  0  0  0  0  0  0
    1.5260    3.1740    1.1190 C   0  0  0  0  0  0  0  0  0  0  0  0
    0.4100    2.6000    1.9100 C   0  0  0  0  0  0  0  0  0  0  0  0
   -0.0410    1.4070    1.0800 C   0  0  1  0  0  0  0  0  0  0  0  0
   -1.0590    1.8050    0.0770 C   0  0  0  0  0  0  0  0  0  0  0  0
   -2.1880    2.2440    0.3800 O   0  0  0  0  0  0  0  0  0  0  0  0
   -0.7550    1.6870   -1.2670 O   0  0  0  0  0  0  0  0  0  0  0  0
    2.8940    2.0490   -0.1490 H   0  0  0  0  0  0  0  0  0  0  0  0
    1.3340    2.6410   -0.9280 H   0  0  0  0  0  0  0  0  0  0  0  0
    1.2180    4.1870    0.7740 H   0  0  0  0  0  0  0  0  0  0  0  0
    2.4540    3.2780    1.7510 H   0  0  0  0  0  0  0  0  0  0  0  0
    0.8180    2.1950    2.8580 H   0  0  0  0  0  0  0  0  0  0  0  0
   -0.4210    3.3070    2.1030 H   0  0  0  0  0  0  0  0  0  0  0  0
   -0.4650    0.7050    1.8330 H   0  0  0  0  0  0  0  0  0  0  0  0
  1  5  1  0  0  0  0
  1  2  1  0  0  0  0
  2  7  1  0  0  0  0
  2  8  1  0  0  0  0
  3  2  1  0  0  0  0
  3  4  2  0  0  0  0
  6  1  1  0  0  0  0
  9 17  1  0  0  0  0
  9 16  1  0  0  0  0
 10  9  1  0  0  0  0
 10 12  1  0  0  0  0
 11 10  1  0  0  0  0
 11 21  1  0  0  0  0
 12 13  1  0  0  0  0
 12 23  1  1  0  0  0
 13  3  1  0  0  0  0
 14 25  1  0  0  0  0
 14 12  1  0  0  0  0
 15 14  2  0  0  0  0
 18  9  1  0  0  0  0
 19 10  1  0  0  0  0
 20 11  1  0  0  0  0
 22 11  1  0  0  0  0
 24 13  1  0  0  0  0
 25 29  1  0  0  0  0
 26 25  1  0  0  0  0
 26 27  1  0  0  0  0
 27 36  1  0  0  0  0
 27 28  1  0  0  0  0
 28 38  1  0  0  0  0
 28 37  1  0  0  0  0
 29 39  1  1  0  0  0
 29 28  1  0  0  0  0
 30 31  1  0  0  0  0
 30 29  1  0  0  0  0
 32 30  2  0  0  0  0
 33 26  1  0  0  0  0
 34 26  1  0  0  0  0
 35 27  1  0  0  0  0
M  END
$$$$
