GVS.pdb
 OpenBabel07022418253D

 36 35  0  0  1  0  0  0  0  0999 V2000
   -2.5230   -1.0280    2.8510 N   0  0  0  0  0  0  0  0  0  0  0  0
   -1.4240   -1.4630    3.6430 C   0  0  0  0  0  0  0  0  0  0  0  0
   -0.1840   -1.6950    2.8420 C   0  0  0  0  0  0  0  0  0  0  0  0
    0.8700   -2.0800    3.3920 O   0  0  0  0  0  0  0  0  0  0  0  0
   -3.0260   -1.7920    2.3530 H   0  0  0  0  0  0  0  0  0  0  0  0
   -2.3380   -0.1970    2.2610 H   0  0  0  0  0  0  0  0  0  0  0  0
   -1.2370   -0.7450    4.4810 H   0  0  0  0  0  0  0  0  0  0  0  0
   -1.6950   -2.4260    4.1180 H   0  0  0  0  0  0  0  0  0  0  0  0
    0.4310   -4.0890    0.1760 C   0  0  0  0  0  0  0  0  0  0  0  0
    0.7950   -2.7460   -0.4520 C   0  0  0  0  0  0  0  0  0  0  0  0
    2.0870   -2.9880   -1.2070 C   0  0  0  0  0  0  0  0  0  0  0  0
    1.0190   -1.6990    0.6170 C   0  0  2  0  0  0  0  0  0  0  0  0
   -0.1530   -1.4890    1.4340 N   0  0  0  0  0  0  0  0  0  0  0  0
    1.3220   -0.4130   -0.0640 C   0  0  0  0  0  0  0  0  0  0  0  0
    2.3110   -0.3470   -0.8400 O   0  0  0  0  0  0  0  0  0  0  0  0
    0.5370   -4.8790   -0.5680 H   0  0  0  0  0  0  0  0  0  0  0  0
    1.1360   -4.2360    1.0130 H   0  0  0  0  0  0  0  0  0  0  0  0
   -0.5910   -4.0820    0.5970 H   0  0  0  0  0  0  0  0  0  0  0  0
    0.0470   -2.4240   -1.2020 H   0  0  0  0  0  0  0  0  0  0  0  0
    2.1530   -2.3070   -2.0990 H   0  0  0  0  0  0  0  0  0  0  0  0
    2.1630   -4.0330   -1.5030 H   0  0  0  0  0  0  0  0  0  0  0  0
    2.9550   -2.7500   -0.5370 H   0  0  0  0  0  0  0  0  0  0  0  0
    1.8870   -2.0450    1.2230 H   0  0  0  0  0  0  0  0  0  0  0  0
   -1.0460   -1.1690    1.0010 H   0  0  0  0  0  0  0  0  0  0  0  0
   -1.3590    2.7580   -0.4560 O   0  0  0  0  0  0  0  0  0  0  0  0
   -0.3020    2.5420   -1.3500 C   0  0  0  0  0  0  0  0  0  0  0  0
    0.8600    2.0000   -0.5570 C   0  0  2  0  0  0  0  0  0  0  0  0
    0.5560    0.7560    0.1100 N   0  0  0  0  0  0  0  0  0  0  0  0
    1.1690    3.0020    0.4890 C   0  0  0  0  0  0  0  0  0  0  0  0
    1.4640    4.1620    0.1430 O   0  0  0  0  0  0  0  0  0  0  0  0
    1.1410    2.6920    1.8340 O   0  0  0  0  0  0  0  0  0  0  0  0
   -1.9070    1.9200   -0.4810 H   0  0  0  0  0  0  0  0  0  0  0  0
   -0.5900    1.9400   -2.2040 H   0  0  0  0  0  0  0  0  0  0  0  0
    0.0030    3.5420   -1.7230 H   0  0  0  0  0  0  0  0  0  0  0  0
    1.7450    1.9170   -1.2030 H   0  0  0  0  0  0  0  0  0  0  0  0
   -0.2620    0.6950    0.7550 H   0  0  0  0  0  0  0  0  0  0  0  0
  1  2  1  0  0  0  0
  2  8  1  0  0  0  0
  2  7  1  0  0  0  0
  3  4  2  0  0  0  0
  3  2  1  0  0  0  0
  5  1  1  0  0  0  0
  6  1  1  0  0  0  0
  9 18  1  0  0  0  0
  9 17  1  0  0  0  0
 10  9  1  0  0  0  0
 10 12  1  0  0  0  0
 11 22  1  0  0  0  0
 11 10  1  0  0  0  0
 12 23  1  1  0  0  0
 12 13  1  0  0  0  0
 13  3  1  0  0  0  0
 14 28  1  0  0  0  0
 14 12  1  0  0  0  0
 15 14  2  0  0  0  0
 16  9  1  0  0  0  0
 19 10  1  0  0  0  0
 20 11  1  0  0  0  0
 21 11  1  0  0  0  0
 24 13  1  0  0  0  0
 26 27  1  0  0  0  0
 26 25  1  0  0  0  0
 27 35  1  6  0  0  0
 27 28  1  0  0  0  0
 27 29  1  0  0  0  0
 28 36  1  0  0  0  0
 29 31  1  0  0  0  0
 30 29  2  0  0  0  0
 32 25  1  0  0  0  0
 33 26  1  0  0  0  0
 34 26  1  0  0  0  0
M  END
$$$$
