GVY.pdb
 OpenBabel07022418253D

 46 46  0  0  1  0  0  0  0  0999 V2000
    3.0570   -4.7540   -0.7170 N   0  0  0  0  0  0  0  0  0  0  0  0
    1.7230   -4.6080   -0.1780 C   0  0  0  0  0  0  0  0  0  0  0  0
    1.2230   -3.2600   -0.4710 C   0  0  0  0  0  0  0  0  0  0  0  0
    1.9410   -2.4630   -1.0960 O   0  0  0  0  0  0  0  0  0  0  0  0
    3.2080   -5.7340   -1.0910 H   0  0  0  0  0  0  0  0  0  0  0  0
    3.2130   -4.1330   -1.5540 H   0  0  0  0  0  0  0  0  0  0  0  0
    1.8200   -4.7170    0.9380 H   0  0  0  0  0  0  0  0  0  0  0  0
    1.0990   -5.4200   -0.6060 H   0  0  0  0  0  0  0  0  0  0  0  0
   -2.0160    0.0850   -1.5090 C   0  0  0  0  0  0  0  0  0  0  0  0
   -1.6900   -1.3770   -1.2820 C   0  0  0  0  0  0  0  0  0  0  0  0
   -1.3900   -1.9900   -2.6320 C   0  0  0  0  0  0  0  0  0  0  0  0
   -0.4930   -1.4790   -0.3870 C   0  0  2  0  0  0  0  0  0  0  0  0
   -0.0600   -2.7880   -0.0790 N   0  0  0  0  0  0  0  0  0  0  0  0
   -0.6670   -0.6240    0.8480 C   0  0  0  0  0  0  0  0  0  0  0  0
   -1.0430    0.5650    0.7510 O   0  0  0  0  0  0  0  0  0  0  0  0
   -2.7850    0.4620   -0.8010 H   0  0  0  0  0  0  0  0  0  0  0  0
   -1.1260    0.7190   -1.5790 H   0  0  0  0  0  0  0  0  0  0  0  0
   -2.5120    0.1560   -2.5220 H   0  0  0  0  0  0  0  0  0  0  0  0
   -2.5990   -1.8480   -0.8920 H   0  0  0  0  0  0  0  0  0  0  0  0
   -1.5000   -3.0920   -2.5860 H   0  0  0  0  0  0  0  0  0  0  0  0
   -2.1510   -1.6460   -3.3800 H   0  0  0  0  0  0  0  0  0  0  0  0
   -0.4050   -1.6700   -3.0270 H   0  0  0  0  0  0  0  0  0  0  0  0
    0.3250   -0.9740   -0.9470 H   0  0  0  0  0  0  0  0  0  0  0  0
   -0.6550   -3.4910    0.4570 H   0  0  0  0  0  0  0  0  0  0  0  0
    2.0250    4.5920    0.4870 O   0  0  0  0  0  0  0  0  0  0  0  0
    1.6890    3.5160    1.3150 C   0  0  0  0  0  0  0  0  0  0  0  0
    2.2230    2.2640    1.1350 C   0  0  0  0  0  0  0  0  0  0  0  0
    1.9130    1.1970    1.9290 C   0  0  0  0  0  0  0  0  0  0  0  0
    1.0250    1.3670    2.9630 C   0  0  0  0  0  0  0  0  0  0  0  0
    0.6500    0.2450    3.8620 C   0  0  0  0  0  0  0  0  0  0  0  0
   -0.5220   -0.5350    3.3910 C   0  0  2  0  0  0  0  0  0  0  0  0
   -0.4090   -1.1540    2.1260 N   0  0  0  0  0  0  0  0  0  0  0  0
   -1.8080    0.1940    3.5030 C   0  0  0  0  0  0  0  0  0  0  0  0
   -2.6460    0.1360    2.5970 O   0  0  0  0  0  0  0  0  0  0  0  0
    0.4710    2.6010    3.1760 C   0  0  0  0  0  0  0  0  0  0  0  0
    0.7930    3.6740    2.3650 C   0  0  0  0  0  0  0  0  0  0  0  0
   -2.1480    0.9740    4.6160 O   0  0  0  0  0  0  0  0  0  0  0  0
    1.3700    5.3460    0.3410 H   0  0  0  0  0  0  0  0  0  0  0  0
    2.9290    2.1400    0.3100 H   0  0  0  0  0  0  0  0  0  0  0  0
    2.3700    0.2180    1.7380 H   0  0  0  0  0  0  0  0  0  0  0  0
    1.5280   -0.3820    4.1260 H   0  0  0  0  0  0  0  0  0  0  0  0
    0.3660    0.7200    4.8350 H   0  0  0  0  0  0  0  0  0  0  0  0
   -0.6820   -1.4050    4.1400 H   0  0  0  0  0  0  0  0  0  0  0  0
   -0.0730   -2.1760    2.1350 H   0  0  0  0  0  0  0  0  0  0  0  0
   -0.2400    2.8140    3.9780 H   0  0  0  0  0  0  0  0  0  0  0  0
    0.3640    4.6590    2.5170 H   0  0  0  0  0  0  0  0  0  0  0  0
  1  2  1  0  0  0  0
  2  7  1  0  0  0  0
  3  2  1  0  0  0  0
  3 13  1  0  0  0  0
  4  3  2  0  0  0  0
  5  1  1  0  0  0  0
  6  1  1  0  0  0  0
  8  2  1  0  0  0  0
  9 10  1  0  0  0  0
  9 16  1  0  0  0  0
 10 19  1  0  0  0  0
 10 12  1  0  0  0  0
 11 20  1  0  0  0  0
 11 10  1  0  0  0  0
 12 23  1  6  0  0  0
 12 13  1  0  0  0  0
 12 14  1  0  0  0  0
 13 24  1  0  0  0  0
 14 32  1  0  0  0  0
 15 14  2  0  0  0  0
 17  9  1  0  0  0  0
 18  9  1  0  0  0  0
 21 11  1  0  0  0  0
 22 11  1  0  0  0  0
 25 26  1  0  0  0  0
 26 36  1  0  0  0  0
 27 26  2  0  0  0  0
 27 28  1  0  0  0  0
 28 29  2  0  0  0  0
 29 35  1  0  0  0  0
 29 30  1  0  0  0  0
 30 41  1  0  0  0  0
 30 42  1  0  0  0  0
 31 33  1  0  0  0  0
 31 30  1  0  0  0  0
 31 43  1  1  0  0  0
 32 44  1  0  0  0  0
 32 31  1  0  0  0  0
 33 37  1  0  0  0  0
 34 33  2  0  0  0  0
 35 45  1  0  0  0  0
 36 46  1  0  0  0  0
 36 35  2  0  0  0  0
 38 25  1  0  0  0  0
 39 27  1  0  0  0  0
 40 28  1  0  0  0  0
M  END
$$$$
