GWE.pdb
 OpenBabel07022418253D

 49 50  0  0  1  0  0  0  0  0999 V2000
   -1.2250   -2.4510    4.7510 N   0  0  0  0  0  0  0  0  0  0  0  0
   -0.6750   -1.1820    5.1880 C   0  0  0  0  0  0  0  0  0  0  0  0
    0.0400   -0.5030    4.0500 C   0  0  0  0  0  0  0  0  0  0  0  0
    0.6020    0.6080    4.1850 O   0  0  0  0  0  0  0  0  0  0  0  0
   -2.2310   -2.4110    4.5610 H   0  0  0  0  0  0  0  0  0  0  0  0
   -0.9880   -3.2400    5.3800 H   0  0  0  0  0  0  0  0  0  0  0  0
    0.0360   -1.3580    6.0150 H   0  0  0  0  0  0  0  0  0  0  0  0
   -1.5450   -0.5690    5.5090 H   0  0  0  0  0  0  0  0  0  0  0  0
    0.0770   -1.1340    2.8030 N   0  0  0  0  0  0  0  0  0  0  0  0
    0.7190   -0.6160    1.6180 C   0  0  1  0  0  0  0  0  0  0  0  0
    1.7770   -1.5180    1.0770 C   0  0  0  0  0  0  0  0  0  0  0  0
    2.3700   -0.8970   -0.1340 C   0  0  0  0  0  0  0  0  0  0  0  0
    2.1600   -1.2260   -1.4520 C   0  0  0  0  0  0  0  0  0  0  0  0
    2.8970   -0.4120   -2.2090 N   0  0  0  0  0  0  0  0  0  0  0  0
    3.6000    0.4590   -1.4630 C   0  0  0  0  0  0  0  0  0  0  0  0
    4.4850    1.4770   -1.7490 C   0  0  0  0  0  0  0  0  0  0  0  0
    5.0330    2.1850   -0.7000 C   0  0  0  0  0  0  0  0  0  0  0  0
    4.7100    1.8890    0.6140 C   0  0  0  0  0  0  0  0  0  0  0  0
    3.8270    0.8730    0.9100 C   0  0  0  0  0  0  0  0  0  0  0  0
    3.2790    0.1650   -0.1540 C   0  0  0  0  0  0  0  0  0  0  0  0
   -0.3080   -0.2760    0.6040 C   0  0  0  0  0  0  0  0  0  0  0  0
   -0.0090    0.1930   -0.5210 O   0  0  0  0  0  0  0  0  0  0  0  0
   -0.4000   -2.0700    2.7000 H   0  0  0  0  0  0  0  0  0  0  0  0
    1.1880    0.3490    1.9070 H   0  0  0  0  0  0  0  0  0  0  0  0
    2.5920   -1.6880    1.7840 H   0  0  0  0  0  0  0  0  0  0  0  0
    1.3830   -2.5090    0.7580 H   0  0  0  0  0  0  0  0  0  0  0  0
    1.4870   -2.0340   -1.7640 H   0  0  0  0  0  0  0  0  0  0  0  0
    2.9360   -0.4330   -3.2680 H   0  0  0  0  0  0  0  0  0  0  0  0
    4.7430    1.7130   -2.7880 H   0  0  0  0  0  0  0  0  0  0  0  0
    5.7360    2.9980   -0.8660 H   0  0  0  0  0  0  0  0  0  0  0  0
    5.1270    2.4290    1.4480 H   0  0  0  0  0  0  0  0  0  0  0  0
    3.5700    0.6370    1.9480 H   0  0  0  0  0  0  0  0  0  0  0  0
   -1.6820   -0.4800    0.8930 N   0  0  0  0  0  0  0  0  0  0  0  0
   -2.6610   -0.1310   -0.1330 C   0  0  1  0  0  0  0  0  0  0  0  0
   -3.5380   -1.3110   -0.3930 C   0  0  0  0  0  0  0  0  0  0  0  0
   -2.8190   -2.5330   -0.8720 C   0  0  0  0  0  0  0  0  0  0  0  0
   -2.1000   -2.3340   -2.1510 C   0  0  0  0  0  0  0  0  0  0  0  0
   -2.1010   -1.2560   -2.7900 O   0  0  0  0  0  0  0  0  0  0  0  0
   -3.5520    0.9550    0.4200 C   0  0  0  0  0  0  0  0  0  0  0  0
   -3.3780    1.4030    1.5860 O   0  0  0  0  0  0  0  0  0  0  0  0
   -1.3590   -3.3760   -2.7290 O   0  0  0  0  0  0  0  0  0  0  0  0
   -4.5760    1.4730   -0.3550 O   0  0  0  0  0  0  0  0  0  0  0  0
   -2.0030   -0.8650    1.8040 H   0  0  0  0  0  0  0  0  0  0  0  0
   -2.1640    0.2440   -1.0380 H   0  0  0  0  0  0  0  0  0  0  0  0
   -4.1880   -1.5670    0.4720 H   0  0  0  0  0  0  0  0  0  0  0  0
   -4.2670   -1.0460   -1.2160 H   0  0  0  0  0  0  0  0  0  0  0  0
   -2.0630   -2.8350   -0.0890 H   0  0  0  0  0  0  0  0  0  0  0  0
   -3.4980   -3.4080   -0.9800 H   0  0  0  0  0  0  0  0  0  0  0  0
   -1.3830   -3.5060   -3.7480 H   0  0  0  0  0  0  0  0  0  0  0  0
  1  2  1  0  0  0  0
  1  6  1  0  0  0  0
  2  8  1  0  0  0  0
  2  7  1  0  0  0  0
  3  4  2  0  0  0  0
  3  2  1  0  0  0  0
  5  1  1  0  0  0  0
  9  3  1  0  0  0  0
 10 24  1  1  0  0  0
 10  9  1  0  0  0  0
 11 10  1  0  0  0  0
 11 25  1  0  0  0  0
 12 11  1  0  0  0  0
 13 12  2  0  0  0  0
 14 15  1  0  0  0  0
 14 13  1  0  0  0  0
 15 20  1  0  0  0  0
 16 15  2  0  0  0  0
 16 17  1  0  0  0  0
 17 18  2  0  0  0  0
 18 19  1  0  0  0  0
 18 31  1  0  0  0  0
 19 32  1  0  0  0  0
 20 12  1  0  0  0  0
 20 19  2  0  0  0  0
 21 33  1  0  0  0  0
 21 10  1  0  0  0  0
 22 21  2  0  0  0  0
 23  9  1  0  0  0  0
 26 11  1  0  0  0  0
 27 13  1  0  0  0  0
 28 14  1  0  0  0  0
 29 16  1  0  0  0  0
 30 17  1  0  0  0  0
 33 43  1  0  0  0  0
 34 44  1  6  0  0  0
 34 39  1  0  0  0  0
 34 33  1  0  0  0  0
 35 34  1  0  0  0  0
 35 45  1  0  0  0  0
 36 35  1  0  0  0  0
 36 47  1  0  0  0  0
 37 36  1  0  0  0  0
 38 37  2  0  0  0  0
 39 40  1  0  0  0  0
 41 37  1  0  0  0  0
 42 39  2  0  0  0  0
 46 35  1  0  0  0  0
 48 36  1  0  0  0  0
 49 41  1  0  0  0  0
M  END
$$$$
