GWF.pdb
 OpenBabel07022418253D

 53 55  0  0  1  0  0  0  0  0999 V2000
   -0.4130    3.8400    3.8900 N   0  0  0  0  0  0  0  0  0  0  0  0
    0.3620    2.6280    3.7440 C   0  0  0  0  0  0  0  0  0  0  0  0
   -0.0170    1.9920    2.4480 C   0  0  0  0  0  0  0  0  0  0  0  0
   -0.8860    2.5200    1.6860 O   0  0  0  0  0  0  0  0  0  0  0  0
    0.1810    4.6510    4.1940 H   0  0  0  0  0  0  0  0  0  0  0  0
   -0.9670    4.0550    3.0300 H   0  0  0  0  0  0  0  0  0  0  0  0
    1.4300    2.8430    3.7280 H   0  0  0  0  0  0  0  0  0  0  0  0
    0.1760    1.9260    4.5980 H   0  0  0  0  0  0  0  0  0  0  0  0
    0.5630    0.7810    1.9970 N   0  0  0  0  0  0  0  0  0  0  0  0
    0.2260    0.1350    0.7550 C   0  0  1  0  0  0  0  0  0  0  0  0
    1.3540    0.2140   -0.2290 C   0  0  0  0  0  0  0  0  0  0  0  0
    1.7380    1.5920   -0.5720 C   0  0  0  0  0  0  0  0  0  0  0  0
    1.3150    2.2690   -1.7160 C   0  0  0  0  0  0  0  0  0  0  0  0
    1.8200    3.5080   -1.7160 N   0  0  0  0  0  0  0  0  0  0  0  0
    2.5530    3.6610   -0.6180 C   0  0  0  0  0  0  0  0  0  0  0  0
    3.2740    4.7490   -0.1750 C   0  0  0  0  0  0  0  0  0  0  0  0
    3.9760    4.6740    1.0070 C   0  0  0  0  0  0  0  0  0  0  0  0
    3.9340    3.4950    1.7210 C   0  0  0  0  0  0  0  0  0  0  0  0
    3.2260    2.4040    1.3020 C   0  0  0  0  0  0  0  0  0  0  0  0
    2.5220    2.4730    0.1220 C   0  0  0  0  0  0  0  0  0  0  0  0
   -0.2410   -1.2600    0.9650 C   0  0  0  0  0  0  0  0  0  0  0  0
   -0.3070   -1.7450    2.1250 O   0  0  0  0  0  0  0  0  0  0  0  0
    1.2740    0.3400    2.6200 H   0  0  0  0  0  0  0  0  0  0  0  0
   -0.5920    0.7740    0.3010 H   0  0  0  0  0  0  0  0  0  0  0  0
    1.1690   -0.3820   -1.1470 H   0  0  0  0  0  0  0  0  0  0  0  0
    2.2620   -0.2690    0.2350 H   0  0  0  0  0  0  0  0  0  0  0  0
    0.6770    1.8430   -2.4760 H   0  0  0  0  0  0  0  0  0  0  0  0
    1.6450    4.2180   -2.4730 H   0  0  0  0  0  0  0  0  0  0  0  0
    3.2790    5.6500   -0.7660 H   0  0  0  0  0  0  0  0  0  0  0  0
    4.5340    5.5450    1.3320 H   0  0  0  0  0  0  0  0  0  0  0  0
    4.4780    3.4290    2.6430 H   0  0  0  0  0  0  0  0  0  0  0  0
    3.2160    1.4910    1.8720 H   0  0  0  0  0  0  0  0  0  0  0  0
   -0.6340   -2.1110   -0.1010 N   0  0  0  0  0  0  0  0  0  0  0  0
   -1.0900   -3.4720    0.0990 C   0  0  1  0  0  0  0  0  0  0  0  0
   -2.4750   -3.5730   -0.5030 C   0  0  0  0  0  0  0  0  0  0  0  0
   -3.0700   -4.9230   -0.3790 C   0  0  0  0  0  0  0  0  0  0  0  0
   -3.7850   -5.2900    0.7340 C   0  0  0  0  0  0  0  0  0  0  0  0
   -4.3340   -6.5490    0.8200 C   0  0  0  0  0  0  0  0  0  0  0  0
   -4.1630   -7.4430   -0.2210 C   0  0  0  0  0  0  0  0  0  0  0  0
   -3.4500   -7.1030   -1.3520 C   0  0  0  0  0  0  0  0  0  0  0  0
   -2.9110   -5.8420   -1.4180 C   0  0  0  0  0  0  0  0  0  0  0  0
   -0.1570   -4.3780   -0.5930 C   0  0  0  0  0  0  0  0  0  0  0  0
    0.8040   -3.8910   -1.2320 O   0  0  0  0  0  0  0  0  0  0  0  0
   -0.2610   -5.7630   -0.5940 O   0  0  0  0  0  0  0  0  0  0  0  0
   -0.6020   -1.7650   -1.0840 H   0  0  0  0  0  0  0  0  0  0  0  0
   -1.0900   -3.7520    1.1750 H   0  0  0  0  0  0  0  0  0  0  0  0
   -3.1790   -2.8760    0.0140 H   0  0  0  0  0  0  0  0  0  0  0  0
   -2.4330   -3.2830   -1.5700 H   0  0  0  0  0  0  0  0  0  0  0  0
   -3.9410   -4.6050    1.5800 H   0  0  0  0  0  0  0  0  0  0  0  0
   -4.8950   -6.8410    1.6900 H   0  0  0  0  0  0  0  0  0  0  0  0
   -4.5860   -8.4360   -0.1730 H   0  0  0  0  0  0  0  0  0  0  0  0
   -3.3020   -7.7810   -2.1780 H   0  0  0  0  0  0  0  0  0  0  0  0
   -2.3510   -5.5860   -2.3280 H   0  0  0  0  0  0  0  0  0  0  0  0
  1  5  1  0  0  0  0
  2  1  1  0  0  0  0
  2  8  1  0  0  0  0
  3  2  1  0  0  0  0
  4  3  2  0  0  0  0
  6  1  1  0  0  0  0
  7  2  1  0  0  0  0
  9  3  1  0  0  0  0
  9 23  1  0  0  0  0
 10 24  1  6  0  0  0
 10 21  1  0  0  0  0
 10  9  1  0  0  0  0
 11 26  1  0  0  0  0
 11 10  1  0  0  0  0
 12 11  1  0  0  0  0
 12 20  1  0  0  0  0
 13 12  2  0  0  0  0
 14 13  1  0  0  0  0
 14 15  1  0  0  0  0
 15 16  2  0  0  0  0
 15 20  1  0  0  0  0
 16 17  1  0  0  0  0
 17 30  1  0  0  0  0
 17 18  2  0  0  0  0
 18 31  1  0  0  0  0
 19 18  1  0  0  0  0
 19 32  1  0  0  0  0
 20 19  2  0  0  0  0
 21 22  2  0  0  0  0
 25 11  1  0  0  0  0
 27 13  1  0  0  0  0
 28 14  1  0  0  0  0
 29 16  1  0  0  0  0
 33 34  1  0  0  0  0
 33 21  1  0  0  0  0
 34 46  1  1  0  0  0
 35 36  1  0  0  0  0
 35 47  1  0  0  0  0
 35 34  1  0  0  0  0
 36 37  1  0  0  0  0
 37 38  2  0  0  0  0
 37 49  1  0  0  0  0
 38 50  1  0  0  0  0
 39 51  1  0  0  0  0
 39 38  1  0  0  0  0
 40 39  2  0  0  0  0
 41 40  1  0  0  0  0
 41 36  2  0  0  0  0
 42 34  1  0  0  0  0
 43 42  2  0  0  0  0
 44 42  1  0  0  0  0
 45 33  1  0  0  0  0
 48 35  1  0  0  0  0
 52 40  1  0  0  0  0
 53 41  1  0  0  0  0
M  END
$$$$
