GWG.pdb
 OpenBabel07022418253D

 40 41  0  0  1  0  0  0  0  0999 V2000
    0.2480   -5.7220    1.8980 N   0  0  0  0  0  0  0  0  0  0  0  0
    1.4310   -4.9660    2.1590 C   0  0  0  0  0  0  0  0  0  0  0  0
    1.3700   -3.5480    1.7940 C   0  0  0  0  0  0  0  0  0  0  0  0
    2.3840   -2.8450    2.0050 O   0  0  0  0  0  0  0  0  0  0  0  0
   -0.3940   -5.7250    2.7210 H   0  0  0  0  0  0  0  0  0  0  0  0
   -0.1870   -5.4290    1.0110 H   0  0  0  0  0  0  0  0  0  0  0  0
    2.2430   -5.4190    1.5160 H   0  0  0  0  0  0  0  0  0  0  0  0
    1.8090   -5.0830    3.1970 H   0  0  0  0  0  0  0  0  0  0  0  0
    0.2570   -2.9100    1.2210 N   0  0  0  0  0  0  0  0  0  0  0  0
    0.2510   -1.4780    0.8720 C   0  0  1  0  0  0  0  0  0  0  0  0
    0.1140   -1.3180   -0.6050 C   0  0  0  0  0  0  0  0  0  0  0  0
    0.1020    0.1010   -0.9920 C   0  0  0  0  0  0  0  0  0  0  0  0
   -0.9530    0.8820   -1.4210 C   0  0  0  0  0  0  0  0  0  0  0  0
   -0.4860    2.1090   -1.6820 N   0  0  0  0  0  0  0  0  0  0  0  0
    0.8330    2.1770   -1.4460 C   0  0  0  0  0  0  0  0  0  0  0  0
    1.7620    3.2190   -1.5650 C   0  0  0  0  0  0  0  0  0  0  0  0
    3.0820    2.9860   -1.2440 C   0  0  0  0  0  0  0  0  0  0  0  0
    3.4960    1.7470   -0.8080 C   0  0  0  0  0  0  0  0  0  0  0  0
    2.5520    0.7400   -0.7010 C   0  0  0  0  0  0  0  0  0  0  0  0
    1.2100    0.9280   -1.0140 C   0  0  0  0  0  0  0  0  0  0  0  0
   -0.8430   -0.8740    1.6710 C   0  0  0  0  0  0  0  0  0  0  0  0
   -1.6550   -1.6170    2.3220 O   0  0  0  0  0  0  0  0  0  0  0  0
   -0.5980   -3.4380    1.0280 H   0  0  0  0  0  0  0  0  0  0  0  0
    1.2500   -1.0990    1.1680 H   0  0  0  0  0  0  0  0  0  0  0  0
    1.0390   -1.7610   -1.0530 H   0  0  0  0  0  0  0  0  0  0  0  0
   -0.8040   -1.7860   -1.0160 H   0  0  0  0  0  0  0  0  0  0  0  0
   -1.9680    0.4980   -1.5080 H   0  0  0  0  0  0  0  0  0  0  0  0
   -1.0380    2.9250   -2.0240 H   0  0  0  0  0  0  0  0  0  0  0  0
    1.4540    4.1970   -1.9060 H   0  0  0  0  0  0  0  0  0  0  0  0
    3.8300    3.7680   -1.3240 H   0  0  0  0  0  0  0  0  0  0  0  0
    4.5350    1.5830   -0.5610 H   0  0  0  0  0  0  0  0  0  0  0  0
    2.8530   -0.2420   -0.3640 H   0  0  0  0  0  0  0  0  0  0  0  0
   -1.0910    0.5140    1.7940 N   0  0  0  0  0  0  0  0  0  0  0  0
   -2.2020    1.0300    2.6030 C   0  0  0  0  0  0  0  0  0  0  0  0
   -1.9900    0.5740    4.0010 C   0  0  0  0  0  0  0  0  0  0  0  0
   -2.8260    0.8860    4.9070 O   0  0  0  0  0  0  0  0  0  0  0  0
   -0.9140   -0.1930    4.4050 O   0  0  0  0  0  0  0  0  0  0  0  0
   -0.4750    1.1810    1.3230 H   0  0  0  0  0  0  0  0  0  0  0  0
   -3.1670    0.6740    2.2080 H   0  0  0  0  0  0  0  0  0  0  0  0
   -2.2040    2.1200    2.5980 H   0  0  0  0  0  0  0  0  0  0  0  0
  1  2  1  0  0  0  0
  1  5  1  0  0  0  0
  2  8  1  0  0  0  0
  3  4  2  0  0  0  0
  3  2  1  0  0  0  0
  6  1  1  0  0  0  0
  7  2  1  0  0  0  0
  9  3  1  0  0  0  0
 10 24  1  1  0  0  0
 10  9  1  0  0  0  0
 10 21  1  0  0  0  0
 11 10  1  0  0  0  0
 12 11  1  0  0  0  0
 13 12  2  0  0  0  0
 14 15  1  0  0  0  0
 14 13  1  0  0  0  0
 15 20  1  0  0  0  0
 16 15  2  0  0  0  0
 16 17  1  0  0  0  0
 17 18  2  0  0  0  0
 18 19  1  0  0  0  0
 18 31  1  0  0  0  0
 19 32  1  0  0  0  0
 20 12  1  0  0  0  0
 20 19  2  0  0  0  0
 21 33  1  0  0  0  0
 21 22  2  0  0  0  0
 23  9  1  0  0  0  0
 25 11  1  0  0  0  0
 26 11  1  0  0  0  0
 27 13  1  0  0  0  0
 28 14  1  0  0  0  0
 29 16  1  0  0  0  0
 30 17  1  0  0  0  0
 33 34  1  0  0  0  0
 34 35  1  0  0  0  0
 35 37  2  0  0  0  0
 35 36  1  0  0  0  0
 38 33  1  0  0  0  0
 39 34  1  0  0  0  0
 40 34  1  0  0  0  0
M  END
$$$$
