GWK.pdb
 OpenBabel07022418253D

 54 55  0  0  1  0  0  0  0  0999 V2000
    1.6810   -4.4220    4.8510 N   0  0  0  0  0  0  0  0  0  0  0  0
    1.7780   -3.0600    5.3070 C   0  0  0  0  0  0  0  0  0  0  0  0
    1.7100   -2.0950    4.1570 C   0  0  0  0  0  0  0  0  0  0  0  0
    1.7830   -0.8640    4.4010 O   0  0  0  0  0  0  0  0  0  0  0  0
    0.7230   -4.7140    4.6110 H   0  0  0  0  0  0  0  0  0  0  0  0
    2.3550   -4.6630    4.0980 H   0  0  0  0  0  0  0  0  0  0  0  0
    2.7780   -2.9240    5.7670 H   0  0  0  0  0  0  0  0  0  0  0  0
    0.9380   -2.8830    6.0120 H   0  0  0  0  0  0  0  0  0  0  0  0
    1.5660   -2.5200    2.8210 N   0  0  0  0  0  0  0  0  0  0  0  0
    1.5040   -1.5160    1.7300 C   0  0  1  0  0  0  0  0  0  0  0  0
    2.7110   -1.7000    0.8560 C   0  0  0  0  0  0  0  0  0  0  0  0
    2.7670   -0.7430   -0.2510 C   0  0  0  0  0  0  0  0  0  0  0  0
    2.5480   -0.9600   -1.6080 C   0  0  0  0  0  0  0  0  0  0  0  0
    2.7340    0.1860   -2.2870 N   0  0  0  0  0  0  0  0  0  0  0  0
    3.0720    1.1780   -1.4410 C   0  0  0  0  0  0  0  0  0  0  0  0
    3.3580    2.5080   -1.6670 C   0  0  0  0  0  0  0  0  0  0  0  0
    3.6780    3.2880   -0.5780 C   0  0  0  0  0  0  0  0  0  0  0  0
    3.7060    2.7390    0.6930 C   0  0  0  0  0  0  0  0  0  0  0  0
    3.4140    1.3990    0.8880 C   0  0  0  0  0  0  0  0  0  0  0  0
    3.0960    0.6170   -0.1810 C   0  0  0  0  0  0  0  0  0  0  0  0
    0.2220   -1.6130    1.0500 C   0  0  0  0  0  0  0  0  0  0  0  0
   -0.5410   -2.5880    1.3640 O   0  0  0  0  0  0  0  0  0  0  0  0
    1.5050   -3.5400    2.6250 H   0  0  0  0  0  0  0  0  0  0  0  0
    1.5830   -0.5340    2.2280 H   0  0  0  0  0  0  0  0  0  0  0  0
    2.7400   -2.7480    0.4230 H   0  0  0  0  0  0  0  0  0  0  0  0
    3.6570   -1.5970    1.4370 H   0  0  0  0  0  0  0  0  0  0  0  0
    2.2720   -1.9260   -2.0010 H   0  0  0  0  0  0  0  0  0  0  0  0
    2.6280    0.2780   -3.3180 H   0  0  0  0  0  0  0  0  0  0  0  0
    3.3490    2.9800   -2.6370 H   0  0  0  0  0  0  0  0  0  0  0  0
    3.9170    4.3460   -0.6630 H   0  0  0  0  0  0  0  0  0  0  0  0
    3.9610    3.3580    1.5650 H   0  0  0  0  0  0  0  0  0  0  0  0
    3.4290    0.9420    1.8710 H   0  0  0  0  0  0  0  0  0  0  0  0
   -0.2800   -0.7300    0.0740 N   0  0  0  0  0  0  0  0  0  0  0  0
   -1.5960   -0.9260   -0.5270 C   0  0  1  0  0  0  0  0  0  0  0  0
   -2.4660    0.2340   -0.0340 C   0  0  0  0  0  0  0  0  0  0  0  0
   -3.8620    0.1940   -0.5530 C   0  0  0  0  0  0  0  0  0  0  0  0
   -4.5980   -1.0710   -0.1620 C   0  0  0  0  0  0  0  0  0  0  0  0
   -6.0150   -1.0500   -0.7210 C   0  0  0  0  0  0  0  0  0  0  0  0
   -6.6650    0.1330   -0.1400 N   0  0  0  0  0  0  0  0  0  0  0  0
   -1.5520   -0.9690   -1.9970 C   0  0  0  0  0  0  0  0  0  0  0  0
   -2.6140   -1.1800   -2.6840 O   0  0  0  0  0  0  0  0  0  0  0  0
   -0.4060   -0.7940   -2.7630 O   0  0  0  0  0  0  0  0  0  0  0  0
    0.2890    0.0830   -0.2190 H   0  0  0  0  0  0  0  0  0  0  0  0
   -2.0350   -1.8770   -0.1500 H   0  0  0  0  0  0  0  0  0  0  0  0
   -2.0110    1.1920   -0.3660 H   0  0  0  0  0  0  0  0  0  0  0  0
   -2.4940    0.2070    1.0820 H   0  0  0  0  0  0  0  0  0  0  0  0
   -3.8860    0.4200   -1.6210 H   0  0  0  0  0  0  0  0  0  0  0  0
   -4.4070    1.0420   -0.0480 H   0  0  0  0  0  0  0  0  0  0  0  0
   -4.0580   -1.9850   -0.4770 H   0  0  0  0  0  0  0  0  0  0  0  0
   -4.7120   -1.1100    0.9410 H   0  0  0  0  0  0  0  0  0  0  0  0
   -6.5500   -1.9540   -0.4110 H   0  0  0  0  0  0  0  0  0  0  0  0
   -6.0140   -0.9800   -1.8180 H   0  0  0  0  0  0  0  0  0  0  0  0
   -6.7440    0.0400    0.8860 H   0  0  0  0  0  0  0  0  0  0  0  0
   -7.5750    0.3230   -0.6120 H   0  0  0  0  0  0  0  0  0  0  0  0
  1  2  1  0  0  0  0
  2  7  1  0  0  0  0
  2  8  1  0  0  0  0
  3  4  2  0  0  0  0
  3  2  1  0  0  0  0
  5  1  1  0  0  0  0
  6  1  1  0  0  0  0
  9  3  1  0  0  0  0
 10 24  1  1  0  0  0
 10  9  1  0  0  0  0
 11 26  1  0  0  0  0
 11 10  1  0  0  0  0
 12 20  1  0  0  0  0
 12 11  1  0  0  0  0
 13 12  2  0  0  0  0
 14 13  1  0  0  0  0
 14 15  1  0  0  0  0
 15 20  1  0  0  0  0
 16 15  2  0  0  0  0
 16 17  1  0  0  0  0
 17 18  2  0  0  0  0
 18 19  1  0  0  0  0
 18 31  1  0  0  0  0
 19 32  1  0  0  0  0
 20 19  2  0  0  0  0
 21 22  2  0  0  0  0
 21 10  1  0  0  0  0
 23  9  1  0  0  0  0
 25 11  1  0  0  0  0
 27 13  1  0  0  0  0
 28 14  1  0  0  0  0
 29 16  1  0  0  0  0
 30 17  1  0  0  0  0
 33 21  1  0  0  0  0
 34 44  1  1  0  0  0
 34 35  1  0  0  0  0
 34 33  1  0  0  0  0
 35 46  1  0  0  0  0
 36 37  1  0  0  0  0
 36 48  1  0  0  0  0
 36 35  1  0  0  0  0
 37 50  1  0  0  0  0
 38 51  1  0  0  0  0
 38 37  1  0  0  0  0
 38 39  1  0  0  0  0
 39 53  1  0  0  0  0
 40 34  1  0  0  0  0
 41 40  1  0  0  0  0
 42 40  2  0  0  0  0
 43 33  1  0  0  0  0
 45 35  1  0  0  0  0
 47 36  1  0  0  0  0
 49 37  1  0  0  0  0
 52 38  1  0  0  0  0
 54 39  1  0  0  0  0
M  END
$$$$
