GWN.pdb
 OpenBabel07022418253D

 47 48  0  0  1  0  0  0  0  0999 V2000
    2.3690   -4.3360   -1.0050 N   0  0  0  0  0  0  0  0  0  0  0  0
    2.8880   -4.1120    0.3090 C   0  0  0  0  0  0  0  0  0  0  0  0
    2.3640   -2.8450    0.9100 C   0  0  0  0  0  0  0  0  0  0  0  0
    2.7010   -2.4700    2.0580 O   0  0  0  0  0  0  0  0  0  0  0  0
    1.3590   -4.5250   -1.0510 H   0  0  0  0  0  0  0  0  0  0  0  0
    2.9630   -4.9920   -1.5340 H   0  0  0  0  0  0  0  0  0  0  0  0
    3.9880   -3.9850    0.2230 H   0  0  0  0  0  0  0  0  0  0  0  0
    2.7120   -4.9750    0.9930 H   0  0  0  0  0  0  0  0  0  0  0  0
    1.4550   -2.0130    0.1920 N   0  0  0  0  0  0  0  0  0  0  0  0
    0.9190   -0.7800    0.7260 C   0  0  1  0  0  0  0  0  0  0  0  0
    1.3430    0.3890   -0.1100 C   0  0  0  0  0  0  0  0  0  0  0  0
    0.8360    1.6820    0.3720 C   0  0  0  0  0  0  0  0  0  0  0  0
   -0.1880    2.4380   -0.1360 C   0  0  0  0  0  0  0  0  0  0  0  0
   -0.3110    3.5360    0.6080 N   0  0  0  0  0  0  0  0  0  0  0  0
    0.6130    3.4960    1.5820 C   0  0  0  0  0  0  0  0  0  0  0  0
    0.8880    4.4070    2.6100 C   0  0  0  0  0  0  0  0  0  0  0  0
    1.8930    4.1560    3.5010 C   0  0  0  0  0  0  0  0  0  0  0  0
    2.6490    2.9970    3.3950 C   0  0  0  0  0  0  0  0  0  0  0  0
    2.3610    2.1130    2.3750 C   0  0  0  0  0  0  0  0  0  0  0  0
    1.3520    2.3430    1.4620 C   0  0  0  0  0  0  0  0  0  0  0  0
   -0.5330   -0.8640    0.9450 C   0  0  0  0  0  0  0  0  0  0  0  0
   -1.2460    0.0460    1.3930 O   0  0  0  0  0  0  0  0  0  0  0  0
    1.1940   -2.3540   -0.7650 H   0  0  0  0  0  0  0  0  0  0  0  0
    1.3800   -0.6580    1.7430 H   0  0  0  0  0  0  0  0  0  0  0  0
    2.4420    0.3740   -0.2630 H   0  0  0  0  0  0  0  0  0  0  0  0
    0.9110    0.2210   -1.1400 H   0  0  0  0  0  0  0  0  0  0  0  0
   -0.8110    2.1920   -1.0100 H   0  0  0  0  0  0  0  0  0  0  0  0
   -1.0180    4.3300    0.4770 H   0  0  0  0  0  0  0  0  0  0  0  0
    0.3110    5.3140    2.7080 H   0  0  0  0  0  0  0  0  0  0  0  0
    2.0710    4.8880    4.2800 H   0  0  0  0  0  0  0  0  0  0  0  0
    3.4300    2.8440    4.1200 H   0  0  0  0  0  0  0  0  0  0  0  0
    2.9650    1.2180    2.3150 H   0  0  0  0  0  0  0  0  0  0  0  0
   -3.8550   -0.1210   -1.4400 N   0  0  0  0  0  0  0  0  0  0  0  0
   -2.8880   -1.1680   -1.3220 C   0  0  0  0  0  0  0  0  0  0  0  0
   -1.7820   -0.9780   -1.8440 O   0  0  0  0  0  0  0  0  0  0  0  0
   -3.2060   -2.4310   -0.5970 C   0  0  0  0  0  0  0  0  0  0  0  0
   -2.6040   -2.2800    0.7960 C   0  0  2  0  0  0  0  0  0  0  0  0
   -1.1780   -2.0940    0.6160 N   0  0  0  0  0  0  0  0  0  0  0  0
   -2.9290   -3.4320    1.6360 C   0  0  0  0  0  0  0  0  0  0  0  0
   -4.1220   -3.7150    1.8760 O   0  0  0  0  0  0  0  0  0  0  0  0
   -1.9350   -4.2230    2.1750 O   0  0  0  0  0  0  0  0  0  0  0  0
   -3.6390    0.7770   -0.9640 H   0  0  0  0  0  0  0  0  0  0  0  0
   -4.7230   -0.2870   -1.9860 H   0  0  0  0  0  0  0  0  0  0  0  0
   -2.6220   -3.2290   -1.1160 H   0  0  0  0  0  0  0  0  0  0  0  0
   -4.2770   -2.6510   -0.5740 H   0  0  0  0  0  0  0  0  0  0  0  0
   -3.0430   -1.3460    1.2060 H   0  0  0  0  0  0  0  0  0  0  0  0
   -0.6170   -2.9070    0.2270 H   0  0  0  0  0  0  0  0  0  0  0  0
  1  2  1  0  0  0  0
  2  3  1  0  0  0  0
  2  8  1  0  0  0  0
  3  4  2  0  0  0  0
  5  1  1  0  0  0  0
  6  1  1  0  0  0  0
  7  2  1  0  0  0  0
  9 10  1  0  0  0  0
  9  3  1  0  0  0  0
 10 21  1  0  0  0  0
 10 24  1  1  0  0  0
 11 12  1  0  0  0  0
 11 10  1  0  0  0  0
 12 20  1  0  0  0  0
 13 12  2  0  0  0  0
 13 14  1  0  0  0  0
 14 15  1  0  0  0  0
 15 16  1  0  0  0  0
 16 29  1  0  0  0  0
 16 17  2  0  0  0  0
 17 30  1  0  0  0  0
 18 17  1  0  0  0  0
 18 31  1  0  0  0  0
 19 18  2  0  0  0  0
 20 15  2  0  0  0  0
 20 19  1  0  0  0  0
 21 22  2  0  0  0  0
 23  9  1  0  0  0  0
 25 11  1  0  0  0  0
 26 11  1  0  0  0  0
 27 13  1  0  0  0  0
 28 14  1  0  0  0  0
 32 19  1  0  0  0  0
 33 34  1  0  0  0  0
 33 42  1  0  0  0  0
 34 36  1  0  0  0  0
 35 34  2  0  0  0  0
 36 45  1  0  0  0  0
 36 37  1  0  0  0  0
 37 46  1  1  0  0  0
 37 39  1  0  0  0  0
 38 37  1  0  0  0  0
 38 21  1  0  0  0  0
 39 40  2  0  0  0  0
 39 41  1  0  0  0  0
 43 33  1  0  0  0  0
 44 36  1  0  0  0  0
 47 38  1  0  0  0  0
M  END
$$$$
