GWP.pdb
 OpenBabel07022418253D

 47 49  0  0  1  0  0  0  0  0999 V2000
    1.9250   -2.2380    4.7480 N   0  0  0  0  0  0  0  0  0  0  0  0
    1.0080   -1.3440    4.0970 C   0  0  0  0  0  0  0  0  0  0  0  0
    1.0190   -1.5160    2.6150 C   0  0  0  0  0  0  0  0  0  0  0  0
    1.7760   -2.3660    2.1030 O   0  0  0  0  0  0  0  0  0  0  0  0
    1.3910   -3.0590    5.1580 H   0  0  0  0  0  0  0  0  0  0  0  0
    2.3890   -1.7900    5.5810 H   0  0  0  0  0  0  0  0  0  0  0  0
    1.2720   -0.3130    4.3940 H   0  0  0  0  0  0  0  0  0  0  0  0
   -0.0170   -1.5310    4.4600 H   0  0  0  0  0  0  0  0  0  0  0  0
    0.1720   -0.7120    1.8010 N   0  0  0  0  0  0  0  0  0  0  0  0
    0.0730   -0.7290    0.3870 C   0  0  1  0  0  0  0  0  0  0  0  0
    1.3790   -1.0940   -0.3500 C   0  0  0  0  0  0  0  0  0  0  0  0
    2.4360   -0.0850   -0.0760 C   0  0  0  0  0  0  0  0  0  0  0  0
    3.5500   -0.0960    0.7180 C   0  0  0  0  0  0  0  0  0  0  0  0
    4.2180    1.0910    0.6240 N   0  0  0  0  0  0  0  0  0  0  0  0
    3.5660    1.8990   -0.2260 C   0  0  0  0  0  0  0  0  0  0  0  0
    3.8530    3.1870   -0.6440 C   0  0  0  0  0  0  0  0  0  0  0  0
    3.0130    3.8070   -1.5440 C   0  0  0  0  0  0  0  0  0  0  0  0
    1.9120    3.1090   -1.9930 C   0  0  0  0  0  0  0  0  0  0  0  0
    1.6380    1.8130   -1.5600 C   0  0  0  0  0  0  0  0  0  0  0  0
    2.4660    1.1990   -0.6710 C   0  0  0  0  0  0  0  0  0  0  0  0
   -1.1000   -1.2430   -0.2660 C   0  0  0  0  0  0  0  0  0  0  0  0
   -1.1000   -1.2300   -1.5640 O   0  0  0  0  0  0  0  0  0  0  0  0
   -0.4250   -0.0260    2.3870 H   0  0  0  0  0  0  0  0  0  0  0  0
    0.0720    0.4270    0.1360 H   0  0  0  0  0  0  0  0  0  0  0  0
    1.1420   -0.9980   -1.4450 H   0  0  0  0  0  0  0  0  0  0  0  0
    1.7280   -2.0970   -0.1430 H   0  0  0  0  0  0  0  0  0  0  0  0
    3.8520   -0.9450    1.3280 H   0  0  0  0  0  0  0  0  0  0  0  0
    5.1010    1.3010    1.1500 H   0  0  0  0  0  0  0  0  0  0  0  0
    4.7120    3.7410   -0.3000 H   0  0  0  0  0  0  0  0  0  0  0  0
    3.2010    4.8210   -1.9020 H   0  0  0  0  0  0  0  0  0  0  0  0
    1.2210    3.5580   -2.7020 H   0  0  0  0  0  0  0  0  0  0  0  0
    0.7750    1.2710   -1.9250 H   0  0  0  0  0  0  0  0  0  0  0  0
   -2.2440   -1.7550    0.3720 N   0  0  0  0  0  0  0  0  0  0  0  0
   -2.5600   -1.9250    1.7570 C   0  0  0  0  0  0  0  0  0  0  0  0
   -3.3090   -3.2760    1.7330 C   0  0  0  0  0  0  0  0  0  0  0  0
   -4.2410   -3.0570    0.5720 C   0  0  0  0  0  0  0  0  0  0  0  0
   -3.4360   -2.2380   -0.3700 C   0  0  1  0  0  0  0  0  0  0  0  0
   -4.2110   -1.0040   -0.7590 C   0  0  0  0  0  0  0  0  0  0  0  0
   -5.2770   -1.1150   -1.4190 O   0  0  0  0  0  0  0  0  0  0  0  0
   -3.7900    0.2660   -0.4140 O   0  0  0  0  0  0  0  0  0  0  0  0
   -1.7340   -1.9650    2.4550 H   0  0  0  0  0  0  0  0  0  0  0  0
   -3.3440   -1.1810    2.0940 H   0  0  0  0  0  0  0  0  0  0  0  0
   -3.8370   -3.4500    2.6820 H   0  0  0  0  0  0  0  0  0  0  0  0
   -2.5500   -4.0500    1.4930 H   0  0  0  0  0  0  0  0  0  0  0  0
   -4.6090   -4.0110    0.1380 H   0  0  0  0  0  0  0  0  0  0  0  0
   -5.1380   -2.5050    0.9660 H   0  0  0  0  0  0  0  0  0  0  0  0
   -3.1420   -2.8150   -1.2540 H   0  0  0  0  0  0  0  0  0  0  0  0
  1  5  1  0  0  0  0
  1  6  1  0  0  0  0
  2  7  1  0  0  0  0
  2  8  1  0  0  0  0
  2  1  1  0  0  0  0
  3  2  1  0  0  0  0
  4  3  2  0  0  0  0
  9 23  1  0  0  0  0
  9  3  1  0  0  0  0
 10 24  1  6  0  0  0
 10  9  1  0  0  0  0
 11 26  1  0  0  0  0
 11 12  1  0  0  0  0
 11 10  1  0  0  0  0
 12 13  2  0  0  0  0
 13 27  1  0  0  0  0
 14 13  1  0  0  0  0
 14 28  1  0  0  0  0
 15 14  1  0  0  0  0
 16 29  1  0  0  0  0
 16 15  1  0  0  0  0
 17 16  2  0  0  0  0
 18 19  2  0  0  0  0
 18 17  1  0  0  0  0
 19 20  1  0  0  0  0
 20 15  2  0  0  0  0
 20 12  1  0  0  0  0
 21 33  1  0  0  0  0
 21 10  1  0  0  0  0
 22 21  2  0  0  0  0
 25 11  1  0  0  0  0
 30 17  1  0  0  0  0
 31 18  1  0  0  0  0
 32 19  1  0  0  0  0
 33 34  1  0  0  0  0
 34 42  1  0  0  0  0
 34 41  1  0  0  0  0
 35 34  1  0  0  0  0
 35 43  1  0  0  0  0
 36 46  1  0  0  0  0
 36 35  1  0  0  0  0
 37 47  1  6  0  0  0
 37 33  1  0  0  0  0
 37 36  1  0  0  0  0
 38 40  1  0  0  0  0
 38 37  1  0  0  0  0
 39 38  2  0  0  0  0
 44 35  1  0  0  0  0
 45 36  1  0  0  0  0
M  END
$$$$
