GWQ.pdb
 OpenBabel07022418253D

 50 51  0  0  1  0  0  0  0  0999 V2000
    1.9590   -0.7350    4.5540 N   0  0  0  0  0  0  0  0  0  0  0  0
    0.7820    0.1060    4.4820 C   0  0  0  0  0  0  0  0  0  0  0  0
    0.1990    0.1010    3.1170 C   0  0  0  0  0  0  0  0  0  0  0  0
   -0.8260    0.7800    2.8930 O   0  0  0  0  0  0  0  0  0  0  0  0
    2.1180   -0.9710    5.5780 H   0  0  0  0  0  0  0  0  0  0  0  0
    2.8170   -0.2210    4.2620 H   0  0  0  0  0  0  0  0  0  0  0  0
    1.0640    1.1460    4.7810 H   0  0  0  0  0  0  0  0  0  0  0  0
    0.0040   -0.2290    5.2110 H   0  0  0  0  0  0  0  0  0  0  0  0
    0.7510   -0.6400    2.0540 N   0  0  0  0  0  0  0  0  0  0  0  0
    0.2480   -0.6970    0.7120 C   0  0  1  0  0  0  0  0  0  0  0  0
    1.1550   -0.0340   -0.3020 C   0  0  0  0  0  0  0  0  0  0  0  0
    1.3810    1.4030   -0.0330 C   0  0  0  0  0  0  0  0  0  0  0  0
    0.7200    2.4400   -0.6730 C   0  0  0  0  0  0  0  0  0  0  0  0
    1.1280    3.6200   -0.1950 N   0  0  0  0  0  0  0  0  0  0  0  0
    2.0510    3.4100    0.7540 C   0  0  0  0  0  0  0  0  0  0  0  0
    2.7790    4.2900    1.5460 C   0  0  0  0  0  0  0  0  0  0  0  0
    3.6710    3.7850    2.4420 C   0  0  0  0  0  0  0  0  0  0  0  0
    3.8550    2.4310    2.5690 C   0  0  0  0  0  0  0  0  0  0  0  0
    3.1280    1.5380    1.7790 C   0  0  0  0  0  0  0  0  0  0  0  0
    2.2200    2.0270    0.8660 C   0  0  0  0  0  0  0  0  0  0  0  0
   -0.1370   -2.0600    0.2970 C   0  0  0  0  0  0  0  0  0  0  0  0
   -0.0160   -3.0260    1.0920 O   0  0  0  0  0  0  0  0  0  0  0  0
    1.6100   -1.2050    2.2630 H   0  0  0  0  0  0  0  0  0  0  0  0
   -0.6820   -0.0460    0.7180 H   0  0  0  0  0  0  0  0  0  0  0  0
    2.1280   -0.5910   -0.3190 H   0  0  0  0  0  0  0  0  0  0  0  0
    0.6320   -0.1200   -1.2780 H   0  0  0  0  0  0  0  0  0  0  0  0
   -0.0350    2.3440   -1.4620 H   0  0  0  0  0  0  0  0  0  0  0  0
    0.8050    4.5660   -0.4880 H   0  0  0  0  0  0  0  0  0  0  0  0
    2.6200    5.3670    1.4310 H   0  0  0  0  0  0  0  0  0  0  0  0
    4.2290    4.5000    3.0500 H   0  0  0  0  0  0  0  0  0  0  0  0
    4.5570    2.0190    3.2750 H   0  0  0  0  0  0  0  0  0  0  0  0
    3.2580    0.4820    1.8550 H   0  0  0  0  0  0  0  0  0  0  0  0
   -5.6810   -2.9070    0.2990 N   0  0  0  0  0  0  0  0  0  0  0  0
   -4.7440   -3.2780   -0.6930 C   0  0  0  0  0  0  0  0  0  0  0  0
   -5.1750   -3.6320   -1.8240 O   0  0  0  0  0  0  0  0  0  0  0  0
   -3.2830   -3.2600   -0.4390 C   0  0  0  0  0  0  0  0  0  0  0  0
   -2.5010   -3.7060   -1.6470 C   0  0  0  0  0  0  0  0  0  0  0  0
   -1.0090   -3.6760   -1.3480 C   0  0  2  0  0  0  0  0  0  0  0  0
   -0.6490   -2.3080   -1.0020 N   0  0  0  0  0  0  0  0  0  0  0  0
   -0.2280   -4.1440   -2.5310 C   0  0  0  0  0  0  0  0  0  0  0  0
    0.5930   -3.3540   -3.0460 O   0  0  0  0  0  0  0  0  0  0  0  0
   -0.3780   -5.4050   -3.0680 O   0  0  0  0  0  0  0  0  0  0  0  0
   -5.8010   -3.4310    1.1890 H   0  0  0  0  0  0  0  0  0  0  0  0
   -6.2850   -2.0740    0.1450 H   0  0  0  0  0  0  0  0  0  0  0  0
   -3.0310   -3.9300    0.4120 H   0  0  0  0  0  0  0  0  0  0  0  0
   -2.9380   -2.2440   -0.1410 H   0  0  0  0  0  0  0  0  0  0  0  0
   -2.7050   -3.1190   -2.5400 H   0  0  0  0  0  0  0  0  0  0  0  0
   -2.7360   -4.7720   -1.8820 H   0  0  0  0  0  0  0  0  0  0  0  0
   -0.8390   -4.3490   -0.4840 H   0  0  0  0  0  0  0  0  0  0  0  0
   -0.7710   -1.5320   -1.7130 H   0  0  0  0  0  0  0  0  0  0  0  0
  1  5  1  0  0  0  0
  2  1  1  0  0  0  0
  2  7  1  0  0  0  0
  2  8  1  0  0  0  0
  3  2  1  0  0  0  0
  4  3  2  0  0  0  0
  6  1  1  0  0  0  0
  9 23  1  0  0  0  0
  9  3  1  0  0  0  0
 10 24  1  1  0  0  0
 10  9  1  0  0  0  0
 11 12  1  0  0  0  0
 11 10  1  0  0  0  0
 12 20  1  0  0  0  0
 13 14  1  0  0  0  0
 13 12  2  0  0  0  0
 14 15  1  0  0  0  0
 15 20  2  0  0  0  0
 15 16  1  0  0  0  0
 16 17  2  0  0  0  0
 17 18  1  0  0  0  0
 17 30  1  0  0  0  0
 18 31  1  0  0  0  0
 19 32  1  0  0  0  0
 19 18  2  0  0  0  0
 20 19  1  0  0  0  0
 21 10  1  0  0  0  0
 21 22  2  0  0  0  0
 25 11  1  0  0  0  0
 26 11  1  0  0  0  0
 27 13  1  0  0  0  0
 28 14  1  0  0  0  0
 29 16  1  0  0  0  0
 33 43  1  0  0  0  0
 34 36  1  0  0  0  0
 34 33  1  0  0  0  0
 35 34  2  0  0  0  0
 36 46  1  0  0  0  0
 36 45  1  0  0  0  0
 37 38  1  0  0  0  0
 37 36  1  0  0  0  0
 38 39  1  0  0  0  0
 38 49  1  1  0  0  0
 39 21  1  0  0  0  0
 40 38  1  0  0  0  0
 41 40  1  0  0  0  0
 42 40  2  0  0  0  0
 44 33  1  0  0  0  0
 47 37  1  0  0  0  0
 48 37  1  0  0  0  0
 50 39  1  0  0  0  0
M  END
$$$$
