GWR.pdb
 OpenBabel07022418253D

 56 57  0  0  1  0  0  0  0  0999 V2000
   -0.5540    2.3770   -0.7290 N   0  0  0  0  0  0  0  0  0  0  0  0
   -1.4060    1.4430    0.0050 C   0  0  0  0  0  0  0  0  0  0  0  0
   -0.6220    0.2360    0.3700 C   0  0  0  0  0  0  0  0  0  0  0  0
   -1.1930   -0.6820    1.0100 O   0  0  0  0  0  0  0  0  0  0  0  0
   -0.9410    3.3380   -0.5500 H   0  0  0  0  0  0  0  0  0  0  0  0
   -0.6690    2.1740   -1.7400 H   0  0  0  0  0  0  0  0  0  0  0  0
   -2.2980    1.1980   -0.5750 H   0  0  0  0  0  0  0  0  0  0  0  0
   -1.6760    1.9650    0.9650 H   0  0  0  0  0  0  0  0  0  0  0  0
    0.7650    0.1110    0.0020 N   0  0  0  0  0  0  0  0  0  0  0  0
    1.5760   -1.0120    0.3020 C   0  0  1  0  0  0  0  0  0  0  0  0
    2.3110   -0.9730    1.6190 C   0  0  0  0  0  0  0  0  0  0  0  0
    3.2530    0.1560    1.7450 C   0  0  0  0  0  0  0  0  0  0  0  0
    4.6140    0.0680    1.5540 C   0  0  0  0  0  0  0  0  0  0  0  0
    5.1000    1.2910    1.7340 N   0  0  0  0  0  0  0  0  0  0  0  0
    4.1290    2.1850    2.0360 C   0  0  0  0  0  0  0  0  0  0  0  0
    4.1660    3.5370    2.3030 C   0  0  0  0  0  0  0  0  0  0  0  0
    2.9920    4.1900    2.5870 C   0  0  0  0  0  0  0  0  0  0  0  0
    1.7720    3.5130    2.6100 C   0  0  0  0  0  0  0  0  0  0  0  0
    1.7970    2.1630    2.3350 C   0  0  0  0  0  0  0  0  0  0  0  0
    2.9340    1.4550    2.0440 C   0  0  0  0  0  0  0  0  0  0  0  0
    1.0630   -2.3370   -0.0690 C   0  0  0  0  0  0  0  0  0  0  0  0
    1.7080   -3.3360    0.3890 O   0  0  0  0  0  0  0  0  0  0  0  0
    1.1300    0.9620   -0.5250 H   0  0  0  0  0  0  0  0  0  0  0  0
    2.4640   -0.9200   -0.4630 H   0  0  0  0  0  0  0  0  0  0  0  0
    1.6170   -0.8930    2.4840 H   0  0  0  0  0  0  0  0  0  0  0  0
    2.8500   -1.9500    1.7830 H   0  0  0  0  0  0  0  0  0  0  0  0
    5.1400   -0.8290    1.3090 H   0  0  0  0  0  0  0  0  0  0  0  0
    6.1010    1.5630    1.6610 H   0  0  0  0  0  0  0  0  0  0  0  0
    5.0990    4.0660    2.2880 H   0  0  0  0  0  0  0  0  0  0  0  0
    3.0190    5.2460    2.7960 H   0  0  0  0  0  0  0  0  0  0  0  0
    0.8620    4.0240    2.8310 H   0  0  0  0  0  0  0  0  0  0  0  0
    0.8590    1.6280    2.3580 H   0  0  0  0  0  0  0  0  0  0  0  0
   -4.2620   -1.8800    2.3300 N   0  0  0  0  0  0  0  0  0  0  0  0
   -4.2930   -2.0260    0.8950 C   0  0  0  0  0  0  0  0  0  0  0  0
   -4.1910   -0.9990    0.1250 N   0  0  0  0  0  0  0  0  0  0  0  0
   -4.4400   -3.3070    0.3040 N   0  0  0  0  0  0  0  0  0  0  0  0
   -4.2690   -3.4810   -1.1180 C   0  0  0  0  0  0  0  0  0  0  0  0
   -2.8200   -3.2630   -1.4730 C   0  0  0  0  0  0  0  0  0  0  0  0
   -1.9110   -4.2400   -0.7600 C   0  0  0  0  0  0  0  0  0  0  0  0
   -0.4950   -3.9590   -1.1880 C   0  0  2  0  0  0  0  0  0  0  0  0
   -0.0480   -2.6140   -0.8700 N   0  0  0  0  0  0  0  0  0  0  0  0
   -0.3080   -4.2520   -2.6410 C   0  0  0  0  0  0  0  0  0  0  0  0
   -0.6380   -5.3600   -3.1270 O   0  0  0  0  0  0  0  0  0  0  0  0
    0.2350   -3.2930   -3.4630 O   0  0  0  0  0  0  0  0  0  0  0  0
   -5.1890   -1.8070    2.8300 H   0  0  0  0  0  0  0  0  0  0  0  0
   -3.3620   -1.8490    2.8470 H   0  0  0  0  0  0  0  0  0  0  0  0
   -4.0820   -0.0240    0.4590 H   0  0  0  0  0  0  0  0  0  0  0  0
   -4.6780   -4.1360    0.9190 H   0  0  0  0  0  0  0  0  0  0  0  0
   -4.8450   -2.6740   -1.6360 H   0  0  0  0  0  0  0  0  0  0  0  0
   -4.6180   -4.4670   -1.4700 H   0  0  0  0  0  0  0  0  0  0  0  0
   -2.5600   -2.2490   -1.1090 H   0  0  0  0  0  0  0  0  0  0  0  0
   -2.6930   -3.3700   -2.5650 H   0  0  0  0  0  0  0  0  0  0  0  0
   -2.0620   -4.0510    0.3290 H   0  0  0  0  0  0  0  0  0  0  0  0
   -2.1740   -5.2910   -0.9830 H   0  0  0  0  0  0  0  0  0  0  0  0
    0.1820   -4.6630   -0.6630 H   0  0  0  0  0  0  0  0  0  0  0  0
   -0.5780   -1.8200   -1.2800 H   0  0  0  0  0  0  0  0  0  0  0  0
  1  5  1  0  0  0  0
  1  2  1  0  0  0  0
  2  3  1  0  0  0  0
  2  8  1  0  0  0  0
  3  4  2  0  0  0  0
  6  1  1  0  0  0  0
  7  2  1  0  0  0  0
  9 10  1  0  0  0  0
  9  3  1  0  0  0  0
 10 24  1  6  0  0  0
 10 11  1  0  0  0  0
 11 12  1  0  0  0  0
 11 26  1  0  0  0  0
 11 25  1  0  0  0  0
 12 20  1  0  0  0  0
 13 14  1  0  0  0  0
 13 12  2  0  0  0  0
 14 15  1  0  0  0  0
 15 20  2  0  0  0  0
 15 16  1  0  0  0  0
 16 17  2  0  0  0  0
 17 18  1  0  0  0  0
 17 30  1  0  0  0  0
 18 31  1  0  0  0  0
 19 32  1  0  0  0  0
 19 18  2  0  0  0  0
 20 19  1  0  0  0  0
 21 10  1  0  0  0  0
 21 22  2  0  0  0  0
 23  9  1  0  0  0  0
 27 13  1  0  0  0  0
 28 14  1  0  0  0  0
 29 16  1  0  0  0  0
 33 45  1  0  0  0  0
 33 46  1  0  0  0  0
 34 33  1  0  0  0  0
 35 47  1  0  0  0  0
 35 34  2  0  0  0  0
 36 34  1  0  0  0  0
 36 48  1  0  0  0  0
 37 36  1  0  0  0  0
 38 37  1  0  0  0  0
 38 51  1  0  0  0  0
 38 39  1  0  0  0  0
 39 53  1  0  0  0  0
 40 41  1  0  0  0  0
 40 39  1  0  0  0  0
 40 55  1  1  0  0  0
 41 21  1  0  0  0  0
 42 40  1  0  0  0  0
 43 42  1  0  0  0  0
 44 42  2  0  0  0  0
 49 37  1  0  0  0  0
 50 37  1  0  0  0  0
 52 38  1  0  0  0  0
 54 39  1  0  0  0  0
 56 41  1  0  0  0  0
M  END
$$$$
