GWS.pdb
 OpenBabel07022418253D

 44 45  0  0  1  0  0  0  0  0999 V2000
    2.9650   -4.1840    0.5270 N   0  0  0  0  0  0  0  0  0  0  0  0
    2.1020   -3.4600    1.4160 C   0  0  0  0  0  0  0  0  0  0  0  0
    1.4680   -2.3050    0.6800 C   0  0  0  0  0  0  0  0  0  0  0  0
    1.7270   -2.0990   -0.5270 O   0  0  0  0  0  0  0  0  0  0  0  0
    3.7740   -4.6410    1.0040 H   0  0  0  0  0  0  0  0  0  0  0  0
    2.4840   -4.9350   -0.0150 H   0  0  0  0  0  0  0  0  0  0  0  0
    2.7130   -3.0910    2.2600 H   0  0  0  0  0  0  0  0  0  0  0  0
    1.3460   -4.1460    1.8120 H   0  0  0  0  0  0  0  0  0  0  0  0
    0.5700   -1.4290    1.3310 N   0  0  0  0  0  0  0  0  0  0  0  0
   -0.0830   -0.3040    0.7850 C   0  0  1  0  0  0  0  0  0  0  0  0
    0.6410    0.4500   -0.3140 C   0  0  0  0  0  0  0  0  0  0  0  0
    1.9240    1.0470    0.1090 C   0  0  0  0  0  0  0  0  0  0  0  0
    3.2230    0.6840   -0.1360 C   0  0  0  0  0  0  0  0  0  0  0  0
    4.0670    1.5570    0.4650 N   0  0  0  0  0  0  0  0  0  0  0  0
    3.3550    2.5050    1.1120 C   0  0  0  0  0  0  0  0  0  0  0  0
    3.7530    3.6100    1.8650 C   0  0  0  0  0  0  0  0  0  0  0  0
    2.8170    4.4400    2.4260 C   0  0  0  0  0  0  0  0  0  0  0  0
    1.4880    4.1420    2.2160 C   0  0  0  0  0  0  0  0  0  0  0  0
    1.0970    3.0450    1.4690 C   0  0  0  0  0  0  0  0  0  0  0  0
    2.0330    2.2060    0.9030 C   0  0  0  0  0  0  0  0  0  0  0  0
   -1.4980   -0.4860    0.4020 C   0  0  0  0  0  0  0  0  0  0  0  0
   -2.1900    0.4380   -0.0930 O   0  0  0  0  0  0  0  0  0  0  0  0
    0.3960   -1.6930    2.3600 H   0  0  0  0  0  0  0  0  0  0  0  0
   -0.0050    0.4860    1.6430 H   0  0  0  0  0  0  0  0  0  0  0  0
   -0.0160    1.3340   -0.5850 H   0  0  0  0  0  0  0  0  0  0  0  0
    0.7540   -0.1400   -1.2140 H   0  0  0  0  0  0  0  0  0  0  0  0
    3.5520   -0.1740   -0.7330 H   0  0  0  0  0  0  0  0  0  0  0  0
    5.1100    1.4960    0.4260 H   0  0  0  0  0  0  0  0  0  0  0  0
    4.8030    3.8090    2.0060 H   0  0  0  0  0  0  0  0  0  0  0  0
    3.1090    5.3190    3.0250 H   0  0  0  0  0  0  0  0  0  0  0  0
    0.7520    4.7990    2.6570 H   0  0  0  0  0  0  0  0  0  0  0  0
    0.0490    2.8140    1.2980 H   0  0  0  0  0  0  0  0  0  0  0  0
   -3.0940   -2.6230   -2.0500 O   0  0  0  0  0  0  0  0  0  0  0  0
   -3.7840   -2.8900   -0.8740 C   0  0  0  0  0  0  0  0  0  0  0  0
   -3.5360   -1.8500    0.1850 C   0  0  2  0  0  0  0  0  0  0  0  0
   -2.1720   -1.7210    0.5690 N   0  0  0  0  0  0  0  0  0  0  0  0
   -4.3250   -2.2350    1.3720 C   0  0  0  0  0  0  0  0  0  0  0  0
   -5.5570   -2.4030    1.2590 O   0  0  0  0  0  0  0  0  0  0  0  0
   -3.7360   -2.4130    2.6040 O   0  0  0  0  0  0  0  0  0  0  0  0
   -2.8310   -3.4730   -2.4880 H   0  0  0  0  0  0  0  0  0  0  0  0
   -3.6290   -3.9320   -0.5060 H   0  0  0  0  0  0  0  0  0  0  0  0
   -4.8690   -2.8310   -1.1280 H   0  0  0  0  0  0  0  0  0  0  0  0
   -3.9660   -0.9000   -0.2260 H   0  0  0  0  0  0  0  0  0  0  0  0
   -1.6960   -2.5580    0.9700 H   0  0  0  0  0  0  0  0  0  0  0  0
  1  5  1  0  0  0  0
  1  2  1  0  0  0  0
  2  8  1  0  0  0  0
  2  7  1  0  0  0  0
  3  9  1  0  0  0  0
  3  2  1  0  0  0  0
  4  3  2  0  0  0  0
  6  1  1  0  0  0  0
  9 23  1  0  0  0  0
 10  9  1  0  0  0  0
 10 24  1  1  0  0  0
 11 12  1  0  0  0  0
 11 10  1  0  0  0  0
 12 20  1  0  0  0  0
 13 12  2  0  0  0  0
 13 14  1  0  0  0  0
 14 15  1  0  0  0  0
 15 16  1  0  0  0  0
 16 29  1  0  0  0  0
 16 17  2  0  0  0  0
 17 30  1  0  0  0  0
 18 17  1  0  0  0  0
 18 31  1  0  0  0  0
 19 18  2  0  0  0  0
 20 15  2  0  0  0  0
 20 19  1  0  0  0  0
 21 36  1  0  0  0  0
 21 10  1  0  0  0  0
 22 21  2  0  0  0  0
 25 11  1  0  0  0  0
 26 11  1  0  0  0  0
 27 13  1  0  0  0  0
 28 14  1  0  0  0  0
 32 19  1  0  0  0  0
 33 34  1  0  0  0  0
 34 41  1  0  0  0  0
 34 35  1  0  0  0  0
 35 43  1  6  0  0  0
 35 36  1  0  0  0  0
 35 37  1  0  0  0  0
 36 44  1  0  0  0  0
 37 39  1  0  0  0  0
 38 37  2  0  0  0  0
 40 33  1  0  0  0  0
 42 34  1  0  0  0  0
M  END
$$$$
