GWW.pdb
 OpenBabel07022418253D

 57 60  0  0  1  0  0  0  0  0999 V2000
    3.8240    3.0110    0.7980 N   0  0  0  0  0  0  0  0  0  0  0  0
    4.8370    2.1620    1.3840 C   0  0  0  0  0  0  0  0  0  0  0  0
    4.2630    0.9110    1.9380 C   0  0  0  0  0  0  0  0  0  0  0  0
    5.0730    0.1000    2.4740 O   0  0  0  0  0  0  0  0  0  0  0  0
    3.3200    3.5350    1.5500 H   0  0  0  0  0  0  0  0  0  0  0  0
    3.1900    2.5220    0.1450 H   0  0  0  0  0  0  0  0  0  0  0  0
    5.5980    1.9400    0.5810 H   0  0  0  0  0  0  0  0  0  0  0  0
    5.3320    2.7600    2.1840 H   0  0  0  0  0  0  0  0  0  0  0  0
    2.8940    0.5790    1.9020 N   0  0  0  0  0  0  0  0  0  0  0  0
    2.3310   -0.6590    2.4500 C   0  0  1  0  0  0  0  0  0  0  0  0
    1.4910   -0.2410    3.6260 C   0  0  0  0  0  0  0  0  0  0  0  0
    0.4120    0.6940    3.3130 C   0  0  0  0  0  0  0  0  0  0  0  0
    0.5370    2.0790    3.4080 C   0  0  0  0  0  0  0  0  0  0  0  0
   -0.6080    2.6500    3.0110 N   0  0  0  0  0  0  0  0  0  0  0  0
   -1.4530    1.6780    2.6670 C   0  0  0  0  0  0  0  0  0  0  0  0
   -2.7670    1.7700    2.2040 C   0  0  0  0  0  0  0  0  0  0  0  0
   -3.4740    0.6220    1.9200 C   0  0  0  0  0  0  0  0  0  0  0  0
   -2.8790   -0.6190    2.0960 C   0  0  0  0  0  0  0  0  0  0  0  0
   -1.5860   -0.6680    2.5520 C   0  0  0  0  0  0  0  0  0  0  0  0
   -0.8490    0.4550    2.8440 C   0  0  0  0  0  0  0  0  0  0  0  0
    1.5650   -1.4280    1.4850 C   0  0  0  0  0  0  0  0  0  0  0  0
    1.1420   -2.5630    1.8120 O   0  0  0  0  0  0  0  0  0  0  0  0
    2.2280    1.2370    1.4650 H   0  0  0  0  0  0  0  0  0  0  0  0
    3.1940   -1.2690    2.8850 H   0  0  0  0  0  0  0  0  0  0  0  0
    1.0590   -1.1960    4.0370 H   0  0  0  0  0  0  0  0  0  0  0  0
    2.1450    0.1330    4.4520 H   0  0  0  0  0  0  0  0  0  0  0  0
    1.3940    2.6210    3.7420 H   0  0  0  0  0  0  0  0  0  0  0  0
   -0.8090    3.6850    2.9740 H   0  0  0  0  0  0  0  0  0  0  0  0
   -3.2440    2.7200    2.0620 H   0  0  0  0  0  0  0  0  0  0  0  0
   -4.4830    0.6480    1.5630 H   0  0  0  0  0  0  0  0  0  0  0  0
   -3.4260   -1.5280    1.8770 H   0  0  0  0  0  0  0  0  0  0  0  0
   -1.1250   -1.6250    2.7070 H   0  0  0  0  0  0  0  0  0  0  0  0
    1.2830   -0.9240    0.1760 N   0  0  0  0  0  0  0  0  0  0  0  0
    0.5360   -1.6400   -0.8110 C   0  0  1  0  0  0  0  0  0  0  0  0
   -0.7210   -0.9170   -1.2390 C   0  0  0  0  0  0  0  0  0  0  0  0
   -1.4420   -1.7160   -2.2630 C   0  0  0  0  0  0  0  0  0  0  0  0
   -1.5090   -1.5280   -3.6250 C   0  0  0  0  0  0  0  0  0  0  0  0
   -2.2750   -2.4960   -4.1570 N   0  0  0  0  0  0  0  0  0  0  0  0
   -2.7260   -3.3310   -3.1940 C   0  0  0  0  0  0  0  0  0  0  0  0
   -3.5190   -4.4530   -3.1680 C   0  0  0  0  0  0  0  0  0  0  0  0
   -3.8200   -5.1180   -1.9980 C   0  0  0  0  0  0  0  0  0  0  0  0
   -3.3090   -4.6450   -0.8080 C   0  0  0  0  0  0  0  0  0  0  0  0
   -2.5130   -3.5210   -0.8280 C   0  0  0  0  0  0  0  0  0  0  0  0
   -2.2020   -2.8410   -1.9970 C   0  0  0  0  0  0  0  0  0  0  0  0
    1.3910   -2.0010   -1.9500 C   0  0  0  0  0  0  0  0  0  0  0  0
    0.9200   -2.6290   -2.9150 O   0  0  0  0  0  0  0  0  0  0  0  0
    2.7190   -1.6450   -1.9530 O   0  0  0  0  0  0  0  0  0  0  0  0
    1.6400    0.0390   -0.1030 H   0  0  0  0  0  0  0  0  0  0  0  0
    0.2240   -2.6170   -0.3410 H   0  0  0  0  0  0  0  0  0  0  0  0
   -1.4310   -0.7940   -0.3970 H   0  0  0  0  0  0  0  0  0  0  0  0
   -0.4590    0.0560   -1.6960 H   0  0  0  0  0  0  0  0  0  0  0  0
   -1.0040   -0.7140   -4.1270 H   0  0  0  0  0  0  0  0  0  0  0  0
   -2.5190   -2.6320   -5.1670 H   0  0  0  0  0  0  0  0  0  0  0  0
   -3.9060   -4.8050   -4.1060 H   0  0  0  0  0  0  0  0  0  0  0  0
   -4.4580   -6.0150   -2.0100 H   0  0  0  0  0  0  0  0  0  0  0  0
   -3.5090   -5.1220    0.1420 H   0  0  0  0  0  0  0  0  0  0  0  0
   -2.0830   -3.1020    0.0890 H   0  0  0  0  0  0  0  0  0  0  0  0
  1  2  1  0  0  0  0
  1  5  1  0  0  0  0
  2  3  1  0  0  0  0
  2  8  1  0  0  0  0
  3  4  2  0  0  0  0
  6  1  1  0  0  0  0
  7  2  1  0  0  0  0
  9  3  1  0  0  0  0
  9 10  1  0  0  0  0
 10 24  1  1  0  0  0
 10 11  1  0  0  0  0
 11 25  1  0  0  0  0
 11 26  1  0  0  0  0
 12 13  2  0  0  0  0
 12 11  1  0  0  0  0
 13 27  1  0  0  0  0
 14 13  1  0  0  0  0
 15 20  1  0  0  0  0
 15 14  1  0  0  0  0
 16 15  2  0  0  0  0
 17 18  2  0  0  0  0
 17 16  1  0  0  0  0
 18 19  1  0  0  0  0
 19 32  1  0  0  0  0
 19 20  2  0  0  0  0
 20 12  1  0  0  0  0
 21 22  2  0  0  0  0
 21 10  1  0  0  0  0
 23  9  1  0  0  0  0
 28 14  1  0  0  0  0
 29 16  1  0  0  0  0
 30 17  1  0  0  0  0
 31 18  1  0  0  0  0
 33 21  1  0  0  0  0
 34 49  1  1  0  0  0
 34 33  1  0  0  0  0
 35 34  1  0  0  0  0
 35 50  1  0  0  0  0
 36 44  1  0  0  0  0
 36 35  1  0  0  0  0
 37 36  2  0  0  0  0
 38 37  1  0  0  0  0
 38 39  1  0  0  0  0
 39 40  2  0  0  0  0
 39 44  1  0  0  0  0
 40 41  1  0  0  0  0
 41 42  2  0  0  0  0
 42 56  1  0  0  0  0
 43 42  1  0  0  0  0
 43 57  1  0  0  0  0
 44 43  2  0  0  0  0
 45 34  1  0  0  0  0
 46 45  2  0  0  0  0
 47 45  1  0  0  0  0
 48 33  1  0  0  0  0
 51 35  1  0  0  0  0
 52 37  1  0  0  0  0
 53 38  1  0  0  0  0
 54 40  1  0  0  0  0
 55 41  1  0  0  0  0
M  END
$$$$
