GYF.pdb
 OpenBabel07022418253D

 50 51  0  0  1  0  0  0  0  0999 V2000
    0.5050    0.5670    4.9990 N   0  0  0  0  0  0  0  0  0  0  0  0
    1.0130   -0.6910    4.4910 C   0  0  0  0  0  0  0  0  0  0  0  0
    1.1750   -0.6380    2.9980 C   0  0  0  0  0  0  0  0  0  0  0  0
    1.6100   -1.6800    2.4620 O   0  0  0  0  0  0  0  0  0  0  0  0
    0.7350    0.6510    6.0050 H   0  0  0  0  0  0  0  0  0  0  0  0
   -0.5090    0.6770    4.8690 H   0  0  0  0  0  0  0  0  0  0  0  0
    0.2660   -1.4700    4.7050 H   0  0  0  0  0  0  0  0  0  0  0  0
    1.9520   -0.9680    4.9830 H   0  0  0  0  0  0  0  0  0  0  0  0
    6.6000    3.3930    2.3210 O   0  0  0  0  0  0  0  0  0  0  0  0
    5.5740    2.5900    1.8570 C   0  0  0  0  0  0  0  0  0  0  0  0
    4.8560    2.8740    0.7170 C   0  0  0  0  0  0  0  0  0  0  0  0
    3.8380    2.0680    0.2660 C   0  0  0  0  0  0  0  0  0  0  0  0
    3.4820    0.9140    0.9480 C   0  0  0  0  0  0  0  0  0  0  0  0
    2.3900    0.1030    0.3860 C   0  0  0  0  0  0  0  0  0  0  0  0
    1.0160    0.5620    0.8230 C   0  0  2  0  0  0  0  0  0  0  0  0
    0.8650    0.4950    2.2390 N   0  0  0  0  0  0  0  0  0  0  0  0
    0.0240   -0.2880    0.0880 C   0  0  0  0  0  0  0  0  0  0  0  0
    0.0300   -0.3510   -1.1680 O   0  0  0  0  0  0  0  0  0  0  0  0
    4.1970    0.6270    2.0870 C   0  0  0  0  0  0  0  0  0  0  0  0
    5.2230    1.4450    2.5360 C   0  0  0  0  0  0  0  0  0  0  0  0
    7.3410    3.0230    2.9000 H   0  0  0  0  0  0  0  0  0  0  0  0
    5.1370    3.7800    0.1820 H   0  0  0  0  0  0  0  0  0  0  0  0
    3.2870    2.3170   -0.6390 H   0  0  0  0  0  0  0  0  0  0  0  0
    2.5760   -0.9710    0.5210 H   0  0  0  0  0  0  0  0  0  0  0  0
    2.4250    0.2440   -0.7390 H   0  0  0  0  0  0  0  0  0  0  0  0
    0.9480    1.6330    0.4630 H   0  0  0  0  0  0  0  0  0  0  0  0
    0.5020    1.3410    2.7480 H   0  0  0  0  0  0  0  0  0  0  0  0
    3.9560   -0.2600    2.6330 H   0  0  0  0  0  0  0  0  0  0  0  0
    5.7810    1.2030    3.4420 H   0  0  0  0  0  0  0  0  0  0  0  0
   -0.9570   -1.0510    0.7720 N   0  0  0  0  0  0  0  0  0  0  0  0
   -1.9190   -1.8810    0.0570 C   0  0  1  0  0  0  0  0  0  0  0  0
   -2.9100   -1.0710   -0.6900 C   0  0  0  0  0  0  0  0  0  0  0  0
   -3.8660   -1.9330   -1.4010 C   0  0  0  0  0  0  0  0  0  0  0  0
   -5.0050   -2.4100   -0.7430 C   0  0  0  0  0  0  0  0  0  0  0  0
   -5.9310   -3.1940   -1.3960 C   0  0  0  0  0  0  0  0  0  0  0  0
   -5.7750   -3.5430   -2.7210 C   0  0  0  0  0  0  0  0  0  0  0  0
   -4.6560   -3.0780   -3.3780 C   0  0  0  0  0  0  0  0  0  0  0  0
   -3.7340   -2.2940   -2.7230 C   0  0  0  0  0  0  0  0  0  0  0  0
   -1.2740   -2.8830   -0.7840 C   0  0  0  0  0  0  0  0  0  0  0  0
    0.0020   -2.9400   -0.8930 O   0  0  0  0  0  0  0  0  0  0  0  0
   -1.9320   -3.8450   -1.5240 O   0  0  0  0  0  0  0  0  0  0  0  0
   -0.9640   -0.9930    1.8140 H   0  0  0  0  0  0  0  0  0  0  0  0
   -2.4800   -2.4410    0.8680 H   0  0  0  0  0  0  0  0  0  0  0  0
   -2.3550   -0.4960   -1.4920 H   0  0  0  0  0  0  0  0  0  0  0  0
   -3.4670   -0.3450   -0.0490 H   0  0  0  0  0  0  0  0  0  0  0  0
   -5.1150   -2.1250    0.3070 H   0  0  0  0  0  0  0  0  0  0  0  0
   -6.8070   -3.5590   -0.8840 H   0  0  0  0  0  0  0  0  0  0  0  0
   -6.4940   -4.1600   -3.2510 H   0  0  0  0  0  0  0  0  0  0  0  0
   -4.5450   -3.3610   -4.4280 H   0  0  0  0  0  0  0  0  0  0  0  0
   -2.8550   -1.9410   -3.2750 H   0  0  0  0  0  0  0  0  0  0  0  0
  1  5  1  0  0  0  0
  2  7  1  0  0  0  0
  2  8  1  0  0  0  0
  2  1  1  0  0  0  0
  3  2  1  0  0  0  0
  4  3  2  0  0  0  0
  6  1  1  0  0  0  0
  9 21  1  0  0  0  0
 10  9  1  0  0  0  0
 10 20  1  0  0  0  0
 11 10  2  0  0  0  0
 12 11  1  0  0  0  0
 12 13  2  0  0  0  0
 13 19  1  0  0  0  0
 14 24  1  0  0  0  0
 14 15  1  0  0  0  0
 14 13  1  0  0  0  0
 15 26  1  6  0  0  0
 15 16  1  0  0  0  0
 16 27  1  0  0  0  0
 16  3  1  0  0  0  0
 17 30  1  0  0  0  0
 17 15  1  0  0  0  0
 18 17  2  0  0  0  0
 19 20  2  0  0  0  0
 19 28  1  0  0  0  0
 20 29  1  0  0  0  0
 22 11  1  0  0  0  0
 23 12  1  0  0  0  0
 25 14  1  0  0  0  0
 30 42  1  0  0  0  0
 31 30  1  0  0  0  0
 31 43  1  1  0  0  0
 32 45  1  0  0  0  0
 32 31  1  0  0  0  0
 33 34  1  0  0  0  0
 33 32  1  0  0  0  0
 34 46  1  0  0  0  0
 35 47  1  0  0  0  0
 35 34  2  0  0  0  0
 36 35  1  0  0  0  0
 37 38  1  0  0  0  0
 37 36  2  0  0  0  0
 38 33  2  0  0  0  0
 39 31  1  0  0  0  0
 40 39  1  0  0  0  0
 41 39  2  0  0  0  0
 44 32  1  0  0  0  0
 48 36  1  0  0  0  0
 49 37  1  0  0  0  0
 50 38  1  0  0  0  0
M  END
$$$$
