GYH.pdb
 OpenBabel07022418253D

 47 48  0  0  1  0  0  0  0  0999 V2000
   -1.8780    1.2560    4.0490 N   0  0  0  0  0  0  0  0  0  0  0  0
   -1.3830    1.7180    2.7910 C   0  0  0  0  0  0  0  0  0  0  0  0
   -0.6280    0.6570    2.0570 C   0  0  0  0  0  0  0  0  0  0  0  0
   -0.5170   -0.4670    2.5970 O   0  0  0  0  0  0  0  0  0  0  0  0
   -2.2360    0.2660    3.9030 H   0  0  0  0  0  0  0  0  0  0  0  0
   -2.7080    1.8110    4.3480 H   0  0  0  0  0  0  0  0  0  0  0  0
   -0.7400    2.6290    2.9280 H   0  0  0  0  0  0  0  0  0  0  0  0
   -2.1910    2.0490    2.0930 H   0  0  0  0  0  0  0  0  0  0  0  0
    5.8890    2.4160    2.8260 O   0  0  0  0  0  0  0  0  0  0  0  0
    4.8390    1.6050    2.3570 C   0  0  0  0  0  0  0  0  0  0  0  0
    3.7680    1.3200    3.1720 C   0  0  0  0  0  0  0  0  0  0  0  0
    2.7480    0.5120    2.6690 C   0  0  0  0  0  0  0  0  0  0  0  0
    2.7840    0.0030    1.4030 C   0  0  0  0  0  0  0  0  0  0  0  0
    1.7260   -0.8440    0.8180 C   0  0  0  0  0  0  0  0  0  0  0  0
    0.6970   -0.0640    0.0240 C   0  0  2  0  0  0  0  0  0  0  0  0
   -0.0460    0.8990    0.7810 N   0  0  0  0  0  0  0  0  0  0  0  0
   -0.1030   -0.8870   -0.8940 C   0  0  0  0  0  0  0  0  0  0  0  0
    0.5140   -1.7450   -1.5780 O   0  0  0  0  0  0  0  0  0  0  0  0
    3.8950    0.3150    0.5960 C   0  0  0  0  0  0  0  0  0  0  0  0
    4.9090    1.1080    1.0730 C   0  0  0  0  0  0  0  0  0  0  0  0
    5.7130    3.3930    3.0780 H   0  0  0  0  0  0  0  0  0  0  0  0
    3.6830    1.6930    4.1830 H   0  0  0  0  0  0  0  0  0  0  0  0
    1.9280    0.2890    3.3110 H   0  0  0  0  0  0  0  0  0  0  0  0
    1.3040   -1.5020    1.5750 H   0  0  0  0  0  0  0  0  0  0  0  0
    2.2230   -1.5290    0.0690 H   0  0  0  0  0  0  0  0  0  0  0  0
    1.3640    0.5790   -0.6630 H   0  0  0  0  0  0  0  0  0  0  0  0
   -0.2170    1.8910    0.4220 H   0  0  0  0  0  0  0  0  0  0  0  0
    3.9200   -0.0950   -0.4170 H   0  0  0  0  0  0  0  0  0  0  0  0
    5.7700    1.3580    0.4700 H   0  0  0  0  0  0  0  0  0  0  0  0
   -1.4990   -0.7890   -1.0670 N   0  0  0  0  0  0  0  0  0  0  0  0
   -2.2550   -1.6110   -1.9850 C   0  0  1  0  0  0  0  0  0  0  0  0
   -3.1800   -2.5040   -1.1970 C   0  0  0  0  0  0  0  0  0  0  0  0
   -2.4310   -3.3910   -0.2770 C   0  0  0  0  0  0  0  0  0  0  0  0
   -2.0840   -3.1240    1.0450 C   0  0  0  0  0  0  0  0  0  0  0  0
   -1.4230   -4.1890    1.5030 N   0  0  0  0  0  0  0  0  0  0  0  0
   -1.3480   -5.0890    0.5300 C   0  0  0  0  0  0  0  0  0  0  0  0
   -1.9600   -4.6180   -0.5670 N   0  0  0  0  0  0  0  0  0  0  0  0
   -2.9920   -0.8230   -2.9750 C   0  0  0  0  0  0  0  0  0  0  0  0
   -3.6950   -1.3880   -3.8390 O   0  0  0  0  0  0  0  0  0  0  0  0
   -2.9220    0.5550   -2.9670 O   0  0  0  0  0  0  0  0  0  0  0  0
   -2.0230   -0.0880   -0.5070 H   0  0  0  0  0  0  0  0  0  0  0  0
   -1.5230   -2.3090   -2.4870 H   0  0  0  0  0  0  0  0  0  0  0  0
   -3.7200   -3.1610   -1.9090 H   0  0  0  0  0  0  0  0  0  0  0  0
   -3.8920   -1.8740   -0.6230 H   0  0  0  0  0  0  0  0  0  0  0  0
   -2.3520   -2.1870    1.5320 H   0  0  0  0  0  0  0  0  0  0  0  0
   -1.0320   -4.2760    2.4830 H   0  0  0  0  0  0  0  0  0  0  0  0
   -0.8780   -6.0600    0.5750 H   0  0  0  0  0  0  0  0  0  0  0  0
  1  6  1  0  0  0  0
  2  7  1  0  0  0  0
  2  1  1  0  0  0  0
  3  4  2  0  0  0  0
  3  2  1  0  0  0  0
  5  1  1  0  0  0  0
  8  2  1  0  0  0  0
  9 21  1  0  0  0  0
 10  9  1  0  0  0  0
 10 11  1  0  0  0  0
 11 22  1  0  0  0  0
 12 11  2  0  0  0  0
 12 23  1  0  0  0  0
 13 12  1  0  0  0  0
 14 13  1  0  0  0  0
 14 24  1  0  0  0  0
 15 26  1  6  0  0  0
 15 16  1  0  0  0  0
 15 14  1  0  0  0  0
 16  3  1  0  0  0  0
 17 15  1  0  0  0  0
 18 17  2  0  0  0  0
 19 20  1  0  0  0  0
 19 13  2  0  0  0  0
 20 10  2  0  0  0  0
 25 14  1  0  0  0  0
 27 16  1  0  0  0  0
 28 19  1  0  0  0  0
 29 20  1  0  0  0  0
 30 17  1  0  0  0  0
 30 41  1  0  0  0  0
 31 42  1  6  0  0  0
 31 32  1  0  0  0  0
 31 30  1  0  0  0  0
 32 44  1  0  0  0  0
 32 33  1  0  0  0  0
 33 34  2  0  0  0  0
 34 35  1  0  0  0  0
 34 45  1  0  0  0  0
 35 46  1  0  0  0  0
 36 47  1  0  0  0  0
 36 35  1  0  0  0  0
 37 33  1  0  0  0  0
 37 36  2  0  0  0  0
 38 40  1  0  0  0  0
 38 31  1  0  0  0  0
 39 38  2  0  0  0  0
 43 32  1  0  0  0  0
M  END
$$$$
