GYK.pdb
 OpenBabel07022418253D

 51 51  0  0  1  0  0  0  0  0999 V2000
    2.0280   -4.2360   -1.4190 N   0  0  0  0  0  0  0  0  0  0  0  0
    3.2690   -3.6520   -1.0170 C   0  0  0  0  0  0  0  0  0  0  0  0
    3.0710   -2.2470   -0.5350 C   0  0  0  0  0  0  0  0  0  0  0  0
    4.0490   -1.5760   -0.1420 O   0  0  0  0  0  0  0  0  0  0  0  0
    2.0780   -5.2690   -1.2150 H   0  0  0  0  0  0  0  0  0  0  0  0
    1.8350   -4.0760   -2.4170 H   0  0  0  0  0  0  0  0  0  0  0  0
    3.9250   -3.5560   -1.9250 H   0  0  0  0  0  0  0  0  0  0  0  0
    3.8210   -4.2590   -0.2850 H   0  0  0  0  0  0  0  0  0  0  0  0
    0.4320    6.0190    0.5900 O   0  0  0  0  0  0  0  0  0  0  0  0
    0.5810    4.6920    0.1750 C   0  0  0  0  0  0  0  0  0  0  0  0
    1.8060    4.2410   -0.2680 C   0  0  0  0  0  0  0  0  0  0  0  0
    1.9750    2.9360   -0.6820 C   0  0  0  0  0  0  0  0  0  0  0  0
    0.9160    2.0240   -0.6690 C   0  0  0  0  0  0  0  0  0  0  0  0
    1.1230    0.6370   -1.1310 C   0  0  0  0  0  0  0  0  0  0  0  0
    1.5890   -0.2650   -0.0380 C   0  0  2  0  0  0  0  0  0  0  0  0
    1.7900   -1.6320   -0.5060 N   0  0  0  0  0  0  0  0  0  0  0  0
    0.7900   -0.2270    1.1970 C   0  0  0  0  0  0  0  0  0  0  0  0
    0.5400    0.8590    1.7670 O   0  0  0  0  0  0  0  0  0  0  0  0
   -0.2920    2.5120   -0.2200 C   0  0  0  0  0  0  0  0  0  0  0  0
   -0.4690    3.8090    0.1940 C   0  0  0  0  0  0  0  0  0  0  0  0
    1.2460    6.4800    0.9640 H   0  0  0  0  0  0  0  0  0  0  0  0
    2.6400    4.9440   -0.2830 H   0  0  0  0  0  0  0  0  0  0  0  0
    2.9370    2.5880   -1.0280 H   0  0  0  0  0  0  0  0  0  0  0  0
    0.1500    0.2940   -1.5470 H   0  0  0  0  0  0  0  0  0  0  0  0
    1.8500    0.5960   -1.9720 H   0  0  0  0  0  0  0  0  0  0  0  0
    2.6180    0.1020    0.2540 H   0  0  0  0  0  0  0  0  0  0  0  0
    0.9830   -2.2210   -0.8430 H   0  0  0  0  0  0  0  0  0  0  0  0
   -1.1280    1.7970   -0.2080 H   0  0  0  0  0  0  0  0  0  0  0  0
   -1.4400    4.1380    0.5370 H   0  0  0  0  0  0  0  0  0  0  0  0
    0.2790   -1.4180    1.7780 N   0  0  0  0  0  0  0  0  0  0  0  0
   -0.5110   -1.4260    2.9910 C   0  0  1  0  0  0  0  0  0  0  0  0
   -1.8810   -1.9590    2.6210 C   0  0  0  0  0  0  0  0  0  0  0  0
   -2.5060   -1.0610    1.5810 C   0  0  0  0  0  0  0  0  0  0  0  0
   -3.8680   -1.5420    1.1760 C   0  0  0  0  0  0  0  0  0  0  0  0
   -3.8570   -2.9280    0.5850 C   0  0  0  0  0  0  0  0  0  0  0  0
   -3.0360   -3.0080   -0.5980 N   0  0  0  0  0  0  0  0  0  0  0  0
    0.0930   -2.2950    4.0170 C   0  0  0  0  0  0  0  0  0  0  0  0
   -0.4910   -2.3960    5.1260 O   0  0  0  0  0  0  0  0  0  0  0  0
    1.2870   -3.0050    3.7970 O   0  0  0  0  0  0  0  0  0  0  0  0
    0.4800   -2.3160    1.3140 H   0  0  0  0  0  0  0  0  0  0  0  0
   -0.6540   -0.3930    3.3860 H   0  0  0  0  0  0  0  0  0  0  0  0
   -1.8060   -2.9970    2.2440 H   0  0  0  0  0  0  0  0  0  0  0  0
   -2.5130   -1.9540    3.5140 H   0  0  0  0  0  0  0  0  0  0  0  0
   -1.8650   -0.9460    0.6830 H   0  0  0  0  0  0  0  0  0  0  0  0
   -2.6240   -0.0490    2.0080 H   0  0  0  0  0  0  0  0  0  0  0  0
   -4.4940   -1.5670    2.0940 H   0  0  0  0  0  0  0  0  0  0  0  0
   -4.3150   -0.8370    0.4650 H   0  0  0  0  0  0  0  0  0  0  0  0
   -4.9080   -3.1690    0.3010 H   0  0  0  0  0  0  0  0  0  0  0  0
   -3.5250   -3.6460    1.3610 H   0  0  0  0  0  0  0  0  0  0  0  0
   -3.5970   -2.7670   -1.4420 H   0  0  0  0  0  0  0  0  0  0  0  0
   -2.6100   -3.9290   -0.7520 H   0  0  0  0  0  0  0  0  0  0  0  0
  1  5  1  0  0  0  0
  1  2  1  0  0  0  0
  2  3  1  0  0  0  0
  2  8  1  0  0  0  0
  3 16  1  0  0  0  0
  3  4  2  0  0  0  0
  6  1  1  0  0  0  0
  7  2  1  0  0  0  0
  9 21  1  0  0  0  0
 10 20  1  0  0  0  0
 10  9  1  0  0  0  0
 11 10  2  0  0  0  0
 12 13  2  0  0  0  0
 12 11  1  0  0  0  0
 13 19  1  0  0  0  0
 14 13  1  0  0  0  0
 14 15  1  0  0  0  0
 15 26  1  1  0  0  0
 15 17  1  0  0  0  0
 16 15  1  0  0  0  0
 17 18  2  0  0  0  0
 17 30  1  0  0  0  0
 19 28  1  0  0  0  0
 19 20  2  0  0  0  0
 20 29  1  0  0  0  0
 22 11  1  0  0  0  0
 23 12  1  0  0  0  0
 24 14  1  0  0  0  0
 25 14  1  0  0  0  0
 27 16  1  0  0  0  0
 30 31  1  0  0  0  0
 31 41  1  1  0  0  0
 31 37  1  0  0  0  0
 32 31  1  0  0  0  0
 32 43  1  0  0  0  0
 33 45  1  0  0  0  0
 33 32  1  0  0  0  0
 34 33  1  0  0  0  0
 34 46  1  0  0  0  0
 35 34  1  0  0  0  0
 35 49  1  0  0  0  0
 36 35  1  0  0  0  0
 37 38  1  0  0  0  0
 39 37  2  0  0  0  0
 40 30  1  0  0  0  0
 42 32  1  0  0  0  0
 44 33  1  0  0  0  0
 47 34  1  0  0  0  0
 48 35  1  0  0  0  0
 50 36  1  0  0  0  0
 51 36  1  0  0  0  0
M  END
$$$$
