GYN.pdb
 OpenBabel07022418253D

 44 44  0  0  1  0  0  0  0  0999 V2000
    3.7340   -4.0510    0.9580 N   0  0  0  0  0  0  0  0  0  0  0  0
    3.2870   -2.9970    1.8170 C   0  0  0  0  0  0  0  0  0  0  0  0
    2.2140   -2.2300    1.1490 C   0  0  0  0  0  0  0  0  0  0  0  0
    1.8580   -2.5730    0.0020 O   0  0  0  0  0  0  0  0  0  0  0  0
    3.2270   -4.9440    1.0810 H   0  0  0  0  0  0  0  0  0  0  0  0
    3.8080   -3.7450   -0.0350 H   0  0  0  0  0  0  0  0  0  0  0  0
    4.1200   -2.2800    2.0450 H   0  0  0  0  0  0  0  0  0  0  0  0
    2.8560   -3.4070    2.7530 H   0  0  0  0  0  0  0  0  0  0  0  0
    4.7430    4.2590    1.9260 O   0  0  0  0  0  0  0  0  0  0  0  0
    3.8230    3.3250    1.4390 C   0  0  0  0  0  0  0  0  0  0  0  0
    4.2400    2.0740    1.0120 C   0  0  0  0  0  0  0  0  0  0  0  0
    3.3480    1.1390    0.5300 C   0  0  0  0  0  0  0  0  0  0  0  0
    1.9990    1.4040    0.4480 C   0  0  0  0  0  0  0  0  0  0  0  0
    1.0100    0.4200   -0.0670 C   0  0  0  0  0  0  0  0  0  0  0  0
    0.5260   -0.3910    1.0860 C   0  0  2  0  0  0  0  0  0  0  0  0
    1.5720   -1.1170    1.7630 N   0  0  0  0  0  0  0  0  0  0  0  0
   -0.5840   -1.3110    0.7490 C   0  0  0  0  0  0  0  0  0  0  0  0
   -0.5010   -2.5110    1.0920 O   0  0  0  0  0  0  0  0  0  0  0  0
    1.5880    2.6590    0.8770 C   0  0  0  0  0  0  0  0  0  0  0  0
    2.4760    3.5940    1.3600 C   0  0  0  0  0  0  0  0  0  0  0  0
    5.4100    4.0040    2.6660 H   0  0  0  0  0  0  0  0  0  0  0  0
    5.3120    1.8690    1.0800 H   0  0  0  0  0  0  0  0  0  0  0  0
    3.7030    0.1720    0.2040 H   0  0  0  0  0  0  0  0  0  0  0  0
    0.1470    1.0180   -0.4410 H   0  0  0  0  0  0  0  0  0  0  0  0
    1.4300   -0.1550   -0.8890 H   0  0  0  0  0  0  0  0  0  0  0  0
    0.1000    0.3490    1.8400 H   0  0  0  0  0  0  0  0  0  0  0  0
    1.8920   -0.8530    2.7180 H   0  0  0  0  0  0  0  0  0  0  0  0
    0.5150    2.8500    0.8040 H   0  0  0  0  0  0  0  0  0  0  0  0
    2.1300    4.5590    1.6860 H   0  0  0  0  0  0  0  0  0  0  0  0
   -5.2520   -0.7760    2.5140 N   0  0  0  0  0  0  0  0  0  0  0  0
   -4.1450   -1.2010    1.7520 C   0  0  0  0  0  0  0  0  0  0  0  0
   -3.1080   -1.5170    2.4010 O   0  0  0  0  0  0  0  0  0  0  0  0
   -4.1680   -1.2830    0.2710 C   0  0  0  0  0  0  0  0  0  0  0  0
   -2.8560   -1.7670   -0.2970 C   0  0  2  0  0  0  0  0  0  0  0  0
   -1.7460   -0.8940    0.0500 N   0  0  0  0  0  0  0  0  0  0  0  0
   -2.9510   -1.9040   -1.7710 C   0  0  0  0  0  0  0  0  0  0  0  0
   -2.1240   -1.2960   -2.4810 O   0  0  0  0  0  0  0  0  0  0  0  0
   -3.9170   -2.6780   -2.3800 O   0  0  0  0  0  0  0  0  0  0  0  0
   -5.5270    0.2200    2.4970 H   0  0  0  0  0  0  0  0  0  0  0  0
   -5.7880   -1.4510    3.0870 H   0  0  0  0  0  0  0  0  0  0  0  0
   -4.3080   -0.2450   -0.0970 H   0  0  0  0  0  0  0  0  0  0  0  0
   -4.9700   -1.9450   -0.0750 H   0  0  0  0  0  0  0  0  0  0  0  0
   -2.6750   -2.7930    0.1370 H   0  0  0  0  0  0  0  0  0  0  0  0
   -1.8020    0.1010   -0.2300 H   0  0  0  0  0  0  0  0  0  0  0  0
  1  5  1  0  0  0  0
  1  2  1  0  0  0  0
  2  7  1  0  0  0  0
  2  8  1  0  0  0  0
  3 16  1  0  0  0  0
  3  2  1  0  0  0  0
  4  3  2  0  0  0  0
  6  1  1  0  0  0  0
  9 21  1  0  0  0  0
 10  9  1  0  0  0  0
 11 22  1  0  0  0  0
 11 10  2  0  0  0  0
 12 11  1  0  0  0  0
 13 12  2  0  0  0  0
 13 19  1  0  0  0  0
 14 13  1  0  0  0  0
 14 15  1  0  0  0  0
 15 16  1  0  0  0  0
 15 26  1  1  0  0  0
 16 27  1  0  0  0  0
 17 15  1  0  0  0  0
 17 18  2  0  0  0  0
 19 20  2  0  0  0  0
 20 10  1  0  0  0  0
 20 29  1  0  0  0  0
 23 12  1  0  0  0  0
 24 14  1  0  0  0  0
 25 14  1  0  0  0  0
 28 19  1  0  0  0  0
 30 40  1  0  0  0  0
 31 32  2  0  0  0  0
 31 30  1  0  0  0  0
 33 31  1  0  0  0  0
 34 35  1  0  0  0  0
 34 43  1  1  0  0  0
 34 33  1  0  0  0  0
 35 17  1  0  0  0  0
 36 34  1  0  0  0  0
 37 36  2  0  0  0  0
 38 36  1  0  0  0  0
 39 30  1  0  0  0  0
 41 33  1  0  0  0  0
 42 33  1  0  0  0  0
 44 35  1  0  0  0  0
M  END
$$$$
