GYY.pdb
 OpenBabel07022418253D

 51 52  0  0  1  0  0  0  0  0999 V2000
   -0.1840    1.4820    3.0470 N   0  0  0  0  0  0  0  0  0  0  0  0
    0.1460    0.1080    3.3220 C   0  0  0  0  0  0  0  0  0  0  0  0
    0.6880   -0.6020    2.1270 C   0  0  0  0  0  0  0  0  0  0  0  0
    1.0110   -1.7870    2.2240 O   0  0  0  0  0  0  0  0  0  0  0  0
   -0.9560    1.4800    2.3350 H   0  0  0  0  0  0  0  0  0  0  0  0
    0.6620    1.9860    2.7100 H   0  0  0  0  0  0  0  0  0  0  0  0
   -0.7900   -0.4070    3.6290 H   0  0  0  0  0  0  0  0  0  0  0  0
    0.8490    0.0580    4.1800 H   0  0  0  0  0  0  0  0  0  0  0  0
    7.1610    1.4730    1.6090 O   0  0  0  0  0  0  0  0  0  0  0  0
    6.0460    0.7770    1.1550 C   0  0  0  0  0  0  0  0  0  0  0  0
    5.6870    0.7240   -0.1670 C   0  0  0  0  0  0  0  0  0  0  0  0
    4.5750    0.0210   -0.5640 C   0  0  0  0  0  0  0  0  0  0  0  0
    3.7540   -0.6710    0.3310 C   0  0  0  0  0  0  0  0  0  0  0  0
    2.5880   -1.4070   -0.1960 C   0  0  0  0  0  0  0  0  0  0  0  0
    1.3610   -0.5210   -0.3210 C   0  0  2  0  0  0  0  0  0  0  0  0
    0.8490    0.0420    0.8640 N   0  0  0  0  0  0  0  0  0  0  0  0
    0.3810   -1.0440   -1.2840 C   0  0  0  0  0  0  0  0  0  0  0  0
    0.6950   -1.5730   -2.3820 O   0  0  0  0  0  0  0  0  0  0  0  0
    4.1230   -0.6110    1.6480 C   0  0  0  0  0  0  0  0  0  0  0  0
    5.2580    0.1050    2.0630 C   0  0  0  0  0  0  0  0  0  0  0  0
    7.1390    2.0760    2.4200 H   0  0  0  0  0  0  0  0  0  0  0  0
    6.3220    1.2600   -0.8650 H   0  0  0  0  0  0  0  0  0  0  0  0
    4.3120   -0.0060   -1.6150 H   0  0  0  0  0  0  0  0  0  0  0  0
    2.8390   -1.7160   -1.2330 H   0  0  0  0  0  0  0  0  0  0  0  0
    2.4140   -2.3160    0.3770 H   0  0  0  0  0  0  0  0  0  0  0  0
    1.8580    0.3790   -0.8620 H   0  0  0  0  0  0  0  0  0  0  0  0
    0.5290    1.0580    0.8740 H   0  0  0  0  0  0  0  0  0  0  0  0
    3.5490   -1.1220    2.3930 H   0  0  0  0  0  0  0  0  0  0  0  0
    5.5200    0.1310    3.1170 H   0  0  0  0  0  0  0  0  0  0  0  0
   -5.4350   -1.2410    3.4920 O   0  0  0  0  0  0  0  0  0  0  0  0
   -4.7800   -1.5760    2.3130 C   0  0  0  0  0  0  0  0  0  0  0  0
   -5.4280   -1.4200    1.1040 C   0  0  0  0  0  0  0  0  0  0  0  0
   -4.7640   -1.7580   -0.0590 C   0  0  0  0  0  0  0  0  0  0  0  0
   -3.4830   -2.2420   -0.0460 C   0  0  0  0  0  0  0  0  0  0  0  0
   -2.7820   -2.5980   -1.2790 C   0  0  0  0  0  0  0  0  0  0  0  0
   -2.0030   -1.4520   -1.8850 C   0  0  2  0  0  0  0  0  0  0  0  0
   -1.0010   -0.9590   -0.9840 N   0  0  0  0  0  0  0  0  0  0  0  0
   -2.9000   -0.3880   -2.3840 C   0  0  0  0  0  0  0  0  0  0  0  0
   -3.8160   -0.7100   -3.1820 O   0  0  0  0  0  0  0  0  0  0  0  0
   -2.8460   -2.3930    1.1640 C   0  0  0  0  0  0  0  0  0  0  0  0
   -3.5040   -2.0580    2.3290 C   0  0  0  0  0  0  0  0  0  0  0  0
   -2.7970    0.9480   -2.0290 O   0  0  0  0  0  0  0  0  0  0  0  0
   -5.0350   -0.6170    4.1850 H   0  0  0  0  0  0  0  0  0  0  0  0
   -6.4250   -1.0470    1.0560 H   0  0  0  0  0  0  0  0  0  0  0  0
   -5.3270   -1.6140   -0.9910 H   0  0  0  0  0  0  0  0  0  0  0  0
   -3.5150   -2.9360   -2.0360 H   0  0  0  0  0  0  0  0  0  0  0  0
   -2.0570   -3.4260   -1.1040 H   0  0  0  0  0  0  0  0  0  0  0  0
   -1.4870   -1.8730   -2.7840 H   0  0  0  0  0  0  0  0  0  0  0  0
   -1.2790   -0.5240   -0.0790 H   0  0  0  0  0  0  0  0  0  0  0  0
   -1.8150   -2.7790    1.2180 H   0  0  0  0  0  0  0  0  0  0  0  0
   -2.9890   -2.1820    3.2880 H   0  0  0  0  0  0  0  0  0  0  0  0
  1  2  1  0  0  0  0
  2  7  1  0  0  0  0
  2  8  1  0  0  0  0
  3  4  2  0  0  0  0
  3  2  1  0  0  0  0
  5  1  1  0  0  0  0
  6  1  1  0  0  0  0
  9 21  1  0  0  0  0
 10  9  1  0  0  0  0
 10 20  1  0  0  0  0
 11 10  2  0  0  0  0
 12 11  1  0  0  0  0
 12 13  2  0  0  0  0
 13 19  1  0  0  0  0
 14 13  1  0  0  0  0
 14 25  1  0  0  0  0
 15 26  1  6  0  0  0
 15 14  1  0  0  0  0
 15 16  1  0  0  0  0
 16 27  1  0  0  0  0
 16  3  1  0  0  0  0
 17 37  1  0  0  0  0
 17 15  1  0  0  0  0
 18 17  2  0  0  0  0
 19 20  2  0  0  0  0
 19 28  1  0  0  0  0
 20 29  1  0  0  0  0
 22 11  1  0  0  0  0
 23 12  1  0  0  0  0
 24 14  1  0  0  0  0
 30 43  1  0  0  0  0
 31 41  1  0  0  0  0
 31 30  1  0  0  0  0
 32 31  2  0  0  0  0
 33 34  2  0  0  0  0
 33 32  1  0  0  0  0
 34 40  1  0  0  0  0
 35 47  1  0  0  0  0
 35 34  1  0  0  0  0
 36 48  1  6  0  0  0
 36 35  1  0  0  0  0
 36 37  1  0  0  0  0
 37 49  1  0  0  0  0
 38 42  1  0  0  0  0
 38 36  1  0  0  0  0
 39 38  2  0  0  0  0
 40 50  1  0  0  0  0
 40 41  2  0  0  0  0
 41 51  1  0  0  0  0
 44 32  1  0  0  0  0
 45 33  1  0  0  0  0
 46 35  1  0  0  0  0
M  END
$$$$
