HAA.pdb
 OpenBabel07022418343D

 39 39  0  0  1  0  0  0  0  0999 V2000
   -0.9630   -3.5930    0.0750 N   0  0  0  0  0  0  0  0  0  0  0  0
   -0.8220   -2.3940    0.8780 C   0  0  1  0  0  0  0  0  0  0  0  0
    0.6400   -2.2290    1.2150 C   0  0  0  0  0  0  0  0  0  0  0  0
    1.0760   -3.4310    1.9750 C   0  0  0  0  0  0  0  0  0  0  0  0
    1.5970   -4.6190    1.5110 C   0  0  0  0  0  0  0  0  0  0  0  0
    1.8570   -5.4460    2.5650 N   0  0  0  0  0  0  0  0  0  0  0  0
    1.4970   -4.7690    3.6810 C   0  0  0  0  0  0  0  0  0  0  0  0
    1.0280   -3.5560    3.3100 N   0  0  0  0  0  0  0  0  0  0  0  0
   -1.3980   -1.2500    0.1830 C   0  0  0  0  0  0  0  0  0  0  0  0
   -1.9240   -1.4160   -0.9710 O   0  0  0  0  0  0  0  0  0  0  0  0
   -0.2250   -3.6390   -0.6610 H   0  0  0  0  0  0  0  0  0  0  0  0
   -0.9760   -4.4270    0.6710 H   0  0  0  0  0  0  0  0  0  0  0  0
   -1.3330   -2.6230    1.8570 H   0  0  0  0  0  0  0  0  0  0  0  0
    0.8440   -1.3510    1.8420 H   0  0  0  0  0  0  0  0  0  0  0  0
    1.2510   -2.1690    0.2760 H   0  0  0  0  0  0  0  0  0  0  0  0
    1.7760   -4.8690    0.4810 H   0  0  0  0  0  0  0  0  0  0  0  0
    2.2550   -6.4090    2.5160 H   0  0  0  0  0  0  0  0  0  0  0  0
    1.5870   -5.1690    4.6790 H   0  0  0  0  0  0  0  0  0  0  0  0
   -3.1330    1.8570    0.7130 C   0  0  0  0  0  0  0  0  0  0  0  0
   -2.0240    1.1960   -0.0570 C   0  0  2  0  0  0  0  0  0  0  0  0
   -1.4420    0.0800    0.6630 N   0  0  0  0  0  0  0  0  0  0  0  0
   -0.9150    2.1480   -0.3580 C   0  0  0  0  0  0  0  0  0  0  0  0
   -1.1890    3.2060   -0.9860 O   0  0  0  0  0  0  0  0  0  0  0  0
   -4.0560    1.3120    0.5310 H   0  0  0  0  0  0  0  0  0  0  0  0
   -2.8950    2.0120    1.7790 H   0  0  0  0  0  0  0  0  0  0  0  0
   -3.2630    2.8790    0.2720 H   0  0  0  0  0  0  0  0  0  0  0  0
   -2.4270    0.8590   -1.0300 H   0  0  0  0  0  0  0  0  0  0  0  0
   -1.0270    0.2730    1.5990 H   0  0  0  0  0  0  0  0  0  0  0  0
    2.1880    3.3510    0.9750 C   0  0  0  0  0  0  0  0  0  0  0  0
    1.5040    2.8600   -0.2740 C   0  0  2  0  0  0  0  0  0  0  0  0
    0.4240    1.9400    0.0160 N   0  0  0  0  0  0  0  0  0  0  0  0
    2.5400    2.2090   -1.1380 C   0  0  0  0  0  0  0  0  0  0  0  0
    3.5620    2.8400   -1.5030 O   0  0  0  0  0  0  0  0  0  0  0  0
    2.4230    0.8930   -1.5720 O   0  0  0  0  0  0  0  0  0  0  0  0
    1.7020    4.3010    1.3110 H   0  0  0  0  0  0  0  0  0  0  0  0
    3.2340    3.5870    0.7170 H   0  0  0  0  0  0  0  0  0  0  0  0
    2.1870    2.6210    1.7940 H   0  0  0  0  0  0  0  0  0  0  0  0
    1.1540    3.7530   -0.8280 H   0  0  0  0  0  0  0  0  0  0  0  0
    0.6580    1.0660    0.5360 H   0  0  0  0  0  0  0  0  0  0  0  0
  1 12  1  0  0  0  0
  1  2  1  0  0  0  0
  2  3  1  0  0  0  0
  2 13  1  1  0  0  0
  3 14  1  0  0  0  0
  3  4  1  0  0  0  0
  4  8  1  0  0  0  0
  5  4  2  0  0  0  0
  5  6  1  0  0  0  0
  6  7  1  0  0  0  0
  7 18  1  0  0  0  0
  8  7  2  0  0  0  0
  9 21  1  0  0  0  0
  9  2  1  0  0  0  0
 10  9  2  0  0  0  0
 11  1  1  0  0  0  0
 15  3  1  0  0  0  0
 16  5  1  0  0  0  0
 17  6  1  0  0  0  0
 19 25  1  0  0  0  0
 20 27  1  6  0  0  0
 20 21  1  0  0  0  0
 20 19  1  0  0  0  0
 21 28  1  0  0  0  0
 22 20  1  0  0  0  0
 22 31  1  0  0  0  0
 23 22  2  0  0  0  0
 24 19  1  0  0  0  0
 26 19  1  0  0  0  0
 29 35  1  0  0  0  0
 29 37  1  0  0  0  0
 30 38  1  6  0  0  0
 30 31  1  0  0  0  0
 30 29  1  0  0  0  0
 31 39  1  0  0  0  0
 32 30  1  0  0  0  0
 33 32  1  0  0  0  0
 34 32  2  0  0  0  0
 36 29  1  0  0  0  0
M  END
$$$$
