HAC.pdb
 OpenBabel07022418353D

 40 40  0  0  1  0  0  0  0  0999 V2000
    2.5530   -2.8420   -1.1360 N   0  0  0  0  0  0  0  0  0  0  0  0
    1.3140   -2.3880   -0.5340 C   0  0  1  0  0  0  0  0  0  0  0  0
    1.4880   -2.2780    0.9470 C   0  0  0  0  0  0  0  0  0  0  0  0
    1.8510   -3.5860    1.5520 C   0  0  0  0  0  0  0  0  0  0  0  0
    2.0920   -3.8940    2.8690 C   0  0  0  0  0  0  0  0  0  0  0  0
    2.3910   -5.2040    2.9890 N   0  0  0  0  0  0  0  0  0  0  0  0
    2.3360   -5.7180    1.7490 C   0  0  0  0  0  0  0  0  0  0  0  0
    2.0100   -4.7470    0.8670 N   0  0  0  0  0  0  0  0  0  0  0  0
    0.7880   -1.2040   -1.1900 C   0  0  0  0  0  0  0  0  0  0  0  0
    1.4360   -0.7210   -2.1700 O   0  0  0  0  0  0  0  0  0  0  0  0
    2.5630   -3.8630   -1.3230 H   0  0  0  0  0  0  0  0  0  0  0  0
    3.3440   -2.6410   -0.4840 H   0  0  0  0  0  0  0  0  0  0  0  0
    0.5760   -3.2270   -0.7080 H   0  0  0  0  0  0  0  0  0  0  0  0
    0.6380   -1.8820    1.4880 H   0  0  0  0  0  0  0  0  0  0  0  0
    2.3560   -1.5880    1.1640 H   0  0  0  0  0  0  0  0  0  0  0  0
    2.0470   -3.1780    3.6880 H   0  0  0  0  0  0  0  0  0  0  0  0
    2.6210   -5.7230    3.8770 H   0  0  0  0  0  0  0  0  0  0  0  0
    2.5330   -6.7590    1.5370 H   0  0  0  0  0  0  0  0  0  0  0  0
   -2.2700    0.4160   -2.0710 C   0  0  0  0  0  0  0  0  0  0  0  0
   -0.9210    0.6130   -1.4560 C   0  0  2  0  0  0  0  0  0  0  0  0
   -0.4160   -0.5620   -0.7900 N   0  0  0  0  0  0  0  0  0  0  0  0
   -0.9890    1.7910   -0.5620 C   0  0  0  0  0  0  0  0  0  0  0  0
   -1.4120    2.8640   -1.0330 O   0  0  0  0  0  0  0  0  0  0  0  0
   -3.0950    0.4660   -1.3030 H   0  0  0  0  0  0  0  0  0  0  0  0
   -2.3670   -0.5020   -2.6720 H   0  0  0  0  0  0  0  0  0  0  0  0
   -2.4600    1.2770   -2.7520 H   0  0  0  0  0  0  0  0  0  0  0  0
   -0.2110    0.8650   -2.2730 H   0  0  0  0  0  0  0  0  0  0  0  0
   -0.8980   -1.0140    0.0250 H   0  0  0  0  0  0  0  0  0  0  0  0
   -0.6030    1.7720    0.7940 N   0  0  0  0  0  0  0  0  0  0  0  0
   -0.6440    2.8660    1.7000 C   0  0  1  0  0  0  0  0  0  0  0  0
   -1.5550    2.6720    2.8790 C   0  0  0  0  0  0  0  0  0  0  0  0
   -1.0530    1.2350    3.8630 S   0  0  0  0  0  0  0  0  0  0  0  0
    0.6890    3.2630    2.2160 C   0  0  0  0  0  0  0  0  0  0  0  0
    1.7520    2.6830    1.8820 O   0  0  0  0  0  0  0  0  0  0  0  0
    0.7810    4.3120    3.1030 O   0  0  0  0  0  0  0  0  0  0  0  0
   -0.2470    0.8430    1.1630 H   0  0  0  0  0  0  0  0  0  0  0  0
   -1.0430    3.7560    1.1370 H   0  0  0  0  0  0  0  0  0  0  0  0
   -1.4160    3.5670    3.5410 H   0  0  0  0  0  0  0  0  0  0  0  0
   -2.6220    2.6570    2.6110 H   0  0  0  0  0  0  0  0  0  0  0  0
   -1.9560    0.1640    3.6150 H   0  0  0  0  0  0  0  0  0  0  0  0
  1  2  1  0  0  0  0
  1 12  1  0  0  0  0
  2 13  1  6  0  0  0
  2  3  1  0  0  0  0
  3 15  1  0  0  0  0
  3 14  1  0  0  0  0
  3  4  1  0  0  0  0
  4  5  2  0  0  0  0
  5  6  1  0  0  0  0
  5 16  1  0  0  0  0
  6 17  1  0  0  0  0
  7  6  1  0  0  0  0
  8  4  1  0  0  0  0
  8  7  2  0  0  0  0
  9 21  1  0  0  0  0
  9  2  1  0  0  0  0
 10  9  2  0  0  0  0
 11  1  1  0  0  0  0
 18  7  1  0  0  0  0
 19 20  1  0  0  0  0
 19 24  1  0  0  0  0
 20 27  1  6  0  0  0
 20 21  1  0  0  0  0
 20 22  1  0  0  0  0
 21 28  1  0  0  0  0
 22 29  1  0  0  0  0
 23 22  2  0  0  0  0
 25 19  1  0  0  0  0
 26 19  1  0  0  0  0
 29 36  1  0  0  0  0
 29 30  1  0  0  0  0
 30 37  1  6  0  0  0
 30 33  1  0  0  0  0
 30 31  1  0  0  0  0
 31 38  1  0  0  0  0
 31 32  1  0  0  0  0
 33 35  1  0  0  0  0
 34 33  2  0  0  0  0
 39 31  1  0  0  0  0
 40 32  1  0  0  0  0
M  END
$$$$
