HAF.pdb
 OpenBabel07022418353D

 49 50  0  0  1  0  0  0  0  0999 V2000
    1.3710    0.9780    0.9710 N   0  0  0  0  0  0  0  0  0  0  0  0
    2.3360    0.1470    1.6320 C   0  0  1  0  0  0  0  0  0  0  0  0
    3.2690    0.9540    2.5170 C   0  0  0  0  0  0  0  0  0  0  0  0
    4.0170    1.9610    1.7030 C   0  0  0  0  0  0  0  0  0  0  0  0
    3.6000    3.2430    1.4480 C   0  0  0  0  0  0  0  0  0  0  0  0
    4.5250    3.8420    0.6900 N   0  0  0  0  0  0  0  0  0  0  0  0
    5.4980    2.9400    0.4820 C   0  0  0  0  0  0  0  0  0  0  0  0
    5.1950    1.7950    1.0950 N   0  0  0  0  0  0  0  0  0  0  0  0
    1.6130   -0.8750    2.4270 C   0  0  0  0  0  0  0  0  0  0  0  0
    2.2440   -1.7430    3.1140 O   0  0  0  0  0  0  0  0  0  0  0  0
    1.8460    1.4950    0.1840 H   0  0  0  0  0  0  0  0  0  0  0  0
    0.8340    1.6010    1.5880 H   0  0  0  0  0  0  0  0  0  0  0  0
    2.9800   -0.3110    0.8410 H   0  0  0  0  0  0  0  0  0  0  0  0
    3.9920    0.2620    2.9920 H   0  0  0  0  0  0  0  0  0  0  0  0
    2.7110    1.4980    3.3030 H   0  0  0  0  0  0  0  0  0  0  0  0
    2.6770    3.6660    1.8120 H   0  0  0  0  0  0  0  0  0  0  0  0
    4.4770    4.8400    0.3340 H   0  0  0  0  0  0  0  0  0  0  0  0
    6.3980    3.1250   -0.1020 H   0  0  0  0  0  0  0  0  0  0  0  0
   -1.3400   -1.2700    4.2970 C   0  0  0  0  0  0  0  0  0  0  0  0
   -0.4920   -1.9260    3.2310 C   0  0  2  0  0  0  0  0  0  0  0  0
    0.2090   -0.9250    2.4520 N   0  0  0  0  0  0  0  0  0  0  0  0
   -1.3340   -2.7860    2.3310 C   0  0  0  0  0  0  0  0  0  0  0  0
   -2.0060   -3.7010    2.8320 O   0  0  0  0  0  0  0  0  0  0  0  0
   -0.7070   -0.5400    4.8180 H   0  0  0  0  0  0  0  0  0  0  0  0
   -1.5740   -2.0660    5.0580 H   0  0  0  0  0  0  0  0  0  0  0  0
   -2.2780   -0.8560    3.9280 H   0  0  0  0  0  0  0  0  0  0  0  0
    0.2430   -2.5570    3.7330 H   0  0  0  0  0  0  0  0  0  0  0  0
   -0.3970   -0.2390    1.9090 H   0  0  0  0  0  0  0  0  0  0  0  0
   -1.3890   -2.5910    0.9300 N   0  0  0  0  0  0  0  0  0  0  0  0
   -2.1750   -3.3800    0.0220 C   0  0  1  0  0  0  0  0  0  0  0  0
   -3.2320   -2.5780   -0.6980 C   0  0  0  0  0  0  0  0  0  0  0  0
   -2.6730   -1.4830   -1.5060 C   0  0  0  0  0  0  0  0  0  0  0  0
   -2.4960   -0.2460   -0.9470 C   0  0  0  0  0  0  0  0  0  0  0  0
   -1.9750    0.7870   -1.6910 C   0  0  0  0  0  0  0  0  0  0  0  0
   -1.6120    0.6290   -3.0110 C   0  0  0  0  0  0  0  0  0  0  0  0
   -1.8070   -0.6320   -3.5350 C   0  0  0  0  0  0  0  0  0  0  0  0
   -2.3270   -1.6890   -2.8160 C   0  0  0  0  0  0  0  0  0  0  0  0
   -1.2950   -4.1100   -0.9210 C   0  0  0  0  0  0  0  0  0  0  0  0
   -0.0520   -3.9650   -0.8240 O   0  0  0  0  0  0  0  0  0  0  0  0
   -1.7570   -4.9550   -1.9180 O   0  0  0  0  0  0  0  0  0  0  0  0
   -0.8100   -1.8120    0.5460 H   0  0  0  0  0  0  0  0  0  0  0  0
   -2.7360   -4.1740    0.5960 H   0  0  0  0  0  0  0  0  0  0  0  0
   -3.9650   -2.2200    0.0480 H   0  0  0  0  0  0  0  0  0  0  0  0
   -3.7560   -3.2760   -1.3830 H   0  0  0  0  0  0  0  0  0  0  0  0
   -2.7580   -0.0330    0.0990 H   0  0  0  0  0  0  0  0  0  0  0  0
   -1.8280    1.7830   -1.2560 H   0  0  0  0  0  0  0  0  0  0  0  0
   -1.1980    1.4520   -3.6020 H   0  0  0  0  0  0  0  0  0  0  0  0
   -1.5320   -0.7890   -4.5710 H   0  0  0  0  0  0  0  0  0  0  0  0
   -2.4600   -2.6800   -3.2960 H   0  0  0  0  0  0  0  0  0  0  0  0
  1 12  1  0  0  0  0
  1  2  1  0  0  0  0
  2 13  1  6  0  0  0
  2  9  1  0  0  0  0
  2  3  1  0  0  0  0
  3 14  1  0  0  0  0
  3 15  1  0  0  0  0
  4  3  1  0  0  0  0
  5  4  2  0  0  0  0
  5 16  1  0  0  0  0
  6  5  1  0  0  0  0
  7  6  1  0  0  0  0
  7  8  2  0  0  0  0
  8  4  1  0  0  0  0
  9 21  1  0  0  0  0
  9 10  2  0  0  0  0
 11  1  1  0  0  0  0
 17  6  1  0  0  0  0
 18  7  1  0  0  0  0
 19 24  1  0  0  0  0
 19 25  1  0  0  0  0
 20 27  1  1  0  0  0
 20 19  1  0  0  0  0
 21 20  1  0  0  0  0
 22 23  2  0  0  0  0
 22 20  1  0  0  0  0
 26 19  1  0  0  0  0
 28 21  1  0  0  0  0
 29 22  1  0  0  0  0
 30 42  1  1  0  0  0
 30 29  1  0  0  0  0
 31 30  1  0  0  0  0
 31 43  1  0  0  0  0
 32 33  1  0  0  0  0
 32 31  1  0  0  0  0
 33 45  1  0  0  0  0
 34 46  1  0  0  0  0
 34 33  2  0  0  0  0
 35 34  1  0  0  0  0
 36 35  2  0  0  0  0
 36 37  1  0  0  0  0
 37 32  2  0  0  0  0
 38 39  1  0  0  0  0
 38 30  1  0  0  0  0
 40 38  2  0  0  0  0
 41 29  1  0  0  0  0
 44 31  1  0  0  0  0
 47 35  1  0  0  0  0
 48 36  1  0  0  0  0
 49 37  1  0  0  0  0
M  END
$$$$
