HAG.pdb
 OpenBabel07022418353D

 36 36  0  0  1  0  0  0  0  0999 V2000
   -0.3530   -0.5130    3.7140 N   0  0  0  0  0  0  0  0  0  0  0  0
    0.0760   -1.6170    2.8750 C   0  0  1  0  0  0  0  0  0  0  0  0
   -0.8390   -2.7800    3.0670 C   0  0  0  0  0  0  0  0  0  0  0  0
   -0.5060   -3.9750    2.2610 C   0  0  0  0  0  0  0  0  0  0  0  0
   -0.9710   -4.2860    1.0090 C   0  0  0  0  0  0  0  0  0  0  0  0
   -0.4270   -5.4520    0.6570 N   0  0  0  0  0  0  0  0  0  0  0  0
    0.3690   -5.9000    1.6390 C   0  0  0  0  0  0  0  0  0  0  0  0
    0.3230   -4.9930    2.6280 N   0  0  0  0  0  0  0  0  0  0  0  0
    0.1060   -1.2230    1.4460 C   0  0  0  0  0  0  0  0  0  0  0  0
    0.4900   -2.0000    0.5350 O   0  0  0  0  0  0  0  0  0  0  0  0
    0.4560   -0.0150    4.0980 H   0  0  0  0  0  0  0  0  0  0  0  0
   -1.0340   -0.8610    4.4130 H   0  0  0  0  0  0  0  0  0  0  0  0
    1.0940   -1.9100    3.2480 H   0  0  0  0  0  0  0  0  0  0  0  0
   -0.7880   -3.1060    4.1420 H   0  0  0  0  0  0  0  0  0  0  0  0
   -1.8940   -2.4920    2.8980 H   0  0  0  0  0  0  0  0  0  0  0  0
   -1.6440   -3.7050    0.4240 H   0  0  0  0  0  0  0  0  0  0  0  0
   -0.5730   -5.9840   -0.2510 H   0  0  0  0  0  0  0  0  0  0  0  0
    0.9330   -6.8350    1.6020 H   0  0  0  0  0  0  0  0  0  0  0  0
   -1.6530    0.7360   -0.9260 C   0  0  0  0  0  0  0  0  0  0  0  0
   -0.2710    0.4460   -0.3790 C   0  0  2  0  0  0  0  0  0  0  0  0
   -0.3070    0.0830    1.0140 N   0  0  0  0  0  0  0  0  0  0  0  0
    0.6070    1.6360   -0.5330 C   0  0  0  0  0  0  0  0  0  0  0  0
    1.1630    2.1370    0.4770 O   0  0  0  0  0  0  0  0  0  0  0  0
   -2.0250    1.7140   -0.6150 H   0  0  0  0  0  0  0  0  0  0  0  0
   -1.5550    0.6940   -2.0410 H   0  0  0  0  0  0  0  0  0  0  0  0
   -2.2960   -0.1140   -0.6300 H   0  0  0  0  0  0  0  0  0  0  0  0
    0.1060   -0.4230   -0.9540 H   0  0  0  0  0  0  0  0  0  0  0  0
   -0.6280    0.7330    1.7730 H   0  0  0  0  0  0  0  0  0  0  0  0
    0.8620    2.2530   -1.7770 N   0  0  0  0  0  0  0  0  0  0  0  0
    1.7170    3.4100   -1.9350 C   0  0  0  0  0  0  0  0  0  0  0  0
    3.0660    3.0480   -1.4690 C   0  0  0  0  0  0  0  0  0  0  0  0
    3.2830    1.8950   -1.0470 O   0  0  0  0  0  0  0  0  0  0  0  0
    4.1230    3.9440   -1.4790 O   0  0  0  0  0  0  0  0  0  0  0  0
    0.4070    1.8490   -2.6280 H   0  0  0  0  0  0  0  0  0  0  0  0
    1.7310    3.7620   -2.9880 H   0  0  0  0  0  0  0  0  0  0  0  0
    1.3520    4.2650   -1.2900 H   0  0  0  0  0  0  0  0  0  0  0  0
  1 11  1  0  0  0  0
  1 12  1  0  0  0  0
  2  3  1  0  0  0  0
  2 13  1  1  0  0  0
  2  1  1  0  0  0  0
  3 14  1  0  0  0  0
  4  8  1  0  0  0  0
  4  3  1  0  0  0  0
  5  4  2  0  0  0  0
  6  5  1  0  0  0  0
  6  7  1  0  0  0  0
  7  8  2  0  0  0  0
  9  2  1  0  0  0  0
 10  9  2  0  0  0  0
 15  3  1  0  0  0  0
 16  5  1  0  0  0  0
 17  6  1  0  0  0  0
 18  7  1  0  0  0  0
 19 26  1  0  0  0  0
 19 24  1  0  0  0  0
 19 20  1  0  0  0  0
 20 27  1  6  0  0  0
 20 21  1  0  0  0  0
 21  9  1  0  0  0  0
 21 28  1  0  0  0  0
 22 20  1  0  0  0  0
 22 23  2  0  0  0  0
 25 19  1  0  0  0  0
 29 22  1  0  0  0  0
 30 29  1  0  0  0  0
 30 31  1  0  0  0  0
 30 36  1  0  0  0  0
 31 32  1  0  0  0  0
 33 31  2  0  0  0  0
 34 29  1  0  0  0  0
 35 30  1  0  0  0  0
M  END
$$$$
