HAN.pdb
 OpenBabel07022418353D

 43 43  0  0  1  0  0  0  0  0999 V2000
   -0.8190   -2.3980    1.9520 N   0  0  0  0  0  0  0  0  0  0  0  0
    0.2900   -2.8310    1.1370 C   0  0  1  0  0  0  0  0  0  0  0  0
   -0.0790   -4.1630    0.5360 C   0  0  0  0  0  0  0  0  0  0  0  0
    0.9860   -4.7220   -0.3310 C   0  0  0  0  0  0  0  0  0  0  0  0
    2.0090   -5.5480    0.0840 C   0  0  0  0  0  0  0  0  0  0  0  0
    2.7930   -5.8630   -0.9710 N   0  0  0  0  0  0  0  0  0  0  0  0
    2.2760   -5.2470   -2.0450 C   0  0  0  0  0  0  0  0  0  0  0  0
    1.1800   -4.5560   -1.6520 N   0  0  0  0  0  0  0  0  0  0  0  0
    0.5990   -1.8580    0.0660 C   0  0  0  0  0  0  0  0  0  0  0  0
    1.5380   -2.0650   -0.7440 O   0  0  0  0  0  0  0  0  0  0  0  0
   -0.4950   -1.9520    2.8450 H   0  0  0  0  0  0  0  0  0  0  0  0
   -1.4740   -3.1810    2.1490 H   0  0  0  0  0  0  0  0  0  0  0  0
    1.1530   -3.0080    1.8100 H   0  0  0  0  0  0  0  0  0  0  0  0
   -1.0010   -3.9770   -0.0860 H   0  0  0  0  0  0  0  0  0  0  0  0
   -0.3650   -4.9050    1.2830 H   0  0  0  0  0  0  0  0  0  0  0  0
    2.1750   -5.8980    1.0880 H   0  0  0  0  0  0  0  0  0  0  0  0
    3.6450   -6.4680   -0.9830 H   0  0  0  0  0  0  0  0  0  0  0  0
    2.6480   -5.2780   -3.0610 H   0  0  0  0  0  0  0  0  0  0  0  0
   -1.0360    0.4740   -2.0770 C   0  0  0  0  0  0  0  0  0  0  0  0
    0.1200    0.3210   -1.1230 C   0  0  2  0  0  0  0  0  0  0  0  0
   -0.1580   -0.6500   -0.0860 N   0  0  0  0  0  0  0  0  0  0  0  0
    0.4030    1.6630   -0.5560 C   0  0  0  0  0  0  0  0  0  0  0  0
    0.6690    2.6390   -1.3030 O   0  0  0  0  0  0  0  0  0  0  0  0
   -1.8710   -0.2230   -1.8020 H   0  0  0  0  0  0  0  0  0  0  0  0
   -1.4110    1.5280   -2.1310 H   0  0  0  0  0  0  0  0  0  0  0  0
   -0.7430    0.2140   -3.1130 H   0  0  0  0  0  0  0  0  0  0  0  0
    0.9780   -0.0770   -1.7020 H   0  0  0  0  0  0  0  0  0  0  0  0
   -0.9330   -0.5210    0.6160 H   0  0  0  0  0  0  0  0  0  0  0  0
   -1.9540    3.5000    4.1580 N   0  0  0  0  0  0  0  0  0  0  0  0
   -0.8890    3.0820    3.3230 C   0  0  0  0  0  0  0  0  0  0  0  0
   -0.3070    2.0130    3.6160 O   0  0  0  0  0  0  0  0  0  0  0  0
   -0.4540    3.8420    2.1510 C   0  0  0  0  0  0  0  0  0  0  0  0
    0.6720    3.2450    1.3800 C   0  0  2  0  0  0  0  0  0  0  0  0
    0.3930    1.9300    0.8430 N   0  0  0  0  0  0  0  0  0  0  0  0
    1.8970    3.1260    2.2170 C   0  0  0  0  0  0  0  0  0  0  0  0
    2.3730    4.1250    2.8130 O   0  0  0  0  0  0  0  0  0  0  0  0
    2.5610    1.9250    2.3760 O   0  0  0  0  0  0  0  0  0  0  0  0
   -1.8040    4.1720    4.9570 H   0  0  0  0  0  0  0  0  0  0  0  0
   -2.9130    3.1580    4.0090 H   0  0  0  0  0  0  0  0  0  0  0  0
   -1.2850    4.0570    1.4410 H   0  0  0  0  0  0  0  0  0  0  0  0
   -0.1020    4.8610    2.4810 H   0  0  0  0  0  0  0  0  0  0  0  0
    0.8950    3.9740    0.5470 H   0  0  0  0  0  0  0  0  0  0  0  0
    0.1810    1.1670    1.5130 H   0  0  0  0  0  0  0  0  0  0  0  0
  1 12  1  0  0  0  0
  1 11  1  0  0  0  0
  2 13  1  1  0  0  0
  2  1  1  0  0  0  0
  3  2  1  0  0  0  0
  3 15  1  0  0  0  0
  4  5  2  0  0  0  0
  4  3  1  0  0  0  0
  5 16  1  0  0  0  0
  6  5  1  0  0  0  0
  7  8  2  0  0  0  0
  7  6  1  0  0  0  0
  8  4  1  0  0  0  0
  9  2  1  0  0  0  0
 10  9  2  0  0  0  0
 14  3  1  0  0  0  0
 17  6  1  0  0  0  0
 18  7  1  0  0  0  0
 19 24  1  0  0  0  0
 19 20  1  0  0  0  0
 20 27  1  6  0  0  0
 20 22  1  0  0  0  0
 20 21  1  0  0  0  0
 21  9  1  0  0  0  0
 21 28  1  0  0  0  0
 22 34  1  0  0  0  0
 23 22  2  0  0  0  0
 25 19  1  0  0  0  0
 26 19  1  0  0  0  0
 29 38  1  0  0  0  0
 30 31  2  0  0  0  0
 30 29  1  0  0  0  0
 32 41  1  0  0  0  0
 32 30  1  0  0  0  0
 33 42  1  6  0  0  0
 33 32  1  0  0  0  0
 33 35  1  0  0  0  0
 34 33  1  0  0  0  0
 34 43  1  0  0  0  0
 35 37  2  0  0  0  0
 35 36  1  0  0  0  0
 39 29  1  0  0  0  0
 40 32  1  0  0  0  0
M  END
$$$$
