HAP.pdb
 OpenBabel07022418353D

 43 44  0  0  1  0  0  0  0  0999 V2000
    2.7600   -2.7610   -1.6180 N   0  0  0  0  0  0  0  0  0  0  0  0
    1.4280   -2.1950   -1.3440 C   0  0  1  0  0  0  0  0  0  0  0  0
    0.9320   -2.8840   -0.1230 C   0  0  0  0  0  0  0  0  0  0  0  0
    1.8140   -2.6880    1.0630 C   0  0  0  0  0  0  0  0  0  0  0  0
    1.5380   -3.2390    2.2890 C   0  0  0  0  0  0  0  0  0  0  0  0
    2.5350   -2.8550    3.0980 N   0  0  0  0  0  0  0  0  0  0  0  0
    3.3920   -2.1020    2.4190 C   0  0  0  0  0  0  0  0  0  0  0  0
    2.9480   -2.0010    1.1710 N   0  0  0  0  0  0  0  0  0  0  0  0
    1.5340   -0.7460   -1.2880 C   0  0  0  0  0  0  0  0  0  0  0  0
    2.6730   -0.1620   -1.3710 O   0  0  0  0  0  0  0  0  0  0  0  0
    3.0860   -2.4810   -2.5720 H   0  0  0  0  0  0  0  0  0  0  0  0
    2.7390   -3.7980   -1.6060 H   0  0  0  0  0  0  0  0  0  0  0  0
    0.7690   -2.5100   -2.1900 H   0  0  0  0  0  0  0  0  0  0  0  0
    0.9120   -4.0050   -0.2700 H   0  0  0  0  0  0  0  0  0  0  0  0
   -0.0920   -2.6200    0.1780 H   0  0  0  0  0  0  0  0  0  0  0  0
    0.6930   -3.8670    2.5850 H   0  0  0  0  0  0  0  0  0  0  0  0
    2.6160   -3.1170    4.1210 H   0  0  0  0  0  0  0  0  0  0  0  0
    4.2850   -1.6750    2.8770 H   0  0  0  0  0  0  0  0  0  0  0  0
   -0.1690    2.0890   -2.3910 C   0  0  0  0  0  0  0  0  0  0  0  0
    0.4150    1.4900   -1.0940 C   0  0  2  0  0  0  0  0  0  0  0  0
    0.3560    0.0540   -1.1430 N   0  0  0  0  0  0  0  0  0  0  0  0
   -0.1240    2.1410    0.0870 C   0  0  0  0  0  0  0  0  0  0  0  0
   -0.1010    3.4320    0.0610 O   0  0  0  0  0  0  0  0  0  0  0  0
   -1.2470    1.9120   -2.4560 H   0  0  0  0  0  0  0  0  0  0  0  0
    0.4100    1.6070   -3.2110 H   0  0  0  0  0  0  0  0  0  0  0  0
    0.1170    3.1510   -2.3790 H   0  0  0  0  0  0  0  0  0  0  0  0
    1.5120    1.7630   -1.1840 H   0  0  0  0  0  0  0  0  0  0  0  0
   -0.5520   -0.4560   -1.0840 H   0  0  0  0  0  0  0  0  0  0  0  0
   -0.6630    1.5510    1.2470 N   0  0  0  0  0  0  0  0  0  0  0  0
   -1.2150    2.3000    2.3890 C   0  0  0  0  0  0  0  0  0  0  0  0
   -1.2360    1.3900    3.5630 C   0  0  0  0  0  0  0  0  0  0  0  0
   -0.5360    0.1500    3.1230 C   0  0  0  0  0  0  0  0  0  0  0  0
   -0.8040    0.1610    1.6120 C   0  0  1  0  0  0  0  0  0  0  0  0
   -2.1600   -0.3380    1.3780 C   0  0  0  0  0  0  0  0  0  0  0  0
   -3.0150    0.4610    0.9060 O   0  0  0  0  0  0  0  0  0  0  0  0
   -2.5770   -1.6290    1.6370 O   0  0  0  0  0  0  0  0  0  0  0  0
   -2.2030    2.7290    2.1320 H   0  0  0  0  0  0  0  0  0  0  0  0
   -0.5280    3.1370    2.5640 H   0  0  0  0  0  0  0  0  0  0  0  0
   -0.7310    1.8540    4.4460 H   0  0  0  0  0  0  0  0  0  0  0  0
   -2.2610    1.1280    3.9130 H   0  0  0  0  0  0  0  0  0  0  0  0
    0.5600    0.1990    3.2690 H   0  0  0  0  0  0  0  0  0  0  0  0
   -0.9590   -0.7790    3.5760 H   0  0  0  0  0  0  0  0  0  0  0  0
    0.0070   -0.4680    1.1940 H   0  0  0  0  0  0  0  0  0  0  0  0
  1 12  1  0  0  0  0
  1  2  1  0  0  0  0
  2 13  1  6  0  0  0
  2  9  1  0  0  0  0
  2  3  1  0  0  0  0
  3 15  1  0  0  0  0
  3  4  1  0  0  0  0
  4  8  1  0  0  0  0
  4  5  2  0  0  0  0
  5 16  1  0  0  0  0
  5  6  1  0  0  0  0
  6 17  1  0  0  0  0
  7 18  1  0  0  0  0
  7  6  1  0  0  0  0
  8  7  2  0  0  0  0
  9 21  1  0  0  0  0
 10  9  2  0  0  0  0
 11  1  1  0  0  0  0
 14  3  1  0  0  0  0
 19 26  1  0  0  0  0
 19 20  1  0  0  0  0
 20 27  1  6  0  0  0
 20 22  1  0  0  0  0
 21 20  1  0  0  0  0
 21 28  1  0  0  0  0
 22 29  1  0  0  0  0
 23 22  2  0  0  0  0
 24 19  1  0  0  0  0
 25 19  1  0  0  0  0
 29 33  1  0  0  0  0
 29 30  1  0  0  0  0
 30 38  1  0  0  0  0
 30 31  1  0  0  0  0
 31 40  1  0  0  0  0
 31 39  1  0  0  0  0
 32 41  1  0  0  0  0
 32 31  1  0  0  0  0
 32 42  1  0  0  0  0
 33 43  1  6  0  0  0
 33 32  1  0  0  0  0
 34 33  1  0  0  0  0
 34 36  1  0  0  0  0
 35 34  2  0  0  0  0
 37 30  1  0  0  0  0
M  END
$$$$
