HAR.pdb
 OpenBabel07022418343D

 52 52  0  0  1  0  0  0  0  0999 V2000
    3.4130   -1.4020    0.4820 N   0  0  0  0  0  0  0  0  0  0  0  0
    3.6280   -0.4790    1.5870 C   0  0  1  0  0  0  0  0  0  0  0  0
    4.8880    0.3350    1.3640 C   0  0  0  0  0  0  0  0  0  0  0  0
    5.1730    1.2940    2.4400 C   0  0  0  0  0  0  0  0  0  0  0  0
    4.7490    2.6060    2.5040 C   0  0  0  0  0  0  0  0  0  0  0  0
    5.2250    3.1360    3.6340 N   0  0  0  0  0  0  0  0  0  0  0  0
    5.9320    2.1990    4.2790 C   0  0  0  0  0  0  0  0  0  0  0  0
    5.9020    1.0710    3.5490 N   0  0  0  0  0  0  0  0  0  0  0  0
    2.4110    0.3640    1.6930 C   0  0  0  0  0  0  0  0  0  0  0  0
    2.4010    1.1920    2.6660 O   0  0  0  0  0  0  0  0  0  0  0  0
    4.3410   -1.6760    0.0930 H   0  0  0  0  0  0  0  0  0  0  0  0
    2.9500   -2.2470    0.8770 H   0  0  0  0  0  0  0  0  0  0  0  0
    3.8130   -1.0920    2.4900 H   0  0  0  0  0  0  0  0  0  0  0  0
    5.7290   -0.3980    1.2660 H   0  0  0  0  0  0  0  0  0  0  0  0
    4.7900    0.8160    0.3730 H   0  0  0  0  0  0  0  0  0  0  0  0
    4.1360    3.1480    1.7830 H   0  0  0  0  0  0  0  0  0  0  0  0
    5.0530    4.1370    3.9420 H   0  0  0  0  0  0  0  0  0  0  0  0
    6.4260    2.3950    5.2410 H   0  0  0  0  0  0  0  0  0  0  0  0
    0.0700    2.0890   -0.2080 C   0  0  0  0  0  0  0  0  0  0  0  0
    0.1920    1.1430    0.9970 C   0  0  2  0  0  0  0  0  0  0  0  0
    1.3110    0.2800    0.7880 N   0  0  0  0  0  0  0  0  0  0  0  0
   -1.1030    0.4430    1.0890 C   0  0  0  0  0  0  0  0  0  0  0  0
   -2.1260    1.1460    1.3000 O   0  0  0  0  0  0  0  0  0  0  0  0
    0.8110    2.8870   -0.1760 H   0  0  0  0  0  0  0  0  0  0  0  0
   -0.9430    2.5430   -0.2100 H   0  0  0  0  0  0  0  0  0  0  0  0
    0.1140    1.4630   -1.1300 H   0  0  0  0  0  0  0  0  0  0  0  0
    0.3090    1.7760    1.8920 H   0  0  0  0  0  0  0  0  0  0  0  0
    1.3520   -0.4030    0.0050 H   0  0  0  0  0  0  0  0  0  0  0  0
   -6.1240   -3.9310   -1.4080 N   0  0  0  0  0  0  0  0  0  0  0  0
   -4.8650   -3.7660   -2.0020 C   0  0  0  0  0  0  0  0  0  0  0  0
   -3.9170   -4.6760   -1.9590 N   0  0  0  0  0  0  0  0  0  0  0  0
   -4.5150   -2.5810   -2.7130 N   0  0  0  0  0  0  0  0  0  0  0  0
   -3.2460   -1.9500   -2.6840 C   0  0  0  0  0  0  0  0  0  0  0  0
   -2.9450   -1.2760   -1.3900 C   0  0  0  0  0  0  0  0  0  0  0  0
   -2.9560   -2.2080   -0.2430 C   0  0  0  0  0  0  0  0  0  0  0  0
   -2.5930   -1.5110    1.0710 C   0  0  2  0  0  0  0  0  0  0  0  0
   -1.2670   -0.9500    0.9570 N   0  0  0  0  0  0  0  0  0  0  0  0
   -2.5770   -2.5540    2.1220 C   0  0  0  0  0  0  0  0  0  0  0  0
   -3.6000   -3.2140    2.4440 O   0  0  0  0  0  0  0  0  0  0  0  0
   -1.4080   -2.8480    2.8020 O   0  0  0  0  0  0  0  0  0  0  0  0
   -6.2610   -3.8870   -0.3850 H   0  0  0  0  0  0  0  0  0  0  0  0
   -6.9510   -4.1030   -2.0100 H   0  0  0  0  0  0  0  0  0  0  0  0
   -4.1660   -5.5470   -1.4440 H   0  0  0  0  0  0  0  0  0  0  0  0
   -5.2840   -2.1500   -3.3050 H   0  0  0  0  0  0  0  0  0  0  0  0
   -3.2400   -1.1210   -3.4650 H   0  0  0  0  0  0  0  0  0  0  0  0
   -2.4140   -2.6530   -2.9830 H   0  0  0  0  0  0  0  0  0  0  0  0
   -3.7520   -0.4950   -1.2480 H   0  0  0  0  0  0  0  0  0  0  0  0
   -2.0130   -0.6590   -1.4540 H   0  0  0  0  0  0  0  0  0  0  0  0
   -4.0090   -2.6110   -0.1380 H   0  0  0  0  0  0  0  0  0  0  0  0
   -2.2860   -3.0470   -0.3760 H   0  0  0  0  0  0  0  0  0  0  0  0
   -3.3450   -0.7340    1.3120 H   0  0  0  0  0  0  0  0  0  0  0  0
   -0.4300   -1.5410    0.7800 H   0  0  0  0  0  0  0  0  0  0  0  0
  1 12  1  0  0  0  0
  1  2  1  0  0  0  0
  2  9  1  0  0  0  0
  2 13  1  1  0  0  0
  3  2  1  0  0  0  0
  3  4  1  0  0  0  0
  4  5  2  0  0  0  0
  4  8  1  0  0  0  0
  5  6  1  0  0  0  0
  6 17  1  0  0  0  0
  6  7  1  0  0  0  0
  7 18  1  0  0  0  0
  8  7  2  0  0  0  0
  9 10  2  0  0  0  0
 11  1  1  0  0  0  0
 14  3  1  0  0  0  0
 15  3  1  0  0  0  0
 16  5  1  0  0  0  0
 19 24  1  0  0  0  0
 19 20  1  0  0  0  0
 20 22  1  0  0  0  0
 20 27  1  1  0  0  0
 21 20  1  0  0  0  0
 21  9  1  0  0  0  0
 22 23  2  0  0  0  0
 25 19  1  0  0  0  0
 26 19  1  0  0  0  0
 28 21  1  0  0  0  0
 29 41  1  0  0  0  0
 30 31  2  0  0  0  0
 30 29  1  0  0  0  0
 31 43  1  0  0  0  0
 32 33  1  0  0  0  0
 32 30  1  0  0  0  0
 33 34  1  0  0  0  0
 34 47  1  0  0  0  0
 34 35  1  0  0  0  0
 35 49  1  0  0  0  0
 35 36  1  0  0  0  0
 36 51  1  1  0  0  0
 36 38  1  0  0  0  0
 37 36  1  0  0  0  0
 37 22  1  0  0  0  0
 38 39  2  0  0  0  0
 38 40  1  0  0  0  0
 42 29  1  0  0  0  0
 44 32  1  0  0  0  0
 45 33  1  0  0  0  0
 46 33  1  0  0  0  0
 48 34  1  0  0  0  0
 50 35  1  0  0  0  0
 52 37  1  0  0  0  0
M  END
$$$$
