HAW.pdb
 OpenBabel07022418353D

 53 55  0  0  1  0  0  0  0  0999 V2000
    4.6960   -0.1250   -0.8100 N   0  0  0  0  0  0  0  0  0  0  0  0
    3.2680    0.0500   -0.9680 C   0  0  1  0  0  0  0  0  0  0  0  0
    2.5180   -1.2320   -0.6400 C   0  0  0  0  0  0  0  0  0  0  0  0
    2.8010   -1.6380    0.7800 C   0  0  0  0  0  0  0  0  0  0  0  0
    3.8390   -2.4680    1.1890 C   0  0  0  0  0  0  0  0  0  0  0  0
    3.7750   -2.6050    2.5330 N   0  0  0  0  0  0  0  0  0  0  0  0
    2.7180   -1.8790    2.9760 C   0  0  0  0  0  0  0  0  0  0  0  0
    2.1460   -1.3060    1.9040 N   0  0  0  0  0  0  0  0  0  0  0  0
    2.7200    1.1200   -0.1060 C   0  0  0  0  0  0  0  0  0  0  0  0
    3.4110    1.7460    0.7380 O   0  0  0  0  0  0  0  0  0  0  0  0
    4.8990   -1.1320   -1.0480 H   0  0  0  0  0  0  0  0  0  0  0  0
    5.1610    0.4300   -1.5760 H   0  0  0  0  0  0  0  0  0  0  0  0
    3.0250    0.3000   -2.0180 H   0  0  0  0  0  0  0  0  0  0  0  0
    2.7480   -2.0470   -1.3560 H   0  0  0  0  0  0  0  0  0  0  0  0
    1.4370   -1.0050   -0.7480 H   0  0  0  0  0  0  0  0  0  0  0  0
    4.5860   -2.9330    0.5310 H   0  0  0  0  0  0  0  0  0  0  0  0
    4.4070   -3.1600    3.1470 H   0  0  0  0  0  0  0  0  0  0  0  0
    2.4200   -1.8020    4.0240 H   0  0  0  0  0  0  0  0  0  0  0  0
    0.4550    3.7610   -0.2770 C   0  0  0  0  0  0  0  0  0  0  0  0
    0.7440    2.5080    0.5810 C   0  0  2  0  0  0  0  0  0  0  0  0
    1.3470    1.4850   -0.2140 N   0  0  0  0  0  0  0  0  0  0  0  0
   -0.4880    2.0960    1.2940 C   0  0  0  0  0  0  0  0  0  0  0  0
   -1.0740    2.9700    2.0240 O   0  0  0  0  0  0  0  0  0  0  0  0
    0.4790    4.6590    0.3420 H   0  0  0  0  0  0  0  0  0  0  0  0
    1.2570    3.8190   -1.0330 H   0  0  0  0  0  0  0  0  0  0  0  0
   -0.5440    3.6440   -0.7670 H   0  0  0  0  0  0  0  0  0  0  0  0
    1.4530    2.8920    1.3490 H   0  0  0  0  0  0  0  0  0  0  0  0
    0.7770    0.9580   -0.9190 H   0  0  0  0  0  0  0  0  0  0  0  0
   -1.0080    0.7850    1.1770 N   0  0  0  0  0  0  0  0  0  0  0  0
   -2.2360    0.4120    1.8940 C   0  0  1  0  0  0  0  0  0  0  0  0
   -3.3120    0.1500    0.8990 C   0  0  0  0  0  0  0  0  0  0  0  0
   -3.0540   -0.9000   -0.0860 C   0  0  0  0  0  0  0  0  0  0  0  0
   -2.5730   -0.6780   -1.3870 C   0  0  0  0  0  0  0  0  0  0  0  0
   -2.4270   -1.8620   -1.9820 N   0  0  0  0  0  0  0  0  0  0  0  0
   -2.7910   -2.8560   -1.1340 C   0  0  0  0  0  0  0  0  0  0  0  0
   -2.8280   -4.2390   -1.2810 C   0  0  0  0  0  0  0  0  0  0  0  0
   -3.2510   -5.0760   -0.2720 C   0  0  0  0  0  0  0  0  0  0  0  0
   -3.6380   -4.4610    0.8990 C   0  0  0  0  0  0  0  0  0  0  0  0
   -3.6060   -3.1010    1.0530 C   0  0  0  0  0  0  0  0  0  0  0  0
   -3.1800   -2.2640    0.0390 C   0  0  0  0  0  0  0  0  0  0  0  0
   -2.0190   -0.6080    2.9190 C   0  0  0  0  0  0  0  0  0  0  0  0
   -2.8940   -1.0060    3.7250 O   0  0  0  0  0  0  0  0  0  0  0  0
   -0.7700   -1.2030    3.0410 O   0  0  0  0  0  0  0  0  0  0  0  0
   -0.4950    0.1110    0.5760 H   0  0  0  0  0  0  0  0  0  0  0  0
   -2.5730    1.3460    2.4580 H   0  0  0  0  0  0  0  0  0  0  0  0
   -3.5240    1.0970    0.3580 H   0  0  0  0  0  0  0  0  0  0  0  0
   -4.2420   -0.0930    1.4950 H   0  0  0  0  0  0  0  0  0  0  0  0
   -2.3550    0.2920   -1.8370 H   0  0  0  0  0  0  0  0  0  0  0  0
   -2.0890   -2.0480   -2.9500 H   0  0  0  0  0  0  0  0  0  0  0  0
   -2.5060   -4.6620   -2.2370 H   0  0  0  0  0  0  0  0  0  0  0  0
   -3.2830   -6.1540   -0.3750 H   0  0  0  0  0  0  0  0  0  0  0  0
   -3.9780   -5.1240    1.7090 H   0  0  0  0  0  0  0  0  0  0  0  0
   -3.9270   -2.6730    1.9680 H   0  0  0  0  0  0  0  0  0  0  0  0
  2 13  1  6  0  0  0
  2  1  1  0  0  0  0
  2  3  1  0  0  0  0
  2  9  1  0  0  0  0
  3  4  1  0  0  0  0
  4  5  2  0  0  0  0
  4  8  1  0  0  0  0
  5  6  1  0  0  0  0
  6  7  1  0  0  0  0
  6 17  1  0  0  0  0
  7 18  1  0  0  0  0
  8  7  2  0  0  0  0
  9 10  2  0  0  0  0
 11  1  1  0  0  0  0
 12  1  1  0  0  0  0
 14  3  1  0  0  0  0
 15  3  1  0  0  0  0
 16  5  1  0  0  0  0
 19 24  1  0  0  0  0
 19 20  1  0  0  0  0
 20 22  1  0  0  0  0
 20 27  1  1  0  0  0
 21  9  1  0  0  0  0
 21 20  1  0  0  0  0
 22 23  2  0  0  0  0
 25 19  1  0  0  0  0
 26 19  1  0  0  0  0
 28 21  1  0  0  0  0
 29 22  1  0  0  0  0
 29 30  1  0  0  0  0
 30 45  1  1  0  0  0
 30 41  1  0  0  0  0
 31 47  1  0  0  0  0
 31 30  1  0  0  0  0
 32 40  1  0  0  0  0
 32 31  1  0  0  0  0
 33 32  2  0  0  0  0
 34 33  1  0  0  0  0
 34 35  1  0  0  0  0
 35 40  1  0  0  0  0
 36 35  2  0  0  0  0
 36 37  1  0  0  0  0
 37 38  2  0  0  0  0
 38 39  1  0  0  0  0
 38 52  1  0  0  0  0
 39 53  1  0  0  0  0
 40 39  2  0  0  0  0
 41 43  2  0  0  0  0
 41 42  1  0  0  0  0
 44 29  1  0  0  0  0
 46 31  1  0  0  0  0
 48 33  1  0  0  0  0
 49 34  1  0  0  0  0
 50 36  1  0  0  0  0
 51 37  1  0  0  0  0
M  END
$$$$
