HCC.pdb
 OpenBabel07022418363D

 41 41  0  0  1  0  0  0  0  0999 V2000
    3.0200   -2.5890    3.2340 N   0  0  0  0  0  0  0  0  0  0  0  0
    1.6590   -2.1060    3.0910 C   0  0  1  0  0  0  0  0  0  0  0  0
    1.6920   -0.6420    3.4580 C   0  0  0  0  0  0  0  0  0  0  0  0
    2.6210    0.0770    2.5420 C   0  0  0  0  0  0  0  0  0  0  0  0
    3.9680    0.2560    2.7750 C   0  0  0  0  0  0  0  0  0  0  0  0
    4.4720    0.9460    1.7350 N   0  0  0  0  0  0  0  0  0  0  0  0
    3.4830    1.1960    0.8720 C   0  0  0  0  0  0  0  0  0  0  0  0
    2.3590    0.6650    1.3670 N   0  0  0  0  0  0  0  0  0  0  0  0
    1.1990   -2.3850    1.7370 C   0  0  0  0  0  0  0  0  0  0  0  0
    1.9680   -2.9230    0.8840 O   0  0  0  0  0  0  0  0  0  0  0  0
    3.5160   -2.3370    2.3390 H   0  0  0  0  0  0  0  0  0  0  0  0
    2.9460   -3.6460    3.2170 H   0  0  0  0  0  0  0  0  0  0  0  0
    1.0590   -2.6300    3.8810 H   0  0  0  0  0  0  0  0  0  0  0  0
    0.7100   -0.1560    3.4070 H   0  0  0  0  0  0  0  0  0  0  0  0
    2.0770   -0.5170    4.4900 H   0  0  0  0  0  0  0  0  0  0  0  0
    4.4800   -0.1060    3.6430 H   0  0  0  0  0  0  0  0  0  0  0  0
    5.4600    1.2470    1.6000 H   0  0  0  0  0  0  0  0  0  0  0  0
    3.5810    1.7380   -0.0670 H   0  0  0  0  0  0  0  0  0  0  0  0
   -0.1140   -2.0920    1.2550 N   0  0  0  0  0  0  0  0  0  0  0  0
   -0.5470   -2.3790   -0.0840 C   0  0  1  0  0  0  0  0  0  0  0  0
   -1.5470   -3.5220   -0.1250 C   0  0  0  0  0  0  0  0  0  0  0  0
   -2.0000   -3.7700   -1.8630 S   0  0  0  0  0  0  0  0  0  0  0  0
   -1.0210   -1.2220   -0.8510 C   0  0  0  0  0  0  0  0  0  0  0  0
   -1.4130   -1.4360   -2.0270 O   0  0  0  0  0  0  0  0  0  0  0  0
   -0.7630   -1.6470    1.9390 H   0  0  0  0  0  0  0  0  0  0  0  0
    0.3570   -2.7900   -0.6240 H   0  0  0  0  0  0  0  0  0  0  0  0
   -0.9870   -4.4390    0.1880 H   0  0  0  0  0  0  0  0  0  0  0  0
   -2.4210   -3.3440    0.5250 H   0  0  0  0  0  0  0  0  0  0  0  0
   -0.8070   -3.6370   -2.6230 H   0  0  0  0  0  0  0  0  0  0  0  0
   -1.0840    0.1200   -0.3950 N   0  0  0  0  0  0  0  0  0  0  0  0
   -1.5670    1.2090   -1.2030 C   0  0  1  0  0  0  0  0  0  0  0  0
   -2.7990    1.8620   -0.6480 C   0  0  0  0  0  0  0  0  0  0  0  0
   -4.1810    0.7010   -0.4990 S   0  0  0  0  0  0  0  0  0  0  0  0
   -0.5510    2.2560   -1.4300 C   0  0  0  0  0  0  0  0  0  0  0  0
   -0.7680    3.2930   -2.1050 O   0  0  0  0  0  0  0  0  0  0  0  0
    0.7110    2.1040   -0.8790 O   0  0  0  0  0  0  0  0  0  0  0  0
   -0.7630    0.3090    0.5680 H   0  0  0  0  0  0  0  0  0  0  0  0
   -1.8700    0.7540   -2.1910 H   0  0  0  0  0  0  0  0  0  0  0  0
   -2.5840    2.3700    0.3250 H   0  0  0  0  0  0  0  0  0  0  0  0
   -3.0850    2.6730   -1.3500 H   0  0  0  0  0  0  0  0  0  0  0  0
   -3.9170   -0.1540    0.5920 H   0  0  0  0  0  0  0  0  0  0  0  0
  2  1  1  0  0  0  0
  2  3  1  0  0  0  0
  2 13  1  1  0  0  0
  3 15  1  0  0  0  0
  4  5  2  0  0  0  0
  4  3  1  0  0  0  0
  5 16  1  0  0  0  0
  6  5  1  0  0  0  0
  7  8  2  0  0  0  0
  7  6  1  0  0  0  0
  8  4  1  0  0  0  0
  9  2  1  0  0  0  0
 10  9  2  0  0  0  0
 11  1  1  0  0  0  0
 12  1  1  0  0  0  0
 14  3  1  0  0  0  0
 17  6  1  0  0  0  0
 18  7  1  0  0  0  0
 19  9  1  0  0  0  0
 19 25  1  0  0  0  0
 20 26  1  6  0  0  0
 20 19  1  0  0  0  0
 21 20  1  0  0  0  0
 21 27  1  0  0  0  0
 21 28  1  0  0  0  0
 22 21  1  0  0  0  0
 23 30  1  0  0  0  0
 23 20  1  0  0  0  0
 24 23  2  0  0  0  0
 29 22  1  0  0  0  0
 30 37  1  0  0  0  0
 31 38  1  6  0  0  0
 31 32  1  0  0  0  0
 31 30  1  0  0  0  0
 32 33  1  0  0  0  0
 32 39  1  0  0  0  0
 33 41  1  0  0  0  0
 34 31  1  0  0  0  0
 34 36  1  0  0  0  0
 35 34  2  0  0  0  0
 40 32  1  0  0  0  0
M  END
$$$$
