HCE.pdb
 OpenBabel07022418363D

 46 46  0  0  1  0  0  0  0  0999 V2000
    2.0550   -2.9740    1.0450 N   0  0  0  0  0  0  0  0  0  0  0  0
    1.8170   -2.3000    2.3290 C   0  0  1  0  0  0  0  0  0  0  0  0
    3.0830   -2.3370    3.1580 C   0  0  0  0  0  0  0  0  0  0  0  0
    2.9570   -1.6900    4.4720 C   0  0  0  0  0  0  0  0  0  0  0  0
    2.5610   -2.2830    5.6690 C   0  0  0  0  0  0  0  0  0  0  0  0
    2.5650   -1.3760    6.6620 N   0  0  0  0  0  0  0  0  0  0  0  0
    2.9600   -0.2080    6.1110 C   0  0  0  0  0  0  0  0  0  0  0  0
    3.1920   -0.4060    4.8010 N   0  0  0  0  0  0  0  0  0  0  0  0
    1.4630   -0.8760    2.1010 C   0  0  0  0  0  0  0  0  0  0  0  0
    1.1970   -0.1200    3.0680 O   0  0  0  0  0  0  0  0  0  0  0  0
    1.2220   -3.5280    0.7450 H   0  0  0  0  0  0  0  0  0  0  0  0
    2.8310   -3.6860    1.1820 H   0  0  0  0  0  0  0  0  0  0  0  0
    1.0500   -2.8720    2.8500 H   0  0  0  0  0  0  0  0  0  0  0  0
    3.9250   -1.8480    2.5910 H   0  0  0  0  0  0  0  0  0  0  0  0
    3.4130   -3.3930    3.3480 H   0  0  0  0  0  0  0  0  0  0  0  0
    2.2900   -3.3270    5.7740 H   0  0  0  0  0  0  0  0  0  0  0  0
    2.3090   -1.5420    7.6750 H   0  0  0  0  0  0  0  0  0  0  0  0
    3.0670    0.7160    6.6400 H   0  0  0  0  0  0  0  0  0  0  0  0
    1.4010   -0.2820    0.8110 N   0  0  0  0  0  0  0  0  0  0  0  0
    1.0510    1.1150    0.6350 C   0  0  1  0  0  0  0  0  0  0  0  0
    2.1150    1.9020   -0.0560 C   0  0  0  0  0  0  0  0  0  0  0  0
    3.6200    1.8140    0.9410 S   0  0  0  0  0  0  0  0  0  0  0  0
   -0.2620    1.1680   -0.0870 C   0  0  0  0  0  0  0  0  0  0  0  0
   -0.8020    2.2750   -0.3720 O   0  0  0  0  0  0  0  0  0  0  0  0
    1.6150   -0.8770   -0.0170 H   0  0  0  0  0  0  0  0  0  0  0  0
    0.8670    1.5770    1.6350 H   0  0  0  0  0  0  0  0  0  0  0  0
    2.3160    1.5650   -1.0760 H   0  0  0  0  0  0  0  0  0  0  0  0
    1.7970    2.9590   -0.0740 H   0  0  0  0  0  0  0  0  0  0  0  0
    3.5150    2.5750    2.1200 H   0  0  0  0  0  0  0  0  0  0  0  0
   -0.9510   -0.0030   -0.4780 N   0  0  0  0  0  0  0  0  0  0  0  0
   -2.2480    0.0660   -1.1900 C   0  0  1  0  0  0  0  0  0  0  0  0
   -2.1820   -0.7060   -2.4640 C   0  0  0  0  0  0  0  0  0  0  0  0
   -3.4540   -0.6890   -3.2540 C   0  0  0  0  0  0  0  0  0  0  0  0
   -3.8980    0.6470   -3.6790 C   0  0  0  0  0  0  0  0  0  0  0  0
   -3.2510    1.6830   -3.4290 O   0  0  0  0  0  0  0  0  0  0  0  0
   -3.2550   -0.4830   -0.2470 C   0  0  0  0  0  0  0  0  0  0  0  0
   -2.9210   -0.9180    0.9050 O   0  0  0  0  0  0  0  0  0  0  0  0
   -5.0900    0.7920   -4.3940 O   0  0  0  0  0  0  0  0  0  0  0  0
   -4.6130   -0.5730   -0.5140 O   0  0  0  0  0  0  0  0  0  0  0  0
   -0.5320   -0.9310   -0.2570 H   0  0  0  0  0  0  0  0  0  0  0  0
   -2.5110    1.1330   -1.3290 H   0  0  0  0  0  0  0  0  0  0  0  0
   -1.3180   -0.3510   -3.0650 H   0  0  0  0  0  0  0  0  0  0  0  0
   -1.9310   -1.7680   -2.1700 H   0  0  0  0  0  0  0  0  0  0  0  0
   -3.2610   -1.2630   -4.2000 H   0  0  0  0  0  0  0  0  0  0  0  0
   -4.2680   -1.2170   -2.6950 H   0  0  0  0  0  0  0  0  0  0  0  0
   -5.6200    1.6380   -4.3360 H   0  0  0  0  0  0  0  0  0  0  0  0
  1 12  1  0  0  0  0
  1  2  1  0  0  0  0
  2 13  1  1  0  0  0
  2  3  1  0  0  0  0
  3 15  1  0  0  0  0
  3  4  1  0  0  0  0
  4  8  1  0  0  0  0
  4  5  2  0  0  0  0
  5 16  1  0  0  0  0
  5  6  1  0  0  0  0
  6 17  1  0  0  0  0
  7 18  1  0  0  0  0
  7  6  1  0  0  0  0
  8  7  2  0  0  0  0
  9  2  1  0  0  0  0
  9 10  2  0  0  0  0
 11  1  1  0  0  0  0
 14  3  1  0  0  0  0
 19  9  1  0  0  0  0
 20 19  1  0  0  0  0
 20 26  1  1  0  0  0
 21 20  1  0  0  0  0
 21 22  1  0  0  0  0
 22 29  1  0  0  0  0
 23 20  1  0  0  0  0
 24 23  2  0  0  0  0
 25 19  1  0  0  0  0
 27 21  1  0  0  0  0
 28 21  1  0  0  0  0
 30 40  1  0  0  0  0
 30 23  1  0  0  0  0
 31 41  1  6  0  0  0
 31 30  1  0  0  0  0
 31 36  1  0  0  0  0
 32 43  1  0  0  0  0
 32 31  1  0  0  0  0
 33 45  1  0  0  0  0
 33 32  1  0  0  0  0
 34 35  2  0  0  0  0
 34 33  1  0  0  0  0
 36 37  1  0  0  0  0
 38 46  1  0  0  0  0
 38 34  1  0  0  0  0
 39 36  2  0  0  0  0
 42 32  1  0  0  0  0
 44 33  1  0  0  0  0
M  END
$$$$
