HCG.pdb
 OpenBabel07022418363D

 37 37  0  0  1  0  0  0  0  0999 V2000
    1.0960   -0.5070    2.4560 N   0  0  0  0  0  0  0  0  0  0  0  0
    0.9880   -1.6410    1.5760 C   0  0  1  0  0  0  0  0  0  0  0  0
    0.5710   -2.8410    2.4380 C   0  0  0  0  0  0  0  0  0  0  0  0
    1.5770   -3.1070    3.4880 C   0  0  0  0  0  0  0  0  0  0  0  0
    1.6470   -2.6030    4.7710 C   0  0  0  0  0  0  0  0  0  0  0  0
    2.7270   -3.1120    5.3800 N   0  0  0  0  0  0  0  0  0  0  0  0
    3.3500   -3.9350    4.5060 C   0  0  0  0  0  0  0  0  0  0  0  0
    2.6450   -3.9270    3.3580 N   0  0  0  0  0  0  0  0  0  0  0  0
    0.0190   -1.3990    0.4990 C   0  0  0  0  0  0  0  0  0  0  0  0
   -0.1860   -2.3070   -0.3580 O   0  0  0  0  0  0  0  0  0  0  0  0
    2.0660   -0.1890    2.6100 H   0  0  0  0  0  0  0  0  0  0  0  0
    0.4960   -0.5430    3.2830 H   0  0  0  0  0  0  0  0  0  0  0  0
    1.9670   -1.8370    1.1190 H   0  0  0  0  0  0  0  0  0  0  0  0
   -0.4170   -2.6580    2.9050 H   0  0  0  0  0  0  0  0  0  0  0  0
    0.4340   -3.7380    1.7770 H   0  0  0  0  0  0  0  0  0  0  0  0
    0.9400   -1.9090    5.2050 H   0  0  0  0  0  0  0  0  0  0  0  0
    3.0250   -2.9020    6.3590 H   0  0  0  0  0  0  0  0  0  0  0  0
    4.2590   -4.5020    4.6980 H   0  0  0  0  0  0  0  0  0  0  0  0
   -0.7230   -0.1920    0.3440 N   0  0  0  0  0  0  0  0  0  0  0  0
   -1.6590   -0.0150   -0.7330 C   0  0  1  0  0  0  0  0  0  0  0  0
   -3.0840    0.1700   -0.2450 C   0  0  0  0  0  0  0  0  0  0  0  0
   -3.2810    1.6000    0.8150 S   0  0  0  0  0  0  0  0  0  0  0  0
   -1.2530    1.0840   -1.6510 C   0  0  0  0  0  0  0  0  0  0  0  0
   -1.9800    1.3520   -2.6410 O   0  0  0  0  0  0  0  0  0  0  0  0
   -0.5500    0.5700    1.0650 H   0  0  0  0  0  0  0  0  0  0  0  0
   -1.6580   -0.9430   -1.3410 H   0  0  0  0  0  0  0  0  0  0  0  0
   -3.4070   -0.7680    0.2280 H   0  0  0  0  0  0  0  0  0  0  0  0
   -3.7110    0.3130   -1.1470 H   0  0  0  0  0  0  0  0  0  0  0  0
   -2.0300    1.9430    1.3540 H   0  0  0  0  0  0  0  0  0  0  0  0
   -0.0700    1.8430   -1.4470 N   0  0  0  0  0  0  0  0  0  0  0  0
    0.3130    2.9040   -2.3420 C   0  0  0  0  0  0  0  0  0  0  0  0
    0.5130    2.4110   -3.7320 C   0  0  0  0  0  0  0  0  0  0  0  0
    0.8490    3.1770   -4.6670 O   0  0  0  0  0  0  0  0  0  0  0  0
    0.3230    1.0820   -3.9960 O   0  0  0  0  0  0  0  0  0  0  0  0
    0.5160    1.5850   -0.5990 H   0  0  0  0  0  0  0  0  0  0  0  0
   -0.4010    3.7570   -2.3290 H   0  0  0  0  0  0  0  0  0  0  0  0
    1.3150    3.2850   -2.0060 H   0  0  0  0  0  0  0  0  0  0  0  0
  1 11  1  0  0  0  0
  1 12  1  0  0  0  0
  2 13  1  6  0  0  0
  2  3  1  0  0  0  0
  2  1  1  0  0  0  0
  3 14  1  0  0  0  0
  3  4  1  0  0  0  0
  4  5  2  0  0  0  0
  5 16  1  0  0  0  0
  5  6  1  0  0  0  0
  6 17  1  0  0  0  0
  7 18  1  0  0  0  0
  7  6  1  0  0  0  0
  8  4  1  0  0  0  0
  8  7  2  0  0  0  0
  9  2  1  0  0  0  0
 10  9  2  0  0  0  0
 15  3  1  0  0  0  0
 19  9  1  0  0  0  0
 19 25  1  0  0  0  0
 20 26  1  6  0  0  0
 20 21  1  0  0  0  0
 20 19  1  0  0  0  0
 21 27  1  0  0  0  0
 21 22  1  0  0  0  0
 22 29  1  0  0  0  0
 23 30  1  0  0  0  0
 23 20  1  0  0  0  0
 24 23  2  0  0  0  0
 28 21  1  0  0  0  0
 30 35  1  0  0  0  0
 31 36  1  0  0  0  0
 31 37  1  0  0  0  0
 31 30  1  0  0  0  0
 32 31  1  0  0  0  0
 33 32  2  0  0  0  0
 34 32  1  0  0  0  0
M  END
$$$$
