HCH.pdb
 OpenBabel07022418363D

 47 48  0  0  1  0  0  0  0  0999 V2000
    1.0050   -0.2990   -2.3460 N   0  0  0  0  0  0  0  0  0  0  0  0
    2.1230   -0.8150   -1.5400 C   0  0  1  0  0  0  0  0  0  0  0  0
    3.4320   -0.5170   -2.1720 C   0  0  0  0  0  0  0  0  0  0  0  0
    4.5400   -1.1390   -1.4080 C   0  0  0  0  0  0  0  0  0  0  0  0
    4.5470   -2.0350   -0.3670 C   0  0  0  0  0  0  0  0  0  0  0  0
    5.8230   -2.3910   -0.0310 N   0  0  0  0  0  0  0  0  0  0  0  0
    6.6120   -1.7170   -0.8640 C   0  0  0  0  0  0  0  0  0  0  0  0
    5.8770   -0.9660   -1.6930 N   0  0  0  0  0  0  0  0  0  0  0  0
    2.0350   -0.0890   -0.2060 C   0  0  0  0  0  0  0  0  0  0  0  0
    2.9320   -0.0680    0.6410 O   0  0  0  0  0  0  0  0  0  0  0  0
    1.2050   -0.4720   -3.3750 H   0  0  0  0  0  0  0  0  0  0  0  0
    0.1680   -0.8870   -2.1260 H   0  0  0  0  0  0  0  0  0  0  0  0
    1.9860   -1.8660   -1.3570 H   0  0  0  0  0  0  0  0  0  0  0  0
    3.6340    0.5750   -2.2760 H   0  0  0  0  0  0  0  0  0  0  0  0
    3.4440   -0.9260   -3.2060 H   0  0  0  0  0  0  0  0  0  0  0  0
    3.6620   -2.4520    0.1270 H   0  0  0  0  0  0  0  0  0  0  0  0
    6.0450   -3.0650    0.7420 H   0  0  0  0  0  0  0  0  0  0  0  0
    7.7050   -1.8100   -0.8230 H   0  0  0  0  0  0  0  0  0  0  0  0
    0.8390    0.6370    0.1310 N   0  0  0  0  0  0  0  0  0  0  0  0
    0.7260    1.3360    1.3890 C   0  0  1  0  0  0  0  0  0  0  0  0
    0.6020    2.8330    1.1930 C   0  0  0  0  0  0  0  0  0  0  0  0
    2.0750    3.4300    0.3300 S   0  0  0  0  0  0  0  0  0  0  0  0
   -0.4040    0.7890    2.1720 C   0  0  0  0  0  0  0  0  0  0  0  0
   -0.6970    1.2420    3.3060 O   0  0  0  0  0  0  0  0  0  0  0  0
    0.0400    0.6670   -0.5320 H   0  0  0  0  0  0  0  0  0  0  0  0
    1.6800    1.1860    1.9540 H   0  0  0  0  0  0  0  0  0  0  0  0
    0.5870    3.3050    2.1900 H   0  0  0  0  0  0  0  0  0  0  0  0
   -0.3180    3.1140    0.6430 H   0  0  0  0  0  0  0  0  0  0  0  0
    2.1550    4.8390    0.3830 H   0  0  0  0  0  0  0  0  0  0  0  0
   -1.1810   -0.2690    1.6410 N   0  0  0  0  0  0  0  0  0  0  0  0
   -2.3150   -0.8290    2.4100 C   0  0  1  0  0  0  0  0  0  0  0  0
   -3.5230   -0.6360    1.5550 C   0  0  0  0  0  0  0  0  0  0  0  0
   -4.7610   -1.1270    2.1990 C   0  0  0  0  0  0  0  0  0  0  0  0
   -6.0410   -1.0820    1.6200 C   0  0  0  0  0  0  0  0  0  0  0  0
   -6.9180   -1.6110    2.4870 N   0  0  0  0  0  0  0  0  0  0  0  0
   -6.2470   -1.9870    3.5860 C   0  0  0  0  0  0  0  0  0  0  0  0
   -4.9540   -1.6860    3.3920 N   0  0  0  0  0  0  0  0  0  0  0  0
   -1.9790   -2.2500    2.6780 C   0  0  0  0  0  0  0  0  0  0  0  0
   -2.7230   -3.0220    3.3300 O   0  0  0  0  0  0  0  0  0  0  0  0
   -0.7810   -2.7770    2.1900 O   0  0  0  0  0  0  0  0  0  0  0  0
   -0.9580   -0.6550    0.7140 H   0  0  0  0  0  0  0  0  0  0  0  0
   -2.3940   -0.2970    3.3590 H   0  0  0  0  0  0  0  0  0  0  0  0
   -3.6570    0.4430    1.3000 H   0  0  0  0  0  0  0  0  0  0  0  0
   -3.3600   -1.1990    0.5930 H   0  0  0  0  0  0  0  0  0  0  0  0
   -6.2360   -0.6790    0.6360 H   0  0  0  0  0  0  0  0  0  0  0  0
   -7.9450   -1.7000    2.3020 H   0  0  0  0  0  0  0  0  0  0  0  0
   -6.6790   -2.4490    4.4700 H   0  0  0  0  0  0  0  0  0  0  0  0
  1 12  1  0  0  0  0
  1  2  1  0  0  0  0
  2 13  1  1  0  0  0
  2  9  1  0  0  0  0
  3  2  1  0  0  0  0
  3  4  1  0  0  0  0
  4  5  2  0  0  0  0
  5  6  1  0  0  0  0
  5 16  1  0  0  0  0
  6 17  1  0  0  0  0
  7 18  1  0  0  0  0
  7  6  1  0  0  0  0
  8  4  1  0  0  0  0
  8  7  2  0  0  0  0
  9 19  1  0  0  0  0
  9 10  2  0  0  0  0
 11  1  1  0  0  0  0
 14  3  1  0  0  0  0
 15  3  1  0  0  0  0
 19 20  1  0  0  0  0
 20 26  1  1  0  0  0
 20 23  1  0  0  0  0
 21 20  1  0  0  0  0
 21 27  1  0  0  0  0
 22 29  1  0  0  0  0
 22 21  1  0  0  0  0
 23 24  2  0  0  0  0
 25 19  1  0  0  0  0
 28 21  1  0  0  0  0
 30 23  1  0  0  0  0
 30 31  1  0  0  0  0
 31 38  1  0  0  0  0
 31 42  1  1  0  0  0
 32 33  1  0  0  0  0
 32 31  1  0  0  0  0
 33 37  1  0  0  0  0
 34 33  2  0  0  0  0
 34 35  1  0  0  0  0
 35 36  1  0  0  0  0
 36 47  1  0  0  0  0
 37 36  2  0  0  0  0
 38 39  1  0  0  0  0
 40 38  2  0  0  0  0
 41 30  1  0  0  0  0
 43 32  1  0  0  0  0
 44 32  1  0  0  0  0
 45 34  1  0  0  0  0
 46 35  1  0  0  0  0
M  END
$$$$
