HCN.pdb
 OpenBabel07022418363D

 44 44  0  0  1  0  0  0  0  0999 V2000
    0.2930   -3.1020   -0.0510 N   0  0  0  0  0  0  0  0  0  0  0  0
    1.5930   -2.4880   -0.3140 C   0  0  1  0  0  0  0  0  0  0  0  0
    2.0890   -2.9750   -1.6310 C   0  0  0  0  0  0  0  0  0  0  0  0
    3.4210   -2.3680   -1.9430 C   0  0  0  0  0  0  0  0  0  0  0  0
    3.6500   -1.2100   -2.6510 C   0  0  0  0  0  0  0  0  0  0  0  0
    4.9730   -0.9870   -2.7460 N   0  0  0  0  0  0  0  0  0  0  0  0
    5.5510   -2.0130   -2.0960 C   0  0  0  0  0  0  0  0  0  0  0  0
    4.6310   -2.8550   -1.6050 N   0  0  0  0  0  0  0  0  0  0  0  0
    1.4280   -1.0180   -0.3290 C   0  0  0  0  0  0  0  0  0  0  0  0
    2.3700   -0.2230   -0.4340 O   0  0  0  0  0  0  0  0  0  0  0  0
   -0.1530   -3.3880   -0.9360 H   0  0  0  0  0  0  0  0  0  0  0  0
    0.4080   -3.9060    0.6080 H   0  0  0  0  0  0  0  0  0  0  0  0
    2.3170   -2.7670    0.4940 H   0  0  0  0  0  0  0  0  0  0  0  0
    2.2080   -4.0740   -1.6500 H   0  0  0  0  0  0  0  0  0  0  0  0
    1.3940   -2.6300   -2.4180 H   0  0  0  0  0  0  0  0  0  0  0  0
    2.8970   -0.5650   -3.0770 H   0  0  0  0  0  0  0  0  0  0  0  0
    5.4870   -0.2050   -3.2130 H   0  0  0  0  0  0  0  0  0  0  0  0
    6.6390   -2.1080   -2.0020 H   0  0  0  0  0  0  0  0  0  0  0  0
    0.1320   -0.4420   -0.2180 N   0  0  0  0  0  0  0  0  0  0  0  0
   -0.1670    0.9440   -0.2180 C   0  0  1  0  0  0  0  0  0  0  0  0
   -1.0530    1.4010   -1.3370 C   0  0  0  0  0  0  0  0  0  0  0  0
   -0.3210    1.0770   -2.9650 S   0  0  0  0  0  0  0  0  0  0  0  0
   -0.7790    1.3070    1.0850 C   0  0  0  0  0  0  0  0  0  0  0  0
   -1.1400    2.4920    1.3420 O   0  0  0  0  0  0  0  0  0  0  0  0
   -0.6830   -1.1120   -0.1290 H   0  0  0  0  0  0  0  0  0  0  0  0
    0.7880    1.5220   -0.3090 H   0  0  0  0  0  0  0  0  0  0  0  0
   -1.1120    2.5260   -1.2490 H   0  0  0  0  0  0  0  0  0  0  0  0
   -2.0820    1.0430   -1.2870 H   0  0  0  0  0  0  0  0  0  0  0  0
    0.9640    1.6190   -3.0400 H   0  0  0  0  0  0  0  0  0  0  0  0
   -4.2540    1.2440    5.1600 N   0  0  0  0  0  0  0  0  0  0  0  0
   -3.3720    0.1320    4.9420 C   0  0  0  0  0  0  0  0  0  0  0  0
   -3.1070   -0.5630    5.9440 O   0  0  0  0  0  0  0  0  0  0  0  0
   -2.7970   -0.1970    3.6260 C   0  0  0  0  0  0  0  0  0  0  0  0
   -1.5710    0.6110    3.3810 C   0  0  2  0  0  0  0  0  0  0  0  0
   -0.9740    0.3140    2.0830 N   0  0  0  0  0  0  0  0  0  0  0  0
   -0.5470    0.2950    4.3950 C   0  0  0  0  0  0  0  0  0  0  0  0
    0.5740   -0.1880    4.0770 O   0  0  0  0  0  0  0  0  0  0  0  0
   -0.7830    0.5210    5.7390 O   0  0  0  0  0  0  0  0  0  0  0  0
   -4.3330    1.7450    6.0500 H   0  0  0  0  0  0  0  0  0  0  0  0
   -4.8310    1.5270    4.3390 H   0  0  0  0  0  0  0  0  0  0  0  0
   -2.4980   -1.2720    3.6470 H   0  0  0  0  0  0  0  0  0  0  0  0
   -3.5980   -0.0240    2.8760 H   0  0  0  0  0  0  0  0  0  0  0  0
   -1.8340    1.6830    3.4660 H   0  0  0  0  0  0  0  0  0  0  0  0
   -0.6740   -0.6600    1.8660 H   0  0  0  0  0  0  0  0  0  0  0  0
  1 12  1  0  0  0  0
  2  1  1  0  0  0  0
  2 13  1  1  0  0  0
  3  2  1  0  0  0  0
  4  3  1  0  0  0  0
  4  8  1  0  0  0  0
  5  4  2  0  0  0  0
  6  5  1  0  0  0  0
  6  7  1  0  0  0  0
  7 18  1  0  0  0  0
  7  8  2  0  0  0  0
  9  2  1  0  0  0  0
  9 19  1  0  0  0  0
 10  9  2  0  0  0  0
 11  1  1  0  0  0  0
 14  3  1  0  0  0  0
 15  3  1  0  0  0  0
 16  5  1  0  0  0  0
 17  6  1  0  0  0  0
 19 20  1  0  0  0  0
 19 25  1  0  0  0  0
 20 26  1  6  0  0  0
 20 23  1  0  0  0  0
 21 28  1  0  0  0  0
 21 27  1  0  0  0  0
 21 20  1  0  0  0  0
 22 21  1  0  0  0  0
 23 24  2  0  0  0  0
 23 35  1  0  0  0  0
 29 22  1  0  0  0  0
 30 39  1  0  0  0  0
 31 30  1  0  0  0  0
 31 32  2  0  0  0  0
 33 41  1  0  0  0  0
 33 31  1  0  0  0  0
 34 43  1  1  0  0  0
 34 33  1  0  0  0  0
 34 36  1  0  0  0  0
 35 34  1  0  0  0  0
 36 38  1  0  0  0  0
 37 36  2  0  0  0  0
 40 30  1  0  0  0  0
 42 33  1  0  0  0  0
 44 35  1  0  0  0  0
M  END
$$$$
