HCQ.pdb
 OpenBabel07022418363D

 47 47  0  0  1  0  0  0  0  0999 V2000
    0.6640   -3.7550    5.2540 N   0  0  0  0  0  0  0  0  0  0  0  0
    1.3830   -2.8900    4.2640 C   0  0  1  0  0  0  0  0  0  0  0  0
    2.3000   -3.7680    3.4780 C   0  0  0  0  0  0  0  0  0  0  0  0
    3.0520   -3.0030    2.4790 C   0  0  0  0  0  0  0  0  0  0  0  0
    2.6700   -2.8200    1.1630 C   0  0  0  0  0  0  0  0  0  0  0  0
    3.5930   -2.1050    0.5110 N   0  0  0  0  0  0  0  0  0  0  0  0
    4.5670   -1.8210    1.3850 C   0  0  0  0  0  0  0  0  0  0  0  0
    4.2450   -2.3680    2.5950 N   0  0  0  0  0  0  0  0  0  0  0  0
    0.4080   -2.1070    3.5260 C   0  0  0  0  0  0  0  0  0  0  0  0
   -0.8300   -2.4410    3.5350 O   0  0  0  0  0  0  0  0  0  0  0  0
    1.3660   -4.4950    5.5190 H   0  0  0  0  0  0  0  0  0  0  0  0
    0.4850   -3.1820    6.1170 H   0  0  0  0  0  0  0  0  0  0  0  0
    2.0180   -2.2210    4.8960 H   0  0  0  0  0  0  0  0  0  0  0  0
    3.0370   -4.1840    4.2320 H   0  0  0  0  0  0  0  0  0  0  0  0
    1.7690   -4.6130    2.9790 H   0  0  0  0  0  0  0  0  0  0  0  0
    1.7660   -3.2010    0.7420 H   0  0  0  0  0  0  0  0  0  0  0  0
    3.5640   -1.8220   -0.4800 H   0  0  0  0  0  0  0  0  0  0  0  0
    5.4410   -1.2570    1.1410 H   0  0  0  0  0  0  0  0  0  0  0  0
    0.7460   -0.9550    2.7770 N   0  0  0  0  0  0  0  0  0  0  0  0
   -0.3280   -0.2220    2.0700 C   0  0  1  0  0  0  0  0  0  0  0  0
   -0.5300    1.0440    2.9320 C   0  0  0  0  0  0  0  0  0  0  0  0
   -1.7950    2.1290    2.3020 S   0  0  0  0  0  0  0  0  0  0  0  0
    0.0600    0.1460    0.6970 C   0  0  0  0  0  0  0  0  0  0  0  0
    1.2170   -0.0930    0.2730 O   0  0  0  0  0  0  0  0  0  0  0  0
    1.7270   -0.6130    2.7180 H   0  0  0  0  0  0  0  0  0  0  0  0
   -1.2860   -0.7430    2.1260 H   0  0  0  0  0  0  0  0  0  0  0  0
    0.4860    1.5120    2.9840 H   0  0  0  0  0  0  0  0  0  0  0  0
   -0.7340    0.6680    3.9570 H   0  0  0  0  0  0  0  0  0  0  0  0
   -1.3790    3.4720    2.4570 H   0  0  0  0  0  0  0  0  0  0  0  0
   -4.8310    0.0870   -3.7710 N   0  0  0  0  0  0  0  0  0  0  0  0
   -3.4280   -0.0020   -3.6030 C   0  0  0  0  0  0  0  0  0  0  0  0
   -2.7890   -0.7360   -4.4060 O   0  0  0  0  0  0  0  0  0  0  0  0
   -2.7120    0.7420   -2.5170 C   0  0  0  0  0  0  0  0  0  0  0  0
   -1.2340    0.4350   -2.6120 C   0  0  0  0  0  0  0  0  0  0  0  0
   -0.4320    1.1350   -1.5630 C   0  0  2  0  0  0  0  0  0  0  0  0
   -0.8260    0.7780   -0.2180 N   0  0  0  0  0  0  0  0  0  0  0  0
   -0.4780    2.5950   -1.7900 C   0  0  0  0  0  0  0  0  0  0  0  0
   -0.1580    3.0360   -2.9230 O   0  0  0  0  0  0  0  0  0  0  0  0
   -0.8550    3.5220   -0.8310 O   0  0  0  0  0  0  0  0  0  0  0  0
   -5.4200    0.1500   -2.9150 H   0  0  0  0  0  0  0  0  0  0  0  0
   -5.2470    0.0870   -4.7450 H   0  0  0  0  0  0  0  0  0  0  0  0
   -2.9220    1.8140   -2.7050 H   0  0  0  0  0  0  0  0  0  0  0  0
   -3.1640    0.4610   -1.5660 H   0  0  0  0  0  0  0  0  0  0  0  0
   -1.0320   -0.6430   -2.6690 H   0  0  0  0  0  0  0  0  0  0  0  0
   -0.9010    0.8570   -3.6020 H   0  0  0  0  0  0  0  0  0  0  0  0
    0.6250    0.8230   -1.6830 H   0  0  0  0  0  0  0  0  0  0  0  0
   -1.8050    1.0030    0.0560 H   0  0  0  0  0  0  0  0  0  0  0  0
  1 11  1  0  0  0  0
  1 12  1  0  0  0  0
  2 13  1  1  0  0  0
  2  1  1  0  0  0  0
  3 14  1  0  0  0  0
  3  2  1  0  0  0  0
  4  8  1  0  0  0  0
  4  3  1  0  0  0  0
  5  4  2  0  0  0  0
  6  5  1  0  0  0  0
  6  7  1  0  0  0  0
  7  8  2  0  0  0  0
  9 10  2  0  0  0  0
  9  2  1  0  0  0  0
 15  3  1  0  0  0  0
 16  5  1  0  0  0  0
 17  6  1  0  0  0  0
 18  7  1  0  0  0  0
 19  9  1  0  0  0  0
 20 26  1  6  0  0  0
 20 19  1  0  0  0  0
 20 21  1  0  0  0  0
 21 27  1  0  0  0  0
 21 28  1  0  0  0  0
 22 29  1  0  0  0  0
 22 21  1  0  0  0  0
 23 20  1  0  0  0  0
 24 23  2  0  0  0  0
 25 19  1  0  0  0  0
 30 31  1  0  0  0  0
 30 40  1  0  0  0  0
 31 33  1  0  0  0  0
 32 31  2  0  0  0  0
 33 43  1  0  0  0  0
 34 33  1  0  0  0  0
 34 35  1  0  0  0  0
 35 46  1  6  0  0  0
 35 36  1  0  0  0  0
 36 47  1  0  0  0  0
 36 23  1  0  0  0  0
 37 35  1  0  0  0  0
 37 39  1  0  0  0  0
 38 37  2  0  0  0  0
 41 30  1  0  0  0  0
 42 33  1  0  0  0  0
 44 34  1  0  0  0  0
 45 34  1  0  0  0  0
M  END
$$$$
