HCR.pdb
 OpenBabel07022418363D

 53 53  0  0  1  0  0  0  0  0999 V2000
    3.0840   -1.3630   -0.7590 N   0  0  0  0  0  0  0  0  0  0  0  0
    3.4970   -0.4100    0.2490 C   0  0  1  0  0  0  0  0  0  0  0  0
    4.6050    0.4680   -0.3330 C   0  0  0  0  0  0  0  0  0  0  0  0
    5.7340   -0.4390   -0.7080 C   0  0  0  0  0  0  0  0  0  0  0  0
    6.7810   -0.7990    0.1270 C   0  0  0  0  0  0  0  0  0  0  0  0
    7.6050   -1.6210   -0.5430 N   0  0  0  0  0  0  0  0  0  0  0  0
    7.0820   -1.7700   -1.7710 C   0  0  0  0  0  0  0  0  0  0  0  0
    5.9560   -1.0620   -1.8800 N   0  0  0  0  0  0  0  0  0  0  0  0
    2.3870    0.5160    0.5970 C   0  0  0  0  0  0  0  0  0  0  0  0
    2.5840    1.3980    1.4730 O   0  0  0  0  0  0  0  0  0  0  0  0
    2.6410   -2.2050   -0.3640 H   0  0  0  0  0  0  0  0  0  0  0  0
    2.6360   -0.9350   -1.5780 H   0  0  0  0  0  0  0  0  0  0  0  0
    3.8330   -0.9300    1.1470 H   0  0  0  0  0  0  0  0  0  0  0  0
    5.0020    1.1750    0.4000 H   0  0  0  0  0  0  0  0  0  0  0  0
    4.2170    1.0020   -1.2170 H   0  0  0  0  0  0  0  0  0  0  0  0
    6.8690   -0.4420    1.1520 H   0  0  0  0  0  0  0  0  0  0  0  0
    8.4730   -2.0440   -0.1500 H   0  0  0  0  0  0  0  0  0  0  0  0
    7.5480   -2.3950   -2.5470 H   0  0  0  0  0  0  0  0  0  0  0  0
    1.0990    0.4760    0.0020 N   0  0  0  0  0  0  0  0  0  0  0  0
    0.0870    1.4090    0.3990 C   0  0  1  0  0  0  0  0  0  0  0  0
   -0.1980    2.4290   -0.6980 C   0  0  0  0  0  0  0  0  0  0  0  0
    1.3340    3.3160   -1.0340 S   0  0  0  0  0  0  0  0  0  0  0  0
   -1.1450    0.6920    0.7910 C   0  0  0  0  0  0  0  0  0  0  0  0
   -2.1820    1.2860    1.2010 O   0  0  0  0  0  0  0  0  0  0  0  0
    0.9210   -0.2460   -0.7230 H   0  0  0  0  0  0  0  0  0  0  0  0
    0.4750    2.0240    1.2580 H   0  0  0  0  0  0  0  0  0  0  0  0
   -0.9200    3.1570   -0.2770 H   0  0  0  0  0  0  0  0  0  0  0  0
   -0.6630    1.9870   -1.5860 H   0  0  0  0  0  0  0  0  0  0  0  0
    1.4680    4.4980   -0.2850 H   0  0  0  0  0  0  0  0  0  0  0  0
   -5.1820   -0.6460    3.4730 N   0  0  0  0  0  0  0  0  0  0  0  0
   -5.5390   -0.8190    2.1160 C   0  0  0  0  0  0  0  0  0  0  0  0
   -5.6470    0.1830    1.2710 N   0  0  0  0  0  0  0  0  0  0  0  0
   -5.7930   -2.1150    1.6180 N   0  0  0  0  0  0  0  0  0  0  0  0
   -5.4450   -2.6540    0.3620 C   0  0  0  0  0  0  0  0  0  0  0  0
   -4.0970   -3.0550   -0.0090 C   0  0  0  0  0  0  0  0  0  0  0  0
   -2.9340   -2.1840   -0.1020 C   0  0  0  0  0  0  0  0  0  0  0  0
   -2.3840   -1.4970    1.0790 C   0  0  2  0  0  0  0  0  0  0  0  0
   -1.1780   -0.7140    0.7070 N   0  0  0  0  0  0  0  0  0  0  0  0
   -2.0390   -2.3760    2.2010 C   0  0  0  0  0  0  0  0  0  0  0  0
   -2.8920   -3.1460    2.7030 O   0  0  0  0  0  0  0  0  0  0  0  0
   -0.7610   -2.3910    2.7520 O   0  0  0  0  0  0  0  0  0  0  0  0
   -4.1790   -0.5170    3.7190 H   0  0  0  0  0  0  0  0  0  0  0  0
   -5.9050   -0.6450    4.2410 H   0  0  0  0  0  0  0  0  0  0  0  0
   -5.4790    1.1520    1.5470 H   0  0  0  0  0  0  0  0  0  0  0  0
   -6.3210   -2.7600    2.2990 H   0  0  0  0  0  0  0  0  0  0  0  0
   -6.1290   -3.5500    0.1210 H   0  0  0  0  0  0  0  0  0  0  0  0
   -5.7800   -1.8960   -0.4610 H   0  0  0  0  0  0  0  0  0  0  0  0
   -4.2010   -3.6620   -1.0020 H   0  0  0  0  0  0  0  0  0  0  0  0
   -3.8400   -3.9460    0.7270 H   0  0  0  0  0  0  0  0  0  0  0  0
   -2.0810   -2.8280   -0.5360 H   0  0  0  0  0  0  0  0  0  0  0  0
   -3.1500   -1.4480   -0.9470 H   0  0  0  0  0  0  0  0  0  0  0  0
   -3.0620   -0.7160    1.4450 H   0  0  0  0  0  0  0  0  0  0  0  0
   -0.3900   -1.3190    0.3890 H   0  0  0  0  0  0  0  0  0  0  0  0
  1 11  1  0  0  0  0
  1  2  1  0  0  0  0
  2  9  1  0  0  0  0
  2 13  1  1  0  0  0
  3  2  1  0  0  0  0
  3 14  1  0  0  0  0
  4  3  1  0  0  0  0
  4  5  2  0  0  0  0
  5 16  1  0  0  0  0
  6 17  1  0  0  0  0
  6  5  1  0  0  0  0
  7  6  1  0  0  0  0
  8  7  2  0  0  0  0
  8  4  1  0  0  0  0
  9 10  2  0  0  0  0
 12  1  1  0  0  0  0
 15  3  1  0  0  0  0
 18  7  1  0  0  0  0
 19 20  1  0  0  0  0
 19  9  1  0  0  0  0
 20 23  1  0  0  0  0
 20 26  1  1  0  0  0
 21 27  1  0  0  0  0
 21 20  1  0  0  0  0
 22 21  1  0  0  0  0
 22 29  1  0  0  0  0
 23 24  2  0  0  0  0
 25 19  1  0  0  0  0
 28 21  1  0  0  0  0
 30 42  1  0  0  0  0
 30 43  1  0  0  0  0
 31 30  1  0  0  0  0
 32 44  1  0  0  0  0
 32 31  2  0  0  0  0
 33 31  1  0  0  0  0
 33 45  1  0  0  0  0
 34 33  1  0  0  0  0
 35 34  1  0  0  0  0
 35 49  1  0  0  0  0
 36 35  1  0  0  0  0
 36 37  1  0  0  0  0
 37 52  1  1  0  0  0
 37 39  1  0  0  0  0
 38 23  1  0  0  0  0
 38 37  1  0  0  0  0
 39 40  2  0  0  0  0
 39 41  1  0  0  0  0
 46 34  1  0  0  0  0
 47 34  1  0  0  0  0
 48 35  1  0  0  0  0
 50 36  1  0  0  0  0
 51 36  1  0  0  0  0
 53 38  1  0  0  0  0
M  END
$$$$
