HCT.pdb
 OpenBabel07022418363D

 44 44  0  0  1  0  0  0  0  0999 V2000
   -0.0020   -3.3660    0.1830 N   0  0  0  0  0  0  0  0  0  0  0  0
    1.3250   -2.9440    0.5850 C   0  0  1  0  0  0  0  0  0  0  0  0
    2.3450   -3.6910   -0.2510 C   0  0  0  0  0  0  0  0  0  0  0  0
    3.7390   -3.3390    0.0740 C   0  0  0  0  0  0  0  0  0  0  0  0
    4.5790   -3.9150    0.9960 C   0  0  0  0  0  0  0  0  0  0  0  0
    5.7760   -3.3150    1.0010 N   0  0  0  0  0  0  0  0  0  0  0  0
    5.7090   -2.3390    0.0710 C   0  0  0  0  0  0  0  0  0  0  0  0
    4.4870   -2.3480   -0.4900 N   0  0  0  0  0  0  0  0  0  0  0  0
    1.5070   -1.4780    0.3810 C   0  0  0  0  0  0  0  0  0  0  0  0
    2.5770   -0.8880    0.6700 O   0  0  0  0  0  0  0  0  0  0  0  0
   -0.7170   -3.1840    0.9380 H   0  0  0  0  0  0  0  0  0  0  0  0
    0.0600   -4.4210    0.0620 H   0  0  0  0  0  0  0  0  0  0  0  0
    1.4860   -3.2470    1.6400 H   0  0  0  0  0  0  0  0  0  0  0  0
    2.2060   -4.7830   -0.1890 H   0  0  0  0  0  0  0  0  0  0  0  0
    2.1660   -3.3750   -1.3150 H   0  0  0  0  0  0  0  0  0  0  0  0
    4.3090   -4.7380    1.6290 H   0  0  0  0  0  0  0  0  0  0  0  0
    6.6330   -3.4930    1.5640 H   0  0  0  0  0  0  0  0  0  0  0  0
    6.4720   -1.6290   -0.2280 H   0  0  0  0  0  0  0  0  0  0  0  0
    0.4670   -0.6620   -0.1580 N   0  0  0  0  0  0  0  0  0  0  0  0
    0.6430    0.7490   -0.3540 C   0  0  1  0  0  0  0  0  0  0  0  0
    0.4880    1.0830   -1.8240 C   0  0  0  0  0  0  0  0  0  0  0  0
    0.6940    2.8290   -2.1610 S   0  0  0  0  0  0  0  0  0  0  0  0
   -0.3410    1.5400    0.4680 C   0  0  0  0  0  0  0  0  0  0  0  0
   -0.3460    2.7960    0.4340 O   0  0  0  0  0  0  0  0  0  0  0  0
   -0.4540   -1.0720   -0.4260 H   0  0  0  0  0  0  0  0  0  0  0  0
    1.6480    1.1040   -0.0460 H   0  0  0  0  0  0  0  0  0  0  0  0
   -0.4960    0.7190   -2.2110 H   0  0  0  0  0  0  0  0  0  0  0  0
    1.2640    0.4990   -2.3600 H   0  0  0  0  0  0  0  0  0  0  0  0
    1.5010    3.4850   -1.2180 H   0  0  0  0  0  0  0  0  0  0  0  0
   -4.7120    2.0710    2.2850 C   0  0  0  0  0  0  0  0  0  0  0  0
   -3.6210    1.3200    1.5560 C   0  0  1  0  0  0  0  0  0  0  0  0
   -3.6450    1.7110    0.2260 O   0  0  0  0  0  0  0  0  0  0  0  0
   -2.2490    1.6570    2.1090 C   0  0  2  0  0  0  0  0  0  0  0  0
   -1.2900    0.9090    1.3060 N   0  0  0  0  0  0  0  0  0  0  0  0
   -2.1150    1.2520    3.5290 C   0  0  0  0  0  0  0  0  0  0  0  0
   -2.8880    1.8180    4.3640 O   0  0  0  0  0  0  0  0  0  0  0  0
   -1.1960    0.3000    3.9640 O   0  0  0  0  0  0  0  0  0  0  0  0
   -5.6430    2.0160    1.6960 H   0  0  0  0  0  0  0  0  0  0  0  0
   -4.9430    1.5830    3.2720 H   0  0  0  0  0  0  0  0  0  0  0  0
   -4.4230    3.1310    2.4750 H   0  0  0  0  0  0  0  0  0  0  0  0
   -3.8380    0.2340    1.6230 H   0  0  0  0  0  0  0  0  0  0  0  0
   -4.1360    1.0700   -0.3490 H   0  0  0  0  0  0  0  0  0  0  0  0
   -2.0880    2.7270    1.9370 H   0  0  0  0  0  0  0  0  0  0  0  0
   -1.3040   -0.1450    1.3510 H   0  0  0  0  0  0  0  0  0  0  0  0
  1  2  1  0  0  0  0
  1 11  1  0  0  0  0
  2 13  1  1  0  0  0
  3 14  1  0  0  0  0
  3  4  1  0  0  0  0
  3  2  1  0  0  0  0
  4  5  2  0  0  0  0
  5  6  1  0  0  0  0
  5 16  1  0  0  0  0
  6 17  1  0  0  0  0
  7  6  1  0  0  0  0
  8  7  2  0  0  0  0
  8  4  1  0  0  0  0
  9  2  1  0  0  0  0
  9 10  2  0  0  0  0
 12  1  1  0  0  0  0
 15  3  1  0  0  0  0
 18  7  1  0  0  0  0
 19  9  1  0  0  0  0
 20 19  1  0  0  0  0
 20 26  1  1  0  0  0
 20 23  1  0  0  0  0
 21 20  1  0  0  0  0
 22 21  1  0  0  0  0
 22 29  1  0  0  0  0
 23 34  1  0  0  0  0
 24 23  2  0  0  0  0
 25 19  1  0  0  0  0
 27 21  1  0  0  0  0
 28 21  1  0  0  0  0
 30 40  1  0  0  0  0
 30 39  1  0  0  0  0
 31 41  1  1  0  0  0
 31 33  1  0  0  0  0
 31 30  1  0  0  0  0
 32 31  1  0  0  0  0
 33 43  1  6  0  0  0
 33 35  1  0  0  0  0
 34 44  1  0  0  0  0
 34 33  1  0  0  0  0
 35 37  2  0  0  0  0
 35 36  1  0  0  0  0
 38 30  1  0  0  0  0
 42 32  1  0  0  0  0
M  END
$$$$
