HCV.pdb
 OpenBabel07022418363D

 46 46  0  0  1  0  0  0  0  0999 V2000
    1.2960   -2.8770    1.3010 N   0  0  0  0  0  0  0  0  0  0  0  0
    2.2920   -1.9180    0.8660 C   0  0  1  0  0  0  0  0  0  0  0  0
    3.2830   -2.6410   -0.0080 C   0  0  0  0  0  0  0  0  0  0  0  0
    4.3600   -1.7720   -0.5190 C   0  0  0  0  0  0  0  0  0  0  0  0
    5.5570   -1.5610    0.1320 C   0  0  0  0  0  0  0  0  0  0  0  0
    6.2800   -0.7210   -0.6290 N   0  0  0  0  0  0  0  0  0  0  0  0
    5.5630   -0.4140   -1.7200 C   0  0  0  0  0  0  0  0  0  0  0  0
    4.3720   -1.0690   -1.6480 N   0  0  0  0  0  0  0  0  0  0  0  0
    1.6670   -0.8100    0.0920 C   0  0  0  0  0  0  0  0  0  0  0  0
    2.3390    0.1360   -0.3900 O   0  0  0  0  0  0  0  0  0  0  0  0
    0.8070   -2.5810    2.1730 H   0  0  0  0  0  0  0  0  0  0  0  0
    1.7980   -3.7650    1.5250 H   0  0  0  0  0  0  0  0  0  0  0  0
    2.8250   -1.5630    1.7710 H   0  0  0  0  0  0  0  0  0  0  0  0
    2.7160   -3.0720   -0.8700 H   0  0  0  0  0  0  0  0  0  0  0  0
    3.7400   -3.4980    0.5190 H   0  0  0  0  0  0  0  0  0  0  0  0
    5.8620   -1.9900    1.0800 H   0  0  0  0  0  0  0  0  0  0  0  0
    7.2350   -0.3910   -0.3690 H   0  0  0  0  0  0  0  0  0  0  0  0
    5.8480    0.2320   -2.5280 H   0  0  0  0  0  0  0  0  0  0  0  0
    0.2610   -0.8360   -0.1020 N   0  0  0  0  0  0  0  0  0  0  0  0
   -0.4720    0.1590   -0.8240 C   0  0  1  0  0  0  0  0  0  0  0  0
   -1.1970   -0.4410   -2.0300 C   0  0  0  0  0  0  0  0  0  0  0  0
   -2.1210    0.7980   -2.9430 S   0  0  0  0  0  0  0  0  0  0  0  0
   -1.4530    0.8420    0.0780 C   0  0  0  0  0  0  0  0  0  0  0  0
   -2.2010    1.7450   -0.3620 O   0  0  0  0  0  0  0  0  0  0  0  0
   -0.2830   -1.6480    0.3160 H   0  0  0  0  0  0  0  0  0  0  0  0
    0.1860    0.9510   -1.2220 H   0  0  0  0  0  0  0  0  0  0  0  0
   -1.8610   -1.2510   -1.6760 H   0  0  0  0  0  0  0  0  0  0  0  0
   -0.4230   -0.8780   -2.6920 H   0  0  0  0  0  0  0  0  0  0  0  0
   -1.5100    2.0440   -2.9740 H   0  0  0  0  0  0  0  0  0  0  0  0
   -2.9140   -1.0110    3.6650 C   0  0  0  0  0  0  0  0  0  0  0  0
   -3.5040    0.1360    2.9070 C   0  0  0  0  0  0  0  0  0  0  0  0
   -4.3840   -0.3120    1.7660 C   0  0  0  0  0  0  0  0  0  0  0  0
   -2.4700    1.0940    2.3600 C   0  0  2  0  0  0  0  0  0  0  0  0
   -1.5530    0.4760    1.4550 N   0  0  0  0  0  0  0  0  0  0  0  0
   -1.7990    1.8640    3.4210 C   0  0  0  0  0  0  0  0  0  0  0  0
   -0.5520    1.9130    3.4460 O   0  0  0  0  0  0  0  0  0  0  0  0
   -2.5180    2.5290    4.3840 O   0  0  0  0  0  0  0  0  0  0  0  0
   -2.7320   -1.9080    3.0040 H   0  0  0  0  0  0  0  0  0  0  0  0
   -3.6340   -1.3830    4.4310 H   0  0  0  0  0  0  0  0  0  0  0  0
   -1.9940   -0.7300    4.2070 H   0  0  0  0  0  0  0  0  0  0  0  0
   -4.1490    0.7090    3.6090 H   0  0  0  0  0  0  0  0  0  0  0  0
   -5.0390    0.5490    1.5020 H   0  0  0  0  0  0  0  0  0  0  0  0
   -5.0840   -1.1170    2.1230 H   0  0  0  0  0  0  0  0  0  0  0  0
   -3.8170   -0.6770    0.9000 H   0  0  0  0  0  0  0  0  0  0  0  0
   -3.0540    1.8540    1.7600 H   0  0  0  0  0  0  0  0  0  0  0  0
   -0.8880   -0.2960    1.7580 H   0  0  0  0  0  0  0  0  0  0  0  0
  1 12  1  0  0  0  0
  1 11  1  0  0  0  0
  2  1  1  0  0  0  0
  2 13  1  1  0  0  0
  3 15  1  0  0  0  0
  3  2  1  0  0  0  0
  4  3  1  0  0  0  0
  4  5  2  0  0  0  0
  5 16  1  0  0  0  0
  6 17  1  0  0  0  0
  6  5  1  0  0  0  0
  7  8  2  0  0  0  0
  7  6  1  0  0  0  0
  8  4  1  0  0  0  0
  9  2  1  0  0  0  0
 10  9  2  0  0  0  0
 14  3  1  0  0  0  0
 18  7  1  0  0  0  0
 19  9  1  0  0  0  0
 19 25  1  0  0  0  0
 20 26  1  6  0  0  0
 20 19  1  0  0  0  0
 20 23  1  0  0  0  0
 21 27  1  0  0  0  0
 21 20  1  0  0  0  0
 22 21  1  0  0  0  0
 23 34  1  0  0  0  0
 24 23  2  0  0  0  0
 28 21  1  0  0  0  0
 29 22  1  0  0  0  0
 30 40  1  0  0  0  0
 30 39  1  0  0  0  0
 31 41  1  0  0  0  0
 31 30  1  0  0  0  0
 32 43  1  0  0  0  0
 32 31  1  0  0  0  0
 33 45  1  6  0  0  0
 33 31  1  0  0  0  0
 33 35  1  0  0  0  0
 34 46  1  0  0  0  0
 34 33  1  0  0  0  0
 35 36  2  0  0  0  0
 35 37  1  0  0  0  0
 38 30  1  0  0  0  0
 42 32  1  0  0  0  0
 44 32  1  0  0  0  0
M  END
$$$$
