HDD.pdb
 OpenBabel07022418353D

 45 45  0  0  1  0  0  0  0  0999 V2000
    3.9480   -0.8170   -1.3780 N   0  0  0  0  0  0  0  0  0  0  0  0
    2.6720   -1.3300   -0.8810 C   0  0  1  0  0  0  0  0  0  0  0  0
    2.8730   -1.9920    0.4370 C   0  0  0  0  0  0  0  0  0  0  0  0
    3.4360   -1.1190    1.4860 C   0  0  0  0  0  0  0  0  0  0  0  0
    2.7230   -0.3520    2.3660 C   0  0  0  0  0  0  0  0  0  0  0  0
    3.5640    0.3090    3.1780 N   0  0  0  0  0  0  0  0  0  0  0  0
    4.8070   -0.0410    2.8110 C   0  0  0  0  0  0  0  0  0  0  0  0
    4.7320   -0.9170    1.7730 N   0  0  0  0  0  0  0  0  0  0  0  0
    1.5780   -0.3710   -0.9840 C   0  0  0  0  0  0  0  0  0  0  0  0
    1.8790    0.8160   -1.2840 O   0  0  0  0  0  0  0  0  0  0  0  0
    3.8640   -0.7720   -2.4220 H   0  0  0  0  0  0  0  0  0  0  0  0
    4.6840   -1.5000   -1.1580 H   0  0  0  0  0  0  0  0  0  0  0  0
    2.4140   -2.1680   -1.6050 H   0  0  0  0  0  0  0  0  0  0  0  0
    1.9220   -2.4770    0.7600 H   0  0  0  0  0  0  0  0  0  0  0  0
    3.5710   -2.8620    0.2510 H   0  0  0  0  0  0  0  0  0  0  0  0
    1.6510   -0.2850    2.4070 H   0  0  0  0  0  0  0  0  0  0  0  0
    3.2650    0.9680    3.9450 H   0  0  0  0  0  0  0  0  0  0  0  0
    5.7300    0.3260    3.2770 H   0  0  0  0  0  0  0  0  0  0  0  0
    0.2140   -0.6620   -0.7820 N   0  0  0  0  0  0  0  0  0  0  0  0
   -0.8840    0.2300   -0.8900 C   0  0  1  0  0  0  0  0  0  0  0  0
   -1.8930   -0.1630   -1.9450 C   0  0  0  0  0  0  0  0  0  0  0  0
   -1.3010   -0.2220   -3.2770 C   0  0  0  0  0  0  0  0  0  0  0  0
   -0.0890    0.0330   -3.4720 O   0  0  0  0  0  0  0  0  0  0  0  0
   -1.6310    0.4880    0.3640 C   0  0  0  0  0  0  0  0  0  0  0  0
   -2.5990    1.2870    0.2870 O   0  0  0  0  0  0  0  0  0  0  0  0
   -2.0270   -0.5620   -4.4240 O   0  0  0  0  0  0  0  0  0  0  0  0
   -0.0040   -1.6700   -0.5190 H   0  0  0  0  0  0  0  0  0  0  0  0
   -0.4850    1.2340   -1.2020 H   0  0  0  0  0  0  0  0  0  0  0  0
   -2.6570    0.6700   -1.9550 H   0  0  0  0  0  0  0  0  0  0  0  0
   -2.4660   -1.0680   -1.6630 H   0  0  0  0  0  0  0  0  0  0  0  0
   -1.7620   -0.1250   -5.3000 H   0  0  0  0  0  0  0  0  0  0  0  0
   -1.3450   -0.0890    1.6210 N   0  0  0  0  0  0  0  0  0  0  0  0
   -2.1410    0.2170    2.8130 C   0  0  1  0  0  0  0  0  0  0  0  0
   -2.5740   -1.0700    3.4230 C   0  0  0  0  0  0  0  0  0  0  0  0
   -3.3980   -1.8840    2.4920 C   0  0  0  0  0  0  0  0  0  0  0  0
   -3.6580   -1.4610    1.3320 O   0  0  0  0  0  0  0  0  0  0  0  0
   -1.3870    1.0180    3.8070 C   0  0  0  0  0  0  0  0  0  0  0  0
   -1.9760    1.3170    4.8680 O   0  0  0  0  0  0  0  0  0  0  0  0
   -3.9000   -3.1200    2.8710 O   0  0  0  0  0  0  0  0  0  0  0  0
   -0.0990    1.4270    3.5980 O   0  0  0  0  0  0  0  0  0  0  0  0
   -0.5400   -0.7490    1.6560 H   0  0  0  0  0  0  0  0  0  0  0  0
   -2.9730    0.8700    2.4740 H   0  0  0  0  0  0  0  0  0  0  0  0
   -3.1030   -0.8920    4.3880 H   0  0  0  0  0  0  0  0  0  0  0  0
   -1.6610   -1.6460    3.6790 H   0  0  0  0  0  0  0  0  0  0  0  0
   -4.6380   -3.5160    2.3030 H   0  0  0  0  0  0  0  0  0  0  0  0
  1 12  1  0  0  0  0
  1  2  1  0  0  0  0
  2 13  1  6  0  0  0
  2  3  1  0  0  0  0
  3 14  1  0  0  0  0
  3  4  1  0  0  0  0
  4  8  1  0  0  0  0
  4  5  2  0  0  0  0
  5 16  1  0  0  0  0
  5  6  1  0  0  0  0
  6 17  1  0  0  0  0
  7  6  1  0  0  0  0
  7 18  1  0  0  0  0
  8  7  2  0  0  0  0
  9  2  1  0  0  0  0
  9 19  1  0  0  0  0
 10  9  2  0  0  0  0
 11  1  1  0  0  0  0
 15  3  1  0  0  0  0
 19 27  1  0  0  0  0
 20 28  1  6  0  0  0
 20 19  1  0  0  0  0
 20 24  1  0  0  0  0
 21 30  1  0  0  0  0
 21 20  1  0  0  0  0
 22 21  1  0  0  0  0
 23 22  2  0  0  0  0
 24 32  1  0  0  0  0
 25 24  2  0  0  0  0
 26 22  1  0  0  0  0
 29 21  1  0  0  0  0
 31 26  1  0  0  0  0
 32 41  1  0  0  0  0
 32 33  1  0  0  0  0
 33 42  1  6  0  0  0
 33 34  1  0  0  0  0
 33 37  1  0  0  0  0
 34 44  1  0  0  0  0
 34 43  1  0  0  0  0
 35 39  1  0  0  0  0
 35 34  1  0  0  0  0
 36 35  2  0  0  0  0
 37 38  1  0  0  0  0
 40 37  2  0  0  0  0
 45 39  1  0  0  0  0
M  END
$$$$
