HDE.pdb
 OpenBabel07022418353D

 48 48  0  0  1  0  0  0  0  0999 V2000
    3.3780   -1.4180   -1.3430 N   0  0  0  0  0  0  0  0  0  0  0  0
    2.2920   -1.5530   -0.4300 C   0  0  1  0  0  0  0  0  0  0  0  0
    2.7370   -2.2700    0.8240 C   0  0  0  0  0  0  0  0  0  0  0  0
    3.8370   -1.5300    1.5240 C   0  0  0  0  0  0  0  0  0  0  0  0
    3.6870   -0.5680    2.4960 C   0  0  0  0  0  0  0  0  0  0  0  0
    4.8930   -0.1620    2.8590 N   0  0  0  0  0  0  0  0  0  0  0  0
    5.7920   -0.8420    2.1430 C   0  0  0  0  0  0  0  0  0  0  0  0
    5.1510   -1.6760    1.3290 N   0  0  0  0  0  0  0  0  0  0  0  0
    1.6640   -0.2260   -0.1300 C   0  0  0  0  0  0  0  0  0  0  0  0
    2.1950    0.7520   -0.6610 O   0  0  0  0  0  0  0  0  0  0  0  0
    4.2370   -1.9300   -1.1150 H   0  0  0  0  0  0  0  0  0  0  0  0
    3.0780   -1.5950   -2.3440 H   0  0  0  0  0  0  0  0  0  0  0  0
    1.4910   -2.1770   -0.8800 H   0  0  0  0  0  0  0  0  0  0  0  0
    1.9050   -2.4860    1.4920 H   0  0  0  0  0  0  0  0  0  0  0  0
    3.1700   -3.2350    0.4890 H   0  0  0  0  0  0  0  0  0  0  0  0
    2.7570   -0.1800    2.9200 H   0  0  0  0  0  0  0  0  0  0  0  0
    5.0770    0.5700    3.5880 H   0  0  0  0  0  0  0  0  0  0  0  0
    6.8790   -0.6930    2.2530 H   0  0  0  0  0  0  0  0  0  0  0  0
    0.5380   -0.1040    0.7050 N   0  0  0  0  0  0  0  0  0  0  0  0
   -0.1960    1.0130    1.1410 C   0  0  1  0  0  0  0  0  0  0  0  0
    0.0720    2.3500    0.4850 C   0  0  0  0  0  0  0  0  0  0  0  0
    1.4400    2.7900    0.7940 C   0  0  0  0  0  0  0  0  0  0  0  0
    2.0130    3.6910    0.0830 O   0  0  0  0  0  0  0  0  0  0  0  0
   -1.6160    0.7850    1.3950 C   0  0  0  0  0  0  0  0  0  0  0  0
   -2.3630    1.6980    1.8450 O   0  0  0  0  0  0  0  0  0  0  0  0
    2.2070    2.2930    1.8460 O   0  0  0  0  0  0  0  0  0  0  0  0
    0.2180   -1.0890    1.0690 H   0  0  0  0  0  0  0  0  0  0  0  0
    0.2730    1.2450    2.2040 H   0  0  0  0  0  0  0  0  0  0  0  0
   -0.0680    2.2380   -0.6170 H   0  0  0  0  0  0  0  0  0  0  0  0
   -0.6870    3.0510    0.8830 H   0  0  0  0  0  0  0  0  0  0  0  0
    3.1850    2.5620    1.9760 H   0  0  0  0  0  0  0  0  0  0  0  0
   -2.2070   -0.4720    1.1410 N   0  0  0  0  0  0  0  0  0  0  0  0
   -3.6310   -0.6660    1.4060 C   0  0  1  0  0  0  0  0  0  0  0  0
   -4.3150   -0.9470    0.1000 C   0  0  0  0  0  0  0  0  0  0  0  0
   -3.7580   -2.1810   -0.5400 C   0  0  0  0  0  0  0  0  0  0  0  0
   -4.4400   -2.4610   -1.8330 C   0  0  0  0  0  0  0  0  0  0  0  0
   -5.5630   -3.0120   -1.7990 O   0  0  0  0  0  0  0  0  0  0  0  0
   -3.8260   -1.7550    2.3670 C   0  0  0  0  0  0  0  0  0  0  0  0
   -4.9670   -2.1210    2.7570 O   0  0  0  0  0  0  0  0  0  0  0  0
   -3.8860   -2.1390   -3.0520 O   0  0  0  0  0  0  0  0  0  0  0  0
   -2.7410   -2.4420    2.8980 O   0  0  0  0  0  0  0  0  0  0  0  0
   -1.6960   -1.3050    0.7680 H   0  0  0  0  0  0  0  0  0  0  0  0
   -4.0460    0.2740    1.8710 H   0  0  0  0  0  0  0  0  0  0  0  0
   -5.4020   -1.1470    0.3300 H   0  0  0  0  0  0  0  0  0  0  0  0
   -4.3210   -0.0750   -0.5760 H   0  0  0  0  0  0  0  0  0  0  0  0
   -3.9640   -3.0860    0.0940 H   0  0  0  0  0  0  0  0  0  0  0  0
   -2.6740   -2.1180   -0.7790 H   0  0  0  0  0  0  0  0  0  0  0  0
   -4.3100   -2.3570   -3.9320 H   0  0  0  0  0  0  0  0  0  0  0  0
  1 11  1  0  0  0  0
  1  2  1  0  0  0  0
  2 13  1  6  0  0  0
  2  9  1  0  0  0  0
  2  3  1  0  0  0  0
  3 14  1  0  0  0  0
  3  4  1  0  0  0  0
  4  5  2  0  0  0  0
  5  6  1  0  0  0  0
  5 16  1  0  0  0  0
  6 17  1  0  0  0  0
  7 18  1  0  0  0  0
  7  6  1  0  0  0  0
  8  4  1  0  0  0  0
  8  7  2  0  0  0  0
  9 19  1  0  0  0  0
 10  9  2  0  0  0  0
 12  1  1  0  0  0  0
 15  3  1  0  0  0  0
 19 27  1  0  0  0  0
 19 20  1  0  0  0  0
 20 24  1  0  0  0  0
 20 28  1  1  0  0  0
 21 22  1  0  0  0  0
 21 30  1  0  0  0  0
 21 20  1  0  0  0  0
 22 26  1  0  0  0  0
 23 22  2  0  0  0  0
 24 25  2  0  0  0  0
 26 31  1  0  0  0  0
 29 21  1  0  0  0  0
 32 24  1  0  0  0  0
 32 33  1  0  0  0  0
 33 43  1  1  0  0  0
 33 38  1  0  0  0  0
 34 44  1  0  0  0  0
 34 33  1  0  0  0  0
 35 46  1  0  0  0  0
 35 34  1  0  0  0  0
 36 37  2  0  0  0  0
 36 35  1  0  0  0  0
 38 39  2  0  0  0  0
 38 41  1  0  0  0  0
 40 36  1  0  0  0  0
 42 32  1  0  0  0  0
 45 34  1  0  0  0  0
 47 35  1  0  0  0  0
 48 40  1  0  0  0  0
M  END
$$$$
