HDK.pdb
 OpenBabel07022418353D

 53 53  0  0  1  0  0  0  0  0999 V2000
    3.5980   -1.5030    3.5840 N   0  0  0  0  0  0  0  0  0  0  0  0
    2.2690   -1.1330    3.1450 C   0  0  1  0  0  0  0  0  0  0  0  0
    1.8180    0.1090    3.8430 C   0  0  0  0  0  0  0  0  0  0  0  0
    2.7080    1.2240    3.5500 C   0  0  0  0  0  0  0  0  0  0  0  0
    2.5450    2.5240    4.0650 C   0  0  0  0  0  0  0  0  0  0  0  0
    3.5450    3.2640    3.5750 N   0  0  0  0  0  0  0  0  0  0  0  0
    4.3480    2.5180    2.7730 C   0  0  0  0  0  0  0  0  0  0  0  0
    3.8040    1.3070    2.7890 N   0  0  0  0  0  0  0  0  0  0  0  0
    2.3220   -0.9730    1.6420 C   0  0  0  0  0  0  0  0  0  0  0  0
    3.3470   -1.3110    1.0150 O   0  0  0  0  0  0  0  0  0  0  0  0
    3.5830   -2.3960    4.1530 H   0  0  0  0  0  0  0  0  0  0  0  0
    4.2170   -1.6400    2.7810 H   0  0  0  0  0  0  0  0  0  0  0  0
    1.5500   -1.9390    3.4420 H   0  0  0  0  0  0  0  0  0  0  0  0
    0.7330    0.3240    3.7110 H   0  0  0  0  0  0  0  0  0  0  0  0
    1.8940   -0.1170    4.9560 H   0  0  0  0  0  0  0  0  0  0  0  0
    1.7440    2.8100    4.7320 H   0  0  0  0  0  0  0  0  0  0  0  0
    3.7090    4.2900    3.7700 H   0  0  0  0  0  0  0  0  0  0  0  0
    5.2130    2.8700    2.2600 H   0  0  0  0  0  0  0  0  0  0  0  0
    1.2090   -0.4440    0.9410 N   0  0  0  0  0  0  0  0  0  0  0  0
    1.0500   -0.1870   -0.4420 C   0  0  1  0  0  0  0  0  0  0  0  0
    2.1600   -0.6230   -1.3810 C   0  0  0  0  0  0  0  0  0  0  0  0
    3.3780    0.1610   -1.1080 C   0  0  0  0  0  0  0  0  0  0  0  0
    3.2960    1.1990   -0.3800 O   0  0  0  0  0  0  0  0  0  0  0  0
   -0.2680   -0.2920   -1.0280 C   0  0  0  0  0  0  0  0  0  0  0  0
   -0.3540   -0.2180   -2.2980 O   0  0  0  0  0  0  0  0  0  0  0  0
    4.6140   -0.1810   -1.6100 O   0  0  0  0  0  0  0  0  0  0  0  0
    0.3690   -0.2110    1.5950 H   0  0  0  0  0  0  0  0  0  0  0  0
    1.2890    1.0010   -0.4920 H   0  0  0  0  0  0  0  0  0  0  0  0
    2.3190   -1.7100   -1.3850 H   0  0  0  0  0  0  0  0  0  0  0  0
    1.8100   -0.2770   -2.4020 H   0  0  0  0  0  0  0  0  0  0  0  0
    5.5000    0.1360   -1.1860 H   0  0  0  0  0  0  0  0  0  0  0  0
   -1.4490   -0.4630   -0.3080 N   0  0  0  0  0  0  0  0  0  0  0  0
   -2.7560   -0.5660   -0.9440 C   0  0  1  0  0  0  0  0  0  0  0  0
   -3.6690   -1.4560   -0.1980 C   0  0  0  0  0  0  0  0  0  0  0  0
   -3.2650   -2.8740   -0.0080 C   0  0  0  0  0  0  0  0  0  0  0  0
   -3.0320   -3.6860   -1.2300 C   0  0  0  0  0  0  0  0  0  0  0  0
   -4.2380   -3.7770   -2.1360 C   0  0  0  0  0  0  0  0  0  0  0  0
   -5.3840   -4.3470   -1.4920 N   0  0  0  0  0  0  0  0  0  0  0  0
   -3.3780    0.7990   -1.0580 C   0  0  0  0  0  0  0  0  0  0  0  0
   -2.8000    1.8010   -0.5850 O   0  0  0  0  0  0  0  0  0  0  0  0
   -4.5880    0.9590   -1.6890 O   0  0  0  0  0  0  0  0  0  0  0  0
   -1.4420   -0.5220    0.7280 H   0  0  0  0  0  0  0  0  0  0  0  0
   -2.5780   -0.9430   -1.9710 H   0  0  0  0  0  0  0  0  0  0  0  0
   -3.7280   -1.0220    0.8690 H   0  0  0  0  0  0  0  0  0  0  0  0
   -4.7160   -1.3380   -0.5480 H   0  0  0  0  0  0  0  0  0  0  0  0
   -2.3450   -2.8700    0.6190 H   0  0  0  0  0  0  0  0  0  0  0  0
   -4.0860   -3.3730    0.5700 H   0  0  0  0  0  0  0  0  0  0  0  0
   -2.1500   -3.4220   -1.8310 H   0  0  0  0  0  0  0  0  0  0  0  0
   -2.8520   -4.7500   -0.8760 H   0  0  0  0  0  0  0  0  0  0  0  0
   -3.9630   -4.4270   -3.0070 H   0  0  0  0  0  0  0  0  0  0  0  0
   -4.4690   -2.7910   -2.5460 H   0  0  0  0  0  0  0  0  0  0  0  0
   -5.7140   -5.1840   -1.9890 H   0  0  0  0  0  0  0  0  0  0  0  0
   -6.1260   -3.6360   -1.2720 H   0  0  0  0  0  0  0  0  0  0  0  0
  1 11  1  0  0  0  0
  2 13  1  1  0  0  0
  2  1  1  0  0  0  0
  2  3  1  0  0  0  0
  3 15  1  0  0  0  0
  4  3  1  0  0  0  0
  4  5  2  0  0  0  0
  5 16  1  0  0  0  0
  6 17  1  0  0  0  0
  6  5  1  0  0  0  0
  7  8  2  0  0  0  0
  7  6  1  0  0  0  0
  8  4  1  0  0  0  0
  9  2  1  0  0  0  0
 10  9  2  0  0  0  0
 12  1  1  0  0  0  0
 14  3  1  0  0  0  0
 18  7  1  0  0  0  0
 19 27  1  0  0  0  0
 19  9  1  0  0  0  0
 20 28  1  6  0  0  0
 20 19  1  0  0  0  0
 21 22  1  0  0  0  0
 21 20  1  0  0  0  0
 22 23  2  0  0  0  0
 24 20  1  0  0  0  0
 24 32  1  0  0  0  0
 25 24  2  0  0  0  0
 26 31  1  0  0  0  0
 26 22  1  0  0  0  0
 29 21  1  0  0  0  0
 30 21  1  0  0  0  0
 32 42  1  0  0  0  0
 33 43  1  6  0  0  0
 33 32  1  0  0  0  0
 33 34  1  0  0  0  0
 34 35  1  0  0  0  0
 34 44  1  0  0  0  0
 35 47  1  0  0  0  0
 35 46  1  0  0  0  0
 36 49  1  0  0  0  0
 36 35  1  0  0  0  0
 37 38  1  0  0  0  0
 37 36  1  0  0  0  0
 38 53  1  0  0  0  0
 39 33  1  0  0  0  0
 39 40  1  0  0  0  0
 41 39  2  0  0  0  0
 45 34  1  0  0  0  0
 48 36  1  0  0  0  0
 50 37  1  0  0  0  0
 51 37  1  0  0  0  0
 52 38  1  0  0  0  0
M  END
$$$$
