HDN.pdb
 OpenBabel07022418353D

 46 46  0  0  1  0  0  0  0  0999 V2000
    1.3450   -1.2930   -1.3190 N   0  0  0  0  0  0  0  0  0  0  0  0
    2.1760   -1.1760   -0.1780 C   0  0  1  0  0  0  0  0  0  0  0  0
    3.5560   -0.7920   -0.6090 C   0  0  0  0  0  0  0  0  0  0  0  0
    4.5030   -0.6450    0.5160 C   0  0  0  0  0  0  0  0  0  0  0  0
    4.7580    0.5120    1.2240 C   0  0  0  0  0  0  0  0  0  0  0  0
    5.6740    0.2550    2.1630 N   0  0  0  0  0  0  0  0  0  0  0  0
    5.9820   -1.0460    2.0370 C   0  0  0  0  0  0  0  0  0  0  0  0
    5.2810   -1.6080    1.0430 N   0  0  0  0  0  0  0  0  0  0  0  0
    1.5990   -0.2750    0.8520 C   0  0  0  0  0  0  0  0  0  0  0  0
    2.1530   -0.0230    1.9500 O   0  0  0  0  0  0  0  0  0  0  0  0
    1.2670   -2.2170   -1.7500 H   0  0  0  0  0  0  0  0  0  0  0  0
    1.2600   -0.4810   -1.9250 H   0  0  0  0  0  0  0  0  0  0  0  0
    2.2440   -2.1860    0.3030 H   0  0  0  0  0  0  0  0  0  0  0  0
    3.9400   -1.6380   -1.2370 H   0  0  0  0  0  0  0  0  0  0  0  0
    3.5710    0.0930   -1.2780 H   0  0  0  0  0  0  0  0  0  0  0  0
    4.2950    1.4860    1.0550 H   0  0  0  0  0  0  0  0  0  0  0  0
    6.0980    0.9100    2.8790 H   0  0  0  0  0  0  0  0  0  0  0  0
    6.7070   -1.5820    2.6600 H   0  0  0  0  0  0  0  0  0  0  0  0
    0.3510    0.3330    0.5720 N   0  0  0  0  0  0  0  0  0  0  0  0
   -0.2880    1.2160    1.4980 C   0  0  1  0  0  0  0  0  0  0  0  0
   -0.5090    2.6000    0.9820 C   0  0  0  0  0  0  0  0  0  0  0  0
   -1.3480    2.6750   -0.2150 C   0  0  0  0  0  0  0  0  0  0  0  0
   -1.5620    3.8290   -0.6980 O   0  0  0  0  0  0  0  0  0  0  0  0
   -1.5690    0.6250    1.9970 C   0  0  0  0  0  0  0  0  0  0  0  0
   -2.2520    1.2830    2.8230 O   0  0  0  0  0  0  0  0  0  0  0  0
   -1.9180    1.6140   -0.8560 O   0  0  0  0  0  0  0  0  0  0  0  0
   -0.1670    0.1580   -0.3410 H   0  0  0  0  0  0  0  0  0  0  0  0
    0.3650    1.3010    2.3980 H   0  0  0  0  0  0  0  0  0  0  0  0
   -1.0140    3.1800    1.7860 H   0  0  0  0  0  0  0  0  0  0  0  0
    0.4670    3.1010    0.8180 H   0  0  0  0  0  0  0  0  0  0  0  0
   -1.9960    1.5950   -1.8630 H   0  0  0  0  0  0  0  0  0  0  0  0
   -2.6320   -3.0100   -0.1570 N   0  0  0  0  0  0  0  0  0  0  0  0
   -3.8440   -2.3070   -0.0740 C   0  0  0  0  0  0  0  0  0  0  0  0
   -4.6750   -2.4840   -1.0220 O   0  0  0  0  0  0  0  0  0  0  0  0
   -4.2660   -1.3880    0.9830 C   0  0  0  0  0  0  0  0  0  0  0  0
   -3.2850   -1.1780    2.0840 C   0  0  2  0  0  0  0  0  0  0  0  0
   -2.0510   -0.6390    1.5850 N   0  0  0  0  0  0  0  0  0  0  0  0
   -3.0500   -2.4280    2.8430 C   0  0  0  0  0  0  0  0  0  0  0  0
   -3.9740   -3.0730    3.3660 O   0  0  0  0  0  0  0  0  0  0  0  0
   -1.7530   -2.9410    3.0060 O   0  0  0  0  0  0  0  0  0  0  0  0
   -1.8630   -2.8000   -0.8490 H   0  0  0  0  0  0  0  0  0  0  0  0
   -2.4350   -3.8030    0.4880 H   0  0  0  0  0  0  0  0  0  0  0  0
   -4.4340   -0.3860    0.4950 H   0  0  0  0  0  0  0  0  0  0  0  0
   -5.2600   -1.6910    1.3850 H   0  0  0  0  0  0  0  0  0  0  0  0
   -3.7730   -0.4710    2.8150 H   0  0  0  0  0  0  0  0  0  0  0  0
   -1.5080   -1.2040    0.9050 H   0  0  0  0  0  0  0  0  0  0  0  0
  1  2  1  0  0  0  0
  2 13  1  1  0  0  0
  2  9  1  0  0  0  0
  3  2  1  0  0  0  0
  3  4  1  0  0  0  0
  4  8  1  0  0  0  0
  4  5  2  0  0  0  0
  5  6  1  0  0  0  0
  6 17  1  0  0  0  0
  7  6  1  0  0  0  0
  7 18  1  0  0  0  0
  8  7  2  0  0  0  0
  9 10  2  0  0  0  0
 11  1  1  0  0  0  0
 12  1  1  0  0  0  0
 14  3  1  0  0  0  0
 15  3  1  0  0  0  0
 16  5  1  0  0  0  0
 19  9  1  0  0  0  0
 19 20  1  0  0  0  0
 20 24  1  0  0  0  0
 20 28  1  1  0  0  0
 21 20  1  0  0  0  0
 21 29  1  0  0  0  0
 22 21  1  0  0  0  0
 23 22  2  0  0  0  0
 24 25  2  0  0  0  0
 26 22  1  0  0  0  0
 27 19  1  0  0  0  0
 30 21  1  0  0  0  0
 31 26  1  0  0  0  0
 32 33  1  0  0  0  0
 32 42  1  0  0  0  0
 33 35  1  0  0  0  0
 34 33  2  0  0  0  0
 35 44  1  0  0  0  0
 35 36  1  0  0  0  0
 36 45  1  1  0  0  0
 36 38  1  0  0  0  0
 37 24  1  0  0  0  0
 37 36  1  0  0  0  0
 38 40  2  0  0  0  0
 38 39  1  0  0  0  0
 41 32  1  0  0  0  0
 43 35  1  0  0  0  0
 46 37  1  0  0  0  0
M  END
$$$$
