HDP.pdb
 OpenBabel07022418353D

 46 47  0  0  1  0  0  0  0  0999 V2000
    1.8460   -2.3720    2.7710 N   0  0  0  0  0  0  0  0  0  0  0  0
    2.5290   -1.7240    1.6260 C   0  0  1  0  0  0  0  0  0  0  0  0
    2.3780   -2.6080    0.4190 C   0  0  0  0  0  0  0  0  0  0  0  0
    3.0710   -2.0330   -0.7470 C   0  0  0  0  0  0  0  0  0  0  0  0
    3.0930   -2.6240   -2.0320 C   0  0  0  0  0  0  0  0  0  0  0  0
    3.7990   -1.8700   -2.8810 N   0  0  0  0  0  0  0  0  0  0  0  0
    4.2390   -0.8020   -2.1830 C   0  0  0  0  0  0  0  0  0  0  0  0
    3.7950   -0.9200   -0.9200 N   0  0  0  0  0  0  0  0  0  0  0  0
    1.8360   -0.3920    1.4470 C   0  0  0  0  0  0  0  0  0  0  0  0
    2.3700    0.4230    0.6940 O   0  0  0  0  0  0  0  0  0  0  0  0
    2.3440   -3.2800    2.9050 H   0  0  0  0  0  0  0  0  0  0  0  0
    1.9530   -1.7340    3.5850 H   0  0  0  0  0  0  0  0  0  0  0  0
    3.5890   -1.6250    1.8720 H   0  0  0  0  0  0  0  0  0  0  0  0
    1.3070   -2.7680    0.1540 H   0  0  0  0  0  0  0  0  0  0  0  0
    2.8710   -3.5780    0.6880 H   0  0  0  0  0  0  0  0  0  0  0  0
    2.5980   -3.5620   -2.2750 H   0  0  0  0  0  0  0  0  0  0  0  0
    3.9660   -2.0890   -3.8990 H   0  0  0  0  0  0  0  0  0  0  0  0
    4.8400   -0.0230   -2.6230 H   0  0  0  0  0  0  0  0  0  0  0  0
    0.6190   -0.0790    2.1110 N   0  0  0  0  0  0  0  0  0  0  0  0
   -0.1310    1.1120    2.0570 C   0  0  1  0  0  0  0  0  0  0  0  0
    0.5970    2.2560    1.2770 C   0  0  0  0  0  0  0  0  0  0  0  0
    1.8540    2.6280    1.9600 C   0  0  0  0  0  0  0  0  0  0  0  0
    2.6950    3.3870    1.4490 O   0  0  0  0  0  0  0  0  0  0  0  0
   -1.5240    1.0450    1.5920 C   0  0  0  0  0  0  0  0  0  0  0  0
   -2.1280    2.1920    1.8350 O   0  0  0  0  0  0  0  0  0  0  0  0
    2.0990    2.1090    3.2230 O   0  0  0  0  0  0  0  0  0  0  0  0
    0.2890   -0.8890    2.7550 H   0  0  0  0  0  0  0  0  0  0  0  0
   -0.0280    1.5750    3.1110 H   0  0  0  0  0  0  0  0  0  0  0  0
   -0.1460    3.1010    1.3250 H   0  0  0  0  0  0  0  0  0  0  0  0
    0.7300    1.9730    0.2260 H   0  0  0  0  0  0  0  0  0  0  0  0
    2.8940    2.4180    3.7590 H   0  0  0  0  0  0  0  0  0  0  0  0
   -2.2140    0.0140    0.9810 N   0  0  0  0  0  0  0  0  0  0  0  0
   -1.7100   -1.2940    0.6130 C   0  0  0  0  0  0  0  0  0  0  0  0
   -2.7690   -2.1730    1.3080 C   0  0  0  0  0  0  0  0  0  0  0  0
   -3.9780   -1.2480    1.5260 C   0  0  0  0  0  0  0  0  0  0  0  0
   -3.5630   -0.1060    0.5520 C   0  0  1  0  0  0  0  0  0  0  0  0
   -4.4730    0.9920    0.5270 C   0  0  0  0  0  0  0  0  0  0  0  0
   -4.2410    2.1920    0.7140 O   0  0  0  0  0  0  0  0  0  0  0  0
   -5.8310    0.7000    0.2550 O   0  0  0  0  0  0  0  0  0  0  0  0
   -1.9370   -1.4600   -0.5000 H   0  0  0  0  0  0  0  0  0  0  0  0
   -0.7080   -1.5440    0.8550 H   0  0  0  0  0  0  0  0  0  0  0  0
   -2.3690   -2.5130    2.2820 H   0  0  0  0  0  0  0  0  0  0  0  0
   -3.0560   -3.0170    0.6760 H   0  0  0  0  0  0  0  0  0  0  0  0
   -4.9210   -1.6960    1.2320 H   0  0  0  0  0  0  0  0  0  0  0  0
   -3.9420   -0.7850    2.5270 H   0  0  0  0  0  0  0  0  0  0  0  0
   -3.5260   -0.6420   -0.4650 H   0  0  0  0  0  0  0  0  0  0  0  0
  1 11  1  0  0  0  0
  1 12  1  0  0  0  0
  2 13  1  1  0  0  0
  2  1  1  0  0  0  0
  3 15  1  0  0  0  0
  3  2  1  0  0  0  0
  4  3  1  0  0  0  0
  5  4  2  0  0  0  0
  6  7  1  0  0  0  0
  6  5  1  0  0  0  0
  7  8  2  0  0  0  0
  8  4  1  0  0  0  0
  9  2  1  0  0  0  0
  9 19  1  0  0  0  0
 10  9  2  0  0  0  0
 14  3  1  0  0  0  0
 16  5  1  0  0  0  0
 17  6  1  0  0  0  0
 18  7  1  0  0  0  0
 19 27  1  0  0  0  0
 20 19  1  0  0  0  0
 20 28  1  1  0  0  0
 21 29  1  0  0  0  0
 21 22  1  0  0  0  0
 21 20  1  0  0  0  0
 22 26  1  0  0  0  0
 23 22  2  0  0  0  0
 24 25  2  0  0  0  0
 24 20  1  0  0  0  0
 26 31  1  0  0  0  0
 30 21  1  0  0  0  0
 32 24  1  0  0  0  0
 33 41  1  0  0  0  0
 33 32  1  0  0  0  0
 33 34  1  0  0  0  0
 34 35  1  0  0  0  0
 34 42  1  0  0  0  0
 35 45  1  0  0  0  0
 36 46  1  6  0  0  0
 36 32  1  0  0  0  0
 36 35  1  0  0  0  0
 37 36  1  0  0  0  0
 37 38  1  0  0  0  0
 39 37  2  0  0  0  0
 40 33  1  0  0  0  0
 43 34  1  0  0  0  0
 44 35  1  0  0  0  0
M  END
$$$$
