HDQ.pdb
 OpenBabel07022418353D

 49 49  0  0  1  0  0  0  0  0999 V2000
    3.3120   -1.1800    2.7420 N   0  0  0  0  0  0  0  0  0  0  0  0
    3.5760   -0.1130    1.8050 C   0  0  1  0  0  0  0  0  0  0  0  0
    4.5150   -0.6480    0.7460 C   0  0  0  0  0  0  0  0  0  0  0  0
    5.7540   -1.0740    1.4580 C   0  0  0  0  0  0  0  0  0  0  0  0
    6.8710   -0.2720    1.7120 C   0  0  0  0  0  0  0  0  0  0  0  0
    7.7880   -0.9910    2.3710 N   0  0  0  0  0  0  0  0  0  0  0  0
    7.3050   -2.2260    2.5520 C   0  0  0  0  0  0  0  0  0  0  0  0
    6.0620   -2.2680    1.9920 N   0  0  0  0  0  0  0  0  0  0  0  0
    2.2780    0.3160    1.1200 C   0  0  0  0  0  0  0  0  0  0  0  0
    2.4090    1.2340    0.2800 O   0  0  0  0  0  0  0  0  0  0  0  0
    2.6780   -0.9110    3.5130 H   0  0  0  0  0  0  0  0  0  0  0  0
    2.9580   -2.0260    2.2570 H   0  0  0  0  0  0  0  0  0  0  0  0
    3.9490    0.7970    2.2800 H   0  0  0  0  0  0  0  0  0  0  0  0
    4.0600   -1.5270    0.2680 H   0  0  0  0  0  0  0  0  0  0  0  0
    4.7750    0.1470    0.0070 H   0  0  0  0  0  0  0  0  0  0  0  0
    6.9020    0.7620    1.3870 H   0  0  0  0  0  0  0  0  0  0  0  0
    8.7110   -0.6480    2.6850 H   0  0  0  0  0  0  0  0  0  0  0  0
    7.8120   -3.0510    3.0570 H   0  0  0  0  0  0  0  0  0  0  0  0
    1.0670   -0.3000    1.4450 N   0  0  0  0  0  0  0  0  0  0  0  0
   -0.2190    0.0030    0.9170 C   0  0  1  0  0  0  0  0  0  0  0  0
   -0.2140    1.1670   -0.0450 C   0  0  0  0  0  0  0  0  0  0  0  0
    0.1660    2.4130    0.6580 C   0  0  0  0  0  0  0  0  0  0  0  0
    0.2840    2.4560    1.9320 O   0  0  0  0  0  0  0  0  0  0  0  0
   -1.0390   -1.1310    0.5130 C   0  0  0  0  0  0  0  0  0  0  0  0
   -0.5770   -2.2970    0.6440 O   0  0  0  0  0  0  0  0  0  0  0  0
    0.4180    3.6050   -0.0020 O   0  0  0  0  0  0  0  0  0  0  0  0
    1.1570   -1.0940    2.1840 H   0  0  0  0  0  0  0  0  0  0  0  0
   -0.7560    0.5310    1.8310 H   0  0  0  0  0  0  0  0  0  0  0  0
    0.4550    1.0220   -0.9100 H   0  0  0  0  0  0  0  0  0  0  0  0
   -1.2680    1.3190   -0.4370 H   0  0  0  0  0  0  0  0  0  0  0  0
    0.8110    4.4100    0.4480 H   0  0  0  0  0  0  0  0  0  0  0  0
   -6.5900    0.6200   -0.8960 N   0  0  0  0  0  0  0  0  0  0  0  0
   -5.9540   -0.6870   -0.8140 C   0  0  0  0  0  0  0  0  0  0  0  0
   -6.0270   -1.3390   -1.8740 O   0  0  0  0  0  0  0  0  0  0  0  0
   -5.3160   -1.1370    0.4050 C   0  0  0  0  0  0  0  0  0  0  0  0
   -4.3930   -2.2810    0.3890 C   0  0  0  0  0  0  0  0  0  0  0  0
   -3.1490   -2.1720   -0.4250 C   0  0  2  0  0  0  0  0  0  0  0  0
   -2.3470   -1.0230   -0.0280 N   0  0  0  0  0  0  0  0  0  0  0  0
   -3.4020   -2.2830   -1.8600 C   0  0  0  0  0  0  0  0  0  0  0  0
   -3.0710   -1.3700   -2.6810 O   0  0  0  0  0  0  0  0  0  0  0  0
   -4.0210   -3.4140   -2.4140 O   0  0  0  0  0  0  0  0  0  0  0  0
   -6.2780    1.3290   -1.5900 H   0  0  0  0  0  0  0  0  0  0  0  0
   -7.3710    0.8700   -0.2600 H   0  0  0  0  0  0  0  0  0  0  0  0
   -4.7760   -0.2430    0.8650 H   0  0  0  0  0  0  0  0  0  0  0  0
   -6.1310   -1.4030    1.1680 H   0  0  0  0  0  0  0  0  0  0  0  0
   -4.0590   -2.5820    1.4330 H   0  0  0  0  0  0  0  0  0  0  0  0
   -5.0070   -3.1890    0.0800 H   0  0  0  0  0  0  0  0  0  0  0  0
   -2.4740   -3.0890   -0.1970 H   0  0  0  0  0  0  0  0  0  0  0  0
   -2.7460   -0.0630   -0.1430 H   0  0  0  0  0  0  0  0  0  0  0  0
  1 11  1  0  0  0  0
  2 13  1  1  0  0  0
  2  1  1  0  0  0  0
  3  4  1  0  0  0  0
  3  2  1  0  0  0  0
  4  5  2  0  0  0  0
  4  8  1  0  0  0  0
  5  6  1  0  0  0  0
  6  7  1  0  0  0  0
  6 17  1  0  0  0  0
  7 18  1  0  0  0  0
  8  7  2  0  0  0  0
  9 19  1  0  0  0  0
  9  2  1  0  0  0  0
 10  9  2  0  0  0  0
 12  1  1  0  0  0  0
 14  3  1  0  0  0  0
 15  3  1  0  0  0  0
 16  5  1  0  0  0  0
 19 27  1  0  0  0  0
 20 19  1  0  0  0  0
 20 28  1  1  0  0  0
 21 22  1  0  0  0  0
 21 20  1  0  0  0  0
 22 23  2  0  0  0  0
 24 25  2  0  0  0  0
 24 20  1  0  0  0  0
 26 31  1  0  0  0  0
 26 22  1  0  0  0  0
 29 21  1  0  0  0  0
 30 21  1  0  0  0  0
 32 33  1  0  0  0  0
 32 43  1  0  0  0  0
 33 35  1  0  0  0  0
 34 33  2  0  0  0  0
 35 44  1  0  0  0  0
 35 45  1  0  0  0  0
 36 35  1  0  0  0  0
 36 46  1  0  0  0  0
 37 48  1  1  0  0  0
 37 38  1  0  0  0  0
 37 36  1  0  0  0  0
 38 24  1  0  0  0  0
 39 37  1  0  0  0  0
 40 39  2  0  0  0  0
 41 39  1  0  0  0  0
 42 32  1  0  0  0  0
 47 36  1  0  0  0  0
 49 38  1  0  0  0  0
M  END
$$$$
