HDT.pdb
 OpenBabel07022418353D

 46 46  0  0  1  0  0  0  0  0999 V2000
    4.3940    0.2390   -0.6200 N   0  0  0  0  0  0  0  0  0  0  0  0
    3.0630   -0.1350   -0.9630 C   0  0  1  0  0  0  0  0  0  0  0  0
    2.6990   -1.5550   -0.6730 C   0  0  0  0  0  0  0  0  0  0  0  0
    2.8070   -1.9290    0.7440 C   0  0  0  0  0  0  0  0  0  0  0  0
    3.1740   -1.2400    1.8600 C   0  0  0  0  0  0  0  0  0  0  0  0
    3.1070   -2.0350    2.9280 N   0  0  0  0  0  0  0  0  0  0  0  0
    2.6980   -3.2380    2.4990 C   0  0  0  0  0  0  0  0  0  0  0  0
    2.5140   -3.1830    1.1820 N   0  0  0  0  0  0  0  0  0  0  0  0
    2.0620    0.8260   -0.3710 C   0  0  0  0  0  0  0  0  0  0  0  0
    2.4370    1.8060    0.3190 O   0  0  0  0  0  0  0  0  0  0  0  0
    4.8760    0.7570   -1.3940 H   0  0  0  0  0  0  0  0  0  0  0  0
    4.9690   -0.6410   -0.4810 H   0  0  0  0  0  0  0  0  0  0  0  0
    2.9400   -0.0010   -2.0740 H   0  0  0  0  0  0  0  0  0  0  0  0
    3.2750   -2.2120   -1.3560 H   0  0  0  0  0  0  0  0  0  0  0  0
    1.6320   -1.6820   -0.9850 H   0  0  0  0  0  0  0  0  0  0  0  0
    3.4700   -0.2120    1.8620 H   0  0  0  0  0  0  0  0  0  0  0  0
    3.3140   -1.8430    3.9370 H   0  0  0  0  0  0  0  0  0  0  0  0
    2.5350   -4.1320    3.1210 H   0  0  0  0  0  0  0  0  0  0  0  0
    0.6750    0.6610   -0.5700 N   0  0  0  0  0  0  0  0  0  0  0  0
   -0.2470    1.6080    0.0170 C   0  0  1  0  0  0  0  0  0  0  0  0
   -1.0460    2.3260   -1.0330 C   0  0  0  0  0  0  0  0  0  0  0  0
   -1.9630    3.2760   -0.3910 C   0  0  0  0  0  0  0  0  0  0  0  0
   -3.1630    2.9710   -0.2260 O   0  0  0  0  0  0  0  0  0  0  0  0
   -1.1540    0.9750    0.9920 C   0  0  0  0  0  0  0  0  0  0  0  0
   -1.9410    1.7100    1.6330 O   0  0  0  0  0  0  0  0  0  0  0  0
   -1.5190    4.5120    0.0380 O   0  0  0  0  0  0  0  0  0  0  0  0
    0.2820   -0.1230   -1.1280 H   0  0  0  0  0  0  0  0  0  0  0  0
    0.3370    2.3690    0.5620 H   0  0  0  0  0  0  0  0  0  0  0  0
   -0.3780    2.9280   -1.7100 H   0  0  0  0  0  0  0  0  0  0  0  0
   -1.5980    1.5880   -1.6650 H   0  0  0  0  0  0  0  0  0  0  0  0
   -2.1130    5.1670    0.5570 H   0  0  0  0  0  0  0  0  0  0  0  0
   -2.4350   -2.8690    0.7210 C   0  0  0  0  0  0  0  0  0  0  0  0
   -3.1640   -1.7960    1.4780 C   0  0  1  0  0  0  0  0  0  0  0  0
   -4.0380   -2.3060    2.4220 O   0  0  0  0  0  0  0  0  0  0  0  0
   -2.1010   -0.9630    2.2120 C   0  0  2  0  0  0  0  0  0  0  0  0
   -1.1790   -0.4260    1.2380 N   0  0  0  0  0  0  0  0  0  0  0  0
   -1.4490   -1.8120    3.2140 C   0  0  0  0  0  0  0  0  0  0  0  0
   -0.2320   -2.0680    3.2580 O   0  0  0  0  0  0  0  0  0  0  0  0
   -2.2650   -2.3780    4.1980 O   0  0  0  0  0  0  0  0  0  0  0  0
   -2.1360   -2.5000   -0.2900 H   0  0  0  0  0  0  0  0  0  0  0  0
   -1.5180   -3.2030    1.2360 H   0  0  0  0  0  0  0  0  0  0  0  0
   -3.1080   -3.7540    0.6310 H   0  0  0  0  0  0  0  0  0  0  0  0
   -3.7500   -1.1260    0.8160 H   0  0  0  0  0  0  0  0  0  0  0  0
   -4.9560   -1.9270    2.3420 H   0  0  0  0  0  0  0  0  0  0  0  0
   -2.6470   -0.1060    2.6730 H   0  0  0  0  0  0  0  0  0  0  0  0
   -0.5180   -1.0200    0.6950 H   0  0  0  0  0  0  0  0  0  0  0  0
  1 12  1  0  0  0  0
  2 13  1  6  0  0  0
  2  3  1  0  0  0  0
  2  1  1  0  0  0  0
  2  9  1  0  0  0  0
  3  4  1  0  0  0  0
  4  8  1  0  0  0  0
  4  5  2  0  0  0  0
  5 16  1  0  0  0  0
  5  6  1  0  0  0  0
  6 17  1  0  0  0  0
  7  6  1  0  0  0  0
  7 18  1  0  0  0  0
  8  7  2  0  0  0  0
  9 10  2  0  0  0  0
 11  1  1  0  0  0  0
 14  3  1  0  0  0  0
 15  3  1  0  0  0  0
 19  9  1  0  0  0  0
 19 20  1  0  0  0  0
 20 28  1  1  0  0  0
 20 24  1  0  0  0  0
 21 22  1  0  0  0  0
 21 20  1  0  0  0  0
 22 23  2  0  0  0  0
 22 26  1  0  0  0  0
 24 36  1  0  0  0  0
 24 25  2  0  0  0  0
 26 31  1  0  0  0  0
 27 19  1  0  0  0  0
 29 21  1  0  0  0  0
 30 21  1  0  0  0  0
 32 41  1  0  0  0  0
 32 33  1  0  0  0  0
 33 43  1  6  0  0  0
 33 35  1  0  0  0  0
 33 34  1  0  0  0  0
 35 45  1  1  0  0  0
 35 37  1  0  0  0  0
 36 35  1  0  0  0  0
 37 38  2  0  0  0  0
 37 39  1  0  0  0  0
 40 32  1  0  0  0  0
 42 32  1  0  0  0  0
 44 34  1  0  0  0  0
 46 36  1  0  0  0  0
M  END
$$$$
