HDY.pdb
 OpenBabel07022418353D

 53 54  0  0  1  0  0  0  0  0999 V2000
    0.6810    0.9230    4.0770 N   0  0  0  0  0  0  0  0  0  0  0  0
    1.4200    0.8110    2.8360 C   0  0  1  0  0  0  0  0  0  0  0  0
    2.2690   -0.4390    2.9170 C   0  0  0  0  0  0  0  0  0  0  0  0
    3.1830   -0.2810    4.0780 C   0  0  0  0  0  0  0  0  0  0  0  0
    2.9970   -0.6400    5.3980 C   0  0  0  0  0  0  0  0  0  0  0  0
    4.0800   -0.3160    6.1230 N   0  0  0  0  0  0  0  0  0  0  0  0
    4.9580    0.2470    5.2760 C   0  0  0  0  0  0  0  0  0  0  0  0
    4.4170    0.2680    4.0440 N   0  0  0  0  0  0  0  0  0  0  0  0
    0.4620    0.7670    1.7180 C   0  0  0  0  0  0  0  0  0  0  0  0
   -0.7690    0.8270    1.9630 O   0  0  0  0  0  0  0  0  0  0  0  0
    0.4440   -0.0660    4.3840 H   0  0  0  0  0  0  0  0  0  0  0  0
   -0.2360    1.3940    3.9100 H   0  0  0  0  0  0  0  0  0  0  0  0
    2.1240    1.6650    2.7670 H   0  0  0  0  0  0  0  0  0  0  0  0
    1.6420   -1.3420    3.1410 H   0  0  0  0  0  0  0  0  0  0  0  0
    2.8390   -0.6050    1.9730 H   0  0  0  0  0  0  0  0  0  0  0  0
    2.0960   -1.1200    5.8000 H   0  0  0  0  0  0  0  0  0  0  0  0
    4.2360   -0.4660    7.1630 H   0  0  0  0  0  0  0  0  0  0  0  0
    5.9330    0.6140    5.5710 H   0  0  0  0  0  0  0  0  0  0  0  0
    0.8510    0.6570    0.3580 N   0  0  0  0  0  0  0  0  0  0  0  0
   -0.0630    0.6140   -0.7640 C   0  0  1  0  0  0  0  0  0  0  0  0
    0.2150    1.6460   -1.8000 C   0  0  0  0  0  0  0  0  0  0  0  0
    0.1080    2.9930   -1.1920 C   0  0  0  0  0  0  0  0  0  0  0  0
   -0.1780    3.1320    0.0230 O   0  0  0  0  0  0  0  0  0  0  0  0
   -0.1310   -0.7630   -1.3430 C   0  0  0  0  0  0  0  0  0  0  0  0
    0.5360   -1.7250   -0.8830 O   0  0  0  0  0  0  0  0  0  0  0  0
    0.3260    4.1550   -1.9650 O   0  0  0  0  0  0  0  0  0  0  0  0
    1.8690    0.6040    0.1480 H   0  0  0  0  0  0  0  0  0  0  0  0
   -1.0800    0.8000   -0.3410 H   0  0  0  0  0  0  0  0  0  0  0  0
    1.2200    1.5660   -2.2530 H   0  0  0  0  0  0  0  0  0  0  0  0
   -0.5820    1.5880   -2.5740 H   0  0  0  0  0  0  0  0  0  0  0  0
    0.6020    4.9730   -1.4360 H   0  0  0  0  0  0  0  0  0  0  0  0
   -3.4050   -3.1520    2.7960 O   0  0  0  0  0  0  0  0  0  0  0  0
   -3.1710   -3.0960    1.4260 C   0  0  0  0  0  0  0  0  0  0  0  0
   -2.6150   -4.1650    0.7760 C   0  0  0  0  0  0  0  0  0  0  0  0
   -2.3760   -4.1300   -0.5780 C   0  0  0  0  0  0  0  0  0  0  0  0
   -2.6990   -3.0010   -1.2970 C   0  0  0  0  0  0  0  0  0  0  0  0
   -2.4580   -2.9190   -2.7610 C   0  0  0  0  0  0  0  0  0  0  0  0
   -1.0570   -2.3560   -3.0370 C   0  0  2  0  0  0  0  0  0  0  0  0
   -0.9710   -1.0330   -2.4560 N   0  0  0  0  0  0  0  0  0  0  0  0
   -0.7710   -2.3760   -4.4680 C   0  0  0  0  0  0  0  0  0  0  0  0
   -0.8040   -3.4440   -5.1160 O   0  0  0  0  0  0  0  0  0  0  0  0
   -3.2660   -1.9110   -0.6320 C   0  0  0  0  0  0  0  0  0  0  0  0
   -3.5020   -1.9560    0.7230 C   0  0  0  0  0  0  0  0  0  0  0  0
   -0.4590   -1.2030   -5.1280 O   0  0  0  0  0  0  0  0  0  0  0  0
   -3.5130   -2.3320    3.3700 H   0  0  0  0  0  0  0  0  0  0  0  0
   -2.3650   -5.0520    1.3610 H   0  0  0  0  0  0  0  0  0  0  0  0
   -1.9370   -4.9970   -1.0410 H   0  0  0  0  0  0  0  0  0  0  0  0
   -3.2410   -2.2840   -3.2100 H   0  0  0  0  0  0  0  0  0  0  0  0
   -2.5250   -3.9520   -3.1610 H   0  0  0  0  0  0  0  0  0  0  0  0
   -0.3690   -3.0340   -2.4510 H   0  0  0  0  0  0  0  0  0  0  0  0
   -1.5500   -0.2890   -2.8880 H   0  0  0  0  0  0  0  0  0  0  0  0
   -3.5360   -1.0050   -1.1520 H   0  0  0  0  0  0  0  0  0  0  0  0
   -3.9410   -1.1320    1.2830 H   0  0  0  0  0  0  0  0  0  0  0  0
  1 11  1  0  0  0  0
  2 13  1  6  0  0  0
  2  3  1  0  0  0  0
  2  1  1  0  0  0  0
  3 14  1  0  0  0  0
  3  4  1  0  0  0  0
  4  5  2  0  0  0  0
  5 16  1  0  0  0  0
  5  6  1  0  0  0  0
  6 17  1  0  0  0  0
  7 18  1  0  0  0  0
  7  6  1  0  0  0  0
  8  4  1  0  0  0  0
  8  7  2  0  0  0  0
  9 10  2  0  0  0  0
  9  2  1  0  0  0  0
 12  1  1  0  0  0  0
 15  3  1  0  0  0  0
 19  9  1  0  0  0  0
 20 28  1  1  0  0  0
 20 19  1  0  0  0  0
 21 22  1  0  0  0  0
 21 20  1  0  0  0  0
 22 23  2  0  0  0  0
 24 25  2  0  0  0  0
 24 20  1  0  0  0  0
 26 31  1  0  0  0  0
 26 22  1  0  0  0  0
 27 19  1  0  0  0  0
 29 21  1  0  0  0  0
 30 21  1  0  0  0  0
 32 45  1  0  0  0  0
 33 32  1  0  0  0  0
 34 46  1  0  0  0  0
 34 33  1  0  0  0  0
 35 34  2  0  0  0  0
 36 42  2  0  0  0  0
 36 35  1  0  0  0  0
 37 36  1  0  0  0  0
 38 37  1  0  0  0  0
 38 39  1  0  0  0  0
 38 50  1  1  0  0  0
 39 24  1  0  0  0  0
 40 38  1  0  0  0  0
 41 40  1  0  0  0  0
 42 43  1  0  0  0  0
 43 53  1  0  0  0  0
 43 33  2  0  0  0  0
 44 40  2  0  0  0  0
 47 35  1  0  0  0  0
 48 37  1  0  0  0  0
 49 37  1  0  0  0  0
 51 39  1  0  0  0  0
 52 42  1  0  0  0  0
M  END
$$$$
