HED.pdb
 OpenBabel07022418353D

 48 48  0  0  1  0  0  0  0  0999 V2000
    1.9010   -1.1490    2.0130 N   0  0  0  0  0  0  0  0  0  0  0  0
    1.9170   -0.4720    0.7380 C   0  0  1  0  0  0  0  0  0  0  0  0
    1.9740   -1.4400   -0.4160 C   0  0  0  0  0  0  0  0  0  0  0  0
    3.2060   -2.2590   -0.3230 C   0  0  0  0  0  0  0  0  0  0  0  0
    4.2320   -2.2590    0.5880 C   0  0  0  0  0  0  0  0  0  0  0  0
    5.1620   -3.1920    0.2660 N   0  0  0  0  0  0  0  0  0  0  0  0
    4.7220   -3.7770   -0.8450 C   0  0  0  0  0  0  0  0  0  0  0  0
    3.5590   -3.2360   -1.2120 N   0  0  0  0  0  0  0  0  0  0  0  0
    0.7320    0.4110    0.6570 C   0  0  0  0  0  0  0  0  0  0  0  0
    0.5900    1.0750   -0.4000 O   0  0  0  0  0  0  0  0  0  0  0  0
    2.4940   -0.6480    2.7080 H   0  0  0  0  0  0  0  0  0  0  0  0
    2.0220   -2.1660    1.9660 H   0  0  0  0  0  0  0  0  0  0  0  0
    2.8100    0.2160    0.6660 H   0  0  0  0  0  0  0  0  0  0  0  0
    1.9680   -0.8810   -1.3660 H   0  0  0  0  0  0  0  0  0  0  0  0
    1.0530   -2.0560   -0.3840 H   0  0  0  0  0  0  0  0  0  0  0  0
    4.2850   -1.6010    1.4420 H   0  0  0  0  0  0  0  0  0  0  0  0
    6.0440   -3.4110    0.7800 H   0  0  0  0  0  0  0  0  0  0  0  0
    5.2260   -4.5680   -1.3710 H   0  0  0  0  0  0  0  0  0  0  0  0
   -0.1770    0.4840    1.7280 N   0  0  0  0  0  0  0  0  0  0  0  0
   -1.3370    1.3080    1.7300 C   0  0  1  0  0  0  0  0  0  0  0  0
   -1.1320    2.7030    1.2400 C   0  0  0  0  0  0  0  0  0  0  0  0
   -0.1680    3.4450    2.1070 C   0  0  0  0  0  0  0  0  0  0  0  0
    1.1910    2.9060    2.2120 C   0  0  0  0  0  0  0  0  0  0  0  0
    2.1170    3.1670    1.3670 O   0  0  0  0  0  0  0  0  0  0  0  0
   -2.5160    0.6330    1.1420 C   0  0  0  0  0  0  0  0  0  0  0  0
   -3.6340    1.2260    1.0620 O   0  0  0  0  0  0  0  0  0  0  0  0
    1.5480    2.0670    3.2600 O   0  0  0  0  0  0  0  0  0  0  0  0
    0.0440   -0.1280    2.5710 H   0  0  0  0  0  0  0  0  0  0  0  0
   -1.5980    1.4760    2.8490 H   0  0  0  0  0  0  0  0  0  0  0  0
   -2.1330    3.2360    1.3540 H   0  0  0  0  0  0  0  0  0  0  0  0
   -0.8020    2.7910    0.1850 H   0  0  0  0  0  0  0  0  0  0  0  0
   -0.5770    3.5600    3.1640 H   0  0  0  0  0  0  0  0  0  0  0  0
   -0.0730    4.5290    1.7730 H   0  0  0  0  0  0  0  0  0  0  0  0
    2.4980    1.7910    3.3820 H   0  0  0  0  0  0  0  0  0  0  0  0
   -2.4890   -0.6980    0.6310 N   0  0  0  0  0  0  0  0  0  0  0  0
   -3.6460   -1.3370    0.0620 C   0  0  1  0  0  0  0  0  0  0  0  0
   -3.4520   -1.7380   -1.3810 C   0  0  0  0  0  0  0  0  0  0  0  0
   -2.3270   -2.6930   -1.5420 C   0  0  0  0  0  0  0  0  0  0  0  0
   -2.0760   -3.0870   -2.7090 O   0  0  0  0  0  0  0  0  0  0  0  0
   -4.0960   -2.5150    0.8580 C   0  0  0  0  0  0  0  0  0  0  0  0
   -5.1020   -3.1320    0.4300 O   0  0  0  0  0  0  0  0  0  0  0  0
   -1.5500   -3.1710   -0.5230 O   0  0  0  0  0  0  0  0  0  0  0  0
   -3.4890   -2.9520    2.0050 O   0  0  0  0  0  0  0  0  0  0  0  0
   -1.5560   -1.1840    0.7020 H   0  0  0  0  0  0  0  0  0  0  0  0
   -4.4770   -0.6040    0.1110 H   0  0  0  0  0  0  0  0  0  0  0  0
   -4.3790   -2.3130   -1.6630 H   0  0  0  0  0  0  0  0  0  0  0  0
   -3.3950   -0.8840   -2.0580 H   0  0  0  0  0  0  0  0  0  0  0  0
   -0.7290   -3.7470   -0.7160 H   0  0  0  0  0  0  0  0  0  0  0  0
  1 11  1  0  0  0  0
  2 13  1  6  0  0  0
  2  1  1  0  0  0  0
  3 15  1  0  0  0  0
  3  4  1  0  0  0  0
  3  2  1  0  0  0  0
  4  5  2  0  0  0  0
  5 16  1  0  0  0  0
  6  5  1  0  0  0  0
  6 17  1  0  0  0  0
  7  6  1  0  0  0  0
  8  7  2  0  0  0  0
  8  4  1  0  0  0  0
  9  2  1  0  0  0  0
  9 19  1  0  0  0  0
 10  9  2  0  0  0  0
 12  1  1  0  0  0  0
 14  3  1  0  0  0  0
 18  7  1  0  0  0  0
 19 20  1  0  0  0  0
 19 28  1  0  0  0  0
 20 29  1  1  0  0  0
 21 30  1  0  0  0  0
 21 20  1  0  0  0  0
 21 22  1  0  0  0  0
 22 23  1  0  0  0  0
 22 32  1  0  0  0  0
 23 27  1  0  0  0  0
 24 23  2  0  0  0  0
 25 20  1  0  0  0  0
 26 25  2  0  0  0  0
 27 34  1  0  0  0  0
 31 21  1  0  0  0  0
 33 22  1  0  0  0  0
 35 44  1  0  0  0  0
 35 25  1  0  0  0  0
 36 45  1  1  0  0  0
 36 35  1  0  0  0  0
 36 40  1  0  0  0  0
 37 36  1  0  0  0  0
 38 37  1  0  0  0  0
 38 42  1  0  0  0  0
 39 38  2  0  0  0  0
 40 43  1  0  0  0  0
 41 40  2  0  0  0  0
 46 37  1  0  0  0  0
 47 37  1  0  0  0  0
 48 42  1  0  0  0  0
M  END
$$$$
