HEK.pdb
 OpenBabel07022418363D

 56 56  0  0  1  0  0  0  0  0999 V2000
    2.2620    0.2450    5.7910 N   0  0  0  0  0  0  0  0  0  0  0  0
    2.3890    0.7500    4.4480 C   0  0  1  0  0  0  0  0  0  0  0  0
    3.5440    0.1320    3.6940 C   0  0  0  0  0  0  0  0  0  0  0  0
    3.4060   -1.3380    3.5730 C   0  0  0  0  0  0  0  0  0  0  0  0
    4.3310   -2.1280    2.9270 C   0  0  0  0  0  0  0  0  0  0  0  0
    3.9370   -3.4080    2.9800 N   0  0  0  0  0  0  0  0  0  0  0  0
    2.7690   -3.4370    3.6540 C   0  0  0  0  0  0  0  0  0  0  0  0
    2.4440   -2.1620    4.0190 N   0  0  0  0  0  0  0  0  0  0  0  0
    1.1240    0.5200    3.7140 C   0  0  0  0  0  0  0  0  0  0  0  0
    0.1760   -0.0440    4.3180 O   0  0  0  0  0  0  0  0  0  0  0  0
    1.2540    0.2180    6.0920 H   0  0  0  0  0  0  0  0  0  0  0  0
    2.6290   -0.7210    5.8960 H   0  0  0  0  0  0  0  0  0  0  0  0
    2.5650    1.8490    4.5420 H   0  0  0  0  0  0  0  0  0  0  0  0
    3.4750    0.5420    2.6470 H   0  0  0  0  0  0  0  0  0  0  0  0
    4.5190    0.4120    4.0830 H   0  0  0  0  0  0  0  0  0  0  0  0
    5.2570   -1.7960    2.4350 H   0  0  0  0  0  0  0  0  0  0  0  0
    4.4670   -4.2200    2.5600 H   0  0  0  0  0  0  0  0  0  0  0  0
    2.1840   -4.3260    3.8720 H   0  0  0  0  0  0  0  0  0  0  0  0
    0.9100    0.8920    2.3840 N   0  0  0  0  0  0  0  0  0  0  0  0
   -0.3760    0.6440    1.6790 C   0  0  1  0  0  0  0  0  0  0  0  0
   -0.9620    2.0000    1.5220 C   0  0  0  0  0  0  0  0  0  0  0  0
   -2.2310    2.1540    0.7940 C   0  0  0  0  0  0  0  0  0  0  0  0
   -2.1340    1.8870   -0.6570 C   0  0  0  0  0  0  0  0  0  0  0  0
   -0.9600    1.8240   -1.1570 O   0  0  0  0  0  0  0  0  0  0  0  0
   -0.2140   -0.2210    0.5330 C   0  0  0  0  0  0  0  0  0  0  0  0
    0.9210   -0.4400   -0.0280 O   0  0  0  0  0  0  0  0  0  0  0  0
   -3.2450    1.7110   -1.4480 O   0  0  0  0  0  0  0  0  0  0  0  0
    1.6440    1.3560    1.8420 H   0  0  0  0  0  0  0  0  0  0  0  0
   -1.0200    0.1350    2.4790 H   0  0  0  0  0  0  0  0  0  0  0  0
   -0.2070    2.7450    1.1380 H   0  0  0  0  0  0  0  0  0  0  0  0
   -1.1320    2.3780    2.5850 H   0  0  0  0  0  0  0  0  0  0  0  0
   -2.5630    3.2350    0.8670 H   0  0  0  0  0  0  0  0  0  0  0  0
   -3.0660    1.5840    1.2630 H   0  0  0  0  0  0  0  0  0  0  0  0
   -3.1880    1.9280   -2.4360 H   0  0  0  0  0  0  0  0  0  0  0  0
   -1.3620   -0.8910   -0.0190 N   0  0  0  0  0  0  0  0  0  0  0  0
   -1.3060   -1.7850   -1.1480 C   0  0  1  0  0  0  0  0  0  0  0  0
   -1.1520   -1.1300   -2.4610 C   0  0  0  0  0  0  0  0  0  0  0  0
   -1.0920   -2.0300   -3.6450 C   0  0  0  0  0  0  0  0  0  0  0  0
   -2.3230   -2.8820   -3.8230 C   0  0  0  0  0  0  0  0  0  0  0  0
   -3.5680   -2.0470   -4.0010 C   0  0  0  0  0  0  0  0  0  0  0  0
   -3.4740   -1.1790   -5.1780 N   0  0  0  0  0  0  0  0  0  0  0  0
   -0.3450   -2.8620   -0.8590 C   0  0  0  0  0  0  0  0  0  0  0  0
    0.2250   -2.9030    0.2550 O   0  0  0  0  0  0  0  0  0  0  0  0
   -0.0110   -3.8710   -1.7560 O   0  0  0  0  0  0  0  0  0  0  0  0
   -2.2930   -0.7070    0.4610 H   0  0  0  0  0  0  0  0  0  0  0  0
   -2.3130   -2.3220   -1.1560 H   0  0  0  0  0  0  0  0  0  0  0  0
   -1.9440   -0.3770   -2.6580 H   0  0  0  0  0  0  0  0  0  0  0  0
   -0.1880   -0.5370   -2.4760 H   0  0  0  0  0  0  0  0  0  0  0  0
   -0.1840   -2.6420   -3.7310 H   0  0  0  0  0  0  0  0  0  0  0  0
   -1.0680   -1.3520   -4.5540 H   0  0  0  0  0  0  0  0  0  0  0  0
   -2.5030   -3.5880   -3.0190 H   0  0  0  0  0  0  0  0  0  0  0  0
   -2.1850   -3.4590   -4.7620 H   0  0  0  0  0  0  0  0  0  0  0  0
   -3.8150   -1.4840   -3.0970 H   0  0  0  0  0  0  0  0  0  0  0  0
   -4.4080   -2.7500   -4.1920 H   0  0  0  0  0  0  0  0  0  0  0  0
   -3.1060   -0.2580   -4.8000 H   0  0  0  0  0  0  0  0  0  0  0  0
   -2.7790   -1.5890   -5.8500 H   0  0  0  0  0  0  0  0  0  0  0  0
  1 12  1  0  0  0  0
  1 11  1  0  0  0  0
  2 13  1  1  0  0  0
  2  1  1  0  0  0  0
  3 15  1  0  0  0  0
  3  2  1  0  0  0  0
  4  3  1  0  0  0  0
  4  8  1  0  0  0  0
  5  6  1  0  0  0  0
  5  4  2  0  0  0  0
  6  7  1  0  0  0  0
  7 18  1  0  0  0  0
  7  8  2  0  0  0  0
  9 10  2  0  0  0  0
  9  2  1  0  0  0  0
 14  3  1  0  0  0  0
 16  5  1  0  0  0  0
 17  6  1  0  0  0  0
 19  9  1  0  0  0  0
 20 19  1  0  0  0  0
 20 29  1  1  0  0  0
 21 20  1  0  0  0  0
 21 31  1  0  0  0  0
 22 32  1  0  0  0  0
 22 33  1  0  0  0  0
 22 21  1  0  0  0  0
 23 22  1  0  0  0  0
 24 23  2  0  0  0  0
 25 20  1  0  0  0  0
 26 25  2  0  0  0  0
 27 23  1  0  0  0  0
 28 19  1  0  0  0  0
 30 21  1  0  0  0  0
 34 27  1  0  0  0  0
 35 45  1  0  0  0  0
 35 25  1  0  0  0  0
 36 46  1  6  0  0  0
 36 42  1  0  0  0  0
 36 35  1  0  0  0  0
 37 36  1  0  0  0  0
 38 37  1  0  0  0  0
 39 38  1  0  0  0  0
 39 51  1  0  0  0  0
 40 39  1  0  0  0  0
 40 53  1  0  0  0  0
 41 55  1  0  0  0  0
 41 40  1  0  0  0  0
 42 43  1  0  0  0  0
 44 42  2  0  0  0  0
 47 37  1  0  0  0  0
 48 37  1  0  0  0  0
 49 38  1  0  0  0  0
 50 38  1  0  0  0  0
 52 39  1  0  0  0  0
 54 40  1  0  0  0  0
 56 41  1  0  0  0  0
M  END
$$$$
