HEP.pdb
 OpenBabel07022418363D

 49 50  0  0  1  0  0  0  0  0999 V2000
    3.3250   -2.6510    1.4660 N   0  0  0  0  0  0  0  0  0  0  0  0
    2.0190   -2.4790    0.8240 C   0  0  1  0  0  0  0  0  0  0  0  0
    1.0100   -3.0360    1.8240 C   0  0  0  0  0  0  0  0  0  0  0  0
    1.0670   -2.3050    3.1230 C   0  0  0  0  0  0  0  0  0  0  0  0
    0.3860   -1.1870    3.5530 C   0  0  0  0  0  0  0  0  0  0  0  0
    0.7420   -0.8560    4.8010 N   0  0  0  0  0  0  0  0  0  0  0  0
    1.6500   -1.7500    5.1890 C   0  0  0  0  0  0  0  0  0  0  0  0
    1.8620   -2.6340    4.1910 N   0  0  0  0  0  0  0  0  0  0  0  0
    1.7470   -1.0630    0.5460 C   0  0  0  0  0  0  0  0  0  0  0  0
    2.4460   -0.1620    1.1050 O   0  0  0  0  0  0  0  0  0  0  0  0
    4.0110   -2.1070    0.8660 H   0  0  0  0  0  0  0  0  0  0  0  0
    3.5810   -3.6630    1.2990 H   0  0  0  0  0  0  0  0  0  0  0  0
    1.9820   -3.1140   -0.0620 H   0  0  0  0  0  0  0  0  0  0  0  0
   -0.0070   -3.0020    1.4410 H   0  0  0  0  0  0  0  0  0  0  0  0
    1.2910   -4.1010    2.0350 H   0  0  0  0  0  0  0  0  0  0  0  0
   -0.3420   -0.6420    2.9650 H   0  0  0  0  0  0  0  0  0  0  0  0
    0.3630   -0.0520    5.3340 H   0  0  0  0  0  0  0  0  0  0  0  0
    2.1550   -1.7880    6.1430 H   0  0  0  0  0  0  0  0  0  0  0  0
    0.7180   -0.5780   -0.3460 N   0  0  0  0  0  0  0  0  0  0  0  0
    0.5370    0.8220   -0.5690 C   0  0  1  0  0  0  0  0  0  0  0  0
    0.9550    1.3300   -1.9300 C   0  0  0  0  0  0  0  0  0  0  0  0
    2.3790    1.1500   -2.3070 C   0  0  0  0  0  0  0  0  0  0  0  0
    2.8700   -0.2160   -2.4910 C   0  0  0  0  0  0  0  0  0  0  0  0
    2.1150   -1.1960   -2.5630 O   0  0  0  0  0  0  0  0  0  0  0  0
   -0.7930    1.3060   -0.2040 C   0  0  0  0  0  0  0  0  0  0  0  0
   -0.8850    2.6150   -0.3400 O   0  0  0  0  0  0  0  0  0  0  0  0
    4.2390   -0.4770   -2.5950 O   0  0  0  0  0  0  0  0  0  0  0  0
    0.1520   -1.3070   -0.7860 H   0  0  0  0  0  0  0  0  0  0  0  0
    1.2420    1.4110    0.1360 H   0  0  0  0  0  0  0  0  0  0  0  0
    0.6870    2.4050   -2.0560 H   0  0  0  0  0  0  0  0  0  0  0  0
    0.3500    0.8190   -2.7440 H   0  0  0  0  0  0  0  0  0  0  0  0
    2.6360    1.7770   -3.2270 H   0  0  0  0  0  0  0  0  0  0  0  0
    2.9810    1.6300   -1.4560 H   0  0  0  0  0  0  0  0  0  0  0  0
    4.6570   -1.3510   -2.3050 H   0  0  0  0  0  0  0  0  0  0  0  0
   -1.9390    0.6980    0.2390 N   0  0  0  0  0  0  0  0  0  0  0  0
   -3.1950    1.4140    0.5690 C   0  0  0  0  0  0  0  0  0  0  0  0
   -3.4720    0.7390    1.9150 C   0  0  0  0  0  0  0  0  0  0  0  0
   -3.3630   -0.7120    1.5130 C   0  0  0  0  0  0  0  0  0  0  0  0
   -2.2410   -0.6840    0.4810 C   0  0  1  0  0  0  0  0  0  0  0  0
   -2.6990   -1.3680   -0.7740 C   0  0  0  0  0  0  0  0  0  0  0  0
   -3.0070   -2.5790   -0.7460 O   0  0  0  0  0  0  0  0  0  0  0  0
   -2.7900   -0.6880   -1.9710 O   0  0  0  0  0  0  0  0  0  0  0  0
   -3.0400    2.4850    0.6600 H   0  0  0  0  0  0  0  0  0  0  0  0
   -4.0150    1.1050   -0.1050 H   0  0  0  0  0  0  0  0  0  0  0  0
   -4.4620    1.0100    2.3070 H   0  0  0  0  0  0  0  0  0  0  0  0
   -2.6470    0.9730    2.6400 H   0  0  0  0  0  0  0  0  0  0  0  0
   -4.3340   -0.9650    1.0080 H   0  0  0  0  0  0  0  0  0  0  0  0
   -3.1690   -1.3940    2.3380 H   0  0  0  0  0  0  0  0  0  0  0  0
   -1.4200   -1.2460    0.9460 H   0  0  0  0  0  0  0  0  0  0  0  0
  2 13  1  6  0  0  0
  2  1  1  0  0  0  0
  2  3  1  0  0  0  0
  3 15  1  0  0  0  0
  3  4  1  0  0  0  0
  4  5  2  0  0  0  0
  4  8  1  0  0  0  0
  5  6  1  0  0  0  0
  6  7  1  0  0  0  0
  6 17  1  0  0  0  0
  7 18  1  0  0  0  0
  8  7  2  0  0  0  0
  9  2  1  0  0  0  0
  9 10  2  0  0  0  0
 11  1  1  0  0  0  0
 12  1  1  0  0  0  0
 14  3  1  0  0  0  0
 16  5  1  0  0  0  0
 19  9  1  0  0  0  0
 20 19  1  0  0  0  0
 20 25  1  0  0  0  0
 20 29  1  1  0  0  0
 21 20  1  0  0  0  0
 22 21  1  0  0  0  0
 22 33  1  0  0  0  0
 23 22  1  0  0  0  0
 24 23  2  0  0  0  0
 25 35  1  0  0  0  0
 26 25  2  0  0  0  0
 27 23  1  0  0  0  0
 27 34  1  0  0  0  0
 28 19  1  0  0  0  0
 30 21  1  0  0  0  0
 31 21  1  0  0  0  0
 32 22  1  0  0  0  0
 35 39  1  0  0  0  0
 35 36  1  0  0  0  0
 36 43  1  0  0  0  0
 36 37  1  0  0  0  0
 37 45  1  0  0  0  0
 37 46  1  0  0  0  0
 38 37  1  0  0  0  0
 38 48  1  0  0  0  0
 39 49  1  1  0  0  0
 39 38  1  0  0  0  0
 40 41  1  0  0  0  0
 40 39  1  0  0  0  0
 42 40  2  0  0  0  0
 44 36  1  0  0  0  0
 47 38  1  0  0  0  0
M  END
$$$$
