HEQ.pdb
 OpenBabel07022418363D

 52 52  0  0  1  0  0  0  0  0999 V2000
    2.7880   -1.2070    1.7500 N   0  0  0  0  0  0  0  0  0  0  0  0
    2.5820   -0.6210    0.4640 C   0  0  1  0  0  0  0  0  0  0  0  0
    2.7220   -1.6700   -0.6150 C   0  0  0  0  0  0  0  0  0  0  0  0
    4.0990   -2.2210   -0.5120 C   0  0  0  0  0  0  0  0  0  0  0  0
    5.2080   -1.7240   -1.1800 C   0  0  0  0  0  0  0  0  0  0  0  0
    6.2980   -2.4720   -0.8500 N   0  0  0  0  0  0  0  0  0  0  0  0
    5.8770   -3.4180    0.0070 C   0  0  0  0  0  0  0  0  0  0  0  0
    4.5560   -3.2640    0.2070 N   0  0  0  0  0  0  0  0  0  0  0  0
    1.3110    0.1380    0.3550 C   0  0  0  0  0  0  0  0  0  0  0  0
    1.0470    0.6830   -0.7280 O   0  0  0  0  0  0  0  0  0  0  0  0
    3.1060   -0.5460    2.4850 H   0  0  0  0  0  0  0  0  0  0  0  0
    2.0610   -1.8720    2.0440 H   0  0  0  0  0  0  0  0  0  0  0  0
    3.4050    0.1160    0.2910 H   0  0  0  0  0  0  0  0  0  0  0  0
    2.5670   -1.1790   -1.5930 H   0  0  0  0  0  0  0  0  0  0  0  0
    1.9730   -2.4910   -0.4900 H   0  0  0  0  0  0  0  0  0  0  0  0
    5.1920   -0.8760   -1.8520 H   0  0  0  0  0  0  0  0  0  0  0  0
    7.2600   -2.3050   -1.2190 H   0  0  0  0  0  0  0  0  0  0  0  0
    6.5230   -4.1650    0.4450 H   0  0  0  0  0  0  0  0  0  0  0  0
    0.4450    0.2260    1.4570 N   0  0  0  0  0  0  0  0  0  0  0  0
   -0.7790    0.9440    1.4590 C   0  0  1  0  0  0  0  0  0  0  0  0
   -0.9150    2.0310    0.4050 C   0  0  0  0  0  0  0  0  0  0  0  0
    0.1020    3.0890    0.6360 C   0  0  0  0  0  0  0  0  0  0  0  0
    0.0650    4.1730   -0.3750 C   0  0  0  0  0  0  0  0  0  0  0  0
    0.8820    5.1150   -0.2710 O   0  0  0  0  0  0  0  0  0  0  0  0
   -1.9980    0.1770    1.7080 C   0  0  0  0  0  0  0  0  0  0  0  0
   -3.1540    0.7090    1.7340 O   0  0  0  0  0  0  0  0  0  0  0  0
   -0.8350    4.1670   -1.4100 O   0  0  0  0  0  0  0  0  0  0  0  0
    0.7420   -0.2900    2.3590 H   0  0  0  0  0  0  0  0  0  0  0  0
   -0.6640    1.6420    2.3930 H   0  0  0  0  0  0  0  0  0  0  0  0
   -1.9130    2.5140    0.6560 H   0  0  0  0  0  0  0  0  0  0  0  0
   -1.0310    1.6770   -0.6110 H   0  0  0  0  0  0  0  0  0  0  0  0
   -0.1210    3.6200    1.6360 H   0  0  0  0  0  0  0  0  0  0  0  0
    1.1220    2.7420    0.7690 H   0  0  0  0  0  0  0  0  0  0  0  0
   -0.5790    4.7080   -2.2450 H   0  0  0  0  0  0  0  0  0  0  0  0
   -4.5370   -1.3440   -1.9410 N   0  0  0  0  0  0  0  0  0  0  0  0
   -4.4540   -1.8150   -0.6110 C   0  0  0  0  0  0  0  0  0  0  0  0
   -5.3200   -1.4600    0.2130 O   0  0  0  0  0  0  0  0  0  0  0  0
   -3.3580   -2.7130   -0.2110 C   0  0  0  0  0  0  0  0  0  0  0  0
   -3.3600   -3.0900    1.2330 C   0  0  0  0  0  0  0  0  0  0  0  0
   -3.2300   -1.9490    2.1860 C   0  0  2  0  0  0  0  0  0  0  0  0
   -1.9790   -1.2460    1.9440 N   0  0  0  0  0  0  0  0  0  0  0  0
   -3.2080   -2.5240    3.5700 C   0  0  0  0  0  0  0  0  0  0  0  0
   -4.1700   -3.1810    4.0340 O   0  0  0  0  0  0  0  0  0  0  0  0
   -2.0900   -2.3220    4.3600 O   0  0  0  0  0  0  0  0  0  0  0  0
   -5.3680   -1.4680   -2.5620 H   0  0  0  0  0  0  0  0  0  0  0  0
   -3.7240   -0.8320   -2.3550 H   0  0  0  0  0  0  0  0  0  0  0  0
   -3.4100   -3.6570   -0.7980 H   0  0  0  0  0  0  0  0  0  0  0  0
   -2.3690   -2.2480   -0.4410 H   0  0  0  0  0  0  0  0  0  0  0  0
   -4.2890   -3.6580    1.5010 H   0  0  0  0  0  0  0  0  0  0  0  0
   -2.4900   -3.7650    1.3980 H   0  0  0  0  0  0  0  0  0  0  0  0
   -4.0850   -1.2680    2.1570 H   0  0  0  0  0  0  0  0  0  0  0  0
   -1.0610   -1.6980    1.9290 H   0  0  0  0  0  0  0  0  0  0  0  0
  1 12  1  0  0  0  0
  1 11  1  0  0  0  0
  2 13  1  6  0  0  0
  2  1  1  0  0  0  0
  3  4  1  0  0  0  0
  3 15  1  0  0  0  0
  3  2  1  0  0  0  0
  4  8  1  0  0  0  0
  5  6  1  0  0  0  0
  5  4  2  0  0  0  0
  6  7  1  0  0  0  0
  7  8  2  0  0  0  0
  7 18  1  0  0  0  0
  9  2  1  0  0  0  0
  9 19  1  0  0  0  0
 10  9  2  0  0  0  0
 14  3  1  0  0  0  0
 16  5  1  0  0  0  0
 17  6  1  0  0  0  0
 19 20  1  0  0  0  0
 19 28  1  0  0  0  0
 20 25  1  0  0  0  0
 20 29  1  1  0  0  0
 21 22  1  0  0  0  0
 21 30  1  0  0  0  0
 21 20  1  0  0  0  0
 22 33  1  0  0  0  0
 22 32  1  0  0  0  0
 23 24  2  0  0  0  0
 23 22  1  0  0  0  0
 25 26  2  0  0  0  0
 25 41  1  0  0  0  0
 27 23  1  0  0  0  0
 31 21  1  0  0  0  0
 34 27  1  0  0  0  0
 35 36  1  0  0  0  0
 36 38  1  0  0  0  0
 36 37  2  0  0  0  0
 38 39  1  0  0  0  0
 39 50  1  0  0  0  0
 39 49  1  0  0  0  0
 39 40  1  0  0  0  0
 40 51  1  6  0  0  0
 40 42  1  0  0  0  0
 41 40  1  0  0  0  0
 42 43  2  0  0  0  0
 42 44  1  0  0  0  0
 45 35  1  0  0  0  0
 46 35  1  0  0  0  0
 47 38  1  0  0  0  0
 48 38  1  0  0  0  0
 52 41  1  0  0  0  0
M  END
$$$$
