HER.pdb
 OpenBabel07022418353D

 58 58  0  0  1  0  0  0  0  0999 V2000
    3.2490   -1.2960   -1.0260 N   0  0  0  0  0  0  0  0  0  0  0  0
    3.7990   -1.0070    0.3030 C   0  0  1  0  0  0  0  0  0  0  0  0
    5.0120   -0.1370    0.2050 C   0  0  0  0  0  0  0  0  0  0  0  0
    5.5470    0.1320    1.5590 C   0  0  0  0  0  0  0  0  0  0  0  0
    6.4770   -0.6650    2.2050 C   0  0  0  0  0  0  0  0  0  0  0  0
    6.7270   -0.1250    3.4020 N   0  0  0  0  0  0  0  0  0  0  0  0
    5.9900    0.9850    3.5390 C   0  0  0  0  0  0  0  0  0  0  0  0
    5.2730    1.1390    2.4150 N   0  0  0  0  0  0  0  0  0  0  0  0
    2.7620   -0.3130    1.1290 C   0  0  0  0  0  0  0  0  0  0  0  0
    2.9260   -0.0200    2.3360 O   0  0  0  0  0  0  0  0  0  0  0  0
    4.0420   -1.7240   -1.5710 H   0  0  0  0  0  0  0  0  0  0  0  0
    2.5590   -2.0840   -0.8590 H   0  0  0  0  0  0  0  0  0  0  0  0
    4.1010   -1.9820    0.7320 H   0  0  0  0  0  0  0  0  0  0  0  0
    5.8000   -0.7200   -0.3570 H   0  0  0  0  0  0  0  0  0  0  0  0
    4.7990    0.8240   -0.3180 H   0  0  0  0  0  0  0  0  0  0  0  0
    6.9520   -1.5790    1.8480 H   0  0  0  0  0  0  0  0  0  0  0  0
    7.3880   -0.4970    4.1280 H   0  0  0  0  0  0  0  0  0  0  0  0
    6.0070    1.6120    4.4200 H   0  0  0  0  0  0  0  0  0  0  0  0
    1.4990    0.0580    0.5640 N   0  0  0  0  0  0  0  0  0  0  0  0
    0.5030    0.7340    1.3960 C   0  0  1  0  0  0  0  0  0  0  0  0
    0.1380    2.0690    0.8320 C   0  0  0  0  0  0  0  0  0  0  0  0
   -0.8700    2.8420    1.6140 C   0  0  0  0  0  0  0  0  0  0  0  0
   -1.1180    4.1380    0.9360 C   0  0  0  0  0  0  0  0  0  0  0  0
   -0.5160    4.4060   -0.1150 O   0  0  0  0  0  0  0  0  0  0  0  0
   -0.6290   -0.2160    1.5120 C   0  0  0  0  0  0  0  0  0  0  0  0
   -1.6760    0.0270    2.1820 O   0  0  0  0  0  0  0  0  0  0  0  0
   -2.0090    5.0790    1.4340 O   0  0  0  0  0  0  0  0  0  0  0  0
    1.2900   -0.1500   -0.4240 H   0  0  0  0  0  0  0  0  0  0  0  0
    0.9100    0.8780    2.4180 H   0  0  0  0  0  0  0  0  0  0  0  0
   -0.2110    1.9100   -0.2190 H   0  0  0  0  0  0  0  0  0  0  0  0
    1.0610    2.6810    0.7360 H   0  0  0  0  0  0  0  0  0  0  0  0
   -0.4780    3.0510    2.6340 H   0  0  0  0  0  0  0  0  0  0  0  0
   -1.8260    2.2870    1.7850 H   0  0  0  0  0  0  0  0  0  0  0  0
   -2.4990    5.7290    0.8170 H   0  0  0  0  0  0  0  0  0  0  0  0
   -5.8110   -0.7440   -2.4910 N   0  0  0  0  0  0  0  0  0  0  0  0
   -5.4720   -2.0740   -2.1590 C   0  0  0  0  0  0  0  0  0  0  0  0
   -6.2780   -2.7650   -1.4400 N   0  0  0  0  0  0  0  0  0  0  0  0
   -4.2740   -2.6990   -2.5820 N   0  0  0  0  0  0  0  0  0  0  0  0
   -3.8290   -3.8730   -1.9180 C   0  0  0  0  0  0  0  0  0  0  0  0
   -3.3760   -3.6590   -0.5030 C   0  0  0  0  0  0  0  0  0  0  0  0
   -2.2170   -2.6930   -0.4170 C   0  0  0  0  0  0  0  0  0  0  0  0
   -1.7340   -2.4380    0.9780 C   0  0  2  0  0  0  0  0  0  0  0  0
   -0.6260   -1.4960    0.8690 N   0  0  0  0  0  0  0  0  0  0  0  0
   -1.2600   -3.6660    1.6650 C   0  0  0  0  0  0  0  0  0  0  0  0
   -0.0470   -3.7470    2.0300 O   0  0  0  0  0  0  0  0  0  0  0  0
   -2.0470   -4.7560    1.9490 O   0  0  0  0  0  0  0  0  0  0  0  0
   -6.2000   -0.4950   -3.4250 H   0  0  0  0  0  0  0  0  0  0  0  0
   -5.6770    0.0340   -1.7940 H   0  0  0  0  0  0  0  0  0  0  0  0
   -7.1630   -2.3280   -1.1190 H   0  0  0  0  0  0  0  0  0  0  0  0
   -3.7420   -2.2900   -3.3690 H   0  0  0  0  0  0  0  0  0  0  0  0
   -2.9510   -4.3270   -2.4620 H   0  0  0  0  0  0  0  0  0  0  0  0
   -4.5860   -4.6960   -1.8920 H   0  0  0  0  0  0  0  0  0  0  0  0
   -4.1820   -3.4150    0.2070 H   0  0  0  0  0  0  0  0  0  0  0  0
   -2.9720   -4.6610   -0.1740 H   0  0  0  0  0  0  0  0  0  0  0  0
   -2.5400   -1.7690   -0.9360 H   0  0  0  0  0  0  0  0  0  0  0  0
   -1.3370   -3.0640   -0.9970 H   0  0  0  0  0  0  0  0  0  0  0  0
   -2.5240   -1.9910    1.6220 H   0  0  0  0  0  0  0  0  0  0  0  0
    0.2130   -1.7500    0.3030 H   0  0  0  0  0  0  0  0  0  0  0  0
  1 12  1  0  0  0  0
  1  2  1  0  0  0  0
  2 13  1  1  0  0  0
  2  9  1  0  0  0  0
  3  2  1  0  0  0  0
  3  4  1  0  0  0  0
  4  5  2  0  0  0  0
  4  8  1  0  0  0  0
  5  6  1  0  0  0  0
  6  7  1  0  0  0  0
  6 17  1  0  0  0  0
  7 18  1  0  0  0  0
  8  7  2  0  0  0  0
  9 10  2  0  0  0  0
 11  1  1  0  0  0  0
 14  3  1  0  0  0  0
 15  3  1  0  0  0  0
 16  5  1  0  0  0  0
 19  9  1  0  0  0  0
 19 20  1  0  0  0  0
 20 25  1  0  0  0  0
 20 29  1  1  0  0  0
 21 20  1  0  0  0  0
 21 22  1  0  0  0  0
 22 33  1  0  0  0  0
 22 32  1  0  0  0  0
 23 27  1  0  0  0  0
 23 22  1  0  0  0  0
 24 23  2  0  0  0  0
 25 26  2  0  0  0  0
 28 19  1  0  0  0  0
 30 21  1  0  0  0  0
 31 21  1  0  0  0  0
 34 27  1  0  0  0  0
 35 36  1  0  0  0  0
 35 48  1  0  0  0  0
 36 37  2  0  0  0  0
 37 49  1  0  0  0  0
 38 36  1  0  0  0  0
 38 39  1  0  0  0  0
 39 52  1  0  0  0  0
 39 40  1  0  0  0  0
 40 41  1  0  0  0  0
 40 54  1  0  0  0  0
 40 53  1  0  0  0  0
 41 42  1  0  0  0  0
 42 57  1  1  0  0  0
 42 44  1  0  0  0  0
 43 42  1  0  0  0  0
 43 25  1  0  0  0  0
 44 46  2  0  0  0  0
 44 45  1  0  0  0  0
 47 35  1  0  0  0  0
 50 38  1  0  0  0  0
 51 39  1  0  0  0  0
 55 41  1  0  0  0  0
 56 41  1  0  0  0  0
 58 43  1  0  0  0  0
M  END
$$$$
