HET.pdb
 OpenBabel07022418363D

 49 49  0  0  1  0  0  0  0  0999 V2000
   -1.9650    3.3580    2.6830 N   0  0  0  0  0  0  0  0  0  0  0  0
   -0.8420    2.7100    1.8950 C   0  0  1  0  0  0  0  0  0  0  0  0
    0.2990    2.8000    2.8430 C   0  0  0  0  0  0  0  0  0  0  0  0
    1.6080    2.3180    2.3980 C   0  0  0  0  0  0  0  0  0  0  0  0
    2.0840    1.8380    1.2150 C   0  0  0  0  0  0  0  0  0  0  0  0
    3.4090    1.5830    1.3850 N   0  0  0  0  0  0  0  0  0  0  0  0
    3.7480    1.8950    2.6350 C   0  0  0  0  0  0  0  0  0  0  0  0
    2.6650    2.3390    3.2520 N   0  0  0  0  0  0  0  0  0  0  0  0
   -1.3510    1.2960    1.7730 C   0  0  0  0  0  0  0  0  0  0  0  0
   -2.1180    0.8690    2.7030 O   0  0  0  0  0  0  0  0  0  0  0  0
   -2.0110    2.7520    3.5430 H   0  0  0  0  0  0  0  0  0  0  0  0
   -2.8340    3.2620    2.1130 H   0  0  0  0  0  0  0  0  0  0  0  0
   -0.7890    3.2470    0.9690 H   0  0  0  0  0  0  0  0  0  0  0  0
    0.0360    2.1970    3.7510 H   0  0  0  0  0  0  0  0  0  0  0  0
    0.4740    3.8650    3.1920 H   0  0  0  0  0  0  0  0  0  0  0  0
    1.5370    1.6950    0.3090 H   0  0  0  0  0  0  0  0  0  0  0  0
    4.0780    1.2050    0.6750 H   0  0  0  0  0  0  0  0  0  0  0  0
    4.7430    1.8040    3.0830 H   0  0  0  0  0  0  0  0  0  0  0  0
   -1.0740    0.4040    0.7420 N   0  0  0  0  0  0  0  0  0  0  0  0
   -1.6390   -0.9500    0.7390 C   0  0  1  0  0  0  0  0  0  0  0  0
   -2.6390   -1.0940   -0.3640 C   0  0  0  0  0  0  0  0  0  0  0  0
   -3.2470   -2.4650   -0.4000 C   0  0  0  0  0  0  0  0  0  0  0  0
   -4.2780   -2.5380   -1.4970 C   0  0  0  0  0  0  0  0  0  0  0  0
   -4.4760   -1.5230   -2.1820 O   0  0  0  0  0  0  0  0  0  0  0  0
   -0.5890   -1.9470    0.6270 C   0  0  0  0  0  0  0  0  0  0  0  0
   -0.8520   -3.1670    0.7460 O   0  0  0  0  0  0  0  0  0  0  0  0
   -4.9710   -3.7000   -1.7220 O   0  0  0  0  0  0  0  0  0  0  0  0
   -0.4740    0.6910   -0.0500 H   0  0  0  0  0  0  0  0  0  0  0  0
   -2.2040   -1.0620    1.6870 H   0  0  0  0  0  0  0  0  0  0  0  0
   -2.1620   -0.9360   -1.3710 H   0  0  0  0  0  0  0  0  0  0  0  0
   -3.5040   -0.3810   -0.2480 H   0  0  0  0  0  0  0  0  0  0  0  0
   -2.4860   -3.2200   -0.7260 H   0  0  0  0  0  0  0  0  0  0  0  0
   -3.7310   -2.7370    0.5490 H   0  0  0  0  0  0  0  0  0  0  0  0
   -5.6440   -3.8180   -2.4790 H   0  0  0  0  0  0  0  0  0  0  0  0
    1.4100   -3.0800   -2.1490 C   0  0  0  0  0  0  0  0  0  0  0  0
    2.4260   -2.7310   -1.1020 C   0  0  1  0  0  0  0  0  0  0  0  0
    3.0300   -1.5040   -1.3210 O   0  0  0  0  0  0  0  0  0  0  0  0
    1.7870   -2.6920    0.2800 C   0  0  2  0  0  0  0  0  0  0  0  0
    0.7970   -1.6490    0.3780 N   0  0  0  0  0  0  0  0  0  0  0  0
    2.8580   -2.5610    1.2880 C   0  0  0  0  0  0  0  0  0  0  0  0
    2.9010   -1.6380    2.1400 O   0  0  0  0  0  0  0  0  0  0  0  0
    3.8640   -3.5130    1.2830 O   0  0  0  0  0  0  0  0  0  0  0  0
    0.4780   -2.5120   -1.9480 H   0  0  0  0  0  0  0  0  0  0  0  0
    1.2240   -4.1760   -2.1400 H   0  0  0  0  0  0  0  0  0  0  0  0
    1.7980   -2.7640   -3.1310 H   0  0  0  0  0  0  0  0  0  0  0  0
    3.2340   -3.4910   -1.0700 H   0  0  0  0  0  0  0  0  0  0  0  0
    3.3370   -1.0930   -0.4530 H   0  0  0  0  0  0  0  0  0  0  0  0
    1.2970   -3.6670    0.4230 H   0  0  0  0  0  0  0  0  0  0  0  0
    1.0260   -0.6420    0.2720 H   0  0  0  0  0  0  0  0  0  0  0  0
  1 11  1  0  0  0  0
  2 13  1  6  0  0  0
  2  1  1  0  0  0  0
  2  3  1  0  0  0  0
  3 15  1  0  0  0  0
  3 14  1  0  0  0  0
  4  3  1  0  0  0  0
  4  8  1  0  0  0  0
  5  6  1  0  0  0  0
  5  4  2  0  0  0  0
  6  7  1  0  0  0  0
  7 18  1  0  0  0  0
  7  8  2  0  0  0  0
  9  2  1  0  0  0  0
  9 10  2  0  0  0  0
 12  1  1  0  0  0  0
 16  5  1  0  0  0  0
 17  6  1  0  0  0  0
 19  9  1  0  0  0  0
 20 19  1  0  0  0  0
 20 29  1  1  0  0  0
 21 31  1  0  0  0  0
 21 20  1  0  0  0  0
 22 21  1  0  0  0  0
 22 33  1  0  0  0  0
 23 22  1  0  0  0  0
 24 23  2  0  0  0  0
 25 20  1  0  0  0  0
 25 26  2  0  0  0  0
 27 23  1  0  0  0  0
 28 19  1  0  0  0  0
 30 21  1  0  0  0  0
 32 22  1  0  0  0  0
 34 27  1  0  0  0  0
 35 44  1  0  0  0  0
 35 43  1  0  0  0  0
 35 36  1  0  0  0  0
 36 46  1  6  0  0  0
 36 38  1  0  0  0  0
 37 36  1  0  0  0  0
 37 47  1  0  0  0  0
 38 39  1  0  0  0  0
 38 48  1  1  0  0  0
 38 40  1  0  0  0  0
 39 25  1  0  0  0  0
 40 41  1  0  0  0  0
 42 40  2  0  0  0  0
 45 35  1  0  0  0  0
 49 39  1  0  0  0  0
M  END
$$$$
