HFA.pdb
 OpenBabel07022418383D

 49 50  0  0  1  0  0  0  0  0999 V2000
    2.1890   -1.2840   -1.0440 N   0  0  0  0  0  0  0  0  0  0  0  0
    1.8590   -1.9840    0.1720 C   0  0  1  0  0  0  0  0  0  0  0  0
    2.9610   -2.0920    1.1640 C   0  0  0  0  0  0  0  0  0  0  0  0
    3.5090   -0.8210    1.6510 C   0  0  0  0  0  0  0  0  0  0  0  0
    4.5410   -0.7860    2.5760 C   0  0  0  0  0  0  0  0  0  0  0  0
    4.8510    0.4740    2.8450 N   0  0  0  0  0  0  0  0  0  0  0  0
    4.0400    1.2380    2.1120 C   0  0  0  0  0  0  0  0  0  0  0  0
    3.2200    0.4600    1.3820 N   0  0  0  0  0  0  0  0  0  0  0  0
    0.5490   -1.5780    0.7470 C   0  0  0  0  0  0  0  0  0  0  0  0
    0.2240   -2.0640    1.8840 O   0  0  0  0  0  0  0  0  0  0  0  0
    1.4910   -1.5850   -1.7740 H   0  0  0  0  0  0  0  0  0  0  0  0
    3.1040   -1.6680   -1.3690 H   0  0  0  0  0  0  0  0  0  0  0  0
    1.6920   -3.0660   -0.1850 H   0  0  0  0  0  0  0  0  0  0  0  0
    3.8140   -2.7080    0.8070 H   0  0  0  0  0  0  0  0  0  0  0  0
    2.5270   -2.6150    2.0670 H   0  0  0  0  0  0  0  0  0  0  0  0
    5.0520   -1.6340    3.0410 H   0  0  0  0  0  0  0  0  0  0  0  0
    5.6010    0.7930    3.5160 H   0  0  0  0  0  0  0  0  0  0  0  0
    4.0650    2.3220    2.1270 H   0  0  0  0  0  0  0  0  0  0  0  0
   -0.3630   -0.6960    0.1220 N   0  0  0  0  0  0  0  0  0  0  0  0
   -1.6220   -0.3620    0.7480 C   0  0  1  0  0  0  0  0  0  0  0  0
   -1.9090    1.0930    0.8540 C   0  0  0  0  0  0  0  0  0  0  0  0
   -0.8840    1.7800    1.6450 C   0  0  0  0  0  0  0  0  0  0  0  0
   -0.9930    1.9040    3.0310 C   0  0  0  0  0  0  0  0  0  0  0  0
   -0.0270    2.5680    3.7500 C   0  0  0  0  0  0  0  0  0  0  0  0
    1.0830    3.1370    3.1590 C   0  0  0  0  0  0  0  0  0  0  0  0
    1.1750    3.0050    1.7900 C   0  0  0  0  0  0  0  0  0  0  0  0
    0.2210    2.3460    1.0500 C   0  0  0  0  0  0  0  0  0  0  0  0
   -2.7500   -1.1000    0.0830 C   0  0  0  0  0  0  0  0  0  0  0  0
   -3.9230   -0.9710    0.4510 O   0  0  0  0  0  0  0  0  0  0  0  0
   -0.1110   -0.2910   -0.8000 H   0  0  0  0  0  0  0  0  0  0  0  0
   -1.5980   -0.8050    1.7830 H   0  0  0  0  0  0  0  0  0  0  0  0
   -2.8750    1.2000    1.4150 H   0  0  0  0  0  0  0  0  0  0  0  0
   -2.0990    1.5800   -0.1270 H   0  0  0  0  0  0  0  0  0  0  0  0
   -1.8730    1.4530    3.4990 H   0  0  0  0  0  0  0  0  0  0  0  0
   -0.1450    2.6460    4.8370 H   0  0  0  0  0  0  0  0  0  0  0  0
    1.8530    3.6620    3.7070 H   0  0  0  0  0  0  0  0  0  0  0  0
    2.0420    3.4430    1.2750 H   0  0  0  0  0  0  0  0  0  0  0  0
    0.3080    2.2490   -0.0440 H   0  0  0  0  0  0  0  0  0  0  0  0
   -3.4150   -2.3950   -3.1970 C   0  0  0  0  0  0  0  0  0  0  0  0
   -3.3930   -2.7300   -1.7260 C   0  0  2  0  0  0  0  0  0  0  0  0
   -2.4520   -1.9540   -0.9820 N   0  0  0  0  0  0  0  0  0  0  0  0
   -3.0740   -4.1620   -1.5930 C   0  0  0  0  0  0  0  0  0  0  0  0
   -3.7690   -5.0290   -2.1630 O   0  0  0  0  0  0  0  0  0  0  0  0
   -1.9960   -4.5530   -0.8300 O   0  0  0  0  0  0  0  0  0  0  0  0
   -4.1380   -1.5530   -3.3850 H   0  0  0  0  0  0  0  0  0  0  0  0
   -2.4340   -2.1770   -3.6170 H   0  0  0  0  0  0  0  0  0  0  0  0
   -3.8520   -3.2760   -3.7210 H   0  0  0  0  0  0  0  0  0  0  0  0
   -4.4160   -2.5620   -1.3400 H   0  0  0  0  0  0  0  0  0  0  0  0
   -1.4380   -2.0460   -1.2770 H   0  0  0  0  0  0  0  0  0  0  0  0
  1  2  1  0  0  0  0
  2 13  1  6  0  0  0
  2  9  1  0  0  0  0
  2  3  1  0  0  0  0
  3  4  1  0  0  0  0
  3 15  1  0  0  0  0
  4  5  2  0  0  0  0
  5  6  1  0  0  0  0
  5 16  1  0  0  0  0
  6 17  1  0  0  0  0
  7 18  1  0  0  0  0
  7  6  1  0  0  0  0
  8  4  1  0  0  0  0
  8  7  2  0  0  0  0
  9 10  2  0  0  0  0
 11  1  1  0  0  0  0
 12  1  1  0  0  0  0
 14  3  1  0  0  0  0
 19  9  1  0  0  0  0
 19 20  1  0  0  0  0
 20 21  1  0  0  0  0
 20 31  1  1  0  0  0
 21 32  1  0  0  0  0
 21 22  1  0  0  0  0
 22 23  1  0  0  0  0
 23 34  1  0  0  0  0
 23 24  2  0  0  0  0
 24 35  1  0  0  0  0
 25 36  1  0  0  0  0
 25 24  1  0  0  0  0
 26 25  2  0  0  0  0
 27 22  2  0  0  0  0
 27 26  1  0  0  0  0
 28 29  2  0  0  0  0
 28 20  1  0  0  0  0
 30 19  1  0  0  0  0
 33 21  1  0  0  0  0
 37 26  1  0  0  0  0
 38 27  1  0  0  0  0
 39 40  1  0  0  0  0
 40 42  1  0  0  0  0
 40 48  1  1  0  0  0
 40 41  1  0  0  0  0
 41 28  1  0  0  0  0
 42 44  1  0  0  0  0
 43 42  2  0  0  0  0
 45 39  1  0  0  0  0
 46 39  1  0  0  0  0
 47 39  1  0  0  0  0
 49 41  1  0  0  0  0
M  END
$$$$
