HFF.pdb
 OpenBabel07022418383D

 59 61  0  0  1  0  0  0  0  0999 V2000
    1.8830    2.6980    2.6900 N   0  0  0  0  0  0  0  0  0  0  0  0
    2.7680    1.8310    1.9360 C   0  0  1  0  0  0  0  0  0  0  0  0
    3.8280    1.3420    2.9020 C   0  0  0  0  0  0  0  0  0  0  0  0
    4.8100    0.4430    2.2810 C   0  0  0  0  0  0  0  0  0  0  0  0
    6.0010    0.7650    1.6680 C   0  0  0  0  0  0  0  0  0  0  0  0
    6.5790   -0.3840    1.2400 N   0  0  0  0  0  0  0  0  0  0  0  0
    5.7710   -1.4110    1.5760 C   0  0  0  0  0  0  0  0  0  0  0  0
    4.7030   -0.8890    2.2060 N   0  0  0  0  0  0  0  0  0  0  0  0
    2.0350    0.7280    1.2840 C   0  0  0  0  0  0  0  0  0  0  0  0
    2.7230   -0.0840    0.5970 O   0  0  0  0  0  0  0  0  0  0  0  0
    1.6710    2.2890    3.6260 H   0  0  0  0  0  0  0  0  0  0  0  0
    2.3650    3.6180    2.8610 H   0  0  0  0  0  0  0  0  0  0  0  0
    3.2890    2.4480    1.1730 H   0  0  0  0  0  0  0  0  0  0  0  0
    3.3460    0.8750    3.8100 H   0  0  0  0  0  0  0  0  0  0  0  0
    4.3200    2.2720    3.3010 H   0  0  0  0  0  0  0  0  0  0  0  0
    6.4530    1.7370    1.5200 H   0  0  0  0  0  0  0  0  0  0  0  0
    7.4850   -0.5060    0.7370 H   0  0  0  0  0  0  0  0  0  0  0  0
    5.9610   -2.4540    1.3690 H   0  0  0  0  0  0  0  0  0  0  0  0
    0.6300    0.5980    1.4300 N   0  0  0  0  0  0  0  0  0  0  0  0
   -0.0400   -0.4840    0.7820 C   0  0  1  0  0  0  0  0  0  0  0  0
   -0.5910   -1.4360    1.8140 C   0  0  0  0  0  0  0  0  0  0  0  0
   -1.5470   -0.8360    2.7400 C   0  0  0  0  0  0  0  0  0  0  0  0
   -2.8990   -0.7730    2.5640 C   0  0  0  0  0  0  0  0  0  0  0  0
   -3.6860   -0.1780    3.5160 C   0  0  0  0  0  0  0  0  0  0  0  0
   -3.1500    0.3730    4.6730 C   0  0  0  0  0  0  0  0  0  0  0  0
   -1.7930    0.3140    4.8580 C   0  0  0  0  0  0  0  0  0  0  0  0
   -1.0050   -0.2780    3.9120 C   0  0  0  0  0  0  0  0  0  0  0  0
   -1.0060   -0.0660   -0.2460 C   0  0  0  0  0  0  0  0  0  0  0  0
   -1.1960    1.1630   -0.4490 O   0  0  0  0  0  0  0  0  0  0  0  0
    0.1650    1.3240    2.0200 H   0  0  0  0  0  0  0  0  0  0  0  0
    0.7290   -1.0770    0.2340 H   0  0  0  0  0  0  0  0  0  0  0  0
   -1.0490   -2.2900    1.2670 H   0  0  0  0  0  0  0  0  0  0  0  0
    0.2830   -1.8550    2.3600 H   0  0  0  0  0  0  0  0  0  0  0  0
   -3.3410   -1.1860    1.6890 H   0  0  0  0  0  0  0  0  0  0  0  0
   -4.7650   -0.1080    3.4120 H   0  0  0  0  0  0  0  0  0  0  0  0
   -3.7520    0.8460    5.4340 H   0  0  0  0  0  0  0  0  0  0  0  0
   -1.3680    0.7400    5.7540 H   0  0  0  0  0  0  0  0  0  0  0  0
    0.0620   -0.3050    4.0930 H   0  0  0  0  0  0  0  0  0  0  0  0
   -1.7160   -1.0370   -1.0020 N   0  0  0  0  0  0  0  0  0  0  0  0
   -2.6810   -0.6670   -2.0340 C   0  0  1  0  0  0  0  0  0  0  0  0
   -2.1550   -1.0240   -3.4070 C   0  0  0  0  0  0  0  0  0  0  0  0
   -1.8830   -2.4510   -3.5720 C   0  0  0  0  0  0  0  0  0  0  0  0
   -0.6150   -2.9080   -3.2500 C   0  0  0  0  0  0  0  0  0  0  0  0
   -0.2840   -4.2470   -3.3800 C   0  0  0  0  0  0  0  0  0  0  0  0
   -1.2070   -5.1720   -3.8370 C   0  0  0  0  0  0  0  0  0  0  0  0
   -2.4590   -4.7280   -4.1560 C   0  0  0  0  0  0  0  0  0  0  0  0
   -2.7790   -3.3850   -4.0220 C   0  0  0  0  0  0  0  0  0  0  0  0
   -4.0080   -1.2280   -1.7820 C   0  0  0  0  0  0  0  0  0  0  0  0
   -4.2280   -1.9490   -0.7790 O   0  0  0  0  0  0  0  0  0  0  0  0
   -5.1060   -1.0120   -2.6140 O   0  0  0  0  0  0  0  0  0  0  0  0
   -1.5030   -2.0350   -0.7720 H   0  0  0  0  0  0  0  0  0  0  0  0
   -2.7560    0.4390   -2.0280 H   0  0  0  0  0  0  0  0  0  0  0  0
   -1.2740   -0.3890   -3.6080 H   0  0  0  0  0  0  0  0  0  0  0  0
   -2.9420   -0.7400   -4.1400 H   0  0  0  0  0  0  0  0  0  0  0  0
    0.1500   -2.2400   -2.8890 H   0  0  0  0  0  0  0  0  0  0  0  0
    0.6960   -4.6370   -3.1370 H   0  0  0  0  0  0  0  0  0  0  0  0
   -0.9430   -6.2300   -3.9390 H   0  0  0  0  0  0  0  0  0  0  0  0
   -3.2090   -5.4440   -4.5210 H   0  0  0  0  0  0  0  0  0  0  0  0
   -3.7580   -3.0760   -4.2790 H   0  0  0  0  0  0  0  0  0  0  0  0
  1 12  1  0  0  0  0
  1 11  1  0  0  0  0
  2 13  1  6  0  0  0
  2  1  1  0  0  0  0
  2  3  1  0  0  0  0
  3 15  1  0  0  0  0
  3 14  1  0  0  0  0
  4  3  1  0  0  0  0
  5  4  2  0  0  0  0
  6  7  1  0  0  0  0
  6  5  1  0  0  0  0
  7  8  2  0  0  0  0
  8  4  1  0  0  0  0
  9 19  1  0  0  0  0
  9  2  1  0  0  0  0
 10  9  2  0  0  0  0
 16  5  1  0  0  0  0
 17  6  1  0  0  0  0
 18  7  1  0  0  0  0
 19 30  1  0  0  0  0
 20 31  1  6  0  0  0
 20 19  1  0  0  0  0
 20 21  1  0  0  0  0
 21 33  1  0  0  0  0
 21 22  1  0  0  0  0
 22 27  1  0  0  0  0
 23 22  2  0  0  0  0
 23 24  1  0  0  0  0
 24 25  2  0  0  0  0
 25 26  1  0  0  0  0
 25 36  1  0  0  0  0
 26 37  1  0  0  0  0
 27 38  1  0  0  0  0
 27 26  2  0  0  0  0
 28 20  1  0  0  0  0
 29 28  2  0  0  0  0
 32 21  1  0  0  0  0
 34 23  1  0  0  0  0
 35 24  1  0  0  0  0
 39 51  1  0  0  0  0
 39 28  1  0  0  0  0
 40 52  1  1  0  0  0
 40 48  1  0  0  0  0
 40 39  1  0  0  0  0
 41 40  1  0  0  0  0
 42 41  1  0  0  0  0
 42 43  1  0  0  0  0
 43 55  1  0  0  0  0
 44 43  2  0  0  0  0
 44 56  1  0  0  0  0
 45 44  1  0  0  0  0
 46 47  1  0  0  0  0
 46 45  2  0  0  0  0
 47 42  2  0  0  0  0
 48 49  1  0  0  0  0
 50 48  2  0  0  0  0
 53 41  1  0  0  0  0
 54 41  1  0  0  0  0
 57 45  1  0  0  0  0
 58 46  1  0  0  0  0
 59 47  1  0  0  0  0
M  END
$$$$
