HFH.pdb
 OpenBabel07022418383D

 56 58  0  0  1  0  0  0  0  0999 V2000
    1.5910   -0.9470    3.8910 N   0  0  0  0  0  0  0  0  0  0  0  0
    1.6320   -0.1830    2.6630 C   0  0  1  0  0  0  0  0  0  0  0  0
    2.9130   -0.5140    1.9260 C   0  0  0  0  0  0  0  0  0  0  0  0
    4.0660   -0.1590    2.7890 C   0  0  0  0  0  0  0  0  0  0  0  0
    4.6810   -1.0020    3.7040 C   0  0  0  0  0  0  0  0  0  0  0  0
    5.6840   -0.3230    4.2910 N   0  0  0  0  0  0  0  0  0  0  0  0
    5.7020    0.9030    3.7680 C   0  0  0  0  0  0  0  0  0  0  0  0
    4.7180    1.0110    2.8510 N   0  0  0  0  0  0  0  0  0  0  0  0
    0.4330   -0.5150    1.8660 C   0  0  0  0  0  0  0  0  0  0  0  0
   -0.3890   -1.3430    2.3180 O   0  0  0  0  0  0  0  0  0  0  0  0
    1.9460   -1.9110    3.7960 H   0  0  0  0  0  0  0  0  0  0  0  0
    0.6580   -0.8780    4.3480 H   0  0  0  0  0  0  0  0  0  0  0  0
    1.6630    0.9100    2.9260 H   0  0  0  0  0  0  0  0  0  0  0  0
    2.9150    0.0780    0.9910 H   0  0  0  0  0  0  0  0  0  0  0  0
    2.9870   -1.6040    1.7320 H   0  0  0  0  0  0  0  0  0  0  0  0
    4.4090   -2.0350    3.9170 H   0  0  0  0  0  0  0  0  0  0  0  0
    6.3360   -0.6730    5.0220 H   0  0  0  0  0  0  0  0  0  0  0  0
    6.3910    1.7160    4.0190 H   0  0  0  0  0  0  0  0  0  0  0  0
    0.1480    0.0550    0.5960 N   0  0  0  0  0  0  0  0  0  0  0  0
   -1.0070   -0.2570   -0.1860 C   0  0  1  0  0  0  0  0  0  0  0  0
   -1.8690    1.0000   -0.3470 C   0  0  0  0  0  0  0  0  0  0  0  0
   -2.2710    1.4510    1.0120 C   0  0  0  0  0  0  0  0  0  0  0  0
   -1.5190    2.3400    1.7570 C   0  0  0  0  0  0  0  0  0  0  0  0
   -1.9120    2.7470    3.0190 C   0  0  0  0  0  0  0  0  0  0  0  0
   -3.0790    2.2750    3.5840 C   0  0  0  0  0  0  0  0  0  0  0  0
   -3.8370    1.3870    2.8480 C   0  0  0  0  0  0  0  0  0  0  0  0
   -3.4370    0.9810    1.5790 C   0  0  0  0  0  0  0  0  0  0  0  0
   -0.6520   -0.8060   -1.5280 C   0  0  0  0  0  0  0  0  0  0  0  0
    0.5610   -0.9370   -1.8340 O   0  0  0  0  0  0  0  0  0  0  0  0
    0.8340    0.7450    0.2210 H   0  0  0  0  0  0  0  0  0  0  0  0
   -1.6280   -1.0060    0.3600 H   0  0  0  0  0  0  0  0  0  0  0  0
   -1.2670    1.8150   -0.8010 H   0  0  0  0  0  0  0  0  0  0  0  0
   -2.7310    0.8190   -0.9890 H   0  0  0  0  0  0  0  0  0  0  0  0
   -0.6010    2.7170    1.3210 H   0  0  0  0  0  0  0  0  0  0  0  0
   -1.3250    3.4470    3.6120 H   0  0  0  0  0  0  0  0  0  0  0  0
   -3.3710    2.6080    4.5810 H   0  0  0  0  0  0  0  0  0  0  0  0
   -4.7500    1.0220    3.2980 H   0  0  0  0  0  0  0  0  0  0  0  0
   -4.0430    0.2890    1.0240 H   0  0  0  0  0  0  0  0  0  0  0  0
   -1.6810   -1.1710   -2.4380 N   0  0  0  0  0  0  0  0  0  0  0  0
   -1.3740   -1.7140   -3.7650 C   0  0  1  0  0  0  0  0  0  0  0  0
   -1.9950   -3.1150   -3.8080 C   0  0  0  0  0  0  0  0  0  0  0  0
   -1.3900   -3.9510   -2.7290 C   0  0  0  0  0  0  0  0  0  0  0  0
   -0.2640   -4.7350   -2.8510 C   0  0  0  0  0  0  0  0  0  0  0  0
   -0.0230   -5.3420   -1.6610 N   0  0  0  0  0  0  0  0  0  0  0  0
   -0.9790   -4.9500   -0.8040 C   0  0  0  0  0  0  0  0  0  0  0  0
   -1.8010   -4.1080   -1.4600 N   0  0  0  0  0  0  0  0  0  0  0  0
   -2.0430   -0.9100   -4.8200 C   0  0  0  0  0  0  0  0  0  0  0  0
   -2.7420    0.0640   -4.5090 O   0  0  0  0  0  0  0  0  0  0  0  0
   -1.8730   -1.2680   -6.1480 O   0  0  0  0  0  0  0  0  0  0  0  0
   -2.6660   -1.0370   -2.1220 H   0  0  0  0  0  0  0  0  0  0  0  0
   -0.2910   -1.7750   -3.9020 H   0  0  0  0  0  0  0  0  0  0  0  0
   -1.8200   -3.6050   -4.7710 H   0  0  0  0  0  0  0  0  0  0  0  0
   -3.0790   -3.0170   -3.6320 H   0  0  0  0  0  0  0  0  0  0  0  0
    0.3280   -4.8520   -3.7290 H   0  0  0  0  0  0  0  0  0  0  0  0
    0.7670   -5.9970   -1.4590 H   0  0  0  0  0  0  0  0  0  0  0  0
   -1.0390   -5.2740    0.2140 H   0  0  0  0  0  0  0  0  0  0  0  0
  1 12  1  0  0  0  0
  2 13  1  1  0  0  0
  2  1  1  0  0  0  0
  3  2  1  0  0  0  0
  3  4  1  0  0  0  0
  4  8  1  0  0  0  0
  4  5  2  0  0  0  0
  5 16  1  0  0  0  0
  5  6  1  0  0  0  0
  6 17  1  0  0  0  0
  7 18  1  0  0  0  0
  7  6  1  0  0  0  0
  8  7  2  0  0  0  0
  9 10  2  0  0  0  0
  9  2  1  0  0  0  0
 11  1  1  0  0  0  0
 14  3  1  0  0  0  0
 15  3  1  0  0  0  0
 19  9  1  0  0  0  0
 20 31  1  1  0  0  0
 20 19  1  0  0  0  0
 21 20  1  0  0  0  0
 21 22  1  0  0  0  0
 22 27  2  0  0  0  0
 22 23  1  0  0  0  0
 23 24  2  0  0  0  0
 24 25  1  0  0  0  0
 24 35  1  0  0  0  0
 25 36  1  0  0  0  0
 26 37  1  0  0  0  0
 26 25  2  0  0  0  0
 27 26  1  0  0  0  0
 28 20  1  0  0  0  0
 29 28  2  0  0  0  0
 30 19  1  0  0  0  0
 32 21  1  0  0  0  0
 33 21  1  0  0  0  0
 34 23  1  0  0  0  0
 38 27  1  0  0  0  0
 39 50  1  0  0  0  0
 39 28  1  0  0  0  0
 40 51  1  6  0  0  0
 40 39  1  0  0  0  0
 41 40  1  0  0  0  0
 41 53  1  0  0  0  0
 41 42  1  0  0  0  0
 42 46  1  0  0  0  0
 43 42  2  0  0  0  0
 43 44  1  0  0  0  0
 44 55  1  0  0  0  0
 44 45  1  0  0  0  0
 45 56  1  0  0  0  0
 46 45  2  0  0  0  0
 47 48  1  0  0  0  0
 47 40  1  0  0  0  0
 49 47  2  0  0  0  0
 52 41  1  0  0  0  0
 54 43  1  0  0  0  0
M  END
$$$$
