HFM.pdb
 OpenBabel07022418383D

 56 57  0  0  1  0  0  0  0  0999 V2000
    3.0320   -0.2920    0.0100 N   0  0  0  0  0  0  0  0  0  0  0  0
    1.8890   -0.5700    0.8270 C   0  0  1  0  0  0  0  0  0  0  0  0
    2.0200    0.2170    2.1150 C   0  0  0  0  0  0  0  0  0  0  0  0
    3.2760   -0.2280    2.7820 C   0  0  0  0  0  0  0  0  0  0  0  0
    3.4020   -1.2710    3.6960 C   0  0  0  0  0  0  0  0  0  0  0  0
    4.6820   -1.3750    4.0790 N   0  0  0  0  0  0  0  0  0  0  0  0
    5.3500   -0.4160    3.4190 C   0  0  0  0  0  0  0  0  0  0  0  0
    4.4990    0.2750    2.6370 N   0  0  0  0  0  0  0  0  0  0  0  0
    0.6070   -0.2490    0.1580 C   0  0  0  0  0  0  0  0  0  0  0  0
    0.5380    0.2180   -1.0030 O   0  0  0  0  0  0  0  0  0  0  0  0
    3.2360    0.7210   -0.1100 H   0  0  0  0  0  0  0  0  0  0  0  0
    3.1190   -0.8600   -0.8370 H   0  0  0  0  0  0  0  0  0  0  0  0
    1.9400   -1.6520    1.1230 H   0  0  0  0  0  0  0  0  0  0  0  0
    1.1560   -0.0580    2.7500 H   0  0  0  0  0  0  0  0  0  0  0  0
    2.0650    1.3120    1.9350 H   0  0  0  0  0  0  0  0  0  0  0  0
    2.6170   -1.9200    4.0650 H   0  0  0  0  0  0  0  0  0  0  0  0
    5.0690   -2.0650    4.7540 H   0  0  0  0  0  0  0  0  0  0  0  0
    6.4160   -0.1800    3.4650 H   0  0  0  0  0  0  0  0  0  0  0  0
   -0.5990   -0.4820    0.8700 N   0  0  0  0  0  0  0  0  0  0  0  0
   -1.9120   -0.2270    0.4030 C   0  0  1  0  0  0  0  0  0  0  0  0
   -2.1140    1.1080   -0.2930 C   0  0  0  0  0  0  0  0  0  0  0  0
   -1.8270    2.2380    0.6380 C   0  0  0  0  0  0  0  0  0  0  0  0
   -0.6420    2.8830    0.7680 C   0  0  0  0  0  0  0  0  0  0  0  0
   -0.4880    3.9150    1.6790 C   0  0  0  0  0  0  0  0  0  0  0  0
   -1.5420    4.2980    2.4670 C   0  0  0  0  0  0  0  0  0  0  0  0
   -2.7570    3.6620    2.3570 C   0  0  0  0  0  0  0  0  0  0  0  0
   -2.9010    2.6400    1.4510 C   0  0  0  0  0  0  0  0  0  0  0  0
   -2.5530   -1.3050   -0.3710 C   0  0  0  0  0  0  0  0  0  0  0  0
   -3.7220   -1.0800   -0.7890 O   0  0  0  0  0  0  0  0  0  0  0  0
   -0.4730   -0.8920    1.8480 H   0  0  0  0  0  0  0  0  0  0  0  0
   -2.5510   -0.1080    1.3580 H   0  0  0  0  0  0  0  0  0  0  0  0
   -3.1800    1.1960   -0.5870 H   0  0  0  0  0  0  0  0  0  0  0  0
   -1.5480    1.1940   -1.2450 H   0  0  0  0  0  0  0  0  0  0  0  0
    0.1920    2.5980    0.1490 H   0  0  0  0  0  0  0  0  0  0  0  0
    0.5010    4.3870    1.7260 H   0  0  0  0  0  0  0  0  0  0  0  0
   -1.4220    5.0990    3.1750 H   0  0  0  0  0  0  0  0  0  0  0  0
   -3.6250    3.9430    2.9720 H   0  0  0  0  0  0  0  0  0  0  0  0
   -3.8530    2.1410    1.3640 H   0  0  0  0  0  0  0  0  0  0  0  0
    0.6810   -2.0690   -3.3030 C   0  0  0  0  0  0  0  0  0  0  0  0
    0.5930   -3.3900   -2.0340 S   0  0  0  0  0  0  0  0  0  0  0  0
   -0.5930   -4.6000   -2.6320 C   0  0  0  0  0  0  0  0  0  0  0  0
   -1.9610   -4.0290   -2.6800 C   0  0  0  0  0  0  0  0  0  0  0  0
   -2.5740   -3.5820   -1.4100 C   0  0  2  0  0  0  0  0  0  0  0  0
   -1.9310   -2.5620   -0.6640 N   0  0  0  0  0  0  0  0  0  0  0  0
   -2.7170   -4.7920   -0.5270 C   0  0  0  0  0  0  0  0  0  0  0  0
   -3.2620   -5.8300   -0.9740 O   0  0  0  0  0  0  0  0  0  0  0  0
   -2.2620   -4.8050    0.7820 O   0  0  0  0  0  0  0  0  0  0  0  0
    0.5930   -2.5800   -4.3000 H   0  0  0  0  0  0  0  0  0  0  0  0
    1.6670   -1.5860   -3.1740 H   0  0  0  0  0  0  0  0  0  0  0  0
   -0.1460   -1.3390   -3.1610 H   0  0  0  0  0  0  0  0  0  0  0  0
   -0.5290   -5.5640   -2.0790 H   0  0  0  0  0  0  0  0  0  0  0  0
   -0.3310   -4.8930   -3.6940 H   0  0  0  0  0  0  0  0  0  0  0  0
   -2.6380   -4.8450   -3.0880 H   0  0  0  0  0  0  0  0  0  0  0  0
   -1.9600   -3.2480   -3.4780 H   0  0  0  0  0  0  0  0  0  0  0  0
   -3.6560   -3.2610   -1.5850 H   0  0  0  0  0  0  0  0  0  0  0  0
   -0.9790   -2.6970   -0.2860 H   0  0  0  0  0  0  0  0  0  0  0  0
  1  2  1  0  0  0  0
  2 13  1  1  0  0  0
  2  3  1  0  0  0  0
  3 14  1  0  0  0  0
  3  4  1  0  0  0  0
  4  5  2  0  0  0  0
  5 16  1  0  0  0  0
  5  6  1  0  0  0  0
  6 17  1  0  0  0  0
  7 18  1  0  0  0  0
  7  6  1  0  0  0  0
  8  4  1  0  0  0  0
  8  7  2  0  0  0  0
  9  2  1  0  0  0  0
  9 19  1  0  0  0  0
 10  9  2  0  0  0  0
 11  1  1  0  0  0  0
 12  1  1  0  0  0  0
 15  3  1  0  0  0  0
 19 30  1  0  0  0  0
 20 19  1  0  0  0  0
 20 31  1  1  0  0  0
 21 20  1  0  0  0  0
 21 22  1  0  0  0  0
 22 23  2  0  0  0  0
 22 27  1  0  0  0  0
 23 24  1  0  0  0  0
 24 35  1  0  0  0  0
 24 25  2  0  0  0  0
 25 36  1  0  0  0  0
 26 25  1  0  0  0  0
 26 37  1  0  0  0  0
 27 26  2  0  0  0  0
 28 20  1  0  0  0  0
 29 28  2  0  0  0  0
 32 21  1  0  0  0  0
 33 21  1  0  0  0  0
 34 23  1  0  0  0  0
 38 27  1  0  0  0  0
 39 49  1  0  0  0  0
 39 50  1  0  0  0  0
 39 40  1  0  0  0  0
 41 51  1  0  0  0  0
 41 40  1  0  0  0  0
 42 41  1  0  0  0  0
 42 43  1  0  0  0  0
 43 55  1  6  0  0  0
 43 44  1  0  0  0  0
 43 45  1  0  0  0  0
 44 28  1  0  0  0  0
 44 56  1  0  0  0  0
 45 47  1  0  0  0  0
 46 45  2  0  0  0  0
 48 39  1  0  0  0  0
 52 41  1  0  0  0  0
 53 42  1  0  0  0  0
 54 42  1  0  0  0  0
M  END
$$$$
