HFN.pdb
 OpenBabel07022418383D

 53 54  0  0  1  0  0  0  0  0999 V2000
    1.8370    1.0510    2.7840 N   0  0  0  0  0  0  0  0  0  0  0  0
    2.6890    0.9960    1.6120 C   0  0  1  0  0  0  0  0  0  0  0  0
    3.9770    0.3080    2.0170 C   0  0  0  0  0  0  0  0  0  0  0  0
    4.6420    1.0690    3.0960 C   0  0  0  0  0  0  0  0  0  0  0  0
    5.8290    0.7600    3.7200 C   0  0  0  0  0  0  0  0  0  0  0  0
    6.0960    1.7180    4.6610 N   0  0  0  0  0  0  0  0  0  0  0  0
    5.0900    2.5950    4.6130 C   0  0  0  0  0  0  0  0  0  0  0  0
    4.2160    2.2070    3.6740 N   0  0  0  0  0  0  0  0  0  0  0  0
    1.9800    0.2450    0.5450 C   0  0  0  0  0  0  0  0  0  0  0  0
    2.5350    0.0510   -0.5870 O   0  0  0  0  0  0  0  0  0  0  0  0
    1.0100    1.6480    2.6650 H   0  0  0  0  0  0  0  0  0  0  0  0
    1.6450    0.0860    3.1230 H   0  0  0  0  0  0  0  0  0  0  0  0
    2.8620    2.0270    1.2720 H   0  0  0  0  0  0  0  0  0  0  0  0
    4.6680    0.3120    1.1400 H   0  0  0  0  0  0  0  0  0  0  0  0
    3.8140   -0.7420    2.2870 H   0  0  0  0  0  0  0  0  0  0  0  0
    6.4930   -0.0760    3.5500 H   0  0  0  0  0  0  0  0  0  0  0  0
    6.9480    1.7360    5.2940 H   0  0  0  0  0  0  0  0  0  0  0  0
    4.9930    3.4670    5.2220 H   0  0  0  0  0  0  0  0  0  0  0  0
    0.6730   -0.2870    0.7210 N   0  0  0  0  0  0  0  0  0  0  0  0
   -0.0320   -1.0260   -0.3230 C   0  0  1  0  0  0  0  0  0  0  0  0
   -0.2260   -2.4530    0.0980 C   0  0  0  0  0  0  0  0  0  0  0  0
   -0.9860   -2.6410    1.3180 C   0  0  0  0  0  0  0  0  0  0  0  0
   -2.3460   -2.7820    1.3220 C   0  0  0  0  0  0  0  0  0  0  0  0
   -3.0550   -2.9610    2.5150 C   0  0  0  0  0  0  0  0  0  0  0  0
   -2.3730   -2.9980    3.7220 C   0  0  0  0  0  0  0  0  0  0  0  0
   -1.0210   -2.8590    3.7180 C   0  0  0  0  0  0  0  0  0  0  0  0
   -0.3170   -2.6800    2.5240 C   0  0  0  0  0  0  0  0  0  0  0  0
   -1.2300   -0.3370   -0.7900 C   0  0  0  0  0  0  0  0  0  0  0  0
   -1.6150    0.7530   -0.2880 O   0  0  0  0  0  0  0  0  0  0  0  0
    0.2380   -0.1150    1.6630 H   0  0  0  0  0  0  0  0  0  0  0  0
    0.6880   -1.0530   -1.1940 H   0  0  0  0  0  0  0  0  0  0  0  0
   -0.7570   -2.9810   -0.7400 H   0  0  0  0  0  0  0  0  0  0  0  0
    0.7740   -2.9280    0.1540 H   0  0  0  0  0  0  0  0  0  0  0  0
   -2.8650   -2.7520    0.3890 H   0  0  0  0  0  0  0  0  0  0  0  0
   -4.1230   -3.0690    2.4950 H   0  0  0  0  0  0  0  0  0  0  0  0
   -2.9170   -3.1380    4.6620 H   0  0  0  0  0  0  0  0  0  0  0  0
   -0.4790   -2.8860    4.6410 H   0  0  0  0  0  0  0  0  0  0  0  0
    0.7550   -2.5770    2.6100 H   0  0  0  0  0  0  0  0  0  0  0  0
   -3.6780   -1.5750   -5.3730 N   0  0  0  0  0  0  0  0  0  0  0  0
   -2.6770   -0.9700   -4.5790 C   0  0  0  0  0  0  0  0  0  0  0  0
   -1.4870   -1.4140   -4.5340 O   0  0  0  0  0  0  0  0  0  0  0  0
   -2.9670    0.2270   -3.7520 C   0  0  0  0  0  0  0  0  0  0  0  0
   -3.1910   -0.2210   -2.3180 C   0  0  2  0  0  0  0  0  0  0  0  0
   -2.0130   -0.8750   -1.8370 N   0  0  0  0  0  0  0  0  0  0  0  0
   -4.3560   -1.1240   -2.3420 C   0  0  0  0  0  0  0  0  0  0  0  0
   -5.4780   -0.7060   -2.7240 O   0  0  0  0  0  0  0  0  0  0  0  0
   -4.2450   -2.4460   -1.9480 O   0  0  0  0  0  0  0  0  0  0  0  0
   -3.9830   -1.0830   -6.2370 H   0  0  0  0  0  0  0  0  0  0  0  0
   -4.1230   -2.4810   -5.1420 H   0  0  0  0  0  0  0  0  0  0  0  0
   -3.8440    0.7660   -4.1560 H   0  0  0  0  0  0  0  0  0  0  0  0
   -2.0880    0.9260   -3.7110 H   0  0  0  0  0  0  0  0  0  0  0  0
   -3.4160    0.6570   -1.6750 H   0  0  0  0  0  0  0  0  0  0  0  0
   -1.6890   -1.7820   -2.2470 H   0  0  0  0  0  0  0  0  0  0  0  0
  1 12  1  0  0  0  0
  2 13  1  6  0  0  0
  2  3  1  0  0  0  0
  2  1  1  0  0  0  0
  3 15  1  0  0  0  0
  3  4  1  0  0  0  0
  4  8  1  0  0  0  0
  4  5  2  0  0  0  0
  5  6  1  0  0  0  0
  6 17  1  0  0  0  0
  7  6  1  0  0  0  0
  7 18  1  0  0  0  0
  8  7  2  0  0  0  0
  9 19  1  0  0  0  0
  9  2  1  0  0  0  0
 10  9  2  0  0  0  0
 11  1  1  0  0  0  0
 14  3  1  0  0  0  0
 16  5  1  0  0  0  0
 19 30  1  0  0  0  0
 20 31  1  6  0  0  0
 20 21  1  0  0  0  0
 20 19  1  0  0  0  0
 21 33  1  0  0  0  0
 21 22  1  0  0  0  0
 22 23  2  0  0  0  0
 22 27  1  0  0  0  0
 23 24  1  0  0  0  0
 24 25  2  0  0  0  0
 25 36  1  0  0  0  0
 26 25  1  0  0  0  0
 26 37  1  0  0  0  0
 27 38  1  0  0  0  0
 27 26  2  0  0  0  0
 28 20  1  0  0  0  0
 28 29  2  0  0  0  0
 32 21  1  0  0  0  0
 34 23  1  0  0  0  0
 35 24  1  0  0  0  0
 39 49  1  0  0  0  0
 39 40  1  0  0  0  0
 40 41  2  0  0  0  0
 40 42  1  0  0  0  0
 42 51  1  0  0  0  0
 42 43  1  0  0  0  0
 43 44  1  0  0  0  0
 43 52  1  1  0  0  0
 44 28  1  0  0  0  0
 45 43  1  0  0  0  0
 45 47  1  0  0  0  0
 46 45  2  0  0  0  0
 48 39  1  0  0  0  0
 50 42  1  0  0  0  0
 53 44  1  0  0  0  0
M  END
$$$$
