HFR.pdb
 OpenBabel07022418383D

 62 63  0  0  1  0  0  0  0  0999 V2000
   -0.3770    1.5090    2.9440 N   0  0  0  0  0  0  0  0  0  0  0  0
    1.0030    1.7340    2.6420 C   0  0  1  0  0  0  0  0  0  0  0  0
    1.7610    1.8040    3.9380 C   0  0  0  0  0  0  0  0  0  0  0  0
    3.2250    2.0340    3.7580 C   0  0  0  0  0  0  0  0  0  0  0  0
    3.8880    3.2390    3.6910 C   0  0  0  0  0  0  0  0  0  0  0  0
    5.1860    2.9570    3.5250 N   0  0  0  0  0  0  0  0  0  0  0  0
    5.3900    1.6340    3.4820 C   0  0  0  0  0  0  0  0  0  0  0  0
    4.1740    1.0910    3.6270 N   0  0  0  0  0  0  0  0  0  0  0  0
    1.5820    0.8140    1.6560 C   0  0  0  0  0  0  0  0  0  0  0  0
    2.8030    1.0340    1.3460 O   0  0  0  0  0  0  0  0  0  0  0  0
   -0.4920    0.6340    3.5060 H   0  0  0  0  0  0  0  0  0  0  0  0
   -0.6890    2.2970    3.5730 H   0  0  0  0  0  0  0  0  0  0  0  0
    1.0730    2.7680    2.1890 H   0  0  0  0  0  0  0  0  0  0  0  0
    1.5980    0.9180    4.5860 H   0  0  0  0  0  0  0  0  0  0  0  0
    1.3870    2.6780    4.5180 H   0  0  0  0  0  0  0  0  0  0  0  0
    3.4420    4.2460    3.7600 H   0  0  0  0  0  0  0  0  0  0  0  0
    5.9500    3.6800    3.4380 H   0  0  0  0  0  0  0  0  0  0  0  0
    6.3550    1.1740    3.3550 H   0  0  0  0  0  0  0  0  0  0  0  0
    0.8800   -0.2650    1.0520 N   0  0  0  0  0  0  0  0  0  0  0  0
    1.5560   -1.0960    0.0990 C   0  0  1  0  0  0  0  0  0  0  0  0
    1.7420   -2.5150    0.5490 C   0  0  0  0  0  0  0  0  0  0  0  0
    0.5670   -3.2970    0.8470 C   0  0  0  0  0  0  0  0  0  0  0  0
   -0.0660   -3.4050    2.0600 C   0  0  0  0  0  0  0  0  0  0  0  0
   -1.1820   -4.1800    2.2530 C   0  0  0  0  0  0  0  0  0  0  0  0
   -1.7320   -4.9080    1.1930 C   0  0  0  0  0  0  0  0  0  0  0  0
   -1.1170   -4.8180   -0.0360 C   0  0  0  0  0  0  0  0  0  0  0  0
   -0.0050   -4.0350   -0.1900 C   0  0  0  0  0  0  0  0  0  0  0  0
    0.9830   -0.9870   -1.2660 C   0  0  0  0  0  0  0  0  0  0  0  0
    1.4850   -1.6680   -2.1950 O   0  0  0  0  0  0  0  0  0  0  0  0
   -0.1160   -0.3960    1.3440 H   0  0  0  0  0  0  0  0  0  0  0  0
    2.5860   -0.6920   -0.0010 H   0  0  0  0  0  0  0  0  0  0  0  0
    2.3280   -3.0240   -0.2600 H   0  0  0  0  0  0  0  0  0  0  0  0
    2.4700   -2.4730    1.4140 H   0  0  0  0  0  0  0  0  0  0  0  0
    0.3370   -2.8580    2.8820 H   0  0  0  0  0  0  0  0  0  0  0  0
   -1.6880   -4.2730    3.2050 H   0  0  0  0  0  0  0  0  0  0  0  0
   -2.6120   -5.5120    1.3670 H   0  0  0  0  0  0  0  0  0  0  0  0
   -1.5390   -5.3850   -0.8810 H   0  0  0  0  0  0  0  0  0  0  0  0
    0.4410   -4.0030   -1.1940 H   0  0  0  0  0  0  0  0  0  0  0  0
   -4.4380   -0.2970    0.7000 N   0  0  0  0  0  0  0  0  0  0  0  0
   -4.2610   -1.4500   -0.1040 C   0  0  0  0  0  0  0  0  0  0  0  0
   -3.9430   -2.5790    0.4610 N   0  0  0  0  0  0  0  0  0  0  0  0
   -4.4130   -1.4330   -1.5130 N   0  0  0  0  0  0  0  0  0  0  0  0
   -3.6820   -2.3150   -2.3880 C   0  0  0  0  0  0  0  0  0  0  0  0
   -2.1910   -1.9680   -2.3990 C   0  0  0  0  0  0  0  0  0  0  0  0
   -2.0930   -0.5430   -2.8860 C   0  0  0  0  0  0  0  0  0  0  0  0
   -0.6530   -0.0630   -2.9470 C   0  0  2  0  0  0  0  0  0  0  0  0
   -0.1130   -0.1520   -1.6110 N   0  0  0  0  0  0  0  0  0  0  0  0
   -0.6710    1.3010   -3.4780 C   0  0  0  0  0  0  0  0  0  0  0  0
   -0.2480    2.2600   -2.7960 O   0  0  0  0  0  0  0  0  0  0  0  0
   -1.1640    1.5200   -4.7530 O   0  0  0  0  0  0  0  0  0  0  0  0
   -4.2890   -0.3090    1.7240 H   0  0  0  0  0  0  0  0  0  0  0  0
   -4.7310    0.6030    0.2430 H   0  0  0  0  0  0  0  0  0  0  0  0
   -3.8210   -2.6280    1.5030 H   0  0  0  0  0  0  0  0  0  0  0  0
   -5.0840   -0.7510   -1.9250 H   0  0  0  0  0  0  0  0  0  0  0  0
   -4.0250   -2.2680   -3.4290 H   0  0  0  0  0  0  0  0  0  0  0  0
   -3.8300   -3.3620   -2.0390 H   0  0  0  0  0  0  0  0  0  0  0  0
   -1.8300   -2.0750   -1.3570 H   0  0  0  0  0  0  0  0  0  0  0  0
   -1.6680   -2.6630   -3.0680 H   0  0  0  0  0  0  0  0  0  0  0  0
   -2.6520    0.0800   -2.1310 H   0  0  0  0  0  0  0  0  0  0  0  0
   -2.6270   -0.4380   -3.8380 H   0  0  0  0  0  0  0  0  0  0  0  0
   -0.1370   -0.7120   -3.6670 H   0  0  0  0  0  0  0  0  0  0  0  0
   -0.5300    0.4140   -0.8440 H   0  0  0  0  0  0  0  0  0  0  0  0
  1 11  1  0  0  0  0
  1 12  1  0  0  0  0
  2 13  1  6  0  0  0
  2  1  1  0  0  0  0
  2  3  1  0  0  0  0
  3 15  1  0  0  0  0
  3 14  1  0  0  0  0
  4  3  1  0  0  0  0
  5  4  2  0  0  0  0
  5 16  1  0  0  0  0
  6  5  1  0  0  0  0
  7  6  1  0  0  0  0
  7  8  2  0  0  0  0
  8  4  1  0  0  0  0
  9  2  1  0  0  0  0
 10  9  2  0  0  0  0
 17  6  1  0  0  0  0
 18  7  1  0  0  0  0
 19 30  1  0  0  0  0
 19  9  1  0  0  0  0
 20 31  1  6  0  0  0
 20 21  1  0  0  0  0
 20 19  1  0  0  0  0
 21 22  1  0  0  0  0
 21 33  1  0  0  0  0
 22 23  1  0  0  0  0
 23 24  2  0  0  0  0
 23 34  1  0  0  0  0
 24 35  1  0  0  0  0
 25 36  1  0  0  0  0
 25 24  1  0  0  0  0
 26 25  2  0  0  0  0
 27 26  1  0  0  0  0
 27 22  2  0  0  0  0
 28 20  1  0  0  0  0
 29 28  2  0  0  0  0
 32 21  1  0  0  0  0
 37 26  1  0  0  0  0
 38 27  1  0  0  0  0
 39 51  1  0  0  0  0
 40 41  2  0  0  0  0
 40 39  1  0  0  0  0
 41 53  1  0  0  0  0
 42 40  1  0  0  0  0
 43 56  1  0  0  0  0
 43 42  1  0  0  0  0
 44 43  1  0  0  0  0
 44 57  1  0  0  0  0
 45 44  1  0  0  0  0
 45 59  1  0  0  0  0
 46 61  1  6  0  0  0
 46 45  1  0  0  0  0
 46 47  1  0  0  0  0
 47 28  1  0  0  0  0
 47 62  1  0  0  0  0
 48 46  1  0  0  0  0
 48 49  1  0  0  0  0
 50 48  2  0  0  0  0
 52 39  1  0  0  0  0
 54 42  1  0  0  0  0
 55 43  1  0  0  0  0
 58 44  1  0  0  0  0
 60 45  1  0  0  0  0
M  END
$$$$
