HGC.pdb
 OpenBabel07022418363D

 37 37  0  0  1  0  0  0  0  0999 V2000
   -1.5390   -3.0430   -1.0360 N   0  0  0  0  0  0  0  0  0  0  0  0
   -0.4530   -2.7880   -0.0780 C   0  0  1  0  0  0  0  0  0  0  0  0
    0.6150   -3.8300   -0.1880 C   0  0  0  0  0  0  0  0  0  0  0  0
    1.7010   -3.5660    0.7830 C   0  0  0  0  0  0  0  0  0  0  0  0
    1.7670   -4.0430    2.1010 C   0  0  0  0  0  0  0  0  0  0  0  0
    2.9000   -3.5900    2.6590 N   0  0  0  0  0  0  0  0  0  0  0  0
    3.5650   -2.8450    1.7650 C   0  0  0  0  0  0  0  0  0  0  0  0
    2.8290   -2.8440    0.6470 N   0  0  0  0  0  0  0  0  0  0  0  0
    0.1330   -1.4380   -0.3270 C   0  0  0  0  0  0  0  0  0  0  0  0
    1.0360   -0.9330    0.3810 O   0  0  0  0  0  0  0  0  0  0  0  0
   -2.0040   -3.9270   -0.6770 H   0  0  0  0  0  0  0  0  0  0  0  0
   -2.2580   -2.2870   -0.8280 H   0  0  0  0  0  0  0  0  0  0  0  0
   -0.9140   -2.8750    0.9270 H   0  0  0  0  0  0  0  0  0  0  0  0
    0.1560   -4.8170    0.1100 H   0  0  0  0  0  0  0  0  0  0  0  0
    0.9970   -3.9510   -1.2240 H   0  0  0  0  0  0  0  0  0  0  0  0
    1.0030   -4.6730    2.5530 H   0  0  0  0  0  0  0  0  0  0  0  0
    3.2460   -3.7680    3.6370 H   0  0  0  0  0  0  0  0  0  0  0  0
    4.5180   -2.3560    1.9590 H   0  0  0  0  0  0  0  0  0  0  0  0
   -0.3200   -0.6220   -1.4230 N   0  0  0  0  0  0  0  0  0  0  0  0
    0.2300    0.6860   -1.6630 C   0  0  0  0  0  0  0  0  0  0  0  0
   -0.0150    1.6590   -0.5720 C   0  0  0  0  0  0  0  0  0  0  0  0
    0.4580    2.8420   -0.6340 O   0  0  0  0  0  0  0  0  0  0  0  0
   -1.0610   -1.0050   -2.0420 H   0  0  0  0  0  0  0  0  0  0  0  0
   -0.2800    1.1210   -2.5690 H   0  0  0  0  0  0  0  0  0  0  0  0
    1.3120    0.6400   -1.9380 H   0  0  0  0  0  0  0  0  0  0  0  0
   -0.7710    1.3920    0.6060 N   0  0  0  0  0  0  0  0  0  0  0  0
   -0.9680    2.3920    1.6390 C   0  0  1  0  0  0  0  0  0  0  0  0
    0.3150    2.7140    2.3620 C   0  0  0  0  0  0  0  0  0  0  0  0
    1.0130    1.2470    3.1680 S   0  0  0  0  0  0  0  0  0  0  0  0
   -1.6470    3.5770    1.1080 C   0  0  0  0  0  0  0  0  0  0  0  0
   -1.9850    3.6070   -0.1010 O   0  0  0  0  0  0  0  0  0  0  0  0
   -1.9470    4.6950    1.8700 O   0  0  0  0  0  0  0  0  0  0  0  0
   -1.2070    0.4390    0.7120 H   0  0  0  0  0  0  0  0  0  0  0  0
   -1.6550    1.9210    2.4030 H   0  0  0  0  0  0  0  0  0  0  0  0
    1.0860    3.0440    1.6070 H   0  0  0  0  0  0  0  0  0  0  0  0
    0.1930    3.4820    3.1250 H   0  0  0  0  0  0  0  0  0  0  0  0
   -0.0430    0.4640    3.7130 H   0  0  0  0  0  0  0  0  0  0  0  0
  1 12  1  0  0  0  0
  1 11  1  0  0  0  0
  1  2  1  0  0  0  0
  2 13  1  1  0  0  0
  3  2  1  0  0  0  0
  3 14  1  0  0  0  0
  3  4  1  0  0  0  0
  4  5  2  0  0  0  0
  5 16  1  0  0  0  0
  5  6  1  0  0  0  0
  6 17  1  0  0  0  0
  7 18  1  0  0  0  0
  7  6  1  0  0  0  0
  8  4  1  0  0  0  0
  8  7  2  0  0  0  0
  9  2  1  0  0  0  0
  9 10  2  0  0  0  0
 15  3  1  0  0  0  0
 19  9  1  0  0  0  0
 20 19  1  0  0  0  0
 20 21  1  0  0  0  0
 21 26  1  0  0  0  0
 22 21  2  0  0  0  0
 23 19  1  0  0  0  0
 24 20  1  0  0  0  0
 25 20  1  0  0  0  0
 26 33  1  0  0  0  0
 26 27  1  0  0  0  0
 27 28  1  0  0  0  0
 27 34  1  1  0  0  0
 28 36  1  0  0  0  0
 28 29  1  0  0  0  0
 29 37  1  0  0  0  0
 30 27  1  0  0  0  0
 30 32  1  0  0  0  0
 31 30  2  0  0  0  0
 35 28  1  0  0  0  0
M  END
$$$$
