HGL.pdb
 OpenBabel07022418363D

 45 45  0  0  1  0  0  0  0  0999 V2000
    1.8540   -3.3420   -1.4910 N   0  0  0  0  0  0  0  0  0  0  0  0
    0.5270   -3.4700   -0.9700 C   0  0  1  0  0  0  0  0  0  0  0  0
    0.5160   -3.9620    0.4350 C   0  0  0  0  0  0  0  0  0  0  0  0
    1.2400   -3.1140    1.4010 C   0  0  0  0  0  0  0  0  0  0  0  0
    1.3230   -3.4150    2.7440 C   0  0  0  0  0  0  0  0  0  0  0  0
    2.0390   -2.4650    3.3600 N   0  0  0  0  0  0  0  0  0  0  0  0
    2.4140   -1.5700    2.4530 C   0  0  0  0  0  0  0  0  0  0  0  0
    1.9240   -1.9690    1.2550 N   0  0  0  0  0  0  0  0  0  0  0  0
   -0.3590   -2.3150   -1.2380 C   0  0  0  0  0  0  0  0  0  0  0  0
   -1.5600   -2.3520   -0.8200 O   0  0  0  0  0  0  0  0  0  0  0  0
    2.5610   -3.7920   -0.8440 H   0  0  0  0  0  0  0  0  0  0  0  0
    1.9970   -3.8240   -2.4130 H   0  0  0  0  0  0  0  0  0  0  0  0
    0.0550   -4.3220   -1.5780 H   0  0  0  0  0  0  0  0  0  0  0  0
    0.9560   -4.9820    0.5100 H   0  0  0  0  0  0  0  0  0  0  0  0
   -0.5660   -4.0080    0.7480 H   0  0  0  0  0  0  0  0  0  0  0  0
    0.8800   -4.2880    3.2430 H   0  0  0  0  0  0  0  0  0  0  0  0
    2.2400   -2.4750    4.3850 H   0  0  0  0  0  0  0  0  0  0  0  0
    3.0090   -0.6800    2.6520 H   0  0  0  0  0  0  0  0  0  0  0  0
    0.0650   -1.1470   -1.9530 N   0  0  0  0  0  0  0  0  0  0  0  0
   -0.7540   -0.0190   -2.2330 C   0  0  0  0  0  0  0  0  0  0  0  0
   -1.2280    0.7000   -1.0420 C   0  0  0  0  0  0  0  0  0  0  0  0
   -2.0090    1.6950   -1.2280 O   0  0  0  0  0  0  0  0  0  0  0  0
    1.0820   -1.1840   -2.2760 H   0  0  0  0  0  0  0  0  0  0  0  0
   -1.6090   -0.3110   -2.8960 H   0  0  0  0  0  0  0  0  0  0  0  0
   -0.1520    0.6950   -2.8550 H   0  0  0  0  0  0  0  0  0  0  0  0
    1.5380    1.8730    0.8320 C   0  0  0  0  0  0  0  0  0  0  0  0
    0.7210    2.3800    1.9790 C   0  0  0  0  0  0  0  0  0  0  0  0
    1.0970    1.6260    3.2380 C   0  0  0  0  0  0  0  0  0  0  0  0
   -0.7500    2.3950    1.7340 C   0  0  0  0  0  0  0  0  0  0  0  0
   -1.3650    1.0770    1.4430 C   0  0  2  0  0  0  0  0  0  0  0  0
   -0.8880    0.3820    0.2910 N   0  0  0  0  0  0  0  0  0  0  0  0
   -2.8680    1.1450    1.4240 C   0  0  0  0  0  0  0  0  0  0  0  0
   -3.4910    1.7660    2.3140 O   0  0  0  0  0  0  0  0  0  0  0  0
   -3.5740    0.5200    0.4230 O   0  0  0  0  0  0  0  0  0  0  0  0
    2.5460    2.3780    0.8510 H   0  0  0  0  0  0  0  0  0  0  0  0
    1.1140    2.1190   -0.1650 H   0  0  0  0  0  0  0  0  0  0  0  0
    1.7630    0.7970    0.8890 H   0  0  0  0  0  0  0  0  0  0  0  0
    1.0230    3.4620    2.1170 H   0  0  0  0  0  0  0  0  0  0  0  0
    0.6630    0.6190    3.2350 H   0  0  0  0  0  0  0  0  0  0  0  0
    0.8030    2.1970    4.1430 H   0  0  0  0  0  0  0  0  0  0  0  0
    2.1980    1.5190    3.2790 H   0  0  0  0  0  0  0  0  0  0  0  0
   -0.9200    3.0740    0.8630 H   0  0  0  0  0  0  0  0  0  0  0  0
   -1.2150    2.8950    2.6270 H   0  0  0  0  0  0  0  0  0  0  0  0
   -1.1610    0.4060    2.3470 H   0  0  0  0  0  0  0  0  0  0  0  0
   -0.2160   -0.4340    0.4160 H   0  0  0  0  0  0  0  0  0  0  0  0
  1  2  1  0  0  0  0
  1 11  1  0  0  0  0
  2 13  1  6  0  0  0
  2  3  1  0  0  0  0
  3 14  1  0  0  0  0
  3 15  1  0  0  0  0
  3  4  1  0  0  0  0
  4  5  2  0  0  0  0
  5 16  1  0  0  0  0
  5  6  1  0  0  0  0
  6 17  1  0  0  0  0
  7 18  1  0  0  0  0
  7  6  1  0  0  0  0
  8  4  1  0  0  0  0
  8  7  2  0  0  0  0
  9  2  1  0  0  0  0
  9 10  2  0  0  0  0
 12  1  1  0  0  0  0
 19  9  1  0  0  0  0
 20 19  1  0  0  0  0
 20 21  1  0  0  0  0
 21 31  1  0  0  0  0
 22 21  2  0  0  0  0
 23 19  1  0  0  0  0
 24 20  1  0  0  0  0
 25 20  1  0  0  0  0
 26 35  1  0  0  0  0
 26 37  1  0  0  0  0
 26 27  1  0  0  0  0
 27 38  1  0  0  0  0
 27 28  1  0  0  0  0
 28 41  1  0  0  0  0
 28 40  1  0  0  0  0
 29 27  1  0  0  0  0
 29 43  1  0  0  0  0
 30 29  1  0  0  0  0
 30 44  1  1  0  0  0
 31 45  1  0  0  0  0
 31 30  1  0  0  0  0
 32 30  1  0  0  0  0
 32 33  1  0  0  0  0
 34 32  2  0  0  0  0
 36 26  1  0  0  0  0
 39 28  1  0  0  0  0
 42 29  1  0  0  0  0
M  END
$$$$
