HGN.pdb
 OpenBabel07022418363D

 40 40  0  0  1  0  0  0  0  0999 V2000
    1.1710   -3.3090   -2.7780 N   0  0  0  0  0  0  0  0  0  0  0  0
    1.0980   -2.6600   -1.4860 C   0  0  1  0  0  0  0  0  0  0  0  0
    2.3010   -1.7780   -1.2350 C   0  0  0  0  0  0  0  0  0  0  0  0
    2.4080   -0.7150   -2.2640 C   0  0  0  0  0  0  0  0  0  0  0  0
    3.3800    0.2470   -2.3270 C   0  0  0  0  0  0  0  0  0  0  0  0
    3.1280    1.0260   -3.4110 N   0  0  0  0  0  0  0  0  0  0  0  0
    2.0240    0.5750   -4.0220 C   0  0  0  0  0  0  0  0  0  0  0  0
    1.5960   -0.4890   -3.3090 N   0  0  0  0  0  0  0  0  0  0  0  0
   -0.1810   -1.9660   -1.2990 C   0  0  0  0  0  0  0  0  0  0  0  0
   -1.0660   -1.9630   -2.1900 O   0  0  0  0  0  0  0  0  0  0  0  0
    1.9960   -3.9650   -2.7300 H   0  0  0  0  0  0  0  0  0  0  0  0
    0.2900   -3.8550   -2.9030 H   0  0  0  0  0  0  0  0  0  0  0  0
    1.1510   -3.4820   -0.7180 H   0  0  0  0  0  0  0  0  0  0  0  0
    3.2240   -2.4100   -1.2710 H   0  0  0  0  0  0  0  0  0  0  0  0
    2.2600   -1.3730   -0.2060 H   0  0  0  0  0  0  0  0  0  0  0  0
    4.2280    0.3990   -1.6500 H   0  0  0  0  0  0  0  0  0  0  0  0
    3.6930    1.8470   -3.7270 H   0  0  0  0  0  0  0  0  0  0  0  0
    1.5720    1.0000   -4.9240 H   0  0  0  0  0  0  0  0  0  0  0  0
   -0.4940   -1.2490   -0.0860 N   0  0  0  0  0  0  0  0  0  0  0  0
   -1.7480   -0.5950    0.0450 C   0  0  0  0  0  0  0  0  0  0  0  0
   -1.9380    0.0970    1.3290 C   0  0  0  0  0  0  0  0  0  0  0  0
   -3.0480    0.7190    1.5460 O   0  0  0  0  0  0  0  0  0  0  0  0
    0.2150   -1.2400    0.6510 H   0  0  0  0  0  0  0  0  0  0  0  0
   -2.6060   -1.3130   -0.1550 H   0  0  0  0  0  0  0  0  0  0  0  0
   -1.8700    0.1470   -0.8010 H   0  0  0  0  0  0  0  0  0  0  0  0
   -0.0320   -1.7060    6.1330 N   0  0  0  0  0  0  0  0  0  0  0  0
   -0.0850   -0.7950    5.0440 C   0  0  0  0  0  0  0  0  0  0  0  0
    0.9420   -0.6740    4.3420 O   0  0  0  0  0  0  0  0  0  0  0  0
   -1.3250   -0.0600    4.8090 C   0  0  0  0  0  0  0  0  0  0  0  0
   -1.2910    0.8750    3.6320 C   0  0  2  0  0  0  0  0  0  0  0  0
   -1.0210    0.1630    2.3830 N   0  0  0  0  0  0  0  0  0  0  0  0
   -0.3750    2.0110    3.8210 C   0  0  0  0  0  0  0  0  0  0  0  0
    0.4930    2.2560    2.9670 O   0  0  0  0  0  0  0  0  0  0  0  0
   -0.4780    2.7980    4.9390 O   0  0  0  0  0  0  0  0  0  0  0  0
    0.7760   -1.6210    6.7890 H   0  0  0  0  0  0  0  0  0  0  0  0
   -0.7450   -2.4460    6.3130 H   0  0  0  0  0  0  0  0  0  0  0  0
   -2.1830   -0.7580    4.6670 H   0  0  0  0  0  0  0  0  0  0  0  0
   -1.5610    0.5200    5.7250 H   0  0  0  0  0  0  0  0  0  0  0  0
   -2.3110    1.2980    3.5280 H   0  0  0  0  0  0  0  0  0  0  0  0
   -0.0980   -0.3090    2.2950 H   0  0  0  0  0  0  0  0  0  0  0  0
  1 11  1  0  0  0  0
  1  2  1  0  0  0  0
  2  9  1  0  0  0  0
  2  3  1  0  0  0  0
  2 13  1  1  0  0  0
  3 15  1  0  0  0  0
  4  3  1  0  0  0  0
  5  4  2  0  0  0  0
  5 16  1  0  0  0  0
  6  5  1  0  0  0  0
  7  6  1  0  0  0  0
  7  8  2  0  0  0  0
  8  4  1  0  0  0  0
  9 19  1  0  0  0  0
 10  9  2  0  0  0  0
 12  1  1  0  0  0  0
 14  3  1  0  0  0  0
 17  6  1  0  0  0  0
 18  7  1  0  0  0  0
 19 20  1  0  0  0  0
 19 23  1  0  0  0  0
 20 21  1  0  0  0  0
 21 22  2  0  0  0  0
 21 31  1  0  0  0  0
 24 20  1  0  0  0  0
 25 20  1  0  0  0  0
 26 36  1  0  0  0  0
 26 35  1  0  0  0  0
 27 26  1  0  0  0  0
 28 27  2  0  0  0  0
 29 27  1  0  0  0  0
 29 38  1  0  0  0  0
 30 39  1  6  0  0  0
 30 32  1  0  0  0  0
 30 29  1  0  0  0  0
 31 30  1  0  0  0  0
 32 34  1  0  0  0  0
 33 32  2  0  0  0  0
 37 29  1  0  0  0  0
 40 31  1  0  0  0  0
M  END
$$$$
