HGP.pdb
 OpenBabel07022418363D

 40 41  0  0  1  0  0  0  0  0999 V2000
   -1.6130   -4.1370   -1.6300 N   0  0  0  0  0  0  0  0  0  0  0  0
   -0.8680   -3.2630   -0.6960 C   0  0  1  0  0  0  0  0  0  0  0  0
    0.5090   -3.8470   -0.6270 C   0  0  0  0  0  0  0  0  0  0  0  0
    1.4300   -3.1190    0.2560 C   0  0  0  0  0  0  0  0  0  0  0  0
    1.6700   -3.3010    1.5900 C   0  0  0  0  0  0  0  0  0  0  0  0
    2.6110   -2.4060    2.0100 N   0  0  0  0  0  0  0  0  0  0  0  0
    2.9380   -1.6850    0.9290 C   0  0  0  0  0  0  0  0  0  0  0  0
    2.2330   -2.1070   -0.1320 N   0  0  0  0  0  0  0  0  0  0  0  0
   -0.9630   -1.9060   -1.2060 C   0  0  0  0  0  0  0  0  0  0  0  0
   -1.4000   -1.6940   -2.3610 O   0  0  0  0  0  0  0  0  0  0  0  0
   -1.2160   -3.9660   -2.5690 H   0  0  0  0  0  0  0  0  0  0  0  0
   -1.5930   -5.1200   -1.3200 H   0  0  0  0  0  0  0  0  0  0  0  0
   -1.3350   -3.3560    0.3060 H   0  0  0  0  0  0  0  0  0  0  0  0
    0.9360   -4.0460   -1.6330 H   0  0  0  0  0  0  0  0  0  0  0  0
    0.3840   -4.8740   -0.1710 H   0  0  0  0  0  0  0  0  0  0  0  0
    1.2250   -4.0210    2.2790 H   0  0  0  0  0  0  0  0  0  0  0  0
    2.9760   -2.3340    2.9960 H   0  0  0  0  0  0  0  0  0  0  0  0
    3.6540   -0.8890    0.9030 H   0  0  0  0  0  0  0  0  0  0  0  0
   -0.5730   -0.7370   -0.4360 N   0  0  0  0  0  0  0  0  0  0  0  0
   -0.7070    0.5410   -1.0350 C   0  0  0  0  0  0  0  0  0  0  0  0
   -0.3600    1.7400   -0.3030 C   0  0  0  0  0  0  0  0  0  0  0  0
   -0.5110    2.8430   -1.0130 O   0  0  0  0  0  0  0  0  0  0  0  0
   -0.2260   -0.9700    0.4970 H   0  0  0  0  0  0  0  0  0  0  0  0
   -1.8150    0.6780   -1.3250 H   0  0  0  0  0  0  0  0  0  0  0  0
   -0.2030    0.5400   -2.0760 H   0  0  0  0  0  0  0  0  0  0  0  0
    0.1010    1.9790    0.9950 N   0  0  0  0  0  0  0  0  0  0  0  0
    0.4080    3.3730    1.4410 C   0  0  0  0  0  0  0  0  0  0  0  0
    1.6370    3.1230    2.3270 C   0  0  0  0  0  0  0  0  0  0  0  0
    1.1000    1.9740    3.1310 C   0  0  0  0  0  0  0  0  0  0  0  0
    0.3610    1.1470    2.1060 C   0  0  1  0  0  0  0  0  0  0  0  0
   -0.8760    0.5720    2.7120 C   0  0  0  0  0  0  0  0  0  0  0  0
   -1.9760    0.8600    2.2110 O   0  0  0  0  0  0  0  0  0  0  0  0
   -0.8070   -0.2610    3.8010 O   0  0  0  0  0  0  0  0  0  0  0  0
   -0.4530    3.7420    1.9880 H   0  0  0  0  0  0  0  0  0  0  0  0
    0.7230    3.9670    0.5780 H   0  0  0  0  0  0  0  0  0  0  0  0
    2.4320    2.7250    1.6680 H   0  0  0  0  0  0  0  0  0  0  0  0
    1.9090    3.9990    2.9030 H   0  0  0  0  0  0  0  0  0  0  0  0
    0.3740    2.3570    3.9150 H   0  0  0  0  0  0  0  0  0  0  0  0
    1.9130    1.3960    3.6320 H   0  0  0  0  0  0  0  0  0  0  0  0
    1.0820    0.3080    1.8650 H   0  0  0  0  0  0  0  0  0  0  0  0
  1 12  1  0  0  0  0
  1  2  1  0  0  0  0
  2  3  1  0  0  0  0
  2 13  1  1  0  0  0
  3 15  1  0  0  0  0
  3  4  1  0  0  0  0
  4  5  2  0  0  0  0
  5  6  1  0  0  0  0
  5 16  1  0  0  0  0
  6 17  1  0  0  0  0
  7  6  1  0  0  0  0
  8  4  1  0  0  0  0
  8  7  2  0  0  0  0
  9  2  1  0  0  0  0
  9 19  1  0  0  0  0
 10  9  2  0  0  0  0
 11  1  1  0  0  0  0
 14  3  1  0  0  0  0
 18  7  1  0  0  0  0
 19 23  1  0  0  0  0
 20 19  1  0  0  0  0
 20 21  1  0  0  0  0
 21 26  1  0  0  0  0
 22 21  2  0  0  0  0
 24 20  1  0  0  0  0
 25 20  1  0  0  0  0
 26 27  1  0  0  0  0
 26 30  1  0  0  0  0
 27 34  1  0  0  0  0
 27 28  1  0  0  0  0
 28 37  1  0  0  0  0
 28 29  1  0  0  0  0
 29 39  1  0  0  0  0
 29 38  1  0  0  0  0
 30 40  1  6  0  0  0
 30 31  1  0  0  0  0
 30 29  1  0  0  0  0
 31 33  1  0  0  0  0
 32 31  2  0  0  0  0
 35 27  1  0  0  0  0
 36 28  1  0  0  0  0
M  END
$$$$
