HGY.pdb
 OpenBabel07022418363D

 47 48  0  0  1  0  0  0  0  0999 V2000
    1.9080   -1.5600    2.5880 N   0  0  0  0  0  0  0  0  0  0  0  0
    1.3760   -0.2070    2.5600 C   0  0  1  0  0  0  0  0  0  0  0  0
    2.1060    0.7110    3.4940 C   0  0  0  0  0  0  0  0  0  0  0  0
    3.5530    0.8220    3.1690 C   0  0  0  0  0  0  0  0  0  0  0  0
    4.1250    1.7280    2.3270 C   0  0  0  0  0  0  0  0  0  0  0  0
    5.4400    1.5170    2.2890 N   0  0  0  0  0  0  0  0  0  0  0  0
    5.6890    0.4800    3.1060 C   0  0  0  0  0  0  0  0  0  0  0  0
    4.5390    0.0510    3.6460 N   0  0  0  0  0  0  0  0  0  0  0  0
    1.2910    0.3070    1.1840 C   0  0  0  0  0  0  0  0  0  0  0  0
    1.6530   -0.4110    0.2180 O   0  0  0  0  0  0  0  0  0  0  0  0
    1.2770   -2.1930    2.0520 H   0  0  0  0  0  0  0  0  0  0  0  0
    1.9400   -1.9100    3.5620 H   0  0  0  0  0  0  0  0  0  0  0  0
    0.3280   -0.2860    2.9410 H   0  0  0  0  0  0  0  0  0  0  0  0
    1.6650    1.7040    3.4200 H   0  0  0  0  0  0  0  0  0  0  0  0
    2.0050    0.3210    4.5270 H   0  0  0  0  0  0  0  0  0  0  0  0
    3.5970    2.4900    1.7830 H   0  0  0  0  0  0  0  0  0  0  0  0
    6.1720    2.0580    1.7240 H   0  0  0  0  0  0  0  0  0  0  0  0
    6.6630    0.0760    3.2820 H   0  0  0  0  0  0  0  0  0  0  0  0
    0.8060    1.6120    0.9140 N   0  0  0  0  0  0  0  0  0  0  0  0
    0.6950    2.1540   -0.4020 C   0  0  0  0  0  0  0  0  0  0  0  0
   -0.2210    1.4780   -1.3100 C   0  0  0  0  0  0  0  0  0  0  0  0
   -0.3420    1.8900   -2.5180 O   0  0  0  0  0  0  0  0  0  0  0  0
    0.5270    2.1680    1.7560 H   0  0  0  0  0  0  0  0  0  0  0  0
    0.3240    3.2200   -0.3050 H   0  0  0  0  0  0  0  0  0  0  0  0
    1.7090    2.2410   -0.8590 H   0  0  0  0  0  0  0  0  0  0  0  0
   -2.9880   -4.6120    2.6380 O   0  0  0  0  0  0  0  0  0  0  0  0
   -2.6740   -3.9020    1.4800 C   0  0  0  0  0  0  0  0  0  0  0  0
   -1.3810   -3.4740    1.2110 C   0  0  0  0  0  0  0  0  0  0  0  0
   -1.1140   -2.7730    0.0520 C   0  0  0  0  0  0  0  0  0  0  0  0
   -2.0860   -2.4670   -0.8760 C   0  0  0  0  0  0  0  0  0  0  0  0
   -1.7880   -1.7220   -2.1010 C   0  0  0  0  0  0  0  0  0  0  0  0
   -1.9270   -0.2320   -1.9930 C   0  0  2  0  0  0  0  0  0  0  0  0
   -1.0430    0.3570   -0.9940 N   0  0  0  0  0  0  0  0  0  0  0  0
   -3.3520    0.1290   -1.6480 C   0  0  0  0  0  0  0  0  0  0  0  0
   -3.6340    0.8070   -0.6280 O   0  0  0  0  0  0  0  0  0  0  0  0
   -3.3740   -2.8970   -0.6010 C   0  0  0  0  0  0  0  0  0  0  0  0
   -3.6500   -3.5990    0.5550 C   0  0  0  0  0  0  0  0  0  0  0  0
   -4.4050   -0.2780   -2.4520 O   0  0  0  0  0  0  0  0  0  0  0  0
   -3.7760   -4.3750    3.2050 H   0  0  0  0  0  0  0  0  0  0  0  0
   -0.5900   -3.6900    1.9060 H   0  0  0  0  0  0  0  0  0  0  0  0
   -0.0720   -2.4790   -0.0850 H   0  0  0  0  0  0  0  0  0  0  0  0
   -0.7670   -2.0110   -2.4850 H   0  0  0  0  0  0  0  0  0  0  0  0
   -2.4700   -2.0610   -2.9360 H   0  0  0  0  0  0  0  0  0  0  0  0
   -1.7660    0.2150   -2.9900 H   0  0  0  0  0  0  0  0  0  0  0  0
   -1.0120   -0.0360   -0.0340 H   0  0  0  0  0  0  0  0  0  0  0  0
   -4.2140   -2.7190   -1.2550 H   0  0  0  0  0  0  0  0  0  0  0  0
   -4.6700   -3.9360    0.7660 H   0  0  0  0  0  0  0  0  0  0  0  0
  1 12  1  0  0  0  0
  2  1  1  0  0  0  0
  2 13  1  1  0  0  0
  2  3  1  0  0  0  0
  3 15  1  0  0  0  0
  4  3  1  0  0  0  0
  4  8  1  0  0  0  0
  5  4  2  0  0  0  0
  6  5  1  0  0  0  0
  6  7  1  0  0  0  0
  7 18  1  0  0  0  0
  7  8  2  0  0  0  0
  9  2  1  0  0  0  0
 10  9  2  0  0  0  0
 11  1  1  0  0  0  0
 14  3  1  0  0  0  0
 16  5  1  0  0  0  0
 17  6  1  0  0  0  0
 19  9  1  0  0  0  0
 19 23  1  0  0  0  0
 20 24  1  0  0  0  0
 20 19  1  0  0  0  0
 21 33  1  0  0  0  0
 21 20  1  0  0  0  0
 22 21  2  0  0  0  0
 25 20  1  0  0  0  0
 26 39  1  0  0  0  0
 27 26  1  0  0  0  0
 28 27  1  0  0  0  0
 28 40  1  0  0  0  0
 29 28  2  0  0  0  0
 30 36  2  0  0  0  0
 30 29  1  0  0  0  0
 31 32  1  0  0  0  0
 31 30  1  0  0  0  0
 32 44  1  6  0  0  0
 32 34  1  0  0  0  0
 32 33  1  0  0  0  0
 33 45  1  0  0  0  0
 34 35  1  0  0  0  0
 36 37  1  0  0  0  0
 37 47  1  0  0  0  0
 37 27  2  0  0  0  0
 38 34  2  0  0  0  0
 41 29  1  0  0  0  0
 42 31  1  0  0  0  0
 43 31  1  0  0  0  0
 46 36  1  0  0  0  0
M  END
$$$$
