HHH.pdb
 OpenBabel07022418363D

 53 55  0  0  1  0  0  0  0  0999 V2000
    3.2140   -0.0990    3.9260 N   0  0  0  0  0  0  0  0  0  0  0  0
    2.2410   -1.1610    4.1090 C   0  0  1  0  0  0  0  0  0  0  0  0
    1.5560   -0.8780    5.4260 C   0  0  0  0  0  0  0  0  0  0  0  0
    0.5240   -1.8530    5.7930 C   0  0  0  0  0  0  0  0  0  0  0  0
   -0.8420   -1.8400    5.5120 C   0  0  0  0  0  0  0  0  0  0  0  0
   -1.4270   -2.9270    6.0430 N   0  0  0  0  0  0  0  0  0  0  0  0
   -0.4500   -3.6180    6.6500 C   0  0  0  0  0  0  0  0  0  0  0  0
    0.7280   -2.9950    6.5140 N   0  0  0  0  0  0  0  0  0  0  0  0
    1.2300   -1.1620    3.0430 C   0  0  0  0  0  0  0  0  0  0  0  0
    0.3410   -2.0490    3.0400 O   0  0  0  0  0  0  0  0  0  0  0  0
    2.8160    0.8430    3.9560 H   0  0  0  0  0  0  0  0  0  0  0  0
    3.9180   -0.1870    4.6980 H   0  0  0  0  0  0  0  0  0  0  0  0
    2.7810   -2.1140    4.1890 H   0  0  0  0  0  0  0  0  0  0  0  0
    1.0610    0.1290    5.3310 H   0  0  0  0  0  0  0  0  0  0  0  0
    2.3090   -0.7330    6.2490 H   0  0  0  0  0  0  0  0  0  0  0  0
   -1.3650   -1.0760    4.9530 H   0  0  0  0  0  0  0  0  0  0  0  0
   -2.4400   -3.1530    5.9750 H   0  0  0  0  0  0  0  0  0  0  0  0
   -0.5770   -4.5490    7.1800 H   0  0  0  0  0  0  0  0  0  0  0  0
    1.2070   -0.2130    2.0170 N   0  0  0  0  0  0  0  0  0  0  0  0
    0.1420   -0.2590    0.9410 C   0  0  1  0  0  0  0  0  0  0  0  0
   -0.5500    1.0480    1.1650 C   0  0  0  0  0  0  0  0  0  0  0  0
   -1.7000    1.3730    0.3200 C   0  0  0  0  0  0  0  0  0  0  0  0
   -2.3630    2.5980    0.4910 C   0  0  0  0  0  0  0  0  0  0  0  0
   -3.3620    2.6570   -0.3840 N   0  0  0  0  0  0  0  0  0  0  0  0
   -3.3510    1.5290   -1.0900 C   0  0  0  0  0  0  0  0  0  0  0  0
   -2.3370    0.7460   -0.6580 N   0  0  0  0  0  0  0  0  0  0  0  0
    0.8740   -0.3320   -0.3530 C   0  0  0  0  0  0  0  0  0  0  0  0
    2.1310   -0.0560   -0.3270 O   0  0  0  0  0  0  0  0  0  0  0  0
    1.9190    0.5380    1.9760 H   0  0  0  0  0  0  0  0  0  0  0  0
   -0.5340   -1.0860    1.1000 H   0  0  0  0  0  0  0  0  0  0  0  0
    0.1810    1.8950    1.2380 H   0  0  0  0  0  0  0  0  0  0  0  0
   -0.9630    0.9940    2.2240 H   0  0  0  0  0  0  0  0  0  0  0  0
   -2.1100    3.3730    1.2130 H   0  0  0  0  0  0  0  0  0  0  0  0
   -4.0330    3.4350   -0.5050 H   0  0  0  0  0  0  0  0  0  0  0  0
   -4.0240    1.2420   -1.8860 H   0  0  0  0  0  0  0  0  0  0  0  0
    0.3570   -0.6730   -1.6070 N   0  0  0  0  0  0  0  0  0  0  0  0
    1.1880   -0.6930   -2.7850 C   0  0  1  0  0  0  0  0  0  0  0  0
    1.1670   -1.9600   -3.5650 C   0  0  0  0  0  0  0  0  0  0  0  0
   -0.0910   -2.3870   -4.1370 C   0  0  0  0  0  0  0  0  0  0  0  0
   -1.3130   -1.7910   -4.1430 C   0  0  0  0  0  0  0  0  0  0  0  0
   -2.2000   -2.5710   -4.8420 N   0  0  0  0  0  0  0  0  0  0  0  0
   -1.4900   -3.6300   -5.2470 C   0  0  0  0  0  0  0  0  0  0  0  0
   -0.2320   -3.5450   -4.8410 N   0  0  0  0  0  0  0  0  0  0  0  0
    0.8680    0.4740   -3.6900 C   0  0  0  0  0  0  0  0  0  0  0  0
   -0.0190    1.2700   -3.2920 O   0  0  0  0  0  0  0  0  0  0  0  0
    1.5160    0.6520   -4.8850 O   0  0  0  0  0  0  0  0  0  0  0  0
   -0.6310   -0.9430   -1.6800 H   0  0  0  0  0  0  0  0  0  0  0  0
    2.2540   -0.4670   -2.4710 H   0  0  0  0  0  0  0  0  0  0  0  0
    1.9890   -1.9060   -4.3540 H   0  0  0  0  0  0  0  0  0  0  0  0
    1.5850   -2.7730   -2.8800 H   0  0  0  0  0  0  0  0  0  0  0  0
   -1.6600   -0.8650   -3.7240 H   0  0  0  0  0  0  0  0  0  0  0  0
   -3.2040   -2.3920   -5.0240 H   0  0  0  0  0  0  0  0  0  0  0  0
   -1.9130   -4.4450   -5.8340 H   0  0  0  0  0  0  0  0  0  0  0  0
  1 11  1  0  0  0  0
  1  2  1  0  0  0  0
  1 12  1  0  0  0  0
  2 13  1  1  0  0  0
  2  3  1  0  0  0  0
  3  4  1  0  0  0  0
  3 15  1  0  0  0  0
  4  8  1  0  0  0  0
  5  4  2  0  0  0  0
  5  6  1  0  0  0  0
  6  7  1  0  0  0  0
  7 18  1  0  0  0  0
  8  7  2  0  0  0  0
  9  2  1  0  0  0  0
 10  9  2  0  0  0  0
 14  3  1  0  0  0  0
 16  5  1  0  0  0  0
 17  6  1  0  0  0  0
 19  9  1  0  0  0  0
 20 30  1  1  0  0  0
 20 21  1  0  0  0  0
 20 19  1  0  0  0  0
 21 31  1  0  0  0  0
 21 32  1  0  0  0  0
 22 23  2  0  0  0  0
 22 21  1  0  0  0  0
 23 33  1  0  0  0  0
 24 23  1  0  0  0  0
 25 26  2  0  0  0  0
 25 24  1  0  0  0  0
 26 22  1  0  0  0  0
 27 28  2  0  0  0  0
 27 20  1  0  0  0  0
 29 19  1  0  0  0  0
 34 24  1  0  0  0  0
 35 25  1  0  0  0  0
 36 27  1  0  0  0  0
 37 48  1  1  0  0  0
 37 36  1  0  0  0  0
 38 50  1  0  0  0  0
 38 37  1  0  0  0  0
 39 38  1  0  0  0  0
 40 39  2  0  0  0  0
 40 51  1  0  0  0  0
 41 40  1  0  0  0  0
 42 41  1  0  0  0  0
 42 43  2  0  0  0  0
 43 39  1  0  0  0  0
 44 45  1  0  0  0  0
 44 37  1  0  0  0  0
 46 44  2  0  0  0  0
 47 36  1  0  0  0  0
 49 38  1  0  0  0  0
 52 41  1  0  0  0  0
 53 42  1  0  0  0  0
M  END
$$$$
