HHI.pdb
 OpenBabel07022418363D

 55 56  0  0  1  0  0  0  0  0999 V2000
    4.0260   -0.9120    2.7360 N   0  0  0  0  0  0  0  0  0  0  0  0
    3.2020   -0.6510    1.5770 C   0  0  1  0  0  0  0  0  0  0  0  0
    3.0920   -1.9400    0.8010 C   0  0  0  0  0  0  0  0  0  0  0  0
    4.4660   -2.3470    0.4070 C   0  0  0  0  0  0  0  0  0  0  0  0
    5.0630   -1.9570   -0.7700 C   0  0  0  0  0  0  0  0  0  0  0  0
    6.2820   -2.4850   -0.8220 N   0  0  0  0  0  0  0  0  0  0  0  0
    6.4490   -3.1870    0.2890 C   0  0  0  0  0  0  0  0  0  0  0  0
    5.3500   -3.1190    1.0600 N   0  0  0  0  0  0  0  0  0  0  0  0
    1.9100   -0.1200    2.0040 C   0  0  0  0  0  0  0  0  0  0  0  0
    1.6780    0.0380    3.2280 O   0  0  0  0  0  0  0  0  0  0  0  0
    4.1160   -1.9120    2.9670 H   0  0  0  0  0  0  0  0  0  0  0  0
    3.7450   -0.3670    3.5620 H   0  0  0  0  0  0  0  0  0  0  0  0
    3.7050    0.0820    0.8870 H   0  0  0  0  0  0  0  0  0  0  0  0
    2.4870   -1.8730   -0.1040 H   0  0  0  0  0  0  0  0  0  0  0  0
    2.6880   -2.7280    1.4960 H   0  0  0  0  0  0  0  0  0  0  0  0
    4.6590   -1.3280   -1.5580 H   0  0  0  0  0  0  0  0  0  0  0  0
    6.9800   -2.3630   -1.6050 H   0  0  0  0  0  0  0  0  0  0  0  0
    7.3530   -3.7350    0.5290 H   0  0  0  0  0  0  0  0  0  0  0  0
    0.8610    0.2440    1.1200 N   0  0  0  0  0  0  0  0  0  0  0  0
   -0.4200    0.7740    1.6160 C   0  0  1  0  0  0  0  0  0  0  0  0
   -0.5440    2.1590    1.0880 C   0  0  0  0  0  0  0  0  0  0  0  0
   -1.7690    2.8800    1.5040 C   0  0  0  0  0  0  0  0  0  0  0  0
   -2.1220    4.1880    1.1300 C   0  0  0  0  0  0  0  0  0  0  0  0
   -3.2860    4.5350    1.6760 N   0  0  0  0  0  0  0  0  0  0  0  0
   -3.7060    3.4790    2.4040 C   0  0  0  0  0  0  0  0  0  0  0  0
   -2.7910    2.5020    2.2900 N   0  0  0  0  0  0  0  0  0  0  0  0
   -1.5130   -0.1480    1.2350 C   0  0  0  0  0  0  0  0  0  0  0  0
   -2.7080    0.0310    1.5360 O   0  0  0  0  0  0  0  0  0  0  0  0
    0.9920    0.1360    0.0980 H   0  0  0  0  0  0  0  0  0  0  0  0
   -0.3400    0.8030    2.7160 H   0  0  0  0  0  0  0  0  0  0  0  0
    0.3160    2.7890    1.4500 H   0  0  0  0  0  0  0  0  0  0  0  0
   -0.4270    2.1900   -0.0370 H   0  0  0  0  0  0  0  0  0  0  0  0
   -1.4970    4.7980    0.4790 H   0  0  0  0  0  0  0  0  0  0  0  0
   -3.7290    5.4650    1.5260 H   0  0  0  0  0  0  0  0  0  0  0  0
   -4.6400    3.5000    2.9580 H   0  0  0  0  0  0  0  0  0  0  0  0
   -3.9210   -0.5460   -1.8110 C   0  0  0  0  0  0  0  0  0  0  0  0
   -2.6280   -1.1970   -2.1710 C   0  0  0  0  0  0  0  0  0  0  0  0
   -2.3490   -2.4680   -1.4160 C   0  0  2  0  0  0  0  0  0  0  0  0
   -3.4530   -3.4530   -1.7090 C   0  0  0  0  0  0  0  0  0  0  0  0
   -2.2800   -2.2630    0.0790 C   0  0  2  0  0  0  0  0  0  0  0  0
   -1.2530   -1.3440    0.4690 N   0  0  0  0  0  0  0  0  0  0  0  0
   -1.9890   -3.5880    0.6850 C   0  0  0  0  0  0  0  0  0  0  0  0
   -2.7400   -4.5880    0.5030 O   0  0  0  0  0  0  0  0  0  0  0  0
   -0.8630   -3.7570    1.4800 O   0  0  0  0  0  0  0  0  0  0  0  0
   -4.4280   -0.9610   -0.9360 H   0  0  0  0  0  0  0  0  0  0  0  0
   -4.6320   -0.5490   -2.6640 H   0  0  0  0  0  0  0  0  0  0  0  0
   -3.7020    0.5340   -1.5700 H   0  0  0  0  0  0  0  0  0  0  0  0
   -2.6590   -1.4680   -3.2490 H   0  0  0  0  0  0  0  0  0  0  0  0
   -1.7560   -0.4890   -2.0820 H   0  0  0  0  0  0  0  0  0  0  0  0
   -1.4000   -2.8850   -1.8160 H   0  0  0  0  0  0  0  0  0  0  0  0
   -3.0580   -4.5010   -1.8150 H   0  0  0  0  0  0  0  0  0  0  0  0
   -4.1990   -3.3710   -0.8920 H   0  0  0  0  0  0  0  0  0  0  0  0
   -4.0120   -3.1690   -2.6470 H   0  0  0  0  0  0  0  0  0  0  0  0
   -3.2850   -1.9740    0.4150 H   0  0  0  0  0  0  0  0  0  0  0  0
   -0.2590   -1.5160    0.2050 H   0  0  0  0  0  0  0  0  0  0  0  0
  1 11  1  0  0  0  0
  1 12  1  0  0  0  0
  2 13  1  6  0  0  0
  2  9  1  0  0  0  0
  2  1  1  0  0  0  0
  3 15  1  0  0  0  0
  3  2  1  0  0  0  0
  4  3  1  0  0  0  0
  4  8  1  0  0  0  0
  5  4  2  0  0  0  0
  6  5  1  0  0  0  0
  6  7  1  0  0  0  0
  7 18  1  0  0  0  0
  7  8  2  0  0  0  0
  9 10  2  0  0  0  0
 14  3  1  0  0  0  0
 16  5  1  0  0  0  0
 17  6  1  0  0  0  0
 19 20  1  0  0  0  0
 19  9  1  0  0  0  0
 20 30  1  1  0  0  0
 21 31  1  0  0  0  0
 21 22  1  0  0  0  0
 21 20  1  0  0  0  0
 22 26  1  0  0  0  0
 23 22  2  0  0  0  0
 23 24  1  0  0  0  0
 24 25  1  0  0  0  0
 25 35  1  0  0  0  0
 26 25  2  0  0  0  0
 27 28  2  0  0  0  0
 27 20  1  0  0  0  0
 29 19  1  0  0  0  0
 32 21  1  0  0  0  0
 33 23  1  0  0  0  0
 34 24  1  0  0  0  0
 36 47  1  0  0  0  0
 36 45  1  0  0  0  0
 37 49  1  0  0  0  0
 37 36  1  0  0  0  0
 37 38  1  0  0  0  0
 38 50  1  6  0  0  0
 38 40  1  0  0  0  0
 39 38  1  0  0  0  0
 39 52  1  0  0  0  0
 40 54  1  1  0  0  0
 40 41  1  0  0  0  0
 40 42  1  0  0  0  0
 41 27  1  0  0  0  0
 42 44  1  0  0  0  0
 43 42  2  0  0  0  0
 46 36  1  0  0  0  0
 48 37  1  0  0  0  0
 51 39  1  0  0  0  0
 53 39  1  0  0  0  0
 55 41  1  0  0  0  0
M  END
$$$$
