HHN.pdb
 OpenBabel07022418363D

 50 51  0  0  1  0  0  0  0  0999 V2000
    0.3310    0.4130    3.6120 N   0  0  0  0  0  0  0  0  0  0  0  0
    1.5680    0.0950    2.8510 C   0  0  1  0  0  0  0  0  0  0  0  0
    1.9000   -1.3020    3.2510 C   0  0  0  0  0  0  0  0  0  0  0  0
    3.1460   -1.8370    2.6900 C   0  0  0  0  0  0  0  0  0  0  0  0
    4.1450   -1.2690    1.9490 C   0  0  0  0  0  0  0  0  0  0  0  0
    5.0990   -2.1900    1.7380 N   0  0  0  0  0  0  0  0  0  0  0  0
    4.7070   -3.3160    2.3360 C   0  0  0  0  0  0  0  0  0  0  0  0
    3.5240   -3.1320    2.9230 N   0  0  0  0  0  0  0  0  0  0  0  0
    1.0820    0.1350    1.4110 C   0  0  0  0  0  0  0  0  0  0  0  0
    1.8570   -0.0770    0.4740 O   0  0  0  0  0  0  0  0  0  0  0  0
    0.6460    0.5270    4.5920 H   0  0  0  0  0  0  0  0  0  0  0  0
   -0.2500   -0.4520    3.5460 H   0  0  0  0  0  0  0  0  0  0  0  0
    2.3240    0.8540    3.0240 H   0  0  0  0  0  0  0  0  0  0  0  0
    1.0220   -1.9430    3.0150 H   0  0  0  0  0  0  0  0  0  0  0  0
    2.0000   -1.3030    4.3720 H   0  0  0  0  0  0  0  0  0  0  0  0
    4.1670   -0.2300    1.6110 H   0  0  0  0  0  0  0  0  0  0  0  0
    5.9990   -2.0440    1.1950 H   0  0  0  0  0  0  0  0  0  0  0  0
    5.2260   -4.2760    2.3760 H   0  0  0  0  0  0  0  0  0  0  0  0
   -0.2730    0.4160    1.0770 N   0  0  0  0  0  0  0  0  0  0  0  0
   -0.8280    0.4930   -0.2390 C   0  0  1  0  0  0  0  0  0  0  0  0
    0.0700    1.0650   -1.3100 C   0  0  0  0  0  0  0  0  0  0  0  0
    0.3860    2.4660   -0.9350 C   0  0  0  0  0  0  0  0  0  0  0  0
    1.3960    3.0410   -0.2210 C   0  0  0  0  0  0  0  0  0  0  0  0
    1.2480    4.3740   -0.1640 N   0  0  0  0  0  0  0  0  0  0  0  0
    0.1380    4.6760   -0.8430 C   0  0  0  0  0  0  0  0  0  0  0  0
   -0.3830    3.5390   -1.3070 N   0  0  0  0  0  0  0  0  0  0  0  0
   -1.6110   -0.6900   -0.6630 C   0  0  0  0  0  0  0  0  0  0  0  0
   -2.1740   -0.7110   -1.7880 O   0  0  0  0  0  0  0  0  0  0  0  0
   -0.9100    0.5780    1.9280 H   0  0  0  0  0  0  0  0  0  0  0  0
   -1.6060    1.3500   -0.1470 H   0  0  0  0  0  0  0  0  0  0  0  0
   -0.5640    1.1140   -2.2370 H   0  0  0  0  0  0  0  0  0  0  0  0
    0.9580    0.4840   -1.5390 H   0  0  0  0  0  0  0  0  0  0  0  0
    2.2210    2.5450    0.2480 H   0  0  0  0  0  0  0  0  0  0  0  0
    1.8950    5.0690    0.3300 H   0  0  0  0  0  0  0  0  0  0  0  0
   -0.2500    5.6770   -0.9780 H   0  0  0  0  0  0  0  0  0  0  0  0
   -4.6670   -1.2990   -0.1160 N   0  0  0  0  0  0  0  0  0  0  0  0
   -4.3640   -2.0130   -1.3090 C   0  0  0  0  0  0  0  0  0  0  0  0
   -5.0270   -1.7480   -2.3370 O   0  0  0  0  0  0  0  0  0  0  0  0
   -3.3030   -3.0370   -1.3360 C   0  0  0  0  0  0  0  0  0  0  0  0
   -2.4780   -3.0260   -0.0490 C   0  0  2  0  0  0  0  0  0  0  0  0
   -1.7450   -1.8200    0.1830 N   0  0  0  0  0  0  0  0  0  0  0  0
   -1.6850   -4.2140    0.1390 C   0  0  0  0  0  0  0  0  0  0  0  0
   -2.1480   -5.3720   -0.0210 O   0  0  0  0  0  0  0  0  0  0  0  0
   -0.3260   -4.1800    0.5160 O   0  0  0  0  0  0  0  0  0  0  0  0
   -4.9130   -1.7440    0.7940 H   0  0  0  0  0  0  0  0  0  0  0  0
   -4.6290   -0.2440   -0.2040 H   0  0  0  0  0  0  0  0  0  0  0  0
   -3.8070   -4.0360   -1.3370 H   0  0  0  0  0  0  0  0  0  0  0  0
   -2.6490   -2.9800   -2.2340 H   0  0  0  0  0  0  0  0  0  0  0  0
   -3.3610   -3.0640    0.7200 H   0  0  0  0  0  0  0  0  0  0  0  0
   -1.2040   -1.7020    1.1130 H   0  0  0  0  0  0  0  0  0  0  0  0
  1 11  1  0  0  0  0
  2 13  1  1  0  0  0
  2  3  1  0  0  0  0
  2  1  1  0  0  0  0
  3 15  1  0  0  0  0
  4  8  1  0  0  0  0
  4  3  1  0  0  0  0
  5  4  2  0  0  0  0
  6  5  1  0  0  0  0
  6  7  1  0  0  0  0
  7 18  1  0  0  0  0
  7  8  2  0  0  0  0
  9  2  1  0  0  0  0
 10  9  2  0  0  0  0
 12  1  1  0  0  0  0
 14  3  1  0  0  0  0
 16  5  1  0  0  0  0
 17  6  1  0  0  0  0
 19  9  1  0  0  0  0
 19 29  1  0  0  0  0
 20 30  1  1  0  0  0
 20 19  1  0  0  0  0
 21 22  1  0  0  0  0
 21 20  1  0  0  0  0
 22 23  2  0  0  0  0
 23 24  1  0  0  0  0
 23 33  1  0  0  0  0
 24 34  1  0  0  0  0
 25 24  1  0  0  0  0
 26 22  1  0  0  0  0
 26 25  2  0  0  0  0
 27 20  1  0  0  0  0
 27 41  1  0  0  0  0
 28 27  2  0  0  0  0
 31 21  1  0  0  0  0
 32 21  1  0  0  0  0
 35 25  1  0  0  0  0
 36 45  1  0  0  0  0
 37 36  1  0  0  0  0
 38 37  2  0  0  0  0
 39 37  1  0  0  0  0
 39 40  1  0  0  0  0
 40 42  1  0  0  0  0
 40 41  1  0  0  0  0
 40 49  1  1  0  0  0
 41 50  1  0  0  0  0
 42 44  1  0  0  0  0
 43 42  2  0  0  0  0
 46 36  1  0  0  0  0
 47 39  1  0  0  0  0
 48 39  1  0  0  0  0
M  END
$$$$
