HHR.pdb
 OpenBabel07022418363D

 59 60  0  0  1  0  0  0  0  0999 V2000
    3.4780    1.2330    1.3750 N   0  0  0  0  0  0  0  0  0  0  0  0
    3.2960   -0.1380    1.7350 C   0  0  1  0  0  0  0  0  0  0  0  0
    3.8370   -0.3320    3.1380 C   0  0  0  0  0  0  0  0  0  0  0  0
    5.2740    0.0060    3.2110 C   0  0  0  0  0  0  0  0  0  0  0  0
    5.8730    1.2090    3.4850 C   0  0  0  0  0  0  0  0  0  0  0  0
    7.2270    1.0640    3.4440 N   0  0  0  0  0  0  0  0  0  0  0  0
    7.4480   -0.2140    3.1480 C   0  0  0  0  0  0  0  0  0  0  0  0
    6.2730   -0.8650    3.0040 N   0  0  0  0  0  0  0  0  0  0  0  0
    1.8690   -0.5570    1.6910 C   0  0  0  0  0  0  0  0  0  0  0  0
    1.5550   -1.7190    2.0300 O   0  0  0  0  0  0  0  0  0  0  0  0
    4.3540    1.4560    0.9030 H   0  0  0  0  0  0  0  0  0  0  0  0
    3.1970    1.9070    2.1190 H   0  0  0  0  0  0  0  0  0  0  0  0
    3.8870   -0.7530    1.0190 H   0  0  0  0  0  0  0  0  0  0  0  0
    3.6560   -1.3730    3.4790 H   0  0  0  0  0  0  0  0  0  0  0  0
    3.2910    0.3620    3.8270 H   0  0  0  0  0  0  0  0  0  0  0  0
    5.3560    2.1150    3.6980 H   0  0  0  0  0  0  0  0  0  0  0  0
    7.9500    1.8070    3.6120 H   0  0  0  0  0  0  0  0  0  0  0  0
    8.4020   -0.7080    3.0280 H   0  0  0  0  0  0  0  0  0  0  0  0
    0.8800    0.3510    1.2700 N   0  0  0  0  0  0  0  0  0  0  0  0
   -0.5820   -0.0660    1.2230 C   0  0  1  0  0  0  0  0  0  0  0  0
   -1.2640    1.0570    1.8970 C   0  0  0  0  0  0  0  0  0  0  0  0
   -2.6930    0.9940    2.1520 C   0  0  0  0  0  0  0  0  0  0  0  0
   -3.6680    0.0590    2.0370 C   0  0  0  0  0  0  0  0  0  0  0  0
   -4.8240    0.5670    2.5040 N   0  0  0  0  0  0  0  0  0  0  0  0
   -4.5980    1.8060    2.9110 C   0  0  0  0  0  0  0  0  0  0  0  0
   -3.3290    2.0730    2.7070 N   0  0  0  0  0  0  0  0  0  0  0  0
   -0.8270    0.0170   -0.2570 C   0  0  0  0  0  0  0  0  0  0  0  0
    0.0900    0.5350   -0.9900 O   0  0  0  0  0  0  0  0  0  0  0  0
    1.1440    1.3110    0.9900 H   0  0  0  0  0  0  0  0  0  0  0  0
   -0.7110   -1.0620    1.5930 H   0  0  0  0  0  0  0  0  0  0  0  0
   -0.7700    1.2300    2.9090 H   0  0  0  0  0  0  0  0  0  0  0  0
   -1.0380    2.0390    1.3600 H   0  0  0  0  0  0  0  0  0  0  0  0
   -3.5490   -0.9270    1.6630 H   0  0  0  0  0  0  0  0  0  0  0  0
   -5.7180    0.0570    2.5270 H   0  0  0  0  0  0  0  0  0  0  0  0
   -5.3530    2.4690    3.3400 H   0  0  0  0  0  0  0  0  0  0  0  0
    0.0240   -5.5610   -1.0940 N   0  0  0  0  0  0  0  0  0  0  0  0
   -1.0350   -4.9350   -1.7930 C   0  0  0  0  0  0  0  0  0  0  0  0
   -1.3600   -5.3800   -2.9580 N   0  0  0  0  0  0  0  0  0  0  0  0
   -1.6960   -3.8450   -1.1800 N   0  0  0  0  0  0  0  0  0  0  0  0
   -2.9250   -3.3340   -1.7010 C   0  0  0  0  0  0  0  0  0  0  0  0
   -2.8130   -2.6590   -3.0130 C   0  0  0  0  0  0  0  0  0  0  0  0
   -1.9110   -1.5190   -3.1820 C   0  0  0  0  0  0  0  0  0  0  0  0
   -2.0860   -0.2820   -2.3920 C   0  0  2  0  0  0  0  0  0  0  0  0
   -1.9670   -0.4170   -0.9580 N   0  0  0  0  0  0  0  0  0  0  0  0
   -3.3380    0.4610   -2.7520 C   0  0  0  0  0  0  0  0  0  0  0  0
   -3.6500    0.6960   -3.9430 O   0  0  0  0  0  0  0  0  0  0  0  0
   -4.1640    0.8940   -1.7370 O   0  0  0  0  0  0  0  0  0  0  0  0
    0.0490   -6.6100   -1.0930 H   0  0  0  0  0  0  0  0  0  0  0  0
    0.7770   -5.0720   -0.5830 H   0  0  0  0  0  0  0  0  0  0  0  0
   -0.8700   -6.1850   -3.4040 H   0  0  0  0  0  0  0  0  0  0  0  0
   -1.2700   -3.4140   -0.3350 H   0  0  0  0  0  0  0  0  0  0  0  0
   -3.5690   -4.2960   -1.8740 H   0  0  0  0  0  0  0  0  0  0  0  0
   -3.5290   -2.7840   -1.0010 H   0  0  0  0  0  0  0  0  0  0  0  0
   -2.5290   -3.4700   -3.7690 H   0  0  0  0  0  0  0  0  0  0  0  0
   -3.8640   -2.3970   -3.3850 H   0  0  0  0  0  0  0  0  0  0  0  0
   -1.8430   -1.2620   -4.2970 H   0  0  0  0  0  0  0  0  0  0  0  0
   -0.8300   -1.8670   -2.9950 H   0  0  0  0  0  0  0  0  0  0  0  0
   -1.2380    0.4190   -2.6950 H   0  0  0  0  0  0  0  0  0  0  0  0
   -2.7340   -0.8310   -0.4320 H   0  0  0  0  0  0  0  0  0  0  0  0
  1  2  1  0  0  0  0
  1 12  1  0  0  0  0
  2 13  1  6  0  0  0
  2  3  1  0  0  0  0
  3  4  1  0  0  0  0
  3 14  1  0  0  0  0
  3 15  1  0  0  0  0
  4  5  2  0  0  0  0
  5 16  1  0  0  0  0
  6  5  1  0  0  0  0
  6 17  1  0  0  0  0
  7  6  1  0  0  0  0
  8  7  2  0  0  0  0
  8  4  1  0  0  0  0
  9  2  1  0  0  0  0
  9 10  2  0  0  0  0
 11  1  1  0  0  0  0
 18  7  1  0  0  0  0
 19  9  1  0  0  0  0
 20 19  1  0  0  0  0
 20 30  1  1  0  0  0
 20 21  1  0  0  0  0
 21 22  1  0  0  0  0
 21 31  1  0  0  0  0
 22 26  1  0  0  0  0
 23 22  2  0  0  0  0
 23 24  1  0  0  0  0
 24 34  1  0  0  0  0
 24 25  1  0  0  0  0
 25 35  1  0  0  0  0
 26 25  2  0  0  0  0
 27 20  1  0  0  0  0
 28 27  2  0  0  0  0
 29 19  1  0  0  0  0
 32 21  1  0  0  0  0
 33 23  1  0  0  0  0
 36 48  1  0  0  0  0
 36 49  1  0  0  0  0
 37 39  1  0  0  0  0
 37 36  1  0  0  0  0
 38 37  2  0  0  0  0
 39 51  1  0  0  0  0
 40 39  1  0  0  0  0
 40 53  1  0  0  0  0
 41 40  1  0  0  0  0
 42 41  1  0  0  0  0
 42 57  1  0  0  0  0
 42 43  1  0  0  0  0
 43 58  1  6  0  0  0
 43 44  1  0  0  0  0
 44 59  1  0  0  0  0
 44 27  1  0  0  0  0
 45 43  1  0  0  0  0
 45 47  1  0  0  0  0
 46 45  2  0  0  0  0
 50 38  1  0  0  0  0
 52 40  1  0  0  0  0
 54 41  1  0  0  0  0
 55 41  1  0  0  0  0
 56 42  1  0  0  0  0
M  END
$$$$
