HHW.pdb
 OpenBabel07022418373D

 60 63  0  0  1  0  0  0  0  0999 V2000
    1.0780   -1.8110    3.3600 N   0  0  0  0  0  0  0  0  0  0  0  0
    0.6260   -0.4520    3.2150 C   0  0  1  0  0  0  0  0  0  0  0  0
    1.5990    0.4590    3.8850 C   0  0  0  0  0  0  0  0  0  0  0  0
    2.9730    0.4070    3.3650 C   0  0  0  0  0  0  0  0  0  0  0  0
    4.0400   -0.3850    3.7390 C   0  0  0  0  0  0  0  0  0  0  0  0
    5.0850   -0.0750    2.9770 N   0  0  0  0  0  0  0  0  0  0  0  0
    4.7410    0.8960    2.1150 C   0  0  0  0  0  0  0  0  0  0  0  0
    3.4460    1.1770    2.3680 N   0  0  0  0  0  0  0  0  0  0  0  0
    0.2660   -0.0820    1.8330 C   0  0  0  0  0  0  0  0  0  0  0  0
    0.3700   -0.8940    0.8920 O   0  0  0  0  0  0  0  0  0  0  0  0
    0.2680   -2.4470    3.5480 H   0  0  0  0  0  0  0  0  0  0  0  0
    1.7950   -1.8700    4.1290 H   0  0  0  0  0  0  0  0  0  0  0  0
   -0.3170   -0.3960    3.8520 H   0  0  0  0  0  0  0  0  0  0  0  0
    1.6410    0.1370    4.9640 H   0  0  0  0  0  0  0  0  0  0  0  0
    1.2600    1.5150    3.9220 H   0  0  0  0  0  0  0  0  0  0  0  0
    4.0360   -1.1260    4.5110 H   0  0  0  0  0  0  0  0  0  0  0  0
    6.0440   -0.4820    2.9970 H   0  0  0  0  0  0  0  0  0  0  0  0
    5.3590    1.3720    1.3580 H   0  0  0  0  0  0  0  0  0  0  0  0
   -0.2130    1.2200    1.5500 N   0  0  0  0  0  0  0  0  0  0  0  0
   -0.6010    1.6900    0.2820 C   0  0  1  0  0  0  0  0  0  0  0  0
    0.4440    1.9980   -0.7270 C   0  0  0  0  0  0  0  0  0  0  0  0
    1.3350    0.9360   -1.1570 C   0  0  0  0  0  0  0  0  0  0  0  0
    1.1450    0.0390   -2.1900 C   0  0  0  0  0  0  0  0  0  0  0  0
    2.2140   -0.7620   -2.2310 N   0  0  0  0  0  0  0  0  0  0  0  0
    3.0850   -0.4150   -1.2630 C   0  0  0  0  0  0  0  0  0  0  0  0
    2.5280    0.6290   -0.6140 N   0  0  0  0  0  0  0  0  0  0  0  0
   -1.7560    1.0690   -0.3760 C   0  0  0  0  0  0  0  0  0  0  0  0
   -2.0540    1.5900   -1.5110 O   0  0  0  0  0  0  0  0  0  0  0  0
   -0.2650    1.8720    2.4150 H   0  0  0  0  0  0  0  0  0  0  0  0
   -1.0400    2.7670    0.5030 H   0  0  0  0  0  0  0  0  0  0  0  0
   -0.1070    2.3640   -1.6430 H   0  0  0  0  0  0  0  0  0  0  0  0
    1.0050    2.9220   -0.3960 H   0  0  0  0  0  0  0  0  0  0  0  0
    0.2980   -0.0130   -2.8450 H   0  0  0  0  0  0  0  0  0  0  0  0
    2.3920   -1.5650   -2.9080 H   0  0  0  0  0  0  0  0  0  0  0  0
    4.0360   -0.9060   -1.0770 H   0  0  0  0  0  0  0  0  0  0  0  0
   -2.5720    0.0020    0.0680 N   0  0  0  0  0  0  0  0  0  0  0  0
   -3.6750   -0.4000   -0.7510 C   0  0  1  0  0  0  0  0  0  0  0  0
   -3.9290   -1.8390   -0.9280 C   0  0  0  0  0  0  0  0  0  0  0  0
   -2.8020   -2.5590   -1.5300 C   0  0  0  0  0  0  0  0  0  0  0  0
   -2.5260   -2.7220   -2.8850 C   0  0  0  0  0  0  0  0  0  0  0  0
   -1.3850   -3.3890   -3.0170 N   0  0  0  0  0  0  0  0  0  0  0  0
   -0.9190   -3.6620   -1.7920 C   0  0  0  0  0  0  0  0  0  0  0  0
    0.1970   -4.3450   -1.3450 C   0  0  0  0  0  0  0  0  0  0  0  0
    0.4390   -4.5170   -0.0100 C   0  0  0  0  0  0  0  0  0  0  0  0
   -0.4290   -4.0110    0.9230 C   0  0  0  0  0  0  0  0  0  0  0  0
   -1.5530   -3.3220    0.5220 C   0  0  0  0  0  0  0  0  0  0  0  0
   -1.7760   -3.1600   -0.8310 C   0  0  0  0  0  0  0  0  0  0  0  0
   -4.9490    0.2030   -0.1380 C   0  0  0  0  0  0  0  0  0  0  0  0
   -6.0390   -0.0180   -0.6890 O   0  0  0  0  0  0  0  0  0  0  0  0
   -4.8940    0.9730    0.9980 O   0  0  0  0  0  0  0  0  0  0  0  0
   -2.3310   -0.4500    0.9860 H   0  0  0  0  0  0  0  0  0  0  0  0
   -3.5630    0.1290   -1.7570 H   0  0  0  0  0  0  0  0  0  0  0  0
   -4.8470   -2.0240   -1.5400 H   0  0  0  0  0  0  0  0  0  0  0  0
   -4.1310   -2.3420    0.0710 H   0  0  0  0  0  0  0  0  0  0  0  0
   -3.1650   -2.3490   -3.6740 H   0  0  0  0  0  0  0  0  0  0  0  0
   -0.9010   -3.6720   -3.9010 H   0  0  0  0  0  0  0  0  0  0  0  0
    0.8690   -4.7350   -2.1080 H   0  0  0  0  0  0  0  0  0  0  0  0
    1.3170   -5.0540    0.2850 H   0  0  0  0  0  0  0  0  0  0  0  0
   -0.2150   -4.1660    1.9700 H   0  0  0  0  0  0  0  0  0  0  0  0
   -2.2510   -2.9150    1.2570 H   0  0  0  0  0  0  0  0  0  0  0  0
  1 11  1  0  0  0  0
  1 12  1  0  0  0  0
  2  1  1  0  0  0  0
  2 13  1  1  0  0  0
  2  3  1  0  0  0  0
  3 15  1  0  0  0  0
  3 14  1  0  0  0  0
  4  5  2  0  0  0  0
  4  3  1  0  0  0  0
  5 16  1  0  0  0  0
  6 17  1  0  0  0  0
  6  5  1  0  0  0  0
  7  8  2  0  0  0  0
  7  6  1  0  0  0  0
  8  4  1  0  0  0  0
  9  2  1  0  0  0  0
 10  9  2  0  0  0  0
 18  7  1  0  0  0  0
 19  9  1  0  0  0  0
 19 29  1  0  0  0  0
 20 30  1  1  0  0  0
 20 19  1  0  0  0  0
 21 32  1  0  0  0  0
 21 20  1  0  0  0  0
 22 21  1  0  0  0  0
 22 26  1  0  0  0  0
 23 22  2  0  0  0  0
 24 23  1  0  0  0  0
 24 25  1  0  0  0  0
 25 35  1  0  0  0  0
 25 26  2  0  0  0  0
 27 36  1  0  0  0  0
 27 20  1  0  0  0  0
 28 27  2  0  0  0  0
 31 21  1  0  0  0  0
 33 23  1  0  0  0  0
 34 24  1  0  0  0  0
 36 51  1  0  0  0  0
 37 52  1  6  0  0  0
 37 48  1  0  0  0  0
 37 36  1  0  0  0  0
 38 37  1  0  0  0  0
 38 54  1  0  0  0  0
 39 38  1  0  0  0  0
 39 47  1  0  0  0  0
 40 39  2  0  0  0  0
 41 40  1  0  0  0  0
 41 42  1  0  0  0  0
 42 43  2  0  0  0  0
 42 47  1  0  0  0  0
 43 44  1  0  0  0  0
 44 58  1  0  0  0  0
 44 45  2  0  0  0  0
 45 59  1  0  0  0  0
 46 45  1  0  0  0  0
 46 60  1  0  0  0  0
 47 46  2  0  0  0  0
 48 50  1  0  0  0  0
 49 48  2  0  0  0  0
 53 38  1  0  0  0  0
 55 40  1  0  0  0  0
 56 41  1  0  0  0  0
 57 43  1  0  0  0  0
M  END
$$$$
