HIC.pdb
 OpenBabel07022418373D

 49 49  0  0  1  0  0  0  0  0999 V2000
    2.0450   -4.5830   -0.1830 N   0  0  0  0  0  0  0  0  0  0  0  0
    2.0750   -3.0910   -0.3280 C   0  0  1  0  0  0  0  0  0  0  0  0
    1.7250   -2.7460   -1.7270 C   0  0  0  0  0  0  0  0  0  0  0  0
    1.7080   -1.3310   -2.1200 C   0  0  0  0  0  0  0  0  0  0  0  0
    0.6480   -0.4920   -2.2130 C   0  0  0  0  0  0  0  0  0  0  0  0
    1.0960    0.7040   -2.6890 N   0  0  0  0  0  0  0  0  0  0  0  0
    2.4130    0.6380   -2.8980 C   0  0  0  0  0  0  0  0  0  0  0  0
    2.7840   -0.5930   -2.5550 N   0  0  0  0  0  0  0  0  0  0  0  0
    1.3640   -2.4840    0.7850 C   0  0  0  0  0  0  0  0  0  0  0  0
    0.8340   -3.2680    1.6400 O   0  0  0  0  0  0  0  0  0  0  0  0
    1.0300   -4.7970   -0.0710 H   0  0  0  0  0  0  0  0  0  0  0  0
    2.5880   -4.7620    0.6890 H   0  0  0  0  0  0  0  0  0  0  0  0
    3.2030   -2.9000   -0.2430 H   0  0  0  0  0  0  0  0  0  0  0  0
    0.7000   -3.2200   -1.9210 H   0  0  0  0  0  0  0  0  0  0  0  0
    2.3690   -3.3120   -2.4640 H   0  0  0  0  0  0  0  0  0  0  0  0
   -0.3910   -0.6510   -1.9920 H   0  0  0  0  0  0  0  0  0  0  0  0
    0.4990    1.5390   -2.8610 H   0  0  0  0  0  0  0  0  0  0  0  0
    3.0550    1.4300   -3.2740 H   0  0  0  0  0  0  0  0  0  0  0  0
    1.2380    2.1930    4.6240 C   0  0  0  0  0  0  0  0  0  0  0  0
    0.3440    1.1420    3.9450 C   0  0  0  0  0  0  0  0  0  0  0  0
    1.1440    0.6140    2.7770 C   0  0  2  0  0  0  0  0  0  0  0  0
    1.4180    1.7890    1.8640 C   0  0  0  0  0  0  0  0  0  0  0  0
    0.5010   -0.5450    2.1810 C   0  0  2  0  0  0  0  0  0  0  0  0
    1.1860   -1.1370    1.0530 N   0  0  0  0  0  0  0  0  0  0  0  0
   -0.9360   -0.4480    1.8650 C   0  0  0  0  0  0  0  0  0  0  0  0
   -1.7920    0.1360    2.5900 O   0  0  0  0  0  0  0  0  0  0  0  0
    0.9370    3.2190    4.3300 H   0  0  0  0  0  0  0  0  0  0  0  0
    1.1990    2.0860    5.7280 H   0  0  0  0  0  0  0  0  0  0  0  0
    2.2970    2.0680    4.3290 H   0  0  0  0  0  0  0  0  0  0  0  0
    0.1270    0.3610    4.6830 H   0  0  0  0  0  0  0  0  0  0  0  0
   -0.5680    1.7000    3.6160 H   0  0  0  0  0  0  0  0  0  0  0  0
    2.1030    0.2670    3.2640 H   0  0  0  0  0  0  0  0  0  0  0  0
    1.1710    1.5580    0.8050 H   0  0  0  0  0  0  0  0  0  0  0  0
    2.4780    2.1010    1.9970 H   0  0  0  0  0  0  0  0  0  0  0  0
    0.8080    2.6810    2.1320 H   0  0  0  0  0  0  0  0  0  0  0  0
    0.5210   -1.3900    2.9610 H   0  0  0  0  0  0  0  0  0  0  0  0
    1.5940   -0.4360    0.3980 H   0  0  0  0  0  0  0  0  0  0  0  0
   -1.4570   -1.0440    0.6630 N   0  0  0  0  0  0  0  0  0  0  0  0
   -2.8480   -0.9610    0.3250 C   0  0  1  0  0  0  0  0  0  0  0  0
   -3.1130   -0.1710   -0.9480 C   0  0  0  0  0  0  0  0  0  0  0  0
   -2.5090    1.5150   -0.7650 S   0  0  0  0  0  0  0  0  0  0  0  0
   -3.5050   -2.2860    0.2840 C   0  0  0  0  0  0  0  0  0  0  0  0
   -2.8290   -3.3140    0.5360 O   0  0  0  0  0  0  0  0  0  0  0  0
   -4.8450   -2.4520   -0.0200 O   0  0  0  0  0  0  0  0  0  0  0  0
   -0.7580   -1.5420    0.0810 H   0  0  0  0  0  0  0  0  0  0  0  0
   -3.3700   -0.3820    1.1370 H   0  0  0  0  0  0  0  0  0  0  0  0
   -2.7810   -0.6800   -1.8540 H   0  0  0  0  0  0  0  0  0  0  0  0
   -4.2400   -0.0990   -1.0060 H   0  0  0  0  0  0  0  0  0  0  0  0
   -3.1190    2.0540    0.3990 H   0  0  0  0  0  0  0  0  0  0  0  0
  1 11  1  0  0  0  0
  1 12  1  0  0  0  0
  2 13  1  1  0  0  0
  2  1  1  0  0  0  0
  2  9  1  0  0  0  0
  3  2  1  0  0  0  0
  4  3  1  0  0  0  0
  5  4  2  0  0  0  0
  5 16  1  0  0  0  0
  6  5  1  0  0  0  0
  7  6  1  0  0  0  0
  7  8  2  0  0  0  0
  8  4  1  0  0  0  0
  9 24  1  0  0  0  0
  9 10  2  0  0  0  0
 14  3  1  0  0  0  0
 15  3  1  0  0  0  0
 17  6  1  0  0  0  0
 18  7  1  0  0  0  0
 19 28  1  0  0  0  0
 20 19  1  0  0  0  0
 20 30  1  0  0  0  0
 21 32  1  1  0  0  0
 21 20  1  0  0  0  0
 22 34  1  0  0  0  0
 22 35  1  0  0  0  0
 22 21  1  0  0  0  0
 23 21  1  0  0  0  0
 23 36  1  1  0  0  0
 24 23  1  0  0  0  0
 25 23  1  0  0  0  0
 25 26  2  0  0  0  0
 27 19  1  0  0  0  0
 29 19  1  0  0  0  0
 31 20  1  0  0  0  0
 33 22  1  0  0  0  0
 37 24  1  0  0  0  0
 38 25  1  0  0  0  0
 39 38  1  0  0  0  0
 39 46  1  1  0  0  0
 40 41  1  0  0  0  0
 40 39  1  0  0  0  0
 41 49  1  0  0  0  0
 42 39  1  0  0  0  0
 42 43  1  0  0  0  0
 44 42  2  0  0  0  0
 45 38  1  0  0  0  0
 47 40  1  0  0  0  0
 48 40  1  0  0  0  0
M  END
$$$$
