HIG.pdb
 OpenBabel07022418373D

 45 45  0  0  1  0  0  0  0  0999 V2000
   -0.5100   -3.1430    4.0430 N   0  0  0  0  0  0  0  0  0  0  0  0
    0.3760   -2.0890    3.5850 C   0  0  1  0  0  0  0  0  0  0  0  0
    1.7380   -2.6200    3.2810 C   0  0  0  0  0  0  0  0  0  0  0  0
    1.6960   -3.6650    2.2330 C   0  0  0  0  0  0  0  0  0  0  0  0
    1.7940   -3.5370    0.8740 C   0  0  0  0  0  0  0  0  0  0  0  0
    1.6980   -4.7830    0.3660 N   0  0  0  0  0  0  0  0  0  0  0  0
    1.5450   -5.6410    1.3770 C   0  0  0  0  0  0  0  0  0  0  0  0
    1.5410   -4.9790    2.5370 N   0  0  0  0  0  0  0  0  0  0  0  0
   -0.2010   -1.4380    2.3990 C   0  0  0  0  0  0  0  0  0  0  0  0
   -1.2530   -1.8910    1.8520 O   0  0  0  0  0  0  0  0  0  0  0  0
   -1.5110   -2.9160    3.9310 H   0  0  0  0  0  0  0  0  0  0  0  0
   -0.2650   -3.4860    4.9910 H   0  0  0  0  0  0  0  0  0  0  0  0
    0.4760   -1.3060    4.3890 H   0  0  0  0  0  0  0  0  0  0  0  0
    2.2610   -2.9800    4.1910 H   0  0  0  0  0  0  0  0  0  0  0  0
    2.3540   -1.7680    2.8940 H   0  0  0  0  0  0  0  0  0  0  0  0
    1.9240   -2.6160    0.3380 H   0  0  0  0  0  0  0  0  0  0  0  0
    1.7390   -4.9990   -0.6550 H   0  0  0  0  0  0  0  0  0  0  0  0
    1.4440   -6.7240    1.2140 H   0  0  0  0  0  0  0  0  0  0  0  0
   -2.9970    1.2140    1.6750 C   0  0  0  0  0  0  0  0  0  0  0  0
   -1.6730    1.6710    2.1900 C   0  0  0  0  0  0  0  0  0  0  0  0
   -0.5950    1.7640    1.1350 C   0  0  2  0  0  0  0  0  0  0  0  0
   -1.0020    2.7240    0.0760 C   0  0  0  0  0  0  0  0  0  0  0  0
   -0.1420    0.4060    0.6540 C   0  0  2  0  0  0  0  0  0  0  0  0
    0.3800   -0.2970    1.8290 N   0  0  0  0  0  0  0  0  0  0  0  0
    0.8640    0.4560   -0.4210 C   0  0  0  0  0  0  0  0  0  0  0  0
    2.0680    0.0460   -0.2300 O   0  0  0  0  0  0  0  0  0  0  0  0
   -3.2520    1.7010    0.7020 H   0  0  0  0  0  0  0  0  0  0  0  0
   -3.0910    0.1130    1.6190 H   0  0  0  0  0  0  0  0  0  0  0  0
   -3.8110    1.5690    2.3680 H   0  0  0  0  0  0  0  0  0  0  0  0
   -1.7390    2.6510    2.7150 H   0  0  0  0  0  0  0  0  0  0  0  0
   -1.3140    0.9110    2.9300 H   0  0  0  0  0  0  0  0  0  0  0  0
    0.2860    2.2330    1.6820 H   0  0  0  0  0  0  0  0  0  0  0  0
   -1.3550    3.6580    0.6230 H   0  0  0  0  0  0  0  0  0  0  0  0
   -0.1230    3.1000   -0.5020 H   0  0  0  0  0  0  0  0  0  0  0  0
   -1.8240    2.3750   -0.5680 H   0  0  0  0  0  0  0  0  0  0  0  0
   -1.0300   -0.1530    0.3270 H   0  0  0  0  0  0  0  0  0  0  0  0
    1.2400    0.0980    2.2490 H   0  0  0  0  0  0  0  0  0  0  0  0
    0.6350    0.9390   -1.7390 N   0  0  0  0  0  0  0  0  0  0  0  0
    1.6900    0.9530   -2.7320 C   0  0  0  0  0  0  0  0  0  0  0  0
    1.1440    1.5060   -3.9870 C   0  0  0  0  0  0  0  0  0  0  0  0
   -0.0560    1.8630   -4.0300 O   0  0  0  0  0  0  0  0  0  0  0  0
    1.8990    1.6560   -5.1410 O   0  0  0  0  0  0  0  0  0  0  0  0
   -0.3110    1.2790   -1.9960 H   0  0  0  0  0  0  0  0  0  0  0  0
    2.5300    1.6190   -2.4300 H   0  0  0  0  0  0  0  0  0  0  0  0
    2.1380   -0.0520   -2.8760 H   0  0  0  0  0  0  0  0  0  0  0  0
  1 12  1  0  0  0  0
  2  1  1  0  0  0  0
  2 13  1  1  0  0  0
  3  2  1  0  0  0  0
  3 14  1  0  0  0  0
  4  8  1  0  0  0  0
  4  3  1  0  0  0  0
  5  4  2  0  0  0  0
  6  5  1  0  0  0  0
  6  7  1  0  0  0  0
  7  8  2  0  0  0  0
  9  2  1  0  0  0  0
 10  9  2  0  0  0  0
 11  1  1  0  0  0  0
 15  3  1  0  0  0  0
 16  5  1  0  0  0  0
 17  6  1  0  0  0  0
 18  7  1  0  0  0  0
 19 20  1  0  0  0  0
 19 29  1  0  0  0  0
 20 30  1  0  0  0  0
 20 31  1  0  0  0  0
 21 32  1  1  0  0  0
 21 20  1  0  0  0  0
 22 33  1  0  0  0  0
 22 21  1  0  0  0  0
 23 36  1  6  0  0  0
 23 21  1  0  0  0  0
 23 24  1  0  0  0  0
 24 37  1  0  0  0  0
 24  9  1  0  0  0  0
 25 26  2  0  0  0  0
 25 23  1  0  0  0  0
 27 19  1  0  0  0  0
 28 19  1  0  0  0  0
 34 22  1  0  0  0  0
 35 22  1  0  0  0  0
 38 25  1  0  0  0  0
 39 44  1  0  0  0  0
 39 38  1  0  0  0  0
 40 39  1  0  0  0  0
 41 40  1  0  0  0  0
 42 40  2  0  0  0  0
 43 38  1  0  0  0  0
 45 39  1  0  0  0  0
M  END
$$$$
