HIH.pdb
 OpenBabel07022418373D

 55 56  0  0  1  0  0  0  0  0999 V2000
    3.4650   -0.4950    2.9910 N   0  0  0  0  0  0  0  0  0  0  0  0
    2.7410   -0.2270    1.7630 C   0  0  1  0  0  0  0  0  0  0  0  0
    2.7970   -1.4760    0.9260 C   0  0  0  0  0  0  0  0  0  0  0  0
    4.2140   -1.8090    0.6330 C   0  0  0  0  0  0  0  0  0  0  0  0
    5.3670   -1.1580    1.0080 C   0  0  0  0  0  0  0  0  0  0  0  0
    6.4350   -1.8330    0.5040 N   0  0  0  0  0  0  0  0  0  0  0  0
    5.9720   -2.8800   -0.1700 C   0  0  0  0  0  0  0  0  0  0  0  0
    4.6300   -2.8710   -0.0960 N   0  0  0  0  0  0  0  0  0  0  0  0
    1.3860    0.1990    2.1000 C   0  0  0  0  0  0  0  0  0  0  0  0
    1.0130    0.2870    3.3000 O   0  0  0  0  0  0  0  0  0  0  0  0
    2.7560   -0.8310    3.6820 H   0  0  0  0  0  0  0  0  0  0  0  0
    3.8620    0.3860    3.4170 H   0  0  0  0  0  0  0  0  0  0  0  0
    3.3290    0.5640    1.2290 H   0  0  0  0  0  0  0  0  0  0  0  0
    2.2820   -1.3800   -0.0420 H   0  0  0  0  0  0  0  0  0  0  0  0
    2.3630   -2.3500    1.4480 H   0  0  0  0  0  0  0  0  0  0  0  0
    5.3860   -0.2540    1.6100 H   0  0  0  0  0  0  0  0  0  0  0  0
    7.4160   -1.5440    0.6470 H   0  0  0  0  0  0  0  0  0  0  0  0
    6.5760   -3.6150   -0.6910 H   0  0  0  0  0  0  0  0  0  0  0  0
   -0.3020    3.5290    2.9140 C   0  0  0  0  0  0  0  0  0  0  0  0
   -0.2830    3.3780    1.4250 C   0  0  0  0  0  0  0  0  0  0  0  0
   -1.2590    2.3300    0.9260 C   0  0  2  0  0  0  0  0  0  0  0  0
   -2.6550    2.7320    1.3420 C   0  0  0  0  0  0  0  0  0  0  0  0
   -0.9340    0.9600    1.4940 C   0  0  2  0  0  0  0  0  0  0  0  0
    0.4020    0.5410    1.1110 N   0  0  0  0  0  0  0  0  0  0  0  0
   -1.9310    0.0040    0.9080 C   0  0  0  0  0  0  0  0  0  0  0  0
   -3.1360    0.1880    1.1230 O   0  0  0  0  0  0  0  0  0  0  0  0
   -0.9360    2.8160    3.4460 H   0  0  0  0  0  0  0  0  0  0  0  0
    0.7530    3.3890    3.2810 H   0  0  0  0  0  0  0  0  0  0  0  0
   -0.6090    4.5750    3.2060 H   0  0  0  0  0  0  0  0  0  0  0  0
    0.7350    3.1340    1.0390 H   0  0  0  0  0  0  0  0  0  0  0  0
   -0.5930    4.3390    0.9500 H   0  0  0  0  0  0  0  0  0  0  0  0
   -1.2010    2.2790   -0.1670 H   0  0  0  0  0  0  0  0  0  0  0  0
   -2.7070    3.8440    1.5110 H   0  0  0  0  0  0  0  0  0  0  0  0
   -3.4070    2.4370    0.5620 H   0  0  0  0  0  0  0  0  0  0  0  0
   -2.9530    2.2120    2.2710 H   0  0  0  0  0  0  0  0  0  0  0  0
   -1.0650    0.9780    2.5760 H   0  0  0  0  0  0  0  0  0  0  0  0
    0.6880    0.4750    0.1310 H   0  0  0  0  0  0  0  0  0  0  0  0
   -1.5270   -1.0880    0.1260 N   0  0  0  0  0  0  0  0  0  0  0  0
   -2.4280   -2.0540   -0.4740 C   0  0  1  0  0  0  0  0  0  0  0  0
   -2.4050   -2.0010   -1.9630 C   0  0  0  0  0  0  0  0  0  0  0  0
   -3.3300   -2.9940   -2.5610 C   0  0  0  0  0  0  0  0  0  0  0  0
   -3.0470   -4.2990   -2.9370 C   0  0  0  0  0  0  0  0  0  0  0  0
   -4.1690   -4.8360   -3.4450 N   0  0  0  0  0  0  0  0  0  0  0  0
   -5.1620   -3.9310   -3.4110 C   0  0  0  0  0  0  0  0  0  0  0  0
   -4.6290   -2.8230   -2.8710 N   0  0  0  0  0  0  0  0  0  0  0  0
   -2.1230   -3.3750    0.1130 C   0  0  0  0  0  0  0  0  0  0  0  0
   -1.1990   -3.5060    0.9530 O   0  0  0  0  0  0  0  0  0  0  0  0
   -2.8270   -4.5190   -0.2220 O   0  0  0  0  0  0  0  0  0  0  0  0
   -0.5060   -1.2320   -0.0480 H   0  0  0  0  0  0  0  0  0  0  0  0
   -3.4610   -1.7120   -0.1640 H   0  0  0  0  0  0  0  0  0  0  0  0
   -2.7860   -0.9930   -2.2570 H   0  0  0  0  0  0  0  0  0  0  0  0
   -1.3620   -2.1610   -2.3060 H   0  0  0  0  0  0  0  0  0  0  0  0
   -2.1230   -4.8190   -2.8570 H   0  0  0  0  0  0  0  0  0  0  0  0
   -4.3220   -5.8030   -3.8260 H   0  0  0  0  0  0  0  0  0  0  0  0
   -6.2000   -4.0720   -3.7560 H   0  0  0  0  0  0  0  0  0  0  0  0
  1 12  1  0  0  0  0
  1 11  1  0  0  0  0
  2 13  1  6  0  0  0
  2  9  1  0  0  0  0
  2  1  1  0  0  0  0
  3 15  1  0  0  0  0
  3  2  1  0  0  0  0
  4  3  1  0  0  0  0
  4  5  2  0  0  0  0
  5 16  1  0  0  0  0
  6 17  1  0  0  0  0
  6  5  1  0  0  0  0
  7  8  2  0  0  0  0
  7  6  1  0  0  0  0
  8  4  1  0  0  0  0
  9 10  2  0  0  0  0
 14  3  1  0  0  0  0
 18  7  1  0  0  0  0
 19 29  1  0  0  0  0
 19 28  1  0  0  0  0
 19 27  1  0  0  0  0
 20 19  1  0  0  0  0
 21 32  1  6  0  0  0
 21 22  1  0  0  0  0
 21 20  1  0  0  0  0
 21 23  1  0  0  0  0
 22 33  1  0  0  0  0
 22 35  1  0  0  0  0
 23 36  1  1  0  0  0
 24 23  1  0  0  0  0
 24  9  1  0  0  0  0
 25 26  2  0  0  0  0
 25 23  1  0  0  0  0
 30 20  1  0  0  0  0
 31 20  1  0  0  0  0
 34 22  1  0  0  0  0
 37 24  1  0  0  0  0
 38 25  1  0  0  0  0
 39 50  1  1  0  0  0
 39 46  1  0  0  0  0
 39 38  1  0  0  0  0
 40 39  1  0  0  0  0
 41 40  1  0  0  0  0
 42 53  1  0  0  0  0
 42 41  2  0  0  0  0
 43 44  1  0  0  0  0
 43 42  1  0  0  0  0
 44 45  2  0  0  0  0
 45 41  1  0  0  0  0
 46 47  1  0  0  0  0
 48 46  2  0  0  0  0
 49 38  1  0  0  0  0
 51 40  1  0  0  0  0
 52 40  1  0  0  0  0
 54 43  1  0  0  0  0
 55 44  1  0  0  0  0
M  END
$$$$
