HII.pdb
 OpenBabel07022418373D

 57 57  0  0  1  0  0  0  0  0999 V2000
   -2.9840   -0.9300    2.3420 N   0  0  0  0  0  0  0  0  0  0  0  0
   -1.6600   -1.0710    2.9350 C   0  0  1  0  0  0  0  0  0  0  0  0
   -1.3010   -2.5220    2.8790 C   0  0  0  0  0  0  0  0  0  0  0  0
    0.0440   -2.7960    3.4520 C   0  0  0  0  0  0  0  0  0  0  0  0
    0.3970   -3.0990    4.7500 C   0  0  0  0  0  0  0  0  0  0  0  0
    1.7320   -3.2780    4.8640 N   0  0  0  0  0  0  0  0  0  0  0  0
    2.2280   -3.0840    3.6160 C   0  0  0  0  0  0  0  0  0  0  0  0
    1.2240   -2.7970    2.7740 N   0  0  0  0  0  0  0  0  0  0  0  0
   -0.6490   -0.2570    2.1910 C   0  0  0  0  0  0  0  0  0  0  0  0
    0.4960   -0.2280    2.6450 O   0  0  0  0  0  0  0  0  0  0  0  0
   -3.5200   -1.8020    2.4210 H   0  0  0  0  0  0  0  0  0  0  0  0
   -3.4470   -0.1010    2.7890 H   0  0  0  0  0  0  0  0  0  0  0  0
   -1.7200   -0.7530    3.9810 H   0  0  0  0  0  0  0  0  0  0  0  0
   -1.3260   -2.9250    1.8450 H   0  0  0  0  0  0  0  0  0  0  0  0
   -2.0460   -3.0770    3.4990 H   0  0  0  0  0  0  0  0  0  0  0  0
   -0.3210   -3.1770    5.5530 H   0  0  0  0  0  0  0  0  0  0  0  0
    2.2780   -3.5150    5.7180 H   0  0  0  0  0  0  0  0  0  0  0  0
    3.2910   -3.1700    3.4300 H   0  0  0  0  0  0  0  0  0  0  0  0
    1.7450    3.3470    2.7730 C   0  0  0  0  0  0  0  0  0  0  0  0
    0.6370    2.6920    2.0310 C   0  0  0  0  0  0  0  0  0  0  0  0
    1.0960    1.8070    0.8740 C   0  0  2  0  0  0  0  0  0  0  0  0
    1.8270    2.7290   -0.0760 C   0  0  0  0  0  0  0  0  0  0  0  0
   -0.1490    1.2790    0.2130 C   0  0  2  0  0  0  0  0  0  0  0  0
   -0.9820    0.4490    1.0190 N   0  0  0  0  0  0  0  0  0  0  0  0
   -0.0040    0.8450   -1.1740 C   0  0  0  0  0  0  0  0  0  0  0  0
    0.7040    1.4190   -2.0380 O   0  0  0  0  0  0  0  0  0  0  0  0
    2.7580    3.0880    2.4120 H   0  0  0  0  0  0  0  0  0  0  0  0
    1.6430    3.1390    3.8760 H   0  0  0  0  0  0  0  0  0  0  0  0
    1.6520    4.4460    2.6990 H   0  0  0  0  0  0  0  0  0  0  0  0
   -0.1140    2.2450    2.6710 H   0  0  0  0  0  0  0  0  0  0  0  0
    0.1200    3.5580    1.4580 H   0  0  0  0  0  0  0  0  0  0  0  0
    1.7860    0.9940    1.2160 H   0  0  0  0  0  0  0  0  0  0  0  0
    2.5210    2.2010   -0.7550 H   0  0  0  0  0  0  0  0  0  0  0  0
    2.3270    3.5710    0.4800 H   0  0  0  0  0  0  0  0  0  0  0  0
    1.0700    3.2640   -0.7140 H   0  0  0  0  0  0  0  0  0  0  0  0
   -0.7710    2.2740    0.1460 H   0  0  0  0  0  0  0  0  0  0  0  0
   -2.0090    0.3240    0.7230 H   0  0  0  0  0  0  0  0  0  0  0  0
   -0.3440   -4.5330   -2.2820 C   0  0  0  0  0  0  0  0  0  0  0  0
   -0.9030   -3.1140   -2.2780 C   0  0  0  0  0  0  0  0  0  0  0  0
   -0.0010   -2.1680   -3.0120 C   0  0  2  0  0  0  0  0  0  0  0  0
    1.3710   -2.1190   -2.3750 C   0  0  0  0  0  0  0  0  0  0  0  0
   -0.5640   -0.7670   -3.0310 C   0  0  2  0  0  0  0  0  0  0  0  0
   -0.7040   -0.3300   -1.6570 N   0  0  0  0  0  0  0  0  0  0  0  0
   -1.8170   -0.6740   -3.7860 C   0  0  0  0  0  0  0  0  0  0  0  0
   -1.8480   -0.9940   -4.9940 O   0  0  0  0  0  0  0  0  0  0  0  0
   -2.9930   -0.2390   -3.2050 O   0  0  0  0  0  0  0  0  0  0  0  0
   -1.0000   -5.2210   -1.7260 H   0  0  0  0  0  0  0  0  0  0  0  0
   -0.3580   -4.8630   -3.3470 H   0  0  0  0  0  0  0  0  0  0  0  0
    0.6940   -4.4810   -1.9290 H   0  0  0  0  0  0  0  0  0  0  0  0
   -1.8920   -3.1740   -2.7700 H   0  0  0  0  0  0  0  0  0  0  0  0
   -1.0140   -2.7680   -1.2320 H   0  0  0  0  0  0  0  0  0  0  0  0
    0.1820   -2.5260   -4.0560 H   0  0  0  0  0  0  0  0  0  0  0  0
    1.7500   -1.0800   -2.3900 H   0  0  0  0  0  0  0  0  0  0  0  0
    2.1130   -2.7610   -2.9310 H   0  0  0  0  0  0  0  0  0  0  0  0
    1.3760   -2.5420   -1.3420 H   0  0  0  0  0  0  0  0  0  0  0  0
    0.1800   -0.1400   -3.5830 H   0  0  0  0  0  0  0  0  0  0  0  0
   -1.2960   -0.8070   -0.9500 H   0  0  0  0  0  0  0  0  0  0  0  0
  1 11  1  0  0  0  0
  1 12  1  0  0  0  0
  1  2  1  0  0  0  0
  2 13  1  1  0  0  0
  3  2  1  0  0  0  0
  3  4  1  0  0  0  0
  3 15  1  0  0  0  0
  4  5  2  0  0  0  0
  5  6  1  0  0  0  0
  5 16  1  0  0  0  0
  6 17  1  0  0  0  0
  7  6  1  0  0  0  0
  8  4  1  0  0  0  0
  8  7  2  0  0  0  0
  9 10  2  0  0  0  0
  9  2  1  0  0  0  0
 14  3  1  0  0  0  0
 18  7  1  0  0  0  0
 19 28  1  0  0  0  0
 20 30  1  0  0  0  0
 20 19  1  0  0  0  0
 21 32  1  1  0  0  0
 21 20  1  0  0  0  0
 22 34  1  0  0  0  0
 22 21  1  0  0  0  0
 23 36  1  6  0  0  0
 23 21  1  0  0  0  0
 23 24  1  0  0  0  0
 24  9  1  0  0  0  0
 25 23  1  0  0  0  0
 26 25  2  0  0  0  0
 27 19  1  0  0  0  0
 29 19  1  0  0  0  0
 31 20  1  0  0  0  0
 33 22  1  0  0  0  0
 35 22  1  0  0  0  0
 37 24  1  0  0  0  0
 38 39  1  0  0  0  0
 38 49  1  0  0  0  0
 38 47  1  0  0  0  0
 39 51  1  0  0  0  0
 40 52  1  6  0  0  0
 40 41  1  0  0  0  0
 40 39  1  0  0  0  0
 41 55  1  0  0  0  0
 42 56  1  6  0  0  0
 42 40  1  0  0  0  0
 42 43  1  0  0  0  0
 43 25  1  0  0  0  0
 43 57  1  0  0  0  0
 44 46  1  0  0  0  0
 44 42  1  0  0  0  0
 45 44  2  0  0  0  0
 48 38  1  0  0  0  0
 50 39  1  0  0  0  0
 53 41  1  0  0  0  0
 54 41  1  0  0  0  0
M  END
$$$$
