HIK.pdb
 OpenBabel07022418373D

 59 59  0  0  1  0  0  0  0  0999 V2000
    0.2690   -1.9270    3.0670 N   0  0  0  0  0  0  0  0  0  0  0  0
    1.4640   -1.1070    2.8090 C   0  0  1  0  0  0  0  0  0  0  0  0
    2.4460   -1.8870    2.0230 C   0  0  0  0  0  0  0  0  0  0  0  0
    3.7370   -1.2780    1.7450 C   0  0  0  0  0  0  0  0  0  0  0  0
    4.3420   -0.1350    2.1640 C   0  0  0  0  0  0  0  0  0  0  0  0
    5.6050   -0.0570    1.6500 N   0  0  0  0  0  0  0  0  0  0  0  0
    5.7560   -1.1630    0.9200 C   0  0  0  0  0  0  0  0  0  0  0  0
    4.6660   -1.9120    0.9540 N   0  0  0  0  0  0  0  0  0  0  0  0
    0.9790    0.0330    1.9090 C   0  0  0  0  0  0  0  0  0  0  0  0
    1.8490    0.7320    1.3840 O   0  0  0  0  0  0  0  0  0  0  0  0
   -0.1680   -2.2810    2.2130 H   0  0  0  0  0  0  0  0  0  0  0  0
   -0.3390   -1.5270    3.7860 H   0  0  0  0  0  0  0  0  0  0  0  0
    1.8340   -0.7180    3.7340 H   0  0  0  0  0  0  0  0  0  0  0  0
    2.6390   -2.8490    2.6020 H   0  0  0  0  0  0  0  0  0  0  0  0
    1.9610   -2.2940    1.0770 H   0  0  0  0  0  0  0  0  0  0  0  0
    3.9570    0.6140    2.8150 H   0  0  0  0  0  0  0  0  0  0  0  0
    6.2980    0.6980    1.7950 H   0  0  0  0  0  0  0  0  0  0  0  0
    6.6580   -1.4080    0.3730 H   0  0  0  0  0  0  0  0  0  0  0  0
   -0.6790    4.1650    2.1770 C   0  0  0  0  0  0  0  0  0  0  0  0
    0.3840    3.3220    1.4690 C   0  0  0  0  0  0  0  0  0  0  0  0
   -0.2000    2.4200    0.4520 C   0  0  2  0  0  0  0  0  0  0  0  0
   -0.9240    3.2880   -0.5710 C   0  0  0  0  0  0  0  0  0  0  0  0
   -1.0070    1.2690    0.9270 C   0  0  2  0  0  0  0  0  0  0  0  0
   -0.3800    0.2620    1.7000 N   0  0  0  0  0  0  0  0  0  0  0  0
   -1.9260    0.7450   -0.1000 C   0  0  0  0  0  0  0  0  0  0  0  0
   -2.6000    1.4580   -0.8870 O   0  0  0  0  0  0  0  0  0  0  0  0
   -0.9210    3.6830    3.1610 H   0  0  0  0  0  0  0  0  0  0  0  0
   -1.6140    4.2440    1.6320 H   0  0  0  0  0  0  0  0  0  0  0  0
   -0.2890    5.1720    2.4300 H   0  0  0  0  0  0  0  0  0  0  0  0
    0.9980    4.0850    0.9030 H   0  0  0  0  0  0  0  0  0  0  0  0
    1.0220    2.9400    2.2410 H   0  0  0  0  0  0  0  0  0  0  0  0
    0.6770    1.9790   -0.1260 H   0  0  0  0  0  0  0  0  0  0  0  0
   -1.9260    3.5710   -0.2500 H   0  0  0  0  0  0  0  0  0  0  0  0
   -0.3190    4.2440   -0.6330 H   0  0  0  0  0  0  0  0  0  0  0  0
   -0.8550    2.8150   -1.5720 H   0  0  0  0  0  0  0  0  0  0  0  0
   -1.7180    1.8240    1.6960 H   0  0  0  0  0  0  0  0  0  0  0  0
   -1.0300   -0.4360    2.2100 H   0  0  0  0  0  0  0  0  0  0  0  0
   -2.1080   -0.6820   -0.2610 N   0  0  0  0  0  0  0  0  0  0  0  0
   -2.9670   -1.2860   -1.2180 C   0  0  1  0  0  0  0  0  0  0  0  0
   -2.2540   -2.2140   -2.1770 C   0  0  0  0  0  0  0  0  0  0  0  0
   -1.5710   -3.3490   -1.4710 C   0  0  0  0  0  0  0  0  0  0  0  0
   -0.8980   -4.2030   -2.5250 C   0  0  0  0  0  0  0  0  0  0  0  0
   -0.1780   -5.3810   -1.9050 C   0  0  0  0  0  0  0  0  0  0  0  0
   -1.1350   -6.1910   -1.1940 N   0  0  0  0  0  0  0  0  0  0  0  0
   -4.0040   -2.0950   -0.5280 C   0  0  0  0  0  0  0  0  0  0  0  0
   -4.8860   -2.7290   -1.1700 O   0  0  0  0  0  0  0  0  0  0  0  0
   -4.0070   -2.1560    0.8420 O   0  0  0  0  0  0  0  0  0  0  0  0
   -1.5500   -1.2700    0.3920 H   0  0  0  0  0  0  0  0  0  0  0  0
   -3.5090   -0.5450   -1.8570 H   0  0  0  0  0  0  0  0  0  0  0  0
   -1.5840   -1.6710   -2.8660 H   0  0  0  0  0  0  0  0  0  0  0  0
   -3.0500   -2.6660   -2.8200 H   0  0  0  0  0  0  0  0  0  0  0  0
   -2.3480   -3.9810   -0.9920 H   0  0  0  0  0  0  0  0  0  0  0  0
   -0.8060   -3.0080   -0.7470 H   0  0  0  0  0  0  0  0  0  0  0  0
   -0.2220   -3.5960   -3.1360 H   0  0  0  0  0  0  0  0  0  0  0  0
   -1.6890   -4.6000   -3.1860 H   0  0  0  0  0  0  0  0  0  0  0  0
    0.5830   -4.9890   -1.1920 H   0  0  0  0  0  0  0  0  0  0  0  0
    0.3580   -5.9260   -2.6910 H   0  0  0  0  0  0  0  0  0  0  0  0
   -0.7110   -7.1220   -0.9870 H   0  0  0  0  0  0  0  0  0  0  0  0
   -1.3500   -5.7410   -0.2720 H   0  0  0  0  0  0  0  0  0  0  0  0
  1 12  1  0  0  0  0
  2  1  1  0  0  0  0
  2 13  1  1  0  0  0
  3 14  1  0  0  0  0
  3  2  1  0  0  0  0
  4  3  1  0  0  0  0
  4  5  2  0  0  0  0
  5 16  1  0  0  0  0
  6 17  1  0  0  0  0
  6  5  1  0  0  0  0
  7  8  2  0  0  0  0
  7  6  1  0  0  0  0
  8  4  1  0  0  0  0
  9  2  1  0  0  0  0
 10  9  2  0  0  0  0
 11  1  1  0  0  0  0
 15  3  1  0  0  0  0
 18  7  1  0  0  0  0
 19 29  1  0  0  0  0
 19 27  1  0  0  0  0
 20 19  1  0  0  0  0
 20 31  1  0  0  0  0
 21 32  1  6  0  0  0
 21 23  1  0  0  0  0
 21 20  1  0  0  0  0
 22 33  1  0  0  0  0
 22 21  1  0  0  0  0
 23 36  1  1  0  0  0
 23 24  1  0  0  0  0
 24  9  1  0  0  0  0
 24 37  1  0  0  0  0
 25 23  1  0  0  0  0
 26 25  2  0  0  0  0
 28 19  1  0  0  0  0
 30 20  1  0  0  0  0
 34 22  1  0  0  0  0
 35 22  1  0  0  0  0
 38 25  1  0  0  0  0
 38 48  1  0  0  0  0
 39 49  1  6  0  0  0
 39 45  1  0  0  0  0
 39 38  1  0  0  0  0
 40 41  1  0  0  0  0
 40 39  1  0  0  0  0
 41 52  1  0  0  0  0
 41 53  1  0  0  0  0
 42 43  1  0  0  0  0
 42 41  1  0  0  0  0
 43 44  1  0  0  0  0
 43 56  1  0  0  0  0
 44 58  1  0  0  0  0
 44 59  1  0  0  0  0
 45 47  1  0  0  0  0
 46 45  2  0  0  0  0
 50 40  1  0  0  0  0
 51 40  1  0  0  0  0
 54 42  1  0  0  0  0
 55 42  1  0  0  0  0
 57 43  1  0  0  0  0
M  END
$$$$
