HIP.pdb
 OpenBabel07022418373D

 52 53  0  0  1  0  0  0  0  0999 V2000
    0.5890   -1.3210    3.8010 N   0  0  0  0  0  0  0  0  0  0  0  0
    1.4830   -1.4410    2.6740 C   0  0  1  0  0  0  0  0  0  0  0  0
    1.4680   -2.8880    2.2550 C   0  0  0  0  0  0  0  0  0  0  0  0
    2.3810   -3.0770    1.0910 C   0  0  0  0  0  0  0  0  0  0  0  0
    3.7290   -3.3860    1.1690 C   0  0  0  0  0  0  0  0  0  0  0  0
    4.2170   -3.4770   -0.0750 N   0  0  0  0  0  0  0  0  0  0  0  0
    3.2200   -3.2340   -0.9440 C   0  0  0  0  0  0  0  0  0  0  0  0
    2.1150   -2.9940   -0.2250 N   0  0  0  0  0  0  0  0  0  0  0  0
    1.0500   -0.5480    1.5450 C   0  0  0  0  0  0  0  0  0  0  0  0
    1.7030   -0.4750    0.5030 O   0  0  0  0  0  0  0  0  0  0  0  0
   -0.3180   -1.7640    3.5430 H   0  0  0  0  0  0  0  0  0  0  0  0
    0.5190   -0.3830    4.2100 H   0  0  0  0  0  0  0  0  0  0  0  0
    2.4910   -1.1540    3.0340 H   0  0  0  0  0  0  0  0  0  0  0  0
    1.8380   -3.5490    3.0610 H   0  0  0  0  0  0  0  0  0  0  0  0
    0.4570   -3.2320    1.9640 H   0  0  0  0  0  0  0  0  0  0  0  0
    4.2560   -3.5230    2.1040 H   0  0  0  0  0  0  0  0  0  0  0  0
    5.2270   -3.7040   -0.2880 H   0  0  0  0  0  0  0  0  0  0  0  0
    3.2970   -3.2330   -2.0310 H   0  0  0  0  0  0  0  0  0  0  0  0
    1.6390    2.3110    2.4390 C   0  0  0  0  0  0  0  0  0  0  0  0
    0.9220    2.9330    1.2960 C   0  0  0  0  0  0  0  0  0  0  0  0
    0.3860    2.0540    0.2110 C   0  0  2  0  0  0  0  0  0  0  0  0
   -0.2650    3.0220   -0.7910 C   0  0  0  0  0  0  0  0  0  0  0  0
   -0.6660    1.1210    0.7090 C   0  0  2  0  0  0  0  0  0  0  0  0
   -0.1410    0.2270    1.6910 N   0  0  0  0  0  0  0  0  0  0  0  0
   -1.5760    0.5420   -0.2760 C   0  0  0  0  0  0  0  0  0  0  0  0
   -1.9120    1.3020   -1.2560 O   0  0  0  0  0  0  0  0  0  0  0  0
    2.0380    3.1590    3.1130 H   0  0  0  0  0  0  0  0  0  0  0  0
    2.5240    1.7170    2.1560 H   0  0  0  0  0  0  0  0  0  0  0  0
    1.0020    1.7440    3.1230 H   0  0  0  0  0  0  0  0  0  0  0  0
    0.0890    3.5570    1.7280 H   0  0  0  0  0  0  0  0  0  0  0  0
    1.6140    3.7210    0.8690 H   0  0  0  0  0  0  0  0  0  0  0  0
    1.2330    1.5660   -0.3170 H   0  0  0  0  0  0  0  0  0  0  0  0
   -1.2610    3.2770   -0.4360 H   0  0  0  0  0  0  0  0  0  0  0  0
   -0.2170    2.6180   -1.8110 H   0  0  0  0  0  0  0  0  0  0  0  0
    0.3750    3.9570   -0.7720 H   0  0  0  0  0  0  0  0  0  0  0  0
   -1.3640    1.8600    1.3020 H   0  0  0  0  0  0  0  0  0  0  0  0
   -0.6500    0.1030    2.6170 H   0  0  0  0  0  0  0  0  0  0  0  0
   -2.1510   -0.7380   -0.3130 N   0  0  0  0  0  0  0  0  0  0  0  0
   -2.0800   -1.8450    0.5900 C   0  0  0  0  0  0  0  0  0  0  0  0
   -1.7400   -2.9760   -0.4030 C   0  0  0  0  0  0  0  0  0  0  0  0
   -2.4750   -2.5990   -1.6570 C   0  0  0  0  0  0  0  0  0  0  0  0
   -3.0060   -1.2150   -1.4130 C   0  0  1  0  0  0  0  0  0  0  0  0
   -4.4280   -1.2950   -1.0330 C   0  0  0  0  0  0  0  0  0  0  0  0
   -4.9250   -0.9310    0.0590 O   0  0  0  0  0  0  0  0  0  0  0  0
   -5.3360   -1.8230   -1.9540 O   0  0  0  0  0  0  0  0  0  0  0  0
   -3.1360   -2.0440    0.9290 H   0  0  0  0  0  0  0  0  0  0  0  0
   -1.3860   -1.8030    1.4060 H   0  0  0  0  0  0  0  0  0  0  0  0
   -0.6600   -3.0680   -0.5550 H   0  0  0  0  0  0  0  0  0  0  0  0
   -2.2010   -3.9040   -0.0140 H   0  0  0  0  0  0  0  0  0  0  0  0
   -3.3390   -3.2640   -1.8640 H   0  0  0  0  0  0  0  0  0  0  0  0
   -1.8350   -2.6590   -2.5630 H   0  0  0  0  0  0  0  0  0  0  0  0
   -2.8590   -0.5550   -2.3080 H   0  0  0  0  0  0  0  0  0  0  0  0
  1 12  1  0  0  0  0
  2 13  1  1  0  0  0
  2  1  1  0  0  0  0
  3  2  1  0  0  0  0
  3 14  1  0  0  0  0
  4  5  2  0  0  0  0
  4  3  1  0  0  0  0
  5 16  1  0  0  0  0
  6  5  1  0  0  0  0
  7  8  2  0  0  0  0
  7  6  1  0  0  0  0
  8  4  1  0  0  0  0
  9 24  1  0  0  0  0
  9  2  1  0  0  0  0
 10  9  2  0  0  0  0
 11  1  1  0  0  0  0
 15  3  1  0  0  0  0
 17  6  1  0  0  0  0
 18  7  1  0  0  0  0
 19 27  1  0  0  0  0
 19 29  1  0  0  0  0
 20 30  1  0  0  0  0
 20 19  1  0  0  0  0
 21 32  1  6  0  0  0
 21 23  1  0  0  0  0
 21 20  1  0  0  0  0
 22 35  1  0  0  0  0
 22 33  1  0  0  0  0
 22 21  1  0  0  0  0
 23 36  1  1  0  0  0
 23 24  1  0  0  0  0
 24 37  1  0  0  0  0
 25 23  1  0  0  0  0
 26 25  2  0  0  0  0
 28 19  1  0  0  0  0
 31 20  1  0  0  0  0
 34 22  1  0  0  0  0
 38 25  1  0  0  0  0
 38 39  1  0  0  0  0
 39 46  1  0  0  0  0
 39 47  1  0  0  0  0
 40 49  1  0  0  0  0
 40 39  1  0  0  0  0
 41 42  1  0  0  0  0
 41 40  1  0  0  0  0
 42 52  1  6  0  0  0
 42 43  1  0  0  0  0
 42 38  1  0  0  0  0
 43 44  1  0  0  0  0
 45 43  2  0  0  0  0
 48 40  1  0  0  0  0
 50 41  1  0  0  0  0
 51 41  1  0  0  0  0
M  END
$$$$
