HIQ.pdb
 OpenBabel07022418373D

 55 55  0  0  1  0  0  0  0  0999 V2000
   -0.4880   -1.9220    4.1210 N   0  0  0  0  0  0  0  0  0  0  0  0
    0.8920   -1.8660    3.6310 C   0  0  1  0  0  0  0  0  0  0  0  0
    1.2640   -3.2920    3.3060 C   0  0  0  0  0  0  0  0  0  0  0  0
    2.6390   -3.3390    2.8050 C   0  0  0  0  0  0  0  0  0  0  0  0
    3.0600   -3.2540    1.5130 C   0  0  0  0  0  0  0  0  0  0  0  0
    4.4040   -3.3550    1.4990 N   0  0  0  0  0  0  0  0  0  0  0  0
    4.7930   -3.5010    2.7730 C   0  0  0  0  0  0  0  0  0  0  0  0
    3.7380   -3.4940    3.5850 N   0  0  0  0  0  0  0  0  0  0  0  0
    0.9190   -0.9800    2.4240 C   0  0  0  0  0  0  0  0  0  0  0  0
    2.0380   -0.7580    1.9380 O   0  0  0  0  0  0  0  0  0  0  0  0
   -0.6550   -0.9620    4.5310 H   0  0  0  0  0  0  0  0  0  0  0  0
   -0.4680   -2.6120    4.9050 H   0  0  0  0  0  0  0  0  0  0  0  0
    1.5410   -1.4970    4.4290 H   0  0  0  0  0  0  0  0  0  0  0  0
    1.1220   -3.8850    4.2410 H   0  0  0  0  0  0  0  0  0  0  0  0
    0.5620   -3.7420    2.5720 H   0  0  0  0  0  0  0  0  0  0  0  0
    2.4490   -3.1250    0.6120 H   0  0  0  0  0  0  0  0  0  0  0  0
    4.9890   -3.3210    0.6320 H   0  0  0  0  0  0  0  0  0  0  0  0
    5.8180   -3.6100    3.1000 H   0  0  0  0  0  0  0  0  0  0  0  0
   -0.1310    3.0410    2.1800 C   0  0  0  0  0  0  0  0  0  0  0  0
    1.0370    2.1660    1.8530 C   0  0  0  0  0  0  0  0  0  0  0  0
    0.8430    1.3130    0.6180 C   0  0  2  0  0  0  0  0  0  0  0  0
    0.6190    2.3120   -0.5170 C   0  0  0  0  0  0  0  0  0  0  0  0
   -0.3770    0.4340    0.7460 C   0  0  2  0  0  0  0  0  0  0  0  0
   -0.2500   -0.4550    1.9050 N   0  0  0  0  0  0  0  0  0  0  0  0
   -0.7130   -0.3850   -0.4060 C   0  0  0  0  0  0  0  0  0  0  0  0
   -0.6660   -1.6860   -0.3210 O   0  0  0  0  0  0  0  0  0  0  0  0
    0.1820    3.8660    2.8890 H   0  0  0  0  0  0  0  0  0  0  0  0
   -0.9220    2.4860    2.7620 H   0  0  0  0  0  0  0  0  0  0  0  0
   -0.6220    3.4860    1.3000 H   0  0  0  0  0  0  0  0  0  0  0  0
    1.8940    2.8510    1.5960 H   0  0  0  0  0  0  0  0  0  0  0  0
    1.3420    1.6430    2.7510 H   0  0  0  0  0  0  0  0  0  0  0  0
    1.7640    0.7870    0.3950 H   0  0  0  0  0  0  0  0  0  0  0  0
   -0.4100    2.6530   -0.4720 H   0  0  0  0  0  0  0  0  0  0  0  0
    1.2730    3.2160   -0.2890 H   0  0  0  0  0  0  0  0  0  0  0  0
    0.9090    1.8930   -1.4770 H   0  0  0  0  0  0  0  0  0  0  0  0
   -1.2110    1.1600    0.9740 H   0  0  0  0  0  0  0  0  0  0  0  0
   -1.1590   -0.7220    2.3950 H   0  0  0  0  0  0  0  0  0  0  0  0
   -4.6810   -2.3640   -0.5820 N   0  0  0  0  0  0  0  0  0  0  0  0
   -3.8630   -2.1130   -1.7420 C   0  0  0  0  0  0  0  0  0  0  0  0
   -3.2220   -3.0260   -2.2830 O   0  0  0  0  0  0  0  0  0  0  0  0
   -3.8160   -0.7460   -2.2600 C   0  0  0  0  0  0  0  0  0  0  0  0
   -2.7890   -0.5860   -3.3180 C   0  0  0  0  0  0  0  0  0  0  0  0
   -1.4200   -0.8680   -2.7880 C   0  0  2  0  0  0  0  0  0  0  0  0
   -1.1130    0.0610   -1.6910 N   0  0  0  0  0  0  0  0  0  0  0  0
   -0.3910   -0.7200   -3.8760 C   0  0  0  0  0  0  0  0  0  0  0  0
    0.5180    0.1180   -3.6950 O   0  0  0  0  0  0  0  0  0  0  0  0
   -0.4170   -1.4560   -5.0300 O   0  0  0  0  0  0  0  0  0  0  0  0
   -4.3770   -2.9910    0.1750 H   0  0  0  0  0  0  0  0  0  0  0  0
   -5.6030   -1.8810   -0.5420 H   0  0  0  0  0  0  0  0  0  0  0  0
   -4.8170   -0.3510   -2.5430 H   0  0  0  0  0  0  0  0  0  0  0  0
   -3.5020   -0.0710   -1.4050 H   0  0  0  0  0  0  0  0  0  0  0  0
   -2.8640    0.4020   -3.8110 H   0  0  0  0  0  0  0  0  0  0  0  0
   -2.9640   -1.3270   -4.1440 H   0  0  0  0  0  0  0  0  0  0  0  0
   -1.2760   -1.8820   -2.3960 H   0  0  0  0  0  0  0  0  0  0  0  0
   -1.2190    1.0770   -1.8920 H   0  0  0  0  0  0  0  0  0  0  0  0
  1 11  1  0  0  0  0
  1 12  1  0  0  0  0
  2  1  1  0  0  0  0
  2 13  1  1  0  0  0
  3  2  1  0  0  0  0
  3 14  1  0  0  0  0
  4  3  1  0  0  0  0
  4  8  1  0  0  0  0
  5  4  2  0  0  0  0
  6  5  1  0  0  0  0
  6  7  1  0  0  0  0
  7 18  1  0  0  0  0
  7  8  2  0  0  0  0
  9  2  1  0  0  0  0
 10  9  2  0  0  0  0
 15  3  1  0  0  0  0
 16  5  1  0  0  0  0
 17  6  1  0  0  0  0
 19 28  1  0  0  0  0
 19 27  1  0  0  0  0
 20 19  1  0  0  0  0
 20 31  1  0  0  0  0
 21 32  1  6  0  0  0
 21 23  1  0  0  0  0
 21 20  1  0  0  0  0
 22 33  1  0  0  0  0
 22 34  1  0  0  0  0
 22 21  1  0  0  0  0
 23 36  1  1  0  0  0
 23 24  1  0  0  0  0
 24 37  1  0  0  0  0
 24  9  1  0  0  0  0
 25 26  2  0  0  0  0
 25 23  1  0  0  0  0
 29 19  1  0  0  0  0
 30 20  1  0  0  0  0
 35 22  1  0  0  0  0
 38 49  1  0  0  0  0
 38 48  1  0  0  0  0
 39 38  1  0  0  0  0
 40 39  2  0  0  0  0
 41 39  1  0  0  0  0
 41 51  1  0  0  0  0
 42 43  1  0  0  0  0
 42 41  1  0  0  0  0
 43 54  1  1  0  0  0
 43 44  1  0  0  0  0
 44 25  1  0  0  0  0
 45 46  1  0  0  0  0
 45 43  1  0  0  0  0
 47 45  2  0  0  0  0
 50 41  1  0  0  0  0
 52 42  1  0  0  0  0
 53 42  1  0  0  0  0
 55 44  1  0  0  0  0
M  END
$$$$
