HIR.pdb
 OpenBabel07022418373D

 61 61  0  0  1  0  0  0  0  0999 V2000
    1.0250    0.6340    5.7100 N   0  0  0  0  0  0  0  0  0  0  0  0
    1.2990    0.7790    4.3010 C   0  0  1  0  0  0  0  0  0  0  0  0
    2.2160   -0.3440    3.8820 C   0  0  0  0  0  0  0  0  0  0  0  0
    1.6420   -1.6810    4.1080 C   0  0  0  0  0  0  0  0  0  0  0  0
    1.7740   -2.4590    5.2530 C   0  0  0  0  0  0  0  0  0  0  0  0
    1.1210   -3.6130    5.0850 N   0  0  0  0  0  0  0  0  0  0  0  0
    0.5770   -3.5830    3.8600 C   0  0  0  0  0  0  0  0  0  0  0  0
    0.8890   -2.4230    3.2720 N   0  0  0  0  0  0  0  0  0  0  0  0
    0.0420    0.8120    3.5210 C   0  0  0  0  0  0  0  0  0  0  0  0
   -1.0420    0.6820    4.1140 O   0  0  0  0  0  0  0  0  0  0  0  0
    0.1610    1.1880    5.9480 H   0  0  0  0  0  0  0  0  0  0  0  0
    0.7700   -0.3510    5.9400 H   0  0  0  0  0  0  0  0  0  0  0  0
    1.8300    1.7430    4.1360 H   0  0  0  0  0  0  0  0  0  0  0  0
    3.1510   -0.2150    4.4870 H   0  0  0  0  0  0  0  0  0  0  0  0
    2.4860   -0.2620    2.8040 H   0  0  0  0  0  0  0  0  0  0  0  0
    2.3260   -2.1700    6.1420 H   0  0  0  0  0  0  0  0  0  0  0  0
    1.0330   -4.4050    5.7570 H   0  0  0  0  0  0  0  0  0  0  0  0
   -0.0110   -4.3690    3.4340 H   0  0  0  0  0  0  0  0  0  0  0  0
   -0.8590    4.2170   -0.8010 C   0  0  0  0  0  0  0  0  0  0  0  0
   -0.3690    2.9190   -0.2050 C   0  0  0  0  0  0  0  0  0  0  0  0
   -1.4370    2.3870    0.6840 C   0  0  2  0  0  0  0  0  0  0  0  0
   -1.6870    3.4350    1.7740 C   0  0  0  0  0  0  0  0  0  0  0  0
   -1.1560    1.0400    1.2950 C   0  0  2  0  0  0  0  0  0  0  0  0
    0.0070    0.9900    2.1150 N   0  0  0  0  0  0  0  0  0  0  0  0
   -1.2330   -0.0480    0.2690 C   0  0  0  0  0  0  0  0  0  0  0  0
   -2.1840   -0.0740   -0.5570 O   0  0  0  0  0  0  0  0  0  0  0  0
   -1.9350    4.4190   -0.5270 H   0  0  0  0  0  0  0  0  0  0  0  0
   -0.2500    5.0770   -0.4280 H   0  0  0  0  0  0  0  0  0  0  0  0
   -0.8440    4.1540   -1.8960 H   0  0  0  0  0  0  0  0  0  0  0  0
    0.5390    3.1390    0.3940 H   0  0  0  0  0  0  0  0  0  0  0  0
   -0.0730    2.2480   -1.0190 H   0  0  0  0  0  0  0  0  0  0  0  0
   -2.4150    2.3020    0.1580 H   0  0  0  0  0  0  0  0  0  0  0  0
   -2.3500    4.2390    1.4510 H   0  0  0  0  0  0  0  0  0  0  0  0
   -0.7030    3.8500    2.0710 H   0  0  0  0  0  0  0  0  0  0  0  0
   -2.0880    2.8590    2.6420 H   0  0  0  0  0  0  0  0  0  0  0  0
   -2.0310    0.8690    1.9960 H   0  0  0  0  0  0  0  0  0  0  0  0
    0.9710    1.0910    1.6710 H   0  0  0  0  0  0  0  0  0  0  0  0
   -2.9040   -2.8860   -5.3600 N   0  0  0  0  0  0  0  0  0  0  0  0
   -1.4950   -2.8900   -5.2200 C   0  0  0  0  0  0  0  0  0  0  0  0
   -0.7280   -2.6790   -6.2240 N   0  0  0  0  0  0  0  0  0  0  0  0
   -0.8530   -3.1330   -3.9370 N   0  0  0  0  0  0  0  0  0  0  0  0
    0.5600   -3.1690   -3.8280 C   0  0  0  0  0  0  0  0  0  0  0  0
    1.1480   -3.3660   -2.4980 C   0  0  0  0  0  0  0  0  0  0  0  0
    0.9400   -2.3920   -1.4230 C   0  0  0  0  0  0  0  0  0  0  0  0
   -0.3970   -2.1280   -0.8710 C   0  0  2  0  0  0  0  0  0  0  0  0
   -0.2670   -1.0720    0.1810 N   0  0  0  0  0  0  0  0  0  0  0  0
   -0.9080   -3.3630   -0.1770 C   0  0  0  0  0  0  0  0  0  0  0  0
   -1.0660   -4.4070   -0.8290 O   0  0  0  0  0  0  0  0  0  0  0  0
   -1.2120   -3.3920    1.1630 O   0  0  0  0  0  0  0  0  0  0  0  0
   -3.3960   -3.2670   -6.1930 H   0  0  0  0  0  0  0  0  0  0  0  0
   -3.4700   -2.4820   -4.5940 H   0  0  0  0  0  0  0  0  0  0  0  0
   -1.0520   -2.4920   -7.1930 H   0  0  0  0  0  0  0  0  0  0  0  0
   -1.5230   -3.2810   -3.1730 H   0  0  0  0  0  0  0  0  0  0  0  0
    0.8820   -4.0760   -4.4520 H   0  0  0  0  0  0  0  0  0  0  0  0
    1.0510   -2.3300   -4.4050 H   0  0  0  0  0  0  0  0  0  0  0  0
    0.8280   -4.4190   -2.1670 H   0  0  0  0  0  0  0  0  0  0  0  0
    2.2760   -3.5380   -2.6180 H   0  0  0  0  0  0  0  0  0  0  0  0
    1.5810   -2.7540   -0.5430 H   0  0  0  0  0  0  0  0  0  0  0  0
    1.4900   -1.4430   -1.7050 H   0  0  0  0  0  0  0  0  0  0  0  0
   -1.1790   -1.7680   -1.5250 H   0  0  0  0  0  0  0  0  0  0  0  0
    0.5440   -1.1090    0.8370 H   0  0  0  0  0  0  0  0  0  0  0  0
  1 12  1  0  0  0  0
  1 11  1  0  0  0  0
  2 13  1  6  0  0  0
  2  1  1  0  0  0  0
  3  4  1  0  0  0  0
  3  2  1  0  0  0  0
  3 14  1  0  0  0  0
  4  5  2  0  0  0  0
  5 16  1  0  0  0  0
  6  5  1  0  0  0  0
  6 17  1  0  0  0  0
  7  6  1  0  0  0  0
  8  7  2  0  0  0  0
  8  4  1  0  0  0  0
  9 10  2  0  0  0  0
  9  2  1  0  0  0  0
 15  3  1  0  0  0  0
 18  7  1  0  0  0  0
 19 27  1  0  0  0  0
 19 28  1  0  0  0  0
 19 20  1  0  0  0  0
 20 30  1  0  0  0  0
 20 21  1  0  0  0  0
 21 32  1  6  0  0  0
 21 23  1  0  0  0  0
 21 22  1  0  0  0  0
 22 34  1  0  0  0  0
 22 35  1  0  0  0  0
 23 36  1  1  0  0  0
 23 24  1  0  0  0  0
 24  9  1  0  0  0  0
 25 23  1  0  0  0  0
 26 25  2  0  0  0  0
 29 19  1  0  0  0  0
 31 20  1  0  0  0  0
 33 22  1  0  0  0  0
 37 24  1  0  0  0  0
 38 39  1  0  0  0  0
 38 51  1  0  0  0  0
 39 41  1  0  0  0  0
 40 39  2  0  0  0  0
 41 42  1  0  0  0  0
 41 53  1  0  0  0  0
 42 43  1  0  0  0  0
 43 56  1  0  0  0  0
 43 44  1  0  0  0  0
 44 45  1  0  0  0  0
 44 58  1  0  0  0  0
 45 60  1  6  0  0  0
 45 47  1  0  0  0  0
 45 46  1  0  0  0  0
 46 25  1  0  0  0  0
 46 61  1  0  0  0  0
 47 49  1  0  0  0  0
 48 47  2  0  0  0  0
 50 38  1  0  0  0  0
 52 40  1  0  0  0  0
 54 42  1  0  0  0  0
 55 42  1  0  0  0  0
 57 43  1  0  0  0  0
 59 44  1  0  0  0  0
M  END
$$$$
