HIS.pdb
 OpenBabel07022418373D

 49 49  0  0  1  0  0  0  0  0999 V2000
    3.2070   -3.2860    3.0950 N   0  0  0  0  0  0  0  0  0  0  0  0
    2.7310   -2.8000    1.7760 C   0  0  1  0  0  0  0  0  0  0  0  0
    2.2490   -4.0130    1.0680 C   0  0  0  0  0  0  0  0  0  0  0  0
    1.7150   -3.8370   -0.2760 C   0  0  0  0  0  0  0  0  0  0  0  0
    0.3970   -3.6340   -0.5990 C   0  0  0  0  0  0  0  0  0  0  0  0
    0.3020   -3.5420   -1.9350 N   0  0  0  0  0  0  0  0  0  0  0  0
    1.5200   -3.6810   -2.4880 C   0  0  0  0  0  0  0  0  0  0  0  0
    2.3740   -3.8600   -1.4700 N   0  0  0  0  0  0  0  0  0  0  0  0
    1.7440   -1.7460    2.0420 C   0  0  0  0  0  0  0  0  0  0  0  0
    1.3540   -1.5600    3.2390 O   0  0  0  0  0  0  0  0  0  0  0  0
    2.4950   -3.9900    3.3870 H   0  0  0  0  0  0  0  0  0  0  0  0
    3.2050   -2.4590    3.7500 H   0  0  0  0  0  0  0  0  0  0  0  0
    3.6530   -2.3630    1.3030 H   0  0  0  0  0  0  0  0  0  0  0  0
    1.4400   -4.4630    1.7090 H   0  0  0  0  0  0  0  0  0  0  0  0
    3.0920   -4.7400    1.0580 H   0  0  0  0  0  0  0  0  0  0  0  0
   -0.4490   -3.5590    0.1020 H   0  0  0  0  0  0  0  0  0  0  0  0
   -0.5840   -3.3860   -2.4930 H   0  0  0  0  0  0  0  0  0  0  0  0
    1.7910   -3.6570   -3.5540 H   0  0  0  0  0  0  0  0  0  0  0  0
    2.4420    1.2010   -0.7400 C   0  0  0  0  0  0  0  0  0  0  0  0
    1.2350    1.8270   -0.1860 C   0  0  0  0  0  0  0  0  0  0  0  0
    0.8180    1.5100    1.1930 C   0  0  2  0  0  0  0  0  0  0  0  0
    1.8060    1.8320    2.2620 C   0  0  0  0  0  0  0  0  0  0  0  0
    0.2350    0.1150    1.3880 C   0  0  2  0  0  0  0  0  0  0  0  0
    1.1860   -0.9010    1.0310 N   0  0  0  0  0  0  0  0  0  0  0  0
   -1.0720   -0.0070    0.7090 C   0  0  0  0  0  0  0  0  0  0  0  0
   -1.2410   -0.9310   -0.1180 O   0  0  0  0  0  0  0  0  0  0  0  0
    2.2190    0.5020   -1.5750 H   0  0  0  0  0  0  0  0  0  0  0  0
    3.1110    1.9760   -1.2310 H   0  0  0  0  0  0  0  0  0  0  0  0
    3.1090    0.6830   -0.0430 H   0  0  0  0  0  0  0  0  0  0  0  0
    1.3170    2.9490   -0.2910 H   0  0  0  0  0  0  0  0  0  0  0  0
    0.3560    1.5810   -0.8550 H   0  0  0  0  0  0  0  0  0  0  0  0
   -0.0630    2.2000    1.3970 H   0  0  0  0  0  0  0  0  0  0  0  0
    1.4100    2.2880    3.1690 H   0  0  0  0  0  0  0  0  0  0  0  0
    2.4140    0.9510    2.5840 H   0  0  0  0  0  0  0  0  0  0  0  0
    2.5780    2.5380    1.8300 H   0  0  0  0  0  0  0  0  0  0  0  0
    0.0440    0.0550    2.5010 H   0  0  0  0  0  0  0  0  0  0  0  0
    1.5170   -1.0790    0.0610 H   0  0  0  0  0  0  0  0  0  0  0  0
   -4.2640   -0.7730    1.8930 O   0  0  0  0  0  0  0  0  0  0  0  0
   -4.5490    0.4270    1.2480 C   0  0  0  0  0  0  0  0  0  0  0  0
   -3.4360    0.7470    0.2750 C   0  0  2  0  0  0  0  0  0  0  0  0
   -2.1510    0.8810    0.9540 N   0  0  0  0  0  0  0  0  0  0  0  0
   -3.7360    1.9120   -0.5680 C   0  0  0  0  0  0  0  0  0  0  0  0
   -2.9350    2.8720   -0.6470 O   0  0  0  0  0  0  0  0  0  0  0  0
   -4.9120    1.9640   -1.2890 O   0  0  0  0  0  0  0  0  0  0  0  0
   -4.3410   -0.7130    2.8680 H   0  0  0  0  0  0  0  0  0  0  0  0
   -4.7110    1.1900    2.0100 H   0  0  0  0  0  0  0  0  0  0  0  0
   -5.4570    0.2330    0.6080 H   0  0  0  0  0  0  0  0  0  0  0  0
   -3.3490   -0.1350   -0.4070 H   0  0  0  0  0  0  0  0  0  0  0  0
   -1.9920    1.6450    1.6480 H   0  0  0  0  0  0  0  0  0  0  0  0
  1 11  1  0  0  0  0
  1 12  1  0  0  0  0
  2 13  1  6  0  0  0
  2  9  1  0  0  0  0
  2  1  1  0  0  0  0
  3 14  1  0  0  0  0
  3  2  1  0  0  0  0
  4  3  1  0  0  0  0
  5  4  2  0  0  0  0
  5 16  1  0  0  0  0
  6  5  1  0  0  0  0
  7  6  1  0  0  0  0
  7  8  2  0  0  0  0
  8  4  1  0  0  0  0
  9 10  2  0  0  0  0
 15  3  1  0  0  0  0
 17  6  1  0  0  0  0
 18  7  1  0  0  0  0
 19 20  1  0  0  0  0
 19 29  1  0  0  0  0
 20 21  1  0  0  0  0
 21 23  1  0  0  0  0
 21 32  1  1  0  0  0
 21 22  1  0  0  0  0
 22 34  1  0  0  0  0
 22 33  1  0  0  0  0
 23 36  1  1  0  0  0
 24 23  1  0  0  0  0
 24  9  1  0  0  0  0
 25 41  1  0  0  0  0
 25 23  1  0  0  0  0
 26 25  2  0  0  0  0
 27 19  1  0  0  0  0
 28 19  1  0  0  0  0
 30 20  1  0  0  0  0
 31 20  1  0  0  0  0
 35 22  1  0  0  0  0
 37 24  1  0  0  0  0
 38 45  1  0  0  0  0
 39 38  1  0  0  0  0
 39 46  1  0  0  0  0
 40 48  1  6  0  0  0
 40 41  1  0  0  0  0
 40 39  1  0  0  0  0
 41 49  1  0  0  0  0
 42 40  1  0  0  0  0
 43 42  1  0  0  0  0
 44 42  2  0  0  0  0
 47 39  1  0  0  0  0
M  END
$$$$
