HIW.pdb
 OpenBabel07022418373D

 62 64  0  0  1  0  0  0  0  0999 V2000
    3.3040   -0.7100    1.7100 N   0  0  0  0  0  0  0  0  0  0  0  0
    2.1890   -1.1610    2.5040 C   0  0  1  0  0  0  0  0  0  0  0  0
    2.4290   -0.7980    3.9480 C   0  0  0  0  0  0  0  0  0  0  0  0
    3.6800   -1.4770    4.3640 C   0  0  0  0  0  0  0  0  0  0  0  0
    4.9800   -1.0290    4.3010 C   0  0  0  0  0  0  0  0  0  0  0  0
    5.8150   -1.9850    4.7930 N   0  0  0  0  0  0  0  0  0  0  0  0
    5.0450   -3.0150    5.1580 C   0  0  0  0  0  0  0  0  0  0  0  0
    3.7640   -2.7150    4.9020 N   0  0  0  0  0  0  0  0  0  0  0  0
    0.8950   -0.7090    1.9800 C   0  0  0  0  0  0  0  0  0  0  0  0
   -0.1450   -1.0480    2.6010 O   0  0  0  0  0  0  0  0  0  0  0  0
    3.4320    0.3310    1.7760 H   0  0  0  0  0  0  0  0  0  0  0  0
    3.1200   -1.0200    0.7240 H   0  0  0  0  0  0  0  0  0  0  0  0
    2.1960   -2.2810    2.4520 H   0  0  0  0  0  0  0  0  0  0  0  0
    1.6180   -1.1770    4.5980 H   0  0  0  0  0  0  0  0  0  0  0  0
    2.4990    0.2830    4.1170 H   0  0  0  0  0  0  0  0  0  0  0  0
    5.2840   -0.0700    3.9200 H   0  0  0  0  0  0  0  0  0  0  0  0
    6.8490   -1.8850    4.8530 H   0  0  0  0  0  0  0  0  0  0  0  0
    5.3830   -3.9390    5.5870 H   0  0  0  0  0  0  0  0  0  0  0  0
   -1.9850    4.1130    0.2020 C   0  0  0  0  0  0  0  0  0  0  0  0
   -1.9100    2.6280   -0.1330 C   0  0  0  0  0  0  0  0  0  0  0  0
   -0.6240    2.0270    0.3560 C   0  0  2  0  0  0  0  0  0  0  0  0
    0.5270    2.7140   -0.3130 C   0  0  0  0  0  0  0  0  0  0  0  0
   -0.5660    0.5260    0.3090 C   0  0  2  0  0  0  0  0  0  0  0  0
    0.7450    0.0860    0.8140 N   0  0  0  0  0  0  0  0  0  0  0  0
   -0.8030   -0.0260   -1.0350 C   0  0  0  0  0  0  0  0  0  0  0  0
    0.1680   -0.5690   -1.6270 O   0  0  0  0  0  0  0  0  0  0  0  0
   -2.4820    4.6940   -0.5760 H   0  0  0  0  0  0  0  0  0  0  0  0
   -0.9900    4.4720    0.4980 H   0  0  0  0  0  0  0  0  0  0  0  0
   -2.6190    4.2030    1.1180 H   0  0  0  0  0  0  0  0  0  0  0  0
   -2.0120    2.5320   -1.2440 H   0  0  0  0  0  0  0  0  0  0  0  0
   -2.7710    2.1220    0.3210 H   0  0  0  0  0  0  0  0  0  0  0  0
   -0.5110    2.2810    1.4610 H   0  0  0  0  0  0  0  0  0  0  0  0
    1.0110    2.0520   -1.0830 H   0  0  0  0  0  0  0  0  0  0  0  0
    1.3310    2.9220    0.4170 H   0  0  0  0  0  0  0  0  0  0  0  0
    0.2490    3.6290   -0.8740 H   0  0  0  0  0  0  0  0  0  0  0  0
   -1.3220    0.1130    0.9950 H   0  0  0  0  0  0  0  0  0  0  0  0
    1.6130    0.3600    0.3080 H   0  0  0  0  0  0  0  0  0  0  0  0
   -2.0320   -0.0080   -1.7310 N   0  0  0  0  0  0  0  0  0  0  0  0
   -2.1810   -0.5680   -3.0540 C   0  0  1  0  0  0  0  0  0  0  0  0
   -3.0570   -1.7910   -3.0190 C   0  0  0  0  0  0  0  0  0  0  0  0
   -2.4260   -2.8020   -2.1350 C   0  0  0  0  0  0  0  0  0  0  0  0
   -1.6120   -3.8500   -2.6000 C   0  0  0  0  0  0  0  0  0  0  0  0
   -1.1590   -4.5750   -1.5740 N   0  0  0  0  0  0  0  0  0  0  0  0
   -1.6450   -4.0460   -0.4450 C   0  0  0  0  0  0  0  0  0  0  0  0
   -1.4700   -4.4450    0.8790 C   0  0  0  0  0  0  0  0  0  0  0  0
   -2.0970   -3.7260    1.8590 C   0  0  0  0  0  0  0  0  0  0  0  0
   -2.8790   -2.6400    1.5450 C   0  0  0  0  0  0  0  0  0  0  0  0
   -3.0420   -2.2560    0.2180 C   0  0  0  0  0  0  0  0  0  0  0  0
   -2.4300   -2.9510   -0.7770 C   0  0  0  0  0  0  0  0  0  0  0  0
   -2.6780    0.4420   -4.0290 C   0  0  0  0  0  0  0  0  0  0  0  0
   -2.9170    1.6210   -3.6680 O   0  0  0  0  0  0  0  0  0  0  0  0
   -2.8890    0.1070   -5.3570 O   0  0  0  0  0  0  0  0  0  0  0  0
   -2.8830    0.4070   -1.2950 H   0  0  0  0  0  0  0  0  0  0  0  0
   -1.1980   -0.9210   -3.4600 H   0  0  0  0  0  0  0  0  0  0  0  0
   -4.0440   -1.5280   -2.5460 H   0  0  0  0  0  0  0  0  0  0  0  0
   -3.2090   -2.2290   -4.0200 H   0  0  0  0  0  0  0  0  0  0  0  0
   -1.3750   -4.0530   -3.6400 H   0  0  0  0  0  0  0  0  0  0  0  0
   -0.5280   -5.4220   -1.6100 H   0  0  0  0  0  0  0  0  0  0  0  0
   -0.8500   -5.3020    1.0870 H   0  0  0  0  0  0  0  0  0  0  0  0
   -1.9730   -4.0210    2.9020 H   0  0  0  0  0  0  0  0  0  0  0  0
   -3.3770   -2.0710    2.3310 H   0  0  0  0  0  0  0  0  0  0  0  0
   -3.6660   -1.4150   -0.0310 H   0  0  0  0  0  0  0  0  0  0  0  0
  1 11  1  0  0  0  0
  1  2  1  0  0  0  0
  2 13  1  6  0  0  0
  2  3  1  0  0  0  0
  3 15  1  0  0  0  0
  3  4  1  0  0  0  0
  3 14  1  0  0  0  0
  4  8  1  0  0  0  0
  5  4  2  0  0  0  0
  5  6  1  0  0  0  0
  6 17  1  0  0  0  0
  6  7  1  0  0  0  0
  7 18  1  0  0  0  0
  8  7  2  0  0  0  0
  9  2  1  0  0  0  0
  9 10  2  0  0  0  0
 12  1  1  0  0  0  0
 16  5  1  0  0  0  0
 19 28  1  0  0  0  0
 19 29  1  0  0  0  0
 20 19  1  0  0  0  0
 20 31  1  0  0  0  0
 20 21  1  0  0  0  0
 21 32  1  1  0  0  0
 22 21  1  0  0  0  0
 22 34  1  0  0  0  0
 23 21  1  0  0  0  0
 23 24  1  0  0  0  0
 23 36  1  1  0  0  0
 24  9  1  0  0  0  0
 25 23  1  0  0  0  0
 26 25  2  0  0  0  0
 27 19  1  0  0  0  0
 30 20  1  0  0  0  0
 33 22  1  0  0  0  0
 35 22  1  0  0  0  0
 37 24  1  0  0  0  0
 38 53  1  0  0  0  0
 38 25  1  0  0  0  0
 39 54  1  6  0  0  0
 39 40  1  0  0  0  0
 39 38  1  0  0  0  0
 40 55  1  0  0  0  0
 40 41  1  0  0  0  0
 41 49  1  0  0  0  0
 42 41  2  0  0  0  0
 42 43  1  0  0  0  0
 43 44  1  0  0  0  0
 44 45  1  0  0  0  0
 45 59  1  0  0  0  0
 45 46  2  0  0  0  0
 46 60  1  0  0  0  0
 47 46  1  0  0  0  0
 47 61  1  0  0  0  0
 48 47  2  0  0  0  0
 49 44  2  0  0  0  0
 49 48  1  0  0  0  0
 50 51  1  0  0  0  0
 50 39  1  0  0  0  0
 52 50  2  0  0  0  0
 56 40  1  0  0  0  0
 57 42  1  0  0  0  0
 58 43  1  0  0  0  0
 62 48  1  0  0  0  0
M  END
$$$$
