HIY.pdb
 OpenBabel07022418373D

 59 60  0  0  1  0  0  0  0  0999 V2000
    3.5400   -0.9470    2.7830 N   0  0  0  0  0  0  0  0  0  0  0  0
    3.7410    0.0070    1.7300 C   0  0  1  0  0  0  0  0  0  0  0  0
    4.8650   -0.4580    0.8620 C   0  0  0  0  0  0  0  0  0  0  0  0
    6.0800   -0.5610    1.7140 C   0  0  0  0  0  0  0  0  0  0  0  0
    6.5280   -1.6460    2.4300 C   0  0  0  0  0  0  0  0  0  0  0  0
    7.6720   -1.3420    3.0790 N   0  0  0  0  0  0  0  0  0  0  0  0
    7.9560   -0.0630    2.7770 C   0  0  0  0  0  0  0  0  0  0  0  0
    6.9880    0.4190    1.9450 N   0  0  0  0  0  0  0  0  0  0  0  0
    2.4950    0.2910    0.9600 C   0  0  0  0  0  0  0  0  0  0  0  0
    2.5910    1.1120    0.0260 O   0  0  0  0  0  0  0  0  0  0  0  0
    3.1790   -1.8280    2.3340 H   0  0  0  0  0  0  0  0  0  0  0  0
    2.7660   -0.5920    3.3880 H   0  0  0  0  0  0  0  0  0  0  0  0
    4.0370    0.9720    2.2090 H   0  0  0  0  0  0  0  0  0  0  0  0
    5.0560    0.2620    0.0360 H   0  0  0  0  0  0  0  0  0  0  0  0
    4.6580   -1.4690    0.4730 H   0  0  0  0  0  0  0  0  0  0  0  0
    6.0210   -2.5860    2.4530 H   0  0  0  0  0  0  0  0  0  0  0  0
    8.2200   -1.9840    3.6910 H   0  0  0  0  0  0  0  0  0  0  0  0
    8.8150    0.4770    3.1440 H   0  0  0  0  0  0  0  0  0  0  0  0
    0.0790    3.5720   -0.3990 C   0  0  0  0  0  0  0  0  0  0  0  0
    0.0950    2.4020    0.5270 C   0  0  0  0  0  0  0  0  0  0  0  0
   -0.0890    1.1060   -0.2790 C   0  0  2  0  0  0  0  0  0  0  0  0
   -1.4340    1.2540   -0.9240 C   0  0  0  0  0  0  0  0  0  0  0  0
   -0.0140   -0.0950    0.5760 C   0  0  2  0  0  0  0  0  0  0  0  0
    1.2680   -0.2900    1.2170 N   0  0  0  0  0  0  0  0  0  0  0  0
   -0.4070   -1.3480   -0.0290 C   0  0  0  0  0  0  0  0  0  0  0  0
    0.5050   -2.2590   -0.1300 O   0  0  0  0  0  0  0  0  0  0  0  0
   -0.9090    4.0660   -0.4840 H   0  0  0  0  0  0  0  0  0  0  0  0
    0.3200    3.2210   -1.4400 H   0  0  0  0  0  0  0  0  0  0  0  0
    0.8850    4.3190   -0.1680 H   0  0  0  0  0  0  0  0  0  0  0  0
    0.8310    2.3790    1.3070 H   0  0  0  0  0  0  0  0  0  0  0  0
   -0.8930    2.5220    1.1290 H   0  0  0  0  0  0  0  0  0  0  0  0
    0.6190    1.0950   -1.1440 H   0  0  0  0  0  0  0  0  0  0  0  0
   -1.5650    0.5850   -1.7880 H   0  0  0  0  0  0  0  0  0  0  0  0
   -2.2250    1.2140   -0.1550 H   0  0  0  0  0  0  0  0  0  0  0  0
   -1.5200    2.3200   -1.3380 H   0  0  0  0  0  0  0  0  0  0  0  0
   -0.6800    0.2010    1.4670 H   0  0  0  0  0  0  0  0  0  0  0  0
    1.2460   -1.0010    2.0130 H   0  0  0  0  0  0  0  0  0  0  0  0
   -7.8690   -1.3760    0.6770 O   0  0  0  0  0  0  0  0  0  0  0  0
   -6.6620   -2.0040    0.3950 C   0  0  0  0  0  0  0  0  0  0  0  0
   -6.4940   -2.8560   -0.6850 C   0  0  0  0  0  0  0  0  0  0  0  0
   -5.2750   -3.4540   -0.9210 C   0  0  0  0  0  0  0  0  0  0  0  0
   -4.1830   -3.2440   -0.1170 C   0  0  0  0  0  0  0  0  0  0  0  0
   -2.8690   -3.8280   -0.2900 C   0  0  0  0  0  0  0  0  0  0  0  0
   -1.9050   -3.0560   -1.1310 C   0  0  2  0  0  0  0  0  0  0  0  0
   -1.6790   -1.7270   -0.5330 N   0  0  0  0  0  0  0  0  0  0  0  0
   -2.2720   -2.9560   -2.5440 C   0  0  0  0  0  0  0  0  0  0  0  0
   -2.5150   -3.9170   -3.2800 O   0  0  0  0  0  0  0  0  0  0  0  0
   -4.3680   -2.3870    0.9630 C   0  0  0  0  0  0  0  0  0  0  0  0
   -5.5830   -1.7820    1.2100 C   0  0  0  0  0  0  0  0  0  0  0  0
   -2.3580   -1.6820   -3.1170 O   0  0  0  0  0  0  0  0  0  0  0  0
   -8.0560   -1.0440    1.6040 H   0  0  0  0  0  0  0  0  0  0  0  0
   -7.3570   -3.0240   -1.3230 H   0  0  0  0  0  0  0  0  0  0  0  0
   -5.1790   -4.1010   -1.7550 H   0  0  0  0  0  0  0  0  0  0  0  0
   -2.4010   -3.9830    0.7040 H   0  0  0  0  0  0  0  0  0  0  0  0
   -2.9850   -4.8440   -0.7300 H   0  0  0  0  0  0  0  0  0  0  0  0
   -0.9320   -3.5760   -1.0770 H   0  0  0  0  0  0  0  0  0  0  0  0
   -2.4460   -1.0490   -0.4460 H   0  0  0  0  0  0  0  0  0  0  0  0
   -3.5640   -2.1560    1.6590 H   0  0  0  0  0  0  0  0  0  0  0  0
   -5.7230   -1.1070    2.0620 H   0  0  0  0  0  0  0  0  0  0  0  0
  1 12  1  0  0  0  0
  2 13  1  1  0  0  0
  2  1  1  0  0  0  0
  3  4  1  0  0  0  0
  3  2  1  0  0  0  0
  4  8  1  0  0  0  0
  4  5  2  0  0  0  0
  5 16  1  0  0  0  0
  5  6  1  0  0  0  0
  6 17  1  0  0  0  0
  7  6  1  0  0  0  0
  7 18  1  0  0  0  0
  8  7  2  0  0  0  0
  9 24  1  0  0  0  0
  9  2  1  0  0  0  0
 10  9  2  0  0  0  0
 11  1  1  0  0  0  0
 14  3  1  0  0  0  0
 15  3  1  0  0  0  0
 19 29  1  0  0  0  0
 19 20  1  0  0  0  0
 20 31  1  0  0  0  0
 20 30  1  0  0  0  0
 21 32  1  6  0  0  0
 21 20  1  0  0  0  0
 21 23  1  0  0  0  0
 22 21  1  0  0  0  0
 22 34  1  0  0  0  0
 23 24  1  0  0  0  0
 23 36  1  1  0  0  0
 24 37  1  0  0  0  0
 25 23  1  0  0  0  0
 26 25  2  0  0  0  0
 27 19  1  0  0  0  0
 28 19  1  0  0  0  0
 33 22  1  0  0  0  0
 35 22  1  0  0  0  0
 38 51  1  0  0  0  0
 39 38  1  0  0  0  0
 39 49  1  0  0  0  0
 40 39  2  0  0  0  0
 41 40  1  0  0  0  0
 41 42  2  0  0  0  0
 42 48  1  0  0  0  0
 43 42  1  0  0  0  0
 43 54  1  0  0  0  0
 44 56  1  1  0  0  0
 44 45  1  0  0  0  0
 44 43  1  0  0  0  0
 45 57  1  0  0  0  0
 45 25  1  0  0  0  0
 46 44  1  0  0  0  0
 47 46  2  0  0  0  0
 48 49  2  0  0  0  0
 48 58  1  0  0  0  0
 49 59  1  0  0  0  0
 50 46  1  0  0  0  0
 52 40  1  0  0  0  0
 53 41  1  0  0  0  0
 55 43  1  0  0  0  0
M  END
$$$$
