HKA.pdb
 OpenBabel07022418373D

 50 50  0  0  1  0  0  0  0  0999 V2000
    2.5690   -3.9520   -0.4510 N   0  0  0  0  0  0  0  0  0  0  0  0
    1.9120   -2.6730   -0.6210 C   0  0  1  0  0  0  0  0  0  0  0  0
    0.5170   -2.9420   -1.1370 C   0  0  0  0  0  0  0  0  0  0  0  0
    0.6070   -3.6640   -2.4450 C   0  0  0  0  0  0  0  0  0  0  0  0
    1.7510   -4.0490   -3.1220 C   0  0  0  0  0  0  0  0  0  0  0  0
    1.3920   -4.6780   -4.2700 N   0  0  0  0  0  0  0  0  0  0  0  0
    0.0470   -4.6910   -4.3180 C   0  0  0  0  0  0  0  0  0  0  0  0
   -0.4100   -4.0790   -3.2170 N   0  0  0  0  0  0  0  0  0  0  0  0
    1.8370   -1.9360    0.6700 C   0  0  0  0  0  0  0  0  0  0  0  0
    2.2990   -2.4030    1.7420 O   0  0  0  0  0  0  0  0  0  0  0  0
    1.8490   -4.6350   -0.1620 H   0  0  0  0  0  0  0  0  0  0  0  0
    3.3940   -3.9000    0.1830 H   0  0  0  0  0  0  0  0  0  0  0  0
    2.4260   -2.0100   -1.3400 H   0  0  0  0  0  0  0  0  0  0  0  0
    0.0250   -1.9580   -1.3920 H   0  0  0  0  0  0  0  0  0  0  0  0
   -0.1160   -3.4900   -0.4380 H   0  0  0  0  0  0  0  0  0  0  0  0
    2.7700   -3.8930   -2.8200 H   0  0  0  0  0  0  0  0  0  0  0  0
    2.0490   -5.0750   -4.9780 H   0  0  0  0  0  0  0  0  0  0  0  0
   -0.5220   -5.1380   -5.1400 H   0  0  0  0  0  0  0  0  0  0  0  0
    1.2230   -0.6700    0.6750 N   0  0  0  0  0  0  0  0  0  0  0  0
    1.1140    0.1340    1.9540 C   0  0  1  0  0  0  0  0  0  0  0  0
    1.6770    1.4660    1.6560 C   0  0  0  0  0  0  0  0  0  0  0  0
    1.8170    2.5320    2.6280 C   0  0  0  0  0  0  0  0  0  0  0  0
    0.6790    3.1250    3.3450 C   0  0  0  0  0  0  0  0  0  0  0  0
   -0.4170    3.6960    2.4780 C   0  0  0  0  0  0  0  0  0  0  0  0
   -1.4530    4.2360    3.3300 N   0  0  0  0  0  0  0  0  0  0  0  0
   -0.3150    0.1150    2.2820 C   0  0  0  0  0  0  0  0  0  0  0  0
   -0.7440    0.5890    3.3430 O   0  0  0  0  0  0  0  0  0  0  0  0
    0.8240   -0.2100   -0.1640 H   0  0  0  0  0  0  0  0  0  0  0  0
    1.6670   -0.4540    2.7180 H   0  0  0  0  0  0  0  0  0  0  0  0
    2.7460    1.2530    1.2660 H   0  0  0  0  0  0  0  0  0  0  0  0
    1.1860    1.8280    0.6800 H   0  0  0  0  0  0  0  0  0  0  0  0
    2.3990    3.3720    2.1140 H   0  0  0  0  0  0  0  0  0  0  0  0
    2.5340    2.1610    3.4350 H   0  0  0  0  0  0  0  0  0  0  0  0
    1.1420    4.1180    3.7960 H   0  0  0  0  0  0  0  0  0  0  0  0
    0.3550    2.6270    4.2530 H   0  0  0  0  0  0  0  0  0  0  0  0
   -0.8320    2.9720    1.7730 H   0  0  0  0  0  0  0  0  0  0  0  0
   -0.0370    4.5620    1.8750 H   0  0  0  0  0  0  0  0  0  0  0  0
   -2.2670    3.5870    3.3600 H   0  0  0  0  0  0  0  0  0  0  0  0
   -1.0890    4.3370    4.2980 H   0  0  0  0  0  0  0  0  0  0  0  0
   -3.4790    0.2300    0.6150 C   0  0  0  0  0  0  0  0  0  0  0  0
   -2.6850   -0.4850    1.6830 C   0  0  2  0  0  0  0  0  0  0  0  0
   -1.2610   -0.4470    1.3970 N   0  0  0  0  0  0  0  0  0  0  0  0
   -3.1070   -1.9070    1.7230 C   0  0  0  0  0  0  0  0  0  0  0  0
   -4.3060   -2.2390    1.9540 O   0  0  0  0  0  0  0  0  0  0  0  0
   -2.2030   -2.9370    1.5070 O   0  0  0  0  0  0  0  0  0  0  0  0
   -4.5430   -0.0610    0.7320 H   0  0  0  0  0  0  0  0  0  0  0  0
   -3.4300    1.3460    0.7600 H   0  0  0  0  0  0  0  0  0  0  0  0
   -3.1390   -0.0610   -0.3870 H   0  0  0  0  0  0  0  0  0  0  0  0
   -2.8620   -0.0160    2.6660 H   0  0  0  0  0  0  0  0  0  0  0  0
   -0.9430   -0.8550    0.5040 H   0  0  0  0  0  0  0  0  0  0  0  0
  1 11  1  0  0  0  0
  1 12  1  0  0  0  0
  2 13  1  6  0  0  0
  2  1  1  0  0  0  0
  2  9  1  0  0  0  0
  3  2  1  0  0  0  0
  3 15  1  0  0  0  0
  4  3  1  0  0  0  0
  5 16  1  0  0  0  0
  5  4  2  0  0  0  0
  6  5  1  0  0  0  0
  7  6  1  0  0  0  0
  7  8  2  0  0  0  0
  8  4  1  0  0  0  0
  9 19  1  0  0  0  0
  9 10  2  0  0  0  0
 14  3  1  0  0  0  0
 17  6  1  0  0  0  0
 18  7  1  0  0  0  0
 19 20  1  0  0  0  0
 20 26  1  0  0  0  0
 20 29  1  1  0  0  0
 21 20  1  0  0  0  0
 21 22  1  0  0  0  0
 22 23  1  0  0  0  0
 22 33  1  0  0  0  0
 23 34  1  0  0  0  0
 23 35  1  0  0  0  0
 24 25  1  0  0  0  0
 24 23  1  0  0  0  0
 25 38  1  0  0  0  0
 25 39  1  0  0  0  0
 26 27  2  0  0  0  0
 28 19  1  0  0  0  0
 30 21  1  0  0  0  0
 31 21  1  0  0  0  0
 32 22  1  0  0  0  0
 36 24  1  0  0  0  0
 37 24  1  0  0  0  0
 40 46  1  0  0  0  0
 40 47  1  0  0  0  0
 40 41  1  0  0  0  0
 41 43  1  0  0  0  0
 41 49  1  1  0  0  0
 42 41  1  0  0  0  0
 42 26  1  0  0  0  0
 43 44  1  0  0  0  0
 45 43  2  0  0  0  0
 48 40  1  0  0  0  0
 50 42  1  0  0  0  0
M  END
$$$$
