HKH.pdb
 OpenBabel07022418373D

 57 58  0  0  1  0  0  0  0  0999 V2000
    2.2430   -1.4890    3.0510 N   0  0  0  0  0  0  0  0  0  0  0  0
    1.0870   -1.0620    3.7910 C   0  0  1  0  0  0  0  0  0  0  0  0
    1.4760   -0.0350    4.8660 C   0  0  0  0  0  0  0  0  0  0  0  0
    2.4300   -0.5690    5.8310 C   0  0  0  0  0  0  0  0  0  0  0  0
    2.1550   -1.2100    6.9970 C   0  0  0  0  0  0  0  0  0  0  0  0
    3.3050   -1.5600    7.6290 N   0  0  0  0  0  0  0  0  0  0  0  0
    4.3060   -1.1180    6.8230 C   0  0  0  0  0  0  0  0  0  0  0  0
    3.7690   -0.5170    5.7320 N   0  0  0  0  0  0  0  0  0  0  0  0
    0.0960   -0.3570    2.9320 C   0  0  0  0  0  0  0  0  0  0  0  0
   -0.9610    0.0260    3.4880 O   0  0  0  0  0  0  0  0  0  0  0  0
    2.8220   -2.0980    3.6610 H   0  0  0  0  0  0  0  0  0  0  0  0
    2.8100   -0.6450    2.8200 H   0  0  0  0  0  0  0  0  0  0  0  0
    0.5700   -1.8790    4.3140 H   0  0  0  0  0  0  0  0  0  0  0  0
    0.5060    0.2790    5.3250 H   0  0  0  0  0  0  0  0  0  0  0  0
    1.8390    0.8530    4.3060 H   0  0  0  0  0  0  0  0  0  0  0  0
    1.1520   -1.4120    7.3650 H   0  0  0  0  0  0  0  0  0  0  0  0
    3.3790   -2.0610    8.5410 H   0  0  0  0  0  0  0  0  0  0  0  0
    5.3460   -1.2630    7.0830 H   0  0  0  0  0  0  0  0  0  0  0  0
    0.2750   -0.1030    1.5730 N   0  0  0  0  0  0  0  0  0  0  0  0
   -0.7470    0.6140    0.7310 C   0  0  1  0  0  0  0  0  0  0  0  0
   -0.1090    1.8700    0.2720 C   0  0  0  0  0  0  0  0  0  0  0  0
   -0.7640    2.8880   -0.5460 C   0  0  0  0  0  0  0  0  0  0  0  0
   -1.2200    2.6200   -1.9210 C   0  0  0  0  0  0  0  0  0  0  0  0
   -1.7690    3.9740   -2.4500 C   0  0  0  0  0  0  0  0  0  0  0  0
   -2.2340    3.8030   -3.8020 N   0  0  0  0  0  0  0  0  0  0  0  0
   -1.2590   -0.3460   -0.2430 C   0  0  0  0  0  0  0  0  0  0  0  0
   -2.2700   -0.1760   -0.9560 O   0  0  0  0  0  0  0  0  0  0  0  0
    1.1370   -0.4040    1.1010 H   0  0  0  0  0  0  0  0  0  0  0  0
   -1.5490    0.8590    1.4490 H   0  0  0  0  0  0  0  0  0  0  0  0
    0.3470    2.4170    1.1820 H   0  0  0  0  0  0  0  0  0  0  0  0
    0.8720    1.6260   -0.2850 H   0  0  0  0  0  0  0  0  0  0  0  0
   -1.7310    3.1850    0.0260 H   0  0  0  0  0  0  0  0  0  0  0  0
   -0.2100    3.8880   -0.4830 H   0  0  0  0  0  0  0  0  0  0  0  0
   -2.0940    1.9750   -1.9990 H   0  0  0  0  0  0  0  0  0  0  0  0
   -0.4470    2.2480   -2.6110 H   0  0  0  0  0  0  0  0  0  0  0  0
   -2.6290    4.2720   -1.8250 H   0  0  0  0  0  0  0  0  0  0  0  0
   -0.9360    4.6830   -2.4070 H   0  0  0  0  0  0  0  0  0  0  0  0
   -2.5470    4.7240   -4.1490 H   0  0  0  0  0  0  0  0  0  0  0  0
   -2.9910    3.1190   -3.8930 H   0  0  0  0  0  0  0  0  0  0  0  0
   -0.6060   -1.6150   -0.4610 N   0  0  0  0  0  0  0  0  0  0  0  0
   -1.1580   -2.5680   -1.4620 C   0  0  1  0  0  0  0  0  0  0  0  0
   -0.0530   -2.9270   -2.3850 C   0  0  0  0  0  0  0  0  0  0  0  0
   -0.3800   -3.7950   -3.5170 C   0  0  0  0  0  0  0  0  0  0  0  0
   -1.5860   -4.2450   -3.9690 C   0  0  0  0  0  0  0  0  0  0  0  0
   -1.3740   -4.9620   -5.0800 N   0  0  0  0  0  0  0  0  0  0  0  0
   -0.0690   -4.9710   -5.3370 C   0  0  0  0  0  0  0  0  0  0  0  0
    0.5550   -4.2710   -4.4050 N   0  0  0  0  0  0  0  0  0  0  0  0
   -1.6070   -3.7720   -0.6600 C   0  0  0  0  0  0  0  0  0  0  0  0
   -1.4990   -3.7630    0.6200 O   0  0  0  0  0  0  0  0  0  0  0  0
   -2.1350   -4.9110   -1.1950 O   0  0  0  0  0  0  0  0  0  0  0  0
    0.2260   -1.8670    0.0620 H   0  0  0  0  0  0  0  0  0  0  0  0
   -2.0330   -2.1070   -1.9020 H   0  0  0  0  0  0  0  0  0  0  0  0
    0.4410   -1.9900   -2.7380 H   0  0  0  0  0  0  0  0  0  0  0  0
    0.7590   -3.4420   -1.7930 H   0  0  0  0  0  0  0  0  0  0  0  0
   -2.5710   -4.0750   -3.5740 H   0  0  0  0  0  0  0  0  0  0  0  0
   -2.1210   -5.4460   -5.6660 H   0  0  0  0  0  0  0  0  0  0  0  0
    0.3890   -5.4850   -6.1910 H   0  0  0  0  0  0  0  0  0  0  0  0
  1 11  1  0  0  0  0
  1  2  1  0  0  0  0
  2 13  1  1  0  0  0
  2  3  1  0  0  0  0
  3 14  1  0  0  0  0
  3  4  1  0  0  0  0
  4  5  2  0  0  0  0
  5 16  1  0  0  0  0
  5  6  1  0  0  0  0
  6 17  1  0  0  0  0
  7 18  1  0  0  0  0
  7  6  1  0  0  0  0
  8  4  1  0  0  0  0
  8  7  2  0  0  0  0
  9 10  2  0  0  0  0
  9  2  1  0  0  0  0
 12  1  1  0  0  0  0
 15  3  1  0  0  0  0
 19  9  1  0  0  0  0
 20 29  1  1  0  0  0
 20 19  1  0  0  0  0
 21 20  1  0  0  0  0
 21 30  1  0  0  0  0
 22 33  1  0  0  0  0
 22 32  1  0  0  0  0
 22 21  1  0  0  0  0
 23 22  1  0  0  0  0
 24 37  1  0  0  0  0
 24 23  1  0  0  0  0
 24 36  1  0  0  0  0
 25 24  1  0  0  0  0
 26 20  1  0  0  0  0
 27 26  2  0  0  0  0
 28 19  1  0  0  0  0
 31 21  1  0  0  0  0
 34 23  1  0  0  0  0
 35 23  1  0  0  0  0
 38 25  1  0  0  0  0
 39 25  1  0  0  0  0
 40 26  1  0  0  0  0
 40 51  1  0  0  0  0
 41 52  1  6  0  0  0
 41 48  1  0  0  0  0
 41 40  1  0  0  0  0
 42 54  1  0  0  0  0
 42 41  1  0  0  0  0
 43 42  1  0  0  0  0
 44 55  1  0  0  0  0
 44 43  2  0  0  0  0
 45 44  1  0  0  0  0
 46 45  1  0  0  0  0
 46 47  2  0  0  0  0
 47 43  1  0  0  0  0
 48 49  1  0  0  0  0
 50 48  2  0  0  0  0
 53 42  1  0  0  0  0
 56 45  1  0  0  0  0
 57 46  1  0  0  0  0
M  END
$$$$
