HKK.pdb
 OpenBabel07022418373D

 61 61  0  0  1  0  0  0  0  0999 V2000
    3.1610    0.8700    2.6160 N   0  0  0  0  0  0  0  0  0  0  0  0
    3.0470    0.1220    1.4000 C   0  0  1  0  0  0  0  0  0  0  0  0
    3.4870   -1.2830    1.6290 C   0  0  0  0  0  0  0  0  0  0  0  0
    4.8690   -1.4150    2.0780 C   0  0  0  0  0  0  0  0  0  0  0  0
    5.7720   -0.4190    2.3020 C   0  0  0  0  0  0  0  0  0  0  0  0
    6.9290   -0.9950    2.7070 N   0  0  0  0  0  0  0  0  0  0  0  0
    6.7590   -2.3090    2.7360 C   0  0  0  0  0  0  0  0  0  0  0  0
    5.4900   -2.5660    2.3480 N   0  0  0  0  0  0  0  0  0  0  0  0
    1.5910    0.0760    1.0100 C   0  0  0  0  0  0  0  0  0  0  0  0
    1.2350   -0.5310   -0.0310 O   0  0  0  0  0  0  0  0  0  0  0  0
    2.6620    0.3480    3.3700 H   0  0  0  0  0  0  0  0  0  0  0  0
    2.8810    1.8690    2.5410 H   0  0  0  0  0  0  0  0  0  0  0  0
    3.6070    0.5940    0.5600 H   0  0  0  0  0  0  0  0  0  0  0  0
    3.3210   -1.8900    0.6920 H   0  0  0  0  0  0  0  0  0  0  0  0
    2.7870   -1.7370    2.3770 H   0  0  0  0  0  0  0  0  0  0  0  0
    5.5890    0.6270    2.1780 H   0  0  0  0  0  0  0  0  0  0  0  0
    7.7930   -0.4830    2.9500 H   0  0  0  0  0  0  0  0  0  0  0  0
    7.4800   -3.0640    3.0140 H   0  0  0  0  0  0  0  0  0  0  0  0
    0.6070    0.7150    1.8130 N   0  0  0  0  0  0  0  0  0  0  0  0
   -0.7960    0.7150    1.5190 C   0  0  1  0  0  0  0  0  0  0  0  0
   -1.1700    1.5730    0.3600 C   0  0  0  0  0  0  0  0  0  0  0  0
   -0.8020    3.0120    0.5790 C   0  0  0  0  0  0  0  0  0  0  0  0
   -1.1680    3.8900   -0.5720 C   0  0  0  0  0  0  0  0  0  0  0  0
   -2.6500    3.8840   -0.8640 C   0  0  0  0  0  0  0  0  0  0  0  0
   -3.4420    4.3390    0.2420 N   0  0  0  0  0  0  0  0  0  0  0  0
   -1.2850   -0.7060    1.3690 C   0  0  0  0  0  0  0  0  0  0  0  0
   -0.4810   -1.6400    1.5370 O   0  0  0  0  0  0  0  0  0  0  0  0
    0.9530    1.2250    2.6880 H   0  0  0  0  0  0  0  0  0  0  0  0
   -1.3410    1.1110    2.4340 H   0  0  0  0  0  0  0  0  0  0  0  0
   -2.2440    1.4720    0.1160 H   0  0  0  0  0  0  0  0  0  0  0  0
   -0.6230    1.2100   -0.5570 H   0  0  0  0  0  0  0  0  0  0  0  0
    0.2860    3.1160    0.7540 H   0  0  0  0  0  0  0  0  0  0  0  0
   -1.3340    3.3900    1.4760 H   0  0  0  0  0  0  0  0  0  0  0  0
   -0.6540    3.5930   -1.5110 H   0  0  0  0  0  0  0  0  0  0  0  0
   -0.8940    4.9310   -0.3080 H   0  0  0  0  0  0  0  0  0  0  0  0
   -2.9900    2.8770   -1.2250 H   0  0  0  0  0  0  0  0  0  0  0  0
   -2.8140    4.5820   -1.7100 H   0  0  0  0  0  0  0  0  0  0  0  0
   -3.7640    3.5080    0.7850 H   0  0  0  0  0  0  0  0  0  0  0  0
   -4.3060    4.8020   -0.1320 H   0  0  0  0  0  0  0  0  0  0  0  0
   -2.6300   -0.9860    1.0420 N   0  0  0  0  0  0  0  0  0  0  0  0
   -3.1970   -2.3040    0.8850 C   0  0  1  0  0  0  0  0  0  0  0  0
   -3.0710   -2.8720   -0.4850 C   0  0  0  0  0  0  0  0  0  0  0  0
   -1.6910   -3.0350   -0.9920 C   0  0  0  0  0  0  0  0  0  0  0  0
   -1.6430   -3.6150   -2.3850 C   0  0  0  0  0  0  0  0  0  0  0  0
   -2.2660   -4.9740   -2.4890 C   0  0  0  0  0  0  0  0  0  0  0  0
   -2.1840   -5.4880   -3.8560 N   0  0  0  0  0  0  0  0  0  0  0  0
   -2.8340   -3.2250    1.9870 C   0  0  0  0  0  0  0  0  0  0  0  0
   -2.1880   -2.8090    2.9610 O   0  0  0  0  0  0  0  0  0  0  0  0
   -3.1970   -4.5590    1.9740 O   0  0  0  0  0  0  0  0  0  0  0  0
   -3.2320   -0.1070    0.9130 H   0  0  0  0  0  0  0  0  0  0  0  0
   -4.3350   -2.1240    1.0120 H   0  0  0  0  0  0  0  0  0  0  0  0
   -3.6410   -3.8150   -0.6060 H   0  0  0  0  0  0  0  0  0  0  0  0
   -3.5950   -2.1440   -1.1720 H   0  0  0  0  0  0  0  0  0  0  0  0
   -1.1690   -2.0350   -1.0830 H   0  0  0  0  0  0  0  0  0  0  0  0
   -1.0300   -3.6460   -0.3610 H   0  0  0  0  0  0  0  0  0  0  0  0
   -2.1520   -2.9090   -3.1060 H   0  0  0  0  0  0  0  0  0  0  0  0
   -0.6070   -3.7000   -2.7710 H   0  0  0  0  0  0  0  0  0  0  0  0
   -1.8170   -5.6680   -1.7590 H   0  0  0  0  0  0  0  0  0  0  0  0
   -3.3510   -4.9100   -2.2740 H   0  0  0  0  0  0  0  0  0  0  0  0
   -1.2610   -6.0160   -3.8860 H   0  0  0  0  0  0  0  0  0  0  0  0
   -2.9220   -6.1900   -3.9760 H   0  0  0  0  0  0  0  0  0  0  0  0
  1 11  1  0  0  0  0
  2 13  1  6  0  0  0
  2  3  1  0  0  0  0
  2  1  1  0  0  0  0
  3  4  1  0  0  0  0
  3 15  1  0  0  0  0
  4  5  2  0  0  0  0
  4  8  1  0  0  0  0
  5  6  1  0  0  0  0
  6  7  1  0  0  0  0
  6 17  1  0  0  0  0
  7 18  1  0  0  0  0
  8  7  2  0  0  0  0
  9  2  1  0  0  0  0
  9 19  1  0  0  0  0
 10  9  2  0  0  0  0
 12  1  1  0  0  0  0
 14  3  1  0  0  0  0
 16  5  1  0  0  0  0
 19 28  1  0  0  0  0
 20 19  1  0  0  0  0
 20 29  1  1  0  0  0
 21 22  1  0  0  0  0
 21 20  1  0  0  0  0
 22 32  1  0  0  0  0
 22 33  1  0  0  0  0
 23 35  1  0  0  0  0
 23 22  1  0  0  0  0
 24 23  1  0  0  0  0
 24 25  1  0  0  0  0
 25 38  1  0  0  0  0
 26 20  1  0  0  0  0
 26 27  2  0  0  0  0
 30 21  1  0  0  0  0
 31 21  1  0  0  0  0
 34 23  1  0  0  0  0
 36 24  1  0  0  0  0
 37 24  1  0  0  0  0
 39 25  1  0  0  0  0
 40 26  1  0  0  0  0
 41 51  1  1  0  0  0
 41 40  1  0  0  0  0
 41 47  1  0  0  0  0
 42 41  1  0  0  0  0
 43 42  1  0  0  0  0
 43 55  1  0  0  0  0
 44 43  1  0  0  0  0
 45 44  1  0  0  0  0
 45 59  1  0  0  0  0
 45 58  1  0  0  0  0
 46 45  1  0  0  0  0
 47 48  1  0  0  0  0
 49 47  2  0  0  0  0
 50 40  1  0  0  0  0
 52 42  1  0  0  0  0
 53 42  1  0  0  0  0
 54 43  1  0  0  0  0
 56 44  1  0  0  0  0
 57 44  1  0  0  0  0
 60 46  1  0  0  0  0
 61 46  1  0  0  0  0
M  END
$$$$
