HKM.pdb
 OpenBabel07022418373D

 57 57  0  0  1  0  0  0  0  0999 V2000
    0.3740   -2.6500    3.2810 N   0  0  0  0  0  0  0  0  0  0  0  0
    1.4930   -1.7570    2.9320 C   0  0  1  0  0  0  0  0  0  0  0  0
    2.4700   -2.6310    2.1810 C   0  0  0  0  0  0  0  0  0  0  0  0
    3.6390   -1.8400    1.7830 C   0  0  0  0  0  0  0  0  0  0  0  0
    4.7850   -1.6770    2.5580 C   0  0  0  0  0  0  0  0  0  0  0  0
    5.6410   -0.8980    1.8850 N   0  0  0  0  0  0  0  0  0  0  0  0
    5.0780   -0.5600    0.7070 C   0  0  0  0  0  0  0  0  0  0  0  0
    3.8820   -1.1280    0.6570 N   0  0  0  0  0  0  0  0  0  0  0  0
    0.9750   -0.7390    1.9450 C   0  0  0  0  0  0  0  0  0  0  0  0
    1.7710    0.1470    1.6010 O   0  0  0  0  0  0  0  0  0  0  0  0
    0.5760   -3.1890    4.1290 H   0  0  0  0  0  0  0  0  0  0  0  0
    0.2470   -3.3200    2.4830 H   0  0  0  0  0  0  0  0  0  0  0  0
    1.9210   -1.2870    3.8190 H   0  0  0  0  0  0  0  0  0  0  0  0
    1.9290   -2.9570    1.2450 H   0  0  0  0  0  0  0  0  0  0  0  0
    2.7460   -3.5260    2.7880 H   0  0  0  0  0  0  0  0  0  0  0  0
    4.9830   -2.1000    3.5520 H   0  0  0  0  0  0  0  0  0  0  0  0
    6.5970   -0.5690    2.1650 H   0  0  0  0  0  0  0  0  0  0  0  0
    5.5040    0.0660   -0.0810 H   0  0  0  0  0  0  0  0  0  0  0  0
   -0.3340   -0.8210    1.4660 N   0  0  0  0  0  0  0  0  0  0  0  0
   -0.9370    0.0720    0.5590 C   0  0  1  0  0  0  0  0  0  0  0  0
   -0.4030    1.4660    0.4820 C   0  0  0  0  0  0  0  0  0  0  0  0
   -0.4800    2.3210    1.6680 C   0  0  0  0  0  0  0  0  0  0  0  0
   -1.8510    2.6170    2.2020 C   0  0  0  0  0  0  0  0  0  0  0  0
   -2.7640    3.3130    1.2510 C   0  0  0  0  0  0  0  0  0  0  0  0
   -2.3250    4.5800    0.7900 N   0  0  0  0  0  0  0  0  0  0  0  0
   -0.9830   -0.5250   -0.7880 C   0  0  0  0  0  0  0  0  0  0  0  0
   -1.4020    0.1020   -1.7980 O   0  0  0  0  0  0  0  0  0  0  0  0
   -0.9120   -1.6290    1.8270 H   0  0  0  0  0  0  0  0  0  0  0  0
   -2.0290    0.2440    0.8580 H   0  0  0  0  0  0  0  0  0  0  0  0
   -1.0120    1.9670   -0.3330 H   0  0  0  0  0  0  0  0  0  0  0  0
    0.6130    1.4180    0.0500 H   0  0  0  0  0  0  0  0  0  0  0  0
    0.0460    1.8560    2.5240 H   0  0  0  0  0  0  0  0  0  0  0  0
    0.0210    3.3010    1.5160 H   0  0  0  0  0  0  0  0  0  0  0  0
   -2.3530    1.7160    2.6060 H   0  0  0  0  0  0  0  0  0  0  0  0
   -1.6960    3.2850    3.0770 H   0  0  0  0  0  0  0  0  0  0  0  0
   -3.7520    3.4600    1.7390 H   0  0  0  0  0  0  0  0  0  0  0  0
   -2.9840    2.5830    0.4160 H   0  0  0  0  0  0  0  0  0  0  0  0
   -1.8950    4.5910   -0.1550 H   0  0  0  0  0  0  0  0  0  0  0  0
   -3.0440    5.3220    0.8880 H   0  0  0  0  0  0  0  0  0  0  0  0
   -3.3300   -2.7440    0.0050 C   0  0  0  0  0  0  0  0  0  0  0  0
   -3.8320   -2.0160   -1.5620 S   0  0  0  0  0  0  0  0  0  0  0  0
   -2.9850   -2.6630   -2.9610 C   0  0  0  0  0  0  0  0  0  0  0  0
   -1.5730   -2.3170   -3.2380 C   0  0  0  0  0  0  0  0  0  0  0  0
   -0.5230   -2.5740   -2.2340 C   0  0  2  0  0  0  0  0  0  0  0  0
   -0.5390   -1.8720   -0.9990 N   0  0  0  0  0  0  0  0  0  0  0  0
    0.8260   -2.7540   -2.8020 C   0  0  0  0  0  0  0  0  0  0  0  0
    0.9520   -3.3600   -3.8860 O   0  0  0  0  0  0  0  0  0  0  0  0
    1.9540   -2.2740   -2.1720 O   0  0  0  0  0  0  0  0  0  0  0  0
   -2.5620   -3.5260   -0.1330 H   0  0  0  0  0  0  0  0  0  0  0  0
   -2.9480   -2.0070    0.7220 H   0  0  0  0  0  0  0  0  0  0  0  0
   -4.2180   -3.2910    0.4690 H   0  0  0  0  0  0  0  0  0  0  0  0
   -3.6330   -2.4740   -3.8810 H   0  0  0  0  0  0  0  0  0  0  0  0
   -3.0060   -3.8160   -2.8780 H   0  0  0  0  0  0  0  0  0  0  0  0
   -1.2760   -2.9710   -4.1430 H   0  0  0  0  0  0  0  0  0  0  0  0
   -1.5750   -1.2550   -3.6170 H   0  0  0  0  0  0  0  0  0  0  0  0
   -0.7990   -3.6740   -1.8970 H   0  0  0  0  0  0  0  0  0  0  0  0
   -0.1890   -2.3680   -0.1120 H   0  0  0  0  0  0  0  0  0  0  0  0
  1 11  1  0  0  0  0
  2  1  1  0  0  0  0
  2 13  1  1  0  0  0
  3 15  1  0  0  0  0
  3  2  1  0  0  0  0
  4  3  1  0  0  0  0
  4  5  2  0  0  0  0
  5 16  1  0  0  0  0
  6 17  1  0  0  0  0
  6  5  1  0  0  0  0
  7  6  1  0  0  0  0
  8  7  2  0  0  0  0
  8  4  1  0  0  0  0
  9  2  1  0  0  0  0
 10  9  2  0  0  0  0
 12  1  1  0  0  0  0
 14  3  1  0  0  0  0
 18  7  1  0  0  0  0
 19 28  1  0  0  0  0
 19  9  1  0  0  0  0
 20 29  1  1  0  0  0
 20 19  1  0  0  0  0
 21 20  1  0  0  0  0
 21 22  1  0  0  0  0
 22 23  1  0  0  0  0
 22 32  1  0  0  0  0
 23 34  1  0  0  0  0
 23 35  1  0  0  0  0
 24 36  1  0  0  0  0
 24 23  1  0  0  0  0
 25 39  1  0  0  0  0
 25 24  1  0  0  0  0
 26 20  1  0  0  0  0
 27 26  2  0  0  0  0
 30 21  1  0  0  0  0
 31 21  1  0  0  0  0
 33 22  1  0  0  0  0
 37 24  1  0  0  0  0
 38 25  1  0  0  0  0
 40 51  1  0  0  0  0
 40 50  1  0  0  0  0
 41 40  1  0  0  0  0
 42 53  1  0  0  0  0
 42 41  1  0  0  0  0
 43 42  1  0  0  0  0
 43 44  1  0  0  0  0
 44 56  1  1  0  0  0
 44 45  1  0  0  0  0
 45 26  1  0  0  0  0
 45 57  1  0  0  0  0
 46 44  1  0  0  0  0
 46 48  1  0  0  0  0
 47 46  2  0  0  0  0
 49 40  1  0  0  0  0
 52 42  1  0  0  0  0
 54 43  1  0  0  0  0
 55 43  1  0  0  0  0
M  END
$$$$
