HKN.pdb
 OpenBabel07022418373D

 54 54  0  0  1  0  0  0  0  0999 V2000
    3.0520    0.2450    3.2930 N   0  0  0  0  0  0  0  0  0  0  0  0
    3.2570   -0.9810    2.4920 C   0  0  1  0  0  0  0  0  0  0  0  0
    3.3970   -2.1260    3.4360 C   0  0  0  0  0  0  0  0  0  0  0  0
    3.6230   -3.4500    2.7980 C   0  0  0  0  0  0  0  0  0  0  0  0
    4.8840   -3.9510    2.5080 C   0  0  0  0  0  0  0  0  0  0  0  0
    4.6990   -5.1730    1.9570 N   0  0  0  0  0  0  0  0  0  0  0  0
    3.3890   -5.4350    1.9000 C   0  0  0  0  0  0  0  0  0  0  0  0
    2.7510   -4.3900    2.4110 N   0  0  0  0  0  0  0  0  0  0  0  0
    2.0170   -1.1880    1.6520 C   0  0  0  0  0  0  0  0  0  0  0  0
    1.7720   -2.2960    1.1150 O   0  0  0  0  0  0  0  0  0  0  0  0
    3.9540    0.8040    3.3300 H   0  0  0  0  0  0  0  0  0  0  0  0
    2.8690   -0.0380    4.3110 H   0  0  0  0  0  0  0  0  0  0  0  0
    4.1540   -0.8790    1.8720 H   0  0  0  0  0  0  0  0  0  0  0  0
    2.4560   -2.1910    4.0830 H   0  0  0  0  0  0  0  0  0  0  0  0
    4.1850   -1.9220    4.2160 H   0  0  0  0  0  0  0  0  0  0  0  0
    5.8240   -3.4410    2.6910 H   0  0  0  0  0  0  0  0  0  0  0  0
    5.4540   -5.8440    1.6040 H   0  0  0  0  0  0  0  0  0  0  0  0
    2.9430   -6.3540    1.4980 H   0  0  0  0  0  0  0  0  0  0  0  0
    1.1070   -0.1220    1.4560 N   0  0  0  0  0  0  0  0  0  0  0  0
   -0.1070   -0.0560    0.7540 C   0  0  1  0  0  0  0  0  0  0  0  0
   -0.3350    1.3320    0.2840 C   0  0  0  0  0  0  0  0  0  0  0  0
   -0.4490    2.4040    1.2940 C   0  0  0  0  0  0  0  0  0  0  0  0
   -1.5670    2.2660    2.2760 C   0  0  0  0  0  0  0  0  0  0  0  0
   -2.9420    2.2400    1.6200 C   0  0  0  0  0  0  0  0  0  0  0  0
   -3.0760    3.5160    0.8960 N   0  0  0  0  0  0  0  0  0  0  0  0
   -0.2900   -0.9900   -0.4140 C   0  0  0  0  0  0  0  0  0  0  0  0
    0.4510   -1.8180   -0.9010 O   0  0  0  0  0  0  0  0  0  0  0  0
    1.4020    0.7880    1.9680 H   0  0  0  0  0  0  0  0  0  0  0  0
   -0.9030   -0.4700    1.4610 H   0  0  0  0  0  0  0  0  0  0  0  0
   -1.1630    1.3710   -0.4430 H   0  0  0  0  0  0  0  0  0  0  0  0
    0.5720    1.5710   -0.3700 H   0  0  0  0  0  0  0  0  0  0  0  0
    0.4940    2.5780    1.8380 H   0  0  0  0  0  0  0  0  0  0  0  0
   -0.6330    3.3730    0.7200 H   0  0  0  0  0  0  0  0  0  0  0  0
   -1.5820    3.2050    2.8960 H   0  0  0  0  0  0  0  0  0  0  0  0
   -1.4300    1.4480    3.0190 H   0  0  0  0  0  0  0  0  0  0  0  0
   -3.7670    2.2240    2.3690 H   0  0  0  0  0  0  0  0  0  0  0  0
   -3.0760    1.3680    0.9820 H   0  0  0  0  0  0  0  0  0  0  0  0
   -4.0800    3.5410    0.5640 H   0  0  0  0  0  0  0  0  0  0  0  0
   -2.5110    3.3610    0.0130 H   0  0  0  0  0  0  0  0  0  0  0  0
   -4.0170    0.1650   -2.6930 N   0  0  0  0  0  0  0  0  0  0  0  0
   -4.3240   -1.1880   -2.4130 C   0  0  0  0  0  0  0  0  0  0  0  0
   -5.5200   -1.5120   -2.2810 O   0  0  0  0  0  0  0  0  0  0  0  0
   -3.3060   -2.2410   -2.2710 C   0  0  0  0  0  0  0  0  0  0  0  0
   -1.8920   -1.7590   -2.2110 C   0  0  2  0  0  0  0  0  0  0  0  0
   -1.5880   -0.9000   -1.1040 N   0  0  0  0  0  0  0  0  0  0  0  0
   -1.5840   -1.1250   -3.5370 C   0  0  0  0  0  0  0  0  0  0  0  0
   -1.0690   -0.0230   -3.6700 O   0  0  0  0  0  0  0  0  0  0  0  0
   -1.9230   -1.8630   -4.7130 O   0  0  0  0  0  0  0  0  0  0  0  0
   -3.7830    0.5010   -3.6550 H   0  0  0  0  0  0  0  0  0  0  0  0
   -4.0320    0.8630   -1.9090 H   0  0  0  0  0  0  0  0  0  0  0  0
   -3.4970   -2.8450   -1.3170 H   0  0  0  0  0  0  0  0  0  0  0  0
   -3.4640   -3.0130   -3.0640 H   0  0  0  0  0  0  0  0  0  0  0  0
   -1.1650   -2.6240   -2.1680 H   0  0  0  0  0  0  0  0  0  0  0  0
   -2.2830   -0.2050   -0.7570 H   0  0  0  0  0  0  0  0  0  0  0  0
  1 11  1  0  0  0  0
  1 12  1  0  0  0  0
  2 13  1  6  0  0  0
  2  1  1  0  0  0  0
  2  3  1  0  0  0  0
  3 14  1  0  0  0  0
  3 15  1  0  0  0  0
  4  3  1  0  0  0  0
  5 16  1  0  0  0  0
  5  4  2  0  0  0  0
  6  5  1  0  0  0  0
  7  6  1  0  0  0  0
  7  8  2  0  0  0  0
  8  4  1  0  0  0  0
  9  2  1  0  0  0  0
 10  9  2  0  0  0  0
 17  6  1  0  0  0  0
 18  7  1  0  0  0  0
 19  9  1  0  0  0  0
 19 28  1  0  0  0  0
 20 19  1  0  0  0  0
 20 29  1  1  0  0  0
 21 20  1  0  0  0  0
 21 22  1  0  0  0  0
 22 32  1  0  0  0  0
 22 23  1  0  0  0  0
 23 34  1  0  0  0  0
 23 35  1  0  0  0  0
 24 23  1  0  0  0  0
 24 36  1  0  0  0  0
 25 24  1  0  0  0  0
 26 20  1  0  0  0  0
 27 26  2  0  0  0  0
 30 21  1  0  0  0  0
 31 21  1  0  0  0  0
 33 22  1  0  0  0  0
 37 24  1  0  0  0  0
 38 25  1  0  0  0  0
 39 25  1  0  0  0  0
 40 41  1  0  0  0  0
 40 50  1  0  0  0  0
 41 42  2  0  0  0  0
 41 43  1  0  0  0  0
 43 44  1  0  0  0  0
 43 51  1  0  0  0  0
 44 53  1  1  0  0  0
 44 45  1  0  0  0  0
 45 54  1  0  0  0  0
 45 26  1  0  0  0  0
 46 44  1  0  0  0  0
 47 46  1  0  0  0  0
 48 46  2  0  0  0  0
 49 40  1  0  0  0  0
 52 43  1  0  0  0  0
M  END
$$$$
