HKQ.pdb
 OpenBabel07022418373D

 57 57  0  0  1  0  0  0  0  0999 V2000
    2.0670   -0.3910    4.4180 N   0  0  0  0  0  0  0  0  0  0  0  0
    2.1890   -0.2040    3.0010 C   0  0  1  0  0  0  0  0  0  0  0  0
    3.1530   -1.1560    2.3770 C   0  0  0  0  0  0  0  0  0  0  0  0
    4.5150   -1.0160    2.9340 C   0  0  0  0  0  0  0  0  0  0  0  0
    4.8920   -0.1270    3.9110 C   0  0  0  0  0  0  0  0  0  0  0  0
    6.2090   -0.2750    4.1750 N   0  0  0  0  0  0  0  0  0  0  0  0
    6.6330   -1.2510    3.3610 C   0  0  0  0  0  0  0  0  0  0  0  0
    5.6170   -1.7070    2.6060 N   0  0  0  0  0  0  0  0  0  0  0  0
    0.8350   -0.3990    2.3940 C   0  0  0  0  0  0  0  0  0  0  0  0
   -0.1750   -0.6790    3.1140 O   0  0  0  0  0  0  0  0  0  0  0  0
    1.9780   -1.3940    4.6790 H   0  0  0  0  0  0  0  0  0  0  0  0
    1.2450    0.1120    4.8010 H   0  0  0  0  0  0  0  0  0  0  0  0
    2.4820    0.8540    2.8040 H   0  0  0  0  0  0  0  0  0  0  0  0
    3.1410   -1.0070    1.2710 H   0  0  0  0  0  0  0  0  0  0  0  0
    2.8040   -2.1900    2.5900 H   0  0  0  0  0  0  0  0  0  0  0  0
    4.2410    0.5730    4.3870 H   0  0  0  0  0  0  0  0  0  0  0  0
    6.7210    0.2880    4.8780 H   0  0  0  0  0  0  0  0  0  0  0  0
    7.6430   -1.6370    3.3000 H   0  0  0  0  0  0  0  0  0  0  0  0
    0.6320   -0.2770    0.9980 N   0  0  0  0  0  0  0  0  0  0  0  0
   -0.6780   -0.4580    0.3630 C   0  0  1  0  0  0  0  0  0  0  0  0
   -1.0300    0.6680   -0.5290 C   0  0  0  0  0  0  0  0  0  0  0  0
   -1.1070    2.0410   -0.0560 C   0  0  0  0  0  0  0  0  0  0  0  0
   -2.0670    2.5200    0.9530 C   0  0  0  0  0  0  0  0  0  0  0  0
   -1.9460    1.9090    2.2880 C   0  0  0  0  0  0  0  0  0  0  0  0
   -2.8960    2.5210    3.2480 N   0  0  0  0  0  0  0  0  0  0  0  0
   -0.4900   -1.7270   -0.4910 C   0  0  0  0  0  0  0  0  0  0  0  0
    0.5990   -2.2730   -0.4460 O   0  0  0  0  0  0  0  0  0  0  0  0
    1.4820   -0.0430    0.4110 H   0  0  0  0  0  0  0  0  0  0  0  0
   -1.4120   -0.6570    1.1130 H   0  0  0  0  0  0  0  0  0  0  0  0
   -0.3990    0.6010   -1.4850 H   0  0  0  0  0  0  0  0  0  0  0  0
   -2.0660    0.3920   -0.9590 H   0  0  0  0  0  0  0  0  0  0  0  0
   -1.2390    2.6970   -1.0090 H   0  0  0  0  0  0  0  0  0  0  0  0
   -0.0500    2.4320    0.2470 H   0  0  0  0  0  0  0  0  0  0  0  0
   -3.1380    2.3860    0.5610 H   0  0  0  0  0  0  0  0  0  0  0  0
   -2.0090    3.6590    1.0700 H   0  0  0  0  0  0  0  0  0  0  0  0
   -0.9160    1.9280    2.6560 H   0  0  0  0  0  0  0  0  0  0  0  0
   -2.3010    0.8620    2.2630 H   0  0  0  0  0  0  0  0  0  0  0  0
   -3.8550    2.1900    3.0020 H   0  0  0  0  0  0  0  0  0  0  0  0
   -2.6580    2.0790    4.1690 H   0  0  0  0  0  0  0  0  0  0  0  0
   -4.1510   -0.3860   -4.0190 N   0  0  0  0  0  0  0  0  0  0  0  0
   -2.9120   -1.0650   -3.8820 C   0  0  0  0  0  0  0  0  0  0  0  0
   -1.8990   -0.4350   -3.5290 O   0  0  0  0  0  0  0  0  0  0  0  0
   -2.8540   -2.4910   -4.1650 C   0  0  0  0  0  0  0  0  0  0  0  0
   -1.7100   -3.2530   -3.5780 C   0  0  0  0  0  0  0  0  0  0  0  0
   -1.6260   -3.3540   -2.1120 C   0  0  2  0  0  0  0  0  0  0  0  0
   -1.5330   -2.2380   -1.2890 N   0  0  0  0  0  0  0  0  0  0  0  0
   -0.7330   -4.5250   -1.7900 C   0  0  0  0  0  0  0  0  0  0  0  0
   -0.7400   -5.4640   -2.6160 O   0  0  0  0  0  0  0  0  0  0  0  0
    0.0320   -4.5840   -0.6860 O   0  0  0  0  0  0  0  0  0  0  0  0
   -5.0630   -0.9210   -3.9950 H   0  0  0  0  0  0  0  0  0  0  0  0
   -4.1570    0.6440   -4.1440 H   0  0  0  0  0  0  0  0  0  0  0  0
   -2.7610   -2.6210   -5.2870 H   0  0  0  0  0  0  0  0  0  0  0  0
   -3.7960   -3.0330   -3.9160 H   0  0  0  0  0  0  0  0  0  0  0  0
   -1.8740   -4.3220   -3.9410 H   0  0  0  0  0  0  0  0  0  0  0  0
   -0.7370   -3.0000   -4.0750 H   0  0  0  0  0  0  0  0  0  0  0  0
   -2.6470   -3.8590   -1.7900 H   0  0  0  0  0  0  0  0  0  0  0  0
   -2.4240   -1.6310   -1.2120 H   0  0  0  0  0  0  0  0  0  0  0  0
  1 11  1  0  0  0  0
  1 12  1  0  0  0  0
  2 13  1  6  0  0  0
  2  1  1  0  0  0  0
  3 15  1  0  0  0  0
  3  4  1  0  0  0  0
  3  2  1  0  0  0  0
  4  5  2  0  0  0  0
  5  6  1  0  0  0  0
  5 16  1  0  0  0  0
  6 17  1  0  0  0  0
  7  6  1  0  0  0  0
  8  4  1  0  0  0  0
  8  7  2  0  0  0  0
  9  2  1  0  0  0  0
  9 10  2  0  0  0  0
 14  3  1  0  0  0  0
 18  7  1  0  0  0  0
 19  9  1  0  0  0  0
 20 19  1  0  0  0  0
 20 29  1  1  0  0  0
 21 22  1  0  0  0  0
 21 20  1  0  0  0  0
 22 33  1  0  0  0  0
 22 23  1  0  0  0  0
 23 35  1  0  0  0  0
 23 24  1  0  0  0  0
 24 36  1  0  0  0  0
 24 25  1  0  0  0  0
 25 39  1  0  0  0  0
 26 27  2  0  0  0  0
 26 20  1  0  0  0  0
 28 19  1  0  0  0  0
 30 21  1  0  0  0  0
 31 21  1  0  0  0  0
 32 22  1  0  0  0  0
 34 23  1  0  0  0  0
 37 24  1  0  0  0  0
 38 25  1  0  0  0  0
 40 50  1  0  0  0  0
 40 41  1  0  0  0  0
 41 42  2  0  0  0  0
 43 53  1  0  0  0  0
 43 41  1  0  0  0  0
 43 44  1  0  0  0  0
 44 45  1  0  0  0  0
 45 56  1  1  0  0  0
 45 47  1  0  0  0  0
 45 46  1  0  0  0  0
 46 57  1  0  0  0  0
 46 26  1  0  0  0  0
 47 49  1  0  0  0  0
 48 47  2  0  0  0  0
 51 40  1  0  0  0  0
 52 43  1  0  0  0  0
 54 44  1  0  0  0  0
 55 44  1  0  0  0  0
M  END
$$$$
