HKR.pdb
 OpenBabel07022418373D

 63 63  0  0  1  0  0  0  0  0999 V2000
    2.6230   -2.5810   -1.0420 N   0  0  0  0  0  0  0  0  0  0  0  0
    2.5210   -2.0790    0.3380 C   0  0  1  0  0  0  0  0  0  0  0  0
    3.9000   -1.9040    0.8800 C   0  0  0  0  0  0  0  0  0  0  0  0
    4.0000   -1.4090    2.2430 C   0  0  0  0  0  0  0  0  0  0  0  0
    4.0300   -2.1370    3.4330 C   0  0  0  0  0  0  0  0  0  0  0  0
    4.1300   -1.2850    4.4670 N   0  0  0  0  0  0  0  0  0  0  0  0
    4.1650   -0.0330    3.9760 C   0  0  0  0  0  0  0  0  0  0  0  0
    4.0860   -0.1120    2.6440 N   0  0  0  0  0  0  0  0  0  0  0  0
    1.7330   -0.8190    0.2480 C   0  0  0  0  0  0  0  0  0  0  0  0
    1.4930   -0.2650   -0.8600 O   0  0  0  0  0  0  0  0  0  0  0  0
    1.7250   -3.0790   -1.2270 H   0  0  0  0  0  0  0  0  0  0  0  0
    3.4510   -3.1760   -1.1760 H   0  0  0  0  0  0  0  0  0  0  0  0
    2.0140   -2.8770    0.9110 H   0  0  0  0  0  0  0  0  0  0  0  0
    4.3810   -2.9270    0.8590 H   0  0  0  0  0  0  0  0  0  0  0  0
    4.5530   -1.2920    0.2220 H   0  0  0  0  0  0  0  0  0  0  0  0
    3.9790   -3.2210    3.4780 H   0  0  0  0  0  0  0  0  0  0  0  0
    4.1770   -1.5170    5.5020 H   0  0  0  0  0  0  0  0  0  0  0  0
    4.2410    0.9020    4.5190 H   0  0  0  0  0  0  0  0  0  0  0  0
    1.2340   -0.2170    1.4140 N   0  0  0  0  0  0  0  0  0  0  0  0
    0.4550    1.0160    1.4850 C   0  0  1  0  0  0  0  0  0  0  0  0
    1.1850    2.1500    0.8500 C   0  0  0  0  0  0  0  0  0  0  0  0
    0.5880    3.5020    0.8800 C   0  0  0  0  0  0  0  0  0  0  0  0
    0.4230    4.2330    2.1340 C   0  0  0  0  0  0  0  0  0  0  0  0
   -0.3900    3.7470    3.2560 C   0  0  0  0  0  0  0  0  0  0  0  0
   -1.7720    3.5030    3.0220 N   0  0  0  0  0  0  0  0  0  0  0  0
   -0.8510    0.7960    0.7860 C   0  0  0  0  0  0  0  0  0  0  0  0
   -1.6640    1.7160    0.5760 O   0  0  0  0  0  0  0  0  0  0  0  0
    1.4210   -0.6960    2.3400 H   0  0  0  0  0  0  0  0  0  0  0  0
    0.3110    1.2350    2.5520 H   0  0  0  0  0  0  0  0  0  0  0  0
    2.2670    2.1870    1.2150 H   0  0  0  0  0  0  0  0  0  0  0  0
    1.3520    1.8570   -0.2420 H   0  0  0  0  0  0  0  0  0  0  0  0
   -0.3520    3.5450    0.2590 H   0  0  0  0  0  0  0  0  0  0  0  0
    1.2990    4.1440    0.2320 H   0  0  0  0  0  0  0  0  0  0  0  0
    1.4390    4.5100    2.5610 H   0  0  0  0  0  0  0  0  0  0  0  0
   -0.0020    5.2740    1.8740 H   0  0  0  0  0  0  0  0  0  0  0  0
    0.1010    2.9770    3.9200 H   0  0  0  0  0  0  0  0  0  0  0  0
   -0.3990    4.6450    4.0090 H   0  0  0  0  0  0  0  0  0  0  0  0
   -2.3960    4.1910    3.4880 H   0  0  0  0  0  0  0  0  0  0  0  0
   -2.1090    2.5580    3.2480 H   0  0  0  0  0  0  0  0  0  0  0  0
   -5.0580   -4.2320   -3.6980 N   0  0  0  0  0  0  0  0  0  0  0  0
   -3.7000   -4.3480   -3.2980 C   0  0  0  0  0  0  0  0  0  0  0  0
   -3.2960   -5.3210   -2.5670 N   0  0  0  0  0  0  0  0  0  0  0  0
   -2.7730   -3.3380   -3.7350 N   0  0  0  0  0  0  0  0  0  0  0  0
   -1.4810   -3.1730   -3.0970 C   0  0  0  0  0  0  0  0  0  0  0  0
   -1.6260   -2.6550   -1.6790 C   0  0  0  0  0  0  0  0  0  0  0  0
   -2.3300   -1.3220   -1.7440 C   0  0  0  0  0  0  0  0  0  0  0  0
   -2.5220   -0.7130   -0.3730 C   0  0  2  0  0  0  0  0  0  0  0  0
   -1.2750   -0.4830    0.3050 N   0  0  0  0  0  0  0  0  0  0  0  0
   -3.3660   -1.5800    0.4960 C   0  0  0  0  0  0  0  0  0  0  0  0
   -2.9470   -1.9800    1.6100 O   0  0  0  0  0  0  0  0  0  0  0  0
   -4.6440   -1.9890    0.1310 O   0  0  0  0  0  0  0  0  0  0  0  0
   -5.3940   -4.4820   -4.6460 H   0  0  0  0  0  0  0  0  0  0  0  0
   -5.7620   -3.8780   -3.0070 H   0  0  0  0  0  0  0  0  0  0  0  0
   -3.9950   -6.0330   -2.2690 H   0  0  0  0  0  0  0  0  0  0  0  0
   -3.0890   -2.7440   -4.5310 H   0  0  0  0  0  0  0  0  0  0  0  0
   -0.9580   -4.1660   -3.1090 H   0  0  0  0  0  0  0  0  0  0  0  0
   -0.9000   -2.4450   -3.6970 H   0  0  0  0  0  0  0  0  0  0  0  0
   -0.6530   -2.5570   -1.1870 H   0  0  0  0  0  0  0  0  0  0  0  0
   -2.3160   -3.3480   -1.1360 H   0  0  0  0  0  0  0  0  0  0  0  0
   -3.3440   -1.4940   -2.1580 H   0  0  0  0  0  0  0  0  0  0  0  0
   -1.8120   -0.5940   -2.3690 H   0  0  0  0  0  0  0  0  0  0  0  0
   -3.1130    0.2150   -0.5190 H   0  0  0  0  0  0  0  0  0  0  0  0
   -0.6480   -1.2950    0.4590 H   0  0  0  0  0  0  0  0  0  0  0  0
  1  2  1  0  0  0  0
  2  3  1  0  0  0  0
  2 13  1  1  0  0  0
  3  4  1  0  0  0  0
  4  8  1  0  0  0  0
  4  5  2  0  0  0  0
  5 16  1  0  0  0  0
  5  6  1  0  0  0  0
  6 17  1  0  0  0  0
  7  6  1  0  0  0  0
  7 18  1  0  0  0  0
  8  7  2  0  0  0  0
  9  2  1  0  0  0  0
  9 19  1  0  0  0  0
 10  9  2  0  0  0  0
 11  1  1  0  0  0  0
 12  1  1  0  0  0  0
 14  3  1  0  0  0  0
 15  3  1  0  0  0  0
 19 20  1  0  0  0  0
 19 28  1  0  0  0  0
 20 29  1  1  0  0  0
 21 22  1  0  0  0  0
 21 30  1  0  0  0  0
 21 20  1  0  0  0  0
 22 23  1  0  0  0  0
 23 34  1  0  0  0  0
 23 24  1  0  0  0  0
 24 36  1  0  0  0  0
 24 37  1  0  0  0  0
 25 39  1  0  0  0  0
 25 24  1  0  0  0  0
 25 38  1  0  0  0  0
 26 20  1  0  0  0  0
 27 26  2  0  0  0  0
 31 21  1  0  0  0  0
 32 22  1  0  0  0  0
 33 22  1  0  0  0  0
 35 23  1  0  0  0  0
 40 41  1  0  0  0  0
 40 53  1  0  0  0  0
 41 42  2  0  0  0  0
 42 54  1  0  0  0  0
 43 41  1  0  0  0  0
 43 44  1  0  0  0  0
 44 45  1  0  0  0  0
 45 58  1  0  0  0  0
 45 59  1  0  0  0  0
 46 45  1  0  0  0  0
 46 47  1  0  0  0  0
 47 62  1  6  0  0  0
 47 48  1  0  0  0  0
 47 49  1  0  0  0  0
 48 63  1  0  0  0  0
 48 26  1  0  0  0  0
 49 50  1  0  0  0  0
 51 49  2  0  0  0  0
 52 40  1  0  0  0  0
 55 43  1  0  0  0  0
 56 44  1  0  0  0  0
 57 44  1  0  0  0  0
 60 46  1  0  0  0  0
 61 46  1  0  0  0  0
M  END
$$$$
