HKS.pdb
 OpenBabel07022418373D

 51 51  0  0  1  0  0  0  0  0999 V2000
    3.7570   -1.2130   -0.8940 N   0  0  0  0  0  0  0  0  0  0  0  0
    3.3280   -1.9930    0.2500 C   0  0  1  0  0  0  0  0  0  0  0  0
    4.1930   -1.7620    1.4500 C   0  0  0  0  0  0  0  0  0  0  0  0
    4.1980   -0.3490    1.8890 C   0  0  0  0  0  0  0  0  0  0  0  0
    3.3630    0.2710    2.7850 C   0  0  0  0  0  0  0  0  0  0  0  0
    3.7410    1.5500    2.8680 N   0  0  0  0  0  0  0  0  0  0  0  0
    4.7840    1.7190    2.0450 C   0  0  0  0  0  0  0  0  0  0  0  0
    5.0610    0.5660    1.4510 N   0  0  0  0  0  0  0  0  0  0  0  0
    1.8840   -1.8460    0.5360 C   0  0  0  0  0  0  0  0  0  0  0  0
    1.4090   -2.4780    1.5010 O   0  0  0  0  0  0  0  0  0  0  0  0
    3.2110   -1.5610   -1.7280 H   0  0  0  0  0  0  0  0  0  0  0  0
    4.7580   -1.5210   -1.0810 H   0  0  0  0  0  0  0  0  0  0  0  0
    3.4760   -3.0690   -0.0470 H   0  0  0  0  0  0  0  0  0  0  0  0
    5.2260   -2.1060    1.2390 H   0  0  0  0  0  0  0  0  0  0  0  0
    3.7530   -2.3520    2.2900 H   0  0  0  0  0  0  0  0  0  0  0  0
    2.5450   -0.2130    3.3200 H   0  0  0  0  0  0  0  0  0  0  0  0
    3.2670    2.2480    3.4850 H   0  0  0  0  0  0  0  0  0  0  0  0
    5.3280    2.6580    1.8820 H   0  0  0  0  0  0  0  0  0  0  0  0
    1.0080   -1.0290   -0.2230 N   0  0  0  0  0  0  0  0  0  0  0  0
   -0.3990   -0.8990    0.0730 C   0  0  1  0  0  0  0  0  0  0  0  0
   -0.8140    0.5020    0.3930 C   0  0  0  0  0  0  0  0  0  0  0  0
   -0.1500    1.1240    1.5630 C   0  0  0  0  0  0  0  0  0  0  0  0
   -0.3510    0.4270    2.8630 C   0  0  0  0  0  0  0  0  0  0  0  0
   -1.8060    0.3370    3.2610 C   0  0  0  0  0  0  0  0  0  0  0  0
   -1.9140   -0.3530    4.5330 N   0  0  0  0  0  0  0  0  0  0  0  0
   -1.2040   -1.3540   -1.0750 C   0  0  0  0  0  0  0  0  0  0  0  0
   -0.6520   -1.7720   -2.1090 O   0  0  0  0  0  0  0  0  0  0  0  0
    1.4400   -0.5110   -1.0290 H   0  0  0  0  0  0  0  0  0  0  0  0
   -0.5870   -1.5370    0.9860 H   0  0  0  0  0  0  0  0  0  0  0  0
   -1.9090    0.5080    0.5300 H   0  0  0  0  0  0  0  0  0  0  0  0
   -0.6080    1.1290   -0.4990 H   0  0  0  0  0  0  0  0  0  0  0  0
   -0.5680    2.1550    1.6710 H   0  0  0  0  0  0  0  0  0  0  0  0
    0.9340    1.2610    1.3940 H   0  0  0  0  0  0  0  0  0  0  0  0
    0.1390    1.0690    3.6540 H   0  0  0  0  0  0  0  0  0  0  0  0
    0.0950   -0.5600    2.9590 H   0  0  0  0  0  0  0  0  0  0  0  0
   -2.2510    1.3430    3.4110 H   0  0  0  0  0  0  0  0  0  0  0  0
   -2.4140   -0.1640    2.4720 H   0  0  0  0  0  0  0  0  0  0  0  0
   -0.9560   -0.5240    4.9210 H   0  0  0  0  0  0  0  0  0  0  0  0
   -2.3180   -1.3020    4.3560 H   0  0  0  0  0  0  0  0  0  0  0  0
   -4.9800   -3.3060   -2.9150 O   0  0  0  0  0  0  0  0  0  0  0  0
   -4.2890   -2.9250   -1.7690 C   0  0  0  0  0  0  0  0  0  0  0  0
   -3.3700   -1.7680   -2.1450 C   0  0  2  0  0  0  0  0  0  0  0  0
   -2.6110   -1.3130   -0.9970 N   0  0  0  0  0  0  0  0  0  0  0  0
   -4.2340   -0.6820   -2.6470 C   0  0  0  0  0  0  0  0  0  0  0  0
   -4.9680   -0.8740   -3.6340 O   0  0  0  0  0  0  0  0  0  0  0  0
   -4.2170    0.5410   -2.0130 O   0  0  0  0  0  0  0  0  0  0  0  0
   -4.3690   -3.7330   -3.5730 H   0  0  0  0  0  0  0  0  0  0  0  0
   -5.0280   -2.5870   -1.0130 H   0  0  0  0  0  0  0  0  0  0  0  0
   -3.7200   -3.7990   -1.4130 H   0  0  0  0  0  0  0  0  0  0  0  0
   -2.7380   -2.1020   -2.9700 H   0  0  0  0  0  0  0  0  0  0  0  0
   -3.1320   -0.9720   -0.1540 H   0  0  0  0  0  0  0  0  0  0  0  0
  1  2  1  0  0  0  0
  2 13  1  6  0  0  0
  2  9  1  0  0  0  0
  2  3  1  0  0  0  0
  3  4  1  0  0  0  0
  3 15  1  0  0  0  0
  4  5  2  0  0  0  0
  5  6  1  0  0  0  0
  5 16  1  0  0  0  0
  6 17  1  0  0  0  0
  7  6  1  0  0  0  0
  8  4  1  0  0  0  0
  8  7  2  0  0  0  0
  9 10  2  0  0  0  0
 11  1  1  0  0  0  0
 12  1  1  0  0  0  0
 14  3  1  0  0  0  0
 18  7  1  0  0  0  0
 19 20  1  0  0  0  0
 19  9  1  0  0  0  0
 20 21  1  0  0  0  0
 20 29  1  1  0  0  0
 21 30  1  0  0  0  0
 21 22  1  0  0  0  0
 22 32  1  0  0  0  0
 22 23  1  0  0  0  0
 23 35  1  0  0  0  0
 23 24  1  0  0  0  0
 23 34  1  0  0  0  0
 24 36  1  0  0  0  0
 24 25  1  0  0  0  0
 25 38  1  0  0  0  0
 26 43  1  0  0  0  0
 26 20  1  0  0  0  0
 27 26  2  0  0  0  0
 28 19  1  0  0  0  0
 31 21  1  0  0  0  0
 33 22  1  0  0  0  0
 37 24  1  0  0  0  0
 39 25  1  0  0  0  0
 40 41  1  0  0  0  0
 41 49  1  0  0  0  0
 41 48  1  0  0  0  0
 42 50  1  6  0  0  0
 42 41  1  0  0  0  0
 42 43  1  0  0  0  0
 43 51  1  0  0  0  0
 44 42  1  0  0  0  0
 44 46  1  0  0  0  0
 45 44  2  0  0  0  0
 47 40  1  0  0  0  0
M  END
$$$$
