HKT.pdb
 OpenBabel07022418373D

 54 54  0  0  1  0  0  0  0  0999 V2000
    3.9180   -0.5360   -1.4840 N   0  0  0  0  0  0  0  0  0  0  0  0
    2.8020   -1.1500   -0.8120 C   0  0  1  0  0  0  0  0  0  0  0  0
    3.2020   -1.7860    0.5000 C   0  0  0  0  0  0  0  0  0  0  0  0
    3.7750   -0.8380    1.4590 C   0  0  0  0  0  0  0  0  0  0  0  0
    3.0760   -0.1130    2.3970 C   0  0  0  0  0  0  0  0  0  0  0  0
    3.9780    0.6390    3.0780 N   0  0  0  0  0  0  0  0  0  0  0  0
    5.2000    0.4060    2.5970 C   0  0  0  0  0  0  0  0  0  0  0  0
    5.0630   -0.4990    1.6070 N   0  0  0  0  0  0  0  0  0  0  0  0
    1.6700   -0.1810   -0.6420 C   0  0  0  0  0  0  0  0  0  0  0  0
    1.7410    0.9920   -1.0170 O   0  0  0  0  0  0  0  0  0  0  0  0
    4.6820   -0.3530   -0.7960 H   0  0  0  0  0  0  0  0  0  0  0  0
    4.3290   -1.1540   -2.2240 H   0  0  0  0  0  0  0  0  0  0  0  0
    2.4140   -1.9580   -1.4640 H   0  0  0  0  0  0  0  0  0  0  0  0
    2.3000   -2.3120    0.8950 H   0  0  0  0  0  0  0  0  0  0  0  0
    3.9400   -2.6040    0.3030 H   0  0  0  0  0  0  0  0  0  0  0  0
    2.0110   -0.1300    2.5700 H   0  0  0  0  0  0  0  0  0  0  0  0
    3.7340    1.2870    3.8490 H   0  0  0  0  0  0  0  0  0  0  0  0
    6.1590    0.8130    2.8810 H   0  0  0  0  0  0  0  0  0  0  0  0
    0.4750   -0.6190   -0.0320 N   0  0  0  0  0  0  0  0  0  0  0  0
   -0.7120    0.0620    0.2700 C   0  0  1  0  0  0  0  0  0  0  0  0
   -0.8410    1.5340    0.1790 C   0  0  0  0  0  0  0  0  0  0  0  0
   -0.0400    2.3820    1.0760 C   0  0  0  0  0  0  0  0  0  0  0  0
   -0.3080    2.1720    2.5510 C   0  0  0  0  0  0  0  0  0  0  0  0
   -1.7180    2.4420    2.9460 C   0  0  0  0  0  0  0  0  0  0  0  0
   -1.8440    2.2060    4.3720 N   0  0  0  0  0  0  0  0  0  0  0  0
   -1.9650   -0.6910   -0.0040 C   0  0  0  0  0  0  0  0  0  0  0  0
   -3.0950   -0.1770    0.2370 O   0  0  0  0  0  0  0  0  0  0  0  0
    0.4830   -1.6720    0.2530 H   0  0  0  0  0  0  0  0  0  0  0  0
   -0.6640    0.0050    1.4690 H   0  0  0  0  0  0  0  0  0  0  0  0
   -1.9380    1.7500    0.3790 H   0  0  0  0  0  0  0  0  0  0  0  0
   -0.7070    1.9440   -0.8490 H   0  0  0  0  0  0  0  0  0  0  0  0
   -0.3140    3.4490    0.8810 H   0  0  0  0  0  0  0  0  0  0  0  0
    1.0300    2.3170    0.9550 H   0  0  0  0  0  0  0  0  0  0  0  0
    0.3270    2.9470    3.0690 H   0  0  0  0  0  0  0  0  0  0  0  0
    0.0530    1.2030    2.9380 H   0  0  0  0  0  0  0  0  0  0  0  0
   -2.0250    3.4910    2.7550 H   0  0  0  0  0  0  0  0  0  0  0  0
   -2.4620    1.8050    2.4390 H   0  0  0  0  0  0  0  0  0  0  0  0
   -2.7190    1.6400    4.5880 H   0  0  0  0  0  0  0  0  0  0  0  0
   -1.0580    1.6030    4.6980 H   0  0  0  0  0  0  0  0  0  0  0  0
   -2.2980   -3.8300   -2.8350 C   0  0  0  0  0  0  0  0  0  0  0  0
   -3.4170   -2.9740   -2.2790 C   0  0  1  0  0  0  0  0  0  0  0  0
   -4.6220   -3.6530   -2.4480 O   0  0  0  0  0  0  0  0  0  0  0  0
   -3.2320   -2.7160   -0.7990 C   0  0  2  0  0  0  0  0  0  0  0  0
   -1.9910   -2.0080   -0.5430 N   0  0  0  0  0  0  0  0  0  0  0  0
   -3.3510   -3.9470    0.0020 C   0  0  0  0  0  0  0  0  0  0  0  0
   -4.3880   -4.6440   -0.1400 O   0  0  0  0  0  0  0  0  0  0  0  0
   -2.4000   -4.3970    0.9060 O   0  0  0  0  0  0  0  0  0  0  0  0
   -1.3660   -3.2140   -2.8540 H   0  0  0  0  0  0  0  0  0  0  0  0
   -2.1220   -4.6500   -2.0970 H   0  0  0  0  0  0  0  0  0  0  0  0
   -2.5650   -4.1880   -3.8350 H   0  0  0  0  0  0  0  0  0  0  0  0
   -3.4820   -1.9840   -2.7760 H   0  0  0  0  0  0  0  0  0  0  0  0
   -5.2600   -3.1850   -3.0320 H   0  0  0  0  0  0  0  0  0  0  0  0
   -4.0540   -2.0370   -0.4940 H   0  0  0  0  0  0  0  0  0  0  0  0
   -1.0970   -2.4600   -0.7530 H   0  0  0  0  0  0  0  0  0  0  0  0
  1  2  1  0  0  0  0
  1 11  1  0  0  0  0
  2 13  1  6  0  0  0
  2  9  1  0  0  0  0
  2  3  1  0  0  0  0
  3 14  1  0  0  0  0
  3  4  1  0  0  0  0
  4  8  1  0  0  0  0
  4  5  2  0  0  0  0
  5 16  1  0  0  0  0
  5  6  1  0  0  0  0
  6 17  1  0  0  0  0
  7 18  1  0  0  0  0
  7  6  1  0  0  0  0
  8  7  2  0  0  0  0
  9 19  1  0  0  0  0
 10  9  2  0  0  0  0
 12  1  1  0  0  0  0
 15  3  1  0  0  0  0
 19 28  1  0  0  0  0
 19 20  1  0  0  0  0
 20 29  1  1  0  0  0
 21 20  1  0  0  0  0
 21 30  1  0  0  0  0
 21 22  1  0  0  0  0
 22 23  1  0  0  0  0
 23 35  1  0  0  0  0
 23 24  1  0  0  0  0
 23 34  1  0  0  0  0
 24 25  1  0  0  0  0
 25 38  1  0  0  0  0
 25 39  1  0  0  0  0
 26 27  2  0  0  0  0
 26 20  1  0  0  0  0
 31 21  1  0  0  0  0
 32 22  1  0  0  0  0
 33 22  1  0  0  0  0
 36 24  1  0  0  0  0
 37 24  1  0  0  0  0
 40 41  1  0  0  0  0
 40 49  1  0  0  0  0
 41 51  1  6  0  0  0
 41 43  1  0  0  0  0
 42 41  1  0  0  0  0
 43 44  1  0  0  0  0
 43 53  1  1  0  0  0
 43 45  1  0  0  0  0
 44 26  1  0  0  0  0
 45 47  1  0  0  0  0
 46 45  2  0  0  0  0
 48 40  1  0  0  0  0
 50 40  1  0  0  0  0
 52 42  1  0  0  0  0
 54 44  1  0  0  0  0
M  END
$$$$
