HKV.pdb
 OpenBabel07022418373D

 56 56  0  0  1  0  0  0  0  0999 V2000
    3.3800   -2.1240   -0.6570 N   0  0  0  0  0  0  0  0  0  0  0  0
    2.6460   -1.9120    0.5500 C   0  0  1  0  0  0  0  0  0  0  0  0
    3.5450   -1.2490    1.5830 C   0  0  0  0  0  0  0  0  0  0  0  0
    4.0120    0.0290    1.0180 C   0  0  0  0  0  0  0  0  0  0  0  0
    3.4010    1.2510    1.1330 C   0  0  0  0  0  0  0  0  0  0  0  0
    4.1660    2.1600    0.4630 N   0  0  0  0  0  0  0  0  0  0  0  0
    5.2320    1.5240   -0.0600 C   0  0  0  0  0  0  0  0  0  0  0  0
    5.1270    0.2330    0.2830 N   0  0  0  0  0  0  0  0  0  0  0  0
    1.3790   -1.1750    0.3350 C   0  0  0  0  0  0  0  0  0  0  0  0
    1.1750   -0.6870   -0.7810 O   0  0  0  0  0  0  0  0  0  0  0  0
    2.8680   -2.7460   -1.3210 H   0  0  0  0  0  0  0  0  0  0  0  0
    4.2690   -2.6130   -0.4070 H   0  0  0  0  0  0  0  0  0  0  0  0
    2.3420   -2.8930    1.0220 H   0  0  0  0  0  0  0  0  0  0  0  0
    2.9830   -1.0860    2.5250 H   0  0  0  0  0  0  0  0  0  0  0  0
    4.3890   -1.9230    1.7920 H   0  0  0  0  0  0  0  0  0  0  0  0
    2.4970    1.5350    1.6320 H   0  0  0  0  0  0  0  0  0  0  0  0
    3.9730    3.1710    0.3640 H   0  0  0  0  0  0  0  0  0  0  0  0
    6.0380    1.9680   -0.6560 H   0  0  0  0  0  0  0  0  0  0  0  0
    0.3990   -1.0230    1.3840 N   0  0  0  0  0  0  0  0  0  0  0  0
   -0.8330   -0.3470    1.2420 C   0  0  1  0  0  0  0  0  0  0  0  0
   -0.8640    1.1200    1.4270 C   0  0  0  0  0  0  0  0  0  0  0  0
   -0.4290    1.5720    2.8010 C   0  0  0  0  0  0  0  0  0  0  0  0
   -1.2970    1.0200    3.9030 C   0  0  0  0  0  0  0  0  0  0  0  0
   -2.7430    1.4430    3.7540 C   0  0  0  0  0  0  0  0  0  0  0  0
   -3.5770    0.9230    4.7980 N   0  0  0  0  0  0  0  0  0  0  0  0
   -1.7040   -0.7580    0.1170 C   0  0  0  0  0  0  0  0  0  0  0  0
   -2.7180   -0.0030   -0.1010 O   0  0  0  0  0  0  0  0  0  0  0  0
    0.7140   -1.4840    2.2930 H   0  0  0  0  0  0  0  0  0  0  0  0
   -1.4650   -0.7350    2.1410 H   0  0  0  0  0  0  0  0  0  0  0  0
   -1.9110    1.4600    1.2430 H   0  0  0  0  0  0  0  0  0  0  0  0
   -0.2470    1.6920    0.7050 H   0  0  0  0  0  0  0  0  0  0  0  0
   -0.4550    2.6590    2.8480 H   0  0  0  0  0  0  0  0  0  0  0  0
    0.5910    1.2100    2.9990 H   0  0  0  0  0  0  0  0  0  0  0  0
   -0.9360    1.4830    4.8490 H   0  0  0  0  0  0  0  0  0  0  0  0
   -1.2000   -0.0740    4.0480 H   0  0  0  0  0  0  0  0  0  0  0  0
   -3.1890    1.1180    2.7890 H   0  0  0  0  0  0  0  0  0  0  0  0
   -2.8290    2.5490    3.7790 H   0  0  0  0  0  0  0  0  0  0  0  0
   -4.2800    0.2380    4.4880 H   0  0  0  0  0  0  0  0  0  0  0  0
   -3.0580    0.5700    5.6190 H   0  0  0  0  0  0  0  0  0  0  0  0
   -0.6300   -3.0780   -3.2150 C   0  0  0  0  0  0  0  0  0  0  0  0
   -1.7590   -2.0680   -3.1240 C   0  0  0  0  0  0  0  0  0  0  0  0
   -2.7430   -2.3530   -4.2390 C   0  0  0  0  0  0  0  0  0  0  0  0
   -2.4650   -2.1510   -1.7880 C   0  0  2  0  0  0  0  0  0  0  0  0
   -1.5230   -1.8820   -0.7130 N   0  0  0  0  0  0  0  0  0  0  0  0
   -3.1340   -3.4390   -1.5950 C   0  0  0  0  0  0  0  0  0  0  0  0
   -3.9840   -3.8210   -2.4410 O   0  0  0  0  0  0  0  0  0  0  0  0
   -2.8790   -4.2730   -0.5150 O   0  0  0  0  0  0  0  0  0  0  0  0
   -0.4160   -3.3720   -4.2570 H   0  0  0  0  0  0  0  0  0  0  0  0
   -0.8520   -3.9990   -2.6420 H   0  0  0  0  0  0  0  0  0  0  0  0
    0.3210   -2.6790   -2.7900 H   0  0  0  0  0  0  0  0  0  0  0  0
   -1.3210   -1.0800   -3.3080 H   0  0  0  0  0  0  0  0  0  0  0  0
   -3.7900   -2.0530   -3.9570 H   0  0  0  0  0  0  0  0  0  0  0  0
   -2.4570   -1.8020   -5.1770 H   0  0  0  0  0  0  0  0  0  0  0  0
   -2.7870   -3.4180   -4.5170 H   0  0  0  0  0  0  0  0  0  0  0  0
   -3.2340   -1.3580   -1.7680 H   0  0  0  0  0  0  0  0  0  0  0  0
   -0.7150   -2.5050   -0.5190 H   0  0  0  0  0  0  0  0  0  0  0  0
  1 12  1  0  0  0  0
  1  2  1  0  0  0  0
  2 13  1  1  0  0  0
  2  3  1  0  0  0  0
  3 15  1  0  0  0  0
  3 14  1  0  0  0  0
  4  5  2  0  0  0  0
  4  3  1  0  0  0  0
  5 16  1  0  0  0  0
  6  5  1  0  0  0  0
  7  8  2  0  0  0  0
  7  6  1  0  0  0  0
  8  4  1  0  0  0  0
  9  2  1  0  0  0  0
  9 19  1  0  0  0  0
 10  9  2  0  0  0  0
 11  1  1  0  0  0  0
 17  6  1  0  0  0  0
 18  7  1  0  0  0  0
 19 28  1  0  0  0  0
 20 19  1  0  0  0  0
 20 21  1  0  0  0  0
 20 29  1  1  0  0  0
 21 22  1  0  0  0  0
 22 32  1  0  0  0  0
 22 33  1  0  0  0  0
 22 23  1  0  0  0  0
 23 35  1  0  0  0  0
 23 34  1  0  0  0  0
 24 37  1  0  0  0  0
 24 23  1  0  0  0  0
 24 25  1  0  0  0  0
 25 39  1  0  0  0  0
 26 20  1  0  0  0  0
 27 26  2  0  0  0  0
 30 21  1  0  0  0  0
 31 21  1  0  0  0  0
 36 24  1  0  0  0  0
 38 25  1  0  0  0  0
 40 41  1  0  0  0  0
 40 50  1  0  0  0  0
 40 49  1  0  0  0  0
 41 43  1  0  0  0  0
 42 52  1  0  0  0  0
 42 41  1  0  0  0  0
 43 55  1  1  0  0  0
 43 45  1  0  0  0  0
 43 44  1  0  0  0  0
 44 56  1  0  0  0  0
 44 26  1  0  0  0  0
 45 47  1  0  0  0  0
 46 45  2  0  0  0  0
 48 40  1  0  0  0  0
 51 41  1  0  0  0  0
 53 42  1  0  0  0  0
 54 42  1  0  0  0  0
M  END
$$$$
