HLE.pdb
 OpenBabel07022418373D

 54 54  0  0  1  0  0  0  0  0999 V2000
    2.1350   -0.8800    2.8040 N   0  0  0  0  0  0  0  0  0  0  0  0
    2.1800   -0.3870    1.4540 C   0  0  1  0  0  0  0  0  0  0  0  0
    2.5820   -1.4810    0.5020 C   0  0  0  0  0  0  0  0  0  0  0  0
    3.9450   -1.9610    0.9180 C   0  0  0  0  0  0  0  0  0  0  0  0
    5.1360   -1.4600    0.4640 C   0  0  0  0  0  0  0  0  0  0  0  0
    6.1220   -2.1460    1.0640 N   0  0  0  0  0  0  0  0  0  0  0  0
    5.5590   -3.0490    1.8690 C   0  0  0  0  0  0  0  0  0  0  0  0
    4.2100   -2.9490    1.7910 N   0  0  0  0  0  0  0  0  0  0  0  0
    0.8910    0.2110    1.0070 C   0  0  0  0  0  0  0  0  0  0  0  0
    0.8270    0.6800   -0.1440 O   0  0  0  0  0  0  0  0  0  0  0  0
    2.0350   -0.0930    3.4870 H   0  0  0  0  0  0  0  0  0  0  0  0
    1.3640   -1.5550    2.9410 H   0  0  0  0  0  0  0  0  0  0  0  0
    2.9310    0.4430    1.3900 H   0  0  0  0  0  0  0  0  0  0  0  0
    1.8780   -2.3170    0.5200 H   0  0  0  0  0  0  0  0  0  0  0  0
    2.6900   -1.0670   -0.5240 H   0  0  0  0  0  0  0  0  0  0  0  0
    5.2280   -0.6410   -0.2620 H   0  0  0  0  0  0  0  0  0  0  0  0
    7.1570   -1.9820    0.9110 H   0  0  0  0  0  0  0  0  0  0  0  0
    6.0530   -3.7700    2.5030 H   0  0  0  0  0  0  0  0  0  0  0  0
   -1.6090    3.5100    2.9140 C   0  0  0  0  0  0  0  0  0  0  0  0
   -0.8360    3.2550    1.6270 C   0  0  0  0  0  0  0  0  0  0  0  0
    0.6120    3.1670    1.9310 C   0  0  0  0  0  0  0  0  0  0  0  0
   -1.4370    2.1790    0.8040 C   0  0  0  0  0  0  0  0  0  0  0  0
   -1.5210    0.8270    1.4800 C   0  0  2  0  0  0  0  0  0  0  0  0
   -0.2620    0.2620    1.8500 N   0  0  0  0  0  0  0  0  0  0  0  0
   -2.3740   -0.0540    0.6520 C   0  0  0  0  0  0  0  0  0  0  0  0
   -3.5230    0.3250    0.2450 O   0  0  0  0  0  0  0  0  0  0  0  0
   -1.4210    2.7360    3.6690 H   0  0  0  0  0  0  0  0  0  0  0  0
   -2.6840    3.6780    2.7350 H   0  0  0  0  0  0  0  0  0  0  0  0
   -1.1940    4.4690    3.3200 H   0  0  0  0  0  0  0  0  0  0  0  0
   -0.9780    4.2160    1.0400 H   0  0  0  0  0  0  0  0  0  0  0  0
    0.8960    4.1800    2.3720 H   0  0  0  0  0  0  0  0  0  0  0  0
    0.8710    2.4670    2.7640 H   0  0  0  0  0  0  0  0  0  0  0  0
    1.2470    3.0790    1.0490 H   0  0  0  0  0  0  0  0  0  0  0  0
   -0.9610    2.1630   -0.1840 H   0  0  0  0  0  0  0  0  0  0  0  0
   -2.5100    2.4740    0.6250 H   0  0  0  0  0  0  0  0  0  0  0  0
   -2.0910    1.0440    2.4300 H   0  0  0  0  0  0  0  0  0  0  0  0
   -0.1210   -0.1650    2.8140 H   0  0  0  0  0  0  0  0  0  0  0  0
   -1.9860   -1.3600    0.2560 N   0  0  0  0  0  0  0  0  0  0  0  0
   -2.8700   -2.1810   -0.5620 C   0  0  1  0  0  0  0  0  0  0  0  0
   -2.2490   -2.5300   -1.8690 C   0  0  0  0  0  0  0  0  0  0  0  0
   -3.1240   -3.3680   -2.7610 C   0  0  0  0  0  0  0  0  0  0  0  0
   -2.4190   -3.6560   -4.0630 C   0  0  0  0  0  0  0  0  0  0  0  0
   -1.5260   -4.5370   -4.1440 O   0  0  0  0  0  0  0  0  0  0  0  0
   -3.1760   -3.4030    0.2050 C   0  0  0  0  0  0  0  0  0  0  0  0
   -3.9380   -4.3130   -0.1720 O   0  0  0  0  0  0  0  0  0  0  0  0
   -2.7380   -2.9530   -5.2100 O   0  0  0  0  0  0  0  0  0  0  0  0
   -2.5670   -3.5660    1.4610 O   0  0  0  0  0  0  0  0  0  0  0  0
   -1.0650   -1.7500    0.5430 H   0  0  0  0  0  0  0  0  0  0  0  0
   -3.8170   -1.6130   -0.7960 H   0  0  0  0  0  0  0  0  0  0  0  0
   -1.9740   -1.6100   -2.4660 H   0  0  0  0  0  0  0  0  0  0  0  0
   -1.2880   -3.0790   -1.7700 H   0  0  0  0  0  0  0  0  0  0  0  0
   -4.0580   -2.8120   -3.0120 H   0  0  0  0  0  0  0  0  0  0  0  0
   -3.3960   -4.3470   -2.3670 H   0  0  0  0  0  0  0  0  0  0  0  0
   -2.1260   -2.8830   -6.0200 H   0  0  0  0  0  0  0  0  0  0  0  0
  1 12  1  0  0  0  0
  1 11  1  0  0  0  0
  2 13  1  6  0  0  0
  2  1  1  0  0  0  0
  3 14  1  0  0  0  0
  3  4  1  0  0  0  0
  3  2  1  0  0  0  0
  4  8  1  0  0  0  0
  5  4  2  0  0  0  0
  5  6  1  0  0  0  0
  6  7  1  0  0  0  0
  7 18  1  0  0  0  0
  8  7  2  0  0  0  0
  9  2  1  0  0  0  0
  9 24  1  0  0  0  0
 10  9  2  0  0  0  0
 15  3  1  0  0  0  0
 16  5  1  0  0  0  0
 17  6  1  0  0  0  0
 19 29  1  0  0  0  0
 19 27  1  0  0  0  0
 20 21  1  0  0  0  0
 20 19  1  0  0  0  0
 21 31  1  0  0  0  0
 21 32  1  0  0  0  0
 22 23  1  0  0  0  0
 22 20  1  0  0  0  0
 23 24  1  0  0  0  0
 23 36  1  1  0  0  0
 24 37  1  0  0  0  0
 25 23  1  0  0  0  0
 26 25  2  0  0  0  0
 28 19  1  0  0  0  0
 30 20  1  0  0  0  0
 33 21  1  0  0  0  0
 34 22  1  0  0  0  0
 35 22  1  0  0  0  0
 38 48  1  0  0  0  0
 38 25  1  0  0  0  0
 39 49  1  6  0  0  0
 39 44  1  0  0  0  0
 39 38  1  0  0  0  0
 40 51  1  0  0  0  0
 40 39  1  0  0  0  0
 41 53  1  0  0  0  0
 41 40  1  0  0  0  0
 42 41  1  0  0  0  0
 43 42  2  0  0  0  0
 44 47  1  0  0  0  0
 45 44  2  0  0  0  0
 46 42  1  0  0  0  0
 50 40  1  0  0  0  0
 52 41  1  0  0  0  0
 54 46  1  0  0  0  0
M  END
$$$$
