HLG.pdb
 OpenBabel07022418373D

 45 45  0  0  1  0  0  0  0  0999 V2000
    3.9130   -2.5650    1.9890 N   0  0  0  0  0  0  0  0  0  0  0  0
    2.7520   -2.4800    1.0290 C   0  0  1  0  0  0  0  0  0  0  0  0
    2.0290   -3.7700    1.1700 C   0  0  0  0  0  0  0  0  0  0  0  0
    0.8500   -3.9730    0.2920 C   0  0  0  0  0  0  0  0  0  0  0  0
   -0.4760   -3.7530    0.5320 C   0  0  0  0  0  0  0  0  0  0  0  0
   -1.2040   -4.1220   -0.5240 N   0  0  0  0  0  0  0  0  0  0  0  0
   -0.3380   -4.5800   -1.4450 C   0  0  0  0  0  0  0  0  0  0  0  0
    0.9070   -4.5010   -0.9770 N   0  0  0  0  0  0  0  0  0  0  0  0
    2.0850   -1.2390    1.3400 C   0  0  0  0  0  0  0  0  0  0  0  0
    2.5390   -0.5600    2.3200 O   0  0  0  0  0  0  0  0  0  0  0  0
    4.2900   -1.5840    2.1020 H   0  0  0  0  0  0  0  0  0  0  0  0
    4.6160   -3.1970    1.5650 H   0  0  0  0  0  0  0  0  0  0  0  0
    3.2520   -2.4500    0.0080 H   0  0  0  0  0  0  0  0  0  0  0  0
    2.7380   -4.6110    0.9640 H   0  0  0  0  0  0  0  0  0  0  0  0
    1.6520   -3.9010    2.2330 H   0  0  0  0  0  0  0  0  0  0  0  0
   -0.8710   -3.3360    1.4720 H   0  0  0  0  0  0  0  0  0  0  0  0
   -2.2650   -4.0760   -0.6410 H   0  0  0  0  0  0  0  0  0  0  0  0
   -0.6660   -4.9550   -2.4270 H   0  0  0  0  0  0  0  0  0  0  0  0
    1.0330    3.8880   -0.8570 C   0  0  0  0  0  0  0  0  0  0  0  0
    0.4850    3.0650    0.3300 C   0  0  0  0  0  0  0  0  0  0  0  0
    1.1450    3.6420    1.5600 C   0  0  0  0  0  0  0  0  0  0  0  0
    0.9020    1.6480    0.0690 C   0  0  0  0  0  0  0  0  0  0  0  0
    0.4720    0.6570    1.1390 C   0  0  2  0  0  0  0  0  0  0  0  0
    0.9670   -0.6290    0.6960 N   0  0  0  0  0  0  0  0  0  0  0  0
   -0.9220    0.7280    1.4870 C   0  0  0  0  0  0  0  0  0  0  0  0
   -1.3040    1.8510    2.0170 O   0  0  0  0  0  0  0  0  0  0  0  0
    2.1350    3.9410   -0.8010 H   0  0  0  0  0  0  0  0  0  0  0  0
    0.7520    3.4070   -1.8090 H   0  0  0  0  0  0  0  0  0  0  0  0
    0.6400    4.9090   -0.8090 H   0  0  0  0  0  0  0  0  0  0  0  0
   -0.6210    3.1880    0.3410 H   0  0  0  0  0  0  0  0  0  0  0  0
    1.1770    2.9630    2.4150 H   0  0  0  0  0  0  0  0  0  0  0  0
    2.1860    3.9590    1.3420 H   0  0  0  0  0  0  0  0  0  0  0  0
    0.5480    4.5580    1.8400 H   0  0  0  0  0  0  0  0  0  0  0  0
    0.5130    1.3630   -0.9310 H   0  0  0  0  0  0  0  0  0  0  0  0
    2.0080    1.6380   -0.0130 H   0  0  0  0  0  0  0  0  0  0  0  0
    1.0960    0.9640    2.0400 H   0  0  0  0  0  0  0  0  0  0  0  0
    0.5350   -1.1350   -0.0930 H   0  0  0  0  0  0  0  0  0  0  0  0
   -1.8700   -0.2850    1.3050 N   0  0  0  0  0  0  0  0  0  0  0  0
   -3.2370    0.0360    1.7500 C   0  0  0  0  0  0  0  0  0  0  0  0
   -4.0770   -1.1470    1.4840 C   0  0  0  0  0  0  0  0  0  0  0  0
   -5.2960   -1.1240    1.7670 O   0  0  0  0  0  0  0  0  0  0  0  0
   -3.5710   -2.3050    0.9270 O   0  0  0  0  0  0  0  0  0  0  0  0
   -1.6040   -1.1740    0.8810 H   0  0  0  0  0  0  0  0  0  0  0  0
   -3.2570    0.2400    2.8410 H   0  0  0  0  0  0  0  0  0  0  0  0
   -3.6290    0.9090    1.1900 H   0  0  0  0  0  0  0  0  0  0  0  0
  1 11  1  0  0  0  0
  2 13  1  6  0  0  0
  2  3  1  0  0  0  0
  2  9  1  0  0  0  0
  2  1  1  0  0  0  0
  3 15  1  0  0  0  0
  4  5  2  0  0  0  0
  4  3  1  0  0  0  0
  5 16  1  0  0  0  0
  6  5  1  0  0  0  0
  7  8  2  0  0  0  0
  7  6  1  0  0  0  0
  8  4  1  0  0  0  0
  9 10  2  0  0  0  0
 12  1  1  0  0  0  0
 14  3  1  0  0  0  0
 17  6  1  0  0  0  0
 18  7  1  0  0  0  0
 19 29  1  0  0  0  0
 19 27  1  0  0  0  0
 19 20  1  0  0  0  0
 20 30  1  0  0  0  0
 20 21  1  0  0  0  0
 21 33  1  0  0  0  0
 21 31  1  0  0  0  0
 22 20  1  0  0  0  0
 22 23  1  0  0  0  0
 23 25  1  0  0  0  0
 23 36  1  1  0  0  0
 24 23  1  0  0  0  0
 24  9  1  0  0  0  0
 25 26  2  0  0  0  0
 28 19  1  0  0  0  0
 32 21  1  0  0  0  0
 34 22  1  0  0  0  0
 35 22  1  0  0  0  0
 37 24  1  0  0  0  0
 38 25  1  0  0  0  0
 38 39  1  0  0  0  0
 39 44  1  0  0  0  0
 40 39  1  0  0  0  0
 40 41  1  0  0  0  0
 42 40  2  0  0  0  0
 43 38  1  0  0  0  0
 45 39  1  0  0  0  0
M  END
$$$$
