HLL.pdb
 OpenBabel07022418373D

 57 57  0  0  1  0  0  0  0  0999 V2000
   -2.3420    0.9730    0.7410 N   0  0  0  0  0  0  0  0  0  0  0  0
   -1.5940    1.1840    2.0030 C   0  0  1  0  0  0  0  0  0  0  0  0
   -2.5300    1.1390    3.1570 C   0  0  0  0  0  0  0  0  0  0  0  0
   -1.8790    1.3860    4.4580 C   0  0  0  0  0  0  0  0  0  0  0  0
   -2.5350    1.3780    5.7020 C   0  0  0  0  0  0  0  0  0  0  0  0
   -1.6420    1.6370    6.6420 N   0  0  0  0  0  0  0  0  0  0  0  0
   -0.4440    1.8110    6.0650 C   0  0  0  0  0  0  0  0  0  0  0  0
   -0.5990    1.6570    4.7460 N   0  0  0  0  0  0  0  0  0  0  0  0
   -0.5110    0.1530    2.0420 C   0  0  0  0  0  0  0  0  0  0  0  0
    0.3180    0.1180    2.9510 O   0  0  0  0  0  0  0  0  0  0  0  0
   -1.9630    1.6150    0.0070 H   0  0  0  0  0  0  0  0  0  0  0  0
   -3.3620    1.1840    0.9130 H   0  0  0  0  0  0  0  0  0  0  0  0
   -1.1170    2.1690    1.9350 H   0  0  0  0  0  0  0  0  0  0  0  0
   -3.2850    1.9600    2.9790 H   0  0  0  0  0  0  0  0  0  0  0  0
   -3.1110    0.1760    3.1650 H   0  0  0  0  0  0  0  0  0  0  0  0
   -3.5890    1.1910    5.8430 H   0  0  0  0  0  0  0  0  0  0  0  0
   -1.8520    1.6940    7.6750 H   0  0  0  0  0  0  0  0  0  0  0  0
    0.4690    2.0360    6.6060 H   0  0  0  0  0  0  0  0  0  0  0  0
    1.6890   -4.4480    2.1530 C   0  0  0  0  0  0  0  0  0  0  0  0
    0.8540   -4.3750    0.8770 C   0  0  0  0  0  0  0  0  0  0  0  0
    0.0370   -5.6790    0.8460 C   0  0  0  0  0  0  0  0  0  0  0  0
   -0.0500   -3.1890    0.8970 C   0  0  0  0  0  0  0  0  0  0  0  0
    0.6400   -1.8620    1.0110 C   0  0  2  0  0  0  0  0  0  0  0  0
   -0.4010   -0.8320    1.0200 N   0  0  0  0  0  0  0  0  0  0  0  0
    1.4550   -1.6410   -0.2030 C   0  0  0  0  0  0  0  0  0  0  0  0
    2.4510   -2.3810   -0.4890 O   0  0  0  0  0  0  0  0  0  0  0  0
    1.0230   -4.7780    2.9750 H   0  0  0  0  0  0  0  0  0  0  0  0
    2.4200   -5.2870    1.9660 H   0  0  0  0  0  0  0  0  0  0  0  0
    2.2370   -3.5250    2.3550 H   0  0  0  0  0  0  0  0  0  0  0  0
    1.5360   -4.4310    0.0140 H   0  0  0  0  0  0  0  0  0  0  0  0
   -0.9410   -5.4810    0.3620 H   0  0  0  0  0  0  0  0  0  0  0  0
   -0.1910   -5.9570    1.9010 H   0  0  0  0  0  0  0  0  0  0  0  0
    0.5940   -6.5000    0.3850 H   0  0  0  0  0  0  0  0  0  0  0  0
   -0.7780   -3.3330    1.7470 H   0  0  0  0  0  0  0  0  0  0  0  0
   -0.6930   -3.2540   -0.0140 H   0  0  0  0  0  0  0  0  0  0  0  0
    1.2720   -1.7830    1.9180 H   0  0  0  0  0  0  0  0  0  0  0  0
   -1.0930   -0.8150    0.2550 H   0  0  0  0  0  0  0  0  0  0  0  0
   -1.0740   -0.3460   -3.1220 C   0  0  0  0  0  0  0  0  0  0  0  0
    0.0850   -0.0870   -4.0600 C   0  0  0  0  0  0  0  0  0  0  0  0
    0.0850    1.3770   -4.3580 C   0  0  0  0  0  0  0  0  0  0  0  0
    1.3200   -0.6960   -3.6060 C   0  0  0  0  0  0  0  0  0  0  0  0
    1.9510   -0.3480   -2.3190 C   0  0  2  0  0  0  0  0  0  0  0  0
    1.1730   -0.5840   -1.1290 N   0  0  0  0  0  0  0  0  0  0  0  0
    2.6280    0.9690   -2.3070 C   0  0  0  0  0  0  0  0  0  0  0  0
    3.3340    1.2930   -3.2830 O   0  0  0  0  0  0  0  0  0  0  0  0
    2.4910    1.8310   -1.2460 O   0  0  0  0  0  0  0  0  0  0  0  0
   -1.3010    0.5180   -2.4660 H   0  0  0  0  0  0  0  0  0  0  0  0
   -1.9970   -0.6280   -3.6850 H   0  0  0  0  0  0  0  0  0  0  0  0
   -0.8380   -1.2120   -2.4950 H   0  0  0  0  0  0  0  0  0  0  0  0
   -0.2150   -0.5900   -5.0310 H   0  0  0  0  0  0  0  0  0  0  0  0
    0.9980    1.7440   -4.8510 H   0  0  0  0  0  0  0  0  0  0  0  0
   -0.7480    1.6010   -5.0620 H   0  0  0  0  0  0  0  0  0  0  0  0
   -0.1480    1.9580   -3.4380 H   0  0  0  0  0  0  0  0  0  0  0  0
    1.2020   -1.8260   -3.6080 H   0  0  0  0  0  0  0  0  0  0  0  0
    2.1370   -0.5650   -4.3850 H   0  0  0  0  0  0  0  0  0  0  0  0
    2.8210   -1.0860   -2.2330 H   0  0  0  0  0  0  0  0  0  0  0  0
    0.3620    0.0150   -0.8650 H   0  0  0  0  0  0  0  0  0  0  0  0
  1 12  1  0  0  0  0
  1  2  1  0  0  0  0
  2 13  1  6  0  0  0
  2  9  1  0  0  0  0
  2  3  1  0  0  0  0
  3 15  1  0  0  0  0
  3  4  1  0  0  0  0
  4  8  1  0  0  0  0
  4  5  2  0  0  0  0
  5 16  1  0  0  0  0
  5  6  1  0  0  0  0
  6 17  1  0  0  0  0
  7 18  1  0  0  0  0
  7  6  1  0  0  0  0
  8  7  2  0  0  0  0
  9 10  2  0  0  0  0
 11  1  1  0  0  0  0
 14  3  1  0  0  0  0
 19 29  1  0  0  0  0
 19 27  1  0  0  0  0
 20 22  1  0  0  0  0
 20 19  1  0  0  0  0
 21 20  1  0  0  0  0
 21 32  1  0  0  0  0
 22 23  1  0  0  0  0
 22 34  1  0  0  0  0
 23 24  1  0  0  0  0
 23 36  1  1  0  0  0
 24  9  1  0  0  0  0
 25 23  1  0  0  0  0
 26 25  2  0  0  0  0
 28 19  1  0  0  0  0
 30 20  1  0  0  0  0
 31 21  1  0  0  0  0
 33 21  1  0  0  0  0
 35 22  1  0  0  0  0
 37 24  1  0  0  0  0
 38 49  1  0  0  0  0
 38 47  1  0  0  0  0
 39 41  1  0  0  0  0
 39 38  1  0  0  0  0
 40 39  1  0  0  0  0
 40 53  1  0  0  0  0
 41 42  1  0  0  0  0
 42 44  1  0  0  0  0
 42 56  1  1  0  0  0
 42 43  1  0  0  0  0
 43 57  1  0  0  0  0
 43 25  1  0  0  0  0
 44 46  1  0  0  0  0
 45 44  2  0  0  0  0
 48 38  1  0  0  0  0
 50 39  1  0  0  0  0
 51 40  1  0  0  0  0
 52 40  1  0  0  0  0
 54 41  1  0  0  0  0
 55 41  1  0  0  0  0
M  END
$$$$
