HLP.pdb
 OpenBabel07022418373D

 52 53  0  0  1  0  0  0  0  0999 V2000
   -3.9380    0.4450    3.3130 N   0  0  0  0  0  0  0  0  0  0  0  0
   -2.9180    0.7030    2.2580 C   0  0  1  0  0  0  0  0  0  0  0  0
   -2.3190    2.0300    2.6320 C   0  0  0  0  0  0  0  0  0  0  0  0
   -1.2740    2.5620    1.7700 C   0  0  0  0  0  0  0  0  0  0  0  0
   -1.5240    3.4070    0.6830 C   0  0  0  0  0  0  0  0  0  0  0  0
   -0.3650    3.7420    0.1160 N   0  0  0  0  0  0  0  0  0  0  0  0
    0.6130    3.1390    0.8030 C   0  0  0  0  0  0  0  0  0  0  0  0
    0.0810    2.4250    1.8020 N   0  0  0  0  0  0  0  0  0  0  0  0
   -1.8810   -0.3450    2.3320 C   0  0  0  0  0  0  0  0  0  0  0  0
   -1.5780   -0.7960    3.4680 O   0  0  0  0  0  0  0  0  0  0  0  0
   -4.4260    1.3640    3.4250 H   0  0  0  0  0  0  0  0  0  0  0  0
   -3.4590    0.2230    4.2140 H   0  0  0  0  0  0  0  0  0  0  0  0
   -3.4820    0.7300    1.3130 H   0  0  0  0  0  0  0  0  0  0  0  0
   -3.1390    2.8070    2.7290 H   0  0  0  0  0  0  0  0  0  0  0  0
   -1.8840    1.9940    3.6750 H   0  0  0  0  0  0  0  0  0  0  0  0
   -2.5010    3.7200    0.3780 H   0  0  0  0  0  0  0  0  0  0  0  0
   -0.2510    4.3520   -0.7010 H   0  0  0  0  0  0  0  0  0  0  0  0
    1.6620    3.2120    0.5960 H   0  0  0  0  0  0  0  0  0  0  0  0
   -1.2760   -5.6210    0.8740 C   0  0  0  0  0  0  0  0  0  0  0  0
   -0.2340   -4.5020    1.1870 C   0  0  0  0  0  0  0  0  0  0  0  0
    0.8590   -4.7350    0.1850 C   0  0  0  0  0  0  0  0  0  0  0  0
   -0.9480   -3.2190    1.1040 C   0  0  0  0  0  0  0  0  0  0  0  0
   -0.1840   -1.9450    1.4110 C   0  0  2  0  0  0  0  0  0  0  0  0
   -1.1880   -0.9070    1.2160 N   0  0  0  0  0  0  0  0  0  0  0  0
    1.0190   -1.7120    0.6910 C   0  0  0  0  0  0  0  0  0  0  0  0
    2.0810   -2.3580    1.1210 O   0  0  0  0  0  0  0  0  0  0  0  0
   -0.7180   -6.5550    0.6940 H   0  0  0  0  0  0  0  0  0  0  0  0
   -1.8280   -5.3730   -0.0390 H   0  0  0  0  0  0  0  0  0  0  0  0
   -1.9320   -5.7740    1.7410 H   0  0  0  0  0  0  0  0  0  0  0  0
    0.1500   -4.7310    2.1920 H   0  0  0  0  0  0  0  0  0  0  0  0
    0.6290   -5.7150   -0.3420 H   0  0  0  0  0  0  0  0  0  0  0  0
    0.9260   -4.0130   -0.6270 H   0  0  0  0  0  0  0  0  0  0  0  0
    1.8170   -4.9720    0.7050 H   0  0  0  0  0  0  0  0  0  0  0  0
   -1.7690   -3.2540    1.8810 H   0  0  0  0  0  0  0  0  0  0  0  0
   -1.5180   -3.0920    0.1420 H   0  0  0  0  0  0  0  0  0  0  0  0
    0.0290   -2.0420    2.5230 H   0  0  0  0  0  0  0  0  0  0  0  0
   -1.4290   -0.5810    0.2910 H   0  0  0  0  0  0  0  0  0  0  0  0
    1.3200   -0.9060   -0.4330 N   0  0  0  0  0  0  0  0  0  0  0  0
    0.4610   -0.0720   -1.2240 C   0  0  0  0  0  0  0  0  0  0  0  0
    1.2730    0.4710   -2.3930 C   0  0  0  0  0  0  0  0  0  0  0  0
    2.4370   -0.5000   -2.4760 C   0  0  0  0  0  0  0  0  0  0  0  0
    2.6770   -0.7740   -1.0330 C   0  0  1  0  0  0  0  0  0  0  0  0
    3.5030    0.1970   -0.3240 C   0  0  0  0  0  0  0  0  0  0  0  0
    4.6600    0.4080   -0.7670 O   0  0  0  0  0  0  0  0  0  0  0  0
    3.1230    0.9100    0.8000 O   0  0  0  0  0  0  0  0  0  0  0  0
    0.0840    0.8040   -0.6940 H   0  0  0  0  0  0  0  0  0  0  0  0
   -0.3370   -0.6870   -1.7260 H   0  0  0  0  0  0  0  0  0  0  0  0
    1.6500    1.4930   -2.2050 H   0  0  0  0  0  0  0  0  0  0  0  0
    0.7260    0.4480   -3.3490 H   0  0  0  0  0  0  0  0  0  0  0  0
    3.2730   -0.0170   -2.9880 H   0  0  0  0  0  0  0  0  0  0  0  0
    2.0880   -1.4250   -2.9770 H   0  0  0  0  0  0  0  0  0  0  0  0
    3.1670   -1.7750   -0.9520 H   0  0  0  0  0  0  0  0  0  0  0  0
  1 11  1  0  0  0  0
  1 12  1  0  0  0  0
  2 13  1  6  0  0  0
  2  9  1  0  0  0  0
  2  3  1  0  0  0  0
  2  1  1  0  0  0  0
  3 14  1  0  0  0  0
  3 15  1  0  0  0  0
  4  8  1  0  0  0  0
  4  3  1  0  0  0  0
  5  4  2  0  0  0  0
  6  5  1  0  0  0  0
  6  7  1  0  0  0  0
  7  8  2  0  0  0  0
  9 10  2  0  0  0  0
 16  5  1  0  0  0  0
 17  6  1  0  0  0  0
 18  7  1  0  0  0  0
 19 20  1  0  0  0  0
 19 29  1  0  0  0  0
 20 30  1  0  0  0  0
 21 33  1  0  0  0  0
 21 20  1  0  0  0  0
 22 20  1  0  0  0  0
 22 23  1  0  0  0  0
 22 34  1  0  0  0  0
 23 36  1  1  0  0  0
 24 23  1  0  0  0  0
 24  9  1  0  0  0  0
 25 26  2  0  0  0  0
 25 23  1  0  0  0  0
 27 19  1  0  0  0  0
 28 19  1  0  0  0  0
 31 21  1  0  0  0  0
 32 21  1  0  0  0  0
 35 22  1  0  0  0  0
 37 24  1  0  0  0  0
 38 25  1  0  0  0  0
 39 46  1  0  0  0  0
 39 38  1  0  0  0  0
 40 48  1  0  0  0  0
 40 39  1  0  0  0  0
 41 40  1  0  0  0  0
 41 42  1  0  0  0  0
 42 52  1  1  0  0  0
 42 38  1  0  0  0  0
 42 43  1  0  0  0  0
 43 45  1  0  0  0  0
 44 43  2  0  0  0  0
 47 39  1  0  0  0  0
 49 40  1  0  0  0  0
 50 41  1  0  0  0  0
 51 41  1  0  0  0  0
M  END
$$$$
