HLR.pdb
 OpenBabel07022418373D

 61 61  0  0  1  0  0  0  0  0999 V2000
    2.9100    0.9990   -0.3160 N   0  0  0  0  0  0  0  0  0  0  0  0
    3.2610    0.1210    0.8360 C   0  0  1  0  0  0  0  0  0  0  0  0
    4.2170    0.7980    1.7190 C   0  0  0  0  0  0  0  0  0  0  0  0
    4.7080   -0.0310    2.8360 C   0  0  0  0  0  0  0  0  0  0  0  0
    4.4910   -1.3730    2.9940 C   0  0  0  0  0  0  0  0  0  0  0  0
    5.1680   -1.7980    4.1000 N   0  0  0  0  0  0  0  0  0  0  0  0
    5.7760   -0.7280    4.5870 C   0  0  0  0  0  0  0  0  0  0  0  0
    5.5210    0.3590    3.8490 N   0  0  0  0  0  0  0  0  0  0  0  0
    1.9320   -0.1470    1.4870 C   0  0  0  0  0  0  0  0  0  0  0  0
    1.8970   -0.5720    2.6340 O   0  0  0  0  0  0  0  0  0  0  0  0
    2.6170    0.3600   -1.0800 H   0  0  0  0  0  0  0  0  0  0  0  0
    3.8000    1.5040   -0.5420 H   0  0  0  0  0  0  0  0  0  0  0  0
    3.6340   -0.8050    0.4270 H   0  0  0  0  0  0  0  0  0  0  0  0
    3.9030    1.8130    2.0540 H   0  0  0  0  0  0  0  0  0  0  0  0
    5.1400    1.0140    1.0940 H   0  0  0  0  0  0  0  0  0  0  0  0
    3.9220   -2.0940    2.3900 H   0  0  0  0  0  0  0  0  0  0  0  0
    5.1860   -2.7730    4.4660 H   0  0  0  0  0  0  0  0  0  0  0  0
    6.4010   -0.7550    5.4820 H   0  0  0  0  0  0  0  0  0  0  0  0
   -0.9660    2.7000   -0.0130 C   0  0  0  0  0  0  0  0  0  0  0  0
   -1.9760    1.9060    0.7760 C   0  0  0  0  0  0  0  0  0  0  0  0
   -3.1290    1.5130   -0.1000 C   0  0  0  0  0  0  0  0  0  0  0  0
   -1.4520    0.9420    1.7290 C   0  0  0  0  0  0  0  0  0  0  0  0
   -0.5740   -0.1700    1.4090 C   0  0  2  0  0  0  0  0  0  0  0  0
    0.7010    0.0730    0.8220 N   0  0  0  0  0  0  0  0  0  0  0  0
   -1.1860   -1.4560    0.9230 C   0  0  0  0  0  0  0  0  0  0  0  0
   -0.4010   -2.2240    0.2620 O   0  0  0  0  0  0  0  0  0  0  0  0
   -0.6620    2.1650   -0.9620 H   0  0  0  0  0  0  0  0  0  0  0  0
   -1.4610    3.6290   -0.3770 H   0  0  0  0  0  0  0  0  0  0  0  0
   -0.1120    3.0120    0.5910 H   0  0  0  0  0  0  0  0  0  0  0  0
   -2.4600    2.7410    1.4310 H   0  0  0  0  0  0  0  0  0  0  0  0
   -2.9590    1.7660   -1.1690 H   0  0  0  0  0  0  0  0  0  0  0  0
   -3.4460    0.4760    0.0620 H   0  0  0  0  0  0  0  0  0  0  0  0
   -4.0760    2.1070    0.1330 H   0  0  0  0  0  0  0  0  0  0  0  0
   -1.0060    1.5580    2.6030 H   0  0  0  0  0  0  0  0  0  0  0  0
   -2.3510    0.5130    2.2780 H   0  0  0  0  0  0  0  0  0  0  0  0
   -0.2640   -0.5580    2.4820 H   0  0  0  0  0  0  0  0  0  0  0  0
    0.7990    0.4380   -0.1680 H   0  0  0  0  0  0  0  0  0  0  0  0
   -1.4960    0.8280   -3.2840 N   0  0  0  0  0  0  0  0  0  0  0  0
   -1.0970   -0.4620   -2.9220 C   0  0  0  0  0  0  0  0  0  0  0  0
    0.1040   -0.9040   -3.2010 N   0  0  0  0  0  0  0  0  0  0  0  0
   -1.9720   -1.3800   -2.2270 N   0  0  0  0  0  0  0  0  0  0  0  0
   -1.7780   -2.7800   -2.4510 C   0  0  0  0  0  0  0  0  0  0  0  0
   -2.6020   -3.7470   -1.7550 C   0  0  0  0  0  0  0  0  0  0  0  0
   -2.7000   -3.9890   -0.3270 C   0  0  0  0  0  0  0  0  0  0  0  0
   -3.1300   -3.0610    0.7020 C   0  0  2  0  0  0  0  0  0  0  0  0
   -2.4800   -1.8860    1.1150 N   0  0  0  0  0  0  0  0  0  0  0  0
   -3.5230   -3.8100    1.9540 C   0  0  0  0  0  0  0  0  0  0  0  0
   -4.1210   -4.8970    1.8450 O   0  0  0  0  0  0  0  0  0  0  0  0
   -3.2440   -3.3340    3.2070 O   0  0  0  0  0  0  0  0  0  0  0  0
   -0.8180    1.6080   -3.3610 H   0  0  0  0  0  0  0  0  0  0  0  0
   -2.5010    1.0590   -3.4930 H   0  0  0  0  0  0  0  0  0  0  0  0
    0.7840   -0.2990   -3.6990 H   0  0  0  0  0  0  0  0  0  0  0  0
   -2.6940   -1.0010   -1.6080 H   0  0  0  0  0  0  0  0  0  0  0  0
   -1.8190   -2.9600   -3.6000 H   0  0  0  0  0  0  0  0  0  0  0  0
   -0.6990   -3.0110   -2.2570 H   0  0  0  0  0  0  0  0  0  0  0  0
   -2.2760   -4.7840   -2.2020 H   0  0  0  0  0  0  0  0  0  0  0  0
   -3.6700   -3.7250   -2.2290 H   0  0  0  0  0  0  0  0  0  0  0  0
   -1.7190   -4.5340    0.0060 H   0  0  0  0  0  0  0  0  0  0  0  0
   -3.4110   -4.9180   -0.2390 H   0  0  0  0  0  0  0  0  0  0  0  0
   -4.2000   -2.7090    0.2930 H   0  0  0  0  0  0  0  0  0  0  0  0
   -3.1060   -1.2120    1.6850 H   0  0  0  0  0  0  0  0  0  0  0  0
  1  2  1  0  0  0  0
  2 13  1  6  0  0  0
  2  9  1  0  0  0  0
  2  3  1  0  0  0  0
  3 14  1  0  0  0  0
  3  4  1  0  0  0  0
  4  5  2  0  0  0  0
  4  8  1  0  0  0  0
  5  6  1  0  0  0  0
  6 17  1  0  0  0  0
  6  7  1  0  0  0  0
  7 18  1  0  0  0  0
  8  7  2  0  0  0  0
  9 10  2  0  0  0  0
 11  1  1  0  0  0  0
 12  1  1  0  0  0  0
 15  3  1  0  0  0  0
 16  5  1  0  0  0  0
 19 29  1  0  0  0  0
 19 20  1  0  0  0  0
 20 30  1  0  0  0  0
 20 22  1  0  0  0  0
 21 32  1  0  0  0  0
 21 33  1  0  0  0  0
 21 20  1  0  0  0  0
 22 35  1  0  0  0  0
 22 34  1  0  0  0  0
 23 22  1  0  0  0  0
 23 36  1  1  0  0  0
 24 23  1  0  0  0  0
 24  9  1  0  0  0  0
 25 46  1  0  0  0  0
 25 23  1  0  0  0  0
 26 25  2  0  0  0  0
 27 19  1  0  0  0  0
 28 19  1  0  0  0  0
 31 21  1  0  0  0  0
 37 24  1  0  0  0  0
 38 39  1  0  0  0  0
 39 41  1  0  0  0  0
 40 39  2  0  0  0  0
 41 53  1  0  0  0  0
 42 55  1  0  0  0  0
 42 41  1  0  0  0  0
 42 43  1  0  0  0  0
 43 44  1  0  0  0  0
 44 59  1  0  0  0  0
 44 58  1  0  0  0  0
 44 45  1  0  0  0  0
 45 60  1  6  0  0  0
 45 46  1  0  0  0  0
 45 47  1  0  0  0  0
 46 61  1  0  0  0  0
 47 49  1  0  0  0  0
 48 47  2  0  0  0  0
 50 38  1  0  0  0  0
 51 38  1  0  0  0  0
 52 40  1  0  0  0  0
 54 42  1  0  0  0  0
 56 43  1  0  0  0  0
 57 43  1  0  0  0  0
M  END
$$$$
