HLS.pdb
 OpenBabel07022418373D

 49 49  0  0  1  0  0  0  0  0999 V2000
    3.8540   -3.3130    1.5490 N   0  0  0  0  0  0  0  0  0  0  0  0
    2.9400   -2.4630    0.7220 C   0  0  1  0  0  0  0  0  0  0  0  0
    2.5230   -3.3780   -0.3950 C   0  0  0  0  0  0  0  0  0  0  0  0
    1.6230   -2.8360   -1.3960 C   0  0  0  0  0  0  0  0  0  0  0  0
    0.2540   -2.9020   -1.4080 C   0  0  0  0  0  0  0  0  0  0  0  0
   -0.1930   -2.3050   -2.5250 N   0  0  0  0  0  0  0  0  0  0  0  0
    0.8680   -1.8620   -3.2200 C   0  0  0  0  0  0  0  0  0  0  0  0
    1.9650   -2.1910   -2.5250 N   0  0  0  0  0  0  0  0  0  0  0  0
    1.8850   -2.0650    1.6600 C   0  0  0  0  0  0  0  0  0  0  0  0
    1.7010   -2.6730    2.7530 O   0  0  0  0  0  0  0  0  0  0  0  0
    3.3200   -4.2200    1.6930 H   0  0  0  0  0  0  0  0  0  0  0  0
    3.9310   -2.8990    2.5110 H   0  0  0  0  0  0  0  0  0  0  0  0
    3.5250   -1.5850    0.3750 H   0  0  0  0  0  0  0  0  0  0  0  0
    2.0890   -4.2920    0.1260 H   0  0  0  0  0  0  0  0  0  0  0  0
    3.4760   -3.7830   -0.8270 H   0  0  0  0  0  0  0  0  0  0  0  0
   -0.3790   -3.3660   -0.6310 H   0  0  0  0  0  0  0  0  0  0  0  0
   -1.2020   -2.2160   -2.7820 H   0  0  0  0  0  0  0  0  0  0  0  0
    0.8110   -1.3300   -4.1830 H   0  0  0  0  0  0  0  0  0  0  0  0
    1.9230    1.8020    1.7260 C   0  0  0  0  0  0  0  0  0  0  0  0
    0.7300    1.8390    2.6460 C   0  0  0  0  0  0  0  0  0  0  0  0
    1.0710    2.8820    3.7290 C   0  0  0  0  0  0  0  0  0  0  0  0
    0.3660    0.5490    3.2750 C   0  0  0  0  0  0  0  0  0  0  0  0
   -0.0080   -0.5740    2.3380 C   0  0  2  0  0  0  0  0  0  0  0  0
    0.9990   -0.9670    1.4170 N   0  0  0  0  0  0  0  0  0  0  0  0
   -1.2930   -0.2550    1.7030 C   0  0  0  0  0  0  0  0  0  0  0  0
   -2.3190    0.0650    2.4070 O   0  0  0  0  0  0  0  0  0  0  0  0
    1.5550    1.8450    0.6830 H   0  0  0  0  0  0  0  0  0  0  0  0
    2.5640    2.7260    1.8640 H   0  0  0  0  0  0  0  0  0  0  0  0
    2.5400    0.8880    1.8350 H   0  0  0  0  0  0  0  0  0  0  0  0
   -0.1080    2.3130    2.0840 H   0  0  0  0  0  0  0  0  0  0  0  0
    2.1060    2.6850    4.0800 H   0  0  0  0  0  0  0  0  0  0  0  0
    1.0120    3.9040    3.3340 H   0  0  0  0  0  0  0  0  0  0  0  0
    0.4060    2.7100    4.6020 H   0  0  0  0  0  0  0  0  0  0  0  0
    1.1530    0.2180    3.9790 H   0  0  0  0  0  0  0  0  0  0  0  0
   -0.5380    0.7310    3.9070 H   0  0  0  0  0  0  0  0  0  0  0  0
   -0.1760   -1.4490    3.0300 H   0  0  0  0  0  0  0  0  0  0  0  0
    1.1110   -0.4630    0.5220 H   0  0  0  0  0  0  0  0  0  0  0  0
   -4.0820    1.3770   -1.7790 O   0  0  0  0  0  0  0  0  0  0  0  0
   -2.7970    1.1260   -1.3010 C   0  0  0  0  0  0  0  0  0  0  0  0
   -2.8500    0.0700   -0.2530 C   0  0  2  0  0  0  0  0  0  0  0  0
   -1.5480   -0.2580    0.3060 N   0  0  0  0  0  0  0  0  0  0  0  0
   -3.5070   -1.1860   -0.7710 C   0  0  0  0  0  0  0  0  0  0  0  0
   -2.9020   -2.2780   -0.6450 O   0  0  0  0  0  0  0  0  0  0  0  0
   -4.7370   -1.1630   -1.3700 O   0  0  0  0  0  0  0  0  0  0  0  0
   -4.7730    1.2000   -1.0850 H   0  0  0  0  0  0  0  0  0  0  0  0
   -2.3630    2.0340   -0.8850 H   0  0  0  0  0  0  0  0  0  0  0  0
   -2.2150    0.7490   -2.1880 H   0  0  0  0  0  0  0  0  0  0  0  0
   -3.5040    0.3960    0.5890 H   0  0  0  0  0  0  0  0  0  0  0  0
   -0.7430   -0.5000   -0.3080 H   0  0  0  0  0  0  0  0  0  0  0  0
  1 11  1  0  0  0  0
  1 12  1  0  0  0  0
  2 13  1  6  0  0  0
  2  1  1  0  0  0  0
  2  9  1  0  0  0  0
  3 14  1  0  0  0  0
  3  2  1  0  0  0  0
  4  3  1  0  0  0  0
  5  4  2  0  0  0  0
  5 16  1  0  0  0  0
  6  5  1  0  0  0  0
  7  6  1  0  0  0  0
  7  8  2  0  0  0  0
  8  4  1  0  0  0  0
  9 10  2  0  0  0  0
 15  3  1  0  0  0  0
 17  6  1  0  0  0  0
 18  7  1  0  0  0  0
 19 29  1  0  0  0  0
 19 28  1  0  0  0  0
 19 20  1  0  0  0  0
 20 22  1  0  0  0  0
 20 21  1  0  0  0  0
 21 31  1  0  0  0  0
 21 33  1  0  0  0  0
 22 35  1  0  0  0  0
 22 34  1  0  0  0  0
 23 36  1  1  0  0  0
 23 22  1  0  0  0  0
 24  9  1  0  0  0  0
 24 23  1  0  0  0  0
 25 23  1  0  0  0  0
 25 26  2  0  0  0  0
 27 19  1  0  0  0  0
 30 20  1  0  0  0  0
 32 21  1  0  0  0  0
 37 24  1  0  0  0  0
 38 39  1  0  0  0  0
 38 45  1  0  0  0  0
 39 46  1  0  0  0  0
 39 40  1  0  0  0  0
 40 41  1  0  0  0  0
 40 48  1  1  0  0  0
 41 25  1  0  0  0  0
 42 43  1  0  0  0  0
 42 40  1  0  0  0  0
 44 42  2  0  0  0  0
 47 39  1  0  0  0  0
 49 41  1  0  0  0  0
M  END
$$$$
