HMA.pdb
 OpenBabel07022418373D

 46 46  0  0  1  0  0  0  0  0999 V2000
    0.4150   -3.1450    0.4410 N   0  0  0  0  0  0  0  0  0  0  0  0
    1.2220   -2.9580    1.6290 C   0  0  1  0  0  0  0  0  0  0  0  0
    2.5210   -3.6720    1.5340 C   0  0  0  0  0  0  0  0  0  0  0  0
    3.3860   -3.2690    0.4100 C   0  0  0  0  0  0  0  0  0  0  0  0
    3.1150   -2.3310   -0.5470 C   0  0  0  0  0  0  0  0  0  0  0  0
    4.1500   -2.2640   -1.3910 N   0  0  0  0  0  0  0  0  0  0  0  0
    5.0670   -3.1490   -0.9750 C   0  0  0  0  0  0  0  0  0  0  0  0
    4.6080   -3.7640    0.1210 N   0  0  0  0  0  0  0  0  0  0  0  0
    1.3220   -1.5330    1.9990 C   0  0  0  0  0  0  0  0  0  0  0  0
    2.0310   -1.1760    2.9680 O   0  0  0  0  0  0  0  0  0  0  0  0
   -0.5960   -3.1350    0.6730 H   0  0  0  0  0  0  0  0  0  0  0  0
    0.7100   -4.0400   -0.0110 H   0  0  0  0  0  0  0  0  0  0  0  0
    0.6370   -3.4350    2.4730 H   0  0  0  0  0  0  0  0  0  0  0  0
    3.1110   -3.5380    2.4720 H   0  0  0  0  0  0  0  0  0  0  0  0
    2.3640   -4.7650    1.4460 H   0  0  0  0  0  0  0  0  0  0  0  0
    2.2240   -1.7280   -0.6370 H   0  0  0  0  0  0  0  0  0  0  0  0
    4.2430   -1.6260   -2.2460 H   0  0  0  0  0  0  0  0  0  0  0  0
    6.0280   -3.3080   -1.4870 H   0  0  0  0  0  0  0  0  0  0  0  0
   -2.0060    2.1160   -2.1630 C   0  0  0  0  0  0  0  0  0  0  0  0
   -1.1480    2.2250   -0.5840 S   0  0  0  0  0  0  0  0  0  0  0  0
    0.5510    1.6280   -0.7680 C   0  0  0  0  0  0  0  0  0  0  0  0
    1.3160    1.6950    0.5230 C   0  0  0  0  0  0  0  0  0  0  0  0
    0.7060    0.8750    1.6240 C   0  0  2  0  0  0  0  0  0  0  0  0
    0.6280   -0.5300    1.2830 N   0  0  0  0  0  0  0  0  0  0  0  0
   -0.6320    1.3990    2.0460 C   0  0  0  0  0  0  0  0  0  0  0  0
   -0.7890    2.5990    2.3850 O   0  0  0  0  0  0  0  0  0  0  0  0
   -1.7550    2.9560   -2.8430 H   0  0  0  0  0  0  0  0  0  0  0  0
   -3.1080    2.1450   -1.9600 H   0  0  0  0  0  0  0  0  0  0  0  0
   -1.7440    1.1890   -2.7020 H   0  0  0  0  0  0  0  0  0  0  0  0
    1.0590    2.3090   -1.4840 H   0  0  0  0  0  0  0  0  0  0  0  0
    0.5160    0.6350   -1.2170 H   0  0  0  0  0  0  0  0  0  0  0  0
    1.4160    2.7650    0.7950 H   0  0  0  0  0  0  0  0  0  0  0  0
    2.3340    1.3110    0.3420 H   0  0  0  0  0  0  0  0  0  0  0  0
    1.3790    0.9720    2.5010 H   0  0  0  0  0  0  0  0  0  0  0  0
    0.0360   -0.8670    0.4680 H   0  0  0  0  0  0  0  0  0  0  0  0
   -4.1160    0.8950    1.3690 C   0  0  0  0  0  0  0  0  0  0  0  0
   -3.0930    0.9880    2.4720 C   0  0  2  0  0  0  0  0  0  0  0  0
   -1.7860    0.5670    2.0830 N   0  0  0  0  0  0  0  0  0  0  0  0
   -3.5340    0.2950    3.7050 C   0  0  0  0  0  0  0  0  0  0  0  0
   -4.6420    0.4950    4.2400 O   0  0  0  0  0  0  0  0  0  0  0  0
   -2.6840   -0.6170    4.2930 O   0  0  0  0  0  0  0  0  0  0  0  0
   -5.1430    0.8360    1.7870 H   0  0  0  0  0  0  0  0  0  0  0  0
   -3.9490   -0.1050    0.8740 H   0  0  0  0  0  0  0  0  0  0  0  0
   -4.0800    1.7290    0.6620 H   0  0  0  0  0  0  0  0  0  0  0  0
   -3.0230    2.0830    2.7360 H   0  0  0  0  0  0  0  0  0  0  0  0
   -1.6370   -0.4320    1.7970 H   0  0  0  0  0  0  0  0  0  0  0  0
  1 11  1  0  0  0  0
  1  2  1  0  0  0  0
  2  9  1  0  0  0  0
  2 13  1  1  0  0  0
  3  2  1  0  0  0  0
  3 14  1  0  0  0  0
  4  3  1  0  0  0  0
  5  4  2  0  0  0  0
  6  7  1  0  0  0  0
  6  5  1  0  0  0  0
  7  8  2  0  0  0  0
  8  4  1  0  0  0  0
  9 10  2  0  0  0  0
 12  1  1  0  0  0  0
 15  3  1  0  0  0  0
 16  5  1  0  0  0  0
 17  6  1  0  0  0  0
 18  7  1  0  0  0  0
 19 28  1  0  0  0  0
 19 20  1  0  0  0  0
 21 20  1  0  0  0  0
 21 22  1  0  0  0  0
 22 32  1  0  0  0  0
 22 23  1  0  0  0  0
 23 25  1  0  0  0  0
 23 34  1  1  0  0  0
 24 23  1  0  0  0  0
 24  9  1  0  0  0  0
 25 38  1  0  0  0  0
 25 26  2  0  0  0  0
 27 19  1  0  0  0  0
 29 19  1  0  0  0  0
 30 21  1  0  0  0  0
 31 21  1  0  0  0  0
 33 22  1  0  0  0  0
 35 24  1  0  0  0  0
 36 42  1  0  0  0  0
 36 37  1  0  0  0  0
 37 45  1  1  0  0  0
 37 39  1  0  0  0  0
 38 37  1  0  0  0  0
 39 40  2  0  0  0  0
 39 41  1  0  0  0  0
 43 36  1  0  0  0  0
 44 36  1  0  0  0  0
 46 38  1  0  0  0  0
M  END
$$$$
