HMC.pdb
 OpenBabel07022418373D

 47 47  0  0  1  0  0  0  0  0999 V2000
   -1.3950   -3.3730    1.6040 N   0  0  0  0  0  0  0  0  0  0  0  0
   -0.0920   -3.1410    2.2800 C   0  0  1  0  0  0  0  0  0  0  0  0
    0.9080   -3.7110    1.3330 C   0  0  0  0  0  0  0  0  0  0  0  0
    2.3170   -3.6340    1.7170 C   0  0  0  0  0  0  0  0  0  0  0  0
    2.9640   -3.1360    2.8180 C   0  0  0  0  0  0  0  0  0  0  0  0
    4.3020   -3.3310    2.6400 N   0  0  0  0  0  0  0  0  0  0  0  0
    4.4630   -3.9360    1.4530 C   0  0  0  0  0  0  0  0  0  0  0  0
    3.2670   -4.1310    0.8690 N   0  0  0  0  0  0  0  0  0  0  0  0
    0.0160   -1.6610    2.3930 C   0  0  0  0  0  0  0  0  0  0  0  0
    0.2400   -1.1690    3.5160 O   0  0  0  0  0  0  0  0  0  0  0  0
   -1.5080   -2.7690    0.7710 H   0  0  0  0  0  0  0  0  0  0  0  0
   -2.1870   -3.2850    2.2780 H   0  0  0  0  0  0  0  0  0  0  0  0
   -0.1180   -3.6790    3.2170 H   0  0  0  0  0  0  0  0  0  0  0  0
    0.6570   -4.8110    1.2360 H   0  0  0  0  0  0  0  0  0  0  0  0
    0.6860   -3.3170    0.3060 H   0  0  0  0  0  0  0  0  0  0  0  0
    2.4470   -2.6890    3.6520 H   0  0  0  0  0  0  0  0  0  0  0  0
    4.9940   -3.0290    3.3460 H   0  0  0  0  0  0  0  0  0  0  0  0
    5.4120   -4.2090    1.0520 H   0  0  0  0  0  0  0  0  0  0  0  0
    3.1880    2.7510   -1.3890 C   0  0  0  0  0  0  0  0  0  0  0  0
    3.1110    3.1050    0.4130 S   0  0  0  0  0  0  0  0  0  0  0  0
    1.4560    2.5830    1.0140 C   0  0  0  0  0  0  0  0  0  0  0  0
    1.3230    1.0950    0.9080 C   0  0  0  0  0  0  0  0  0  0  0  0
   -0.0040    0.6260    1.4110 C   0  0  2  0  0  0  0  0  0  0  0  0
   -0.1200   -0.8160    1.2840 N   0  0  0  0  0  0  0  0  0  0  0  0
   -1.1500    1.3280    0.8190 C   0  0  0  0  0  0  0  0  0  0  0  0
   -1.3380    2.5640    0.7880 O   0  0  0  0  0  0  0  0  0  0  0  0
    3.1350    1.6620   -1.5870 H   0  0  0  0  0  0  0  0  0  0  0  0
    4.1770    3.0860   -1.7490 H   0  0  0  0  0  0  0  0  0  0  0  0
    2.4330    3.3230   -1.9300 H   0  0  0  0  0  0  0  0  0  0  0  0
    0.7560    3.1380    0.3120 H   0  0  0  0  0  0  0  0  0  0  0  0
    1.3100    3.0130    2.0110 H   0  0  0  0  0  0  0  0  0  0  0  0
    2.1180    0.6660    1.5710 H   0  0  0  0  0  0  0  0  0  0  0  0
    1.5160    0.8450   -0.1610 H   0  0  0  0  0  0  0  0  0  0  0  0
    0.0160    0.8370    2.5230 H   0  0  0  0  0  0  0  0  0  0  0  0
   -0.2950   -1.2240    0.3500 H   0  0  0  0  0  0  0  0  0  0  0  0
   -2.1940    0.5480    0.1960 N   0  0  0  0  0  0  0  0  0  0  0  0
   -3.3200    1.2020   -0.4000 C   0  0  1  0  0  0  0  0  0  0  0  0
   -3.2130    0.8820   -1.9050 C   0  0  0  0  0  0  0  0  0  0  0  0
   -3.2860   -0.9180   -2.1630 S   0  0  0  0  0  0  0  0  0  0  0  0
   -4.5740    0.6700    0.1460 C   0  0  0  0  0  0  0  0  0  0  0  0
   -5.6630    1.1260   -0.2740 O   0  0  0  0  0  0  0  0  0  0  0  0
   -4.5620   -0.3240    1.1140 O   0  0  0  0  0  0  0  0  0  0  0  0
   -2.1400   -0.4870    0.1750 H   0  0  0  0  0  0  0  0  0  0  0  0
   -3.2260    2.2780   -0.2900 H   0  0  0  0  0  0  0  0  0  0  0  0
   -2.1930    1.2370   -2.1840 H   0  0  0  0  0  0  0  0  0  0  0  0
   -4.0080    1.3630   -2.4950 H   0  0  0  0  0  0  0  0  0  0  0  0
   -4.5900   -1.2640   -2.6120 H   0  0  0  0  0  0  0  0  0  0  0  0
  1 12  1  0  0  0  0
  1  2  1  0  0  0  0
  2  9  1  0  0  0  0
  2 13  1  1  0  0  0
  3  4  1  0  0  0  0
  3  2  1  0  0  0  0
  4  5  2  0  0  0  0
  5 16  1  0  0  0  0
  6  5  1  0  0  0  0
  6 17  1  0  0  0  0
  7  6  1  0  0  0  0
  8  7  2  0  0  0  0
  8  4  1  0  0  0  0
  9 10  2  0  0  0  0
 11  1  1  0  0  0  0
 14  3  1  0  0  0  0
 15  3  1  0  0  0  0
 18  7  1  0  0  0  0
 19 20  1  0  0  0  0
 20 21  1  0  0  0  0
 21 31  1  0  0  0  0
 22 21  1  0  0  0  0
 22 23  1  0  0  0  0
 22 32  1  0  0  0  0
 23 34  1  1  0  0  0
 24 23  1  0  0  0  0
 24  9  1  0  0  0  0
 25 23  1  0  0  0  0
 26 25  2  0  0  0  0
 27 19  1  0  0  0  0
 28 19  1  0  0  0  0
 29 19  1  0  0  0  0
 30 21  1  0  0  0  0
 33 22  1  0  0  0  0
 35 24  1  0  0  0  0
 36 25  1  0  0  0  0
 37 44  1  1  0  0  0
 37 40  1  0  0  0  0
 37 36  1  0  0  0  0
 38 37  1  0  0  0  0
 39 38  1  0  0  0  0
 40 42  1  0  0  0  0
 41 40  2  0  0  0  0
 43 36  1  0  0  0  0
 45 38  1  0  0  0  0
 46 38  1  0  0  0  0
 47 39  1  0  0  0  0
M  END
$$$$
