HMD.pdb
 OpenBabel07022418373D

 49 49  0  0  1  0  0  0  0  0999 V2000
    2.4340   -2.2530   -0.8360 N   0  0  0  0  0  0  0  0  0  0  0  0
    2.3660   -2.5680    0.5740 C   0  0  1  0  0  0  0  0  0  0  0  0
    3.7070   -2.3800    1.2570 C   0  0  0  0  0  0  0  0  0  0  0  0
    4.1490   -0.9520    1.1090 C   0  0  0  0  0  0  0  0  0  0  0  0
    3.8840    0.0910    1.9690 C   0  0  0  0  0  0  0  0  0  0  0  0
    4.4670    1.1960    1.4730 N   0  0  0  0  0  0  0  0  0  0  0  0
    5.0960    0.8850    0.3190 C   0  0  0  0  0  0  0  0  0  0  0  0
    4.8870   -0.4240    0.1230 N   0  0  0  0  0  0  0  0  0  0  0  0
    1.3690   -1.7290    1.3050 C   0  0  0  0  0  0  0  0  0  0  0  0
    1.2010   -1.9110    2.5150 O   0  0  0  0  0  0  0  0  0  0  0  0
    1.8230   -2.9380   -1.3760 H   0  0  0  0  0  0  0  0  0  0  0  0
    3.4190   -2.4690   -1.1670 H   0  0  0  0  0  0  0  0  0  0  0  0
    2.1190   -3.6520    0.6540 H   0  0  0  0  0  0  0  0  0  0  0  0
    3.5350   -2.5620    2.3380 H   0  0  0  0  0  0  0  0  0  0  0  0
    4.4790   -3.0680    0.8580 H   0  0  0  0  0  0  0  0  0  0  0  0
    3.3060    0.0720    2.9040 H   0  0  0  0  0  0  0  0  0  0  0  0
    4.4510    2.1690    1.8970 H   0  0  0  0  0  0  0  0  0  0  0  0
    5.6370    1.6040   -0.2680 H   0  0  0  0  0  0  0  0  0  0  0  0
    0.3880    2.4060    4.5930 C   0  0  0  0  0  0  0  0  0  0  0  0
   -1.1380    2.1110    3.6580 S   0  0  0  0  0  0  0  0  0  0  0  0
   -0.9280    2.4890    1.9000 C   0  0  0  0  0  0  0  0  0  0  0  0
    0.0330    1.5540    1.2300 C   0  0  0  0  0  0  0  0  0  0  0  0
   -0.3630    0.1200    1.2910 C   0  0  2  0  0  0  0  0  0  0  0  0
    0.6270   -0.7340    0.6150 N   0  0  0  0  0  0  0  0  0  0  0  0
   -1.7000   -0.1830    0.7530 C   0  0  0  0  0  0  0  0  0  0  0  0
   -2.7530    0.3870    1.1410 O   0  0  0  0  0  0  0  0  0  0  0  0
    0.2080    2.5210    5.6610 H   0  0  0  0  0  0  0  0  0  0  0  0
    1.0700    1.5460    4.4100 H   0  0  0  0  0  0  0  0  0  0  0  0
    0.8760    3.2820    4.1200 H   0  0  0  0  0  0  0  0  0  0  0  0
   -1.9180    2.5250    1.4370 H   0  0  0  0  0  0  0  0  0  0  0  0
   -0.5420    3.5540    1.8740 H   0  0  0  0  0  0  0  0  0  0  0  0
    0.2220    1.8100    0.1710 H   0  0  0  0  0  0  0  0  0  0  0  0
    1.0280    1.6290    1.7650 H   0  0  0  0  0  0  0  0  0  0  0  0
   -0.3780   -0.1810    2.3730 H   0  0  0  0  0  0  0  0  0  0  0  0
    0.8180   -0.6360   -0.4070 H   0  0  0  0  0  0  0  0  0  0  0  0
   -1.8560   -1.1660   -0.2620 N   0  0  0  0  0  0  0  0  0  0  0  0
   -3.1580   -1.4630   -0.7890 C   0  0  1  0  0  0  0  0  0  0  0  0
   -3.2020   -1.3550   -2.3020 C   0  0  0  0  0  0  0  0  0  0  0  0
   -4.6120   -1.6840   -2.7340 C   0  0  0  0  0  0  0  0  0  0  0  0
   -5.6140   -1.0720   -2.3080 O   0  0  0  0  0  0  0  0  0  0  0  0
   -3.4740   -2.8730   -0.4790 C   0  0  0  0  0  0  0  0  0  0  0  0
   -4.5700   -3.3430   -0.8500 O   0  0  0  0  0  0  0  0  0  0  0  0
   -4.8530   -2.7220   -3.6540 O   0  0  0  0  0  0  0  0  0  0  0  0
   -2.5860   -3.6590    0.2050 O   0  0  0  0  0  0  0  0  0  0  0  0
   -1.0410   -1.7090   -0.6640 H   0  0  0  0  0  0  0  0  0  0  0  0
   -3.9570   -0.8430   -0.3470 H   0  0  0  0  0  0  0  0  0  0  0  0
   -3.0770   -0.2680   -2.5640 H   0  0  0  0  0  0  0  0  0  0  0  0
   -2.5370   -2.0340   -2.8190 H   0  0  0  0  0  0  0  0  0  0  0  0
   -5.8130   -3.0830   -3.7300 H   0  0  0  0  0  0  0  0  0  0  0  0
  1  2  1  0  0  0  0
  2 13  1  1  0  0  0
  2  3  1  0  0  0  0
  2  9  1  0  0  0  0
  3 14  1  0  0  0  0
  4  3  1  0  0  0  0
  4  5  2  0  0  0  0
  5 16  1  0  0  0  0
  6 17  1  0  0  0  0
  6  5  1  0  0  0  0
  7  6  1  0  0  0  0
  8  7  2  0  0  0  0
  8  4  1  0  0  0  0
  9 10  2  0  0  0  0
 11  1  1  0  0  0  0
 12  1  1  0  0  0  0
 15  3  1  0  0  0  0
 18  7  1  0  0  0  0
 19 27  1  0  0  0  0
 20 19  1  0  0  0  0
 21 20  1  0  0  0  0
 22 23  1  0  0  0  0
 22 33  1  0  0  0  0
 22 21  1  0  0  0  0
 23 34  1  1  0  0  0
 24 23  1  0  0  0  0
 24  9  1  0  0  0  0
 25 26  2  0  0  0  0
 25 23  1  0  0  0  0
 28 19  1  0  0  0  0
 29 19  1  0  0  0  0
 30 21  1  0  0  0  0
 31 21  1  0  0  0  0
 32 22  1  0  0  0  0
 35 24  1  0  0  0  0
 36 25  1  0  0  0  0
 37 41  1  0  0  0  0
 37 46  1  1  0  0  0
 37 36  1  0  0  0  0
 38 37  1  0  0  0  0
 39 40  2  0  0  0  0
 39 38  1  0  0  0  0
 41 44  1  0  0  0  0
 42 41  2  0  0  0  0
 43 39  1  0  0  0  0
 45 36  1  0  0  0  0
 47 38  1  0  0  0  0
 48 38  1  0  0  0  0
 49 43  1  0  0  0  0
M  END
$$$$
