HME.pdb
 OpenBabel07022418373D

 52 52  0  0  1  0  0  0  0  0999 V2000
    1.4600    1.6000    3.3990 N   0  0  0  0  0  0  0  0  0  0  0  0
    0.4020    1.1070    2.5390 C   0  0  1  0  0  0  0  0  0  0  0  0
    0.4130    1.7980    1.2090 C   0  0  0  0  0  0  0  0  0  0  0  0
    0.2200    3.2510    1.4900 C   0  0  0  0  0  0  0  0  0  0  0  0
   -0.9660    3.9650    1.5860 C   0  0  0  0  0  0  0  0  0  0  0  0
   -0.7020    5.2520    1.8570 N   0  0  0  0  0  0  0  0  0  0  0  0
    0.6300    5.3870    1.9370 C   0  0  0  0  0  0  0  0  0  0  0  0
    1.1860    4.1720    1.7140 N   0  0  0  0  0  0  0  0  0  0  0  0
    0.3800   -0.3470    2.4790 C   0  0  0  0  0  0  0  0  0  0  0  0
    1.2360   -0.9680    3.1950 O   0  0  0  0  0  0  0  0  0  0  0  0
    2.3060    1.8920    2.8990 H   0  0  0  0  0  0  0  0  0  0  0  0
    1.1380    2.2060    4.1620 H   0  0  0  0  0  0  0  0  0  0  0  0
   -0.5560    1.4230    3.0490 H   0  0  0  0  0  0  0  0  0  0  0  0
   -0.4750    1.4730    0.6250 H   0  0  0  0  0  0  0  0  0  0  0  0
    1.3340    1.6930    0.6390 H   0  0  0  0  0  0  0  0  0  0  0  0
   -1.9490    3.5190    1.4570 H   0  0  0  0  0  0  0  0  0  0  0  0
   -1.3840    6.0190    1.9850 H   0  0  0  0  0  0  0  0  0  0  0  0
    1.1770    6.3160    2.1450 H   0  0  0  0  0  0  0  0  0  0  0  0
    0.7460   -5.4740    3.0780 C   0  0  0  0  0  0  0  0  0  0  0  0
   -1.0260   -5.5300    3.1890 S   0  0  0  0  0  0  0  0  0  0  0  0
   -1.9360   -4.6610    1.9380 C   0  0  0  0  0  0  0  0  0  0  0  0
   -1.8170   -3.1830    1.9220 C   0  0  0  0  0  0  0  0  0  0  0  0
   -0.4650   -2.6140    1.6900 C   0  0  2  0  0  0  0  0  0  0  0  0
   -0.4780   -1.1490    1.7200 N   0  0  0  0  0  0  0  0  0  0  0  0
   -0.0130   -2.9640    0.2900 C   0  0  0  0  0  0  0  0  0  0  0  0
    0.1020   -4.1420   -0.1190 O   0  0  0  0  0  0  0  0  0  0  0  0
    1.2080   -6.4450    3.4230 H   0  0  0  0  0  0  0  0  0  0  0  0
    1.1830   -5.2500    2.1120 H   0  0  0  0  0  0  0  0  0  0  0  0
    1.1590   -4.7230    3.8160 H   0  0  0  0  0  0  0  0  0  0  0  0
   -3.0280   -4.9280    2.0800 H   0  0  0  0  0  0  0  0  0  0  0  0
   -1.7010   -5.1300    0.9430 H   0  0  0  0  0  0  0  0  0  0  0  0
   -2.4710   -2.8250    1.0710 H   0  0  0  0  0  0  0  0  0  0  0  0
   -2.3220   -2.7460    2.8260 H   0  0  0  0  0  0  0  0  0  0  0  0
    0.2600   -3.0550    2.3680 H   0  0  0  0  0  0  0  0  0  0  0  0
   -1.1930   -0.6930    1.1210 H   0  0  0  0  0  0  0  0  0  0  0  0
    0.3200   -1.9560   -0.6760 N   0  0  0  0  0  0  0  0  0  0  0  0
    0.7490   -2.2060   -2.0030 C   0  0  1  0  0  0  0  0  0  0  0  0
   -0.1850   -1.9840   -3.1290 C   0  0  0  0  0  0  0  0  0  0  0  0
   -0.7660   -0.6430   -3.3250 C   0  0  0  0  0  0  0  0  0  0  0  0
   -1.6790   -0.2770   -2.2360 C   0  0  0  0  0  0  0  0  0  0  0  0
   -2.0780   -1.1570   -1.4410 O   0  0  0  0  0  0  0  0  0  0  0  0
    2.0130   -1.4580   -2.2390 C   0  0  0  0  0  0  0  0  0  0  0  0
    2.5870   -1.5260   -3.3540 O   0  0  0  0  0  0  0  0  0  0  0  0
   -2.1170    1.0450   -2.0660 O   0  0  0  0  0  0  0  0  0  0  0  0
    2.5920   -0.6670   -1.2380 O   0  0  0  0  0  0  0  0  0  0  0  0
    0.2630   -0.9490   -0.3450 H   0  0  0  0  0  0  0  0  0  0  0  0
    1.0630   -3.3070   -2.1130 H   0  0  0  0  0  0  0  0  0  0  0  0
    0.4150   -2.2110   -4.0690 H   0  0  0  0  0  0  0  0  0  0  0  0
   -0.9940   -2.7650   -3.1730 H   0  0  0  0  0  0  0  0  0  0  0  0
    0.0120    0.1320   -3.5120 H   0  0  0  0  0  0  0  0  0  0  0  0
   -1.4030   -0.6620   -4.2610 H   0  0  0  0  0  0  0  0  0  0  0  0
   -2.4930    1.2620   -1.1360 H   0  0  0  0  0  0  0  0  0  0  0  0
  1 12  1  0  0  0  0
  2 13  1  1  0  0  0
  2  1  1  0  0  0  0
  3  4  1  0  0  0  0
  3  2  1  0  0  0  0
  4  5  2  0  0  0  0
  4  8  1  0  0  0  0
  5  6  1  0  0  0  0
  6  7  1  0  0  0  0
  6 17  1  0  0  0  0
  7 18  1  0  0  0  0
  8  7  2  0  0  0  0
  9  2  1  0  0  0  0
  9 10  2  0  0  0  0
 11  1  1  0  0  0  0
 14  3  1  0  0  0  0
 15  3  1  0  0  0  0
 16  5  1  0  0  0  0
 19 20  1  0  0  0  0
 19 27  1  0  0  0  0
 19 29  1  0  0  0  0
 21 30  1  0  0  0  0
 21 20  1  0  0  0  0
 22 21  1  0  0  0  0
 22 33  1  0  0  0  0
 23 24  1  0  0  0  0
 23 22  1  0  0  0  0
 23 34  1  1  0  0  0
 24  9  1  0  0  0  0
 25 23  1  0  0  0  0
 26 25  2  0  0  0  0
 28 19  1  0  0  0  0
 31 21  1  0  0  0  0
 32 22  1  0  0  0  0
 35 24  1  0  0  0  0
 36 46  1  0  0  0  0
 36 25  1  0  0  0  0
 37 47  1  6  0  0  0
 37 36  1  0  0  0  0
 38 37  1  0  0  0  0
 39 38  1  0  0  0  0
 39 40  1  0  0  0  0
 40 44  1  0  0  0  0
 40 41  2  0  0  0  0
 42 37  1  0  0  0  0
 42 45  1  0  0  0  0
 43 42  2  0  0  0  0
 44 52  1  0  0  0  0
 48 38  1  0  0  0  0
 49 38  1  0  0  0  0
 50 39  1  0  0  0  0
 51 39  1  0  0  0  0
M  END
$$$$
