HMK.pdb
 OpenBabel07022418373D

 57 57  0  0  1  0  0  0  0  0999 V2000
    2.4930   -0.8500    1.7840 N   0  0  0  0  0  0  0  0  0  0  0  0
    2.2880   -0.0780    0.5770 C   0  0  1  0  0  0  0  0  0  0  0  0
    2.3630   -1.0250   -0.5940 C   0  0  0  0  0  0  0  0  0  0  0  0
    3.6830   -1.6840   -0.6390 C   0  0  0  0  0  0  0  0  0  0  0  0
    4.7670   -1.5440    0.1960 C   0  0  0  0  0  0  0  0  0  0  0  0
    5.7190   -2.3650   -0.2800 N   0  0  0  0  0  0  0  0  0  0  0  0
    5.2650   -3.0080   -1.3790 C   0  0  0  0  0  0  0  0  0  0  0  0
    4.0050   -2.5870   -1.6020 N   0  0  0  0  0  0  0  0  0  0  0  0
    0.9950    0.6680    0.6030 C   0  0  0  0  0  0  0  0  0  0  0  0
    0.6550    1.4030   -0.3580 O   0  0  0  0  0  0  0  0  0  0  0  0
    2.4570   -0.2400    2.6280 H   0  0  0  0  0  0  0  0  0  0  0  0
    1.7110   -1.5340    1.8710 H   0  0  0  0  0  0  0  0  0  0  0  0
    3.0870    0.6740    0.4550 H   0  0  0  0  0  0  0  0  0  0  0  0
    1.6010   -1.8280   -0.5390 H   0  0  0  0  0  0  0  0  0  0  0  0
    2.2080   -0.4960   -1.5510 H   0  0  0  0  0  0  0  0  0  0  0  0
    4.7680   -0.8810    1.0480 H   0  0  0  0  0  0  0  0  0  0  0  0
    6.6570   -2.4590    0.1670 H   0  0  0  0  0  0  0  0  0  0  0  0
    5.8160   -3.7300   -1.9720 H   0  0  0  0  0  0  0  0  0  0  0  0
    0.2070    2.9850    4.4000 C   0  0  0  0  0  0  0  0  0  0  0  0
   -0.4470    4.1680    3.2100 S   0  0  0  0  0  0  0  0  0  0  0  0
   -0.3760    3.6340    1.4960 C   0  0  0  0  0  0  0  0  0  0  0  0
   -1.3260    2.5410    1.1200 C   0  0  0  0  0  0  0  0  0  0  0  0
   -1.1530    1.2510    1.8550 C   0  0  2  0  0  0  0  0  0  0  0  0
    0.0950    0.5870    1.6920 N   0  0  0  0  0  0  0  0  0  0  0  0
   -2.2590    0.2990    1.6320 C   0  0  0  0  0  0  0  0  0  0  0  0
   -3.4740    0.6380    1.7180 O   0  0  0  0  0  0  0  0  0  0  0  0
    0.9150    3.5020    5.1070 H   0  0  0  0  0  0  0  0  0  0  0  0
   -0.6350    2.5480    4.9700 H   0  0  0  0  0  0  0  0  0  0  0  0
    0.7820    2.2120    3.8550 H   0  0  0  0  0  0  0  0  0  0  0  0
    0.7080    3.3900    1.3120 H   0  0  0  0  0  0  0  0  0  0  0  0
   -0.6030    4.5680    0.8810 H   0  0  0  0  0  0  0  0  0  0  0  0
   -2.3550    2.9570    1.3720 H   0  0  0  0  0  0  0  0  0  0  0  0
   -1.3960    2.4120    0.0050 H   0  0  0  0  0  0  0  0  0  0  0  0
   -1.2740    1.5900    2.9520 H   0  0  0  0  0  0  0  0  0  0  0  0
    0.4380   -0.0670    2.4720 H   0  0  0  0  0  0  0  0  0  0  0  0
   -1.9470   -1.0440    1.3080 N   0  0  0  0  0  0  0  0  0  0  0  0
   -2.9340   -2.0730    1.0660 C   0  0  1  0  0  0  0  0  0  0  0  0
   -2.7080   -2.5880   -0.3760 C   0  0  0  0  0  0  0  0  0  0  0  0
   -2.8680   -1.4830   -1.3580 C   0  0  0  0  0  0  0  0  0  0  0  0
   -2.6890   -1.9150   -2.7580 C   0  0  0  0  0  0  0  0  0  0  0  0
   -1.3840   -2.4990   -3.1510 C   0  0  0  0  0  0  0  0  0  0  0  0
   -1.0390   -3.6950   -2.4510 N   0  0  0  0  0  0  0  0  0  0  0  0
   -2.6470   -3.2200    1.9510 C   0  0  0  0  0  0  0  0  0  0  0  0
   -3.3660   -4.2330    1.9220 O   0  0  0  0  0  0  0  0  0  0  0  0
   -1.5700   -3.1560    2.8150 O   0  0  0  0  0  0  0  0  0  0  0  0
   -0.9310   -1.3520    1.2310 H   0  0  0  0  0  0  0  0  0  0  0  0
   -3.9660   -1.7000    1.1640 H   0  0  0  0  0  0  0  0  0  0  0  0
   -1.6780   -3.0220   -0.3580 H   0  0  0  0  0  0  0  0  0  0  0  0
   -3.4620   -3.3700   -0.5800 H   0  0  0  0  0  0  0  0  0  0  0  0
   -3.9310   -1.1130   -1.2390 H   0  0  0  0  0  0  0  0  0  0  0  0
   -2.2470   -0.5900   -1.1140 H   0  0  0  0  0  0  0  0  0  0  0  0
   -2.9590   -1.0490   -3.4420 H   0  0  0  0  0  0  0  0  0  0  0  0
   -3.4760   -2.6900   -2.9980 H   0  0  0  0  0  0  0  0  0  0  0  0
   -0.5610   -1.7470   -3.1590 H   0  0  0  0  0  0  0  0  0  0  0  0
   -1.4830   -2.7960   -4.2380 H   0  0  0  0  0  0  0  0  0  0  0  0
   -1.5440   -4.5310   -2.8010 H   0  0  0  0  0  0  0  0  0  0  0  0
   -0.0100   -3.8480   -2.3600 H   0  0  0  0  0  0  0  0  0  0  0  0
  1 12  1  0  0  0  0
  1 11  1  0  0  0  0
  2 13  1  6  0  0  0
  2  9  1  0  0  0  0
  2  1  1  0  0  0  0
  3 14  1  0  0  0  0
  3  2  1  0  0  0  0
  4  3  1  0  0  0  0
  4  5  2  0  0  0  0
  5 16  1  0  0  0  0
  6 17  1  0  0  0  0
  6  5  1  0  0  0  0
  7  6  1  0  0  0  0
  8  7  2  0  0  0  0
  8  4  1  0  0  0  0
  9 24  1  0  0  0  0
 10  9  2  0  0  0  0
 15  3  1  0  0  0  0
 18  7  1  0  0  0  0
 19 28  1  0  0  0  0
 19 27  1  0  0  0  0
 20 19  1  0  0  0  0
 21 20  1  0  0  0  0
 22 32  1  0  0  0  0
 22 21  1  0  0  0  0
 22 23  1  0  0  0  0
 23 34  1  1  0  0  0
 24 23  1  0  0  0  0
 24 35  1  0  0  0  0
 25 26  2  0  0  0  0
 25 23  1  0  0  0  0
 29 19  1  0  0  0  0
 30 21  1  0  0  0  0
 31 21  1  0  0  0  0
 33 22  1  0  0  0  0
 36 25  1  0  0  0  0
 37 47  1  1  0  0  0
 37 36  1  0  0  0  0
 37 43  1  0  0  0  0
 38 48  1  0  0  0  0
 38 37  1  0  0  0  0
 39 50  1  0  0  0  0
 39 51  1  0  0  0  0
 39 38  1  0  0  0  0
 40 39  1  0  0  0  0
 41 40  1  0  0  0  0
 41 42  1  0  0  0  0
 42 57  1  0  0  0  0
 43 45  1  0  0  0  0
 44 43  2  0  0  0  0
 46 36  1  0  0  0  0
 49 38  1  0  0  0  0
 52 40  1  0  0  0  0
 53 40  1  0  0  0  0
 54 41  1  0  0  0  0
 55 41  1  0  0  0  0
 56 42  1  0  0  0  0
M  END
$$$$
