HMM.pdb
 OpenBabel07022418373D

 53 53  0  0  1  0  0  0  0  0999 V2000
    1.4060   -2.9340    1.5840 N   0  0  0  0  0  0  0  0  0  0  0  0
    1.4430   -1.9410    2.6260 C   0  0  1  0  0  0  0  0  0  0  0  0
    2.7970   -1.8110    3.2630 C   0  0  0  0  0  0  0  0  0  0  0  0
    3.8610   -1.4260    2.3250 C   0  0  0  0  0  0  0  0  0  0  0  0
    4.2510   -0.1490    2.0120 C   0  0  0  0  0  0  0  0  0  0  0  0
    5.2580   -0.2350    1.1110 N   0  0  0  0  0  0  0  0  0  0  0  0
    5.4910   -1.5450    0.8660 C   0  0  0  0  0  0  0  0  0  0  0  0
    4.6280   -2.2610    1.6170 N   0  0  0  0  0  0  0  0  0  0  0  0
    0.9700   -0.6140    2.0910 C   0  0  0  0  0  0  0  0  0  0  0  0
    0.9360    0.4030    2.8010 O   0  0  0  0  0  0  0  0  0  0  0  0
    1.0970   -3.8690    1.9600 H   0  0  0  0  0  0  0  0  0  0  0  0
    2.4030   -3.0780    1.2590 H   0  0  0  0  0  0  0  0  0  0  0  0
    0.7210   -2.2160    3.4080 H   0  0  0  0  0  0  0  0  0  0  0  0
    2.6790   -1.0530    4.0850 H   0  0  0  0  0  0  0  0  0  0  0  0
    3.0260   -2.7630    3.7990 H   0  0  0  0  0  0  0  0  0  0  0  0
    3.8750    0.8060    2.3740 H   0  0  0  0  0  0  0  0  0  0  0  0
    5.7960    0.5330    0.6510 H   0  0  0  0  0  0  0  0  0  0  0  0
    6.2240   -1.9700    0.1990 H   0  0  0  0  0  0  0  0  0  0  0  0
   -0.1190    4.0800    0.4520 C   0  0  0  0  0  0  0  0  0  0  0  0
    1.0180    3.7610   -0.8680 S   0  0  0  0  0  0  0  0  0  0  0  0
    0.7780    2.2440   -1.7850 C   0  0  0  0  0  0  0  0  0  0  0  0
    1.0090    0.9980   -1.0120 C   0  0  0  0  0  0  0  0  0  0  0  0
    0.0770    0.7460    0.1400 C   0  0  2  0  0  0  0  0  0  0  0  0
    0.5530   -0.5070    0.7500 N   0  0  0  0  0  0  0  0  0  0  0  0
   -1.2960    0.5150   -0.4000 C   0  0  0  0  0  0  0  0  0  0  0  0
   -1.8970    1.4230   -0.9940 O   0  0  0  0  0  0  0  0  0  0  0  0
    0.4030    3.8200    1.4230 H   0  0  0  0  0  0  0  0  0  0  0  0
   -0.3080    5.1880    0.5710 H   0  0  0  0  0  0  0  0  0  0  0  0
   -1.0510    3.5220    0.3920 H   0  0  0  0  0  0  0  0  0  0  0  0
   -0.1950    2.2230   -2.3390 H   0  0  0  0  0  0  0  0  0  0  0  0
    1.5550    2.2450   -2.6090 H   0  0  0  0  0  0  0  0  0  0  0  0
    0.8840    0.1320   -1.7070 H   0  0  0  0  0  0  0  0  0  0  0  0
    2.0790    0.9810   -0.6970 H   0  0  0  0  0  0  0  0  0  0  0  0
    0.1530    1.5190    0.8900 H   0  0  0  0  0  0  0  0  0  0  0  0
    0.5720   -1.3410    0.1410 H   0  0  0  0  0  0  0  0  0  0  0  0
   -3.4960   -3.8930    1.2330 C   0  0  0  0  0  0  0  0  0  0  0  0
   -3.8930   -4.3040   -0.4540 S   0  0  0  0  0  0  0  0  0  0  0  0
   -2.9990   -3.3860   -1.6750 C   0  0  0  0  0  0  0  0  0  0  0  0
   -3.4140   -1.9850   -1.8400 C   0  0  0  0  0  0  0  0  0  0  0  0
   -3.2920   -0.9910   -0.7680 C   0  0  2  0  0  0  0  0  0  0  0  0
   -1.9660   -0.7420   -0.2570 N   0  0  0  0  0  0  0  0  0  0  0  0
   -4.3030   -1.0610    0.2930 C   0  0  0  0  0  0  0  0  0  0  0  0
   -5.4790   -1.3670    0.0120 O   0  0  0  0  0  0  0  0  0  0  0  0
   -3.9810   -0.7920    1.6090 O   0  0  0  0  0  0  0  0  0  0  0  0
   -2.6600   -3.1830    1.2770 H   0  0  0  0  0  0  0  0  0  0  0  0
   -3.1720   -4.8330    1.8030 H   0  0  0  0  0  0  0  0  0  0  0  0
   -4.4080   -3.4970    1.7740 H   0  0  0  0  0  0  0  0  0  0  0  0
   -3.1310   -3.9420   -2.6720 H   0  0  0  0  0  0  0  0  0  0  0  0
   -1.8740   -3.4780   -1.5380 H   0  0  0  0  0  0  0  0  0  0  0  0
   -2.8490   -1.5850   -2.7590 H   0  0  0  0  0  0  0  0  0  0  0  0
   -4.4940   -1.9140   -2.2110 H   0  0  0  0  0  0  0  0  0  0  0  0
   -3.6150    0.0140   -1.3140 H   0  0  0  0  0  0  0  0  0  0  0  0
   -1.4580   -1.4940    0.2320 H   0  0  0  0  0  0  0  0  0  0  0  0
  1 11  1  0  0  0  0
  1  2  1  0  0  0  0
  2  3  1  0  0  0  0
  2 13  1  1  0  0  0
  3 15  1  0  0  0  0
  3 14  1  0  0  0  0
  4  3  1  0  0  0  0
  5  4  2  0  0  0  0
  5 16  1  0  0  0  0
  6  5  1  0  0  0  0
  7  6  1  0  0  0  0
  7  8  2  0  0  0  0
  8  4  1  0  0  0  0
  9  2  1  0  0  0  0
  9 10  2  0  0  0  0
 12  1  1  0  0  0  0
 17  6  1  0  0  0  0
 18  7  1  0  0  0  0
 19 28  1  0  0  0  0
 19 27  1  0  0  0  0
 20 19  1  0  0  0  0
 21 22  1  0  0  0  0
 21 20  1  0  0  0  0
 22 33  1  0  0  0  0
 22 23  1  0  0  0  0
 23 24  1  0  0  0  0
 23 34  1  1  0  0  0
 24  9  1  0  0  0  0
 25 41  1  0  0  0  0
 25 23  1  0  0  0  0
 26 25  2  0  0  0  0
 29 19  1  0  0  0  0
 30 21  1  0  0  0  0
 31 21  1  0  0  0  0
 32 22  1  0  0  0  0
 35 24  1  0  0  0  0
 36 45  1  0  0  0  0
 36 47  1  0  0  0  0
 36 46  1  0  0  0  0
 37 36  1  0  0  0  0
 38 49  1  0  0  0  0
 38 37  1  0  0  0  0
 39 38  1  0  0  0  0
 39 40  1  0  0  0  0
 40 52  1  6  0  0  0
 40 41  1  0  0  0  0
 40 42  1  0  0  0  0
 41 53  1  0  0  0  0
 42 44  1  0  0  0  0
 43 42  2  0  0  0  0
 48 38  1  0  0  0  0
 50 39  1  0  0  0  0
 51 39  1  0  0  0  0
M  END
$$$$
