HMN.pdb
 OpenBabel07022418373D

 50 50  0  0  1  0  0  0  0  0999 V2000
    2.4460   -2.8940    3.1440 N   0  0  0  0  0  0  0  0  0  0  0  0
    1.8120   -1.5920    3.1070 C   0  0  1  0  0  0  0  0  0  0  0  0
    2.8030   -0.5720    3.5640 C   0  0  0  0  0  0  0  0  0  0  0  0
    4.0310   -0.5250    2.7480 C   0  0  0  0  0  0  0  0  0  0  0  0
    4.2800    0.2330    1.6430 C   0  0  0  0  0  0  0  0  0  0  0  0
    5.5160   -0.0410    1.2300 N   0  0  0  0  0  0  0  0  0  0  0  0
    6.0400   -0.9590    2.0630 C   0  0  0  0  0  0  0  0  0  0  0  0
    5.1360   -1.2620    2.9980 N   0  0  0  0  0  0  0  0  0  0  0  0
    1.1320   -1.2990    1.8380 C   0  0  0  0  0  0  0  0  0  0  0  0
    1.3140   -2.0720    0.8710 O   0  0  0  0  0  0  0  0  0  0  0  0
    2.8790   -3.1620    2.2270 H   0  0  0  0  0  0  0  0  0  0  0  0
    3.2160   -2.9220    3.8430 H   0  0  0  0  0  0  0  0  0  0  0  0
    1.0070   -1.6100    3.9040 H   0  0  0  0  0  0  0  0  0  0  0  0
    2.3590    0.4630    3.5930 H   0  0  0  0  0  0  0  0  0  0  0  0
    3.0840   -0.7990    4.6200 H   0  0  0  0  0  0  0  0  0  0  0  0
    3.5960    0.9240    1.1930 H   0  0  0  0  0  0  0  0  0  0  0  0
    6.0380    0.3630    0.4040 H   0  0  0  0  0  0  0  0  0  0  0  0
    7.0410   -1.4000    2.0060 H   0  0  0  0  0  0  0  0  0  0  0  0
   -1.3810    3.1660    1.7640 C   0  0  0  0  0  0  0  0  0  0  0  0
   -0.4010    3.4000    0.3220 S   0  0  0  0  0  0  0  0  0  0  0  0
    0.8140    2.1940   -0.0950 C   0  0  0  0  0  0  0  0  0  0  0  0
    0.3250    0.8580   -0.5560 C   0  0  0  0  0  0  0  0  0  0  0  0
   -0.4230    0.1460    0.4920 C   0  0  2  0  0  0  0  0  0  0  0  0
    0.2790   -0.1730    1.6880 N   0  0  0  0  0  0  0  0  0  0  0  0
   -1.1880   -1.0600    0.0210 C   0  0  0  0  0  0  0  0  0  0  0  0
   -1.1820   -2.1040    0.7010 O   0  0  0  0  0  0  0  0  0  0  0  0
   -2.3980    2.7590    1.4920 H   0  0  0  0  0  0  0  0  0  0  0  0
   -1.5440    4.1280    2.3530 H   0  0  0  0  0  0  0  0  0  0  0  0
   -0.9390    2.4570    2.4860 H   0  0  0  0  0  0  0  0  0  0  0  0
    1.4620    2.6090   -0.9320 H   0  0  0  0  0  0  0  0  0  0  0  0
    1.5650    2.0100    0.7190 H   0  0  0  0  0  0  0  0  0  0  0  0
   -0.3890    0.9870   -1.4320 H   0  0  0  0  0  0  0  0  0  0  0  0
    1.1560    0.2660   -1.0120 H   0  0  0  0  0  0  0  0  0  0  0  0
   -1.2820    0.8510    0.7860 H   0  0  0  0  0  0  0  0  0  0  0  0
    0.1950    0.4230    2.5370 H   0  0  0  0  0  0  0  0  0  0  0  0
   -5.2510   -2.4160    0.5500 N   0  0  0  0  0  0  0  0  0  0  0  0
   -4.4910   -1.5090   -0.2200 C   0  0  0  0  0  0  0  0  0  0  0  0
   -4.1350   -0.4340    0.2970 O   0  0  0  0  0  0  0  0  0  0  0  0
   -4.1440   -1.8720   -1.6200 C   0  0  0  0  0  0  0  0  0  0  0  0
   -2.6740   -2.2450   -1.6360 C   0  0  2  0  0  0  0  0  0  0  0  0
   -1.9360   -1.0780   -1.1840 N   0  0  0  0  0  0  0  0  0  0  0  0
   -2.2200   -2.7100   -2.9590 C   0  0  0  0  0  0  0  0  0  0  0  0
   -1.2970   -2.1450   -3.6070 O   0  0  0  0  0  0  0  0  0  0  0  0
   -2.8100   -3.8110   -3.5500 O   0  0  0  0  0  0  0  0  0  0  0  0
   -6.2970   -2.3720    0.4450 H   0  0  0  0  0  0  0  0  0  0  0  0
   -4.8430   -3.1110    1.2010 H   0  0  0  0  0  0  0  0  0  0  0  0
   -4.2610   -0.9520   -2.2610 H   0  0  0  0  0  0  0  0  0  0  0  0
   -4.7850   -2.6880   -1.9940 H   0  0  0  0  0  0  0  0  0  0  0  0
   -2.5690   -3.0950   -0.9290 H   0  0  0  0  0  0  0  0  0  0  0  0
   -1.9480   -0.2090   -1.7570 H   0  0  0  0  0  0  0  0  0  0  0  0
  1 12  1  0  0  0  0
  2  1  1  0  0  0  0
  2  3  1  0  0  0  0
  2 13  1  1  0  0  0
  3 14  1  0  0  0  0
  3 15  1  0  0  0  0
  4  8  1  0  0  0  0
  4  3  1  0  0  0  0
  5  4  2  0  0  0  0
  6  5  1  0  0  0  0
  6  7  1  0  0  0  0
  7  8  2  0  0  0  0
  9  2  1  0  0  0  0
 10  9  2  0  0  0  0
 11  1  1  0  0  0  0
 16  5  1  0  0  0  0
 17  6  1  0  0  0  0
 18  7  1  0  0  0  0
 19 28  1  0  0  0  0
 19 29  1  0  0  0  0
 20 19  1  0  0  0  0
 21 20  1  0  0  0  0
 21 31  1  0  0  0  0
 22 21  1  0  0  0  0
 22 23  1  0  0  0  0
 23 34  1  1  0  0  0
 23 24  1  0  0  0  0
 24  9  1  0  0  0  0
 24 35  1  0  0  0  0
 25 23  1  0  0  0  0
 25 26  2  0  0  0  0
 27 19  1  0  0  0  0
 30 21  1  0  0  0  0
 32 22  1  0  0  0  0
 33 22  1  0  0  0  0
 36 46  1  0  0  0  0
 37 38  2  0  0  0  0
 37 36  1  0  0  0  0
 39 37  1  0  0  0  0
 40 39  1  0  0  0  0
 40 41  1  0  0  0  0
 40 49  1  1  0  0  0
 41 25  1  0  0  0  0
 42 40  1  0  0  0  0
 43 42  2  0  0  0  0
 44 42  1  0  0  0  0
 45 36  1  0  0  0  0
 47 39  1  0  0  0  0
 48 39  1  0  0  0  0
 50 41  1  0  0  0  0
M  END
$$$$
