HMQ.pdb
 OpenBabel07022418373D

 53 53  0  0  1  0  0  0  0  0999 V2000
   -0.4630    1.6280    0.7750 N   0  0  0  0  0  0  0  0  0  0  0  0
   -0.5440    0.9790    2.0660 C   0  0  1  0  0  0  0  0  0  0  0  0
   -1.5580    1.6780    2.9050 C   0  0  0  0  0  0  0  0  0  0  0  0
   -1.1630    3.1120    3.0960 C   0  0  0  0  0  0  0  0  0  0  0  0
   -0.0470    3.7640    2.6140 C   0  0  0  0  0  0  0  0  0  0  0  0
   -0.0450    5.0620    3.0050 N   0  0  0  0  0  0  0  0  0  0  0  0
   -1.1590    5.2120    3.7280 C   0  0  0  0  0  0  0  0  0  0  0  0
   -1.8400    4.0500    3.7920 N   0  0  0  0  0  0  0  0  0  0  0  0
   -0.8400   -0.4790    1.9160 C   0  0  0  0  0  0  0  0  0  0  0  0
   -1.0130   -1.2060    2.9300 O   0  0  0  0  0  0  0  0  0  0  0  0
    0.3040    1.1720    0.2150 H   0  0  0  0  0  0  0  0  0  0  0  0
   -1.3540    1.3910    0.2690 H   0  0  0  0  0  0  0  0  0  0  0  0
    0.4580    1.0360    2.5380 H   0  0  0  0  0  0  0  0  0  0  0  0
   -1.5510    1.2250    3.9370 H   0  0  0  0  0  0  0  0  0  0  0  0
   -2.5850    1.5850    2.5340 H   0  0  0  0  0  0  0  0  0  0  0  0
    0.7280    3.2820    1.9980 H   0  0  0  0  0  0  0  0  0  0  0  0
    0.7000    5.7540    2.7620 H   0  0  0  0  0  0  0  0  0  0  0  0
   -1.4270    6.1700    4.1790 H   0  0  0  0  0  0  0  0  0  0  0  0
   -4.1350   -2.1220    2.1350 C   0  0  0  0  0  0  0  0  0  0  0  0
   -4.5490   -2.6090    0.4560 S   0  0  0  0  0  0  0  0  0  0  0  0
   -3.4110   -2.0820   -0.8030 C   0  0  0  0  0  0  0  0  0  0  0  0
   -2.0620   -2.7240   -0.7950 C   0  0  0  0  0  0  0  0  0  0  0  0
   -1.2280   -2.5000    0.4240 C   0  0  2  0  0  0  0  0  0  0  0  0
   -0.9420   -1.1150    0.6650 N   0  0  0  0  0  0  0  0  0  0  0  0
    0.1010   -3.2180    0.1870 C   0  0  0  0  0  0  0  0  0  0  0  0
    0.1530   -4.4460   -0.0430 O   0  0  0  0  0  0  0  0  0  0  0  0
   -5.0780   -1.8850    2.7210 H   0  0  0  0  0  0  0  0  0  0  0  0
   -3.6040   -1.1710    2.0880 H   0  0  0  0  0  0  0  0  0  0  0  0
   -3.5910   -2.9470    2.6300 H   0  0  0  0  0  0  0  0  0  0  0  0
   -3.2810   -0.9630   -0.7470 H   0  0  0  0  0  0  0  0  0  0  0  0
   -3.8900   -2.2550   -1.7980 H   0  0  0  0  0  0  0  0  0  0  0  0
   -1.5330   -2.3750   -1.7200 H   0  0  0  0  0  0  0  0  0  0  0  0
   -2.2440   -3.8240   -0.9720 H   0  0  0  0  0  0  0  0  0  0  0  0
   -1.6560   -3.0350    1.2910 H   0  0  0  0  0  0  0  0  0  0  0  0
   -0.7920   -0.5080   -0.1870 H   0  0  0  0  0  0  0  0  0  0  0  0
    2.0600   -1.9510   -4.8300 N   0  0  0  0  0  0  0  0  0  0  0  0
    2.7600   -1.8320   -3.6020 C   0  0  0  0  0  0  0  0  0  0  0  0
    3.7910   -1.1220   -3.5780 O   0  0  0  0  0  0  0  0  0  0  0  0
    2.2720   -2.5350   -2.3930 C   0  0  0  0  0  0  0  0  0  0  0  0
    3.1590   -2.2940   -1.2020 C   0  0  0  0  0  0  0  0  0  0  0  0
    2.6230   -3.0320    0.0300 C   0  0  2  0  0  0  0  0  0  0  0  0
    1.2790   -2.4670    0.2320 N   0  0  0  0  0  0  0  0  0  0  0  0
    3.4920   -2.6390    1.1540 C   0  0  0  0  0  0  0  0  0  0  0  0
    4.6790   -3.0130    1.1970 O   0  0  0  0  0  0  0  0  0  0  0  0
    2.9880   -1.8520    2.1640 O   0  0  0  0  0  0  0  0  0  0  0  0
    2.5720   -2.4220   -5.6010 H   0  0  0  0  0  0  0  0  0  0  0  0
    1.0950   -1.6050   -4.9990 H   0  0  0  0  0  0  0  0  0  0  0  0
    2.2550   -3.6060   -2.5980 H   0  0  0  0  0  0  0  0  0  0  0  0
    1.2580   -2.1860   -2.1020 H   0  0  0  0  0  0  0  0  0  0  0  0
    4.2200   -2.5500   -1.3800 H   0  0  0  0  0  0  0  0  0  0  0  0
    3.1270   -1.2150   -0.9310 H   0  0  0  0  0  0  0  0  0  0  0  0
    2.5860   -4.1060   -0.1480 H   0  0  0  0  0  0  0  0  0  0  0  0
    1.2360   -1.4370    0.4180 H   0  0  0  0  0  0  0  0  0  0  0  0
  1  2  1  0  0  0  0
  2 13  1  1  0  0  0
  2  3  1  0  0  0  0
  3  4  1  0  0  0  0
  3 14  1  0  0  0  0
  4  8  1  0  0  0  0
  5  6  1  0  0  0  0
  5  4  2  0  0  0  0
  6  7  1  0  0  0  0
  7  8  2  0  0  0  0
  7 18  1  0  0  0  0
  9  2  1  0  0  0  0
  9 10  2  0  0  0  0
 11  1  1  0  0  0  0
 12  1  1  0  0  0  0
 15  3  1  0  0  0  0
 16  5  1  0  0  0  0
 17  6  1  0  0  0  0
 19 29  1  0  0  0  0
 19 27  1  0  0  0  0
 20 19  1  0  0  0  0
 21 22  1  0  0  0  0
 21 30  1  0  0  0  0
 21 20  1  0  0  0  0
 22 23  1  0  0  0  0
 23 24  1  0  0  0  0
 23 34  1  1  0  0  0
 24  9  1  0  0  0  0
 25 42  1  0  0  0  0
 25 23  1  0  0  0  0
 26 25  2  0  0  0  0
 28 19  1  0  0  0  0
 31 21  1  0  0  0  0
 32 22  1  0  0  0  0
 33 22  1  0  0  0  0
 35 24  1  0  0  0  0
 36 37  1  0  0  0  0
 37 38  2  0  0  0  0
 37 39  1  0  0  0  0
 39 49  1  0  0  0  0
 39 40  1  0  0  0  0
 40 51  1  0  0  0  0
 40 41  1  0  0  0  0
 41 52  1  6  0  0  0
 41 42  1  0  0  0  0
 41 43  1  0  0  0  0
 42 53  1  0  0  0  0
 43 44  2  0  0  0  0
 43 45  1  0  0  0  0
 46 36  1  0  0  0  0
 47 36  1  0  0  0  0
 48 39  1  0  0  0  0
 50 40  1  0  0  0  0
M  END
$$$$
