HMS.pdb
 OpenBabel07022418373D

 47 47  0  0  1  0  0  0  0  0999 V2000
    2.3210   -3.1890    3.6360 N   0  0  0  0  0  0  0  0  0  0  0  0
    2.5380   -2.7500    2.2220 C   0  0  1  0  0  0  0  0  0  0  0  0
    2.2120   -3.8900    1.3590 C   0  0  0  0  0  0  0  0  0  0  0  0
    2.4230   -3.7460   -0.0780 C   0  0  0  0  0  0  0  0  0  0  0  0
    2.9770   -2.7190   -0.8070 C   0  0  0  0  0  0  0  0  0  0  0  0
    3.0190   -3.0300   -2.1120 N   0  0  0  0  0  0  0  0  0  0  0  0
    2.4870   -4.2610   -2.1960 C   0  0  0  0  0  0  0  0  0  0  0  0
    2.1300   -4.6940   -0.9850 N   0  0  0  0  0  0  0  0  0  0  0  0
    1.7310   -1.5400    2.1310 C   0  0  0  0  0  0  0  0  0  0  0  0
    1.8230   -0.7100    3.1030 O   0  0  0  0  0  0  0  0  0  0  0  0
    1.3900   -3.6950    3.6230 H   0  0  0  0  0  0  0  0  0  0  0  0
    3.0740   -3.8300    3.9230 H   0  0  0  0  0  0  0  0  0  0  0  0
    3.6340   -2.5370    2.1860 H   0  0  0  0  0  0  0  0  0  0  0  0
    1.1900   -4.2990    1.6010 H   0  0  0  0  0  0  0  0  0  0  0  0
    2.8900   -4.7410    1.6880 H   0  0  0  0  0  0  0  0  0  0  0  0
    3.3490   -1.7580   -0.4360 H   0  0  0  0  0  0  0  0  0  0  0  0
    3.3730   -2.4840   -2.9270 H   0  0  0  0  0  0  0  0  0  0  0  0
    2.3650   -4.8250   -3.1160 H   0  0  0  0  0  0  0  0  0  0  0  0
    2.1680    3.5920   -1.3780 C   0  0  0  0  0  0  0  0  0  0  0  0
    0.4420    3.1250   -1.6530 S   0  0  0  0  0  0  0  0  0  0  0  0
   -0.2090    2.2000   -0.1880 C   0  0  0  0  0  0  0  0  0  0  0  0
    0.5060    0.8960   -0.0650 C   0  0  0  0  0  0  0  0  0  0  0  0
    0.1000    0.0820    1.1150 C   0  0  2  0  0  0  0  0  0  0  0  0
    0.8650   -1.1830    1.1050 N   0  0  0  0  0  0  0  0  0  0  0  0
   -1.3440   -0.2210    1.1420 C   0  0  0  0  0  0  0  0  0  0  0  0
   -1.7260   -1.4200    0.9170 O   0  0  0  0  0  0  0  0  0  0  0  0
    2.4520    4.2530   -2.2190 H   0  0  0  0  0  0  0  0  0  0  0  0
    2.3220    4.1580   -0.4430 H   0  0  0  0  0  0  0  0  0  0  0  0
    2.8330    2.6870   -1.4370 H   0  0  0  0  0  0  0  0  0  0  0  0
   -1.2910    2.0350   -0.4330 H   0  0  0  0  0  0  0  0  0  0  0  0
   -0.1000    2.8920    0.6620 H   0  0  0  0  0  0  0  0  0  0  0  0
    1.5890    1.1430    0.0630 H   0  0  0  0  0  0  0  0  0  0  0  0
    0.3350    0.3550   -1.0320 H   0  0  0  0  0  0  0  0  0  0  0  0
    0.4080    0.6050    2.0390 H   0  0  0  0  0  0  0  0  0  0  0  0
    0.6750   -1.7720    0.2830 H   0  0  0  0  0  0  0  0  0  0  0  0
   -3.6340   -0.1100    3.7240 O   0  0  0  0  0  0  0  0  0  0  0  0
   -4.3470    0.6150    2.7990 C   0  0  0  0  0  0  0  0  0  0  0  0
   -3.7870    0.3110    1.4050 C   0  0  2  0  0  0  0  0  0  0  0  0
   -2.3820    0.7030    1.4060 N   0  0  0  0  0  0  0  0  0  0  0  0
   -4.5560    1.0890    0.4060 C   0  0  0  0  0  0  0  0  0  0  0  0
   -4.0350    1.9640   -0.3260 O   0  0  0  0  0  0  0  0  0  0  0  0
   -5.9160    0.8500    0.2620 O   0  0  0  0  0  0  0  0  0  0  0  0
   -3.4640    0.4950    4.5100 H   0  0  0  0  0  0  0  0  0  0  0  0
   -5.4270    0.3580    2.7840 H   0  0  0  0  0  0  0  0  0  0  0  0
   -4.2070    1.7010    2.9610 H   0  0  0  0  0  0  0  0  0  0  0  0
   -3.8950   -0.7760    1.1740 H   0  0  0  0  0  0  0  0  0  0  0  0
   -2.1690    1.6850    1.6280 H   0  0  0  0  0  0  0  0  0  0  0  0
  1 12  1  0  0  0  0
  2 13  1  6  0  0  0
  2  1  1  0  0  0  0
  3 14  1  0  0  0  0
  3 15  1  0  0  0  0
  3  2  1  0  0  0  0
  4  3  1  0  0  0  0
  5 16  1  0  0  0  0
  5  4  2  0  0  0  0
  6  5  1  0  0  0  0
  7  6  1  0  0  0  0
  7  8  2  0  0  0  0
  8  4  1  0  0  0  0
  9  2  1  0  0  0  0
  9 10  2  0  0  0  0
 11  1  1  0  0  0  0
 17  6  1  0  0  0  0
 18  7  1  0  0  0  0
 19 28  1  0  0  0  0
 20 19  1  0  0  0  0
 20 21  1  0  0  0  0
 21 22  1  0  0  0  0
 21 31  1  0  0  0  0
 22 32  1  0  0  0  0
 22 23  1  0  0  0  0
 23 25  1  0  0  0  0
 23 34  1  1  0  0  0
 24 23  1  0  0  0  0
 24  9  1  0  0  0  0
 25 39  1  0  0  0  0
 26 25  2  0  0  0  0
 27 19  1  0  0  0  0
 29 19  1  0  0  0  0
 30 21  1  0  0  0  0
 33 22  1  0  0  0  0
 35 24  1  0  0  0  0
 36 43  1  0  0  0  0
 37 45  1  0  0  0  0
 37 36  1  0  0  0  0
 38 46  1  6  0  0  0
 38 39  1  0  0  0  0
 38 37  1  0  0  0  0
 39 47  1  0  0  0  0
 40 38  1  0  0  0  0
 41 40  2  0  0  0  0
 42 40  1  0  0  0  0
 44 37  1  0  0  0  0
M  END
$$$$
