HMV.pdb
 OpenBabel07022418373D

 52 52  0  0  1  0  0  0  0  0999 V2000
    3.0110   -3.9160    0.6120 N   0  0  0  0  0  0  0  0  0  0  0  0
    2.7040   -2.4690    0.3370 C   0  0  1  0  0  0  0  0  0  0  0  0
    2.1940   -2.4600   -1.0580 C   0  0  0  0  0  0  0  0  0  0  0  0
    1.8370   -1.1830   -1.6640 C   0  0  0  0  0  0  0  0  0  0  0  0
    0.6450   -0.5180   -1.7870 C   0  0  0  0  0  0  0  0  0  0  0  0
    0.8420    0.6280   -2.4960 N   0  0  0  0  0  0  0  0  0  0  0  0
    2.1410    0.6970   -2.8230 C   0  0  0  0  0  0  0  0  0  0  0  0
    2.7270   -0.3810   -2.3270 N   0  0  0  0  0  0  0  0  0  0  0  0
    1.8150   -2.0750    1.4230 C   0  0  0  0  0  0  0  0  0  0  0  0
    1.5100   -2.9210    2.3510 O   0  0  0  0  0  0  0  0  0  0  0  0
    3.3470   -4.3560   -0.2880 H   0  0  0  0  0  0  0  0  0  0  0  0
    2.1100   -4.3700    0.9090 H   0  0  0  0  0  0  0  0  0  0  0  0
    3.7040   -1.9680    0.4190 H   0  0  0  0  0  0  0  0  0  0  0  0
    1.2480   -3.0800   -1.0440 H   0  0  0  0  0  0  0  0  0  0  0  0
    2.8560   -3.0790   -1.7430 H   0  0  0  0  0  0  0  0  0  0  0  0
   -0.3190   -0.8190   -1.4090 H   0  0  0  0  0  0  0  0  0  0  0  0
    0.0960    1.3010   -2.7220 H   0  0  0  0  0  0  0  0  0  0  0  0
    2.5500    1.5210   -3.3920 H   0  0  0  0  0  0  0  0  0  0  0  0
    3.1340    2.6110    1.5640 C   0  0  0  0  0  0  0  0  0  0  0  0
    1.4210    2.3060    1.1790 S   0  0  0  0  0  0  0  0  0  0  0  0
    0.3690    2.0290    2.5730 C   0  0  0  0  0  0  0  0  0  0  0  0
    0.5750    0.8170    3.3860 C   0  0  0  0  0  0  0  0  0  0  0  0
    0.3910   -0.4770    2.6940 C   0  0  2  0  0  0  0  0  0  0  0  0
    1.2180   -0.7880    1.5890 N   0  0  0  0  0  0  0  0  0  0  0  0
   -1.0680   -0.6980    2.5060 C   0  0  0  0  0  0  0  0  0  0  0  0
   -1.8120   -0.2870    3.4480 O   0  0  0  0  0  0  0  0  0  0  0  0
    3.3780    3.6640    1.2350 H   0  0  0  0  0  0  0  0  0  0  0  0
    3.7910    1.9570    0.9650 H   0  0  0  0  0  0  0  0  0  0  0  0
    3.4030    2.5640    2.6190 H   0  0  0  0  0  0  0  0  0  0  0  0
    0.3900    2.9440    3.2370 H   0  0  0  0  0  0  0  0  0  0  0  0
   -0.7040    2.0170    2.2040 H   0  0  0  0  0  0  0  0  0  0  0  0
    1.5220    0.8370    3.9870 H   0  0  0  0  0  0  0  0  0  0  0  0
   -0.2170    0.8440    4.2040 H   0  0  0  0  0  0  0  0  0  0  0  0
    0.6390   -1.2850    3.4960 H   0  0  0  0  0  0  0  0  0  0  0  0
    1.4410   -0.1020    0.8480 H   0  0  0  0  0  0  0  0  0  0  0  0
   -3.1950    0.6300    0.0930 C   0  0  0  0  0  0  0  0  0  0  0  0
   -3.5830   -0.8470    0.0800 C   0  0  0  0  0  0  0  0  0  0  0  0
   -3.1120   -1.4730   -1.1870 C   0  0  0  0  0  0  0  0  0  0  0  0
   -3.0550   -1.4660    1.3290 C   0  0  2  0  0  0  0  0  0  0  0  0
   -1.6020   -1.3200    1.3720 N   0  0  0  0  0  0  0  0  0  0  0  0
   -3.3650   -2.9390    1.3150 C   0  0  0  0  0  0  0  0  0  0  0  0
   -2.4430   -3.7870    1.3400 O   0  0  0  0  0  0  0  0  0  0  0  0
   -4.6660   -3.4070    1.2750 O   0  0  0  0  0  0  0  0  0  0  0  0
   -2.0920    0.6770   -0.0130 H   0  0  0  0  0  0  0  0  0  0  0  0
   -3.4970    1.0660    1.0620 H   0  0  0  0  0  0  0  0  0  0  0  0
   -3.6820    1.1280   -0.7710 H   0  0  0  0  0  0  0  0  0  0  0  0
   -4.6940   -0.9100    0.1180 H   0  0  0  0  0  0  0  0  0  0  0  0
   -3.9020   -2.0320   -1.7050 H   0  0  0  0  0  0  0  0  0  0  0  0
   -2.2600   -2.1780   -1.0310 H   0  0  0  0  0  0  0  0  0  0  0  0
   -2.7450   -0.7010   -1.8940 H   0  0  0  0  0  0  0  0  0  0  0  0
   -3.5410   -1.0360    2.2060 H   0  0  0  0  0  0  0  0  0  0  0  0
   -0.9710   -1.6470    0.6430 H   0  0  0  0  0  0  0  0  0  0  0  0
  1 12  1  0  0  0  0
  2 13  1  1  0  0  0
  2  1  1  0  0  0  0
  2  9  1  0  0  0  0
  3 14  1  0  0  0  0
  3  2  1  0  0  0  0
  4  3  1  0  0  0  0
  5  4  2  0  0  0  0
  5 16  1  0  0  0  0
  6  5  1  0  0  0  0
  7  6  1  0  0  0  0
  7  8  2  0  0  0  0
  8  4  1  0  0  0  0
  9 24  1  0  0  0  0
  9 10  2  0  0  0  0
 11  1  1  0  0  0  0
 15  3  1  0  0  0  0
 17  6  1  0  0  0  0
 18  7  1  0  0  0  0
 19 29  1  0  0  0  0
 20 19  1  0  0  0  0
 20 21  1  0  0  0  0
 21 30  1  0  0  0  0
 21 22  1  0  0  0  0
 22 32  1  0  0  0  0
 22 33  1  0  0  0  0
 23 22  1  0  0  0  0
 23 34  1  1  0  0  0
 24 23  1  0  0  0  0
 25 23  1  0  0  0  0
 25 26  2  0  0  0  0
 27 19  1  0  0  0  0
 28 19  1  0  0  0  0
 31 21  1  0  0  0  0
 35 24  1  0  0  0  0
 36 45  1  0  0  0  0
 37 36  1  0  0  0  0
 37 47  1  0  0  0  0
 37 39  1  0  0  0  0
 38 49  1  0  0  0  0
 38 37  1  0  0  0  0
 39 40  1  0  0  0  0
 39 51  1  1  0  0  0
 40 25  1  0  0  0  0
 41 39  1  0  0  0  0
 41 42  1  0  0  0  0
 43 41  2  0  0  0  0
 44 36  1  0  0  0  0
 46 36  1  0  0  0  0
 48 38  1  0  0  0  0
 50 38  1  0  0  0  0
 52 40  1  0  0  0  0
M  END
$$$$
