HNC.pdb
 OpenBabel07022418353D

 44 44  0  0  1  0  0  0  0  0999 V2000
   -0.3480   -3.3950    0.8040 N   0  0  0  0  0  0  0  0  0  0  0  0
    1.0530   -2.9780    0.6560 C   0  0  1  0  0  0  0  0  0  0  0  0
    1.4950   -3.5450   -0.6620 C   0  0  0  0  0  0  0  0  0  0  0  0
    2.8800   -3.2980   -1.0480 C   0  0  0  0  0  0  0  0  0  0  0  0
    3.4030   -3.7650   -2.2610 C   0  0  0  0  0  0  0  0  0  0  0  0
    4.6750   -3.3800   -2.3150 N   0  0  0  0  0  0  0  0  0  0  0  0
    5.0130   -2.6920   -1.2120 C   0  0  0  0  0  0  0  0  0  0  0  0
    3.9010   -2.6610   -0.4650 N   0  0  0  0  0  0  0  0  0  0  0  0
    1.1180   -1.4940    0.5780 C   0  0  0  0  0  0  0  0  0  0  0  0
    2.2470   -0.9620    0.5480 O   0  0  0  0  0  0  0  0  0  0  0  0
   -0.4000   -4.4360    0.8660 H   0  0  0  0  0  0  0  0  0  0  0  0
   -0.9240   -3.1120    0.0050 H   0  0  0  0  0  0  0  0  0  0  0  0
    1.6270   -3.3260    1.5190 H   0  0  0  0  0  0  0  0  0  0  0  0
    0.8360   -3.0630   -1.4310 H   0  0  0  0  0  0  0  0  0  0  0  0
    1.2360   -4.6380   -0.7440 H   0  0  0  0  0  0  0  0  0  0  0  0
    2.8610   -4.3410   -3.0260 H   0  0  0  0  0  0  0  0  0  0  0  0
    5.2950   -3.6140   -3.1460 H   0  0  0  0  0  0  0  0  0  0  0  0
    6.0010   -2.2870   -1.0520 H   0  0  0  0  0  0  0  0  0  0  0  0
   -0.8450    3.3210   -2.2130 N   0  0  0  0  0  0  0  0  0  0  0  0
   -0.2240    2.7730   -1.0440 C   0  0  0  0  0  0  0  0  0  0  0  0
    0.4020    3.5680   -0.3200 O   0  0  0  0  0  0  0  0  0  0  0  0
   -0.3790    1.3390   -0.8050 C   0  0  0  0  0  0  0  0  0  0  0  0
    0.2010    0.8010    0.4570 C   0  0  2  0  0  0  0  0  0  0  0  0
   -0.0090   -0.6610    0.5350 N   0  0  0  0  0  0  0  0  0  0  0  0
   -0.4140    1.4110    1.6720 C   0  0  0  0  0  0  0  0  0  0  0  0
   -0.3850    2.6380    1.8970 O   0  0  0  0  0  0  0  0  0  0  0  0
   -0.6110    4.2670   -2.5790 H   0  0  0  0  0  0  0  0  0  0  0  0
   -1.5690    2.7920   -2.7600 H   0  0  0  0  0  0  0  0  0  0  0  0
   -1.4600    1.1010   -0.9300 H   0  0  0  0  0  0  0  0  0  0  0  0
    0.1010    0.8240   -1.6950 H   0  0  0  0  0  0  0  0  0  0  0  0
    1.2830    1.0200    0.4660 H   0  0  0  0  0  0  0  0  0  0  0  0
   -0.9670   -1.0650    0.5560 H   0  0  0  0  0  0  0  0  0  0  0  0
   -1.0670    0.5940    2.6350 N   0  0  0  0  0  0  0  0  0  0  0  0
   -1.6460    1.2240    3.7930 C   0  0  1  0  0  0  0  0  0  0  0  0
   -3.1260    0.9450    3.9210 C   0  0  0  0  0  0  0  0  0  0  0  0
   -4.0660    1.5360    2.4990 S   0  0  0  0  0  0  0  0  0  0  0  0
   -1.0010    0.6690    5.0180 C   0  0  0  0  0  0  0  0  0  0  0  0
   -0.1140   -0.2030    4.9280 O   0  0  0  0  0  0  0  0  0  0  0  0
   -1.3780    1.1150    6.2920 O   0  0  0  0  0  0  0  0  0  0  0  0
   -1.1100   -0.4350    2.4820 H   0  0  0  0  0  0  0  0  0  0  0  0
   -1.5170    2.3080    3.8130 H   0  0  0  0  0  0  0  0  0  0  0  0
   -3.5060    1.4720    4.8190 H   0  0  0  0  0  0  0  0  0  0  0  0
   -3.2420   -0.1400    4.0930 H   0  0  0  0  0  0  0  0  0  0  0  0
   -3.1390    1.8950    1.4790 H   0  0  0  0  0  0  0  0  0  0  0  0
  1 11  1  0  0  0  0
  2  1  1  0  0  0  0
  2 13  1  1  0  0  0
  3  2  1  0  0  0  0
  4  3  1  0  0  0  0
  4  8  1  0  0  0  0
  5  4  2  0  0  0  0
  6  5  1  0  0  0  0
  6  7  1  0  0  0  0
  7 18  1  0  0  0  0
  7  8  2  0  0  0  0
  9  2  1  0  0  0  0
 10  9  2  0  0  0  0
 12  1  1  0  0  0  0
 14  3  1  0  0  0  0
 15  3  1  0  0  0  0
 16  5  1  0  0  0  0
 17  6  1  0  0  0  0
 19 20  1  0  0  0  0
 20 22  1  0  0  0  0
 20 21  2  0  0  0  0
 22 23  1  0  0  0  0
 23 31  1  1  0  0  0
 23 24  1  0  0  0  0
 23 25  1  0  0  0  0
 24 32  1  0  0  0  0
 24  9  1  0  0  0  0
 25 26  2  0  0  0  0
 25 33  1  0  0  0  0
 27 19  1  0  0  0  0
 28 19  1  0  0  0  0
 29 22  1  0  0  0  0
 30 22  1  0  0  0  0
 33 34  1  0  0  0  0
 34 41  1  6  0  0  0
 34 35  1  0  0  0  0
 34 37  1  0  0  0  0
 35 43  1  0  0  0  0
 35 42  1  0  0  0  0
 36 35  1  0  0  0  0
 37 39  1  0  0  0  0
 38 37  2  0  0  0  0
 40 33  1  0  0  0  0
 44 36  1  0  0  0  0
M  END
$$$$
