HND.pdb
 OpenBabel07022418353D

 46 46  0  0  1  0  0  0  0  0999 V2000
    0.4820   -2.2870   -1.0590 N   0  0  0  0  0  0  0  0  0  0  0  0
    1.6280   -2.0480   -0.2190 C   0  0  1  0  0  0  0  0  0  0  0  0
    2.8420   -2.0590   -1.1330 C   0  0  0  0  0  0  0  0  0  0  0  0
    4.1070   -1.8260   -0.4120 C   0  0  0  0  0  0  0  0  0  0  0  0
    4.7050   -0.5980   -0.1740 C   0  0  0  0  0  0  0  0  0  0  0  0
    5.8470   -0.7750    0.5100 N   0  0  0  0  0  0  0  0  0  0  0  0
    5.9860   -2.0970    0.7110 C   0  0  0  0  0  0  0  0  0  0  0  0
    4.9360   -2.7230    0.1540 N   0  0  0  0  0  0  0  0  0  0  0  0
    1.5190   -0.7950    0.5580 C   0  0  0  0  0  0  0  0  0  0  0  0
    2.4180   -0.4290    1.3550 O   0  0  0  0  0  0  0  0  0  0  0  0
   -0.3270   -2.6990   -0.5540 H   0  0  0  0  0  0  0  0  0  0  0  0
    0.2530   -1.5230   -1.7000 H   0  0  0  0  0  0  0  0  0  0  0  0
    1.7300   -2.9460    0.4400 H   0  0  0  0  0  0  0  0  0  0  0  0
    2.8740   -2.9760   -1.7220 H   0  0  0  0  0  0  0  0  0  0  0  0
    2.7200   -1.1940   -1.8500 H   0  0  0  0  0  0  0  0  0  0  0  0
    4.2930    0.3440   -0.5010 H   0  0  0  0  0  0  0  0  0  0  0  0
    6.5180   -0.0170    0.8330 H   0  0  0  0  0  0  0  0  0  0  0  0
    6.8180   -2.5460    1.2380 H   0  0  0  0  0  0  0  0  0  0  0  0
   -1.6940    3.4600   -1.3390 N   0  0  0  0  0  0  0  0  0  0  0  0
   -1.2720    2.3920   -0.4810 C   0  0  0  0  0  0  0  0  0  0  0  0
   -2.0100    1.3740   -0.4930 O   0  0  0  0  0  0  0  0  0  0  0  0
   -0.0460    2.5030    0.3520 C   0  0  0  0  0  0  0  0  0  0  0  0
    0.2050    1.2780    1.1510 C   0  0  2  0  0  0  0  0  0  0  0  0
    0.3940    0.0680    0.4520 N   0  0  0  0  0  0  0  0  0  0  0  0
   -0.9310    1.1110    2.0900 C   0  0  0  0  0  0  0  0  0  0  0  0
   -1.3350    2.0190    2.8490 O   0  0  0  0  0  0  0  0  0  0  0  0
   -1.9360    3.2080   -2.3390 H   0  0  0  0  0  0  0  0  0  0  0  0
   -1.7730    4.4390   -1.0460 H   0  0  0  0  0  0  0  0  0  0  0  0
   -0.2300    3.3410    1.0580 H   0  0  0  0  0  0  0  0  0  0  0  0
    0.7700    2.8140   -0.3100 H   0  0  0  0  0  0  0  0  0  0  0  0
    1.1140    1.4290    1.8080 H   0  0  0  0  0  0  0  0  0  0  0  0
   -0.3570   -0.2360   -0.2110 H   0  0  0  0  0  0  0  0  0  0  0  0
   -1.5960   -0.1430    2.1310 N   0  0  0  0  0  0  0  0  0  0  0  0
   -2.7110   -0.4170    3.0050 C   0  0  1  0  0  0  0  0  0  0  0  0
   -3.9710   -0.8070    2.2820 C   0  0  0  0  0  0  0  0  0  0  0  0
   -3.8740   -2.0100    1.4620 C   0  0  0  0  0  0  0  0  0  0  0  0
   -2.8110   -2.6700    1.3910 O   0  0  0  0  0  0  0  0  0  0  0  0
   -2.3260   -1.5460    3.8940 C   0  0  0  0  0  0  0  0  0  0  0  0
   -3.1510   -1.9740    4.7600 O   0  0  0  0  0  0  0  0  0  0  0  0
   -4.9710   -2.4480    0.7380 O   0  0  0  0  0  0  0  0  0  0  0  0
   -1.0940   -2.1710    3.8330 O   0  0  0  0  0  0  0  0  0  0  0  0
   -1.2860   -0.9370    1.5070 H   0  0  0  0  0  0  0  0  0  0  0  0
   -2.9030    0.5030    3.6000 H   0  0  0  0  0  0  0  0  0  0  0  0
   -4.3470    0.0390    1.6520 H   0  0  0  0  0  0  0  0  0  0  0  0
   -4.7520   -0.9430    3.0690 H   0  0  0  0  0  0  0  0  0  0  0  0
   -4.9790   -3.4140    0.4170 H   0  0  0  0  0  0  0  0  0  0  0  0
  1 11  1  0  0  0  0
  1  2  1  0  0  0  0
  2 13  1  1  0  0  0
  2  9  1  0  0  0  0
  3  4  1  0  0  0  0
  3  2  1  0  0  0  0
  4  5  2  0  0  0  0
  4  8  1  0  0  0  0
  5  6  1  0  0  0  0
  6  7  1  0  0  0  0
  6 17  1  0  0  0  0
  7 18  1  0  0  0  0
  8  7  2  0  0  0  0
  9 10  2  0  0  0  0
 12  1  1  0  0  0  0
 14  3  1  0  0  0  0
 15  3  1  0  0  0  0
 16  5  1  0  0  0  0
 19 28  1  0  0  0  0
 19 20  1  0  0  0  0
 20 22  1  0  0  0  0
 21 20  2  0  0  0  0
 22 29  1  0  0  0  0
 22 23  1  0  0  0  0
 23 31  1  1  0  0  0
 23 25  1  0  0  0  0
 24  9  1  0  0  0  0
 24 23  1  0  0  0  0
 25 33  1  0  0  0  0
 25 26  2  0  0  0  0
 27 19  1  0  0  0  0
 30 22  1  0  0  0  0
 32 24  1  0  0  0  0
 33 34  1  0  0  0  0
 34 43  1  1  0  0  0
 34 38  1  0  0  0  0
 35 34  1  0  0  0  0
 35 45  1  0  0  0  0
 36 35  1  0  0  0  0
 37 36  2  0  0  0  0
 38 39  1  0  0  0  0
 40 36  1  0  0  0  0
 41 38  2  0  0  0  0
 42 33  1  0  0  0  0
 44 35  1  0  0  0  0
 46 40  1  0  0  0  0
M  END
$$$$
