HNI.pdb
 OpenBabel07022418353D

 52 52  0  0  1  0  0  0  0  0999 V2000
    2.7210   -2.3550    3.5070 N   0  0  0  0  0  0  0  0  0  0  0  0
    1.9780   -1.2440    4.0200 C   0  0  1  0  0  0  0  0  0  0  0  0
    2.8570   -0.3270    4.7980 C   0  0  0  0  0  0  0  0  0  0  0  0
    3.9490    0.1990    3.9250 C   0  0  0  0  0  0  0  0  0  0  0  0
    4.9580    1.0670    4.2660 C   0  0  0  0  0  0  0  0  0  0  0  0
    5.7070    1.2620    3.1720 N   0  0  0  0  0  0  0  0  0  0  0  0
    5.1830    0.5370    2.1730 C   0  0  0  0  0  0  0  0  0  0  0  0
    4.1120   -0.1110    2.6310 N   0  0  0  0  0  0  0  0  0  0  0  0
    1.1790   -0.5480    2.9830 C   0  0  0  0  0  0  0  0  0  0  0  0
    0.4920    0.4430    3.3410 O   0  0  0  0  0  0  0  0  0  0  0  0
    2.0740   -3.1300    3.2460 H   0  0  0  0  0  0  0  0  0  0  0  0
    3.3730   -2.6690    4.2710 H   0  0  0  0  0  0  0  0  0  0  0  0
    1.2240   -1.6700    4.7450 H   0  0  0  0  0  0  0  0  0  0  0  0
    3.3380   -0.8980    5.6040 H   0  0  0  0  0  0  0  0  0  0  0  0
    2.2890    0.4910    5.2790 H   0  0  0  0  0  0  0  0  0  0  0  0
    5.1050    1.5010    5.2370 H   0  0  0  0  0  0  0  0  0  0  0  0
    6.5680    1.8790    3.0890 H   0  0  0  0  0  0  0  0  0  0  0  0
    5.5650    0.4870    1.1680 H   0  0  0  0  0  0  0  0  0  0  0  0
    2.1680   -1.7950   -1.0000 N   0  0  0  0  0  0  0  0  0  0  0  0
    2.0740   -0.4030   -1.1880 C   0  0  0  0  0  0  0  0  0  0  0  0
    2.7940    0.1380   -2.0670 O   0  0  0  0  0  0  0  0  0  0  0  0
    1.1800    0.4440   -0.4140 C   0  0  0  0  0  0  0  0  0  0  0  0
    0.3570   -0.2390    0.6150 C   0  0  2  0  0  0  0  0  0  0  0  0
    1.1370   -0.9190    1.6270 N   0  0  0  0  0  0  0  0  0  0  0  0
   -0.7200   -1.0920    0.0740 C   0  0  0  0  0  0  0  0  0  0  0  0
   -0.8700   -2.2740    0.5070 O   0  0  0  0  0  0  0  0  0  0  0  0
    1.3300   -2.3790   -1.2140 H   0  0  0  0  0  0  0  0  0  0  0  0
    3.0170   -2.2940   -0.6600 H   0  0  0  0  0  0  0  0  0  0  0  0
    0.4970    1.0210   -1.0740 H   0  0  0  0  0  0  0  0  0  0  0  0
    1.8070    1.2100    0.1130 H   0  0  0  0  0  0  0  0  0  0  0  0
   -0.1710    0.6020    1.1610 H   0  0  0  0  0  0  0  0  0  0  0  0
    1.7050   -1.7370    1.3300 H   0  0  0  0  0  0  0  0  0  0  0  0
   -6.3950   -1.0180   -0.8910 C   0  0  0  0  0  0  0  0  0  0  0  0
   -5.1710   -1.6990   -1.5170 C   0  0  0  0  0  0  0  0  0  0  0  0
   -3.9750   -0.9130   -1.0960 C   0  0  2  0  0  0  0  0  0  0  0  0
   -4.0300    0.5210   -1.5610 C   0  0  0  0  0  0  0  0  0  0  0  0
   -2.6790   -1.5870   -1.4160 C   0  0  2  0  0  0  0  0  0  0  0  0
   -1.6300   -0.6710   -0.9300 N   0  0  0  0  0  0  0  0  0  0  0  0
   -2.5510   -1.8380   -2.8480 C   0  0  0  0  0  0  0  0  0  0  0  0
   -3.3580   -2.6240   -3.3980 O   0  0  0  0  0  0  0  0  0  0  0  0
   -1.5790   -1.2600   -3.6720 O   0  0  0  0  0  0  0  0  0  0  0  0
   -6.0730   -0.4660    0.0100 H   0  0  0  0  0  0  0  0  0  0  0  0
   -6.7810   -0.2970   -1.6230 H   0  0  0  0  0  0  0  0  0  0  0  0
   -7.1480   -1.7890   -0.6130 H   0  0  0  0  0  0  0  0  0  0  0  0
   -5.2880   -1.6360   -2.6340 H   0  0  0  0  0  0  0  0  0  0  0  0
   -5.0840   -2.7480   -1.2310 H   0  0  0  0  0  0  0  0  0  0  0  0
   -4.0260   -0.8450    0.0350 H   0  0  0  0  0  0  0  0  0  0  0  0
   -3.4790    1.1530   -0.8530 H   0  0  0  0  0  0  0  0  0  0  0  0
   -3.6080    0.6180   -2.6030 H   0  0  0  0  0  0  0  0  0  0  0  0
   -5.0840    0.8280   -1.5990 H   0  0  0  0  0  0  0  0  0  0  0  0
   -2.5870   -2.5390   -0.8810 H   0  0  0  0  0  0  0  0  0  0  0  0
   -1.5450    0.2750   -1.3070 H   0  0  0  0  0  0  0  0  0  0  0  0
  1  2  1  0  0  0  0
  1 12  1  0  0  0  0
  2 13  1  1  0  0  0
  2  3  1  0  0  0  0
  3 15  1  0  0  0  0
  3 14  1  0  0  0  0
  4  5  2  0  0  0  0
  4  3  1  0  0  0  0
  5 16  1  0  0  0  0
  6  5  1  0  0  0  0
  7  8  2  0  0  0  0
  7  6  1  0  0  0  0
  8  4  1  0  0  0  0
  9 10  2  0  0  0  0
  9  2  1  0  0  0  0
 11  1  1  0  0  0  0
 17  6  1  0  0  0  0
 18  7  1  0  0  0  0
 19 28  1  0  0  0  0
 20 19  1  0  0  0  0
 20 22  1  0  0  0  0
 21 20  2  0  0  0  0
 22 30  1  0  0  0  0
 22 23  1  0  0  0  0
 23 31  1  1  0  0  0
 23 24  1  0  0  0  0
 24  9  1  0  0  0  0
 25 26  2  0  0  0  0
 25 23  1  0  0  0  0
 27 19  1  0  0  0  0
 29 22  1  0  0  0  0
 32 24  1  0  0  0  0
 33 44  1  0  0  0  0
 33 42  1  0  0  0  0
 34 46  1  0  0  0  0
 34 35  1  0  0  0  0
 34 33  1  0  0  0  0
 35 47  1  1  0  0  0
 36 35  1  0  0  0  0
 36 48  1  0  0  0  0
 37 35  1  0  0  0  0
 37 38  1  0  0  0  0
 37 51  1  1  0  0  0
 38 25  1  0  0  0  0
 39 37  1  0  0  0  0
 40 39  1  0  0  0  0
 41 39  2  0  0  0  0
 43 33  1  0  0  0  0
 45 34  1  0  0  0  0
 49 36  1  0  0  0  0
 50 36  1  0  0  0  0
 52 38  1  0  0  0  0
M  END
$$$$
