HNN.pdb
 OpenBabel07022418353D

 47 47  0  0  1  0  0  0  0  0999 V2000
    0.9170   -2.0700   -1.2740 N   0  0  0  0  0  0  0  0  0  0  0  0
    1.9620   -1.8210   -0.2900 C   0  0  1  0  0  0  0  0  0  0  0  0
    3.2370   -1.5490   -1.0510 C   0  0  0  0  0  0  0  0  0  0  0  0
    4.3630   -1.2840   -0.1330 C   0  0  0  0  0  0  0  0  0  0  0  0
    4.7550   -0.0660    0.3470 C   0  0  0  0  0  0  0  0  0  0  0  0
    5.8190   -0.2650    1.1420 N   0  0  0  0  0  0  0  0  0  0  0  0
    6.0720   -1.5810    1.1460 C   0  0  0  0  0  0  0  0  0  0  0  0
    5.1870   -2.2160    0.3690 N   0  0  0  0  0  0  0  0  0  0  0  0
    1.5520   -0.7060    0.5780 C   0  0  0  0  0  0  0  0  0  0  0  0
    2.2900   -0.3480    1.5150 O   0  0  0  0  0  0  0  0  0  0  0  0
   -0.0000   -2.2200   -0.8330 H   0  0  0  0  0  0  0  0  0  0  0  0
    0.8350   -1.3290   -1.9790 H   0  0  0  0  0  0  0  0  0  0  0  0
    2.0670   -2.7770    0.2880 H   0  0  0  0  0  0  0  0  0  0  0  0
    3.0730   -0.6770   -1.7020 H   0  0  0  0  0  0  0  0  0  0  0  0
    3.4600   -2.4440   -1.6700 H   0  0  0  0  0  0  0  0  0  0  0  0
    4.3040    0.9130    0.1390 H   0  0  0  0  0  0  0  0  0  0  0  0
    6.3690    0.4700    1.6740 H   0  0  0  0  0  0  0  0  0  0  0  0
    6.8720   -2.0440    1.6990 H   0  0  0  0  0  0  0  0  0  0  0  0
   -1.8230    3.4790   -1.1580 N   0  0  0  0  0  0  0  0  0  0  0  0
   -1.4010    2.3550   -0.4130 C   0  0  0  0  0  0  0  0  0  0  0  0
   -2.0030    1.2700   -0.6750 O   0  0  0  0  0  0  0  0  0  0  0  0
   -0.3270    2.4110    0.6140 C   0  0  0  0  0  0  0  0  0  0  0  0
   -0.0680    1.0970    1.2510 C   0  0  2  0  0  0  0  0  0  0  0  0
    0.3450    0.0300    0.4380 N   0  0  0  0  0  0  0  0  0  0  0  0
   -1.2880    0.7170    2.0040 C   0  0  0  0  0  0  0  0  0  0  0  0
   -1.8620    1.4780    2.8240 O   0  0  0  0  0  0  0  0  0  0  0  0
   -1.1020    3.9900   -1.7120 H   0  0  0  0  0  0  0  0  0  0  0  0
   -2.7980    3.8440   -1.2030 H   0  0  0  0  0  0  0  0  0  0  0  0
   -0.7440    3.0850    1.4110 H   0  0  0  0  0  0  0  0  0  0  0  0
    0.5710    2.9460    0.2540 H   0  0  0  0  0  0  0  0  0  0  0  0
    0.7360    1.2640    2.0290 H   0  0  0  0  0  0  0  0  0  0  0  0
   -0.2870   -0.2610   -0.3450 H   0  0  0  0  0  0  0  0  0  0  0  0
   -2.9340   -2.8790    0.2680 N   0  0  0  0  0  0  0  0  0  0  0  0
   -4.0520   -2.0550    0.4890 C   0  0  0  0  0  0  0  0  0  0  0  0
   -5.0010   -2.1550   -0.3430 O   0  0  0  0  0  0  0  0  0  0  0  0
   -4.2210   -1.0950    1.5890 C   0  0  0  0  0  0  0  0  0  0  0  0
   -3.0570   -0.9910    2.5230 C   0  0  2  0  0  0  0  0  0  0  0  0
   -1.8610   -0.5690    1.8080 N   0  0  0  0  0  0  0  0  0  0  0  0
   -2.8410   -2.2510    3.2660 C   0  0  0  0  0  0  0  0  0  0  0  0
   -3.8290   -2.7090    3.9030 O   0  0  0  0  0  0  0  0  0  0  0  0
   -1.6680   -2.9590    3.3220 O   0  0  0  0  0  0  0  0  0  0  0  0
   -2.3360   -2.6770   -0.5770 H   0  0  0  0  0  0  0  0  0  0  0  0
   -2.6540   -3.6760    0.8770 H   0  0  0  0  0  0  0  0  0  0  0  0
   -4.3920   -0.0820    1.1510 H   0  0  0  0  0  0  0  0  0  0  0  0
   -5.1220   -1.3820    2.1900 H   0  0  0  0  0  0  0  0  0  0  0  0
   -3.3120   -0.1460    3.2230 H   0  0  0  0  0  0  0  0  0  0  0  0
   -1.4370   -1.2650    1.1370 H   0  0  0  0  0  0  0  0  0  0  0  0
  1 11  1  0  0  0  0
  1  2  1  0  0  0  0
  2 13  1  1  0  0  0
  2  9  1  0  0  0  0
  3  2  1  0  0  0  0
  3  4  1  0  0  0  0
  4  5  2  0  0  0  0
  4  8  1  0  0  0  0
  5  6  1  0  0  0  0
  6  7  1  0  0  0  0
  6 17  1  0  0  0  0
  7 18  1  0  0  0  0
  8  7  2  0  0  0  0
  9 10  2  0  0  0  0
 12  1  1  0  0  0  0
 14  3  1  0  0  0  0
 15  3  1  0  0  0  0
 16  5  1  0  0  0  0
 19 20  1  0  0  0  0
 20 22  1  0  0  0  0
 21 20  2  0  0  0  0
 22 23  1  0  0  0  0
 22 29  1  0  0  0  0
 23 25  1  0  0  0  0
 23 31  1  1  0  0  0
 24  9  1  0  0  0  0
 24 23  1  0  0  0  0
 25 26  2  0  0  0  0
 27 19  1  0  0  0  0
 28 19  1  0  0  0  0
 30 22  1  0  0  0  0
 32 24  1  0  0  0  0
 33 34  1  0  0  0  0
 33 43  1  0  0  0  0
 34 36  1  0  0  0  0
 35 34  2  0  0  0  0
 36 45  1  0  0  0  0
 36 37  1  0  0  0  0
 37 46  1  1  0  0  0
 37 39  1  0  0  0  0
 38 25  1  0  0  0  0
 38 37  1  0  0  0  0
 39 41  2  0  0  0  0
 39 40  1  0  0  0  0
 42 33  1  0  0  0  0
 44 36  1  0  0  0  0
 47 38  1  0  0  0  0
M  END
$$$$
