HNP.pdb
 OpenBabel07022418353D

 47 48  0  0  1  0  0  0  0  0999 V2000
    4.0170    0.3390    3.7500 N   0  0  0  0  0  0  0  0  0  0  0  0
    3.4150   -0.3610    2.5950 C   0  0  1  0  0  0  0  0  0  0  0  0
    3.4090   -1.8260    2.9250 C   0  0  0  0  0  0  0  0  0  0  0  0
    2.8530   -2.7140    1.9170 C   0  0  0  0  0  0  0  0  0  0  0  0
    1.5560   -3.1620    1.7920 C   0  0  0  0  0  0  0  0  0  0  0  0
    1.4360   -3.9900    0.7460 N   0  0  0  0  0  0  0  0  0  0  0  0
    2.6730   -4.0730    0.1970 C   0  0  0  0  0  0  0  0  0  0  0  0
    3.5170   -3.3140    0.8930 N   0  0  0  0  0  0  0  0  0  0  0  0
    2.0280    0.1080    2.4000 C   0  0  0  0  0  0  0  0  0  0  0  0
    1.4660    0.7140    3.3660 O   0  0  0  0  0  0  0  0  0  0  0  0
    3.4860   -0.0060    4.5890 H   0  0  0  0  0  0  0  0  0  0  0  0
    3.7470    1.3500    3.6540 H   0  0  0  0  0  0  0  0  0  0  0  0
    4.0250   -0.1780    1.6910 H   0  0  0  0  0  0  0  0  0  0  0  0
    2.7950   -1.9350    3.8700 H   0  0  0  0  0  0  0  0  0  0  0  0
    4.4490   -2.1700    3.2060 H   0  0  0  0  0  0  0  0  0  0  0  0
    0.7620   -2.8620    2.4650 H   0  0  0  0  0  0  0  0  0  0  0  0
    0.5750   -4.4580    0.4370 H   0  0  0  0  0  0  0  0  0  0  0  0
    2.8500   -4.6930   -0.6840 H   0  0  0  0  0  0  0  0  0  0  0  0
    2.0030    2.1270   -1.4620 N   0  0  0  0  0  0  0  0  0  0  0  0
    0.8120    1.4560   -1.0730 C   0  0  0  0  0  0  0  0  0  0  0  0
    0.2840    0.6250   -1.8660 O   0  0  0  0  0  0  0  0  0  0  0  0
    0.1660    1.6990    0.2400 C   0  0  0  0  0  0  0  0  0  0  0  0
    0.0230    0.3700    1.0070 C   0  0  2  0  0  0  0  0  0  0  0  0
    1.3710   -0.1130    1.1760 N   0  0  0  0  0  0  0  0  0  0  0  0
   -0.8840   -0.5450    0.3100 C   0  0  0  0  0  0  0  0  0  0  0  0
   -0.3990   -1.6170   -0.1990 O   0  0  0  0  0  0  0  0  0  0  0  0
    2.2500    3.0650   -1.0860 H   0  0  0  0  0  0  0  0  0  0  0  0
    2.6700    1.6980   -2.1350 H   0  0  0  0  0  0  0  0  0  0  0  0
   -0.7900    2.2390    0.1580 H   0  0  0  0  0  0  0  0  0  0  0  0
    0.8470    2.3410    0.8380 H   0  0  0  0  0  0  0  0  0  0  0  0
   -0.3830    0.6460    1.9800 H   0  0  0  0  0  0  0  0  0  0  0  0
    1.8310   -0.6050    0.4110 H   0  0  0  0  0  0  0  0  0  0  0  0
   -2.2620   -0.3500    0.1460 N   0  0  0  0  0  0  0  0  0  0  0  0
   -3.0010    0.7670    0.6470 C   0  0  0  0  0  0  0  0  0  0  0  0
   -4.2930    0.1410    1.1220 C   0  0  0  0  0  0  0  0  0  0  0  0
   -4.4570   -1.0510    0.2200 C   0  0  0  0  0  0  0  0  0  0  0  0
   -3.1800   -1.2130   -0.5410 C   0  0  1  0  0  0  0  0  0  0  0  0
   -3.3210   -0.8850   -1.9810 C   0  0  0  0  0  0  0  0  0  0  0  0
   -4.0920   -1.6230   -2.6540 O   0  0  0  0  0  0  0  0  0  0  0  0
   -2.6880    0.1430   -2.6280 O   0  0  0  0  0  0  0  0  0  0  0  0
   -3.2180    1.5540   -0.0940 H   0  0  0  0  0  0  0  0  0  0  0  0
   -2.4820    1.2630    1.5130 H   0  0  0  0  0  0  0  0  0  0  0  0
   -4.1660   -0.1310    2.1960 H   0  0  0  0  0  0  0  0  0  0  0  0
   -5.1450    0.8480    1.0470 H   0  0  0  0  0  0  0  0  0  0  0  0
   -4.6070   -1.9270    0.9190 H   0  0  0  0  0  0  0  0  0  0  0  0
   -5.3470   -0.9230   -0.4180 H   0  0  0  0  0  0  0  0  0  0  0  0
   -2.8970   -2.2870   -0.5070 H   0  0  0  0  0  0  0  0  0  0  0  0
  1 11  1  0  0  0  0
  2 13  1  6  0  0  0
  2  3  1  0  0  0  0
  2  1  1  0  0  0  0
  3 15  1  0  0  0  0
  3 14  1  0  0  0  0
  4  3  1  0  0  0  0
  5  4  2  0  0  0  0
  5 16  1  0  0  0  0
  6  5  1  0  0  0  0
  7  6  1  0  0  0  0
  7  8  2  0  0  0  0
  8  4  1  0  0  0  0
  9  2  1  0  0  0  0
  9 10  2  0  0  0  0
 12  1  1  0  0  0  0
 17  6  1  0  0  0  0
 18  7  1  0  0  0  0
 19 27  1  0  0  0  0
 19 20  1  0  0  0  0
 20 22  1  0  0  0  0
 21 20  2  0  0  0  0
 22 30  1  0  0  0  0
 22 23  1  0  0  0  0
 23 24  1  0  0  0  0
 23 31  1  1  0  0  0
 24  9  1  0  0  0  0
 25 23  1  0  0  0  0
 26 25  2  0  0  0  0
 28 19  1  0  0  0  0
 29 22  1  0  0  0  0
 32 24  1  0  0  0  0
 33 25  1  0  0  0  0
 33 34  1  0  0  0  0
 34 35  1  0  0  0  0
 34 42  1  0  0  0  0
 35 43  1  0  0  0  0
 36 45  1  0  0  0  0
 36 35  1  0  0  0  0
 37 47  1  1  0  0  0
 37 33  1  0  0  0  0
 37 36  1  0  0  0  0
 38 37  1  0  0  0  0
 39 38  2  0  0  0  0
 40 38  1  0  0  0  0
 41 34  1  0  0  0  0
 44 35  1  0  0  0  0
 46 36  1  0  0  0  0
M  END
$$$$
