HNT.pdb
 OpenBabel07022418353D

 47 47  0  0  1  0  0  0  0  0999 V2000
    4.0760    0.4690    1.1010 N   0  0  0  0  0  0  0  0  0  0  0  0
    3.6140   -0.7700    0.5000 C   0  0  1  0  0  0  0  0  0  0  0  0
    4.5340   -1.8830    0.8480 C   0  0  0  0  0  0  0  0  0  0  0  0
    4.1720   -3.1890    0.2670 C   0  0  0  0  0  0  0  0  0  0  0  0
    3.4160   -4.2340    0.7540 C   0  0  0  0  0  0  0  0  0  0  0  0
    3.3990   -5.2170   -0.1520 N   0  0  0  0  0  0  0  0  0  0  0  0
    4.1270   -4.7990   -1.1820 C   0  0  0  0  0  0  0  0  0  0  0  0
    4.6080   -3.5770   -0.9610 N   0  0  0  0  0  0  0  0  0  0  0  0
    2.2030   -1.0180    0.8630 C   0  0  0  0  0  0  0  0  0  0  0  0
    1.6060   -2.1070    0.7660 O   0  0  0  0  0  0  0  0  0  0  0  0
    3.7450    0.5420    2.0840 H   0  0  0  0  0  0  0  0  0  0  0  0
    3.6780    1.2680    0.5660 H   0  0  0  0  0  0  0  0  0  0  0  0
    3.6250   -0.6370   -0.6130 H   0  0  0  0  0  0  0  0  0  0  0  0
    4.6880   -1.9780    1.9510 H   0  0  0  0  0  0  0  0  0  0  0  0
    5.5530   -1.6110    0.4620 H   0  0  0  0  0  0  0  0  0  0  0  0
    2.9330   -4.2370    1.7400 H   0  0  0  0  0  0  0  0  0  0  0  0
    2.9230   -6.1360   -0.0880 H   0  0  0  0  0  0  0  0  0  0  0  0
    4.2880   -5.4120   -2.0860 H   0  0  0  0  0  0  0  0  0  0  0  0
   -0.3800    2.8660    4.0580 N   0  0  0  0  0  0  0  0  0  0  0  0
   -0.1190    2.0770    2.9250 C   0  0  0  0  0  0  0  0  0  0  0  0
    0.2630    2.5810    1.8660 O   0  0  0  0  0  0  0  0  0  0  0  0
   -0.3150    0.6110    3.0320 C   0  0  0  0  0  0  0  0  0  0  0  0
    0.0330   -0.1150    1.7560 C   0  0  2  0  0  0  0  0  0  0  0  0
    1.4160    0.0730    1.3770 N   0  0  0  0  0  0  0  0  0  0  0  0
   -0.8910    0.2800    0.6570 C   0  0  0  0  0  0  0  0  0  0  0  0
   -0.5180    0.7480   -0.4450 O   0  0  0  0  0  0  0  0  0  0  0  0
   -0.9910    2.5560    4.8480 H   0  0  0  0  0  0  0  0  0  0  0  0
    0.0280    3.8220    4.1660 H   0  0  0  0  0  0  0  0  0  0  0  0
    0.4090    0.2660    3.8290 H   0  0  0  0  0  0  0  0  0  0  0  0
   -1.3340    0.3420    3.3780 H   0  0  0  0  0  0  0  0  0  0  0  0
   -0.1310   -1.2030    1.9030 H   0  0  0  0  0  0  0  0  0  0  0  0
    1.8770    0.9990    1.4610 H   0  0  0  0  0  0  0  0  0  0  0  0
   -4.9890   -0.2330   -1.7260 C   0  0  0  0  0  0  0  0  0  0  0  0
   -4.0610   -0.6730   -0.6180 C   0  0  1  0  0  0  0  0  0  0  0  0
   -3.2770   -1.7070   -1.1520 O   0  0  0  0  0  0  0  0  0  0  0  0
   -3.2390    0.4900   -0.1700 C   0  0  2  0  0  0  0  0  0  0  0  0
   -2.2800    0.1240    0.8560 N   0  0  0  0  0  0  0  0  0  0  0  0
   -4.1220    1.5790    0.2920 C   0  0  0  0  0  0  0  0  0  0  0  0
   -3.9330    2.0230    1.4710 O   0  0  0  0  0  0  0  0  0  0  0  0
   -5.1310    2.1430   -0.4610 O   0  0  0  0  0  0  0  0  0  0  0  0
   -5.1820   -1.0880   -2.4440 H   0  0  0  0  0  0  0  0  0  0  0  0
   -5.9570    0.1540   -1.3440 H   0  0  0  0  0  0  0  0  0  0  0  0
   -4.5600    0.5610   -2.3660 H   0  0  0  0  0  0  0  0  0  0  0  0
   -4.6720   -1.0510    0.2020 H   0  0  0  0  0  0  0  0  0  0  0  0
   -3.6750   -2.5890   -0.9720 H   0  0  0  0  0  0  0  0  0  0  0  0
   -2.6640    0.8680   -1.0430 H   0  0  0  0  0  0  0  0  0  0  0  0
   -2.6910   -0.2600    1.7470 H   0  0  0  0  0  0  0  0  0  0  0  0
  1 11  1  0  0  0  0
  2 13  1  6  0  0  0
  2  3  1  0  0  0  0
  2  9  1  0  0  0  0
  2  1  1  0  0  0  0
  3 14  1  0  0  0  0
  4  5  2  0  0  0  0
  4  3  1  0  0  0  0
  5 16  1  0  0  0  0
  6 17  1  0  0  0  0
  6  5  1  0  0  0  0
  7  8  2  0  0  0  0
  7  6  1  0  0  0  0
  8  4  1  0  0  0  0
  9 24  1  0  0  0  0
 10  9  2  0  0  0  0
 12  1  1  0  0  0  0
 15  3  1  0  0  0  0
 18  7  1  0  0  0  0
 19 28  1  0  0  0  0
 19 27  1  0  0  0  0
 20 22  1  0  0  0  0
 20 19  1  0  0  0  0
 21 20  2  0  0  0  0
 22 30  1  0  0  0  0
 22 29  1  0  0  0  0
 23 31  1  1  0  0  0
 23 22  1  0  0  0  0
 24 32  1  0  0  0  0
 24 23  1  0  0  0  0
 25 37  1  0  0  0  0
 25 23  1  0  0  0  0
 26 25  2  0  0  0  0
 33 42  1  0  0  0  0
 33 34  1  0  0  0  0
 34 36  1  0  0  0  0
 34 44  1  1  0  0  0
 35 45  1  0  0  0  0
 35 34  1  0  0  0  0
 36 46  1  6  0  0  0
 36 38  1  0  0  0  0
 36 37  1  0  0  0  0
 37 47  1  0  0  0  0
 38 39  1  0  0  0  0
 40 38  2  0  0  0  0
 41 33  1  0  0  0  0
 43 33  1  0  0  0  0
M  END
$$$$
