HNY.pdb
 OpenBabel07022418353D

 54 55  0  0  1  0  0  0  0  0999 V2000
   -2.3760    2.0270    3.9040 N   0  0  0  0  0  0  0  0  0  0  0  0
   -1.1230    1.3550    3.5070 C   0  0  1  0  0  0  0  0  0  0  0  0
   -1.1820   -0.0040    4.1070 C   0  0  0  0  0  0  0  0  0  0  0  0
   -0.0100   -0.8630    3.8370 C   0  0  0  0  0  0  0  0  0  0  0  0
    1.1260   -0.9080    4.6390 C   0  0  0  0  0  0  0  0  0  0  0  0
    1.9480   -1.7930    4.0700 N   0  0  0  0  0  0  0  0  0  0  0  0
    1.3840   -2.2890    2.9720 C   0  0  0  0  0  0  0  0  0  0  0  0
    0.1840   -1.7210    2.8260 N   0  0  0  0  0  0  0  0  0  0  0  0
   -1.0710    1.3860    2.0330 C   0  0  0  0  0  0  0  0  0  0  0  0
   -2.1220    1.7440    1.3850 O   0  0  0  0  0  0  0  0  0  0  0  0
   -3.1530    1.7120    3.2730 H   0  0  0  0  0  0  0  0  0  0  0  0
   -2.2430    3.0680    3.8860 H   0  0  0  0  0  0  0  0  0  0  0  0
   -0.2730    1.9350    3.8850 H   0  0  0  0  0  0  0  0  0  0  0  0
   -2.1050   -0.5560    3.8160 H   0  0  0  0  0  0  0  0  0  0  0  0
   -1.2580    0.1190    5.2130 H   0  0  0  0  0  0  0  0  0  0  0  0
    1.2850   -0.3210    5.5530 H   0  0  0  0  0  0  0  0  0  0  0  0
    2.8950   -2.0380    4.4590 H   0  0  0  0  0  0  0  0  0  0  0  0
    1.8570   -3.0410    2.3170 H   0  0  0  0  0  0  0  0  0  0  0  0
    1.9480    3.5480   -2.4800 N   0  0  0  0  0  0  0  0  0  0  0  0
    0.9660    2.5900   -1.9670 C   0  0  0  0  0  0  0  0  0  0  0  0
    0.2230    2.1460   -2.8670 O   0  0  0  0  0  0  0  0  0  0  0  0
    0.9550    2.2720   -0.5470 C   0  0  0  0  0  0  0  0  0  0  0  0
   -0.0160    1.1380   -0.1790 C   0  0  2  0  0  0  0  0  0  0  0  0
    0.1080    1.0350    1.3240 N   0  0  0  0  0  0  0  0  0  0  0  0
    0.5730   -0.1240   -0.6440 C   0  0  0  0  0  0  0  0  0  0  0  0
    1.3470   -0.7530    0.1220 O   0  0  0  0  0  0  0  0  0  0  0  0
    2.1650    4.4050   -1.9380 H   0  0  0  0  0  0  0  0  0  0  0  0
    2.4350    3.3880   -3.3820 H   0  0  0  0  0  0  0  0  0  0  0  0
    0.6430    3.2000    0.0190 H   0  0  0  0  0  0  0  0  0  0  0  0
    1.9700    1.9620   -0.2030 H   0  0  0  0  0  0  0  0  0  0  0  0
   -1.0300    1.3580   -0.4760 H   0  0  0  0  0  0  0  0  0  0  0  0
    0.9740    0.7380    1.7690 H   0  0  0  0  0  0  0  0  0  0  0  0
   -2.8930   -3.5730    2.3910 O   0  0  0  0  0  0  0  0  0  0  0  0
   -2.1800   -3.4750    1.2180 C   0  0  0  0  0  0  0  0  0  0  0  0
   -1.0550   -4.2370    0.9840 C   0  0  0  0  0  0  0  0  0  0  0  0
   -0.3790   -4.1090   -0.1900 C   0  0  0  0  0  0  0  0  0  0  0  0
   -0.7950   -3.2270   -1.1620 C   0  0  0  0  0  0  0  0  0  0  0  0
   -0.0720   -3.0760   -2.4450 C   0  0  0  0  0  0  0  0  0  0  0  0
    0.9880   -1.9810   -2.2660 C   0  0  2  0  0  0  0  0  0  0  0  0
    0.3440   -0.7240   -1.9020 N   0  0  0  0  0  0  0  0  0  0  0  0
    1.7200   -1.8880   -3.5300 C   0  0  0  0  0  0  0  0  0  0  0  0
    2.3300   -2.8840   -3.9880 O   0  0  0  0  0  0  0  0  0  0  0  0
   -1.9270   -2.4520   -0.9400 C   0  0  0  0  0  0  0  0  0  0  0  0
   -2.6030   -2.5830    0.2390 C   0  0  0  0  0  0  0  0  0  0  0  0
    1.7690   -0.7160   -4.2640 O   0  0  0  0  0  0  0  0  0  0  0  0
   -3.8520   -3.2580    2.4570 H   0  0  0  0  0  0  0  0  0  0  0  0
   -0.7360   -4.9330    1.7640 H   0  0  0  0  0  0  0  0  0  0  0  0
    0.5100   -4.7280   -0.3460 H   0  0  0  0  0  0  0  0  0  0  0  0
   -0.7620   -2.7920   -3.2490 H   0  0  0  0  0  0  0  0  0  0  0  0
    0.4460   -4.0280   -2.6590 H   0  0  0  0  0  0  0  0  0  0  0  0
    1.6130   -2.3020   -1.4110 H   0  0  0  0  0  0  0  0  0  0  0  0
   -0.3040   -0.3190   -2.6050 H   0  0  0  0  0  0  0  0  0  0  0  0
   -2.2450   -1.7610   -1.7120 H   0  0  0  0  0  0  0  0  0  0  0  0
   -3.4980   -1.9910    0.4500 H   0  0  0  0  0  0  0  0  0  0  0  0
  2 13  1  1  0  0  0
  2  1  1  0  0  0  0
  2  3  1  0  0  0  0
  3 15  1  0  0  0  0
  4  3  1  0  0  0  0
  4  5  2  0  0  0  0
  5 16  1  0  0  0  0
  6 17  1  0  0  0  0
  6  5  1  0  0  0  0
  7  6  1  0  0  0  0
  8  7  2  0  0  0  0
  8  4  1  0  0  0  0
  9  2  1  0  0  0  0
 10  9  2  0  0  0  0
 11  1  1  0  0  0  0
 12  1  1  0  0  0  0
 14  3  1  0  0  0  0
 18  7  1  0  0  0  0
 19 20  1  0  0  0  0
 19 27  1  0  0  0  0
 20 22  1  0  0  0  0
 21 20  2  0  0  0  0
 22 30  1  0  0  0  0
 22 23  1  0  0  0  0
 22 29  1  0  0  0  0
 23 31  1  6  0  0  0
 23 24  1  0  0  0  0
 24 32  1  0  0  0  0
 24  9  1  0  0  0  0
 25 23  1  0  0  0  0
 25 26  2  0  0  0  0
 28 19  1  0  0  0  0
 33 46  1  0  0  0  0
 34 33  1  0  0  0  0
 35 34  1  0  0  0  0
 35 47  1  0  0  0  0
 36 35  2  0  0  0  0
 37 43  2  0  0  0  0
 37 36  1  0  0  0  0
 38 39  1  0  0  0  0
 38 37  1  0  0  0  0
 39 40  1  0  0  0  0
 39 51  1  1  0  0  0
 40 25  1  0  0  0  0
 41 39  1  0  0  0  0
 42 41  1  0  0  0  0
 43 44  1  0  0  0  0
 44 54  1  0  0  0  0
 44 34  2  0  0  0  0
 45 41  2  0  0  0  0
 48 36  1  0  0  0  0
 49 38  1  0  0  0  0
 50 38  1  0  0  0  0
 52 40  1  0  0  0  0
 53 43  1  0  0  0  0
M  END
$$$$
