HPD.pdb
 OpenBabel07022418383D

 46 47  0  0  1  0  0  0  0  0999 V2000
    1.5610   -2.3840    2.0690 N   0  0  0  0  0  0  0  0  0  0  0  0
    2.1040   -2.0580    0.7720 C   0  0  1  0  0  0  0  0  0  0  0  0
    1.4950   -2.9110   -0.3000 C   0  0  0  0  0  0  0  0  0  0  0  0
    2.0070   -2.6290   -1.6560 C   0  0  0  0  0  0  0  0  0  0  0  0
    3.1330   -3.2430   -2.2250 C   0  0  0  0  0  0  0  0  0  0  0  0
    3.2960   -2.7360   -3.4560 N   0  0  0  0  0  0  0  0  0  0  0  0
    2.3310   -1.8350   -3.6900 C   0  0  0  0  0  0  0  0  0  0  0  0
    1.5810   -1.7900   -2.6080 N   0  0  0  0  0  0  0  0  0  0  0  0
    2.1140   -0.6070    0.4750 C   0  0  0  0  0  0  0  0  0  0  0  0
    2.5660   -0.3000   -0.6890 O   0  0  0  0  0  0  0  0  0  0  0  0
    0.6360   -2.8550    2.0260 H   0  0  0  0  0  0  0  0  0  0  0  0
    2.2310   -2.7870    2.7260 H   0  0  0  0  0  0  0  0  0  0  0  0
    3.1840   -2.4120    0.8330 H   0  0  0  0  0  0  0  0  0  0  0  0
    0.3720   -2.8640   -0.2880 H   0  0  0  0  0  0  0  0  0  0  0  0
    1.7110   -3.9980   -0.1070 H   0  0  0  0  0  0  0  0  0  0  0  0
    3.7240   -3.9870   -1.7110 H   0  0  0  0  0  0  0  0  0  0  0  0
    4.0530   -2.9980   -4.1280 H   0  0  0  0  0  0  0  0  0  0  0  0
    2.2170   -1.2650   -4.6090 H   0  0  0  0  0  0  0  0  0  0  0  0
    1.6740    0.4040    1.3680 N   0  0  0  0  0  0  0  0  0  0  0  0
    1.7010    1.8110    1.0180 C   0  0  0  0  0  0  0  0  0  0  0  0
    1.3530    2.6310    2.1940 C   0  0  0  0  0  0  0  0  0  0  0  0
    1.4440    1.6610    3.3430 C   0  0  0  0  0  0  0  0  0  0  0  0
    1.1630    0.3060    2.6940 C   0  0  1  0  0  0  0  0  0  0  0  0
   -0.2860    0.1140    2.7960 C   0  0  0  0  0  0  0  0  0  0  0  0
   -0.8060   -0.0560    3.9190 O   0  0  0  0  0  0  0  0  0  0  0  0
    2.7520    2.0150    0.6770 H   0  0  0  0  0  0  0  0  0  0  0  0
    1.0650    1.9640    0.1230 H   0  0  0  0  0  0  0  0  0  0  0  0
    2.0450    3.5000    2.2970 H   0  0  0  0  0  0  0  0  0  0  0  0
    0.3410    3.0670    2.0740 H   0  0  0  0  0  0  0  0  0  0  0  0
    0.7310    1.9270    4.1190 H   0  0  0  0  0  0  0  0  0  0  0  0
    2.4660    1.7100    3.7560 H   0  0  0  0  0  0  0  0  0  0  0  0
    1.7740   -0.4040    3.2730 H   0  0  0  0  0  0  0  0  0  0  0  0
   -1.1490    0.1110    1.6730 N   0  0  0  0  0  0  0  0  0  0  0  0
   -2.6080   -0.0860    1.8470 C   0  0  1  0  0  0  0  0  0  0  0  0
   -3.3360    1.1700    1.4560 C   0  0  0  0  0  0  0  0  0  0  0  0
   -4.7960    1.1120    1.6080 C   0  0  0  0  0  0  0  0  0  0  0  0
   -5.5280    2.0550    1.1500 O   0  0  0  0  0  0  0  0  0  0  0  0
   -2.9880   -1.2690    1.0510 C   0  0  0  0  0  0  0  0  0  0  0  0
   -2.1070   -1.9050    0.3730 O   0  0  0  0  0  0  0  0  0  0  0  0
   -5.5060    0.0920    2.2280 O   0  0  0  0  0  0  0  0  0  0  0  0
   -4.2590   -1.7620    0.9760 O   0  0  0  0  0  0  0  0  0  0  0  0
   -0.8340    0.2400    0.7000 H   0  0  0  0  0  0  0  0  0  0  0  0
   -2.8430   -0.2700    2.9100 H   0  0  0  0  0  0  0  0  0  0  0  0
   -2.9470    1.9810    2.1130 H   0  0  0  0  0  0  0  0  0  0  0  0
   -3.0640    1.4750    0.4020 H   0  0  0  0  0  0  0  0  0  0  0  0
   -6.4880    0.1490    2.4500 H   0  0  0  0  0  0  0  0  0  0  0  0
  1 12  1  0  0  0  0
  2 13  1  1  0  0  0
  2  1  1  0  0  0  0
  3 14  1  0  0  0  0
  3 15  1  0  0  0  0
  3  2  1  0  0  0  0
  4  3  1  0  0  0  0
  5 16  1  0  0  0  0
  5  4  2  0  0  0  0
  6  5  1  0  0  0  0
  7  6  1  0  0  0  0
  7  8  2  0  0  0  0
  8  4  1  0  0  0  0
  9  2  1  0  0  0  0
  9 19  1  0  0  0  0
 10  9  2  0  0  0  0
 11  1  1  0  0  0  0
 17  6  1  0  0  0  0
 18  7  1  0  0  0  0
 19 23  1  0  0  0  0
 20 19  1  0  0  0  0
 20 21  1  0  0  0  0
 21 28  1  0  0  0  0
 21 22  1  0  0  0  0
 22 31  1  0  0  0  0
 22 30  1  0  0  0  0
 23 24  1  0  0  0  0
 23 32  1  1  0  0  0
 23 22  1  0  0  0  0
 24 25  2  0  0  0  0
 26 20  1  0  0  0  0
 27 20  1  0  0  0  0
 29 21  1  0  0  0  0
 33 34  1  0  0  0  0
 33 24  1  0  0  0  0
 34 43  1  1  0  0  0
 35 36  1  0  0  0  0
 35 34  1  0  0  0  0
 35 44  1  0  0  0  0
 36 40  1  0  0  0  0
 37 36  2  0  0  0  0
 38 34  1  0  0  0  0
 39 38  2  0  0  0  0
 40 46  1  0  0  0  0
 41 38  1  0  0  0  0
 42 33  1  0  0  0  0
 45 35  1  0  0  0  0
M  END
$$$$
