HPI.pdb
 OpenBabel07022418383D

 52 53  0  0  1  0  0  0  0  0999 V2000
    1.0100   -2.0230    2.9070 N   0  0  0  0  0  0  0  0  0  0  0  0
    1.9620   -1.9120    1.8250 C   0  0  1  0  0  0  0  0  0  0  0  0
    1.6900   -2.8860    0.7250 C   0  0  0  0  0  0  0  0  0  0  0  0
    2.6390   -2.8160   -0.4020 C   0  0  0  0  0  0  0  0  0  0  0  0
    2.5830   -2.1040   -1.5970 C   0  0  0  0  0  0  0  0  0  0  0  0
    3.6410   -2.3460   -2.3600 N   0  0  0  0  0  0  0  0  0  0  0  0
    4.4040   -3.2120   -1.6890 C   0  0  0  0  0  0  0  0  0  0  0  0
    3.8170   -3.5030   -0.5150 N   0  0  0  0  0  0  0  0  0  0  0  0
    2.1330   -0.5650    1.3110 C   0  0  0  0  0  0  0  0  0  0  0  0
    3.0180   -0.4300    0.4240 O   0  0  0  0  0  0  0  0  0  0  0  0
    0.6010   -2.9830    2.8500 H   0  0  0  0  0  0  0  0  0  0  0  0
    1.5110   -1.8740    3.8040 H   0  0  0  0  0  0  0  0  0  0  0  0
    2.9600   -2.2180    2.2640 H   0  0  0  0  0  0  0  0  0  0  0  0
    0.6270   -2.7900    0.3660 H   0  0  0  0  0  0  0  0  0  0  0  0
    1.7350   -3.9420    1.1330 H   0  0  0  0  0  0  0  0  0  0  0  0
    1.7820   -1.4430   -1.8640 H   0  0  0  0  0  0  0  0  0  0  0  0
    3.8300   -1.9280   -3.3100 H   0  0  0  0  0  0  0  0  0  0  0  0
    5.3450   -3.5940   -2.0740 H   0  0  0  0  0  0  0  0  0  0  0  0
    1.3930    0.5960    1.7230 N   0  0  0  0  0  0  0  0  0  0  0  0
    1.6650    1.8750    1.1270 C   0  0  0  0  0  0  0  0  0  0  0  0
    0.4900    2.7450    1.4480 C   0  0  0  0  0  0  0  0  0  0  0  0
    0.2390    2.2780    2.8970 C   0  0  0  0  0  0  0  0  0  0  0  0
    0.3830    0.7510    2.6880 C   0  0  1  0  0  0  0  0  0  0  0  0
   -0.9420    0.2070    2.4440 C   0  0  0  0  0  0  0  0  0  0  0  0
   -1.8200    0.4150    3.3270 O   0  0  0  0  0  0  0  0  0  0  0  0
    1.8160    1.7930    0.0210 H   0  0  0  0  0  0  0  0  0  0  0  0
    2.6130    2.3040    1.5850 H   0  0  0  0  0  0  0  0  0  0  0  0
    0.6980    3.8140    1.4110 H   0  0  0  0  0  0  0  0  0  0  0  0
   -0.3540    2.4290    0.7980 H   0  0  0  0  0  0  0  0  0  0  0  0
    1.0390    2.6970    3.4990 H   0  0  0  0  0  0  0  0  0  0  0  0
   -0.7370    2.5620    3.2710 H   0  0  0  0  0  0  0  0  0  0  0  0
    0.8070    0.4090    3.6740 H   0  0  0  0  0  0  0  0  0  0  0  0
   -1.4610   -0.1760   -1.8080 C   0  0  0  0  0  0  0  0  0  0  0  0
   -2.6430   -0.9820   -1.4170 C   0  0  0  0  0  0  0  0  0  0  0  0
   -3.3190   -0.5900   -0.1350 C   0  0  2  0  0  0  0  0  0  0  0  0
   -3.8300    0.8100   -0.1270 C   0  0  0  0  0  0  0  0  0  0  0  0
   -2.6070   -1.0250    1.1090 C   0  0  2  0  0  0  0  0  0  0  0  0
   -1.2820   -0.5280    1.2870 N   0  0  0  0  0  0  0  0  0  0  0  0
   -2.7220   -2.5020    1.2110 C   0  0  0  0  0  0  0  0  0  0  0  0
   -1.8120   -3.3020    1.4430 O   0  0  0  0  0  0  0  0  0  0  0  0
   -4.0060   -3.0280    1.0220 O   0  0  0  0  0  0  0  0  0  0  0  0
   -1.5690    0.2180   -2.8650 H   0  0  0  0  0  0  0  0  0  0  0  0
   -0.5190   -0.7610   -1.8480 H   0  0  0  0  0  0  0  0  0  0  0  0
   -1.2890    0.7380   -1.2080 H   0  0  0  0  0  0  0  0  0  0  0  0
   -2.2930   -2.0550   -1.3420 H   0  0  0  0  0  0  0  0  0  0  0  0
   -3.3580   -1.0050   -2.2740 H   0  0  0  0  0  0  0  0  0  0  0  0
   -4.2650   -1.2270   -0.1340 H   0  0  0  0  0  0  0  0  0  0  0  0
   -3.0560    1.5840   -0.2260 H   0  0  0  0  0  0  0  0  0  0  0  0
   -4.5440    0.9220   -0.9620 H   0  0  0  0  0  0  0  0  0  0  0  0
   -4.4110    0.9570    0.8070 H   0  0  0  0  0  0  0  0  0  0  0  0
   -3.2210   -0.6470    1.9860 H   0  0  0  0  0  0  0  0  0  0  0  0
   -0.5740   -0.7260    0.5400 H   0  0  0  0  0  0  0  0  0  0  0  0
  1 12  1  0  0  0  0
  2 13  1  1  0  0  0
  2  1  1  0  0  0  0
  3 15  1  0  0  0  0
  3  2  1  0  0  0  0
  4  3  1  0  0  0  0
  5  4  2  0  0  0  0
  6  7  1  0  0  0  0
  6  5  1  0  0  0  0
  7  8  2  0  0  0  0
  8  4  1  0  0  0  0
  9 19  1  0  0  0  0
  9  2  1  0  0  0  0
 10  9  2  0  0  0  0
 11  1  1  0  0  0  0
 14  3  1  0  0  0  0
 16  5  1  0  0  0  0
 17  6  1  0  0  0  0
 18  7  1  0  0  0  0
 19 23  1  0  0  0  0
 20 21  1  0  0  0  0
 20 27  1  0  0  0  0
 20 19  1  0  0  0  0
 21 22  1  0  0  0  0
 22 31  1  0  0  0  0
 22 30  1  0  0  0  0
 23 22  1  0  0  0  0
 23 32  1  1  0  0  0
 24 23  1  0  0  0  0
 24 25  2  0  0  0  0
 26 20  1  0  0  0  0
 28 21  1  0  0  0  0
 29 21  1  0  0  0  0
 33 34  1  0  0  0  0
 33 44  1  0  0  0  0
 34 45  1  0  0  0  0
 34 35  1  0  0  0  0
 35 47  1  1  0  0  0
 35 36  1  0  0  0  0
 35 37  1  0  0  0  0
 36 50  1  0  0  0  0
 37 39  1  0  0  0  0
 37 38  1  0  0  0  0
 37 51  1  1  0  0  0
 38 24  1  0  0  0  0
 39 40  1  0  0  0  0
 41 39  2  0  0  0  0
 42 33  1  0  0  0  0
 43 33  1  0  0  0  0
 46 34  1  0  0  0  0
 48 36  1  0  0  0  0
 49 36  1  0  0  0  0
 52 38  1  0  0  0  0
M  END
$$$$
