HPM.pdb
 OpenBabel07022418383D

 50 51  0  0  1  0  0  0  0  0999 V2000
    1.4090   -1.8250    3.2660 N   0  0  0  0  0  0  0  0  0  0  0  0
    2.1620   -2.0880    2.0800 C   0  0  1  0  0  0  0  0  0  0  0  0
    1.7410   -3.3870    1.5050 C   0  0  0  0  0  0  0  0  0  0  0  0
    2.4150   -3.8150    0.2780 C   0  0  0  0  0  0  0  0  0  0  0  0
    2.0210   -3.5490   -1.0020 C   0  0  0  0  0  0  0  0  0  0  0  0
    2.9000   -4.1210   -1.8230 N   0  0  0  0  0  0  0  0  0  0  0  0
    3.8490   -4.7470   -1.1220 C   0  0  0  0  0  0  0  0  0  0  0  0
    3.5400   -4.5510    0.1810 N   0  0  0  0  0  0  0  0  0  0  0  0
    2.1930   -0.9400    1.1640 C   0  0  0  0  0  0  0  0  0  0  0  0
    2.8130   -1.1480    0.0660 O   0  0  0  0  0  0  0  0  0  0  0  0
    1.9420   -1.9230    4.1450 H   0  0  0  0  0  0  0  0  0  0  0  0
    0.4560   -2.2070    3.2830 H   0  0  0  0  0  0  0  0  0  0  0  0
    3.2330   -2.2210    2.4260 H   0  0  0  0  0  0  0  0  0  0  0  0
    0.6200   -3.4300    1.4150 H   0  0  0  0  0  0  0  0  0  0  0  0
    1.9610   -4.1660    2.2960 H   0  0  0  0  0  0  0  0  0  0  0  0
    1.1640   -2.9860   -1.2900 H   0  0  0  0  0  0  0  0  0  0  0  0
    2.8770   -4.1000   -2.8780 H   0  0  0  0  0  0  0  0  0  0  0  0
    4.6830   -5.2900   -1.5420 H   0  0  0  0  0  0  0  0  0  0  0  0
    1.6270    0.3280    1.3640 N   0  0  0  0  0  0  0  0  0  0  0  0
    1.7020    1.3980    0.3960 C   0  0  0  0  0  0  0  0  0  0  0  0
    0.7570    2.4560    0.9290 C   0  0  0  0  0  0  0  0  0  0  0  0
    1.0230    2.3130    2.4180 C   0  0  0  0  0  0  0  0  0  0  0  0
    0.9070    0.7750    2.5290 C   0  0  1  0  0  0  0  0  0  0  0  0
   -0.5500    0.4880    2.4660 C   0  0  0  0  0  0  0  0  0  0  0  0
   -1.3060    0.8140    3.4170 O   0  0  0  0  0  0  0  0  0  0  0  0
    2.7240    1.8770    0.4130 H   0  0  0  0  0  0  0  0  0  0  0  0
    1.4960    1.0980   -0.6300 H   0  0  0  0  0  0  0  0  0  0  0  0
   -0.2690    2.1200    0.7500 H   0  0  0  0  0  0  0  0  0  0  0  0
    0.9860    3.4660    0.5590 H   0  0  0  0  0  0  0  0  0  0  0  0
    0.2760    2.8080    3.0410 H   0  0  0  0  0  0  0  0  0  0  0  0
    2.0700    2.6280    2.6490 H   0  0  0  0  0  0  0  0  0  0  0  0
    1.3700    0.5030    3.4960 H   0  0  0  0  0  0  0  0  0  0  0  0
   -3.1470    2.7210   -2.2770 C   0  0  0  0  0  0  0  0  0  0  0  0
   -3.5120    0.9440   -2.4310 S   0  0  0  0  0  0  0  0  0  0  0  0
   -2.6790   -0.0050   -1.1460 C   0  0  0  0  0  0  0  0  0  0  0  0
   -3.2670    0.3670    0.2180 C   0  0  0  0  0  0  0  0  0  0  0  0
   -2.5820   -0.4190    1.3160 C   0  0  2  0  0  0  0  0  0  0  0  0
   -1.1650   -0.1550    1.3550 N   0  0  0  0  0  0  0  0  0  0  0  0
   -2.9350   -1.8420    1.2360 C   0  0  0  0  0  0  0  0  0  0  0  0
   -4.1670   -2.1200    1.2010 O   0  0  0  0  0  0  0  0  0  0  0  0
   -2.0570   -2.9000    1.1970 O   0  0  0  0  0  0  0  0  0  0  0  0
   -3.3290    3.2550   -3.2300 H   0  0  0  0  0  0  0  0  0  0  0  0
   -2.0810    2.9010   -2.0150 H   0  0  0  0  0  0  0  0  0  0  0  0
   -3.8010    3.1480   -1.4940 H   0  0  0  0  0  0  0  0  0  0  0  0
   -2.8710   -1.0790   -1.3400 H   0  0  0  0  0  0  0  0  0  0  0  0
   -1.5870    0.1450   -1.1720 H   0  0  0  0  0  0  0  0  0  0  0  0
   -3.1550    1.4440    0.3300 H   0  0  0  0  0  0  0  0  0  0  0  0
   -4.3470    0.1280    0.1670 H   0  0  0  0  0  0  0  0  0  0  0  0
   -3.0180   -0.0350    2.2780 H   0  0  0  0  0  0  0  0  0  0  0  0
   -0.6040   -0.4590    0.5260 H   0  0  0  0  0  0  0  0  0  0  0  0
  1 12  1  0  0  0  0
  1 11  1  0  0  0  0
  2 13  1  1  0  0  0
  2  1  1  0  0  0  0
  3  2  1  0  0  0  0
  3 15  1  0  0  0  0
  4  3  1  0  0  0  0
  5  4  2  0  0  0  0
  6  7  1  0  0  0  0
  6  5  1  0  0  0  0
  7  8  2  0  0  0  0
  8  4  1  0  0  0  0
  9 19  1  0  0  0  0
  9  2  1  0  0  0  0
 10  9  2  0  0  0  0
 14  3  1  0  0  0  0
 16  5  1  0  0  0  0
 17  6  1  0  0  0  0
 18  7  1  0  0  0  0
 19 23  1  0  0  0  0
 20 26  1  0  0  0  0
 20 21  1  0  0  0  0
 20 19  1  0  0  0  0
 21 22  1  0  0  0  0
 22 23  1  0  0  0  0
 22 31  1  0  0  0  0
 22 30  1  0  0  0  0
 23 32  1  1  0  0  0
 24 23  1  0  0  0  0
 24 25  2  0  0  0  0
 27 20  1  0  0  0  0
 28 21  1  0  0  0  0
 29 21  1  0  0  0  0
 33 43  1  0  0  0  0
 33 44  1  0  0  0  0
 34 33  1  0  0  0  0
 34 35  1  0  0  0  0
 35 36  1  0  0  0  0
 36 47  1  0  0  0  0
 36 37  1  0  0  0  0
 37 38  1  0  0  0  0
 37 49  1  1  0  0  0
 38 24  1  0  0  0  0
 39 37  1  0  0  0  0
 40 39  1  0  0  0  0
 41 39  2  0  0  0  0
 42 33  1  0  0  0  0
 45 35  1  0  0  0  0
 46 35  1  0  0  0  0
 48 36  1  0  0  0  0
 50 38  1  0  0  0  0
M  END
$$$$
