HPN.pdb
 OpenBabel07022418383D

 47 48  0  0  1  0  0  0  0  0999 V2000
    2.0620   -2.2470    1.1430 N   0  0  0  0  0  0  0  0  0  0  0  0
    2.8580   -1.1480    0.5490 C   0  0  1  0  0  0  0  0  0  0  0  0
    2.7390   -1.2650   -0.9290 C   0  0  0  0  0  0  0  0  0  0  0  0
    3.4750   -0.2950   -1.7240 C   0  0  0  0  0  0  0  0  0  0  0  0
    3.4280   -0.3290   -3.1300 C   0  0  0  0  0  0  0  0  0  0  0  0
    4.1980    0.6620   -3.5520 N   0  0  0  0  0  0  0  0  0  0  0  0
    4.7430    1.3370   -2.4930 C   0  0  0  0  0  0  0  0  0  0  0  0
    4.2610    0.7000   -1.4150 N   0  0  0  0  0  0  0  0  0  0  0  0
    2.4660    0.1310    1.1470 C   0  0  0  0  0  0  0  0  0  0  0  0
    3.3480    1.0610    0.9460 O   0  0  0  0  0  0  0  0  0  0  0  0
    2.5560   -2.4940    2.0350 H   0  0  0  0  0  0  0  0  0  0  0  0
    2.0840   -3.0990    0.5380 H   0  0  0  0  0  0  0  0  0  0  0  0
    3.9060   -1.3580    0.8360 H   0  0  0  0  0  0  0  0  0  0  0  0
    1.6760   -1.3720   -1.2700 H   0  0  0  0  0  0  0  0  0  0  0  0
    3.1850   -2.2830   -1.1750 H   0  0  0  0  0  0  0  0  0  0  0  0
    2.8630   -1.0320   -3.7500 H   0  0  0  0  0  0  0  0  0  0  0  0
    4.3900    0.9250   -4.5580 H   0  0  0  0  0  0  0  0  0  0  0  0
    5.4090    2.1880   -2.5710 H   0  0  0  0  0  0  0  0  0  0  0  0
    1.3130    0.4590    1.8750 N   0  0  0  0  0  0  0  0  0  0  0  0
    1.0460    1.7710    2.4390 C   0  0  0  0  0  0  0  0  0  0  0  0
    0.2590    1.5220    3.6860 C   0  0  0  0  0  0  0  0  0  0  0  0
   -0.0220    0.0280    3.6740 C   0  0  0  0  0  0  0  0  0  0  0  0
    0.1850   -0.3370    2.2060 C   0  0  1  0  0  0  0  0  0  0  0  0
   -1.0280    0.0130    1.4120 C   0  0  0  0  0  0  0  0  0  0  0  0
   -1.0470    0.9790    0.5750 O   0  0  0  0  0  0  0  0  0  0  0  0
    0.5630    2.4500    1.7200 H   0  0  0  0  0  0  0  0  0  0  0  0
    2.0120    2.2770    2.7370 H   0  0  0  0  0  0  0  0  0  0  0  0
   -0.6920    2.0960    3.7170 H   0  0  0  0  0  0  0  0  0  0  0  0
    0.8660    1.7880    4.6020 H   0  0  0  0  0  0  0  0  0  0  0  0
    0.7880   -0.4710    4.2260 H   0  0  0  0  0  0  0  0  0  0  0  0
   -1.0010   -0.2430    4.0580 H   0  0  0  0  0  0  0  0  0  0  0  0
    0.2760   -1.4120    2.1830 H   0  0  0  0  0  0  0  0  0  0  0  0
   -3.3400   -4.0410    0.3450 N   0  0  0  0  0  0  0  0  0  0  0  0
   -4.0220   -2.8200    0.6320 C   0  0  0  0  0  0  0  0  0  0  0  0
   -4.8720   -2.8220    1.5770 O   0  0  0  0  0  0  0  0  0  0  0  0
   -3.7660   -1.5940   -0.1220 C   0  0  0  0  0  0  0  0  0  0  0  0
   -3.4420   -0.3880    0.7670 C   0  0  2  0  0  0  0  0  0  0  0  0
   -2.2390   -0.7080    1.5360 N   0  0  0  0  0  0  0  0  0  0  0  0
   -4.5610   -0.2230    1.7190 C   0  0  0  0  0  0  0  0  0  0  0  0
   -4.3960   -0.3660    2.9760 O   0  0  0  0  0  0  0  0  0  0  0  0
   -5.8360    0.0950    1.2810 O   0  0  0  0  0  0  0  0  0  0  0  0
   -2.7310   -4.1620   -0.4940 H   0  0  0  0  0  0  0  0  0  0  0  0
   -3.4420   -4.8680    0.9960 H   0  0  0  0  0  0  0  0  0  0  0  0
   -4.6360   -1.3250   -0.7650 H   0  0  0  0  0  0  0  0  0  0  0  0
   -2.9110   -1.7200   -0.8090 H   0  0  0  0  0  0  0  0  0  0  0  0
   -3.2790    0.4890    0.1310 H   0  0  0  0  0  0  0  0  0  0  0  0
   -2.2950   -1.5040    2.1950 H   0  0  0  0  0  0  0  0  0  0  0  0
  1 11  1  0  0  0  0
  2 13  1  1  0  0  0
  2  1  1  0  0  0  0
  2  9  1  0  0  0  0
  3  2  1  0  0  0  0
  4  8  1  0  0  0  0
  4  3  1  0  0  0  0
  5  4  2  0  0  0  0
  6  5  1  0  0  0  0
  6  7  1  0  0  0  0
  7  8  2  0  0  0  0
  9 19  1  0  0  0  0
 10  9  2  0  0  0  0
 12  1  1  0  0  0  0
 14  3  1  0  0  0  0
 15  3  1  0  0  0  0
 16  5  1  0  0  0  0
 17  6  1  0  0  0  0
 18  7  1  0  0  0  0
 19 23  1  0  0  0  0
 19 20  1  0  0  0  0
 20 27  1  0  0  0  0
 20 21  1  0  0  0  0
 21 28  1  0  0  0  0
 21 29  1  0  0  0  0
 22 21  1  0  0  0  0
 22 31  1  0  0  0  0
 22 30  1  0  0  0  0
 23 32  1  6  0  0  0
 23 22  1  0  0  0  0
 24 38  1  0  0  0  0
 24 23  1  0  0  0  0
 25 24  2  0  0  0  0
 26 20  1  0  0  0  0
 33 34  1  0  0  0  0
 33 43  1  0  0  0  0
 34 35  2  0  0  0  0
 36 34  1  0  0  0  0
 36 37  1  0  0  0  0
 37 46  1  6  0  0  0
 37 38  1  0  0  0  0
 37 39  1  0  0  0  0
 38 47  1  0  0  0  0
 39 40  1  0  0  0  0
 41 39  2  0  0  0  0
 42 33  1  0  0  0  0
 44 36  1  0  0  0  0
 45 36  1  0  0  0  0
M  END
$$$$
