HPR.pdb
 OpenBabel07022418383D

 56 57  0  0  1  0  0  0  0  0999 V2000
   -0.7690   -1.8230    2.2810 N   0  0  0  0  0  0  0  0  0  0  0  0
    0.2810   -1.1060    2.9000 C   0  0  1  0  0  0  0  0  0  0  0  0
    1.5110   -1.9800    3.1390 C   0  0  0  0  0  0  0  0  0  0  0  0
    2.5910   -1.1820    3.7910 C   0  0  0  0  0  0  0  0  0  0  0  0
    3.5780   -0.4570    3.1160 C   0  0  0  0  0  0  0  0  0  0  0  0
    4.3810    0.1400    4.0010 N   0  0  0  0  0  0  0  0  0  0  0  0
    3.9340   -0.1830    5.2190 C   0  0  0  0  0  0  0  0  0  0  0  0
    2.8440   -0.9890    5.0930 N   0  0  0  0  0  0  0  0  0  0  0  0
    0.6680    0.1560    2.2820 C   0  0  0  0  0  0  0  0  0  0  0  0
    1.1050    0.9870    3.2460 O   0  0  0  0  0  0  0  0  0  0  0  0
   -0.5590   -2.8400    2.1800 H   0  0  0  0  0  0  0  0  0  0  0  0
   -1.7160   -1.6440    2.6740 H   0  0  0  0  0  0  0  0  0  0  0  0
   -0.0960   -0.8920    3.9610 H   0  0  0  0  0  0  0  0  0  0  0  0
    1.2340   -2.8650    3.7540 H   0  0  0  0  0  0  0  0  0  0  0  0
    1.9140   -2.3190    2.1670 H   0  0  0  0  0  0  0  0  0  0  0  0
    3.6460   -0.4120    2.0490 H   0  0  0  0  0  0  0  0  0  0  0  0
    5.1990    0.7440    3.7740 H   0  0  0  0  0  0  0  0  0  0  0  0
    4.3850    0.1540    6.1430 H   0  0  0  0  0  0  0  0  0  0  0  0
    0.6710    0.6370    0.9890 N   0  0  0  0  0  0  0  0  0  0  0  0
    1.0010    2.0900    0.7780 C   0  0  0  0  0  0  0  0  0  0  0  0
    2.0830    1.9500   -0.2540 C   0  0  0  0  0  0  0  0  0  0  0  0
    1.8790    0.6210   -0.9130 C   0  0  0  0  0  0  0  0  0  0  0  0
    0.4820    0.2380   -0.3200 C   0  0  1  0  0  0  0  0  0  0  0  0
    0.1560   -1.0910   -0.7580 C   0  0  0  0  0  0  0  0  0  0  0  0
    0.5890   -2.0940   -0.1980 O   0  0  0  0  0  0  0  0  0  0  0  0
    0.0750    2.5200    0.3470 H   0  0  0  0  0  0  0  0  0  0  0  0
    1.3100    2.5770    1.6920 H   0  0  0  0  0  0  0  0  0  0  0  0
    3.0820    2.0370    0.2360 H   0  0  0  0  0  0  0  0  0  0  0  0
    1.9660    2.7690   -1.0080 H   0  0  0  0  0  0  0  0  0  0  0  0
    1.8470    0.6290   -1.9980 H   0  0  0  0  0  0  0  0  0  0  0  0
    2.5710   -0.1220   -0.4690 H   0  0  0  0  0  0  0  0  0  0  0  0
   -0.1870    0.9720   -0.9030 H   0  0  0  0  0  0  0  0  0  0  0  0
   -3.0240    0.5780    1.4670 N   0  0  0  0  0  0  0  0  0  0  0  0
   -3.2770    0.2690    0.0870 C   0  0  0  0  0  0  0  0  0  0  0  0
   -3.6400    1.1920   -0.7120 N   0  0  0  0  0  0  0  0  0  0  0  0
   -3.1270   -1.0710   -0.4200 N   0  0  0  0  0  0  0  0  0  0  0  0
   -3.9500   -1.4730   -1.5140 C   0  0  0  0  0  0  0  0  0  0  0  0
   -3.6020   -2.7730   -2.1150 C   0  0  0  0  0  0  0  0  0  0  0  0
   -2.3470   -2.9400   -2.8700 C   0  0  0  0  0  0  0  0  0  0  0  0
   -1.0250   -2.6700   -2.3170 C   0  0  2  0  0  0  0  0  0  0  0  0
   -0.7090   -1.3310   -1.8950 N   0  0  0  0  0  0  0  0  0  0  0  0
    0.0310   -3.1090   -3.3460 C   0  0  0  0  0  0  0  0  0  0  0  0
   -0.0170   -4.2400   -3.8710 O   0  0  0  0  0  0  0  0  0  0  0  0
    1.0560   -2.2520   -3.7050 O   0  0  0  0  0  0  0  0  0  0  0  0
   -3.4030    0.0110    2.2540 H   0  0  0  0  0  0  0  0  0  0  0  0
   -2.4360    1.4060    1.7280 H   0  0  0  0  0  0  0  0  0  0  0  0
   -3.7730    2.1830   -0.4400 H   0  0  0  0  0  0  0  0  0  0  0  0
   -2.4480   -1.7050    0.0660 H   0  0  0  0  0  0  0  0  0  0  0  0
   -3.9800   -0.7160   -2.3340 H   0  0  0  0  0  0  0  0  0  0  0  0
   -5.0130   -1.4730   -1.1180 H   0  0  0  0  0  0  0  0  0  0  0  0
   -3.6510   -3.5630   -1.3070 H   0  0  0  0  0  0  0  0  0  0  0  0
   -4.4370   -3.1080   -2.8300 H   0  0  0  0  0  0  0  0  0  0  0  0
   -2.3610   -4.0550   -3.1880 H   0  0  0  0  0  0  0  0  0  0  0  0
   -2.4610   -2.4690   -3.9160 H   0  0  0  0  0  0  0  0  0  0  0  0
   -0.8060   -3.3700   -1.4600 H   0  0  0  0  0  0  0  0  0  0  0  0
   -1.1030   -0.4870   -2.4080 H   0  0  0  0  0  0  0  0  0  0  0  0
  1 12  1  0  0  0  0
  1  2  1  0  0  0  0
  2  3  1  0  0  0  0
  2 13  1  1  0  0  0
  3 14  1  0  0  0  0
  3  4  1  0  0  0  0
  4  8  1  0  0  0  0
  5  4  2  0  0  0  0
  5  6  1  0  0  0  0
  6  7  1  0  0  0  0
  7 18  1  0  0  0  0
  8  7  2  0  0  0  0
  9  2  1  0  0  0  0
  9 10  2  0  0  0  0
 11  1  1  0  0  0  0
 15  3  1  0  0  0  0
 16  5  1  0  0  0  0
 17  6  1  0  0  0  0
 19  9  1  0  0  0  0
 20 19  1  0  0  0  0
 20 27  1  0  0  0  0
 21 28  1  0  0  0  0
 21 20  1  0  0  0  0
 22 31  1  0  0  0  0
 22 23  1  0  0  0  0
 22 21  1  0  0  0  0
 23 32  1  6  0  0  0
 23 19  1  0  0  0  0
 24 23  1  0  0  0  0
 24 25  2  0  0  0  0
 26 20  1  0  0  0  0
 29 21  1  0  0  0  0
 30 22  1  0  0  0  0
 33 46  1  0  0  0  0
 33 45  1  0  0  0  0
 34 33  1  0  0  0  0
 35 47  1  0  0  0  0
 35 34  2  0  0  0  0
 36 48  1  0  0  0  0
 36 34  1  0  0  0  0
 37 50  1  0  0  0  0
 37 36  1  0  0  0  0
 38 37  1  0  0  0  0
 38 51  1  0  0  0  0
 39 40  1  0  0  0  0
 39 38  1  0  0  0  0
 40 41  1  0  0  0  0
 40 55  1  1  0  0  0
 41 24  1  0  0  0  0
 42 40  1  0  0  0  0
 43 42  2  0  0  0  0
 44 42  1  0  0  0  0
 49 37  1  0  0  0  0
 52 38  1  0  0  0  0
 53 39  1  0  0  0  0
 54 39  1  0  0  0  0
 56 41  1  0  0  0  0
M  END
$$$$
