HPS.pdb
 OpenBabel07022418383D

 44 45  0  0  1  0  0  0  0  0999 V2000
   -0.2430    0.0040    3.5420 N   0  0  0  0  0  0  0  0  0  0  0  0
    1.0970   -0.3200    3.1020 C   0  0  1  0  0  0  0  0  0  0  0  0
    1.1560   -1.8490    3.0860 C   0  0  0  0  0  0  0  0  0  0  0  0
    2.4960   -2.2830    2.6480 C   0  0  0  0  0  0  0  0  0  0  0  0
    3.5410   -2.4900    3.5490 C   0  0  0  0  0  0  0  0  0  0  0  0
    4.6240   -2.8790    2.8490 N   0  0  0  0  0  0  0  0  0  0  0  0
    4.2880   -2.9210    1.5440 C   0  0  0  0  0  0  0  0  0  0  0  0
    2.9970   -2.5590    1.4330 N   0  0  0  0  0  0  0  0  0  0  0  0
    1.4600    0.2430    1.7950 C   0  0  0  0  0  0  0  0  0  0  0  0
    2.6670    0.0500    1.4070 O   0  0  0  0  0  0  0  0  0  0  0  0
   -0.1570    0.8840    4.1340 H   0  0  0  0  0  0  0  0  0  0  0  0
   -0.5460   -0.7260    4.2330 H   0  0  0  0  0  0  0  0  0  0  0  0
    1.8090    0.0330    3.8930 H   0  0  0  0  0  0  0  0  0  0  0  0
    0.8680   -2.2360    4.0660 H   0  0  0  0  0  0  0  0  0  0  0  0
    0.4150   -2.2070    2.3210 H   0  0  0  0  0  0  0  0  0  0  0  0
    3.4820   -2.3580    4.6280 H   0  0  0  0  0  0  0  0  0  0  0  0
    5.5440   -3.1000    3.2770 H   0  0  0  0  0  0  0  0  0  0  0  0
    4.9560   -3.1990    0.7490 H   0  0  0  0  0  0  0  0  0  0  0  0
    0.6190    0.9710    0.9230 N   0  0  0  0  0  0  0  0  0  0  0  0
    1.1340    1.4650   -0.3720 C   0  0  0  0  0  0  0  0  0  0  0  0
    0.2370    2.6090   -0.7810 C   0  0  0  0  0  0  0  0  0  0  0  0
   -0.6280    2.8260    0.4410 C   0  0  0  0  0  0  0  0  0  0  0  0
   -0.7140    1.3980    0.9550 C   0  0  1  0  0  0  0  0  0  0  0  0
   -1.7280    0.6700    0.2470 C   0  0  0  0  0  0  0  0  0  0  0  0
   -2.9060    1.1210    0.2640 O   0  0  0  0  0  0  0  0  0  0  0  0
    1.1230    0.7150   -1.1560 H   0  0  0  0  0  0  0  0  0  0  0  0
    2.1890    1.7970   -0.2540 H   0  0  0  0  0  0  0  0  0  0  0  0
    0.8760    3.5180   -0.8790 H   0  0  0  0  0  0  0  0  0  0  0  0
   -0.3470    2.4030   -1.6940 H   0  0  0  0  0  0  0  0  0  0  0  0
   -1.6700    3.1360    0.1440 H   0  0  0  0  0  0  0  0  0  0  0  0
   -0.1930    3.5180    1.1690 H   0  0  0  0  0  0  0  0  0  0  0  0
   -1.0770    1.5280    2.0210 H   0  0  0  0  0  0  0  0  0  0  0  0
   -2.0140    0.0620   -3.1340 O   0  0  0  0  0  0  0  0  0  0  0  0
   -2.0640   -1.2460   -2.6470 C   0  0  0  0  0  0  0  0  0  0  0  0
   -2.4750   -1.2680   -1.1850 C   0  0  2  0  0  0  0  0  0  0  0  0
   -1.4810   -0.5060   -0.4580 N   0  0  0  0  0  0  0  0  0  0  0  0
   -2.4850   -2.6560   -0.7090 C   0  0  0  0  0  0  0  0  0  0  0  0
   -3.2910   -3.4690   -1.2310 O   0  0  0  0  0  0  0  0  0  0  0  0
   -1.6500   -3.1320    0.2930 O   0  0  0  0  0  0  0  0  0  0  0  0
   -1.3740    0.1510   -3.8870 H   0  0  0  0  0  0  0  0  0  0  0  0
   -1.0280   -1.6510   -2.7300 H   0  0  0  0  0  0  0  0  0  0  0  0
   -2.7100   -1.9030   -3.2560 H   0  0  0  0  0  0  0  0  0  0  0  0
   -3.4800   -0.8150   -1.1280 H   0  0  0  0  0  0  0  0  0  0  0  0
   -0.5170   -0.8680   -0.4630 H   0  0  0  0  0  0  0  0  0  0  0  0
  1 11  1  0  0  0  0
  1 12  1  0  0  0  0
  2  1  1  0  0  0  0
  2 13  1  1  0  0  0
  3  2  1  0  0  0  0
  3 14  1  0  0  0  0
  4  3  1  0  0  0  0
  4  5  2  0  0  0  0
  5 16  1  0  0  0  0
  6 17  1  0  0  0  0
  6  5  1  0  0  0  0
  7  6  1  0  0  0  0
  8  7  2  0  0  0  0
  8  4  1  0  0  0  0
  9  2  1  0  0  0  0
 10  9  2  0  0  0  0
 15  3  1  0  0  0  0
 18  7  1  0  0  0  0
 19 23  1  0  0  0  0
 19  9  1  0  0  0  0
 20 27  1  0  0  0  0
 20 19  1  0  0  0  0
 21 20  1  0  0  0  0
 21 22  1  0  0  0  0
 22 23  1  0  0  0  0
 22 31  1  0  0  0  0
 23 32  1  1  0  0  0
 24 25  2  0  0  0  0
 24 23  1  0  0  0  0
 26 20  1  0  0  0  0
 28 21  1  0  0  0  0
 29 21  1  0  0  0  0
 30 22  1  0  0  0  0
 33 34  1  0  0  0  0
 34 35  1  0  0  0  0
 35 43  1  1  0  0  0
 35 37  1  0  0  0  0
 35 36  1  0  0  0  0
 36 24  1  0  0  0  0
 37 39  1  0  0  0  0
 38 37  2  0  0  0  0
 40 33  1  0  0  0  0
 41 34  1  0  0  0  0
 42 34  1  0  0  0  0
 44 36  1  0  0  0  0
M  END
$$$$
