HPW.pdb
 OpenBabel07022418383D

 57 60  0  0  1  0  0  0  0  0999 V2000
    2.2980    2.4660    1.4310 N   0  0  0  0  0  0  0  0  0  0  0  0
    2.1900    2.8380    0.0700 C   0  0  1  0  0  0  0  0  0  0  0  0
    3.4710    2.7420   -0.7280 C   0  0  0  0  0  0  0  0  0  0  0  0
    4.0570    1.3930   -0.7630 C   0  0  0  0  0  0  0  0  0  0  0  0
    3.6190    0.2520   -0.1340 C   0  0  0  0  0  0  0  0  0  0  0  0
    4.4670   -0.7810   -0.4100 N   0  0  0  0  0  0  0  0  0  0  0  0
    5.4080   -0.2750   -1.1960 C   0  0  0  0  0  0  0  0  0  0  0  0
    5.1780    1.0280   -1.4180 N   0  0  0  0  0  0  0  0  0  0  0  0
    1.0210    2.3720   -0.6810 C   0  0  0  0  0  0  0  0  0  0  0  0
    1.0670    2.6260   -1.9380 O   0  0  0  0  0  0  0  0  0  0  0  0
    3.2560    2.1300    1.6690 H   0  0  0  0  0  0  0  0  0  0  0  0
    2.0900    3.2080    2.1220 H   0  0  0  0  0  0  0  0  0  0  0  0
    2.0200    3.9910    0.1140 H   0  0  0  0  0  0  0  0  0  0  0  0
    4.2320    3.4930   -0.3570 H   0  0  0  0  0  0  0  0  0  0  0  0
    3.2280    3.1240   -1.7590 H   0  0  0  0  0  0  0  0  0  0  0  0
    2.7610    0.1320    0.4900 H   0  0  0  0  0  0  0  0  0  0  0  0
    4.3350   -1.7670   -0.0320 H   0  0  0  0  0  0  0  0  0  0  0  0
    6.2420   -0.8550   -1.5950 H   0  0  0  0  0  0  0  0  0  0  0  0
   -0.1160    1.7060   -0.2380 N   0  0  0  0  0  0  0  0  0  0  0  0
   -1.2630    1.2820   -1.0850 C   0  0  0  0  0  0  0  0  0  0  0  0
   -2.4130    1.7270   -0.2200 C   0  0  0  0  0  0  0  0  0  0  0  0
   -1.9420    1.5590    1.1840 C   0  0  0  0  0  0  0  0  0  0  0  0
   -0.4600    1.2840    1.1000 C   0  0  1  0  0  0  0  0  0  0  0  0
   -0.1920   -0.1890    1.2410 C   0  0  0  0  0  0  0  0  0  0  0  0
    0.2610   -0.7660    0.2450 O   0  0  0  0  0  0  0  0  0  0  0  0
   -1.2410    0.1940   -1.2610 H   0  0  0  0  0  0  0  0  0  0  0  0
   -1.1850    1.8690   -2.0200 H   0  0  0  0  0  0  0  0  0  0  0  0
   -3.3300    1.1290   -0.4420 H   0  0  0  0  0  0  0  0  0  0  0  0
   -2.5910    2.7970   -0.4790 H   0  0  0  0  0  0  0  0  0  0  0  0
   -2.4440    0.6840    1.6350 H   0  0  0  0  0  0  0  0  0  0  0  0
   -2.1200    2.4910    1.7630 H   0  0  0  0  0  0  0  0  0  0  0  0
    0.1290    1.8130    1.8320 H   0  0  0  0  0  0  0  0  0  0  0  0
   -0.4330   -0.8950    2.4260 N   0  0  0  0  0  0  0  0  0  0  0  0
   -0.2210   -2.2570    2.7370 C   0  0  1  0  0  0  0  0  0  0  0  0
   -1.4760   -3.0550    2.9060 C   0  0  0  0  0  0  0  0  0  0  0  0
   -2.3790   -3.0670    1.7500 C   0  0  0  0  0  0  0  0  0  0  0  0
   -3.5040   -2.2340    1.6970 C   0  0  0  0  0  0  0  0  0  0  0  0
   -4.1220   -2.4290    0.5420 N   0  0  0  0  0  0  0  0  0  0  0  0
   -3.4440   -3.3520   -0.1510 C   0  0  0  0  0  0  0  0  0  0  0  0
   -3.6770   -3.9000   -1.3950 C   0  0  0  0  0  0  0  0  0  0  0  0
   -2.8330   -4.8590   -1.9200 C   0  0  0  0  0  0  0  0  0  0  0  0
   -1.7570   -5.2690   -1.1990 C   0  0  0  0  0  0  0  0  0  0  0  0
   -1.5300   -4.7100    0.0560 C   0  0  0  0  0  0  0  0  0  0  0  0
   -2.3530   -3.7640    0.5850 C   0  0  0  0  0  0  0  0  0  0  0  0
    0.8090   -3.0240    2.0540 C   0  0  0  0  0  0  0  0  0  0  0  0
    0.9660   -4.2270    2.4440 O   0  0  0  0  0  0  0  0  0  0  0  0
    1.6210   -2.5980    1.0510 O   0  0  0  0  0  0  0  0  0  0  0  0
   -0.8470   -0.2720    3.2130 H   0  0  0  0  0  0  0  0  0  0  0  0
    0.2240   -2.2480    3.8380 H   0  0  0  0  0  0  0  0  0  0  0  0
   -1.1500   -4.1270    3.0640 H   0  0  0  0  0  0  0  0  0  0  0  0
   -2.0350   -2.8120    3.8400 H   0  0  0  0  0  0  0  0  0  0  0  0
   -3.8110   -1.5530    2.4650 H   0  0  0  0  0  0  0  0  0  0  0  0
   -4.9900   -1.9390    0.2360 H   0  0  0  0  0  0  0  0  0  0  0  0
   -4.5520   -3.5460   -1.9470 H   0  0  0  0  0  0  0  0  0  0  0  0
   -3.0360   -5.2730   -2.8980 H   0  0  0  0  0  0  0  0  0  0  0  0
   -1.1030   -6.0190   -1.6180 H   0  0  0  0  0  0  0  0  0  0  0  0
   -0.6720   -5.0700    0.5960 H   0  0  0  0  0  0  0  0  0  0  0  0
  1 11  1  0  0  0  0
  1 12  1  0  0  0  0
  2 13  1  1  0  0  0
  2  1  1  0  0  0  0
  3 14  1  0  0  0  0
  3  2  1  0  0  0  0
  4  3  1  0  0  0  0
  4  5  2  0  0  0  0
  5 16  1  0  0  0  0
  6  5  1  0  0  0  0
  6 17  1  0  0  0  0
  7  6  1  0  0  0  0
  8  7  2  0  0  0  0
  8  4  1  0  0  0  0
  9 19  1  0  0  0  0
  9  2  1  0  0  0  0
 10  9  2  0  0  0  0
 15  3  1  0  0  0  0
 18  7  1  0  0  0  0
 19 23  1  0  0  0  0
 20 19  1  0  0  0  0
 20 21  1  0  0  0  0
 21 22  1  0  0  0  0
 22 30  1  0  0  0  0
 22 31  1  0  0  0  0
 23 22  1  0  0  0  0
 23 24  1  0  0  0  0
 23 32  1  1  0  0  0
 24 33  1  0  0  0  0
 25 24  2  0  0  0  0
 26 20  1  0  0  0  0
 27 20  1  0  0  0  0
 28 21  1  0  0  0  0
 29 21  1  0  0  0  0
 33 34  1  0  0  0  0
 33 48  1  0  0  0  0
 34 35  1  0  0  0  0
 34 49  1  1  0  0  0
 35 50  1  0  0  0  0
 35 51  1  0  0  0  0
 36 35  1  0  0  0  0
 37 36  2  0  0  0  0
 37 52  1  0  0  0  0
 38 37  1  0  0  0  0
 39 38  1  0  0  0  0
 39 44  1  0  0  0  0
 40 39  2  0  0  0  0
 41 40  1  0  0  0  0
 41 42  2  0  0  0  0
 42 43  1  0  0  0  0
 43 44  2  0  0  0  0
 43 57  1  0  0  0  0
 44 36  1  0  0  0  0
 45 46  1  0  0  0  0
 45 34  1  0  0  0  0
 47 45  2  0  0  0  0
 53 38  1  0  0  0  0
 54 40  1  0  0  0  0
 55 41  1  0  0  0  0
 56 42  1  0  0  0  0
M  END
$$$$
