HPY.pdb
 OpenBabel07022418383D

 54 56  0  0  1  0  0  0  0  0999 V2000
    0.7500   -2.6530    4.1050 N   0  0  0  0  0  0  0  0  0  0  0  0
    0.9470   -1.3530    3.4610 C   0  0  1  0  0  0  0  0  0  0  0  0
    2.2230   -1.3910    2.6380 C   0  0  0  0  0  0  0  0  0  0  0  0
    3.4030   -1.6840    3.4880 C   0  0  0  0  0  0  0  0  0  0  0  0
    3.9120   -2.9280    3.7870 C   0  0  0  0  0  0  0  0  0  0  0  0
    4.9700   -2.7690    4.5750 N   0  0  0  0  0  0  0  0  0  0  0  0
    5.1380   -1.4700    4.7790 C   0  0  0  0  0  0  0  0  0  0  0  0
    4.1840   -0.7920    4.1180 N   0  0  0  0  0  0  0  0  0  0  0  0
   -0.2260   -1.0790    2.6050 C   0  0  0  0  0  0  0  0  0  0  0  0
   -1.1100   -1.9890    2.4920 O   0  0  0  0  0  0  0  0  0  0  0  0
    1.0450   -3.4010    3.4290 H   0  0  0  0  0  0  0  0  0  0  0  0
   -0.2870   -2.7230    4.2950 H   0  0  0  0  0  0  0  0  0  0  0  0
    1.0970   -0.6230    4.2630 H   0  0  0  0  0  0  0  0  0  0  0  0
    2.3420   -0.4180    2.1450 H   0  0  0  0  0  0  0  0  0  0  0  0
    2.1120   -2.2400    1.9250 H   0  0  0  0  0  0  0  0  0  0  0  0
    3.4820   -3.8530    3.4130 H   0  0  0  0  0  0  0  0  0  0  0  0
    5.5460   -3.5630    4.9510 H   0  0  0  0  0  0  0  0  0  0  0  0
    5.9040   -0.9970    5.3720 H   0  0  0  0  0  0  0  0  0  0  0  0
   -0.3830    0.1520    1.9230 N   0  0  0  0  0  0  0  0  0  0  0  0
    0.4650    1.3170    1.8980 C   0  0  0  0  0  0  0  0  0  0  0  0
   -0.5160    2.4890    1.7670 C   0  0  0  0  0  0  0  0  0  0  0  0
   -1.8710    1.8600    1.5700 C   0  0  0  0  0  0  0  0  0  0  0  0
   -1.5050    0.4810    1.0700 C   0  0  1  0  0  0  0  0  0  0  0  0
   -1.0910    0.5880   -0.3550 C   0  0  0  0  0  0  0  0  0  0  0  0
    0.1000    0.3830   -0.7500 O   0  0  0  0  0  0  0  0  0  0  0  0
    1.0320    1.4530    2.8400 H   0  0  0  0  0  0  0  0  0  0  0  0
    1.1780    1.3560    1.0630 H   0  0  0  0  0  0  0  0  0  0  0  0
   -0.4850    3.1230    2.6800 H   0  0  0  0  0  0  0  0  0  0  0  0
   -0.2300    3.1560    0.9220 H   0  0  0  0  0  0  0  0  0  0  0  0
   -2.3440    1.7280    2.5730 H   0  0  0  0  0  0  0  0  0  0  0  0
   -2.5130    2.4190    0.8740 H   0  0  0  0  0  0  0  0  0  0  0  0
   -2.3350   -0.2440    1.2030 H   0  0  0  0  0  0  0  0  0  0  0  0
   -0.5510   -4.9060   -1.2790 O   0  0  0  0  0  0  0  0  0  0  0  0
   -0.9630   -3.7190   -1.8650 C   0  0  0  0  0  0  0  0  0  0  0  0
   -2.0840   -3.1060   -1.3720 C   0  0  0  0  0  0  0  0  0  0  0  0
   -2.5310   -1.9270   -1.9210 C   0  0  0  0  0  0  0  0  0  0  0  0
   -1.8460   -1.3540   -2.9770 C   0  0  0  0  0  0  0  0  0  0  0  0
   -2.3410   -0.0800   -3.5600 C   0  0  0  0  0  0  0  0  0  0  0  0
   -1.6540    1.0460   -2.7790 C   0  0  2  0  0  0  0  0  0  0  0  0
   -2.0130    0.9310   -1.3820 N   0  0  0  0  0  0  0  0  0  0  0  0
   -1.9400    2.3560   -3.3470 C   0  0  0  0  0  0  0  0  0  0  0  0
   -1.6800    2.5950   -4.5430 O   0  0  0  0  0  0  0  0  0  0  0  0
   -0.7180   -1.9830   -3.4630 C   0  0  0  0  0  0  0  0  0  0  0  0
   -0.2750   -3.1610   -2.9120 C   0  0  0  0  0  0  0  0  0  0  0  0
   -2.4990    3.3470   -2.5710 O   0  0  0  0  0  0  0  0  0  0  0  0
   -1.0140   -5.3300   -0.5050 H   0  0  0  0  0  0  0  0  0  0  0  0
   -2.6330   -3.5410   -0.5450 H   0  0  0  0  0  0  0  0  0  0  0  0
   -3.4170   -1.4160   -1.5530 H   0  0  0  0  0  0  0  0  0  0  0  0
   -1.9760   -0.0450   -4.6110 H   0  0  0  0  0  0  0  0  0  0  0  0
   -3.4270   -0.0090   -3.4800 H   0  0  0  0  0  0  0  0  0  0  0  0
   -0.5510    0.8080   -2.8250 H   0  0  0  0  0  0  0  0  0  0  0  0
   -3.0040    1.1110   -1.1280 H   0  0  0  0  0  0  0  0  0  0  0  0
   -0.1670   -1.5560   -4.2860 H   0  0  0  0  0  0  0  0  0  0  0  0
    0.6120   -3.6650   -3.2860 H   0  0  0  0  0  0  0  0  0  0  0  0
  1 12  1  0  0  0  0
  2  1  1  0  0  0  0
  2 13  1  1  0  0  0
  3  2  1  0  0  0  0
  3  4  1  0  0  0  0
  4  5  2  0  0  0  0
  4  8  1  0  0  0  0
  5  6  1  0  0  0  0
  6  7  1  0  0  0  0
  6 17  1  0  0  0  0
  7 18  1  0  0  0  0
  8  7  2  0  0  0  0
  9  2  1  0  0  0  0
 10  9  2  0  0  0  0
 11  1  1  0  0  0  0
 14  3  1  0  0  0  0
 15  3  1  0  0  0  0
 16  5  1  0  0  0  0
 19  9  1  0  0  0  0
 20 19  1  0  0  0  0
 20 26  1  0  0  0  0
 21 20  1  0  0  0  0
 21 28  1  0  0  0  0
 22 21  1  0  0  0  0
 22 30  1  0  0  0  0
 23 32  1  1  0  0  0
 23 22  1  0  0  0  0
 23 19  1  0  0  0  0
 24 23  1  0  0  0  0
 25 24  2  0  0  0  0
 27 20  1  0  0  0  0
 29 21  1  0  0  0  0
 31 22  1  0  0  0  0
 33 46  1  0  0  0  0
 34 35  1  0  0  0  0
 34 33  1  0  0  0  0
 35 47  1  0  0  0  0
 36 48  1  0  0  0  0
 36 35  2  0  0  0  0
 37 36  1  0  0  0  0
 38 50  1  0  0  0  0
 38 37  1  0  0  0  0
 38 39  1  0  0  0  0
 39 51  1  6  0  0  0
 39 40  1  0  0  0  0
 40 52  1  0  0  0  0
 40 24  1  0  0  0  0
 41 39  1  0  0  0  0
 41 45  1  0  0  0  0
 42 41  2  0  0  0  0
 43 37  2  0  0  0  0
 43 44  1  0  0  0  0
 44 34  2  0  0  0  0
 49 38  1  0  0  0  0
 53 43  1  0  0  0  0
 54 44  1  0  0  0  0
M  END
$$$$
