HQA.pdb
 OpenBabel07022418363D

 46 46  0  0  1  0  0  0  0  0999 V2000
    0.5260   -3.1670    0.1160 N   0  0  0  0  0  0  0  0  0  0  0  0
    0.8840   -3.1360    1.5210 C   0  0  1  0  0  0  0  0  0  0  0  0
    2.2930   -3.6570    1.7030 C   0  0  0  0  0  0  0  0  0  0  0  0
    3.2840   -2.8480    0.9610 C   0  0  0  0  0  0  0  0  0  0  0  0
    3.9440   -1.7550    1.4590 C   0  0  0  0  0  0  0  0  0  0  0  0
    4.7610   -1.2720    0.5190 N   0  0  0  0  0  0  0  0  0  0  0  0
    4.6300   -2.0490   -0.5760 C   0  0  0  0  0  0  0  0  0  0  0  0
    3.7340   -2.9980   -0.2950 N   0  0  0  0  0  0  0  0  0  0  0  0
    0.7340   -1.7640    2.0570 C   0  0  0  0  0  0  0  0  0  0  0  0
    1.0010   -1.5450    3.2610 O   0  0  0  0  0  0  0  0  0  0  0  0
   -0.3990   -3.5900   -0.0360 H   0  0  0  0  0  0  0  0  0  0  0  0
    1.2760   -3.6080   -0.4440 H   0  0  0  0  0  0  0  0  0  0  0  0
    0.2000   -3.8280    2.0530 H   0  0  0  0  0  0  0  0  0  0  0  0
    2.2970   -4.6930    1.2650 H   0  0  0  0  0  0  0  0  0  0  0  0
    2.5270   -3.7680    2.7760 H   0  0  0  0  0  0  0  0  0  0  0  0
    3.8170   -1.3570    2.4460 H   0  0  0  0  0  0  0  0  0  0  0  0
    5.4050   -0.4290    0.6040 H   0  0  0  0  0  0  0  0  0  0  0  0
    5.1810   -1.8870   -1.5000 H   0  0  0  0  0  0  0  0  0  0  0  0
    0.1190    2.5700   -2.3550 N   0  0  0  0  0  0  0  0  0  0  0  0
   -0.0330    2.3590   -0.9220 C   0  0  0  0  0  0  0  0  0  0  0  0
   -1.1540    2.5930   -0.4760 O   0  0  0  0  0  0  0  0  0  0  0  0
    1.1600    1.9020   -0.2120 C   0  0  0  0  0  0  0  0  0  0  0  0
    1.0740    1.6430    1.2240 C   0  0  0  0  0  0  0  0  0  0  0  0
    0.1540    0.6350    1.7650 C   0  0  2  0  0  0  0  0  0  0  0  0
    0.3070   -0.6920    1.2820 N   0  0  0  0  0  0  0  0  0  0  0  0
   -1.2750    0.9770    1.8560 C   0  0  0  0  0  0  0  0  0  0  0  0
   -1.6920    2.0510    2.3790 O   0  0  0  0  0  0  0  0  0  0  0  0
    0.0810    3.5480   -2.6990 H   0  0  0  0  0  0  0  0  0  0  0  0
    0.2580    1.8020   -3.0170 H   0  0  0  0  0  0  0  0  0  0  0  0
    1.6060    1.0790   -0.8210 H   0  0  0  0  0  0  0  0  0  0  0  0
    1.9230    2.7400   -0.3500 H   0  0  0  0  0  0  0  0  0  0  0  0
    0.7680    2.6350    1.6950 H   0  0  0  0  0  0  0  0  0  0  0  0
    2.0860    1.4900    1.7120 H   0  0  0  0  0  0  0  0  0  0  0  0
    0.4620    0.5450    2.8790 H   0  0  0  0  0  0  0  0  0  0  0  0
    0.0740   -0.8510    0.2550 H   0  0  0  0  0  0  0  0  0  0  0  0
   -4.3480    0.5390    0.0810 C   0  0  0  0  0  0  0  0  0  0  0  0
   -3.6920    0.4000    1.4210 C   0  0  2  0  0  0  0  0  0  0  0  0
   -2.2880    0.1110    1.3560 N   0  0  0  0  0  0  0  0  0  0  0  0
   -4.4170   -0.5520    2.3120 C   0  0  0  0  0  0  0  0  0  0  0  0
   -5.6350   -0.5020    2.5240 O   0  0  0  0  0  0  0  0  0  0  0  0
   -3.6710   -1.5430    2.9300 O   0  0  0  0  0  0  0  0  0  0  0  0
   -3.6480    0.1030   -0.6900 H   0  0  0  0  0  0  0  0  0  0  0  0
   -5.2780   -0.0590   -0.0150 H   0  0  0  0  0  0  0  0  0  0  0  0
   -4.6210    1.5780   -0.1790 H   0  0  0  0  0  0  0  0  0  0  0  0
   -3.7870    1.4040    1.9280 H   0  0  0  0  0  0  0  0  0  0  0  0
   -1.9950   -0.7900    0.9140 H   0  0  0  0  0  0  0  0  0  0  0  0
  1  2  1  0  0  0  0
  2  3  1  0  0  0  0
  2 13  1  1  0  0  0
  2  9  1  0  0  0  0
  3 15  1  0  0  0  0
  4  5  2  0  0  0  0
  4  3  1  0  0  0  0
  5 16  1  0  0  0  0
  6 17  1  0  0  0  0
  6  5  1  0  0  0  0
  7  8  2  0  0  0  0
  7  6  1  0  0  0  0
  8  4  1  0  0  0  0
  9 10  2  0  0  0  0
 11  1  1  0  0  0  0
 12  1  1  0  0  0  0
 14  3  1  0  0  0  0
 18  7  1  0  0  0  0
 19 20  1  0  0  0  0
 20 21  2  0  0  0  0
 20 22  1  0  0  0  0
 22 23  1  0  0  0  0
 23 32  1  0  0  0  0
 23 33  1  0  0  0  0
 23 24  1  0  0  0  0
 24 26  1  0  0  0  0
 24 34  1  1  0  0  0
 25 24  1  0  0  0  0
 25  9  1  0  0  0  0
 26 27  2  0  0  0  0
 28 19  1  0  0  0  0
 29 19  1  0  0  0  0
 30 22  1  0  0  0  0
 31 22  1  0  0  0  0
 35 25  1  0  0  0  0
 36 37  1  0  0  0  0
 37 45  1  1  0  0  0
 37 39  1  0  0  0  0
 38 37  1  0  0  0  0
 38 26  1  0  0  0  0
 39 40  2  0  0  0  0
 39 41  1  0  0  0  0
 42 36  1  0  0  0  0
 43 36  1  0  0  0  0
 44 36  1  0  0  0  0
 46 38  1  0  0  0  0
M  END
$$$$
