HQD.pdb
 OpenBabel07022418363D

 49 49  0  0  1  0  0  0  0  0999 V2000
    3.4870   -0.4970    1.0900 N   0  0  0  0  0  0  0  0  0  0  0  0
    2.9510    0.5660    0.2970 C   0  0  1  0  0  0  0  0  0  0  0  0
    3.4650    0.5100   -1.1190 C   0  0  0  0  0  0  0  0  0  0  0  0
    4.9430    0.6340   -1.0950 C   0  0  0  0  0  0  0  0  0  0  0  0
    5.6800    1.8020   -1.1690 C   0  0  0  0  0  0  0  0  0  0  0  0
    6.9880    1.5300   -1.1260 N   0  0  0  0  0  0  0  0  0  0  0  0
    7.1140    0.2080   -1.0260 C   0  0  0  0  0  0  0  0  0  0  0  0
    5.8700   -0.3470   -1.0060 N   0  0  0  0  0  0  0  0  0  0  0  0
    1.4780    0.5610    0.3650 C   0  0  0  0  0  0  0  0  0  0  0  0
    0.8040    1.4150   -0.2970 O   0  0  0  0  0  0  0  0  0  0  0  0
    3.1940   -1.4390    0.7860 H   0  0  0  0  0  0  0  0  0  0  0  0
    3.2510   -0.3640    2.0850 H   0  0  0  0  0  0  0  0  0  0  0  0
    3.2840    1.5370    0.7550 H   0  0  0  0  0  0  0  0  0  0  0  0
    3.1000    1.4060   -1.6900 H   0  0  0  0  0  0  0  0  0  0  0  0
    3.1510   -0.3840   -1.6610 H   0  0  0  0  0  0  0  0  0  0  0  0
    5.2030    2.7840   -1.2480 H   0  0  0  0  0  0  0  0  0  0  0  0
    7.7550    2.2140   -1.1660 H   0  0  0  0  0  0  0  0  0  0  0  0
    8.0490   -0.3600   -0.9690 H   0  0  0  0  0  0  0  0  0  0  0  0
   -1.1000    4.1880    2.6190 N   0  0  0  0  0  0  0  0  0  0  0  0
   -1.4720    3.1050    1.7970 C   0  0  0  0  0  0  0  0  0  0  0  0
   -2.3070    3.2790    0.8940 O   0  0  0  0  0  0  0  0  0  0  0  0
   -0.8760    1.7890    2.0100 C   0  0  0  0  0  0  0  0  0  0  0  0
   -1.3710    0.7330    1.0490 C   0  0  0  0  0  0  0  0  0  0  0  0
   -0.5940   -0.5390    1.3800 C   0  0  2  0  0  0  0  0  0  0  0  0
    0.8250   -0.3960    1.1670 N   0  0  0  0  0  0  0  0  0  0  0  0
   -1.1870   -1.7740    0.9300 C   0  0  0  0  0  0  0  0  0  0  0  0
   -0.4530   -2.6570    0.3780 O   0  0  0  0  0  0  0  0  0  0  0  0
   -0.2780    4.1070    3.2870 H   0  0  0  0  0  0  0  0  0  0  0  0
   -1.6310    5.0830    2.5760 H   0  0  0  0  0  0  0  0  0  0  0  0
   -1.2740    1.3910    3.0340 H   0  0  0  0  0  0  0  0  0  0  0  0
    0.1940    1.7270    2.1320 H   0  0  0  0  0  0  0  0  0  0  0  0
   -1.3610    1.0080   -0.0030 H   0  0  0  0  0  0  0  0  0  0  0  0
   -2.4380    0.4890    1.3660 H   0  0  0  0  0  0  0  0  0  0  0  0
   -0.6990   -0.5220    2.5440 H   0  0  0  0  0  0  0  0  0  0  0  0
    1.4330   -1.1170    1.6930 H   0  0  0  0  0  0  0  0  0  0  0  0
   -2.5630   -2.1080    1.0490 N   0  0  0  0  0  0  0  0  0  0  0  0
   -3.1000   -3.3660    0.5790 C   0  0  1  0  0  0  0  0  0  0  0  0
   -3.7970   -4.1520    1.6860 C   0  0  0  0  0  0  0  0  0  0  0  0
   -4.3230   -5.4340    1.1710 C   0  0  0  0  0  0  0  0  0  0  0  0
   -3.6010   -6.2900    0.5990 O   0  0  0  0  0  0  0  0  0  0  0  0
   -4.0610   -3.1360   -0.5540 C   0  0  0  0  0  0  0  0  0  0  0  0
   -4.3060   -1.9760   -0.9690 O   0  0  0  0  0  0  0  0  0  0  0  0
   -5.6720   -5.7220    1.3160 O   0  0  0  0  0  0  0  0  0  0  0  0
   -4.7040   -4.1940   -1.1730 O   0  0  0  0  0  0  0  0  0  0  0  0
   -3.1710   -1.3780    1.5050 H   0  0  0  0  0  0  0  0  0  0  0  0
   -2.3010   -4.0050    0.1790 H   0  0  0  0  0  0  0  0  0  0  0  0
   -2.9980   -4.3980    2.4210 H   0  0  0  0  0  0  0  0  0  0  0  0
   -4.5910   -3.5860    2.1910 H   0  0  0  0  0  0  0  0  0  0  0  0
   -6.1300   -6.3740    0.6630 H   0  0  0  0  0  0  0  0  0  0  0  0
  1 12  1  0  0  0  0
  2  9  1  0  0  0  0
  2 13  1  1  0  0  0
  2  1  1  0  0  0  0
  3  4  1  0  0  0  0
  3  2  1  0  0  0  0
  4  8  1  0  0  0  0
  5  6  1  0  0  0  0
  5  4  2  0  0  0  0
  6  7  1  0  0  0  0
  7  8  2  0  0  0  0
  7 18  1  0  0  0  0
  9 25  1  0  0  0  0
 10  9  2  0  0  0  0
 11  1  1  0  0  0  0
 14  3  1  0  0  0  0
 15  3  1  0  0  0  0
 16  5  1  0  0  0  0
 17  6  1  0  0  0  0
 19 28  1  0  0  0  0
 20 22  1  0  0  0  0
 20 19  1  0  0  0  0
 21 20  2  0  0  0  0
 22 31  1  0  0  0  0
 22 30  1  0  0  0  0
 23 33  1  0  0  0  0
 23 24  1  0  0  0  0
 23 22  1  0  0  0  0
 24 34  1  1  0  0  0
 25 24  1  0  0  0  0
 25 35  1  0  0  0  0
 26 36  1  0  0  0  0
 26 24  1  0  0  0  0
 27 26  2  0  0  0  0
 29 19  1  0  0  0  0
 32 23  1  0  0  0  0
 36 45  1  0  0  0  0
 37 46  1  6  0  0  0
 37 36  1  0  0  0  0
 37 38  1  0  0  0  0
 38 48  1  0  0  0  0
 38 47  1  0  0  0  0
 39 43  1  0  0  0  0
 39 38  1  0  0  0  0
 40 39  2  0  0  0  0
 41 37  1  0  0  0  0
 42 41  1  0  0  0  0
 44 41  2  0  0  0  0
 49 43  1  0  0  0  0
M  END
$$$$
