HQF.pdb
 OpenBabel07022418363D

 56 57  0  0  1  0  0  0  0  0999 V2000
   -0.1570   -0.4930    4.4840 N   0  0  0  0  0  0  0  0  0  0  0  0
    0.7560   -0.2140    3.4170 C   0  0  1  0  0  0  0  0  0  0  0  0
    1.7640   -1.2800    3.1840 C   0  0  0  0  0  0  0  0  0  0  0  0
    2.7050   -0.9450    2.0930 C   0  0  0  0  0  0  0  0  0  0  0  0
    3.9070   -0.2650    2.2500 C   0  0  0  0  0  0  0  0  0  0  0  0
    4.4710   -0.1550    1.0390 N   0  0  0  0  0  0  0  0  0  0  0  0
    3.6930   -0.7270    0.1170 C   0  0  0  0  0  0  0  0  0  0  0  0
    2.6280   -1.1980    0.7850 N   0  0  0  0  0  0  0  0  0  0  0  0
   -0.0250    0.1770    2.1980 C   0  0  0  0  0  0  0  0  0  0  0  0
    0.4840    0.2730    1.0780 O   0  0  0  0  0  0  0  0  0  0  0  0
   -0.4670    0.4290    4.9170 H   0  0  0  0  0  0  0  0  0  0  0  0
    0.3100   -1.0590    5.2320 H   0  0  0  0  0  0  0  0  0  0  0  0
    1.3350    0.7090    3.7350 H   0  0  0  0  0  0  0  0  0  0  0  0
    1.2940   -2.2690    3.0020 H   0  0  0  0  0  0  0  0  0  0  0  0
    2.3600   -1.3910    4.1080 H   0  0  0  0  0  0  0  0  0  0  0  0
    4.3000    0.1010    3.1940 H   0  0  0  0  0  0  0  0  0  0  0  0
    5.3950    0.3100    0.8050 H   0  0  0  0  0  0  0  0  0  0  0  0
    3.8850   -0.7960   -0.9520 H   0  0  0  0  0  0  0  0  0  0  0  0
    0.5060    3.4600   -1.0150 N   0  0  0  0  0  0  0  0  0  0  0  0
   -0.6280    2.7150   -0.5120 C   0  0  0  0  0  0  0  0  0  0  0  0
   -1.0400    1.8210   -1.2540 O   0  0  0  0  0  0  0  0  0  0  0  0
   -1.1960    3.0420    0.7780 C   0  0  0  0  0  0  0  0  0  0  0  0
   -2.3920    2.3050    1.1880 C   0  0  0  0  0  0  0  0  0  0  0  0
   -2.3520    0.8360    1.3720 C   0  0  2  0  0  0  0  0  0  0  0  0
   -1.3960    0.4510    2.3310 N   0  0  0  0  0  0  0  0  0  0  0  0
   -2.6060    0.0650    0.1800 C   0  0  0  0  0  0  0  0  0  0  0  0
   -3.5520    0.5200   -0.5860 O   0  0  0  0  0  0  0  0  0  0  0  0
    0.4970    4.4880   -1.1240 H   0  0  0  0  0  0  0  0  0  0  0  0
    1.3560    2.9300   -1.2740 H   0  0  0  0  0  0  0  0  0  0  0  0
   -1.4700    4.1500    0.7430 H   0  0  0  0  0  0  0  0  0  0  0  0
   -0.4130    3.0420    1.5980 H   0  0  0  0  0  0  0  0  0  0  0  0
   -3.2690    2.5070    0.4950 H   0  0  0  0  0  0  0  0  0  0  0  0
   -2.7770    2.7500    2.1680 H   0  0  0  0  0  0  0  0  0  0  0  0
   -3.3810    0.6690    2.0010 H   0  0  0  0  0  0  0  0  0  0  0  0
   -1.7620    0.3530    3.3430 H   0  0  0  0  0  0  0  0  0  0  0  0
   -2.0150   -1.1120   -0.3180 N   0  0  0  0  0  0  0  0  0  0  0  0
   -2.4560   -1.7210   -1.5700 C   0  0  1  0  0  0  0  0  0  0  0  0
   -1.4150   -2.0450   -2.5560 C   0  0  0  0  0  0  0  0  0  0  0  0
   -0.3680   -2.9870   -2.2240 C   0  0  0  0  0  0  0  0  0  0  0  0
   -0.5360   -4.3400   -2.4430 C   0  0  0  0  0  0  0  0  0  0  0  0
    0.4420   -5.2660   -2.1660 C   0  0  0  0  0  0  0  0  0  0  0  0
    1.6510   -4.8680   -1.6500 C   0  0  0  0  0  0  0  0  0  0  0  0
    1.8450   -3.5240   -1.4220 C   0  0  0  0  0  0  0  0  0  0  0  0
    0.8380   -2.5930   -1.7080 C   0  0  0  0  0  0  0  0  0  0  0  0
   -3.3320   -2.9040   -1.2470 C   0  0  0  0  0  0  0  0  0  0  0  0
   -3.8480   -3.5870   -2.1520 O   0  0  0  0  0  0  0  0  0  0  0  0
   -3.5630   -3.2320    0.0680 O   0  0  0  0  0  0  0  0  0  0  0  0
   -1.2590   -1.5530    0.2300 H   0  0  0  0  0  0  0  0  0  0  0  0
   -3.1950   -1.0320   -2.0880 H   0  0  0  0  0  0  0  0  0  0  0  0
   -0.9860   -1.0410   -2.8910 H   0  0  0  0  0  0  0  0  0  0  0  0
   -1.9730   -2.3560   -3.5000 H   0  0  0  0  0  0  0  0  0  0  0  0
   -1.4490   -4.7020   -2.8420 H   0  0  0  0  0  0  0  0  0  0  0  0
    0.3090   -6.3420   -2.3400 H   0  0  0  0  0  0  0  0  0  0  0  0
    2.4460   -5.6020   -1.4230 H   0  0  0  0  0  0  0  0  0  0  0  0
    2.8090   -3.2570   -1.0220 H   0  0  0  0  0  0  0  0  0  0  0  0
    1.0590   -1.5460   -1.5030 H   0  0  0  0  0  0  0  0  0  0  0  0
  1 11  1  0  0  0  0
  1 12  1  0  0  0  0
  2 13  1  1  0  0  0
  2  1  1  0  0  0  0
  3  2  1  0  0  0  0
  3 15  1  0  0  0  0
  4  5  2  0  0  0  0
  4  3  1  0  0  0  0
  5 16  1  0  0  0  0
  6  5  1  0  0  0  0
  7  8  2  0  0  0  0
  7  6  1  0  0  0  0
  8  4  1  0  0  0  0
  9 25  1  0  0  0  0
  9  2  1  0  0  0  0
 10  9  2  0  0  0  0
 14  3  1  0  0  0  0
 17  6  1  0  0  0  0
 18  7  1  0  0  0  0
 19 20  1  0  0  0  0
 20 22  1  0  0  0  0
 21 20  2  0  0  0  0
 22 23  1  0  0  0  0
 22 31  1  0  0  0  0
 23 24  1  0  0  0  0
 23 33  1  0  0  0  0
 24 34  1  1  0  0  0
 24 25  1  0  0  0  0
 25 35  1  0  0  0  0
 26 24  1  0  0  0  0
 27 26  2  0  0  0  0
 28 19  1  0  0  0  0
 29 19  1  0  0  0  0
 30 22  1  0  0  0  0
 32 23  1  0  0  0  0
 36 26  1  0  0  0  0
 36 48  1  0  0  0  0
 37 49  1  6  0  0  0
 37 45  1  0  0  0  0
 37 36  1  0  0  0  0
 38 39  1  0  0  0  0
 38 37  1  0  0  0  0
 39 44  1  0  0  0  0
 40 39  2  0  0  0  0
 40 41  1  0  0  0  0
 41 42  2  0  0  0  0
 42 54  1  0  0  0  0
 42 43  1  0  0  0  0
 43 55  1  0  0  0  0
 44 56  1  0  0  0  0
 44 43  2  0  0  0  0
 45 47  1  0  0  0  0
 46 45  2  0  0  0  0
 50 38  1  0  0  0  0
 51 38  1  0  0  0  0
 52 40  1  0  0  0  0
 53 41  1  0  0  0  0
M  END
$$$$
