HQG.pdb
 OpenBabel07022418363D

 43 43  0  0  1  0  0  0  0  0999 V2000
   -0.2480   -3.6520   -0.1750 N   0  0  0  0  0  0  0  0  0  0  0  0
    0.6950   -3.5640    0.9110 C   0  0  1  0  0  0  0  0  0  0  0  0
    2.0630   -3.9140    0.3790 C   0  0  0  0  0  0  0  0  0  0  0  0
    2.5480   -3.0450   -0.6900 C   0  0  0  0  0  0  0  0  0  0  0  0
    3.2880   -1.9000   -0.5120 C   0  0  0  0  0  0  0  0  0  0  0  0
    3.5490   -1.3790   -1.7210 N   0  0  0  0  0  0  0  0  0  0  0  0
    2.9890   -2.1730   -2.6470 C   0  0  0  0  0  0  0  0  0  0  0  0
    2.3780   -3.1890   -2.0120 N   0  0  0  0  0  0  0  0  0  0  0  0
    0.7210   -2.2460    1.5520 C   0  0  0  0  0  0  0  0  0  0  0  0
    1.5580   -2.0520    2.4740 O   0  0  0  0  0  0  0  0  0  0  0  0
   -1.1890   -3.9920    0.1390 H   0  0  0  0  0  0  0  0  0  0  0  0
   -0.2800   -2.8190   -0.7690 H   0  0  0  0  0  0  0  0  0  0  0  0
    0.4620   -4.3860    1.6560 H   0  0  0  0  0  0  0  0  0  0  0  0
    2.7670   -3.9870    1.2430 H   0  0  0  0  0  0  0  0  0  0  0  0
    1.9800   -4.9740    0.0040 H   0  0  0  0  0  0  0  0  0  0  0  0
    3.6240   -1.4610    0.4310 H   0  0  0  0  0  0  0  0  0  0  0  0
    4.1040   -0.4910   -1.9000 H   0  0  0  0  0  0  0  0  0  0  0  0
    3.0080   -2.0430   -3.7100 H   0  0  0  0  0  0  0  0  0  0  0  0
    2.6250    2.4170   -1.6400 N   0  0  0  0  0  0  0  0  0  0  0  0
    1.4890    2.3240   -0.7970 C   0  0  0  0  0  0  0  0  0  0  0  0
    0.6250    3.2260   -0.8590 O   0  0  0  0  0  0  0  0  0  0  0  0
    1.3420    1.1800    0.1310 C   0  0  0  0  0  0  0  0  0  0  0  0
    0.0650    1.2860    0.9260 C   0  0  0  0  0  0  0  0  0  0  0  0
   -0.0880    0.1370    1.8660 C   0  0  2  0  0  0  0  0  0  0  0  0
   -0.1260   -1.1590    1.2210 N   0  0  0  0  0  0  0  0  0  0  0  0
   -1.4090    0.2860    2.5750 C   0  0  0  0  0  0  0  0  0  0  0  0
   -2.2830   -0.6130    2.5350 O   0  0  0  0  0  0  0  0  0  0  0  0
    3.0110    1.6320   -2.2020 H   0  0  0  0  0  0  0  0  0  0  0  0
    3.0890    3.3710   -1.6750 H   0  0  0  0  0  0  0  0  0  0  0  0
    2.2380    1.1500    0.7830 H   0  0  0  0  0  0  0  0  0  0  0  0
    1.3380    0.2260   -0.4560 H   0  0  0  0  0  0  0  0  0  0  0  0
    0.0880    2.2090    1.5230 H   0  0  0  0  0  0  0  0  0  0  0  0
   -0.7810    1.3420    0.2180 H   0  0  0  0  0  0  0  0  0  0  0  0
    0.7440    0.1770    2.6290 H   0  0  0  0  0  0  0  0  0  0  0  0
   -0.8280   -1.2890    0.4620 H   0  0  0  0  0  0  0  0  0  0  0  0
   -1.7150    1.4550    3.3210 N   0  0  0  0  0  0  0  0  0  0  0  0
   -2.9870    1.6180    4.0140 C   0  0  0  0  0  0  0  0  0  0  0  0
   -4.1020    1.5490    3.0130 C   0  0  0  0  0  0  0  0  0  0  0  0
   -5.2870    1.6670    3.4040 O   0  0  0  0  0  0  0  0  0  0  0  0
   -3.8750    1.3570    1.6590 O   0  0  0  0  0  0  0  0  0  0  0  0
   -0.9860    2.1950    3.3500 H   0  0  0  0  0  0  0  0  0  0  0  0
   -3.0590    2.5790    4.5240 H   0  0  0  0  0  0  0  0  0  0  0  0
   -3.1280    0.8020    4.7300 H   0  0  0  0  0  0  0  0  0  0  0  0
  1 11  1  0  0  0  0
  1  2  1  0  0  0  0
  2  9  1  0  0  0  0
  2 13  1  1  0  0  0
  3  2  1  0  0  0  0
  3 14  1  0  0  0  0
  4  5  2  0  0  0  0
  4  3  1  0  0  0  0
  5 16  1  0  0  0  0
  6  5  1  0  0  0  0
  7  8  2  0  0  0  0
  7  6  1  0  0  0  0
  8  4  1  0  0  0  0
  9 10  2  0  0  0  0
 12  1  1  0  0  0  0
 15  3  1  0  0  0  0
 17  6  1  0  0  0  0
 18  7  1  0  0  0  0
 19 20  1  0  0  0  0
 20 22  1  0  0  0  0
 21 20  2  0  0  0  0
 22 30  1  0  0  0  0
 22 23  1  0  0  0  0
 23 32  1  0  0  0  0
 23 24  1  0  0  0  0
 24 26  1  0  0  0  0
 24 34  1  1  0  0  0
 25  9  1  0  0  0  0
 25 24  1  0  0  0  0
 26 36  1  0  0  0  0
 27 26  2  0  0  0  0
 28 19  1  0  0  0  0
 29 19  1  0  0  0  0
 31 22  1  0  0  0  0
 33 23  1  0  0  0  0
 35 25  1  0  0  0  0
 36 41  1  0  0  0  0
 36 37  1  0  0  0  0
 37 42  1  0  0  0  0
 37 43  1  0  0  0  0
 38 39  1  0  0  0  0
 38 37  1  0  0  0  0
 40 38  2  0  0  0  0
M  END
$$$$
