HQH.pdb
 OpenBabel07022418363D

 53 54  0  0  1  0  0  0  0  0999 V2000
    2.2140   -1.6430    1.4940 N   0  0  0  0  0  0  0  0  0  0  0  0
    1.0240   -1.0590    2.0790 C   0  0  1  0  0  0  0  0  0  0  0  0
    1.4430   -0.2740    3.3010 C   0  0  0  0  0  0  0  0  0  0  0  0
    2.0970   -1.1700    4.2740 C   0  0  0  0  0  0  0  0  0  0  0  0
    2.3170   -2.5140    4.1420 C   0  0  0  0  0  0  0  0  0  0  0  0
    2.9370   -2.9080    5.2650 N   0  0  0  0  0  0  0  0  0  0  0  0
    3.1080   -1.8570    6.0850 C   0  0  0  0  0  0  0  0  0  0  0  0
    2.5830   -0.7890    5.4580 N   0  0  0  0  0  0  0  0  0  0  0  0
    0.3360   -0.1620    1.0980 C   0  0  0  0  0  0  0  0  0  0  0  0
    0.8530   -0.0450   -0.0310 O   0  0  0  0  0  0  0  0  0  0  0  0
    2.3250   -1.3140    0.4880 H   0  0  0  0  0  0  0  0  0  0  0  0
    3.0840   -1.3060    1.9770 H   0  0  0  0  0  0  0  0  0  0  0  0
    0.3680   -1.8960    2.3980 H   0  0  0  0  0  0  0  0  0  0  0  0
    2.1040    0.5580    3.0090 H   0  0  0  0  0  0  0  0  0  0  0  0
    0.5310    0.1380    3.7810 H   0  0  0  0  0  0  0  0  0  0  0  0
    2.0690   -3.1720    3.3340 H   0  0  0  0  0  0  0  0  0  0  0  0
    3.2500   -3.8820    5.4920 H   0  0  0  0  0  0  0  0  0  0  0  0
    3.5670   -1.8480    7.0490 H   0  0  0  0  0  0  0  0  0  0  0  0
    2.0590    3.3410   -1.5180 N   0  0  0  0  0  0  0  0  0  0  0  0
    0.7370    2.9030   -1.1560 C   0  0  0  0  0  0  0  0  0  0  0  0
    0.1310    2.2590   -2.0170 O   0  0  0  0  0  0  0  0  0  0  0  0
    0.1890    3.2230    0.1610 C   0  0  0  0  0  0  0  0  0  0  0  0
   -1.1720    2.8090    0.5010 C   0  0  0  0  0  0  0  0  0  0  0  0
   -1.5770    1.4020    0.5380 C   0  0  2  0  0  0  0  0  0  0  0  0
   -0.8550    0.5310    1.4280 N   0  0  0  0  0  0  0  0  0  0  0  0
   -2.0650    0.7710   -0.7110 C   0  0  0  0  0  0  0  0  0  0  0  0
   -2.6550    1.4380   -1.6110 O   0  0  0  0  0  0  0  0  0  0  0  0
    2.3710    4.2930   -1.2900 H   0  0  0  0  0  0  0  0  0  0  0  0
    2.6770    2.6810   -2.0060 H   0  0  0  0  0  0  0  0  0  0  0  0
    0.9280    2.9850    0.9840 H   0  0  0  0  0  0  0  0  0  0  0  0
    0.1950    4.3700    0.1990 H   0  0  0  0  0  0  0  0  0  0  0  0
   -1.3860    3.2350    1.5450 H   0  0  0  0  0  0  0  0  0  0  0  0
   -1.9200    3.3570   -0.1360 H   0  0  0  0  0  0  0  0  0  0  0  0
   -2.6470    1.4780    1.0940 H   0  0  0  0  0  0  0  0  0  0  0  0
   -1.1820    0.3470    2.4260 H   0  0  0  0  0  0  0  0  0  0  0  0
   -1.9280   -0.6130   -1.0100 N   0  0  0  0  0  0  0  0  0  0  0  0
   -2.4430   -1.1260   -2.2690 C   0  0  1  0  0  0  0  0  0  0  0  0
   -1.4020   -2.0360   -2.8650 C   0  0  0  0  0  0  0  0  0  0  0  0
   -1.0710   -3.2010   -2.0210 C   0  0  0  0  0  0  0  0  0  0  0  0
   -0.1180   -3.3790   -1.0530 C   0  0  0  0  0  0  0  0  0  0  0  0
   -0.2240   -4.6370   -0.5850 N   0  0  0  0  0  0  0  0  0  0  0  0
   -1.2080   -5.2540   -1.2240 C   0  0  0  0  0  0  0  0  0  0  0  0
   -1.7260   -4.3800   -2.1000 N   0  0  0  0  0  0  0  0  0  0  0  0
   -3.6390   -2.0070   -1.9790 C   0  0  0  0  0  0  0  0  0  0  0  0
   -4.0300   -2.1910   -0.8040 O   0  0  0  0  0  0  0  0  0  0  0  0
   -4.2730   -2.5930   -3.0530 O   0  0  0  0  0  0  0  0  0  0  0  0
   -1.4810   -1.2660   -0.3430 H   0  0  0  0  0  0  0  0  0  0  0  0
   -2.7590   -0.3380   -2.9540 H   0  0  0  0  0  0  0  0  0  0  0  0
   -0.4410   -1.4750   -3.0210 H   0  0  0  0  0  0  0  0  0  0  0  0
   -1.6910   -2.3680   -3.8850 H   0  0  0  0  0  0  0  0  0  0  0  0
    0.5930   -2.6450   -0.7270 H   0  0  0  0  0  0  0  0  0  0  0  0
    0.3950   -5.0210    0.1650 H   0  0  0  0  0  0  0  0  0  0  0  0
   -1.4940   -6.2850   -1.0250 H   0  0  0  0  0  0  0  0  0  0  0  0
  1 12  1  0  0  0  0
  1  2  1  0  0  0  0
  2 13  1  1  0  0  0
  2  3  1  0  0  0  0
  3 15  1  0  0  0  0
  3  4  1  0  0  0  0
  4  8  1  0  0  0  0
  5  4  2  0  0  0  0
  5  6  1  0  0  0  0
  6 17  1  0  0  0  0
  6  7  1  0  0  0  0
  7 18  1  0  0  0  0
  8  7  2  0  0  0  0
  9 25  1  0  0  0  0
  9  2  1  0  0  0  0
 10  9  2  0  0  0  0
 11  1  1  0  0  0  0
 14  3  1  0  0  0  0
 16  5  1  0  0  0  0
 19 28  1  0  0  0  0
 19 20  1  0  0  0  0
 20 22  1  0  0  0  0
 21 20  2  0  0  0  0
 22 31  1  0  0  0  0
 22 23  1  0  0  0  0
 22 30  1  0  0  0  0
 23 24  1  0  0  0  0
 23 32  1  0  0  0  0
 24 34  1  1  0  0  0
 24 25  1  0  0  0  0
 25 35  1  0  0  0  0
 26 24  1  0  0  0  0
 27 26  2  0  0  0  0
 29 19  1  0  0  0  0
 33 23  1  0  0  0  0
 36 26  1  0  0  0  0
 36 47  1  0  0  0  0
 37 48  1  6  0  0  0
 37 44  1  0  0  0  0
 37 36  1  0  0  0  0
 38 37  1  0  0  0  0
 38 39  1  0  0  0  0
 39 40  2  0  0  0  0
 40 51  1  0  0  0  0
 40 41  1  0  0  0  0
 41 52  1  0  0  0  0
 42 53  1  0  0  0  0
 42 41  1  0  0  0  0
 43 39  1  0  0  0  0
 43 42  2  0  0  0  0
 44 45  1  0  0  0  0
 46 44  2  0  0  0  0
 49 38  1  0  0  0  0
 50 38  1  0  0  0  0
M  END
$$$$
