HQI.pdb
 OpenBabel07022418363D

 55 55  0  0  1  0  0  0  0  0999 V2000
    3.4100   -0.2530    3.2950 N   0  0  0  0  0  0  0  0  0  0  0  0
    3.0070   -0.2310    1.9050 C   0  0  1  0  0  0  0  0  0  0  0  0
    3.4070   -1.5330    1.2340 C   0  0  0  0  0  0  0  0  0  0  0  0
    4.8580   -1.7460    1.2900 C   0  0  0  0  0  0  0  0  0  0  0  0
    5.7460   -1.3010    0.3200 C   0  0  0  0  0  0  0  0  0  0  0  0
    6.9990   -1.6760    0.7080 N   0  0  0  0  0  0  0  0  0  0  0  0
    6.9070   -2.3400    1.8900 C   0  0  0  0  0  0  0  0  0  0  0  0
    5.6100   -2.3670    2.2170 N   0  0  0  0  0  0  0  0  0  0  0  0
    1.5510    0.0120    1.7880 C   0  0  0  0  0  0  0  0  0  0  0  0
    0.8390    0.2220    2.8020 O   0  0  0  0  0  0  0  0  0  0  0  0
    2.6440    0.1040    3.9210 H   0  0  0  0  0  0  0  0  0  0  0  0
    3.6400   -1.2350    3.5610 H   0  0  0  0  0  0  0  0  0  0  0  0
    3.6150    0.5710    1.4170 H   0  0  0  0  0  0  0  0  0  0  0  0
    2.8190   -2.3350    1.7170 H   0  0  0  0  0  0  0  0  0  0  0  0
    3.0960   -1.5420    0.1650 H   0  0  0  0  0  0  0  0  0  0  0  0
    5.5090   -0.7660   -0.5650 H   0  0  0  0  0  0  0  0  0  0  0  0
    7.8690   -1.4740    0.1700 H   0  0  0  0  0  0  0  0  0  0  0  0
    7.7740   -2.7430    2.4090 H   0  0  0  0  0  0  0  0  0  0  0  0
    1.3440    4.1600    1.0510 N   0  0  0  0  0  0  0  0  0  0  0  0
    0.9360    3.0580    0.2440 C   0  0  0  0  0  0  0  0  0  0  0  0
    1.8730    2.4220   -0.3020 O   0  0  0  0  0  0  0  0  0  0  0  0
   -0.4880    2.7750    0.1270 C   0  0  0  0  0  0  0  0  0  0  0  0
   -0.9110    1.4680   -0.4140 C   0  0  0  0  0  0  0  0  0  0  0  0
   -0.5320    0.2540    0.3650 C   0  0  2  0  0  0  0  0  0  0  0  0
    0.8750    0.0240    0.5350 N   0  0  0  0  0  0  0  0  0  0  0  0
   -1.1200   -0.9650   -0.2560 C   0  0  0  0  0  0  0  0  0  0  0  0
   -0.3810   -1.9760   -0.5130 O   0  0  0  0  0  0  0  0  0  0  0  0
    1.2640    5.1140    0.6700 H   0  0  0  0  0  0  0  0  0  0  0  0
    1.7090    3.9730    1.9940 H   0  0  0  0  0  0  0  0  0  0  0  0
   -0.9300    3.6030   -0.5160 H   0  0  0  0  0  0  0  0  0  0  0  0
   -0.9430    2.9070    1.1500 H   0  0  0  0  0  0  0  0  0  0  0  0
   -0.5180    1.3670   -1.4650 H   0  0  0  0  0  0  0  0  0  0  0  0
   -2.0440    1.4760   -0.4500 H   0  0  0  0  0  0  0  0  0  0  0  0
   -0.9860    0.3360    1.4030 H   0  0  0  0  0  0  0  0  0  0  0  0
    1.4670   -0.1790   -0.3270 H   0  0  0  0  0  0  0  0  0  0  0  0
   -5.2650   -1.0820    0.7410 C   0  0  0  0  0  0  0  0  0  0  0  0
   -5.3550   -2.2620   -0.1870 C   0  0  0  0  0  0  0  0  0  0  0  0
   -4.0880   -2.9910   -0.4320 C   0  0  2  0  0  0  0  0  0  0  0  0
   -3.4770   -3.5470    0.8500 C   0  0  0  0  0  0  0  0  0  0  0  0
   -3.0190   -2.3060   -1.2020 C   0  0  2  0  0  0  0  0  0  0  0  0
   -2.5040   -1.0920   -0.6010 N   0  0  0  0  0  0  0  0  0  0  0  0
   -3.3680   -2.0970   -2.6210 C   0  0  0  0  0  0  0  0  0  0  0  0
   -3.2120   -0.9680   -3.1200 O   0  0  0  0  0  0  0  0  0  0  0  0
   -3.8540   -3.1200   -3.3820 O   0  0  0  0  0  0  0  0  0  0  0  0
   -6.1990   -1.0500    1.3960 H   0  0  0  0  0  0  0  0  0  0  0  0
   -4.4160   -1.0750    1.4150 H   0  0  0  0  0  0  0  0  0  0  0  0
   -5.3350   -0.1020    0.1990 H   0  0  0  0  0  0  0  0  0  0  0  0
   -6.1520   -2.9450    0.2430 H   0  0  0  0  0  0  0  0  0  0  0  0
   -5.8380   -1.8780   -1.1160 H   0  0  0  0  0  0  0  0  0  0  0  0
   -4.3900   -3.9340   -1.0020 H   0  0  0  0  0  0  0  0  0  0  0  0
   -2.6480   -4.2200    0.5320 H   0  0  0  0  0  0  0  0  0  0  0  0
   -2.9960   -2.7490    1.4710 H   0  0  0  0  0  0  0  0  0  0  0  0
   -4.1980   -4.1430    1.4420 H   0  0  0  0  0  0  0  0  0  0  0  0
   -2.1480   -3.0300   -1.2360 H   0  0  0  0  0  0  0  0  0  0  0  0
   -3.1000   -0.2520   -0.3950 H   0  0  0  0  0  0  0  0  0  0  0  0
  1 12  1  0  0  0  0
  1 11  1  0  0  0  0
  2 13  1  6  0  0  0
  2  1  1  0  0  0  0
  3  4  1  0  0  0  0
  3 14  1  0  0  0  0
  3  2  1  0  0  0  0
  4  8  1  0  0  0  0
  5  6  1  0  0  0  0
  5  4  2  0  0  0  0
  6  7  1  0  0  0  0
  7  8  2  0  0  0  0
  7 18  1  0  0  0  0
  9  2  1  0  0  0  0
  9 10  2  0  0  0  0
 15  3  1  0  0  0  0
 16  5  1  0  0  0  0
 17  6  1  0  0  0  0
 19 29  1  0  0  0  0
 20 19  1  0  0  0  0
 21 20  2  0  0  0  0
 22 20  1  0  0  0  0
 22 31  1  0  0  0  0
 23 22  1  0  0  0  0
 23 24  1  0  0  0  0
 24 25  1  0  0  0  0
 24 34  1  1  0  0  0
 25  9  1  0  0  0  0
 26 24  1  0  0  0  0
 27 26  2  0  0  0  0
 28 19  1  0  0  0  0
 30 22  1  0  0  0  0
 32 23  1  0  0  0  0
 33 23  1  0  0  0  0
 35 25  1  0  0  0  0
 36 45  1  0  0  0  0
 36 46  1  0  0  0  0
 37 48  1  0  0  0  0
 37 36  1  0  0  0  0
 38 50  1  6  0  0  0
 38 37  1  0  0  0  0
 38 39  1  0  0  0  0
 39 53  1  0  0  0  0
 39 52  1  0  0  0  0
 40 54  1  6  0  0  0
 40 41  1  0  0  0  0
 40 38  1  0  0  0  0
 41 55  1  0  0  0  0
 41 26  1  0  0  0  0
 42 40  1  0  0  0  0
 43 42  1  0  0  0  0
 44 42  2  0  0  0  0
 47 36  1  0  0  0  0
 49 37  1  0  0  0  0
 51 39  1  0  0  0  0
M  END
$$$$
