HQK.pdb
 OpenBabel07022418363D

 57 57  0  0  1  0  0  0  0  0999 V2000
    1.3970   -1.3310   -1.8920 N   0  0  0  0  0  0  0  0  0  0  0  0
    2.6480   -1.2050   -1.1570 C   0  0  1  0  0  0  0  0  0  0  0  0
    3.5510   -0.2310   -1.8660 C   0  0  0  0  0  0  0  0  0  0  0  0
    4.8300   -0.0850   -1.1390 C   0  0  0  0  0  0  0  0  0  0  0  0
    5.1900    0.8180   -0.1700 C   0  0  0  0  0  0  0  0  0  0  0  0
    6.4580    0.5760    0.1790 N   0  0  0  0  0  0  0  0  0  0  0  0
    6.9200   -0.4550   -0.5400 C   0  0  0  0  0  0  0  0  0  0  0  0
    5.9300   -0.8620   -1.3460 N   0  0  0  0  0  0  0  0  0  0  0  0
    2.4160   -0.7510    0.2290 C   0  0  0  0  0  0  0  0  0  0  0  0
    3.2980   -0.6540    1.1160 O   0  0  0  0  0  0  0  0  0  0  0  0
    0.9900   -2.3040   -1.7510 H   0  0  0  0  0  0  0  0  0  0  0  0
    1.6470   -1.2970   -2.9070 H   0  0  0  0  0  0  0  0  0  0  0  0
    3.1350   -2.2100   -1.2050 H   0  0  0  0  0  0  0  0  0  0  0  0
    3.6940   -0.5090   -2.9260 H   0  0  0  0  0  0  0  0  0  0  0  0
    3.0290    0.7670   -1.8210 H   0  0  0  0  0  0  0  0  0  0  0  0
    4.5800    1.5950    0.2510 H   0  0  0  0  0  0  0  0  0  0  0  0
    7.0050    1.1210    0.9120 H   0  0  0  0  0  0  0  0  0  0  0  0
    7.9310   -0.8340   -0.4280 H   0  0  0  0  0  0  0  0  0  0  0  0
   -1.3470    2.2950   -0.8790 N   0  0  0  0  0  0  0  0  0  0  0  0
   -0.2220    2.1710   -0.0290 C   0  0  0  0  0  0  0  0  0  0  0  0
    0.9310    2.0340   -0.4960 O   0  0  0  0  0  0  0  0  0  0  0  0
   -0.4180    2.2110    1.4260 C   0  0  0  0  0  0  0  0  0  0  0  0
    0.6650    1.5560    2.1870 C   0  0  0  0  0  0  0  0  0  0  0  0
    0.8300    0.0720    2.0020 C   0  0  2  0  0  0  0  0  0  0  0  0
    1.0890   -0.3710    0.6690 N   0  0  0  0  0  0  0  0  0  0  0  0
   -0.2490   -0.6990    2.6650 C   0  0  0  0  0  0  0  0  0  0  0  0
   -0.5650   -0.4010    3.8350 O   0  0  0  0  0  0  0  0  0  0  0  0
   -1.8060    1.4940   -1.3620 H   0  0  0  0  0  0  0  0  0  0  0  0
   -1.7430    3.2420   -1.0340 H   0  0  0  0  0  0  0  0  0  0  0  0
   -0.4020    3.3000    1.7070 H   0  0  0  0  0  0  0  0  0  0  0  0
   -1.4320    1.8620    1.7300 H   0  0  0  0  0  0  0  0  0  0  0  0
    0.6270    1.8130    3.2820 H   0  0  0  0  0  0  0  0  0  0  0  0
    1.6470    2.0110    1.8540 H   0  0  0  0  0  0  0  0  0  0  0  0
    1.7480   -0.1560    2.6630 H   0  0  0  0  0  0  0  0  0  0  0  0
    0.3440   -0.4760   -0.0640 H   0  0  0  0  0  0  0  0  0  0  0  0
   -0.8890   -1.7350    1.9800 N   0  0  0  0  0  0  0  0  0  0  0  0
   -1.9510   -2.5480    2.5350 C   0  0  1  0  0  0  0  0  0  0  0  0
   -3.2220   -2.2500    1.7310 C   0  0  0  0  0  0  0  0  0  0  0  0
   -3.0400   -2.5810    0.2860 C   0  0  0  0  0  0  0  0  0  0  0  0
   -4.3110   -2.2860   -0.4590 C   0  0  0  0  0  0  0  0  0  0  0  0
   -4.7300   -0.8400   -0.3750 C   0  0  0  0  0  0  0  0  0  0  0  0
   -5.9590   -0.7000   -1.1440 N   0  0  0  0  0  0  0  0  0  0  0  0
   -1.6160   -3.9850    2.5220 C   0  0  0  0  0  0  0  0  0  0  0  0
   -0.5010   -4.3540    2.0580 O   0  0  0  0  0  0  0  0  0  0  0  0
   -2.4980   -4.9380    3.0090 O   0  0  0  0  0  0  0  0  0  0  0  0
   -0.5840   -1.9430    1.0050 H   0  0  0  0  0  0  0  0  0  0  0  0
   -2.1470   -2.2060    3.5660 H   0  0  0  0  0  0  0  0  0  0  0  0
   -3.3400   -1.1270    1.8050 H   0  0  0  0  0  0  0  0  0  0  0  0
   -4.0840   -2.7910    2.1190 H   0  0  0  0  0  0  0  0  0  0  0  0
   -2.2220   -2.0110   -0.2020 H   0  0  0  0  0  0  0  0  0  0  0  0
   -2.8460   -3.6760    0.1510 H   0  0  0  0  0  0  0  0  0  0  0  0
   -4.2010   -2.5320   -1.5510 H   0  0  0  0  0  0  0  0  0  0  0  0
   -5.1410   -2.9460   -0.1050 H   0  0  0  0  0  0  0  0  0  0  0  0
   -3.9470   -0.2150   -0.8160 H   0  0  0  0  0  0  0  0  0  0  0  0
   -4.9330   -0.6110    0.7020 H   0  0  0  0  0  0  0  0  0  0  0  0
   -5.7140   -0.6060   -2.1650 H   0  0  0  0  0  0  0  0  0  0  0  0
   -6.5980   -1.5160   -0.9770 H   0  0  0  0  0  0  0  0  0  0  0  0
  1 11  1  0  0  0  0
  1  2  1  0  0  0  0
  2 13  1  1  0  0  0
  2  9  1  0  0  0  0
  3 15  1  0  0  0  0
  3  2  1  0  0  0  0
  3  4  1  0  0  0  0
  4  5  2  0  0  0  0
  5  6  1  0  0  0  0
  5 16  1  0  0  0  0
  6 17  1  0  0  0  0
  7 18  1  0  0  0  0
  7  6  1  0  0  0  0
  8  4  1  0  0  0  0
  8  7  2  0  0  0  0
  9 25  1  0  0  0  0
  9 10  2  0  0  0  0
 12  1  1  0  0  0  0
 14  3  1  0  0  0  0
 19 20  1  0  0  0  0
 20 22  1  0  0  0  0
 21 20  2  0  0  0  0
 22 30  1  0  0  0  0
 22 31  1  0  0  0  0
 22 23  1  0  0  0  0
 23 32  1  0  0  0  0
 24 23  1  0  0  0  0
 24 34  1  1  0  0  0
 24 26  1  0  0  0  0
 25 24  1  0  0  0  0
 26 27  2  0  0  0  0
 28 19  1  0  0  0  0
 29 19  1  0  0  0  0
 33 23  1  0  0  0  0
 35 25  1  0  0  0  0
 36 37  1  0  0  0  0
 36 26  1  0  0  0  0
 37 47  1  1  0  0  0
 38 48  1  0  0  0  0
 38 49  1  0  0  0  0
 38 37  1  0  0  0  0
 39 38  1  0  0  0  0
 40 41  1  0  0  0  0
 40 53  1  0  0  0  0
 40 39  1  0  0  0  0
 41 55  1  0  0  0  0
 42 57  1  0  0  0  0
 42 41  1  0  0  0  0
 43 37  1  0  0  0  0
 43 45  1  0  0  0  0
 44 43  2  0  0  0  0
 46 36  1  0  0  0  0
 50 39  1  0  0  0  0
 51 39  1  0  0  0  0
 52 40  1  0  0  0  0
 54 41  1  0  0  0  0
 56 42  1  0  0  0  0
M  END
$$$$
