HQL.pdb
 OpenBabel07022418363D

 55 55  0  0  1  0  0  0  0  0999 V2000
    4.0020   -0.0930    2.6090 N   0  0  0  0  0  0  0  0  0  0  0  0
    3.4130    0.0330    1.2920 C   0  0  1  0  0  0  0  0  0  0  0  0
    3.8890   -1.1170    0.4350 C   0  0  0  0  0  0  0  0  0  0  0  0
    5.3480   -1.1450    0.2850 C   0  0  0  0  0  0  0  0  0  0  0  0
    6.3250   -0.3300    0.7750 C   0  0  0  0  0  0  0  0  0  0  0  0
    7.5180   -0.7650    0.3610 N   0  0  0  0  0  0  0  0  0  0  0  0
    7.2940   -1.8740   -0.4050 C   0  0  0  0  0  0  0  0  0  0  0  0
    5.9860   -2.0920   -0.4430 N   0  0  0  0  0  0  0  0  0  0  0  0
    1.9460    0.0280    1.4610 C   0  0  0  0  0  0  0  0  0  0  0  0
    1.4420   -0.0740    2.6030 O   0  0  0  0  0  0  0  0  0  0  0  0
    3.9080    0.8390    3.0740 H   0  0  0  0  0  0  0  0  0  0  0  0
    3.4490   -0.7980    3.1460 H   0  0  0  0  0  0  0  0  0  0  0  0
    3.7770    0.9840    0.8410 H   0  0  0  0  0  0  0  0  0  0  0  0
    3.5930   -2.0680    0.9520 H   0  0  0  0  0  0  0  0  0  0  0  0
    3.4450   -1.0760   -0.5810 H   0  0  0  0  0  0  0  0  0  0  0  0
    6.1440    0.5280    1.3990 H   0  0  0  0  0  0  0  0  0  0  0  0
    8.4780   -0.4040    0.5310 H   0  0  0  0  0  0  0  0  0  0  0  0
    8.0320   -2.4840   -0.9030 H   0  0  0  0  0  0  0  0  0  0  0  0
   -0.8190    5.1330    0.4460 N   0  0  0  0  0  0  0  0  0  0  0  0
   -1.1140    3.8160    0.0130 C   0  0  0  0  0  0  0  0  0  0  0  0
   -1.9590    3.7060   -0.9220 O   0  0  0  0  0  0  0  0  0  0  0  0
   -0.4770    2.6310    0.6140 C   0  0  0  0  0  0  0  0  0  0  0  0
   -1.0140    1.3880   -0.0780 C   0  0  0  0  0  0  0  0  0  0  0  0
   -0.3880    0.1330    0.5040 C   0  0  2  0  0  0  0  0  0  0  0  0
    1.0490    0.1380    0.3490 N   0  0  0  0  0  0  0  0  0  0  0  0
   -0.9110   -1.0410   -0.2380 C   0  0  0  0  0  0  0  0  0  0  0  0
   -0.1760   -1.8480   -0.8660 O   0  0  0  0  0  0  0  0  0  0  0  0
   -1.5650    5.8500    0.5370 H   0  0  0  0  0  0  0  0  0  0  0  0
    0.1650    5.3880    0.6770 H   0  0  0  0  0  0  0  0  0  0  0  0
   -0.7240    2.6290    1.6890 H   0  0  0  0  0  0  0  0  0  0  0  0
    0.6340    2.6590    0.5400 H   0  0  0  0  0  0  0  0  0  0  0  0
   -0.7910    1.4440   -1.1580 H   0  0  0  0  0  0  0  0  0  0  0  0
   -2.1130    1.3660    0.0550 H   0  0  0  0  0  0  0  0  0  0  0  0
   -0.7090    0.0400    1.5460 H   0  0  0  0  0  0  0  0  0  0  0  0
    1.5100    0.2210   -0.5820 H   0  0  0  0  0  0  0  0  0  0  0  0
   -5.0440   -4.4950    1.4450 C   0  0  0  0  0  0  0  0  0  0  0  0
   -4.5730   -3.2200    0.6990 C   0  0  0  0  0  0  0  0  0  0  0  0
   -4.2130   -2.2570    1.8260 C   0  0  0  0  0  0  0  0  0  0  0  0
   -3.4180   -3.5550   -0.1710 C   0  0  0  0  0  0  0  0  0  0  0  0
   -2.8460   -2.4590   -0.9900 C   0  0  2  0  0  0  0  0  0  0  0  0
   -2.3310   -1.3240   -0.2740 N   0  0  0  0  0  0  0  0  0  0  0  0
   -3.8400   -2.0070   -2.0010 C   0  0  0  0  0  0  0  0  0  0  0  0
   -4.0770   -0.7780   -2.0840 O   0  0  0  0  0  0  0  0  0  0  0  0
   -4.5070   -2.8640   -2.8400 O   0  0  0  0  0  0  0  0  0  0  0  0
   -5.1760   -5.2950    0.7080 H   0  0  0  0  0  0  0  0  0  0  0  0
   -4.2570   -4.7130    2.1740 H   0  0  0  0  0  0  0  0  0  0  0  0
   -5.9900   -4.2120    1.9600 H   0  0  0  0  0  0  0  0  0  0  0  0
   -5.4430   -2.8540    0.1350 H   0  0  0  0  0  0  0  0  0  0  0  0
   -4.6190   -2.6330    2.8150 H   0  0  0  0  0  0  0  0  0  0  0  0
   -4.6310   -1.2490    1.6820 H   0  0  0  0  0  0  0  0  0  0  0  0
   -3.1380   -2.1910    1.9740 H   0  0  0  0  0  0  0  0  0  0  0  0
   -2.5820   -3.9310    0.4950 H   0  0  0  0  0  0  0  0  0  0  0  0
   -3.6680   -4.3920   -0.8650 H   0  0  0  0  0  0  0  0  0  0  0  0
   -1.9810   -2.8950   -1.5880 H   0  0  0  0  0  0  0  0  0  0  0  0
   -2.9000   -0.6240    0.2440 H   0  0  0  0  0  0  0  0  0  0  0  0
  1 11  1  0  0  0  0
  1 12  1  0  0  0  0
  2 13  1  6  0  0  0
  2  9  1  0  0  0  0
  2  1  1  0  0  0  0
  3 14  1  0  0  0  0
  3  2  1  0  0  0  0
  4  3  1  0  0  0  0
  4  5  2  0  0  0  0
  5 16  1  0  0  0  0
  6 17  1  0  0  0  0
  6  5  1  0  0  0  0
  7  6  1  0  0  0  0
  8  7  2  0  0  0  0
  8  4  1  0  0  0  0
  9 10  2  0  0  0  0
 15  3  1  0  0  0  0
 18  7  1  0  0  0  0
 19 28  1  0  0  0  0
 19 29  1  0  0  0  0
 20 19  1  0  0  0  0
 20 22  1  0  0  0  0
 21 20  2  0  0  0  0
 22 30  1  0  0  0  0
 23 33  1  0  0  0  0
 23 24  1  0  0  0  0
 23 22  1  0  0  0  0
 24 34  1  1  0  0  0
 25 24  1  0  0  0  0
 25  9  1  0  0  0  0
 26 24  1  0  0  0  0
 27 26  2  0  0  0  0
 31 22  1  0  0  0  0
 32 23  1  0  0  0  0
 35 25  1  0  0  0  0
 36 47  1  0  0  0  0
 36 46  1  0  0  0  0
 37 36  1  0  0  0  0
 37 38  1  0  0  0  0
 38 51  1  0  0  0  0
 38 49  1  0  0  0  0
 39 52  1  0  0  0  0
 39 37  1  0  0  0  0
 40 54  1  6  0  0  0
 40 41  1  0  0  0  0
 40 39  1  0  0  0  0
 41 26  1  0  0  0  0
 41 55  1  0  0  0  0
 42 40  1  0  0  0  0
 43 42  1  0  0  0  0
 44 42  2  0  0  0  0
 45 36  1  0  0  0  0
 48 37  1  0  0  0  0
 50 38  1  0  0  0  0
 53 39  1  0  0  0  0
M  END
$$$$
