HQM.pdb
 OpenBabel07022418363D

 53 53  0  0  1  0  0  0  0  0999 V2000
    2.8100   -0.7670    0.2240 N   0  0  0  0  0  0  0  0  0  0  0  0
    2.1030    0.4850    0.0710 C   0  0  1  0  0  0  0  0  0  0  0  0
    1.8680    0.6900   -1.4080 C   0  0  0  0  0  0  0  0  0  0  0  0
    3.1870    0.7340   -2.0890 C   0  0  0  0  0  0  0  0  0  0  0  0
    3.9650    1.8590   -2.3240 C   0  0  0  0  0  0  0  0  0  0  0  0
    5.0890    1.5020   -2.9640 N   0  0  0  0  0  0  0  0  0  0  0  0
    5.0470    0.1720   -3.1440 C   0  0  0  0  0  0  0  0  0  0  0  0
    3.8920   -0.2960   -2.6130 N   0  0  0  0  0  0  0  0  0  0  0  0
    0.7890    0.4740    0.8150 C   0  0  0  0  0  0  0  0  0  0  0  0
    0.0820    1.5070    0.7540 O   0  0  0  0  0  0  0  0  0  0  0  0
    2.9940   -0.9720    1.2260 H   0  0  0  0  0  0  0  0  0  0  0  0
    2.2030   -1.5220   -0.1590 H   0  0  0  0  0  0  0  0  0  0  0  0
    2.7090    1.3040    0.4620 H   0  0  0  0  0  0  0  0  0  0  0  0
    1.2090   -0.0780   -1.8390 H   0  0  0  0  0  0  0  0  0  0  0  0
    1.4040    1.7020   -1.5330 H   0  0  0  0  0  0  0  0  0  0  0  0
    3.7180    2.8660   -2.0430 H   0  0  0  0  0  0  0  0  0  0  0  0
    5.8690    2.1130   -3.2770 H   0  0  0  0  0  0  0  0  0  0  0  0
    5.8130   -0.4440   -3.6360 H   0  0  0  0  0  0  0  0  0  0  0  0
   -0.8250    3.6410    4.6680 N   0  0  0  0  0  0  0  0  0  0  0  0
   -1.4410    2.6680    3.8450 C   0  0  0  0  0  0  0  0  0  0  0  0
   -2.5760    2.8970    3.3530 O   0  0  0  0  0  0  0  0  0  0  0  0
   -0.7560    1.3910    3.5640 C   0  0  0  0  0  0  0  0  0  0  0  0
   -1.5670    0.4930    2.6650 C   0  0  0  0  0  0  0  0  0  0  0  0
   -0.8350   -0.7950    2.3250 C   0  0  2  0  0  0  0  0  0  0  0  0
    0.3570   -0.6330    1.5510 N   0  0  0  0  0  0  0  0  0  0  0  0
   -1.6640   -1.9180    1.9460 C   0  0  0  0  0  0  0  0  0  0  0  0
   -2.7260   -2.2440    2.5930 O   0  0  0  0  0  0  0  0  0  0  0  0
   -1.3570    3.9750    5.5010 H   0  0  0  0  0  0  0  0  0  0  0  0
    0.1210    4.0480    4.5020 H   0  0  0  0  0  0  0  0  0  0  0  0
   -0.6250    0.8510    4.5840 H   0  0  0  0  0  0  0  0  0  0  0  0
    0.2630    1.4910    3.2220 H   0  0  0  0  0  0  0  0  0  0  0  0
   -1.9440    1.0280    1.7740 H   0  0  0  0  0  0  0  0  0  0  0  0
   -2.5010    0.2540    3.2570 H   0  0  0  0  0  0  0  0  0  0  0  0
   -0.4650   -1.0850    3.4240 H   0  0  0  0  0  0  0  0  0  0  0  0
    1.0450   -1.4700    1.5090 H   0  0  0  0  0  0  0  0  0  0  0  0
   -2.5690   -0.5890   -0.9220 C   0  0  0  0  0  0  0  0  0  0  0  0
   -2.2000   -1.7950   -2.1880 S   0  0  0  0  0  0  0  0  0  0  0  0
   -2.9200   -3.3760   -1.9010 C   0  0  0  0  0  0  0  0  0  0  0  0
   -2.3720   -4.2740   -0.8730 C   0  0  0  0  0  0  0  0  0  0  0  0
   -2.2780   -3.9130    0.5430 C   0  0  2  0  0  0  0  0  0  0  0  0
   -1.4160   -2.8050    0.8230 N   0  0  0  0  0  0  0  0  0  0  0  0
   -1.6920   -5.1710    1.2230 C   0  0  0  0  0  0  0  0  0  0  0  0
   -2.2550   -6.2700    1.1280 O   0  0  0  0  0  0  0  0  0  0  0  0
   -0.5210   -5.0070    1.9340 O   0  0  0  0  0  0  0  0  0  0  0  0
   -3.3400   -1.0050   -0.2100 H   0  0  0  0  0  0  0  0  0  0  0  0
   -1.6730   -0.2420   -0.3910 H   0  0  0  0  0  0  0  0  0  0  0  0
   -3.1130    0.2610   -1.4130 H   0  0  0  0  0  0  0  0  0  0  0  0
   -2.8940   -3.9700   -2.8830 H   0  0  0  0  0  0  0  0  0  0  0  0
   -4.0570   -3.2480   -1.7680 H   0  0  0  0  0  0  0  0  0  0  0  0
   -2.9130   -5.2840   -0.9250 H   0  0  0  0  0  0  0  0  0  0  0  0
   -1.2950   -4.5920   -1.1710 H   0  0  0  0  0  0  0  0  0  0  0  0
   -3.2860   -3.7710    1.0620 H   0  0  0  0  0  0  0  0  0  0  0  0
   -0.5810   -2.5930    0.2350 H   0  0  0  0  0  0  0  0  0  0  0  0
  1 11  1  0  0  0  0
  2  1  1  0  0  0  0
  2 13  1  1  0  0  0
  2  9  1  0  0  0  0
  3  2  1  0  0  0  0
  4  3  1  0  0  0  0
  5  4  2  0  0  0  0
  5 16  1  0  0  0  0
  6  5  1  0  0  0  0
  7  6  1  0  0  0  0
  7  8  2  0  0  0  0
  8  4  1  0  0  0  0
  9 25  1  0  0  0  0
 10  9  2  0  0  0  0
 12  1  1  0  0  0  0
 14  3  1  0  0  0  0
 15  3  1  0  0  0  0
 17  6  1  0  0  0  0
 18  7  1  0  0  0  0
 19 28  1  0  0  0  0
 20 19  1  0  0  0  0
 21 20  2  0  0  0  0
 22 20  1  0  0  0  0
 22 30  1  0  0  0  0
 23 33  1  0  0  0  0
 23 22  1  0  0  0  0
 24 23  1  0  0  0  0
 24 34  1  1  0  0  0
 25 24  1  0  0  0  0
 26 24  1  0  0  0  0
 26 27  2  0  0  0  0
 29 19  1  0  0  0  0
 31 22  1  0  0  0  0
 32 23  1  0  0  0  0
 35 25  1  0  0  0  0
 36 46  1  0  0  0  0
 36 45  1  0  0  0  0
 37 38  1  0  0  0  0
 37 36  1  0  0  0  0
 38 49  1  0  0  0  0
 38 39  1  0  0  0  0
 39 40  1  0  0  0  0
 40 41  1  0  0  0  0
 40 52  1  1  0  0  0
 40 42  1  0  0  0  0
 41 26  1  0  0  0  0
 42 44  1  0  0  0  0
 43 42  2  0  0  0  0
 47 36  1  0  0  0  0
 48 38  1  0  0  0  0
 50 39  1  0  0  0  0
 51 39  1  0  0  0  0
 53 41  1  0  0  0  0
M  END
$$$$
