HQQ.pdb
 OpenBabel07022418363D

 53 53  0  0  1  0  0  0  0  0999 V2000
    1.0760   -2.1010    2.5460 N   0  0  0  0  0  0  0  0  0  0  0  0
    0.7900   -0.7300    2.8350 C   0  0  1  0  0  0  0  0  0  0  0  0
    1.8090   -0.0110    3.6390 C   0  0  0  0  0  0  0  0  0  0  0  0
    2.0590   -0.5820    4.9700 C   0  0  0  0  0  0  0  0  0  0  0  0
    2.9740   -0.0510    5.8560 C   0  0  0  0  0  0  0  0  0  0  0  0
    2.9680   -0.7950    6.9770 N   0  0  0  0  0  0  0  0  0  0  0  0
    2.0670   -1.7880    6.8200 C   0  0  0  0  0  0  0  0  0  0  0  0
    1.5330   -1.6390    5.6040 N   0  0  0  0  0  0  0  0  0  0  0  0
    0.6510   -0.0140    1.5200 C   0  0  0  0  0  0  0  0  0  0  0  0
    0.4310    1.2270    1.5190 O   0  0  0  0  0  0  0  0  0  0  0  0
    1.9340   -2.2190    1.9460 H   0  0  0  0  0  0  0  0  0  0  0  0
    1.3230   -2.5830    3.4380 H   0  0  0  0  0  0  0  0  0  0  0  0
   -0.2300   -0.6520    3.2940 H   0  0  0  0  0  0  0  0  0  0  0  0
    2.7480    0.0720    3.0310 H   0  0  0  0  0  0  0  0  0  0  0  0
    1.4580    1.0370    3.7730 H   0  0  0  0  0  0  0  0  0  0  0  0
    3.6210    0.8080    5.7490 H   0  0  0  0  0  0  0  0  0  0  0  0
    3.5560   -0.6540    7.8480 H   0  0  0  0  0  0  0  0  0  0  0  0
    1.8590   -2.5460    7.5860 H   0  0  0  0  0  0  0  0  0  0  0  0
    1.8120    2.8660   -4.0860 N   0  0  0  0  0  0  0  0  0  0  0  0
    1.8910    2.0440   -2.9330 C   0  0  0  0  0  0  0  0  0  0  0  0
    1.8790    2.5920   -1.8060 O   0  0  0  0  0  0  0  0  0  0  0  0
    1.9870    0.5750   -3.0150 C   0  0  0  0  0  0  0  0  0  0  0  0
    1.8940   -0.1250   -1.7070 C   0  0  0  0  0  0  0  0  0  0  0  0
    0.6130    0.0820   -0.9540 C   0  0  2  0  0  0  0  0  0  0  0  0
    0.7610   -0.7000    0.2870 N   0  0  0  0  0  0  0  0  0  0  0  0
   -0.5740   -0.4710   -1.6880 C   0  0  0  0  0  0  0  0  0  0  0  0
   -0.8410    0.0700   -2.7860 O   0  0  0  0  0  0  0  0  0  0  0  0
    2.6360    2.9440   -4.7060 H   0  0  0  0  0  0  0  0  0  0  0  0
    0.9350    3.3730   -4.2870 H   0  0  0  0  0  0  0  0  0  0  0  0
    1.2310    0.2470   -3.7640 H   0  0  0  0  0  0  0  0  0  0  0  0
    3.0080    0.3070   -3.4420 H   0  0  0  0  0  0  0  0  0  0  0  0
    1.9520   -1.2290   -1.9360 H   0  0  0  0  0  0  0  0  0  0  0  0
    2.7840    0.1300   -1.0980 H   0  0  0  0  0  0  0  0  0  0  0  0
    0.4890    1.1410   -0.7270 H   0  0  0  0  0  0  0  0  0  0  0  0
    0.9450   -1.7240    0.2450 H   0  0  0  0  0  0  0  0  0  0  0  0
   -3.2970   -1.4620    2.3650 N   0  0  0  0  0  0  0  0  0  0  0  0
   -3.3730   -1.1010    0.9700 C   0  0  0  0  0  0  0  0  0  0  0  0
   -2.7780   -0.0830    0.5840 O   0  0  0  0  0  0  0  0  0  0  0  0
   -4.1610   -1.9640    0.0780 C   0  0  0  0  0  0  0  0  0  0  0  0
   -3.8340   -1.7890   -1.3720 C   0  0  0  0  0  0  0  0  0  0  0  0
   -2.4660   -2.1710   -1.7530 C   0  0  2  0  0  0  0  0  0  0  0  0
   -1.3500   -1.5410   -1.1770 N   0  0  0  0  0  0  0  0  0  0  0  0
   -2.4100   -2.3490   -3.2420 C   0  0  0  0  0  0  0  0  0  0  0  0
   -1.4020   -2.0650   -3.8740 O   0  0  0  0  0  0  0  0  0  0  0  0
   -3.5430   -2.8490   -3.8990 O   0  0  0  0  0  0  0  0  0  0  0  0
   -3.4040   -2.4560    2.6390 H   0  0  0  0  0  0  0  0  0  0  0  0
   -3.1390   -0.7660    3.1010 H   0  0  0  0  0  0  0  0  0  0  0  0
   -5.2610   -1.7710    0.2420 H   0  0  0  0  0  0  0  0  0  0  0  0
   -4.0630   -3.0510    0.3770 H   0  0  0  0  0  0  0  0  0  0  0  0
   -4.5460   -2.4350   -1.9730 H   0  0  0  0  0  0  0  0  0  0  0  0
   -4.1180   -0.7490   -1.6640 H   0  0  0  0  0  0  0  0  0  0  0  0
   -2.3670   -3.2920   -1.4270 H   0  0  0  0  0  0  0  0  0  0  0  0
   -0.9990   -1.8980   -0.2230 H   0  0  0  0  0  0  0  0  0  0  0  0
  1  2  1  0  0  0  0
  1 12  1  0  0  0  0
  2 13  1  1  0  0  0
  2  3  1  0  0  0  0
  3 15  1  0  0  0  0
  3  4  1  0  0  0  0
  4  8  1  0  0  0  0
  4  5  2  0  0  0  0
  5  6  1  0  0  0  0
  6 17  1  0  0  0  0
  7  6  1  0  0  0  0
  7 18  1  0  0  0  0
  8  7  2  0  0  0  0
  9  2  1  0  0  0  0
 10  9  2  0  0  0  0
 11  1  1  0  0  0  0
 14  3  1  0  0  0  0
 16  5  1  0  0  0  0
 19 20  1  0  0  0  0
 20 21  2  0  0  0  0
 22 20  1  0  0  0  0
 22 23  1  0  0  0  0
 23 33  1  0  0  0  0
 23 24  1  0  0  0  0
 24 34  1  1  0  0  0
 24 25  1  0  0  0  0
 25  9  1  0  0  0  0
 26 42  1  0  0  0  0
 26 24  1  0  0  0  0
 27 26  2  0  0  0  0
 28 19  1  0  0  0  0
 29 19  1  0  0  0  0
 30 22  1  0  0  0  0
 31 22  1  0  0  0  0
 32 23  1  0  0  0  0
 35 25  1  0  0  0  0
 36 46  1  0  0  0  0
 36 47  1  0  0  0  0
 37 36  1  0  0  0  0
 38 37  2  0  0  0  0
 39 48  1  0  0  0  0
 39 49  1  0  0  0  0
 39 37  1  0  0  0  0
 40 39  1  0  0  0  0
 41 52  1  1  0  0  0
 41 40  1  0  0  0  0
 41 42  1  0  0  0  0
 42 53  1  0  0  0  0
 43 41  1  0  0  0  0
 44 43  1  0  0  0  0
 45 43  2  0  0  0  0
 50 40  1  0  0  0  0
 51 40  1  0  0  0  0
M  END
$$$$
