HQR.pdb
 OpenBabel07022418363D

 59 59  0  0  1  0  0  0  0  0999 V2000
   -2.3270    0.6040    2.8040 N   0  0  0  0  0  0  0  0  0  0  0  0
   -0.9080    0.2460    2.9630 C   0  0  1  0  0  0  0  0  0  0  0  0
   -0.8050   -1.2390    3.0230 C   0  0  0  0  0  0  0  0  0  0  0  0
    0.5950   -1.6750    3.2320 C   0  0  0  0  0  0  0  0  0  0  0  0
    0.9850   -3.0140    3.2900 C   0  0  0  0  0  0  0  0  0  0  0  0
    2.3050   -3.0960    3.4840 N   0  0  0  0  0  0  0  0  0  0  0  0
    2.7450   -1.8240    3.5470 C   0  0  0  0  0  0  0  0  0  0  0  0
    1.7270   -0.9740    3.3960 N   0  0  0  0  0  0  0  0  0  0  0  0
   -0.1660    0.8220    1.7810 C   0  0  0  0  0  0  0  0  0  0  0  0
    1.0140    0.5160    1.5020 O   0  0  0  0  0  0  0  0  0  0  0  0
   -2.8120   -0.2370    2.4720 H   0  0  0  0  0  0  0  0  0  0  0  0
   -2.7040    0.8940    3.7130 H   0  0  0  0  0  0  0  0  0  0  0  0
   -0.5450    0.7040    3.8890 H   0  0  0  0  0  0  0  0  0  0  0  0
   -1.2050   -1.7010    2.0970 H   0  0  0  0  0  0  0  0  0  0  0  0
   -1.3800   -1.5690    3.9200 H   0  0  0  0  0  0  0  0  0  0  0  0
    0.2900   -3.8570    3.1910 H   0  0  0  0  0  0  0  0  0  0  0  0
    2.9190   -3.9290    3.5750 H   0  0  0  0  0  0  0  0  0  0  0  0
    3.7690   -1.5540    3.6990 H   0  0  0  0  0  0  0  0  0  0  0  0
    3.7980    3.3100    1.8300 N   0  0  0  0  0  0  0  0  0  0  0  0
    2.6900    3.1270    0.9060 C   0  0  0  0  0  0  0  0  0  0  0  0
    2.9350    2.3680   -0.0430 O   0  0  0  0  0  0  0  0  0  0  0  0
    1.4240    3.7990    1.1160 C   0  0  0  0  0  0  0  0  0  0  0  0
    0.3630    3.6440    0.1220 C   0  0  0  0  0  0  0  0  0  0  0  0
   -0.2700    2.3690   -0.1950 C   0  0  2  0  0  0  0  0  0  0  0  0
   -0.8920    1.7660    0.9650 N   0  0  0  0  0  0  0  0  0  0  0  0
    0.2870    1.4550   -1.1630 C   0  0  0  0  0  0  0  0  0  0  0  0
    1.0250    1.8050   -2.0890 O   0  0  0  0  0  0  0  0  0  0  0  0
    4.6740    3.7090    1.4820 H   0  0  0  0  0  0  0  0  0  0  0  0
    3.6890    3.0370    2.8140 H   0  0  0  0  0  0  0  0  0  0  0  0
    1.6900    4.9180    1.2190 H   0  0  0  0  0  0  0  0  0  0  0  0
    1.0890    3.5680    2.1750 H   0  0  0  0  0  0  0  0  0  0  0  0
    0.7000    4.1690   -0.8350 H   0  0  0  0  0  0  0  0  0  0  0  0
   -0.4860    4.3430    0.4640 H   0  0  0  0  0  0  0  0  0  0  0  0
   -1.2570    2.7190   -0.7950 H   0  0  0  0  0  0  0  0  0  0  0  0
   -1.8530    2.0130    1.2190 H   0  0  0  0  0  0  0  0  0  0  0  0
   -4.1540   -5.5090   -1.1260 N   0  0  0  0  0  0  0  0  0  0  0  0
   -2.8260   -5.1490   -1.3670 C   0  0  0  0  0  0  0  0  0  0  0  0
   -2.3060   -5.0740   -2.5660 N   0  0  0  0  0  0  0  0  0  0  0  0
   -1.9090   -4.8230   -0.3130 N   0  0  0  0  0  0  0  0  0  0  0  0
   -0.6370   -4.2110   -0.6130 C   0  0  0  0  0  0  0  0  0  0  0  0
   -0.7840   -2.8080   -1.1450 C   0  0  0  0  0  0  0  0  0  0  0  0
    0.5900   -2.2630   -1.4550 C   0  0  0  0  0  0  0  0  0  0  0  0
    0.5570   -0.8820   -2.0180 C   0  0  2  0  0  0  0  0  0  0  0  0
   -0.0190    0.0420   -1.0810 N   0  0  0  0  0  0  0  0  0  0  0  0
   -0.2440   -0.8470   -3.3030 C   0  0  0  0  0  0  0  0  0  0  0  0
   -1.2130   -0.0700   -3.3830 O   0  0  0  0  0  0  0  0  0  0  0  0
    0.1580   -1.6970   -4.3180 O   0  0  0  0  0  0  0  0  0  0  0  0
   -4.8930   -5.3980   -1.8620 H   0  0  0  0  0  0  0  0  0  0  0  0
   -4.4780   -5.9020   -0.2230 H   0  0  0  0  0  0  0  0  0  0  0  0
   -2.9570   -5.3030   -3.3420 H   0  0  0  0  0  0  0  0  0  0  0  0
   -2.1510   -5.0220    0.6760 H   0  0  0  0  0  0  0  0  0  0  0  0
   -0.0850   -4.8070   -1.3550 H   0  0  0  0  0  0  0  0  0  0  0  0
   -0.0500   -4.1590    0.3140 H   0  0  0  0  0  0  0  0  0  0  0  0
   -1.3340   -2.8810   -2.1240 H   0  0  0  0  0  0  0  0  0  0  0  0
   -1.2890   -2.1340   -0.4630 H   0  0  0  0  0  0  0  0  0  0  0  0
    1.2160   -2.2210   -0.5160 H   0  0  0  0  0  0  0  0  0  0  0  0
    1.1810   -2.9630   -2.1160 H   0  0  0  0  0  0  0  0  0  0  0  0
    1.5550   -0.4980   -2.2940 H   0  0  0  0  0  0  0  0  0  0  0  0
   -0.6640   -0.2930   -0.3550 H   0  0  0  0  0  0  0  0  0  0  0  0
  1  2  1  0  0  0  0
  1 12  1  0  0  0  0
  2  3  1  0  0  0  0
  2 13  1  1  0  0  0
  3  4  1  0  0  0  0
  3 15  1  0  0  0  0
  4  5  2  0  0  0  0
  4  8  1  0  0  0  0
  5  6  1  0  0  0  0
  6  7  1  0  0  0  0
  6 17  1  0  0  0  0
  7 18  1  0  0  0  0
  8  7  2  0  0  0  0
  9  2  1  0  0  0  0
 10  9  2  0  0  0  0
 11  1  1  0  0  0  0
 14  3  1  0  0  0  0
 16  5  1  0  0  0  0
 19 29  1  0  0  0  0
 20 22  1  0  0  0  0
 20 19  1  0  0  0  0
 21 20  2  0  0  0  0
 22 30  1  0  0  0  0
 22 31  1  0  0  0  0
 23 33  1  0  0  0  0
 23 22  1  0  0  0  0
 24 34  1  6  0  0  0
 24 23  1  0  0  0  0
 24 25  1  0  0  0  0
 25 35  1  0  0  0  0
 25  9  1  0  0  0  0
 26 44  1  0  0  0  0
 26 24  1  0  0  0  0
 27 26  2  0  0  0  0
 28 19  1  0  0  0  0
 32 23  1  0  0  0  0
 36 49  1  0  0  0  0
 37 36  1  0  0  0  0
 37 39  1  0  0  0  0
 38 37  2  0  0  0  0
 39 51  1  0  0  0  0
 40 39  1  0  0  0  0
 40 53  1  0  0  0  0
 41 40  1  0  0  0  0
 41 55  1  0  0  0  0
 42 41  1  0  0  0  0
 42 56  1  0  0  0  0
 43 58  1  6  0  0  0
 43 42  1  0  0  0  0
 43 44  1  0  0  0  0
 44 59  1  0  0  0  0
 45 43  1  0  0  0  0
 46 45  1  0  0  0  0
 47 45  2  0  0  0  0
 48 36  1  0  0  0  0
 50 38  1  0  0  0  0
 52 40  1  0  0  0  0
 54 41  1  0  0  0  0
 57 42  1  0  0  0  0
M  END
$$$$
