HQS.pdb
 OpenBabel07022418363D

 47 47  0  0  1  0  0  0  0  0999 V2000
    1.8370   -2.6090    3.9260 N   0  0  0  0  0  0  0  0  0  0  0  0
    1.7160   -2.2040    2.4880 C   0  0  1  0  0  0  0  0  0  0  0  0
    1.2900   -3.4330    1.8020 C   0  0  0  0  0  0  0  0  0  0  0  0
    1.0920   -3.3880    0.3450 C   0  0  0  0  0  0  0  0  0  0  0  0
   -0.0630   -3.1510   -0.3600 C   0  0  0  0  0  0  0  0  0  0  0  0
    0.1760   -3.2320   -1.6730 N   0  0  0  0  0  0  0  0  0  0  0  0
    1.4680   -3.5190   -1.8480 C   0  0  0  0  0  0  0  0  0  0  0  0
    2.0250   -3.6130   -0.6310 N   0  0  0  0  0  0  0  0  0  0  0  0
    0.8990   -1.0150    2.4860 C   0  0  0  0  0  0  0  0  0  0  0  0
    0.3310   -0.6960    3.6070 O   0  0  0  0  0  0  0  0  0  0  0  0
    2.4110   -3.4650    3.9890 H   0  0  0  0  0  0  0  0  0  0  0  0
    2.1520   -1.8140    4.4950 H   0  0  0  0  0  0  0  0  0  0  0  0
    2.7850   -2.0170    2.2030 H   0  0  0  0  0  0  0  0  0  0  0  0
    0.4190   -3.9490    2.3150 H   0  0  0  0  0  0  0  0  0  0  0  0
    2.1230   -4.1900    1.9830 H   0  0  0  0  0  0  0  0  0  0  0  0
   -1.0500   -2.9270    0.0760 H   0  0  0  0  0  0  0  0  0  0  0  0
   -0.5510   -3.0890   -2.4070 H   0  0  0  0  0  0  0  0  0  0  0  0
    1.9610   -3.6480   -2.8250 H   0  0  0  0  0  0  0  0  0  0  0  0
    3.6200    1.7730    3.6100 N   0  0  0  0  0  0  0  0  0  0  0  0
    2.7980    1.7780    2.4630 C   0  0  0  0  0  0  0  0  0  0  0  0
    3.1060    1.0520    1.5040 O   0  0  0  0  0  0  0  0  0  0  0  0
    1.6200    2.6300    2.4250 C   0  0  0  0  0  0  0  0  0  0  0  0
    0.5760    2.3590    1.4280 C   0  0  0  0  0  0  0  0  0  0  0  0
   -0.1550    1.0420    1.5050 C   0  0  2  0  0  0  0  0  0  0  0  0
    0.6460   -0.1260    1.3740 N   0  0  0  0  0  0  0  0  0  0  0  0
   -1.3550    1.1290    0.6430 C   0  0  0  0  0  0  0  0  0  0  0  0
   -2.1490    2.1360    0.7720 O   0  0  0  0  0  0  0  0  0  0  0  0
    3.9440    2.6750    4.0040 H   0  0  0  0  0  0  0  0  0  0  0  0
    3.9130    0.8990    4.0790 H   0  0  0  0  0  0  0  0  0  0  0  0
    1.2070    2.7970    3.4680 H   0  0  0  0  0  0  0  0  0  0  0  0
    2.0160    3.6730    2.1830 H   0  0  0  0  0  0  0  0  0  0  0  0
   -0.1910    3.1580    1.4830 H   0  0  0  0  0  0  0  0  0  0  0  0
    1.0420    2.5010    0.4080 H   0  0  0  0  0  0  0  0  0  0  0  0
   -0.5930    0.9850    2.5640 H   0  0  0  0  0  0  0  0  0  0  0  0
    1.0690   -0.3880    0.4790 H   0  0  0  0  0  0  0  0  0  0  0  0
   -2.1070   -0.8240   -3.0500 O   0  0  0  0  0  0  0  0  0  0  0  0
   -2.7120    0.3670   -2.6220 C   0  0  0  0  0  0  0  0  0  0  0  0
   -2.9450    0.3570   -1.1540 C   0  0  2  0  0  0  0  0  0  0  0  0
   -1.7550    0.2140   -0.3450 N   0  0  0  0  0  0  0  0  0  0  0  0
   -3.9640   -0.6700   -0.7880 C   0  0  0  0  0  0  0  0  0  0  0  0
   -3.7870   -1.5260    0.1120 O   0  0  0  0  0  0  0  0  0  0  0  0
   -5.1570   -0.6530   -1.4940 O   0  0  0  0  0  0  0  0  0  0  0  0
   -2.5810   -1.6010   -2.6830 H   0  0  0  0  0  0  0  0  0  0  0  0
   -3.7180    0.3710   -3.1160 H   0  0  0  0  0  0  0  0  0  0  0  0
   -2.1910    1.2540   -2.9870 H   0  0  0  0  0  0  0  0  0  0  0  0
   -3.4040    1.3300   -0.8600 H   0  0  0  0  0  0  0  0  0  0  0  0
   -1.1670   -0.6080   -0.5150 H   0  0  0  0  0  0  0  0  0  0  0  0
  1 11  1  0  0  0  0
  1 12  1  0  0  0  0
  2 13  1  6  0  0  0
  2  1  1  0  0  0  0
  3 15  1  0  0  0  0
  3 14  1  0  0  0  0
  3  2  1  0  0  0  0
  4  3  1  0  0  0  0
  5 16  1  0  0  0  0
  5  4  2  0  0  0  0
  6  5  1  0  0  0  0
  7  6  1  0  0  0  0
  7  8  2  0  0  0  0
  8  4  1  0  0  0  0
  9  2  1  0  0  0  0
  9 10  2  0  0  0  0
 17  6  1  0  0  0  0
 18  7  1  0  0  0  0
 19 28  1  0  0  0  0
 19 29  1  0  0  0  0
 20 19  1  0  0  0  0
 21 20  2  0  0  0  0
 22 20  1  0  0  0  0
 22 30  1  0  0  0  0
 23 32  1  0  0  0  0
 23 24  1  0  0  0  0
 23 22  1  0  0  0  0
 24 34  1  1  0  0  0
 25 24  1  0  0  0  0
 25  9  1  0  0  0  0
 26 27  2  0  0  0  0
 26 24  1  0  0  0  0
 31 22  1  0  0  0  0
 33 23  1  0  0  0  0
 35 25  1  0  0  0  0
 36 43  1  0  0  0  0
 36 37  1  0  0  0  0
 37 38  1  0  0  0  0
 38 46  1  1  0  0  0
 38 40  1  0  0  0  0
 38 39  1  0  0  0  0
 39 26  1  0  0  0  0
 40 41  1  0  0  0  0
 42 40  2  0  0  0  0
 44 37  1  0  0  0  0
 45 37  1  0  0  0  0
 47 39  1  0  0  0  0
M  END
$$$$
