HRD.pdb
 OpenBabel07022418353D

 55 55  0  0  1  0  0  0  0  0999 V2000
    2.2480   -1.3010   -1.1680 N   0  0  0  0  0  0  0  0  0  0  0  0
    2.3700   -1.7870    0.2020 C   0  0  1  0  0  0  0  0  0  0  0  0
    3.5560   -1.1190    0.8650 C   0  0  0  0  0  0  0  0  0  0  0  0
    3.7740   -1.5490    2.2580 C   0  0  0  0  0  0  0  0  0  0  0  0
    4.5670   -2.6300    2.6650 C   0  0  0  0  0  0  0  0  0  0  0  0
    4.5460   -2.7420    3.9970 N   0  0  0  0  0  0  0  0  0  0  0  0
    3.7510   -1.7480    4.4500 C   0  0  0  0  0  0  0  0  0  0  0  0
    3.2830   -1.0250    3.3930 N   0  0  0  0  0  0  0  0  0  0  0  0
    1.1280   -1.5590    0.9670 C   0  0  0  0  0  0  0  0  0  0  0  0
    1.0760   -1.8730    2.1800 O   0  0  0  0  0  0  0  0  0  0  0  0
    2.8370   -1.9260   -1.7620 H   0  0  0  0  0  0  0  0  0  0  0  0
    2.6980   -0.3390   -1.2350 H   0  0  0  0  0  0  0  0  0  0  0  0
    2.5330   -2.8790    0.1560 H   0  0  0  0  0  0  0  0  0  0  0  0
    3.3160   -0.0150    0.8930 H   0  0  0  0  0  0  0  0  0  0  0  0
    4.4780   -1.2290    0.2770 H   0  0  0  0  0  0  0  0  0  0  0  0
    5.1060   -3.2610    1.9520 H   0  0  0  0  0  0  0  0  0  0  0  0
    5.0420   -3.4530    4.5910 H   0  0  0  0  0  0  0  0  0  0  0  0
    3.5460   -1.5910    5.5020 H   0  0  0  0  0  0  0  0  0  0  0  0
    1.0870    5.4160    0.8320 N   0  0  0  0  0  0  0  0  0  0  0  0
    0.1100    4.4950    0.3900 C   0  0  0  0  0  0  0  0  0  0  0  0
    0.2050    3.8880   -0.7610 N   0  0  0  0  0  0  0  0  0  0  0  0
   -1.0470    4.1670    1.1700 N   0  0  0  0  0  0  0  0  0  0  0  0
   -1.8310    2.9870    0.8850 C   0  0  0  0  0  0  0  0  0  0  0  0
   -1.0210    1.7500    1.2170 C   0  0  0  0  0  0  0  0  0  0  0  0
   -1.8820    0.5680    0.8970 C   0  0  0  0  0  0  0  0  0  0  0  0
   -1.2570   -0.7680    1.1570 C   0  0  2  0  0  0  0  0  0  0  0  0
   -0.0440   -0.9900    0.3950 N   0  0  0  0  0  0  0  0  0  0  0  0
   -2.2560   -1.7800    0.6400 C   0  0  0  0  0  0  0  0  0  0  0  0
   -3.4170   -1.8380    1.1190 O   0  0  0  0  0  0  0  0  0  0  0  0
    1.7780    5.1250    1.5350 H   0  0  0  0  0  0  0  0  0  0  0  0
    1.0900    6.3720    0.4410 H   0  0  0  0  0  0  0  0  0  0  0  0
    1.0390    4.1080   -1.3560 H   0  0  0  0  0  0  0  0  0  0  0  0
   -1.3260    4.7900    1.9550 H   0  0  0  0  0  0  0  0  0  0  0  0
   -2.7670    3.0320    1.4550 H   0  0  0  0  0  0  0  0  0  0  0  0
   -2.1420    2.9500   -0.1970 H   0  0  0  0  0  0  0  0  0  0  0  0
   -0.8730    1.7610    2.3310 H   0  0  0  0  0  0  0  0  0  0  0  0
   -0.0430    1.7390    0.7520 H   0  0  0  0  0  0  0  0  0  0  0  0
   -2.1760    0.5710   -0.1900 H   0  0  0  0  0  0  0  0  0  0  0  0
   -2.8490    0.5820    1.4450 H   0  0  0  0  0  0  0  0  0  0  0  0
   -1.1040   -1.0050    2.2310 H   0  0  0  0  0  0  0  0  0  0  0  0
   -0.0090   -0.7310   -0.6070 H   0  0  0  0  0  0  0  0  0  0  0  0
   -1.9450   -2.7020   -0.3910 N   0  0  0  0  0  0  0  0  0  0  0  0
   -2.9340   -3.6550   -0.8520 C   0  0  1  0  0  0  0  0  0  0  0  0
   -3.1910   -3.5250   -2.3340 C   0  0  0  0  0  0  0  0  0  0  0  0
   -3.6890   -2.1970   -2.7170 C   0  0  0  0  0  0  0  0  0  0  0  0
   -3.8980   -1.2490   -1.9460 O   0  0  0  0  0  0  0  0  0  0  0  0
   -2.4810   -5.0140   -0.5330 C   0  0  0  0  0  0  0  0  0  0  0  0
   -1.3820   -5.1840    0.0430 O   0  0  0  0  0  0  0  0  0  0  0  0
   -3.9490   -1.9930   -4.0800 O   0  0  0  0  0  0  0  0  0  0  0  0
   -3.2360   -6.1330   -0.8520 O   0  0  0  0  0  0  0  0  0  0  0  0
   -0.9820   -2.6520   -0.7880 H   0  0  0  0  0  0  0  0  0  0  0  0
   -3.8820   -3.4960   -0.2660 H   0  0  0  0  0  0  0  0  0  0  0  0
   -2.2430   -3.7520   -2.8560 H   0  0  0  0  0  0  0  0  0  0  0  0
   -3.9380   -4.2900   -2.6250 H   0  0  0  0  0  0  0  0  0  0  0  0
   -3.9490   -1.0910   -4.5090 H   0  0  0  0  0  0  0  0  0  0  0  0
  1  2  1  0  0  0  0
  2 13  1  6  0  0  0
  2  3  1  0  0  0  0
  2  9  1  0  0  0  0
  3 14  1  0  0  0  0
  3  4  1  0  0  0  0
  4  5  2  0  0  0  0
  4  8  1  0  0  0  0
  5  6  1  0  0  0  0
  6  7  1  0  0  0  0
  6 17  1  0  0  0  0
  7 18  1  0  0  0  0
  8  7  2  0  0  0  0
  9 10  2  0  0  0  0
 11  1  1  0  0  0  0
 12  1  1  0  0  0  0
 15  3  1  0  0  0  0
 16  5  1  0  0  0  0
 19 30  1  0  0  0  0
 20 19  1  0  0  0  0
 20 22  1  0  0  0  0
 21 20  2  0  0  0  0
 22 33  1  0  0  0  0
 23 22  1  0  0  0  0
 23 24  1  0  0  0  0
 23 34  1  0  0  0  0
 24 36  1  0  0  0  0
 25 26  1  0  0  0  0
 25 24  1  0  0  0  0
 25 39  1  0  0  0  0
 26 40  1  1  0  0  0
 27  9  1  0  0  0  0
 27 26  1  0  0  0  0
 28 29  2  0  0  0  0
 28 26  1  0  0  0  0
 31 19  1  0  0  0  0
 32 21  1  0  0  0  0
 35 23  1  0  0  0  0
 37 24  1  0  0  0  0
 38 25  1  0  0  0  0
 41 27  1  0  0  0  0
 42 28  1  0  0  0  0
 43 47  1  0  0  0  0
 43 42  1  0  0  0  0
 43 52  1  1  0  0  0
 44 43  1  0  0  0  0
 45 44  1  0  0  0  0
 45 46  2  0  0  0  0
 47 48  1  0  0  0  0
 49 45  1  0  0  0  0
 50 47  2  0  0  0  0
 51 42  1  0  0  0  0
 53 44  1  0  0  0  0
 54 44  1  0  0  0  0
 55 49  1  0  0  0  0
M  END
$$$$
