HRF.pdb
 OpenBabel07022418353D

 62 63  0  0  1  0  0  0  0  0999 V2000
    2.9510   -0.8560    1.2030 N   0  0  0  0  0  0  0  0  0  0  0  0
    2.2560   -1.6140    2.2140 C   0  0  1  0  0  0  0  0  0  0  0  0
    2.8500   -1.2860    3.5800 C   0  0  0  0  0  0  0  0  0  0  0  0
    4.2980   -1.6310    3.6170 C   0  0  0  0  0  0  0  0  0  0  0  0
    5.3120   -0.7470    3.2720 C   0  0  0  0  0  0  0  0  0  0  0  0
    6.4950   -1.3420    3.4070 N   0  0  0  0  0  0  0  0  0  0  0  0
    6.2290   -2.6010    3.8370 C   0  0  0  0  0  0  0  0  0  0  0  0
    4.9070   -2.7710    3.9620 N   0  0  0  0  0  0  0  0  0  0  0  0
    0.8030   -1.2920    2.1880 C   0  0  0  0  0  0  0  0  0  0  0  0
   -0.0030   -1.7930    3.0100 O   0  0  0  0  0  0  0  0  0  0  0  0
    2.6100   -1.1040    0.2490 H   0  0  0  0  0  0  0  0  0  0  0  0
    2.7830    0.1520    1.3770 H   0  0  0  0  0  0  0  0  0  0  0  0
    2.4220   -2.6980    2.0330 H   0  0  0  0  0  0  0  0  0  0  0  0
    2.3110   -1.8300    4.3870 H   0  0  0  0  0  0  0  0  0  0  0  0
    2.7480   -0.2070    3.7350 H   0  0  0  0  0  0  0  0  0  0  0  0
    5.1960    0.2740    2.9400 H   0  0  0  0  0  0  0  0  0  0  0  0
    7.4550   -0.9580    3.2300 H   0  0  0  0  0  0  0  0  0  0  0  0
    6.9710   -3.3720    4.0540 H   0  0  0  0  0  0  0  0  0  0  0  0
   -1.4690    4.5580   -1.7710 N   0  0  0  0  0  0  0  0  0  0  0  0
   -2.4200    4.3210   -0.7620 C   0  0  0  0  0  0  0  0  0  0  0  0
   -3.6680    4.2040   -1.0390 N   0  0  0  0  0  0  0  0  0  0  0  0
   -2.0230    4.2080    0.6020 N   0  0  0  0  0  0  0  0  0  0  0  0
   -2.7840    3.4280    1.5330 C   0  0  0  0  0  0  0  0  0  0  0  0
   -2.7150    1.9290    1.2560 C   0  0  0  0  0  0  0  0  0  0  0  0
   -1.2950    1.4390    1.3390 C   0  0  0  0  0  0  0  0  0  0  0  0
   -1.1110   -0.0190    1.1100 C   0  0  2  0  0  0  0  0  0  0  0  0
    0.3020   -0.4020    1.2180 N   0  0  0  0  0  0  0  0  0  0  0  0
   -1.6670   -0.4590   -0.1710 C   0  0  0  0  0  0  0  0  0  0  0  0
   -2.8470   -0.2990   -0.5690 O   0  0  0  0  0  0  0  0  0  0  0  0
   -1.5780    4.1310   -2.6980 H   0  0  0  0  0  0  0  0  0  0  0  0
   -0.6530    5.1660   -1.5790 H   0  0  0  0  0  0  0  0  0  0  0  0
   -4.0600    4.2730   -2.0070 H   0  0  0  0  0  0  0  0  0  0  0  0
   -1.1460    4.7230    0.8970 H   0  0  0  0  0  0  0  0  0  0  0  0
   -2.3850    3.5490    2.5720 H   0  0  0  0  0  0  0  0  0  0  0  0
   -3.8210    3.7780    1.5410 H   0  0  0  0  0  0  0  0  0  0  0  0
   -3.3450    1.3610    1.9630 H   0  0  0  0  0  0  0  0  0  0  0  0
   -3.1710    1.8060    0.2450 H   0  0  0  0  0  0  0  0  0  0  0  0
   -0.7310    2.0250    0.5550 H   0  0  0  0  0  0  0  0  0  0  0  0
   -0.8570    1.7900    2.2990 H   0  0  0  0  0  0  0  0  0  0  0  0
   -1.6190   -0.5680    1.9570 H   0  0  0  0  0  0  0  0  0  0  0  0
    0.9360    0.0260    0.5230 H   0  0  0  0  0  0  0  0  0  0  0  0
   -0.8190   -1.1580   -1.1170 N   0  0  0  0  0  0  0  0  0  0  0  0
   -1.3080   -1.6130   -2.3810 C   0  0  1  0  0  0  0  0  0  0  0  0
   -2.3970   -2.6370   -2.2790 C   0  0  0  0  0  0  0  0  0  0  0  0
   -2.0020   -3.8740   -1.5610 C   0  0  0  0  0  0  0  0  0  0  0  0
   -1.4630   -4.9290   -2.2590 C   0  0  0  0  0  0  0  0  0  0  0  0
   -1.0990   -6.0790   -1.5970 C   0  0  0  0  0  0  0  0  0  0  0  0
   -1.2750   -6.1690   -0.2360 C   0  0  0  0  0  0  0  0  0  0  0  0
   -1.8180   -5.1060    0.4730 C   0  0  0  0  0  0  0  0  0  0  0  0
   -2.1740   -3.9710   -0.2050 C   0  0  0  0  0  0  0  0  0  0  0  0
   -1.8270   -0.5040   -3.2280 C   0  0  0  0  0  0  0  0  0  0  0  0
   -2.2770   -0.8080   -4.3580 O   0  0  0  0  0  0  0  0  0  0  0  0
   -1.8450    0.8270   -2.8560 O   0  0  0  0  0  0  0  0  0  0  0  0
    0.1810   -1.3200   -0.8360 H   0  0  0  0  0  0  0  0  0  0  0  0
   -0.4660   -2.0580   -2.9500 H   0  0  0  0  0  0  0  0  0  0  0  0
   -2.6660   -2.9470   -3.3110 H   0  0  0  0  0  0  0  0  0  0  0  0
   -3.3340   -2.2180   -1.8380 H   0  0  0  0  0  0  0  0  0  0  0  0
   -1.3150   -4.8750   -3.3530 H   0  0  0  0  0  0  0  0  0  0  0  0
   -0.6670   -6.9410   -2.1150 H   0  0  0  0  0  0  0  0  0  0  0  0
   -1.0020   -7.0600    0.3430 H   0  0  0  0  0  0  0  0  0  0  0  0
   -1.9570   -5.1860    1.5630 H   0  0  0  0  0  0  0  0  0  0  0  0
   -2.5930   -3.1580    0.3530 H   0  0  0  0  0  0  0  0  0  0  0  0
  1 12  1  0  0  0  0
  1  2  1  0  0  0  0
  2 13  1  6  0  0  0
  2  3  1  0  0  0  0
  3  4  1  0  0  0  0
  3 15  1  0  0  0  0
  3 14  1  0  0  0  0
  4  8  1  0  0  0  0
  5  6  1  0  0  0  0
  5  4  2  0  0  0  0
  6  7  1  0  0  0  0
  7  8  2  0  0  0  0
  7 18  1  0  0  0  0
  9  2  1  0  0  0  0
  9 10  2  0  0  0  0
 11  1  1  0  0  0  0
 16  5  1  0  0  0  0
 17  6  1  0  0  0  0
 19 31  1  0  0  0  0
 19 20  1  0  0  0  0
 20 22  1  0  0  0  0
 21 20  2  0  0  0  0
 22 33  1  0  0  0  0
 22 23  1  0  0  0  0
 23 35  1  0  0  0  0
 23 34  1  0  0  0  0
 24 25  1  0  0  0  0
 24 23  1  0  0  0  0
 24 36  1  0  0  0  0
 25 39  1  0  0  0  0
 26 27  1  0  0  0  0
 26 25  1  0  0  0  0
 26 40  1  1  0  0  0
 27  9  1  0  0  0  0
 28 26  1  0  0  0  0
 29 28  2  0  0  0  0
 30 19  1  0  0  0  0
 32 21  1  0  0  0  0
 37 24  1  0  0  0  0
 38 25  1  0  0  0  0
 41 27  1  0  0  0  0
 42 54  1  0  0  0  0
 42 28  1  0  0  0  0
 43 55  1  6  0  0  0
 43 44  1  0  0  0  0
 43 42  1  0  0  0  0
 44 57  1  0  0  0  0
 44 45  1  0  0  0  0
 45 50  1  0  0  0  0
 46 47  1  0  0  0  0
 46 45  2  0  0  0  0
 47 48  2  0  0  0  0
 48 60  1  0  0  0  0
 48 49  1  0  0  0  0
 49 61  1  0  0  0  0
 50 62  1  0  0  0  0
 50 49  2  0  0  0  0
 51 53  1  0  0  0  0
 51 43  1  0  0  0  0
 52 51  2  0  0  0  0
 56 44  1  0  0  0  0
 58 46  1  0  0  0  0
 59 47  1  0  0  0  0
M  END
$$$$
