HRK.pdb
 OpenBabel07022418353D

 63 63  0  0  1  0  0  0  0  0999 V2000
    3.9920   -0.3660    0.0900 N   0  0  0  0  0  0  0  0  0  0  0  0
    3.5750   -1.5980    0.6830 C   0  0  1  0  0  0  0  0  0  0  0  0
    4.2070   -1.9210    1.9950 C   0  0  0  0  0  0  0  0  0  0  0  0
    3.9030   -0.8760    2.9830 C   0  0  0  0  0  0  0  0  0  0  0  0
    2.8150   -0.8760    3.8230 C   0  0  0  0  0  0  0  0  0  0  0  0
    2.8740    0.2450    4.5880 N   0  0  0  0  0  0  0  0  0  0  0  0
    3.9780    0.9030    4.2110 C   0  0  0  0  0  0  0  0  0  0  0  0
    4.6130    0.2160    3.2250 N   0  0  0  0  0  0  0  0  0  0  0  0
    2.0930   -1.6850    0.8330 C   0  0  0  0  0  0  0  0  0  0  0  0
    1.6310   -2.7000    1.3970 O   0  0  0  0  0  0  0  0  0  0  0  0
    4.9290   -0.0590    0.4500 H   0  0  0  0  0  0  0  0  0  0  0  0
    4.0730   -0.4150   -0.9500 H   0  0  0  0  0  0  0  0  0  0  0  0
    3.8860   -2.4100   -0.0340 H   0  0  0  0  0  0  0  0  0  0  0  0
    3.7930   -2.8950    2.3340 H   0  0  0  0  0  0  0  0  0  0  0  0
    5.3070   -2.0860    1.8990 H   0  0  0  0  0  0  0  0  0  0  0  0
    2.0170   -1.6060    3.9110 H   0  0  0  0  0  0  0  0  0  0  0  0
    2.2140    0.5570    5.3220 H   0  0  0  0  0  0  0  0  0  0  0  0
    4.3210    1.8350    4.6200 H   0  0  0  0  0  0  0  0  0  0  0  0
    3.0260    3.8100    2.9950 N   0  0  0  0  0  0  0  0  0  0  0  0
    2.4080    3.2650    1.8350 C   0  0  0  0  0  0  0  0  0  0  0  0
    3.0080    3.4840    0.6950 N   0  0  0  0  0  0  0  0  0  0  0  0
    1.2020    2.5210    1.9080 N   0  0  0  0  0  0  0  0  0  0  0  0
    0.3480    2.4350    0.7750 C   0  0  0  0  0  0  0  0  0  0  0  0
   -0.8810    1.6430    0.9490 C   0  0  0  0  0  0  0  0  0  0  0  0
   -0.8580    0.2450    1.3510 C   0  0  0  0  0  0  0  0  0  0  0  0
   -0.1680   -0.7710    0.5120 C   0  0  2  0  0  0  0  0  0  0  0  0
    1.2450   -0.6180    0.3320 N   0  0  0  0  0  0  0  0  0  0  0  0
   -0.7570   -0.8140   -0.8800 C   0  0  0  0  0  0  0  0  0  0  0  0
   -0.0040   -0.6920   -1.8550 O   0  0  0  0  0  0  0  0  0  0  0  0
    4.0470    3.9490    3.0210 H   0  0  0  0  0  0  0  0  0  0  0  0
    2.4650    4.0730    3.8200 H   0  0  0  0  0  0  0  0  0  0  0  0
    3.8810    4.0190    0.6140 H   0  0  0  0  0  0  0  0  0  0  0  0
    0.9800    2.0530    2.8090 H   0  0  0  0  0  0  0  0  0  0  0  0
    0.8860    2.1490   -0.1340 H   0  0  0  0  0  0  0  0  0  0  0  0
    0.0640    3.5390    0.5260 H   0  0  0  0  0  0  0  0  0  0  0  0
   -1.5220    1.7000   -0.0030 H   0  0  0  0  0  0  0  0  0  0  0  0
   -1.5490    2.2380    1.6680 H   0  0  0  0  0  0  0  0  0  0  0  0
   -1.9480   -0.0990    1.3940 H   0  0  0  0  0  0  0  0  0  0  0  0
   -0.5580    0.0880    2.4350 H   0  0  0  0  0  0  0  0  0  0  0  0
   -0.3280   -1.8070    0.9700 H   0  0  0  0  0  0  0  0  0  0  0  0
    1.7660    0.1340   -0.1140 H   0  0  0  0  0  0  0  0  0  0  0  0
   -2.1750   -0.9950   -1.0920 N   0  0  0  0  0  0  0  0  0  0  0  0
   -2.7120   -1.0320   -2.4090 C   0  0  1  0  0  0  0  0  0  0  0  0
   -2.9930   -2.3260   -3.0470 C   0  0  0  0  0  0  0  0  0  0  0  0
   -3.9300   -3.2990   -2.4990 C   0  0  0  0  0  0  0  0  0  0  0  0
   -3.5490   -3.8440   -1.1800 C   0  0  0  0  0  0  0  0  0  0  0  0
   -4.5520   -4.8700   -0.6580 C   0  0  0  0  0  0  0  0  0  0  0  0
   -5.8700   -4.2740   -0.5140 N   0  0  0  0  0  0  0  0  0  0  0  0
   -3.8410   -0.0760   -2.5940 C   0  0  0  0  0  0  0  0  0  0  0  0
   -4.2140    0.6460   -1.6440 O   0  0  0  0  0  0  0  0  0  0  0  0
   -4.4920    0.0320   -3.8060 O   0  0  0  0  0  0  0  0  0  0  0  0
   -2.7030   -1.0580   -0.1960 H   0  0  0  0  0  0  0  0  0  0  0  0
   -1.8990   -0.5740   -3.1040 H   0  0  0  0  0  0  0  0  0  0  0  0
   -3.3070   -2.0800   -4.1250 H   0  0  0  0  0  0  0  0  0  0  0  0
   -2.0130   -2.8910   -3.2570 H   0  0  0  0  0  0  0  0  0  0  0  0
   -5.0090   -2.9860   -2.5530 H   0  0  0  0  0  0  0  0  0  0  0  0
   -3.9260   -4.1930   -3.2120 H   0  0  0  0  0  0  0  0  0  0  0  0
   -3.3290   -3.1690   -0.3700 H   0  0  0  0  0  0  0  0  0  0  0  0
   -2.6030   -4.4460   -1.3360 H   0  0  0  0  0  0  0  0  0  0  0  0
   -4.5480   -5.7790   -1.2640 H   0  0  0  0  0  0  0  0  0  0  0  0
   -4.2140   -5.1370    0.3640 H   0  0  0  0  0  0  0  0  0  0  0  0
   -6.0160   -3.8150    0.3990 H   0  0  0  0  0  0  0  0  0  0  0  0
   -6.6250   -4.9230   -0.7890 H   0  0  0  0  0  0  0  0  0  0  0  0
  1 11  1  0  0  0  0
  1  2  1  0  0  0  0
  2 13  1  6  0  0  0
  2  9  1  0  0  0  0
  2  3  1  0  0  0  0
  3 14  1  0  0  0  0
  3  4  1  0  0  0  0
  4  8  1  0  0  0  0
  4  5  2  0  0  0  0
  5 16  1  0  0  0  0
  5  6  1  0  0  0  0
  6 17  1  0  0  0  0
  7  6  1  0  0  0  0
  7 18  1  0  0  0  0
  8  7  2  0  0  0  0
  9 10  2  0  0  0  0
 12  1  1  0  0  0  0
 15  3  1  0  0  0  0
 19 30  1  0  0  0  0
 19 31  1  0  0  0  0
 20 22  1  0  0  0  0
 20 19  1  0  0  0  0
 21 20  2  0  0  0  0
 22 33  1  0  0  0  0
 23 24  1  0  0  0  0
 23 22  1  0  0  0  0
 24 25  1  0  0  0  0
 24 37  1  0  0  0  0
 25 38  1  0  0  0  0
 25 39  1  0  0  0  0
 26 40  1  1  0  0  0
 26 25  1  0  0  0  0
 27 26  1  0  0  0  0
 27  9  1  0  0  0  0
 28 26  1  0  0  0  0
 29 28  2  0  0  0  0
 32 21  1  0  0  0  0
 34 23  1  0  0  0  0
 35 23  1  0  0  0  0
 36 24  1  0  0  0  0
 41 27  1  0  0  0  0
 42 28  1  0  0  0  0
 42 52  1  0  0  0  0
 43 53  1  6  0  0  0
 43 42  1  0  0  0  0
 44 45  1  0  0  0  0
 44 43  1  0  0  0  0
 45 46  1  0  0  0  0
 46 47  1  0  0  0  0
 46 58  1  0  0  0  0
 47 48  1  0  0  0  0
 47 61  1  0  0  0  0
 48 62  1  0  0  0  0
 49 43  1  0  0  0  0
 49 50  1  0  0  0  0
 51 49  2  0  0  0  0
 54 44  1  0  0  0  0
 55 44  1  0  0  0  0
 56 45  1  0  0  0  0
 57 45  1  0  0  0  0
 59 46  1  0  0  0  0
 60 47  1  0  0  0  0
 63 48  1  0  0  0  0
M  END
$$$$
