HRL.pdb
 OpenBabel07022418353D

 61 61  0  0  1  0  0  0  0  0999 V2000
    2.6800   -1.9920    0.1140 N   0  0  0  0  0  0  0  0  0  0  0  0
    2.4990   -1.3730    1.3990 C   0  0  1  0  0  0  0  0  0  0  0  0
    3.5420   -0.2850    1.5080 C   0  0  0  0  0  0  0  0  0  0  0  0
    3.5040    0.4630    2.7740 C   0  0  0  0  0  0  0  0  0  0  0  0
    4.2140    0.0960    3.8970 C   0  0  0  0  0  0  0  0  0  0  0  0
    3.9490    0.9860    4.8470 N   0  0  0  0  0  0  0  0  0  0  0  0
    3.1030    1.8820    4.3440 C   0  0  0  0  0  0  0  0  0  0  0  0
    2.8190    1.5760    3.0710 N   0  0  0  0  0  0  0  0  0  0  0  0
    1.1860   -0.7990    1.6270 C   0  0  0  0  0  0  0  0  0  0  0  0
    0.9400   -0.2640    2.7390 O   0  0  0  0  0  0  0  0  0  0  0  0
    3.6620   -2.3990    0.1180 H   0  0  0  0  0  0  0  0  0  0  0  0
    2.0480   -2.7790   -0.0800 H   0  0  0  0  0  0  0  0  0  0  0  0
    2.6900   -2.1300    2.2040 H   0  0  0  0  0  0  0  0  0  0  0  0
    3.3640    0.4010    0.6320 H   0  0  0  0  0  0  0  0  0  0  0  0
    4.5600   -0.7260    1.3850 H   0  0  0  0  0  0  0  0  0  0  0  0
    4.8640   -0.7540    3.9860 H   0  0  0  0  0  0  0  0  0  0  0  0
    4.3460    0.9670    5.8150 H   0  0  0  0  0  0  0  0  0  0  0  0
    2.7060    2.7330    4.8940 H   0  0  0  0  0  0  0  0  0  0  0  0
    2.8410    4.4080   -1.0350 N   0  0  0  0  0  0  0  0  0  0  0  0
    1.6880    3.6180   -1.2630 C   0  0  0  0  0  0  0  0  0  0  0  0
    1.8600    2.5060   -1.8950 N   0  0  0  0  0  0  0  0  0  0  0  0
    0.3970    3.9860   -0.8390 N   0  0  0  0  0  0  0  0  0  0  0  0
   -0.6860    3.0520   -0.9520 C   0  0  0  0  0  0  0  0  0  0  0  0
   -0.4280    1.9260    0.0290 C   0  0  0  0  0  0  0  0  0  0  0  0
   -1.5110    0.8840   -0.0080 C   0  0  0  0  0  0  0  0  0  0  0  0
   -1.1500   -0.1860    1.0070 C   0  0  2  0  0  0  0  0  0  0  0  0
    0.1260   -0.7870    0.6790 N   0  0  0  0  0  0  0  0  0  0  0  0
   -2.2170   -1.2360    1.0670 C   0  0  0  0  0  0  0  0  0  0  0  0
   -3.4090   -0.9510    1.3390 O   0  0  0  0  0  0  0  0  0  0  0  0
    3.6710    4.0840   -0.4960 H   0  0  0  0  0  0  0  0  0  0  0  0
    2.8660    5.3670   -1.4270 H   0  0  0  0  0  0  0  0  0  0  0  0
    2.7770    2.1660   -2.2380 H   0  0  0  0  0  0  0  0  0  0  0  0
    0.2320    4.9230   -0.4500 H   0  0  0  0  0  0  0  0  0  0  0  0
   -1.6410    3.5390   -0.6580 H   0  0  0  0  0  0  0  0  0  0  0  0
   -0.8050    2.6640   -1.9890 H   0  0  0  0  0  0  0  0  0  0  0  0
   -0.3130    2.3190    1.0400 H   0  0  0  0  0  0  0  0  0  0  0  0
    0.5280    1.4170   -0.2520 H   0  0  0  0  0  0  0  0  0  0  0  0
   -1.5160    0.3650   -1.0000 H   0  0  0  0  0  0  0  0  0  0  0  0
   -2.5040    1.3010    0.1530 H   0  0  0  0  0  0  0  0  0  0  0  0
   -1.0980    0.2270    2.0370 H   0  0  0  0  0  0  0  0  0  0  0  0
    0.3200   -1.2250   -0.2390 H   0  0  0  0  0  0  0  0  0  0  0  0
   -4.6270   -2.8430   -1.3640 C   0  0  0  0  0  0  0  0  0  0  0  0
   -3.2430   -3.4020   -1.6250 C   0  0  0  0  0  0  0  0  0  0  0  0
   -3.3500   -4.2470   -2.9020 C   0  0  0  0  0  0  0  0  0  0  0  0
   -2.8730   -4.3450   -0.5090 C   0  0  0  0  0  0  0  0  0  0  0  0
   -2.8560   -3.6720    0.8480 C   0  0  2  0  0  0  0  0  0  0  0  0
   -1.8670   -2.5880    0.8080 N   0  0  0  0  0  0  0  0  0  0  0  0
   -2.4170   -4.6980    1.8180 C   0  0  0  0  0  0  0  0  0  0  0  0
   -1.3430   -4.5220    2.4320 O   0  0  0  0  0  0  0  0  0  0  0  0
   -3.1380   -5.8470    2.0830 O   0  0  0  0  0  0  0  0  0  0  0  0
   -5.1280   -3.4800   -0.6170 H   0  0  0  0  0  0  0  0  0  0  0  0
   -5.2690   -2.9120   -2.2880 H   0  0  0  0  0  0  0  0  0  0  0  0
   -4.5790   -1.7960   -0.9980 H   0  0  0  0  0  0  0  0  0  0  0  0
   -2.4960   -2.6150   -1.7330 H   0  0  0  0  0  0  0  0  0  0  0  0
   -2.4190   -4.7630   -3.1380 H   0  0  0  0  0  0  0  0  0  0  0  0
   -3.7100   -3.5920   -3.7150 H   0  0  0  0  0  0  0  0  0  0  0  0
   -4.1190   -5.0400   -2.7200 H   0  0  0  0  0  0  0  0  0  0  0  0
   -3.5540   -5.2100   -0.4660 H   0  0  0  0  0  0  0  0  0  0  0  0
   -1.8310   -4.7250   -0.6770 H   0  0  0  0  0  0  0  0  0  0  0  0
   -3.8600   -3.2600    1.1010 H   0  0  0  0  0  0  0  0  0  0  0  0
   -0.8680   -2.7890    0.5840 H   0  0  0  0  0  0  0  0  0  0  0  0
  1 11  1  0  0  0  0
  1  2  1  0  0  0  0
  2  3  1  0  0  0  0
  2  9  1  0  0  0  0
  2 13  1  1  0  0  0
  3  4  1  0  0  0  0
  4  8  1  0  0  0  0
  4  5  2  0  0  0  0
  5 16  1  0  0  0  0
  5  6  1  0  0  0  0
  6 17  1  0  0  0  0
  7  6  1  0  0  0  0
  7 18  1  0  0  0  0
  8  7  2  0  0  0  0
  9 10  2  0  0  0  0
 12  1  1  0  0  0  0
 14  3  1  0  0  0  0
 15  3  1  0  0  0  0
 19 30  1  0  0  0  0
 20 19  1  0  0  0  0
 20 22  1  0  0  0  0
 21 20  2  0  0  0  0
 22 33  1  0  0  0  0
 23 22  1  0  0  0  0
 23 34  1  0  0  0  0
 23 24  1  0  0  0  0
 24 36  1  0  0  0  0
 25 24  1  0  0  0  0
 25 39  1  0  0  0  0
 25 26  1  0  0  0  0
 26 28  1  0  0  0  0
 26 40  1  1  0  0  0
 27 26  1  0  0  0  0
 27  9  1  0  0  0  0
 28 29  2  0  0  0  0
 31 19  1  0  0  0  0
 32 21  1  0  0  0  0
 35 23  1  0  0  0  0
 37 24  1  0  0  0  0
 38 25  1  0  0  0  0
 41 27  1  0  0  0  0
 42 53  1  0  0  0  0
 42 51  1  0  0  0  0
 43 42  1  0  0  0  0
 43 45  1  0  0  0  0
 44 57  1  0  0  0  0
 44 43  1  0  0  0  0
 45 58  1  0  0  0  0
 45 46  1  0  0  0  0
 46 60  1  1  0  0  0
 46 48  1  0  0  0  0
 47 46  1  0  0  0  0
 47 28  1  0  0  0  0
 48 50  2  0  0  0  0
 48 49  1  0  0  0  0
 52 42  1  0  0  0  0
 54 43  1  0  0  0  0
 55 44  1  0  0  0  0
 56 44  1  0  0  0  0
 59 45  1  0  0  0  0
 61 47  1  0  0  0  0
M  END
$$$$
