HRN.pdb
 OpenBabel07022418353D

 56 56  0  0  1  0  0  0  0  0999 V2000
    2.4970   -1.0950    0.3510 N   0  0  0  0  0  0  0  0  0  0  0  0
    1.8000   -1.3330    1.5750 C   0  0  1  0  0  0  0  0  0  0  0  0
    2.4950   -0.7250    2.7630 C   0  0  0  0  0  0  0  0  0  0  0  0
    3.8690   -1.3040    2.9180 C   0  0  0  0  0  0  0  0  0  0  0  0
    4.3750   -2.2680    2.0740 C   0  0  0  0  0  0  0  0  0  0  0  0
    5.6200   -2.5440    2.5290 N   0  0  0  0  0  0  0  0  0  0  0  0
    5.8470   -1.7820    3.5930 C   0  0  0  0  0  0  0  0  0  0  0  0
    4.7810   -1.0110    3.8490 N   0  0  0  0  0  0  0  0  0  0  0  0
    0.3630   -1.0760    1.5340 C   0  0  0  0  0  0  0  0  0  0  0  0
   -0.3110   -1.1310    2.5920 O   0  0  0  0  0  0  0  0  0  0  0  0
    2.6650   -0.0910    0.1470 H   0  0  0  0  0  0  0  0  0  0  0  0
    2.2120   -1.6610   -0.4490 H   0  0  0  0  0  0  0  0  0  0  0  0
    1.8830   -2.4670    1.7300 H   0  0  0  0  0  0  0  0  0  0  0  0
    2.5470    0.3710    2.7250 H   0  0  0  0  0  0  0  0  0  0  0  0
    1.9620   -1.0120    3.7170 H   0  0  0  0  0  0  0  0  0  0  0  0
    3.9460   -2.7530    1.2140 H   0  0  0  0  0  0  0  0  0  0  0  0
    6.2980   -3.2400    2.1180 H   0  0  0  0  0  0  0  0  0  0  0  0
    6.7760   -1.8080    4.1490 H   0  0  0  0  0  0  0  0  0  0  0  0
    0.7690    5.8010    0.3630 N   0  0  0  0  0  0  0  0  0  0  0  0
    0.2650    4.5660   -0.1270 C   0  0  0  0  0  0  0  0  0  0  0  0
    1.0660    3.6740   -0.5300 N   0  0  0  0  0  0  0  0  0  0  0  0
   -1.1240    4.3330   -0.1600 N   0  0  0  0  0  0  0  0  0  0  0  0
   -1.7240    3.1430   -0.7290 C   0  0  0  0  0  0  0  0  0  0  0  0
   -1.4230    1.8910    0.0750 C   0  0  0  0  0  0  0  0  0  0  0  0
   -2.0690    0.6800   -0.5220 C   0  0  0  0  0  0  0  0  0  0  0  0
   -1.7330   -0.5240    0.2840 C   0  0  2  0  0  0  0  0  0  0  0  0
   -0.3180   -0.7660    0.3280 N   0  0  0  0  0  0  0  0  0  0  0  0
   -2.4460   -1.7370   -0.2740 C   0  0  0  0  0  0  0  0  0  0  0  0
   -3.6680   -1.6790   -0.3040 O   0  0  0  0  0  0  0  0  0  0  0  0
    1.2060    5.8970    1.2860 H   0  0  0  0  0  0  0  0  0  0  0  0
    0.6740    6.6190   -0.2680 H   0  0  0  0  0  0  0  0  0  0  0  0
    2.0910    3.8350   -0.5050 H   0  0  0  0  0  0  0  0  0  0  0  0
   -1.7280    5.0850    0.2580 H   0  0  0  0  0  0  0  0  0  0  0  0
   -2.8070    3.2330   -0.7870 H   0  0  0  0  0  0  0  0  0  0  0  0
   -1.3740    2.9790   -1.7780 H   0  0  0  0  0  0  0  0  0  0  0  0
   -1.6350    2.0560    1.1420 H   0  0  0  0  0  0  0  0  0  0  0  0
   -0.3160    1.7450   -0.0170 H   0  0  0  0  0  0  0  0  0  0  0  0
   -1.6290    0.5400   -1.5360 H   0  0  0  0  0  0  0  0  0  0  0  0
   -3.1720    0.7880   -0.6330 H   0  0  0  0  0  0  0  0  0  0  0  0
   -2.1540   -0.4140    1.3030 H   0  0  0  0  0  0  0  0  0  0  0  0
    0.2490   -0.7170   -0.5390 H   0  0  0  0  0  0  0  0  0  0  0  0
   -3.7560   -4.3300    1.1350 N   0  0  0  0  0  0  0  0  0  0  0  0
   -4.3850   -4.2270   -0.1170 C   0  0  0  0  0  0  0  0  0  0  0  0
   -5.6540   -4.0950   -0.0830 O   0  0  0  0  0  0  0  0  0  0  0  0
   -3.6680   -4.2650   -1.4340 C   0  0  0  0  0  0  0  0  0  0  0  0
   -2.1790   -4.0890   -1.2510 C   0  0  2  0  0  0  0  0  0  0  0  0
   -1.7330   -2.8590   -0.7260 N   0  0  0  0  0  0  0  0  0  0  0  0
   -1.4710   -4.4670   -2.4690 C   0  0  0  0  0  0  0  0  0  0  0  0
   -1.7080   -5.5100   -3.1350 O   0  0  0  0  0  0  0  0  0  0  0  0
   -0.4470   -3.6480   -2.9720 O   0  0  0  0  0  0  0  0  0  0  0  0
   -2.9340   -4.9310    1.2680 H   0  0  0  0  0  0  0  0  0  0  0  0
   -4.1240   -3.7930    1.9360 H   0  0  0  0  0  0  0  0  0  0  0  0
   -4.0840   -3.5140   -2.1500 H   0  0  0  0  0  0  0  0  0  0  0  0
   -3.8970   -5.2580   -1.8670 H   0  0  0  0  0  0  0  0  0  0  0  0
   -1.9570   -4.9360   -0.4690 H   0  0  0  0  0  0  0  0  0  0  0  0
   -0.6630   -2.7310   -0.6470 H   0  0  0  0  0  0  0  0  0  0  0  0
  1  2  1  0  0  0  0
  2 13  1  1  0  0  0
  2  3  1  0  0  0  0
  3  4  1  0  0  0  0
  3 15  1  0  0  0  0
  4  8  1  0  0  0  0
  5  6  1  0  0  0  0
  5  4  2  0  0  0  0
  6  7  1  0  0  0  0
  7  8  2  0  0  0  0
  7 18  1  0  0  0  0
  9  2  1  0  0  0  0
  9 10  2  0  0  0  0
 11  1  1  0  0  0  0
 12  1  1  0  0  0  0
 14  3  1  0  0  0  0
 16  5  1  0  0  0  0
 17  6  1  0  0  0  0
 19 30  1  0  0  0  0
 20 19  1  0  0  0  0
 21 32  1  0  0  0  0
 21 20  2  0  0  0  0
 22 20  1  0  0  0  0
 22 33  1  0  0  0  0
 23 22  1  0  0  0  0
 23 24  1  0  0  0  0
 24 36  1  0  0  0  0
 25 24  1  0  0  0  0
 25 26  1  0  0  0  0
 26 27  1  0  0  0  0
 26 40  1  1  0  0  0
 27  9  1  0  0  0  0
 28 26  1  0  0  0  0
 29 28  2  0  0  0  0
 31 19  1  0  0  0  0
 34 23  1  0  0  0  0
 35 23  1  0  0  0  0
 37 24  1  0  0  0  0
 38 25  1  0  0  0  0
 39 25  1  0  0  0  0
 41 27  1  0  0  0  0
 42 51  1  0  0  0  0
 42 52  1  0  0  0  0
 43 44  2  0  0  0  0
 43 42  1  0  0  0  0
 45 46  1  0  0  0  0
 45 43  1  0  0  0  0
 46 47  1  0  0  0  0
 46 55  1  1  0  0  0
 47 56  1  0  0  0  0
 47 28  1  0  0  0  0
 48 46  1  0  0  0  0
 49 48  2  0  0  0  0
 50 48  1  0  0  0  0
 53 45  1  0  0  0  0
 54 45  1  0  0  0  0
M  END
$$$$
