HRR.pdb
 OpenBabel07022418353D

 65 65  0  0  1  0  0  0  0  0999 V2000
    3.8370    1.9400    4.0380 N   0  0  0  0  0  0  0  0  0  0  0  0
    3.4140    1.0910    2.9160 C   0  0  1  0  0  0  0  0  0  0  0  0
    4.1030   -0.2710    3.0660 C   0  0  0  0  0  0  0  0  0  0  0  0
    5.5710   -0.1300    3.0520 C   0  0  0  0  0  0  0  0  0  0  0  0
    6.3400    0.0900    4.1700 C   0  0  0  0  0  0  0  0  0  0  0  0
    7.5980    0.1550    3.7580 N   0  0  0  0  0  0  0  0  0  0  0  0
    7.6660   -0.0130    2.4190 C   0  0  0  0  0  0  0  0  0  0  0  0
    6.4030   -0.1910    1.9820 N   0  0  0  0  0  0  0  0  0  0  0  0
    1.9360    0.8970    3.0910 C   0  0  0  0  0  0  0  0  0  0  0  0
    1.4520    0.9130    4.2390 O   0  0  0  0  0  0  0  0  0  0  0  0
    3.0050    2.4400    4.4450 H   0  0  0  0  0  0  0  0  0  0  0  0
    4.4880    2.7010    3.7000 H   0  0  0  0  0  0  0  0  0  0  0  0
    3.6580    1.5490    1.9700 H   0  0  0  0  0  0  0  0  0  0  0  0
    3.7210   -0.9810    2.3160 H   0  0  0  0  0  0  0  0  0  0  0  0
    3.7480   -0.6880    4.0590 H   0  0  0  0  0  0  0  0  0  0  0  0
    6.0170    0.1930    5.2010 H   0  0  0  0  0  0  0  0  0  0  0  0
    8.4380    0.3070    4.3480 H   0  0  0  0  0  0  0  0  0  0  0  0
    8.5630   -0.0120    1.8190 H   0  0  0  0  0  0  0  0  0  0  0  0
   -3.4740    2.2260   -1.9770 N   0  0  0  0  0  0  0  0  0  0  0  0
   -3.8040    2.1380   -0.6020 C   0  0  0  0  0  0  0  0  0  0  0  0
   -4.5920    1.2140   -0.1970 N   0  0  0  0  0  0  0  0  0  0  0  0
   -3.2630    3.0630    0.3420 N   0  0  0  0  0  0  0  0  0  0  0  0
   -3.3690    2.8160    1.7610 C   0  0  0  0  0  0  0  0  0  0  0  0
   -2.5150    1.6240    2.0960 C   0  0  0  0  0  0  0  0  0  0  0  0
   -1.0640    1.7960    1.8140 C   0  0  0  0  0  0  0  0  0  0  0  0
   -0.3130    0.4900    2.1910 C   0  0  2  0  0  0  0  0  0  0  0  0
    1.0920    0.6900    1.9400 N   0  0  0  0  0  0  0  0  0  0  0  0
   -0.8150   -0.6250    1.3680 C   0  0  0  0  0  0  0  0  0  0  0  0
   -1.9390   -1.1880    1.6130 O   0  0  0  0  0  0  0  0  0  0  0  0
   -4.1710    2.2590   -2.7550 H   0  0  0  0  0  0  0  0  0  0  0  0
   -2.4590    2.2640   -2.2570 H   0  0  0  0  0  0  0  0  0  0  0  0
   -4.9810    0.5330   -0.8870 H   0  0  0  0  0  0  0  0  0  0  0  0
   -2.7940    3.9070   -0.0470 H   0  0  0  0  0  0  0  0  0  0  0  0
   -3.0320    3.7330    2.3110 H   0  0  0  0  0  0  0  0  0  0  0  0
   -4.4350    2.6380    2.0190 H   0  0  0  0  0  0  0  0  0  0  0  0
   -2.9580    0.7790    1.4900 H   0  0  0  0  0  0  0  0  0  0  0  0
   -2.6900    1.3460    3.1780 H   0  0  0  0  0  0  0  0  0  0  0  0
   -0.6250    2.6370    2.3690 H   0  0  0  0  0  0  0  0  0  0  0  0
   -0.9010    1.9450    0.7230 H   0  0  0  0  0  0  0  0  0  0  0  0
   -0.4650    0.3560    3.2780 H   0  0  0  0  0  0  0  0  0  0  0  0
    1.5010    0.7130    1.0200 H   0  0  0  0  0  0  0  0  0  0  0  0
   -3.6490   -6.6020   -3.7130 N   0  0  0  0  0  0  0  0  0  0  0  0
   -3.0380   -5.3370   -3.4990 C   0  0  0  0  0  0  0  0  0  0  0  0
   -1.8980   -5.0940   -4.0160 N   0  0  0  0  0  0  0  0  0  0  0  0
   -3.6520   -4.3400   -2.7280 N   0  0  0  0  0  0  0  0  0  0  0  0
   -2.9920   -3.4700   -1.8010 C   0  0  0  0  0  0  0  0  0  0  0  0
   -2.1100   -2.4960   -2.5310 C   0  0  0  0  0  0  0  0  0  0  0  0
   -1.4800   -1.5230   -1.5960 C   0  0  0  0  0  0  0  0  0  0  0  0
   -0.6260   -2.2290   -0.5560 C   0  0  2  0  0  0  0  0  0  0  0  0
   -0.1100   -1.1260    0.2790 N   0  0  0  0  0  0  0  0  0  0  0  0
    0.4450   -3.0380   -1.0950 C   0  0  0  0  0  0  0  0  0  0  0  0
    1.6370   -2.7690   -0.8190 O   0  0  0  0  0  0  0  0  0  0  0  0
    0.1990   -4.1150   -1.9120 O   0  0  0  0  0  0  0  0  0  0  0  0
   -4.6910   -6.7210   -3.5740 H   0  0  0  0  0  0  0  0  0  0  0  0
   -3.1320   -7.4490   -4.0070 H   0  0  0  0  0  0  0  0  0  0  0  0
   -1.4010   -5.7730   -4.5860 H   0  0  0  0  0  0  0  0  0  0  0  0
   -4.7050   -4.2200   -2.8700 H   0  0  0  0  0  0  0  0  0  0  0  0
   -2.3650   -4.0750   -1.0630 H   0  0  0  0  0  0  0  0  0  0  0  0
   -3.7570   -2.9230   -1.1910 H   0  0  0  0  0  0  0  0  0  0  0  0
   -2.8010   -1.9100   -3.2250 H   0  0  0  0  0  0  0  0  0  0  0  0
   -1.3930   -2.9810   -3.1810 H   0  0  0  0  0  0  0  0  0  0  0  0
   -2.2970   -0.9600   -1.0480 H   0  0  0  0  0  0  0  0  0  0  0  0
   -0.8280   -0.7900   -2.1180 H   0  0  0  0  0  0  0  0  0  0  0  0
   -1.3010   -2.8140    0.0870 H   0  0  0  0  0  0  0  0  0  0  0  0
    0.8050   -0.7750   -0.0310 H   0  0  0  0  0  0  0  0  0  0  0  0
  1 11  1  0  0  0  0
  2 13  1  6  0  0  0
  2  3  1  0  0  0  0
  2  9  1  0  0  0  0
  2  1  1  0  0  0  0
  3 15  1  0  0  0  0
  4  3  1  0  0  0  0
  4  5  2  0  0  0  0
  5 16  1  0  0  0  0
  6  5  1  0  0  0  0
  6 17  1  0  0  0  0
  7  6  1  0  0  0  0
  8  7  2  0  0  0  0
  8  4  1  0  0  0  0
  9 10  2  0  0  0  0
 12  1  1  0  0  0  0
 14  3  1  0  0  0  0
 18  7  1  0  0  0  0
 19 20  1  0  0  0  0
 20 21  2  0  0  0  0
 20 22  1  0  0  0  0
 22 23  1  0  0  0  0
 23 35  1  0  0  0  0
 23 24  1  0  0  0  0
 23 34  1  0  0  0  0
 24 37  1  0  0  0  0
 25 24  1  0  0  0  0
 25 26  1  0  0  0  0
 25 38  1  0  0  0  0
 26 40  1  1  0  0  0
 27 26  1  0  0  0  0
 27  9  1  0  0  0  0
 28 29  2  0  0  0  0
 28 26  1  0  0  0  0
 30 19  1  0  0  0  0
 31 19  1  0  0  0  0
 32 21  1  0  0  0  0
 33 22  1  0  0  0  0
 36 24  1  0  0  0  0
 39 25  1  0  0  0  0
 41 27  1  0  0  0  0
 42 54  1  0  0  0  0
 42 43  1  0  0  0  0
 43 45  1  0  0  0  0
 44 43  2  0  0  0  0
 45 46  1  0  0  0  0
 46 59  1  0  0  0  0
 46 58  1  0  0  0  0
 47 46  1  0  0  0  0
 47 48  1  0  0  0  0
 48 62  1  0  0  0  0
 48 49  1  0  0  0  0
 49 64  1  1  0  0  0
 49 50  1  0  0  0  0
 50 28  1  0  0  0  0
 51 52  1  0  0  0  0
 51 49  1  0  0  0  0
 53 51  2  0  0  0  0
 55 42  1  0  0  0  0
 56 44  1  0  0  0  0
 57 45  1  0  0  0  0
 60 47  1  0  0  0  0
 61 47  1  0  0  0  0
 63 48  1  0  0  0  0
 65 50  1  0  0  0  0
M  END
$$$$
