HRW.pdb
 OpenBabel07022418353D

 66 68  0  0  1  0  0  0  0  0999 V2000
    1.3240    2.6550    3.0280 N   0  0  0  0  0  0  0  0  0  0  0  0
    1.9080    1.9390    1.8700 C   0  0  1  0  0  0  0  0  0  0  0  0
    3.1350    1.2540    2.3420 C   0  0  0  0  0  0  0  0  0  0  0  0
    3.8570    0.4850    1.3260 C   0  0  0  0  0  0  0  0  0  0  0  0
    4.8390    0.9310    0.4700 C   0  0  0  0  0  0  0  0  0  0  0  0
    5.2480   -0.0750   -0.3140 N   0  0  0  0  0  0  0  0  0  0  0  0
    4.5430   -1.1560    0.0300 C   0  0  0  0  0  0  0  0  0  0  0  0
    3.6910   -0.8090    1.0360 N   0  0  0  0  0  0  0  0  0  0  0  0
    0.8740    1.1060    1.2390 C   0  0  0  0  0  0  0  0  0  0  0  0
   -0.2580    0.9310    1.8210 O   0  0  0  0  0  0  0  0  0  0  0  0
    1.6820    2.2110    3.9060 H   0  0  0  0  0  0  0  0  0  0  0  0
    0.2680    2.6300    2.9660 H   0  0  0  0  0  0  0  0  0  0  0  0
    2.2060    2.7450    1.1680 H   0  0  0  0  0  0  0  0  0  0  0  0
    2.9310    0.6300    3.2560 H   0  0  0  0  0  0  0  0  0  0  0  0
    3.8630    2.0320    2.7320 H   0  0  0  0  0  0  0  0  0  0  0  0
    5.2240    1.9610    0.4390 H   0  0  0  0  0  0  0  0  0  0  0  0
    5.9710   -0.0290   -1.0450 H   0  0  0  0  0  0  0  0  0  0  0  0
    4.5980   -2.1650   -0.3880 H   0  0  0  0  0  0  0  0  0  0  0  0
   -2.2300    5.1060   -2.7460 N   0  0  0  0  0  0  0  0  0  0  0  0
   -1.4130    4.1360   -2.0840 C   0  0  0  0  0  0  0  0  0  0  0  0
   -1.7440    3.7870   -0.8900 N   0  0  0  0  0  0  0  0  0  0  0  0
   -0.2750    3.5680   -2.7110 N   0  0  0  0  0  0  0  0  0  0  0  0
    0.2960    2.3060   -2.1860 C   0  0  0  0  0  0  0  0  0  0  0  0
   -0.7090    1.2230   -2.4630 C   0  0  0  0  0  0  0  0  0  0  0  0
   -0.2960   -0.1390   -2.0120 C   0  0  0  0  0  0  0  0  0  0  0  0
   -0.0640   -0.3600   -0.5960 C   0  0  2  0  0  0  0  0  0  0  0  0
    0.9810    0.4390   -0.0070 N   0  0  0  0  0  0  0  0  0  0  0  0
    0.0030   -1.7830   -0.1710 C   0  0  0  0  0  0  0  0  0  0  0  0
    0.8840   -2.0740    0.6680 O   0  0  0  0  0  0  0  0  0  0  0  0
   -1.8860    5.6540   -3.5390 H   0  0  0  0  0  0  0  0  0  0  0  0
   -3.2150    5.2800   -2.4270 H   0  0  0  0  0  0  0  0  0  0  0  0
   -2.5680    4.1860   -0.4160 H   0  0  0  0  0  0  0  0  0  0  0  0
    0.1230    4.0640   -3.5250 H   0  0  0  0  0  0  0  0  0  0  0  0
    0.4420    2.5100   -1.1120 H   0  0  0  0  0  0  0  0  0  0  0  0
    1.2520    2.1700   -2.7260 H   0  0  0  0  0  0  0  0  0  0  0  0
   -1.6700    1.5550   -1.9960 H   0  0  0  0  0  0  0  0  0  0  0  0
   -0.9130    1.2550   -3.5660 H   0  0  0  0  0  0  0  0  0  0  0  0
    0.6850   -0.3370   -2.5660 H   0  0  0  0  0  0  0  0  0  0  0  0
   -0.9830   -0.8590   -2.5120 H   0  0  0  0  0  0  0  0  0  0  0  0
   -0.9980   -0.0070   -0.0310 H   0  0  0  0  0  0  0  0  0  0  0  0
    1.9010    0.5590   -0.5280 H   0  0  0  0  0  0  0  0  0  0  0  0
   -0.8320   -2.7960   -0.6340 N   0  0  0  0  0  0  0  0  0  0  0  0
   -0.6970   -4.1680   -0.1540 C   0  0  1  0  0  0  0  0  0  0  0  0
   -2.0050   -4.7480    0.2910 C   0  0  0  0  0  0  0  0  0  0  0  0
   -2.6610   -3.9980    1.3890 C   0  0  0  0  0  0  0  0  0  0  0  0
   -3.7480   -3.1550    1.3010 C   0  0  0  0  0  0  0  0  0  0  0  0
   -4.0380   -2.6730    2.5160 N   0  0  0  0  0  0  0  0  0  0  0  0
   -3.1430   -3.2000    3.4030 C   0  0  0  0  0  0  0  0  0  0  0  0
   -3.0060   -3.0230    4.7780 C   0  0  0  0  0  0  0  0  0  0  0  0
   -2.0220   -3.6500    5.5140 C   0  0  0  0  0  0  0  0  0  0  0  0
   -1.1710   -4.4760    4.7820 C   0  0  0  0  0  0  0  0  0  0  0  0
   -1.2910   -4.6610    3.4290 C   0  0  0  0  0  0  0  0  0  0  0  0
   -2.2870   -4.0220    2.7090 C   0  0  0  0  0  0  0  0  0  0  0  0
   -0.1340   -5.0410   -1.2310 C   0  0  0  0  0  0  0  0  0  0  0  0
    0.0290   -6.2580   -0.9610 O   0  0  0  0  0  0  0  0  0  0  0  0
    0.2110   -4.5900   -2.4870 O   0  0  0  0  0  0  0  0  0  0  0  0
   -1.5590   -2.5970   -1.3200 H   0  0  0  0  0  0  0  0  0  0  0  0
    0.0520   -4.1940    0.6590 H   0  0  0  0  0  0  0  0  0  0  0  0
   -1.7870   -5.7700    0.7150 H   0  0  0  0  0  0  0  0  0  0  0  0
   -2.6790   -4.9360   -0.5680 H   0  0  0  0  0  0  0  0  0  0  0  0
   -4.2980   -2.9090    0.3790 H   0  0  0  0  0  0  0  0  0  0  0  0
   -4.8040   -2.0120    2.7830 H   0  0  0  0  0  0  0  0  0  0  0  0
   -3.7230   -2.3520    5.2750 H   0  0  0  0  0  0  0  0  0  0  0  0
   -1.9140   -3.5150    6.5790 H   0  0  0  0  0  0  0  0  0  0  0  0
   -0.3750   -4.9870    5.3490 H   0  0  0  0  0  0  0  0  0  0  0  0
   -0.6240   -5.3050    2.8620 H   0  0  0  0  0  0  0  0  0  0  0  0
  1 11  1  0  0  0  0
  2 13  1  6  0  0  0
  2  3  1  0  0  0  0
  2  1  1  0  0  0  0
  3 15  1  0  0  0  0
  3 14  1  0  0  0  0
  4  3  1  0  0  0  0
  5  4  2  0  0  0  0
  6  7  1  0  0  0  0
  6  5  1  0  0  0  0
  7  8  2  0  0  0  0
  8  4  1  0  0  0  0
  9 10  2  0  0  0  0
  9  2  1  0  0  0  0
 12  1  1  0  0  0  0
 16  5  1  0  0  0  0
 17  6  1  0  0  0  0
 18  7  1  0  0  0  0
 19 31  1  0  0  0  0
 19 20  1  0  0  0  0
 20 21  2  0  0  0  0
 21 32  1  0  0  0  0
 22 23  1  0  0  0  0
 22 20  1  0  0  0  0
 23 34  1  0  0  0  0
 24 23  1  0  0  0  0
 24 25  1  0  0  0  0
 24 36  1  0  0  0  0
 25 26  1  0  0  0  0
 26 28  1  0  0  0  0
 26 40  1  1  0  0  0
 26 27  1  0  0  0  0
 27  9  1  0  0  0  0
 28 29  2  0  0  0  0
 30 19  1  0  0  0  0
 33 22  1  0  0  0  0
 35 23  1  0  0  0  0
 37 24  1  0  0  0  0
 38 25  1  0  0  0  0
 39 25  1  0  0  0  0
 41 27  1  0  0  0  0
 42 28  1  0  0  0  0
 42 43  1  0  0  0  0
 43 44  1  0  0  0  0
 43 58  1  1  0  0  0
 44 59  1  0  0  0  0
 44 45  1  0  0  0  0
 45 53  1  0  0  0  0
 46 45  2  0  0  0  0
 46 47  1  0  0  0  0
 47 62  1  0  0  0  0
 47 48  1  0  0  0  0
 48 49  1  0  0  0  0
 49 63  1  0  0  0  0
 49 50  2  0  0  0  0
 50 64  1  0  0  0  0
 51 65  1  0  0  0  0
 51 50  1  0  0  0  0
 52 51  2  0  0  0  0
 53 48  2  0  0  0  0
 53 52  1  0  0  0  0
 54 55  1  0  0  0  0
 54 43  1  0  0  0  0
 56 54  2  0  0  0  0
 57 42  1  0  0  0  0
 60 44  1  0  0  0  0
 61 46  1  0  0  0  0
 66 52  1  0  0  0  0
M  END
$$$$
