HSD.pdb
 OpenBabel07022418383D

 43 43  0  0  1  0  0  0  0  0999 V2000
    0.9490   -2.5280    2.5060 N   0  0  0  0  0  0  0  0  0  0  0  0
    1.9160   -1.5050    2.8580 C   0  0  1  0  0  0  0  0  0  0  0  0
    3.2920   -2.1430    2.8060 C   0  0  0  0  0  0  0  0  0  0  0  0
    3.5860   -2.6680    1.4390 C   0  0  0  0  0  0  0  0  0  0  0  0
    4.1940   -1.9720    0.4050 C   0  0  0  0  0  0  0  0  0  0  0  0
    4.2950   -2.7710   -0.6870 N   0  0  0  0  0  0  0  0  0  0  0  0
    3.7640   -3.9370   -0.3470 C   0  0  0  0  0  0  0  0  0  0  0  0
    3.3290   -3.8950    0.9350 N   0  0  0  0  0  0  0  0  0  0  0  0
    1.8980   -0.3750    1.9110 C   0  0  0  0  0  0  0  0  0  0  0  0
    2.6910    0.5800    2.1040 O   0  0  0  0  0  0  0  0  0  0  0  0
    1.1490   -2.8750    1.5230 H   0  0  0  0  0  0  0  0  0  0  0  0
    1.0400   -3.3710    3.1080 H   0  0  0  0  0  0  0  0  0  0  0  0
    1.7430   -1.2060    3.9030 H   0  0  0  0  0  0  0  0  0  0  0  0
    4.0570   -1.4090    3.1350 H   0  0  0  0  0  0  0  0  0  0  0  0
    3.2960   -3.0050    3.5020 H   0  0  0  0  0  0  0  0  0  0  0  0
    4.5460   -0.9630    0.4160 H   0  0  0  0  0  0  0  0  0  0  0  0
    4.7150   -2.4870   -1.6010 H   0  0  0  0  0  0  0  0  0  0  0  0
    3.7040   -4.7840   -1.0300 H   0  0  0  0  0  0  0  0  0  0  0  0
    1.4660    1.6300   -2.2910 O   0  0  0  0  0  0  0  0  0  0  0  0
    1.4470    0.4760   -1.5090 C   0  0  0  0  0  0  0  0  0  0  0  0
    1.0790    0.8380   -0.0890 C   0  0  2  0  0  0  0  0  0  0  0  0
    1.0370   -0.2920    0.7840 N   0  0  0  0  0  0  0  0  0  0  0  0
   -0.2550    1.5230   -0.1630 C   0  0  0  0  0  0  0  0  0  0  0  0
   -0.4460    2.5350   -0.8700 O   0  0  0  0  0  0  0  0  0  0  0  0
    2.1300    2.2680   -1.9360 H   0  0  0  0  0  0  0  0  0  0  0  0
    0.6600   -0.2090   -1.9070 H   0  0  0  0  0  0  0  0  0  0  0  0
    2.4260   -0.0070   -1.6030 H   0  0  0  0  0  0  0  0  0  0  0  0
    1.8430    1.5550    0.2660 H   0  0  0  0  0  0  0  0  0  0  0  0
    0.3550   -1.0870    0.5960 H   0  0  0  0  0  0  0  0  0  0  0  0
   -1.3880    1.0490    0.5770 N   0  0  0  0  0  0  0  0  0  0  0  0
   -2.6580    1.7330    0.4820 C   0  0  1  0  0  0  0  0  0  0  0  0
   -3.6440    0.7810   -0.1520 C   0  0  0  0  0  0  0  0  0  0  0  0
   -3.8650   -0.4600    0.6140 C   0  0  0  0  0  0  0  0  0  0  0  0
   -3.2980   -0.6390    1.7130 O   0  0  0  0  0  0  0  0  0  0  0  0
   -3.1450    2.1780    1.8130 C   0  0  0  0  0  0  0  0  0  0  0  0
   -2.4440    1.9280    2.8190 O   0  0  0  0  0  0  0  0  0  0  0  0
   -4.7080   -1.4370    0.1140 O   0  0  0  0  0  0  0  0  0  0  0  0
   -4.3340    2.8530    1.9990 O   0  0  0  0  0  0  0  0  0  0  0  0
   -1.2540    0.2140    1.1720 H   0  0  0  0  0  0  0  0  0  0  0  0
   -2.5940    2.6270   -0.1830 H   0  0  0  0  0  0  0  0  0  0  0  0
   -3.2950    0.5540   -1.1840 H   0  0  0  0  0  0  0  0  0  0  0  0
   -4.6360    1.3060   -0.2830 H   0  0  0  0  0  0  0  0  0  0  0  0
   -4.5460   -2.4160    0.3090 H   0  0  0  0  0  0  0  0  0  0  0  0
  1  2  1  0  0  0  0
  1 12  1  0  0  0  0
  2 13  1  1  0  0  0
  3  2  1  0  0  0  0
  3 14  1  0  0  0  0
  3 15  1  0  0  0  0
  4  3  1  0  0  0  0
  5 16  1  0  0  0  0
  5  4  2  0  0  0  0
  6  7  1  0  0  0  0
  6  5  1  0  0  0  0
  7  8  2  0  0  0  0
  8  4  1  0  0  0  0
  9 10  2  0  0  0  0
  9  2  1  0  0  0  0
 11  1  1  0  0  0  0
 17  6  1  0  0  0  0
 18  7  1  0  0  0  0
 19 25  1  0  0  0  0
 19 20  1  0  0  0  0
 20 21  1  0  0  0  0
 21 28  1  1  0  0  0
 21 22  1  0  0  0  0
 22  9  1  0  0  0  0
 23 21  1  0  0  0  0
 23 30  1  0  0  0  0
 24 23  2  0  0  0  0
 26 20  1  0  0  0  0
 27 20  1  0  0  0  0
 29 22  1  0  0  0  0
 30 39  1  0  0  0  0
 31 40  1  6  0  0  0
 31 30  1  0  0  0  0
 31 35  1  0  0  0  0
 32 31  1  0  0  0  0
 32 33  1  0  0  0  0
 33 34  2  0  0  0  0
 35 38  2  0  0  0  0
 35 36  1  0  0  0  0
 37 43  1  0  0  0  0
 37 33  1  0  0  0  0
 41 32  1  0  0  0  0
 42 32  1  0  0  0  0
M  END
$$$$
