HSG.pdb
 OpenBabel07022418383D

 37 37  0  0  1  0  0  0  0  0999 V2000
    0.9730   -3.6680   -0.0550 N   0  0  0  0  0  0  0  0  0  0  0  0
    0.5850   -2.5540    0.7880 C   0  0  1  0  0  0  0  0  0  0  0  0
    1.8330   -1.7670    1.1180 C   0  0  0  0  0  0  0  0  0  0  0  0
    2.8140   -2.6210    1.8340 C   0  0  0  0  0  0  0  0  0  0  0  0
    3.8260   -3.4200    1.3640 C   0  0  0  0  0  0  0  0  0  0  0  0
    4.4570   -4.0090    2.4220 N   0  0  0  0  0  0  0  0  0  0  0  0
    3.8370   -3.5760    3.5330 C   0  0  0  0  0  0  0  0  0  0  0  0
    2.8570   -2.7480    3.1800 N   0  0  0  0  0  0  0  0  0  0  0  0
   -0.4270   -1.7550    0.0890 C   0  0  0  0  0  0  0  0  0  0  0  0
   -0.8290   -2.0810   -1.0750 O   0  0  0  0  0  0  0  0  0  0  0  0
    0.6340   -3.5100   -1.0230 H   0  0  0  0  0  0  0  0  0  0  0  0
    0.7310   -4.5870    0.3350 H   0  0  0  0  0  0  0  0  0  0  0  0
    0.2210   -2.9920    1.7440 H   0  0  0  0  0  0  0  0  0  0  0  0
    1.6210   -0.8360    1.6760 H   0  0  0  0  0  0  0  0  0  0  0  0
    2.3410   -1.4370    0.1680 H   0  0  0  0  0  0  0  0  0  0  0  0
    4.0590   -3.5390    0.3220 H   0  0  0  0  0  0  0  0  0  0  0  0
    5.2730   -4.6750    2.3680 H   0  0  0  0  0  0  0  0  0  0  0  0
    4.1240   -3.8790    4.5290 H   0  0  0  0  0  0  0  0  0  0  0  0
   -3.9010   -1.0580    0.7720 O   0  0  0  0  0  0  0  0  0  0  0  0
   -3.3650    0.2020    0.6010 C   0  0  0  0  0  0  0  0  0  0  0  0
   -2.0310    0.1810   -0.0960 C   0  0  2  0  0  0  0  0  0  0  0  0
   -1.0330   -0.5820    0.6290 N   0  0  0  0  0  0  0  0  0  0  0  0
   -1.5530    1.5480   -0.4160 C   0  0  0  0  0  0  0  0  0  0  0  0
   -2.2790    2.3280   -1.0320 O   0  0  0  0  0  0  0  0  0  0  0  0
   -4.5830   -1.2610    0.0720 H   0  0  0  0  0  0  0  0  0  0  0  0
   -4.0600    0.7690   -0.0520 H   0  0  0  0  0  0  0  0  0  0  0  0
   -3.3460    0.7240    1.5680 H   0  0  0  0  0  0  0  0  0  0  0  0
   -2.1880   -0.3300   -1.0740 H   0  0  0  0  0  0  0  0  0  0  0  0
   -0.7070   -0.3080    1.5840 H   0  0  0  0  0  0  0  0  0  0  0  0
   -0.2560    1.9600   -0.0130 N   0  0  0  0  0  0  0  0  0  0  0  0
    0.1910    3.2830   -0.3290 C   0  0  0  0  0  0  0  0  0  0  0  0
   -0.7080    4.2940    0.2880 C   0  0  0  0  0  0  0  0  0  0  0  0
   -1.6950    3.9270    0.9750 O   0  0  0  0  0  0  0  0  0  0  0  0
   -0.5130    5.6530    0.1430 O   0  0  0  0  0  0  0  0  0  0  0  0
    0.4010    1.3260    0.5170 H   0  0  0  0  0  0  0  0  0  0  0  0
    1.2100    3.5020    0.0410 H   0  0  0  0  0  0  0  0  0  0  0  0
    0.2430    3.4030   -1.4390 H   0  0  0  0  0  0  0  0  0  0  0  0
  1 12  1  0  0  0  0
  1  2  1  0  0  0  0
  2  3  1  0  0  0  0
  2 13  1  1  0  0  0
  3 14  1  0  0  0  0
  3  4  1  0  0  0  0
  4  8  1  0  0  0  0
  5  4  2  0  0  0  0
  5  6  1  0  0  0  0
  6  7  1  0  0  0  0
  7 18  1  0  0  0  0
  8  7  2  0  0  0  0
  9 22  1  0  0  0  0
  9  2  1  0  0  0  0
 10  9  2  0  0  0  0
 11  1  1  0  0  0  0
 15  3  1  0  0  0  0
 16  5  1  0  0  0  0
 17  6  1  0  0  0  0
 20 19  1  0  0  0  0
 20 27  1  0  0  0  0
 21 28  1  6  0  0  0
 21 20  1  0  0  0  0
 21 22  1  0  0  0  0
 22 29  1  0  0  0  0
 23 21  1  0  0  0  0
 23 30  1  0  0  0  0
 24 23  2  0  0  0  0
 25 19  1  0  0  0  0
 26 20  1  0  0  0  0
 30 35  1  0  0  0  0
 31 30  1  0  0  0  0
 31 36  1  0  0  0  0
 31 32  1  0  0  0  0
 32 33  1  0  0  0  0
 34 32  2  0  0  0  0
 37 31  1  0  0  0  0
M  END
$$$$
