HSH.pdb
 OpenBabel07022418383D

 47 48  0  0  1  0  0  0  0  0999 V2000
    1.5550   -3.6430    0.4460 N   0  0  0  0  0  0  0  0  0  0  0  0
    2.1050   -2.5370    1.1840 C   0  0  1  0  0  0  0  0  0  0  0  0
    3.5990   -2.5850    0.9630 C   0  0  0  0  0  0  0  0  0  0  0  0
    4.3470   -1.5180    1.6490 C   0  0  0  0  0  0  0  0  0  0  0  0
    4.7020   -0.2640    1.2100 C   0  0  0  0  0  0  0  0  0  0  0  0
    5.3860    0.3550    2.1780 N   0  0  0  0  0  0  0  0  0  0  0  0
    5.4540   -0.5040    3.2070 C   0  0  0  0  0  0  0  0  0  0  0  0
    4.8280   -1.6410    2.8970 N   0  0  0  0  0  0  0  0  0  0  0  0
    1.5970   -1.2340    0.7810 C   0  0  0  0  0  0  0  0  0  0  0  0
    1.9750   -0.2040    1.3910 O   0  0  0  0  0  0  0  0  0  0  0  0
    1.5380   -3.5140   -0.5650 H   0  0  0  0  0  0  0  0  0  0  0  0
    0.7270   -4.0750    0.8690 H   0  0  0  0  0  0  0  0  0  0  0  0
    1.9430   -2.6490    2.2750 H   0  0  0  0  0  0  0  0  0  0  0  0
    3.7840   -2.4980   -0.1410 H   0  0  0  0  0  0  0  0  0  0  0  0
    4.0160   -3.5950    1.2360 H   0  0  0  0  0  0  0  0  0  0  0  0
    4.4650    0.1510    0.2360 H   0  0  0  0  0  0  0  0  0  0  0  0
    5.8060    1.3260    2.1750 H   0  0  0  0  0  0  0  0  0  0  0  0
    5.9420   -0.3240    4.1620 H   0  0  0  0  0  0  0  0  0  0  0  0
   -0.0140    1.8990   -2.3250 O   0  0  0  0  0  0  0  0  0  0  0  0
    0.5040    0.6220   -2.0930 C   0  0  0  0  0  0  0  0  0  0  0  0
    0.1970    0.2640   -0.6550 C   0  0  2  0  0  0  0  0  0  0  0  0
    0.6760   -1.0270   -0.2840 N   0  0  0  0  0  0  0  0  0  0  0  0
   -1.2730    0.3130   -0.4940 C   0  0  0  0  0  0  0  0  0  0  0  0
   -1.9490    1.3260   -0.7570 O   0  0  0  0  0  0  0  0  0  0  0  0
    0.4300    2.2450   -3.1480 H   0  0  0  0  0  0  0  0  0  0  0  0
    1.6140    0.7170   -2.2040 H   0  0  0  0  0  0  0  0  0  0  0  0
    0.0540   -0.0600   -2.8190 H   0  0  0  0  0  0  0  0  0  0  0  0
    0.6350    1.0830   -0.0330 H   0  0  0  0  0  0  0  0  0  0  0  0
    0.3580   -1.8680   -0.7960 H   0  0  0  0  0  0  0  0  0  0  0  0
   -1.9640   -0.8250   -0.0250 N   0  0  0  0  0  0  0  0  0  0  0  0
   -3.3480   -0.8830    0.1810 C   0  0  1  0  0  0  0  0  0  0  0  0
   -4.0850    0.3450    0.6280 C   0  0  0  0  0  0  0  0  0  0  0  0
   -3.5860    0.7620    1.9440 C   0  0  0  0  0  0  0  0  0  0  0  0
   -2.6070    1.6140    2.3740 C   0  0  0  0  0  0  0  0  0  0  0  0
   -2.6210    1.5960    3.7220 N   0  0  0  0  0  0  0  0  0  0  0  0
   -3.5700    0.7660    4.1640 C   0  0  0  0  0  0  0  0  0  0  0  0
   -4.1500    0.2650    3.0900 N   0  0  0  0  0  0  0  0  0  0  0  0
   -4.0440   -1.6280   -0.8750 C   0  0  0  0  0  0  0  0  0  0  0  0
   -5.3030   -1.7850   -0.8570 O   0  0  0  0  0  0  0  0  0  0  0  0
   -3.2900   -2.1650   -1.9090 O   0  0  0  0  0  0  0  0  0  0  0  0
   -1.4090   -1.7230    0.1930 H   0  0  0  0  0  0  0  0  0  0  0  0
   -3.4630   -1.5450    1.1370 H   0  0  0  0  0  0  0  0  0  0  0  0
   -4.1450    1.1580   -0.1190 H   0  0  0  0  0  0  0  0  0  0  0  0
   -5.1490    0.0270    0.7420 H   0  0  0  0  0  0  0  0  0  0  0  0
   -1.9540    2.1910    1.7450 H   0  0  0  0  0  0  0  0  0  0  0  0
   -1.9750    2.1580    4.3410 H   0  0  0  0  0  0  0  0  0  0  0  0
   -3.8570    0.5120    5.1770 H   0  0  0  0  0  0  0  0  0  0  0  0
  1 12  1  0  0  0  0
  1  2  1  0  0  0  0
  2 13  1  1  0  0  0
  3  2  1  0  0  0  0
  3 15  1  0  0  0  0
  3  4  1  0  0  0  0
  4  8  1  0  0  0  0
  5  4  2  0  0  0  0
  5  6  1  0  0  0  0
  6  7  1  0  0  0  0
  7 18  1  0  0  0  0
  8  7  2  0  0  0  0
  9  2  1  0  0  0  0
  9 10  2  0  0  0  0
 11  1  1  0  0  0  0
 14  3  1  0  0  0  0
 16  5  1  0  0  0  0
 17  6  1  0  0  0  0
 19 20  1  0  0  0  0
 20 21  1  0  0  0  0
 21 23  1  0  0  0  0
 21 22  1  0  0  0  0
 21 28  1  1  0  0  0
 22  9  1  0  0  0  0
 23 30  1  0  0  0  0
 24 23  2  0  0  0  0
 25 19  1  0  0  0  0
 26 20  1  0  0  0  0
 27 20  1  0  0  0  0
 29 22  1  0  0  0  0
 30 31  1  0  0  0  0
 30 41  1  0  0  0  0
 31 32  1  0  0  0  0
 31 42  1  1  0  0  0
 32 44  1  0  0  0  0
 32 33  1  0  0  0  0
 33 34  2  0  0  0  0
 33 37  1  0  0  0  0
 34 35  1  0  0  0  0
 35 36  1  0  0  0  0
 35 46  1  0  0  0  0
 36 47  1  0  0  0  0
 37 36  2  0  0  0  0
 38 39  1  0  0  0  0
 38 31  1  0  0  0  0
 40 38  2  0  0  0  0
 43 32  1  0  0  0  0
 45 34  1  0  0  0  0
M  END
$$$$
