HSR.pdb
 OpenBabel07022418383D

 53 53  0  0  1  0  0  0  0  0999 V2000
    3.2830   -0.4130   -1.0040 N   0  0  0  0  0  0  0  0  0  0  0  0
    3.6080    0.4000    0.1470 C   0  0  1  0  0  0  0  0  0  0  0  0
    4.4890    1.5440   -0.3620 C   0  0  0  0  0  0  0  0  0  0  0  0
    5.6960    0.9290   -0.9650 C   0  0  0  0  0  0  0  0  0  0  0  0
    6.8860    0.6340   -0.3000 C   0  0  0  0  0  0  0  0  0  0  0  0
    7.7570    0.0860   -1.1640 N   0  0  0  0  0  0  0  0  0  0  0  0
    7.1360    0.0320   -2.3550 C   0  0  0  0  0  0  0  0  0  0  0  0
    5.8980    0.5400   -2.2280 N   0  0  0  0  0  0  0  0  0  0  0  0
    2.3810    1.0060    0.7460 C   0  0  0  0  0  0  0  0  0  0  0  0
    2.4300    1.7360    1.7670 O   0  0  0  0  0  0  0  0  0  0  0  0
    4.0600   -1.0930   -1.1430 H   0  0  0  0  0  0  0  0  0  0  0  0
    3.1800    0.1610   -1.8670 H   0  0  0  0  0  0  0  0  0  0  0  0
    4.1540   -0.2320    0.8640 H   0  0  0  0  0  0  0  0  0  0  0  0
    3.9230    2.0490   -1.1590 H   0  0  0  0  0  0  0  0  0  0  0  0
    4.7420    2.2360    0.4750 H   0  0  0  0  0  0  0  0  0  0  0  0
    7.0370    0.8350    0.7540 H   0  0  0  0  0  0  0  0  0  0  0  0
    8.7210   -0.2280   -0.9320 H   0  0  0  0  0  0  0  0  0  0  0  0
    7.6160   -0.3720   -3.2440 H   0  0  0  0  0  0  0  0  0  0  0  0
    0.2820    3.3880   -0.5070 O   0  0  0  0  0  0  0  0  0  0  0  0
   -0.6250    2.3940   -0.2230 C   0  0  0  0  0  0  0  0  0  0  0  0
   -0.0940    1.3800    0.7820 C   0  0  2  0  0  0  0  0  0  0  0  0
    1.0870    0.7940    0.1990 N   0  0  0  0  0  0  0  0  0  0  0  0
   -1.1550    0.3990    1.0680 C   0  0  0  0  0  0  0  0  0  0  0  0
   -2.2110    0.8230    1.5930 O   0  0  0  0  0  0  0  0  0  0  0  0
    0.6240    3.7300    0.3580 H   0  0  0  0  0  0  0  0  0  0  0  0
   -1.0620    1.9080   -1.1110 H   0  0  0  0  0  0  0  0  0  0  0  0
   -1.4920    2.8960    0.2990 H   0  0  0  0  0  0  0  0  0  0  0  0
    0.2280    1.9680    1.6660 H   0  0  0  0  0  0  0  0  0  0  0  0
    0.9610    0.2040   -0.6450 H   0  0  0  0  0  0  0  0  0  0  0  0
   -6.5340   -1.5290    3.4710 N   0  0  0  0  0  0  0  0  0  0  0  0
   -6.4000   -2.3240    2.3080 C   0  0  0  0  0  0  0  0  0  0  0  0
   -7.3940   -2.6660    1.5720 N   0  0  0  0  0  0  0  0  0  0  0  0
   -5.0870   -2.7990    1.8890 N   0  0  0  0  0  0  0  0  0  0  0  0
   -4.9210   -3.3650    0.5890 C   0  0  0  0  0  0  0  0  0  0  0  0
   -3.5880   -3.7430    0.1130 C   0  0  0  0  0  0  0  0  0  0  0  0
   -2.5330   -2.7310   -0.0980 C   0  0  0  0  0  0  0  0  0  0  0  0
   -2.0930   -1.9800    1.0630 C   0  0  2  0  0  0  0  0  0  0  0  0
   -1.0690   -0.9730    0.7960 N   0  0  0  0  0  0  0  0  0  0  0  0
   -1.4950   -2.9020    2.0570 C   0  0  0  0  0  0  0  0  0  0  0  0
   -2.0430   -3.9320    2.5280 O   0  0  0  0  0  0  0  0  0  0  0  0
   -0.1920   -2.5960    2.5170 O   0  0  0  0  0  0  0  0  0  0  0  0
   -5.9340   -1.7180    4.3050 H   0  0  0  0  0  0  0  0  0  0  0  0
   -7.2260   -0.7510    3.5110 H   0  0  0  0  0  0  0  0  0  0  0  0
   -7.3010   -3.2410    0.7300 H   0  0  0  0  0  0  0  0  0  0  0  0
   -4.3670   -2.7000    2.6060 H   0  0  0  0  0  0  0  0  0  0  0  0
   -5.5190   -2.7840   -0.1830 H   0  0  0  0  0  0  0  0  0  0  0  0
   -5.5340   -4.3340    0.6270 H   0  0  0  0  0  0  0  0  0  0  0  0
   -3.7410   -4.2280   -0.9300 H   0  0  0  0  0  0  0  0  0  0  0  0
   -3.2430   -4.6130    0.7410 H   0  0  0  0  0  0  0  0  0  0  0  0
   -2.8420   -2.1270   -0.9870 H   0  0  0  0  0  0  0  0  0  0  0  0
   -1.6560   -3.3230   -0.5510 H   0  0  0  0  0  0  0  0  0  0  0  0
   -2.9010   -1.4200    1.5640 H   0  0  0  0  0  0  0  0  0  0  0  0
   -0.2030   -1.3250    0.3620 H   0  0  0  0  0  0  0  0  0  0  0  0
  1  2  1  0  0  0  0
  2  9  1  0  0  0  0
  2 13  1  1  0  0  0
  3  2  1  0  0  0  0
  3 15  1  0  0  0  0
  4  3  1  0  0  0  0
  4  5  2  0  0  0  0
  5 16  1  0  0  0  0
  6 17  1  0  0  0  0
  6  5  1  0  0  0  0
  7  8  2  0  0  0  0
  7  6  1  0  0  0  0
  8  4  1  0  0  0  0
  9 10  2  0  0  0  0
 11  1  1  0  0  0  0
 12  1  1  0  0  0  0
 14  3  1  0  0  0  0
 18  7  1  0  0  0  0
 19 20  1  0  0  0  0
 19 25  1  0  0  0  0
 20 27  1  0  0  0  0
 20 21  1  0  0  0  0
 21 23  1  0  0  0  0
 21 28  1  1  0  0  0
 22  9  1  0  0  0  0
 22 21  1  0  0  0  0
 23 24  2  0  0  0  0
 26 20  1  0  0  0  0
 29 22  1  0  0  0  0
 30 43  1  0  0  0  0
 30 42  1  0  0  0  0
 31 30  1  0  0  0  0
 32 31  2  0  0  0  0
 33 31  1  0  0  0  0
 33 45  1  0  0  0  0
 34 47  1  0  0  0  0
 34 33  1  0  0  0  0
 35 34  1  0  0  0  0
 35 49  1  0  0  0  0
 36 35  1  0  0  0  0
 36 37  1  0  0  0  0
 37 52  1  1  0  0  0
 37 39  1  0  0  0  0
 38 37  1  0  0  0  0
 38 23  1  0  0  0  0
 39 41  2  0  0  0  0
 39 40  1  0  0  0  0
 44 32  1  0  0  0  0
 46 34  1  0  0  0  0
 48 35  1  0  0  0  0
 50 36  1  0  0  0  0
 51 36  1  0  0  0  0
 53 38  1  0  0  0  0
M  END
$$$$
