HSS.pdb
 OpenBabel07022418383D

 41 41  0  0  1  0  0  0  0  0999 V2000
    3.0730   -1.7070    1.3790 N   0  0  0  0  0  0  0  0  0  0  0  0
    2.8380   -2.0940   -0.0050 C   0  0  1  0  0  0  0  0  0  0  0  0
    2.9210   -3.6040   -0.1090 C   0  0  0  0  0  0  0  0  0  0  0  0
    1.9310   -4.2770    0.7450 C   0  0  0  0  0  0  0  0  0  0  0  0
    0.6570   -4.6290    0.3960 C   0  0  0  0  0  0  0  0  0  0  0  0
    0.1210   -5.2140    1.4890 N   0  0  0  0  0  0  0  0  0  0  0  0
    1.0270   -5.2250    2.4770 C   0  0  0  0  0  0  0  0  0  0  0  0
    2.1350   -4.6450    2.0040 N   0  0  0  0  0  0  0  0  0  0  0  0
    1.5260   -1.5750   -0.4850 C   0  0  0  0  0  0  0  0  0  0  0  0
    1.2200   -1.7680   -1.7030 O   0  0  0  0  0  0  0  0  0  0  0  0
    3.5730   -0.7880    1.4090 H   0  0  0  0  0  0  0  0  0  0  0  0
    3.7560   -2.3960    1.8230 H   0  0  0  0  0  0  0  0  0  0  0  0
    3.6650   -1.6990   -0.6210 H   0  0  0  0  0  0  0  0  0  0  0  0
    2.8500   -3.8750   -1.1870 H   0  0  0  0  0  0  0  0  0  0  0  0
    3.9640   -3.8830    0.1890 H   0  0  0  0  0  0  0  0  0  0  0  0
    0.1420   -4.4830   -0.5660 H   0  0  0  0  0  0  0  0  0  0  0  0
   -0.8560   -5.6050    1.5610 H   0  0  0  0  0  0  0  0  0  0  0  0
    0.8850   -5.6360    3.4950 H   0  0  0  0  0  0  0  0  0  0  0  0
   -2.9700   -0.6630   -0.0360 O   0  0  0  0  0  0  0  0  0  0  0  0
   -1.7930   -1.2270    0.4660 C   0  0  0  0  0  0  0  0  0  0  0  0
   -0.6330   -0.3780   -0.0690 C   0  0  2  0  0  0  0  0  0  0  0  0
    0.6340   -0.8840    0.3920 N   0  0  0  0  0  0  0  0  0  0  0  0
   -0.8780    1.0510    0.2670 C   0  0  0  0  0  0  0  0  0  0  0  0
   -1.9710    1.5180   -0.1380 O   0  0  0  0  0  0  0  0  0  0  0  0
   -2.9350   -0.6280   -1.0040 H   0  0  0  0  0  0  0  0  0  0  0  0
   -1.8010   -1.2880    1.5620 H   0  0  0  0  0  0  0  0  0  0  0  0
   -1.7490   -2.2610    0.0700 H   0  0  0  0  0  0  0  0  0  0  0  0
   -0.7050   -0.4660   -1.1700 H   0  0  0  0  0  0  0  0  0  0  0  0
    0.9450   -0.7660    1.3790 H   0  0  0  0  0  0  0  0  0  0  0  0
    1.7960    4.0270    0.4120 O   0  0  0  0  0  0  0  0  0  0  0  0
    0.4050    4.2390    0.4210 C   0  0  0  0  0  0  0  0  0  0  0  0
   -0.2030    3.2210    1.3330 C   0  0  2  0  0  0  0  0  0  0  0  0
    0.0070    1.8570    0.9770 N   0  0  0  0  0  0  0  0  0  0  0  0
   -1.5720    3.5560    1.7890 C   0  0  0  0  0  0  0  0  0  0  0  0
   -1.8550    4.7600    1.9730 O   0  0  0  0  0  0  0  0  0  0  0  0
   -2.5060    2.5850    2.0090 O   0  0  0  0  0  0  0  0  0  0  0  0
    2.1710    4.0210    1.3110 H   0  0  0  0  0  0  0  0  0  0  0  0
    0.2550    5.2490    0.9010 H   0  0  0  0  0  0  0  0  0  0  0  0
   -0.0120    4.3000   -0.5840 H   0  0  0  0  0  0  0  0  0  0  0  0
    0.3870    3.3870    2.3380 H   0  0  0  0  0  0  0  0  0  0  0  0
    0.9240    1.3960    1.2720 H   0  0  0  0  0  0  0  0  0  0  0  0
  1 11  1  0  0  0  0
  1 12  1  0  0  0  0
  2 13  1  6  0  0  0
  2  1  1  0  0  0  0
  3  2  1  0  0  0  0
  3 15  1  0  0  0  0
  3  4  1  0  0  0  0
  4  8  1  0  0  0  0
  5  4  2  0  0  0  0
  5  6  1  0  0  0  0
  6 17  1  0  0  0  0
  6  7  1  0  0  0  0
  7 18  1  0  0  0  0
  8  7  2  0  0  0  0
  9  2  1  0  0  0  0
  9 22  1  0  0  0  0
 10  9  2  0  0  0  0
 14  3  1  0  0  0  0
 16  5  1  0  0  0  0
 19 20  1  0  0  0  0
 20 26  1  0  0  0  0
 21 28  1  6  0  0  0
 21 23  1  0  0  0  0
 21 22  1  0  0  0  0
 21 20  1  0  0  0  0
 22 29  1  0  0  0  0
 23 33  1  0  0  0  0
 24 23  2  0  0  0  0
 25 19  1  0  0  0  0
 27 20  1  0  0  0  0
 30 31  1  0  0  0  0
 30 37  1  0  0  0  0
 31 38  1  0  0  0  0
 31 32  1  0  0  0  0
 32 34  1  0  0  0  0
 32 40  1  1  0  0  0
 33 41  1  0  0  0  0
 33 32  1  0  0  0  0
 34 35  2  0  0  0  0
 34 36  1  0  0  0  0
 39 31  1  0  0  0  0
M  END
$$$$
