HTF.pdb
 OpenBabel07022418383D

 53 54  0  0  1  0  0  0  0  0999 V2000
    4.5200    0.2880    1.6890 N   0  0  0  0  0  0  0  0  0  0  0  0
    3.2860    0.6580    1.0210 C   0  0  1  0  0  0  0  0  0  0  0  0
    3.0310   -0.3750   -0.0660 C   0  0  0  0  0  0  0  0  0  0  0  0
    4.1450   -0.4010   -1.0480 C   0  0  0  0  0  0  0  0  0  0  0  0
    4.3010    0.3230   -2.2100 C   0  0  0  0  0  0  0  0  0  0  0  0
    5.4580    0.0050   -2.8200 N   0  0  0  0  0  0  0  0  0  0  0  0
    6.0370   -0.9230   -2.0440 C   0  0  0  0  0  0  0  0  0  0  0  0
    5.2580   -1.1810   -0.9690 N   0  0  0  0  0  0  0  0  0  0  0  0
    2.1970    0.6610    2.0260 C   0  0  0  0  0  0  0  0  0  0  0  0
    2.4240    0.3710    3.2420 O   0  0  0  0  0  0  0  0  0  0  0  0
    4.7550    0.8850    2.4920 H   0  0  0  0  0  0  0  0  0  0  0  0
    4.4430   -0.7040    2.0320 H   0  0  0  0  0  0  0  0  0  0  0  0
    3.4310    1.6540    0.5490 H   0  0  0  0  0  0  0  0  0  0  0  0
    2.9450   -1.3530    0.4530 H   0  0  0  0  0  0  0  0  0  0  0  0
    2.1060   -0.1080   -0.6290 H   0  0  0  0  0  0  0  0  0  0  0  0
    3.5800    1.0470   -2.5700 H   0  0  0  0  0  0  0  0  0  0  0  0
    5.8660    0.3720   -3.7110 H   0  0  0  0  0  0  0  0  0  0  0  0
    6.9890   -1.4020   -2.2420 H   0  0  0  0  0  0  0  0  0  0  0  0
    0.2960    3.2760    3.3160 C   0  0  0  0  0  0  0  0  0  0  0  0
   -0.8310    2.3770    2.7970 C   0  0  1  0  0  0  0  0  0  0  0  0
   -1.3420    2.8540    1.6080 O   0  0  0  0  0  0  0  0  0  0  0  0
   -0.2310    0.9920    2.6620 C   0  0  2  0  0  0  0  0  0  0  0  0
    0.8520    0.9810    1.7070 N   0  0  0  0  0  0  0  0  0  0  0  0
   -1.2630   -0.0210    2.3170 C   0  0  0  0  0  0  0  0  0  0  0  0
   -2.2680   -0.1270    3.0610 O   0  0  0  0  0  0  0  0  0  0  0  0
    0.7830    2.7010    4.1340 H   0  0  0  0  0  0  0  0  0  0  0  0
   -0.0750    4.2270    3.6970 H   0  0  0  0  0  0  0  0  0  0  0  0
    1.0850    3.4020    2.5300 H   0  0  0  0  0  0  0  0  0  0  0  0
   -1.5920    2.3480    3.5890 H   0  0  0  0  0  0  0  0  0  0  0  0
   -2.2890    3.1140    1.7630 H   0  0  0  0  0  0  0  0  0  0  0  0
    0.1350    0.7170    3.6830 H   0  0  0  0  0  0  0  0  0  0  0  0
    0.6450    1.2210    0.7140 H   0  0  0  0  0  0  0  0  0  0  0  0
   -1.1830   -0.8780    1.1970 N   0  0  0  0  0  0  0  0  0  0  0  0
   -2.1780   -1.8710    0.8450 C   0  0  1  0  0  0  0  0  0  0  0  0
   -2.7780   -1.6030   -0.5080 C   0  0  0  0  0  0  0  0  0  0  0  0
   -3.7790   -2.6380   -0.8150 C   0  0  0  0  0  0  0  0  0  0  0  0
   -5.0790   -2.5200   -0.3660 C   0  0  0  0  0  0  0  0  0  0  0  0
   -6.0650   -3.4400   -0.6470 C   0  0  0  0  0  0  0  0  0  0  0  0
   -5.7510   -4.5370   -1.4140 C   0  0  0  0  0  0  0  0  0  0  0  0
   -4.4620   -4.6980   -1.8860 C   0  0  0  0  0  0  0  0  0  0  0  0
   -3.4860   -3.7430   -1.5810 C   0  0  0  0  0  0  0  0  0  0  0  0
   -1.5860   -3.2190    0.8690 C   0  0  0  0  0  0  0  0  0  0  0  0
   -2.1690   -4.2960    0.6930 O   0  0  0  0  0  0  0  0  0  0  0  0
   -0.2010   -3.3040    1.1190 O   0  0  0  0  0  0  0  0  0  0  0  0
   -0.3480   -0.7880    0.5820 H   0  0  0  0  0  0  0  0  0  0  0  0
   -3.0260   -1.8880    1.5620 H   0  0  0  0  0  0  0  0  0  0  0  0
   -3.3240   -0.6320   -0.4590 H   0  0  0  0  0  0  0  0  0  0  0  0
   -1.9850   -1.5340   -1.2940 H   0  0  0  0  0  0  0  0  0  0  0  0
   -5.3270   -1.6570    0.2370 H   0  0  0  0  0  0  0  0  0  0  0  0
   -7.0580   -3.2770   -0.2590 H   0  0  0  0  0  0  0  0  0  0  0  0
   -6.5450   -5.2520   -1.6240 H   0  0  0  0  0  0  0  0  0  0  0  0
   -4.2400   -5.5700   -2.4880 H   0  0  0  0  0  0  0  0  0  0  0  0
   -2.4950   -3.9110   -1.9790 H   0  0  0  0  0  0  0  0  0  0  0  0
  1 12  1  0  0  0  0
  1 11  1  0  0  0  0
  2 13  1  6  0  0  0
  2  1  1  0  0  0  0
  2  9  1  0  0  0  0
  3 14  1  0  0  0  0
  3  2  1  0  0  0  0
  4  8  1  0  0  0  0
  4  3  1  0  0  0  0
  5  4  2  0  0  0  0
  6  5  1  0  0  0  0
  6  7  1  0  0  0  0
  7  8  2  0  0  0  0
  9 10  2  0  0  0  0
 15  3  1  0  0  0  0
 16  5  1  0  0  0  0
 17  6  1  0  0  0  0
 18  7  1  0  0  0  0
 19 27  1  0  0  0  0
 19 26  1  0  0  0  0
 20 19  1  0  0  0  0
 20 29  1  1  0  0  0
 21 30  1  0  0  0  0
 21 20  1  0  0  0  0
 22 20  1  0  0  0  0
 22 31  1  1  0  0  0
 23  9  1  0  0  0  0
 23 22  1  0  0  0  0
 24 22  1  0  0  0  0
 24 25  2  0  0  0  0
 28 19  1  0  0  0  0
 32 23  1  0  0  0  0
 33 24  1  0  0  0  0
 34 42  1  0  0  0  0
 34 33  1  0  0  0  0
 34 46  1  1  0  0  0
 35 47  1  0  0  0  0
 35 34  1  0  0  0  0
 36 35  1  0  0  0  0
 36 37  1  0  0  0  0
 37 49  1  0  0  0  0
 38 37  2  0  0  0  0
 38 50  1  0  0  0  0
 39 38  1  0  0  0  0
 40 41  1  0  0  0  0
 40 39  2  0  0  0  0
 41 36  2  0  0  0  0
 42 44  1  0  0  0  0
 43 42  2  0  0  0  0
 45 33  1  0  0  0  0
 48 35  1  0  0  0  0
 51 39  1  0  0  0  0
 52 40  1  0  0  0  0
 53 41  1  0  0  0  0
M  END
$$$$
