HTG.pdb
 OpenBabel07022418383D

 40 40  0  0  1  0  0  0  0  0999 V2000
    0.1850   -2.9600   -0.5640 N   0  0  0  0  0  0  0  0  0  0  0  0
    1.2340   -2.6470    0.4640 C   0  0  1  0  0  0  0  0  0  0  0  0
    2.5370   -2.7840   -0.2680 C   0  0  0  0  0  0  0  0  0  0  0  0
    3.7320   -2.6080    0.5560 C   0  0  0  0  0  0  0  0  0  0  0  0
    3.9340   -2.4620    1.8950 C   0  0  0  0  0  0  0  0  0  0  0  0
    5.2620   -2.3980    2.1300 N   0  0  0  0  0  0  0  0  0  0  0  0
    5.9110   -2.5020    0.9730 C   0  0  0  0  0  0  0  0  0  0  0  0
    4.9930   -2.6290    0.0160 N   0  0  0  0  0  0  0  0  0  0  0  0
    1.0670   -1.1850    0.7650 C   0  0  0  0  0  0  0  0  0  0  0  0
    1.8310   -0.6120    1.5150 O   0  0  0  0  0  0  0  0  0  0  0  0
    0.5410   -3.8330   -1.0550 H   0  0  0  0  0  0  0  0  0  0  0  0
   -0.6860   -3.2310   -0.0810 H   0  0  0  0  0  0  0  0  0  0  0  0
    1.1220   -3.3090    1.2940 H   0  0  0  0  0  0  0  0  0  0  0  0
    2.5460   -2.1120   -1.1720 H   0  0  0  0  0  0  0  0  0  0  0  0
    2.5560   -3.8330   -0.6970 H   0  0  0  0  0  0  0  0  0  0  0  0
    3.2130   -2.4240    2.6800 H   0  0  0  0  0  0  0  0  0  0  0  0
    5.7160   -2.2870    3.0570 H   0  0  0  0  0  0  0  0  0  0  0  0
    6.9850   -2.4850    0.8370 H   0  0  0  0  0  0  0  0  0  0  0  0
   -1.5450    1.5910   -1.5740 C   0  0  0  0  0  0  0  0  0  0  0  0
   -0.3090    1.8870   -0.7220 C   0  0  1  0  0  0  0  0  0  0  0  0
   -0.5360    3.1770   -0.1960 O   0  0  0  0  0  0  0  0  0  0  0  0
   -0.2110    0.9660    0.4240 C   0  0  2  0  0  0  0  0  0  0  0  0
    0.0160   -0.4010    0.1950 N   0  0  0  0  0  0  0  0  0  0  0  0
   -1.5030    1.1030    1.1890 C   0  0  0  0  0  0  0  0  0  0  0  0
   -1.8860    2.2760    1.4950 O   0  0  0  0  0  0  0  0  0  0  0  0
   -1.5940    0.5540   -1.9000 H   0  0  0  0  0  0  0  0  0  0  0  0
   -2.4340    1.9360   -1.0000 H   0  0  0  0  0  0  0  0  0  0  0  0
   -1.4710    2.2830   -2.4530 H   0  0  0  0  0  0  0  0  0  0  0  0
    0.5700    1.9980   -1.3510 H   0  0  0  0  0  0  0  0  0  0  0  0
   -1.1920    3.6780   -0.7040 H   0  0  0  0  0  0  0  0  0  0  0  0
    0.5670    1.3530    1.1290 H   0  0  0  0  0  0  0  0  0  0  0  0
   -0.6240   -0.9230   -0.4450 H   0  0  0  0  0  0  0  0  0  0  0  0
   -2.2690   -0.0310    1.5560 N   0  0  0  0  0  0  0  0  0  0  0  0
   -3.4910    0.1690    2.2840 C   0  0  0  0  0  0  0  0  0  0  0  0
   -3.2480    0.8600    3.5890 C   0  0  0  0  0  0  0  0  0  0  0  0
   -4.1850    1.1270    4.3740 O   0  0  0  0  0  0  0  0  0  0  0  0
   -1.9470    1.2020    3.9150 O   0  0  0  0  0  0  0  0  0  0  0  0
   -1.9050   -0.9680    1.2770 H   0  0  0  0  0  0  0  0  0  0  0  0
   -4.2350    0.7860    1.7400 H   0  0  0  0  0  0  0  0  0  0  0  0
   -3.9990   -0.8020    2.5010 H   0  0  0  0  0  0  0  0  0  0  0  0
  1 12  1  0  0  0  0
  1  2  1  0  0  0  0
  2  9  1  0  0  0  0
  2 13  1  1  0  0  0
  3  2  1  0  0  0  0
  3  4  1  0  0  0  0
  4  5  2  0  0  0  0
  5  6  1  0  0  0  0
  5 16  1  0  0  0  0
  6 17  1  0  0  0  0
  7  6  1  0  0  0  0
  8  4  1  0  0  0  0
  8  7  2  0  0  0  0
  9 10  2  0  0  0  0
 11  1  1  0  0  0  0
 14  3  1  0  0  0  0
 15  3  1  0  0  0  0
 18  7  1  0  0  0  0
 19 27  1  0  0  0  0
 19 20  1  0  0  0  0
 20 29  1  6  0  0  0
 20 21  1  0  0  0  0
 20 22  1  0  0  0  0
 22 31  1  1  0  0  0
 22 24  1  0  0  0  0
 23 22  1  0  0  0  0
 23  9  1  0  0  0  0
 24 25  2  0  0  0  0
 24 33  1  0  0  0  0
 26 19  1  0  0  0  0
 28 19  1  0  0  0  0
 30 21  1  0  0  0  0
 32 23  1  0  0  0  0
 33 34  1  0  0  0  0
 34 40  1  0  0  0  0
 34 35  1  0  0  0  0
 35 37  2  0  0  0  0
 35 36  1  0  0  0  0
 38 33  1  0  0  0  0
 39 34  1  0  0  0  0
M  END
$$$$
