HTK.pdb
 OpenBabel07022418383D

 54 54  0  0  1  0  0  0  0  0999 V2000
    0.3790   -3.3070    3.5920 N   0  0  0  0  0  0  0  0  0  0  0  0
    1.3970   -2.3080    3.7540 C   0  0  1  0  0  0  0  0  0  0  0  0
    2.6900   -3.0820    4.0090 C   0  0  0  0  0  0  0  0  0  0  0  0
    3.8590   -2.2240    4.1920 C   0  0  0  0  0  0  0  0  0  0  0  0
    4.6590   -1.7930    3.1580 C   0  0  0  0  0  0  0  0  0  0  0  0
    5.6210   -1.0250    3.6880 N   0  0  0  0  0  0  0  0  0  0  0  0
    5.4550   -0.9580    5.0180 C   0  0  0  0  0  0  0  0  0  0  0  0
    4.3630   -1.7040    5.3140 N   0  0  0  0  0  0  0  0  0  0  0  0
    1.5400   -1.3830    2.6190 C   0  0  0  0  0  0  0  0  0  0  0  0
    2.3190   -0.4090    2.7640 O   0  0  0  0  0  0  0  0  0  0  0  0
   -0.5770   -2.9760    3.8190 H   0  0  0  0  0  0  0  0  0  0  0  0
    0.4710   -3.9200    2.7780 H   0  0  0  0  0  0  0  0  0  0  0  0
    1.1810   -1.7290    4.6590 H   0  0  0  0  0  0  0  0  0  0  0  0
    2.7830   -3.8290    3.2020 H   0  0  0  0  0  0  0  0  0  0  0  0
    2.4900   -3.6570    4.9480 H   0  0  0  0  0  0  0  0  0  0  0  0
    4.5380   -2.0290    2.0830 H   0  0  0  0  0  0  0  0  0  0  0  0
    6.3920   -0.5470    3.1230 H   0  0  0  0  0  0  0  0  0  0  0  0
    6.0890   -0.4020    5.7200 H   0  0  0  0  0  0  0  0  0  0  0  0
    2.0680   -0.0520   -1.9110 C   0  0  0  0  0  0  0  0  0  0  0  0
    1.7620   -1.1280   -0.8830 C   0  0  1  0  0  0  0  0  0  0  0  0
    2.9820   -1.6800   -0.5080 O   0  0  0  0  0  0  0  0  0  0  0  0
    1.1080   -0.5210    0.3490 C   0  0  2  0  0  0  0  0  0  0  0  0
    0.8730   -1.4970    1.3700 N   0  0  0  0  0  0  0  0  0  0  0  0
   -0.1580    0.0840   -0.1210 C   0  0  0  0  0  0  0  0  0  0  0  0
   -0.1900    0.9920   -0.9940 O   0  0  0  0  0  0  0  0  0  0  0  0
    1.3210   -0.1040   -2.7310 H   0  0  0  0  0  0  0  0  0  0  0  0
    2.0970    0.9670   -1.4570 H   0  0  0  0  0  0  0  0  0  0  0  0
    3.0570   -0.2090   -2.3880 H   0  0  0  0  0  0  0  0  0  0  0  0
    1.1020   -1.8870   -1.3400 H   0  0  0  0  0  0  0  0  0  0  0  0
    3.6270   -0.9280   -0.4370 H   0  0  0  0  0  0  0  0  0  0  0  0
    1.7600    0.3030    0.7140 H   0  0  0  0  0  0  0  0  0  0  0  0
    0.2200   -2.2910    1.2080 H   0  0  0  0  0  0  0  0  0  0  0  0
   -1.4160   -0.3360    0.3960 N   0  0  0  0  0  0  0  0  0  0  0  0
   -2.6550    0.2880   -0.1000 C   0  0  1  0  0  0  0  0  0  0  0  0
   -3.3180   -0.7640   -0.9520 C   0  0  0  0  0  0  0  0  0  0  0  0
   -4.6120   -0.2900   -1.5520 C   0  0  0  0  0  0  0  0  0  0  0  0
   -4.4350    0.9300   -2.4180 C   0  0  0  0  0  0  0  0  0  0  0  0
   -3.4890    0.6730   -3.5690 C   0  0  0  0  0  0  0  0  0  0  0  0
   -3.3250    1.8650   -4.3840 N   0  0  0  0  0  0  0  0  0  0  0  0
   -3.4270    0.7530    1.0360 C   0  0  0  0  0  0  0  0  0  0  0  0
   -3.0330    0.6010    2.2370 O   0  0  0  0  0  0  0  0  0  0  0  0
   -4.6520    1.3960    0.9020 O   0  0  0  0  0  0  0  0  0  0  0  0
   -1.4220   -1.0790    1.1190 H   0  0  0  0  0  0  0  0  0  0  0  0
   -2.3920    1.1160   -0.8000 H   0  0  0  0  0  0  0  0  0  0  0  0
   -3.5760   -1.6680   -0.3380 H   0  0  0  0  0  0  0  0  0  0  0  0
   -2.6570   -1.1150   -1.7640 H   0  0  0  0  0  0  0  0  0  0  0  0
   -4.9750   -1.1130   -2.2230 H   0  0  0  0  0  0  0  0  0  0  0  0
   -5.3910   -0.1480   -0.7830 H   0  0  0  0  0  0  0  0  0  0  0  0
   -4.0320    1.7610   -1.8260 H   0  0  0  0  0  0  0  0  0  0  0  0
   -5.4450    1.2270   -2.7830 H   0  0  0  0  0  0  0  0  0  0  0  0
   -2.5280    0.2840   -3.2290 H   0  0  0  0  0  0  0  0  0  0  0  0
   -3.9860   -0.0780   -4.2340 H   0  0  0  0  0  0  0  0  0  0  0  0
   -3.3030    1.6540   -5.3960 H   0  0  0  0  0  0  0  0  0  0  0  0
   -2.3610    2.2400   -4.1560 H   0  0  0  0  0  0  0  0  0  0  0  0
  1  2  1  0  0  0  0
  1 11  1  0  0  0  0
  2  3  1  0  0  0  0
  2 13  1  1  0  0  0
  3  4  1  0  0  0  0
  3 15  1  0  0  0  0
  4  8  1  0  0  0  0
  5  6  1  0  0  0  0
  5  4  2  0  0  0  0
  6  7  1  0  0  0  0
  7  8  2  0  0  0  0
  7 18  1  0  0  0  0
  9 10  2  0  0  0  0
  9  2  1  0  0  0  0
 12  1  1  0  0  0  0
 14  3  1  0  0  0  0
 16  5  1  0  0  0  0
 17  6  1  0  0  0  0
 19 27  1  0  0  0  0
 19 20  1  0  0  0  0
 20 29  1  6  0  0  0
 20 21  1  0  0  0  0
 20 22  1  0  0  0  0
 21 30  1  0  0  0  0
 22 31  1  1  0  0  0
 22 23  1  0  0  0  0
 23  9  1  0  0  0  0
 24 22  1  0  0  0  0
 24 33  1  0  0  0  0
 25 24  2  0  0  0  0
 26 19  1  0  0  0  0
 28 19  1  0  0  0  0
 32 23  1  0  0  0  0
 33 43  1  0  0  0  0
 34 44  1  6  0  0  0
 34 33  1  0  0  0  0
 34 40  1  0  0  0  0
 35 45  1  0  0  0  0
 35 34  1  0  0  0  0
 36 35  1  0  0  0  0
 36 48  1  0  0  0  0
 37 49  1  0  0  0  0
 37 36  1  0  0  0  0
 38 51  1  0  0  0  0
 38 37  1  0  0  0  0
 39 54  1  0  0  0  0
 39 38  1  0  0  0  0
 40 41  1  0  0  0  0
 42 40  2  0  0  0  0
 46 35  1  0  0  0  0
 47 36  1  0  0  0  0
 50 37  1  0  0  0  0
 52 38  1  0  0  0  0
 53 39  1  0  0  0  0
M  END
$$$$
