HTM.pdb
 OpenBabel07022418383D

 50 50  0  0  1  0  0  0  0  0999 V2000
    1.7060   -2.9480    3.3350 N   0  0  0  0  0  0  0  0  0  0  0  0
    2.3580   -2.0650    2.3370 C   0  0  1  0  0  0  0  0  0  0  0  0
    2.0570   -2.6330    0.9910 C   0  0  0  0  0  0  0  0  0  0  0  0
    2.7020   -1.8790   -0.1110 C   0  0  0  0  0  0  0  0  0  0  0  0
    2.6360   -2.1140   -1.4660 C   0  0  0  0  0  0  0  0  0  0  0  0
    3.3730   -1.2020   -2.1420 N   0  0  0  0  0  0  0  0  0  0  0  0
    3.9000   -0.3960   -1.2100 C   0  0  0  0  0  0  0  0  0  0  0  0
    3.5070   -0.7900    0.0100 N   0  0  0  0  0  0  0  0  0  0  0  0
    1.7060   -0.7610    2.5510 C   0  0  0  0  0  0  0  0  0  0  0  0
    1.7590   -0.1760    3.6890 O   0  0  0  0  0  0  0  0  0  0  0  0
    1.8740   -3.9420    3.1090 H   0  0  0  0  0  0  0  0  0  0  0  0
    1.9350   -2.6650    4.2910 H   0  0  0  0  0  0  0  0  0  0  0  0
    3.4540   -2.0260    2.5530 H   0  0  0  0  0  0  0  0  0  0  0  0
    0.9290   -2.6280    0.9040 H   0  0  0  0  0  0  0  0  0  0  0  0
    2.4080   -3.7070    0.9380 H   0  0  0  0  0  0  0  0  0  0  0  0
    2.0740   -2.9190   -1.9530 H   0  0  0  0  0  0  0  0  0  0  0  0
    3.4940   -1.1530   -3.1830 H   0  0  0  0  0  0  0  0  0  0  0  0
    4.5440    0.4430   -1.4070 H   0  0  0  0  0  0  0  0  0  0  0  0
    2.3260    2.5790    1.0140 C   0  0  0  0  0  0  0  0  0  0  0  0
    0.8440    2.2610    0.8540 C   0  0  1  0  0  0  0  0  0  0  0  0
    0.5430    1.9460   -0.4700 O   0  0  0  0  0  0  0  0  0  0  0  0
    0.3800    1.2000    1.8000 C   0  0  2  0  0  0  0  0  0  0  0  0
    0.9920   -0.0930    1.5280 N   0  0  0  0  0  0  0  0  0  0  0  0
   -1.0780    1.0790    1.7300 C   0  0  0  0  0  0  0  0  0  0  0  0
   -1.8600    2.0280    2.0310 O   0  0  0  0  0  0  0  0  0  0  0  0
    2.9640    1.9310    0.3750 H   0  0  0  0  0  0  0  0  0  0  0  0
    2.6230    2.5490    2.0820 H   0  0  0  0  0  0  0  0  0  0  0  0
    2.5370    3.6320    0.6720 H   0  0  0  0  0  0  0  0  0  0  0  0
    0.3160    3.2190    1.0630 H   0  0  0  0  0  0  0  0  0  0  0  0
    1.3270    1.4260   -0.8070 H   0  0  0  0  0  0  0  0  0  0  0  0
    0.6300    1.5380    2.8370 H   0  0  0  0  0  0  0  0  0  0  0  0
    0.8710   -0.4970    0.5840 H   0  0  0  0  0  0  0  0  0  0  0  0
   -1.1340   -2.3330   -1.2630 C   0  0  0  0  0  0  0  0  0  0  0  0
   -2.3060   -1.2080   -2.0180 S   0  0  0  0  0  0  0  0  0  0  0  0
   -3.8010   -0.9070   -1.1480 C   0  0  0  0  0  0  0  0  0  0  0  0
   -3.8820   -0.0460    0.0210 C   0  0  0  0  0  0  0  0  0  0  0  0
   -3.1700   -0.2160    1.2840 C   0  0  2  0  0  0  0  0  0  0  0  0
   -1.7370   -0.1490    1.3100 N   0  0  0  0  0  0  0  0  0  0  0  0
   -3.6240   -1.4690    2.0040 C   0  0  0  0  0  0  0  0  0  0  0  0
   -2.7740   -2.2400    2.4990 O   0  0  0  0  0  0  0  0  0  0  0  0
   -4.9570   -1.7620    2.1150 O   0  0  0  0  0  0  0  0  0  0  0  0
   -0.9360   -3.2320   -1.9320 H   0  0  0  0  0  0  0  0  0  0  0  0
   -1.5580   -2.7810   -0.3210 H   0  0  0  0  0  0  0  0  0  0  0  0
   -0.1960   -1.8270   -1.0240 H   0  0  0  0  0  0  0  0  0  0  0  0
   -4.5390   -0.4640   -1.9310 H   0  0  0  0  0  0  0  0  0  0  0  0
   -4.3730   -1.9090   -0.9520 H   0  0  0  0  0  0  0  0  0  0  0  0
   -5.0050    0.0870    0.3300 H   0  0  0  0  0  0  0  0  0  0  0  0
   -3.6480    1.0490   -0.3270 H   0  0  0  0  0  0  0  0  0  0  0  0
   -3.5160    0.6140    2.0040 H   0  0  0  0  0  0  0  0  0  0  0  0
   -1.1070   -0.9240    1.0700 H   0  0  0  0  0  0  0  0  0  0  0  0
  1 12  1  0  0  0  0
  2  9  1  0  0  0  0
  2 13  1  1  0  0  0
  2  1  1  0  0  0  0
  3  2  1  0  0  0  0
  4  8  1  0  0  0  0
  4  3  1  0  0  0  0
  5  4  2  0  0  0  0
  6  5  1  0  0  0  0
  6  7  1  0  0  0  0
  7  8  2  0  0  0  0
  9 10  2  0  0  0  0
 11  1  1  0  0  0  0
 14  3  1  0  0  0  0
 15  3  1  0  0  0  0
 16  5  1  0  0  0  0
 17  6  1  0  0  0  0
 18  7  1  0  0  0  0
 19 27  1  0  0  0  0
 20 19  1  0  0  0  0
 20 29  1  1  0  0  0
 20 22  1  0  0  0  0
 21 20  1  0  0  0  0
 22 31  1  1  0  0  0
 23 22  1  0  0  0  0
 23  9  1  0  0  0  0
 24 22  1  0  0  0  0
 24 25  2  0  0  0  0
 26 19  1  0  0  0  0
 28 19  1  0  0  0  0
 30 21  1  0  0  0  0
 32 23  1  0  0  0  0
 33 44  1  0  0  0  0
 33 43  1  0  0  0  0
 34 33  1  0  0  0  0
 34 35  1  0  0  0  0
 35 46  1  0  0  0  0
 35 36  1  0  0  0  0
 36 47  1  0  0  0  0
 36 37  1  0  0  0  0
 37 38  1  0  0  0  0
 37 39  1  0  0  0  0
 37 49  1  1  0  0  0
 38 24  1  0  0  0  0
 39 41  2  0  0  0  0
 39 40  1  0  0  0  0
 42 33  1  0  0  0  0
 45 35  1  0  0  0  0
 48 36  1  0  0  0  0
 50 38  1  0  0  0  0
M  END
$$$$
