HTR.pdb
 OpenBabel07022418383D

 56 56  0  0  1  0  0  0  0  0999 V2000
    3.1110    2.1680    1.8460 N   0  0  0  0  0  0  0  0  0  0  0  0
    2.2060    1.5330    0.9080 C   0  0  1  0  0  0  0  0  0  0  0  0
    2.8650    0.2730    0.3960 C   0  0  0  0  0  0  0  0  0  0  0  0
    4.1430    0.5630   -0.2900 C   0  0  0  0  0  0  0  0  0  0  0  0
    4.3440    0.8310   -1.6150 C   0  0  0  0  0  0  0  0  0  0  0  0
    5.6720    1.0400   -1.8430 N   0  0  0  0  0  0  0  0  0  0  0  0
    6.2640    0.8970   -0.6480 C   0  0  0  0  0  0  0  0  0  0  0  0
    5.3500    0.6080    0.2980 N   0  0  0  0  0  0  0  0  0  0  0  0
    0.9310    1.2760    1.5830 C   0  0  0  0  0  0  0  0  0  0  0  0
    0.7500    1.5970    2.7920 O   0  0  0  0  0  0  0  0  0  0  0  0
    3.1800    1.6250    2.7470 H   0  0  0  0  0  0  0  0  0  0  0  0
    2.7950    3.1190    2.1210 H   0  0  0  0  0  0  0  0  0  0  0  0
    2.0980    2.2650    0.0600 H   0  0  0  0  0  0  0  0  0  0  0  0
    2.2210   -0.2450   -0.3620 H   0  0  0  0  0  0  0  0  0  0  0  0
    2.9870   -0.4460    1.2310 H   0  0  0  0  0  0  0  0  0  0  0  0
    3.6030    0.8790   -2.3960 H   0  0  0  0  0  0  0  0  0  0  0  0
    6.1330    1.2630   -2.7440 H   0  0  0  0  0  0  0  0  0  0  0  0
    7.3240    0.9880   -0.4140 H   0  0  0  0  0  0  0  0  0  0  0  0
   -3.8600    1.0750    1.6700 C   0  0  0  0  0  0  0  0  0  0  0  0
   -2.5430    1.1700    0.9490 C   0  0  1  0  0  0  0  0  0  0  0  0
   -2.1580    2.5420    1.0770 O   0  0  0  0  0  0  0  0  0  0  0  0
   -1.4500    0.3970    1.5880 C   0  0  2  0  0  0  0  0  0  0  0  0
   -0.1640    0.6530    0.9070 N   0  0  0  0  0  0  0  0  0  0  0  0
   -1.5860   -1.0540    1.6550 C   0  0  0  0  0  0  0  0  0  0  0  0
   -2.5670   -1.5810    2.2330 O   0  0  0  0  0  0  0  0  0  0  0  0
   -4.1150    0.0760    2.0550 H   0  0  0  0  0  0  0  0  0  0  0  0
   -4.7160    1.3560    0.9890 H   0  0  0  0  0  0  0  0  0  0  0  0
   -3.9160    1.7650    2.5390 H   0  0  0  0  0  0  0  0  0  0  0  0
   -2.6330    0.9510   -0.1520 H   0  0  0  0  0  0  0  0  0  0  0  0
   -2.2890    2.8180    2.0150 H   0  0  0  0  0  0  0  0  0  0  0  0
   -1.3380    0.7850    2.6380 H   0  0  0  0  0  0  0  0  0  0  0  0
   -0.0310    0.3870   -0.0720 H   0  0  0  0  0  0  0  0  0  0  0  0
   -4.3840   -0.8070   -1.2970 N   0  0  0  0  0  0  0  0  0  0  0  0
   -3.5510   -1.9490   -1.1560 C   0  0  0  0  0  0  0  0  0  0  0  0
   -4.0140   -3.0890   -0.7740 N   0  0  0  0  0  0  0  0  0  0  0  0
   -2.1570   -1.8340   -1.4440 N   0  0  0  0  0  0  0  0  0  0  0  0
   -1.4720   -2.9410   -2.0190 C   0  0  0  0  0  0  0  0  0  0  0  0
   -1.2970   -4.1580   -1.2190 C   0  0  0  0  0  0  0  0  0  0  0  0
   -0.5010   -4.2020   -0.0020 C   0  0  0  0  0  0  0  0  0  0  0  0
   -0.7480   -3.3620    1.1710 C   0  0  2  0  0  0  0  0  0  0  0  0
   -0.6390   -1.9610    1.0890 N   0  0  0  0  0  0  0  0  0  0  0  0
    0.2470   -3.8200    2.2290 C   0  0  0  0  0  0  0  0  0  0  0  0
    0.3370   -5.0310    2.4970 O   0  0  0  0  0  0  0  0  0  0  0  0
    1.0310   -2.9020    2.8740 O   0  0  0  0  0  0  0  0  0  0  0  0
   -4.4550   -0.2240   -2.1590 H   0  0  0  0  0  0  0  0  0  0  0  0
   -4.9720   -0.5200   -0.4860 H   0  0  0  0  0  0  0  0  0  0  0  0
   -5.0350   -3.1450   -0.5690 H   0  0  0  0  0  0  0  0  0  0  0  0
   -1.6300   -0.9450   -1.2520 H   0  0  0  0  0  0  0  0  0  0  0  0
   -0.4470   -2.6200   -2.3840 H   0  0  0  0  0  0  0  0  0  0  0  0
   -1.9880   -3.2050   -2.9940 H   0  0  0  0  0  0  0  0  0  0  0  0
   -2.2960   -4.6830   -1.0190 H   0  0  0  0  0  0  0  0  0  0  0  0
   -0.8160   -4.9310   -1.9330 H   0  0  0  0  0  0  0  0  0  0  0  0
    0.6340   -4.2080   -0.2590 H   0  0  0  0  0  0  0  0  0  0  0  0
   -0.5840   -5.2900    0.3840 H   0  0  0  0  0  0  0  0  0  0  0  0
   -1.7790   -3.5960    1.5610 H   0  0  0  0  0  0  0  0  0  0  0  0
    0.1770   -1.5350    0.5870 H   0  0  0  0  0  0  0  0  0  0  0  0
  1 12  1  0  0  0  0
  1 11  1  0  0  0  0
  2 13  1  6  0  0  0
  2  9  1  0  0  0  0
  2  1  1  0  0  0  0
  3  2  1  0  0  0  0
  3 15  1  0  0  0  0
  4  8  1  0  0  0  0
  4  3  1  0  0  0  0
  5  4  2  0  0  0  0
  6  5  1  0  0  0  0
  6  7  1  0  0  0  0
  7 18  1  0  0  0  0
  7  8  2  0  0  0  0
  9 10  2  0  0  0  0
 14  3  1  0  0  0  0
 16  5  1  0  0  0  0
 17  6  1  0  0  0  0
 19 26  1  0  0  0  0
 19 28  1  0  0  0  0
 20 29  1  6  0  0  0
 20 21  1  0  0  0  0
 20 22  1  0  0  0  0
 20 19  1  0  0  0  0
 21 30  1  0  0  0  0
 22 24  1  0  0  0  0
 22 31  1  1  0  0  0
 23  9  1  0  0  0  0
 23 22  1  0  0  0  0
 24 25  2  0  0  0  0
 27 19  1  0  0  0  0
 32 23  1  0  0  0  0
 33 34  1  0  0  0  0
 33 46  1  0  0  0  0
 34 35  2  0  0  0  0
 35 47  1  0  0  0  0
 36 48  1  0  0  0  0
 36 34  1  0  0  0  0
 37 36  1  0  0  0  0
 37 38  1  0  0  0  0
 38 51  1  0  0  0  0
 38 39  1  0  0  0  0
 39 54  1  0  0  0  0
 39 40  1  0  0  0  0
 40 55  1  1  0  0  0
 40 42  1  0  0  0  0
 41 40  1  0  0  0  0
 41 24  1  0  0  0  0
 42 43  2  0  0  0  0
 42 44  1  0  0  0  0
 45 33  1  0  0  0  0
 49 37  1  0  0  0  0
 50 37  1  0  0  0  0
 52 38  1  0  0  0  0
 53 39  1  0  0  0  0
 56 41  1  0  0  0  0
M  END
$$$$
