HTT.pdb
 OpenBabel07022418383D

 47 47  0  0  1  0  0  0  0  0999 V2000
    1.7410   -3.4340    3.2590 N   0  0  0  0  0  0  0  0  0  0  0  0
    2.2990   -2.5490    2.1900 C   0  0  1  0  0  0  0  0  0  0  0  0
    1.8940   -3.1200    0.8980 C   0  0  0  0  0  0  0  0  0  0  0  0
    2.4040   -2.4650   -0.3150 C   0  0  0  0  0  0  0  0  0  0  0  0
    3.2850   -1.4320   -0.5070 C   0  0  0  0  0  0  0  0  0  0  0  0
    3.4430   -1.2640   -1.8200 N   0  0  0  0  0  0  0  0  0  0  0  0
    2.6850   -2.1640   -2.4660 C   0  0  0  0  0  0  0  0  0  0  0  0
    2.0550   -2.8920   -1.5440 N   0  0  0  0  0  0  0  0  0  0  0  0
    1.7860   -1.2300    2.5590 C   0  0  0  0  0  0  0  0  0  0  0  0
    1.8840   -0.8800    3.7840 O   0  0  0  0  0  0  0  0  0  0  0  0
    0.7400   -3.1700    3.4110 H   0  0  0  0  0  0  0  0  0  0  0  0
    1.8730   -4.4220    2.9920 H   0  0  0  0  0  0  0  0  0  0  0  0
    3.3960   -2.5700    2.2780 H   0  0  0  0  0  0  0  0  0  0  0  0
    0.7970   -3.2850    0.7900 H   0  0  0  0  0  0  0  0  0  0  0  0
    2.3170   -4.1720    0.8630 H   0  0  0  0  0  0  0  0  0  0  0  0
    3.7520   -0.8730    0.2650 H   0  0  0  0  0  0  0  0  0  0  0  0
    4.0350   -0.5760   -2.3420 H   0  0  0  0  0  0  0  0  0  0  0  0
    2.5810   -2.3010   -3.5400 H   0  0  0  0  0  0  0  0  0  0  0  0
    1.0630    2.1380    0.0120 C   0  0  0  0  0  0  0  0  0  0  0  0
    1.3870    2.1250    1.4910 C   0  0  1  0  0  0  0  0  0  0  0  0
    0.9050    3.3140    2.0340 O   0  0  0  0  0  0  0  0  0  0  0  0
    0.7360    0.9630    2.1970 C   0  0  2  0  0  0  0  0  0  0  0  0
    1.1910   -0.3170    1.6820 N   0  0  0  0  0  0  0  0  0  0  0  0
   -0.7220    1.0740    1.9700 C   0  0  0  0  0  0  0  0  0  0  0  0
   -1.3600    2.1020    2.3170 O   0  0  0  0  0  0  0  0  0  0  0  0
    1.6780    2.9630   -0.4330 H   0  0  0  0  0  0  0  0  0  0  0  0
    0.0050    2.3550   -0.1240 H   0  0  0  0  0  0  0  0  0  0  0  0
    1.4150    1.2110   -0.4860 H   0  0  0  0  0  0  0  0  0  0  0  0
    2.4800    2.1360    1.5830 H   0  0  0  0  0  0  0  0  0  0  0  0
    1.3750    4.1020    1.6810 H   0  0  0  0  0  0  0  0  0  0  0  0
    0.9660    1.0550    3.2810 H   0  0  0  0  0  0  0  0  0  0  0  0
    1.0250   -0.5000    0.6610 H   0  0  0  0  0  0  0  0  0  0  0  0
   -4.4730   -0.2450   -0.7880 C   0  0  0  0  0  0  0  0  0  0  0  0
   -3.0300   -0.1550   -0.3940 C   0  0  1  0  0  0  0  0  0  0  0  0
   -2.3900    0.8600   -1.1120 O   0  0  0  0  0  0  0  0  0  0  0  0
   -2.8530    0.0480    1.0990 C   0  0  2  0  0  0  0  0  0  0  0  0
   -1.4190    0.0200    1.3590 N   0  0  0  0  0  0  0  0  0  0  0  0
   -3.4580   -1.1040    1.7800 C   0  0  0  0  0  0  0  0  0  0  0  0
   -2.7600   -1.8950    2.4350 O   0  0  0  0  0  0  0  0  0  0  0  0
   -4.8160   -1.3120    1.6920 O   0  0  0  0  0  0  0  0  0  0  0  0
   -5.1630    0.2010   -0.0640 H   0  0  0  0  0  0  0  0  0  0  0  0
   -4.7410   -1.3140   -0.9540 H   0  0  0  0  0  0  0  0  0  0  0  0
   -4.5730    0.2430   -1.7870 H   0  0  0  0  0  0  0  0  0  0  0  0
   -2.5180   -1.1050   -0.6460 H   0  0  0  0  0  0  0  0  0  0  0  0
   -2.6880    0.7720   -2.0620 H   0  0  0  0  0  0  0  0  0  0  0  0
   -3.3080    0.9970    1.4430 H   0  0  0  0  0  0  0  0  0  0  0  0
   -0.9270   -0.8700    1.0490 H   0  0  0  0  0  0  0  0  0  0  0  0
  1 11  1  0  0  0  0
  2 13  1  1  0  0  0
  2  9  1  0  0  0  0
  2  1  1  0  0  0  0
  3  2  1  0  0  0  0
  4  3  1  0  0  0  0
  5  4  2  0  0  0  0
  5 16  1  0  0  0  0
  6  5  1  0  0  0  0
  7  6  1  0  0  0  0
  7  8  2  0  0  0  0
  8  4  1  0  0  0  0
  9 10  2  0  0  0  0
 12  1  1  0  0  0  0
 14  3  1  0  0  0  0
 15  3  1  0  0  0  0
 17  6  1  0  0  0  0
 18  7  1  0  0  0  0
 19 20  1  0  0  0  0
 20 29  1  1  0  0  0
 20 21  1  0  0  0  0
 20 22  1  0  0  0  0
 22 31  1  1  0  0  0
 23 22  1  0  0  0  0
 23  9  1  0  0  0  0
 24 22  1  0  0  0  0
 24 25  2  0  0  0  0
 26 19  1  0  0  0  0
 27 19  1  0  0  0  0
 28 19  1  0  0  0  0
 30 21  1  0  0  0  0
 32 23  1  0  0  0  0
 33 34  1  0  0  0  0
 33 41  1  0  0  0  0
 34 44  1  6  0  0  0
 34 36  1  0  0  0  0
 35 34  1  0  0  0  0
 36 37  1  0  0  0  0
 36 46  1  1  0  0  0
 36 38  1  0  0  0  0
 37 24  1  0  0  0  0
 38 39  1  0  0  0  0
 40 38  2  0  0  0  0
 42 33  1  0  0  0  0
 43 33  1  0  0  0  0
 45 35  1  0  0  0  0
 47 37  1  0  0  0  0
M  END
$$$$
