HTV.pdb
 OpenBabel07022418383D

 49 49  0  0  1  0  0  0  0  0999 V2000
    1.8380   -3.6190    0.5670 N   0  0  0  0  0  0  0  0  0  0  0  0
    2.3360   -2.4050    1.1820 C   0  0  1  0  0  0  0  0  0  0  0  0
    3.8350   -2.3630    0.9890 C   0  0  0  0  0  0  0  0  0  0  0  0
    4.4670   -1.1700    1.5730 C   0  0  0  0  0  0  0  0  0  0  0  0
    4.9630   -1.0160    2.8490 C   0  0  0  0  0  0  0  0  0  0  0  0
    5.4550    0.2250    2.9840 N   0  0  0  0  0  0  0  0  0  0  0  0
    5.2770    0.8550    1.8090 C   0  0  0  0  0  0  0  0  0  0  0  0
    4.6720   -0.0020    0.9490 N   0  0  0  0  0  0  0  0  0  0  0  0
    1.6890   -1.1980    0.6670 C   0  0  0  0  0  0  0  0  0  0  0  0
    2.0120   -0.0750    1.1220 O   0  0  0  0  0  0  0  0  0  0  0  0
    1.8910   -3.4890   -0.4770 H   0  0  0  0  0  0  0  0  0  0  0  0
    2.5310   -4.3810    0.7900 H   0  0  0  0  0  0  0  0  0  0  0  0
    2.1120   -2.4840    2.2750 H   0  0  0  0  0  0  0  0  0  0  0  0
    4.0860   -2.4880   -0.0980 H   0  0  0  0  0  0  0  0  0  0  0  0
    4.2670   -3.2860    1.4720 H   0  0  0  0  0  0  0  0  0  0  0  0
    4.9810   -1.7440    3.6610 H   0  0  0  0  0  0  0  0  0  0  0  0
    5.9020    0.6770    3.8090 H   0  0  0  0  0  0  0  0  0  0  0  0
    5.5460    1.8710    1.5300 H   0  0  0  0  0  0  0  0  0  0  0  0
   -0.3520    1.6310   -2.5420 C   0  0  0  0  0  0  0  0  0  0  0  0
    0.2400    0.2620   -2.2730 C   0  0  1  0  0  0  0  0  0  0  0  0
    1.5920    0.3410   -2.5790 O   0  0  0  0  0  0  0  0  0  0  0  0
    0.0930   -0.0080   -0.8060 C   0  0  2  0  0  0  0  0  0  0  0  0
    0.6880   -1.2070   -0.3430 N   0  0  0  0  0  0  0  0  0  0  0  0
   -1.3610    0.0070   -0.4100 C   0  0  0  0  0  0  0  0  0  0  0  0
   -2.0700    0.9790   -0.7190 O   0  0  0  0  0  0  0  0  0  0  0  0
    0.2330    2.1000   -3.3590 H   0  0  0  0  0  0  0  0  0  0  0  0
   -0.2680    2.3060   -1.6620 H   0  0  0  0  0  0  0  0  0  0  0  0
   -1.3950    1.5620   -2.9170 H   0  0  0  0  0  0  0  0  0  0  0  0
   -0.3180   -0.4510   -2.9080 H   0  0  0  0  0  0  0  0  0  0  0  0
    1.8490    1.2100   -2.9780 H   0  0  0  0  0  0  0  0  0  0  0  0
    0.5380    0.8540   -0.2670 H   0  0  0  0  0  0  0  0  0  0  0  0
    0.4030   -2.1160   -0.7370 H   0  0  0  0  0  0  0  0  0  0  0  0
   -2.8710   -1.1490    3.1730 C   0  0  0  0  0  0  0  0  0  0  0  0
   -3.6070   -0.5280    2.0190 C   0  0  0  0  0  0  0  0  0  0  0  0
   -3.4400    0.9660    2.0350 C   0  0  0  0  0  0  0  0  0  0  0  0
   -3.2680   -1.1450    0.7060 C   0  0  2  0  0  0  0  0  0  0  0  0
   -1.9080   -1.0800    0.3090 N   0  0  0  0  0  0  0  0  0  0  0  0
   -4.2520   -0.7990   -0.3730 C   0  0  0  0  0  0  0  0  0  0  0  0
   -3.8370   -0.5890   -1.5230 O   0  0  0  0  0  0  0  0  0  0  0  0
   -5.5920   -0.7210   -0.0670 O   0  0  0  0  0  0  0  0  0  0  0  0
   -3.5670   -1.7390    3.8020 H   0  0  0  0  0  0  0  0  0  0  0  0
   -2.1340   -1.8850    2.7680 H   0  0  0  0  0  0  0  0  0  0  0  0
   -2.3740   -0.4060    3.8260 H   0  0  0  0  0  0  0  0  0  0  0  0
   -4.7090   -0.7100    2.1760 H   0  0  0  0  0  0  0  0  0  0  0  0
   -3.9500    1.3250    2.9750 H   0  0  0  0  0  0  0  0  0  0  0  0
   -2.3840    1.2700    2.1490 H   0  0  0  0  0  0  0  0  0  0  0  0
   -3.9710    1.4370    1.2090 H   0  0  0  0  0  0  0  0  0  0  0  0
   -3.4970   -2.2720    0.8390 H   0  0  0  0  0  0  0  0  0  0  0  0
   -1.2860   -1.9040    0.5810 H   0  0  0  0  0  0  0  0  0  0  0  0
  1 12  1  0  0  0  0
  1  2  1  0  0  0  0
  2 13  1  1  0  0  0
  3  2  1  0  0  0  0
  3 15  1  0  0  0  0
  3  4  1  0  0  0  0
  4  5  2  0  0  0  0
  5  6  1  0  0  0  0
  5 16  1  0  0  0  0
  6 17  1  0  0  0  0
  7  6  1  0  0  0  0
  8  4  1  0  0  0  0
  8  7  2  0  0  0  0
  9 10  2  0  0  0  0
  9  2  1  0  0  0  0
 11  1  1  0  0  0  0
 14  3  1  0  0  0  0
 18  7  1  0  0  0  0
 19 20  1  0  0  0  0
 19 27  1  0  0  0  0
 20 29  1  6  0  0  0
 20 22  1  0  0  0  0
 21 20  1  0  0  0  0
 22 24  1  0  0  0  0
 22 23  1  0  0  0  0
 22 31  1  1  0  0  0
 23  9  1  0  0  0  0
 24 37  1  0  0  0  0
 25 24  2  0  0  0  0
 26 19  1  0  0  0  0
 28 19  1  0  0  0  0
 30 21  1  0  0  0  0
 32 23  1  0  0  0  0
 33 41  1  0  0  0  0
 33 43  1  0  0  0  0
 34 35  1  0  0  0  0
 34 44  1  0  0  0  0
 34 33  1  0  0  0  0
 35 46  1  0  0  0  0
 35 45  1  0  0  0  0
 36 48  1  1  0  0  0
 36 34  1  0  0  0  0
 37 49  1  0  0  0  0
 37 36  1  0  0  0  0
 38 40  1  0  0  0  0
 38 36  1  0  0  0  0
 39 38  2  0  0  0  0
 42 33  1  0  0  0  0
 47 35  1  0  0  0  0
M  END
$$$$
