HVH.pdb
 OpenBabel07022418393D

 52 53  0  0  1  0  0  0  0  0999 V2000
    1.4670   -2.4830    0.4400 N   0  0  0  0  0  0  0  0  0  0  0  0
    2.2640   -1.6700    1.4040 C   0  0  1  0  0  0  0  0  0  0  0  0
    3.5940   -1.4690    0.7670 C   0  0  0  0  0  0  0  0  0  0  0  0
    4.5370   -0.7570    1.6440 C   0  0  0  0  0  0  0  0  0  0  0  0
    4.4010   -0.4190    2.9610 C   0  0  0  0  0  0  0  0  0  0  0  0
    5.5370    0.1670    3.4100 N   0  0  0  0  0  0  0  0  0  0  0  0
    6.3860    0.1960    2.3740 C   0  0  0  0  0  0  0  0  0  0  0  0
    5.8040   -0.3530    1.3110 N   0  0  0  0  0  0  0  0  0  0  0  0
    1.5000   -0.3650    1.4420 C   0  0  0  0  0  0  0  0  0  0  0  0
    1.8260    0.5680    2.1760 O   0  0  0  0  0  0  0  0  0  0  0  0
    1.7320   -2.1560   -0.5070 H   0  0  0  0  0  0  0  0  0  0  0  0
    1.6940   -3.4730    0.5940 H   0  0  0  0  0  0  0  0  0  0  0  0
    2.2490   -2.2000    2.3550 H   0  0  0  0  0  0  0  0  0  0  0  0
    4.0730   -2.4730    0.5530 H   0  0  0  0  0  0  0  0  0  0  0  0
    3.5200   -0.9910   -0.2400 H   0  0  0  0  0  0  0  0  0  0  0  0
    3.5760   -0.5820    3.6210 H   0  0  0  0  0  0  0  0  0  0  0  0
    5.7010    0.5160    4.3570 H   0  0  0  0  0  0  0  0  0  0  0  0
    7.4060    0.6070    2.3920 H   0  0  0  0  0  0  0  0  0  0  0  0
    1.3490    2.1790   -0.6560 C   0  0  0  0  0  0  0  0  0  0  0  0
   -0.1520    1.9080   -0.6040 C   0  0  0  0  0  0  0  0  0  0  0  0
   -0.5800    1.2500   -1.8660 C   0  0  0  0  0  0  0  0  0  0  0  0
   -0.3940    1.0810    0.6450 C   0  0  2  0  0  0  0  0  0  0  0  0
    0.3420   -0.1670    0.6030 N   0  0  0  0  0  0  0  0  0  0  0  0
   -1.8390    0.9060    0.8470 C   0  0  0  0  0  0  0  0  0  0  0  0
   -2.5570    1.9340    0.9440 O   0  0  0  0  0  0  0  0  0  0  0  0
    1.7110    2.5810    0.3050 H   0  0  0  0  0  0  0  0  0  0  0  0
    1.4990    2.9620   -1.4290 H   0  0  0  0  0  0  0  0  0  0  0  0
    1.9160    1.2840   -0.9400 H   0  0  0  0  0  0  0  0  0  0  0  0
   -0.6870    2.8610   -0.4710 H   0  0  0  0  0  0  0  0  0  0  0  0
   -1.4830    1.7760   -2.2530 H   0  0  0  0  0  0  0  0  0  0  0  0
    0.1580    1.3120   -2.6900 H   0  0  0  0  0  0  0  0  0  0  0  0
   -0.9120    0.1940   -1.6870 H   0  0  0  0  0  0  0  0  0  0  0  0
    0.0220    1.6900    1.4660 H   0  0  0  0  0  0  0  0  0  0  0  0
    0.0660   -0.9410   -0.0170 H   0  0  0  0  0  0  0  0  0  0  0  0
   -2.4900   -0.3470    0.9390 N   0  0  0  0  0  0  0  0  0  0  0  0
   -3.9030   -0.5450    1.1350 C   0  0  1  0  0  0  0  0  0  0  0  0
   -4.5720   -1.1370   -0.0880 C   0  0  0  0  0  0  0  0  0  0  0  0
   -4.0470   -2.4410   -0.4960 C   0  0  0  0  0  0  0  0  0  0  0  0
   -3.0210   -2.6360   -1.3710 C   0  0  0  0  0  0  0  0  0  0  0  0
   -2.8470   -3.9600   -1.4820 N   0  0  0  0  0  0  0  0  0  0  0  0
   -3.7600   -4.5640   -0.6820 C   0  0  0  0  0  0  0  0  0  0  0  0
   -4.5180   -3.6390   -0.0580 N   0  0  0  0  0  0  0  0  0  0  0  0
   -4.1980   -1.3520    2.3280 C   0  0  0  0  0  0  0  0  0  0  0  0
   -5.3820   -1.6190    2.6220 O   0  0  0  0  0  0  0  0  0  0  0  0
   -3.1810   -1.8130    3.1230 O   0  0  0  0  0  0  0  0  0  0  0  0
   -1.8940   -1.1990    0.8570 H   0  0  0  0  0  0  0  0  0  0  0  0
   -4.4340    0.4470    1.2790 H   0  0  0  0  0  0  0  0  0  0  0  0
   -4.4930   -0.4130   -0.9520 H   0  0  0  0  0  0  0  0  0  0  0  0
   -5.6630   -1.2040    0.1420 H   0  0  0  0  0  0  0  0  0  0  0  0
   -2.4580   -1.8370   -1.8780 H   0  0  0  0  0  0  0  0  0  0  0  0
   -2.1320   -4.4270   -2.0840 H   0  0  0  0  0  0  0  0  0  0  0  0
   -3.8400   -5.6360   -0.5840 H   0  0  0  0  0  0  0  0  0  0  0  0
  1 12  1  0  0  0  0
  1  2  1  0  0  0  0
  2  9  1  0  0  0  0
  2 13  1  1  0  0  0
  3  2  1  0  0  0  0
  3  4  1  0  0  0  0
  4  5  2  0  0  0  0
  5  6  1  0  0  0  0
  5 16  1  0  0  0  0
  6 17  1  0  0  0  0
  7 18  1  0  0  0  0
  7  6  1  0  0  0  0
  8  4  1  0  0  0  0
  8  7  2  0  0  0  0
  9 10  2  0  0  0  0
 11  1  1  0  0  0  0
 14  3  1  0  0  0  0
 15  3  1  0  0  0  0
 19 20  1  0  0  0  0
 19 26  1  0  0  0  0
 20 29  1  0  0  0  0
 20 22  1  0  0  0  0
 21 32  1  0  0  0  0
 21 20  1  0  0  0  0
 22 24  1  0  0  0  0
 22 33  1  1  0  0  0
 23 22  1  0  0  0  0
 23  9  1  0  0  0  0
 24 35  1  0  0  0  0
 24 25  2  0  0  0  0
 27 19  1  0  0  0  0
 28 19  1  0  0  0  0
 30 21  1  0  0  0  0
 31 21  1  0  0  0  0
 34 23  1  0  0  0  0
 35 36  1  0  0  0  0
 36 47  1  1  0  0  0
 36 43  1  0  0  0  0
 37 49  1  0  0  0  0
 37 36  1  0  0  0  0
 38 37  1  0  0  0  0
 38 42  1  0  0  0  0
 39 38  2  0  0  0  0
 40 39  1  0  0  0  0
 40 41  1  0  0  0  0
 41 52  1  0  0  0  0
 41 42  2  0  0  0  0
 43 44  2  0  0  0  0
 43 45  1  0  0  0  0
 46 35  1  0  0  0  0
 48 37  1  0  0  0  0
 50 39  1  0  0  0  0
 51 40  1  0  0  0  0
M  END
$$$$
