HVN.pdb
 OpenBabel07022418393D

 49 49  0  0  1  0  0  0  0  0999 V2000
    0.6180   -2.6800   -0.9310 N   0  0  0  0  0  0  0  0  0  0  0  0
    1.7430   -2.5110    0.0100 C   0  0  1  0  0  0  0  0  0  0  0  0
    2.9790   -2.7310   -0.7940 C   0  0  0  0  0  0  0  0  0  0  0  0
    4.2450   -2.6220   -0.0510 C   0  0  0  0  0  0  0  0  0  0  0  0
    5.4800   -2.7900   -0.6330 C   0  0  0  0  0  0  0  0  0  0  0  0
    6.4230   -2.6290    0.3020 N   0  0  0  0  0  0  0  0  0  0  0  0
    5.7790   -2.3650    1.4490 C   0  0  0  0  0  0  0  0  0  0  0  0
    4.4530   -2.3600    1.2420 N   0  0  0  0  0  0  0  0  0  0  0  0
    1.6140   -1.1440    0.5740 C   0  0  0  0  0  0  0  0  0  0  0  0
    2.4130   -0.6980    1.4260 O   0  0  0  0  0  0  0  0  0  0  0  0
    0.7800   -3.5300   -1.5280 H   0  0  0  0  0  0  0  0  0  0  0  0
   -0.2840   -2.7570   -0.4020 H   0  0  0  0  0  0  0  0  0  0  0  0
    1.6190   -3.3070    0.7860 H   0  0  0  0  0  0  0  0  0  0  0  0
    2.9190   -3.7450   -1.2280 H   0  0  0  0  0  0  0  0  0  0  0  0
    2.9770   -2.0020   -1.6300 H   0  0  0  0  0  0  0  0  0  0  0  0
    5.6920   -3.0140   -1.6690 H   0  0  0  0  0  0  0  0  0  0  0  0
    7.4710   -2.6910    0.1860 H   0  0  0  0  0  0  0  0  0  0  0  0
    6.2680   -2.1800    2.4170 H   0  0  0  0  0  0  0  0  0  0  0  0
   -0.4960    1.9660   -1.5090 C   0  0  0  0  0  0  0  0  0  0  0  0
    0.4940    2.1120   -0.4040 C   0  0  0  0  0  0  0  0  0  0  0  0
    0.3320    3.4890    0.2030 C   0  0  0  0  0  0  0  0  0  0  0  0
    0.3790    1.0530    0.6640 C   0  0  2  0  0  0  0  0  0  0  0  0
    0.5710   -0.2740    0.1690 N   0  0  0  0  0  0  0  0  0  0  0  0
   -0.9080    1.1850    1.4280 C   0  0  0  0  0  0  0  0  0  0  0  0
   -1.2140    2.2950    1.9320 O   0  0  0  0  0  0  0  0  0  0  0  0
   -1.1670    2.8630   -1.6250 H   0  0  0  0  0  0  0  0  0  0  0  0
   -1.1880    1.1080   -1.3960 H   0  0  0  0  0  0  0  0  0  0  0  0
   -0.0140    1.8440   -2.5070 H   0  0  0  0  0  0  0  0  0  0  0  0
    1.5540    2.0750   -0.7790 H   0  0  0  0  0  0  0  0  0  0  0  0
    0.6730    3.4930    1.2520 H   0  0  0  0  0  0  0  0  0  0  0  0
    0.9420    4.2500   -0.3250 H   0  0  0  0  0  0  0  0  0  0  0  0
   -0.7500    3.8080    0.2160 H   0  0  0  0  0  0  0  0  0  0  0  0
    1.1870    1.2480    1.4010 H   0  0  0  0  0  0  0  0  0  0  0  0
   -0.1040   -0.6330   -0.5410 H   0  0  0  0  0  0  0  0  0  0  0  0
   -5.2940   -2.1260    0.3540 N   0  0  0  0  0  0  0  0  0  0  0  0
   -4.2150   -1.5970    1.1110 C   0  0  0  0  0  0  0  0  0  0  0  0
   -3.2560   -2.3650    1.3660 O   0  0  0  0  0  0  0  0  0  0  0  0
   -4.2540   -0.1890    1.5660 C   0  0  0  0  0  0  0  0  0  0  0  0
   -3.0380    0.2180    2.3400 C   0  0  2  0  0  0  0  0  0  0  0  0
   -1.7990    0.1080    1.6090 N   0  0  0  0  0  0  0  0  0  0  0  0
   -2.9830   -0.6700    3.5540 C   0  0  0  0  0  0  0  0  0  0  0  0
   -4.0310   -0.6530    4.2770 O   0  0  0  0  0  0  0  0  0  0  0  0
   -1.9000   -1.4420    3.8740 O   0  0  0  0  0  0  0  0  0  0  0  0
   -6.2450   -1.7250    0.5450 H   0  0  0  0  0  0  0  0  0  0  0  0
   -5.1850   -2.8760   -0.3640 H   0  0  0  0  0  0  0  0  0  0  0  0
   -5.1370   -0.0250    2.2170 H   0  0  0  0  0  0  0  0  0  0  0  0
   -4.4250    0.4330    0.6630 H   0  0  0  0  0  0  0  0  0  0  0  0
   -3.1800    1.2560    2.7530 H   0  0  0  0  0  0  0  0  0  0  0  0
   -1.5490   -0.8070    1.1950 H   0  0  0  0  0  0  0  0  0  0  0  0
  1 12  1  0  0  0  0
  1  2  1  0  0  0  0
  2  9  1  0  0  0  0
  2 13  1  1  0  0  0
  3  4  1  0  0  0  0
  3  2  1  0  0  0  0
  4  8  1  0  0  0  0
  5  4  2  0  0  0  0
  5  6  1  0  0  0  0
  6  7  1  0  0  0  0
  7 18  1  0  0  0  0
  8  7  2  0  0  0  0
  9 10  2  0  0  0  0
 11  1  1  0  0  0  0
 14  3  1  0  0  0  0
 15  3  1  0  0  0  0
 16  5  1  0  0  0  0
 17  6  1  0  0  0  0
 19 27  1  0  0  0  0
 19 20  1  0  0  0  0
 20 21  1  0  0  0  0
 20 22  1  0  0  0  0
 21 32  1  0  0  0  0
 21 30  1  0  0  0  0
 22 33  1  1  0  0  0
 22 24  1  0  0  0  0
 23  9  1  0  0  0  0
 23 22  1  0  0  0  0
 24 40  1  0  0  0  0
 24 25  2  0  0  0  0
 26 19  1  0  0  0  0
 28 19  1  0  0  0  0
 29 20  1  0  0  0  0
 31 21  1  0  0  0  0
 34 23  1  0  0  0  0
 35 44  1  0  0  0  0
 35 36  1  0  0  0  0
 36 37  2  0  0  0  0
 36 38  1  0  0  0  0
 38 46  1  0  0  0  0
 38 39  1  0  0  0  0
 39 48  1  1  0  0  0
 39 41  1  0  0  0  0
 40 39  1  0  0  0  0
 41 43  2  0  0  0  0
 41 42  1  0  0  0  0
 45 35  1  0  0  0  0
 47 38  1  0  0  0  0
 49 40  1  0  0  0  0
M  END
$$$$
