HVQ.pdb
 OpenBabel07022418393D

 52 52  0  0  1  0  0  0  0  0999 V2000
    1.9530    3.3150    2.0100 N   0  0  0  0  0  0  0  0  0  0  0  0
    0.8670    2.3390    1.9970 C   0  0  1  0  0  0  0  0  0  0  0  0
   -0.1390    2.6970    0.9630 C   0  0  0  0  0  0  0  0  0  0  0  0
    0.4230    2.7590   -0.4180 C   0  0  0  0  0  0  0  0  0  0  0  0
    0.9530    3.9070   -0.9640 C   0  0  0  0  0  0  0  0  0  0  0  0
    1.3550    3.5860   -2.2020 N   0  0  0  0  0  0  0  0  0  0  0  0
    1.0900    2.2880   -2.4300 C   0  0  0  0  0  0  0  0  0  0  0  0
    0.5200    1.7980   -1.3280 N   0  0  0  0  0  0  0  0  0  0  0  0
    1.4140    0.9800    1.9370 C   0  0  0  0  0  0  0  0  0  0  0  0
    2.6580    0.7690    1.8440 O   0  0  0  0  0  0  0  0  0  0  0  0
    2.4290    3.2040    2.9430 H   0  0  0  0  0  0  0  0  0  0  0  0
    1.4950    4.2610    2.0430 H   0  0  0  0  0  0  0  0  0  0  0  0
    0.3620    2.4930    3.0090 H   0  0  0  0  0  0  0  0  0  0  0  0
   -0.6310    3.6530    1.1990 H   0  0  0  0  0  0  0  0  0  0  0  0
   -0.9450    1.9260    0.9410 H   0  0  0  0  0  0  0  0  0  0  0  0
    1.0290    4.8930   -0.4730 H   0  0  0  0  0  0  0  0  0  0  0  0
    1.8010    4.2320   -2.8830 H   0  0  0  0  0  0  0  0  0  0  0  0
    1.3090    1.7390   -3.3660 H   0  0  0  0  0  0  0  0  0  0  0  0
   -0.4600   -2.5000    3.6800 C   0  0  0  0  0  0  0  0  0  0  0  0
    0.9390   -2.3310    3.1990 C   0  0  0  0  0  0  0  0  0  0  0  0
    1.4800   -3.7260    2.9560 C   0  0  0  0  0  0  0  0  0  0  0  0
    1.1010   -1.5420    1.9440 C   0  0  2  0  0  0  0  0  0  0  0  0
    0.6370   -0.2020    1.9790 N   0  0  0  0  0  0  0  0  0  0  0  0
    0.5680   -2.2220    0.7530 C   0  0  0  0  0  0  0  0  0  0  0  0
    0.7630   -3.4600    0.4990 O   0  0  0  0  0  0  0  0  0  0  0  0
   -0.9050   -3.4100    3.2200 H   0  0  0  0  0  0  0  0  0  0  0  0
   -0.4220   -2.7180    4.7820 H   0  0  0  0  0  0  0  0  0  0  0  0
   -1.1010   -1.6110    3.5720 H   0  0  0  0  0  0  0  0  0  0  0  0
    1.6230   -1.8970    3.9590 H   0  0  0  0  0  0  0  0  0  0  0  0
    1.8220   -4.1360    3.9440 H   0  0  0  0  0  0  0  0  0  0  0  0
    0.6570   -4.3830    2.6230 H   0  0  0  0  0  0  0  0  0  0  0  0
    2.3010   -3.7480    2.2110 H   0  0  0  0  0  0  0  0  0  0  0  0
    2.2230   -1.4760    1.7940 H   0  0  0  0  0  0  0  0  0  0  0  0
   -0.4060   -0.0810    2.0450 H   0  0  0  0  0  0  0  0  0  0  0  0
   -3.6510   -4.2840    1.0750 N   0  0  0  0  0  0  0  0  0  0  0  0
   -3.0230   -3.7690   -0.1040 C   0  0  0  0  0  0  0  0  0  0  0  0
   -2.4750   -4.5610   -0.9030 O   0  0  0  0  0  0  0  0  0  0  0  0
   -3.0290   -2.3190   -0.3680 C   0  0  0  0  0  0  0  0  0  0  0  0
   -2.1920   -1.9250   -1.5420 C   0  0  0  0  0  0  0  0  0  0  0  0
   -0.7440   -2.2520   -1.3940 C   0  0  2  0  0  0  0  0  0  0  0  0
   -0.2140   -1.5530   -0.2230 N   0  0  0  0  0  0  0  0  0  0  0  0
    0.0560   -1.8750   -2.5830 C   0  0  0  0  0  0  0  0  0  0  0  0
   -0.2120   -2.3030   -3.7360 O   0  0  0  0  0  0  0  0  0  0  0  0
    1.1250   -1.0330   -2.4390 O   0  0  0  0  0  0  0  0  0  0  0  0
   -4.3790   -5.0200    0.9990 H   0  0  0  0  0  0  0  0  0  0  0  0
   -3.3770   -3.9220    2.0030 H   0  0  0  0  0  0  0  0  0  0  0  0
   -2.7150   -1.7290    0.5290 H   0  0  0  0  0  0  0  0  0  0  0  0
   -4.0970   -2.0130   -0.5290 H   0  0  0  0  0  0  0  0  0  0  0  0
   -2.6360   -2.3770   -2.4590 H   0  0  0  0  0  0  0  0  0  0  0  0
   -2.3540   -0.8190   -1.6820 H   0  0  0  0  0  0  0  0  0  0  0  0
   -0.5840   -3.3490   -1.2490 H   0  0  0  0  0  0  0  0  0  0  0  0
   -0.4400   -0.5430   -0.1430 H   0  0  0  0  0  0  0  0  0  0  0  0
  1 12  1  0  0  0  0
  1 11  1  0  0  0  0
  2  1  1  0  0  0  0
  2 13  1  1  0  0  0
  3 14  1  0  0  0  0
  3  2  1  0  0  0  0
  4  3  1  0  0  0  0
  5 16  1  0  0  0  0
  5  4  2  0  0  0  0
  6  5  1  0  0  0  0
  7  6  1  0  0  0  0
  7  8  2  0  0  0  0
  8  4  1  0  0  0  0
  9 23  1  0  0  0  0
  9  2  1  0  0  0  0
 10  9  2  0  0  0  0
 15  3  1  0  0  0  0
 17  6  1  0  0  0  0
 18  7  1  0  0  0  0
 19 27  1  0  0  0  0
 20 19  1  0  0  0  0
 20 29  1  0  0  0  0
 21 20  1  0  0  0  0
 21 30  1  0  0  0  0
 22 33  1  6  0  0  0
 22 23  1  0  0  0  0
 22 20  1  0  0  0  0
 23 34  1  0  0  0  0
 24 22  1  0  0  0  0
 25 24  2  0  0  0  0
 26 19  1  0  0  0  0
 28 19  1  0  0  0  0
 31 21  1  0  0  0  0
 32 21  1  0  0  0  0
 35 46  1  0  0  0  0
 36 35  1  0  0  0  0
 37 36  2  0  0  0  0
 38 36  1  0  0  0  0
 38 47  1  0  0  0  0
 39 40  1  0  0  0  0
 39 38  1  0  0  0  0
 40 51  1  1  0  0  0
 40 41  1  0  0  0  0
 41 52  1  0  0  0  0
 41 24  1  0  0  0  0
 42 44  1  0  0  0  0
 42 40  1  0  0  0  0
 43 42  2  0  0  0  0
 45 35  1  0  0  0  0
 48 38  1  0  0  0  0
 49 39  1  0  0  0  0
 50 39  1  0  0  0  0
M  END
$$$$
