HVY.pdb
 OpenBabel07022418393D

 56 57  0  0  1  0  0  0  0  0999 V2000
    0.9090   -1.5100    4.6390 N   0  0  0  0  0  0  0  0  0  0  0  0
    0.3930   -0.1800    4.5630 C   0  0  1  0  0  0  0  0  0  0  0  0
    1.0360    0.7710    5.5160 C   0  0  0  0  0  0  0  0  0  0  0  0
    2.4900    0.9140    5.3120 C   0  0  0  0  0  0  0  0  0  0  0  0
    3.3350    1.7110    6.0330 C   0  0  0  0  0  0  0  0  0  0  0  0
    4.5800    1.5480    5.5220 N   0  0  0  0  0  0  0  0  0  0  0  0
    4.5240    0.6700    4.5020 C   0  0  0  0  0  0  0  0  0  0  0  0
    3.2310    0.2960    4.3950 N   0  0  0  0  0  0  0  0  0  0  0  0
    0.4290    0.3520    3.1680 C   0  0  0  0  0  0  0  0  0  0  0  0
    0.0290    1.4970    2.8850 O   0  0  0  0  0  0  0  0  0  0  0  0
    1.8320   -1.6060    4.1630 H   0  0  0  0  0  0  0  0  0  0  0  0
    1.0640   -1.7630    5.6310 H   0  0  0  0  0  0  0  0  0  0  0  0
   -0.6960   -0.2400    4.8220 H   0  0  0  0  0  0  0  0  0  0  0  0
    0.7890    0.5050    6.5610 H   0  0  0  0  0  0  0  0  0  0  0  0
    0.5830    1.7820    5.3460 H   0  0  0  0  0  0  0  0  0  0  0  0
    3.1090    2.3750    6.8730 H   0  0  0  0  0  0  0  0  0  0  0  0
    5.4520    2.0100    5.8420 H   0  0  0  0  0  0  0  0  0  0  0  0
    5.3770    0.3530    3.9100 H   0  0  0  0  0  0  0  0  0  0  0  0
    2.3550    0.6470   -1.2200 C   0  0  0  0  0  0  0  0  0  0  0  0
    2.3300    0.1290    0.1860 C   0  0  0  0  0  0  0  0  0  0  0  0
    3.1140   -1.1540    0.2140 C   0  0  0  0  0  0  0  0  0  0  0  0
    0.9700    0.0690    0.7220 C   0  0  2  0  0  0  0  0  0  0  0  0
    0.9170   -0.4160    2.1060 N   0  0  0  0  0  0  0  0  0  0  0  0
   -0.0220   -0.7610    0.0290 C   0  0  0  0  0  0  0  0  0  0  0  0
   -0.5450   -1.7810    0.6440 O   0  0  0  0  0  0  0  0  0  0  0  0
    1.7300    1.5550   -1.3790 H   0  0  0  0  0  0  0  0  0  0  0  0
    3.3900    1.0100   -1.5030 H   0  0  0  0  0  0  0  0  0  0  0  0
    2.1470   -0.1190   -1.9940 H   0  0  0  0  0  0  0  0  0  0  0  0
    2.9070    0.8560    0.7980 H   0  0  0  0  0  0  0  0  0  0  0  0
    2.5430   -1.9830    0.7190 H   0  0  0  0  0  0  0  0  0  0  0  0
    3.4260   -1.4820   -0.8030 H   0  0  0  0  0  0  0  0  0  0  0  0
    4.0680   -1.0760    0.7780 H   0  0  0  0  0  0  0  0  0  0  0  0
    0.5610    1.0890    0.7640 H   0  0  0  0  0  0  0  0  0  0  0  0
    1.2790   -1.3900    2.2170 H   0  0  0  0  0  0  0  0  0  0  0  0
   -6.6180   -3.9740   -4.7400 O   0  0  0  0  0  0  0  0  0  0  0  0
   -5.6480   -3.1500   -4.1550 C   0  0  0  0  0  0  0  0  0  0  0  0
   -4.7650   -2.4210   -4.9210 C   0  0  0  0  0  0  0  0  0  0  0  0
   -3.8230   -1.6210   -4.3110 C   0  0  0  0  0  0  0  0  0  0  0  0
   -3.7120   -1.5080   -2.9260 C   0  0  0  0  0  0  0  0  0  0  0  0
   -2.7100   -0.6560   -2.2520 C   0  0  0  0  0  0  0  0  0  0  0  0
   -1.4550   -1.3930   -1.9300 C   0  0  2  0  0  0  0  0  0  0  0  0
   -0.4740   -0.5490   -1.2670 N   0  0  0  0  0  0  0  0  0  0  0  0
   -0.8550   -2.1310   -3.0610 C   0  0  0  0  0  0  0  0  0  0  0  0
    0.3530   -1.9270   -3.3330 O   0  0  0  0  0  0  0  0  0  0  0  0
   -4.6340   -2.2700   -2.1980 C   0  0  0  0  0  0  0  0  0  0  0  0
   -5.5780   -3.0710   -2.7820 C   0  0  0  0  0  0  0  0  0  0  0  0
   -1.5620   -3.0310   -3.8260 O   0  0  0  0  0  0  0  0  0  0  0  0
   -6.4500   -4.4400   -5.6330 H   0  0  0  0  0  0  0  0  0  0  0  0
   -4.8350   -2.4960   -5.9960 H   0  0  0  0  0  0  0  0  0  0  0  0
   -3.1330   -1.0520   -4.9180 H   0  0  0  0  0  0  0  0  0  0  0  0
   -2.5620    0.2360   -2.8900 H   0  0  0  0  0  0  0  0  0  0  0  0
   -3.2050   -0.2670   -1.3220 H   0  0  0  0  0  0  0  0  0  0  0  0
   -1.7230   -2.1730   -1.1760 H   0  0  0  0  0  0  0  0  0  0  0  0
   -0.1300    0.2510   -1.8140 H   0  0  0  0  0  0  0  0  0  0  0  0
   -4.5940   -2.2200   -1.1170 H   0  0  0  0  0  0  0  0  0  0  0  0
   -6.2900   -3.6600   -2.2140 H   0  0  0  0  0  0  0  0  0  0  0  0
  1 12  1  0  0  0  0
  2  1  1  0  0  0  0
  2 13  1  1  0  0  0
  2  3  1  0  0  0  0
  3 14  1  0  0  0  0
  4  3  1  0  0  0  0
  4  5  2  0  0  0  0
  5 16  1  0  0  0  0
  6 17  1  0  0  0  0
  6  5  1  0  0  0  0
  7  6  1  0  0  0  0
  8  7  2  0  0  0  0
  8  4  1  0  0  0  0
  9  2  1  0  0  0  0
 10  9  2  0  0  0  0
 11  1  1  0  0  0  0
 15  3  1  0  0  0  0
 18  7  1  0  0  0  0
 19 20  1  0  0  0  0
 20 21  1  0  0  0  0
 20 22  1  0  0  0  0
 20 29  1  0  0  0  0
 21 30  1  0  0  0  0
 21 32  1  0  0  0  0
 22 33  1  1  0  0  0
 22 23  1  0  0  0  0
 23 34  1  0  0  0  0
 23  9  1  0  0  0  0
 24 25  2  0  0  0  0
 24 22  1  0  0  0  0
 26 19  1  0  0  0  0
 27 19  1  0  0  0  0
 28 19  1  0  0  0  0
 31 21  1  0  0  0  0
 35 36  1  0  0  0  0
 36 46  1  0  0  0  0
 37 38  1  0  0  0  0
 37 36  2  0  0  0  0
 38 39  2  0  0  0  0
 39 40  1  0  0  0  0
 39 45  1  0  0  0  0
 40 41  1  0  0  0  0
 40 52  1  0  0  0  0
 41 42  1  0  0  0  0
 41 53  1  1  0  0  0
 42 24  1  0  0  0  0
 43 41  1  0  0  0  0
 44 43  1  0  0  0  0
 45 55  1  0  0  0  0
 46 56  1  0  0  0  0
 46 45  2  0  0  0  0
 47 43  2  0  0  0  0
 48 35  1  0  0  0  0
 49 37  1  0  0  0  0
 50 38  1  0  0  0  0
 51 40  1  0  0  0  0
 54 42  1  0  0  0  0
M  END
$$$$
