HWF.pdb
 OpenBabel07022418393D

 63 66  0  0  1  0  0  0  0  0999 V2000
    0.2280   -2.1240    4.6010 N   0  0  0  0  0  0  0  0  0  0  0  0
    1.1560   -1.4730    3.6650 C   0  0  1  0  0  0  0  0  0  0  0  0
    2.2300   -2.4770    3.4010 C   0  0  0  0  0  0  0  0  0  0  0  0
    3.2920   -2.0740    2.4910 C   0  0  0  0  0  0  0  0  0  0  0  0
    4.4620   -1.4300    2.8750 C   0  0  0  0  0  0  0  0  0  0  0  0
    5.2070   -1.2100    1.7780 N   0  0  0  0  0  0  0  0  0  0  0  0
    4.5540   -1.6920    0.7090 C   0  0  0  0  0  0  0  0  0  0  0  0
    3.3980   -2.2110    1.1600 N   0  0  0  0  0  0  0  0  0  0  0  0
    0.3600   -1.0770    2.4870 C   0  0  0  0  0  0  0  0  0  0  0  0
   -0.8650   -1.4330    2.3730 O   0  0  0  0  0  0  0  0  0  0  0  0
    0.5380   -3.0460    4.9130 H   0  0  0  0  0  0  0  0  0  0  0  0
   -0.0770   -1.4840    5.3530 H   0  0  0  0  0  0  0  0  0  0  0  0
    1.5810   -0.5500    4.1150 H   0  0  0  0  0  0  0  0  0  0  0  0
    1.7780   -3.4570    3.1250 H   0  0  0  0  0  0  0  0  0  0  0  0
    2.7000   -2.6790    4.4100 H   0  0  0  0  0  0  0  0  0  0  0  0
    4.7330   -1.1480    3.8860 H   0  0  0  0  0  0  0  0  0  0  0  0
    6.1390   -0.7450    1.7450 H   0  0  0  0  0  0  0  0  0  0  0  0
    4.8890   -1.6730   -0.3340 H   0  0  0  0  0  0  0  0  0  0  0  0
    0.8300   -0.2950    1.4030 N   0  0  0  0  0  0  0  0  0  0  0  0
    0.0140    0.0730    0.2690 C   0  0  1  0  0  0  0  0  0  0  0  0
   -0.1220    1.5830    0.2770 C   0  0  0  0  0  0  0  0  0  0  0  0
   -0.7660    2.0570    1.5280 C   0  0  0  0  0  0  0  0  0  0  0  0
   -0.1970    2.6590    2.6380 C   0  0  0  0  0  0  0  0  0  0  0  0
   -1.1620    2.9210    3.5370 N   0  0  0  0  0  0  0  0  0  0  0  0
   -2.3670    2.5240    3.0900 C   0  0  0  0  0  0  0  0  0  0  0  0
   -3.6370    2.5700    3.6250 C   0  0  0  0  0  0  0  0  0  0  0  0
   -4.7100    2.0750    2.9190 C   0  0  0  0  0  0  0  0  0  0  0  0
   -4.4860    1.5350    1.6710 C   0  0  0  0  0  0  0  0  0  0  0  0
   -3.2110    1.4940    1.1460 C   0  0  0  0  0  0  0  0  0  0  0  0
   -2.1220    1.9830    1.8330 C   0  0  0  0  0  0  0  0  0  0  0  0
    0.4660   -0.4490   -1.0180 C   0  0  0  0  0  0  0  0  0  0  0  0
    1.4920   -1.1650   -1.0950 O   0  0  0  0  0  0  0  0  0  0  0  0
    1.8150    0.0360    1.4310 H   0  0  0  0  0  0  0  0  0  0  0  0
   -1.0310   -0.3270    0.4460 H   0  0  0  0  0  0  0  0  0  0  0  0
    0.8920    2.0610    0.2260 H   0  0  0  0  0  0  0  0  0  0  0  0
   -0.7660    1.9110   -0.5630 H   0  0  0  0  0  0  0  0  0  0  0  0
    0.8500    2.8750    2.7450 H   0  0  0  0  0  0  0  0  0  0  0  0
   -1.0030    3.3720    4.4610 H   0  0  0  0  0  0  0  0  0  0  0  0
   -3.8350    2.9880    4.6000 H   0  0  0  0  0  0  0  0  0  0  0  0
   -5.7320    2.1040    3.3320 H   0  0  0  0  0  0  0  0  0  0  0  0
   -5.2760    1.1280    1.0600 H   0  0  0  0  0  0  0  0  0  0  0  0
   -2.9970    1.0710    0.1560 H   0  0  0  0  0  0  0  0  0  0  0  0
   -0.2650   -0.1400   -2.1830 N   0  0  0  0  0  0  0  0  0  0  0  0
    0.1230   -0.6230   -3.4850 C   0  0  1  0  0  0  0  0  0  0  0  0
   -0.9480   -1.4870   -4.1140 C   0  0  0  0  0  0  0  0  0  0  0  0
   -1.2380   -2.6740   -3.2670 C   0  0  0  0  0  0  0  0  0  0  0  0
   -0.5730   -3.8640   -3.4100 C   0  0  0  0  0  0  0  0  0  0  0  0
   -0.8310   -4.9760   -2.6290 C   0  0  0  0  0  0  0  0  0  0  0  0
   -1.8010   -4.9010   -1.6550 C   0  0  0  0  0  0  0  0  0  0  0  0
   -2.4860   -3.6970   -1.4990 C   0  0  0  0  0  0  0  0  0  0  0  0
   -2.2170   -2.6110   -2.2790 C   0  0  0  0  0  0  0  0  0  0  0  0
    0.4990    0.5010   -4.3850 C   0  0  0  0  0  0  0  0  0  0  0  0
    0.8760    0.3240   -5.5660 O   0  0  0  0  0  0  0  0  0  0  0  0
    0.4300    1.7950   -3.9010 O   0  0  0  0  0  0  0  0  0  0  0  0
   -1.1080    0.4530   -2.1080 H   0  0  0  0  0  0  0  0  0  0  0  0
    1.0400   -1.2540   -3.3800 H   0  0  0  0  0  0  0  0  0  0  0  0
   -1.8660   -0.9440   -4.3420 H   0  0  0  0  0  0  0  0  0  0  0  0
   -0.4960   -1.8950   -5.0660 H   0  0  0  0  0  0  0  0  0  0  0  0
    0.2130   -3.9790   -4.1730 H   0  0  0  0  0  0  0  0  0  0  0  0
   -0.2990   -5.9130   -2.7490 H   0  0  0  0  0  0  0  0  0  0  0  0
   -2.0400   -5.7370   -1.0220 H   0  0  0  0  0  0  0  0  0  0  0  0
   -3.2580   -3.6380   -0.7230 H   0  0  0  0  0  0  0  0  0  0  0  0
   -2.7650   -1.6900   -2.1340 H   0  0  0  0  0  0  0  0  0  0  0  0
  1 11  1  0  0  0  0
  1 12  1  0  0  0  0
  2 13  1  1  0  0  0
  2  1  1  0  0  0  0
  3  2  1  0  0  0  0
  3 15  1  0  0  0  0
  4  5  2  0  0  0  0
  4  3  1  0  0  0  0
  5 16  1  0  0  0  0
  6  5  1  0  0  0  0
  7  8  2  0  0  0  0
  7  6  1  0  0  0  0
  8  4  1  0  0  0  0
  9  2  1  0  0  0  0
 10  9  2  0  0  0  0
 14  3  1  0  0  0  0
 17  6  1  0  0  0  0
 18  7  1  0  0  0  0
 19 33  1  0  0  0  0
 19  9  1  0  0  0  0
 20 21  1  0  0  0  0
 20 34  1  1  0  0  0
 20 19  1  0  0  0  0
 21 22  1  0  0  0  0
 22 30  1  0  0  0  0
 22 23  2  0  0  0  0
 23 37  1  0  0  0  0
 23 24  1  0  0  0  0
 24 38  1  0  0  0  0
 25 24  1  0  0  0  0
 25 26  1  0  0  0  0
 26 39  1  0  0  0  0
 27 40  1  0  0  0  0
 27 26  2  0  0  0  0
 28 27  1  0  0  0  0
 29 28  2  0  0  0  0
 29 30  1  0  0  0  0
 30 25  2  0  0  0  0
 31 20  1  0  0  0  0
 32 31  2  0  0  0  0
 35 21  1  0  0  0  0
 36 21  1  0  0  0  0
 41 28  1  0  0  0  0
 42 29  1  0  0  0  0
 43 55  1  0  0  0  0
 43 31  1  0  0  0  0
 44 56  1  1  0  0  0
 44 43  1  0  0  0  0
 45 44  1  0  0  0  0
 45 46  1  0  0  0  0
 46 51  1  0  0  0  0
 47 46  2  0  0  0  0
 47 48  1  0  0  0  0
 48 49  2  0  0  0  0
 49 50  1  0  0  0  0
 49 61  1  0  0  0  0
 50 62  1  0  0  0  0
 51 63  1  0  0  0  0
 51 50  2  0  0  0  0
 52 54  1  0  0  0  0
 52 44  1  0  0  0  0
 53 52  2  0  0  0  0
 57 45  1  0  0  0  0
 58 45  1  0  0  0  0
 59 47  1  0  0  0  0
 60 48  1  0  0  0  0
M  END
$$$$
