HWG.pdb
 OpenBabel07022418383D

 50 52  0  0  1  0  0  0  0  0999 V2000
   -1.8810   -2.9230    1.3600 N   0  0  0  0  0  0  0  0  0  0  0  0
   -0.5430   -2.6390    1.9400 C   0  0  1  0  0  0  0  0  0  0  0  0
    0.2010   -3.9100    1.8720 C   0  0  0  0  0  0  0  0  0  0  0  0
    1.5520   -3.9400    2.4480 C   0  0  0  0  0  0  0  0  0  0  0  0
    2.2970   -3.0520    3.1510 C   0  0  0  0  0  0  0  0  0  0  0  0
    3.4710   -3.6040    3.4840 N   0  0  0  0  0  0  0  0  0  0  0  0
    3.4670   -4.8490    2.9900 C   0  0  0  0  0  0  0  0  0  0  0  0
    2.3120   -5.0780    2.3560 N   0  0  0  0  0  0  0  0  0  0  0  0
   -0.0020   -1.5790    1.0200 C   0  0  0  0  0  0  0  0  0  0  0  0
    1.2200   -1.3040    1.0700 O   0  0  0  0  0  0  0  0  0  0  0  0
   -2.6060   -2.9570    2.0940 H   0  0  0  0  0  0  0  0  0  0  0  0
   -1.8500   -3.7310    0.7300 H   0  0  0  0  0  0  0  0  0  0  0  0
   -0.7220   -2.2770    2.9520 H   0  0  0  0  0  0  0  0  0  0  0  0
    0.2580   -4.2410    0.8030 H   0  0  0  0  0  0  0  0  0  0  0  0
   -0.4010   -4.6910    2.3840 H   0  0  0  0  0  0  0  0  0  0  0  0
    1.9950   -2.0450    3.4310 H   0  0  0  0  0  0  0  0  0  0  0  0
    4.2690   -3.1590    4.0350 H   0  0  0  0  0  0  0  0  0  0  0  0
    4.2990   -5.5590    3.1010 H   0  0  0  0  0  0  0  0  0  0  0  0
   -0.8530   -0.9040    0.1200 N   0  0  0  0  0  0  0  0  0  0  0  0
   -0.3650    0.1220   -0.7630 C   0  0  1  0  0  0  0  0  0  0  0  0
    0.3380    1.1790    0.0610 C   0  0  0  0  0  0  0  0  0  0  0  0
   -0.6100    1.7650    1.0590 C   0  0  0  0  0  0  0  0  0  0  0  0
   -0.6700    1.4790    2.4190 C   0  0  0  0  0  0  0  0  0  0  0  0
   -1.6580    2.2040    2.9670 N   0  0  0  0  0  0  0  0  0  0  0  0
   -2.2480    2.9550    2.0130 C   0  0  0  0  0  0  0  0  0  0  0  0
   -3.3030    3.8620    2.0730 C   0  0  0  0  0  0  0  0  0  0  0  0
   -3.7010    4.4950    0.9320 C   0  0  0  0  0  0  0  0  0  0  0  0
   -3.0560    4.2320   -0.2690 C   0  0  0  0  0  0  0  0  0  0  0  0
   -2.0120    3.3330   -0.3250 C   0  0  0  0  0  0  0  0  0  0  0  0
   -1.6030    2.6890    0.8250 C   0  0  0  0  0  0  0  0  0  0  0  0
    0.4920   -0.4900   -1.7950 C   0  0  0  0  0  0  0  0  0  0  0  0
    1.0650    0.2540   -2.6490 O   0  0  0  0  0  0  0  0  0  0  0  0
   -1.8930   -1.1550    0.0850 H   0  0  0  0  0  0  0  0  0  0  0  0
   -1.2420    0.6310   -1.2810 H   0  0  0  0  0  0  0  0  0  0  0  0
    1.2360    0.8240    0.5550 H   0  0  0  0  0  0  0  0  0  0  0  0
    0.6420    2.0110   -0.6360 H   0  0  0  0  0  0  0  0  0  0  0  0
    0.0060    0.7750    2.8860 H   0  0  0  0  0  0  0  0  0  0  0  0
   -1.9560    2.2160    3.9570 H   0  0  0  0  0  0  0  0  0  0  0  0
   -3.7850    4.0460    3.0180 H   0  0  0  0  0  0  0  0  0  0  0  0
   -4.5110    5.2100    0.9050 H   0  0  0  0  0  0  0  0  0  0  0  0
   -3.3900    4.7490   -1.1690 H   0  0  0  0  0  0  0  0  0  0  0  0
   -1.5030    3.1200   -1.2500 H   0  0  0  0  0  0  0  0  0  0  0  0
    0.7020   -1.8840   -1.8700 N   0  0  0  0  0  0  0  0  0  0  0  0
    1.5530   -2.4830   -2.8940 C   0  0  0  0  0  0  0  0  0  0  0  0
    2.9440   -1.9790   -2.7990 C   0  0  0  0  0  0  0  0  0  0  0  0
    3.8200   -2.3760   -3.5910 O   0  0  0  0  0  0  0  0  0  0  0  0
    3.3240   -1.0550   -1.8360 O   0  0  0  0  0  0  0  0  0  0  0  0
    0.2480   -2.5280   -1.1940 H   0  0  0  0  0  0  0  0  0  0  0  0
    1.5530   -3.5790   -2.8070 H   0  0  0  0  0  0  0  0  0  0  0  0
    1.1130   -2.1650   -3.8780 H   0  0  0  0  0  0  0  0  0  0  0  0
  1  2  1  0  0  0  0
  1 11  1  0  0  0  0
  2 13  1  1  0  0  0
  3  2  1  0  0  0  0
  3 15  1  0  0  0  0
  3  4  1  0  0  0  0
  4  5  2  0  0  0  0
  5 16  1  0  0  0  0
  5  6  1  0  0  0  0
  6 17  1  0  0  0  0
  7 18  1  0  0  0  0
  7  6  1  0  0  0  0
  8  4  1  0  0  0  0
  8  7  2  0  0  0  0
  9 10  2  0  0  0  0
  9  2  1  0  0  0  0
 12  1  1  0  0  0  0
 14  3  1  0  0  0  0
 19  9  1  0  0  0  0
 20 34  1  6  0  0  0
 20 21  1  0  0  0  0
 20 19  1  0  0  0  0
 21 35  1  0  0  0  0
 21 22  1  0  0  0  0
 22 23  2  0  0  0  0
 23 37  1  0  0  0  0
 23 24  1  0  0  0  0
 24 38  1  0  0  0  0
 25 26  1  0  0  0  0
 25 24  1  0  0  0  0
 26 39  1  0  0  0  0
 27 26  2  0  0  0  0
 28 27  1  0  0  0  0
 29 28  2  0  0  0  0
 29 30  1  0  0  0  0
 30 22  1  0  0  0  0
 30 25  2  0  0  0  0
 31 20  1  0  0  0  0
 32 31  2  0  0  0  0
 33 19  1  0  0  0  0
 36 21  1  0  0  0  0
 40 27  1  0  0  0  0
 41 28  1  0  0  0  0
 42 29  1  0  0  0  0
 43 31  1  0  0  0  0
 43 48  1  0  0  0  0
 44 49  1  0  0  0  0
 44 45  1  0  0  0  0
 44 43  1  0  0  0  0
 45 47  1  0  0  0  0
 46 45  2  0  0  0  0
 50 44  1  0  0  0  0
M  END
$$$$
