HWH.pdb
 OpenBabel07022418393D

 60 63  0  0  1  0  0  0  0  0999 V2000
    1.6430   -3.5360    1.1790 N   0  0  0  0  0  0  0  0  0  0  0  0
    2.3820   -2.3710    1.6510 C   0  0  1  0  0  0  0  0  0  0  0  0
    3.8430   -2.5790    1.3290 C   0  0  0  0  0  0  0  0  0  0  0  0
    4.6030   -1.4010    1.8040 C   0  0  0  0  0  0  0  0  0  0  0  0
    5.1650   -1.2100    3.0420 C   0  0  0  0  0  0  0  0  0  0  0  0
    5.7770   -0.0100    3.1030 N   0  0  0  0  0  0  0  0  0  0  0  0
    5.5940    0.5580    1.8880 C   0  0  0  0  0  0  0  0  0  0  0  0
    4.8890   -0.2680    1.0960 N   0  0  0  0  0  0  0  0  0  0  0  0
    1.8230   -1.1210    1.0770 C   0  0  0  0  0  0  0  0  0  0  0  0
    2.2800    0.0110    1.3800 O   0  0  0  0  0  0  0  0  0  0  0  0
    1.7050   -3.6290    0.1390 H   0  0  0  0  0  0  0  0  0  0  0  0
    0.6390   -3.4610    1.4570 H   0  0  0  0  0  0  0  0  0  0  0  0
    2.2830   -2.3430    2.7490 H   0  0  0  0  0  0  0  0  0  0  0  0
    4.1780   -3.4960    1.8430 H   0  0  0  0  0  0  0  0  0  0  0  0
    3.9970   -2.6930    0.2380 H   0  0  0  0  0  0  0  0  0  0  0  0
    5.1550   -1.8880    3.8870 H   0  0  0  0  0  0  0  0  0  0  0  0
    6.2930    0.4360    3.8850 H   0  0  0  0  0  0  0  0  0  0  0  0
    5.9450    1.5260    1.5600 H   0  0  0  0  0  0  0  0  0  0  0  0
    0.7460   -1.1480    0.1580 N   0  0  0  0  0  0  0  0  0  0  0  0
    0.1560    0.0400   -0.4370 C   0  0  1  0  0  0  0  0  0  0  0  0
    0.3550    0.1460   -1.8860 C   0  0  0  0  0  0  0  0  0  0  0  0
   -0.1340   -0.9030   -2.7600 C   0  0  0  0  0  0  0  0  0  0  0  0
    0.6680   -1.9750   -3.1810 C   0  0  0  0  0  0  0  0  0  0  0  0
   -0.0350   -2.8040   -3.9420 N   0  0  0  0  0  0  0  0  0  0  0  0
   -1.2900   -2.2750   -4.0170 C   0  0  0  0  0  0  0  0  0  0  0  0
   -2.4230   -2.7090   -4.6820 C   0  0  0  0  0  0  0  0  0  0  0  0
   -3.6250   -2.0410   -4.6690 C   0  0  0  0  0  0  0  0  0  0  0  0
   -3.6710   -0.8730   -3.9400 C   0  0  0  0  0  0  0  0  0  0  0  0
   -2.5740   -0.4080   -3.2670 C   0  0  0  0  0  0  0  0  0  0  0  0
   -1.3690   -1.1060   -3.2970 C   0  0  0  0  0  0  0  0  0  0  0  0
   -1.1700    0.3260    0.1240 C   0  0  0  0  0  0  0  0  0  0  0  0
   -1.9110    1.2710   -0.1980 O   0  0  0  0  0  0  0  0  0  0  0  0
    0.3230   -2.0620   -0.1340 H   0  0  0  0  0  0  0  0  0  0  0  0
    0.8060    0.9030    0.0080 H   0  0  0  0  0  0  0  0  0  0  0  0
   -0.0830    1.1330   -2.2200 H   0  0  0  0  0  0  0  0  0  0  0  0
    1.4700    0.3230   -2.0540 H   0  0  0  0  0  0  0  0  0  0  0  0
    1.7230   -2.1230   -2.9320 H   0  0  0  0  0  0  0  0  0  0  0  0
    0.2330   -3.6950   -4.4230 H   0  0  0  0  0  0  0  0  0  0  0  0
   -2.3970   -3.6390   -5.2660 H   0  0  0  0  0  0  0  0  0  0  0  0
   -4.5050   -2.4170   -5.2090 H   0  0  0  0  0  0  0  0  0  0  0  0
   -4.5880   -0.2960   -3.8900 H   0  0  0  0  0  0  0  0  0  0  0  0
   -2.5940    0.5240   -2.6900 H   0  0  0  0  0  0  0  0  0  0  0  0
   -1.6940   -0.5510    1.1620 N   0  0  0  0  0  0  0  0  0  0  0  0
   -2.9710   -0.2800    1.7520 C   0  0  1  0  0  0  0  0  0  0  0  0
   -3.0360    0.9470    2.5950 C   0  0  0  0  0  0  0  0  0  0  0  0
   -2.1460    0.9530    3.7660 C   0  0  0  0  0  0  0  0  0  0  0  0
   -1.2990   -0.0260    4.2050 C   0  0  0  0  0  0  0  0  0  0  0  0
   -0.6570    0.3630    5.3470 N   0  0  0  0  0  0  0  0  0  0  0  0
   -1.1210    1.5830    5.5970 C   0  0  0  0  0  0  0  0  0  0  0  0
   -2.0100    1.9660    4.6750 N   0  0  0  0  0  0  0  0  0  0  0  0
   -4.0940   -0.3670    0.7840 C   0  0  0  0  0  0  0  0  0  0  0  0
   -3.9290   -0.6650   -0.4190 O   0  0  0  0  0  0  0  0  0  0  0  0
   -5.4060   -0.1170    1.1780 O   0  0  0  0  0  0  0  0  0  0  0  0
   -1.1170   -1.3770    1.4470 H   0  0  0  0  0  0  0  0  0  0  0  0
   -3.1550   -1.1490    2.4710 H   0  0  0  0  0  0  0  0  0  0  0  0
   -4.0860    1.2110    2.8590 H   0  0  0  0  0  0  0  0  0  0  0  0
   -2.6860    1.7980    1.9300 H   0  0  0  0  0  0  0  0  0  0  0  0
   -1.1480   -0.9840    3.7340 H   0  0  0  0  0  0  0  0  0  0  0  0
    0.0350   -0.2310    5.8500 H   0  0  0  0  0  0  0  0  0  0  0  0
   -0.7870    2.1690    6.4660 H   0  0  0  0  0  0  0  0  0  0  0  0
  1 12  1  0  0  0  0
  1  2  1  0  0  0  0
  2 13  1  1  0  0  0
  3  2  1  0  0  0  0
  3  4  1  0  0  0  0
  3 14  1  0  0  0  0
  4  5  2  0  0  0  0
  5  6  1  0  0  0  0
  5 16  1  0  0  0  0
  6 17  1  0  0  0  0
  7  6  1  0  0  0  0
  8  4  1  0  0  0  0
  8  7  2  0  0  0  0
  9 10  2  0  0  0  0
  9  2  1  0  0  0  0
 11  1  1  0  0  0  0
 15  3  1  0  0  0  0
 18  7  1  0  0  0  0
 19  9  1  0  0  0  0
 20 34  1  1  0  0  0
 20 31  1  0  0  0  0
 20 19  1  0  0  0  0
 21 20  1  0  0  0  0
 22 21  1  0  0  0  0
 23 37  1  0  0  0  0
 23 22  2  0  0  0  0
 24 23  1  0  0  0  0
 25 24  1  0  0  0  0
 25 30  1  0  0  0  0
 26 27  1  0  0  0  0
 26 25  2  0  0  0  0
 27 28  2  0  0  0  0
 28 41  1  0  0  0  0
 28 29  1  0  0  0  0
 29 42  1  0  0  0  0
 30 29  2  0  0  0  0
 30 22  1  0  0  0  0
 31 43  1  0  0  0  0
 32 31  2  0  0  0  0
 33 19  1  0  0  0  0
 35 21  1  0  0  0  0
 36 21  1  0  0  0  0
 38 24  1  0  0  0  0
 39 26  1  0  0  0  0
 40 27  1  0  0  0  0
 43 54  1  0  0  0  0
 43 44  1  0  0  0  0
 44 55  1  1  0  0  0
 44 45  1  0  0  0  0
 45 56  1  0  0  0  0
 45 46  1  0  0  0  0
 46 47  2  0  0  0  0
 46 50  1  0  0  0  0
 47 48  1  0  0  0  0
 48 49  1  0  0  0  0
 48 59  1  0  0  0  0
 49 60  1  0  0  0  0
 50 49  2  0  0  0  0
 51 53  1  0  0  0  0
 51 44  1  0  0  0  0
 52 51  2  0  0  0  0
 57 45  1  0  0  0  0
 58 47  1  0  0  0  0
M  END
$$$$
