HWK.pdb
 OpenBabel07022418393D

 64 66  0  0  1  0  0  0  0  0999 V2000
    3.4500    0.8770    1.2410 N   0  0  0  0  0  0  0  0  0  0  0  0
    2.7750   -0.2310    1.8370 C   0  0  1  0  0  0  0  0  0  0  0  0
    2.6840   -0.1440    3.3360 C   0  0  0  0  0  0  0  0  0  0  0  0
    4.0090   -0.0930    3.9830 C   0  0  0  0  0  0  0  0  0  0  0  0
    4.7200    1.0450    4.2700 C   0  0  0  0  0  0  0  0  0  0  0  0
    5.8580    0.6640    4.8480 N   0  0  0  0  0  0  0  0  0  0  0  0
    5.8580   -0.6650    4.9190 C   0  0  0  0  0  0  0  0  0  0  0  0
    4.7230   -1.1490    4.3890 N   0  0  0  0  0  0  0  0  0  0  0  0
    1.3940   -0.4130    1.3000 C   0  0  0  0  0  0  0  0  0  0  0  0
    0.6560   -1.3500    1.7140 O   0  0  0  0  0  0  0  0  0  0  0  0
    4.3250    1.0460    1.7990 H   0  0  0  0  0  0  0  0  0  0  0  0
    3.7610    0.6350    0.2740 H   0  0  0  0  0  0  0  0  0  0  0  0
    3.4000   -1.1460    1.6200 H   0  0  0  0  0  0  0  0  0  0  0  0
    2.0390    0.7280    3.5910 H   0  0  0  0  0  0  0  0  0  0  0  0
    2.0950   -1.0490    3.6660 H   0  0  0  0  0  0  0  0  0  0  0  0
    4.3920    2.0710    4.0550 H   0  0  0  0  0  0  0  0  0  0  0  0
    6.6000    1.3370    5.1750 H   0  0  0  0  0  0  0  0  0  0  0  0
    6.6340   -1.3070    5.3330 H   0  0  0  0  0  0  0  0  0  0  0  0
    0.8220    0.4340    0.3060 N   0  0  0  0  0  0  0  0  0  0  0  0
   -0.5150    0.2460   -0.2070 C   0  0  1  0  0  0  0  0  0  0  0  0
   -1.3840    1.4770    0.1020 C   0  0  0  0  0  0  0  0  0  0  0  0
   -1.4660    1.6970    1.5670 C   0  0  0  0  0  0  0  0  0  0  0  0
   -0.8350    2.6180    2.3760 C   0  0  0  0  0  0  0  0  0  0  0  0
   -1.2190    2.4400    3.6610 N   0  0  0  0  0  0  0  0  0  0  0  0
   -2.0900    1.4230    3.7240 C   0  0  0  0  0  0  0  0  0  0  0  0
   -2.7690    0.8450    4.7660 C   0  0  0  0  0  0  0  0  0  0  0  0
   -3.6120   -0.2070    4.5080 C   0  0  0  0  0  0  0  0  0  0  0  0
   -3.7890   -0.6890    3.2340 C   0  0  0  0  0  0  0  0  0  0  0  0
   -3.1050   -0.1060    2.1900 C   0  0  0  0  0  0  0  0  0  0  0  0
   -2.2590    0.9480    2.4450 C   0  0  0  0  0  0  0  0  0  0  0  0
   -0.4610    0.0120   -1.6690 C   0  0  0  0  0  0  0  0  0  0  0  0
    0.6580    0.0150   -2.2390 O   0  0  0  0  0  0  0  0  0  0  0  0
    1.4130    1.2150   -0.0510 H   0  0  0  0  0  0  0  0  0  0  0  0
   -1.0270   -0.6200    0.2580 H   0  0  0  0  0  0  0  0  0  0  0  0
   -0.9020    2.3740   -0.3650 H   0  0  0  0  0  0  0  0  0  0  0  0
   -2.3770    1.3680   -0.3580 H   0  0  0  0  0  0  0  0  0  0  0  0
   -0.1450    3.3600    2.0300 H   0  0  0  0  0  0  0  0  0  0  0  0
   -0.8940    3.0040    4.5010 H   0  0  0  0  0  0  0  0  0  0  0  0
   -2.6730    1.1790    5.7950 H   0  0  0  0  0  0  0  0  0  0  0  0
   -4.1580   -0.6800    5.3080 H   0  0  0  0  0  0  0  0  0  0  0  0
   -4.4600   -1.5290    3.0210 H   0  0  0  0  0  0  0  0  0  0  0  0
   -3.2340   -0.4760    1.1720 H   0  0  0  0  0  0  0  0  0  0  0  0
   -1.5970   -0.2170   -2.4700 N   0  0  0  0  0  0  0  0  0  0  0  0
   -1.5400   -0.4450   -3.9000 C   0  0  1  0  0  0  0  0  0  0  0  0
   -2.0660   -1.8730   -4.1090 C   0  0  0  0  0  0  0  0  0  0  0  0
   -1.1770   -2.8590   -3.3500 C   0  0  0  0  0  0  0  0  0  0  0  0
   -1.7340   -4.2500   -3.5860 C   0  0  0  0  0  0  0  0  0  0  0  0
   -0.9140   -5.3000   -2.8690 C   0  0  0  0  0  0  0  0  0  0  0  0
   -0.8800   -5.1060   -1.4530 N   0  0  0  0  0  0  0  0  0  0  0  0
   -2.4490    0.4780   -4.6070 C   0  0  0  0  0  0  0  0  0  0  0  0
   -2.5840    0.4840   -5.8550 O   0  0  0  0  0  0  0  0  0  0  0  0
   -3.1900    1.3830   -3.8680 O   0  0  0  0  0  0  0  0  0  0  0  0
   -2.5280   -0.2230   -2.0130 H   0  0  0  0  0  0  0  0  0  0  0  0
   -0.4860   -0.3930   -4.2650 H   0  0  0  0  0  0  0  0  0  0  0  0
   -2.1460   -2.1170   -5.1720 H   0  0  0  0  0  0  0  0  0  0  0  0
   -3.0600   -1.9060   -3.6310 H   0  0  0  0  0  0  0  0  0  0  0  0
   -0.1580   -2.8020   -3.7800 H   0  0  0  0  0  0  0  0  0  0  0  0
   -1.1590   -2.5860   -2.2970 H   0  0  0  0  0  0  0  0  0  0  0  0
   -1.7240   -4.5110   -4.6630 H   0  0  0  0  0  0  0  0  0  0  0  0
   -2.7720   -4.3310   -3.2330 H   0  0  0  0  0  0  0  0  0  0  0  0
    0.1500   -5.2610   -3.2470 H   0  0  0  0  0  0  0  0  0  0  0  0
   -1.2800   -6.3130   -3.1080 H   0  0  0  0  0  0  0  0  0  0  0  0
   -1.7490   -4.6720   -1.0600 H   0  0  0  0  0  0  0  0  0  0  0  0
   -0.6600   -5.9930   -0.9500 H   0  0  0  0  0  0  0  0  0  0  0  0
  1 11  1  0  0  0  0
  1  2  1  0  0  0  0
  2 13  1  6  0  0  0
  2  3  1  0  0  0  0
  3 14  1  0  0  0  0
  3 15  1  0  0  0  0
  3  4  1  0  0  0  0
  4  5  2  0  0  0  0
  4  8  1  0  0  0  0
  5  6  1  0  0  0  0
  6  7  1  0  0  0  0
  6 17  1  0  0  0  0
  7 18  1  0  0  0  0
  8  7  2  0  0  0  0
  9 10  2  0  0  0  0
  9  2  1  0  0  0  0
 12  1  1  0  0  0  0
 16  5  1  0  0  0  0
 19  9  1  0  0  0  0
 20 21  1  0  0  0  0
 20 34  1  1  0  0  0
 20 19  1  0  0  0  0
 21 22  1  0  0  0  0
 22 23  2  0  0  0  0
 22 30  1  0  0  0  0
 23 24  1  0  0  0  0
 24 25  1  0  0  0  0
 24 38  1  0  0  0  0
 25 26  1  0  0  0  0
 26 39  1  0  0  0  0
 27 26  2  0  0  0  0
 27 40  1  0  0  0  0
 28 27  1  0  0  0  0
 29 30  1  0  0  0  0
 29 28  2  0  0  0  0
 30 25  2  0  0  0  0
 31 20  1  0  0  0  0
 32 31  2  0  0  0  0
 33 19  1  0  0  0  0
 35 21  1  0  0  0  0
 36 21  1  0  0  0  0
 37 23  1  0  0  0  0
 41 28  1  0  0  0  0
 42 29  1  0  0  0  0
 43 53  1  0  0  0  0
 43 31  1  0  0  0  0
 44 54  1  6  0  0  0
 44 43  1  0  0  0  0
 45 44  1  0  0  0  0
 45 56  1  0  0  0  0
 45 46  1  0  0  0  0
 46 58  1  0  0  0  0
 47 46  1  0  0  0  0
 47 60  1  0  0  0  0
 47 48  1  0  0  0  0
 48 49  1  0  0  0  0
 49 63  1  0  0  0  0
 49 64  1  0  0  0  0
 50 44  1  0  0  0  0
 50 52  1  0  0  0  0
 51 50  2  0  0  0  0
 55 45  1  0  0  0  0
 57 46  1  0  0  0  0
 59 47  1  0  0  0  0
 61 48  1  0  0  0  0
 62 48  1  0  0  0  0
M  END
$$$$
