HWQ.pdb
 OpenBabel07022418383D

 60 62  0  0  1  0  0  0  0  0999 V2000
    3.6480   -0.6070    1.0060 N   0  0  0  0  0  0  0  0  0  0  0  0
    3.1730   -1.0060    2.3140 C   0  0  1  0  0  0  0  0  0  0  0  0
    3.8050   -0.2260    3.4440 C   0  0  0  0  0  0  0  0  0  0  0  0
    5.2630   -0.3480    3.5210 C   0  0  0  0  0  0  0  0  0  0  0  0
    6.1870    0.4550    2.9090 C   0  0  0  0  0  0  0  0  0  0  0  0
    7.4060    0.0030    3.2390 N   0  0  0  0  0  0  0  0  0  0  0  0
    7.2350   -1.0630    4.0430 C   0  0  0  0  0  0  0  0  0  0  0  0
    5.9230   -1.2800    4.2160 N   0  0  0  0  0  0  0  0  0  0  0  0
    1.6990   -0.7540    2.4150 C   0  0  0  0  0  0  0  0  0  0  0  0
    1.0960   -0.9860    3.4950 O   0  0  0  0  0  0  0  0  0  0  0  0
    4.5870   -1.0550    0.8420 H   0  0  0  0  0  0  0  0  0  0  0  0
    3.6920    0.4410    0.8980 H   0  0  0  0  0  0  0  0  0  0  0  0
    3.4330   -2.0640    2.4490 H   0  0  0  0  0  0  0  0  0  0  0  0
    3.3160   -0.6130    4.3830 H   0  0  0  0  0  0  0  0  0  0  0  0
    3.4820    0.8500    3.3770 H   0  0  0  0  0  0  0  0  0  0  0  0
    6.0100    1.3230    2.2580 H   0  0  0  0  0  0  0  0  0  0  0  0
    8.3400    0.4090    2.9260 H   0  0  0  0  0  0  0  0  0  0  0  0
    8.0720   -1.6310    4.4620 H   0  0  0  0  0  0  0  0  0  0  0  0
    0.9400   -0.2580    1.3370 N   0  0  0  0  0  0  0  0  0  0  0  0
   -0.5130   -0.0080    1.4480 C   0  0  1  0  0  0  0  0  0  0  0  0
   -0.7990    1.4380    1.2420 C   0  0  0  0  0  0  0  0  0  0  0  0
   -2.2110    1.8360    1.2910 C   0  0  0  0  0  0  0  0  0  0  0  0
   -2.9120    2.2910    2.4160 C   0  0  0  0  0  0  0  0  0  0  0  0
   -4.1900    2.5250    2.0840 N   0  0  0  0  0  0  0  0  0  0  0  0
   -4.3950    2.2470    0.7610 C   0  0  0  0  0  0  0  0  0  0  0  0
   -5.5160    2.3430   -0.0320 C   0  0  0  0  0  0  0  0  0  0  0  0
   -5.4360    2.0110   -1.3620 C   0  0  0  0  0  0  0  0  0  0  0  0
   -4.2080    1.5850   -1.8590 C   0  0  0  0  0  0  0  0  0  0  0  0
   -3.1030    1.4950   -1.0500 C   0  0  0  0  0  0  0  0  0  0  0  0
   -3.1610    1.8230    0.2890 C   0  0  0  0  0  0  0  0  0  0  0  0
   -1.2400   -0.9740    0.6330 C   0  0  0  0  0  0  0  0  0  0  0  0
   -2.4940   -1.0140    0.6830 O   0  0  0  0  0  0  0  0  0  0  0  0
    1.4010   -0.0590    0.4360 H   0  0  0  0  0  0  0  0  0  0  0  0
   -0.8200   -0.2350    2.5230 H   0  0  0  0  0  0  0  0  0  0  0  0
   -0.4110    1.8130    0.2590 H   0  0  0  0  0  0  0  0  0  0  0  0
   -0.2660    2.0570    2.0100 H   0  0  0  0  0  0  0  0  0  0  0  0
   -2.4330    2.4110    3.3760 H   0  0  0  0  0  0  0  0  0  0  0  0
   -4.9600    2.8680    2.6970 H   0  0  0  0  0  0  0  0  0  0  0  0
   -6.4610    2.6720    0.3570 H   0  0  0  0  0  0  0  0  0  0  0  0
   -6.2970    2.0730   -2.0250 H   0  0  0  0  0  0  0  0  0  0  0  0
   -4.1760    1.3310   -2.9070 H   0  0  0  0  0  0  0  0  0  0  0  0
   -2.1290    1.1620   -1.4220 H   0  0  0  0  0  0  0  0  0  0  0  0
   -2.2790   -5.8230   -3.9370 N   0  0  0  0  0  0  0  0  0  0  0  0
   -1.4240   -4.7640   -3.5410 C   0  0  0  0  0  0  0  0  0  0  0  0
   -0.2180   -5.0210   -3.2720 O   0  0  0  0  0  0  0  0  0  0  0  0
   -1.8950   -3.3740   -3.4400 C   0  0  0  0  0  0  0  0  0  0  0  0
   -1.1980   -2.5190   -2.4480 C   0  0  0  0  0  0  0  0  0  0  0  0
   -1.4440   -2.8600   -1.0380 C   0  0  2  0  0  0  0  0  0  0  0  0
   -0.6160   -1.8990   -0.2380 N   0  0  0  0  0  0  0  0  0  0  0  0
   -1.1510   -4.2180   -0.6350 C   0  0  0  0  0  0  0  0  0  0  0  0
   -1.8510   -5.2480   -0.9070 O   0  0  0  0  0  0  0  0  0  0  0  0
    0.0070   -4.4500    0.1240 O   0  0  0  0  0  0  0  0  0  0  0  0
   -2.4920   -6.6470   -3.3010 H   0  0  0  0  0  0  0  0  0  0  0  0
   -2.7520   -5.8680   -4.8630 H   0  0  0  0  0  0  0  0  0  0  0  0
   -2.9970   -3.3690   -3.1350 H   0  0  0  0  0  0  0  0  0  0  0  0
   -1.8380   -2.8700   -4.4570 H   0  0  0  0  0  0  0  0  0  0  0  0
   -1.4270   -1.4340   -2.6780 H   0  0  0  0  0  0  0  0  0  0  0  0
   -0.0760   -2.6650   -2.6490 H   0  0  0  0  0  0  0  0  0  0  0  0
   -2.5230   -2.6590   -0.7750 H   0  0  0  0  0  0  0  0  0  0  0  0
    0.4160   -1.8940   -0.3060 H   0  0  0  0  0  0  0  0  0  0  0  0
  1  2  1  0  0  0  0
  2  9  1  0  0  0  0
  2 13  1  1  0  0  0
  2  3  1  0  0  0  0
  3  4  1  0  0  0  0
  3 14  1  0  0  0  0
  4  8  1  0  0  0  0
  5  6  1  0  0  0  0
  5  4  2  0  0  0  0
  6  7  1  0  0  0  0
  7  8  2  0  0  0  0
  7 18  1  0  0  0  0
  9 10  2  0  0  0  0
 11  1  1  0  0  0  0
 12  1  1  0  0  0  0
 15  3  1  0  0  0  0
 16  5  1  0  0  0  0
 17  6  1  0  0  0  0
 19 20  1  0  0  0  0
 19  9  1  0  0  0  0
 20 34  1  1  0  0  0
 21 22  1  0  0  0  0
 21 20  1  0  0  0  0
 21 36  1  0  0  0  0
 22 23  2  0  0  0  0
 23 37  1  0  0  0  0
 24 23  1  0  0  0  0
 24 38  1  0  0  0  0
 25 24  1  0  0  0  0
 26 39  1  0  0  0  0
 26 25  2  0  0  0  0
 27 26  1  0  0  0  0
 28 27  2  0  0  0  0
 28 29  1  0  0  0  0
 29 30  2  0  0  0  0
 30 25  1  0  0  0  0
 30 22  1  0  0  0  0
 31 32  2  0  0  0  0
 31 20  1  0  0  0  0
 33 19  1  0  0  0  0
 35 21  1  0  0  0  0
 40 27  1  0  0  0  0
 41 28  1  0  0  0  0
 42 29  1  0  0  0  0
 43 44  1  0  0  0  0
 43 53  1  0  0  0  0
 44 46  1  0  0  0  0
 44 45  2  0  0  0  0
 46 55  1  0  0  0  0
 46 47  1  0  0  0  0
 47 48  1  0  0  0  0
 48 59  1  1  0  0  0
 48 50  1  0  0  0  0
 48 49  1  0  0  0  0
 49 31  1  0  0  0  0
 50 52  1  0  0  0  0
 51 50  2  0  0  0  0
 54 43  1  0  0  0  0
 56 46  1  0  0  0  0
 57 47  1  0  0  0  0
 58 47  1  0  0  0  0
 60 49  1  0  0  0  0
M  END
$$$$
