HYC.pdb
 OpenBabel07022418393D

 51 52  0  0  1  0  0  0  0  0999 V2000
    0.4950    0.7330   -1.8560 N   0  0  0  0  0  0  0  0  0  0  0  0
    1.7140   -0.0350   -1.6490 C   0  0  1  0  0  0  0  0  0  0  0  0
    2.8900    0.9080   -1.6270 C   0  0  0  0  0  0  0  0  0  0  0  0
    4.1750    0.2000   -1.4200 C   0  0  0  0  0  0  0  0  0  0  0  0
    4.8530   -0.0890   -0.2570 C   0  0  0  0  0  0  0  0  0  0  0  0
    5.9960   -0.7370   -0.5300 N   0  0  0  0  0  0  0  0  0  0  0  0
    6.0710   -0.8730   -1.8690 C   0  0  0  0  0  0  0  0  0  0  0  0
    4.9740   -0.3080   -2.3990 N   0  0  0  0  0  0  0  0  0  0  0  0
    1.6780   -0.7960   -0.3980 C   0  0  0  0  0  0  0  0  0  0  0  0
    2.5840   -1.5940   -0.0510 O   0  0  0  0  0  0  0  0  0  0  0  0
   -0.2930    0.0220   -1.8410 H   0  0  0  0  0  0  0  0  0  0  0  0
    0.5350    1.0520   -2.8670 H   0  0  0  0  0  0  0  0  0  0  0  0
    1.8360   -0.6720   -2.5580 H   0  0  0  0  0  0  0  0  0  0  0  0
    2.9750    1.4450   -2.5950 H   0  0  0  0  0  0  0  0  0  0  0  0
    2.7880    1.6400   -0.7750 H   0  0  0  0  0  0  0  0  0  0  0  0
    4.5250    0.1640    0.7340 H   0  0  0  0  0  0  0  0  0  0  0  0
    6.7230   -1.0900    0.1300 H   0  0  0  0  0  0  0  0  0  0  0  0
    6.8480   -1.3410   -2.4510 H   0  0  0  0  0  0  0  0  0  0  0  0
   -3.9850    2.7890    3.1450 O   0  0  0  0  0  0  0  0  0  0  0  0
   -2.8410    2.0050    3.0800 C   0  0  0  0  0  0  0  0  0  0  0  0
   -1.6920    2.3990    2.4570 C   0  0  0  0  0  0  0  0  0  0  0  0
   -0.6050    1.5770    2.4320 C   0  0  0  0  0  0  0  0  0  0  0  0
   -0.6280    0.3260    3.0300 C   0  0  0  0  0  0  0  0  0  0  0  0
    0.5690   -0.5600    2.9960 C   0  0  0  0  0  0  0  0  0  0  0  0
    0.5840   -1.4560    1.7770 C   0  0  2  0  0  0  0  0  0  0  0  0
    0.5920   -0.6910    0.5480 N   0  0  0  0  0  0  0  0  0  0  0  0
   -0.5840   -2.3670    1.7190 C   0  0  0  0  0  0  0  0  0  0  0  0
   -0.8210   -3.1600    2.6710 O   0  0  0  0  0  0  0  0  0  0  0  0
   -1.7570   -0.0950    3.6590 C   0  0  0  0  0  0  0  0  0  0  0  0
   -2.8600    0.7620    3.6740 C   0  0  0  0  0  0  0  0  0  0  0  0
   -3.8560    3.8010    3.2160 H   0  0  0  0  0  0  0  0  0  0  0  0
   -1.6930    3.3830    1.9930 H   0  0  0  0  0  0  0  0  0  0  0  0
    0.3270    1.8780    1.9350 H   0  0  0  0  0  0  0  0  0  0  0  0
    1.4480    0.1160    2.9690 H   0  0  0  0  0  0  0  0  0  0  0  0
    0.6710   -1.1510    3.9290 H   0  0  0  0  0  0  0  0  0  0  0  0
    1.4920   -2.0920    1.8750 H   0  0  0  0  0  0  0  0  0  0  0  0
   -0.1930   -0.0470    0.3250 H   0  0  0  0  0  0  0  0  0  0  0  0
   -1.8110   -1.0720    4.1420 H   0  0  0  0  0  0  0  0  0  0  0  0
   -3.7390    0.3760    4.1900 H   0  0  0  0  0  0  0  0  0  0  0  0
   -1.4840   -2.3990    0.6110 N   0  0  0  0  0  0  0  0  0  0  0  0
   -2.6160   -3.2640    0.5250 C   0  0  1  0  0  0  0  0  0  0  0  0
   -3.9310   -2.4840    0.4980 C   0  0  0  0  0  0  0  0  0  0  0  0
   -4.0010   -1.3630   -0.9250 S   0  0  0  0  0  0  0  0  0  0  0  0
   -2.5490   -4.2020   -0.6200 C   0  0  0  0  0  0  0  0  0  0  0  0
   -1.5570   -4.1580   -1.3760 O   0  0  0  0  0  0  0  0  0  0  0  0
   -3.5420   -5.1280   -0.8920 O   0  0  0  0  0  0  0  0  0  0  0  0
   -1.2490   -1.7160   -0.1710 H   0  0  0  0  0  0  0  0  0  0  0  0
   -2.6560   -3.8800    1.4470 H   0  0  0  0  0  0  0  0  0  0  0  0
   -4.0950   -1.9550    1.4570 H   0  0  0  0  0  0  0  0  0  0  0  0
   -4.7820   -3.1880    0.3880 H   0  0  0  0  0  0  0  0  0  0  0  0
   -4.4550   -0.0880   -0.5720 H   0  0  0  0  0  0  0  0  0  0  0  0
  1 11  1  0  0  0  0
  1  2  1  0  0  0  0
  2 13  1  6  0  0  0
  2  3  1  0  0  0  0
  2  9  1  0  0  0  0
  3  4  1  0  0  0  0
  3 15  1  0  0  0  0
  4  5  2  0  0  0  0
  5 16  1  0  0  0  0
  6  5  1  0  0  0  0
  6 17  1  0  0  0  0
  7  6  1  0  0  0  0
  8  7  2  0  0  0  0
  8  4  1  0  0  0  0
  9 10  2  0  0  0  0
  9 26  1  0  0  0  0
 12  1  1  0  0  0  0
 14  3  1  0  0  0  0
 18  7  1  0  0  0  0
 19 31  1  0  0  0  0
 20 19  1  0  0  0  0
 20 30  1  0  0  0  0
 21 20  2  0  0  0  0
 22 21  1  0  0  0  0
 22 23  2  0  0  0  0
 23 29  1  0  0  0  0
 24 23  1  0  0  0  0
 24 35  1  0  0  0  0
 25 36  1  1  0  0  0
 25 24  1  0  0  0  0
 26 25  1  0  0  0  0
 27 25  1  0  0  0  0
 27 28  2  0  0  0  0
 29 30  2  0  0  0  0
 29 38  1  0  0  0  0
 30 39  1  0  0  0  0
 32 21  1  0  0  0  0
 33 22  1  0  0  0  0
 34 24  1  0  0  0  0
 37 26  1  0  0  0  0
 40 27  1  0  0  0  0
 41 40  1  0  0  0  0
 41 48  1  1  0  0  0
 42 41  1  0  0  0  0
 42 49  1  0  0  0  0
 43 51  1  0  0  0  0
 43 42  1  0  0  0  0
 44 41  1  0  0  0  0
 45 44  2  0  0  0  0
 46 44  1  0  0  0  0
 47 40  1  0  0  0  0
 50 42  1  0  0  0  0
M  END
$$$$
