HYG.pdb
 OpenBabel07022418393D

 47 48  0  0  1  0  0  0  0  0999 V2000
    2.4010    0.4100    0.1200 N   0  0  0  0  0  0  0  0  0  0  0  0
    2.4300   -0.9950   -0.1500 C   0  0  1  0  0  0  0  0  0  0  0  0
    3.5390   -1.6030    0.6860 C   0  0  0  0  0  0  0  0  0  0  0  0
    4.8330   -0.9830    0.3180 C   0  0  0  0  0  0  0  0  0  0  0  0
    5.6990   -1.4190   -0.6540 C   0  0  0  0  0  0  0  0  0  0  0  0
    6.7830   -0.5900   -0.6990 N   0  0  0  0  0  0  0  0  0  0  0  0
    6.5860    0.3530    0.2420 C   0  0  0  0  0  0  0  0  0  0  0  0
    5.3950    0.1070    0.8590 N   0  0  0  0  0  0  0  0  0  0  0  0
    1.1460   -1.6760    0.0220 C   0  0  0  0  0  0  0  0  0  0  0  0
    1.0970   -2.9110   -0.1960 O   0  0  0  0  0  0  0  0  0  0  0  0
    1.8600    0.8610   -0.6780 H   0  0  0  0  0  0  0  0  0  0  0  0
    1.9250    0.6870    0.9770 H   0  0  0  0  0  0  0  0  0  0  0  0
    2.7420   -1.1490   -1.2190 H   0  0  0  0  0  0  0  0  0  0  0  0
    3.3290   -1.4900    1.7690 H   0  0  0  0  0  0  0  0  0  0  0  0
    3.6120   -2.7140    0.5130 H   0  0  0  0  0  0  0  0  0  0  0  0
    5.6180   -2.2670   -1.3220 H   0  0  0  0  0  0  0  0  0  0  0  0
    7.6120   -0.6550   -1.3280 H   0  0  0  0  0  0  0  0  0  0  0  0
    7.2150    1.1870    0.5180 H   0  0  0  0  0  0  0  0  0  0  0  0
   -1.8940    3.4880    4.2340 O   0  0  0  0  0  0  0  0  0  0  0  0
   -1.8150    2.2170    3.7110 C   0  0  0  0  0  0  0  0  0  0  0  0
   -0.6220    1.5360    3.6900 C   0  0  0  0  0  0  0  0  0  0  0  0
   -0.5580    0.2570    3.1600 C   0  0  0  0  0  0  0  0  0  0  0  0
   -1.6820   -0.3370    2.6530 C   0  0  0  0  0  0  0  0  0  0  0  0
   -1.6250   -1.6850    2.0920 C   0  0  0  0  0  0  0  0  0  0  0  0
   -1.3130   -1.6830    0.5900 C   0  0  2  0  0  0  0  0  0  0  0  0
   -0.0500   -1.0550    0.4140 N   0  0  0  0  0  0  0  0  0  0  0  0
   -2.4050   -1.1670   -0.2110 C   0  0  0  0  0  0  0  0  0  0  0  0
   -2.2690   -0.2240   -1.0220 O   0  0  0  0  0  0  0  0  0  0  0  0
   -2.8750    0.3310    2.6690 C   0  0  0  0  0  0  0  0  0  0  0  0
   -2.9280    1.5990    3.1970 C   0  0  0  0  0  0  0  0  0  0  0  0
   -2.1370    4.3180    3.7130 H   0  0  0  0  0  0  0  0  0  0  0  0
    0.2570    2.0200    4.0940 H   0  0  0  0  0  0  0  0  0  0  0  0
    0.4210   -0.2400    3.1690 H   0  0  0  0  0  0  0  0  0  0  0  0
   -0.8060   -2.2880    2.5640 H   0  0  0  0  0  0  0  0  0  0  0  0
   -2.5580   -2.2720    2.2720 H   0  0  0  0  0  0  0  0  0  0  0  0
   -1.1620   -2.7800    0.3520 H   0  0  0  0  0  0  0  0  0  0  0  0
    0.0130   -0.0090    0.5930 H   0  0  0  0  0  0  0  0  0  0  0  0
   -3.8020   -0.1000    2.2770 H   0  0  0  0  0  0  0  0  0  0  0  0
   -3.8870    2.1140    3.2000 H   0  0  0  0  0  0  0  0  0  0  0  0
   -3.7110   -1.7260   -0.1070 N   0  0  0  0  0  0  0  0  0  0  0  0
   -4.8230   -1.2460   -0.8830 C   0  0  0  0  0  0  0  0  0  0  0  0
   -4.4880   -1.4170   -2.3230 C   0  0  0  0  0  0  0  0  0  0  0  0
   -5.2870   -1.0750   -3.2310 O   0  0  0  0  0  0  0  0  0  0  0  0
   -3.2810   -1.9620   -2.7180 O   0  0  0  0  0  0  0  0  0  0  0  0
   -3.9040   -2.5320    0.5640 H   0  0  0  0  0  0  0  0  0  0  0  0
   -5.0250   -0.1650   -0.7180 H   0  0  0  0  0  0  0  0  0  0  0  0
   -5.7130   -1.8600   -0.6450 H   0  0  0  0  0  0  0  0  0  0  0  0
  1 12  1  0  0  0  0
  2 13  1  6  0  0  0
  2  9  1  0  0  0  0
  2  1  1  0  0  0  0
  2  3  1  0  0  0  0
  3 14  1  0  0  0  0
  4  3  1  0  0  0  0
  4  8  1  0  0  0  0
  5  4  2  0  0  0  0
  6  5  1  0  0  0  0
  6  7  1  0  0  0  0
  7 18  1  0  0  0  0
  7  8  2  0  0  0  0
  9 26  1  0  0  0  0
 10  9  2  0  0  0  0
 11  1  1  0  0  0  0
 15  3  1  0  0  0  0
 16  5  1  0  0  0  0
 17  6  1  0  0  0  0
 20 19  1  0  0  0  0
 21 20  1  0  0  0  0
 21 32  1  0  0  0  0
 22 33  1  0  0  0  0
 22 21  2  0  0  0  0
 23 29  2  0  0  0  0
 23 22  1  0  0  0  0
 24 35  1  0  0  0  0
 24 34  1  0  0  0  0
 24 23  1  0  0  0  0
 25 36  1  6  0  0  0
 25 24  1  0  0  0  0
 26 25  1  0  0  0  0
 26 37  1  0  0  0  0
 27 40  1  0  0  0  0
 27 25  1  0  0  0  0
 28 27  2  0  0  0  0
 29 30  1  0  0  0  0
 30 39  1  0  0  0  0
 30 20  2  0  0  0  0
 31 19  1  0  0  0  0
 38 29  1  0  0  0  0
 40 45  1  0  0  0  0
 41 46  1  0  0  0  0
 41 47  1  0  0  0  0
 41 40  1  0  0  0  0
 42 41  1  0  0  0  0
 43 42  2  0  0  0  0
 44 42  1  0  0  0  0
M  END
$$$$
