HYI.pdb
 OpenBabel07022418393D

 59 60  0  0  1  0  0  0  0  0999 V2000
    3.8520    0.0190    1.0440 N   0  0  0  0  0  0  0  0  0  0  0  0
    3.7000   -1.3190    1.5970 C   0  0  1  0  0  0  0  0  0  0  0  0
    4.2330   -1.3370    3.0260 C   0  0  0  0  0  0  0  0  0  0  0  0
    3.4740   -0.3650    3.8720 C   0  0  0  0  0  0  0  0  0  0  0  0
    2.3300   -0.6110    4.6020 C   0  0  0  0  0  0  0  0  0  0  0  0
    1.9550    0.5030    5.2210 N   0  0  0  0  0  0  0  0  0  0  0  0
    2.8360    1.4430    4.8960 C   0  0  0  0  0  0  0  0  0  0  0  0
    3.7680    0.9280    4.0740 N   0  0  0  0  0  0  0  0  0  0  0  0
    2.2910   -1.7130    1.5140 C   0  0  0  0  0  0  0  0  0  0  0  0
    1.9400   -2.8480    1.9440 O   0  0  0  0  0  0  0  0  0  0  0  0
    3.5300    0.0010    0.0550 H   0  0  0  0  0  0  0  0  0  0  0  0
    3.2470    0.6480    1.5810 H   0  0  0  0  0  0  0  0  0  0  0  0
    4.3020   -1.9880    0.9530 H   0  0  0  0  0  0  0  0  0  0  0  0
    5.3010   -1.0780    2.9700 H   0  0  0  0  0  0  0  0  0  0  0  0
    4.1090   -2.3500    3.4400 H   0  0  0  0  0  0  0  0  0  0  0  0
    1.8100   -1.5730    4.6650 H   0  0  0  0  0  0  0  0  0  0  0  0
    1.1320    0.6850    5.8610 H   0  0  0  0  0  0  0  0  0  0  0  0
    2.8180    2.4830    5.2400 H   0  0  0  0  0  0  0  0  0  0  0  0
   -0.6080    5.1000    0.5990 O   0  0  0  0  0  0  0  0  0  0  0  0
   -0.7120    3.7360    0.8820 C   0  0  0  0  0  0  0  0  0  0  0  0
    0.1250    3.1020    1.7770 C   0  0  0  0  0  0  0  0  0  0  0  0
    0.0400    1.7600    2.0700 C   0  0  0  0  0  0  0  0  0  0  0  0
   -0.9260    0.9990    1.4470 C   0  0  0  0  0  0  0  0  0  0  0  0
   -0.9900   -0.4480    1.7890 C   0  0  0  0  0  0  0  0  0  0  0  0
   -0.1250   -1.2940    0.8990 C   0  0  2  0  0  0  0  0  0  0  0  0
    1.2550   -0.8980    0.9750 N   0  0  0  0  0  0  0  0  0  0  0  0
   -0.6420   -1.4360   -0.4760 C   0  0  0  0  0  0  0  0  0  0  0  0
    0.0780   -1.1500   -1.4810 O   0  0  0  0  0  0  0  0  0  0  0  0
   -1.7770    1.5950    0.5510 C   0  0  0  0  0  0  0  0  0  0  0  0
   -1.6690    2.9380    0.2770 C   0  0  0  0  0  0  0  0  0  0  0  0
   -0.8150    5.4290   -0.3470 H   0  0  0  0  0  0  0  0  0  0  0  0
    0.8930    3.7160    2.2700 H   0  0  0  0  0  0  0  0  0  0  0  0
    0.7370    1.3010    2.7970 H   0  0  0  0  0  0  0  0  0  0  0  0
   -2.0390   -0.7390    1.7700 H   0  0  0  0  0  0  0  0  0  0  0  0
   -0.6320   -0.5630    2.8290 H   0  0  0  0  0  0  0  0  0  0  0  0
   -0.1720   -2.3340    1.3420 H   0  0  0  0  0  0  0  0  0  0  0  0
    1.5520    0.0430    0.6200 H   0  0  0  0  0  0  0  0  0  0  0  0
   -2.5500    0.9950    0.0510 H   0  0  0  0  0  0  0  0  0  0  0  0
   -2.3330    3.4320   -0.4300 H   0  0  0  0  0  0  0  0  0  0  0  0
   -0.2790   -3.9160   -3.1330 C   0  0  0  0  0  0  0  0  0  0  0  0
   -1.4350   -4.3430   -2.2870 C   0  0  0  0  0  0  0  0  0  0  0  0
   -2.6580   -3.4710   -2.4430 C   0  0  2  0  0  0  0  0  0  0  0  0
   -3.1130   -3.5070   -3.8850 C   0  0  0  0  0  0  0  0  0  0  0  0
   -2.4010   -2.0230   -2.0800 C   0  0  2  0  0  0  0  0  0  0  0  0
   -1.9650   -1.9030   -0.6930 N   0  0  0  0  0  0  0  0  0  0  0  0
   -3.6930   -1.3270   -2.2060 C   0  0  0  0  0  0  0  0  0  0  0  0
   -4.2510   -1.2590   -3.3280 O   0  0  0  0  0  0  0  0  0  0  0  0
   -4.2780   -0.7560   -1.0970 O   0  0  0  0  0  0  0  0  0  0  0  0
    0.0480   -4.7070   -3.8520 H   0  0  0  0  0  0  0  0  0  0  0  0
    0.6030   -3.7230   -2.4780 H   0  0  0  0  0  0  0  0  0  0  0  0
   -0.5280   -3.0260   -3.7490 H   0  0  0  0  0  0  0  0  0  0  0  0
   -1.7330   -5.3610   -2.6120 H   0  0  0  0  0  0  0  0  0  0  0  0
   -1.1850   -4.4300   -1.2060 H   0  0  0  0  0  0  0  0  0  0  0  0
   -3.4630   -3.9070   -1.8280 H   0  0  0  0  0  0  0  0  0  0  0  0
   -2.7300   -2.6250   -4.4370 H   0  0  0  0  0  0  0  0  0  0  0  0
   -4.2310   -3.4920   -3.9800 H   0  0  0  0  0  0  0  0  0  0  0  0
   -2.6800   -4.3850   -4.4130 H   0  0  0  0  0  0  0  0  0  0  0  0
   -1.6430   -1.6190   -2.7750 H   0  0  0  0  0  0  0  0  0  0  0  0
   -2.6080   -2.1530    0.1020 H   0  0  0  0  0  0  0  0  0  0  0  0
  1 12  1  0  0  0  0
  1  2  1  0  0  0  0
  2 13  1  6  0  0  0
  2  3  1  0  0  0  0
  3 15  1  0  0  0  0
  3  4  1  0  0  0  0
  4  8  1  0  0  0  0
  4  5  2  0  0  0  0
  5 16  1  0  0  0  0
  5  6  1  0  0  0  0
  6 17  1  0  0  0  0
  7  6  1  0  0  0  0
  7 18  1  0  0  0  0
  8  7  2  0  0  0  0
  9  2  1  0  0  0  0
  9 10  2  0  0  0  0
 11  1  1  0  0  0  0
 14  3  1  0  0  0  0
 19 20  1  0  0  0  0
 20 21  1  0  0  0  0
 21 22  2  0  0  0  0
 21 32  1  0  0  0  0
 22 33  1  0  0  0  0
 23 24  1  0  0  0  0
 23 22  1  0  0  0  0
 24 35  1  0  0  0  0
 25 26  1  0  0  0  0
 25 36  1  1  0  0  0
 25 24  1  0  0  0  0
 26  9  1  0  0  0  0
 27 25  1  0  0  0  0
 28 27  2  0  0  0  0
 29 23  2  0  0  0  0
 30 29  1  0  0  0  0
 30 20  2  0  0  0  0
 31 19  1  0  0  0  0
 34 24  1  0  0  0  0
 37 26  1  0  0  0  0
 38 29  1  0  0  0  0
 39 30  1  0  0  0  0
 40 50  1  0  0  0  0
 40 41  1  0  0  0  0
 41 53  1  0  0  0  0
 42 41  1  0  0  0  0
 42 44  1  0  0  0  0
 42 54  1  1  0  0  0
 43 42  1  0  0  0  0
 44 58  1  6  0  0  0
 44 45  1  0  0  0  0
 45 27  1  0  0  0  0
 45 59  1  0  0  0  0
 46 44  1  0  0  0  0
 46 48  1  0  0  0  0
 47 46  2  0  0  0  0
 49 40  1  0  0  0  0
 51 40  1  0  0  0  0
 52 41  1  0  0  0  0
 55 43  1  0  0  0  0
 56 43  1  0  0  0  0
 57 43  1  0  0  0  0
M  END
$$$$
