HYM.pdb
 OpenBabel07022418393D

 57 58  0  0  1  0  0  0  0  0999 V2000
    1.0220   -1.0800    3.7920 N   0  0  0  0  0  0  0  0  0  0  0  0
    1.3800   -0.4570    2.5550 C   0  0  1  0  0  0  0  0  0  0  0  0
    2.4940   -1.2270    1.9170 C   0  0  0  0  0  0  0  0  0  0  0  0
    3.6480   -1.2200    2.8450 C   0  0  0  0  0  0  0  0  0  0  0  0
    3.8990   -2.1540    3.8240 C   0  0  0  0  0  0  0  0  0  0  0  0
    5.0510   -1.8190    4.4780 N   0  0  0  0  0  0  0  0  0  0  0  0
    5.5020   -0.6930    3.9090 C   0  0  0  0  0  0  0  0  0  0  0  0
    4.6550   -0.3370    2.9280 N   0  0  0  0  0  0  0  0  0  0  0  0
    0.2440   -0.1870    1.6600 C   0  0  0  0  0  0  0  0  0  0  0  0
    0.4950    0.3510    0.5540 O   0  0  0  0  0  0  0  0  0  0  0  0
    0.5650   -0.4450    4.4780 H   0  0  0  0  0  0  0  0  0  0  0  0
    0.4810   -1.9650    3.6480 H   0  0  0  0  0  0  0  0  0  0  0  0
    1.8130    0.5520    2.8240 H   0  0  0  0  0  0  0  0  0  0  0  0
    2.8190   -0.7500    0.9470 H   0  0  0  0  0  0  0  0  0  0  0  0
    2.2360   -2.2590    1.6690 H   0  0  0  0  0  0  0  0  0  0  0  0
    3.2690   -3.0000    4.0150 H   0  0  0  0  0  0  0  0  0  0  0  0
    5.4730   -2.3560    5.2650 H   0  0  0  0  0  0  0  0  0  0  0  0
    6.3860   -0.1450    4.1700 H   0  0  0  0  0  0  0  0  0  0  0  0
    0.6140    5.3470   -0.2690 O   0  0  0  0  0  0  0  0  0  0  0  0
   -0.2180    4.2980    0.1470 C   0  0  0  0  0  0  0  0  0  0  0  0
   -0.2640    3.8930    1.4560 C   0  0  0  0  0  0  0  0  0  0  0  0
   -1.1120    2.8540    1.7660 C   0  0  0  0  0  0  0  0  0  0  0  0
   -1.9110    2.2110    0.8210 C   0  0  0  0  0  0  0  0  0  0  0  0
   -2.8080    1.1120    1.1920 C   0  0  0  0  0  0  0  0  0  0  0  0
   -2.2420   -0.2570    1.1270 C   0  0  2  0  0  0  0  0  0  0  0  0
   -1.1130   -0.4870    1.9530 N   0  0  0  0  0  0  0  0  0  0  0  0
   -2.1840   -0.8070   -0.2460 C   0  0  0  0  0  0  0  0  0  0  0  0
   -3.0780   -0.4300   -1.0380 O   0  0  0  0  0  0  0  0  0  0  0  0
   -1.8320    2.6530   -0.4810 C   0  0  0  0  0  0  0  0  0  0  0  0
   -0.9880    3.6910   -0.8110 C   0  0  0  0  0  0  0  0  0  0  0  0
    1.1270    5.2070   -1.1150 H   0  0  0  0  0  0  0  0  0  0  0  0
    0.3540    4.3890    2.1940 H   0  0  0  0  0  0  0  0  0  0  0  0
   -1.1480    2.5320    2.8110 H   0  0  0  0  0  0  0  0  0  0  0  0
   -3.8090    1.1910    0.6870 H   0  0  0  0  0  0  0  0  0  0  0  0
   -3.0710    1.2900    2.2800 H   0  0  0  0  0  0  0  0  0  0  0  0
   -3.0820   -0.9250    1.5890 H   0  0  0  0  0  0  0  0  0  0  0  0
   -1.2410   -0.9330    2.9130 H   0  0  0  0  0  0  0  0  0  0  0  0
   -2.4160    2.2190   -1.2850 H   0  0  0  0  0  0  0  0  0  0  0  0
   -0.9430    4.0190   -1.8360 H   0  0  0  0  0  0  0  0  0  0  0  0
   -0.0590   -6.0070   -3.3290 C   0  0  0  0  0  0  0  0  0  0  0  0
   -0.4100   -5.3610   -1.6810 S   0  0  0  0  0  0  0  0  0  0  0  0
   -1.9860   -4.5490   -1.5720 C   0  0  0  0  0  0  0  0  0  0  0  0
   -2.1100   -3.2930   -2.3640 C   0  0  0  0  0  0  0  0  0  0  0  0
   -1.1680   -2.2100   -2.0190 C   0  0  2  0  0  0  0  0  0  0  0  0
   -1.2080   -1.7080   -0.6930 N   0  0  0  0  0  0  0  0  0  0  0  0
   -1.3080   -1.1430   -3.0790 C   0  0  0  0  0  0  0  0  0  0  0  0
   -1.3630   -1.4950   -4.2860 O   0  0  0  0  0  0  0  0  0  0  0  0
   -1.3790    0.2050   -2.8150 O   0  0  0  0  0  0  0  0  0  0  0  0
   -0.8340   -5.7730   -4.0620 H   0  0  0  0  0  0  0  0  0  0  0  0
   -0.0180   -7.1320   -3.2720 H   0  0  0  0  0  0  0  0  0  0  0  0
    0.9570   -5.6710   -3.6180 H   0  0  0  0  0  0  0  0  0  0  0  0
   -2.7860   -5.2580   -1.8710 H   0  0  0  0  0  0  0  0  0  0  0  0
   -2.1870   -4.3000   -0.5080 H   0  0  0  0  0  0  0  0  0  0  0  0
   -1.9470   -3.5530   -3.4410 H   0  0  0  0  0  0  0  0  0  0  0  0
   -3.1470   -2.9050   -2.3110 H   0  0  0  0  0  0  0  0  0  0  0  0
   -0.0970   -2.5680   -2.1930 H   0  0  0  0  0  0  0  0  0  0  0  0
   -0.4850   -2.0350    0.0180 H   0  0  0  0  0  0  0  0  0  0  0  0
  1 11  1  0  0  0  0
  2 13  1  1  0  0  0
  2  1  1  0  0  0  0
  3  2  1  0  0  0  0
  3  4  1  0  0  0  0
  4  8  1  0  0  0  0
  4  5  2  0  0  0  0
  5 16  1  0  0  0  0
  5  6  1  0  0  0  0
  6 17  1  0  0  0  0
  7 18  1  0  0  0  0
  7  6  1  0  0  0  0
  8  7  2  0  0  0  0
  9 26  1  0  0  0  0
  9  2  1  0  0  0  0
 10  9  2  0  0  0  0
 12  1  1  0  0  0  0
 14  3  1  0  0  0  0
 15  3  1  0  0  0  0
 19 20  1  0  0  0  0
 20 21  1  0  0  0  0
 21 22  2  0  0  0  0
 21 32  1  0  0  0  0
 22 33  1  0  0  0  0
 23 24  1  0  0  0  0
 23 22  1  0  0  0  0
 24 35  1  0  0  0  0
 25 24  1  0  0  0  0
 25 36  1  1  0  0  0
 25 26  1  0  0  0  0
 26 37  1  0  0  0  0
 27 25  1  0  0  0  0
 28 27  2  0  0  0  0
 29 23  2  0  0  0  0
 30 29  1  0  0  0  0
 30 20  2  0  0  0  0
 31 19  1  0  0  0  0
 34 24  1  0  0  0  0
 38 29  1  0  0  0  0
 39 30  1  0  0  0  0
 40 50  1  0  0  0  0
 40 41  1  0  0  0  0
 41 42  1  0  0  0  0
 42 53  1  0  0  0  0
 43 55  1  0  0  0  0
 43 44  1  0  0  0  0
 43 42  1  0  0  0  0
 44 56  1  6  0  0  0
 44 45  1  0  0  0  0
 45 27  1  0  0  0  0
 45 57  1  0  0  0  0
 46 48  1  0  0  0  0
 46 44  1  0  0  0  0
 47 46  2  0  0  0  0
 49 40  1  0  0  0  0
 51 40  1  0  0  0  0
 52 42  1  0  0  0  0
 54 43  1  0  0  0  0
M  END
$$$$
