HYN.pdb
 OpenBabel07022418393D

 54 55  0  0  1  0  0  0  0  0999 V2000
    0.5210   -0.6810    3.7550 N   0  0  0  0  0  0  0  0  0  0  0  0
    1.1190   -0.6950    2.4380 C   0  0  1  0  0  0  0  0  0  0  0  0
    1.6950   -2.0490    2.1040 C   0  0  0  0  0  0  0  0  0  0  0  0
    2.7300   -2.3460    3.1260 C   0  0  0  0  0  0  0  0  0  0  0  0
    2.4930   -2.9980    4.3200 C   0  0  0  0  0  0  0  0  0  0  0  0
    3.6330   -3.1120    5.0220 N   0  0  0  0  0  0  0  0  0  0  0  0
    4.5900   -2.5350    4.2780 C   0  0  0  0  0  0  0  0  0  0  0  0
    4.0460   -2.0680    3.1260 N   0  0  0  0  0  0  0  0  0  0  0  0
    0.0990   -0.2810    1.4070 C   0  0  0  0  0  0  0  0  0  0  0  0
    0.3890   -0.2180    0.1940 O   0  0  0  0  0  0  0  0  0  0  0  0
    0.2760    0.2910    3.9870 H   0  0  0  0  0  0  0  0  0  0  0  0
   -0.2210   -1.3840    3.8210 H   0  0  0  0  0  0  0  0  0  0  0  0
    1.9550    0.0380    2.4610 H   0  0  0  0  0  0  0  0  0  0  0  0
    0.9380   -2.8390    2.0770 H   0  0  0  0  0  0  0  0  0  0  0  0
    2.2340   -1.9360    1.1370 H   0  0  0  0  0  0  0  0  0  0  0  0
    1.5280   -3.3750    4.6630 H   0  0  0  0  0  0  0  0  0  0  0  0
    3.7120   -3.5650    5.9530 H   0  0  0  0  0  0  0  0  0  0  0  0
    5.6320   -2.4760    4.5990 H   0  0  0  0  0  0  0  0  0  0  0  0
    2.3430    3.8470   -2.0510 O   0  0  0  0  0  0  0  0  0  0  0  0
    1.2050    3.3620   -1.4320 C   0  0  0  0  0  0  0  0  0  0  0  0
    1.0770    3.4360   -0.0620 C   0  0  0  0  0  0  0  0  0  0  0  0
   -0.0670    2.9450    0.5260 C   0  0  0  0  0  0  0  0  0  0  0  0
   -1.0920    2.3820   -0.1990 C   0  0  0  0  0  0  0  0  0  0  0  0
   -2.2780    1.8810    0.4920 C   0  0  0  0  0  0  0  0  0  0  0  0
   -2.2780    0.4510    0.8980 C   0  0  2  0  0  0  0  0  0  0  0  0
   -1.2320    0.0520    1.7950 N   0  0  0  0  0  0  0  0  0  0  0  0
   -2.5940   -0.5090   -0.1790 C   0  0  0  0  0  0  0  0  0  0  0  0
   -3.4020   -0.1280   -1.0640 O   0  0  0  0  0  0  0  0  0  0  0  0
   -0.9320    2.3240   -1.5650 C   0  0  0  0  0  0  0  0  0  0  0  0
    0.2030    2.8060   -2.2010 C   0  0  0  0  0  0  0  0  0  0  0  0
    2.2620    4.7230   -2.5490 H   0  0  0  0  0  0  0  0  0  0  0  0
    1.8720    3.8760    0.5460 H   0  0  0  0  0  0  0  0  0  0  0  0
   -0.1220    3.0260    1.6100 H   0  0  0  0  0  0  0  0  0  0  0  0
   -3.1750    2.1280   -0.1520 H   0  0  0  0  0  0  0  0  0  0  0  0
   -2.5030    2.4830    1.4300 H   0  0  0  0  0  0  0  0  0  0  0  0
   -3.2280    0.3760    1.5660 H   0  0  0  0  0  0  0  0  0  0  0  0
   -1.3840   -0.0240    2.8520 H   0  0  0  0  0  0  0  0  0  0  0  0
   -1.6930    1.8960   -2.2090 H   0  0  0  0  0  0  0  0  0  0  0  0
    0.3510    2.7720   -3.2710 H   0  0  0  0  0  0  0  0  0  0  0  0
    0.7490   -2.3150   -3.4210 N   0  0  0  0  0  0  0  0  0  0  0  0
   -0.4430   -2.0330   -2.7140 C   0  0  0  0  0  0  0  0  0  0  0  0
   -0.8000   -0.8360   -2.5910 O   0  0  0  0  0  0  0  0  0  0  0  0
   -1.2240   -3.1340   -2.1470 C   0  0  0  0  0  0  0  0  0  0  0  0
   -2.4540   -2.6830   -1.4140 C   0  0  2  0  0  0  0  0  0  0  0  0
   -2.0730   -1.7990   -0.2900 N   0  0  0  0  0  0  0  0  0  0  0  0
   -3.1350   -3.8920   -0.8770 C   0  0  0  0  0  0  0  0  0  0  0  0
   -3.5640   -4.8100   -1.6140 O   0  0  0  0  0  0  0  0  0  0  0  0
   -3.3300   -4.0580    0.4950 O   0  0  0  0  0  0  0  0  0  0  0  0
    1.2920   -3.1770   -3.2010 H   0  0  0  0  0  0  0  0  0  0  0  0
    1.1260   -1.6980   -4.1670 H   0  0  0  0  0  0  0  0  0  0  0  0
   -0.5490   -3.7410   -1.5110 H   0  0  0  0  0  0  0  0  0  0  0  0
   -1.5870   -3.8510   -2.9410 H   0  0  0  0  0  0  0  0  0  0  0  0
   -3.1770   -2.1670   -2.0720 H   0  0  0  0  0  0  0  0  0  0  0  0
   -1.4150   -2.1480    0.4420 H   0  0  0  0  0  0  0  0  0  0  0  0
  1 12  1  0  0  0  0
  1 11  1  0  0  0  0
  2 13  1  6  0  0  0
  2  1  1  0  0  0  0
  3  2  1  0  0  0  0
  3  4  1  0  0  0  0
  4  5  2  0  0  0  0
  5 16  1  0  0  0  0
  5  6  1  0  0  0  0
  6 17  1  0  0  0  0
  7 18  1  0  0  0  0
  7  6  1  0  0  0  0
  8  4  1  0  0  0  0
  8  7  2  0  0  0  0
  9 26  1  0  0  0  0
  9  2  1  0  0  0  0
 10  9  2  0  0  0  0
 14  3  1  0  0  0  0
 15  3  1  0  0  0  0
 19 20  1  0  0  0  0
 20 21  1  0  0  0  0
 21 22  2  0  0  0  0
 21 32  1  0  0  0  0
 22 33  1  0  0  0  0
 23 24  1  0  0  0  0
 23 22  1  0  0  0  0
 24 25  1  0  0  0  0
 24 35  1  0  0  0  0
 25 36  1  1  0  0  0
 25 26  1  0  0  0  0
 26 37  1  0  0  0  0
 27 25  1  0  0  0  0
 28 27  2  0  0  0  0
 29 23  2  0  0  0  0
 30 29  1  0  0  0  0
 30 20  2  0  0  0  0
 31 19  1  0  0  0  0
 34 24  1  0  0  0  0
 38 29  1  0  0  0  0
 39 30  1  0  0  0  0
 40 49  1  0  0  0  0
 40 41  1  0  0  0  0
 41 42  2  0  0  0  0
 41 43  1  0  0  0  0
 43 51  1  0  0  0  0
 43 44  1  0  0  0  0
 44 53  1  6  0  0  0
 44 46  1  0  0  0  0
 44 45  1  0  0  0  0
 45 27  1  0  0  0  0
 45 54  1  0  0  0  0
 46 48  1  0  0  0  0
 47 46  2  0  0  0  0
 50 40  1  0  0  0  0
 52 43  1  0  0  0  0
M  END
$$$$
