HYR.pdb
 OpenBabel07022418393D

 63 64  0  0  1  0  0  0  0  0999 V2000
    3.7620    0.0850    1.1630 N   0  0  0  0  0  0  0  0  0  0  0  0
    3.5170   -1.0400    2.0450 C   0  0  1  0  0  0  0  0  0  0  0  0
    4.2910   -0.8650    3.3090 C   0  0  0  0  0  0  0  0  0  0  0  0
    5.7360   -0.7950    2.9480 C   0  0  0  0  0  0  0  0  0  0  0  0
    6.4390    0.3740    2.6470 C   0  0  0  0  0  0  0  0  0  0  0  0
    7.7000    0.0510    2.3740 N   0  0  0  0  0  0  0  0  0  0  0  0
    7.8360   -1.2780    2.4880 C   0  0  0  0  0  0  0  0  0  0  0  0
    6.6420   -1.7840    2.8350 N   0  0  0  0  0  0  0  0  0  0  0  0
    2.0650   -1.2590    2.2620 C   0  0  0  0  0  0  0  0  0  0  0  0
    1.7110   -2.1890    3.0010 O   0  0  0  0  0  0  0  0  0  0  0  0
    4.7810    0.0660    0.8560 H   0  0  0  0  0  0  0  0  0  0  0  0
    3.2230    0.0150    0.2690 H   0  0  0  0  0  0  0  0  0  0  0  0
    3.8970   -1.9530    1.5410 H   0  0  0  0  0  0  0  0  0  0  0  0
    4.0090    0.0350    3.8860 H   0  0  0  0  0  0  0  0  0  0  0  0
    4.1970   -1.7910    3.9470 H   0  0  0  0  0  0  0  0  0  0  0  0
    5.9660    1.3420    2.6550 H   0  0  0  0  0  0  0  0  0  0  0  0
    8.4440    0.7640    2.1140 H   0  0  0  0  0  0  0  0  0  0  0  0
    8.7860   -1.7760    2.3110 H   0  0  0  0  0  0  0  0  0  0  0  0
   -0.5980    5.6240    0.1690 O   0  0  0  0  0  0  0  0  0  0  0  0
   -0.6840    4.3530    0.7770 C   0  0  0  0  0  0  0  0  0  0  0  0
   -1.7420    3.5180    0.5020 C   0  0  0  0  0  0  0  0  0  0  0  0
   -1.8150    2.2850    1.0980 C   0  0  0  0  0  0  0  0  0  0  0  0
   -0.8740    1.8130    1.9800 C   0  0  0  0  0  0  0  0  0  0  0  0
   -1.0020    0.4970    2.5810 C   0  0  0  0  0  0  0  0  0  0  0  0
   -0.3660   -0.6370    1.8510 C   0  0  2  0  0  0  0  0  0  0  0  0
    1.0600   -0.4580    1.6660 N   0  0  0  0  0  0  0  0  0  0  0  0
   -1.0480   -1.1280    0.6560 C   0  0  0  0  0  0  0  0  0  0  0  0
   -0.3980   -1.2790   -0.4420 O   0  0  0  0  0  0  0  0  0  0  0  0
    0.1780    2.6690    2.2400 C   0  0  0  0  0  0  0  0  0  0  0  0
    0.2760    3.9140    1.6530 C   0  0  0  0  0  0  0  0  0  0  0  0
   -0.5030    6.3990    0.8170 H   0  0  0  0  0  0  0  0  0  0  0  0
   -2.4940    3.8680   -0.1870 H   0  0  0  0  0  0  0  0  0  0  0  0
   -2.6780    1.6910    0.8310 H   0  0  0  0  0  0  0  0  0  0  0  0
   -2.0780    0.1970    2.7600 H   0  0  0  0  0  0  0  0  0  0  0  0
   -0.5710    0.5470    3.6190 H   0  0  0  0  0  0  0  0  0  0  0  0
   -0.4290   -1.5120    2.5820 H   0  0  0  0  0  0  0  0  0  0  0  0
    1.3740    0.3180    1.0500 H   0  0  0  0  0  0  0  0  0  0  0  0
    0.9480    2.3250    2.9390 H   0  0  0  0  0  0  0  0  0  0  0  0
    1.1010    4.5940    1.8540 H   0  0  0  0  0  0  0  0  0  0  0  0
   -2.6310   -1.4350   -4.5020 N   0  0  0  0  0  0  0  0  0  0  0  0
   -3.3190   -2.6090   -4.0840 C   0  0  0  0  0  0  0  0  0  0  0  0
   -4.5160   -2.8650   -4.5030 N   0  0  0  0  0  0  0  0  0  0  0  0
   -2.6840   -3.5260   -3.1870 N   0  0  0  0  0  0  0  0  0  0  0  0
   -3.3560   -4.5600   -2.4810 C   0  0  0  0  0  0  0  0  0  0  0  0
   -4.2640   -4.0810   -1.4040 C   0  0  0  0  0  0  0  0  0  0  0  0
   -3.6460   -3.3210   -0.3060 C   0  0  0  0  0  0  0  0  0  0  0  0
   -3.0560   -1.9710   -0.6180 C   0  0  2  0  0  0  0  0  0  0  0  0
   -2.4260   -1.4600    0.6410 N   0  0  0  0  0  0  0  0  0  0  0  0
   -4.2190   -1.0560   -0.8140 C   0  0  0  0  0  0  0  0  0  0  0  0
   -4.4970   -0.1070   -0.0230 O   0  0  0  0  0  0  0  0  0  0  0  0
   -5.0510   -1.2220   -1.8890 O   0  0  0  0  0  0  0  0  0  0  0  0
   -2.2230   -1.4220   -5.4510 H   0  0  0  0  0  0  0  0  0  0  0  0
   -2.5270   -0.6030   -3.8950 H   0  0  0  0  0  0  0  0  0  0  0  0
   -5.0070   -3.7210   -4.1920 H   0  0  0  0  0  0  0  0  0  0  0  0
   -1.6250   -3.3740   -3.0970 H   0  0  0  0  0  0  0  0  0  0  0  0
   -3.9390   -5.1430   -3.2620 H   0  0  0  0  0  0  0  0  0  0  0  0
   -2.6210   -5.3270   -2.0890 H   0  0  0  0  0  0  0  0  0  0  0  0
   -5.1420   -3.5160   -1.8010 H   0  0  0  0  0  0  0  0  0  0  0  0
   -4.7130   -5.0180   -0.9310 H   0  0  0  0  0  0  0  0  0  0  0  0
   -4.3460   -3.2270    0.5750 H   0  0  0  0  0  0  0  0  0  0  0  0
   -2.7770   -3.9180    0.1270 H   0  0  0  0  0  0  0  0  0  0  0  0
   -2.3930   -1.9070   -1.4490 H   0  0  0  0  0  0  0  0  0  0  0  0
   -2.9660   -1.3380    1.5130 H   0  0  0  0  0  0  0  0  0  0  0  0
  1  2  1  0  0  0  0
  2 13  1  6  0  0  0
  2  9  1  0  0  0  0
  2  3  1  0  0  0  0
  3 14  1  0  0  0  0
  3 15  1  0  0  0  0
  4  3  1  0  0  0  0
  5 16  1  0  0  0  0
  5  4  2  0  0  0  0
  6  7  1  0  0  0  0
  6  5  1  0  0  0  0
  7  8  2  0  0  0  0
  8  4  1  0  0  0  0
  9 10  2  0  0  0  0
 11  1  1  0  0  0  0
 12  1  1  0  0  0  0
 17  6  1  0  0  0  0
 18  7  1  0  0  0  0
 19 20  1  0  0  0  0
 19 31  1  0  0  0  0
 20 30  1  0  0  0  0
 21 20  2  0  0  0  0
 21 22  1  0  0  0  0
 22 23  2  0  0  0  0
 23 29  1  0  0  0  0
 23 24  1  0  0  0  0
 24 34  1  0  0  0  0
 24 35  1  0  0  0  0
 25 24  1  0  0  0  0
 25 36  1  1  0  0  0
 26 25  1  0  0  0  0
 26  9  1  0  0  0  0
 27 25  1  0  0  0  0
 28 27  2  0  0  0  0
 29 38  1  0  0  0  0
 30 39  1  0  0  0  0
 30 29  2  0  0  0  0
 32 21  1  0  0  0  0
 33 22  1  0  0  0  0
 37 26  1  0  0  0  0
 40 41  1  0  0  0  0
 40 53  1  0  0  0  0
 41 43  1  0  0  0  0
 42 54  1  0  0  0  0
 42 41  2  0  0  0  0
 43 55  1  0  0  0  0
 43 44  1  0  0  0  0
 44 57  1  0  0  0  0
 44 45  1  0  0  0  0
 45 59  1  0  0  0  0
 45 46  1  0  0  0  0
 46 61  1  0  0  0  0
 46 60  1  0  0  0  0
 47 62  1  6  0  0  0
 47 46  1  0  0  0  0
 47 48  1  0  0  0  0
 48 27  1  0  0  0  0
 48 63  1  0  0  0  0
 49 47  1  0  0  0  0
 49 50  1  0  0  0  0
 51 49  2  0  0  0  0
 52 40  1  0  0  0  0
 56 44  1  0  0  0  0
 58 45  1  0  0  0  0
M  END
$$$$
