HYS.pdb
 OpenBabel07022418393D

 51 52  0  0  1  0  0  0  0  0999 V2000
    0.9930   -0.3920   -1.8010 N   0  0  0  0  0  0  0  0  0  0  0  0
    2.1290   -1.0960   -1.1790 C   0  0  1  0  0  0  0  0  0  0  0  0
    3.3420   -0.2250   -1.2560 C   0  0  0  0  0  0  0  0  0  0  0  0
    4.5300   -0.9030   -0.6950 C   0  0  0  0  0  0  0  0  0  0  0  0
    5.8140   -0.3480   -0.5970 C   0  0  0  0  0  0  0  0  0  0  0  0
    6.6210   -1.2630   -0.0370 N   0  0  0  0  0  0  0  0  0  0  0  0
    5.9060   -2.3690    0.2230 C   0  0  0  0  0  0  0  0  0  0  0  0
    4.6700   -2.1210   -0.1800 N   0  0  0  0  0  0  0  0  0  0  0  0
    1.7930   -1.3250    0.2610 C   0  0  0  0  0  0  0  0  0  0  0  0
    2.4880   -1.9450    1.0800 O   0  0  0  0  0  0  0  0  0  0  0  0
    0.3920   -1.0840   -2.2550 H   0  0  0  0  0  0  0  0  0  0  0  0
    1.3150    0.3910   -2.3900 H   0  0  0  0  0  0  0  0  0  0  0  0
    2.2940   -2.0090   -1.7560 H   0  0  0  0  0  0  0  0  0  0  0  0
    3.5780    0.0060   -2.3200 H   0  0  0  0  0  0  0  0  0  0  0  0
    3.1700    0.7560   -0.7220 H   0  0  0  0  0  0  0  0  0  0  0  0
    6.0620    0.6410   -0.9270 H   0  0  0  0  0  0  0  0  0  0  0  0
    7.6460   -1.1130    0.1570 H   0  0  0  0  0  0  0  0  0  0  0  0
    6.2660   -3.2710    0.6680 H   0  0  0  0  0  0  0  0  0  0  0  0
   -3.7860    3.8310    0.6740 O   0  0  0  0  0  0  0  0  0  0  0  0
   -2.8390    2.9570    1.2400 C   0  0  0  0  0  0  0  0  0  0  0  0
   -1.5280    2.9740    0.8230 C   0  0  0  0  0  0  0  0  0  0  0  0
   -0.6010    2.1130    1.3810 C   0  0  0  0  0  0  0  0  0  0  0  0
   -0.9540    1.2190    2.3630 C   0  0  0  0  0  0  0  0  0  0  0  0
    0.0510    0.3260    2.9310 C   0  0  0  0  0  0  0  0  0  0  0  0
    0.1860   -0.9960    2.2000 C   0  0  2  0  0  0  0  0  0  0  0  0
    0.5620   -0.8040    0.8130 N   0  0  0  0  0  0  0  0  0  0  0  0
   -1.1000   -1.7430    2.1880 C   0  0  0  0  0  0  0  0  0  0  0  0
   -1.5990   -2.0180    3.3080 O   0  0  0  0  0  0  0  0  0  0  0  0
   -2.2600    1.1950    2.7860 C   0  0  0  0  0  0  0  0  0  0  0  0
   -3.1940    2.0630    2.2220 C   0  0  0  0  0  0  0  0  0  0  0  0
   -3.6020    4.0940   -0.2920 H   0  0  0  0  0  0  0  0  0  0  0  0
   -1.2040    3.6690    0.0440 H   0  0  0  0  0  0  0  0  0  0  0  0
    0.4270    2.1840    0.9980 H   0  0  0  0  0  0  0  0  0  0  0  0
   -0.2400    0.0480    3.9870 H   0  0  0  0  0  0  0  0  0  0  0  0
    1.0560    0.7840    3.0320 H   0  0  0  0  0  0  0  0  0  0  0  0
    0.9470   -1.5790    2.7610 H   0  0  0  0  0  0  0  0  0  0  0  0
   -0.0510   -0.2770    0.1600 H   0  0  0  0  0  0  0  0  0  0  0  0
   -2.6140    0.5200    3.5540 H   0  0  0  0  0  0  0  0  0  0  0  0
   -4.2130    2.0160    2.5790 H   0  0  0  0  0  0  0  0  0  0  0  0
   -3.8260   -1.8340   -1.0110 O   0  0  0  0  0  0  0  0  0  0  0  0
   -4.1360   -2.1310    0.3150 C   0  0  0  0  0  0  0  0  0  0  0  0
   -3.0180   -2.8740    0.9970 C   0  0  2  0  0  0  0  0  0  0  0  0
   -1.7840   -2.1560    1.0350 N   0  0  0  0  0  0  0  0  0  0  0  0
   -2.8350   -4.1900    0.3590 C   0  0  0  0  0  0  0  0  0  0  0  0
   -1.6930   -4.5270   -0.0600 O   0  0  0  0  0  0  0  0  0  0  0  0
   -3.8550   -5.1060    0.1820 O   0  0  0  0  0  0  0  0  0  0  0  0
   -4.1200   -0.8930   -1.1750 H   0  0  0  0  0  0  0  0  0  0  0  0
   -4.4580   -1.2330    0.8780 H   0  0  0  0  0  0  0  0  0  0  0  0
   -5.0150   -2.8100    0.2920 H   0  0  0  0  0  0  0  0  0  0  0  0
   -3.3540   -3.0550    2.0500 H   0  0  0  0  0  0  0  0  0  0  0  0
   -1.3410   -1.9110    0.1050 H   0  0  0  0  0  0  0  0  0  0  0  0
  1  2  1  0  0  0  0
  2 13  1  6  0  0  0
  2  9  1  0  0  0  0
  3  2  1  0  0  0  0
  3 15  1  0  0  0  0
  3  4  1  0  0  0  0
  4  5  2  0  0  0  0
  4  8  1  0  0  0  0
  5  6  1  0  0  0  0
  6 17  1  0  0  0  0
  6  7  1  0  0  0  0
  7 18  1  0  0  0  0
  8  7  2  0  0  0  0
  9 26  1  0  0  0  0
  9 10  2  0  0  0  0
 11  1  1  0  0  0  0
 12  1  1  0  0  0  0
 14  3  1  0  0  0  0
 16  5  1  0  0  0  0
 19 20  1  0  0  0  0
 20 30  1  0  0  0  0
 21 20  2  0  0  0  0
 21 22  1  0  0  0  0
 22 23  2  0  0  0  0
 23 29  1  0  0  0  0
 23 24  1  0  0  0  0
 24 35  1  0  0  0  0
 24 34  1  0  0  0  0
 25 36  1  1  0  0  0
 25 24  1  0  0  0  0
 26 25  1  0  0  0  0
 27 25  1  0  0  0  0
 27 28  2  0  0  0  0
 29 38  1  0  0  0  0
 30 39  1  0  0  0  0
 30 29  2  0  0  0  0
 31 19  1  0  0  0  0
 32 21  1  0  0  0  0
 33 22  1  0  0  0  0
 37 26  1  0  0  0  0
 40 41  1  0  0  0  0
 41 48  1  0  0  0  0
 41 42  1  0  0  0  0
 42 43  1  0  0  0  0
 42 50  1  1  0  0  0
 43 27  1  0  0  0  0
 44 42  1  0  0  0  0
 45 44  2  0  0  0  0
 46 44  1  0  0  0  0
 47 40  1  0  0  0  0
 49 41  1  0  0  0  0
 51 43  1  0  0  0  0
M  END
$$$$
