HYY.pdb
 OpenBabel07022418393D

 61 63  0  0  1  0  0  0  0  0999 V2000
   -0.1300   -2.9040    4.7160 N   0  0  0  0  0  0  0  0  0  0  0  0
    0.1440   -1.5900    4.1660 C   0  0  1  0  0  0  0  0  0  0  0  0
    1.6270   -1.5260    3.8970 C   0  0  0  0  0  0  0  0  0  0  0  0
    2.1140   -2.5450    2.9500 C   0  0  0  0  0  0  0  0  0  0  0  0
    2.5790   -3.8200    3.2120 C   0  0  0  0  0  0  0  0  0  0  0  0
    2.9190   -4.3820    2.0340 N   0  0  0  0  0  0  0  0  0  0  0  0
    2.6880   -3.5210    1.0520 C   0  0  0  0  0  0  0  0  0  0  0  0
    2.1940   -2.3970    1.6220 N   0  0  0  0  0  0  0  0  0  0  0  0
   -0.6870   -1.4040    2.9600 C   0  0  0  0  0  0  0  0  0  0  0  0
   -1.4780   -2.3230    2.6350 O   0  0  0  0  0  0  0  0  0  0  0  0
    0.0210   -3.5850    3.9280 H   0  0  0  0  0  0  0  0  0  0  0  0
   -1.1060   -2.9910    5.0910 H   0  0  0  0  0  0  0  0  0  0  0  0
   -0.0600   -0.7920    4.9280 H   0  0  0  0  0  0  0  0  0  0  0  0
    1.9490   -0.5010    3.6110 H   0  0  0  0  0  0  0  0  0  0  0  0
    2.1160   -1.6920    4.9010 H   0  0  0  0  0  0  0  0  0  0  0  0
    2.6690   -4.3100    4.1770 H   0  0  0  0  0  0  0  0  0  0  0  0
    3.3090   -5.3490    1.8740 H   0  0  0  0  0  0  0  0  0  0  0  0
    2.8390   -3.6160   -0.0210 H   0  0  0  0  0  0  0  0  0  0  0  0
    0.3790    6.0260    1.8950 O   0  0  0  0  0  0  0  0  0  0  0  0
   -0.2950    4.8190    1.6710 C   0  0  0  0  0  0  0  0  0  0  0  0
   -0.5670    4.3640    0.4010 C   0  0  0  0  0  0  0  0  0  0  0  0
   -1.2410    3.1570    0.1910 C   0  0  0  0  0  0  0  0  0  0  0  0
   -1.6600    2.3740    1.2360 C   0  0  0  0  0  0  0  0  0  0  0  0
   -2.3730    1.1020    1.0880 C   0  0  0  0  0  0  0  0  0  0  0  0
   -1.4640   -0.0960    1.0080 C   0  0  2  0  0  0  0  0  0  0  0  0
   -0.6290   -0.2290    2.1550 N   0  0  0  0  0  0  0  0  0  0  0  0
   -0.6420   -0.0380   -0.2150 C   0  0  0  0  0  0  0  0  0  0  0  0
    0.6010   -0.0460   -0.1730 O   0  0  0  0  0  0  0  0  0  0  0  0
   -1.3750    2.8510    2.5180 C   0  0  0  0  0  0  0  0  0  0  0  0
   -0.7120    4.0400    2.7280 C   0  0  0  0  0  0  0  0  0  0  0  0
   -0.0840    6.7300    2.4900 H   0  0  0  0  0  0  0  0  0  0  0  0
   -0.2470    4.9630   -0.4390 H   0  0  0  0  0  0  0  0  0  0  0  0
   -1.4340    2.8390   -0.8040 H   0  0  0  0  0  0  0  0  0  0  0  0
   -3.0690    1.1190    0.2260 H   0  0  0  0  0  0  0  0  0  0  0  0
   -3.0230    0.9590    1.9950 H   0  0  0  0  0  0  0  0  0  0  0  0
   -2.1080   -1.0300    0.9460 H   0  0  0  0  0  0  0  0  0  0  0  0
    0.0560    0.4930    2.4790 H   0  0  0  0  0  0  0  0  0  0  0  0
   -1.6980    2.2460    3.3670 H   0  0  0  0  0  0  0  0  0  0  0  0
   -0.4900    4.4110    3.7380 H   0  0  0  0  0  0  0  0  0  0  0  0
    0.5420   -5.8490   -0.6160 O   0  0  0  0  0  0  0  0  0  0  0  0
    0.1840   -4.6960   -1.3330 C   0  0  0  0  0  0  0  0  0  0  0  0
    1.0600   -4.1370   -2.2310 C   0  0  0  0  0  0  0  0  0  0  0  0
    0.6950   -3.0160   -2.9180 C   0  0  0  0  0  0  0  0  0  0  0  0
   -0.5390   -2.4300   -2.7310 C   0  0  0  0  0  0  0  0  0  0  0  0
   -0.9230   -1.2340   -3.4790 C   0  0  0  0  0  0  0  0  0  0  0  0
   -0.5530    0.0720   -2.7500 C   0  0  2  0  0  0  0  0  0  0  0  0
   -1.2550    0.0250   -1.5070 N   0  0  0  0  0  0  0  0  0  0  0  0
   -0.9120    1.1790   -3.6430 C   0  0  0  0  0  0  0  0  0  0  0  0
   -1.8090    1.9870   -3.3220 O   0  0  0  0  0  0  0  0  0  0  0  0
   -1.4420   -2.9880   -1.8210 C   0  0  0  0  0  0  0  0  0  0  0  0
   -1.0490   -4.1110   -1.1460 C   0  0  0  0  0  0  0  0  0  0  0  0
   -0.2790    1.3650   -4.8610 O   0  0  0  0  0  0  0  0  0  0  0  0
   -0.1720   -6.5670   -0.5800 H   0  0  0  0  0  0  0  0  0  0  0  0
    2.0390   -4.5690   -2.4060 H   0  0  0  0  0  0  0  0  0  0  0  0
    1.4210   -2.5950   -3.6300 H   0  0  0  0  0  0  0  0  0  0  0  0
   -1.9990   -1.2180   -3.6830 H   0  0  0  0  0  0  0  0  0  0  0  0
   -0.3640   -1.1750   -4.4460 H   0  0  0  0  0  0  0  0  0  0  0  0
    0.5300    0.1050   -2.5500 H   0  0  0  0  0  0  0  0  0  0  0  0
   -2.2930    0.0370   -1.5180 H   0  0  0  0  0  0  0  0  0  0  0  0
   -2.4200   -2.5200   -1.6760 H   0  0  0  0  0  0  0  0  0  0  0  0
   -1.7190   -4.5890   -0.4200 H   0  0  0  0  0  0  0  0  0  0  0  0
  1 12  1  0  0  0  0
  2  1  1  0  0  0  0
  2 13  1  1  0  0  0
  3  2  1  0  0  0  0
  3 15  1  0  0  0  0
  4  5  2  0  0  0  0
  4  3  1  0  0  0  0
  5 16  1  0  0  0  0
  6  5  1  0  0  0  0
  7  8  2  0  0  0  0
  7  6  1  0  0  0  0
  8  4  1  0  0  0  0
  9  2  1  0  0  0  0
 10  9  2  0  0  0  0
 11  1  1  0  0  0  0
 14  3  1  0  0  0  0
 17  6  1  0  0  0  0
 18  7  1  0  0  0  0
 19 31  1  0  0  0  0
 20 19  1  0  0  0  0
 20 30  1  0  0  0  0
 21 20  2  0  0  0  0
 22 21  1  0  0  0  0
 22 23  2  0  0  0  0
 23 29  1  0  0  0  0
 24 23  1  0  0  0  0
 24 35  1  0  0  0  0
 25 36  1  6  0  0  0
 25 24  1  0  0  0  0
 25 26  1  0  0  0  0
 26 37  1  0  0  0  0
 26  9  1  0  0  0  0
 27 28  2  0  0  0  0
 27 25  1  0  0  0  0
 29 30  2  0  0  0  0
 29 38  1  0  0  0  0
 30 39  1  0  0  0  0
 32 21  1  0  0  0  0
 33 22  1  0  0  0  0
 34 24  1  0  0  0  0
 40 53  1  0  0  0  0
 41 51  1  0  0  0  0
 41 40  1  0  0  0  0
 42 41  2  0  0  0  0
 43 44  2  0  0  0  0
 43 42  1  0  0  0  0
 44 50  1  0  0  0  0
 45 46  1  0  0  0  0
 45 44  1  0  0  0  0
 46 58  1  1  0  0  0
 46 47  1  0  0  0  0
 47 27  1  0  0  0  0
 48 49  1  0  0  0  0
 48 46  1  0  0  0  0
 50 60  1  0  0  0  0
 50 51  2  0  0  0  0
 51 61  1  0  0  0  0
 52 48  2  0  0  0  0
 54 42  1  0  0  0  0
 55 43  1  0  0  0  0
 56 45  1  0  0  0  0
 57 45  1  0  0  0  0
 59 47  1  0  0  0  0
M  END
$$$$
