IAE.pdb
 OpenBabel07022418393D

 47 46  0  0  1  0  0  0  0  0999 V2000
    5.4850   -3.1370   -2.3480 C   0  0  0  0  0  0  0  0  0  0  0  0
    4.6070   -3.2620   -1.1280 C   0  0  0  0  0  0  0  0  0  0  0  0
    3.7570   -2.0220   -1.0150 C   0  0  2  0  0  0  0  0  0  0  0  0
    4.6960   -0.8490   -0.8810 C   0  0  0  0  0  0  0  0  0  0  0  0
    2.8230   -2.1810    0.1610 C   0  0  2  0  0  0  0  0  0  0  0  0
    2.0160   -3.3710   -0.1300 N   0  0  0  0  0  0  0  0  0  0  0  0
    1.8870   -1.0640    0.3240 C   0  0  0  0  0  0  0  0  0  0  0  0
    2.2970    0.0640    0.6830 O   0  0  0  0  0  0  0  0  0  0  0  0
    6.5440   -3.4030   -2.1320 H   0  0  0  0  0  0  0  0  0  0  0  0
    5.0770   -3.8020   -3.1580 H   0  0  0  0  0  0  0  0  0  0  0  0
    5.3870   -2.1090   -2.7390 H   0  0  0  0  0  0  0  0  0  0  0  0
    4.0260   -4.1950   -1.0830 H   0  0  0  0  0  0  0  0  0  0  0  0
    5.3160   -3.2400   -0.2470 H   0  0  0  0  0  0  0  0  0  0  0  0
    3.1390   -1.9840   -1.9430 H   0  0  0  0  0  0  0  0  0  0  0  0
    4.5950   -0.2440   -1.8310 H   0  0  0  0  0  0  0  0  0  0  0  0
    4.4750   -0.1990   -0.0340 H   0  0  0  0  0  0  0  0  0  0  0  0
    5.7750   -1.1670   -0.8620 H   0  0  0  0  0  0  0  0  0  0  0  0
    3.3830   -2.3930    1.0740 H   0  0  0  0  0  0  0  0  0  0  0  0
    1.5500   -3.2950   -1.0680 H   0  0  0  0  0  0  0  0  0  0  0  0
    1.3340   -3.4430    0.6470 H   0  0  0  0  0  0  0  0  0  0  0  0
   -0.9680    0.4240   -1.0610 C   0  0  0  0  0  0  0  0  0  0  0  0
   -0.4100    0.0020    0.2890 C   0  0  2  0  0  0  0  0  0  0  0  0
    0.4780   -1.1560    0.0970 N   0  0  0  0  0  0  0  0  0  0  0  0
   -1.5010   -0.4520    1.1870 C   0  0  0  0  0  0  0  0  0  0  0  0
   -1.5510   -1.6610    1.5970 O   0  0  0  0  0  0  0  0  0  0  0  0
   -1.1050    1.5210   -1.0440 H   0  0  0  0  0  0  0  0  0  0  0  0
   -0.2510    0.0730   -1.8390 H   0  0  0  0  0  0  0  0  0  0  0  0
   -1.9200   -0.1130   -1.2570 H   0  0  0  0  0  0  0  0  0  0  0  0
    0.1700    0.8110    0.7180 H   0  0  0  0  0  0  0  0  0  0  0  0
    0.1020   -2.0740   -0.2110 H   0  0  0  0  0  0  0  0  0  0  0  0
   -2.5350    0.4120    1.6370 N   0  0  0  0  0  0  0  0  0  0  0  0
   -3.6110   -0.0110    2.5060 C   0  0  1  0  0  0  0  0  0  0  0  0
   -3.3270    0.4950    3.8840 C   0  0  0  0  0  0  0  0  0  0  0  0
   -3.1480    1.9690    4.0110 C   0  0  0  0  0  0  0  0  0  0  0  0
   -4.2690    2.8170    3.6720 C   0  0  0  0  0  0  0  0  0  0  0  0
   -5.3870    2.4100    3.3580 O   0  0  0  0  0  0  0  0  0  0  0  0
   -4.9510    0.1050    1.9830 C   0  0  0  0  0  0  0  0  0  0  0  0
   -5.9050   -0.4000    2.6700 O   0  0  0  0  0  0  0  0  0  0  0  0
   -4.0470    4.2200    3.7090 O   0  0  0  0  0  0  0  0  0  0  0  0
   -5.3310    0.7190    0.7880 O   0  0  0  0  0  0  0  0  0  0  0  0
   -2.4680    1.4140    1.2860 H   0  0  0  0  0  0  0  0  0  0  0  0
   -3.4240   -1.1600    2.5920 H   0  0  0  0  0  0  0  0  0  0  0  0
   -2.3150    0.0500    4.1550 H   0  0  0  0  0  0  0  0  0  0  0  0
   -4.0660    0.1100    4.6320 H   0  0  0  0  0  0  0  0  0  0  0  0
   -2.8620    2.2350    5.0910 H   0  0  0  0  0  0  0  0  0  0  0  0
   -2.2050    2.3030    3.4640 H   0  0  0  0  0  0  0  0  0  0  0  0
   -4.6330    4.8110    3.1320 H   0  0  0  0  0  0  0  0  0  0  0  0
  1  9  1  0  0  0  0
  1  2  1  0  0  0  0
  2 12  1  0  0  0  0
  2  3  1  0  0  0  0
  2 13  1  0  0  0  0
  3 14  1  6  0  0  0
  3  4  1  0  0  0  0
  3  5  1  0  0  0  0
  4 17  1  0  0  0  0
  4 16  1  0  0  0  0
  5  7  1  0  0  0  0
  5 18  1  1  0  0  0
  6  5  1  0  0  0  0
  6 20  1  0  0  0  0
  7  8  2  0  0  0  0
 10  1  1  0  0  0  0
 11  1  1  0  0  0  0
 15  4  1  0  0  0  0
 19  6  1  0  0  0  0
 21 26  1  0  0  0  0
 21 22  1  0  0  0  0
 22 29  1  1  0  0  0
 22 24  1  0  0  0  0
 23 22  1  0  0  0  0
 23  7  1  0  0  0  0
 24 25  2  0  0  0  0
 24 31  1  0  0  0  0
 27 21  1  0  0  0  0
 28 21  1  0  0  0  0
 30 23  1  0  0  0  0
 31 32  1  0  0  0  0
 32 42  1  1  0  0  0
 32 33  1  0  0  0  0
 33 34  1  0  0  0  0
 33 43  1  0  0  0  0
 33 44  1  0  0  0  0
 34 45  1  0  0  0  0
 35 39  1  0  0  0  0
 35 34  1  0  0  0  0
 36 35  2  0  0  0  0
 37 32  1  0  0  0  0
 37 38  1  0  0  0  0
 40 37  2  0  0  0  0
 41 31  1  0  0  0  0
 46 34  1  0  0  0  0
 47 39  1  0  0  0  0
M  END
$$$$
