IAH.pdb
 OpenBabel07022418393D

 48 48  0  0  1  0  0  0  0  0999 V2000
    2.1140   -2.9850   -3.1020 C   0  0  0  0  0  0  0  0  0  0  0  0
    2.1580   -1.7760   -2.2330 C   0  0  0  0  0  0  0  0  0  0  0  0
    3.3670   -1.7210   -1.3280 C   0  0  2  0  0  0  0  0  0  0  0  0
    4.6580   -1.7140   -2.0760 C   0  0  0  0  0  0  0  0  0  0  0  0
    3.2750   -2.7840   -0.2780 C   0  0  2  0  0  0  0  0  0  0  0  0
    3.2120   -4.1190   -0.8230 N   0  0  0  0  0  0  0  0  0  0  0  0
    2.0020   -2.5560    0.4750 C   0  0  0  0  0  0  0  0  0  0  0  0
    1.1020   -3.4320    0.5590 O   0  0  0  0  0  0  0  0  0  0  0  0
    1.4130   -2.7550   -3.9580 H   0  0  0  0  0  0  0  0  0  0  0  0
    3.0760   -3.2390   -3.5840 H   0  0  0  0  0  0  0  0  0  0  0  0
    1.6570   -3.8780   -2.6070 H   0  0  0  0  0  0  0  0  0  0  0  0
    1.2520   -1.7780   -1.5930 H   0  0  0  0  0  0  0  0  0  0  0  0
    2.0780   -0.8690   -2.8710 H   0  0  0  0  0  0  0  0  0  0  0  0
    3.2970   -0.7350   -0.7880 H   0  0  0  0  0  0  0  0  0  0  0  0
    5.0960   -2.7200   -2.2190 H   0  0  0  0  0  0  0  0  0  0  0  0
    5.3990   -1.1240   -1.5130 H   0  0  0  0  0  0  0  0  0  0  0  0
    4.5060   -1.2010   -3.0450 H   0  0  0  0  0  0  0  0  0  0  0  0
    4.1550   -2.6670    0.3990 H   0  0  0  0  0  0  0  0  0  0  0  0
    3.9020   -4.2810   -1.5860 H   0  0  0  0  0  0  0  0  0  0  0  0
    3.2380   -4.8170   -0.0740 H   0  0  0  0  0  0  0  0  0  0  0  0
    0.7700   -0.8780    3.3530 C   0  0  0  0  0  0  0  0  0  0  0  0
    0.5040   -1.1010    1.8740 C   0  0  2  0  0  0  0  0  0  0  0  0
    1.7380   -1.3200    1.1450 N   0  0  0  0  0  0  0  0  0  0  0  0
   -0.1610    0.1000    1.2970 C   0  0  0  0  0  0  0  0  0  0  0  0
    0.3300    0.7560    0.3410 O   0  0  0  0  0  0  0  0  0  0  0  0
    0.6780   -1.8330    3.9100 H   0  0  0  0  0  0  0  0  0  0  0  0
   -0.0460   -0.2110    3.7220 H   0  0  0  0  0  0  0  0  0  0  0  0
    1.7380   -0.3890    3.5290 H   0  0  0  0  0  0  0  0  0  0  0  0
   -0.1310   -2.0080    1.8080 H   0  0  0  0  0  0  0  0  0  0  0  0
    2.4660   -0.5750    1.0930 H   0  0  0  0  0  0  0  0  0  0  0  0
   -1.4230    0.5730    1.8190 N   0  0  0  0  0  0  0  0  0  0  0  0
   -2.0720    1.7240    1.2750 C   0  0  1  0  0  0  0  0  0  0  0  0
   -3.4620    1.5680    0.8050 C   0  0  0  0  0  0  0  0  0  0  0  0
   -4.4340    1.1760    1.8340 C   0  0  0  0  0  0  0  0  0  0  0  0
   -4.3120    0.9760    3.1730 C   0  0  0  0  0  0  0  0  0  0  0  0
   -5.5360    0.6420    3.7000 N   0  0  0  0  0  0  0  0  0  0  0  0
   -6.4000    0.6390    2.6790 C   0  0  0  0  0  0  0  0  0  0  0  0
   -5.7650    0.9560    1.5460 N   0  0  0  0  0  0  0  0  0  0  0  0
   -2.0130    2.8540    2.2620 C   0  0  0  0  0  0  0  0  0  0  0  0
   -2.5830    3.9430    1.9970 O   0  0  0  0  0  0  0  0  0  0  0  0
   -1.3490    2.7570    3.4740 O   0  0  0  0  0  0  0  0  0  0  0  0
   -1.7940    0.0030    2.5980 H   0  0  0  0  0  0  0  0  0  0  0  0
   -1.4550    2.0980    0.3710 H   0  0  0  0  0  0  0  0  0  0  0  0
   -3.5490    0.9040   -0.0990 H   0  0  0  0  0  0  0  0  0  0  0  0
   -3.7870    2.5750    0.3940 H   0  0  0  0  0  0  0  0  0  0  0  0
   -3.4200    1.0700    3.7540 H   0  0  0  0  0  0  0  0  0  0  0  0
   -5.7110    0.4380    4.7090 H   0  0  0  0  0  0  0  0  0  0  0  0
   -7.4700    0.4030    2.8030 H   0  0  0  0  0  0  0  0  0  0  0  0
  1 11  1  0  0  0  0
  1  2  1  0  0  0  0
  2 12  1  0  0  0  0
  2  3  1  0  0  0  0
  3 14  1  1  0  0  0
  3  5  1  0  0  0  0
  4 16  1  0  0  0  0
  4  3  1  0  0  0  0
  5 18  1  1  0  0  0
  5  7  1  0  0  0  0
  6  5  1  0  0  0  0
  6 20  1  0  0  0  0
  7  8  2  0  0  0  0
  7 23  1  0  0  0  0
  9  1  1  0  0  0  0
 10  1  1  0  0  0  0
 13  2  1  0  0  0  0
 15  4  1  0  0  0  0
 17  4  1  0  0  0  0
 19  6  1  0  0  0  0
 21 28  1  0  0  0  0
 21 27  1  0  0  0  0
 21 26  1  0  0  0  0
 22 29  1  6  0  0  0
 22 21  1  0  0  0  0
 23 22  1  0  0  0  0
 24 31  1  0  0  0  0
 24 22  1  0  0  0  0
 25 24  2  0  0  0  0
 30 23  1  0  0  0  0
 31 42  1  0  0  0  0
 32 43  1  6  0  0  0
 32 31  1  0  0  0  0
 32 39  1  0  0  0  0
 33 32  1  0  0  0  0
 33 34  1  0  0  0  0
 34 35  2  0  0  0  0
 35 36  1  0  0  0  0
 35 46  1  0  0  0  0
 36 47  1  0  0  0  0
 37 48  1  0  0  0  0
 37 36  1  0  0  0  0
 38 34  1  0  0  0  0
 38 37  2  0  0  0  0
 39 41  1  0  0  0  0
 40 39  2  0  0  0  0
 44 33  1  0  0  0  0
 45 33  1  0  0  0  0
M  END
$$$$
