IAK.pdb
 OpenBabel07022418393D

 52 51  0  0  1  0  0  0  0  0999 V2000
    3.3360   -5.3130    1.5460 C   0  0  0  0  0  0  0  0  0  0  0  0
    3.8480   -4.2420    0.6380 C   0  0  0  0  0  0  0  0  0  0  0  0
    3.5560   -2.8440    1.1290 C   0  0  2  0  0  0  0  0  0  0  0  0
    4.2330   -2.7210    2.4740 C   0  0  0  0  0  0  0  0  0  0  0  0
    2.0860   -2.5640    1.2610 C   0  0  2  0  0  0  0  0  0  0  0  0
    1.4110   -2.7200   -0.0110 N   0  0  0  0  0  0  0  0  0  0  0  0
    1.9400   -1.2010    1.8070 C   0  0  0  0  0  0  0  0  0  0  0  0
    2.4180   -0.9630    2.9420 O   0  0  0  0  0  0  0  0  0  0  0  0
    4.0990   -5.4810    2.3620 H   0  0  0  0  0  0  0  0  0  0  0  0
    2.3400   -5.1530    1.9500 H   0  0  0  0  0  0  0  0  0  0  0  0
    3.3690   -6.2760    0.9580 H   0  0  0  0  0  0  0  0  0  0  0  0
    3.5360   -4.3920   -0.4300 H   0  0  0  0  0  0  0  0  0  0  0  0
    4.9600   -4.3340    0.6210 H   0  0  0  0  0  0  0  0  0  0  0  0
    4.0630   -2.1460    0.4370 H   0  0  0  0  0  0  0  0  0  0  0  0
    3.4980   -2.9760    3.2590 H   0  0  0  0  0  0  0  0  0  0  0  0
    5.0840   -3.4380    2.5270 H   0  0  0  0  0  0  0  0  0  0  0  0
    4.5810   -1.6760    2.6340 H   0  0  0  0  0  0  0  0  0  0  0  0
    1.6000   -3.2550    1.9720 H   0  0  0  0  0  0  0  0  0  0  0  0
    1.0750   -3.6900   -0.1510 H   0  0  0  0  0  0  0  0  0  0  0  0
    1.9560   -2.3490   -0.8140 H   0  0  0  0  0  0  0  0  0  0  0  0
    1.8460    2.2350    0.8740 C   0  0  0  0  0  0  0  0  0  0  0  0
    1.1830    1.1680    1.7170 C   0  0  2  0  0  0  0  0  0  0  0  0
    1.2910   -0.1420    1.1230 N   0  0  0  0  0  0  0  0  0  0  0  0
   -0.2450    1.5800    1.8750 C   0  0  0  0  0  0  0  0  0  0  0  0
   -0.5550    2.6890    2.3770 O   0  0  0  0  0  0  0  0  0  0  0  0
    1.6260    2.1150   -0.2050 H   0  0  0  0  0  0  0  0  0  0  0  0
    2.9370    2.3050    1.0890 H   0  0  0  0  0  0  0  0  0  0  0  0
    1.4040    3.2100    1.1760 H   0  0  0  0  0  0  0  0  0  0  0  0
    1.6500    1.1970    2.7060 H   0  0  0  0  0  0  0  0  0  0  0  0
    0.9000   -0.3450    0.1900 H   0  0  0  0  0  0  0  0  0  0  0  0
   -1.3350    0.7480    1.4720 N   0  0  0  0  0  0  0  0  0  0  0  0
   -2.6890    1.1620    1.6330 C   0  0  1  0  0  0  0  0  0  0  0  0
   -3.3790    1.3790    0.2930 C   0  0  0  0  0  0  0  0  0  0  0  0
   -3.3870    0.1040   -0.5240 C   0  0  0  0  0  0  0  0  0  0  0  0
   -4.0590    0.2820   -1.8490 C   0  0  0  0  0  0  0  0  0  0  0  0
   -3.3840    1.3330   -2.7040 C   0  0  0  0  0  0  0  0  0  0  0  0
   -4.1300    1.4050   -3.9520 N   0  0  0  0  0  0  0  0  0  0  0  0
   -3.5000    0.2880    2.4750 C   0  0  0  0  0  0  0  0  0  0  0  0
   -3.0430   -0.7470    3.0130 O   0  0  0  0  0  0  0  0  0  0  0  0
   -4.8300    0.6050    2.6940 O   0  0  0  0  0  0  0  0  0  0  0  0
   -1.1160   -0.1820    1.0510 H   0  0  0  0  0  0  0  0  0  0  0  0
   -2.6910    2.1850    2.1120 H   0  0  0  0  0  0  0  0  0  0  0  0
   -2.7750    2.1390   -0.2400 H   0  0  0  0  0  0  0  0  0  0  0  0
   -4.4080    1.7150    0.4130 H   0  0  0  0  0  0  0  0  0  0  0  0
   -3.9160   -0.7070    0.0150 H   0  0  0  0  0  0  0  0  0  0  0  0
   -2.3530   -0.2610   -0.7090 H   0  0  0  0  0  0  0  0  0  0  0  0
   -5.1260    0.4740   -1.6990 H   0  0  0  0  0  0  0  0  0  0  0  0
   -3.9330   -0.6850   -2.4060 H   0  0  0  0  0  0  0  0  0  0  0  0
   -2.3390    0.9970   -2.8870 H   0  0  0  0  0  0  0  0  0  0  0  0
   -3.4290    2.3060   -2.1910 H   0  0  0  0  0  0  0  0  0  0  0  0
   -4.5300    0.4580   -4.1500 H   0  0  0  0  0  0  0  0  0  0  0  0
   -3.5450    1.7800   -4.7310 H   0  0  0  0  0  0  0  0  0  0  0  0
  1 10  1  0  0  0  0
  1  9  1  0  0  0  0
  2  3  1  0  0  0  0
  2  1  1  0  0  0  0
  3 14  1  6  0  0  0
  3  5  1  0  0  0  0
  3  4  1  0  0  0  0
  4 16  1  0  0  0  0
  4 17  1  0  0  0  0
  4 15  1  0  0  0  0
  5  7  1  0  0  0  0
  5 18  1  1  0  0  0
  6  5  1  0  0  0  0
  7  8  2  0  0  0  0
 11  1  1  0  0  0  0
 12  2  1  0  0  0  0
 13  2  1  0  0  0  0
 19  6  1  0  0  0  0
 20  6  1  0  0  0  0
 21 27  1  0  0  0  0
 21 28  1  0  0  0  0
 21 22  1  0  0  0  0
 22 24  1  0  0  0  0
 22 29  1  1  0  0  0
 23 22  1  0  0  0  0
 23  7  1  0  0  0  0
 24 25  2  0  0  0  0
 26 21  1  0  0  0  0
 30 23  1  0  0  0  0
 31 32  1  0  0  0  0
 31 24  1  0  0  0  0
 32 42  1  1  0  0  0
 32 38  1  0  0  0  0
 33 44  1  0  0  0  0
 33 32  1  0  0  0  0
 34 45  1  0  0  0  0
 34 33  1  0  0  0  0
 35 47  1  0  0  0  0
 35 34  1  0  0  0  0
 36 50  1  0  0  0  0
 36 35  1  0  0  0  0
 37 36  1  0  0  0  0
 38 40  2  0  0  0  0
 38 39  1  0  0  0  0
 41 31  1  0  0  0  0
 43 33  1  0  0  0  0
 46 34  1  0  0  0  0
 48 35  1  0  0  0  0
 49 36  1  0  0  0  0
 51 37  1  0  0  0  0
 52 37  1  0  0  0  0
M  END
$$$$
