IAL.pdb
 OpenBabel07022418393D

 50 49  0  0  1  0  0  0  0  0999 V2000
    1.0300   -3.7000    1.6310 C   0  0  0  0  0  0  0  0  0  0  0  0
    1.7630   -2.4240    1.3780 C   0  0  0  0  0  0  0  0  0  0  0  0
    2.5790   -2.4360    0.1340 C   0  0  2  0  0  0  0  0  0  0  0  0
    3.3130   -1.1090   -0.0570 C   0  0  0  0  0  0  0  0  0  0  0  0
    1.8540   -2.8470   -1.0900 C   0  0  2  0  0  0  0  0  0  0  0  0
    2.9100   -2.8090   -2.1690 N   0  0  0  0  0  0  0  0  0  0  0  0
    0.7950   -1.9900   -1.5970 C   0  0  0  0  0  0  0  0  0  0  0  0
    0.9810   -1.3690   -2.7110 O   0  0  0  0  0  0  0  0  0  0  0  0
    1.4180   -4.1380    2.5870 H   0  0  0  0  0  0  0  0  0  0  0  0
    1.1880   -4.4090    0.8150 H   0  0  0  0  0  0  0  0  0  0  0  0
   -0.0560   -3.4890    1.7710 H   0  0  0  0  0  0  0  0  0  0  0  0
    1.0550   -1.5880    1.3260 H   0  0  0  0  0  0  0  0  0  0  0  0
    2.4450   -2.1850    2.2690 H   0  0  0  0  0  0  0  0  0  0  0  0
    3.3980   -3.1980    0.3000 H   0  0  0  0  0  0  0  0  0  0  0  0
    3.6580   -1.0990   -1.1120 H   0  0  0  0  0  0  0  0  0  0  0  0
    2.6930   -0.2500    0.2120 H   0  0  0  0  0  0  0  0  0  0  0  0
    4.1840   -1.1280    0.6230 H   0  0  0  0  0  0  0  0  0  0  0  0
    1.6020   -3.9160   -1.0450 H   0  0  0  0  0  0  0  0  0  0  0  0
    3.5080   -3.6630   -2.0480 H   0  0  0  0  0  0  0  0  0  0  0  0
    2.4410   -2.8170   -3.0970 H   0  0  0  0  0  0  0  0  0  0  0  0
   -2.7150   -1.6420   -1.9910 C   0  0  0  0  0  0  0  0  0  0  0  0
   -1.4520   -0.8640   -1.6490 C   0  0  2  0  0  0  0  0  0  0  0  0
   -0.4780   -1.7280   -1.0180 N   0  0  0  0  0  0  0  0  0  0  0  0
   -1.7340    0.3500   -0.8970 C   0  0  0  0  0  0  0  0  0  0  0  0
   -2.5600    1.1660   -1.4060 O   0  0  0  0  0  0  0  0  0  0  0  0
   -3.3130   -1.0010   -2.6650 H   0  0  0  0  0  0  0  0  0  0  0  0
   -3.2630   -1.8560   -1.0560 H   0  0  0  0  0  0  0  0  0  0  0  0
   -2.4010   -2.5270   -2.5510 H   0  0  0  0  0  0  0  0  0  0  0  0
   -1.0120   -0.5180   -2.6370 H   0  0  0  0  0  0  0  0  0  0  0  0
   -0.6940   -2.1920   -0.1160 H   0  0  0  0  0  0  0  0  0  0  0  0
   -1.2900   -0.3760    3.2080 C   0  0  0  0  0  0  0  0  0  0  0  0
   -1.6180    1.0560    3.4240 C   0  0  0  0  0  0  0  0  0  0  0  0
   -0.3850    1.7310    4.0090 C   0  0  0  0  0  0  0  0  0  0  0  0
   -2.2280    1.8010    2.3110 C   0  0  0  0  0  0  0  0  0  0  0  0
   -1.5020    1.9370    1.0330 C   0  0  2  0  0  0  0  0  0  0  0  0
   -1.1770    0.7020    0.3430 N   0  0  0  0  0  0  0  0  0  0  0  0
   -0.2990    2.8070    1.1640 C   0  0  0  0  0  0  0  0  0  0  0  0
   -0.3560    3.9320    1.7170 O   0  0  0  0  0  0  0  0  0  0  0  0
    0.9540    2.4300    0.6860 O   0  0  0  0  0  0  0  0  0  0  0  0
   -1.4760   -0.9510    4.1680 H   0  0  0  0  0  0  0  0  0  0  0  0
   -1.8970   -0.9070    2.4640 H   0  0  0  0  0  0  0  0  0  0  0  0
   -0.1780   -0.5310    3.0710 H   0  0  0  0  0  0  0  0  0  0  0  0
   -2.3750    1.0960    4.2680 H   0  0  0  0  0  0  0  0  0  0  0  0
   -0.5740    2.8050    4.2270 H   0  0  0  0  0  0  0  0  0  0  0  0
   -0.1400    1.2590    4.9850 H   0  0  0  0  0  0  0  0  0  0  0  0
    0.5000    1.5630    3.3610 H   0  0  0  0  0  0  0  0  0  0  0  0
   -2.4070    2.8490    2.6940 H   0  0  0  0  0  0  0  0  0  0  0  0
   -3.2810    1.4110    2.1740 H   0  0  0  0  0  0  0  0  0  0  0  0
   -2.2040    2.4960    0.3450 H   0  0  0  0  0  0  0  0  0  0  0  0
   -0.5020    0.0450    0.7730 H   0  0  0  0  0  0  0  0  0  0  0  0
  1 11  1  0  0  0  0
  1  9  1  0  0  0  0
  2  1  1  0  0  0  0
  2 13  1  0  0  0  0
  3 14  1  1  0  0  0
  3  2  1  0  0  0  0
  4  3  1  0  0  0  0
  4 16  1  0  0  0  0
  4 17  1  0  0  0  0
  5 18  1  1  0  0  0
  5  3  1  0  0  0  0
  6 19  1  0  0  0  0
  6  5  1  0  0  0  0
  7  5  1  0  0  0  0
  7 23  1  0  0  0  0
  8  7  2  0  0  0  0
 10  1  1  0  0  0  0
 12  2  1  0  0  0  0
 15  4  1  0  0  0  0
 20  6  1  0  0  0  0
 21 22  1  0  0  0  0
 21 27  1  0  0  0  0
 22 29  1  6  0  0  0
 22 23  1  0  0  0  0
 22 24  1  0  0  0  0
 23 30  1  0  0  0  0
 24 36  1  0  0  0  0
 25 24  2  0  0  0  0
 26 21  1  0  0  0  0
 28 21  1  0  0  0  0
 31 32  1  0  0  0  0
 31 40  1  0  0  0  0
 32 33  1  0  0  0  0
 32 43  1  0  0  0  0
 33 44  1  0  0  0  0
 33 45  1  0  0  0  0
 34 47  1  0  0  0  0
 34 32  1  0  0  0  0
 35 49  1  6  0  0  0
 35 37  1  0  0  0  0
 35 34  1  0  0  0  0
 36 50  1  0  0  0  0
 36 35  1  0  0  0  0
 37 38  1  0  0  0  0
 39 37  2  0  0  0  0
 41 31  1  0  0  0  0
 42 31  1  0  0  0  0
 46 33  1  0  0  0  0
 48 34  1  0  0  0  0
M  END
$$$$
