IAP.pdb
 OpenBabel07022418393D

 45 45  0  0  1  0  0  0  0  0999 V2000
   -0.9920   -3.6850    2.0000 C   0  0  0  0  0  0  0  0  0  0  0  0
   -0.4990   -2.7000    0.9660 C   0  0  0  0  0  0  0  0  0  0  0  0
    0.0760   -3.3570   -0.2410 C   0  0  2  0  0  0  0  0  0  0  0  0
    1.2570   -4.2340    0.0610 C   0  0  0  0  0  0  0  0  0  0  0  0
    0.2800   -2.4270   -1.4090 C   0  0  2  0  0  0  0  0  0  0  0  0
    0.8610   -3.2500   -2.5250 N   0  0  0  0  0  0  0  0  0  0  0  0
    1.1660   -1.3010   -1.2040 C   0  0  0  0  0  0  0  0  0  0  0  0
    2.4030   -1.2980   -1.4820 O   0  0  0  0  0  0  0  0  0  0  0  0
   -1.7200   -3.1240    2.6420 H   0  0  0  0  0  0  0  0  0  0  0  0
   -0.2120   -4.0690    2.6550 H   0  0  0  0  0  0  0  0  0  0  0  0
   -1.5900   -4.4750    1.5020 H   0  0  0  0  0  0  0  0  0  0  0  0
    0.3440   -2.1140    1.4350 H   0  0  0  0  0  0  0  0  0  0  0  0
   -1.2990   -1.9910    0.7380 H   0  0  0  0  0  0  0  0  0  0  0  0
   -0.7250   -4.0790   -0.5970 H   0  0  0  0  0  0  0  0  0  0  0  0
    0.8750   -5.1330    0.5970 H   0  0  0  0  0  0  0  0  0  0  0  0
    1.9840   -3.7550    0.7470 H   0  0  0  0  0  0  0  0  0  0  0  0
    1.7050   -4.5880   -0.8740 H   0  0  0  0  0  0  0  0  0  0  0  0
   -0.7080   -2.1230   -1.7880 H   0  0  0  0  0  0  0  0  0  0  0  0
    0.9530   -2.6200   -3.3550 H   0  0  0  0  0  0  0  0  0  0  0  0
    0.0930   -3.9260   -2.7470 H   0  0  0  0  0  0  0  0  0  0  0  0
    1.4280    2.0460   -1.6630 C   0  0  0  0  0  0  0  0  0  0  0  0
    1.5890    1.0480   -0.4800 C   0  0  2  0  0  0  0  0  0  0  0  0
    0.6860   -0.0390   -0.6520 N   0  0  0  0  0  0  0  0  0  0  0  0
    1.4990    1.7710    0.7720 C   0  0  0  0  0  0  0  0  0  0  0  0
    2.4980    2.6590    0.9340 O   0  0  0  0  0  0  0  0  0  0  0  0
    0.7050    2.8260   -1.3510 H   0  0  0  0  0  0  0  0  0  0  0  0
    2.4080    2.5460   -1.8070 H   0  0  0  0  0  0  0  0  0  0  0  0
    1.1350    1.5320   -2.5760 H   0  0  0  0  0  0  0  0  0  0  0  0
    2.6500    0.6710   -0.5800 H   0  0  0  0  0  0  0  0  0  0  0  0
   -0.3150    0.0630   -0.4090 H   0  0  0  0  0  0  0  0  0  0  0  0
    0.6040    1.7490    1.8430 N   0  0  0  0  0  0  0  0  0  0  0  0
    0.8130    2.6220    3.0420 C   0  0  0  0  0  0  0  0  0  0  0  0
    0.4880    1.5860    4.1260 C   0  0  0  0  0  0  0  0  0  0  0  0
   -0.8480    1.1010    3.6240 C   0  0  0  0  0  0  0  0  0  0  0  0
   -0.6020    1.0420    2.1010 C   0  0  1  0  0  0  0  0  0  0  0  0
   -1.7790    1.6470    1.4130 C   0  0  0  0  0  0  0  0  0  0  0  0
   -1.6140    2.6560    0.7160 O   0  0  0  0  0  0  0  0  0  0  0  0
   -3.0130    1.0780    1.5660 O   0  0  0  0  0  0  0  0  0  0  0  0
    1.8350    2.9880    3.0940 H   0  0  0  0  0  0  0  0  0  0  0  0
    0.0190    3.3860    3.0420 H   0  0  0  0  0  0  0  0  0  0  0  0
    0.4410    2.0550    5.1220 H   0  0  0  0  0  0  0  0  0  0  0  0
    1.2240    0.7740    4.0410 H   0  0  0  0  0  0  0  0  0  0  0  0
   -1.0920    0.1150    4.0210 H   0  0  0  0  0  0  0  0  0  0  0  0
   -1.6470    1.8520    3.8320 H   0  0  0  0  0  0  0  0  0  0  0  0
   -0.6120   -0.0150    1.8680 H   0  0  0  0  0  0  0  0  0  0  0  0
  1  9  1  0  0  0  0
  1 10  1  0  0  0  0
  2 12  1  0  0  0  0
  2  1  1  0  0  0  0
  3 14  1  6  0  0  0
  3  4  1  0  0  0  0
  3  2  1  0  0  0  0
  4 15  1  0  0  0  0
  4 16  1  0  0  0  0
  5 18  1  6  0  0  0
  5  7  1  0  0  0  0
  5  3  1  0  0  0  0
  6  5  1  0  0  0  0
  7 23  1  0  0  0  0
  8  7  2  0  0  0  0
 11  1  1  0  0  0  0
 13  2  1  0  0  0  0
 17  4  1  0  0  0  0
 19  6  1  0  0  0  0
 20  6  1  0  0  0  0
 21 26  1  0  0  0  0
 21 22  1  0  0  0  0
 22 29  1  6  0  0  0
 22 24  1  0  0  0  0
 23 22  1  0  0  0  0
 23 30  1  0  0  0  0
 24 25  2  0  0  0  0
 24 31  1  0  0  0  0
 27 21  1  0  0  0  0
 28 21  1  0  0  0  0
 31 35  1  0  0  0  0
 31 32  1  0  0  0  0
 32 40  1  0  0  0  0
 32 39  1  0  0  0  0
 32 33  1  0  0  0  0
 33 41  1  0  0  0  0
 34 44  1  0  0  0  0
 34 43  1  0  0  0  0
 34 33  1  0  0  0  0
 35 45  1  6  0  0  0
 35 34  1  0  0  0  0
 36 38  1  0  0  0  0
 36 35  1  0  0  0  0
 37 36  2  0  0  0  0
 42 33  1  0  0  0  0
M  END
$$$$
