ICC.pdb
 OpenBabel07022418413D

 43 42  0  0  1  0  0  0  0  0999 V2000
   -0.5290   -5.8530    0.4190 C   0  0  0  0  0  0  0  0  0  0  0  0
    0.9420   -5.5540    0.5790 C   0  0  0  0  0  0  0  0  0  0  0  0
    1.2720   -4.1430    0.2040 C   0  0  2  0  0  0  0  0  0  0  0  0
    2.7650   -3.9470    0.3990 C   0  0  0  0  0  0  0  0  0  0  0  0
    0.5190   -3.1360    1.0630 C   0  0  2  0  0  0  0  0  0  0  0  0
   -0.8940   -3.2900    0.9270 N   0  0  0  0  0  0  0  0  0  0  0  0
    0.9890   -1.7650    0.7630 C   0  0  0  0  0  0  0  0  0  0  0  0
    2.2050   -1.4600    0.8450 O   0  0  0  0  0  0  0  0  0  0  0  0
   -0.9140   -5.2590   -0.4350 H   0  0  0  0  0  0  0  0  0  0  0  0
   -0.6840   -6.9530    0.2100 H   0  0  0  0  0  0  0  0  0  0  0  0
   -1.0690   -5.6170    1.3650 H   0  0  0  0  0  0  0  0  0  0  0  0
    1.5080   -6.2290   -0.1080 H   0  0  0  0  0  0  0  0  0  0  0  0
    1.2850   -5.8050    1.6060 H   0  0  0  0  0  0  0  0  0  0  0  0
    0.9710   -3.9660   -0.8350 H   0  0  0  0  0  0  0  0  0  0  0  0
    2.9700   -3.5860    1.4210 H   0  0  0  0  0  0  0  0  0  0  0  0
    3.2850   -4.9320    0.2750 H   0  0  0  0  0  0  0  0  0  0  0  0
    3.1410   -3.2400   -0.3390 H   0  0  0  0  0  0  0  0  0  0  0  0
    0.8210   -3.3710    2.1180 H   0  0  0  0  0  0  0  0  0  0  0  0
   -1.2880   -2.9400    0.0490 H   0  0  0  0  0  0  0  0  0  0  0  0
   -1.4480   -3.1200    1.7800 H   0  0  0  0  0  0  0  0  0  0  0  0
    0.1100   -0.7180    0.3680 N   0  0  0  0  0  0  0  0  0  0  0  0
    0.5850    0.6220    0.0770 C   0  0  1  0  0  0  0  0  0  0  0  0
    0.3550    0.9750   -1.3770 C   0  0  0  0  0  0  0  0  0  0  0  0
    1.2740   -0.2410   -2.3760 S   0  0  0  0  0  0  0  0  0  0  0  0
   -0.1140    1.5580    0.9900 C   0  0  0  0  0  0  0  0  0  0  0  0
   -0.9530    1.1470    1.8180 O   0  0  0  0  0  0  0  0  0  0  0  0
   -0.9030   -0.9550    0.2950 H   0  0  0  0  0  0  0  0  0  0  0  0
    1.6800    0.6180    0.2270 H   0  0  0  0  0  0  0  0  0  0  0  0
    0.8180    1.9680   -1.5390 H   0  0  0  0  0  0  0  0  0  0  0  0
   -0.7020    1.0140   -1.6560 H   0  0  0  0  0  0  0  0  0  0  0  0
    2.6350   -0.1950   -2.0210 H   0  0  0  0  0  0  0  0  0  0  0  0
    0.1300    2.9700    0.9750 N   0  0  0  0  0  0  0  0  0  0  0  0
   -0.5490    3.8980    1.8600 C   0  0  1  0  0  0  0  0  0  0  0  0
    0.5510    4.5010    2.7480 C   0  0  0  0  0  0  0  0  0  0  0  0
   -0.1330    5.6870    3.9160 S   0  0  0  0  0  0  0  0  0  0  0  0
   -1.1720    5.0140    1.1400 C   0  0  0  0  0  0  0  0  0  0  0  0
   -1.8010    5.8900    1.7830 O   0  0  0  0  0  0  0  0  0  0  0  0
   -1.1060    5.1580   -0.2370 O   0  0  0  0  0  0  0  0  0  0  0  0
    0.8230    3.3190    0.2960 H   0  0  0  0  0  0  0  0  0  0  0  0
   -1.2830    3.3870    2.5050 H   0  0  0  0  0  0  0  0  0  0  0  0
    1.0770    3.6660    3.2800 H   0  0  0  0  0  0  0  0  0  0  0  0
    1.3100    4.9590    2.0790 H   0  0  0  0  0  0  0  0  0  0  0  0
   -1.4900    5.3780    4.1800 H   0  0  0  0  0  0  0  0  0  0  0  0
  1  2  1  0  0  0  0
  1 11  1  0  0  0  0
  2 13  1  0  0  0  0
  3 14  1  6  0  0  0
  3  4  1  0  0  0  0
  3  2  1  0  0  0  0
  3  5  1  0  0  0  0
  4 15  1  0  0  0  0
  5 18  1  1  0  0  0
  6  5  1  0  0  0  0
  6 20  1  0  0  0  0
  7  8  2  0  0  0  0
  7  5  1  0  0  0  0
  9  1  1  0  0  0  0
 10  1  1  0  0  0  0
 12  2  1  0  0  0  0
 16  4  1  0  0  0  0
 17  4  1  0  0  0  0
 19  6  1  0  0  0  0
 21  7  1  0  0  0  0
 22 28  1  1  0  0  0
 22 21  1  0  0  0  0
 22 25  1  0  0  0  0
 23 22  1  0  0  0  0
 24 31  1  0  0  0  0
 24 23  1  0  0  0  0
 25 26  2  0  0  0  0
 27 21  1  0  0  0  0
 29 23  1  0  0  0  0
 30 23  1  0  0  0  0
 32 25  1  0  0  0  0
 32 33  1  0  0  0  0
 33 40  1  1  0  0  0
 33 34  1  0  0  0  0
 34 41  1  0  0  0  0
 34 35  1  0  0  0  0
 35 43  1  0  0  0  0
 36 37  1  0  0  0  0
 36 33  1  0  0  0  0
 38 36  2  0  0  0  0
 39 32  1  0  0  0  0
 42 34  1  0  0  0  0
M  END
$$$$
