ICL.pdb
 OpenBabel07022418413D

 51 50  0  0  1  0  0  0  0  0999 V2000
    1.8740   -5.9390    2.6710 C   0  0  0  0  0  0  0  0  0  0  0  0
    3.0780   -5.0110    2.6170 C   0  0  0  0  0  0  0  0  0  0  0  0
    2.6620   -3.5690    2.6780 C   0  0  2  0  0  0  0  0  0  0  0  0
    1.9230   -3.3540    3.9790 C   0  0  0  0  0  0  0  0  0  0  0  0
    1.7610   -3.2420    1.5220 C   0  0  2  0  0  0  0  0  0  0  0  0
    2.4640   -3.4820    0.3010 N   0  0  0  0  0  0  0  0  0  0  0  0
    1.2070   -1.8680    1.6070 C   0  0  0  0  0  0  0  0  0  0  0  0
    0.5630   -1.5000    2.6230 O   0  0  0  0  0  0  0  0  0  0  0  0
    2.2710   -6.9560    2.9060 H   0  0  0  0  0  0  0  0  0  0  0  0
    1.1840   -5.6810    3.4840 H   0  0  0  0  0  0  0  0  0  0  0  0
    1.3770   -6.0160    1.6870 H   0  0  0  0  0  0  0  0  0  0  0  0
    3.6130   -5.2270    1.6740 H   0  0  0  0  0  0  0  0  0  0  0  0
    3.7190   -5.2910    3.4770 H   0  0  0  0  0  0  0  0  0  0  0  0
    3.5730   -2.9480    2.6820 H   0  0  0  0  0  0  0  0  0  0  0  0
    0.8450   -3.5030    3.8000 H   0  0  0  0  0  0  0  0  0  0  0  0
    2.2530   -4.0450    4.7670 H   0  0  0  0  0  0  0  0  0  0  0  0
    2.0940   -2.3090    4.3380 H   0  0  0  0  0  0  0  0  0  0  0  0
    0.9000   -3.9480    1.5590 H   0  0  0  0  0  0  0  0  0  0  0  0
    1.8500   -3.4770   -0.5440 H   0  0  0  0  0  0  0  0  0  0  0  0
    3.3420   -2.9670    0.1800 H   0  0  0  0  0  0  0  0  0  0  0  0
    1.3650   -0.9130    0.5750 N   0  0  0  0  0  0  0  0  0  0  0  0
    0.8180    0.4410    0.6620 C   0  0  1  0  0  0  0  0  0  0  0  0
    2.0190    1.3510    0.7160 C   0  0  0  0  0  0  0  0  0  0  0  0
    1.6650    3.0930    0.8320 S   0  0  0  0  0  0  0  0  0  0  0  0
   -0.1370    0.7140   -0.4000 C   0  0  0  0  0  0  0  0  0  0  0  0
   -0.3610   -0.1620   -1.3060 O   0  0  0  0  0  0  0  0  0  0  0  0
    1.8820   -1.1490   -0.2860 H   0  0  0  0  0  0  0  0  0  0  0  0
    0.3080    0.5030    1.6430 H   0  0  0  0  0  0  0  0  0  0  0  0
    2.6450    1.1950   -0.2140 H   0  0  0  0  0  0  0  0  0  0  0  0
    2.6930    1.0630    1.5480 H   0  0  0  0  0  0  0  0  0  0  0  0
    2.6770    3.8660    0.2580 H   0  0  0  0  0  0  0  0  0  0  0  0
   -3.1870    0.9080    0.8950 C   0  0  0  0  0  0  0  0  0  0  0  0
   -3.8630    1.3110   -0.3670 C   0  0  0  0  0  0  0  0  0  0  0  0
   -4.0860    0.0810   -1.2200 C   0  0  0  0  0  0  0  0  0  0  0  0
   -3.2210    2.4170   -1.1320 C   0  0  0  0  0  0  0  0  0  0  0  0
   -1.8200    2.1640   -1.5910 C   0  0  2  0  0  0  0  0  0  0  0  0
   -0.8750    1.9140   -0.5220 N   0  0  0  0  0  0  0  0  0  0  0  0
   -1.3370    3.2390   -2.5060 C   0  0  0  0  0  0  0  0  0  0  0  0
   -0.2610    3.8460   -2.3730 O   0  0  0  0  0  0  0  0  0  0  0  0
   -2.1500    3.5800   -3.5790 O   0  0  0  0  0  0  0  0  0  0  0  0
   -2.6740   -0.0760    0.7250 H   0  0  0  0  0  0  0  0  0  0  0  0
   -2.5550    1.6610    1.3650 H   0  0  0  0  0  0  0  0  0  0  0  0
   -3.9650    0.6580    1.6790 H   0  0  0  0  0  0  0  0  0  0  0  0
   -4.8900    1.6690   -0.0960 H   0  0  0  0  0  0  0  0  0  0  0  0
   -3.0940   -0.3120   -1.5050 H   0  0  0  0  0  0  0  0  0  0  0  0
   -4.7120    0.3010   -2.1100 H   0  0  0  0  0  0  0  0  0  0  0  0
   -4.5540   -0.6880   -0.5700 H   0  0  0  0  0  0  0  0  0  0  0  0
   -3.8330    2.5380   -2.0740 H   0  0  0  0  0  0  0  0  0  0  0  0
   -3.3380    3.3900   -0.6090 H   0  0  0  0  0  0  0  0  0  0  0  0
   -1.8350    1.2400   -2.2210 H   0  0  0  0  0  0  0  0  0  0  0  0
   -0.7140    2.6490    0.2150 H   0  0  0  0  0  0  0  0  0  0  0  0
  1  9  1  0  0  0  0
  1 10  1  0  0  0  0
  2  1  1  0  0  0  0
  2  3  1  0  0  0  0
  2 13  1  0  0  0  0
  3 14  1  6  0  0  0
  3  4  1  0  0  0  0
  4 17  1  0  0  0  0
  4 16  1  0  0  0  0
  5 18  1  1  0  0  0
  5  7  1  0  0  0  0
  5  3  1  0  0  0  0
  6  5  1  0  0  0  0
  7  8  2  0  0  0  0
 11  1  1  0  0  0  0
 12  2  1  0  0  0  0
 15  4  1  0  0  0  0
 19  6  1  0  0  0  0
 20  6  1  0  0  0  0
 21 22  1  0  0  0  0
 21  7  1  0  0  0  0
 22 23  1  0  0  0  0
 22 28  1  1  0  0  0
 23 24  1  0  0  0  0
 23 30  1  0  0  0  0
 25 22  1  0  0  0  0
 26 25  2  0  0  0  0
 27 21  1  0  0  0  0
 29 23  1  0  0  0  0
 31 24  1  0  0  0  0
 32 42  1  0  0  0  0
 32 43  1  0  0  0  0
 33 44  1  0  0  0  0
 33 32  1  0  0  0  0
 34 47  1  0  0  0  0
 34 33  1  0  0  0  0
 35 49  1  0  0  0  0
 35 33  1  0  0  0  0
 36 50  1  6  0  0  0
 36 35  1  0  0  0  0
 36 37  1  0  0  0  0
 37 25  1  0  0  0  0
 37 51  1  0  0  0  0
 38 39  1  0  0  0  0
 38 36  1  0  0  0  0
 40 38  2  0  0  0  0
 41 32  1  0  0  0  0
 45 34  1  0  0  0  0
 46 34  1  0  0  0  0
 48 35  1  0  0  0  0
M  END
$$$$
