ICQ.pdb
 OpenBabel07022418413D

 49 48  0  0  1  0  0  0  0  0999 V2000
   -0.8860   -4.8660   -0.7890 C   0  0  0  0  0  0  0  0  0  0  0  0
   -0.0590   -3.9720    0.0870 C   0  0  0  0  0  0  0  0  0  0  0  0
    1.4050   -3.9980   -0.2960 C   0  0  2  0  0  0  0  0  0  0  0  0
    1.9250   -5.4250   -0.1620 C   0  0  0  0  0  0  0  0  0  0  0  0
    2.2470   -3.1480    0.6110 C   0  0  2  0  0  0  0  0  0  0  0  0
    2.1780   -3.5700    1.9740 N   0  0  0  0  0  0  0  0  0  0  0  0
    2.0240   -1.6840    0.4330 C   0  0  0  0  0  0  0  0  0  0  0  0
    2.0540   -1.1970   -0.7270 O   0  0  0  0  0  0  0  0  0  0  0  0
   -1.9510   -4.6440   -0.6250 H   0  0  0  0  0  0  0  0  0  0  0  0
   -0.5740   -4.7060   -1.8400 H   0  0  0  0  0  0  0  0  0  0  0  0
   -0.7280   -5.9190   -0.4650 H   0  0  0  0  0  0  0  0  0  0  0  0
   -0.2230   -4.2760    1.1330 H   0  0  0  0  0  0  0  0  0  0  0  0
   -0.4330   -2.9540   -0.0250 H   0  0  0  0  0  0  0  0  0  0  0  0
    1.5110   -3.6880   -1.3470 H   0  0  0  0  0  0  0  0  0  0  0  0
    1.4410   -5.9410    0.7020 H   0  0  0  0  0  0  0  0  0  0  0  0
    3.0150   -5.4180    0.0640 H   0  0  0  0  0  0  0  0  0  0  0  0
    1.7750   -5.9970   -1.0930 H   0  0  0  0  0  0  0  0  0  0  0  0
    3.3140   -3.3310    0.2850 H   0  0  0  0  0  0  0  0  0  0  0  0
    1.2310   -3.4590    2.3560 H   0  0  0  0  0  0  0  0  0  0  0  0
    2.9510   -3.2450    2.5620 H   0  0  0  0  0  0  0  0  0  0  0  0
    1.7810   -0.8280    1.5200 N   0  0  0  0  0  0  0  0  0  0  0  0
    1.5620    0.6240    1.3880 C   0  0  1  0  0  0  0  0  0  0  0  0
    2.7940    1.2520    0.7600 C   0  0  0  0  0  0  0  0  0  0  0  0
    2.6530    3.0380    0.5600 S   0  0  0  0  0  0  0  0  0  0  0  0
    0.3320    0.8060    0.6100 C   0  0  0  0  0  0  0  0  0  0  0  0
   -0.2460   -0.2250    0.0990 O   0  0  0  0  0  0  0  0  0  0  0  0
    1.7570   -1.2700    2.4870 H   0  0  0  0  0  0  0  0  0  0  0  0
    1.5090    1.0530    2.4060 H   0  0  0  0  0  0  0  0  0  0  0  0
    3.6940    1.0840    1.4040 H   0  0  0  0  0  0  0  0  0  0  0  0
    3.0430    0.8050   -0.2190 H   0  0  0  0  0  0  0  0  0  0  0  0
    2.7810    3.6200    1.8510 H   0  0  0  0  0  0  0  0  0  0  0  0
   -3.0280    0.8860    3.6320 N   0  0  0  0  0  0  0  0  0  0  0  0
   -2.4750    1.7740    2.6380 C   0  0  0  0  0  0  0  0  0  0  0  0
   -1.4000    2.3330    2.8660 O   0  0  0  0  0  0  0  0  0  0  0  0
   -3.2430    1.9480    1.4190 C   0  0  0  0  0  0  0  0  0  0  0  0
   -2.6620    2.6860    0.2950 C   0  0  0  0  0  0  0  0  0  0  0  0
   -1.4360    2.1980   -0.3630 C   0  0  2  0  0  0  0  0  0  0  0  0
   -0.2500    2.0780    0.3990 N   0  0  0  0  0  0  0  0  0  0  0  0
   -1.1460    3.0090   -1.5820 C   0  0  0  0  0  0  0  0  0  0  0  0
   -2.0400    3.2640   -2.4340 O   0  0  0  0  0  0  0  0  0  0  0  0
    0.1430    3.4800   -1.7570 O   0  0  0  0  0  0  0  0  0  0  0  0
   -3.5310    1.3160    4.4330 H   0  0  0  0  0  0  0  0  0  0  0  0
   -2.9540   -0.1440    3.5930 H   0  0  0  0  0  0  0  0  0  0  0  0
   -4.1780    2.5210    1.7280 H   0  0  0  0  0  0  0  0  0  0  0  0
   -3.7040    0.9660    1.0720 H   0  0  0  0  0  0  0  0  0  0  0  0
   -3.4920    2.8340   -0.4610 H   0  0  0  0  0  0  0  0  0  0  0  0
   -2.4750    3.7480    0.6460 H   0  0  0  0  0  0  0  0  0  0  0  0
   -1.7230    1.1770   -0.8070 H   0  0  0  0  0  0  0  0  0  0  0  0
    0.2140    2.8980    0.8110 H   0  0  0  0  0  0  0  0  0  0  0  0
  1  9  1  0  0  0  0
  1 11  1  0  0  0  0
  1  2  1  0  0  0  0
  2 12  1  0  0  0  0
  3 14  1  6  0  0  0
  3  4  1  0  0  0  0
  3  2  1  0  0  0  0
  3  5  1  0  0  0  0
  4 16  1  0  0  0  0
  4 15  1  0  0  0  0
  5 18  1  6  0  0  0
  5  6  1  0  0  0  0
  6 19  1  0  0  0  0
  6 20  1  0  0  0  0
  7  5  1  0  0  0  0
  7 21  1  0  0  0  0
  8  7  2  0  0  0  0
 10  1  1  0  0  0  0
 13  2  1  0  0  0  0
 17  4  1  0  0  0  0
 21 27  1  0  0  0  0
 22 21  1  0  0  0  0
 22 28  1  1  0  0  0
 23 22  1  0  0  0  0
 23 29  1  0  0  0  0
 24 23  1  0  0  0  0
 24 31  1  0  0  0  0
 25 22  1  0  0  0  0
 26 25  2  0  0  0  0
 30 23  1  0  0  0  0
 32 42  1  0  0  0  0
 33 34  2  0  0  0  0
 33 32  1  0  0  0  0
 35 44  1  0  0  0  0
 35 33  1  0  0  0  0
 36 47  1  0  0  0  0
 36 35  1  0  0  0  0
 37 48  1  6  0  0  0
 37 36  1  0  0  0  0
 37 38  1  0  0  0  0
 38 25  1  0  0  0  0
 38 49  1  0  0  0  0
 39 37  1  0  0  0  0
 40 39  2  0  0  0  0
 41 39  1  0  0  0  0
 43 32  1  0  0  0  0
 45 35  1  0  0  0  0
 46 36  1  0  0  0  0
M  END
$$$$
