ICR.pdb
 OpenBabel07022418403D

 55 54  0  0  1  0  0  0  0  0999 V2000
    0.2070   -0.2310    6.1420 C   0  0  0  0  0  0  0  0  0  0  0  0
    0.6230   -0.5910    4.7120 C   0  0  0  0  0  0  0  0  0  0  0  0
    1.9660   -0.0240    4.4070 C   0  0  2  0  0  0  0  0  0  0  0  0
    1.8790    1.4990    4.5490 C   0  0  0  0  0  0  0  0  0  0  0  0
    2.5810   -0.4030    3.1070 C   0  0  2  0  0  0  0  0  0  0  0  0
    3.9180    0.2110    2.9970 N   0  0  0  0  0  0  0  0  0  0  0  0
    1.7840   -0.0080    1.9070 C   0  0  0  0  0  0  0  0  0  0  0  0
    0.5530    0.1150    1.9300 O   0  0  0  0  0  0  0  0  0  0  0  0
   -0.0910   -1.1360    6.6750 H   0  0  0  0  0  0  0  0  0  0  0  0
    1.0800    0.2680    6.6210 H   0  0  0  0  0  0  0  0  0  0  0  0
   -0.6080    0.5010    6.0880 H   0  0  0  0  0  0  0  0  0  0  0  0
    0.5560   -1.6850    4.6150 H   0  0  0  0  0  0  0  0  0  0  0  0
   -0.1720   -0.1280    4.0540 H   0  0  0  0  0  0  0  0  0  0  0  0
    2.6850   -0.3620    5.2030 H   0  0  0  0  0  0  0  0  0  0  0  0
    1.6220    2.0020    3.6080 H   0  0  0  0  0  0  0  0  0  0  0  0
    1.0660    1.7150    5.2520 H   0  0  0  0  0  0  0  0  0  0  0  0
    2.8270    1.8630    4.9940 H   0  0  0  0  0  0  0  0  0  0  0  0
    2.7580   -1.4950    3.0940 H   0  0  0  0  0  0  0  0  0  0  0  0
    3.8740    1.2100    2.7840 H   0  0  0  0  0  0  0  0  0  0  0  0
    4.5550   -0.0850    3.7490 H   0  0  0  0  0  0  0  0  0  0  0  0
    2.4380    0.2510    0.6480 N   0  0  0  0  0  0  0  0  0  0  0  0
    1.6610    0.6610   -0.4870 C   0  0  1  0  0  0  0  0  0  0  0  0
    2.4260    1.2740   -1.5850 C   0  0  0  0  0  0  0  0  0  0  0  0
    3.3240    2.7500   -1.1130 S   0  0  0  0  0  0  0  0  0  0  0  0
    0.8460   -0.5130   -1.0110 C   0  0  0  0  0  0  0  0  0  0  0  0
    0.9030   -1.6590   -0.5620 O   0  0  0  0  0  0  0  0  0  0  0  0
    3.4760    0.1340    0.5730 H   0  0  0  0  0  0  0  0  0  0  0  0
    0.8720    1.3440   -0.1280 H   0  0  0  0  0  0  0  0  0  0  0  0
    1.7010    1.5800   -2.3970 H   0  0  0  0  0  0  0  0  0  0  0  0
    3.1070    0.5660   -2.1200 H   0  0  0  0  0  0  0  0  0  0  0  0
    3.0450    3.2240    0.1570 H   0  0  0  0  0  0  0  0  0  0  0  0
   -4.2690   -3.1120    1.0380 N   0  0  0  0  0  0  0  0  0  0  0  0
   -4.2640   -3.5030   -0.3190 C   0  0  0  0  0  0  0  0  0  0  0  0
   -4.5440   -4.6960   -0.6880 N   0  0  0  0  0  0  0  0  0  0  0  0
   -3.9540   -2.5270   -1.3020 N   0  0  0  0  0  0  0  0  0  0  0  0
   -3.4250   -2.8830   -2.5800 C   0  0  0  0  0  0  0  0  0  0  0  0
   -3.2380   -1.6660   -3.4270 C   0  0  0  0  0  0  0  0  0  0  0  0
   -2.2760   -0.7130   -2.8510 C   0  0  0  0  0  0  0  0  0  0  0  0
   -0.8830   -1.2530   -2.6730 C   0  0  2  0  0  0  0  0  0  0  0  0
   -0.0360   -0.2290   -2.0930 N   0  0  0  0  0  0  0  0  0  0  0  0
   -0.2680   -1.7130   -3.9670 C   0  0  0  0  0  0  0  0  0  0  0  0
   -0.8880   -2.6230   -4.6310 O   0  0  0  0  0  0  0  0  0  0  0  0
    0.8950   -1.1890   -4.4160 O   0  0  0  0  0  0  0  0  0  0  0  0
   -3.8970   -3.6680    1.8250 H   0  0  0  0  0  0  0  0  0  0  0  0
   -4.6980   -2.1650    1.2460 H   0  0  0  0  0  0  0  0  0  0  0  0
   -4.5330   -4.9620   -1.7060 H   0  0  0  0  0  0  0  0  0  0  0  0
   -4.1140   -1.4920   -1.1080 H   0  0  0  0  0  0  0  0  0  0  0  0
   -4.1340   -3.5820   -3.1020 H   0  0  0  0  0  0  0  0  0  0  0  0
   -2.4560   -3.4400   -2.5270 H   0  0  0  0  0  0  0  0  0  0  0  0
   -3.0300   -1.9960   -4.4750 H   0  0  0  0  0  0  0  0  0  0  0  0
   -4.2560   -1.1380   -3.4760 H   0  0  0  0  0  0  0  0  0  0  0  0
   -2.2370    0.2650   -3.4370 H   0  0  0  0  0  0  0  0  0  0  0  0
   -2.6260   -0.4120   -1.8390 H   0  0  0  0  0  0  0  0  0  0  0  0
   -0.9140   -2.1770   -2.0540 H   0  0  0  0  0  0  0  0  0  0  0  0
   -0.0970    0.7400   -2.4760 H   0  0  0  0  0  0  0  0  0  0  0  0
  1 10  1  0  0  0  0
  1  9  1  0  0  0  0
  2  1  1  0  0  0  0
  3  4  1  0  0  0  0
  3  2  1  0  0  0  0
  3 14  1  1  0  0  0
  4 17  1  0  0  0  0
  4 16  1  0  0  0  0
  5 18  1  6  0  0  0
  5  3  1  0  0  0  0
  6  5  1  0  0  0  0
  6 20  1  0  0  0  0
  7  8  2  0  0  0  0
  7  5  1  0  0  0  0
 11  1  1  0  0  0  0
 12  2  1  0  0  0  0
 13  2  1  0  0  0  0
 15  4  1  0  0  0  0
 19  6  1  0  0  0  0
 21  7  1  0  0  0  0
 22 28  1  1  0  0  0
 22 21  1  0  0  0  0
 23 24  1  0  0  0  0
 23 22  1  0  0  0  0
 24 31  1  0  0  0  0
 25 26  2  0  0  0  0
 25 22  1  0  0  0  0
 27 21  1  0  0  0  0
 29 23  1  0  0  0  0
 30 23  1  0  0  0  0
 32 45  1  0  0  0  0
 32 44  1  0  0  0  0
 33 32  1  0  0  0  0
 34 33  2  0  0  0  0
 35 47  1  0  0  0  0
 35 33  1  0  0  0  0
 36 49  1  0  0  0  0
 36 35  1  0  0  0  0
 37 38  1  0  0  0  0
 37 36  1  0  0  0  0
 38 39  1  0  0  0  0
 38 53  1  0  0  0  0
 39 40  1  0  0  0  0
 39 54  1  1  0  0  0
 40 25  1  0  0  0  0
 41 39  1  0  0  0  0
 42 41  2  0  0  0  0
 43 41  1  0  0  0  0
 46 34  1  0  0  0  0
 48 36  1  0  0  0  0
 50 37  1  0  0  0  0
 51 37  1  0  0  0  0
 52 38  1  0  0  0  0
 55 40  1  0  0  0  0
M  END
$$$$
