ICS.pdb
 OpenBabel07022418413D

 43 42  0  0  1  0  0  0  0  0999 V2000
    1.2130   -4.9630    4.2050 C   0  0  0  0  0  0  0  0  0  0  0  0
    0.5130   -3.8080    3.4970 C   0  0  0  0  0  0  0  0  0  0  0  0
    0.5330   -4.1180    2.0250 C   0  0  2  0  0  0  0  0  0  0  0  0
    1.9460   -4.2380    1.5660 C   0  0  0  0  0  0  0  0  0  0  0  0
   -0.3070   -3.1760    1.2010 C   0  0  2  0  0  0  0  0  0  0  0  0
   -0.2180   -3.5590   -0.1840 N   0  0  0  0  0  0  0  0  0  0  0  0
    0.0220   -1.7550    1.4220 C   0  0  0  0  0  0  0  0  0  0  0  0
   -0.0060   -1.2260    2.5620 O   0  0  0  0  0  0  0  0  0  0  0  0
    1.8530   -4.5850    5.0290 H   0  0  0  0  0  0  0  0  0  0  0  0
    0.3890   -5.6230    4.5780 H   0  0  0  0  0  0  0  0  0  0  0  0
    1.8060   -5.5740    3.5000 H   0  0  0  0  0  0  0  0  0  0  0  0
    1.1690   -2.9220    3.6500 H   0  0  0  0  0  0  0  0  0  0  0  0
   -0.5160   -3.6530    3.8690 H   0  0  0  0  0  0  0  0  0  0  0  0
    0.0730   -5.1450    1.9250 H   0  0  0  0  0  0  0  0  0  0  0  0
    2.5920   -3.6780    2.2740 H   0  0  0  0  0  0  0  0  0  0  0  0
    2.0720   -3.7410    0.5820 H   0  0  0  0  0  0  0  0  0  0  0  0
    2.3320   -5.2830    1.5520 H   0  0  0  0  0  0  0  0  0  0  0  0
   -1.3620   -3.3190    1.5210 H   0  0  0  0  0  0  0  0  0  0  0  0
   -0.9760   -3.0850   -0.7050 H   0  0  0  0  0  0  0  0  0  0  0  0
   -0.3180   -4.5980   -0.2380 H   0  0  0  0  0  0  0  0  0  0  0  0
    0.3810   -0.9760    0.2930 N   0  0  0  0  0  0  0  0  0  0  0  0
    0.7250    0.4500    0.4190 C   0  0  1  0  0  0  0  0  0  0  0  0
    2.1680    0.5420   -0.0110 C   0  0  0  0  0  0  0  0  0  0  0  0
    2.8720    2.1790    0.0430 S   0  0  0  0  0  0  0  0  0  0  0  0
   -0.2020    1.2840   -0.3470 C   0  0  0  0  0  0  0  0  0  0  0  0
   -1.1440    0.7940   -1.0620 O   0  0  0  0  0  0  0  0  0  0  0  0
    0.4220   -1.3590   -0.6760 H   0  0  0  0  0  0  0  0  0  0  0  0
    0.6360    0.7010    1.4910 H   0  0  0  0  0  0  0  0  0  0  0  0
    2.7880   -0.1280    0.6210 H   0  0  0  0  0  0  0  0  0  0  0  0
    2.2870    0.1540   -1.0610 H   0  0  0  0  0  0  0  0  0  0  0  0
    3.0680    2.7440   -1.2440 H   0  0  0  0  0  0  0  0  0  0  0  0
   -2.5970    3.7320    0.7280 O   0  0  0  0  0  0  0  0  0  0  0  0
   -1.8490    4.4250   -0.2090 C   0  0  0  0  0  0  0  0  0  0  0  0
   -1.0480    3.5080   -1.1130 C   0  0  2  0  0  0  0  0  0  0  0  0
   -0.1190    2.6990   -0.3460 N   0  0  0  0  0  0  0  0  0  0  0  0
   -0.3570    4.3600   -2.0990 C   0  0  0  0  0  0  0  0  0  0  0  0
   -1.0530    5.1110   -2.8280 O   0  0  0  0  0  0  0  0  0  0  0  0
    1.0230    4.3580   -2.2450 O   0  0  0  0  0  0  0  0  0  0  0  0
   -2.0330    3.5520    1.5260 H   0  0  0  0  0  0  0  0  0  0  0  0
   -2.5130    5.0880   -0.7980 H   0  0  0  0  0  0  0  0  0  0  0  0
   -1.1400    5.1110    0.3230 H   0  0  0  0  0  0  0  0  0  0  0  0
   -1.7400    2.8420   -1.6280 H   0  0  0  0  0  0  0  0  0  0  0  0
    0.5930    3.2230    0.1960 H   0  0  0  0  0  0  0  0  0  0  0  0
  1 10  1  0  0  0  0
  1  9  1  0  0  0  0
  2 12  1  0  0  0  0
  2 13  1  0  0  0  0
  2  1  1  0  0  0  0
  3 14  1  6  0  0  0
  3  2  1  0  0  0  0
  4  3  1  0  0  0  0
  4 15  1  0  0  0  0
  5  7  1  0  0  0  0
  5 18  1  1  0  0  0
  5  3  1  0  0  0  0
  6  5  1  0  0  0  0
  7  8  2  0  0  0  0
 11  1  1  0  0  0  0
 16  4  1  0  0  0  0
 17  4  1  0  0  0  0
 19  6  1  0  0  0  0
 20  6  1  0  0  0  0
 21 22  1  0  0  0  0
 21  7  1  0  0  0  0
 22 28  1  1  0  0  0
 23 24  1  0  0  0  0
 23 22  1  0  0  0  0
 23 29  1  0  0  0  0
 25 35  1  0  0  0  0
 25 22  1  0  0  0  0
 26 25  2  0  0  0  0
 27 21  1  0  0  0  0
 30 23  1  0  0  0  0
 31 24  1  0  0  0  0
 32 39  1  0  0  0  0
 33 41  1  0  0  0  0
 33 32  1  0  0  0  0
 34 42  1  6  0  0  0
 34 35  1  0  0  0  0
 34 33  1  0  0  0  0
 35 43  1  0  0  0  0
 36 34  1  0  0  0  0
 37 36  2  0  0  0  0
 38 36  1  0  0  0  0
 40 33  1  0  0  0  0
M  END
$$$$
