ICY.pdb
 OpenBabel07022418413D

 53 53  0  0  1  0  0  0  0  0999 V2000
   -0.6360   -1.9550    3.0500 C   0  0  0  0  0  0  0  0  0  0  0  0
    0.3610   -0.8460    2.7900 C   0  0  0  0  0  0  0  0  0  0  0  0
    1.7150   -1.4220    2.4690 C   0  0  2  0  0  0  0  0  0  0  0  0
    2.2470   -2.2690    3.6100 C   0  0  0  0  0  0  0  0  0  0  0  0
    2.7360   -0.3940    2.1240 C   0  0  2  0  0  0  0  0  0  0  0  0
    2.9760    0.5580    3.1860 N   0  0  0  0  0  0  0  0  0  0  0  0
    2.3680    0.2720    0.8520 C   0  0  0  0  0  0  0  0  0  0  0  0
    2.2870    1.5210    0.8280 O   0  0  0  0  0  0  0  0  0  0  0  0
   -0.9590   -2.4030    2.0870 H   0  0  0  0  0  0  0  0  0  0  0  0
   -0.3010   -2.6840    3.7920 H   0  0  0  0  0  0  0  0  0  0  0  0
   -1.5720   -1.4910    3.4770 H   0  0  0  0  0  0  0  0  0  0  0  0
   -0.0400   -0.2370    1.9690 H   0  0  0  0  0  0  0  0  0  0  0  0
    0.4640   -0.2720    3.7330 H   0  0  0  0  0  0  0  0  0  0  0  0
    1.5970   -2.1060    1.6090 H   0  0  0  0  0  0  0  0  0  0  0  0
    3.2840   -2.5690    3.3590 H   0  0  0  0  0  0  0  0  0  0  0  0
    2.1930   -1.6770    4.5490 H   0  0  0  0  0  0  0  0  0  0  0  0
    1.6710   -3.2050    3.7430 H   0  0  0  0  0  0  0  0  0  0  0  0
    3.7120   -0.9430    1.9880 H   0  0  0  0  0  0  0  0  0  0  0  0
    2.1130    1.0620    3.4800 H   0  0  0  0  0  0  0  0  0  0  0  0
    3.4580    0.0670    3.9530 H   0  0  0  0  0  0  0  0  0  0  0  0
    2.1150   -0.4850   -0.3130 N   0  0  0  0  0  0  0  0  0  0  0  0
    1.7540    0.0990   -1.5870 C   0  0  1  0  0  0  0  0  0  0  0  0
    2.7550   -0.3480   -2.6340 C   0  0  0  0  0  0  0  0  0  0  0  0
    2.2930    0.3890   -4.2250 S   0  0  0  0  0  0  0  0  0  0  0  0
    0.4300   -0.4200   -2.0260 C   0  0  0  0  0  0  0  0  0  0  0  0
   -0.0860   -0.0580   -3.1170 O   0  0  0  0  0  0  0  0  0  0  0  0
    2.2000   -1.5230   -0.2360 H   0  0  0  0  0  0  0  0  0  0  0  0
    1.7370    1.2110   -1.4900 H   0  0  0  0  0  0  0  0  0  0  0  0
    3.7980   -0.1120   -2.3570 H   0  0  0  0  0  0  0  0  0  0  0  0
    2.6180   -1.4530   -2.7360 H   0  0  0  0  0  0  0  0  0  0  0  0
    2.3760    1.7780   -4.2100 H   0  0  0  0  0  0  0  0  0  0  0  0
   -3.7590    1.7170    3.3320 O   0  0  0  0  0  0  0  0  0  0  0  0
   -3.5110    1.0060    2.1450 C   0  0  0  0  0  0  0  0  0  0  0  0
   -4.0810   -0.2410    1.9370 C   0  0  0  0  0  0  0  0  0  0  0  0
   -3.8280   -0.9270    0.7660 C   0  0  0  0  0  0  0  0  0  0  0  0
   -3.0160   -0.3970   -0.2070 C   0  0  0  0  0  0  0  0  0  0  0  0
   -2.6920   -1.0510   -1.4770 C   0  0  0  0  0  0  0  0  0  0  0  0
   -1.5140   -1.9120   -1.5000 C   0  0  2  0  0  0  0  0  0  0  0  0
   -0.2560   -1.3420   -1.1880 N   0  0  0  0  0  0  0  0  0  0  0  0
   -1.4100   -2.5350   -2.8750 C   0  0  0  0  0  0  0  0  0  0  0  0
   -2.4290   -3.0420   -3.4120 O   0  0  0  0  0  0  0  0  0  0  0  0
   -2.4640    0.8490    0.0350 C   0  0  0  0  0  0  0  0  0  0  0  0
   -2.6920    1.5670    1.1920 C   0  0  0  0  0  0  0  0  0  0  0  0
   -0.2110   -2.5600   -3.5490 O   0  0  0  0  0  0  0  0  0  0  0  0
   -3.1570    1.4710    4.1090 H   0  0  0  0  0  0  0  0  0  0  0  0
   -4.7050   -0.6220    2.7100 H   0  0  0  0  0  0  0  0  0  0  0  0
   -4.2600   -1.8980    0.5810 H   0  0  0  0  0  0  0  0  0  0  0  0
   -2.6300   -0.2730   -2.2590 H   0  0  0  0  0  0  0  0  0  0  0  0
   -3.5870   -1.6750   -1.7580 H   0  0  0  0  0  0  0  0  0  0  0  0
   -1.6530   -2.8450   -0.8530 H   0  0  0  0  0  0  0  0  0  0  0  0
    0.1750   -1.6430   -0.2540 H   0  0  0  0  0  0  0  0  0  0  0  0
   -1.8090    1.2970   -0.7290 H   0  0  0  0  0  0  0  0  0  0  0  0
   -2.2350    2.5570    1.3490 H   0  0  0  0  0  0  0  0  0  0  0  0
  1 11  1  0  0  0  0
  1 10  1  0  0  0  0
  2  1  1  0  0  0  0
  2 13  1  0  0  0  0
  3 14  1  6  0  0  0
  3  2  1  0  0  0  0
  3  4  1  0  0  0  0
  4 17  1  0  0  0  0
  4 16  1  0  0  0  0
  5 18  1  6  0  0  0
  5  3  1  0  0  0  0
  5  6  1  0  0  0  0
  6 19  1  0  0  0  0
  6 20  1  0  0  0  0
  7  5  1  0  0  0  0
  8  7  2  0  0  0  0
  9  1  1  0  0  0  0
 12  2  1  0  0  0  0
 15  4  1  0  0  0  0
 21 27  1  0  0  0  0
 21  7  1  0  0  0  0
 22 28  1  1  0  0  0
 22 21  1  0  0  0  0
 23 29  1  0  0  0  0
 23 22  1  0  0  0  0
 24 31  1  0  0  0  0
 24 23  1  0  0  0  0
 25 22  1  0  0  0  0
 25 39  1  0  0  0  0
 26 25  2  0  0  0  0
 30 23  1  0  0  0  0
 32 45  1  0  0  0  0
 33 32  1  0  0  0  0
 34 33  1  0  0  0  0
 34 46  1  0  0  0  0
 35 34  2  0  0  0  0
 36 42  2  0  0  0  0
 36 35  1  0  0  0  0
 37 36  1  0  0  0  0
 38 37  1  0  0  0  0
 38 39  1  0  0  0  0
 38 50  1  1  0  0  0
 39 51  1  0  0  0  0
 40 38  1  0  0  0  0
 41 40  1  0  0  0  0
 42 43  1  0  0  0  0
 43 53  1  0  0  0  0
 43 33  2  0  0  0  0
 44 40  2  0  0  0  0
 47 35  1  0  0  0  0
 48 37  1  0  0  0  0
 49 37  1  0  0  0  0
 52 42  1  0  0  0  0
M  END
$$$$
