IDA.pdb
 OpenBabel07022418403D

 44 43  0  0  1  0  0  0  0  0999 V2000
    2.3820   -4.3640   -0.2960 C   0  0  0  0  0  0  0  0  0  0  0  0
    3.2850   -3.1880   -0.2800 C   0  0  0  0  0  0  0  0  0  0  0  0
    2.7940   -2.0330   -1.1040 C   0  0  2  0  0  0  0  0  0  0  0  0
    3.7670   -0.8660   -1.0620 C   0  0  0  0  0  0  0  0  0  0  0  0
    1.3980   -1.6080   -0.7570 C   0  0  2  0  0  0  0  0  0  0  0  0
    1.0530   -0.4830   -1.6480 N   0  0  0  0  0  0  0  0  0  0  0  0
    1.1610   -1.2730    0.6360 C   0  0  0  0  0  0  0  0  0  0  0  0
    1.4150   -2.1190    1.5250 O   0  0  0  0  0  0  0  0  0  0  0  0
    2.9670   -5.2640   -0.6240 H   0  0  0  0  0  0  0  0  0  0  0  0
    1.5990   -4.2410   -1.0800 H   0  0  0  0  0  0  0  0  0  0  0  0
    1.9370   -4.6490    0.6790 H   0  0  0  0  0  0  0  0  0  0  0  0
    3.4900   -2.9080    0.7750 H   0  0  0  0  0  0  0  0  0  0  0  0
    4.2870   -3.5000   -0.6760 H   0  0  0  0  0  0  0  0  0  0  0  0
    2.7660   -2.3750   -2.1570 H   0  0  0  0  0  0  0  0  0  0  0  0
    3.2570    0.1070   -1.2240 H   0  0  0  0  0  0  0  0  0  0  0  0
    4.5170   -0.9400   -1.8980 H   0  0  0  0  0  0  0  0  0  0  0  0
    4.3790   -0.8830   -0.1330 H   0  0  0  0  0  0  0  0  0  0  0  0
    0.7180   -2.4290   -1.0490 H   0  0  0  0  0  0  0  0  0  0  0  0
    0.0080   -0.4160   -1.6270 H   0  0  0  0  0  0  0  0  0  0  0  0
    1.3380   -0.7840   -2.6000 H   0  0  0  0  0  0  0  0  0  0  0  0
    0.6410   -0.0050    1.0700 N   0  0  0  0  0  0  0  0  0  0  0  0
    0.4190    0.2940    2.4460 C   0  0  1  0  0  0  0  0  0  0  0  0
    1.2070    1.4370    2.9780 C   0  0  0  0  0  0  0  0  0  0  0  0
    0.9730    2.7150    2.3170 C   0  0  0  0  0  0  0  0  0  0  0  0
    0.1560    2.7870    1.3730 O   0  0  0  0  0  0  0  0  0  0  0  0
   -1.0530    0.4350    2.7040 C   0  0  0  0  0  0  0  0  0  0  0  0
   -1.4820    0.6980    3.8560 O   0  0  0  0  0  0  0  0  0  0  0  0
    1.6330    3.8630    2.7040 O   0  0  0  0  0  0  0  0  0  0  0  0
    0.4450    0.6660    0.3060 H   0  0  0  0  0  0  0  0  0  0  0  0
    0.7190   -0.6090    3.0550 H   0  0  0  0  0  0  0  0  0  0  0  0
    2.2810    1.1450    2.9630 H   0  0  0  0  0  0  0  0  0  0  0  0
    0.9480    1.5510    4.0580 H   0  0  0  0  0  0  0  0  0  0  0  0
    1.7250    4.6930    2.1270 H   0  0  0  0  0  0  0  0  0  0  0  0
   -4.0250    1.5440    1.0480 C   0  0  0  0  0  0  0  0  0  0  0  0
   -3.4260    0.3960    1.8310 C   0  0  2  0  0  0  0  0  0  0  0  0
   -2.0130    0.2780    1.6640 N   0  0  0  0  0  0  0  0  0  0  0  0
   -4.1440   -0.8610    1.5510 C   0  0  0  0  0  0  0  0  0  0  0  0
   -3.4840   -1.8730    1.2090 O   0  0  0  0  0  0  0  0  0  0  0  0
   -5.5040   -0.9580    1.6530 O   0  0  0  0  0  0  0  0  0  0  0  0
   -5.1040    1.4410    0.9010 H   0  0  0  0  0  0  0  0  0  0  0  0
   -3.8510    2.4650    1.6420 H   0  0  0  0  0  0  0  0  0  0  0  0
   -3.4840    1.7090    0.0840 H   0  0  0  0  0  0  0  0  0  0  0  0
   -3.6120    0.6280    2.9140 H   0  0  0  0  0  0  0  0  0  0  0  0
   -1.5980    0.0560    0.7090 H   0  0  0  0  0  0  0  0  0  0  0  0
  1  2  1  0  0  0  0
  1 11  1  0  0  0  0
  2 12  1  0  0  0  0
  3 14  1  6  0  0  0
  3  4  1  0  0  0  0
  3  5  1  0  0  0  0
  3  2  1  0  0  0  0
  4 17  1  0  0  0  0
  5 18  1  6  0  0  0
  5  7  1  0  0  0  0
  6 19  1  0  0  0  0
  6  5  1  0  0  0  0
  7 21  1  0  0  0  0
  7  8  2  0  0  0  0
  9  1  1  0  0  0  0
 10  1  1  0  0  0  0
 13  2  1  0  0  0  0
 15  4  1  0  0  0  0
 16  4  1  0  0  0  0
 20  6  1  0  0  0  0
 21 22  1  0  0  0  0
 22 26  1  0  0  0  0
 22 23  1  0  0  0  0
 22 30  1  1  0  0  0
 23 32  1  0  0  0  0
 24 28  1  0  0  0  0
 24 23  1  0  0  0  0
 25 24  2  0  0  0  0
 26 27  2  0  0  0  0
 29 21  1  0  0  0  0
 31 23  1  0  0  0  0
 33 28  1  0  0  0  0
 34 41  1  0  0  0  0
 34 35  1  0  0  0  0
 35 43  1  1  0  0  0
 36 35  1  0  0  0  0
 36 26  1  0  0  0  0
 37 39  1  0  0  0  0
 37 35  1  0  0  0  0
 38 37  2  0  0  0  0
 40 34  1  0  0  0  0
 42 34  1  0  0  0  0
 44 36  1  0  0  0  0
M  END
$$$$
