IDE.pdb
 OpenBabel07022418403D

 50 49  0  0  1  0  0  0  0  0999 V2000
    4.3010   -3.3460    2.4050 C   0  0  0  0  0  0  0  0  0  0  0  0
    3.4740   -3.1940    1.1680 C   0  0  0  0  0  0  0  0  0  0  0  0
    2.2780   -2.2490    1.3550 C   0  0  2  0  0  0  0  0  0  0  0  0
    1.5840   -2.2570    0.0030 C   0  0  0  0  0  0  0  0  0  0  0  0
    2.7610   -0.8580    1.6860 C   0  0  2  0  0  0  0  0  0  0  0  0
    3.5600   -0.9420    2.9170 N   0  0  0  0  0  0  0  0  0  0  0  0
    1.6150    0.0080    2.0380 C   0  0  0  0  0  0  0  0  0  0  0  0
    1.4210    0.3750    3.2580 O   0  0  0  0  0  0  0  0  0  0  0  0
    4.7280   -4.3910    2.4900 H   0  0  0  0  0  0  0  0  0  0  0  0
    5.1320   -2.6060    2.4000 H   0  0  0  0  0  0  0  0  0  0  0  0
    3.6540   -3.2550    3.3010 H   0  0  0  0  0  0  0  0  0  0  0  0
    4.0830   -2.8150    0.2960 H   0  0  0  0  0  0  0  0  0  0  0  0
    3.1290   -4.1980    0.8520 H   0  0  0  0  0  0  0  0  0  0  0  0
    1.6450   -2.6020    2.1740 H   0  0  0  0  0  0  0  0  0  0  0  0
    1.7480   -3.2860   -0.4330 H   0  0  0  0  0  0  0  0  0  0  0  0
    0.5110   -2.1190    0.0490 H   0  0  0  0  0  0  0  0  0  0  0  0
    2.0950   -1.5650   -0.6600 H   0  0  0  0  0  0  0  0  0  0  0  0
    3.3830   -0.4490    0.8780 H   0  0  0  0  0  0  0  0  0  0  0  0
    4.3630   -0.3060    2.9140 H   0  0  0  0  0  0  0  0  0  0  0  0
    2.9540   -0.8870    3.7580 H   0  0  0  0  0  0  0  0  0  0  0  0
    0.6610    0.5050    1.1130 N   0  0  0  0  0  0  0  0  0  0  0  0
   -0.4120    1.3560    1.5270 C   0  0  1  0  0  0  0  0  0  0  0  0
   -0.0990    2.7420    0.9800 C   0  0  0  0  0  0  0  0  0  0  0  0
    1.2000    3.1540    1.5680 C   0  0  0  0  0  0  0  0  0  0  0  0
    1.3170    3.6200    2.7340 O   0  0  0  0  0  0  0  0  0  0  0  0
   -1.7650    0.9270    1.2340 C   0  0  0  0  0  0  0  0  0  0  0  0
   -2.7310    1.6910    1.6080 O   0  0  0  0  0  0  0  0  0  0  0  0
    2.3960    3.0410    0.8330 O   0  0  0  0  0  0  0  0  0  0  0  0
    0.7610    0.2370    0.0880 H   0  0  0  0  0  0  0  0  0  0  0  0
   -0.3320    1.4880    2.6460 H   0  0  0  0  0  0  0  0  0  0  0  0
   -0.9060    3.4550    1.1470 H   0  0  0  0  0  0  0  0  0  0  0  0
    0.0530    2.6470   -0.1160 H   0  0  0  0  0  0  0  0  0  0  0  0
    3.2220    3.5830    1.0770 H   0  0  0  0  0  0  0  0  0  0  0  0
   -2.1980   -0.2470    0.5740 N   0  0  0  0  0  0  0  0  0  0  0  0
   -3.5630   -0.5670    0.3400 C   0  0  1  0  0  0  0  0  0  0  0  0
   -4.1270   -0.3290   -1.0080 C   0  0  0  0  0  0  0  0  0  0  0  0
   -3.5330   -0.9950   -2.1730 C   0  0  0  0  0  0  0  0  0  0  0  0
   -2.1680   -0.6130   -2.5120 C   0  0  0  0  0  0  0  0  0  0  0  0
   -1.6110    0.3520   -1.9750 O   0  0  0  0  0  0  0  0  0  0  0  0
   -3.9110   -1.9540    0.7880 C   0  0  0  0  0  0  0  0  0  0  0  0
   -3.0630   -2.7250    1.3080 O   0  0  0  0  0  0  0  0  0  0  0  0
   -1.4360   -1.3340   -3.4650 O   0  0  0  0  0  0  0  0  0  0  0  0
   -5.1970   -2.4540    0.6480 O   0  0  0  0  0  0  0  0  0  0  0  0
   -1.4590   -0.9120    0.2770 H   0  0  0  0  0  0  0  0  0  0  0  0
   -4.2040    0.1130    1.0200 H   0  0  0  0  0  0  0  0  0  0  0  0
   -5.2350   -0.5510   -0.9300 H   0  0  0  0  0  0  0  0  0  0  0  0
   -4.0670    0.7900   -1.2020 H   0  0  0  0  0  0  0  0  0  0  0  0
   -3.5860   -2.1100   -2.1470 H   0  0  0  0  0  0  0  0  0  0  0  0
   -4.1810   -0.7340   -3.0680 H   0  0  0  0  0  0  0  0  0  0  0  0
   -0.5930   -0.9170   -3.8340 H   0  0  0  0  0  0  0  0  0  0  0  0
  1  9  1  0  0  0  0
  1 11  1  0  0  0  0
  2  3  1  0  0  0  0
  2  1  1  0  0  0  0
  3  5  1  0  0  0  0
  3 14  1  1  0  0  0
  4 16  1  0  0  0  0
  4  3  1  0  0  0  0
  5 18  1  6  0  0  0
  5  7  1  0  0  0  0
  5  6  1  0  0  0  0
  6 20  1  0  0  0  0
  7  8  2  0  0  0  0
 10  1  1  0  0  0  0
 12  2  1  0  0  0  0
 13  2  1  0  0  0  0
 15  4  1  0  0  0  0
 17  4  1  0  0  0  0
 19  6  1  0  0  0  0
 21 22  1  0  0  0  0
 21  7  1  0  0  0  0
 22 30  1  1  0  0  0
 23 31  1  0  0  0  0
 23 22  1  0  0  0  0
 23 24  1  0  0  0  0
 24 25  2  0  0  0  0
 26 22  1  0  0  0  0
 26 27  2  0  0  0  0
 28 33  1  0  0  0  0
 28 24  1  0  0  0  0
 29 21  1  0  0  0  0
 32 23  1  0  0  0  0
 34 26  1  0  0  0  0
 35 34  1  0  0  0  0
 35 40  1  0  0  0  0
 35 45  1  1  0  0  0
 36 46  1  0  0  0  0
 36 35  1  0  0  0  0
 37 48  1  0  0  0  0
 37 36  1  0  0  0  0
 38 37  1  0  0  0  0
 38 39  2  0  0  0  0
 40 41  1  0  0  0  0
 42 38  1  0  0  0  0
 43 40  2  0  0  0  0
 44 34  1  0  0  0  0
 47 36  1  0  0  0  0
 49 37  1  0  0  0  0
 50 42  1  0  0  0  0
M  END
$$$$
