IDF.pdb
 OpenBabel07022418403D

 54 54  0  0  1  0  0  0  0  0999 V2000
    2.4100   -2.1510    4.1470 C   0  0  0  0  0  0  0  0  0  0  0  0
    1.9950   -1.9490    2.7350 C   0  0  0  0  0  0  0  0  0  0  0  0
    3.0530   -1.4260    1.8130 C   0  0  2  0  0  0  0  0  0  0  0  0
    4.2210   -2.3480    1.7450 C   0  0  0  0  0  0  0  0  0  0  0  0
    3.5120   -0.0290    2.1520 C   0  0  2  0  0  0  0  0  0  0  0  0
    4.0720    0.1030    3.4530 N   0  0  0  0  0  0  0  0  0  0  0  0
    2.4120    0.9590    1.9090 C   0  0  0  0  0  0  0  0  0  0  0  0
    2.1210    1.7460    2.8610 O   0  0  0  0  0  0  0  0  0  0  0  0
    3.3350   -2.7110    4.2900 H   0  0  0  0  0  0  0  0  0  0  0  0
    1.6020   -2.7790    4.6300 H   0  0  0  0  0  0  0  0  0  0  0  0
    2.4150   -1.2150    4.7610 H   0  0  0  0  0  0  0  0  0  0  0  0
    1.6560   -2.9230    2.3290 H   0  0  0  0  0  0  0  0  0  0  0  0
    1.1080   -1.2840    2.7160 H   0  0  0  0  0  0  0  0  0  0  0  0
    2.5890   -1.3630    0.8060 H   0  0  0  0  0  0  0  0  0  0  0  0
    5.1620   -1.8060    2.0140 H   0  0  0  0  0  0  0  0  0  0  0  0
    4.3070   -2.7620    0.7220 H   0  0  0  0  0  0  0  0  0  0  0  0
    4.0400   -3.2010    2.4410 H   0  0  0  0  0  0  0  0  0  0  0  0
    4.3070    0.2280    1.4130 H   0  0  0  0  0  0  0  0  0  0  0  0
    4.5620   -0.7060    3.8230 H   0  0  0  0  0  0  0  0  0  0  0  0
    3.6200    0.7490    4.0970 H   0  0  0  0  0  0  0  0  0  0  0  0
    1.7290    1.0100    0.6700 N   0  0  0  0  0  0  0  0  0  0  0  0
    0.6600    1.9710    0.4360 C   0  0  1  0  0  0  0  0  0  0  0  0
    1.0630    2.9290   -0.6560 C   0  0  0  0  0  0  0  0  0  0  0  0
   -0.0080    3.9050   -0.9000 C   0  0  0  0  0  0  0  0  0  0  0  0
   -0.9200    3.7420   -1.7400 O   0  0  0  0  0  0  0  0  0  0  0  0
   -0.6200    1.2920    0.1510 C   0  0  0  0  0  0  0  0  0  0  0  0
   -1.6770    1.9320   -0.0500 O   0  0  0  0  0  0  0  0  0  0  0  0
    0.0100    5.0800   -0.1400 O   0  0  0  0  0  0  0  0  0  0  0  0
    1.9830    0.3560   -0.0970 H   0  0  0  0  0  0  0  0  0  0  0  0
    0.5350    2.5710    1.3590 H   0  0  0  0  0  0  0  0  0  0  0  0
    1.3070    2.3320   -1.5620 H   0  0  0  0  0  0  0  0  0  0  0  0
    1.9810    3.4650   -0.2880 H   0  0  0  0  0  0  0  0  0  0  0  0
   -0.6430    5.8020   -0.3740 H   0  0  0  0  0  0  0  0  0  0  0  0
   -0.7130   -0.1330    0.0900 N   0  0  0  0  0  0  0  0  0  0  0  0
   -2.0080   -0.7630   -0.1960 C   0  0  1  0  0  0  0  0  0  0  0  0
   -1.9090   -1.5050   -1.4890 C   0  0  0  0  0  0  0  0  0  0  0  0
   -3.1670   -2.1750   -1.8580 C   0  0  0  0  0  0  0  0  0  0  0  0
   -4.1240   -1.4740   -2.5890 C   0  0  0  0  0  0  0  0  0  0  0  0
   -5.3150   -2.0230   -2.9820 C   0  0  0  0  0  0  0  0  0  0  0  0
   -5.5990   -3.3420   -2.6440 C   0  0  0  0  0  0  0  0  0  0  0  0
   -4.6820   -4.0740   -1.9220 C   0  0  0  0  0  0  0  0  0  0  0  0
   -3.4860   -3.4780   -1.5440 C   0  0  0  0  0  0  0  0  0  0  0  0
   -2.4200   -1.6390    0.9190 C   0  0  0  0  0  0  0  0  0  0  0  0
   -1.6550   -1.7720    1.9070 O   0  0  0  0  0  0  0  0  0  0  0  0
   -3.6150   -2.3330    0.9490 O   0  0  0  0  0  0  0  0  0  0  0  0
    0.1080   -0.7450    0.2430 H   0  0  0  0  0  0  0  0  0  0  0  0
   -2.7800    0.0430   -0.3330 H   0  0  0  0  0  0  0  0  0  0  0  0
   -1.1270   -2.3000   -1.3740 H   0  0  0  0  0  0  0  0  0  0  0  0
   -1.6040   -0.7840   -2.2910 H   0  0  0  0  0  0  0  0  0  0  0  0
   -3.9160   -0.4410   -2.8610 H   0  0  0  0  0  0  0  0  0  0  0  0
   -6.0340   -1.4420   -3.5520 H   0  0  0  0  0  0  0  0  0  0  0  0
   -6.5530   -3.7750   -2.9620 H   0  0  0  0  0  0  0  0  0  0  0  0
   -4.8870   -5.1030   -1.6500 H   0  0  0  0  0  0  0  0  0  0  0  0
   -2.7710   -4.0690   -0.9780 H   0  0  0  0  0  0  0  0  0  0  0  0
  1  9  1  0  0  0  0
  1 10  1  0  0  0  0
  1 11  1  0  0  0  0
  2  1  1  0  0  0  0
  3 14  1  6  0  0  0
  3  5  1  0  0  0  0
  3  2  1  0  0  0  0
  4  3  1  0  0  0  0
  4 15  1  0  0  0  0
  4 17  1  0  0  0  0
  5 18  1  6  0  0  0
  5  6  1  0  0  0  0
  6 19  1  0  0  0  0
  6 20  1  0  0  0  0
  7  5  1  0  0  0  0
  7  8  2  0  0  0  0
 12  2  1  0  0  0  0
 13  2  1  0  0  0  0
 16  4  1  0  0  0  0
 21  7  1  0  0  0  0
 22 21  1  0  0  0  0
 22 30  1  1  0  0  0
 23 32  1  0  0  0  0
 23 22  1  0  0  0  0
 24 23  1  0  0  0  0
 24 28  1  0  0  0  0
 25 24  2  0  0  0  0
 26 22  1  0  0  0  0
 27 26  2  0  0  0  0
 29 21  1  0  0  0  0
 31 23  1  0  0  0  0
 33 28  1  0  0  0  0
 34 26  1  0  0  0  0
 34 46  1  0  0  0  0
 35 47  1  6  0  0  0
 35 34  1  0  0  0  0
 35 43  1  0  0  0  0
 36 48  1  0  0  0  0
 36 35  1  0  0  0  0
 37 42  1  0  0  0  0
 37 36  1  0  0  0  0
 38 37  2  0  0  0  0
 39 40  2  0  0  0  0
 39 38  1  0  0  0  0
 40 41  1  0  0  0  0
 41 53  1  0  0  0  0
 41 42  2  0  0  0  0
 42 54  1  0  0  0  0
 43 45  2  0  0  0  0
 43 44  1  0  0  0  0
 49 36  1  0  0  0  0
 50 38  1  0  0  0  0
 51 39  1  0  0  0  0
 52 40  1  0  0  0  0
M  END
$$$$
