IDG.pdb
 OpenBabel07022418403D

 41 40  0  0  1  0  0  0  0  0999 V2000
    0.2460   -2.6290   -4.2470 C   0  0  0  0  0  0  0  0  0  0  0  0
    0.7060   -2.7330   -2.8100 C   0  0  0  0  0  0  0  0  0  0  0  0
   -0.5010   -2.6600   -1.9380 C   0  0  2  0  0  0  0  0  0  0  0  0
   -1.1890   -1.3230   -2.1960 C   0  0  0  0  0  0  0  0  0  0  0  0
   -0.2090   -2.8390   -0.4680 C   0  0  2  0  0  0  0  0  0  0  0  0
   -1.5210   -2.7340    0.1950 N   0  0  0  0  0  0  0  0  0  0  0  0
    0.6840   -1.7990    0.0660 C   0  0  0  0  0  0  0  0  0  0  0  0
    1.8790   -1.6610   -0.3010 O   0  0  0  0  0  0  0  0  0  0  0  0
    0.3310   -1.5860   -4.6520 H   0  0  0  0  0  0  0  0  0  0  0  0
   -0.8020   -2.9300   -4.3840 H   0  0  0  0  0  0  0  0  0  0  0  0
    0.8430   -3.2570   -4.9410 H   0  0  0  0  0  0  0  0  0  0  0  0
    1.3350   -1.8330   -2.6070 H   0  0  0  0  0  0  0  0  0  0  0  0
    1.2350   -3.6840   -2.5910 H   0  0  0  0  0  0  0  0  0  0  0  0
   -1.2320   -3.4320   -2.2530 H   0  0  0  0  0  0  0  0  0  0  0  0
   -0.7790   -0.5450   -1.5060 H   0  0  0  0  0  0  0  0  0  0  0  0
   -2.2960   -1.4200   -2.0980 H   0  0  0  0  0  0  0  0  0  0  0  0
   -0.9930   -0.9700   -3.2300 H   0  0  0  0  0  0  0  0  0  0  0  0
    0.1350   -3.8760   -0.2880 H   0  0  0  0  0  0  0  0  0  0  0  0
   -1.9710   -1.8160   -0.0300 H   0  0  0  0  0  0  0  0  0  0  0  0
   -1.4310   -2.9070    1.2080 H   0  0  0  0  0  0  0  0  0  0  0  0
    0.2120   -0.8850    1.0450 N   0  0  0  0  0  0  0  0  0  0  0  0
    1.0980    0.1490    1.5760 C   0  0  1  0  0  0  0  0  0  0  0  0
    0.5670    1.5150    1.2060 C   0  0  0  0  0  0  0  0  0  0  0  0
    1.4040    2.6100    1.7180 C   0  0  0  0  0  0  0  0  0  0  0  0
    1.0230    3.2750    2.7420 O   0  0  0  0  0  0  0  0  0  0  0  0
    1.1030    0.0170    3.0380 C   0  0  0  0  0  0  0  0  0  0  0  0
    0.2900   -0.7630    3.5840 O   0  0  0  0  0  0  0  0  0  0  0  0
    2.6180    3.0110    1.1770 O   0  0  0  0  0  0  0  0  0  0  0  0
   -0.7600   -0.8960    1.4300 H   0  0  0  0  0  0  0  0  0  0  0  0
    2.1190    0.0770    1.1560 H   0  0  0  0  0  0  0  0  0  0  0  0
    0.5260    1.6200    0.0920 H   0  0  0  0  0  0  0  0  0  0  0  0
   -0.4650    1.6730    1.5770 H   0  0  0  0  0  0  0  0  0  0  0  0
    3.3820    3.1610    1.8460 H   0  0  0  0  0  0  0  0  0  0  0  0
    1.9850    0.7250    3.8920 N   0  0  0  0  0  0  0  0  0  0  0  0
    1.9200    0.5470    5.3520 C   0  0  0  0  0  0  0  0  0  0  0  0
    0.5350    0.9700    5.7660 C   0  0  0  0  0  0  0  0  0  0  0  0
    0.1860    0.9220    6.9780 O   0  0  0  0  0  0  0  0  0  0  0  0
   -0.4030    1.4230    4.8620 O   0  0  0  0  0  0  0  0  0  0  0  0
    2.7010    1.3660    3.5290 H   0  0  0  0  0  0  0  0  0  0  0  0
    2.0040   -0.5300    5.5440 H   0  0  0  0  0  0  0  0  0  0  0  0
    2.6820    1.1370    5.8580 H   0  0  0  0  0  0  0  0  0  0  0  0
  1  2  1  0  0  0  0
  2 12  1  0  0  0  0
  2 13  1  0  0  0  0
  2  3  1  0  0  0  0
  3 14  1  6  0  0  0
  3  5  1  0  0  0  0
  4 16  1  0  0  0  0
  4  3  1  0  0  0  0
  4 15  1  0  0  0  0
  5 18  1  1  0  0  0
  5  7  1  0  0  0  0
  5  6  1  0  0  0  0
  6 20  1  0  0  0  0
  7 21  1  0  0  0  0
  8  7  2  0  0  0  0
  9  1  1  0  0  0  0
 10  1  1  0  0  0  0
 11  1  1  0  0  0  0
 17  4  1  0  0  0  0
 19  6  1  0  0  0  0
 21 29  1  0  0  0  0
 21 22  1  0  0  0  0
 22 30  1  6  0  0  0
 22 26  1  0  0  0  0
 23 22  1  0  0  0  0
 23 32  1  0  0  0  0
 23 24  1  0  0  0  0
 24 25  2  0  0  0  0
 26 27  2  0  0  0  0
 26 34  1  0  0  0  0
 28 24  1  0  0  0  0
 28 33  1  0  0  0  0
 31 23  1  0  0  0  0
 34 35  1  0  0  0  0
 35 40  1  0  0  0  0
 35 36  1  0  0  0  0
 35 41  1  0  0  0  0
 36 37  1  0  0  0  0
 38 36  2  0  0  0  0
 39 34  1  0  0  0  0
M  END
$$$$
