IDM.pdb
 OpenBabel07022418403D

 51 50  0  0  1  0  0  0  0  0999 V2000
    2.6360   -4.9940    2.4390 C   0  0  0  0  0  0  0  0  0  0  0  0
    3.2370   -3.6790    2.8540 C   0  0  0  0  0  0  0  0  0  0  0  0
    3.8380   -2.9590    1.6960 C   0  0  2  0  0  0  0  0  0  0  0  0
    4.4190   -1.6580    2.2040 C   0  0  0  0  0  0  0  0  0  0  0  0
    2.8840   -2.7400    0.5490 C   0  0  2  0  0  0  0  0  0  0  0  0
    3.5610   -2.0380   -0.5240 N   0  0  0  0  0  0  0  0  0  0  0  0
    1.6860   -1.9720    0.9070 C   0  0  0  0  0  0  0  0  0  0  0  0
    0.9210   -2.3770    1.8200 O   0  0  0  0  0  0  0  0  0  0  0  0
    1.5490   -4.9410    2.5530 H   0  0  0  0  0  0  0  0  0  0  0  0
    2.9390   -5.2960    1.4240 H   0  0  0  0  0  0  0  0  0  0  0  0
    2.9750   -5.7840    3.1570 H   0  0  0  0  0  0  0  0  0  0  0  0
    4.0630   -3.8660    3.5920 H   0  0  0  0  0  0  0  0  0  0  0  0
    2.4890   -3.0800    3.4090 H   0  0  0  0  0  0  0  0  0  0  0  0
    4.6840   -3.5620    1.3060 H   0  0  0  0  0  0  0  0  0  0  0  0
    3.6770   -0.8610    2.2900 H   0  0  0  0  0  0  0  0  0  0  0  0
    4.7890   -1.8630    3.2380 H   0  0  0  0  0  0  0  0  0  0  0  0
    5.3010   -1.4120    1.6010 H   0  0  0  0  0  0  0  0  0  0  0  0
    2.6050   -3.7400    0.1610 H   0  0  0  0  0  0  0  0  0  0  0  0
    3.9400   -1.1270   -0.2210 H   0  0  0  0  0  0  0  0  0  0  0  0
    2.9150   -1.9840   -1.3260 H   0  0  0  0  0  0  0  0  0  0  0  0
    1.3450   -0.7610    0.2490 N   0  0  0  0  0  0  0  0  0  0  0  0
    0.1560   -0.0480    0.6410 C   0  0  1  0  0  0  0  0  0  0  0  0
    0.4820    1.3060    1.2430 C   0  0  0  0  0  0  0  0  0  0  0  0
    1.2020    2.1900    0.3250 C   0  0  0  0  0  0  0  0  0  0  0  0
    1.5380    1.9020   -0.8560 O   0  0  0  0  0  0  0  0  0  0  0  0
   -0.7900    0.0470   -0.4710 C   0  0  0  0  0  0  0  0  0  0  0  0
   -0.4960   -0.4630   -1.5750 O   0  0  0  0  0  0  0  0  0  0  0  0
    1.5460    3.4620    0.8010 O   0  0  0  0  0  0  0  0  0  0  0  0
    1.9560   -0.3690   -0.5330 H   0  0  0  0  0  0  0  0  0  0  0  0
   -0.3410   -0.6150    1.4600 H   0  0  0  0  0  0  0  0  0  0  0  0
   -0.4560    1.7220    1.6320 H   0  0  0  0  0  0  0  0  0  0  0  0
    1.1430    1.1000    2.1180 H   0  0  0  0  0  0  0  0  0  0  0  0
    1.9030    4.1720    0.1510 H   0  0  0  0  0  0  0  0  0  0  0  0
   -4.1040    0.1200    2.2540 C   0  0  0  0  0  0  0  0  0  0  0  0
   -4.8140   -0.9790    1.0710 S   0  0  0  0  0  0  0  0  0  0  0  0
   -5.1170   -0.4010   -0.5540 C   0  0  0  0  0  0  0  0  0  0  0  0
   -4.0710   -0.1520   -1.5230 C   0  0  0  0  0  0  0  0  0  0  0  0
   -2.9860    0.8170   -1.4050 C   0  0  2  0  0  0  0  0  0  0  0  0
   -2.0410    0.7060   -0.3400 N   0  0  0  0  0  0  0  0  0  0  0  0
   -3.4120    2.2300   -1.6300 C   0  0  0  0  0  0  0  0  0  0  0  0
   -2.9630    3.1680   -0.9410 O   0  0  0  0  0  0  0  0  0  0  0  0
   -4.3230    2.5220   -2.6210 O   0  0  0  0  0  0  0  0  0  0  0  0
   -3.0250   -0.1320    2.4220 H   0  0  0  0  0  0  0  0  0  0  0  0
   -4.1630    1.1890    1.9490 H   0  0  0  0  0  0  0  0  0  0  0  0
   -4.6040   -0.0460    3.2380 H   0  0  0  0  0  0  0  0  0  0  0  0
   -5.8230   -1.1760   -1.0470 H   0  0  0  0  0  0  0  0  0  0  0  0
   -5.8590    0.4710   -0.4680 H   0  0  0  0  0  0  0  0  0  0  0  0
   -4.5990    0.1020   -2.5190 H   0  0  0  0  0  0  0  0  0  0  0  0
   -3.5910   -1.1520   -1.7920 H   0  0  0  0  0  0  0  0  0  0  0  0
   -2.3340    0.6130   -2.3470 H   0  0  0  0  0  0  0  0  0  0  0  0
   -2.2230    1.1380    0.5780 H   0  0  0  0  0  0  0  0  0  0  0  0
  1  9  1  0  0  0  0
  1  2  1  0  0  0  0
  1 11  1  0  0  0  0
  2 13  1  0  0  0  0
  2 12  1  0  0  0  0
  3 14  1  6  0  0  0
  3  4  1  0  0  0  0
  3  2  1  0  0  0  0
  4 15  1  0  0  0  0
  4 16  1  0  0  0  0
  5 18  1  6  0  0  0
  5  7  1  0  0  0  0
  5  3  1  0  0  0  0
  6 19  1  0  0  0  0
  6  5  1  0  0  0  0
  7  8  2  0  0  0  0
 10  1  1  0  0  0  0
 17  4  1  0  0  0  0
 20  6  1  0  0  0  0
 21 22  1  0  0  0  0
 21  7  1  0  0  0  0
 22 23  1  0  0  0  0
 22 30  1  1  0  0  0
 23 31  1  0  0  0  0
 23 32  1  0  0  0  0
 24 28  1  0  0  0  0
 24 23  1  0  0  0  0
 25 24  2  0  0  0  0
 26 39  1  0  0  0  0
 26 22  1  0  0  0  0
 27 26  2  0  0  0  0
 29 21  1  0  0  0  0
 33 28  1  0  0  0  0
 34 43  1  0  0  0  0
 34 45  1  0  0  0  0
 35 34  1  0  0  0  0
 36 47  1  0  0  0  0
 36 35  1  0  0  0  0
 37 38  1  0  0  0  0
 37 36  1  0  0  0  0
 38 50  1  6  0  0  0
 38 39  1  0  0  0  0
 39 51  1  0  0  0  0
 40 38  1  0  0  0  0
 40 41  1  0  0  0  0
 42 40  2  0  0  0  0
 44 34  1  0  0  0  0
 46 36  1  0  0  0  0
 48 37  1  0  0  0  0
 49 37  1  0  0  0  0
M  END
$$$$
