IDQ.pdb
 OpenBabel07022418403D

 51 50  0  0  1  0  0  0  0  0999 V2000
    1.0100   -3.0540    4.1640 C   0  0  0  0  0  0  0  0  0  0  0  0
    0.6710   -2.6770    2.7600 C   0  0  0  0  0  0  0  0  0  0  0  0
    1.8690   -2.2880    1.9330 C   0  0  2  0  0  0  0  0  0  0  0  0
    2.8710   -3.4280    1.8390 C   0  0  0  0  0  0  0  0  0  0  0  0
    2.5350   -1.0260    2.4150 C   0  0  2  0  0  0  0  0  0  0  0  0
    3.0100   -1.1100    3.7460 N   0  0  0  0  0  0  0  0  0  0  0  0
    1.5940    0.1150    2.2190 C   0  0  0  0  0  0  0  0  0  0  0  0
    1.3260    0.8540    3.2060 O   0  0  0  0  0  0  0  0  0  0  0  0
    1.8350   -3.7830    4.2270 H   0  0  0  0  0  0  0  0  0  0  0  0
    1.1470   -2.1880    4.8460 H   0  0  0  0  0  0  0  0  0  0  0  0
    0.1090   -3.5970    4.5780 H   0  0  0  0  0  0  0  0  0  0  0  0
    0.1850   -3.5370    2.2690 H   0  0  0  0  0  0  0  0  0  0  0  0
   -0.0400   -1.8440    2.7610 H   0  0  0  0  0  0  0  0  0  0  0  0
    1.5280   -2.0970    0.8940 H   0  0  0  0  0  0  0  0  0  0  0  0
    2.3890   -4.2500    1.2790 H   0  0  0  0  0  0  0  0  0  0  0  0
    3.7000   -3.0340    1.1810 H   0  0  0  0  0  0  0  0  0  0  0  0
    3.2940   -3.7140    2.8030 H   0  0  0  0  0  0  0  0  0  0  0  0
    3.3940   -0.8370    1.7400 H   0  0  0  0  0  0  0  0  0  0  0  0
    3.4050   -1.9760    4.0630 H   0  0  0  0  0  0  0  0  0  0  0  0
    2.7050   -0.4150    4.4100 H   0  0  0  0  0  0  0  0  0  0  0  0
    0.9980    0.3980    0.9840 N   0  0  0  0  0  0  0  0  0  0  0  0
    0.0860    1.4820    0.7340 C   0  0  1  0  0  0  0  0  0  0  0  0
    0.6240    2.3490   -0.3830 C   0  0  0  0  0  0  0  0  0  0  0  0
    1.9320    2.9290   -0.0690 C   0  0  0  0  0  0  0  0  0  0  0  0
    2.4710    3.6690   -0.9290 O   0  0  0  0  0  0  0  0  0  0  0  0
   -1.2450    0.9750    0.2440 C   0  0  0  0  0  0  0  0  0  0  0  0
   -2.1380    1.8220   -0.0140 O   0  0  0  0  0  0  0  0  0  0  0  0
    2.6310    2.7280    1.1110 O   0  0  0  0  0  0  0  0  0  0  0  0
    1.2230   -0.2210    0.1580 H   0  0  0  0  0  0  0  0  0  0  0  0
   -0.0950    2.0870    1.6520 H   0  0  0  0  0  0  0  0  0  0  0  0
   -0.0810    3.1740   -0.5970 H   0  0  0  0  0  0  0  0  0  0  0  0
    0.7390    1.6880   -1.2820 H   0  0  0  0  0  0  0  0  0  0  0  0
    3.3630    3.3510    1.4340 H   0  0  0  0  0  0  0  0  0  0  0  0
   -2.0940    0.9850   -4.3030 N   0  0  0  0  0  0  0  0  0  0  0  0
   -2.6640    0.1880   -3.2770 C   0  0  0  0  0  0  0  0  0  0  0  0
   -3.7930    0.4840   -2.8280 O   0  0  0  0  0  0  0  0  0  0  0  0
   -1.9190   -0.9630   -2.7670 C   0  0  0  0  0  0  0  0  0  0  0  0
   -2.5830   -1.6950   -1.6410 C   0  0  0  0  0  0  0  0  0  0  0  0
   -2.8210   -0.8730   -0.4130 C   0  0  2  0  0  0  0  0  0  0  0  0
   -1.5150   -0.3980    0.0670 N   0  0  0  0  0  0  0  0  0  0  0  0
   -3.4090   -1.7400    0.6240 C   0  0  0  0  0  0  0  0  0  0  0  0
   -2.7940   -1.9520    1.6880 O   0  0  0  0  0  0  0  0  0  0  0  0
   -4.6480   -2.3190    0.4160 O   0  0  0  0  0  0  0  0  0  0  0  0
   -2.0270    2.0230   -4.1710 H   0  0  0  0  0  0  0  0  0  0  0  0
   -1.7310    0.5890   -5.2020 H   0  0  0  0  0  0  0  0  0  0  0  0
   -0.9000   -0.6830   -2.4050 H   0  0  0  0  0  0  0  0  0  0  0  0
   -1.7250   -1.6330   -3.6430 H   0  0  0  0  0  0  0  0  0  0  0  0
   -2.0410   -2.6220   -1.3680 H   0  0  0  0  0  0  0  0  0  0  0  0
   -3.5710   -2.0610   -2.0490 H   0  0  0  0  0  0  0  0  0  0  0  0
   -3.4970   -0.0110   -0.5940 H   0  0  0  0  0  0  0  0  0  0  0  0
   -0.7470   -1.0660    0.2920 H   0  0  0  0  0  0  0  0  0  0  0  0
  1  9  1  0  0  0  0
  1 11  1  0  0  0  0
  1 10  1  0  0  0  0
  2 13  1  0  0  0  0
  2  1  1  0  0  0  0
  3 14  1  6  0  0  0
  3  5  1  0  0  0  0
  3  2  1  0  0  0  0
  4  3  1  0  0  0  0
  4 17  1  0  0  0  0
  5 18  1  6  0  0  0
  5  6  1  0  0  0  0
  6 19  1  0  0  0  0
  6 20  1  0  0  0  0
  7  5  1  0  0  0  0
  7  8  2  0  0  0  0
 12  2  1  0  0  0  0
 15  4  1  0  0  0  0
 16  4  1  0  0  0  0
 21  7  1  0  0  0  0
 22 21  1  0  0  0  0
 22 30  1  1  0  0  0
 23 24  1  0  0  0  0
 23 22  1  0  0  0  0
 24 28  1  0  0  0  0
 25 24  2  0  0  0  0
 26 22  1  0  0  0  0
 27 26  2  0  0  0  0
 28 33  1  0  0  0  0
 29 21  1  0  0  0  0
 31 23  1  0  0  0  0
 32 23  1  0  0  0  0
 34 44  1  0  0  0  0
 34 35  1  0  0  0  0
 35 36  2  0  0  0  0
 35 37  1  0  0  0  0
 37 46  1  0  0  0  0
 37 38  1  0  0  0  0
 38 48  1  0  0  0  0
 38 39  1  0  0  0  0
 39 50  1  6  0  0  0
 39 40  1  0  0  0  0
 39 41  1  0  0  0  0
 40 26  1  0  0  0  0
 40 51  1  0  0  0  0
 41 42  1  0  0  0  0
 43 41  2  0  0  0  0
 45 34  1  0  0  0  0
 47 37  1  0  0  0  0
 49 38  1  0  0  0  0
M  END
$$$$
