IEC.pdb
 OpenBabel07022418403D

 48 47  0  0  1  0  0  0  0  0999 V2000
    2.7130   -2.7930    4.3380 C   0  0  0  0  0  0  0  0  0  0  0  0
    3.3460   -1.7340    3.4840 C   0  0  0  0  0  0  0  0  0  0  0  0
    3.5200   -2.1590    2.0620 C   0  0  2  0  0  0  0  0  0  0  0  0
    4.1760   -1.0680    1.2320 C   0  0  0  0  0  0  0  0  0  0  0  0
    2.2250   -2.6110    1.4810 C   0  0  2  0  0  0  0  0  0  0  0  0
    2.4110   -3.0540    0.0850 N   0  0  0  0  0  0  0  0  0  0  0  0
    1.1390   -1.5870    1.5130 C   0  0  0  0  0  0  0  0  0  0  0  0
    0.6990   -1.0490    2.5490 O   0  0  0  0  0  0  0  0  0  0  0  0
    2.7230   -2.4250    5.3870 H   0  0  0  0  0  0  0  0  0  0  0  0
    1.7120   -3.0780    4.0070 H   0  0  0  0  0  0  0  0  0  0  0  0
    3.4000   -3.6870    4.2740 H   0  0  0  0  0  0  0  0  0  0  0  0
    4.3700   -1.5610    3.9140 H   0  0  0  0  0  0  0  0  0  0  0  0
    2.7500   -0.8040    3.5070 H   0  0  0  0  0  0  0  0  0  0  0  0
    4.1950   -3.0440    2.0660 H   0  0  0  0  0  0  0  0  0  0  0  0
    5.1080   -1.4470    0.7660 H   0  0  0  0  0  0  0  0  0  0  0  0
    3.5380   -0.6780    0.4410 H   0  0  0  0  0  0  0  0  0  0  0  0
    4.5050   -0.2620    1.9480 H   0  0  0  0  0  0  0  0  0  0  0  0
    1.8720   -3.4920    2.0320 H   0  0  0  0  0  0  0  0  0  0  0  0
    2.7420   -2.2930   -0.5170 H   0  0  0  0  0  0  0  0  0  0  0  0
    1.5340   -3.5110   -0.2630 H   0  0  0  0  0  0  0  0  0  0  0  0
    0.5160   -1.1480    0.2920 N   0  0  0  0  0  0  0  0  0  0  0  0
   -0.5430   -0.1510    0.3070 C   0  0  1  0  0  0  0  0  0  0  0  0
   -0.1330    1.0250   -0.5220 C   0  0  0  0  0  0  0  0  0  0  0  0
    1.1050    1.7220   -0.0810 C   0  0  0  0  0  0  0  0  0  0  0  0
    1.0580    2.2990    1.2730 C   0  0  0  0  0  0  0  0  0  0  0  0
    2.0720    2.8410    1.7610 O   0  0  0  0  0  0  0  0  0  0  0  0
   -1.7320   -0.7550   -0.3480 C   0  0  0  0  0  0  0  0  0  0  0  0
   -1.6720   -1.9280   -0.7760 O   0  0  0  0  0  0  0  0  0  0  0  0
   -0.0990    2.2510    2.0210 O   0  0  0  0  0  0  0  0  0  0  0  0
    0.8330   -1.5520   -0.6040 H   0  0  0  0  0  0  0  0  0  0  0  0
   -0.7680    0.1560    1.3490 H   0  0  0  0  0  0  0  0  0  0  0  0
   -0.9710    1.7770   -0.4440 H   0  0  0  0  0  0  0  0  0  0  0  0
   -0.0210    0.7320   -1.5780 H   0  0  0  0  0  0  0  0  0  0  0  0
    2.0240    1.1010   -0.1940 H   0  0  0  0  0  0  0  0  0  0  0  0
    1.2610    2.5800   -0.8010 H   0  0  0  0  0  0  0  0  0  0  0  0
   -0.0760    2.1340    3.0250 H   0  0  0  0  0  0  0  0  0  0  0  0
   -2.9560   -0.0480   -0.5140 N   0  0  0  0  0  0  0  0  0  0  0  0
   -4.1060   -0.6530   -1.1560 C   0  0  1  0  0  0  0  0  0  0  0  0
   -5.2870   -0.7320   -0.2150 C   0  0  0  0  0  0  0  0  0  0  0  0
   -5.7310    0.9620    0.3200 S   0  0  0  0  0  0  0  0  0  0  0  0
   -4.5290    0.1450   -2.3260 C   0  0  0  0  0  0  0  0  0  0  0  0
   -3.9210    1.1830   -2.6440 O   0  0  0  0  0  0  0  0  0  0  0  0
   -5.6140   -0.2820   -3.0660 O   0  0  0  0  0  0  0  0  0  0  0  0
   -3.0140    0.9160   -0.1640 H   0  0  0  0  0  0  0  0  0  0  0  0
   -3.8220   -1.6900   -1.4330 H   0  0  0  0  0  0  0  0  0  0  0  0
   -5.0510   -1.2880    0.7200 H   0  0  0  0  0  0  0  0  0  0  0  0
   -6.1470   -1.1990   -0.7200 H   0  0  0  0  0  0  0  0  0  0  0  0
   -5.0610    1.9180   -0.4850 H   0  0  0  0  0  0  0  0  0  0  0  0
  1  9  1  0  0  0  0
  2 13  1  0  0  0  0
  2 12  1  0  0  0  0
  2  1  1  0  0  0  0
  3 14  1  6  0  0  0
  3  2  1  0  0  0  0
  4 17  1  0  0  0  0
  4  3  1  0  0  0  0
  5  7  1  0  0  0  0
  5 18  1  1  0  0  0
  5  3  1  0  0  0  0
  6  5  1  0  0  0  0
  7  8  2  0  0  0  0
 10  1  1  0  0  0  0
 11  1  1  0  0  0  0
 15  4  1  0  0  0  0
 16  4  1  0  0  0  0
 19  6  1  0  0  0  0
 20  6  1  0  0  0  0
 21 22  1  0  0  0  0
 21  7  1  0  0  0  0
 22 31  1  1  0  0  0
 23 32  1  0  0  0  0
 23 24  1  0  0  0  0
 23 22  1  0  0  0  0
 24 25  1  0  0  0  0
 25 26  2  0  0  0  0
 25 29  1  0  0  0  0
 27 22  1  0  0  0  0
 28 27  2  0  0  0  0
 29 36  1  0  0  0  0
 30 21  1  0  0  0  0
 33 23  1  0  0  0  0
 34 24  1  0  0  0  0
 35 24  1  0  0  0  0
 37 27  1  0  0  0  0
 37 44  1  0  0  0  0
 38 45  1  6  0  0  0
 38 37  1  0  0  0  0
 38 39  1  0  0  0  0
 39 40  1  0  0  0  0
 39 46  1  0  0  0  0
 41 38  1  0  0  0  0
 42 41  1  0  0  0  0
 43 41  2  0  0  0  0
 47 39  1  0  0  0  0
 48 40  1  0  0  0  0
M  END
$$$$
