IEH.pdb
 OpenBabel07022418403D

 54 54  0  0  1  0  0  0  0  0999 V2000
    4.3110    1.2700    4.8760 C   0  0  0  0  0  0  0  0  0  0  0  0
    3.1630    0.6780    4.0530 C   0  0  0  0  0  0  0  0  0  0  0  0
    3.6570    0.1430    2.7390 C   0  0  2  0  0  0  0  0  0  0  0  0
    4.3040    1.2050    1.8820 C   0  0  0  0  0  0  0  0  0  0  0  0
    2.6560   -0.6990    2.0220 C   0  0  2  0  0  0  0  0  0  0  0  0
    3.2420   -1.1540    0.7760 N   0  0  0  0  0  0  0  0  0  0  0  0
    1.3360   -0.0700    1.8170 C   0  0  0  0  0  0  0  0  0  0  0  0
    0.7380    0.3450    2.8530 O   0  0  0  0  0  0  0  0  0  0  0  0
    5.1940    0.5960    4.8410 H   0  0  0  0  0  0  0  0  0  0  0  0
    4.0280    1.3410    5.9460 H   0  0  0  0  0  0  0  0  0  0  0  0
    4.5620    2.2910    4.5340 H   0  0  0  0  0  0  0  0  0  0  0  0
    2.4700    1.5250    3.8690 H   0  0  0  0  0  0  0  0  0  0  0  0
    2.7440   -0.1410    4.6370 H   0  0  0  0  0  0  0  0  0  0  0  0
    4.5030   -0.5600    3.0090 H   0  0  0  0  0  0  0  0  0  0  0  0
    5.3250    1.4630    2.2360 H   0  0  0  0  0  0  0  0  0  0  0  0
    3.6980    2.1450    1.9940 H   0  0  0  0  0  0  0  0  0  0  0  0
    4.3670    0.9050    0.8350 H   0  0  0  0  0  0  0  0  0  0  0  0
    2.4860   -1.6140    2.6360 H   0  0  0  0  0  0  0  0  0  0  0  0
    2.6140   -1.9140    0.4000 H   0  0  0  0  0  0  0  0  0  0  0  0
    4.1540   -1.6080    1.0070 H   0  0  0  0  0  0  0  0  0  0  0  0
    0.7040    0.1000    0.5880 N   0  0  0  0  0  0  0  0  0  0  0  0
   -0.6280    0.7470    0.4880 C   0  0  1  0  0  0  0  0  0  0  0  0
   -0.5260    1.9940   -0.3110 C   0  0  0  0  0  0  0  0  0  0  0  0
   -1.8260    2.7150   -0.4630 C   0  0  0  0  0  0  0  0  0  0  0  0
   -2.4000    3.1380    0.8310 C   0  0  0  0  0  0  0  0  0  0  0  0
   -1.8630    2.9870    1.9480 O   0  0  0  0  0  0  0  0  0  0  0  0
   -1.6140   -0.2500    0.0190 C   0  0  0  0  0  0  0  0  0  0  0  0
   -2.8340   -0.0220   -0.1060 O   0  0  0  0  0  0  0  0  0  0  0  0
   -3.6600    3.7730    0.8660 O   0  0  0  0  0  0  0  0  0  0  0  0
    1.1410   -0.2160   -0.2780 H   0  0  0  0  0  0  0  0  0  0  0  0
   -0.9000    1.0010    1.5260 H   0  0  0  0  0  0  0  0  0  0  0  0
   -0.0040    1.8500   -1.2870 H   0  0  0  0  0  0  0  0  0  0  0  0
    0.1330    2.6940    0.2980 H   0  0  0  0  0  0  0  0  0  0  0  0
   -2.5620    2.0290   -0.9460 H   0  0  0  0  0  0  0  0  0  0  0  0
   -1.7000    3.6300   -1.1250 H   0  0  0  0  0  0  0  0  0  0  0  0
   -4.1550    3.9100    1.7460 H   0  0  0  0  0  0  0  0  0  0  0  0
   -1.2140   -1.5930   -0.3350 N   0  0  0  0  0  0  0  0  0  0  0  0
   -2.1760   -2.5690   -0.7940 C   0  0  1  0  0  0  0  0  0  0  0  0
   -1.8540   -2.9320   -2.2280 C   0  0  0  0  0  0  0  0  0  0  0  0
   -2.7920   -3.9290   -2.7810 C   0  0  0  0  0  0  0  0  0  0  0  0
   -3.9770   -3.6580   -3.4470 C   0  0  0  0  0  0  0  0  0  0  0  0
   -4.5490   -4.8090   -3.7970 N   0  0  0  0  0  0  0  0  0  0  0  0
   -3.7820   -5.8210   -3.3840 C   0  0  0  0  0  0  0  0  0  0  0  0
   -2.7100   -5.2840   -2.7650 N   0  0  0  0  0  0  0  0  0  0  0  0
   -2.2390   -3.7530    0.0850 C   0  0  0  0  0  0  0  0  0  0  0  0
   -3.0300   -4.6940   -0.1750 O   0  0  0  0  0  0  0  0  0  0  0  0
   -1.4360   -3.8540    1.2050 O   0  0  0  0  0  0  0  0  0  0  0  0
   -0.2260   -1.8520   -0.2570 H   0  0  0  0  0  0  0  0  0  0  0  0
   -3.1710   -2.0810   -0.8050 H   0  0  0  0  0  0  0  0  0  0  0  0
   -0.8010   -3.2120   -2.3770 H   0  0  0  0  0  0  0  0  0  0  0  0
   -2.0060   -1.9770   -2.8140 H   0  0  0  0  0  0  0  0  0  0  0  0
   -4.3430   -2.6500   -3.6330 H   0  0  0  0  0  0  0  0  0  0  0  0
   -5.4670   -4.8530   -4.3180 H   0  0  0  0  0  0  0  0  0  0  0  0
   -4.0130   -6.8680   -3.5380 H   0  0  0  0  0  0  0  0  0  0  0  0
  1 10  1  0  0  0  0
  2 13  1  0  0  0  0
  2  1  1  0  0  0  0
  3 14  1  1  0  0  0
  3  2  1  0  0  0  0
  4 16  1  0  0  0  0
  4 15  1  0  0  0  0
  4  3  1  0  0  0  0
  5 18  1  1  0  0  0
  5  3  1  0  0  0  0
  6 20  1  0  0  0  0
  6  5  1  0  0  0  0
  7  5  1  0  0  0  0
  7  8  2  0  0  0  0
  9  1  1  0  0  0  0
 11  1  1  0  0  0  0
 12  2  1  0  0  0  0
 17  4  1  0  0  0  0
 19  6  1  0  0  0  0
 21  7  1  0  0  0  0
 22 21  1  0  0  0  0
 22 31  1  1  0  0  0
 23 33  1  0  0  0  0
 23 22  1  0  0  0  0
 24 23  1  0  0  0  0
 24 25  1  0  0  0  0
 25 29  1  0  0  0  0
 25 26  2  0  0  0  0
 27 22  1  0  0  0  0
 28 27  2  0  0  0  0
 29 36  1  0  0  0  0
 30 21  1  0  0  0  0
 32 23  1  0  0  0  0
 34 24  1  0  0  0  0
 35 24  1  0  0  0  0
 37 48  1  0  0  0  0
 37 27  1  0  0  0  0
 38 49  1  1  0  0  0
 38 37  1  0  0  0  0
 38 45  1  0  0  0  0
 39 38  1  0  0  0  0
 40 44  1  0  0  0  0
 40 39  1  0  0  0  0
 41 40  2  0  0  0  0
 42 41  1  0  0  0  0
 42 43  1  0  0  0  0
 43 44  2  0  0  0  0
 45 47  1  0  0  0  0
 46 45  2  0  0  0  0
 50 39  1  0  0  0  0
 51 39  1  0  0  0  0
 52 41  1  0  0  0  0
 53 42  1  0  0  0  0
 54 43  1  0  0  0  0
M  END
$$$$
