IEL.pdb
 OpenBabel07022418403D

 56 55  0  0  1  0  0  0  0  0999 V2000
    2.9530   -3.4680    0.5520 C   0  0  0  0  0  0  0  0  0  0  0  0
    2.4410   -2.0460    0.7670 C   0  0  0  0  0  0  0  0  0  0  0  0
    3.0030   -1.4890    2.0280 C   0  0  2  0  0  0  0  0  0  0  0  0
    2.6280   -2.2760    3.2600 C   0  0  0  0  0  0  0  0  0  0  0  0
    2.8690   -0.0170    2.1520 C   0  0  2  0  0  0  0  0  0  0  0  0
    3.4750    0.3710    3.4530 N   0  0  0  0  0  0  0  0  0  0  0  0
    1.5550    0.5780    2.0830 C   0  0  0  0  0  0  0  0  0  0  0  0
    1.0690    1.0870    3.1540 O   0  0  0  0  0  0  0  0  0  0  0  0
    3.1660   -3.6380   -0.5100 H   0  0  0  0  0  0  0  0  0  0  0  0
    3.8080   -3.6190    1.2220 H   0  0  0  0  0  0  0  0  0  0  0  0
    2.1640   -4.2070    0.8570 H   0  0  0  0  0  0  0  0  0  0  0  0
    2.8070   -1.4440   -0.0840 H   0  0  0  0  0  0  0  0  0  0  0  0
    1.3360   -2.0300    0.7260 H   0  0  0  0  0  0  0  0  0  0  0  0
    4.1290   -1.6760    1.9310 H   0  0  0  0  0  0  0  0  0  0  0  0
    2.3320   -3.3100    3.0290 H   0  0  0  0  0  0  0  0  0  0  0  0
    3.4850   -2.3560    3.9750 H   0  0  0  0  0  0  0  0  0  0  0  0
    1.8430   -1.7030    3.7950 H   0  0  0  0  0  0  0  0  0  0  0  0
    3.5120    0.4560    1.3630 H   0  0  0  0  0  0  0  0  0  0  0  0
    4.3250   -0.2530    3.5550 H   0  0  0  0  0  0  0  0  0  0  0  0
    2.7890    0.0600    4.1730 H   0  0  0  0  0  0  0  0  0  0  0  0
    0.6940    0.6880    0.9500 N   0  0  0  0  0  0  0  0  0  0  0  0
   -0.6070    1.3410    1.0570 C   0  0  1  0  0  0  0  0  0  0  0  0
   -0.5790    2.6790    0.3260 C   0  0  0  0  0  0  0  0  0  0  0  0
    0.4180    3.6460    0.8410 C   0  0  0  0  0  0  0  0  0  0  0  0
    0.2690    4.0720    2.2280 C   0  0  0  0  0  0  0  0  0  0  0  0
    1.1230    4.8540    2.7240 O   0  0  0  0  0  0  0  0  0  0  0  0
   -1.6780    0.4820    0.5040 C   0  0  0  0  0  0  0  0  0  0  0  0
   -2.9050    0.8650    0.6010 O   0  0  0  0  0  0  0  0  0  0  0  0
   -0.7560    3.6680    3.0360 O   0  0  0  0  0  0  0  0  0  0  0  0
    1.0290    0.2900    0.0710 H   0  0  0  0  0  0  0  0  0  0  0  0
   -0.8140    1.5560    2.1070 H   0  0  0  0  0  0  0  0  0  0  0  0
   -0.3280    2.4400   -0.7290 H   0  0  0  0  0  0  0  0  0  0  0  0
   -1.5950    3.0980    0.3270 H   0  0  0  0  0  0  0  0  0  0  0  0
    1.4740    3.2920    0.6390 H   0  0  0  0  0  0  0  0  0  0  0  0
    0.3510    4.5850    0.2160 H   0  0  0  0  0  0  0  0  0  0  0  0
   -0.9650    4.2200    3.8810 H   0  0  0  0  0  0  0  0  0  0  0  0
   -2.9680   -2.3140   -4.4210 C   0  0  0  0  0  0  0  0  0  0  0  0
   -3.4460   -2.4720   -2.9370 C   0  0  0  0  0  0  0  0  0  0  0  0
   -3.2750   -3.9800   -2.7070 C   0  0  0  0  0  0  0  0  0  0  0  0
   -2.4820   -1.7140   -2.1230 C   0  0  0  0  0  0  0  0  0  0  0  0
   -2.6390   -1.5590   -0.6690 C   0  0  2  0  0  0  0  0  0  0  0  0
   -1.4920   -0.7550   -0.1420 N   0  0  0  0  0  0  0  0  0  0  0  0
   -2.7040   -2.7690    0.1110 C   0  0  0  0  0  0  0  0  0  0  0  0
   -3.6630   -3.5850    0.1000 O   0  0  0  0  0  0  0  0  0  0  0  0
   -1.6590   -3.1560    0.9870 O   0  0  0  0  0  0  0  0  0  0  0  0
   -1.8820   -2.1040   -4.4470 H   0  0  0  0  0  0  0  0  0  0  0  0
   -3.5550   -1.4740   -4.8790 H   0  0  0  0  0  0  0  0  0  0  0  0
   -3.2540   -3.2260   -4.9760 H   0  0  0  0  0  0  0  0  0  0  0  0
   -4.4860   -2.1720   -2.9250 H   0  0  0  0  0  0  0  0  0  0  0  0
   -2.3890   -4.1590   -2.1110 H   0  0  0  0  0  0  0  0  0  0  0  0
   -3.0950   -4.5010   -3.6900 H   0  0  0  0  0  0  0  0  0  0  0  0
   -4.2120   -4.4100   -2.3220 H   0  0  0  0  0  0  0  0  0  0  0  0
   -2.4550   -0.6590   -2.5760 H   0  0  0  0  0  0  0  0  0  0  0  0
   -1.4420   -2.0820   -2.4010 H   0  0  0  0  0  0  0  0  0  0  0  0
   -3.5700   -0.9600   -0.4270 H   0  0  0  0  0  0  0  0  0  0  0  0
   -0.5390   -1.1200   -0.2660 H   0  0  0  0  0  0  0  0  0  0  0  0
  1  2  1  0  0  0  0
  1 11  1  0  0  0  0
  1 10  1  0  0  0  0
  2  3  1  0  0  0  0
  3 14  1  6  0  0  0
  3  5  1  0  0  0  0
  3  4  1  0  0  0  0
  4 17  1  0  0  0  0
  4 16  1  0  0  0  0
  5 18  1  6  0  0  0
  5  6  1  0  0  0  0
  6 19  1  0  0  0  0
  6 20  1  0  0  0  0
  7  5  1  0  0  0  0
  7  8  2  0  0  0  0
  9  1  1  0  0  0  0
 12  2  1  0  0  0  0
 13  2  1  0  0  0  0
 15  4  1  0  0  0  0
 21 22  1  0  0  0  0
 21  7  1  0  0  0  0
 22 31  1  1  0  0  0
 23 33  1  0  0  0  0
 23 24  1  0  0  0  0
 23 22  1  0  0  0  0
 24 25  1  0  0  0  0
 25 26  2  0  0  0  0
 25 29  1  0  0  0  0
 27 28  2  0  0  0  0
 27 22  1  0  0  0  0
 29 36  1  0  0  0  0
 30 21  1  0  0  0  0
 32 23  1  0  0  0  0
 34 24  1  0  0  0  0
 35 24  1  0  0  0  0
 37 38  1  0  0  0  0
 38 49  1  0  0  0  0
 38 39  1  0  0  0  0
 38 40  1  0  0  0  0
 39 52  1  0  0  0  0
 39 50  1  0  0  0  0
 40 41  1  0  0  0  0
 41 55  1  1  0  0  0
 41 42  1  0  0  0  0
 41 43  1  0  0  0  0
 42 27  1  0  0  0  0
 43 45  1  0  0  0  0
 44 43  2  0  0  0  0
 46 37  1  0  0  0  0
 47 37  1  0  0  0  0
 48 37  1  0  0  0  0
 51 39  1  0  0  0  0
 53 40  1  0  0  0  0
 54 40  1  0  0  0  0
 56 42  1  0  0  0  0
M  END
$$$$
