IEQ.pdb
 OpenBabel07022418403D

 54 53  0  0  1  0  0  0  0  0999 V2000
    1.9540   -4.4460    1.8590 C   0  0  0  0  0  0  0  0  0  0  0  0
    2.0580   -2.9350    1.7060 C   0  0  0  0  0  0  0  0  0  0  0  0
    2.2000   -2.2460    3.0210 C   0  0  2  0  0  0  0  0  0  0  0  0
    1.0370   -2.4830    3.9450 C   0  0  0  0  0  0  0  0  0  0  0  0
    2.5900   -0.8080    2.9670 C   0  0  2  0  0  0  0  0  0  0  0  0
    2.6680   -0.3330    4.3670 N   0  0  0  0  0  0  0  0  0  0  0  0
    1.6670    0.0790    2.2380 C   0  0  0  0  0  0  0  0  0  0  0  0
    0.9730    0.9010    2.8870 O   0  0  0  0  0  0  0  0  0  0  0  0
    2.4890   -4.7840    2.7740 H   0  0  0  0  0  0  0  0  0  0  0  0
    0.9000   -4.7700    1.9730 H   0  0  0  0  0  0  0  0  0  0  0  0
    2.3300   -4.9190    0.9330 H   0  0  0  0  0  0  0  0  0  0  0  0
    1.1240   -2.5630    1.1910 H   0  0  0  0  0  0  0  0  0  0  0  0
    2.8840   -2.7400    1.0030 H   0  0  0  0  0  0  0  0  0  0  0  0
    3.0740   -2.7700    3.5350 H   0  0  0  0  0  0  0  0  0  0  0  0
    0.1970   -1.8040    3.7930 H   0  0  0  0  0  0  0  0  0  0  0  0
    0.7610   -3.5560    3.9310 H   0  0  0  0  0  0  0  0  0  0  0  0
    1.4180   -2.2970    4.9920 H   0  0  0  0  0  0  0  0  0  0  0  0
    3.6450   -0.6730    2.5900 H   0  0  0  0  0  0  0  0  0  0  0  0
    1.6790   -0.2920    4.7150 H   0  0  0  0  0  0  0  0  0  0  0  0
    3.1410   -1.0820    4.9330 H   0  0  0  0  0  0  0  0  0  0  0  0
    1.5110    0.0690    0.8260 N   0  0  0  0  0  0  0  0  0  0  0  0
    0.5710    1.0010    0.1990 C   0  0  1  0  0  0  0  0  0  0  0  0
    1.3500    2.1000   -0.4880 C   0  0  0  0  0  0  0  0  0  0  0  0
    0.5100    3.1160   -1.1710 C   0  0  0  0  0  0  0  0  0  0  0  0
   -0.4370    3.8500   -0.3140 C   0  0  0  0  0  0  0  0  0  0  0  0
   -0.5390    3.6960    0.9270 O   0  0  0  0  0  0  0  0  0  0  0  0
   -0.3370    0.3700   -0.7630 C   0  0  0  0  0  0  0  0  0  0  0  0
   -1.3030    1.0710   -1.2250 O   0  0  0  0  0  0  0  0  0  0  0  0
   -1.3210    4.8060   -0.8520 O   0  0  0  0  0  0  0  0  0  0  0  0
    2.0330   -0.5630    0.2150 H   0  0  0  0  0  0  0  0  0  0  0  0
    0.0170    1.4960    1.0180 H   0  0  0  0  0  0  0  0  0  0  0  0
    1.9790    1.6160   -1.2930 H   0  0  0  0  0  0  0  0  0  0  0  0
    2.1080    2.5530    0.1960 H   0  0  0  0  0  0  0  0  0  0  0  0
    1.1860    3.8990   -1.6490 H   0  0  0  0  0  0  0  0  0  0  0  0
   -0.0130    2.6840   -2.0370 H   0  0  0  0  0  0  0  0  0  0  0  0
   -2.2710    4.8760   -0.5120 H   0  0  0  0  0  0  0  0  0  0  0  0
   -5.1980   -1.3010    0.6790 N   0  0  0  0  0  0  0  0  0  0  0  0
   -4.2740   -2.0550   -0.0740 C   0  0  0  0  0  0  0  0  0  0  0  0
   -4.4320   -3.2930   -0.1800 O   0  0  0  0  0  0  0  0  0  0  0  0
   -3.1310   -1.3240   -0.7200 C   0  0  0  0  0  0  0  0  0  0  0  0
   -2.2500   -2.2600   -1.4750 C   0  0  0  0  0  0  0  0  0  0  0  0
   -1.0860   -1.6240   -2.1730 C   0  0  2  0  0  0  0  0  0  0  0  0
   -0.2420   -0.9600   -1.2370 N   0  0  0  0  0  0  0  0  0  0  0  0
   -1.4460   -0.8200   -3.3380 C   0  0  0  0  0  0  0  0  0  0  0  0
   -2.2820   -1.2770   -4.1570 O   0  0  0  0  0  0  0  0  0  0  0  0
   -0.9070    0.4150   -3.5830 O   0  0  0  0  0  0  0  0  0  0  0  0
   -5.4650   -0.3590    0.3180 H   0  0  0  0  0  0  0  0  0  0  0  0
   -5.5720   -1.7130    1.5580 H   0  0  0  0  0  0  0  0  0  0  0  0
   -2.5870   -0.8680    0.1620 H   0  0  0  0  0  0  0  0  0  0  0  0
   -3.5570   -0.4980   -1.2880 H   0  0  0  0  0  0  0  0  0  0  0  0
   -1.8160   -2.9690   -0.7100 H   0  0  0  0  0  0  0  0  0  0  0  0
   -2.8990   -2.8410   -2.1650 H   0  0  0  0  0  0  0  0  0  0  0  0
   -0.4920   -2.5500   -2.5780 H   0  0  0  0  0  0  0  0  0  0  0  0
    0.5870   -1.4960   -0.8160 H   0  0  0  0  0  0  0  0  0  0  0  0
  1 10  1  0  0  0  0
  1  9  1  0  0  0  0
  2  1  1  0  0  0  0
  2  3  1  0  0  0  0
  3 14  1  1  0  0  0
  3  4  1  0  0  0  0
  4 17  1  0  0  0  0
  5 18  1  6  0  0  0
  5  3  1  0  0  0  0
  5  6  1  0  0  0  0
  6 19  1  0  0  0  0
  6 20  1  0  0  0  0
  7  8  2  0  0  0  0
  7  5  1  0  0  0  0
 11  1  1  0  0  0  0
 12  2  1  0  0  0  0
 13  2  1  0  0  0  0
 15  4  1  0  0  0  0
 16  4  1  0  0  0  0
 21  7  1  0  0  0  0
 22 21  1  0  0  0  0
 22 31  1  1  0  0  0
 23 33  1  0  0  0  0
 23 22  1  0  0  0  0
 24 23  1  0  0  0  0
 24 25  1  0  0  0  0
 25 26  2  0  0  0  0
 27 22  1  0  0  0  0
 28 27  2  0  0  0  0
 29 36  1  0  0  0  0
 29 25  1  0  0  0  0
 30 21  1  0  0  0  0
 32 23  1  0  0  0  0
 34 24  1  0  0  0  0
 35 24  1  0  0  0  0
 37 48  1  0  0  0  0
 38 37  1  0  0  0  0
 39 38  2  0  0  0  0
 40 38  1  0  0  0  0
 40 49  1  0  0  0  0
 41 40  1  0  0  0  0
 41 51  1  0  0  0  0
 42 53  1  6  0  0  0
 42 41  1  0  0  0  0
 42 43  1  0  0  0  0
 43 54  1  0  0  0  0
 43 27  1  0  0  0  0
 44 42  1  0  0  0  0
 45 44  2  0  0  0  0
 46 44  1  0  0  0  0
 47 37  1  0  0  0  0
 50 40  1  0  0  0  0
 52 41  1  0  0  0  0
M  END
$$$$
