IES.pdb
 OpenBabel07022418403D

 48 47  0  0  1  0  0  0  0  0999 V2000
    1.4300   -1.3120    5.3740 C   0  0  0  0  0  0  0  0  0  0  0  0
    2.5000   -0.9260    4.3750 C   0  0  0  0  0  0  0  0  0  0  0  0
    2.7390   -2.0180    3.3590 C   0  0  2  0  0  0  0  0  0  0  0  0
    3.8210   -1.6070    2.3920 C   0  0  0  0  0  0  0  0  0  0  0  0
    1.4640   -2.4000    2.7090 C   0  0  2  0  0  0  0  0  0  0  0  0
    1.6350   -3.4820    1.7410 N   0  0  0  0  0  0  0  0  0  0  0  0
    0.7520   -1.2680    2.0200 C   0  0  0  0  0  0  0  0  0  0  0  0
    0.4450   -0.1950    2.5710 O   0  0  0  0  0  0  0  0  0  0  0  0
    0.4740   -0.8130    5.1990 H   0  0  0  0  0  0  0  0  0  0  0  0
    1.3620   -2.4340    5.3650 H   0  0  0  0  0  0  0  0  0  0  0  0
    1.7630   -1.0410    6.4050 H   0  0  0  0  0  0  0  0  0  0  0  0
    3.4690   -0.8540    4.9500 H   0  0  0  0  0  0  0  0  0  0  0  0
    2.2260    0.0470    3.9470 H   0  0  0  0  0  0  0  0  0  0  0  0
    3.1240   -2.8980    3.9140 H   0  0  0  0  0  0  0  0  0  0  0  0
    4.6310   -2.3630    2.3260 H   0  0  0  0  0  0  0  0  0  0  0  0
    3.4680   -1.4050    1.3860 H   0  0  0  0  0  0  0  0  0  0  0  0
    4.2970   -0.6790    2.7830 H   0  0  0  0  0  0  0  0  0  0  0  0
    0.7730   -2.7820    3.4700 H   0  0  0  0  0  0  0  0  0  0  0  0
    0.8090   -4.0670    1.6110 H   0  0  0  0  0  0  0  0  0  0  0  0
    2.2080   -3.2430    0.9380 H   0  0  0  0  0  0  0  0  0  0  0  0
    0.3830   -1.3860    0.6400 N   0  0  0  0  0  0  0  0  0  0  0  0
   -0.3010   -0.3160   -0.0580 C   0  0  1  0  0  0  0  0  0  0  0  0
    0.4570    0.0640   -1.2900 C   0  0  0  0  0  0  0  0  0  0  0  0
    1.8400    0.5360   -0.9720 C   0  0  0  0  0  0  0  0  0  0  0  0
    1.9070    1.7310   -0.1320 C   0  0  0  0  0  0  0  0  0  0  0  0
    3.0220    2.1280    0.2770 O   0  0  0  0  0  0  0  0  0  0  0  0
   -1.6410   -0.8480   -0.4980 C   0  0  0  0  0  0  0  0  0  0  0  0
   -1.9430   -2.0060   -0.2110 O   0  0  0  0  0  0  0  0  0  0  0  0
    0.7940    2.4310    0.2220 O   0  0  0  0  0  0  0  0  0  0  0  0
    0.6150   -2.2530    0.1500 H   0  0  0  0  0  0  0  0  0  0  0  0
   -0.4440    0.5610    0.6060 H   0  0  0  0  0  0  0  0  0  0  0  0
    0.5470   -0.8730   -1.9050 H   0  0  0  0  0  0  0  0  0  0  0  0
   -0.1250    0.8050   -1.8670 H   0  0  0  0  0  0  0  0  0  0  0  0
    2.4090   -0.2870   -0.4490 H   0  0  0  0  0  0  0  0  0  0  0  0
    2.4160    0.7020   -1.9240 H   0  0  0  0  0  0  0  0  0  0  0  0
    0.7770    3.0050    1.0750 H   0  0  0  0  0  0  0  0  0  0  0  0
   -4.8620    1.7120   -1.5630 O   0  0  0  0  0  0  0  0  0  0  0  0
   -4.9710    0.3770   -1.1660 C   0  0  0  0  0  0  0  0  0  0  0  0
   -3.8250   -0.4550   -1.6820 C   0  0  2  0  0  0  0  0  0  0  0  0
   -2.5410   -0.0160   -1.2350 N   0  0  0  0  0  0  0  0  0  0  0  0
   -3.9040   -0.5080   -3.1810 C   0  0  0  0  0  0  0  0  0  0  0  0
   -4.9510   -0.8750   -3.7640 O   0  0  0  0  0  0  0  0  0  0  0  0
   -2.8160   -0.1500   -3.9520 O   0  0  0  0  0  0  0  0  0  0  0  0
   -5.6390    2.1870   -1.1810 H   0  0  0  0  0  0  0  0  0  0  0  0
   -5.1700    0.2400   -0.1010 H   0  0  0  0  0  0  0  0  0  0  0  0
   -5.8970    0.0080   -1.6980 H   0  0  0  0  0  0  0  0  0  0  0  0
   -3.9900   -1.4990   -1.3480 H   0  0  0  0  0  0  0  0  0  0  0  0
   -2.1980    0.9510   -1.4310 H   0  0  0  0  0  0  0  0  0  0  0  0
  1 11  1  0  0  0  0
  2 12  1  0  0  0  0
  2  1  1  0  0  0  0
  3 14  1  1  0  0  0
  3  2  1  0  0  0  0
  4 17  1  0  0  0  0
  4  3  1  0  0  0  0
  5  3  1  0  0  0  0
  5 18  1  1  0  0  0
  6  5  1  0  0  0  0
  7  8  2  0  0  0  0
  7  5  1  0  0  0  0
  9  1  1  0  0  0  0
 10  1  1  0  0  0  0
 13  2  1  0  0  0  0
 15  4  1  0  0  0  0
 16  4  1  0  0  0  0
 19  6  1  0  0  0  0
 20  6  1  0  0  0  0
 21  7  1  0  0  0  0
 22 31  1  1  0  0  0
 22 21  1  0  0  0  0
 23 24  1  0  0  0  0
 23 22  1  0  0  0  0
 24 34  1  0  0  0  0
 24 25  1  0  0  0  0
 25 29  1  0  0  0  0
 25 26  2  0  0  0  0
 27 28  2  0  0  0  0
 27 22  1  0  0  0  0
 29 36  1  0  0  0  0
 30 21  1  0  0  0  0
 32 23  1  0  0  0  0
 33 23  1  0  0  0  0
 35 24  1  0  0  0  0
 37 44  1  0  0  0  0
 37 38  1  0  0  0  0
 38 45  1  0  0  0  0
 39 47  1  1  0  0  0
 39 40  1  0  0  0  0
 39 38  1  0  0  0  0
 40 27  1  0  0  0  0
 41 39  1  0  0  0  0
 42 41  1  0  0  0  0
 43 41  2  0  0  0  0
 46 38  1  0  0  0  0
 48 40  1  0  0  0  0
M  END
$$$$
