IET.pdb
 OpenBabel07022418403D

 51 50  0  0  1  0  0  0  0  0999 V2000
    2.7200   -2.0280    4.6600 C   0  0  0  0  0  0  0  0  0  0  0  0
    3.5500   -1.6530    3.4530 C   0  0  0  0  0  0  0  0  0  0  0  0
    3.0550   -2.4820    2.2840 C   0  0  2  0  0  0  0  0  0  0  0  0
    3.8490   -2.1700    1.0280 C   0  0  0  0  0  0  0  0  0  0  0  0
    1.5700   -2.3260    2.0460 C   0  0  2  0  0  0  0  0  0  0  0  0
    1.2490   -3.1840    0.9060 N   0  0  0  0  0  0  0  0  0  0  0  0
    1.1840   -0.9280    1.7340 C   0  0  0  0  0  0  0  0  0  0  0  0
    1.3560    0.0190    2.5360 O   0  0  0  0  0  0  0  0  0  0  0  0
    2.2350   -3.0380    4.5430 H   0  0  0  0  0  0  0  0  0  0  0  0
    3.3440   -2.1300    5.5740 H   0  0  0  0  0  0  0  0  0  0  0  0
    1.9030   -1.3160    4.8540 H   0  0  0  0  0  0  0  0  0  0  0  0
    3.5050   -0.5670    3.2450 H   0  0  0  0  0  0  0  0  0  0  0  0
    4.5990   -1.9940    3.6430 H   0  0  0  0  0  0  0  0  0  0  0  0
    3.2640   -3.5380    2.5380 H   0  0  0  0  0  0  0  0  0  0  0  0
    3.8320   -3.0900    0.4090 H   0  0  0  0  0  0  0  0  0  0  0  0
    4.8890   -1.9190    1.2320 H   0  0  0  0  0  0  0  0  0  0  0  0
    3.2780   -1.3950    0.4810 H   0  0  0  0  0  0  0  0  0  0  0  0
    1.0480   -2.7530    2.9180 H   0  0  0  0  0  0  0  0  0  0  0  0
    1.4880   -4.1630    1.0950 H   0  0  0  0  0  0  0  0  0  0  0  0
    1.8170   -2.8360    0.1030 H   0  0  0  0  0  0  0  0  0  0  0  0
    0.5860   -0.5650    0.4940 N   0  0  0  0  0  0  0  0  0  0  0  0
    0.2050    0.8090    0.1830 C   0  0  1  0  0  0  0  0  0  0  0  0
    0.8890    1.3250   -1.0180 C   0  0  0  0  0  0  0  0  0  0  0  0
    0.4860    2.7420   -1.3120 C   0  0  0  0  0  0  0  0  0  0  0  0
    1.2360    3.2570   -2.5170 C   0  0  0  0  0  0  0  0  0  0  0  0
    2.0410    2.4930   -3.0790 O   0  0  0  0  0  0  0  0  0  0  0  0
   -1.2520    0.8280    0.0770 C   0  0  0  0  0  0  0  0  0  0  0  0
   -1.8700    1.8940   -0.1070 O   0  0  0  0  0  0  0  0  0  0  0  0
    1.0470    4.5310   -2.9930 O   0  0  0  0  0  0  0  0  0  0  0  0
    0.4040   -1.2730   -0.2410 H   0  0  0  0  0  0  0  0  0  0  0  0
    0.5150    1.4310    1.0580 H   0  0  0  0  0  0  0  0  0  0  0  0
    0.6010    0.7460   -1.9490 H   0  0  0  0  0  0  0  0  0  0  0  0
    1.9960    1.3370   -0.9040 H   0  0  0  0  0  0  0  0  0  0  0  0
   -0.5860    2.7380   -1.6870 H   0  0  0  0  0  0  0  0  0  0  0  0
    0.5410    3.4230   -0.4660 H   0  0  0  0  0  0  0  0  0  0  0  0
    1.6600    4.9870   -3.6730 H   0  0  0  0  0  0  0  0  0  0  0  0
   -3.6220   -2.6170   -0.8570 C   0  0  0  0  0  0  0  0  0  0  0  0
   -3.9920   -1.1700   -1.0510 C   0  0  1  0  0  0  0  0  0  0  0  0
   -5.3940   -1.0270   -1.0280 O   0  0  0  0  0  0  0  0  0  0  0  0
   -3.4630   -0.3130    0.0710 C   0  0  2  0  0  0  0  0  0  0  0  0
   -2.0240   -0.3530    0.1790 N   0  0  0  0  0  0  0  0  0  0  0  0
   -4.1110   -0.7770    1.3400 C   0  0  0  0  0  0  0  0  0  0  0  0
   -3.4260   -1.1390    2.3300 O   0  0  0  0  0  0  0  0  0  0  0  0
   -5.4870   -0.8190    1.4560 O   0  0  0  0  0  0  0  0  0  0  0  0
   -3.8530   -3.1730   -1.7900 H   0  0  0  0  0  0  0  0  0  0  0  0
   -4.2140   -3.0960   -0.0470 H   0  0  0  0  0  0  0  0  0  0  0  0
   -2.5460   -2.7140   -0.6700 H   0  0  0  0  0  0  0  0  0  0  0  0
   -3.6650   -0.8560   -2.0440 H   0  0  0  0  0  0  0  0  0  0  0  0
   -5.7630   -1.7150   -1.6370 H   0  0  0  0  0  0  0  0  0  0  0  0
   -3.7980    0.7320   -0.0910 H   0  0  0  0  0  0  0  0  0  0  0  0
   -1.5310   -1.2560    0.3350 H   0  0  0  0  0  0  0  0  0  0  0  0
  1 11  1  0  0  0  0
  1 10  1  0  0  0  0
  2 13  1  0  0  0  0
  2  1  1  0  0  0  0
  3 14  1  1  0  0  0
  3  2  1  0  0  0  0
  4 16  1  0  0  0  0
  4  3  1  0  0  0  0
  5  3  1  0  0  0  0
  5 18  1  1  0  0  0
  6 19  1  0  0  0  0
  6  5  1  0  0  0  0
  7  5  1  0  0  0  0
  7  8  2  0  0  0  0
  9  1  1  0  0  0  0
 12  2  1  0  0  0  0
 15  4  1  0  0  0  0
 17  4  1  0  0  0  0
 20  6  1  0  0  0  0
 21  7  1  0  0  0  0
 22 21  1  0  0  0  0
 22 31  1  1  0  0  0
 23 33  1  0  0  0  0
 23 22  1  0  0  0  0
 24 23  1  0  0  0  0
 24 35  1  0  0  0  0
 25 24  1  0  0  0  0
 26 25  2  0  0  0  0
 27 41  1  0  0  0  0
 27 22  1  0  0  0  0
 28 27  2  0  0  0  0
 29 25  1  0  0  0  0
 30 21  1  0  0  0  0
 32 23  1  0  0  0  0
 34 24  1  0  0  0  0
 36 29  1  0  0  0  0
 37 47  1  0  0  0  0
 37 46  1  0  0  0  0
 38 48  1  6  0  0  0
 38 39  1  0  0  0  0
 38 37  1  0  0  0  0
 38 40  1  0  0  0  0
 40 50  1  6  0  0  0
 40 41  1  0  0  0  0
 40 42  1  0  0  0  0
 41 51  1  0  0  0  0
 42 44  2  0  0  0  0
 42 43  1  0  0  0  0
 45 37  1  0  0  0  0
 49 39  1  0  0  0  0
M  END
$$$$
