IFC.pdb
 OpenBabel07022418423D

 52 52  0  0  1  0  0  0  0  0999 V2000
    4.0600   -1.6060    4.8480 C   0  0  0  0  0  0  0  0  0  0  0  0
    3.9600   -1.6200    3.3320 C   0  0  0  0  0  0  0  0  0  0  0  0
    2.4850   -1.5150    2.9460 C   0  0  2  0  0  0  0  0  0  0  0  0
    1.7400   -2.6910    3.5290 C   0  0  0  0  0  0  0  0  0  0  0  0
    2.3760   -1.4510    1.4510 C   0  0  2  0  0  0  0  0  0  0  0  0
    3.0950   -0.3010    0.9350 N   0  0  0  0  0  0  0  0  0  0  0  0
    1.0070   -1.3840    0.9470 C   0  0  0  0  0  0  0  0  0  0  0  0
    0.1520   -2.1830    1.4230 O   0  0  0  0  0  0  0  0  0  0  0  0
    4.5790   -2.5110    5.2310 H   0  0  0  0  0  0  0  0  0  0  0  0
    4.6450   -0.6920    5.1050 H   0  0  0  0  0  0  0  0  0  0  0  0
    3.0650   -1.5440    5.3410 H   0  0  0  0  0  0  0  0  0  0  0  0
    4.5250   -0.7930    2.8630 H   0  0  0  0  0  0  0  0  0  0  0  0
    4.3950   -2.5750    2.9850 H   0  0  0  0  0  0  0  0  0  0  0  0
    2.0970   -0.6000    3.4340 H   0  0  0  0  0  0  0  0  0  0  0  0
    2.3820   -3.1850    4.2870 H   0  0  0  0  0  0  0  0  0  0  0  0
    0.8240   -2.3940    4.0760 H   0  0  0  0  0  0  0  0  0  0  0  0
    1.5680   -3.4590    2.7420 H   0  0  0  0  0  0  0  0  0  0  0  0
    2.9040   -2.3410    1.0360 H   0  0  0  0  0  0  0  0  0  0  0  0
    3.1880    0.4420    1.6640 H   0  0  0  0  0  0  0  0  0  0  0  0
    4.0670   -0.5340    0.6320 H   0  0  0  0  0  0  0  0  0  0  0  0
    0.5830   -0.4760   -0.0490 N   0  0  0  0  0  0  0  0  0  0  0  0
   -0.7960   -0.4540   -0.5030 C   0  0  1  0  0  0  0  0  0  0  0  0
   -1.4240    0.9080   -0.4730 C   0  0  0  0  0  0  0  0  0  0  0  0
   -1.4080    1.4450    0.9170 C   0  0  0  0  0  0  0  0  0  0  0  0
   -2.3910    1.2080    1.8450 C   0  0  0  0  0  0  0  0  0  0  0  0
   -2.3360    1.7260    3.1270 C   0  0  0  0  0  0  0  0  0  0  0  0
   -1.2810    2.5110    3.5340 C   0  0  0  0  0  0  0  0  0  0  0  0
   -0.2760    2.7600    2.6060 C   0  0  0  0  0  0  0  0  0  0  0  0
   -0.3370    2.2460    1.3430 C   0  0  0  0  0  0  0  0  0  0  0  0
   -0.9250   -1.1350   -1.8360 C   0  0  0  0  0  0  0  0  0  0  0  0
    0.0990   -1.6220   -2.3950 O   0  0  0  0  0  0  0  0  0  0  0  0
    1.2960    0.2000   -0.4700 H   0  0  0  0  0  0  0  0  0  0  0  0
   -1.3900   -1.0920    0.2290 H   0  0  0  0  0  0  0  0  0  0  0  0
   -0.9670    1.6080   -1.2080 H   0  0  0  0  0  0  0  0  0  0  0  0
   -2.4750    0.7920   -0.7870 H   0  0  0  0  0  0  0  0  0  0  0  0
   -3.2390    0.6030    1.5860 H   0  0  0  0  0  0  0  0  0  0  0  0
   -3.1350    1.5200    3.8540 H   0  0  0  0  0  0  0  0  0  0  0  0
   -1.2040    2.9320    4.5390 H   0  0  0  0  0  0  0  0  0  0  0  0
    0.5460    3.3870    2.9650 H   0  0  0  0  0  0  0  0  0  0  0  0
    0.4440    2.4500    0.6490 H   0  0  0  0  0  0  0  0  0  0  0  0
   -2.1520   -1.2680   -2.5100 N   0  0  0  0  0  0  0  0  0  0  0  0
   -2.2780   -1.9450   -3.8030 C   0  0  1  0  0  0  0  0  0  0  0  0
   -3.2430   -3.1070   -3.4990 C   0  0  0  0  0  0  0  0  0  0  0  0
   -4.7950   -2.3680   -2.9240 S   0  0  0  0  0  0  0  0  0  0  0  0
   -2.8450   -1.0620   -4.8360 C   0  0  0  0  0  0  0  0  0  0  0  0
   -3.0340   -1.4350   -6.0240 O   0  0  0  0  0  0  0  0  0  0  0  0
   -3.2040    0.2470   -4.5440 O   0  0  0  0  0  0  0  0  0  0  0  0
   -3.0090   -0.8700   -2.0710 H   0  0  0  0  0  0  0  0  0  0  0  0
   -1.3150   -2.3280   -4.1750 H   0  0  0  0  0  0  0  0  0  0  0  0
   -2.7900   -3.6050   -2.5840 H   0  0  0  0  0  0  0  0  0  0  0  0
   -3.3690   -3.7930   -4.3250 H   0  0  0  0  0  0  0  0  0  0  0  0
   -5.2060   -2.8980   -1.6840 H   0  0  0  0  0  0  0  0  0  0  0  0
  1 10  1  0  0  0  0
  1  9  1  0  0  0  0
  1 11  1  0  0  0  0
  2  1  1  0  0  0  0
  3  2  1  0  0  0  0
  3 14  1  1  0  0  0
  3  4  1  0  0  0  0
  4 16  1  0  0  0  0
  4 15  1  0  0  0  0
  5 18  1  6  0  0  0
  5  3  1  0  0  0  0
  6  5  1  0  0  0  0
  6 19  1  0  0  0  0
  7  8  2  0  0  0  0
  7  5  1  0  0  0  0
 12  2  1  0  0  0  0
 13  2  1  0  0  0  0
 17  4  1  0  0  0  0
 20  6  1  0  0  0  0
 21  7  1  0  0  0  0
 22 23  1  0  0  0  0
 22 21  1  0  0  0  0
 22 33  1  1  0  0  0
 23 24  1  0  0  0  0
 24 29  2  0  0  0  0
 24 25  1  0  0  0  0
 25 26  2  0  0  0  0
 26 27  1  0  0  0  0
 26 37  1  0  0  0  0
 27 38  1  0  0  0  0
 28 39  1  0  0  0  0
 28 27  2  0  0  0  0
 29 28  1  0  0  0  0
 30 22  1  0  0  0  0
 31 30  2  0  0  0  0
 32 21  1  0  0  0  0
 34 23  1  0  0  0  0
 35 23  1  0  0  0  0
 36 25  1  0  0  0  0
 40 29  1  0  0  0  0
 41 48  1  0  0  0  0
 41 30  1  0  0  0  0
 42 49  1  6  0  0  0
 42 43  1  0  0  0  0
 42 41  1  0  0  0  0
 43 44  1  0  0  0  0
 43 50  1  0  0  0  0
 44 52  1  0  0  0  0
 45 47  1  0  0  0  0
 45 42  1  0  0  0  0
 46 45  2  0  0  0  0
 51 43  1  0  0  0  0
M  END
$$$$
