IFE.pdb
 OpenBabel07022418423D

 57 57  0  0  1  0  0  0  0  0999 V2000
    1.7550   -1.3980    5.5900 C   0  0  0  0  0  0  0  0  0  0  0  0
    2.6330   -0.7210    4.5720 C   0  0  0  0  0  0  0  0  0  0  0  0
    2.9530   -1.5370    3.3710 C   0  0  2  0  0  0  0  0  0  0  0  0
    3.8350   -0.6970    2.4710 C   0  0  0  0  0  0  0  0  0  0  0  0
    1.7660   -2.0920    2.6420 C   0  0  2  0  0  0  0  0  0  0  0  0
    2.2420   -2.8710    1.5020 N   0  0  0  0  0  0  0  0  0  0  0  0
    0.9140   -0.9650    2.1860 C   0  0  0  0  0  0  0  0  0  0  0  0
    0.3520   -0.2270    3.0200 O   0  0  0  0  0  0  0  0  0  0  0  0
    0.9450   -1.9190    5.0790 H   0  0  0  0  0  0  0  0  0  0  0  0
    1.2880   -0.5890    6.1980 H   0  0  0  0  0  0  0  0  0  0  0  0
    2.3320   -2.0810    6.2490 H   0  0  0  0  0  0  0  0  0  0  0  0
    2.1770    0.2620    4.3060 H   0  0  0  0  0  0  0  0  0  0  0  0
    3.5940   -0.4080    5.1000 H   0  0  0  0  0  0  0  0  0  0  0  0
    3.5540   -2.4170    3.7160 H   0  0  0  0  0  0  0  0  0  0  0  0
    4.8210   -1.1690    2.3360 H   0  0  0  0  0  0  0  0  0  0  0  0
    3.4010   -0.5060    1.4830 H   0  0  0  0  0  0  0  0  0  0  0  0
    4.0460    0.3180    2.9120 H   0  0  0  0  0  0  0  0  0  0  0  0
    1.2340   -2.7950    3.2860 H   0  0  0  0  0  0  0  0  0  0  0  0
    2.9100   -3.5780    1.9010 H   0  0  0  0  0  0  0  0  0  0  0  0
    2.7560   -2.3190    0.8100 H   0  0  0  0  0  0  0  0  0  0  0  0
    0.6910   -0.6670    0.8230 N   0  0  0  0  0  0  0  0  0  0  0  0
   -0.1510    0.4450    0.3840 C   0  0  1  0  0  0  0  0  0  0  0  0
    0.6600    1.4280   -0.4330 C   0  0  0  0  0  0  0  0  0  0  0  0
   -0.1460    2.5730   -0.9030 C   0  0  0  0  0  0  0  0  0  0  0  0
   -0.7750    2.6010   -2.1280 C   0  0  0  0  0  0  0  0  0  0  0  0
   -1.5310    3.7120   -2.5240 C   0  0  0  0  0  0  0  0  0  0  0  0
   -1.6720    4.8130   -1.7060 C   0  0  0  0  0  0  0  0  0  0  0  0
   -1.0410    4.7800   -0.4810 C   0  0  0  0  0  0  0  0  0  0  0  0
   -0.2970    3.6850   -0.0920 C   0  0  0  0  0  0  0  0  0  0  0  0
   -1.3400   -0.0790   -0.3590 C   0  0  0  0  0  0  0  0  0  0  0  0
   -2.2120    0.7240   -0.7770 O   0  0  0  0  0  0  0  0  0  0  0  0
    1.1510   -1.2720    0.1150 H   0  0  0  0  0  0  0  0  0  0  0  0
   -0.5650    0.9930    1.2550 H   0  0  0  0  0  0  0  0  0  0  0  0
    1.0660    0.9000   -1.3280 H   0  0  0  0  0  0  0  0  0  0  0  0
    1.5340    1.7820    0.1500 H   0  0  0  0  0  0  0  0  0  0  0  0
   -0.6850    1.7620   -2.7920 H   0  0  0  0  0  0  0  0  0  0  0  0
   -2.0300    3.7360   -3.4930 H   0  0  0  0  0  0  0  0  0  0  0  0
   -2.2610    5.6640   -2.0290 H   0  0  0  0  0  0  0  0  0  0  0  0
   -1.1650    5.6620    0.1520 H   0  0  0  0  0  0  0  0  0  0  0  0
    0.1940    3.6680    0.8700 H   0  0  0  0  0  0  0  0  0  0  0  0
   -1.5190   -1.4590   -0.6090 N   0  0  0  0  0  0  0  0  0  0  0  0
   -2.6650   -1.9620   -1.3240 C   0  0  1  0  0  0  0  0  0  0  0  0
   -2.3190   -2.5030   -2.6670 C   0  0  0  0  0  0  0  0  0  0  0  0
   -1.3350   -3.5930   -2.7500 C   0  0  0  0  0  0  0  0  0  0  0  0
   -1.5830   -4.8510   -2.0960 C   0  0  0  0  0  0  0  0  0  0  0  0
   -2.5780   -5.1740   -1.4350 O   0  0  0  0  0  0  0  0  0  0  0  0
   -3.5900   -2.7600   -0.5130 C   0  0  0  0  0  0  0  0  0  0  0  0
   -3.2900   -3.0360    0.6750 O   0  0  0  0  0  0  0  0  0  0  0  0
   -0.5870   -5.8480   -2.2070 O   0  0  0  0  0  0  0  0  0  0  0  0
   -4.8030   -3.2340   -0.9920 O   0  0  0  0  0  0  0  0  0  0  0  0
   -0.7600   -2.0800   -0.2360 H   0  0  0  0  0  0  0  0  0  0  0  0
   -3.2740   -1.0110   -1.5660 H   0  0  0  0  0  0  0  0  0  0  0  0
   -1.9640   -1.6310   -3.2790 H   0  0  0  0  0  0  0  0  0  0  0  0
   -3.2830   -2.7900   -3.1560 H   0  0  0  0  0  0  0  0  0  0  0  0
   -0.3070   -3.1690   -2.4830 H   0  0  0  0  0  0  0  0  0  0  0  0
   -1.1900   -3.8140   -3.8630 H   0  0  0  0  0  0  0  0  0  0  0  0
   -0.6230   -6.6850   -1.6600 H   0  0  0  0  0  0  0  0  0  0  0  0
  1 10  1  0  0  0  0
  1 11  1  0  0  0  0
  2 13  1  0  0  0  0
  2  1  1  0  0  0  0
  3 14  1  1  0  0  0
  3  2  1  0  0  0  0
  4 17  1  0  0  0  0
  4  3  1  0  0  0  0
  5 18  1  1  0  0  0
  5  3  1  0  0  0  0
  6 19  1  0  0  0  0
  6  5  1  0  0  0  0
  7  5  1  0  0  0  0
  7  8  2  0  0  0  0
  9  1  1  0  0  0  0
 12  2  1  0  0  0  0
 15  4  1  0  0  0  0
 16  4  1  0  0  0  0
 20  6  1  0  0  0  0
 21  7  1  0  0  0  0
 22 21  1  0  0  0  0
 22 33  1  1  0  0  0
 23 35  1  0  0  0  0
 23 22  1  0  0  0  0
 24 23  1  0  0  0  0
 24 29  1  0  0  0  0
 25 24  2  0  0  0  0
 26 25  1  0  0  0  0
 26 27  2  0  0  0  0
 27 28  1  0  0  0  0
 28 29  2  0  0  0  0
 28 39  1  0  0  0  0
 29 40  1  0  0  0  0
 30 22  1  0  0  0  0
 31 30  2  0  0  0  0
 32 21  1  0  0  0  0
 34 23  1  0  0  0  0
 36 25  1  0  0  0  0
 37 26  1  0  0  0  0
 38 27  1  0  0  0  0
 41 30  1  0  0  0  0
 41 51  1  0  0  0  0
 42 52  1  6  0  0  0
 42 41  1  0  0  0  0
 42 47  1  0  0  0  0
 43 42  1  0  0  0  0
 44 43  1  0  0  0  0
 44 55  1  0  0  0  0
 44 45  1  0  0  0  0
 45 46  2  0  0  0  0
 47 48  1  0  0  0  0
 49 45  1  0  0  0  0
 49 57  1  0  0  0  0
 50 47  2  0  0  0  0
 53 43  1  0  0  0  0
 54 43  1  0  0  0  0
 56 44  1  0  0  0  0
M  END
$$$$
