IFG.pdb
 OpenBabel07022418423D

 48 48  0  0  1  0  0  0  0  0999 V2000
    0.1920   -5.3370    0.5190 C   0  0  0  0  0  0  0  0  0  0  0  0
   -0.1200   -4.0640   -0.1930 C   0  0  0  0  0  0  0  0  0  0  0  0
    1.0180   -3.5100   -0.9940 C   0  0  2  0  0  0  0  0  0  0  0  0
    1.5170   -4.4090   -2.0690 C   0  0  0  0  0  0  0  0  0  0  0  0
    2.1320   -3.0560   -0.0530 C   0  0  2  0  0  0  0  0  0  0  0  0
    2.6280   -4.1470    0.7460 N   0  0  0  0  0  0  0  0  0  0  0  0
    1.5240   -2.0360    0.8440 C   0  0  0  0  0  0  0  0  0  0  0  0
    1.4920   -2.1890    2.0980 O   0  0  0  0  0  0  0  0  0  0  0  0
   -0.7960   -5.8420    0.7300 H   0  0  0  0  0  0  0  0  0  0  0  0
    0.7740   -6.0650   -0.0590 H   0  0  0  0  0  0  0  0  0  0  0  0
    0.6220   -5.1540    1.5390 H   0  0  0  0  0  0  0  0  0  0  0  0
   -0.3900   -3.3050    0.5720 H   0  0  0  0  0  0  0  0  0  0  0  0
   -0.9560   -4.2620   -0.8960 H   0  0  0  0  0  0  0  0  0  0  0  0
    0.6480   -2.5740   -1.4800 H   0  0  0  0  0  0  0  0  0  0  0  0
    2.6320   -4.2460   -2.1480 H   0  0  0  0  0  0  0  0  0  0  0  0
    1.3340   -5.4720   -1.9280 H   0  0  0  0  0  0  0  0  0  0  0  0
    1.1320   -4.0890   -3.0770 H   0  0  0  0  0  0  0  0  0  0  0  0
    2.9250   -2.6280   -0.6820 H   0  0  0  0  0  0  0  0  0  0  0  0
    3.1400   -4.8430    0.1650 H   0  0  0  0  0  0  0  0  0  0  0  0
    3.2680   -3.7510    1.4560 H   0  0  0  0  0  0  0  0  0  0  0  0
    0.9690   -0.8720    0.2980 N   0  0  0  0  0  0  0  0  0  0  0  0
    0.3490    0.1820    1.1310 C   0  0  1  0  0  0  0  0  0  0  0  0
    1.1600    1.4010    0.8450 C   0  0  0  0  0  0  0  0  0  0  0  0
    0.7790    2.6340    1.5280 C   0  0  0  0  0  0  0  0  0  0  0  0
    1.2640    2.9480    2.7810 C   0  0  0  0  0  0  0  0  0  0  0  0
    0.9100    4.1390    3.4190 C   0  0  0  0  0  0  0  0  0  0  0  0
    0.0640    5.0350    2.8080 C   0  0  0  0  0  0  0  0  0  0  0  0
   -0.4250    4.7340    1.5610 C   0  0  0  0  0  0  0  0  0  0  0  0
   -0.0710    3.5630    0.9470 C   0  0  0  0  0  0  0  0  0  0  0  0
   -1.0530    0.2910    0.6880 C   0  0  0  0  0  0  0  0  0  0  0  0
   -1.4240   -0.3710   -0.3170 O   0  0  0  0  0  0  0  0  0  0  0  0
    0.9730   -0.7060   -0.7200 H   0  0  0  0  0  0  0  0  0  0  0  0
    0.4210   -0.1410    2.2040 H   0  0  0  0  0  0  0  0  0  0  0  0
    2.2250    1.1310    1.1180 H   0  0  0  0  0  0  0  0  0  0  0  0
    1.1990    1.5080   -0.2630 H   0  0  0  0  0  0  0  0  0  0  0  0
    1.9330    2.2700    3.2960 H   0  0  0  0  0  0  0  0  0  0  0  0
    1.2900    4.3890    4.4040 H   0  0  0  0  0  0  0  0  0  0  0  0
   -0.2010    5.9650    3.3280 H   0  0  0  0  0  0  0  0  0  0  0  0
   -1.0890    5.4550    1.1040 H   0  0  0  0  0  0  0  0  0  0  0  0
   -0.4660    3.3520   -0.0270 H   0  0  0  0  0  0  0  0  0  0  0  0
   -2.0440    1.0970    1.3150 N   0  0  0  0  0  0  0  0  0  0  0  0
   -3.3920    1.1370    0.7970 C   0  0  0  0  0  0  0  0  0  0  0  0
   -4.0250   -0.2090    0.8090 C   0  0  0  0  0  0  0  0  0  0  0  0
   -3.3850   -1.2060    1.2380 O   0  0  0  0  0  0  0  0  0  0  0  0
   -5.3160   -0.4290    0.3620 O   0  0  0  0  0  0  0  0  0  0  0  0
   -1.7690    1.6420    2.1560 H   0  0  0  0  0  0  0  0  0  0  0  0
   -4.0030    1.7940    1.4490 H   0  0  0  0  0  0  0  0  0  0  0  0
   -3.3320    1.5100   -0.2410 H   0  0  0  0  0  0  0  0  0  0  0  0
  1  9  1  0  0  0  0
  1 11  1  0  0  0  0
  2  1  1  0  0  0  0
  2 12  1  0  0  0  0
  3 14  1  6  0  0  0
  3  2  1  0  0  0  0
  3  5  1  0  0  0  0
  4 16  1  0  0  0  0
  4  3  1  0  0  0  0
  5 18  1  6  0  0  0
  5  6  1  0  0  0  0
  5  7  1  0  0  0  0
  6 20  1  0  0  0  0
  7  8  2  0  0  0  0
 10  1  1  0  0  0  0
 13  2  1  0  0  0  0
 15  4  1  0  0  0  0
 17  4  1  0  0  0  0
 19  6  1  0  0  0  0
 21  7  1  0  0  0  0
 21 22  1  0  0  0  0
 22 33  1  1  0  0  0
 23 34  1  0  0  0  0
 23 22  1  0  0  0  0
 23 24  1  0  0  0  0
 24 25  1  0  0  0  0
 25 36  1  0  0  0  0
 25 26  2  0  0  0  0
 26 37  1  0  0  0  0
 27 38  1  0  0  0  0
 27 26  1  0  0  0  0
 28 27  2  0  0  0  0
 29 24  2  0  0  0  0
 29 28  1  0  0  0  0
 30 22  1  0  0  0  0
 30 41  1  0  0  0  0
 31 30  2  0  0  0  0
 32 21  1  0  0  0  0
 35 23  1  0  0  0  0
 39 28  1  0  0  0  0
 40 29  1  0  0  0  0
 41 46  1  0  0  0  0
 42 43  1  0  0  0  0
 42 41  1  0  0  0  0
 42 47  1  0  0  0  0
 43 44  1  0  0  0  0
 45 43  2  0  0  0  0
 48 42  1  0  0  0  0
M  END
$$$$
