IFH.pdb
 OpenBabel07022418423D

 58 59  0  0  1  0  0  0  0  0999 V2000
    2.5990    0.9160    3.1700 C   0  0  0  0  0  0  0  0  0  0  0  0
    2.4750   -0.1990    2.1180 C   0  0  0  0  0  0  0  0  0  0  0  0
    1.6190   -1.2930    2.6600 C   0  0  2  0  0  0  0  0  0  0  0  0
    1.4700   -2.4140    1.6430 C   0  0  0  0  0  0  0  0  0  0  0  0
    0.2930   -0.9130    3.1810 C   0  0  2  0  0  0  0  0  0  0  0  0
   -0.3530   -2.1400    3.7300 N   0  0  0  0  0  0  0  0  0  0  0  0
   -0.7090   -0.4020    2.2280 C   0  0  0  0  0  0  0  0  0  0  0  0
   -1.8810   -0.0790    2.6680 O   0  0  0  0  0  0  0  0  0  0  0  0
    1.6410    1.4490    3.3000 H   0  0  0  0  0  0  0  0  0  0  0  0
    2.8850    0.4990    4.1580 H   0  0  0  0  0  0  0  0  0  0  0  0
    3.4280    1.5690    2.8610 H   0  0  0  0  0  0  0  0  0  0  0  0
    3.5280   -0.6330    2.0740 H   0  0  0  0  0  0  0  0  0  0  0  0
    2.2200    0.2710    1.1930 H   0  0  0  0  0  0  0  0  0  0  0  0
    2.2280   -1.7870    3.5010 H   0  0  0  0  0  0  0  0  0  0  0  0
    0.3860   -2.5590    1.4720 H   0  0  0  0  0  0  0  0  0  0  0  0
    1.9550   -2.1580    0.6760 H   0  0  0  0  0  0  0  0  0  0  0  0
    1.9330   -3.3570    2.0000 H   0  0  0  0  0  0  0  0  0  0  0  0
    0.3580   -0.2540    4.0900 H   0  0  0  0  0  0  0  0  0  0  0  0
    0.1220   -2.4330    4.5980 H   0  0  0  0  0  0  0  0  0  0  0  0
   -1.3570   -1.9350    3.9520 H   0  0  0  0  0  0  0  0  0  0  0  0
   -0.5630   -0.2120    0.8410 N   0  0  0  0  0  0  0  0  0  0  0  0
   -1.6230    0.3060   -0.0030 C   0  0  1  0  0  0  0  0  0  0  0  0
   -1.2770    1.6410   -0.6150 C   0  0  0  0  0  0  0  0  0  0  0  0
   -1.0150    2.7080    0.3660 C   0  0  0  0  0  0  0  0  0  0  0  0
    0.2820    2.8710    0.8080 C   0  0  0  0  0  0  0  0  0  0  0  0
    0.5550    3.8690    1.7330 C   0  0  0  0  0  0  0  0  0  0  0  0
   -0.4440    4.6930    2.2140 C   0  0  0  0  0  0  0  0  0  0  0  0
   -1.7370    4.5100    1.7560 C   0  0  0  0  0  0  0  0  0  0  0  0
   -1.9980    3.5320    0.8500 C   0  0  0  0  0  0  0  0  0  0  0  0
   -2.0190   -0.5980   -1.0920 C   0  0  0  0  0  0  0  0  0  0  0  0
   -2.9320   -0.2270   -1.8700 O   0  0  0  0  0  0  0  0  0  0  0  0
    0.3060   -0.4540    0.3500 H   0  0  0  0  0  0  0  0  0  0  0  0
   -2.4930    0.5000    0.6620 H   0  0  0  0  0  0  0  0  0  0  0  0
   -0.3820    1.4720   -1.2520 H   0  0  0  0  0  0  0  0  0  0  0  0
   -2.1000    1.9110   -1.2980 H   0  0  0  0  0  0  0  0  0  0  0  0
    1.1040    2.2670    0.4780 H   0  0  0  0  0  0  0  0  0  0  0  0
    1.5520    4.0430    2.1130 H   0  0  0  0  0  0  0  0  0  0  0  0
   -0.2770    5.4760    2.9290 H   0  0  0  0  0  0  0  0  0  0  0  0
   -2.5240    5.1750    2.1480 H   0  0  0  0  0  0  0  0  0  0  0  0
   -3.0130    3.3870    0.4890 H   0  0  0  0  0  0  0  0  0  0  0  0
   -1.4250   -1.8510   -1.3000 N   0  0  0  0  0  0  0  0  0  0  0  0
   -1.7900   -2.7670   -2.3590 C   0  0  1  0  0  0  0  0  0  0  0  0
   -0.6670   -3.1030   -3.2810 C   0  0  0  0  0  0  0  0  0  0  0  0
    0.4910   -3.7460   -2.6130 C   0  0  0  0  0  0  0  0  0  0  0  0
    1.6350   -4.1410   -3.2710 C   0  0  0  0  0  0  0  0  0  0  0  0
    2.4830   -4.6830   -2.3880 N   0  0  0  0  0  0  0  0  0  0  0  0
    1.8950   -4.6380   -1.1860 C   0  0  0  0  0  0  0  0  0  0  0  0
    0.6920   -4.0700   -1.3350 N   0  0  0  0  0  0  0  0  0  0  0  0
   -2.2500   -4.0260   -1.7170 C   0  0  0  0  0  0  0  0  0  0  0  0
   -2.6300   -4.9990   -2.4050 O   0  0  0  0  0  0  0  0  0  0  0  0
   -2.2840   -4.1880   -0.3410 O   0  0  0  0  0  0  0  0  0  0  0  0
   -0.6650   -2.1590   -0.6520 H   0  0  0  0  0  0  0  0  0  0  0  0
   -2.6180   -2.3730   -2.9790 H   0  0  0  0  0  0  0  0  0  0  0  0
   -0.3480   -2.2510   -3.9190 H   0  0  0  0  0  0  0  0  0  0  0  0
   -1.0640   -3.8710   -3.9990 H   0  0  0  0  0  0  0  0  0  0  0  0
    1.8340   -4.0340   -4.3470 H   0  0  0  0  0  0  0  0  0  0  0  0
    3.4390   -5.0680   -2.6340 H   0  0  0  0  0  0  0  0  0  0  0  0
    2.3370   -5.0100   -0.2380 H   0  0  0  0  0  0  0  0  0  0  0  0
  1  9  1  0  0  0  0
  1 10  1  0  0  0  0
  2  3  1  0  0  0  0
  2  1  1  0  0  0  0
  3  5  1  0  0  0  0
  3 14  1  1  0  0  0
  4 17  1  0  0  0  0
  4  3  1  0  0  0  0
  5  6  1  0  0  0  0
  5 18  1  1  0  0  0
  6 20  1  0  0  0  0
  6 19  1  0  0  0  0
  7  8  2  0  0  0  0
  7  5  1  0  0  0  0
 11  1  1  0  0  0  0
 12  2  1  0  0  0  0
 13  2  1  0  0  0  0
 15  4  1  0  0  0  0
 16  4  1  0  0  0  0
 21  7  1  0  0  0  0
 22 33  1  1  0  0  0
 22 21  1  0  0  0  0
 23 22  1  0  0  0  0
 23 24  1  0  0  0  0
 24 25  2  0  0  0  0
 24 29  1  0  0  0  0
 25 26  1  0  0  0  0
 26 37  1  0  0  0  0
 26 27  2  0  0  0  0
 27 38  1  0  0  0  0
 28 39  1  0  0  0  0
 28 27  1  0  0  0  0
 29 28  2  0  0  0  0
 30 22  1  0  0  0  0
 31 30  2  0  0  0  0
 32 21  1  0  0  0  0
 34 23  1  0  0  0  0
 35 23  1  0  0  0  0
 36 25  1  0  0  0  0
 40 29  1  0  0  0  0
 41 30  1  0  0  0  0
 41 52  1  0  0  0  0
 42 53  1  6  0  0  0
 42 49  1  0  0  0  0
 42 41  1  0  0  0  0
 43 44  1  0  0  0  0
 43 42  1  0  0  0  0
 44 48  1  0  0  0  0
 45 44  2  0  0  0  0
 45 46  1  0  0  0  0
 46 47  1  0  0  0  0
 47 58  1  0  0  0  0
 48 47  2  0  0  0  0
 49 51  1  0  0  0  0
 50 49  2  0  0  0  0
 54 43  1  0  0  0  0
 55 43  1  0  0  0  0
 56 45  1  0  0  0  0
 57 46  1  0  0  0  0
M  END
$$$$
