IFM.pdb
 OpenBabel07022418423D

 58 58  0  0  1  0  0  0  0  0999 V2000
   -2.6870   -2.3950    5.2530 C   0  0  0  0  0  0  0  0  0  0  0  0
   -3.4230   -2.6980    3.9770 C   0  0  0  0  0  0  0  0  0  0  0  0
   -2.6160   -2.3990    2.7430 C   0  0  2  0  0  0  0  0  0  0  0  0
   -1.3420   -3.1660    2.6420 C   0  0  0  0  0  0  0  0  0  0  0  0
   -2.4950   -0.9100    2.5280 C   0  0  2  0  0  0  0  0  0  0  0  0
   -3.8340   -0.3430    2.3690 N   0  0  0  0  0  0  0  0  0  0  0  0
   -1.6610   -0.5160    1.3840 C   0  0  0  0  0  0  0  0  0  0  0  0
   -2.1870    0.0110    0.3620 O   0  0  0  0  0  0  0  0  0  0  0  0
   -2.6870   -1.2960    5.4770 H   0  0  0  0  0  0  0  0  0  0  0  0
   -1.6590   -2.7440    5.2830 H   0  0  0  0  0  0  0  0  0  0  0  0
   -3.2250   -2.8700    6.1000 H   0  0  0  0  0  0  0  0  0  0  0  0
   -4.3160   -2.0290    3.9440 H   0  0  0  0  0  0  0  0  0  0  0  0
   -3.8120   -3.7370    3.9910 H   0  0  0  0  0  0  0  0  0  0  0  0
   -3.2580   -2.7610    1.8810 H   0  0  0  0  0  0  0  0  0  0  0  0
   -0.9720   -3.0780    1.6000 H   0  0  0  0  0  0  0  0  0  0  0  0
   -0.5960   -2.9370    3.4200 H   0  0  0  0  0  0  0  0  0  0  0  0
   -1.6480   -4.2610    2.6990 H   0  0  0  0  0  0  0  0  0  0  0  0
   -2.0630   -0.4660    3.4450 H   0  0  0  0  0  0  0  0  0  0  0  0
   -4.2290   -0.0000    3.2480 H   0  0  0  0  0  0  0  0  0  0  0  0
   -3.9220    0.2660    1.5530 H   0  0  0  0  0  0  0  0  0  0  0  0
   -0.2560   -0.6890    1.3430 N   0  0  0  0  0  0  0  0  0  0  0  0
    0.5220   -0.2740    0.1650 C   0  0  1  0  0  0  0  0  0  0  0  0
    1.4410    0.8430    0.6420 C   0  0  0  0  0  0  0  0  0  0  0  0
    0.6170    1.9760    1.1730 C   0  0  0  0  0  0  0  0  0  0  0  0
    0.2090    2.9870    0.3240 C   0  0  0  0  0  0  0  0  0  0  0  0
   -0.5540    4.0300    0.8290 C   0  0  0  0  0  0  0  0  0  0  0  0
   -0.9090    4.0760    2.1580 C   0  0  0  0  0  0  0  0  0  0  0  0
   -0.4860    3.0460    2.9970 C   0  0  0  0  0  0  0  0  0  0  0  0
    0.2730    2.0080    2.4940 C   0  0  0  0  0  0  0  0  0  0  0  0
    1.3430   -1.3920   -0.3530 C   0  0  0  0  0  0  0  0  0  0  0  0
    1.3220   -2.5290    0.2020 O   0  0  0  0  0  0  0  0  0  0  0  0
    0.2220   -1.1090    2.1640 H   0  0  0  0  0  0  0  0  0  0  0  0
   -0.1120    0.1280   -0.6180 H   0  0  0  0  0  0  0  0  0  0  0  0
    2.1800    0.4920    1.3770 H   0  0  0  0  0  0  0  0  0  0  0  0
    1.9670    1.2310   -0.2540 H   0  0  0  0  0  0  0  0  0  0  0  0
    0.4600    3.0020   -0.7380 H   0  0  0  0  0  0  0  0  0  0  0  0
   -0.8820    4.8260    0.1860 H   0  0  0  0  0  0  0  0  0  0  0  0
   -1.5000    4.8640    2.6020 H   0  0  0  0  0  0  0  0  0  0  0  0
   -0.7280    3.0180    4.0530 H   0  0  0  0  0  0  0  0  0  0  0  0
    0.6050    1.2000    3.1540 H   0  0  0  0  0  0  0  0  0  0  0  0
   -0.1220   -0.9330   -4.4490 C   0  0  0  0  0  0  0  0  0  0  0  0
    1.6420   -0.5000   -4.3780 S   0  0  0  0  0  0  0  0  0  0  0  0
    2.6980   -1.9410   -4.4640 C   0  0  0  0  0  0  0  0  0  0  0  0
    2.6260   -2.8730   -3.3200 C   0  0  0  0  0  0  0  0  0  0  0  0
    2.9850   -2.3560   -1.9760 C   0  0  2  0  0  0  0  0  0  0  0  0
    2.1950   -1.2680   -1.4830 N   0  0  0  0  0  0  0  0  0  0  0  0
    4.4530   -2.0840   -1.8350 C   0  0  0  0  0  0  0  0  0  0  0  0
    4.8950   -1.0130   -1.3380 O   0  0  0  0  0  0  0  0  0  0  0  0
    5.4000   -3.0080   -2.2490 O   0  0  0  0  0  0  0  0  0  0  0  0
   -0.3350   -1.2510   -5.4980 H   0  0  0  0  0  0  0  0  0  0  0  0
   -0.3710   -1.7440   -3.7370 H   0  0  0  0  0  0  0  0  0  0  0  0
   -0.6840    0.0010   -4.2340 H   0  0  0  0  0  0  0  0  0  0  0  0
    2.3750   -2.5300   -5.3740 H   0  0  0  0  0  0  0  0  0  0  0  0
    3.7190   -1.5960   -4.7170 H   0  0  0  0  0  0  0  0  0  0  0  0
    1.5860   -3.2810   -3.2470 H   0  0  0  0  0  0  0  0  0  0  0  0
    3.2590   -3.7750   -3.5020 H   0  0  0  0  0  0  0  0  0  0  0  0
    2.8060   -3.2300   -1.2730 H   0  0  0  0  0  0  0  0  0  0  0  0
    2.2150   -0.3310   -1.9350 H   0  0  0  0  0  0  0  0  0  0  0  0
  1 10  1  0  0  0  0
  1  9  1  0  0  0  0
  1 11  1  0  0  0  0
  2 13  1  0  0  0  0
  2  1  1  0  0  0  0
  3 14  1  6  0  0  0
  3  2  1  0  0  0  0
  4 17  1  0  0  0  0
  4  3  1  0  0  0  0
  4 16  1  0  0  0  0
  5  3  1  0  0  0  0
  5 18  1  1  0  0  0
  6  5  1  0  0  0  0
  6 19  1  0  0  0  0
  7  5  1  0  0  0  0
  8  7  2  0  0  0  0
 12  2  1  0  0  0  0
 15  4  1  0  0  0  0
 20  6  1  0  0  0  0
 21  7  1  0  0  0  0
 21 32  1  0  0  0  0
 22 33  1  6  0  0  0
 22 23  1  0  0  0  0
 22 21  1  0  0  0  0
 23 24  1  0  0  0  0
 23 34  1  0  0  0  0
 24 29  1  0  0  0  0
 25 26  1  0  0  0  0
 25 24  2  0  0  0  0
 26 27  2  0  0  0  0
 27 38  1  0  0  0  0
 27 28  1  0  0  0  0
 28 39  1  0  0  0  0
 29 28  2  0  0  0  0
 29 40  1  0  0  0  0
 30 22  1  0  0  0  0
 30 31  2  0  0  0  0
 35 23  1  0  0  0  0
 36 25  1  0  0  0  0
 37 26  1  0  0  0  0
 41 42  1  0  0  0  0
 41 52  1  0  0  0  0
 41 51  1  0  0  0  0
 43 42  1  0  0  0  0
 43 44  1  0  0  0  0
 44 55  1  0  0  0  0
 44 45  1  0  0  0  0
 45 47  1  0  0  0  0
 45 46  1  0  0  0  0
 45 57  1  1  0  0  0
 46 30  1  0  0  0  0
 47 48  1  0  0  0  0
 49 47  2  0  0  0  0
 50 41  1  0  0  0  0
 53 43  1  0  0  0  0
 54 43  1  0  0  0  0
 56 44  1  0  0  0  0
 58 46  1  0  0  0  0
M  END
$$$$
