IFW.pdb
 OpenBabel07022418423D

 65 67  0  0  1  0  0  0  0  0999 V2000
   -0.9340    2.3110    5.4190 C   0  0  0  0  0  0  0  0  0  0  0  0
   -2.2260    2.5110    4.6950 C   0  0  0  0  0  0  0  0  0  0  0  0
   -2.0680    2.5470    3.1790 C   0  0  2  0  0  0  0  0  0  0  0  0
   -3.4840    2.7590    2.6250 C   0  0  0  0  0  0  0  0  0  0  0  0
   -1.5170    1.2170    2.6890 C   0  0  2  0  0  0  0  0  0  0  0  0
   -0.2360    1.0180    3.3190 N   0  0  0  0  0  0  0  0  0  0  0  0
   -1.4460    1.2110    1.2220 C   0  0  0  0  0  0  0  0  0  0  0  0
   -2.5100    1.4000    0.5690 O   0  0  0  0  0  0  0  0  0  0  0  0
   -0.0690    2.7680    4.9220 H   0  0  0  0  0  0  0  0  0  0  0  0
   -0.7980    1.2280    5.6210 H   0  0  0  0  0  0  0  0  0  0  0  0
   -1.0390    2.8410    6.4120 H   0  0  0  0  0  0  0  0  0  0  0  0
   -2.9550    1.6930    4.8950 H   0  0  0  0  0  0  0  0  0  0  0  0
   -2.7340    3.4740    4.9680 H   0  0  0  0  0  0  0  0  0  0  0  0
   -1.4090    3.3570    2.8570 H   0  0  0  0  0  0  0  0  0  0  0  0
   -4.1380    3.2200    3.3950 H   0  0  0  0  0  0  0  0  0  0  0  0
   -3.4730    3.4520    1.7600 H   0  0  0  0  0  0  0  0  0  0  0  0
   -3.9200    1.7700    2.3970 H   0  0  0  0  0  0  0  0  0  0  0  0
   -2.1770    0.3840    3.0780 H   0  0  0  0  0  0  0  0  0  0  0  0
    0.5150    1.6150    2.9020 H   0  0  0  0  0  0  0  0  0  0  0  0
    0.1100    0.0320    3.2620 H   0  0  0  0  0  0  0  0  0  0  0  0
   -0.2670    1.0090    0.4550 N   0  0  0  0  0  0  0  0  0  0  0  0
   -0.2490    1.0120   -0.9840 C   0  0  1  0  0  0  0  0  0  0  0  0
    0.8110    1.8640   -1.5990 C   0  0  0  0  0  0  0  0  0  0  0  0
    0.7250    3.3000   -1.2400 C   0  0  0  0  0  0  0  0  0  0  0  0
    1.4180    3.7050   -0.1260 C   0  0  0  0  0  0  0  0  0  0  0  0
    1.3720    5.0300    0.2520 C   0  0  0  0  0  0  0  0  0  0  0  0
    0.6560    5.9810   -0.4410 C   0  0  0  0  0  0  0  0  0  0  0  0
   -0.0260    5.5230   -1.5570 C   0  0  0  0  0  0  0  0  0  0  0  0
    0.0030    4.2120   -1.9540 C   0  0  0  0  0  0  0  0  0  0  0  0
    0.0630   -0.4050   -1.4000 C   0  0  0  0  0  0  0  0  0  0  0  0
    0.2480   -1.3300   -0.5660 O   0  0  0  0  0  0  0  0  0  0  0  0
    0.6240    0.8520    0.9740 H   0  0  0  0  0  0  0  0  0  0  0  0
   -1.2390    1.2130   -1.4280 H   0  0  0  0  0  0  0  0  0  0  0  0
    0.6370    1.8220   -2.7120 H   0  0  0  0  0  0  0  0  0  0  0  0
    1.8150    1.4990   -1.3620 H   0  0  0  0  0  0  0  0  0  0  0  0
    2.0110    2.9830    0.4700 H   0  0  0  0  0  0  0  0  0  0  0  0
    1.9290    5.3450    1.1440 H   0  0  0  0  0  0  0  0  0  0  0  0
    0.6270    7.0300   -0.1310 H   0  0  0  0  0  0  0  0  0  0  0  0
   -0.6110    6.2550   -2.1390 H   0  0  0  0  0  0  0  0  0  0  0  0
   -0.5490    3.9230   -2.8290 H   0  0  0  0  0  0  0  0  0  0  0  0
    0.1670   -0.7770   -2.7700 N   0  0  0  0  0  0  0  0  0  0  0  0
    0.4590   -2.1000   -3.2370 C   0  0  1  0  0  0  0  0  0  0  0  0
   -0.6580   -2.6770   -4.0810 C   0  0  0  0  0  0  0  0  0  0  0  0
   -0.3230   -4.0440   -4.5460 C   0  0  0  0  0  0  0  0  0  0  0  0
    0.0870   -4.3720   -5.8430 C   0  0  0  0  0  0  0  0  0  0  0  0
    0.3040   -5.7010   -5.9050 N   0  0  0  0  0  0  0  0  0  0  0  0
    0.0520   -6.2650   -4.6990 C   0  0  0  0  0  0  0  0  0  0  0  0
    0.1060   -7.5450   -4.2030 C   0  0  0  0  0  0  0  0  0  0  0  0
   -0.2120   -7.8570   -2.8940 C   0  0  0  0  0  0  0  0  0  0  0  0
   -0.5990   -6.8300   -2.0580 C   0  0  0  0  0  0  0  0  0  0  0  0
   -0.6540   -5.5390   -2.5560 C   0  0  0  0  0  0  0  0  0  0  0  0
   -0.3300   -5.2480   -3.8750 C   0  0  0  0  0  0  0  0  0  0  0  0
    1.7780   -2.1590   -3.9440 C   0  0  0  0  0  0  0  0  0  0  0  0
    2.5110   -1.1370   -4.0910 O   0  0  0  0  0  0  0  0  0  0  0  0
    2.2490   -3.3510   -4.4700 O   0  0  0  0  0  0  0  0  0  0  0  0
    0.0160   -0.0200   -3.4910 H   0  0  0  0  0  0  0  0  0  0  0  0
    0.5710   -2.7590   -2.3510 H   0  0  0  0  0  0  0  0  0  0  0  0
   -1.5300   -2.7950   -3.3820 H   0  0  0  0  0  0  0  0  0  0  0  0
   -0.9180   -2.0360   -4.9390 H   0  0  0  0  0  0  0  0  0  0  0  0
    0.2140   -3.6890   -6.6660 H   0  0  0  0  0  0  0  0  0  0  0  0
    0.6160   -6.2830   -6.7140 H   0  0  0  0  0  0  0  0  0  0  0  0
    0.4150   -8.3250   -4.8930 H   0  0  0  0  0  0  0  0  0  0  0  0
   -0.1580   -8.8920   -2.5330 H   0  0  0  0  0  0  0  0  0  0  0  0
   -0.8530   -7.0650   -1.0210 H   0  0  0  0  0  0  0  0  0  0  0  0
   -0.9550   -4.7220   -1.9140 H   0  0  0  0  0  0  0  0  0  0  0  0
  1 10  1  0  0  0  0
  1 11  1  0  0  0  0
  2 12  1  0  0  0  0
  2 13  1  0  0  0  0
  2  1  1  0  0  0  0
  3 14  1  6  0  0  0
  3  2  1  0  0  0  0
  4  3  1  0  0  0  0
  4 15  1  0  0  0  0
  5 18  1  1  0  0  0
  5  3  1  0  0  0  0
  5  6  1  0  0  0  0
  7  5  1  0  0  0  0
  8  7  2  0  0  0  0
  9  1  1  0  0  0  0
 16  4  1  0  0  0  0
 17  4  1  0  0  0  0
 19  6  1  0  0  0  0
 20  6  1  0  0  0  0
 21 32  1  0  0  0  0
 21  7  1  0  0  0  0
 22 33  1  6  0  0  0
 22 21  1  0  0  0  0
 23 35  1  0  0  0  0
 23 24  1  0  0  0  0
 23 22  1  0  0  0  0
 24 25  1  0  0  0  0
 25 26  2  0  0  0  0
 25 36  1  0  0  0  0
 26 37  1  0  0  0  0
 27 38  1  0  0  0  0
 27 26  1  0  0  0  0
 28 27  2  0  0  0  0
 29 28  1  0  0  0  0
 29 24  2  0  0  0  0
 30 22  1  0  0  0  0
 30 31  2  0  0  0  0
 34 23  1  0  0  0  0
 39 28  1  0  0  0  0
 40 29  1  0  0  0  0
 41 30  1  0  0  0  0
 42 41  1  0  0  0  0
 42 57  1  1  0  0  0
 43 58  1  0  0  0  0
 43 42  1  0  0  0  0
 44 43  1  0  0  0  0
 44 52  1  0  0  0  0
 45 44  2  0  0  0  0
 46 45  1  0  0  0  0
 46 47  1  0  0  0  0
 47 48  2  0  0  0  0
 47 52  1  0  0  0  0
 48 49  1  0  0  0  0
 49 63  1  0  0  0  0
 49 50  2  0  0  0  0
 50 64  1  0  0  0  0
 51 50  1  0  0  0  0
 51 65  1  0  0  0  0
 52 51  2  0  0  0  0
 53 42  1  0  0  0  0
 54 53  1  0  0  0  0
 55 53  2  0  0  0  0
 56 41  1  0  0  0  0
 59 43  1  0  0  0  0
 60 45  1  0  0  0  0
 61 46  1  0  0  0  0
 62 48  1  0  0  0  0
M  END
$$$$
