IGA.pdb
 OpenBabel07022418403D

 38 37  0  0  1  0  0  0  0  0999 V2000
   -0.2370   -3.5360   -0.9590 C   0  0  0  0  0  0  0  0  0  0  0  0
    0.4620   -4.0200    0.2710 C   0  0  0  0  0  0  0  0  0  0  0  0
   -0.2910   -3.8820    1.5420 C   0  0  2  0  0  0  0  0  0  0  0  0
   -1.5740   -4.6710    1.4440 C   0  0  0  0  0  0  0  0  0  0  0  0
   -0.6110   -2.4890    1.9620 C   0  0  2  0  0  0  0  0  0  0  0  0
   -1.4250   -1.7610    1.0010 N   0  0  0  0  0  0  0  0  0  0  0  0
    0.5540   -1.7100    2.4070 C   0  0  0  0  0  0  0  0  0  0  0  0
    1.3860   -2.1440    3.2430 O   0  0  0  0  0  0  0  0  0  0  0  0
   -1.1850   -4.0990   -1.0640 H   0  0  0  0  0  0  0  0  0  0  0  0
    0.3890   -3.8830   -1.8300 H   0  0  0  0  0  0  0  0  0  0  0  0
   -0.3730   -2.4450   -1.0120 H   0  0  0  0  0  0  0  0  0  0  0  0
    1.5150   -3.6230    0.3440 H   0  0  0  0  0  0  0  0  0  0  0  0
    0.6230   -5.1300    0.1180 H   0  0  0  0  0  0  0  0  0  0  0  0
    0.3230   -4.3320    2.3520 H   0  0  0  0  0  0  0  0  0  0  0  0
   -2.0590   -4.6170    2.4490 H   0  0  0  0  0  0  0  0  0  0  0  0
   -2.2490   -4.2820    0.6580 H   0  0  0  0  0  0  0  0  0  0  0  0
   -1.3120   -5.7440    1.2740 H   0  0  0  0  0  0  0  0  0  0  0  0
   -1.2760   -2.5930    2.8740 H   0  0  0  0  0  0  0  0  0  0  0  0
   -1.7430   -0.8660    1.4810 H   0  0  0  0  0  0  0  0  0  0  0  0
   -2.3190   -2.2560    0.7920 H   0  0  0  0  0  0  0  0  0  0  0  0
    0.7910   -0.3940    1.8910 N   0  0  0  0  0  0  0  0  0  0  0  0
    1.9010    0.4070    2.2840 C   0  0  0  0  0  0  0  0  0  0  0  0
    1.9530    1.7260    1.6310 C   0  0  0  0  0  0  0  0  0  0  0  0
    2.9350    2.4700    1.9600 O   0  0  0  0  0  0  0  0  0  0  0  0
    0.1040   -0.0560    1.2100 H   0  0  0  0  0  0  0  0  0  0  0  0
    1.9420    0.5570    3.3880 H   0  0  0  0  0  0  0  0  0  0  0  0
    2.8600   -0.1400    2.0360 H   0  0  0  0  0  0  0  0  0  0  0  0
    1.2670    3.3580   -1.4040 C   0  0  0  0  0  0  0  0  0  0  0  0
    1.2070    3.5850    0.1110 C   0  0  2  0  0  0  0  0  0  0  0  0
    1.0590    2.2580    0.6980 N   0  0  0  0  0  0  0  0  0  0  0  0
    0.0090    4.4050    0.3690 C   0  0  0  0  0  0  0  0  0  0  0  0
   -0.9350    3.8910    1.0230 O   0  0  0  0  0  0  0  0  0  0  0  0
   -0.1240    5.7120   -0.0750 O   0  0  0  0  0  0  0  0  0  0  0  0
    0.9850    4.2700   -1.9290 H   0  0  0  0  0  0  0  0  0  0  0  0
    0.5070    2.5850   -1.6440 H   0  0  0  0  0  0  0  0  0  0  0  0
    2.2670    2.9790   -1.6470 H   0  0  0  0  0  0  0  0  0  0  0  0
    2.0850    4.1220    0.4730 H   0  0  0  0  0  0  0  0  0  0  0  0
    0.2470    1.7120    0.3900 H   0  0  0  0  0  0  0  0  0  0  0  0
  1  2  1  0  0  0  0
  2 12  1  0  0  0  0
  2  3  1  0  0  0  0
  3  5  1  0  0  0  0
  3 14  1  1  0  0  0
  4  3  1  0  0  0  0
  4 15  1  0  0  0  0
  5  7  1  0  0  0  0
  5 18  1  1  0  0  0
  6 19  1  0  0  0  0
  6  5  1  0  0  0  0
  7  8  2  0  0  0  0
  9  1  1  0  0  0  0
 10  1  1  0  0  0  0
 11  1  1  0  0  0  0
 13  2  1  0  0  0  0
 16  4  1  0  0  0  0
 17  4  1  0  0  0  0
 20  6  1  0  0  0  0
 21 22  1  0  0  0  0
 21  7  1  0  0  0  0
 22 26  1  0  0  0  0
 23 24  2  0  0  0  0
 23 22  1  0  0  0  0
 25 21  1  0  0  0  0
 27 22  1  0  0  0  0
 28 29  1  0  0  0  0
 29 31  1  0  0  0  0
 29 37  1  1  0  0  0
 29 30  1  0  0  0  0
 30 23  1  0  0  0  0
 31 32  1  0  0  0  0
 33 31  2  0  0  0  0
 34 28  1  0  0  0  0
 35 28  1  0  0  0  0
 36 28  1  0  0  0  0
 38 30  1  0  0  0  0
M  END
$$$$
