IGD.pdb
 OpenBabel07022418403D

 41 40  0  0  1  0  0  0  0  0999 V2000
    3.2770   -2.0880    2.5130 C   0  0  0  0  0  0  0  0  0  0  0  0
    1.8040   -1.7540    2.6440 C   0  0  0  0  0  0  0  0  0  0  0  0
    0.9960   -2.7670    1.8510 C   0  0  2  0  0  0  0  0  0  0  0  0
    1.3340   -2.7800    0.3930 C   0  0  0  0  0  0  0  0  0  0  0  0
   -0.4690   -2.6800    2.1440 C   0  0  2  0  0  0  0  0  0  0  0  0
   -1.1470   -3.6870    1.3300 N   0  0  0  0  0  0  0  0  0  0  0  0
   -1.0810   -1.3670    1.9720 C   0  0  0  0  0  0  0  0  0  0  0  0
   -0.6760   -0.3590    2.5950 O   0  0  0  0  0  0  0  0  0  0  0  0
    3.8150   -1.1860    2.1300 H   0  0  0  0  0  0  0  0  0  0  0  0
    3.4610   -2.9910    1.9170 H   0  0  0  0  0  0  0  0  0  0  0  0
    3.7440   -2.2920    3.5200 H   0  0  0  0  0  0  0  0  0  0  0  0
    1.5420   -1.8630    3.7150 H   0  0  0  0  0  0  0  0  0  0  0  0
    1.6120   -0.7190    2.3010 H   0  0  0  0  0  0  0  0  0  0  0  0
    1.3790   -3.7610    2.2430 H   0  0  0  0  0  0  0  0  0  0  0  0
    2.4020   -2.5710    0.2250 H   0  0  0  0  0  0  0  0  0  0  0  0
    1.1630   -3.8150   -0.0050 H   0  0  0  0  0  0  0  0  0  0  0  0
    0.7500   -2.1090   -0.2300 H   0  0  0  0  0  0  0  0  0  0  0  0
   -0.6030   -2.9960    3.2110 H   0  0  0  0  0  0  0  0  0  0  0  0
   -0.7800   -4.6340    1.4970 H   0  0  0  0  0  0  0  0  0  0  0  0
   -0.9370   -3.4340    0.3380 H   0  0  0  0  0  0  0  0  0  0  0  0
   -2.1720   -1.2190    1.0710 N   0  0  0  0  0  0  0  0  0  0  0  0
   -2.8460    0.0070    0.8150 C   0  0  0  0  0  0  0  0  0  0  0  0
   -2.0350    1.0860    0.2250 C   0  0  0  0  0  0  0  0  0  0  0  0
   -2.6220    2.2050    0.0210 O   0  0  0  0  0  0  0  0  0  0  0  0
   -2.5170   -2.0840    0.5430 H   0  0  0  0  0  0  0  0  0  0  0  0
   -3.3620    0.3970    1.7460 H   0  0  0  0  0  0  0  0  0  0  0  0
   -3.7030   -0.1520    0.1040 H   0  0  0  0  0  0  0  0  0  0  0  0
   -0.6840    0.9600   -0.1210 N   0  0  0  0  0  0  0  0  0  0  0  0
    0.0220    2.1130   -0.6990 C   0  0  1  0  0  0  0  0  0  0  0  0
    1.1560    2.5780    0.1630 C   0  0  0  0  0  0  0  0  0  0  0  0
    2.1930    1.5460    0.3770 C   0  0  0  0  0  0  0  0  0  0  0  0
    3.1830    1.7950    1.1360 O   0  0  0  0  0  0  0  0  0  0  0  0
    0.4560    1.7450   -2.0600 C   0  0  0  0  0  0  0  0  0  0  0  0
    0.1890    0.6040   -2.5030 O   0  0  0  0  0  0  0  0  0  0  0  0
    2.1100    0.3080   -0.2330 O   0  0  0  0  0  0  0  0  0  0  0  0
    1.1560    2.6060   -2.8900 O   0  0  0  0  0  0  0  0  0  0  0  0
   -0.1790    0.0820    0.0100 H   0  0  0  0  0  0  0  0  0  0  0  0
   -0.6990    2.9710   -0.8100 H   0  0  0  0  0  0  0  0  0  0  0  0
    0.7530    2.8810    1.1660 H   0  0  0  0  0  0  0  0  0  0  0  0
    1.5940    3.4980   -0.2630 H   0  0  0  0  0  0  0  0  0  0  0  0
    2.9480   -0.2740   -0.2020 H   0  0  0  0  0  0  0  0  0  0  0  0
  1  2  1  0  0  0  0
  1 11  1  0  0  0  0
  2 12  1  0  0  0  0
  3  5  1  0  0  0  0
  3 14  1  1  0  0  0
  3  2  1  0  0  0  0
  4  3  1  0  0  0  0
  5 18  1  1  0  0  0
  6 19  1  0  0  0  0
  6  5  1  0  0  0  0
  7  5  1  0  0  0  0
  7  8  2  0  0  0  0
  9  1  1  0  0  0  0
 10  1  1  0  0  0  0
 13  2  1  0  0  0  0
 15  4  1  0  0  0  0
 16  4  1  0  0  0  0
 17  4  1  0  0  0  0
 20  6  1  0  0  0  0
 21  7  1  0  0  0  0
 22 21  1  0  0  0  0
 22 26  1  0  0  0  0
 23 22  1  0  0  0  0
 24 23  2  0  0  0  0
 25 21  1  0  0  0  0
 27 22  1  0  0  0  0
 28 37  1  0  0  0  0
 28 23  1  0  0  0  0
 29 38  1  6  0  0  0
 29 28  1  0  0  0  0
 29 30  1  0  0  0  0
 30 31  1  0  0  0  0
 30 39  1  0  0  0  0
 31 32  2  0  0  0  0
 33 29  1  0  0  0  0
 34 33  1  0  0  0  0
 35 41  1  0  0  0  0
 35 31  1  0  0  0  0
 36 33  2  0  0  0  0
 40 30  1  0  0  0  0
M  END
$$$$
