IGE.pdb
 OpenBabel07022418403D

 44 43  0  0  1  0  0  0  0  0999 V2000
   -1.5910   -3.0810   -0.1420 C   0  0  0  0  0  0  0  0  0  0  0  0
   -0.9230   -4.3780   -0.3690 C   0  0  0  0  0  0  0  0  0  0  0  0
    0.5480   -4.4340   -0.2850 C   0  0  2  0  0  0  0  0  0  0  0  0
    1.0190   -5.8750   -0.5580 C   0  0  0  0  0  0  0  0  0  0  0  0
    1.2140   -3.9360    0.9270 C   0  0  2  0  0  0  0  0  0  0  0  0
    0.8040   -4.6150    2.1470 N   0  0  0  0  0  0  0  0  0  0  0  0
    1.3540   -2.4810    1.0790 C   0  0  0  0  0  0  0  0  0  0  0  0
    1.1270   -1.9110    2.2020 O   0  0  0  0  0  0  0  0  0  0  0  0
   -1.5590   -2.7640    0.9290 H   0  0  0  0  0  0  0  0  0  0  0  0
   -1.3070   -2.2810   -0.8470 H   0  0  0  0  0  0  0  0  0  0  0  0
   -2.6940   -3.2450   -0.3370 H   0  0  0  0  0  0  0  0  0  0  0  0
   -1.2970   -4.7970   -1.3500 H   0  0  0  0  0  0  0  0  0  0  0  0
   -1.3490   -5.1070    0.3870 H   0  0  0  0  0  0  0  0  0  0  0  0
    0.9540   -3.8580   -1.1680 H   0  0  0  0  0  0  0  0  0  0  0  0
    0.9800   -6.0620   -1.6400 H   0  0  0  0  0  0  0  0  0  0  0  0
    0.2380   -6.5280   -0.0920 H   0  0  0  0  0  0  0  0  0  0  0  0
    2.0280   -6.0540   -0.1870 H   0  0  0  0  0  0  0  0  0  0  0  0
    2.3140   -4.2920    0.8260 H   0  0  0  0  0  0  0  0  0  0  0  0
    1.5520   -4.4170    2.8550 H   0  0  0  0  0  0  0  0  0  0  0  0
    0.8120   -5.6320    1.9400 H   0  0  0  0  0  0  0  0  0  0  0  0
    1.7500   -1.6830   -0.0210 N   0  0  0  0  0  0  0  0  0  0  0  0
    1.9110   -0.2570    0.1480 C   0  0  0  0  0  0  0  0  0  0  0  0
    0.6540    0.3700    0.5950 C   0  0  0  0  0  0  0  0  0  0  0  0
   -0.3830   -0.2900    0.7930 O   0  0  0  0  0  0  0  0  0  0  0  0
    1.9360   -2.1190   -0.9810 H   0  0  0  0  0  0  0  0  0  0  0  0
    2.7250   -0.0490    0.9060 H   0  0  0  0  0  0  0  0  0  0  0  0
    2.2680    0.1840   -0.8120 H   0  0  0  0  0  0  0  0  0  0  0  0
    0.5960    1.7990    0.8180 N   0  0  0  0  0  0  0  0  0  0  0  0
   -0.6000    2.4770    1.2560 C   0  0  1  0  0  0  0  0  0  0  0  0
   -0.5100    3.0930    2.6050 C   0  0  0  0  0  0  0  0  0  0  0  0
    0.5320    4.1270    2.8090 C   0  0  0  0  0  0  0  0  0  0  0  0
    0.4210    5.3200    1.9420 C   0  0  0  0  0  0  0  0  0  0  0  0
    0.9080    5.3890    0.7850 O   0  0  0  0  0  0  0  0  0  0  0  0
   -1.1680    3.3490    0.2010 C   0  0  0  0  0  0  0  0  0  0  0  0
   -2.1780    4.0530    0.3470 O   0  0  0  0  0  0  0  0  0  0  0  0
   -0.2520    6.4560    2.3920 O   0  0  0  0  0  0  0  0  0  0  0  0
   -0.5480    3.4080   -1.0630 O   0  0  0  0  0  0  0  0  0  0  0  0
    1.5000    2.3020    0.6350 H   0  0  0  0  0  0  0  0  0  0  0  0
   -1.3720    1.6470    1.3650 H   0  0  0  0  0  0  0  0  0  0  0  0
   -1.5120    3.4900    2.8620 H   0  0  0  0  0  0  0  0  0  0  0  0
   -0.2900    2.2600    3.3270 H   0  0  0  0  0  0  0  0  0  0  0  0
    0.4190    4.4960    3.8710 H   0  0  0  0  0  0  0  0  0  0  0  0
    1.5680    3.7310    2.7740 H   0  0  0  0  0  0  0  0  0  0  0  0
   -0.6900    7.1110    1.7330 H   0  0  0  0  0  0  0  0  0  0  0  0
  1  9  1  0  0  0  0
  2  3  1  0  0  0  0
  2  1  1  0  0  0  0
  2 13  1  0  0  0  0
  3 14  1  6  0  0  0
  3  5  1  0  0  0  0
  4  3  1  0  0  0  0
  4 17  1  0  0  0  0
  4 16  1  0  0  0  0
  5 18  1  6  0  0  0
  5  7  1  0  0  0  0
  5  6  1  0  0  0  0
  6 19  1  0  0  0  0
  7  8  2  0  0  0  0
 10  1  1  0  0  0  0
 11  1  1  0  0  0  0
 12  2  1  0  0  0  0
 15  4  1  0  0  0  0
 20  6  1  0  0  0  0
 21 22  1  0  0  0  0
 21  7  1  0  0  0  0
 22 23  1  0  0  0  0
 22 26  1  0  0  0  0
 23 24  2  0  0  0  0
 23 28  1  0  0  0  0
 25 21  1  0  0  0  0
 27 22  1  0  0  0  0
 28 29  1  0  0  0  0
 29 39  1  1  0  0  0
 29 30  1  0  0  0  0
 30 31  1  0  0  0  0
 30 40  1  0  0  0  0
 30 41  1  0  0  0  0
 31 42  1  0  0  0  0
 32 36  1  0  0  0  0
 32 31  1  0  0  0  0
 33 32  2  0  0  0  0
 34 35  1  0  0  0  0
 34 29  1  0  0  0  0
 37 34  2  0  0  0  0
 38 28  1  0  0  0  0
 43 31  1  0  0  0  0
 44 36  1  0  0  0  0
M  END
$$$$
