IGF.pdb
 OpenBabel07022418403D

 48 48  0  0  1  0  0  0  0  0999 V2000
    0.1420   -6.2940    2.3580 C   0  0  0  0  0  0  0  0  0  0  0  0
    0.0160   -5.5590    1.0750 C   0  0  0  0  0  0  0  0  0  0  0  0
    1.2700   -5.0360    0.4760 C   0  0  2  0  0  0  0  0  0  0  0  0
    2.1990   -6.1960    0.2080 C   0  0  0  0  0  0  0  0  0  0  0  0
    1.9120   -3.8890    1.1710 C   0  0  2  0  0  0  0  0  0  0  0  0
    2.3040   -4.1310    2.5270 N   0  0  0  0  0  0  0  0  0  0  0  0
    1.0560   -2.6790    1.0320 C   0  0  0  0  0  0  0  0  0  0  0  0
    0.6060   -2.2990   -0.0780 O   0  0  0  0  0  0  0  0  0  0  0  0
   -0.7810   -6.1390    2.9930 H   0  0  0  0  0  0  0  0  0  0  0  0
    0.1450   -7.4000    2.1750 H   0  0  0  0  0  0  0  0  0  0  0  0
    0.9820   -6.0360    2.9990 H   0  0  0  0  0  0  0  0  0  0  0  0
   -0.7640   -4.7790    1.1990 H   0  0  0  0  0  0  0  0  0  0  0  0
   -0.4280   -6.2690    0.3160 H   0  0  0  0  0  0  0  0  0  0  0  0
    0.9860   -4.6510   -0.5510 H   0  0  0  0  0  0  0  0  0  0  0  0
    2.0680   -6.8980    1.0820 H   0  0  0  0  0  0  0  0  0  0  0  0
    3.2480   -5.8860    0.0930 H   0  0  0  0  0  0  0  0  0  0  0  0
    1.7930   -6.7500   -0.6630 H   0  0  0  0  0  0  0  0  0  0  0  0
    2.8560   -3.6560    0.6020 H   0  0  0  0  0  0  0  0  0  0  0  0
    3.0350   -4.9040    2.4890 H   0  0  0  0  0  0  0  0  0  0  0  0
    2.8240   -3.3020    2.8920 H   0  0  0  0  0  0  0  0  0  0  0  0
    0.6870   -1.8670    2.1370 N   0  0  0  0  0  0  0  0  0  0  0  0
   -0.1400   -0.6840    2.0400 C   0  0  0  0  0  0  0  0  0  0  0  0
    0.5670    0.2700    1.1520 C   0  0  0  0  0  0  0  0  0  0  0  0
    1.6990   -0.0380    0.6430 O   0  0  0  0  0  0  0  0  0  0  0  0
    1.0380   -2.1450    3.0880 H   0  0  0  0  0  0  0  0  0  0  0  0
   -1.1620   -0.9120    1.6790 H   0  0  0  0  0  0  0  0  0  0  0  0
   -0.2610   -0.1830    3.0220 H   0  0  0  0  0  0  0  0  0  0  0  0
   -0.0340    1.5300    0.8770 N   0  0  0  0  0  0  0  0  0  0  0  0
    0.6050    2.4910    0.0260 C   0  0  1  0  0  0  0  0  0  0  0  0
   -0.2220    2.8250   -1.1990 C   0  0  0  0  0  0  0  0  0  0  0  0
   -1.5360    3.3900   -0.8760 C   0  0  0  0  0  0  0  0  0  0  0  0
   -2.6410    2.5600   -0.7030 C   0  0  0  0  0  0  0  0  0  0  0  0
   -3.8850    3.0660   -0.3980 C   0  0  0  0  0  0  0  0  0  0  0  0
   -4.0870    4.4170   -0.2520 C   0  0  0  0  0  0  0  0  0  0  0  0
   -3.0010    5.2610   -0.4200 C   0  0  0  0  0  0  0  0  0  0  0  0
   -1.7640    4.7430   -0.7240 C   0  0  0  0  0  0  0  0  0  0  0  0
    0.9360    3.7440    0.7790 C   0  0  0  0  0  0  0  0  0  0  0  0
    0.6570    3.8650    1.9980 O   0  0  0  0  0  0  0  0  0  0  0  0
    1.5600    4.8180    0.1620 O   0  0  0  0  0  0  0  0  0  0  0  0
   -0.9540    1.7120    1.3240 H   0  0  0  0  0  0  0  0  0  0  0  0
    1.5740    2.0970   -0.3450 H   0  0  0  0  0  0  0  0  0  0  0  0
   -0.2460    1.9660   -1.8870 H   0  0  0  0  0  0  0  0  0  0  0  0
    0.3590    3.6250   -1.7450 H   0  0  0  0  0  0  0  0  0  0  0  0
   -2.5540    1.4910   -0.8030 H   0  0  0  0  0  0  0  0  0  0  0  0
   -4.7550    2.4100   -0.2620 H   0  0  0  0  0  0  0  0  0  0  0  0
   -5.0700    4.8270   -0.0100 H   0  0  0  0  0  0  0  0  0  0  0  0
   -3.1910    6.3260   -0.2980 H   0  0  0  0  0  0  0  0  0  0  0  0
   -0.9250    5.4150   -0.8520 H   0  0  0  0  0  0  0  0  0  0  0  0
  1  9  1  0  0  0  0
  1 11  1  0  0  0  0
  2 12  1  0  0  0  0
  2  1  1  0  0  0  0
  3 14  1  6  0  0  0
  3  2  1  0  0  0  0
  3  5  1  0  0  0  0
  4  3  1  0  0  0  0
  4 15  1  0  0  0  0
  5 18  1  6  0  0  0
  5  6  1  0  0  0  0
  6 20  1  0  0  0  0
  7  5  1  0  0  0  0
  7 21  1  0  0  0  0
  8  7  2  0  0  0  0
 10  1  1  0  0  0  0
 13  2  1  0  0  0  0
 16  4  1  0  0  0  0
 17  4  1  0  0  0  0
 19  6  1  0  0  0  0
 21 25  1  0  0  0  0
 22 21  1  0  0  0  0
 22 27  1  0  0  0  0
 23 22  1  0  0  0  0
 24 23  2  0  0  0  0
 26 22  1  0  0  0  0
 28 23  1  0  0  0  0
 28 40  1  0  0  0  0
 29 41  1  6  0  0  0
 29 37  1  0  0  0  0
 29 28  1  0  0  0  0
 30 31  1  0  0  0  0
 30 29  1  0  0  0  0
 31 36  2  0  0  0  0
 31 32  1  0  0  0  0
 32 33  2  0  0  0  0
 33 45  1  0  0  0  0
 33 34  1  0  0  0  0
 34 46  1  0  0  0  0
 35 47  1  0  0  0  0
 35 34  2  0  0  0  0
 36 35  1  0  0  0  0
 37 38  1  0  0  0  0
 39 37  2  0  0  0  0
 42 30  1  0  0  0  0
 43 30  1  0  0  0  0
 44 32  1  0  0  0  0
 48 36  1  0  0  0  0
M  END
$$$$
