IGG.pdb
 OpenBabel07022418403D

 35 34  0  0  1  0  0  0  0  0999 V2000
   -2.7690   -1.7060    1.8550 C   0  0  0  0  0  0  0  0  0  0  0  0
   -1.2560   -1.7010    1.8460 C   0  0  0  0  0  0  0  0  0  0  0  0
   -0.7660   -2.6610    0.8170 C   0  0  2  0  0  0  0  0  0  0  0  0
   -1.2740   -4.0640    1.1540 C   0  0  0  0  0  0  0  0  0  0  0  0
    0.7060   -2.6700    0.6080 C   0  0  2  0  0  0  0  0  0  0  0  0
    1.4910   -2.9980    1.7440 N   0  0  0  0  0  0  0  0  0  0  0  0
    1.2000   -1.4080    0.0050 C   0  0  0  0  0  0  0  0  0  0  0  0
    2.1710   -0.7610    0.4880 O   0  0  0  0  0  0  0  0  0  0  0  0
   -3.1560   -1.9890    0.8510 H   0  0  0  0  0  0  0  0  0  0  0  0
   -3.1660   -2.4080    2.6380 H   0  0  0  0  0  0  0  0  0  0  0  0
   -3.1980   -0.7100    2.0900 H   0  0  0  0  0  0  0  0  0  0  0  0
   -0.9170   -0.6770    1.7300 H   0  0  0  0  0  0  0  0  0  0  0  0
   -0.9280   -2.0710    2.8570 H   0  0  0  0  0  0  0  0  0  0  0  0
   -1.2560   -2.4040   -0.1460 H   0  0  0  0  0  0  0  0  0  0  0  0
   -2.3830   -4.0150    0.9830 H   0  0  0  0  0  0  0  0  0  0  0  0
   -0.8820   -4.7590    0.3800 H   0  0  0  0  0  0  0  0  0  0  0  0
   -1.0210   -4.3560    2.1770 H   0  0  0  0  0  0  0  0  0  0  0  0
    0.9100   -3.4660   -0.1700 H   0  0  0  0  0  0  0  0  0  0  0  0
    2.2890   -3.6320    1.5660 H   0  0  0  0  0  0  0  0  0  0  0  0
    1.6720   -2.2440    2.4130 H   0  0  0  0  0  0  0  0  0  0  0  0
    0.5850   -0.8750   -1.1580 N   0  0  0  0  0  0  0  0  0  0  0  0
    1.0210    0.3480   -1.7930 C   0  0  0  0  0  0  0  0  0  0  0  0
    0.8960    1.4530   -0.8120 C   0  0  0  0  0  0  0  0  0  0  0  0
    0.4700    1.2470    0.3520 O   0  0  0  0  0  0  0  0  0  0  0  0
   -0.2140   -1.3920   -1.5680 H   0  0  0  0  0  0  0  0  0  0  0  0
    0.3800    0.5670   -2.6700 H   0  0  0  0  0  0  0  0  0  0  0  0
    2.0520    0.2640   -2.1980 H   0  0  0  0  0  0  0  0  0  0  0  0
    1.2500    2.7900   -1.1440 N   0  0  0  0  0  0  0  0  0  0  0  0
    1.1310    3.8780   -0.1900 C   0  0  0  0  0  0  0  0  0  0  0  0
    1.9810    3.5800    0.9770 C   0  0  0  0  0  0  0  0  0  0  0  0
    2.0320    4.3860    1.9280 O   0  0  0  0  0  0  0  0  0  0  0  0
    2.7250    2.4230    1.0400 O   0  0  0  0  0  0  0  0  0  0  0  0
    1.6060    2.9410   -2.1280 H   0  0  0  0  0  0  0  0  0  0  0  0
    0.0740    3.9510    0.1570 H   0  0  0  0  0  0  0  0  0  0  0  0
    1.4060    4.8290   -0.6780 H   0  0  0  0  0  0  0  0  0  0  0  0
  1 11  1  0  0  0  0
  1 10  1  0  0  0  0
  2  1  1  0  0  0  0
  2 13  1  0  0  0  0
  3 14  1  6  0  0  0
  3  4  1  0  0  0  0
  3  2  1  0  0  0  0
  4 17  1  0  0  0  0
  5 18  1  6  0  0  0
  5  3  1  0  0  0  0
  5  6  1  0  0  0  0
  6 20  1  0  0  0  0
  7  8  2  0  0  0  0
  7  5  1  0  0  0  0
  9  1  1  0  0  0  0
 12  2  1  0  0  0  0
 15  4  1  0  0  0  0
 16  4  1  0  0  0  0
 19  6  1  0  0  0  0
 21  7  1  0  0  0  0
 22 21  1  0  0  0  0
 22 23  1  0  0  0  0
 23 24  2  0  0  0  0
 25 21  1  0  0  0  0
 26 22  1  0  0  0  0
 27 22  1  0  0  0  0
 28 23  1  0  0  0  0
 28 29  1  0  0  0  0
 29 34  1  0  0  0  0
 29 30  1  0  0  0  0
 30 32  2  0  0  0  0
 30 31  1  0  0  0  0
 33 28  1  0  0  0  0
 35 29  1  0  0  0  0
M  END
$$$$
