IGK.pdb
 OpenBabel07022418403D

 49 48  0  0  1  0  0  0  0  0999 V2000
    2.0260   -7.0660   -0.9110 C   0  0  0  0  0  0  0  0  0  0  0  0
    0.9980   -5.9950   -0.9850 C   0  0  0  0  0  0  0  0  0  0  0  0
    1.5500   -4.6270   -0.5700 C   0  0  2  0  0  0  0  0  0  0  0  0
    2.0570   -4.6350    0.8240 C   0  0  0  0  0  0  0  0  0  0  0  0
    0.5260   -3.5560   -0.8820 C   0  0  2  0  0  0  0  0  0  0  0  0
    0.2520   -3.5730   -2.3420 N   0  0  0  0  0  0  0  0  0  0  0  0
    0.9290   -2.1960   -0.4800 C   0  0  0  0  0  0  0  0  0  0  0  0
    1.1780   -1.3330   -1.3620 O   0  0  0  0  0  0  0  0  0  0  0  0
    1.9270   -7.6810    0.0320 H   0  0  0  0  0  0  0  0  0  0  0  0
    3.0710   -6.7150   -1.0480 H   0  0  0  0  0  0  0  0  0  0  0  0
    1.8430   -7.7860   -1.7350 H   0  0  0  0  0  0  0  0  0  0  0  0
    0.1680   -6.2190   -0.3060 H   0  0  0  0  0  0  0  0  0  0  0  0
    0.5780   -5.9540   -2.0070 H   0  0  0  0  0  0  0  0  0  0  0  0
    2.4070   -4.4420   -1.2530 H   0  0  0  0  0  0  0  0  0  0  0  0
    2.7350   -5.5220    1.0250 H   0  0  0  0  0  0  0  0  0  0  0  0
    2.7050   -3.7660    1.0590 H   0  0  0  0  0  0  0  0  0  0  0  0
    1.3000   -4.7110    1.6070 H   0  0  0  0  0  0  0  0  0  0  0  0
   -0.4310   -3.8700   -0.4290 H   0  0  0  0  0  0  0  0  0  0  0  0
   -0.1520   -2.6520   -2.6160 H   0  0  0  0  0  0  0  0  0  0  0  0
    1.1320   -3.7540   -2.8680 H   0  0  0  0  0  0  0  0  0  0  0  0
    1.0670   -1.7520    0.8610 N   0  0  0  0  0  0  0  0  0  0  0  0
    1.4730   -0.3890    1.1640 C   0  0  0  0  0  0  0  0  0  0  0  0
    0.5310    0.6050    0.6200 C   0  0  0  0  0  0  0  0  0  0  0  0
   -0.4800    0.2190   -0.0130 O   0  0  0  0  0  0  0  0  0  0  0  0
    0.8710   -2.3890    1.6630 H   0  0  0  0  0  0  0  0  0  0  0  0
    2.4710   -0.1880    0.6800 H   0  0  0  0  0  0  0  0  0  0  0  0
    1.6570   -0.2650    2.2480 H   0  0  0  0  0  0  0  0  0  0  0  0
    0.7300    1.9990    0.7870 N   0  0  0  0  0  0  0  0  0  0  0  0
   -0.1440    3.0240    0.2870 C   0  0  1  0  0  0  0  0  0  0  0  0
   -0.5460    4.0400    1.2840 C   0  0  0  0  0  0  0  0  0  0  0  0
   -1.2750    3.5740    2.4830 C   0  0  0  0  0  0  0  0  0  0  0  0
   -2.5750    2.8890    2.2530 C   0  0  0  0  0  0  0  0  0  0  0  0
   -3.1120    2.5170    3.6430 C   0  0  0  0  0  0  0  0  0  0  0  0
   -4.3720    1.8460    3.5820 N   0  0  0  0  0  0  0  0  0  0  0  0
    0.6050    3.7510   -0.8000 C   0  0  0  0  0  0  0  0  0  0  0  0
    0.0890    4.7130   -1.4290 O   0  0  0  0  0  0  0  0  0  0  0  0
    1.8940    3.3850   -1.1510 O   0  0  0  0  0  0  0  0  0  0  0  0
    1.5860    2.3330    1.3230 H   0  0  0  0  0  0  0  0  0  0  0  0
   -1.0220    2.5990   -0.1990 H   0  0  0  0  0  0  0  0  0  0  0  0
    0.3150    4.6690    1.6440 H   0  0  0  0  0  0  0  0  0  0  0  0
   -1.2100    4.7780    0.7540 H   0  0  0  0  0  0  0  0  0  0  0  0
   -0.6290    2.9310    3.1470 H   0  0  0  0  0  0  0  0  0  0  0  0
   -1.4860    4.4800    3.1150 H   0  0  0  0  0  0  0  0  0  0  0  0
   -2.5500    2.0240    1.5930 H   0  0  0  0  0  0  0  0  0  0  0  0
   -3.3360    3.5980    1.8410 H   0  0  0  0  0  0  0  0  0  0  0  0
   -2.3910    1.8310    4.1620 H   0  0  0  0  0  0  0  0  0  0  0  0
   -3.1870    3.4190    4.2810 H   0  0  0  0  0  0  0  0  0  0  0  0
   -5.1050    2.3360    3.0610 H   0  0  0  0  0  0  0  0  0  0  0  0
   -4.2630    0.8640    3.2470 H   0  0  0  0  0  0  0  0  0  0  0  0
  1  9  1  0  0  0  0
  2  1  1  0  0  0  0
  2  3  1  0  0  0  0
  2 12  1  0  0  0  0
  3 14  1  6  0  0  0
  3  4  1  0  0  0  0
  4 15  1  0  0  0  0
  4 16  1  0  0  0  0
  4 17  1  0  0  0  0
  5  3  1  0  0  0  0
  5  7  1  0  0  0  0
  5 18  1  1  0  0  0
  6  5  1  0  0  0  0
  7 21  1  0  0  0  0
  8  7  2  0  0  0  0
 10  1  1  0  0  0  0
 11  1  1  0  0  0  0
 13  2  1  0  0  0  0
 19  6  1  0  0  0  0
 20  6  1  0  0  0  0
 21 22  1  0  0  0  0
 21 25  1  0  0  0  0
 22 27  1  0  0  0  0
 23 28  1  0  0  0  0
 23 22  1  0  0  0  0
 24 23  2  0  0  0  0
 26 22  1  0  0  0  0
 28 38  1  0  0  0  0
 29 39  1  6  0  0  0
 29 28  1  0  0  0  0
 29 30  1  0  0  0  0
 30 40  1  0  0  0  0
 30 31  1  0  0  0  0
 31 43  1  0  0  0  0
 31 42  1  0  0  0  0
 32 31  1  0  0  0  0
 32 33  1  0  0  0  0
 33 46  1  0  0  0  0
 33 47  1  0  0  0  0
 34 33  1  0  0  0  0
 35 29  1  0  0  0  0
 36 35  2  0  0  0  0
 37 35  1  0  0  0  0
 41 30  1  0  0  0  0
 44 32  1  0  0  0  0
 45 32  1  0  0  0  0
 48 34  1  0  0  0  0
 49 34  1  0  0  0  0
M  END
$$$$
