IGL.pdb
 OpenBabel07022418403D

 47 46  0  0  1  0  0  0  0  0999 V2000
    0.6670   -4.8930   -2.5690 C   0  0  0  0  0  0  0  0  0  0  0  0
    1.7430   -4.0860   -1.8830 C   0  0  0  0  0  0  0  0  0  0  0  0
    1.5510   -4.0180   -0.3930 C   0  0  2  0  0  0  0  0  0  0  0  0
    1.5740   -5.3870    0.2010 C   0  0  0  0  0  0  0  0  0  0  0  0
    0.2850   -3.2940   -0.0030 C   0  0  2  0  0  0  0  0  0  0  0  0
   -0.8990   -3.9040   -0.5180 N   0  0  0  0  0  0  0  0  0  0  0  0
    0.3410   -1.8510   -0.3780 C   0  0  0  0  0  0  0  0  0  0  0  0
   -0.5880   -1.3670   -1.0530 O   0  0  0  0  0  0  0  0  0  0  0  0
   -0.1600   -4.1870   -2.8710 H   0  0  0  0  0  0  0  0  0  0  0  0
    1.0230   -5.3710   -3.5030 H   0  0  0  0  0  0  0  0  0  0  0  0
    0.2040   -5.6390   -1.9230 H   0  0  0  0  0  0  0  0  0  0  0  0
    1.8500   -3.0720   -2.3190 H   0  0  0  0  0  0  0  0  0  0  0  0
    2.7060   -4.6090   -2.0620 H   0  0  0  0  0  0  0  0  0  0  0  0
    2.4100   -3.4490    0.0210 H   0  0  0  0  0  0  0  0  0  0  0  0
    2.0460   -5.3310    1.2120 H   0  0  0  0  0  0  0  0  0  0  0  0
    0.5820   -5.8820    0.2210 H   0  0  0  0  0  0  0  0  0  0  0  0
    2.2540   -6.0510   -0.4030 H   0  0  0  0  0  0  0  0  0  0  0  0
    0.2280   -3.3250    1.1070 H   0  0  0  0  0  0  0  0  0  0  0  0
   -1.6770   -3.2360   -0.6990 H   0  0  0  0  0  0  0  0  0  0  0  0
   -1.1770   -4.7760   -0.0670 H   0  0  0  0  0  0  0  0  0  0  0  0
    1.4260   -1.0200    0.0180 N   0  0  0  0  0  0  0  0  0  0  0  0
    1.5490    0.3690   -0.2890 C   0  0  0  0  0  0  0  0  0  0  0  0
    0.5130    1.2400    0.2980 C   0  0  0  0  0  0  0  0  0  0  0  0
    0.5620    2.4530   -0.0030 O   0  0  0  0  0  0  0  0  0  0  0  0
    2.1700   -1.4900    0.5710 H   0  0  0  0  0  0  0  0  0  0  0  0
    2.5500    0.7360    0.0950 H   0  0  0  0  0  0  0  0  0  0  0  0
    1.5940    0.4740   -1.4040 H   0  0  0  0  0  0  0  0  0  0  0  0
   -0.1310    4.8530    2.8890 C   0  0  0  0  0  0  0  0  0  0  0  0
   -0.1830    3.3190    2.8340 C   0  0  0  0  0  0  0  0  0  0  0  0
   -0.3370    2.8620    4.2810 C   0  0  0  0  0  0  0  0  0  0  0  0
   -1.3140    2.9140    1.9810 C   0  0  0  0  0  0  0  0  0  0  0  0
   -1.5150    1.4270    1.7960 C   0  0  2  0  0  0  0  0  0  0  0  0
   -0.4680    0.7230    1.1500 N   0  0  0  0  0  0  0  0  0  0  0  0
   -2.8300    1.1900    1.2070 C   0  0  0  0  0  0  0  0  0  0  0  0
   -3.0120    0.4180    0.2030 O   0  0  0  0  0  0  0  0  0  0  0  0
   -3.9880    1.7870    1.6950 O   0  0  0  0  0  0  0  0  0  0  0  0
   -0.1450    5.2850    1.8840 H   0  0  0  0  0  0  0  0  0  0  0  0
    0.7890    5.0960    3.4700 H   0  0  0  0  0  0  0  0  0  0  0  0
   -0.9800    5.1910    3.5320 H   0  0  0  0  0  0  0  0  0  0  0  0
    0.7820    2.9700    2.5010 H   0  0  0  0  0  0  0  0  0  0  0  0
    0.1030    1.8510    4.3900 H   0  0  0  0  0  0  0  0  0  0  0  0
   -1.3520    2.9650    4.6520 H   0  0  0  0  0  0  0  0  0  0  0  0
    0.3170    3.5420    4.8780 H   0  0  0  0  0  0  0  0  0  0  0  0
   -1.3050    3.3890    0.9870 H   0  0  0  0  0  0  0  0  0  0  0  0
   -2.2820    3.2670    2.4520 H   0  0  0  0  0  0  0  0  0  0  0  0
   -1.5800    1.0830    2.9040 H   0  0  0  0  0  0  0  0  0  0  0  0
   -0.4210   -0.3200    1.3640 H   0  0  0  0  0  0  0  0  0  0  0  0
  1 11  1  0  0  0  0
  1  2  1  0  0  0  0
  2  3  1  0  0  0  0
  3  5  1  0  0  0  0
  3 14  1  1  0  0  0
  3  4  1  0  0  0  0
  4 16  1  0  0  0  0
  4 15  1  0  0  0  0
  5 18  1  1  0  0  0
  6 20  1  0  0  0  0
  6  5  1  0  0  0  0
  7  5  1  0  0  0  0
  7 21  1  0  0  0  0
  8  7  2  0  0  0  0
  9  1  1  0  0  0  0
 10  1  1  0  0  0  0
 12  2  1  0  0  0  0
 13  2  1  0  0  0  0
 17  4  1  0  0  0  0
 19  6  1  0  0  0  0
 21 25  1  0  0  0  0
 22 21  1  0  0  0  0
 22 26  1  0  0  0  0
 22 23  1  0  0  0  0
 23 33  1  0  0  0  0
 24 23  2  0  0  0  0
 27 22  1  0  0  0  0
 28 38  1  0  0  0  0
 28 39  1  0  0  0  0
 29 28  1  0  0  0  0
 29 30  1  0  0  0  0
 30 41  1  0  0  0  0
 30 42  1  0  0  0  0
 30 43  1  0  0  0  0
 31 45  1  0  0  0  0
 31 29  1  0  0  0  0
 32 31  1  0  0  0  0
 32 46  1  1  0  0  0
 33 47  1  0  0  0  0
 33 32  1  0  0  0  0
 34 36  1  0  0  0  0
 34 32  1  0  0  0  0
 35 34  2  0  0  0  0
 37 28  1  0  0  0  0
 40 29  1  0  0  0  0
 44 31  1  0  0  0  0
M  END
$$$$
