IGR.pdb
 OpenBabel07022418403D

 51 50  0  0  1  0  0  0  0  0999 V2000
   -0.2170   -5.0920   -0.3670 C   0  0  0  0  0  0  0  0  0  0  0  0
    0.4960   -3.7960   -0.6600 C   0  0  0  0  0  0  0  0  0  0  0  0
    1.8680   -3.7130   -0.1220 C   0  0  2  0  0  0  0  0  0  0  0  0
    2.7750   -4.8140   -0.6940 C   0  0  0  0  0  0  0  0  0  0  0  0
    2.0520   -3.6740    1.3400 C   0  0  2  0  0  0  0  0  0  0  0  0
    1.5440   -4.7940    2.0820 N   0  0  0  0  0  0  0  0  0  0  0  0
    1.7190   -2.3540    1.9010 C   0  0  0  0  0  0  0  0  0  0  0  0
    2.0930   -1.3580    1.2220 O   0  0  0  0  0  0  0  0  0  0  0  0
   -1.2720   -4.9520   -0.7480 H   0  0  0  0  0  0  0  0  0  0  0  0
    0.1840   -5.9360   -0.9690 H   0  0  0  0  0  0  0  0  0  0  0  0
   -0.3200   -5.3150    0.7000 H   0  0  0  0  0  0  0  0  0  0  0  0
   -0.1800   -2.9660   -0.4070 H   0  0  0  0  0  0  0  0  0  0  0  0
    0.5820   -3.7650   -1.7880 H   0  0  0  0  0  0  0  0  0  0  0  0
    2.3200   -2.7610   -0.5310 H   0  0  0  0  0  0  0  0  0  0  0  0
    2.1900   -5.7470   -0.6500 H   0  0  0  0  0  0  0  0  0  0  0  0
    3.7130   -4.8700   -0.0930 H   0  0  0  0  0  0  0  0  0  0  0  0
    3.0370   -4.6020   -1.7530 H   0  0  0  0  0  0  0  0  0  0  0  0
    3.1900   -3.7530    1.4980 H   0  0  0  0  0  0  0  0  0  0  0  0
    2.0390   -5.6460    1.7320 H   0  0  0  0  0  0  0  0  0  0  0  0
    1.8520   -4.6740    3.0730 H   0  0  0  0  0  0  0  0  0  0  0  0
    1.0380   -2.1400    3.1020 N   0  0  0  0  0  0  0  0  0  0  0  0
    0.7540   -0.8260    3.5900 C   0  0  0  0  0  0  0  0  0  0  0  0
   -0.1080    0.0150    2.7670 C   0  0  0  0  0  0  0  0  0  0  0  0
   -0.3590    1.2140    3.1540 O   0  0  0  0  0  0  0  0  0  0  0  0
    0.7290   -2.9690    3.6560 H   0  0  0  0  0  0  0  0  0  0  0  0
    1.7540   -0.2990    3.6930 H   0  0  0  0  0  0  0  0  0  0  0  0
    0.3280   -0.8380    4.6250 H   0  0  0  0  0  0  0  0  0  0  0  0
    0.7620    5.6590    0.3870 N   0  0  0  0  0  0  0  0  0  0  0  0
   -0.4900    5.0340    0.2230 C   0  0  0  0  0  0  0  0  0  0  0  0
   -1.5470    5.6050    0.6630 N   0  0  0  0  0  0  0  0  0  0  0  0
   -0.6040    3.7650   -0.4280 N   0  0  0  0  0  0  0  0  0  0  0  0
   -1.9110    3.2010   -0.6790 C   0  0  0  0  0  0  0  0  0  0  0  0
   -1.7280    1.8540   -1.3700 C   0  0  0  0  0  0  0  0  0  0  0  0
   -0.9500    0.8960   -0.5350 C   0  0  0  0  0  0  0  0  0  0  0  0
   -1.5790    0.6060    0.8050 C   0  0  2  0  0  0  0  0  0  0  0  0
   -0.7310   -0.3420    1.5460 N   0  0  0  0  0  0  0  0  0  0  0  0
   -2.9260    0.0190    0.6390 C   0  0  0  0  0  0  0  0  0  0  0  0
   -3.8220    0.6670    0.0810 O   0  0  0  0  0  0  0  0  0  0  0  0
   -3.1910   -1.2460    1.1000 O   0  0  0  0  0  0  0  0  0  0  0  0
    1.1490    5.8070    1.3300 H   0  0  0  0  0  0  0  0  0  0  0  0
    1.2940    5.9710   -0.4420 H   0  0  0  0  0  0  0  0  0  0  0  0
   -2.4740    5.1780    0.5610 H   0  0  0  0  0  0  0  0  0  0  0  0
    0.2710    3.2850   -0.7050 H   0  0  0  0  0  0  0  0  0  0  0  0
   -2.5180    3.8870   -1.2890 H   0  0  0  0  0  0  0  0  0  0  0  0
   -2.4530    3.0650    0.2790 H   0  0  0  0  0  0  0  0  0  0  0  0
   -2.7090    1.4990   -1.7120 H   0  0  0  0  0  0  0  0  0  0  0  0
   -1.1680    2.1170   -2.3180 H   0  0  0  0  0  0  0  0  0  0  0  0
   -0.8500   -0.0460   -1.1230 H   0  0  0  0  0  0  0  0  0  0  0  0
    0.0750    1.3020   -0.3420 H   0  0  0  0  0  0  0  0  0  0  0  0
   -1.6130    1.5650    1.3700 H   0  0  0  0  0  0  0  0  0  0  0  0
   -0.5970   -1.2840    1.1730 H   0  0  0  0  0  0  0  0  0  0  0  0
  1 11  1  0  0  0  0
  2 12  1  0  0  0  0
  2  1  1  0  0  0  0
  2  3  1  0  0  0  0
  3 14  1  6  0  0  0
  3  5  1  0  0  0  0
  4 15  1  0  0  0  0
  4  3  1  0  0  0  0
  4 16  1  0  0  0  0
  5 18  1  1  0  0  0
  5  7  1  0  0  0  0
  5  6  1  0  0  0  0
  6 20  1  0  0  0  0
  7 21  1  0  0  0  0
  8  7  2  0  0  0  0
  9  1  1  0  0  0  0
 10  1  1  0  0  0  0
 13  2  1  0  0  0  0
 17  4  1  0  0  0  0
 19  6  1  0  0  0  0
 21 22  1  0  0  0  0
 21 25  1  0  0  0  0
 22 26  1  0  0  0  0
 22 27  1  0  0  0  0
 23 24  2  0  0  0  0
 23 22  1  0  0  0  0
 28 40  1  0  0  0  0
 29 28  1  0  0  0  0
 29 30  2  0  0  0  0
 31 29  1  0  0  0  0
 32 31  1  0  0  0  0
 32 45  1  0  0  0  0
 33 32  1  0  0  0  0
 33 34  1  0  0  0  0
 34 49  1  0  0  0  0
 34 35  1  0  0  0  0
 35 50  1  1  0  0  0
 35 36  1  0  0  0  0
 36 23  1  0  0  0  0
 37 35  1  0  0  0  0
 37 39  1  0  0  0  0
 38 37  2  0  0  0  0
 41 28  1  0  0  0  0
 42 30  1  0  0  0  0
 43 31  1  0  0  0  0
 44 32  1  0  0  0  0
 46 33  1  0  0  0  0
 47 33  1  0  0  0  0
 48 34  1  0  0  0  0
 51 36  1  0  0  0  0
M  END
$$$$
