IGW.pdb
 OpenBabel07022418403D

 52 53  0  0  1  0  0  0  0  0999 V2000
    3.5710   -3.8990    3.1870 C   0  0  0  0  0  0  0  0  0  0  0  0
    3.4190   -3.8910    1.7070 C   0  0  0  0  0  0  0  0  0  0  0  0
    2.4760   -2.7980    1.2680 C   0  0  2  0  0  0  0  0  0  0  0  0
    2.3880   -2.8900   -0.2430 C   0  0  0  0  0  0  0  0  0  0  0  0
    2.9550   -1.4790    1.7450 C   0  0  2  0  0  0  0  0  0  0  0  0
    3.0170   -1.4610    3.1780 N   0  0  0  0  0  0  0  0  0  0  0  0
    2.2430   -0.2950    1.1910 C   0  0  0  0  0  0  0  0  0  0  0  0
    1.9630   -0.1290    0.0000 O   0  0  0  0  0  0  0  0  0  0  0  0
    3.8930   -4.9280    3.5460 H   0  0  0  0  0  0  0  0  0  0  0  0
    4.4170   -3.2430    3.5110 H   0  0  0  0  0  0  0  0  0  0  0  0
    2.6630   -3.6920    3.7530 H   0  0  0  0  0  0  0  0  0  0  0  0
    3.0090   -4.8980    1.4030 H   0  0  0  0  0  0  0  0  0  0  0  0
    4.3960   -3.7750    1.1740 H   0  0  0  0  0  0  0  0  0  0  0  0
    1.4510   -3.0290    1.6580 H   0  0  0  0  0  0  0  0  0  0  0  0
    2.5060   -3.9620   -0.5090 H   0  0  0  0  0  0  0  0  0  0  0  0
    3.1910   -2.3470   -0.7530 H   0  0  0  0  0  0  0  0  0  0  0  0
    1.3660   -2.6110   -0.5680 H   0  0  0  0  0  0  0  0  0  0  0  0
    4.0450   -1.3600    1.4190 H   0  0  0  0  0  0  0  0  0  0  0  0
    2.0690   -1.3850    3.5700 H   0  0  0  0  0  0  0  0  0  0  0  0
    3.6200   -0.6880    3.5050 H   0  0  0  0  0  0  0  0  0  0  0  0
    1.8700    0.7130    2.1210 N   0  0  0  0  0  0  0  0  0  0  0  0
    1.1960    1.9380    1.8130 C   0  0  0  0  0  0  0  0  0  0  0  0
   -0.1460    1.6050    1.1960 C   0  0  0  0  0  0  0  0  0  0  0  0
   -0.4530    0.4230    1.0090 O   0  0  0  0  0  0  0  0  0  0  0  0
    2.1020    0.5730    3.1690 H   0  0  0  0  0  0  0  0  0  0  0  0
    1.7740    2.5710    1.0940 H   0  0  0  0  0  0  0  0  0  0  0  0
    0.9860    2.5380    2.7200 H   0  0  0  0  0  0  0  0  0  0  0  0
   -1.0330    2.6260    0.8380 N   0  0  0  0  0  0  0  0  0  0  0  0
   -2.2990    2.6630    0.2400 C   0  0  1  0  0  0  0  0  0  0  0  0
   -3.0980    1.4190    0.0810 C   0  0  0  0  0  0  0  0  0  0  0  0
   -2.5070    0.4140   -0.8210 C   0  0  0  0  0  0  0  0  0  0  0  0
   -1.5400    0.6540   -1.8080 C   0  0  0  0  0  0  0  0  0  0  0  0
   -1.3000   -0.5220   -2.4570 N   0  0  0  0  0  0  0  0  0  0  0  0
   -2.0640   -1.5080   -1.9380 C   0  0  0  0  0  0  0  0  0  0  0  0
   -2.1950   -2.8600   -2.2490 C   0  0  0  0  0  0  0  0  0  0  0  0
   -3.0790   -3.6280   -1.5410 C   0  0  0  0  0  0  0  0  0  0  0  0
   -3.8340   -3.0710   -0.5260 C   0  0  0  0  0  0  0  0  0  0  0  0
   -3.6740   -1.7180   -0.2450 C   0  0  0  0  0  0  0  0  0  0  0  0
   -2.7990   -0.9230   -0.9350 C   0  0  0  0  0  0  0  0  0  0  0  0
   -3.1880    3.7440    0.7210 C   0  0  0  0  0  0  0  0  0  0  0  0
   -2.7870    4.4750    1.6490 O   0  0  0  0  0  0  0  0  0  0  0  0
   -4.4440    3.9610    0.1730 O   0  0  0  0  0  0  0  0  0  0  0  0
   -0.6220    3.6220    1.0970 H   0  0  0  0  0  0  0  0  0  0  0  0
   -2.0720    2.8980   -0.8900 H   0  0  0  0  0  0  0  0  0  0  0  0
   -4.1080    1.7050   -0.3220 H   0  0  0  0  0  0  0  0  0  0  0  0
   -3.3130    0.9030    1.0420 H   0  0  0  0  0  0  0  0  0  0  0  0
   -1.0680    1.5760   -2.0240 H   0  0  0  0  0  0  0  0  0  0  0  0
   -0.6220   -0.6470   -3.2420 H   0  0  0  0  0  0  0  0  0  0  0  0
   -1.6140   -3.3020   -3.0350 H   0  0  0  0  0  0  0  0  0  0  0  0
   -3.1810   -4.6900   -1.7880 H   0  0  0  0  0  0  0  0  0  0  0  0
   -4.5350   -3.6850    0.0270 H   0  0  0  0  0  0  0  0  0  0  0  0
   -4.2760   -1.2860    0.5560 H   0  0  0  0  0  0  0  0  0  0  0  0
  1 10  1  0  0  0  0
  1  9  1  0  0  0  0
  1 11  1  0  0  0  0
  2  1  1  0  0  0  0
  3 14  1  1  0  0  0
  3  2  1  0  0  0  0
  3  5  1  0  0  0  0
  4  3  1  0  0  0  0
  5 18  1  6  0  0  0
  5  6  1  0  0  0  0
  6 20  1  0  0  0  0
  6 19  1  0  0  0  0
  7  5  1  0  0  0  0
  7 21  1  0  0  0  0
  8  7  2  0  0  0  0
 12  2  1  0  0  0  0
 13  2  1  0  0  0  0
 15  4  1  0  0  0  0
 16  4  1  0  0  0  0
 17  4  1  0  0  0  0
 21 25  1  0  0  0  0
 22 21  1  0  0  0  0
 22 27  1  0  0  0  0
 23 22  1  0  0  0  0
 24 23  2  0  0  0  0
 26 22  1  0  0  0  0
 28 43  1  0  0  0  0
 28 23  1  0  0  0  0
 29 44  1  6  0  0  0
 29 40  1  0  0  0  0
 29 28  1  0  0  0  0
 30 29  1  0  0  0  0
 30 46  1  0  0  0  0
 31 30  1  0  0  0  0
 32 31  2  0  0  0  0
 33 34  1  0  0  0  0
 33 32  1  0  0  0  0
 34 39  1  0  0  0  0
 35 34  2  0  0  0  0
 35 36  1  0  0  0  0
 36 37  2  0  0  0  0
 37 38  1  0  0  0  0
 37 51  1  0  0  0  0
 38 52  1  0  0  0  0
 39 31  1  0  0  0  0
 39 38  2  0  0  0  0
 40 41  1  0  0  0  0
 42 40  2  0  0  0  0
 45 30  1  0  0  0  0
 47 32  1  0  0  0  0
 48 33  1  0  0  0  0
 49 35  1  0  0  0  0
 50 36  1  0  0  0  0
M  END
$$$$
