IGY.pdb
 OpenBabel07022418403D

 49 49  0  0  1  0  0  0  0  0999 V2000
   -3.7580   -5.1510    2.1170 C   0  0  0  0  0  0  0  0  0  0  0  0
   -2.7990   -3.9880    1.9450 C   0  0  0  0  0  0  0  0  0  0  0  0
   -1.7570   -3.9470    3.0140 C   0  0  2  0  0  0  0  0  0  0  0  0
   -2.3310   -3.8020    4.3970 C   0  0  0  0  0  0  0  0  0  0  0  0
   -0.6610   -2.9980    2.6780 C   0  0  2  0  0  0  0  0  0  0  0  0
    0.3250   -3.0150    3.7750 N   0  0  0  0  0  0  0  0  0  0  0  0
   -1.0960   -1.6090    2.4180 C   0  0  0  0  0  0  0  0  0  0  0  0
   -1.8890   -1.2770    1.5210 O   0  0  0  0  0  0  0  0  0  0  0  0
   -4.7020   -4.8960    1.5610 H   0  0  0  0  0  0  0  0  0  0  0  0
   -3.3500   -6.0770    1.6750 H   0  0  0  0  0  0  0  0  0  0  0  0
   -4.0240   -5.3390    3.1570 H   0  0  0  0  0  0  0  0  0  0  0  0
   -3.3400   -3.0170    1.9470 H   0  0  0  0  0  0  0  0  0  0  0  0
   -2.2960   -4.1240    0.9670 H   0  0  0  0  0  0  0  0  0  0  0  0
   -1.2810   -4.9780    3.0070 H   0  0  0  0  0  0  0  0  0  0  0  0
   -2.7210   -4.7860    4.7330 H   0  0  0  0  0  0  0  0  0  0  0  0
   -3.1950   -3.1060    4.4290 H   0  0  0  0  0  0  0  0  0  0  0  0
   -1.5280   -3.5210    5.1000 H   0  0  0  0  0  0  0  0  0  0  0  0
   -0.1110   -3.4080    1.8000 H   0  0  0  0  0  0  0  0  0  0  0  0
    1.2970   -2.9680    3.3920 H   0  0  0  0  0  0  0  0  0  0  0  0
    0.2780   -3.9600    4.2580 H   0  0  0  0  0  0  0  0  0  0  0  0
   -0.5790   -0.5540    3.2450 N   0  0  0  0  0  0  0  0  0  0  0  0
   -0.9190    0.8320    3.0830 C   0  0  0  0  0  0  0  0  0  0  0  0
   -0.5150    1.4200    1.7910 C   0  0  0  0  0  0  0  0  0  0  0  0
   -0.7920    2.6380    1.5040 O   0  0  0  0  0  0  0  0  0  0  0  0
    0.0790   -0.8300    4.0000 H   0  0  0  0  0  0  0  0  0  0  0  0
   -2.0080    0.9750    3.2870 H   0  0  0  0  0  0  0  0  0  0  0  0
   -0.3620    1.4100    3.8710 H   0  0  0  0  0  0  0  0  0  0  0  0
    4.4360    3.5520   -5.1460 O   0  0  0  0  0  0  0  0  0  0  0  0
    3.8480    2.9740   -4.0060 C   0  0  0  0  0  0  0  0  0  0  0  0
    3.5550    3.7640   -2.9150 C   0  0  0  0  0  0  0  0  0  0  0  0
    2.9800    3.2890   -1.7560 C   0  0  0  0  0  0  0  0  0  0  0  0
    2.6870    1.9420   -1.7030 C   0  0  0  0  0  0  0  0  0  0  0  0
    2.0810    1.3630   -0.5120 C   0  0  0  0  0  0  0  0  0  0  0  0
    0.5650    1.3710   -0.4950 C   0  0  2  0  0  0  0  0  0  0  0  0
    0.1910    0.7550    0.7640 N   0  0  0  0  0  0  0  0  0  0  0  0
   -0.0300    0.7220   -1.6590 C   0  0  0  0  0  0  0  0  0  0  0  0
   -0.7810   -0.2780   -1.5740 O   0  0  0  0  0  0  0  0  0  0  0  0
    2.9720    1.1140   -2.7960 C   0  0  0  0  0  0  0  0  0  0  0  0
    3.5500    1.6270   -3.9420 C   0  0  0  0  0  0  0  0  0  0  0  0
    0.2270    1.2090   -2.9260 O   0  0  0  0  0  0  0  0  0  0  0  0
    4.2060    3.0980   -6.0230 H   0  0  0  0  0  0  0  0  0  0  0  0
    3.7760    4.8390   -2.9230 H   0  0  0  0  0  0  0  0  0  0  0  0
    2.7540    3.9160   -0.9040 H   0  0  0  0  0  0  0  0  0  0  0  0
    2.3890    0.2780   -0.4580 H   0  0  0  0  0  0  0  0  0  0  0  0
    2.5090    1.8300    0.3870 H   0  0  0  0  0  0  0  0  0  0  0  0
    0.1900    2.4180   -0.4610 H   0  0  0  0  0  0  0  0  0  0  0  0
    0.4830   -0.2320    0.8950 H   0  0  0  0  0  0  0  0  0  0  0  0
    2.7510    0.0540   -2.7780 H   0  0  0  0  0  0  0  0  0  0  0  0
    3.7800    1.0120   -4.7980 H   0  0  0  0  0  0  0  0  0  0  0  0
  1 11  1  0  0  0  0
  2 12  1  0  0  0  0
  2  1  1  0  0  0  0
  2  3  1  0  0  0  0
  3 14  1  6  0  0  0
  3  4  1  0  0  0  0
  4 16  1  0  0  0  0
  4 15  1  0  0  0  0
  4 17  1  0  0  0  0
  5 18  1  6  0  0  0
  5  3  1  0  0  0  0
  5  6  1  0  0  0  0
  6 20  1  0  0  0  0
  7  5  1  0  0  0  0
  7 21  1  0  0  0  0
  8  7  2  0  0  0  0
  9  1  1  0  0  0  0
 10  1  1  0  0  0  0
 13  2  1  0  0  0  0
 19  6  1  0  0  0  0
 21 25  1  0  0  0  0
 22 21  1  0  0  0  0
 22 26  1  0  0  0  0
 22 27  1  0  0  0  0
 23 22  1  0  0  0  0
 24 23  2  0  0  0  0
 28 29  1  0  0  0  0
 29 39  2  0  0  0  0
 29 30  1  0  0  0  0
 30 31  2  0  0  0  0
 31 32  1  0  0  0  0
 31 43  1  0  0  0  0
 32 33  1  0  0  0  0
 33 34  1  0  0  0  0
 33 44  1  0  0  0  0
 33 45  1  0  0  0  0
 34 46  1  1  0  0  0
 34 35  1  0  0  0  0
 35 47  1  0  0  0  0
 35 23  1  0  0  0  0
 36 37  1  0  0  0  0
 36 34  1  0  0  0  0
 38 48  1  0  0  0  0
 38 32  2  0  0  0  0
 39 38  1  0  0  0  0
 40 36  2  0  0  0  0
 41 28  1  0  0  0  0
 42 30  1  0  0  0  0
 49 39  1  0  0  0  0
M  END
$$$$
