IHA.pdb
 OpenBabel07022418413D

 48 48  0  0  1  0  0  0  0  0999 V2000
    0.9000   -4.7650    0.3530 C   0  0  0  0  0  0  0  0  0  0  0  0
    1.6180   -3.7160   -0.4210 C   0  0  0  0  0  0  0  0  0  0  0  0
    2.7630   -3.0830    0.2870 C   0  0  2  0  0  0  0  0  0  0  0  0
    3.8270   -4.0790    0.6680 C   0  0  0  0  0  0  0  0  0  0  0  0
    2.3690   -2.2280    1.4530 C   0  0  2  0  0  0  0  0  0  0  0  0
    1.6620   -2.9230    2.4800 N   0  0  0  0  0  0  0  0  0  0  0  0
    1.5950   -1.0420    0.9500 C   0  0  0  0  0  0  0  0  0  0  0  0
    2.0650   -0.3150    0.0470 O   0  0  0  0  0  0  0  0  0  0  0  0
    0.1540   -5.2360   -0.3520 H   0  0  0  0  0  0  0  0  0  0  0  0
    1.5710   -5.5840    0.6490 H   0  0  0  0  0  0  0  0  0  0  0  0
    0.2910   -4.3770    1.1900 H   0  0  0  0  0  0  0  0  0  0  0  0
    0.9210   -2.9380   -0.7830 H   0  0  0  0  0  0  0  0  0  0  0  0
    2.0260   -4.2020   -1.3460 H   0  0  0  0  0  0  0  0  0  0  0  0
    3.2540   -2.3860   -0.4570 H   0  0  0  0  0  0  0  0  0  0  0  0
    3.4440   -4.9730    1.1730 H   0  0  0  0  0  0  0  0  0  0  0  0
    4.4030   -4.4350   -0.2270 H   0  0  0  0  0  0  0  0  0  0  0  0
    4.5870   -3.5590    1.3130 H   0  0  0  0  0  0  0  0  0  0  0  0
    3.3020   -1.8170    1.8940 H   0  0  0  0  0  0  0  0  0  0  0  0
    2.1000   -3.8290    2.6690 H   0  0  0  0  0  0  0  0  0  0  0  0
    1.5740   -2.2870    3.3000 H   0  0  0  0  0  0  0  0  0  0  0  0
    0.3340   -0.7460    1.4950 N   0  0  0  0  0  0  0  0  0  0  0  0
   -0.5650    0.3100    1.2120 C   0  0  1  0  0  0  0  0  0  0  0  0
   -0.0830    1.3400    0.2050 C   0  0  0  0  0  0  0  0  0  0  0  0
    1.1140    2.0730    0.7650 C   0  0  0  0  0  0  0  0  0  0  0  0
    1.8420    3.0450    0.1270 C   0  0  0  0  0  0  0  0  0  0  0  0
    2.8150    3.4400    0.9560 N   0  0  0  0  0  0  0  0  0  0  0  0
    2.7070    2.7370    2.0900 C   0  0  0  0  0  0  0  0  0  0  0  0
    1.6710    1.9030    1.9760 N   0  0  0  0  0  0  0  0  0  0  0  0
   -1.9380   -0.0700    0.9090 C   0  0  0  0  0  0  0  0  0  0  0  0
   -2.3000   -1.2890    0.8810 O   0  0  0  0  0  0  0  0  0  0  0  0
   -0.0190   -1.4320    2.2580 H   0  0  0  0  0  0  0  0  0  0  0  0
   -0.5900    0.9100    2.2220 H   0  0  0  0  0  0  0  0  0  0  0  0
    0.1470    0.8830   -0.7690 H   0  0  0  0  0  0  0  0  0  0  0  0
   -0.8420    2.1260    0.0420 H   0  0  0  0  0  0  0  0  0  0  0  0
    1.6310    3.3980   -0.8680 H   0  0  0  0  0  0  0  0  0  0  0  0
    3.5530    4.1850    0.7570 H   0  0  0  0  0  0  0  0  0  0  0  0
    3.3740    2.8490    2.9530 H   0  0  0  0  0  0  0  0  0  0  0  0
   -5.2490    1.1450    1.3460 C   0  0  0  0  0  0  0  0  0  0  0  0
   -4.3140    0.4930    0.3300 C   0  0  2  0  0  0  0  0  0  0  0  0
   -2.9570    0.8980    0.6280 N   0  0  0  0  0  0  0  0  0  0  0  0
   -4.7000    1.0210   -1.0010 C   0  0  0  0  0  0  0  0  0  0  0  0
   -3.8900    1.6950   -1.6570 O   0  0  0  0  0  0  0  0  0  0  0  0
   -5.9490    0.7910   -1.5510 O   0  0  0  0  0  0  0  0  0  0  0  0
   -5.2670    2.2300    1.1250 H   0  0  0  0  0  0  0  0  0  0  0  0
   -4.8770    0.9070    2.3600 H   0  0  0  0  0  0  0  0  0  0  0  0
   -6.2660    0.7410    1.1840 H   0  0  0  0  0  0  0  0  0  0  0  0
   -4.4080   -0.6120    0.3560 H   0  0  0  0  0  0  0  0  0  0  0  0
   -2.7640    1.9210    0.6280 H   0  0  0  0  0  0  0  0  0  0  0  0
  1 10  1  0  0  0  0
  1 11  1  0  0  0  0
  2  3  1  0  0  0  0
  2  1  1  0  0  0  0
  3 14  1  6  0  0  0
  3  4  1  0  0  0  0
  3  5  1  0  0  0  0
  4 15  1  0  0  0  0
  4 17  1  0  0  0  0
  5 18  1  1  0  0  0
  5  6  1  0  0  0  0
  6 19  1  0  0  0  0
  6 20  1  0  0  0  0
  7  5  1  0  0  0  0
  7 21  1  0  0  0  0
  8  7  2  0  0  0  0
  9  1  1  0  0  0  0
 12  2  1  0  0  0  0
 13  2  1  0  0  0  0
 16  4  1  0  0  0  0
 21 31  1  0  0  0  0
 22 21  1  0  0  0  0
 22 32  1  1  0  0  0
 23 24  1  0  0  0  0
 23 22  1  0  0  0  0
 24 28  1  0  0  0  0
 25 24  2  0  0  0  0
 25 26  1  0  0  0  0
 26 27  1  0  0  0  0
 27 37  1  0  0  0  0
 28 27  2  0  0  0  0
 29 22  1  0  0  0  0
 30 29  2  0  0  0  0
 33 23  1  0  0  0  0
 34 23  1  0  0  0  0
 35 25  1  0  0  0  0
 36 26  1  0  0  0  0
 38 45  1  0  0  0  0
 39 47  1  1  0  0  0
 39 40  1  0  0  0  0
 39 38  1  0  0  0  0
 40 29  1  0  0  0  0
 41 39  1  0  0  0  0
 42 41  2  0  0  0  0
 43 41  1  0  0  0  0
 44 38  1  0  0  0  0
 46 38  1  0  0  0  0
 48 40  1  0  0  0  0
M  END
$$$$
