IHC.pdb
 OpenBabel07022418413D

 49 49  0  0  1  0  0  0  0  0999 V2000
    2.8980   -4.6830    1.5470 C   0  0  0  0  0  0  0  0  0  0  0  0
    3.6150   -3.4240    1.1780 C   0  0  0  0  0  0  0  0  0  0  0  0
    3.2030   -2.9440   -0.1930 C   0  0  2  0  0  0  0  0  0  0  0  0
    3.9470   -1.6710   -0.5400 C   0  0  0  0  0  0  0  0  0  0  0  0
    1.7060   -2.7570   -0.3280 C   0  0  2  0  0  0  0  0  0  0  0  0
    1.4930   -2.2960   -1.7080 N   0  0  0  0  0  0  0  0  0  0  0  0
    1.1680   -1.7640    0.6380 C   0  0  0  0  0  0  0  0  0  0  0  0
    1.2670   -1.9950    1.8680 O   0  0  0  0  0  0  0  0  0  0  0  0
    2.4290   -5.1260    0.6380 H   0  0  0  0  0  0  0  0  0  0  0  0
    3.6360   -5.4490    1.9120 H   0  0  0  0  0  0  0  0  0  0  0  0
    2.1480   -4.5440    2.3750 H   0  0  0  0  0  0  0  0  0  0  0  0
    3.5090   -2.6390    1.9520 H   0  0  0  0  0  0  0  0  0  0  0  0
    4.7010   -3.6430    1.1160 H   0  0  0  0  0  0  0  0  0  0  0  0
    3.4870   -3.7250   -0.9270 H   0  0  0  0  0  0  0  0  0  0  0  0
    4.9690   -1.9130   -0.9000 H   0  0  0  0  0  0  0  0  0  0  0  0
    4.0420   -1.0090    0.3350 H   0  0  0  0  0  0  0  0  0  0  0  0
    3.4220   -1.2010   -1.3930 H   0  0  0  0  0  0  0  0  0  0  0  0
    1.2250   -3.7470   -0.2570 H   0  0  0  0  0  0  0  0  0  0  0  0
    1.9880   -2.9160   -2.3550 H   0  0  0  0  0  0  0  0  0  0  0  0
    0.4910   -2.1650   -1.8870 H   0  0  0  0  0  0  0  0  0  0  0  0
    0.5450   -0.5620    0.2610 N   0  0  0  0  0  0  0  0  0  0  0  0
    0.0270    0.3930    1.2310 C   0  0  1  0  0  0  0  0  0  0  0  0
    0.6380    1.7360    1.0860 C   0  0  0  0  0  0  0  0  0  0  0  0
    0.0900    2.6670    2.0930 C   0  0  0  0  0  0  0  0  0  0  0  0
    0.5730    2.9000    3.3860 C   0  0  0  0  0  0  0  0  0  0  0  0
   -0.1900    3.8120    3.9920 N   0  0  0  0  0  0  0  0  0  0  0  0
   -1.1510    4.1790    3.1390 C   0  0  0  0  0  0  0  0  0  0  0  0
   -0.9730    3.4890    2.0080 N   0  0  0  0  0  0  0  0  0  0  0  0
   -1.4260    0.4590    1.0280 C   0  0  0  0  0  0  0  0  0  0  0  0
   -2.1310    1.1720    1.7670 O   0  0  0  0  0  0  0  0  0  0  0  0
    0.4360   -0.3190   -0.7410 H   0  0  0  0  0  0  0  0  0  0  0  0
    0.1980    0.0480    2.2720 H   0  0  0  0  0  0  0  0  0  0  0  0
    0.4260    2.2070    0.0880 H   0  0  0  0  0  0  0  0  0  0  0  0
    1.7370    1.6710    1.2610 H   0  0  0  0  0  0  0  0  0  0  0  0
    1.4270    2.4110    3.8070 H   0  0  0  0  0  0  0  0  0  0  0  0
   -0.1080    4.2170    4.9670 H   0  0  0  0  0  0  0  0  0  0  0  0
   -1.9580    4.8980    3.2700 H   0  0  0  0  0  0  0  0  0  0  0  0
   -2.0550   -0.2790   -0.0020 N   0  0  0  0  0  0  0  0  0  0  0  0
   -3.5000   -0.2390   -0.2360 C   0  0  1  0  0  0  0  0  0  0  0  0
   -3.8050    0.3080   -1.6120 C   0  0  0  0  0  0  0  0  0  0  0  0
   -3.1270    1.9880   -1.7130 S   0  0  0  0  0  0  0  0  0  0  0  0
   -4.0820   -1.5930   -0.0560 C   0  0  0  0  0  0  0  0  0  0  0  0
   -3.4040   -2.6050    0.2520 O   0  0  0  0  0  0  0  0  0  0  0  0
   -5.4490   -1.7370   -0.2410 O   0  0  0  0  0  0  0  0  0  0  0  0
   -1.5190   -0.8920   -0.6510 H   0  0  0  0  0  0  0  0  0  0  0  0
   -3.9380    0.4440    0.5150 H   0  0  0  0  0  0  0  0  0  0  0  0
   -4.8870    0.3620   -1.7320 H   0  0  0  0  0  0  0  0  0  0  0  0
   -3.3230   -0.3040   -2.4050 H   0  0  0  0  0  0  0  0  0  0  0  0
   -3.6130    2.7970   -0.6790 H   0  0  0  0  0  0  0  0  0  0  0  0
  1 10  1  0  0  0  0
  1 11  1  0  0  0  0
  2  1  1  0  0  0  0
  2 12  1  0  0  0  0
  3 14  1  6  0  0  0
  3  2  1  0  0  0  0
  4  3  1  0  0  0  0
  4 16  1  0  0  0  0
  5 18  1  1  0  0  0
  5  3  1  0  0  0  0
  5  7  1  0  0  0  0
  6  5  1  0  0  0  0
  7  8  2  0  0  0  0
  9  1  1  0  0  0  0
 13  2  1  0  0  0  0
 15  4  1  0  0  0  0
 17  4  1  0  0  0  0
 19  6  1  0  0  0  0
 20  6  1  0  0  0  0
 21  7  1  0  0  0  0
 21 22  1  0  0  0  0
 22 32  1  1  0  0  0
 23 22  1  0  0  0  0
 23 34  1  0  0  0  0
 23 24  1  0  0  0  0
 24 25  2  0  0  0  0
 25 35  1  0  0  0  0
 25 26  1  0  0  0  0
 26 36  1  0  0  0  0
 27 37  1  0  0  0  0
 27 26  1  0  0  0  0
 28 24  1  0  0  0  0
 28 27  2  0  0  0  0
 29 22  1  0  0  0  0
 29 30  2  0  0  0  0
 31 21  1  0  0  0  0
 33 23  1  0  0  0  0
 38 29  1  0  0  0  0
 39 42  1  0  0  0  0
 39 38  1  0  0  0  0
 39 46  1  1  0  0  0
 40 39  1  0  0  0  0
 41 40  1  0  0  0  0
 41 49  1  0  0  0  0
 42 43  1  0  0  0  0
 44 42  2  0  0  0  0
 45 38  1  0  0  0  0
 47 40  1  0  0  0  0
 48 40  1  0  0  0  0
M  END
$$$$
