IHK.pdb
 OpenBabel07022418413D

 59 59  0  0  1  0  0  0  0  0999 V2000
    1.3750    3.1170    0.5520 C   0  0  0  0  0  0  0  0  0  0  0  0
    2.1710    1.8240    0.3060 C   0  0  0  0  0  0  0  0  0  0  0  0
    3.0260    1.5410    1.4990 C   0  0  2  0  0  0  0  0  0  0  0  0
    3.7980    0.2640    1.1970 C   0  0  0  0  0  0  0  0  0  0  0  0
    2.3430    1.4740    2.8200 C   0  0  2  0  0  0  0  0  0  0  0  0
    3.4380    1.2410    3.8410 N   0  0  0  0  0  0  0  0  0  0  0  0
    1.3480    0.4240    3.0210 C   0  0  0  0  0  0  0  0  0  0  0  0
    1.5810   -0.4640    3.9170 O   0  0  0  0  0  0  0  0  0  0  0  0
    0.8540    3.1090    1.5200 H   0  0  0  0  0  0  0  0  0  0  0  0
    2.1470    3.9410    0.5170 H   0  0  0  0  0  0  0  0  0  0  0  0
    0.6910    3.3200   -0.2930 H   0  0  0  0  0  0  0  0  0  0  0  0
    2.8950    2.1160   -0.5200 H   0  0  0  0  0  0  0  0  0  0  0  0
    1.5470    1.0110   -0.0500 H   0  0  0  0  0  0  0  0  0  0  0  0
    3.7760    2.3810    1.5600 H   0  0  0  0  0  0  0  0  0  0  0  0
    4.5880    0.5290    0.4640 H   0  0  0  0  0  0  0  0  0  0  0  0
    3.1250   -0.4670    0.7280 H   0  0  0  0  0  0  0  0  0  0  0  0
    4.2860   -0.1600    2.0760 H   0  0  0  0  0  0  0  0  0  0  0  0
    1.9950    2.4960    3.0890 H   0  0  0  0  0  0  0  0  0  0  0  0
    2.9370    1.2610    4.7470 H   0  0  0  0  0  0  0  0  0  0  0  0
    4.0680    2.0610    3.6980 H   0  0  0  0  0  0  0  0  0  0  0  0
    0.1420    0.2740    2.3350 N   0  0  0  0  0  0  0  0  0  0  0  0
   -0.7960   -0.8060    2.6330 C   0  0  1  0  0  0  0  0  0  0  0  0
   -2.1010   -0.2490    3.0940 C   0  0  0  0  0  0  0  0  0  0  0  0
   -3.0650   -1.3340    3.3990 C   0  0  0  0  0  0  0  0  0  0  0  0
   -4.0080   -1.8950    2.5360 C   0  0  0  0  0  0  0  0  0  0  0  0
   -4.6850   -2.8230    3.2270 N   0  0  0  0  0  0  0  0  0  0  0  0
   -4.1990   -2.8570    4.4770 C   0  0  0  0  0  0  0  0  0  0  0  0
   -3.2200   -1.9510    4.5660 N   0  0  0  0  0  0  0  0  0  0  0  0
   -0.8850   -1.8250    1.5710 C   0  0  0  0  0  0  0  0  0  0  0  0
   -1.6380   -2.8500    1.7350 O   0  0  0  0  0  0  0  0  0  0  0  0
   -0.1270    0.9400    1.5910 H   0  0  0  0  0  0  0  0  0  0  0  0
   -0.3570   -1.3610    3.5200 H   0  0  0  0  0  0  0  0  0  0  0  0
   -1.9610    0.3630    4.0010 H   0  0  0  0  0  0  0  0  0  0  0  0
   -2.5430    0.4260    2.3320 H   0  0  0  0  0  0  0  0  0  0  0  0
   -4.1170   -1.5870    1.5050 H   0  0  0  0  0  0  0  0  0  0  0  0
   -5.4540   -3.4260    2.8860 H   0  0  0  0  0  0  0  0  0  0  0  0
   -4.5670   -3.5300    5.2730 H   0  0  0  0  0  0  0  0  0  0  0  0
   -0.2030   -1.8010    0.3350 N   0  0  0  0  0  0  0  0  0  0  0  0
   -0.3580   -2.8680   -0.6620 C   0  0  1  0  0  0  0  0  0  0  0  0
   -0.9390   -2.1500   -1.8870 C   0  0  0  0  0  0  0  0  0  0  0  0
   -1.1960   -3.0400   -3.0410 C   0  0  0  0  0  0  0  0  0  0  0  0
   -1.8030   -2.3980   -4.2460 C   0  0  0  0  0  0  0  0  0  0  0  0
   -1.0110   -1.3090   -4.8770 C   0  0  0  0  0  0  0  0  0  0  0  0
   -0.7400   -0.1620   -4.0790 N   0  0  0  0  0  0  0  0  0  0  0  0
    0.9410   -3.4430   -1.0260 C   0  0  0  0  0  0  0  0  0  0  0  0
    1.9830   -2.9170   -0.4900 O   0  0  0  0  0  0  0  0  0  0  0  0
    1.1900   -4.4840   -1.8730 O   0  0  0  0  0  0  0  0  0  0  0  0
    0.4250   -1.0030    0.1360 H   0  0  0  0  0  0  0  0  0  0  0  0
   -1.0380   -3.6510   -0.3430 H   0  0  0  0  0  0  0  0  0  0  0  0
   -0.2360   -1.3120   -2.1740 H   0  0  0  0  0  0  0  0  0  0  0  0
   -1.8920   -1.6340   -1.6160 H   0  0  0  0  0  0  0  0  0  0  0  0
   -0.2680   -3.5800   -3.3480 H   0  0  0  0  0  0  0  0  0  0  0  0
   -1.9140   -3.8520   -2.7180 H   0  0  0  0  0  0  0  0  0  0  0  0
   -1.8860   -3.2140   -5.0230 H   0  0  0  0  0  0  0  0  0  0  0  0
   -2.8500   -2.0670   -4.0330 H   0  0  0  0  0  0  0  0  0  0  0  0
   -0.0370   -1.7460   -5.1980 H   0  0  0  0  0  0  0  0  0  0  0  0
   -1.5940   -0.9550   -5.7690 H   0  0  0  0  0  0  0  0  0  0  0  0
    0.2690    0.0820   -4.0680 H   0  0  0  0  0  0  0  0  0  0  0  0
   -1.3380    0.6630   -4.3100 H   0  0  0  0  0  0  0  0  0  0  0  0
  1  9  1  0  0  0  0
  2  1  1  0  0  0  0
  2  3  1  0  0  0  0
  3 14  1  1  0  0  0
  3  5  1  0  0  0  0
  4  3  1  0  0  0  0
  4 17  1  0  0  0  0
  5  7  1  0  0  0  0
  5 18  1  1  0  0  0
  5  6  1  0  0  0  0
  6 19  1  0  0  0  0
  7  8  2  0  0  0  0
 10  1  1  0  0  0  0
 11  1  1  0  0  0  0
 12  2  1  0  0  0  0
 13  2  1  0  0  0  0
 15  4  1  0  0  0  0
 16  4  1  0  0  0  0
 20  6  1  0  0  0  0
 21 22  1  0  0  0  0
 21  7  1  0  0  0  0
 22 23  1  0  0  0  0
 22 32  1  1  0  0  0
 23 24  1  0  0  0  0
 23 33  1  0  0  0  0
 24 28  1  0  0  0  0
 25 26  1  0  0  0  0
 25 24  2  0  0  0  0
 26 27  1  0  0  0  0
 27 28  2  0  0  0  0
 27 37  1  0  0  0  0
 29 30  2  0  0  0  0
 29 22  1  0  0  0  0
 31 21  1  0  0  0  0
 34 23  1  0  0  0  0
 35 25  1  0  0  0  0
 36 26  1  0  0  0  0
 38 29  1  0  0  0  0
 39 49  1  1  0  0  0
 39 38  1  0  0  0  0
 40 51  1  0  0  0  0
 40 39  1  0  0  0  0
 41 53  1  0  0  0  0
 41 40  1  0  0  0  0
 42 55  1  0  0  0  0
 42 41  1  0  0  0  0
 43 42  1  0  0  0  0
 43 44  1  0  0  0  0
 44 58  1  0  0  0  0
 45 39  1  0  0  0  0
 45 46  1  0  0  0  0
 47 45  2  0  0  0  0
 48 38  1  0  0  0  0
 50 40  1  0  0  0  0
 52 41  1  0  0  0  0
 54 42  1  0  0  0  0
 56 43  1  0  0  0  0
 57 43  1  0  0  0  0
 59 44  1  0  0  0  0
M  END
$$$$
