IHL.pdb
 OpenBabel07022418413D

 57 57  0  0  1  0  0  0  0  0999 V2000
    1.5580   -4.3870    2.9380 C   0  0  0  0  0  0  0  0  0  0  0  0
    1.5670   -3.6410    1.6480 C   0  0  0  0  0  0  0  0  0  0  0  0
    2.8340   -2.9180    1.3570 C   0  0  2  0  0  0  0  0  0  0  0  0
    3.9790   -3.8850    1.2950 C   0  0  0  0  0  0  0  0  0  0  0  0
    3.1070   -1.7630    2.2820 C   0  0  2  0  0  0  0  0  0  0  0  0
    3.2140   -2.1180    3.6550 N   0  0  0  0  0  0  0  0  0  0  0  0
    2.1270   -0.6720    2.1240 C   0  0  0  0  0  0  0  0  0  0  0  0
    1.5300   -0.2040    3.1500 O   0  0  0  0  0  0  0  0  0  0  0  0
    2.5500   -4.5810    3.3610 H   0  0  0  0  0  0  0  0  0  0  0  0
    0.8820   -3.8430    3.6530 H   0  0  0  0  0  0  0  0  0  0  0  0
    1.0730   -5.3980    2.8200 H   0  0  0  0  0  0  0  0  0  0  0  0
    0.7000   -2.9280    1.5880 H   0  0  0  0  0  0  0  0  0  0  0  0
    1.3930   -4.3710    0.8300 H   0  0  0  0  0  0  0  0  0  0  0  0
    2.7330   -2.4770    0.3270 H   0  0  0  0  0  0  0  0  0  0  0  0
    4.7850   -3.6090    2.0110 H   0  0  0  0  0  0  0  0  0  0  0  0
    4.4330   -3.9620    0.2850 H   0  0  0  0  0  0  0  0  0  0  0  0
    3.6630   -4.9220    1.5780 H   0  0  0  0  0  0  0  0  0  0  0  0
    4.1040   -1.3410    1.9670 H   0  0  0  0  0  0  0  0  0  0  0  0
    3.8920   -1.4810    4.1310 H   0  0  0  0  0  0  0  0  0  0  0  0
    2.2920   -1.9590    4.1450 H   0  0  0  0  0  0  0  0  0  0  0  0
    1.7950   -0.0960    0.8800 N   0  0  0  0  0  0  0  0  0  0  0  0
    0.8060    0.9870    0.8230 C   0  0  1  0  0  0  0  0  0  0  0  0
    1.3900    2.1760    0.1220 C   0  0  0  0  0  0  0  0  0  0  0  0
    0.5270    3.3400    0.0350 C   0  0  0  0  0  0  0  0  0  0  0  0
    0.8770    4.5430   -0.5980 C   0  0  0  0  0  0  0  0  0  0  0  0
   -0.1300    5.4120   -0.5050 N   0  0  0  0  0  0  0  0  0  0  0  0
   -1.1050    4.7600    0.1800 C   0  0  0  0  0  0  0  0  0  0  0  0
   -0.6970    3.5330    0.4920 N   0  0  0  0  0  0  0  0  0  0  0  0
   -0.3630    0.4760    0.0240 C   0  0  0  0  0  0  0  0  0  0  0  0
   -1.3800    1.1760   -0.1930 O   0  0  0  0  0  0  0  0  0  0  0  0
    2.2430   -0.4240    0.0050 H   0  0  0  0  0  0  0  0  0  0  0  0
    0.4380    1.2770    1.8060 H   0  0  0  0  0  0  0  0  0  0  0  0
    1.6690    1.8690   -0.9180 H   0  0  0  0  0  0  0  0  0  0  0  0
    2.3770    2.4210    0.6020 H   0  0  0  0  0  0  0  0  0  0  0  0
    1.8230    4.7220   -1.0830 H   0  0  0  0  0  0  0  0  0  0  0  0
   -0.2300    6.3820   -0.8480 H   0  0  0  0  0  0  0  0  0  0  0  0
   -2.0600    5.1860    0.4270 H   0  0  0  0  0  0  0  0  0  0  0  0
   -4.8670   -2.3340    0.2290 C   0  0  0  0  0  0  0  0  0  0  0  0
   -3.8820   -2.0560   -0.9530 C   0  0  0  0  0  0  0  0  0  0  0  0
   -4.5520   -0.9090   -1.7320 C   0  0  0  0  0  0  0  0  0  0  0  0
   -2.5900   -1.5820   -0.3800 C   0  0  0  0  0  0  0  0  0  0  0  0
   -1.4550   -1.3310   -1.2820 C   0  0  2  0  0  0  0  0  0  0  0  0
   -0.2910   -0.8420   -0.4910 N   0  0  0  0  0  0  0  0  0  0  0  0
   -1.5980   -0.5710   -2.5020 C   0  0  0  0  0  0  0  0  0  0  0  0
   -2.3420   -0.8010   -3.4780 O   0  0  0  0  0  0  0  0  0  0  0  0
   -0.8120    0.6040   -2.6680 O   0  0  0  0  0  0  0  0  0  0  0  0
   -4.8560   -1.4510    0.8720 H   0  0  0  0  0  0  0  0  0  0  0  0
   -5.8920   -2.4510   -0.1770 H   0  0  0  0  0  0  0  0  0  0  0  0
   -4.5570   -3.2350    0.7700 H   0  0  0  0  0  0  0  0  0  0  0  0
   -3.8650   -2.9490   -1.5520 H   0  0  0  0  0  0  0  0  0  0  0  0
   -5.5830   -0.7850   -1.2470 H   0  0  0  0  0  0  0  0  0  0  0  0
   -4.0020    0.0240   -1.6370 H   0  0  0  0  0  0  0  0  0  0  0  0
   -4.7970   -1.2540   -2.7470 H   0  0  0  0  0  0  0  0  0  0  0  0
   -2.2660   -2.2900    0.4670 H   0  0  0  0  0  0  0  0  0  0  0  0
   -2.7750   -0.6290    0.2340 H   0  0  0  0  0  0  0  0  0  0  0  0
   -1.0900   -2.3700   -1.6150 H   0  0  0  0  0  0  0  0  0  0  0  0
    0.5340   -1.4440   -0.3250 H   0  0  0  0  0  0  0  0  0  0  0  0
  1  9  1  0  0  0  0
  1 10  1  0  0  0  0
  2  1  1  0  0  0  0
  3 14  1  6  0  0  0
  3  2  1  0  0  0  0
  3  5  1  0  0  0  0
  4  3  1  0  0  0  0
  4 17  1  0  0  0  0
  4 15  1  0  0  0  0
  5 18  1  6  0  0  0
  5  6  1  0  0  0  0
  6 19  1  0  0  0  0
  6 20  1  0  0  0  0
  7  5  1  0  0  0  0
  7  8  2  0  0  0  0
 11  1  1  0  0  0  0
 12  2  1  0  0  0  0
 13  2  1  0  0  0  0
 16  4  1  0  0  0  0
 21  7  1  0  0  0  0
 22 21  1  0  0  0  0
 22 32  1  1  0  0  0
 23 34  1  0  0  0  0
 23 22  1  0  0  0  0
 24 23  1  0  0  0  0
 24 28  1  0  0  0  0
 25 26  1  0  0  0  0
 25 24  2  0  0  0  0
 26 27  1  0  0  0  0
 27 37  1  0  0  0  0
 27 28  2  0  0  0  0
 29 22  1  0  0  0  0
 30 29  2  0  0  0  0
 31 21  1  0  0  0  0
 33 23  1  0  0  0  0
 35 25  1  0  0  0  0
 36 26  1  0  0  0  0
 38 49  1  0  0  0  0
 38 47  1  0  0  0  0
 39 41  1  0  0  0  0
 39 38  1  0  0  0  0
 40 52  1  0  0  0  0
 40 51  1  0  0  0  0
 40 39  1  0  0  0  0
 41 55  1  0  0  0  0
 41 54  1  0  0  0  0
 42 56  1  6  0  0  0
 42 43  1  0  0  0  0
 42 41  1  0  0  0  0
 43 57  1  0  0  0  0
 43 29  1  0  0  0  0
 44 42  1  0  0  0  0
 45 44  2  0  0  0  0
 46 44  1  0  0  0  0
 48 38  1  0  0  0  0
 50 39  1  0  0  0  0
 53 40  1  0  0  0  0
M  END
$$$$
