IHM.pdb
 OpenBabel07022418413D

 55 55  0  0  1  0  0  0  0  0999 V2000
    0.9300   -4.1380    3.5940 C   0  0  0  0  0  0  0  0  0  0  0  0
    1.3020   -2.6960    3.8070 C   0  0  0  0  0  0  0  0  0  0  0  0
    2.7250   -2.4100    3.3760 C   0  0  2  0  0  0  0  0  0  0  0  0
    3.7030   -3.2400    4.1470 C   0  0  0  0  0  0  0  0  0  0  0  0
    3.0430   -0.9260    3.5080 C   0  0  2  0  0  0  0  0  0  0  0  0
    2.8810   -0.5230    4.8920 N   0  0  0  0  0  0  0  0  0  0  0  0
    2.0500   -0.1900    2.6750 C   0  0  0  0  0  0  0  0  0  0  0  0
    1.2230    0.6300    3.1960 O   0  0  0  0  0  0  0  0  0  0  0  0
    1.5820   -4.8350    4.1710 H   0  0  0  0  0  0  0  0  0  0  0  0
   -0.0970   -4.2730    4.0140 H   0  0  0  0  0  0  0  0  0  0  0  0
    0.8880   -4.3860    2.5190 H   0  0  0  0  0  0  0  0  0  0  0  0
    0.5860   -2.0690    3.2680 H   0  0  0  0  0  0  0  0  0  0  0  0
    1.1580   -2.4840    4.8940 H   0  0  0  0  0  0  0  0  0  0  0  0
    2.8080   -2.6740    2.3060 H   0  0  0  0  0  0  0  0  0  0  0  0
    3.5520   -3.1620    5.2420 H   0  0  0  0  0  0  0  0  0  0  0  0
    3.5730   -4.3100    3.8380 H   0  0  0  0  0  0  0  0  0  0  0  0
    4.7330   -2.9720    3.8300 H   0  0  0  0  0  0  0  0  0  0  0  0
    4.0820   -0.7790    3.1560 H   0  0  0  0  0  0  0  0  0  0  0  0
    2.0890    0.1600    5.0000 H   0  0  0  0  0  0  0  0  0  0  0  0
    2.7130   -1.3270    5.5320 H   0  0  0  0  0  0  0  0  0  0  0  0
    1.9570   -0.3460    1.2710 N   0  0  0  0  0  0  0  0  0  0  0  0
    0.9420    0.4190    0.4920 C   0  0  1  0  0  0  0  0  0  0  0  0
    1.6860    1.3880   -0.4000 C   0  0  0  0  0  0  0  0  0  0  0  0
    0.8590    2.2440   -1.2530 C   0  0  0  0  0  0  0  0  0  0  0  0
    0.4320    2.0880   -2.5550 C   0  0  0  0  0  0  0  0  0  0  0  0
   -0.2840    3.1590   -2.9400 N   0  0  0  0  0  0  0  0  0  0  0  0
   -0.3210    4.0020   -1.8960 C   0  0  0  0  0  0  0  0  0  0  0  0
    0.3640    3.4550   -0.8820 N   0  0  0  0  0  0  0  0  0  0  0  0
    0.1610   -0.5810   -0.2460 C   0  0  0  0  0  0  0  0  0  0  0  0
    0.5500   -1.8060   -0.2700 O   0  0  0  0  0  0  0  0  0  0  0  0
    2.6030   -1.0000    0.7810 H   0  0  0  0  0  0  0  0  0  0  0  0
    0.3500    1.0410    1.1940 H   0  0  0  0  0  0  0  0  0  0  0  0
    2.3950    0.8230   -1.0840 H   0  0  0  0  0  0  0  0  0  0  0  0
    2.3910    1.9990    0.2440 H   0  0  0  0  0  0  0  0  0  0  0  0
    0.6280    1.2460   -3.1940 H   0  0  0  0  0  0  0  0  0  0  0  0
   -0.7380    3.3180   -3.8870 H   0  0  0  0  0  0  0  0  0  0  0  0
   -0.8270    4.9500   -1.9090 H   0  0  0  0  0  0  0  0  0  0  0  0
   -5.6370   -0.9190   -3.0870 C   0  0  0  0  0  0  0  0  0  0  0  0
   -4.4450    0.2320   -2.3280 S   0  0  0  0  0  0  0  0  0  0  0  0
   -3.8570   -0.3720   -0.7270 C   0  0  0  0  0  0  0  0  0  0  0  0
   -3.0170   -1.6060   -0.8300 C   0  0  0  0  0  0  0  0  0  0  0  0
   -1.7570   -1.3780   -1.6670 C   0  0  2  0  0  0  0  0  0  0  0  0
   -1.0400   -0.3120   -0.9620 N   0  0  0  0  0  0  0  0  0  0  0  0
   -2.0720   -1.0840   -3.0520 C   0  0  0  0  0  0  0  0  0  0  0  0
   -1.7910    0.0050   -3.5720 O   0  0  0  0  0  0  0  0  0  0  0  0
   -2.7040   -2.0370   -3.8310 O   0  0  0  0  0  0  0  0  0  0  0  0
   -6.6110   -0.7970   -2.5590 H   0  0  0  0  0  0  0  0  0  0  0  0
   -5.7490   -0.6010   -4.1490 H   0  0  0  0  0  0  0  0  0  0  0  0
   -5.3130   -1.9600   -2.9660 H   0  0  0  0  0  0  0  0  0  0  0  0
   -3.2970    0.4840   -0.2670 H   0  0  0  0  0  0  0  0  0  0  0  0
   -4.7280   -0.5240   -0.0600 H   0  0  0  0  0  0  0  0  0  0  0  0
   -2.6990   -1.8970    0.1890 H   0  0  0  0  0  0  0  0  0  0  0  0
   -3.6250   -2.4280   -1.2230 H   0  0  0  0  0  0  0  0  0  0  0  0
   -1.1550   -2.3020   -1.5490 H   0  0  0  0  0  0  0  0  0  0  0  0
   -1.3900    0.6660   -0.9500 H   0  0  0  0  0  0  0  0  0  0  0  0
  1  2  1  0  0  0  0
  1 10  1  0  0  0  0
  1  9  1  0  0  0  0
  2 13  1  0  0  0  0
  3 14  1  6  0  0  0
  3  5  1  0  0  0  0
  3  2  1  0  0  0  0
  3  4  1  0  0  0  0
  4 15  1  0  0  0  0
  5 18  1  6  0  0  0
  5  6  1  0  0  0  0
  6 19  1  0  0  0  0
  6 20  1  0  0  0  0
  7  8  2  0  0  0  0
  7  5  1  0  0  0  0
 11  1  1  0  0  0  0
 12  2  1  0  0  0  0
 16  4  1  0  0  0  0
 17  4  1  0  0  0  0
 21  7  1  0  0  0  0
 22 32  1  1  0  0  0
 22 21  1  0  0  0  0
 23 34  1  0  0  0  0
 23 22  1  0  0  0  0
 24 28  1  0  0  0  0
 24 23  1  0  0  0  0
 25 24  2  0  0  0  0
 26 25  1  0  0  0  0
 26 27  1  0  0  0  0
 27 28  2  0  0  0  0
 29 22  1  0  0  0  0
 30 29  2  0  0  0  0
 31 21  1  0  0  0  0
 33 23  1  0  0  0  0
 35 25  1  0  0  0  0
 36 26  1  0  0  0  0
 37 27  1  0  0  0  0
 38 49  1  0  0  0  0
 38 47  1  0  0  0  0
 38 39  1  0  0  0  0
 39 40  1  0  0  0  0
 40 50  1  0  0  0  0
 40 51  1  0  0  0  0
 41 40  1  0  0  0  0
 41 52  1  0  0  0  0
 42 54  1  1  0  0  0
 42 43  1  0  0  0  0
 42 41  1  0  0  0  0
 43 55  1  0  0  0  0
 43 29  1  0  0  0  0
 44 42  1  0  0  0  0
 45 44  1  0  0  0  0
 46 44  2  0  0  0  0
 48 38  1  0  0  0  0
 53 41  1  0  0  0  0
M  END
$$$$
