IHQ.pdb
 OpenBabel07022418413D

 55 55  0  0  1  0  0  0  0  0999 V2000
   -0.9120   -2.4430    2.7630 C   0  0  0  0  0  0  0  0  0  0  0  0
    0.2080   -2.5070    3.7230 C   0  0  0  0  0  0  0  0  0  0  0  0
    1.3370   -1.5770    3.5590 C   0  0  2  0  0  0  0  0  0  0  0  0
    2.3820   -1.8160    4.6580 C   0  0  0  0  0  0  0  0  0  0  0  0
    1.0400   -0.1380    3.4440 C   0  0  2  0  0  0  0  0  0  0  0  0
    0.3460    0.4400    4.5620 N   0  0  0  0  0  0  0  0  0  0  0  0
    0.4150    0.2410    2.1720 C   0  0  0  0  0  0  0  0  0  0  0  0
   -0.6310    0.9580    2.1470 O   0  0  0  0  0  0  0  0  0  0  0  0
   -1.5290   -1.5470    2.7760 H   0  0  0  0  0  0  0  0  0  0  0  0
   -1.6230   -3.2770    3.0550 H   0  0  0  0  0  0  0  0  0  0  0  0
   -0.5830   -2.7600    1.7380 H   0  0  0  0  0  0  0  0  0  0  0  0
   -0.2300   -2.3300    4.7510 H   0  0  0  0  0  0  0  0  0  0  0  0
    0.5450   -3.5790    3.7770 H   0  0  0  0  0  0  0  0  0  0  0  0
    1.8830   -1.8710    2.6110 H   0  0  0  0  0  0  0  0  0  0  0  0
    1.9210   -1.8520    5.6490 H   0  0  0  0  0  0  0  0  0  0  0  0
    3.1810   -1.0490    4.5580 H   0  0  0  0  0  0  0  0  0  0  0  0
    2.8090   -2.8190    4.4560 H   0  0  0  0  0  0  0  0  0  0  0  0
    2.0500    0.3870    3.4350 H   0  0  0  0  0  0  0  0  0  0  0  0
    0.6350    0.0900    5.4760 H   0  0  0  0  0  0  0  0  0  0  0  0
    0.2910    1.4630    4.4470 H   0  0  0  0  0  0  0  0  0  0  0  0
    0.9330   -0.1620    0.9110 N   0  0  0  0  0  0  0  0  0  0  0  0
    0.2650    0.2530   -0.2990 C   0  0  1  0  0  0  0  0  0  0  0  0
    1.1400    1.2540   -1.0700 C   0  0  0  0  0  0  0  0  0  0  0  0
    1.4100    2.4510   -0.2480 C   0  0  0  0  0  0  0  0  0  0  0  0
    0.6310    3.5870   -0.2150 C   0  0  0  0  0  0  0  0  0  0  0  0
    1.1590    4.4830    0.6360 N   0  0  0  0  0  0  0  0  0  0  0  0
    2.2690    3.9290    1.1470 C   0  0  0  0  0  0  0  0  0  0  0  0
    2.4200    2.6850    0.6030 N   0  0  0  0  0  0  0  0  0  0  0  0
   -0.0360   -0.9260   -1.1350 C   0  0  0  0  0  0  0  0  0  0  0  0
    0.3030   -2.0700   -0.7530 O   0  0  0  0  0  0  0  0  0  0  0  0
    1.7830   -0.7500    0.8350 H   0  0  0  0  0  0  0  0  0  0  0  0
   -0.6680    0.8320   -0.0810 H   0  0  0  0  0  0  0  0  0  0  0  0
    0.6740    1.4960   -2.0340 H   0  0  0  0  0  0  0  0  0  0  0  0
    2.1380    0.7770   -1.2900 H   0  0  0  0  0  0  0  0  0  0  0  0
   -0.2660    3.7140   -0.7960 H   0  0  0  0  0  0  0  0  0  0  0  0
    0.7990    5.4250    0.8700 H   0  0  0  0  0  0  0  0  0  0  0  0
    2.9350    4.3950    1.8720 H   0  0  0  0  0  0  0  0  0  0  0  0
   -3.2680   -3.5070    0.0690 N   0  0  0  0  0  0  0  0  0  0  0  0
   -2.8060   -3.3740   -1.2670 C   0  0  0  0  0  0  0  0  0  0  0  0
   -2.1140   -4.3070   -1.7260 O   0  0  0  0  0  0  0  0  0  0  0  0
   -3.1530   -2.1740   -2.0350 C   0  0  0  0  0  0  0  0  0  0  0  0
   -2.4810   -2.0510   -3.3670 C   0  0  0  0  0  0  0  0  0  0  0  0
   -0.9990   -1.9760   -3.1960 C   0  0  2  0  0  0  0  0  0  0  0  0
   -0.7070   -0.8120   -2.3810 N   0  0  0  0  0  0  0  0  0  0  0  0
   -0.2840   -1.8860   -4.5030 C   0  0  0  0  0  0  0  0  0  0  0  0
    0.4400   -0.8900   -4.7420 O   0  0  0  0  0  0  0  0  0  0  0  0
   -0.4000   -2.8750   -5.4540 O   0  0  0  0  0  0  0  0  0  0  0  0
   -3.5480   -4.4470    0.4190 H   0  0  0  0  0  0  0  0  0  0  0  0
   -3.3420   -2.6990    0.7280 H   0  0  0  0  0  0  0  0  0  0  0  0
   -4.2730   -2.0880   -2.1720 H   0  0  0  0  0  0  0  0  0  0  0  0
   -2.8900   -1.2490   -1.4590 H   0  0  0  0  0  0  0  0  0  0  0  0
   -2.7280   -2.9260   -4.0380 H   0  0  0  0  0  0  0  0  0  0  0  0
   -2.9030   -1.1360   -3.8520 H   0  0  0  0  0  0  0  0  0  0  0  0
   -0.6350   -2.8940   -2.7080 H   0  0  0  0  0  0  0  0  0  0  0  0
   -0.9990    0.1300   -2.7210 H   0  0  0  0  0  0  0  0  0  0  0  0
  1  9  1  0  0  0  0
  1 10  1  0  0  0  0
  1  2  1  0  0  0  0
  2 13  1  0  0  0  0
  2 12  1  0  0  0  0
  3 14  1  6  0  0  0
  3  2  1  0  0  0  0
  3  4  1  0  0  0  0
  4 15  1  0  0  0  0
  5 18  1  6  0  0  0
  5  3  1  0  0  0  0
  5  6  1  0  0  0  0
  6 19  1  0  0  0  0
  7  5  1  0  0  0  0
  8  7  2  0  0  0  0
 11  1  1  0  0  0  0
 16  4  1  0  0  0  0
 17  4  1  0  0  0  0
 20  6  1  0  0  0  0
 21  7  1  0  0  0  0
 22 32  1  1  0  0  0
 22 21  1  0  0  0  0
 23 22  1  0  0  0  0
 23 24  1  0  0  0  0
 24 25  2  0  0  0  0
 24 28  1  0  0  0  0
 25 26  1  0  0  0  0
 26 36  1  0  0  0  0
 26 27  1  0  0  0  0
 27 37  1  0  0  0  0
 28 27  2  0  0  0  0
 29 30  2  0  0  0  0
 29 22  1  0  0  0  0
 31 21  1  0  0  0  0
 33 23  1  0  0  0  0
 34 23  1  0  0  0  0
 35 25  1  0  0  0  0
 38 48  1  0  0  0  0
 38 49  1  0  0  0  0
 39 38  1  0  0  0  0
 40 39  2  0  0  0  0
 41 51  1  0  0  0  0
 41 39  1  0  0  0  0
 42 43  1  0  0  0  0
 42 41  1  0  0  0  0
 43 54  1  1  0  0  0
 43 44  1  0  0  0  0
 44 29  1  0  0  0  0
 45 43  1  0  0  0  0
 46 45  1  0  0  0  0
 47 45  2  0  0  0  0
 50 41  1  0  0  0  0
 52 42  1  0  0  0  0
 53 42  1  0  0  0  0
 55 44  1  0  0  0  0
M  END
$$$$
