IHR.pdb
 OpenBabel07022418413D

 61 61  0  0  1  0  0  0  0  0999 V2000
    3.2530   -3.0060    2.1950 C   0  0  0  0  0  0  0  0  0  0  0  0
    3.0080   -1.5050    2.2580 C   0  0  0  0  0  0  0  0  0  0  0  0
    3.3870   -0.8790    0.9330 C   0  0  2  0  0  0  0  0  0  0  0  0
    4.8530   -1.1590    0.6850 C   0  0  0  0  0  0  0  0  0  0  0  0
    3.1810    0.5990    0.9480 C   0  0  2  0  0  0  0  0  0  0  0  0
    4.0140    1.1540    1.9970 N   0  0  0  0  0  0  0  0  0  0  0  0
    1.8130    1.0470    1.1330 C   0  0  0  0  0  0  0  0  0  0  0  0
    1.5370    1.8030    2.1000 O   0  0  0  0  0  0  0  0  0  0  0  0
    4.3230   -3.2000    2.0570 H   0  0  0  0  0  0  0  0  0  0  0  0
    2.9140   -3.4420    3.1750 H   0  0  0  0  0  0  0  0  0  0  0  0
    2.6610   -3.4140    1.3430 H   0  0  0  0  0  0  0  0  0  0  0  0
    1.9600   -1.2700    2.4730 H   0  0  0  0  0  0  0  0  0  0  0  0
    3.6370   -1.0770    3.0920 H   0  0  0  0  0  0  0  0  0  0  0  0
    2.8200   -1.4110    0.1530 H   0  0  0  0  0  0  0  0  0  0  0  0
    4.9900   -2.0380    0.0120 H   0  0  0  0  0  0  0  0  0  0  0  0
    5.4160   -1.3840    1.6050 H   0  0  0  0  0  0  0  0  0  0  0  0
    5.3590   -0.3070    0.1880 H   0  0  0  0  0  0  0  0  0  0  0  0
    3.5610    1.0620   -0.0050 H   0  0  0  0  0  0  0  0  0  0  0  0
    4.7750    0.5340    2.2860 H   0  0  0  0  0  0  0  0  0  0  0  0
    3.4790    1.5910    2.7570 H   0  0  0  0  0  0  0  0  0  0  0  0
    0.7240    0.6940    0.2870 N   0  0  0  0  0  0  0  0  0  0  0  0
   -0.6350    1.1780    0.5250 C   0  0  1  0  0  0  0  0  0  0  0  0
   -1.1650    2.0090   -0.6080 C   0  0  0  0  0  0  0  0  0  0  0  0
   -2.5320    2.4980   -0.3190 C   0  0  0  0  0  0  0  0  0  0  0  0
   -2.9130    3.6670    0.3080 C   0  0  0  0  0  0  0  0  0  0  0  0
   -4.2520    3.7320    0.3700 N   0  0  0  0  0  0  0  0  0  0  0  0
   -4.7090    2.6130   -0.2130 C   0  0  0  0  0  0  0  0  0  0  0  0
   -3.6750    1.8760   -0.6250 N   0  0  0  0  0  0  0  0  0  0  0  0
   -1.4440   -0.0170    0.8370 C   0  0  0  0  0  0  0  0  0  0  0  0
   -2.6860    0.0410    0.9940 O   0  0  0  0  0  0  0  0  0  0  0  0
    0.9320    0.0800   -0.5040 H   0  0  0  0  0  0  0  0  0  0  0  0
   -0.6510    1.8330    1.4300 H   0  0  0  0  0  0  0  0  0  0  0  0
   -0.4810    2.8810   -0.8160 H   0  0  0  0  0  0  0  0  0  0  0  0
   -1.2480    1.4150   -1.5580 H   0  0  0  0  0  0  0  0  0  0  0  0
   -2.1660    4.3780    0.6680 H   0  0  0  0  0  0  0  0  0  0  0  0
   -4.7750    4.5230    0.7990 H   0  0  0  0  0  0  0  0  0  0  0  0
   -5.7660    2.3360   -0.3380 H   0  0  0  0  0  0  0  0  0  0  0  0
   -3.0340   -0.3630   -2.7720 N   0  0  0  0  0  0  0  0  0  0  0  0
   -2.2730   -1.3880   -2.1600 C   0  0  0  0  0  0  0  0  0  0  0  0
   -0.9900   -1.3350   -2.2000 N   0  0  0  0  0  0  0  0  0  0  0  0
   -2.8940   -2.5000   -1.5040 N   0  0  0  0  0  0  0  0  0  0  0  0
   -2.2390   -3.7770   -1.5180 C   0  0  0  0  0  0  0  0  0  0  0  0
   -1.0000   -3.9060   -0.7150 C   0  0  0  0  0  0  0  0  0  0  0  0
   -1.1490   -3.7310    0.7460 C   0  0  0  0  0  0  0  0  0  0  0  0
   -1.6420   -2.4500    1.2860 C   0  0  2  0  0  0  0  0  0  0  0  0
   -0.8460   -1.2910    0.9790 N   0  0  0  0  0  0  0  0  0  0  0  0
   -1.6100   -2.6250    2.8130 C   0  0  0  0  0  0  0  0  0  0  0  0
   -2.2560   -3.5930    3.2530 O   0  0  0  0  0  0  0  0  0  0  0  0
   -0.8970   -1.7400    3.5980 O   0  0  0  0  0  0  0  0  0  0  0  0
   -2.5600    0.3420   -3.3670 H   0  0  0  0  0  0  0  0  0  0  0  0
   -4.0610   -0.2860   -2.6470 H   0  0  0  0  0  0  0  0  0  0  0  0
   -0.5060   -0.5480   -2.6780 H   0  0  0  0  0  0  0  0  0  0  0  0
   -3.8250   -2.3060   -1.0440 H   0  0  0  0  0  0  0  0  0  0  0  0
   -2.9600   -4.5770   -1.1740 H   0  0  0  0  0  0  0  0  0  0  0  0
   -1.9680   -4.0800   -2.5820 H   0  0  0  0  0  0  0  0  0  0  0  0
   -0.6070   -4.9510   -0.9190 H   0  0  0  0  0  0  0  0  0  0  0  0
   -0.1960   -3.2640   -1.1590 H   0  0  0  0  0  0  0  0  0  0  0  0
   -0.1940   -4.0340    1.2880 H   0  0  0  0  0  0  0  0  0  0  0  0
   -1.9000   -4.5260    1.0810 H   0  0  0  0  0  0  0  0  0  0  0  0
   -2.6870   -2.2730    1.0130 H   0  0  0  0  0  0  0  0  0  0  0  0
    0.1760   -1.4010    0.8610 H   0  0  0  0  0  0  0  0  0  0  0  0
  1  2  1  0  0  0  0
  1 10  1  0  0  0  0
  2 12  1  0  0  0  0
  2 13  1  0  0  0  0
  3 14  1  6  0  0  0
  3  5  1  0  0  0  0
  3  2  1  0  0  0  0
  4  3  1  0  0  0  0
  4 16  1  0  0  0  0
  5 18  1  6  0  0  0
  5  7  1  0  0  0  0
  5  6  1  0  0  0  0
  6 19  1  0  0  0  0
  6 20  1  0  0  0  0
  7  8  2  0  0  0  0
  9  1  1  0  0  0  0
 11  1  1  0  0  0  0
 15  4  1  0  0  0  0
 17  4  1  0  0  0  0
 21 22  1  0  0  0  0
 21  7  1  0  0  0  0
 22 29  1  0  0  0  0
 22 32  1  1  0  0  0
 23 24  1  0  0  0  0
 23 22  1  0  0  0  0
 24 25  2  0  0  0  0
 25 26  1  0  0  0  0
 25 35  1  0  0  0  0
 26 36  1  0  0  0  0
 27 26  1  0  0  0  0
 28 24  1  0  0  0  0
 28 27  2  0  0  0  0
 29 46  1  0  0  0  0
 29 30  2  0  0  0  0
 31 21  1  0  0  0  0
 33 23  1  0  0  0  0
 34 23  1  0  0  0  0
 37 27  1  0  0  0  0
 38 51  1  0  0  0  0
 38 39  1  0  0  0  0
 39 41  1  0  0  0  0
 40 39  2  0  0  0  0
 41 53  1  0  0  0  0
 42 41  1  0  0  0  0
 42 54  1  0  0  0  0
 42 43  1  0  0  0  0
 43 44  1  0  0  0  0
 44 59  1  0  0  0  0
 44 45  1  0  0  0  0
 44 58  1  0  0  0  0
 45 60  1  6  0  0  0
 45 47  1  0  0  0  0
 46 45  1  0  0  0  0
 47 48  2  0  0  0  0
 47 49  1  0  0  0  0
 50 38  1  0  0  0  0
 52 40  1  0  0  0  0
 55 42  1  0  0  0  0
 56 43  1  0  0  0  0
 57 43  1  0  0  0  0
 61 46  1  0  0  0  0
M  END
$$$$
