IHS.pdb
 OpenBabel07022418413D

 49 49  0  0  1  0  0  0  0  0999 V2000
    3.9450   -4.9690    1.8460 C   0  0  0  0  0  0  0  0  0  0  0  0
    3.5800   -4.1950    0.6050 C   0  0  0  0  0  0  0  0  0  0  0  0
    2.2710   -3.4260    0.7530 C   0  0  2  0  0  0  0  0  0  0  0  0
    2.0020   -2.6960   -0.5440 C   0  0  0  0  0  0  0  0  0  0  0  0
    2.4500   -2.3650    1.8390 C   0  0  2  0  0  0  0  0  0  0  0  0
    2.8000   -3.0760    3.0840 N   0  0  0  0  0  0  0  0  0  0  0  0
    1.2420   -1.5570    2.0360 C   0  0  0  0  0  0  0  0  0  0  0  0
    0.5300   -1.8160    3.0690 O   0  0  0  0  0  0  0  0  0  0  0  0
    3.0390   -5.3160    2.3620 H   0  0  0  0  0  0  0  0  0  0  0  0
    4.4590   -5.9220    1.5140 H   0  0  0  0  0  0  0  0  0  0  0  0
    4.6570   -4.4200    2.5090 H   0  0  0  0  0  0  0  0  0  0  0  0
    4.3990   -3.4870    0.3370 H   0  0  0  0  0  0  0  0  0  0  0  0
    3.4490   -4.9220   -0.2210 H   0  0  0  0  0  0  0  0  0  0  0  0
    1.4570   -4.1180    0.9700 H   0  0  0  0  0  0  0  0  0  0  0  0
    2.2380   -3.3480   -1.4230 H   0  0  0  0  0  0  0  0  0  0  0  0
    2.7330   -1.8680   -0.6050 H   0  0  0  0  0  0  0  0  0  0  0  0
    0.9460   -2.3810   -0.5480 H   0  0  0  0  0  0  0  0  0  0  0  0
    3.2820   -1.7150    1.5330 H   0  0  0  0  0  0  0  0  0  0  0  0
    3.1130   -2.3320    3.7560 H   0  0  0  0  0  0  0  0  0  0  0  0
    1.9280   -3.4780    3.5050 H   0  0  0  0  0  0  0  0  0  0  0  0
    0.7930   -0.5230    1.1980 N   0  0  0  0  0  0  0  0  0  0  0  0
   -0.4390    0.2230    1.4900 C   0  0  1  0  0  0  0  0  0  0  0  0
   -0.1220    1.6670    1.7250 C   0  0  0  0  0  0  0  0  0  0  0  0
    0.5100    2.3510    0.6010 C   0  0  0  0  0  0  0  0  0  0  0  0
    0.8900    3.6750    0.5930 C   0  0  0  0  0  0  0  0  0  0  0  0
    1.4360    3.9400   -0.6160 N   0  0  0  0  0  0  0  0  0  0  0  0
    1.4070    2.8180   -1.3600 C   0  0  0  0  0  0  0  0  0  0  0  0
    0.8400    1.8610   -0.6030 N   0  0  0  0  0  0  0  0  0  0  0  0
   -1.4300    0.0070    0.4240 C   0  0  0  0  0  0  0  0  0  0  0  0
   -1.2380   -0.7170   -0.5930 O   0  0  0  0  0  0  0  0  0  0  0  0
    1.3310   -0.2480    0.3510 H   0  0  0  0  0  0  0  0  0  0  0  0
   -0.8510   -0.2180    2.4190 H   0  0  0  0  0  0  0  0  0  0  0  0
    0.5780    1.7420    2.5970 H   0  0  0  0  0  0  0  0  0  0  0  0
   -1.0540    2.1870    2.0800 H   0  0  0  0  0  0  0  0  0  0  0  0
    0.8000    4.4240    1.3690 H   0  0  0  0  0  0  0  0  0  0  0  0
    1.8260    4.8600   -0.9480 H   0  0  0  0  0  0  0  0  0  0  0  0
    1.7840    2.7520   -2.3770 H   0  0  0  0  0  0  0  0  0  0  0  0
   -4.7070   -1.3590    0.6670 O   0  0  0  0  0  0  0  0  0  0  0  0
   -4.9930   -0.1030    0.1280 C   0  0  0  0  0  0  0  0  0  0  0  0
   -3.7310    0.4890   -0.4830 C   0  0  2  0  0  0  0  0  0  0  0  0
   -2.7040    0.6380    0.5030 N   0  0  0  0  0  0  0  0  0  0  0  0
   -4.1120    1.7630   -1.1210 C   0  0  0  0  0  0  0  0  0  0  0  0
   -3.6050    2.8720   -0.8460 O   0  0  0  0  0  0  0  0  0  0  0  0
   -5.1000    1.7390   -2.0940 O   0  0  0  0  0  0  0  0  0  0  0  0
   -5.0010   -2.0720    0.0200 H   0  0  0  0  0  0  0  0  0  0  0  0
   -5.7850   -0.2360   -0.6240 H   0  0  0  0  0  0  0  0  0  0  0  0
   -5.3420    0.6150    0.9000 H   0  0  0  0  0  0  0  0  0  0  0  0
   -3.3430   -0.1890   -1.2820 H   0  0  0  0  0  0  0  0  0  0  0  0
   -2.9210    1.2600    1.3380 H   0  0  0  0  0  0  0  0  0  0  0  0
  1  9  1  0  0  0  0
  1 11  1  0  0  0  0
  2  3  1  0  0  0  0
  2  1  1  0  0  0  0
  3 14  1  1  0  0  0
  3  5  1  0  0  0  0
  4  3  1  0  0  0  0
  5 18  1  6  0  0  0
  5  7  1  0  0  0  0
  5  6  1  0  0  0  0
  6 20  1  0  0  0  0
  6 19  1  0  0  0  0
  7  8  2  0  0  0  0
 10  1  1  0  0  0  0
 12  2  1  0  0  0  0
 13  2  1  0  0  0  0
 15  4  1  0  0  0  0
 16  4  1  0  0  0  0
 17  4  1  0  0  0  0
 21 22  1  0  0  0  0
 21  7  1  0  0  0  0
 22 23  1  0  0  0  0
 22 32  1  1  0  0  0
 23 34  1  0  0  0  0
 23 33  1  0  0  0  0
 24 23  1  0  0  0  0
 25 24  2  0  0  0  0
 25 35  1  0  0  0  0
 26 25  1  0  0  0  0
 27 26  1  0  0  0  0
 27 28  2  0  0  0  0
 28 24  1  0  0  0  0
 29 41  1  0  0  0  0
 29 22  1  0  0  0  0
 30 29  2  0  0  0  0
 31 21  1  0  0  0  0
 36 26  1  0  0  0  0
 37 27  1  0  0  0  0
 39 38  1  0  0  0  0
 39 47  1  0  0  0  0
 40 48  1  6  0  0  0
 40 39  1  0  0  0  0
 40 41  1  0  0  0  0
 41 49  1  0  0  0  0
 42 43  1  0  0  0  0
 42 40  1  0  0  0  0
 44 42  2  0  0  0  0
 45 38  1  0  0  0  0
 46 39  1  0  0  0  0
M  END
$$$$
