IHT.pdb
 OpenBabel07022418413D

 52 52  0  0  1  0  0  0  0  0999 V2000
    1.2480   -4.1400    4.5450 C   0  0  0  0  0  0  0  0  0  0  0  0
    1.5040   -3.0950    3.4450 C   0  0  0  0  0  0  0  0  0  0  0  0
    1.2540   -1.7450    4.0440 C   0  0  2  0  0  0  0  0  0  0  0  0
   -0.1520   -1.5960    4.5360 C   0  0  0  0  0  0  0  0  0  0  0  0
    1.7570   -0.6680    3.1560 C   0  0  2  0  0  0  0  0  0  0  0  0
    1.5390    0.6620    3.6920 N   0  0  0  0  0  0  0  0  0  0  0  0
    1.2500   -0.7060    1.7610 C   0  0  0  0  0  0  0  0  0  0  0  0
    1.3910   -1.7520    1.0690 O   0  0  0  0  0  0  0  0  0  0  0  0
    1.6030   -5.0990    4.1600 H   0  0  0  0  0  0  0  0  0  0  0  0
    1.8790   -3.8630    5.4240 H   0  0  0  0  0  0  0  0  0  0  0  0
    0.1910   -4.0970    4.8080 H   0  0  0  0  0  0  0  0  0  0  0  0
    2.5220   -3.1820    3.0410 H   0  0  0  0  0  0  0  0  0  0  0  0
    0.7050   -3.2550    2.6610 H   0  0  0  0  0  0  0  0  0  0  0  0
    1.9000   -1.6990    4.9790 H   0  0  0  0  0  0  0  0  0  0  0  0
   -0.8330   -2.0810    3.8020 H   0  0  0  0  0  0  0  0  0  0  0  0
   -0.2660   -2.2090    5.4780 H   0  0  0  0  0  0  0  0  0  0  0  0
   -0.4340   -0.5810    4.8020 H   0  0  0  0  0  0  0  0  0  0  0  0
    2.8810   -0.7850    3.1120 H   0  0  0  0  0  0  0  0  0  0  0  0
    2.1610    0.8220    4.5060 H   0  0  0  0  0  0  0  0  0  0  0  0
    0.5600    0.9110    3.8390 H   0  0  0  0  0  0  0  0  0  0  0  0
    0.6050    0.4240    1.1880 N   0  0  0  0  0  0  0  0  0  0  0  0
    0.0770    0.4780   -0.1460 C   0  0  1  0  0  0  0  0  0  0  0  0
    1.0880    0.6980   -1.2210 C   0  0  0  0  0  0  0  0  0  0  0  0
    1.7620    1.9970   -0.9540 C   0  0  0  0  0  0  0  0  0  0  0  0
    1.3570    3.2290   -1.4260 C   0  0  0  0  0  0  0  0  0  0  0  0
    2.2050    4.1740   -0.9820 N   0  0  0  0  0  0  0  0  0  0  0  0
    3.1230    3.5490   -0.2480 C   0  0  0  0  0  0  0  0  0  0  0  0
    2.8660    2.2310   -0.2230 N   0  0  0  0  0  0  0  0  0  0  0  0
   -0.8090   -0.7100   -0.3990 C   0  0  0  0  0  0  0  0  0  0  0  0
   -1.0840   -1.5800    0.4560 O   0  0  0  0  0  0  0  0  0  0  0  0
    0.5330    1.2680    1.8340 H   0  0  0  0  0  0  0  0  0  0  0  0
   -0.6110    1.3920   -0.1700 H   0  0  0  0  0  0  0  0  0  0  0  0
    1.8030   -0.1250   -1.3450 H   0  0  0  0  0  0  0  0  0  0  0  0
    0.5460    0.8030   -2.1770 H   0  0  0  0  0  0  0  0  0  0  0  0
    0.4850    3.4180   -2.0610 H   0  0  0  0  0  0  0  0  0  0  0  0
    2.0960    5.1950   -1.2150 H   0  0  0  0  0  0  0  0  0  0  0  0
    3.9450    4.0850    0.2400 H   0  0  0  0  0  0  0  0  0  0  0  0
   -4.1900   -0.7290   -1.0870 C   0  0  0  0  0  0  0  0  0  0  0  0
   -3.6430   -1.4720   -2.2710 C   0  0  1  0  0  0  0  0  0  0  0  0
   -3.6040   -0.6190   -3.3710 O   0  0  0  0  0  0  0  0  0  0  0  0
   -2.2700   -2.0540   -1.9670 C   0  0  2  0  0  0  0  0  0  0  0  0
   -1.4010   -0.9030   -1.6900 N   0  0  0  0  0  0  0  0  0  0  0  0
   -1.7900   -2.7960   -3.1600 C   0  0  0  0  0  0  0  0  0  0  0  0
   -0.7830   -2.4750   -3.8270 O   0  0  0  0  0  0  0  0  0  0  0  0
   -2.5190   -3.9130   -3.5400 O   0  0  0  0  0  0  0  0  0  0  0  0
   -3.3590   -0.1170   -0.6610 H   0  0  0  0  0  0  0  0  0  0  0  0
   -4.9900   -0.0480   -1.4720 H   0  0  0  0  0  0  0  0  0  0  0  0
   -4.5620   -1.4400   -0.3340 H   0  0  0  0  0  0  0  0  0  0  0  0
   -4.3620   -2.2910   -2.5500 H   0  0  0  0  0  0  0  0  0  0  0  0
   -3.7850   -1.0780   -4.2190 H   0  0  0  0  0  0  0  0  0  0  0  0
   -2.3750   -2.6920   -1.0720 H   0  0  0  0  0  0  0  0  0  0  0  0
   -1.2050   -0.2090   -2.4380 H   0  0  0  0  0  0  0  0  0  0  0  0
  1 11  1  0  0  0  0
  1 10  1  0  0  0  0
  2  3  1  0  0  0  0
  2  1  1  0  0  0  0
  3  4  1  0  0  0  0
  3 14  1  1  0  0  0
  4 17  1  0  0  0  0
  4 16  1  0  0  0  0
  5 18  1  6  0  0  0
  5  6  1  0  0  0  0
  5  3  1  0  0  0  0
  6 20  1  0  0  0  0
  6 19  1  0  0  0  0
  7  5  1  0  0  0  0
  8  7  2  0  0  0  0
  9  1  1  0  0  0  0
 12  2  1  0  0  0  0
 13  2  1  0  0  0  0
 15  4  1  0  0  0  0
 21  7  1  0  0  0  0
 21 31  1  0  0  0  0
 22 32  1  6  0  0  0
 22 21  1  0  0  0  0
 23 24  1  0  0  0  0
 23 22  1  0  0  0  0
 24 28  1  0  0  0  0
 25 26  1  0  0  0  0
 25 24  2  0  0  0  0
 26 27  1  0  0  0  0
 27 28  2  0  0  0  0
 27 37  1  0  0  0  0
 29 22  1  0  0  0  0
 29 30  2  0  0  0  0
 33 23  1  0  0  0  0
 34 23  1  0  0  0  0
 35 25  1  0  0  0  0
 36 26  1  0  0  0  0
 38 46  1  0  0  0  0
 38 48  1  0  0  0  0
 39 49  1  6  0  0  0
 39 41  1  0  0  0  0
 39 38  1  0  0  0  0
 40 39  1  0  0  0  0
 41 42  1  0  0  0  0
 41 51  1  1  0  0  0
 42 29  1  0  0  0  0
 43 41  1  0  0  0  0
 44 43  2  0  0  0  0
 45 43  1  0  0  0  0
 47 38  1  0  0  0  0
 50 40  1  0  0  0  0
 52 42  1  0  0  0  0
M  END
$$$$
