IHW.pdb
 OpenBabel07022418413D

 62 64  0  0  1  0  0  0  0  0999 V2000
    0.9800    3.6910    2.9180 C   0  0  0  0  0  0  0  0  0  0  0  0
    0.1350    3.0750    3.9660 C   0  0  0  0  0  0  0  0  0  0  0  0
    0.1340    1.5930    4.0600 C   0  0  2  0  0  0  0  0  0  0  0  0
    1.5400    1.0860    4.3100 C   0  0  0  0  0  0  0  0  0  0  0  0
   -0.6760    0.8180    3.1100 C   0  0  2  0  0  0  0  0  0  0  0  0
   -0.4980   -0.6030    3.4310 N   0  0  0  0  0  0  0  0  0  0  0  0
   -0.5310    1.0580    1.6800 C   0  0  0  0  0  0  0  0  0  0  0  0
   -0.6680    2.1800    1.1400 O   0  0  0  0  0  0  0  0  0  0  0  0
    1.7430    4.3570    3.4270 H   0  0  0  0  0  0  0  0  0  0  0  0
    1.6170    2.9860    2.3430 H   0  0  0  0  0  0  0  0  0  0  0  0
    0.3860    4.3850    2.3050 H   0  0  0  0  0  0  0  0  0  0  0  0
   -0.9270    3.4460    3.8230 H   0  0  0  0  0  0  0  0  0  0  0  0
    0.4090    3.5340    4.9630 H   0  0  0  0  0  0  0  0  0  0  0  0
   -0.3690    1.3910    5.0890 H   0  0  0  0  0  0  0  0  0  0  0  0
    2.1960    1.4240    3.5120 H   0  0  0  0  0  0  0  0  0  0  0  0
    1.5590   -0.0080    4.4830 H   0  0  0  0  0  0  0  0  0  0  0  0
    1.8810    1.5530    5.2590 H   0  0  0  0  0  0  0  0  0  0  0  0
   -1.7640    1.0060    3.3680 H   0  0  0  0  0  0  0  0  0  0  0  0
   -0.3970   -0.7010    4.4480 H   0  0  0  0  0  0  0  0  0  0  0  0
   -1.2600   -1.1810    3.0170 H   0  0  0  0  0  0  0  0  0  0  0  0
   -0.2130   -0.0390    0.7930 N   0  0  0  0  0  0  0  0  0  0  0  0
   -0.0740    0.2050   -0.6140 C   0  0  1  0  0  0  0  0  0  0  0  0
    1.1880   -0.2980   -1.2290 C   0  0  0  0  0  0  0  0  0  0  0  0
    2.4080    0.3020   -0.6300 C   0  0  0  0  0  0  0  0  0  0  0  0
    3.7120    0.0790   -0.9380 C   0  0  0  0  0  0  0  0  0  0  0  0
    4.4580    0.8570   -0.1210 N   0  0  0  0  0  0  0  0  0  0  0  0
    3.6420    1.5600    0.6900 C   0  0  0  0  0  0  0  0  0  0  0  0
    2.3970    1.2040    0.3590 N   0  0  0  0  0  0  0  0  0  0  0  0
   -1.2310   -0.3540   -1.3830 C   0  0  0  0  0  0  0  0  0  0  0  0
   -1.2050   -0.2240   -2.6250 O   0  0  0  0  0  0  0  0  0  0  0  0
   -0.0880   -0.9990    1.1980 H   0  0  0  0  0  0  0  0  0  0  0  0
   -0.1390    1.3130   -0.8120 H   0  0  0  0  0  0  0  0  0  0  0  0
    1.1710   -0.0990   -2.3410 H   0  0  0  0  0  0  0  0  0  0  0  0
    1.2990   -1.3870   -1.1450 H   0  0  0  0  0  0  0  0  0  0  0  0
    4.0950   -0.5880   -1.6870 H   0  0  0  0  0  0  0  0  0  0  0  0
    5.4960    0.9570   -0.0600 H   0  0  0  0  0  0  0  0  0  0  0  0
    3.8910    2.2690    1.4560 H   0  0  0  0  0  0  0  0  0  0  0  0
   -2.3230   -1.0030   -0.7800 N   0  0  0  0  0  0  0  0  0  0  0  0
   -3.4430   -1.5440   -1.4980 C   0  0  1  0  0  0  0  0  0  0  0  0
   -3.5090   -3.0270   -1.3970 C   0  0  0  0  0  0  0  0  0  0  0  0
   -2.2880   -3.6420   -1.9530 C   0  0  0  0  0  0  0  0  0  0  0  0
   -2.1540   -4.1380   -3.2430 C   0  0  0  0  0  0  0  0  0  0  0  0
   -0.9200   -4.6040   -3.4550 N   0  0  0  0  0  0  0  0  0  0  0  0
   -0.2230   -4.4250   -2.3140 C   0  0  0  0  0  0  0  0  0  0  0  0
    1.0820   -4.7360   -1.9870 C   0  0  0  0  0  0  0  0  0  0  0  0
    1.5890   -4.4720   -0.7380 C   0  0  0  0  0  0  0  0  0  0  0  0
    0.7590   -3.8850    0.1880 C   0  0  0  0  0  0  0  0  0  0  0  0
   -0.5700   -3.5540   -0.1050 C   0  0  0  0  0  0  0  0  0  0  0  0
   -1.0580   -3.8270   -1.3650 C   0  0  0  0  0  0  0  0  0  0  0  0
   -4.7220   -0.9090   -1.0720 C   0  0  0  0  0  0  0  0  0  0  0  0
   -4.7560   -0.0200   -0.1940 O   0  0  0  0  0  0  0  0  0  0  0  0
   -5.8990   -1.3170   -1.6670 O   0  0  0  0  0  0  0  0  0  0  0  0
   -2.3190   -1.0860    0.2500 H   0  0  0  0  0  0  0  0  0  0  0  0
   -3.2430   -1.3150   -2.5870 H   0  0  0  0  0  0  0  0  0  0  0  0
   -4.4300   -3.3900   -1.9040 H   0  0  0  0  0  0  0  0  0  0  0  0
   -3.6430   -3.3180   -0.3240 H   0  0  0  0  0  0  0  0  0  0  0  0
   -2.9440   -4.1440   -3.9750 H   0  0  0  0  0  0  0  0  0  0  0  0
   -0.5490   -5.0280   -4.3290 H   0  0  0  0  0  0  0  0  0  0  0  0
    1.7250   -5.1980   -2.7250 H   0  0  0  0  0  0  0  0  0  0  0  0
    2.6280   -4.7270   -0.4990 H   0  0  0  0  0  0  0  0  0  0  0  0
    1.1500   -3.6710    1.1840 H   0  0  0  0  0  0  0  0  0  0  0  0
   -1.1950   -3.1070    0.6390 H   0  0  0  0  0  0  0  0  0  0  0  0
  1  9  1  0  0  0  0
  1  2  1  0  0  0  0
  2  3  1  0  0  0  0
  2 13  1  0  0  0  0
  3  4  1  0  0  0  0
  3 14  1  1  0  0  0
  4 16  1  0  0  0  0
  4 17  1  0  0  0  0
  5 18  1  1  0  0  0
  5  6  1  0  0  0  0
  5  3  1  0  0  0  0
  6 19  1  0  0  0  0
  7  5  1  0  0  0  0
  8  7  2  0  0  0  0
 10  1  1  0  0  0  0
 11  1  1  0  0  0  0
 12  2  1  0  0  0  0
 15  4  1  0  0  0  0
 20  6  1  0  0  0  0
 21 31  1  0  0  0  0
 21  7  1  0  0  0  0
 22 32  1  6  0  0  0
 22 21  1  0  0  0  0
 23 34  1  0  0  0  0
 23 24  1  0  0  0  0
 23 22  1  0  0  0  0
 24 28  1  0  0  0  0
 25 24  2  0  0  0  0
 25 26  1  0  0  0  0
 26 36  1  0  0  0  0
 26 27  1  0  0  0  0
 27 37  1  0  0  0  0
 28 27  2  0  0  0  0
 29 38  1  0  0  0  0
 29 22  1  0  0  0  0
 30 29  2  0  0  0  0
 33 23  1  0  0  0  0
 35 25  1  0  0  0  0
 38 53  1  0  0  0  0
 39 54  1  6  0  0  0
 39 40  1  0  0  0  0
 39 50  1  0  0  0  0
 39 38  1  0  0  0  0
 40 56  1  0  0  0  0
 41 40  1  0  0  0  0
 41 49  1  0  0  0  0
 42 41  2  0  0  0  0
 43 42  1  0  0  0  0
 43 44  1  0  0  0  0
 44 45  2  0  0  0  0
 44 49  1  0  0  0  0
 45 46  1  0  0  0  0
 46 60  1  0  0  0  0
 46 47  2  0  0  0  0
 47 61  1  0  0  0  0
 48 47  1  0  0  0  0
 48 62  1  0  0  0  0
 49 48  2  0  0  0  0
 50 51  1  0  0  0  0
 52 50  2  0  0  0  0
 55 40  1  0  0  0  0
 57 42  1  0  0  0  0
 58 43  1  0  0  0  0
 59 45  1  0  0  0  0
M  END
$$$$
