IIA.pdb
 OpenBabel07022418413D

 50 49  0  0  1  0  0  0  0  0999 V2000
    0.8190   -2.5550    3.9070 C   0  0  0  0  0  0  0  0  0  0  0  0
    1.8530   -2.5420    2.7950 C   0  0  0  0  0  0  0  0  0  0  0  0
    1.3740   -3.2000    1.5610 C   0  0  2  0  0  0  0  0  0  0  0  0
    2.4930   -3.1740    0.5190 C   0  0  0  0  0  0  0  0  0  0  0  0
    0.0900   -2.7230    0.9750 C   0  0  2  0  0  0  0  0  0  0  0  0
   -0.1510   -3.6060   -0.2060 N   0  0  0  0  0  0  0  0  0  0  0  0
    0.0400   -1.3270    0.4980 C   0  0  0  0  0  0  0  0  0  0  0  0
   -0.0500   -1.1710   -0.7690 O   0  0  0  0  0  0  0  0  0  0  0  0
    0.8270   -3.6040    4.3250 H   0  0  0  0  0  0  0  0  0  0  0  0
    1.1220   -1.8440    4.6800 H   0  0  0  0  0  0  0  0  0  0  0  0
   -0.2050   -2.3890    3.5730 H   0  0  0  0  0  0  0  0  0  0  0  0
    2.2230   -1.5300    2.5840 H   0  0  0  0  0  0  0  0  0  0  0  0
    2.7110   -3.1500    3.2060 H   0  0  0  0  0  0  0  0  0  0  0  0
    1.2140   -4.2910    1.7970 H   0  0  0  0  0  0  0  0  0  0  0  0
    3.2740   -2.4660    0.8500 H   0  0  0  0  0  0  0  0  0  0  0  0
    3.0250   -4.1720    0.4910 H   0  0  0  0  0  0  0  0  0  0  0  0
    2.1120   -2.9160   -0.4830 H   0  0  0  0  0  0  0  0  0  0  0  0
   -0.7300   -2.9390    1.6850 H   0  0  0  0  0  0  0  0  0  0  0  0
   -1.1850   -3.7550   -0.2850 H   0  0  0  0  0  0  0  0  0  0  0  0
    0.3510   -4.4920   -0.1100 H   0  0  0  0  0  0  0  0  0  0  0  0
    2.8490    0.1630   -0.2990 C   0  0  0  0  0  0  0  0  0  0  0  0
    2.0670    1.4080   -0.6450 C   0  0  0  0  0  0  0  0  0  0  0  0
    1.1940    1.9050    0.4370 C   0  0  2  0  0  0  0  0  0  0  0  0
    1.9910    2.2350    1.7120 C   0  0  0  0  0  0  0  0  0  0  0  0
   -0.0120    1.1830    0.8210 C   0  0  2  0  0  0  0  0  0  0  0  0
    0.0750   -0.1670    1.3040 N   0  0  0  0  0  0  0  0  0  0  0  0
   -1.2000    1.4250   -0.0600 C   0  0  0  0  0  0  0  0  0  0  0  0
   -1.2160    2.4980   -0.7100 O   0  0  0  0  0  0  0  0  0  0  0  0
    3.9520    0.3310   -0.3840 H   0  0  0  0  0  0  0  0  0  0  0  0
    2.6230   -0.6520   -0.9940 H   0  0  0  0  0  0  0  0  0  0  0  0
    2.6830   -0.1740    0.7230 H   0  0  0  0  0  0  0  0  0  0  0  0
    1.5410    1.3000   -1.6260 H   0  0  0  0  0  0  0  0  0  0  0  0
    2.8340    2.2100   -0.8680 H   0  0  0  0  0  0  0  0  0  0  0  0
    0.8490    2.9600    0.1010 H   0  0  0  0  0  0  0  0  0  0  0  0
    2.3460    1.2840    2.1870 H   0  0  0  0  0  0  0  0  0  0  0  0
    2.7850    2.9540    1.5160 H   0  0  0  0  0  0  0  0  0  0  0  0
    1.2270    2.6440    2.4270 H   0  0  0  0  0  0  0  0  0  0  0  0
   -0.3730    1.7590    1.7800 H   0  0  0  0  0  0  0  0  0  0  0  0
    0.1690   -0.3720    2.3470 H   0  0  0  0  0  0  0  0  0  0  0  0
   -3.4380   -0.4630   -1.9710 C   0  0  0  0  0  0  0  0  0  0  0  0
   -3.4190    0.7190   -1.0220 C   0  0  2  0  0  0  0  0  0  0  0  0
   -2.2370    0.5140   -0.1560 N   0  0  0  0  0  0  0  0  0  0  0  0
   -4.6650    0.5960   -0.1870 C   0  0  0  0  0  0  0  0  0  0  0  0
   -5.7810    0.7300   -0.7040 O   0  0  0  0  0  0  0  0  0  0  0  0
   -4.5510    0.3300    1.1680 O   0  0  0  0  0  0  0  0  0  0  0  0
   -3.8160   -1.3320   -1.3560 H   0  0  0  0  0  0  0  0  0  0  0  0
   -2.4040   -0.7440   -2.2690 H   0  0  0  0  0  0  0  0  0  0  0  0
   -4.1210   -0.3320   -2.8180 H   0  0  0  0  0  0  0  0  0  0  0  0
   -3.3680    1.6600   -1.5650 H   0  0  0  0  0  0  0  0  0  0  0  0
   -2.2350   -0.3600    0.4110 H   0  0  0  0  0  0  0  0  0  0  0  0
  1  9  1  0  0  0  0
  1 10  1  0  0  0  0
  2 13  1  0  0  0  0
  2  1  1  0  0  0  0
  3 14  1  1  0  0  0
  3  2  1  0  0  0  0
  4 15  1  0  0  0  0
  4  3  1  0  0  0  0
  5  3  1  0  0  0  0
  5 18  1  1  0  0  0
  6 20  1  0  0  0  0
  6  5  1  0  0  0  0
  7  5  1  0  0  0  0
  7 26  1  0  0  0  0
  8  7  2  0  0  0  0
 11  1  1  0  0  0  0
 12  2  1  0  0  0  0
 16  4  1  0  0  0  0
 17  4  1  0  0  0  0
 19  6  1  0  0  0  0
 21 31  1  0  0  0  0
 22 21  1  0  0  0  0
 22 23  1  0  0  0  0
 23 34  1  6  0  0  0
 23 25  1  0  0  0  0
 23 24  1  0  0  0  0
 24 35  1  0  0  0  0
 24 37  1  0  0  0  0
 25 26  1  0  0  0  0
 25 38  1  1  0  0  0
 26 39  1  0  0  0  0
 27 25  1  0  0  0  0
 28 27  2  0  0  0  0
 29 21  1  0  0  0  0
 30 21  1  0  0  0  0
 32 22  1  0  0  0  0
 33 22  1  0  0  0  0
 36 24  1  0  0  0  0
 40 46  1  0  0  0  0
 40 41  1  0  0  0  0
 41 49  1  6  0  0  0
 41 43  1  0  0  0  0
 41 42  1  0  0  0  0
 42 27  1  0  0  0  0
 42 50  1  0  0  0  0
 43 45  1  0  0  0  0
 44 43  2  0  0  0  0
 47 40  1  0  0  0  0
 48 40  1  0  0  0  0
M  END
$$$$
