IIC.pdb
 OpenBabel07022418413D

 51 50  0  0  1  0  0  0  0  0999 V2000
    0.5460   -4.8700    3.2350 C   0  0  0  0  0  0  0  0  0  0  0  0
   -0.0920   -3.7940    4.0720 C   0  0  0  0  0  0  0  0  0  0  0  0
   -0.3010   -2.5080    3.2410 C   0  0  2  0  0  0  0  0  0  0  0  0
   -1.1970   -2.8730    2.0950 C   0  0  0  0  0  0  0  0  0  0  0  0
    1.1150   -2.1350    2.8070 C   0  0  2  0  0  0  0  0  0  0  0  0
    1.8150   -1.9580    4.1110 N   0  0  0  0  0  0  0  0  0  0  0  0
    1.2280   -0.8480    2.1340 C   0  0  0  0  0  0  0  0  0  0  0  0
    1.6370    0.1900    2.7770 O   0  0  0  0  0  0  0  0  0  0  0  0
    0.2790   -5.8500    3.7270 H   0  0  0  0  0  0  0  0  0  0  0  0
    0.1240   -4.8470    2.2050 H   0  0  0  0  0  0  0  0  0  0  0  0
    1.6380   -4.8320    3.2140 H   0  0  0  0  0  0  0  0  0  0  0  0
    0.6190   -3.4990    4.8700 H   0  0  0  0  0  0  0  0  0  0  0  0
   -1.0510   -4.1760    4.4480 H   0  0  0  0  0  0  0  0  0  0  0  0
   -0.7400   -1.7730    3.9140 H   0  0  0  0  0  0  0  0  0  0  0  0
   -0.6120   -3.0340    1.1920 H   0  0  0  0  0  0  0  0  0  0  0  0
   -1.9040   -2.0430    1.9310 H   0  0  0  0  0  0  0  0  0  0  0  0
   -1.7530   -3.8080    2.3450 H   0  0  0  0  0  0  0  0  0  0  0  0
    1.5400   -3.0010    2.3110 H   0  0  0  0  0  0  0  0  0  0  0  0
    2.8160   -1.7930    3.8350 H   0  0  0  0  0  0  0  0  0  0  0  0
    1.4700   -1.0190    4.4560 H   0  0  0  0  0  0  0  0  0  0  0  0
    3.3350    2.2850   -2.4750 C   0  0  0  0  0  0  0  0  0  0  0  0
    2.1730    2.2300   -1.4520 C   0  0  0  0  0  0  0  0  0  0  0  0
    2.0790    0.8290   -0.8960 C   0  0  2  0  0  0  0  0  0  0  0  0
    1.7990   -0.1020   -2.0420 C   0  0  0  0  0  0  0  0  0  0  0  0
    1.0850    0.7670    0.1900 C   0  0  2  0  0  0  0  0  0  0  0  0
    0.9390   -0.5460    0.7860 N   0  0  0  0  0  0  0  0  0  0  0  0
   -0.2510    1.1800   -0.2830 C   0  0  0  0  0  0  0  0  0  0  0  0
   -0.5110    2.3280   -0.7770 O   0  0  0  0  0  0  0  0  0  0  0  0
    3.2130    3.2290   -3.0540 H   0  0  0  0  0  0  0  0  0  0  0  0
    3.1910    1.4500   -3.1920 H   0  0  0  0  0  0  0  0  0  0  0  0
    4.2870    2.2340   -1.9410 H   0  0  0  0  0  0  0  0  0  0  0  0
    2.4320    2.9330   -0.6620 H   0  0  0  0  0  0  0  0  0  0  0  0
    1.3000    2.5220   -2.0770 H   0  0  0  0  0  0  0  0  0  0  0  0
    3.1320    0.6610   -0.4940 H   0  0  0  0  0  0  0  0  0  0  0  0
    1.1040   -0.9230   -1.7740 H   0  0  0  0  0  0  0  0  0  0  0  0
    2.7190   -0.5900   -2.4420 H   0  0  0  0  0  0  0  0  0  0  0  0
    1.3660    0.4480   -2.9280 H   0  0  0  0  0  0  0  0  0  0  0  0
    1.3970    1.4760    1.0010 H   0  0  0  0  0  0  0  0  0  0  0  0
    0.6080   -1.3030    0.1660 H   0  0  0  0  0  0  0  0  0  0  0  0
   -1.4110    0.3270   -0.2380 N   0  0  0  0  0  0  0  0  0  0  0  0
   -2.7040    0.7320   -0.6960 C   0  0  1  0  0  0  0  0  0  0  0  0
   -3.2670   -0.1700   -1.7690 C   0  0  0  0  0  0  0  0  0  0  0  0
   -4.9080    0.5160   -2.2110 S   0  0  0  0  0  0  0  0  0  0  0  0
   -3.6460    0.7220    0.4370 C   0  0  0  0  0  0  0  0  0  0  0  0
   -4.8410    1.0420    0.2710 O   0  0  0  0  0  0  0  0  0  0  0  0
   -3.2200    0.3600    1.6950 O   0  0  0  0  0  0  0  0  0  0  0  0
   -1.2940   -0.6320    0.1460 H   0  0  0  0  0  0  0  0  0  0  0  0
   -2.6760    1.7810   -1.0850 H   0  0  0  0  0  0  0  0  0  0  0  0
   -3.4290   -1.1610   -1.3290 H   0  0  0  0  0  0  0  0  0  0  0  0
   -2.6790   -0.1670   -2.6990 H   0  0  0  0  0  0  0  0  0  0  0  0
   -5.2760    0.1630   -3.5010 H   0  0  0  0  0  0  0  0  0  0  0  0
  1  9  1  0  0  0  0
  1  2  1  0  0  0  0
  2 13  1  0  0  0  0
  2 12  1  0  0  0  0
  3 14  1  1  0  0  0
  3  2  1  0  0  0  0
  4 17  1  0  0  0  0
  4  3  1  0  0  0  0
  5 18  1  6  0  0  0
  5  3  1  0  0  0  0
  5  6  1  0  0  0  0
  6 20  1  0  0  0  0
  7  8  2  0  0  0  0
  7  5  1  0  0  0  0
 10  1  1  0  0  0  0
 11  1  1  0  0  0  0
 15  4  1  0  0  0  0
 16  4  1  0  0  0  0
 19  6  1  0  0  0  0
 21 31  1  0  0  0  0
 21 22  1  0  0  0  0
 22 23  1  0  0  0  0
 22 32  1  0  0  0  0
 23 34  1  1  0  0  0
 23 25  1  0  0  0  0
 24 35  1  0  0  0  0
 24 23  1  0  0  0  0
 25 26  1  0  0  0  0
 25 38  1  1  0  0  0
 26  7  1  0  0  0  0
 27 40  1  0  0  0  0
 27 25  1  0  0  0  0
 28 27  2  0  0  0  0
 29 21  1  0  0  0  0
 30 21  1  0  0  0  0
 33 22  1  0  0  0  0
 36 24  1  0  0  0  0
 37 24  1  0  0  0  0
 39 26  1  0  0  0  0
 40 47  1  0  0  0  0
 41 48  1  6  0  0  0
 41 40  1  0  0  0  0
 41 44  1  0  0  0  0
 42 49  1  0  0  0  0
 42 41  1  0  0  0  0
 43 42  1  0  0  0  0
 44 46  1  0  0  0  0
 45 44  2  0  0  0  0
 50 42  1  0  0  0  0
 51 43  1  0  0  0  0
M  END
$$$$
