IIF.pdb
 OpenBabel07022418413D

 60 60  0  0  1  0  0  0  0  0999 V2000
   -0.0760    0.1380    5.0420 C   0  0  0  0  0  0  0  0  0  0  0  0
    0.6500   -0.4160    3.8720 C   0  0  0  0  0  0  0  0  0  0  0  0
    1.8760    0.3510    3.4680 C   0  0  2  0  0  0  0  0  0  0  0  0
    2.9180    0.4400    4.5270 C   0  0  0  0  0  0  0  0  0  0  0  0
    1.5140    1.7410    2.9330 C   0  0  2  0  0  0  0  0  0  0  0  0
    0.8290    2.4670    3.9640 N   0  0  0  0  0  0  0  0  0  0  0  0
    0.7140    1.6450    1.6920 C   0  0  0  0  0  0  0  0  0  0  0  0
   -0.4010    2.1550    1.6370 O   0  0  0  0  0  0  0  0  0  0  0  0
    0.5380    0.6020    5.8080 H   0  0  0  0  0  0  0  0  0  0  0  0
   -0.6470   -0.6970    5.5270 H   0  0  0  0  0  0  0  0  0  0  0  0
   -0.8540    0.8870    4.7510 H   0  0  0  0  0  0  0  0  0  0  0  0
   -0.0310   -0.4530    3.0050 H   0  0  0  0  0  0  0  0  0  0  0  0
    0.9780   -1.4710    4.0490 H   0  0  0  0  0  0  0  0  0  0  0  0
    2.3190   -0.1850    2.6010 H   0  0  0  0  0  0  0  0  0  0  0  0
    3.4170    1.4390    4.4660 H   0  0  0  0  0  0  0  0  0  0  0  0
    3.7310   -0.3070    4.4010 H   0  0  0  0  0  0  0  0  0  0  0  0
    2.5450    0.3340    5.5600 H   0  0  0  0  0  0  0  0  0  0  0  0
    2.4910    2.2480    2.7660 H   0  0  0  0  0  0  0  0  0  0  0  0
    1.4890    2.6090    4.7610 H   0  0  0  0  0  0  0  0  0  0  0  0
    0.5930    3.4270    3.6200 H   0  0  0  0  0  0  0  0  0  0  0  0
    2.2180    3.2970   -1.1180 C   0  0  0  0  0  0  0  0  0  0  0  0
    1.2350    2.8100   -2.1440 C   0  0  0  0  0  0  0  0  0  0  0  0
    0.7900    1.3880   -1.9510 C   0  0  2  0  0  0  0  0  0  0  0  0
   -0.1730    1.1420   -3.0920 C   0  0  0  0  0  0  0  0  0  0  0  0
    0.2900    0.9350   -0.6770 C   0  0  2  0  0  0  0  0  0  0  0  0
    1.0780    1.0140    0.5040 N   0  0  0  0  0  0  0  0  0  0  0  0
   -0.0650   -0.5120   -0.7280 C   0  0  0  0  0  0  0  0  0  0  0  0
    0.7210   -1.2720   -0.0200 O   0  0  0  0  0  0  0  0  0  0  0  0
    2.8700    2.4060   -0.8710 H   0  0  0  0  0  0  0  0  0  0  0  0
    1.7730    3.6050   -0.1650 H   0  0  0  0  0  0  0  0  0  0  0  0
    2.9110    4.0610   -1.5010 H   0  0  0  0  0  0  0  0  0  0  0  0
    0.4320    3.5150   -2.3910 H   0  0  0  0  0  0  0  0  0  0  0  0
    1.8590    2.8320   -3.0660 H   0  0  0  0  0  0  0  0  0  0  0  0
    1.7140    0.8370   -2.2210 H   0  0  0  0  0  0  0  0  0  0  0  0
   -0.1910    0.1270   -3.4640 H   0  0  0  0  0  0  0  0  0  0  0  0
    0.0990    1.7980   -3.9800 H   0  0  0  0  0  0  0  0  0  0  0  0
   -1.2040    1.4720   -2.8600 H   0  0  0  0  0  0  0  0  0  0  0  0
   -0.6320    1.4650   -0.4370 H   0  0  0  0  0  0  0  0  0  0  0  0
    2.0120    0.5530    0.4640 H   0  0  0  0  0  0  0  0  0  0  0  0
   -1.1110   -1.1200   -1.4190 N   0  0  0  0  0  0  0  0  0  0  0  0
   -1.2450   -2.5630   -1.3080 C   0  0  1  0  0  0  0  0  0  0  0  0
   -2.5440   -2.9230   -0.6340 C   0  0  0  0  0  0  0  0  0  0  0  0
   -2.6490   -4.3790   -0.5400 C   0  0  0  0  0  0  0  0  0  0  0  0
   -3.3240   -5.1580   -1.4550 C   0  0  0  0  0  0  0  0  0  0  0  0
   -3.4000   -6.5290   -1.3510 C   0  0  0  0  0  0  0  0  0  0  0  0
   -2.7950   -7.1890   -0.3110 C   0  0  0  0  0  0  0  0  0  0  0  0
   -2.1050   -6.4300    0.6320 C   0  0  0  0  0  0  0  0  0  0  0  0
   -2.0420   -5.0440    0.5040 C   0  0  0  0  0  0  0  0  0  0  0  0
   -1.2200   -3.1240   -2.6700 C   0  0  0  0  0  0  0  0  0  0  0  0
   -1.2180   -2.3680   -3.6770 O   0  0  0  0  0  0  0  0  0  0  0  0
   -1.1920   -4.4880   -2.9490 O   0  0  0  0  0  0  0  0  0  0  0  0
   -1.7760   -0.5440   -1.9650 H   0  0  0  0  0  0  0  0  0  0  0  0
   -0.3940   -2.9500   -0.7270 H   0  0  0  0  0  0  0  0  0  0  0  0
   -3.3740   -2.5150   -1.2520 H   0  0  0  0  0  0  0  0  0  0  0  0
   -2.6090   -2.4580    0.3710 H   0  0  0  0  0  0  0  0  0  0  0  0
   -3.8120   -4.6390   -2.2760 H   0  0  0  0  0  0  0  0  0  0  0  0
   -3.9340   -7.1030   -2.0830 H   0  0  0  0  0  0  0  0  0  0  0  0
   -2.8210   -8.2630   -0.1770 H   0  0  0  0  0  0  0  0  0  0  0  0
   -1.6280   -6.9520    1.4520 H   0  0  0  0  0  0  0  0  0  0  0  0
   -1.4970   -4.4670    1.2530 H   0  0  0  0  0  0  0  0  0  0  0  0
  1 10  1  0  0  0  0
  1  9  1  0  0  0  0
  2 13  1  0  0  0  0
  2  1  1  0  0  0  0
  3 14  1  6  0  0  0
  3  2  1  0  0  0  0
  3  4  1  0  0  0  0
  4 17  1  0  0  0  0
  5 18  1  6  0  0  0
  5  3  1  0  0  0  0
  5  6  1  0  0  0  0
  6 19  1  0  0  0  0
  7  5  1  0  0  0  0
  8  7  2  0  0  0  0
 11  1  1  0  0  0  0
 12  2  1  0  0  0  0
 15  4  1  0  0  0  0
 16  4  1  0  0  0  0
 20  6  1  0  0  0  0
 21 29  1  0  0  0  0
 21 30  1  0  0  0  0
 22 23  1  0  0  0  0
 22 21  1  0  0  0  0
 23 34  1  6  0  0  0
 23 25  1  0  0  0  0
 24 37  1  0  0  0  0
 24 23  1  0  0  0  0
 25 38  1  1  0  0  0
 25 26  1  0  0  0  0
 26  7  1  0  0  0  0
 27 25  1  0  0  0  0
 27 28  2  0  0  0  0
 31 21  1  0  0  0  0
 32 22  1  0  0  0  0
 33 22  1  0  0  0  0
 35 24  1  0  0  0  0
 36 24  1  0  0  0  0
 39 26  1  0  0  0  0
 40 41  1  0  0  0  0
 40 27  1  0  0  0  0
 41 53  1  1  0  0  0
 41 42  1  0  0  0  0
 42 43  1  0  0  0  0
 42 55  1  0  0  0  0
 43 48  1  0  0  0  0
 44 45  1  0  0  0  0
 44 43  2  0  0  0  0
 45 46  2  0  0  0  0
 46 58  1  0  0  0  0
 46 47  1  0  0  0  0
 47 59  1  0  0  0  0
 48 47  2  0  0  0  0
 48 60  1  0  0  0  0
 49 41  1  0  0  0  0
 50 49  2  0  0  0  0
 51 49  1  0  0  0  0
 52 40  1  0  0  0  0
 54 42  1  0  0  0  0
 56 44  1  0  0  0  0
 57 45  1  0  0  0  0
M  END
$$$$
