IIH.pdb
 OpenBabel07022418413D

 57 57  0  0  1  0  0  0  0  0999 V2000
    2.4930   -2.3560    1.7250 C   0  0  0  0  0  0  0  0  0  0  0  0
    1.2240   -2.7940    2.4100 C   0  0  0  0  0  0  0  0  0  0  0  0
    0.9380   -2.0870    3.6800 C   0  0  2  0  0  0  0  0  0  0  0  0
   -0.3660   -2.6280    4.2420 C   0  0  0  0  0  0  0  0  0  0  0  0
    0.9010   -0.6050    3.6730 C   0  0  2  0  0  0  0  0  0  0  0  0
    0.6100   -0.2380    5.0820 N   0  0  0  0  0  0  0  0  0  0  0  0
   -0.1060    0.0430    2.8270 C   0  0  0  0  0  0  0  0  0  0  0  0
   -1.1620    0.5090    3.3850 O   0  0  0  0  0  0  0  0  0  0  0  0
    3.3720   -2.8900    2.1400 H   0  0  0  0  0  0  0  0  0  0  0  0
    2.7140   -1.2770    1.8650 H   0  0  0  0  0  0  0  0  0  0  0  0
    2.4650   -2.5900    0.6390 H   0  0  0  0  0  0  0  0  0  0  0  0
    0.3570   -2.9150    1.7460 H   0  0  0  0  0  0  0  0  0  0  0  0
    1.4500   -3.8740    2.7250 H   0  0  0  0  0  0  0  0  0  0  0  0
    1.7770   -2.3660    4.3860 H   0  0  0  0  0  0  0  0  0  0  0  0
   -0.5480   -2.1660    5.2350 H   0  0  0  0  0  0  0  0  0  0  0  0
   -0.2710   -3.7170    4.2770 H   0  0  0  0  0  0  0  0  0  0  0  0
   -1.1630   -2.3060    3.5180 H   0  0  0  0  0  0  0  0  0  0  0  0
    1.8950   -0.1570    3.4680 H   0  0  0  0  0  0  0  0  0  0  0  0
    0.4280    0.7660    5.1790 H   0  0  0  0  0  0  0  0  0  0  0  0
    1.3230   -0.6280    5.7220 H   0  0  0  0  0  0  0  0  0  0  0  0
    0.6490    1.9090   -1.7860 C   0  0  0  0  0  0  0  0  0  0  0  0
    0.5790    2.5140   -0.4290 C   0  0  0  0  0  0  0  0  0  0  0  0
   -0.6960    2.2960    0.3240 C   0  0  2  0  0  0  0  0  0  0  0  0
   -0.5090    3.0250    1.6710 C   0  0  0  0  0  0  0  0  0  0  0  0
   -1.0480    0.8870    0.6450 C   0  0  2  0  0  0  0  0  0  0  0  0
   -0.0240    0.2160    1.4280 N   0  0  0  0  0  0  0  0  0  0  0  0
   -1.6750    0.0720   -0.3930 C   0  0  0  0  0  0  0  0  0  0  0  0
   -2.5880    0.4780   -1.1510 O   0  0  0  0  0  0  0  0  0  0  0  0
   -0.3190    2.0220   -2.3020 H   0  0  0  0  0  0  0  0  0  0  0  0
    0.9930    0.8680   -1.6780 H   0  0  0  0  0  0  0  0  0  0  0  0
    1.4070    2.4320   -2.4420 H   0  0  0  0  0  0  0  0  0  0  0  0
    1.4300    2.2150    0.2280 H   0  0  0  0  0  0  0  0  0  0  0  0
    0.7480    3.6250   -0.5750 H   0  0  0  0  0  0  0  0  0  0  0  0
   -1.5640    2.8190   -0.1410 H   0  0  0  0  0  0  0  0  0  0  0  0
   -1.4100    3.0070    2.2790 H   0  0  0  0  0  0  0  0  0  0  0  0
    0.3070    2.4980    2.1950 H   0  0  0  0  0  0  0  0  0  0  0  0
   -0.1540    4.0570    1.4550 H   0  0  0  0  0  0  0  0  0  0  0  0
   -1.9360    1.0070    1.4180 H   0  0  0  0  0  0  0  0  0  0  0  0
    0.8140   -0.1550    0.9330 H   0  0  0  0  0  0  0  0  0  0  0  0
   -1.2640   -1.2710   -0.5850 N   0  0  0  0  0  0  0  0  0  0  0  0
   -1.8000   -2.1990   -1.5040 C   0  0  1  0  0  0  0  0  0  0  0  0
   -0.9230   -2.9440   -2.4130 C   0  0  0  0  0  0  0  0  0  0  0  0
   -0.1440   -2.1810   -3.3880 C   0  0  0  0  0  0  0  0  0  0  0  0
   -0.1400   -0.8340   -3.6730 C   0  0  0  0  0  0  0  0  0  0  0  0
    0.7280   -0.6570   -4.6800 N   0  0  0  0  0  0  0  0  0  0  0  0
    1.2720   -1.8300   -5.0430 C   0  0  0  0  0  0  0  0  0  0  0  0
    0.7230   -2.7510   -4.2380 N   0  0  0  0  0  0  0  0  0  0  0  0
   -2.5730   -3.2380   -0.7270 C   0  0  0  0  0  0  0  0  0  0  0  0
   -3.1560   -4.1880   -1.2990 O   0  0  0  0  0  0  0  0  0  0  0  0
   -2.6180   -3.1100    0.6460 O   0  0  0  0  0  0  0  0  0  0  0  0
   -0.4560   -1.6470    0.0120 H   0  0  0  0  0  0  0  0  0  0  0  0
   -2.6190   -1.6590   -2.0750 H   0  0  0  0  0  0  0  0  0  0  0  0
   -1.5970   -3.6190   -3.0260 H   0  0  0  0  0  0  0  0  0  0  0  0
   -0.3100   -3.6700   -1.8290 H   0  0  0  0  0  0  0  0  0  0  0  0
   -0.7480   -0.1370   -3.1560 H   0  0  0  0  0  0  0  0  0  0  0  0
    0.9860    0.2490   -5.1570 H   0  0  0  0  0  0  0  0  0  0  0  0
    2.0050   -1.9920   -5.8290 H   0  0  0  0  0  0  0  0  0  0  0  0
  1 10  1  0  0  0  0
  1  9  1  0  0  0  0
  1  2  1  0  0  0  0
  2 13  1  0  0  0  0
  2  3  1  0  0  0  0
  3  4  1  0  0  0  0
  3 14  1  1  0  0  0
  4 16  1  0  0  0  0
  4 15  1  0  0  0  0
  5 18  1  6  0  0  0
  5  3  1  0  0  0  0
  5  6  1  0  0  0  0
  6 19  1  0  0  0  0
  6 20  1  0  0  0  0
  7  8  2  0  0  0  0
  7  5  1  0  0  0  0
 11  1  1  0  0  0  0
 12  2  1  0  0  0  0
 17  4  1  0  0  0  0
 21 30  1  0  0  0  0
 21 22  1  0  0  0  0
 22 32  1  0  0  0  0
 22 23  1  0  0  0  0
 23 34  1  6  0  0  0
 23 25  1  0  0  0  0
 23 24  1  0  0  0  0
 24 36  1  0  0  0  0
 24 35  1  0  0  0  0
 25 38  1  1  0  0  0
 25 26  1  0  0  0  0
 26  7  1  0  0  0  0
 27 25  1  0  0  0  0
 28 27  2  0  0  0  0
 29 21  1  0  0  0  0
 31 21  1  0  0  0  0
 33 22  1  0  0  0  0
 37 24  1  0  0  0  0
 39 26  1  0  0  0  0
 40 27  1  0  0  0  0
 40 51  1  0  0  0  0
 41 52  1  6  0  0  0
 41 48  1  0  0  0  0
 41 40  1  0  0  0  0
 42 54  1  0  0  0  0
 42 41  1  0  0  0  0
 43 42  1  0  0  0  0
 44 43  2  0  0  0  0
 44 55  1  0  0  0  0
 45 44  1  0  0  0  0
 46 45  1  0  0  0  0
 46 47  2  0  0  0  0
 47 43  1  0  0  0  0
 48 50  1  0  0  0  0
 49 48  2  0  0  0  0
 53 42  1  0  0  0  0
 56 45  1  0  0  0  0
 57 46  1  0  0  0  0
M  END
$$$$
