IIL.pdb
 OpenBabel07022418413D

 59 58  0  0  1  0  0  0  0  0999 V2000
    1.3670   -3.1080    4.0630 C   0  0  0  0  0  0  0  0  0  0  0  0
    1.0560   -2.7370    2.6500 C   0  0  0  0  0  0  0  0  0  0  0  0
    2.2390   -2.2480    1.8680 C   0  0  2  0  0  0  0  0  0  0  0  0
    3.3020   -3.3070    1.8060 C   0  0  0  0  0  0  0  0  0  0  0  0
    2.7630   -0.9260    2.3450 C   0  0  2  0  0  0  0  0  0  0  0  0
    3.1980   -0.9390    3.7120 N   0  0  0  0  0  0  0  0  0  0  0  0
    1.7010    0.0950    2.1670 C   0  0  0  0  0  0  0  0  0  0  0  0
    1.3200    0.7850    3.1380 O   0  0  0  0  0  0  0  0  0  0  0  0
    0.4620   -3.6490    4.4610 H   0  0  0  0  0  0  0  0  0  0  0  0
    2.1980   -3.8200    4.1550 H   0  0  0  0  0  0  0  0  0  0  0  0
    1.4800   -2.2260    4.7350 H   0  0  0  0  0  0  0  0  0  0  0  0
    0.2070   -2.0500    2.6480 H   0  0  0  0  0  0  0  0  0  0  0  0
    0.7070   -3.6770    2.1370 H   0  0  0  0  0  0  0  0  0  0  0  0
    1.8840   -2.0920    0.8160 H   0  0  0  0  0  0  0  0  0  0  0  0
    4.1210   -2.9460    1.1210 H   0  0  0  0  0  0  0  0  0  0  0  0
    3.6950   -3.6020    2.7880 H   0  0  0  0  0  0  0  0  0  0  0  0
    2.8500   -4.1730    1.2420 H   0  0  0  0  0  0  0  0  0  0  0  0
    3.6170   -0.6630    1.6560 H   0  0  0  0  0  0  0  0  0  0  0  0
    2.9930    0.0150    4.1100 H   0  0  0  0  0  0  0  0  0  0  0  0
    4.1830   -1.1870    3.8590 H   0  0  0  0  0  0  0  0  0  0  0  0
    1.6730    3.8280    1.1230 C   0  0  0  0  0  0  0  0  0  0  0  0
    1.8610    2.8650    0.0010 C   0  0  0  0  0  0  0  0  0  0  0  0
    0.5840    2.1890   -0.4300 C   0  0  2  0  0  0  0  0  0  0  0  0
   -0.4580    3.1670   -0.9050 C   0  0  0  0  0  0  0  0  0  0  0  0
    0.0610    1.2900    0.6710 C   0  0  2  0  0  0  0  0  0  0  0  0
    1.1030    0.3110    0.9160 N   0  0  0  0  0  0  0  0  0  0  0  0
   -1.1660    0.6180    0.1110 C   0  0  0  0  0  0  0  0  0  0  0  0
   -2.1780    1.3110   -0.1670 O   0  0  0  0  0  0  0  0  0  0  0  0
    0.6120    4.0630    1.3370 H   0  0  0  0  0  0  0  0  0  0  0  0
    2.1110    3.4490    2.0720 H   0  0  0  0  0  0  0  0  0  0  0  0
    2.2520    4.7640    0.8810 H   0  0  0  0  0  0  0  0  0  0  0  0
    2.5460    2.0510    0.3460 H   0  0  0  0  0  0  0  0  0  0  0  0
    2.3650    3.3170   -0.8800 H   0  0  0  0  0  0  0  0  0  0  0  0
    0.8420    1.5210   -1.2800 H   0  0  0  0  0  0  0  0  0  0  0  0
   -0.0100    4.0880   -1.3310 H   0  0  0  0  0  0  0  0  0  0  0  0
   -1.1770    3.4220   -0.0720 H   0  0  0  0  0  0  0  0  0  0  0  0
   -1.0850    2.7210   -1.7040 H   0  0  0  0  0  0  0  0  0  0  0  0
   -0.2020    1.8450    1.5910 H   0  0  0  0  0  0  0  0  0  0  0  0
    1.4010   -0.2530    0.0770 H   0  0  0  0  0  0  0  0  0  0  0  0
   -3.4610   -3.9090   -2.4740 C   0  0  0  0  0  0  0  0  0  0  0  0
   -2.9450   -2.5790   -2.9240 C   0  0  0  0  0  0  0  0  0  0  0  0
   -4.1120   -1.7140   -3.3940 C   0  0  0  0  0  0  0  0  0  0  0  0
   -2.0350   -1.8760   -2.0170 C   0  0  0  0  0  0  0  0  0  0  0  0
   -2.4420   -1.4380   -0.6740 C   0  0  2  0  0  0  0  0  0  0  0  0
   -1.2150   -0.7740   -0.1140 N   0  0  0  0  0  0  0  0  0  0  0  0
   -2.9460   -2.3960    0.2860 C   0  0  0  0  0  0  0  0  0  0  0  0
   -4.0350   -2.9780    0.1680 O   0  0  0  0  0  0  0  0  0  0  0  0
   -2.1840   -2.7010    1.4180 O   0  0  0  0  0  0  0  0  0  0  0  0
   -3.4180   -4.5880   -3.3980 H   0  0  0  0  0  0  0  0  0  0  0  0
   -4.5450   -3.9260   -2.2330 H   0  0  0  0  0  0  0  0  0  0  0  0
   -2.8090   -4.3620   -1.7250 H   0  0  0  0  0  0  0  0  0  0  0  0
   -2.3570   -2.7550   -3.8880 H   0  0  0  0  0  0  0  0  0  0  0  0
   -4.7110   -1.4960   -2.4810 H   0  0  0  0  0  0  0  0  0  0  0  0
   -4.7570   -2.3220   -4.0610 H   0  0  0  0  0  0  0  0  0  0  0  0
   -3.7920   -0.8330   -3.9460 H   0  0  0  0  0  0  0  0  0  0  0  0
   -1.6040   -0.9620   -2.5350 H   0  0  0  0  0  0  0  0  0  0  0  0
   -1.1030   -2.5420   -1.9220 H   0  0  0  0  0  0  0  0  0  0  0  0
   -3.1510   -0.5640   -0.8120 H   0  0  0  0  0  0  0  0  0  0  0  0
   -0.3750   -1.3470    0.1160 H   0  0  0  0  0  0  0  0  0  0  0  0
  1 10  1  0  0  0  0
  1  9  1  0  0  0  0
  1 11  1  0  0  0  0
  2  1  1  0  0  0  0
  3 14  1  6  0  0  0
  3  5  1  0  0  0  0
  3  2  1  0  0  0  0
  4  3  1  0  0  0  0
  4 16  1  0  0  0  0
  5 18  1  6  0  0  0
  5  6  1  0  0  0  0
  6 20  1  0  0  0  0
  6 19  1  0  0  0  0
  7  5  1  0  0  0  0
  7  8  2  0  0  0  0
 12  2  1  0  0  0  0
 13  2  1  0  0  0  0
 15  4  1  0  0  0  0
 17  4  1  0  0  0  0
 21 29  1  0  0  0  0
 21 30  1  0  0  0  0
 22 32  1  0  0  0  0
 22 21  1  0  0  0  0
 23 34  1  6  0  0  0
 23 22  1  0  0  0  0
 23 25  1  0  0  0  0
 24 23  1  0  0  0  0
 24 36  1  0  0  0  0
 25 26  1  0  0  0  0
 25 38  1  1  0  0  0
 26  7  1  0  0  0  0
 27 25  1  0  0  0  0
 28 27  2  0  0  0  0
 31 21  1  0  0  0  0
 33 22  1  0  0  0  0
 35 24  1  0  0  0  0
 37 24  1  0  0  0  0
 39 26  1  0  0  0  0
 40 50  1  0  0  0  0
 40 51  1  0  0  0  0
 41 40  1  0  0  0  0
 41 43  1  0  0  0  0
 42 41  1  0  0  0  0
 42 53  1  0  0  0  0
 43 57  1  0  0  0  0
 43 44  1  0  0  0  0
 44 58  1  6  0  0  0
 44 45  1  0  0  0  0
 44 46  1  0  0  0  0
 45 27  1  0  0  0  0
 45 59  1  0  0  0  0
 46 48  1  0  0  0  0
 47 46  2  0  0  0  0
 49 40  1  0  0  0  0
 52 41  1  0  0  0  0
 54 42  1  0  0  0  0
 55 42  1  0  0  0  0
 56 43  1  0  0  0  0
M  END
$$$$
