IIM.pdb
 OpenBabel07022418413D

 57 56  0  0  1  0  0  0  0  0999 V2000
    2.6530   -4.4380    3.8140 C   0  0  0  0  0  0  0  0  0  0  0  0
    3.0840   -3.8750    2.4960 C   0  0  0  0  0  0  0  0  0  0  0  0
    2.0130   -3.0120    1.8280 C   0  0  2  0  0  0  0  0  0  0  0  0
    2.6330   -2.5560    0.5130 C   0  0  0  0  0  0  0  0  0  0  0  0
    1.7600   -1.7920    2.7110 C   0  0  2  0  0  0  0  0  0  0  0  0
    1.3200   -2.2620    4.0380 N   0  0  0  0  0  0  0  0  0  0  0  0
    0.6790   -0.9400    2.1860 C   0  0  0  0  0  0  0  0  0  0  0  0
   -0.4380   -0.8670    2.8180 O   0  0  0  0  0  0  0  0  0  0  0  0
    1.5550   -4.5860    3.8160 H   0  0  0  0  0  0  0  0  0  0  0  0
    3.1230   -5.4590    3.9500 H   0  0  0  0  0  0  0  0  0  0  0  0
    2.9560   -3.8170    4.6720 H   0  0  0  0  0  0  0  0  0  0  0  0
    3.9690   -3.2090    2.6460 H   0  0  0  0  0  0  0  0  0  0  0  0
    3.3670   -4.6880    1.7870 H   0  0  0  0  0  0  0  0  0  0  0  0
    1.1180   -3.6230    1.6900 H   0  0  0  0  0  0  0  0  0  0  0  0
    1.8370   -2.4140   -0.2330 H   0  0  0  0  0  0  0  0  0  0  0  0
    3.2970   -3.3720    0.1010 H   0  0  0  0  0  0  0  0  0  0  0  0
    3.3160   -1.7010    0.6560 H   0  0  0  0  0  0  0  0  0  0  0  0
    2.6950   -1.2190    2.7830 H   0  0  0  0  0  0  0  0  0  0  0  0
    0.3100   -2.5340    3.9750 H   0  0  0  0  0  0  0  0  0  0  0  0
    1.4640   -1.5260    4.7640 H   0  0  0  0  0  0  0  0  0  0  0  0
    1.6640    2.0490    2.5380 C   0  0  0  0  0  0  0  0  0  0  0  0
    0.4680    2.6300    1.9050 C   0  0  0  0  0  0  0  0  0  0  0  0
    0.0430    2.1020    0.5630 C   0  0  2  0  0  0  0  0  0  0  0  0
   -1.1980    2.9520    0.2050 C   0  0  0  0  0  0  0  0  0  0  0  0
   -0.3840    0.6710    0.5730 C   0  0  2  0  0  0  0  0  0  0  0  0
    0.7510   -0.1650    1.0210 N   0  0  0  0  0  0  0  0  0  0  0  0
   -0.7400    0.1200   -0.7580 C   0  0  0  0  0  0  0  0  0  0  0  0
    0.0280   -0.7350   -1.3370 O   0  0  0  0  0  0  0  0  0  0  0  0
    2.3320    2.8700    2.9950 H   0  0  0  0  0  0  0  0  0  0  0  0
    1.3590    1.4870    3.4700 H   0  0  0  0  0  0  0  0  0  0  0  0
    2.3150    1.4200    1.9250 H   0  0  0  0  0  0  0  0  0  0  0  0
   -0.4110    2.5120    2.6110 H   0  0  0  0  0  0  0  0  0  0  0  0
    0.6170    3.7430    1.8720 H   0  0  0  0  0  0  0  0  0  0  0  0
    0.7770    2.3380   -0.2320 H   0  0  0  0  0  0  0  0  0  0  0  0
   -1.3250    3.0230   -0.8750 H   0  0  0  0  0  0  0  0  0  0  0  0
   -1.1120    3.9540    0.6930 H   0  0  0  0  0  0  0  0  0  0  0  0
   -2.0580    2.4570    0.6760 H   0  0  0  0  0  0  0  0  0  0  0  0
   -1.1880    0.5380    1.3150 H   0  0  0  0  0  0  0  0  0  0  0  0
    1.5850   -0.1410    0.4050 H   0  0  0  0  0  0  0  0  0  0  0  0
   -1.9190   -3.3220   -1.2940 C   0  0  0  0  0  0  0  0  0  0  0  0
   -3.5250   -3.1730   -2.0640 S   0  0  0  0  0  0  0  0  0  0  0  0
   -4.1990   -1.5360   -2.1300 C   0  0  0  0  0  0  0  0  0  0  0  0
   -3.5700   -0.5520   -3.0300 C   0  0  0  0  0  0  0  0  0  0  0  0
   -2.1610   -0.1690   -2.8300 C   0  0  2  0  0  0  0  0  0  0  0  0
   -1.8840    0.4320   -1.5120 N   0  0  0  0  0  0  0  0  0  0  0  0
   -1.6770    0.7590   -3.9020 C   0  0  0  0  0  0  0  0  0  0  0  0
   -1.8200    0.4240   -5.0930 O   0  0  0  0  0  0  0  0  0  0  0  0
   -1.0840    1.9620   -3.5990 O   0  0  0  0  0  0  0  0  0  0  0  0
   -1.1300   -3.2010   -2.0580 H   0  0  0  0  0  0  0  0  0  0  0  0
   -1.7540   -2.5790   -0.4910 H   0  0  0  0  0  0  0  0  0  0  0  0
   -1.7740   -4.3270   -0.8030 H   0  0  0  0  0  0  0  0  0  0  0  0
   -5.2800   -1.6420   -2.4800 H   0  0  0  0  0  0  0  0  0  0  0  0
   -4.3570   -1.1120   -1.0820 H   0  0  0  0  0  0  0  0  0  0  0  0
   -3.7200   -0.8090   -4.1220 H   0  0  0  0  0  0  0  0  0  0  0  0
   -4.1730    0.4130   -2.9390 H   0  0  0  0  0  0  0  0  0  0  0  0
   -1.4930   -1.0410   -2.9040 H   0  0  0  0  0  0  0  0  0  0  0  0
   -2.5820    1.0970   -1.1360 H   0  0  0  0  0  0  0  0  0  0  0  0
  1  9  1  0  0  0  0
  1 10  1  0  0  0  0
  1 11  1  0  0  0  0
  2 12  1  0  0  0  0
  2  1  1  0  0  0  0
  3 14  1  6  0  0  0
  3  2  1  0  0  0  0
  3  5  1  0  0  0  0
  4 17  1  0  0  0  0
  4  3  1  0  0  0  0
  5 18  1  1  0  0  0
  5  6  1  0  0  0  0
  6 20  1  0  0  0  0
  7  5  1  0  0  0  0
  7  8  2  0  0  0  0
 13  2  1  0  0  0  0
 15  4  1  0  0  0  0
 16  4  1  0  0  0  0
 19  6  1  0  0  0  0
 21 29  1  0  0  0  0
 21 30  1  0  0  0  0
 22 21  1  0  0  0  0
 22 32  1  0  0  0  0
 23 34  1  6  0  0  0
 23 25  1  0  0  0  0
 23 22  1  0  0  0  0
 24 23  1  0  0  0  0
 24 37  1  0  0  0  0
 24 36  1  0  0  0  0
 25 26  1  0  0  0  0
 25 38  1  1  0  0  0
 26  7  1  0  0  0  0
 27 25  1  0  0  0  0
 28 27  2  0  0  0  0
 31 21  1  0  0  0  0
 33 22  1  0  0  0  0
 35 24  1  0  0  0  0
 39 26  1  0  0  0  0
 40 51  1  0  0  0  0
 40 50  1  0  0  0  0
 41 40  1  0  0  0  0
 42 41  1  0  0  0  0
 42 53  1  0  0  0  0
 43 55  1  0  0  0  0
 43 44  1  0  0  0  0
 43 42  1  0  0  0  0
 44 56  1  6  0  0  0
 44 45  1  0  0  0  0
 45 57  1  0  0  0  0
 45 27  1  0  0  0  0
 46 48  1  0  0  0  0
 46 44  1  0  0  0  0
 47 46  2  0  0  0  0
 49 40  1  0  0  0  0
 52 42  1  0  0  0  0
 54 43  1  0  0  0  0
M  END
$$$$
