IIN.pdb
 OpenBabel07022418413D

 54 53  0  0  1  0  0  0  0  0999 V2000
    3.2560   -1.4550    0.8600 C   0  0  0  0  0  0  0  0  0  0  0  0
    2.2090   -2.3060    0.1790 C   0  0  0  0  0  0  0  0  0  0  0  0
    1.6290   -3.3200    1.1000 C   0  0  2  0  0  0  0  0  0  0  0  0
    0.5890   -4.1720    0.3840 C   0  0  0  0  0  0  0  0  0  0  0  0
    1.0780   -2.8060    2.3960 C   0  0  2  0  0  0  0  0  0  0  0  0
    0.6230   -4.0490    3.0840 N   0  0  0  0  0  0  0  0  0  0  0  0
   -0.0590   -1.9190    2.3730 C   0  0  0  0  0  0  0  0  0  0  0  0
   -1.1500   -2.3530    2.9160 O   0  0  0  0  0  0  0  0  0  0  0  0
    2.9270   -1.1370    1.8490 H   0  0  0  0  0  0  0  0  0  0  0  0
    4.2650   -1.8950    0.8400 H   0  0  0  0  0  0  0  0  0  0  0  0
    3.3480   -0.5090    0.2490 H   0  0  0  0  0  0  0  0  0  0  0  0
    2.7820   -2.8740   -0.6190 H   0  0  0  0  0  0  0  0  0  0  0  0
    1.5250   -1.6740   -0.3720 H   0  0  0  0  0  0  0  0  0  0  0  0
    2.4470   -4.0190    1.3770 H   0  0  0  0  0  0  0  0  0  0  0  0
    0.9320   -5.2150    0.2200 H   0  0  0  0  0  0  0  0  0  0  0  0
   -0.3520   -4.2650    0.9960 H   0  0  0  0  0  0  0  0  0  0  0  0
    0.3770   -3.7590   -0.6220 H   0  0  0  0  0  0  0  0  0  0  0  0
    1.8690   -2.4110    3.0290 H   0  0  0  0  0  0  0  0  0  0  0  0
    0.1660   -3.7890    3.9650 H   0  0  0  0  0  0  0  0  0  0  0  0
    1.4020   -4.7140    3.1540 H   0  0  0  0  0  0  0  0  0  0  0  0
   -0.2300    2.8530    0.8500 C   0  0  0  0  0  0  0  0  0  0  0  0
   -0.0900    2.3790    2.2640 C   0  0  0  0  0  0  0  0  0  0  0  0
   -1.1640    1.4230    2.6840 C   0  0  2  0  0  0  0  0  0  0  0  0
   -0.8730    1.0540    4.1540 C   0  0  0  0  0  0  0  0  0  0  0  0
   -1.3020    0.1860    1.8640 C   0  0  2  0  0  0  0  0  0  0  0  0
   -0.1160   -0.6130    1.8200 N   0  0  0  0  0  0  0  0  0  0  0  0
   -1.9480    0.4290    0.5640 C   0  0  0  0  0  0  0  0  0  0  0  0
   -2.9690    1.1510    0.5200 O   0  0  0  0  0  0  0  0  0  0  0  0
   -1.2530    3.2350    0.6850 H   0  0  0  0  0  0  0  0  0  0  0  0
   -0.0160    2.0560    0.1120 H   0  0  0  0  0  0  0  0  0  0  0  0
    0.4590    3.7270    0.6930 H   0  0  0  0  0  0  0  0  0  0  0  0
   -0.1270    3.2980    2.9250 H   0  0  0  0  0  0  0  0  0  0  0  0
    0.9320    1.9250    2.4310 H   0  0  0  0  0  0  0  0  0  0  0  0
   -2.1390    1.9760    2.7120 H   0  0  0  0  0  0  0  0  0  0  0  0
   -1.7850    0.6520    4.5950 H   0  0  0  0  0  0  0  0  0  0  0  0
   -0.4570    1.9380    4.6370 H   0  0  0  0  0  0  0  0  0  0  0  0
   -0.1300    0.2230    4.0830 H   0  0  0  0  0  0  0  0  0  0  0  0
   -2.0770   -0.4420    2.4600 H   0  0  0  0  0  0  0  0  0  0  0  0
    0.7430   -0.2600    1.3840 H   0  0  0  0  0  0  0  0  0  0  0  0
    0.9270    0.4390   -4.0790 N   0  0  0  0  0  0  0  0  0  0  0  0
   -0.0860   -0.0560   -3.1990 C   0  0  0  0  0  0  0  0  0  0  0  0
    0.0260   -1.1940   -2.7180 O   0  0  0  0  0  0  0  0  0  0  0  0
   -1.2310    0.8120   -2.8980 C   0  0  0  0  0  0  0  0  0  0  0  0
   -2.1600    0.1550   -1.9300 C   0  0  2  0  0  0  0  0  0  0  0  0
   -1.4750   -0.1210   -0.6750 N   0  0  0  0  0  0  0  0  0  0  0  0
   -2.7070   -1.1160   -2.4660 C   0  0  0  0  0  0  0  0  0  0  0  0
   -3.3360   -1.0840   -3.5480 O   0  0  0  0  0  0  0  0  0  0  0  0
   -2.5230   -2.2870   -1.7880 O   0  0  0  0  0  0  0  0  0  0  0  0
    1.8130    0.8700   -3.7530 H   0  0  0  0  0  0  0  0  0  0  0  0
    0.7580    0.3580   -5.1010 H   0  0  0  0  0  0  0  0  0  0  0  0
   -1.8080    0.9990   -3.8370 H   0  0  0  0  0  0  0  0  0  0  0  0
   -0.9000    1.7750   -2.4350 H   0  0  0  0  0  0  0  0  0  0  0  0
   -3.0280    0.8270   -1.6690 H   0  0  0  0  0  0  0  0  0  0  0  0
   -0.6260   -0.7150   -0.5800 H   0  0  0  0  0  0  0  0  0  0  0  0
  1  9  1  0  0  0  0
  2  1  1  0  0  0  0
  2  3  1  0  0  0  0
  3 14  1  1  0  0  0
  3  5  1  0  0  0  0
  4 16  1  0  0  0  0
  4  3  1  0  0  0  0
  5 18  1  1  0  0  0
  5  6  1  0  0  0  0
  6 20  1  0  0  0  0
  6 19  1  0  0  0  0
  7  5  1  0  0  0  0
  7  8  2  0  0  0  0
 10  1  1  0  0  0  0
 11  1  1  0  0  0  0
 12  2  1  0  0  0  0
 13  2  1  0  0  0  0
 15  4  1  0  0  0  0
 17  4  1  0  0  0  0
 21 22  1  0  0  0  0
 22 33  1  0  0  0  0
 22 23  1  0  0  0  0
 22 32  1  0  0  0  0
 23 34  1  6  0  0  0
 23 24  1  0  0  0  0
 24 35  1  0  0  0  0
 24 36  1  0  0  0  0
 25 38  1  1  0  0  0
 25 23  1  0  0  0  0
 26 25  1  0  0  0  0
 26  7  1  0  0  0  0
 27 25  1  0  0  0  0
 28 27  2  0  0  0  0
 29 21  1  0  0  0  0
 30 21  1  0  0  0  0
 31 21  1  0  0  0  0
 37 24  1  0  0  0  0
 39 26  1  0  0  0  0
 40 49  1  0  0  0  0
 40 41  1  0  0  0  0
 41 43  1  0  0  0  0
 41 42  2  0  0  0  0
 43 52  1  0  0  0  0
 43 44  1  0  0  0  0
 44 53  1  1  0  0  0
 44 45  1  0  0  0  0
 45 54  1  0  0  0  0
 45 27  1  0  0  0  0
 46 44  1  0  0  0  0
 46 48  1  0  0  0  0
 47 46  2  0  0  0  0
 50 40  1  0  0  0  0
 51 43  1  0  0  0  0
M  END
$$$$
