IIS.pdb
 OpenBabel07022418413D

 51 50  0  0  1  0  0  0  0  0999 V2000
    1.8130   -5.0200    0.2270 C   0  0  0  0  0  0  0  0  0  0  0  0
    0.8520   -5.0970    1.3930 C   0  0  0  0  0  0  0  0  0  0  0  0
    0.1590   -3.7210    1.4850 C   0  0  2  0  0  0  0  0  0  0  0  0
   -0.5330   -3.5450    0.1740 C   0  0  0  0  0  0  0  0  0  0  0  0
    1.2770   -2.7630    1.7880 C   0  0  2  0  0  0  0  0  0  0  0  0
    1.8400   -3.2690    3.0740 N   0  0  0  0  0  0  0  0  0  0  0  0
    0.9040   -1.3810    2.0430 C   0  0  0  0  0  0  0  0  0  0  0  0
    0.7880   -0.9940    3.2600 O   0  0  0  0  0  0  0  0  0  0  0  0
    2.8790   -5.0550    0.5590 H   0  0  0  0  0  0  0  0  0  0  0  0
    1.7010   -5.9030   -0.4530 H   0  0  0  0  0  0  0  0  0  0  0  0
    1.7020   -4.1360   -0.4000 H   0  0  0  0  0  0  0  0  0  0  0  0
    1.4630   -5.2830    2.2980 H   0  0  0  0  0  0  0  0  0  0  0  0
    0.1260   -5.8830    1.1660 H   0  0  0  0  0  0  0  0  0  0  0  0
   -0.5330   -3.7080    2.3410 H   0  0  0  0  0  0  0  0  0  0  0  0
   -0.3140   -4.3550   -0.5620 H   0  0  0  0  0  0  0  0  0  0  0  0
   -0.4470   -2.5800   -0.3110 H   0  0  0  0  0  0  0  0  0  0  0  0
   -1.6510   -3.6590    0.3630 H   0  0  0  0  0  0  0  0  0  0  0  0
    2.1150   -2.7920    1.0690 H   0  0  0  0  0  0  0  0  0  0  0  0
    2.8390   -2.9840    3.1610 H   0  0  0  0  0  0  0  0  0  0  0  0
    1.2290   -2.8660    3.8090 H   0  0  0  0  0  0  0  0  0  0  0  0
    2.1640    3.1110   -1.1150 C   0  0  0  0  0  0  0  0  0  0  0  0
    1.3540    1.9810   -0.5730 C   0  0  0  0  0  0  0  0  0  0  0  0
    1.2520    2.0180    0.9470 C   0  0  2  0  0  0  0  0  0  0  0  0
    2.5880    1.9350    1.6060 C   0  0  0  0  0  0  0  0  0  0  0  0
    0.2740    0.9880    1.4520 C   0  0  2  0  0  0  0  0  0  0  0  0
    0.6450   -0.3630    1.0890 N   0  0  0  0  0  0  0  0  0  0  0  0
   -1.1040    1.3380    1.0190 C   0  0  0  0  0  0  0  0  0  0  0  0
   -1.5110    2.4960    1.2900 O   0  0  0  0  0  0  0  0  0  0  0  0
    1.9300    4.0280   -0.5400 H   0  0  0  0  0  0  0  0  0  0  0  0
    3.2600    2.8950   -1.1300 H   0  0  0  0  0  0  0  0  0  0  0  0
    1.8820    3.2540   -2.1850 H   0  0  0  0  0  0  0  0  0  0  0  0
    1.8170    1.0280   -0.9200 H   0  0  0  0  0  0  0  0  0  0  0  0
    0.3500    2.0200   -1.0430 H   0  0  0  0  0  0  0  0  0  0  0  0
    0.8220    3.0140    1.1910 H   0  0  0  0  0  0  0  0  0  0  0  0
    2.8940    0.9010    1.8650 H   0  0  0  0  0  0  0  0  0  0  0  0
    3.4110    2.3510    0.9890 H   0  0  0  0  0  0  0  0  0  0  0  0
    2.6010    2.5090    2.5670 H   0  0  0  0  0  0  0  0  0  0  0  0
    0.2510    1.0150    2.5620 H   0  0  0  0  0  0  0  0  0  0  0  0
    0.7530   -0.6550    0.0930 H   0  0  0  0  0  0  0  0  0  0  0  0
   -2.3930    1.6830   -2.0490 O   0  0  0  0  0  0  0  0  0  0  0  0
   -3.3060    0.7300   -1.6090 C   0  0  0  0  0  0  0  0  0  0  0  0
   -3.2850    0.7530   -0.0970 C   0  0  2  0  0  0  0  0  0  0  0  0
   -1.9560    0.4360    0.3280 N   0  0  0  0  0  0  0  0  0  0  0  0
   -4.3230   -0.0880    0.4970 C   0  0  0  0  0  0  0  0  0  0  0  0
   -5.5220    0.0920    0.2070 O   0  0  0  0  0  0  0  0  0  0  0  0
   -3.9860   -1.0870    1.3830 O   0  0  0  0  0  0  0  0  0  0  0  0
   -2.8190    2.5800   -2.1580 H   0  0  0  0  0  0  0  0  0  0  0  0
   -4.3010    1.0200   -2.0040 H   0  0  0  0  0  0  0  0  0  0  0  0
   -2.9640   -0.2480   -2.0090 H   0  0  0  0  0  0  0  0  0  0  0  0
   -3.4880    1.8070    0.2130 H   0  0  0  0  0  0  0  0  0  0  0  0
   -1.5760   -0.5130    0.1250 H   0  0  0  0  0  0  0  0  0  0  0  0
  1  9  1  0  0  0  0
  1  2  1  0  0  0  0
  2  3  1  0  0  0  0
  2 12  1  0  0  0  0
  3  5  1  0  0  0  0
  3 14  1  1  0  0  0
  4 17  1  0  0  0  0
  4  3  1  0  0  0  0
  5 18  1  6  0  0  0
  5  7  1  0  0  0  0
  5  6  1  0  0  0  0
  6 19  1  0  0  0  0
  6 20  1  0  0  0  0
  7  8  2  0  0  0  0
 10  1  1  0  0  0  0
 11  1  1  0  0  0  0
 13  2  1  0  0  0  0
 15  4  1  0  0  0  0
 16  4  1  0  0  0  0
 21 22  1  0  0  0  0
 21 29  1  0  0  0  0
 22 23  1  0  0  0  0
 23 34  1  1  0  0  0
 23 25  1  0  0  0  0
 23 24  1  0  0  0  0
 24 35  1  0  0  0  0
 24 37  1  0  0  0  0
 25 38  1  1  0  0  0
 26 25  1  0  0  0  0
 26  7  1  0  0  0  0
 27 28  2  0  0  0  0
 27 25  1  0  0  0  0
 30 21  1  0  0  0  0
 31 21  1  0  0  0  0
 32 22  1  0  0  0  0
 33 22  1  0  0  0  0
 36 24  1  0  0  0  0
 39 26  1  0  0  0  0
 40 41  1  0  0  0  0
 41 42  1  0  0  0  0
 42 50  1  1  0  0  0
 42 43  1  0  0  0  0
 42 44  1  0  0  0  0
 43 27  1  0  0  0  0
 44 46  1  0  0  0  0
 45 44  2  0  0  0  0
 47 40  1  0  0  0  0
 48 41  1  0  0  0  0
 49 41  1  0  0  0  0
 51 43  1  0  0  0  0
M  END
$$$$
