IIV.pdb
 OpenBabel07022418413D

 56 55  0  0  1  0  0  0  0  0999 V2000
   -4.6140    0.3470    3.5170 C   0  0  0  0  0  0  0  0  0  0  0  0
   -3.9300   -0.3580    2.3930 C   0  0  0  0  0  0  0  0  0  0  0  0
   -2.4340   -0.0070    2.2860 C   0  0  2  0  0  0  0  0  0  0  0  0
   -2.3620    1.4560    2.0660 C   0  0  0  0  0  0  0  0  0  0  0  0
   -1.8770   -0.8840    1.2140 C   0  0  2  0  0  0  0  0  0  0  0  0
   -2.1070   -2.2640    1.6660 N   0  0  0  0  0  0  0  0  0  0  0  0
   -0.4970   -0.6690    0.8120 C   0  0  0  0  0  0  0  0  0  0  0  0
    0.3080   -1.6540    0.9480 O   0  0  0  0  0  0  0  0  0  0  0  0
   -5.4070    1.0620    3.1600 H   0  0  0  0  0  0  0  0  0  0  0  0
   -3.9380    0.7980    4.2620 H   0  0  0  0  0  0  0  0  0  0  0  0
   -5.2000   -0.4300    4.0930 H   0  0  0  0  0  0  0  0  0  0  0  0
   -4.0700   -1.4640    2.4370 H   0  0  0  0  0  0  0  0  0  0  0  0
   -4.4270   -0.0530    1.4400 H   0  0  0  0  0  0  0  0  0  0  0  0
   -2.0020   -0.2870    3.2660 H   0  0  0  0  0  0  0  0  0  0  0  0
   -3.0970    1.9230    2.7920 H   0  0  0  0  0  0  0  0  0  0  0  0
   -2.7010    1.7950    1.0780 H   0  0  0  0  0  0  0  0  0  0  0  0
   -1.4120    1.9470    2.3020 H   0  0  0  0  0  0  0  0  0  0  0  0
   -2.5310   -0.7720    0.3160 H   0  0  0  0  0  0  0  0  0  0  0  0
   -2.0340   -2.9400    0.8790 H   0  0  0  0  0  0  0  0  0  0  0  0
   -1.4710   -2.4840    2.4620 H   0  0  0  0  0  0  0  0  0  0  0  0
    1.5160    0.2580    3.1990 C   0  0  0  0  0  0  0  0  0  0  0  0
    2.5830    0.0840    2.1700 C   0  0  0  0  0  0  0  0  0  0  0  0
    2.4600    0.9000    0.9440 C   0  0  2  0  0  0  0  0  0  0  0  0
    2.4610    2.3660    1.3310 C   0  0  0  0  0  0  0  0  0  0  0  0
    1.4630    0.5400   -0.0700 C   0  0  2  0  0  0  0  0  0  0  0  0
    0.0820    0.5090    0.2820 N   0  0  0  0  0  0  0  0  0  0  0  0
    1.8860   -0.5530   -1.0060 C   0  0  0  0  0  0  0  0  0  0  0  0
    3.1270   -0.8000   -1.1900 O   0  0  0  0  0  0  0  0  0  0  0  0
    1.1060   -0.7640    3.4210 H   0  0  0  0  0  0  0  0  0  0  0  0
    0.7450    0.9830    2.9270 H   0  0  0  0  0  0  0  0  0  0  0  0
    1.9180    0.6160    4.1930 H   0  0  0  0  0  0  0  0  0  0  0  0
    2.7890   -0.9980    1.9450 H   0  0  0  0  0  0  0  0  0  0  0  0
    3.5490    0.4190    2.6610 H   0  0  0  0  0  0  0  0  0  0  0  0
    3.4720    0.7830    0.4180 H   0  0  0  0  0  0  0  0  0  0  0  0
    3.4820    2.6010    1.7160 H   0  0  0  0  0  0  0  0  0  0  0  0
    2.3180    3.0070    0.4480 H   0  0  0  0  0  0  0  0  0  0  0  0
    1.7770    2.5960    2.1660 H   0  0  0  0  0  0  0  0  0  0  0  0
    1.5070    1.4450   -0.8160 H   0  0  0  0  0  0  0  0  0  0  0  0
   -0.5650    1.3500    0.1660 H   0  0  0  0  0  0  0  0  0  0  0  0
   -0.7280   -3.4860   -3.0070 C   0  0  0  0  0  0  0  0  0  0  0  0
    0.7280   -3.6840   -2.6040 C   0  0  0  0  0  0  0  0  0  0  0  0
    0.8320   -4.3750   -1.2690 C   0  0  0  0  0  0  0  0  0  0  0  0
    1.4970   -2.4080   -2.6400 C   0  0  2  0  0  0  0  0  0  0  0  0
    1.0000   -1.3690   -1.7480 N   0  0  0  0  0  0  0  0  0  0  0  0
    1.5170   -1.8960   -4.0530 C   0  0  0  0  0  0  0  0  0  0  0  0
    1.9490   -2.6610   -4.9350 O   0  0  0  0  0  0  0  0  0  0  0  0
    1.0840   -0.6350   -4.4000 O   0  0  0  0  0  0  0  0  0  0  0  0
   -1.1730   -4.4860   -3.1690 H   0  0  0  0  0  0  0  0  0  0  0  0
   -0.7670   -2.9360   -3.9840 H   0  0  0  0  0  0  0  0  0  0  0  0
   -1.3180   -2.9500   -2.2520 H   0  0  0  0  0  0  0  0  0  0  0  0
    1.2010   -4.3600   -3.3690 H   0  0  0  0  0  0  0  0  0  0  0  0
    1.8690   -4.2990   -0.8940 H   0  0  0  0  0  0  0  0  0  0  0  0
    0.1800   -3.8960   -0.5100 H   0  0  0  0  0  0  0  0  0  0  0  0
    0.5810   -5.4530   -1.3920 H   0  0  0  0  0  0  0  0  0  0  0  0
    2.5530   -2.5830   -2.3890 H   0  0  0  0  0  0  0  0  0  0  0  0
   -0.0310   -1.2290   -1.6740 H   0  0  0  0  0  0  0  0  0  0  0  0
  1 11  1  0  0  0  0
  1 10  1  0  0  0  0
  2 12  1  0  0  0  0
  2  1  1  0  0  0  0
  3  2  1  0  0  0  0
  3 14  1  1  0  0  0
  4  3  1  0  0  0  0
  4 17  1  0  0  0  0
  4 15  1  0  0  0  0
  5 18  1  6  0  0  0
  5  6  1  0  0  0  0
  5  3  1  0  0  0  0
  6 20  1  0  0  0  0
  7  8  2  0  0  0  0
  7  5  1  0  0  0  0
  9  1  1  0  0  0  0
 13  2  1  0  0  0  0
 16  4  1  0  0  0  0
 19  6  1  0  0  0  0
 21 29  1  0  0  0  0
 21 31  1  0  0  0  0
 22 33  1  0  0  0  0
 22 21  1  0  0  0  0
 23 34  1  6  0  0  0
 23 24  1  0  0  0  0
 23 22  1  0  0  0  0
 24 35  1  0  0  0  0
 24 37  1  0  0  0  0
 25 38  1  6  0  0  0
 25 26  1  0  0  0  0
 25 23  1  0  0  0  0
 26  7  1  0  0  0  0
 27 25  1  0  0  0  0
 28 27  2  0  0  0  0
 30 21  1  0  0  0  0
 32 22  1  0  0  0  0
 36 24  1  0  0  0  0
 39 26  1  0  0  0  0
 40 41  1  0  0  0  0
 40 50  1  0  0  0  0
 41 42  1  0  0  0  0
 42 52  1  0  0  0  0
 42 53  1  0  0  0  0
 43 41  1  0  0  0  0
 43 55  1  1  0  0  0
 43 44  1  0  0  0  0
 44 56  1  0  0  0  0
 44 27  1  0  0  0  0
 45 43  1  0  0  0  0
 46 45  2  0  0  0  0
 47 45  1  0  0  0  0
 48 40  1  0  0  0  0
 49 40  1  0  0  0  0
 51 41  1  0  0  0  0
 54 42  1  0  0  0  0
M  END
$$$$
