IIW.pdb
 OpenBabel07022418413D

 64 65  0  0  1  0  0  0  0  0999 V2000
    3.6240   -3.1990    1.2840 C   0  0  0  0  0  0  0  0  0  0  0  0
    3.4310   -1.7730    0.7940 C   0  0  0  0  0  0  0  0  0  0  0  0
    4.2400   -0.7930    1.5580 C   0  0  2  0  0  0  0  0  0  0  0  0
    3.8650   -0.8070    3.0240 C   0  0  0  0  0  0  0  0  0  0  0  0
    4.2870    0.5720    0.9570 C   0  0  2  0  0  0  0  0  0  0  0  0
    5.1260    1.4540    1.8120 N   0  0  0  0  0  0  0  0  0  0  0  0
    2.9660    1.2090    0.7490 C   0  0  0  0  0  0  0  0  0  0  0  0
    2.6680    2.1710    1.5000 O   0  0  0  0  0  0  0  0  0  0  0  0
    3.4770   -3.8750    0.4180 H   0  0  0  0  0  0  0  0  0  0  0  0
    2.8710   -3.4750    2.0440 H   0  0  0  0  0  0  0  0  0  0  0  0
    4.6510   -3.3820    1.6560 H   0  0  0  0  0  0  0  0  0  0  0  0
    3.6960   -1.7190   -0.2760 H   0  0  0  0  0  0  0  0  0  0  0  0
    2.3310   -1.5280    0.8610 H   0  0  0  0  0  0  0  0  0  0  0  0
    5.3130   -1.1670    1.5430 H   0  0  0  0  0  0  0  0  0  0  0  0
    4.1840   -1.7880    3.4320 H   0  0  0  0  0  0  0  0  0  0  0  0
    2.7720   -0.6960    3.1750 H   0  0  0  0  0  0  0  0  0  0  0  0
    4.3500   -0.0140    3.5960 H   0  0  0  0  0  0  0  0  0  0  0  0
    4.8170    0.5310   -0.0120 H   0  0  0  0  0  0  0  0  0  0  0  0
    5.3450    2.2770    1.1750 H   0  0  0  0  0  0  0  0  0  0  0  0
    5.9910    0.9000    2.0340 H   0  0  0  0  0  0  0  0  0  0  0  0
   -1.5020    2.4810   -2.5880 C   0  0  0  0  0  0  0  0  0  0  0  0
   -0.2580    3.1240   -2.0810 C   0  0  0  0  0  0  0  0  0  0  0  0
    0.8350    2.2320   -1.6250 C   0  0  2  0  0  0  0  0  0  0  0  0
    1.2510    1.3060   -2.7700 C   0  0  0  0  0  0  0  0  0  0  0  0
    0.7500    1.5560   -0.3090 C   0  0  2  0  0  0  0  0  0  0  0  0
    2.0490    0.8010   -0.2310 N   0  0  0  0  0  0  0  0  0  0  0  0
   -0.3260    0.5910   -0.1490 C   0  0  0  0  0  0  0  0  0  0  0  0
   -0.0180   -0.6530   -0.2230 O   0  0  0  0  0  0  0  0  0  0  0  0
   -1.4480    1.3990   -2.5460 H   0  0  0  0  0  0  0  0  0  0  0  0
   -2.4140    2.9320   -2.0920 H   0  0  0  0  0  0  0  0  0  0  0  0
   -1.6370    2.7680   -3.6680 H   0  0  0  0  0  0  0  0  0  0  0  0
   -0.5170    3.8700   -1.2750 H   0  0  0  0  0  0  0  0  0  0  0  0
    0.1700    3.7530   -2.9220 H   0  0  0  0  0  0  0  0  0  0  0  0
    1.7710    2.9470   -1.5890 H   0  0  0  0  0  0  0  0  0  0  0  0
    0.7340    0.3170   -2.6620 H   0  0  0  0  0  0  0  0  0  0  0  0
    2.3430    1.1150   -2.7510 H   0  0  0  0  0  0  0  0  0  0  0  0
    1.0060    1.7840   -3.7230 H   0  0  0  0  0  0  0  0  0  0  0  0
    0.7380    2.3170    0.5270 H   0  0  0  0  0  0  0  0  0  0  0  0
    2.2070    0.0320   -0.8980 H   0  0  0  0  0  0  0  0  0  0  0  0
   -1.7040    0.8230    0.0960 N   0  0  0  0  0  0  0  0  0  0  0  0
   -2.6250   -0.2500    0.2640 C   0  0  1  0  0  0  0  0  0  0  0  0
   -2.9610   -0.4770    1.7370 C   0  0  0  0  0  0  0  0  0  0  0  0
   -3.9200   -1.6050    1.8100 C   0  0  0  0  0  0  0  0  0  0  0  0
   -5.2780   -1.5180    2.0390 C   0  0  0  0  0  0  0  0  0  0  0  0
   -5.8060   -2.7540    2.0370 N   0  0  0  0  0  0  0  0  0  0  0  0
   -4.8310   -3.6660    1.8110 C   0  0  0  0  0  0  0  0  0  0  0  0
   -4.7990   -5.0370    1.7070 C   0  0  0  0  0  0  0  0  0  0  0  0
   -3.6410   -5.7530    1.4660 C   0  0  0  0  0  0  0  0  0  0  0  0
   -2.4870   -5.0080    1.3300 C   0  0  0  0  0  0  0  0  0  0  0  0
   -2.4730   -3.6390    1.4270 C   0  0  0  0  0  0  0  0  0  0  0  0
   -3.6660   -2.9640    1.6700 C   0  0  0  0  0  0  0  0  0  0  0  0
   -3.8200   -0.1050   -0.5510 C   0  0  0  0  0  0  0  0  0  0  0  0
   -4.7390   -0.9860   -0.5940 O   0  0  0  0  0  0  0  0  0  0  0  0
   -4.0530    1.0000   -1.3420 O   0  0  0  0  0  0  0  0  0  0  0  0
   -2.0500    1.8050    0.1590 H   0  0  0  0  0  0  0  0  0  0  0  0
   -2.1030   -1.2020   -0.0480 H   0  0  0  0  0  0  0  0  0  0  0  0
   -3.3780    0.4180    2.1950 H   0  0  0  0  0  0  0  0  0  0  0  0
   -2.0020   -0.8230    2.2090 H   0  0  0  0  0  0  0  0  0  0  0  0
   -5.8800   -0.6100    2.2040 H   0  0  0  0  0  0  0  0  0  0  0  0
   -6.7970   -3.0620    2.1770 H   0  0  0  0  0  0  0  0  0  0  0  0
   -5.7230   -5.6150    1.8170 H   0  0  0  0  0  0  0  0  0  0  0  0
   -3.6060   -6.8300    1.3830 H   0  0  0  0  0  0  0  0  0  0  0  0
   -1.5340   -5.5020    1.1390 H   0  0  0  0  0  0  0  0  0  0  0  0
   -1.5360   -3.0820    1.3140 H   0  0  0  0  0  0  0  0  0  0  0  0
  1 11  1  0  0  0  0
  1 10  1  0  0  0  0
  2 13  1  0  0  0  0
  2  1  1  0  0  0  0
  2  3  1  0  0  0  0
  3 14  1  6  0  0  0
  3  4  1  0  0  0  0
  4 16  1  0  0  0  0
  4 15  1  0  0  0  0
  4 17  1  0  0  0  0
  5 18  1  6  0  0  0
  5  3  1  0  0  0  0
  5  6  1  0  0  0  0
  6 20  1  0  0  0  0
  7  5  1  0  0  0  0
  7  8  2  0  0  0  0
  9  1  1  0  0  0  0
 12  2  1  0  0  0  0
 19  6  1  0  0  0  0
 21 29  1  0  0  0  0
 21 30  1  0  0  0  0
 21 22  1  0  0  0  0
 22 23  1  0  0  0  0
 22 32  1  0  0  0  0
 23 34  1  1  0  0  0
 23 25  1  0  0  0  0
 24 36  1  0  0  0  0
 24 35  1  0  0  0  0
 24 23  1  0  0  0  0
 25 26  1  0  0  0  0
 25 27  1  0  0  0  0
 25 38  1  1  0  0  0
 26  7  1  0  0  0  0
 27 40  1  0  0  0  0
 28 27  2  0  0  0  0
 31 21  1  0  0  0  0
 33 22  1  0  0  0  0
 37 24  1  0  0  0  0
 39 26  1  0  0  0  0
 40 55  1  0  0  0  0
 40 41  1  0  0  0  0
 41 56  1  6  0  0  0
 41 42  1  0  0  0  0
 42 43  1  0  0  0  0
 42 57  1  0  0  0  0
 42 58  1  0  0  0  0
 43 44  2  0  0  0  0
 44 59  1  0  0  0  0
 45 44  1  0  0  0  0
 45 60  1  0  0  0  0
 46 45  1  0  0  0  0
 47 46  1  0  0  0  0
 47 61  1  0  0  0  0
 48 47  2  0  0  0  0
 49 50  2  0  0  0  0
 49 48  1  0  0  0  0
 50 51  1  0  0  0  0
 51 43  1  0  0  0  0
 51 46  2  0  0  0  0
 52 41  1  0  0  0  0
 53 52  1  0  0  0  0
 54 52  2  0  0  0  0
 62 48  1  0  0  0  0
 63 49  1  0  0  0  0
 64 50  1  0  0  0  0
M  END
$$$$
