IIY.pdb
 OpenBabel07022418413D

 61 61  0  0  1  0  0  0  0  0999 V2000
    0.7030   -0.9120    3.7560 C   0  0  0  0  0  0  0  0  0  0  0  0
    2.1240   -1.2320    3.5550 C   0  0  0  0  0  0  0  0  0  0  0  0
    2.8830   -0.4850    2.5250 C   0  0  2  0  0  0  0  0  0  0  0  0
    4.3400   -0.9730    2.4790 C   0  0  0  0  0  0  0  0  0  0  0  0
    2.8140    0.9890    2.5490 C   0  0  2  0  0  0  0  0  0  0  0  0
    3.2780    1.5850    3.7820 N   0  0  0  0  0  0  0  0  0  0  0  0
    1.5370    1.4830    2.0540 C   0  0  0  0  0  0  0  0  0  0  0  0
    0.7950    2.2930    2.6920 O   0  0  0  0  0  0  0  0  0  0  0  0
    0.6010   -0.2720    4.6870 H   0  0  0  0  0  0  0  0  0  0  0  0
    0.1290   -1.8420    4.0570 H   0  0  0  0  0  0  0  0  0  0  0  0
    0.1720   -0.3700    2.9850 H   0  0  0  0  0  0  0  0  0  0  0  0
    2.2080   -2.3510    3.3950 H   0  0  0  0  0  0  0  0  0  0  0  0
    2.6810   -1.0970    4.5310 H   0  0  0  0  0  0  0  0  0  0  0  0
    2.4800   -0.8250    1.5290 H   0  0  0  0  0  0  0  0  0  0  0  0
    4.8860   -0.6850    3.3800 H   0  0  0  0  0  0  0  0  0  0  0  0
    4.2800   -2.0680    2.3050 H   0  0  0  0  0  0  0  0  0  0  0  0
    4.7720   -0.5340    1.5490 H   0  0  0  0  0  0  0  0  0  0  0  0
    3.5820    1.3400    1.7790 H   0  0  0  0  0  0  0  0  0  0  0  0
    3.6260    0.9160    4.4720 H   0  0  0  0  0  0  0  0  0  0  0  0
    3.8600    2.4410    3.6440 H   0  0  0  0  0  0  0  0  0  0  0  0
    1.5490    4.0430   -2.0240 C   0  0  0  0  0  0  0  0  0  0  0  0
    1.0800    3.4550   -0.7070 C   0  0  0  0  0  0  0  0  0  0  0  0
    0.1880    2.2810   -1.0410 C   0  0  2  0  0  0  0  0  0  0  0  0
   -0.9930    2.6960   -1.8530 C   0  0  0  0  0  0  0  0  0  0  0  0
   -0.1710    1.5050    0.2160 C   0  0  2  0  0  0  0  0  0  0  0  0
    1.0810    1.0470    0.7810 N   0  0  0  0  0  0  0  0  0  0  0  0
   -1.1420    0.4390   -0.0490 C   0  0  0  0  0  0  0  0  0  0  0  0
   -2.2800    0.7130   -0.5610 O   0  0  0  0  0  0  0  0  0  0  0  0
    2.5700    4.4470   -1.8520 H   0  0  0  0  0  0  0  0  0  0  0  0
    0.8240    4.7830   -2.3850 H   0  0  0  0  0  0  0  0  0  0  0  0
    1.6700    3.1770   -2.7170 H   0  0  0  0  0  0  0  0  0  0  0  0
    1.9620    3.0310   -0.1810 H   0  0  0  0  0  0  0  0  0  0  0  0
    0.5750    4.2080   -0.0780 H   0  0  0  0  0  0  0  0  0  0  0  0
    0.8180    1.6120   -1.7000 H   0  0  0  0  0  0  0  0  0  0  0  0
   -0.6220    3.3630   -2.6840 H   0  0  0  0  0  0  0  0  0  0  0  0
   -1.7460    3.2820   -1.3260 H   0  0  0  0  0  0  0  0  0  0  0  0
   -1.4500    1.8370   -2.4120 H   0  0  0  0  0  0  0  0  0  0  0  0
   -0.6150    2.2230    0.9300 H   0  0  0  0  0  0  0  0  0  0  0  0
    1.6160    0.3730    0.1700 H   0  0  0  0  0  0  0  0  0  0  0  0
   -5.5400   -6.8330   -2.2260 O   0  0  0  0  0  0  0  0  0  0  0  0
   -4.5400   -5.9000   -1.8970 C   0  0  0  0  0  0  0  0  0  0  0  0
   -4.3590   -4.7530   -2.6390 C   0  0  0  0  0  0  0  0  0  0  0  0
   -3.3770   -3.8470   -2.3070 C   0  0  0  0  0  0  0  0  0  0  0  0
   -2.5150   -4.0310   -1.2150 C   0  0  0  0  0  0  0  0  0  0  0  0
   -1.4520   -3.0480   -0.9180 C   0  0  0  0  0  0  0  0  0  0  0  0
   -1.9800   -1.9340   -0.0960 C   0  0  2  0  0  0  0  0  0  0  0  0
   -0.9480   -0.9450    0.2140 N   0  0  0  0  0  0  0  0  0  0  0  0
   -2.5420   -2.4310    1.1660 C   0  0  0  0  0  0  0  0  0  0  0  0
   -3.5020   -3.2210    1.1650 O   0  0  0  0  0  0  0  0  0  0  0  0
   -2.7220   -5.1930   -0.4900 C   0  0  0  0  0  0  0  0  0  0  0  0
   -3.7050   -6.1030   -0.8180 C   0  0  0  0  0  0  0  0  0  0  0  0
   -2.0100   -2.0220    2.3700 O   0  0  0  0  0  0  0  0  0  0  0  0
   -6.2340   -7.1340   -1.5480 H   0  0  0  0  0  0  0  0  0  0  0  0
   -5.0240   -4.6030   -3.4920 H   0  0  0  0  0  0  0  0  0  0  0  0
   -3.2270   -2.9400   -2.8860 H   0  0  0  0  0  0  0  0  0  0  0  0
   -0.6280   -3.5990   -0.4090 H   0  0  0  0  0  0  0  0  0  0  0  0
   -1.0590   -2.7140   -1.9150 H   0  0  0  0  0  0  0  0  0  0  0  0
   -2.8320   -1.4430   -0.6330 H   0  0  0  0  0  0  0  0  0  0  0  0
   -0.0450   -1.2390    0.6340 H   0  0  0  0  0  0  0  0  0  0  0  0
   -2.0790   -5.3870    0.3600 H   0  0  0  0  0  0  0  0  0  0  0  0
   -3.8380   -6.9920   -0.2350 H   0  0  0  0  0  0  0  0  0  0  0  0
  1 10  1  0  0  0  0
  1  9  1  0  0  0  0
  2  1  1  0  0  0  0
  2 13  1  0  0  0  0
  3 14  1  6  0  0  0
  3  5  1  0  0  0  0
  3  2  1  0  0  0  0
  4  3  1  0  0  0  0
  4 15  1  0  0  0  0
  5 18  1  6  0  0  0
  5  6  1  0  0  0  0
  6 19  1  0  0  0  0
  7  5  1  0  0  0  0
  7  8  2  0  0  0  0
 11  1  1  0  0  0  0
 12  2  1  0  0  0  0
 16  4  1  0  0  0  0
 17  4  1  0  0  0  0
 20  6  1  0  0  0  0
 21 29  1  0  0  0  0
 21 22  1  0  0  0  0
 22 32  1  0  0  0  0
 22 33  1  0  0  0  0
 23 34  1  6  0  0  0
 23 22  1  0  0  0  0
 23 25  1  0  0  0  0
 24 36  1  0  0  0  0
 24 23  1  0  0  0  0
 25 26  1  0  0  0  0
 25 38  1  1  0  0  0
 26  7  1  0  0  0  0
 27 47  1  0  0  0  0
 27 25  1  0  0  0  0
 28 27  2  0  0  0  0
 30 21  1  0  0  0  0
 31 21  1  0  0  0  0
 35 24  1  0  0  0  0
 37 24  1  0  0  0  0
 39 26  1  0  0  0  0
 40 41  1  0  0  0  0
 40 53  1  0  0  0  0
 41 51  1  0  0  0  0
 42 43  1  0  0  0  0
 42 41  2  0  0  0  0
 43 44  2  0  0  0  0
 44 45  1  0  0  0  0
 44 50  1  0  0  0  0
 45 56  1  0  0  0  0
 45 46  1  0  0  0  0
 46 58  1  6  0  0  0
 46 47  1  0  0  0  0
 46 48  1  0  0  0  0
 47 59  1  0  0  0  0
 48 52  1  0  0  0  0
 49 48  2  0  0  0  0
 50 60  1  0  0  0  0
 51 50  2  0  0  0  0
 51 61  1  0  0  0  0
 54 42  1  0  0  0  0
 55 43  1  0  0  0  0
 57 45  1  0  0  0  0
M  END
$$$$
