IKA.pdb
 OpenBabel07022418423D

 52 51  0  0  1  0  0  0  0  0999 V2000
   -0.2170   -5.0310    2.7400 C   0  0  0  0  0  0  0  0  0  0  0  0
    0.7680   -3.9780    3.1360 C   0  0  0  0  0  0  0  0  0  0  0  0
    0.2760   -2.5870    2.7740 C   0  0  2  0  0  0  0  0  0  0  0  0
   -1.0420   -2.3130    3.4950 C   0  0  0  0  0  0  0  0  0  0  0  0
    0.0950   -2.4370    1.2820 C   0  0  2  0  0  0  0  0  0  0  0  0
    1.3520   -2.6640    0.6100 N   0  0  0  0  0  0  0  0  0  0  0  0
   -0.4300   -1.0710    1.0350 C   0  0  0  0  0  0  0  0  0  0  0  0
   -1.5010   -0.7060    1.5740 O   0  0  0  0  0  0  0  0  0  0  0  0
    0.0750   -5.9900    3.2230 H   0  0  0  0  0  0  0  0  0  0  0  0
   -1.2270   -4.7770    3.1100 H   0  0  0  0  0  0  0  0  0  0  0  0
   -0.2070   -5.2080    1.6380 H   0  0  0  0  0  0  0  0  0  0  0  0
    1.7570   -4.1340    2.6720 H   0  0  0  0  0  0  0  0  0  0  0  0
    0.8440   -3.9970    4.2510 H   0  0  0  0  0  0  0  0  0  0  0  0
    0.9980   -1.8150    3.1010 H   0  0  0  0  0  0  0  0  0  0  0  0
   -1.9190   -2.5820    2.8910 H   0  0  0  0  0  0  0  0  0  0  0  0
   -1.1450   -1.2570    3.8100 H   0  0  0  0  0  0  0  0  0  0  0  0
   -1.0240   -2.9090    4.4370 H   0  0  0  0  0  0  0  0  0  0  0  0
   -0.6060   -3.2200    0.9010 H   0  0  0  0  0  0  0  0  0  0  0  0
    2.1290   -2.6390    1.3110 H   0  0  0  0  0  0  0  0  0  0  0  0
    1.3610   -3.5200    0.0180 H   0  0  0  0  0  0  0  0  0  0  0  0
    0.2320   -0.1380    0.2020 N   0  0  0  0  0  0  0  0  0  0  0  0
   -0.1990    1.1970   -0.1010 C   0  0  1  0  0  0  0  0  0  0  0  0
    0.8960    2.2010   -0.1500 C   0  0  0  0  0  0  0  0  0  0  0  0
    1.7310    2.4460    1.0370 C   0  0  0  0  0  0  0  0  0  0  0  0
    1.1530    2.9880    2.2790 C   0  0  0  0  0  0  0  0  0  0  0  0
    0.1220    2.2260    3.0130 C   0  0  0  0  0  0  0  0  0  0  0  0
    0.5700    0.9110    3.4270 N   0  0  0  0  0  0  0  0  0  0  0  0
   -0.8020    1.0710   -1.5130 C   0  0  0  0  0  0  0  0  0  0  0  0
   -1.2780    2.0570   -2.0880 O   0  0  0  0  0  0  0  0  0  0  0  0
    1.1370   -0.5030   -0.2230 H   0  0  0  0  0  0  0  0  0  0  0  0
   -1.0520    1.5720    0.4650 H   0  0  0  0  0  0  0  0  0  0  0  0
    1.6150    1.8810   -0.9860 H   0  0  0  0  0  0  0  0  0  0  0  0
    0.5170    3.1950   -0.5510 H   0  0  0  0  0  0  0  0  0  0  0  0
    2.5880    3.1570    0.7410 H   0  0  0  0  0  0  0  0  0  0  0  0
    2.2530    1.4460    1.2970 H   0  0  0  0  0  0  0  0  0  0  0  0
    0.6840    3.9960    2.0020 H   0  0  0  0  0  0  0  0  0  0  0  0
    1.9700    3.2190    3.0470 H   0  0  0  0  0  0  0  0  0  0  0  0
   -0.0190    2.7670    4.0300 H   0  0  0  0  0  0  0  0  0  0  0  0
   -0.8470    2.2820    2.5520 H   0  0  0  0  0  0  0  0  0  0  0  0
    0.2340    0.6460    4.3780 H   0  0  0  0  0  0  0  0  0  0  0  0
    1.6110    0.8390    3.4300 H   0  0  0  0  0  0  0  0  0  0  0  0
   -0.3480   -0.9190   -4.4060 C   0  0  0  0  0  0  0  0  0  0  0  0
   -1.3850   -0.3170   -3.5020 C   0  0  2  0  0  0  0  0  0  0  0  0
   -0.8140   -0.1770   -2.1570 N   0  0  0  0  0  0  0  0  0  0  0  0
   -2.5250   -1.2620   -3.4120 C   0  0  0  0  0  0  0  0  0  0  0  0
   -2.8580   -1.7900   -2.3260 O   0  0  0  0  0  0  0  0  0  0  0  0
   -3.2840   -1.6090   -4.5270 O   0  0  0  0  0  0  0  0  0  0  0  0
   -0.7970   -1.4900   -5.2380 H   0  0  0  0  0  0  0  0  0  0  0  0
    0.2520   -1.6330   -3.8100 H   0  0  0  0  0  0  0  0  0  0  0  0
    0.3410   -0.1240   -4.8100 H   0  0  0  0  0  0  0  0  0  0  0  0
   -1.7660    0.6550   -3.8740 H   0  0  0  0  0  0  0  0  0  0  0  0
   -0.4300   -1.0430   -1.7250 H   0  0  0  0  0  0  0  0  0  0  0  0
  1 10  1  0  0  0  0
  1  2  1  0  0  0  0
  1  9  1  0  0  0  0
  2 13  1  0  0  0  0
  3 14  1  1  0  0  0
  3  2  1  0  0  0  0
  3  4  1  0  0  0  0
  4 16  1  0  0  0  0
  4 17  1  0  0  0  0
  5 18  1  6  0  0  0
  5  3  1  0  0  0  0
  6  5  1  0  0  0  0
  6 19  1  0  0  0  0
  7  5  1  0  0  0  0
  7  8  2  0  0  0  0
 11  1  1  0  0  0  0
 12  2  1  0  0  0  0
 15  4  1  0  0  0  0
 20  6  1  0  0  0  0
 21  7  1  0  0  0  0
 22 21  1  0  0  0  0
 22 31  1  1  0  0  0
 23 22  1  0  0  0  0
 23 24  1  0  0  0  0
 24 35  1  0  0  0  0
 24 25  1  0  0  0  0
 25 26  1  0  0  0  0
 25 37  1  0  0  0  0
 26 27  1  0  0  0  0
 26 38  1  0  0  0  0
 27 41  1  0  0  0  0
 27 40  1  0  0  0  0
 28 22  1  0  0  0  0
 29 28  2  0  0  0  0
 30 21  1  0  0  0  0
 32 23  1  0  0  0  0
 33 23  1  0  0  0  0
 34 24  1  0  0  0  0
 36 25  1  0  0  0  0
 39 26  1  0  0  0  0
 42 49  1  0  0  0  0
 42 43  1  0  0  0  0
 43 51  1  6  0  0  0
 43 45  1  0  0  0  0
 43 44  1  0  0  0  0
 44 52  1  0  0  0  0
 44 28  1  0  0  0  0
 45 46  1  0  0  0  0
 47 45  2  0  0  0  0
 48 42  1  0  0  0  0
 50 42  1  0  0  0  0
M  END
$$$$
