IKE.pdb
 OpenBabel07022418423D

 58 57  0  0  1  0  0  0  0  0999 V2000
    0.5770    0.9270    3.4260 C   0  0  0  0  0  0  0  0  0  0  0  0
    1.0190   -0.2390    4.2620 C   0  0  0  0  0  0  0  0  0  0  0  0
    1.2750   -1.4890    3.4970 C   0  0  2  0  0  0  0  0  0  0  0  0
    1.7050   -2.6170    4.4610 C   0  0  0  0  0  0  0  0  0  0  0  0
    2.2470   -1.4080    2.3660 C   0  0  2  0  0  0  0  0  0  0  0  0
    3.5390   -0.9740    2.8170 N   0  0  0  0  0  0  0  0  0  0  0  0
    1.7660   -0.6150    1.2090 C   0  0  0  0  0  0  0  0  0  0  0  0
    2.5620    0.1930    0.6950 O   0  0  0  0  0  0  0  0  0  0  0  0
    1.3410    1.3530    2.7810 H   0  0  0  0  0  0  0  0  0  0  0  0
    0.2640    1.7830    4.1070 H   0  0  0  0  0  0  0  0  0  0  0  0
   -0.3630    0.6400    2.9070 H   0  0  0  0  0  0  0  0  0  0  0  0
    0.1340   -0.4740    4.9370 H   0  0  0  0  0  0  0  0  0  0  0  0
    1.8710    0.0260    4.9360 H   0  0  0  0  0  0  0  0  0  0  0  0
    0.2610   -1.8480    3.1440 H   0  0  0  0  0  0  0  0  0  0  0  0
    0.8300   -2.8480    5.0700 H   0  0  0  0  0  0  0  0  0  0  0  0
    2.5960   -2.2910    5.0060 H   0  0  0  0  0  0  0  0  0  0  0  0
    1.9030   -3.5180    3.8230 H   0  0  0  0  0  0  0  0  0  0  0  0
    2.3660   -2.4800    1.9920 H   0  0  0  0  0  0  0  0  0  0  0  0
    3.9650   -0.1980    2.2990 H   0  0  0  0  0  0  0  0  0  0  0  0
    4.1840   -1.7400    3.0900 H   0  0  0  0  0  0  0  0  0  0  0  0
    0.4650   -0.7380    0.6730 N   0  0  0  0  0  0  0  0  0  0  0  0
   -0.1640   -0.0710   -0.3940 C   0  0  1  0  0  0  0  0  0  0  0  0
    0.4360    1.1100   -1.0380 C   0  0  0  0  0  0  0  0  0  0  0  0
    0.6110    2.3520   -0.2610 C   0  0  0  0  0  0  0  0  0  0  0  0
   -0.7050    2.9260    0.2550 C   0  0  0  0  0  0  0  0  0  0  0  0
   -0.4610    4.2020    1.0340 C   0  0  0  0  0  0  0  0  0  0  0  0
    0.1610    5.2180    0.2500 N   0  0  0  0  0  0  0  0  0  0  0  0
   -0.6800   -1.0560   -1.4040 C   0  0  0  0  0  0  0  0  0  0  0  0
   -1.3000   -0.6620   -2.4110 O   0  0  0  0  0  0  0  0  0  0  0  0
   -0.1100   -1.4940    1.2170 H   0  0  0  0  0  0  0  0  0  0  0  0
   -1.1680    0.4020    0.0290 H   0  0  0  0  0  0  0  0  0  0  0  0
   -0.0440    1.2920   -2.0500 H   0  0  0  0  0  0  0  0  0  0  0  0
    1.4920    0.7980   -1.3520 H   0  0  0  0  0  0  0  0  0  0  0  0
    1.0040    3.1290   -1.0000 H   0  0  0  0  0  0  0  0  0  0  0  0
    1.2500    2.2680    0.5860 H   0  0  0  0  0  0  0  0  0  0  0  0
   -1.1590    2.2090    0.9520 H   0  0  0  0  0  0  0  0  0  0  0  0
   -1.3960    3.1690   -0.5740 H   0  0  0  0  0  0  0  0  0  0  0  0
   -1.4430    4.5640    1.3870 H   0  0  0  0  0  0  0  0  0  0  0  0
    0.1660    3.9800    1.9370 H   0  0  0  0  0  0  0  0  0  0  0  0
    0.9320    5.7300    0.7300 H   0  0  0  0  0  0  0  0  0  0  0  0
   -0.5570    5.9290   -0.0040 H   0  0  0  0  0  0  0  0  0  0  0  0
   -0.4910   -2.4360   -1.2540 N   0  0  0  0  0  0  0  0  0  0  0  0
   -0.8770   -3.5530   -1.9960 C   0  0  1  0  0  0  0  0  0  0  0  0
   -1.7290   -3.4970   -3.1890 C   0  0  0  0  0  0  0  0  0  0  0  0
   -3.1380   -3.0390   -3.0040 C   0  0  0  0  0  0  0  0  0  0  0  0
   -3.9220   -3.9770   -2.1190 C   0  0  0  0  0  0  0  0  0  0  0  0
   -5.0340   -3.5760   -1.6990 O   0  0  0  0  0  0  0  0  0  0  0  0
    0.1960   -4.5680   -2.0660 C   0  0  0  0  0  0  0  0  0  0  0  0
   -0.0240   -5.6260   -2.6990 O   0  0  0  0  0  0  0  0  0  0  0  0
   -3.4850   -5.2300   -1.7560 O   0  0  0  0  0  0  0  0  0  0  0  0
    1.4190   -4.3930   -1.4660 O   0  0  0  0  0  0  0  0  0  0  0  0
    0.0880   -2.7060   -0.3680 H   0  0  0  0  0  0  0  0  0  0  0  0
   -1.6550   -4.0600   -1.2330 H   0  0  0  0  0  0  0  0  0  0  0  0
   -1.2430   -3.0360   -4.0840 H   0  0  0  0  0  0  0  0  0  0  0  0
   -1.8320   -4.5810   -3.5330 H   0  0  0  0  0  0  0  0  0  0  0  0
   -3.6570   -3.1270   -4.0090 H   0  0  0  0  0  0  0  0  0  0  0  0
   -3.3140   -2.0610   -2.5720 H   0  0  0  0  0  0  0  0  0  0  0  0
   -4.0410   -5.8340   -1.1360 H   0  0  0  0  0  0  0  0  0  0  0  0
  1 10  1  0  0  0  0
  1  2  1  0  0  0  0
  2 13  1  0  0  0  0
  2 12  1  0  0  0  0
  3 14  1  6  0  0  0
  3  2  1  0  0  0  0
  3  4  1  0  0  0  0
  4 16  1  0  0  0  0
  4 15  1  0  0  0  0
  5 18  1  6  0  0  0
  5  6  1  0  0  0  0
  5  3  1  0  0  0  0
  6 20  1  0  0  0  0
  7  5  1  0  0  0  0
  8  7  2  0  0  0  0
  9  1  1  0  0  0  0
 11  1  1  0  0  0  0
 17  4  1  0  0  0  0
 19  6  1  0  0  0  0
 21  7  1  0  0  0  0
 21 30  1  0  0  0  0
 22 31  1  1  0  0  0
 22 21  1  0  0  0  0
 23 22  1  0  0  0  0
 23 24  1  0  0  0  0
 24 25  1  0  0  0  0
 24 35  1  0  0  0  0
 25 36  1  0  0  0  0
 25 26  1  0  0  0  0
 26 38  1  0  0  0  0
 26 39  1  0  0  0  0
 27 40  1  0  0  0  0
 27 26  1  0  0  0  0
 28 42  1  0  0  0  0
 28 22  1  0  0  0  0
 29 28  2  0  0  0  0
 32 23  1  0  0  0  0
 33 23  1  0  0  0  0
 34 24  1  0  0  0  0
 37 25  1  0  0  0  0
 41 27  1  0  0  0  0
 42 52  1  0  0  0  0
 43 42  1  0  0  0  0
 43 53  1  1  0  0  0
 44 45  1  0  0  0  0
 44 43  1  0  0  0  0
 45 57  1  0  0  0  0
 45 46  1  0  0  0  0
 46 50  1  0  0  0  0
 46 47  2  0  0  0  0
 48 43  1  0  0  0  0
 48 51  1  0  0  0  0
 49 48  2  0  0  0  0
 50 58  1  0  0  0  0
 54 44  1  0  0  0  0
 55 44  1  0  0  0  0
 56 45  1  0  0  0  0
M  END
$$$$
