IKG.pdb
 OpenBabel07022418423D

 49 48  0  0  1  0  0  0  0  0999 V2000
    1.3280   -5.6590    1.6920 C   0  0  0  0  0  0  0  0  0  0  0  0
    0.1730   -5.3770    0.8000 C   0  0  0  0  0  0  0  0  0  0  0  0
    0.1070   -3.8990    0.3870 C   0  0  2  0  0  0  0  0  0  0  0  0
    1.4350   -3.6810   -0.3360 C   0  0  0  0  0  0  0  0  0  0  0  0
   -0.0960   -3.0280    1.5700 C   0  0  2  0  0  0  0  0  0  0  0  0
   -1.3550   -3.4390    2.2700 N   0  0  0  0  0  0  0  0  0  0  0  0
   -0.2460   -1.5990    1.3750 C   0  0  0  0  0  0  0  0  0  0  0  0
   -1.2860   -0.9980    1.8690 O   0  0  0  0  0  0  0  0  0  0  0  0
    1.8440   -6.5780    1.3120 H   0  0  0  0  0  0  0  0  0  0  0  0
    2.0840   -4.8690    1.7330 H   0  0  0  0  0  0  0  0  0  0  0  0
    0.9680   -5.9540    2.7200 H   0  0  0  0  0  0  0  0  0  0  0  0
    0.1910   -5.9520   -0.1490 H   0  0  0  0  0  0  0  0  0  0  0  0
   -0.7940   -5.6210    1.2960 H   0  0  0  0  0  0  0  0  0  0  0  0
   -0.6900   -3.8200   -0.3590 H   0  0  0  0  0  0  0  0  0  0  0  0
    1.7630   -4.6400   -0.8300 H   0  0  0  0  0  0  0  0  0  0  0  0
    2.2050   -3.3440    0.3840 H   0  0  0  0  0  0  0  0  0  0  0  0
    1.2440   -2.9930   -1.1700 H   0  0  0  0  0  0  0  0  0  0  0  0
    0.7050   -3.2740    2.3220 H   0  0  0  0  0  0  0  0  0  0  0  0
   -2.1110   -2.9990    1.6870 H   0  0  0  0  0  0  0  0  0  0  0  0
   -1.3150   -2.9130    3.1730 H   0  0  0  0  0  0  0  0  0  0  0  0
    0.6300   -0.7260    0.6900 N   0  0  0  0  0  0  0  0  0  0  0  0
    0.3570    0.7130    0.5890 C   0  0  1  0  0  0  0  0  0  0  0  0
    1.5030    1.5200    1.1250 C   0  0  0  0  0  0  0  0  0  0  0  0
    1.3120    2.9900    1.0630 C   0  0  0  0  0  0  0  0  0  0  0  0
    0.1160    3.4820    1.8350 C   0  0  0  0  0  0  0  0  0  0  0  0
    0.2360    3.1290    3.3010 C   0  0  0  0  0  0  0  0  0  0  0  0
   -0.9120    3.6030    4.0380 N   0  0  0  0  0  0  0  0  0  0  0  0
   -0.0160    1.0150   -0.7940 C   0  0  0  0  0  0  0  0  0  0  0  0
   -0.2550    2.1870   -1.1330 O   0  0  0  0  0  0  0  0  0  0  0  0
    1.4810   -1.1300    0.2590 H   0  0  0  0  0  0  0  0  0  0  0  0
   -0.5420    0.9720    1.2100 H   0  0  0  0  0  0  0  0  0  0  0  0
    2.3940    1.2680    0.5010 H   0  0  0  0  0  0  0  0  0  0  0  0
    1.7550    1.1990    2.1510 H   0  0  0  0  0  0  0  0  0  0  0  0
    2.2040    3.4430    1.5930 H   0  0  0  0  0  0  0  0  0  0  0  0
    1.3230    3.4070    0.0580 H   0  0  0  0  0  0  0  0  0  0  0  0
    0.1180    4.5900    1.7630 H   0  0  0  0  0  0  0  0  0  0  0  0
   -0.8420    3.1240    1.4600 H   0  0  0  0  0  0  0  0  0  0  0  0
    0.3270    2.0260    3.4020 H   0  0  0  0  0  0  0  0  0  0  0  0
    1.1460    3.5640    3.7650 H   0  0  0  0  0  0  0  0  0  0  0  0
   -1.3030    2.8580    4.6740 H   0  0  0  0  0  0  0  0  0  0  0  0
   -1.6880    3.8910    3.3920 H   0  0  0  0  0  0  0  0  0  0  0  0
   -0.1080   -0.0150   -1.7570 N   0  0  0  0  0  0  0  0  0  0  0  0
   -0.4790    0.2970   -3.1270 C   0  0  0  0  0  0  0  0  0  0  0  0
   -1.8200    0.9060   -3.1180 C   0  0  0  0  0  0  0  0  0  0  0  0
   -2.4330    1.0560   -2.0440 O   0  0  0  0  0  0  0  0  0  0  0  0
   -2.4020    1.3100   -4.2970 O   0  0  0  0  0  0  0  0  0  0  0  0
    0.0780   -1.0100   -1.5210 H   0  0  0  0  0  0  0  0  0  0  0  0
    0.2810    0.9690   -3.5980 H   0  0  0  0  0  0  0  0  0  0  0  0
   -0.5570   -0.6480   -3.7080 H   0  0  0  0  0  0  0  0  0  0  0  0
  1 10  1  0  0  0  0
  1 11  1  0  0  0  0
  2 13  1  0  0  0  0
  2  1  1  0  0  0  0
  3 14  1  6  0  0  0
  3  2  1  0  0  0  0
  3  5  1  0  0  0  0
  4 16  1  0  0  0  0
  4  3  1  0  0  0  0
  5  6  1  0  0  0  0
  5 18  1  1  0  0  0
  6 20  1  0  0  0  0
  7  5  1  0  0  0  0
  7  8  2  0  0  0  0
  9  1  1  0  0  0  0
 12  2  1  0  0  0  0
 15  4  1  0  0  0  0
 17  4  1  0  0  0  0
 19  6  1  0  0  0  0
 21  7  1  0  0  0  0
 22 21  1  0  0  0  0
 22 23  1  0  0  0  0
 22 31  1  1  0  0  0
 23 33  1  0  0  0  0
 24 23  1  0  0  0  0
 24 34  1  0  0  0  0
 24 25  1  0  0  0  0
 25 26  1  0  0  0  0
 26 38  1  0  0  0  0
 26 39  1  0  0  0  0
 26 27  1  0  0  0  0
 27 40  1  0  0  0  0
 28 22  1  0  0  0  0
 29 28  2  0  0  0  0
 30 21  1  0  0  0  0
 32 23  1  0  0  0  0
 35 24  1  0  0  0  0
 36 25  1  0  0  0  0
 37 25  1  0  0  0  0
 41 27  1  0  0  0  0
 42 47  1  0  0  0  0
 42 28  1  0  0  0  0
 43 44  1  0  0  0  0
 43 42  1  0  0  0  0
 44 45  1  0  0  0  0
 46 44  2  0  0  0  0
 48 43  1  0  0  0  0
 49 43  1  0  0  0  0
M  END
$$$$
