IKI.pdb
 OpenBabel07022418423D

 61 60  0  0  1  0  0  0  0  0999 V2000
    0.7120   -3.6090    3.6560 C   0  0  0  0  0  0  0  0  0  0  0  0
    1.1290   -2.3610    2.9000 C   0  0  0  0  0  0  0  0  0  0  0  0
    1.8040   -1.3680    3.7860 C   0  0  2  0  0  0  0  0  0  0  0  0
    0.9570   -0.8830    4.9120 C   0  0  0  0  0  0  0  0  0  0  0  0
    2.4690   -0.2240    3.0420 C   0  0  2  0  0  0  0  0  0  0  0  0
    3.0760    0.6630    4.0520 N   0  0  0  0  0  0  0  0  0  0  0  0
    1.5290    0.5480    2.1930 C   0  0  0  0  0  0  0  0  0  0  0  0
    1.1520    1.6650    2.6520 O   0  0  0  0  0  0  0  0  0  0  0  0
    0.4280   -4.3630    2.8900 H   0  0  0  0  0  0  0  0  0  0  0  0
    1.5940   -4.0320    4.1970 H   0  0  0  0  0  0  0  0  0  0  0  0
   -0.1500   -3.4500    4.3050 H   0  0  0  0  0  0  0  0  0  0  0  0
    1.7720   -2.6870    2.0650 H   0  0  0  0  0  0  0  0  0  0  0  0
    0.1860   -1.9660    2.4560 H   0  0  0  0  0  0  0  0  0  0  0  0
    2.6610   -1.9390    4.2700 H   0  0  0  0  0  0  0  0  0  0  0  0
    0.0390   -0.3650    4.6040 H   0  0  0  0  0  0  0  0  0  0  0  0
    1.5600   -0.1630    5.5080 H   0  0  0  0  0  0  0  0  0  0  0  0
    0.7470   -1.7340    5.6050 H   0  0  0  0  0  0  0  0  0  0  0  0
    3.3090   -0.6610    2.4660 H   0  0  0  0  0  0  0  0  0  0  0  0
    3.8570    0.1390    4.4820 H   0  0  0  0  0  0  0  0  0  0  0  0
    3.4470    1.5140    3.5720 H   0  0  0  0  0  0  0  0  0  0  0  0
    1.0730    0.0800    0.9370 N   0  0  0  0  0  0  0  0  0  0  0  0
    0.1660    0.8360    0.1190 C   0  0  1  0  0  0  0  0  0  0  0  0
    0.8970    1.4730   -1.0520 C   0  0  0  0  0  0  0  0  0  0  0  0
    0.0840    2.2860   -1.9650 C   0  0  0  0  0  0  0  0  0  0  0  0
   -0.6220    3.4590   -1.3750 C   0  0  0  0  0  0  0  0  0  0  0  0
    0.3310    4.4640   -0.7530 C   0  0  0  0  0  0  0  0  0  0  0  0
   -0.4000    5.5810   -0.1960 N   0  0  0  0  0  0  0  0  0  0  0  0
   -0.9250    0.0170   -0.4490 C   0  0  0  0  0  0  0  0  0  0  0  0
   -1.8780    0.6010   -1.0730 O   0  0  0  0  0  0  0  0  0  0  0  0
    1.4120   -0.8250    0.6100 H   0  0  0  0  0  0  0  0  0  0  0  0
   -0.2050    1.6850    0.7660 H   0  0  0  0  0  0  0  0  0  0  0  0
    1.8070    2.0150   -0.7230 H   0  0  0  0  0  0  0  0  0  0  0  0
    1.2950    0.5980   -1.6500 H   0  0  0  0  0  0  0  0  0  0  0  0
    0.7950    2.7410   -2.7360 H   0  0  0  0  0  0  0  0  0  0  0  0
   -0.6310    1.7310   -2.6000 H   0  0  0  0  0  0  0  0  0  0  0  0
   -1.1100    4.0060   -2.2280 H   0  0  0  0  0  0  0  0  0  0  0  0
   -1.4030    3.2580   -0.6500 H   0  0  0  0  0  0  0  0  0  0  0  0
    1.0170    4.8550   -1.5380 H   0  0  0  0  0  0  0  0  0  0  0  0
    0.9500    4.0300    0.0380 H   0  0  0  0  0  0  0  0  0  0  0  0
   -0.4420    5.5600    0.8380 H   0  0  0  0  0  0  0  0  0  0  0  0
   -1.3560    5.6690   -0.6050 H   0  0  0  0  0  0  0  0  0  0  0  0
   -2.9090   -5.0890   -2.1450 C   0  0  0  0  0  0  0  0  0  0  0  0
   -2.5170   -3.7940   -2.7590 C   0  0  0  0  0  0  0  0  0  0  0  0
   -1.5450   -2.9590   -2.0200 C   0  0  2  0  0  0  0  0  0  0  0  0
   -0.2280   -3.6160   -1.7230 C   0  0  0  0  0  0  0  0  0  0  0  0
   -2.0920   -2.1160   -0.9320 C   0  0  2  0  0  0  0  0  0  0  0  0
   -0.9500   -1.3830   -0.3290 N   0  0  0  0  0  0  0  0  0  0  0  0
   -2.8470   -2.7680    0.1290 C   0  0  0  0  0  0  0  0  0  0  0  0
   -2.4130   -2.7820    1.3120 O   0  0  0  0  0  0  0  0  0  0  0  0
   -4.0540   -3.3850   -0.1000 O   0  0  0  0  0  0  0  0  0  0  0  0
   -2.6200   -5.9620   -2.8320 H   0  0  0  0  0  0  0  0  0  0  0  0
   -4.0090   -5.1630   -2.0920 H   0  0  0  0  0  0  0  0  0  0  0  0
   -2.4850   -5.2670   -1.1430 H   0  0  0  0  0  0  0  0  0  0  0  0
   -2.1380   -4.0240   -3.8060 H   0  0  0  0  0  0  0  0  0  0  0  0
   -3.4640   -3.2070   -2.9810 H   0  0  0  0  0  0  0  0  0  0  0  0
   -1.2280   -2.1580   -2.8250 H   0  0  0  0  0  0  0  0  0  0  0  0
   -0.2320   -3.8960   -0.6290 H   0  0  0  0  0  0  0  0  0  0  0  0
    0.6440   -2.9430   -1.8450 H   0  0  0  0  0  0  0  0  0  0  0  0
   -0.0710   -4.5550   -2.2660 H   0  0  0  0  0  0  0  0  0  0  0  0
   -2.7410   -1.3280   -1.3900 H   0  0  0  0  0  0  0  0  0  0  0  0
   -0.1980   -1.9310    0.1570 H   0  0  0  0  0  0  0  0  0  0  0  0
  1 10  1  0  0  0  0
  1 11  1  0  0  0  0
  2  1  1  0  0  0  0
  2  3  1  0  0  0  0
  3 14  1  1  0  0  0
  3  4  1  0  0  0  0
  4 16  1  0  0  0  0
  4 17  1  0  0  0  0
  5 18  1  6  0  0  0
  5  3  1  0  0  0  0
  5  6  1  0  0  0  0
  6 19  1  0  0  0  0
  7  8  2  0  0  0  0
  7  5  1  0  0  0  0
  9  1  1  0  0  0  0
 12  2  1  0  0  0  0
 13  2  1  0  0  0  0
 15  4  1  0  0  0  0
 20  6  1  0  0  0  0
 21  7  1  0  0  0  0
 22 31  1  1  0  0  0
 22 21  1  0  0  0  0
 23 32  1  0  0  0  0
 23 22  1  0  0  0  0
 24 25  1  0  0  0  0
 24 23  1  0  0  0  0
 25 26  1  0  0  0  0
 25 37  1  0  0  0  0
 26 27  1  0  0  0  0
 26 39  1  0  0  0  0
 27 40  1  0  0  0  0
 28 47  1  0  0  0  0
 28 22  1  0  0  0  0
 29 28  2  0  0  0  0
 30 21  1  0  0  0  0
 33 23  1  0  0  0  0
 34 24  1  0  0  0  0
 35 24  1  0  0  0  0
 36 25  1  0  0  0  0
 38 26  1  0  0  0  0
 41 27  1  0  0  0  0
 42 52  1  0  0  0  0
 42 53  1  0  0  0  0
 43 42  1  0  0  0  0
 43 44  1  0  0  0  0
 44 56  1  6  0  0  0
 44 45  1  0  0  0  0
 44 46  1  0  0  0  0
 45 57  1  0  0  0  0
 46 60  1  6  0  0  0
 46 47  1  0  0  0  0
 46 48  1  0  0  0  0
 47 61  1  0  0  0  0
 48 49  1  0  0  0  0
 50 48  2  0  0  0  0
 51 42  1  0  0  0  0
 54 43  1  0  0  0  0
 55 43  1  0  0  0  0
 58 45  1  0  0  0  0
 59 45  1  0  0  0  0
M  END
$$$$
