IKQ.pdb
 OpenBabel07022418423D

 59 58  0  0  1  0  0  0  0  0999 V2000
   -0.0070   -4.2660    2.7000 C   0  0  0  0  0  0  0  0  0  0  0  0
    0.8950   -3.3860    1.9010 C   0  0  0  0  0  0  0  0  0  0  0  0
    1.5250   -2.2600    2.6440 C   0  0  2  0  0  0  0  0  0  0  0  0
    2.3890   -2.7060    3.8000 C   0  0  0  0  0  0  0  0  0  0  0  0
    0.4760   -1.3260    3.1880 C   0  0  2  0  0  0  0  0  0  0  0  0
   -0.3800   -2.0830    4.0780 N   0  0  0  0  0  0  0  0  0  0  0  0
   -0.3560   -0.6860    2.1550 C   0  0  0  0  0  0  0  0  0  0  0  0
   -1.5830   -0.9150    2.1290 O   0  0  0  0  0  0  0  0  0  0  0  0
    0.3370   -4.4650    3.7130 H   0  0  0  0  0  0  0  0  0  0  0  0
   -1.0400   -3.8620    2.6480 H   0  0  0  0  0  0  0  0  0  0  0  0
   -0.0660   -5.2480    2.1490 H   0  0  0  0  0  0  0  0  0  0  0  0
    0.2700   -2.9320    1.0860 H   0  0  0  0  0  0  0  0  0  0  0  0
    1.6560   -4.0100    1.3470 H   0  0  0  0  0  0  0  0  0  0  0  0
    2.1990   -1.7310    1.9080 H   0  0  0  0  0  0  0  0  0  0  0  0
    1.9600   -3.4860    4.4260 H   0  0  0  0  0  0  0  0  0  0  0  0
    2.6190   -1.8450    4.4690 H   0  0  0  0  0  0  0  0  0  0  0  0
    3.3640   -3.0450    3.3420 H   0  0  0  0  0  0  0  0  0  0  0  0
    1.0000   -0.5380    3.7950 H   0  0  0  0  0  0  0  0  0  0  0  0
   -0.0750   -1.9470    5.0740 H   0  0  0  0  0  0  0  0  0  0  0  0
   -1.3730   -1.7870    4.0310 H   0  0  0  0  0  0  0  0  0  0  0  0
    0.2290    0.2020    1.1770 N   0  0  0  0  0  0  0  0  0  0  0  0
   -0.5450    0.8410    0.1650 C   0  0  1  0  0  0  0  0  0  0  0  0
   -0.2220    2.2750   -0.0450 C   0  0  0  0  0  0  0  0  0  0  0  0
   -0.3330    3.2640    1.0230 C   0  0  0  0  0  0  0  0  0  0  0  0
   -1.6130    3.5850    1.6880 C   0  0  0  0  0  0  0  0  0  0  0  0
   -2.2710    2.5080    2.4820 C   0  0  0  0  0  0  0  0  0  0  0  0
   -1.3240    2.0980    3.5360 N   0  0  0  0  0  0  0  0  0  0  0  0
   -0.2330    0.1090   -1.1610 C   0  0  0  0  0  0  0  0  0  0  0  0
   -0.8170    0.4690   -2.1920 O   0  0  0  0  0  0  0  0  0  0  0  0
    1.2670    0.3320    1.2790 H   0  0  0  0  0  0  0  0  0  0  0  0
   -1.6040    0.6740    0.2690 H   0  0  0  0  0  0  0  0  0  0  0  0
   -0.7740    2.6260   -0.9900 H   0  0  0  0  0  0  0  0  0  0  0  0
    0.8630    2.3240   -0.4330 H   0  0  0  0  0  0  0  0  0  0  0  0
    0.1250    4.2600    0.6440 H   0  0  0  0  0  0  0  0  0  0  0  0
    0.3980    3.0530    1.8780 H   0  0  0  0  0  0  0  0  0  0  0  0
   -1.4010    4.4160    2.4520 H   0  0  0  0  0  0  0  0  0  0  0  0
   -2.3480    4.0710    0.9740 H   0  0  0  0  0  0  0  0  0  0  0  0
   -2.5920    1.6190    1.9570 H   0  0  0  0  0  0  0  0  0  0  0  0
   -3.1300    2.9480    3.0880 H   0  0  0  0  0  0  0  0  0  0  0  0
   -1.1230    2.8950    4.1770 H   0  0  0  0  0  0  0  0  0  0  0  0
   -1.8650    1.4000    4.1200 H   0  0  0  0  0  0  0  0  0  0  0  0
   -3.0880   -2.4830   -4.9070 N   0  0  0  0  0  0  0  0  0  0  0  0
   -1.7360   -2.0790   -4.7300 C   0  0  0  0  0  0  0  0  0  0  0  0
   -1.0750   -1.6010   -5.6740 O   0  0  0  0  0  0  0  0  0  0  0  0
   -1.0820   -2.2250   -3.3900 C   0  0  0  0  0  0  0  0  0  0  0  0
    0.3230   -1.7250   -3.5080 C   0  0  0  0  0  0  0  0  0  0  0  0
    1.1210   -1.7570   -2.2290 C   0  0  2  0  0  0  0  0  0  0  0  0
    0.6920   -0.9320   -1.1630 N   0  0  0  0  0  0  0  0  0  0  0  0
    2.5550   -1.8430   -2.4860 C   0  0  0  0  0  0  0  0  0  0  0  0
    3.4420   -1.2350   -1.8280 O   0  0  0  0  0  0  0  0  0  0  0  0
    2.9810   -2.6500   -3.5310 O   0  0  0  0  0  0  0  0  0  0  0  0
   -3.5690   -3.0310   -4.1840 H   0  0  0  0  0  0  0  0  0  0  0  0
   -3.5820   -2.2190   -5.7740 H   0  0  0  0  0  0  0  0  0  0  0  0
   -0.9490   -3.3750   -3.2830 H   0  0  0  0  0  0  0  0  0  0  0  0
   -1.6640   -1.8710   -2.5570 H   0  0  0  0  0  0  0  0  0  0  0  0
    0.3330   -0.7290   -3.9920 H   0  0  0  0  0  0  0  0  0  0  0  0
    0.8590   -2.4040   -4.2150 H   0  0  0  0  0  0  0  0  0  0  0  0
    0.8090   -2.8310   -1.8540 H   0  0  0  0  0  0  0  0  0  0  0  0
    1.1600   -1.1490   -0.2210 H   0  0  0  0  0  0  0  0  0  0  0  0
  1  9  1  0  0  0  0
  2  3  1  0  0  0  0
  2  1  1  0  0  0  0
  3 14  1  6  0  0  0
  3  5  1  0  0  0  0
  3  4  1  0  0  0  0
  4 15  1  0  0  0  0
  4 16  1  0  0  0  0
  5 18  1  1  0  0  0
  5  6  1  0  0  0  0
  6 19  1  0  0  0  0
  7  5  1  0  0  0  0
  8  7  2  0  0  0  0
 10  1  1  0  0  0  0
 11  1  1  0  0  0  0
 12  2  1  0  0  0  0
 13  2  1  0  0  0  0
 17  4  1  0  0  0  0
 20  6  1  0  0  0  0
 21 30  1  0  0  0  0
 21  7  1  0  0  0  0
 22 31  1  1  0  0  0
 22 21  1  0  0  0  0
 23 22  1  0  0  0  0
 23 24  1  0  0  0  0
 24 25  1  0  0  0  0
 24 35  1  0  0  0  0
 25 36  1  0  0  0  0
 25 26  1  0  0  0  0
 26 39  1  0  0  0  0
 26 27  1  0  0  0  0
 27 41  1  0  0  0  0
 27 40  1  0  0  0  0
 28 22  1  0  0  0  0
 29 28  2  0  0  0  0
 32 23  1  0  0  0  0
 33 23  1  0  0  0  0
 34 24  1  0  0  0  0
 37 25  1  0  0  0  0
 38 26  1  0  0  0  0
 42 43  1  0  0  0  0
 42 52  1  0  0  0  0
 43 45  1  0  0  0  0
 44 43  2  0  0  0  0
 45 54  1  0  0  0  0
 45 55  1  0  0  0  0
 46 45  1  0  0  0  0
 46 47  1  0  0  0  0
 47 58  1  1  0  0  0
 47 48  1  0  0  0  0
 48 28  1  0  0  0  0
 48 59  1  0  0  0  0
 49 47  1  0  0  0  0
 49 50  1  0  0  0  0
 51 49  2  0  0  0  0
 53 42  1  0  0  0  0
 56 46  1  0  0  0  0
 57 46  1  0  0  0  0
M  END
$$$$
