IKS.pdb
 OpenBabel07022418423D

 53 52  0  0  1  0  0  0  0  0999 V2000
    0.3010   -4.2580    3.7620 C   0  0  0  0  0  0  0  0  0  0  0  0
    1.1860   -3.1100    4.1110 C   0  0  0  0  0  0  0  0  0  0  0  0
    0.9150   -1.8540    3.3020 C   0  0  2  0  0  0  0  0  0  0  0  0
   -0.4880   -1.3640    3.4930 C   0  0  0  0  0  0  0  0  0  0  0  0
    1.3070   -2.1470    1.8940 C   0  0  2  0  0  0  0  0  0  0  0  0
    2.7460   -2.4930    1.9540 N   0  0  0  0  0  0  0  0  0  0  0  0
    1.1180   -1.0170    0.9450 C   0  0  0  0  0  0  0  0  0  0  0  0
    2.1610   -0.4640    0.4970 O   0  0  0  0  0  0  0  0  0  0  0  0
   -0.1530   -4.7390    4.6590 H   0  0  0  0  0  0  0  0  0  0  0  0
   -0.4930   -3.9860    3.0130 H   0  0  0  0  0  0  0  0  0  0  0  0
    0.9030   -5.0410    3.2570 H   0  0  0  0  0  0  0  0  0  0  0  0
    2.2410   -3.4210    3.9990 H   0  0  0  0  0  0  0  0  0  0  0  0
    1.0440   -2.8870    5.1900 H   0  0  0  0  0  0  0  0  0  0  0  0
    1.6020   -1.0750    3.6950 H   0  0  0  0  0  0  0  0  0  0  0  0
   -1.1930   -2.0750    3.0250 H   0  0  0  0  0  0  0  0  0  0  0  0
   -0.7780   -1.3330    4.5710 H   0  0  0  0  0  0  0  0  0  0  0  0
   -0.6380   -0.3280    3.1370 H   0  0  0  0  0  0  0  0  0  0  0  0
    0.7040   -2.9950    1.5230 H   0  0  0  0  0  0  0  0  0  0  0  0
    3.2690   -1.9250    1.2500 H   0  0  0  0  0  0  0  0  0  0  0  0
    2.8950   -3.5080    1.8560 H   0  0  0  0  0  0  0  0  0  0  0  0
   -0.1180   -0.5270    0.5110 N   0  0  0  0  0  0  0  0  0  0  0  0
   -0.3980    0.5520   -0.3780 C   0  0  1  0  0  0  0  0  0  0  0  0
    0.5900    1.6770   -0.3980 C   0  0  0  0  0  0  0  0  0  0  0  0
    0.8680    2.4650    0.7830 C   0  0  0  0  0  0  0  0  0  0  0  0
   -0.0760    3.3410    1.4750 C   0  0  0  0  0  0  0  0  0  0  0  0
   -1.2870    2.7580    2.0770 C   0  0  0  0  0  0  0  0  0  0  0  0
   -2.0570    3.8160    2.7990 N   0  0  0  0  0  0  0  0  0  0  0  0
   -0.6790    0.0640   -1.7700 C   0  0  0  0  0  0  0  0  0  0  0  0
   -0.9460    0.8990   -2.6640 O   0  0  0  0  0  0  0  0  0  0  0  0
   -0.9680   -1.0520    0.9030 H   0  0  0  0  0  0  0  0  0  0  0  0
   -1.3470    1.0080   -0.0310 H   0  0  0  0  0  0  0  0  0  0  0  0
    1.5940    1.3120   -0.8110 H   0  0  0  0  0  0  0  0  0  0  0  0
    0.2570    2.4050   -1.2320 H   0  0  0  0  0  0  0  0  0  0  0  0
    1.8470    3.0500    0.5440 H   0  0  0  0  0  0  0  0  0  0  0  0
    1.3100    1.7470    1.5790 H   0  0  0  0  0  0  0  0  0  0  0  0
    0.5120    3.8030    2.3510 H   0  0  0  0  0  0  0  0  0  0  0  0
   -0.3130    4.2840    0.8840 H   0  0  0  0  0  0  0  0  0  0  0  0
   -1.0780    1.9990    2.8510 H   0  0  0  0  0  0  0  0  0  0  0  0
   -2.0360    2.3520    1.3850 H   0  0  0  0  0  0  0  0  0  0  0  0
   -2.6150    4.3670    2.0820 H   0  0  0  0  0  0  0  0  0  0  0  0
   -2.7740    3.2800    3.3460 H   0  0  0  0  0  0  0  0  0  0  0  0
   -0.2460   -2.7060   -5.4730 O   0  0  0  0  0  0  0  0  0  0  0  0
    0.1940   -2.4070   -4.1690 C   0  0  0  0  0  0  0  0  0  0  0  0
   -0.9380   -1.6820   -3.4860 C   0  0  2  0  0  0  0  0  0  0  0  0
   -0.6600   -1.3010   -2.1440 N   0  0  0  0  0  0  0  0  0  0  0  0
   -2.1970   -2.5040   -3.5410 C   0  0  0  0  0  0  0  0  0  0  0  0
   -2.8240   -2.7520   -2.4790 O   0  0  0  0  0  0  0  0  0  0  0  0
   -2.6880   -2.9990   -4.7230 O   0  0  0  0  0  0  0  0  0  0  0  0
    0.0880   -3.5910   -5.7640 H   0  0  0  0  0  0  0  0  0  0  0  0
    0.4560   -3.3610   -3.7040 H   0  0  0  0  0  0  0  0  0  0  0  0
    1.0230   -1.7020   -4.2790 H   0  0  0  0  0  0  0  0  0  0  0  0
   -1.1500   -0.7800   -4.0950 H   0  0  0  0  0  0  0  0  0  0  0  0
   -0.4370   -2.0280   -1.4060 H   0  0  0  0  0  0  0  0  0  0  0  0
  1  2  1  0  0  0  0
  1  9  1  0  0  0  0
  2 13  1  0  0  0  0
  3  4  1  0  0  0  0
  3 14  1  1  0  0  0
  3  2  1  0  0  0  0
  4 16  1  0  0  0  0
  5 18  1  6  0  0  0
  5  6  1  0  0  0  0
  5  3  1  0  0  0  0
  7  5  1  0  0  0  0
  8  7  2  0  0  0  0
 10  1  1  0  0  0  0
 11  1  1  0  0  0  0
 12  2  1  0  0  0  0
 15  4  1  0  0  0  0
 17  4  1  0  0  0  0
 19  6  1  0  0  0  0
 20  6  1  0  0  0  0
 21 30  1  0  0  0  0
 21  7  1  0  0  0  0
 22 31  1  1  0  0  0
 22 21  1  0  0  0  0
 23 22  1  0  0  0  0
 23 24  1  0  0  0  0
 24 25  1  0  0  0  0
 24 35  1  0  0  0  0
 25 26  1  0  0  0  0
 25 36  1  0  0  0  0
 26 27  1  0  0  0  0
 26 38  1  0  0  0  0
 27 41  1  0  0  0  0
 28 22  1  0  0  0  0
 29 28  2  0  0  0  0
 32 23  1  0  0  0  0
 33 23  1  0  0  0  0
 34 24  1  0  0  0  0
 37 25  1  0  0  0  0
 39 26  1  0  0  0  0
 40 27  1  0  0  0  0
 42 43  1  0  0  0  0
 43 50  1  0  0  0  0
 43 44  1  0  0  0  0
 44 52  1  6  0  0  0
 44 45  1  0  0  0  0
 45 28  1  0  0  0  0
 45 53  1  0  0  0  0
 46 44  1  0  0  0  0
 46 47  1  0  0  0  0
 48 46  2  0  0  0  0
 49 42  1  0  0  0  0
 51 43  1  0  0  0  0
M  END
$$$$
