IKW.pdb
 OpenBabel07022418423D

 66 67  0  0  1  0  0  0  0  0999 V2000
    1.9900    4.4440    3.0050 C   0  0  0  0  0  0  0  0  0  0  0  0
    1.7050    3.0150    2.5930 C   0  0  0  0  0  0  0  0  0  0  0  0
    2.8340    2.4110    1.8260 C   0  0  2  0  0  0  0  0  0  0  0  0
    3.1410    3.1510    0.5510 C   0  0  0  0  0  0  0  0  0  0  0  0
    2.7190    0.9230    1.6650 C   0  0  2  0  0  0  0  0  0  0  0  0
    3.8620    0.4320    0.9050 N   0  0  0  0  0  0  0  0  0  0  0  0
    1.4410    0.4650    1.0770 C   0  0  0  0  0  0  0  0  0  0  0  0
    0.3620    0.7740    1.6320 O   0  0  0  0  0  0  0  0  0  0  0  0
    1.3990    5.1820    2.4240 H   0  0  0  0  0  0  0  0  0  0  0  0
    3.0660    4.6920    2.9420 H   0  0  0  0  0  0  0  0  0  0  0  0
    1.6770    4.5710    4.0590 H   0  0  0  0  0  0  0  0  0  0  0  0
    0.7560    3.0010    2.0070 H   0  0  0  0  0  0  0  0  0  0  0  0
    1.5350    2.4270    3.5130 H   0  0  0  0  0  0  0  0  0  0  0  0
    3.7550    2.5610    2.4800 H   0  0  0  0  0  0  0  0  0  0  0  0
    4.0910    2.7210    0.1500 H   0  0  0  0  0  0  0  0  0  0  0  0
    3.3630    4.2030    0.8330 H   0  0  0  0  0  0  0  0  0  0  0  0
    2.3060    3.0810   -0.1760 H   0  0  0  0  0  0  0  0  0  0  0  0
    2.8690    0.4880    2.6990 H   0  0  0  0  0  0  0  0  0  0  0  0
    4.6900    0.9690    1.2920 H   0  0  0  0  0  0  0  0  0  0  0  0
    3.8210    0.6540   -0.0940 H   0  0  0  0  0  0  0  0  0  0  0  0
    1.3640   -0.3150   -0.0940 N   0  0  0  0  0  0  0  0  0  0  0  0
    0.1400   -0.7840   -0.7040 C   0  0  1  0  0  0  0  0  0  0  0  0
   -0.0500   -0.2920   -2.1030 C   0  0  0  0  0  0  0  0  0  0  0  0
   -0.1100    1.1950   -2.2420 C   0  0  0  0  0  0  0  0  0  0  0  0
   -1.2370    1.8330   -1.4720 C   0  0  0  0  0  0  0  0  0  0  0  0
   -1.1410    3.3410   -1.7300 C   0  0  0  0  0  0  0  0  0  0  0  0
   -2.1900    4.0500   -1.0270 N   0  0  0  0  0  0  0  0  0  0  0  0
    0.0090   -2.2470   -0.6760 C   0  0  0  0  0  0  0  0  0  0  0  0
    0.9120   -2.9400   -0.1590 O   0  0  0  0  0  0  0  0  0  0  0  0
    2.2600   -0.5760   -0.5610 H   0  0  0  0  0  0  0  0  0  0  0  0
   -0.6850   -0.3150   -0.0820 H   0  0  0  0  0  0  0  0  0  0  0  0
    0.8510   -0.6200   -2.6970 H   0  0  0  0  0  0  0  0  0  0  0  0
   -0.9150   -0.7980   -2.5500 H   0  0  0  0  0  0  0  0  0  0  0  0
   -0.3200    1.4020   -3.3280 H   0  0  0  0  0  0  0  0  0  0  0  0
    0.8570    1.6490   -2.0130 H   0  0  0  0  0  0  0  0  0  0  0  0
   -2.2260    1.5270   -1.9000 H   0  0  0  0  0  0  0  0  0  0  0  0
   -1.2610    1.6140   -0.4080 H   0  0  0  0  0  0  0  0  0  0  0  0
   -1.2790    3.5470   -2.8120 H   0  0  0  0  0  0  0  0  0  0  0  0
   -0.1400    3.7350   -1.4550 H   0  0  0  0  0  0  0  0  0  0  0  0
   -1.7440    4.4710   -0.1620 H   0  0  0  0  0  0  0  0  0  0  0  0
   -2.5390    4.8560   -1.5840 H   0  0  0  0  0  0  0  0  0  0  0  0
   -1.1230   -2.8860   -1.2260 N   0  0  0  0  0  0  0  0  0  0  0  0
   -1.2200   -4.3210   -1.1780 C   0  0  1  0  0  0  0  0  0  0  0  0
   -2.5040   -4.7530   -0.5000 C   0  0  0  0  0  0  0  0  0  0  0  0
   -2.5840   -4.2460    0.8920 C   0  0  0  0  0  0  0  0  0  0  0  0
   -3.3640   -3.1790    1.3550 C   0  0  0  0  0  0  0  0  0  0  0  0
   -3.1410   -3.0520    2.6740 N   0  0  0  0  0  0  0  0  0  0  0  0
   -2.2620   -3.9780    3.0830 C   0  0  0  0  0  0  0  0  0  0  0  0
   -1.7140   -4.2570    4.3420 C   0  0  0  0  0  0  0  0  0  0  0  0
   -0.8120   -5.2900    4.4860 C   0  0  0  0  0  0  0  0  0  0  0  0
   -0.4380   -6.0550    3.4090 C   0  0  0  0  0  0  0  0  0  0  0  0
   -0.9870   -5.7750    2.1540 C   0  0  0  0  0  0  0  0  0  0  0  0
   -1.8930   -4.7420    1.9940 C   0  0  0  0  0  0  0  0  0  0  0  0
   -1.2550   -4.8830   -2.5500 C   0  0  0  0  0  0  0  0  0  0  0  0
   -1.1990   -4.0960   -3.5230 O   0  0  0  0  0  0  0  0  0  0  0  0
   -1.3470   -6.2380   -2.7990 O   0  0  0  0  0  0  0  0  0  0  0  0
   -1.9180   -2.3410   -1.6800 H   0  0  0  0  0  0  0  0  0  0  0  0
   -0.3310   -4.7380   -0.6790 H   0  0  0  0  0  0  0  0  0  0  0  0
   -3.3510   -4.3120   -1.0650 H   0  0  0  0  0  0  0  0  0  0  0  0
   -2.6180   -5.8550   -0.5330 H   0  0  0  0  0  0  0  0  0  0  0  0
   -4.0120   -2.5950    0.7180 H   0  0  0  0  0  0  0  0  0  0  0  0
   -3.5710   -2.3470    3.3200 H   0  0  0  0  0  0  0  0  0  0  0  0
   -1.9850   -3.6730    5.2140 H   0  0  0  0  0  0  0  0  0  0  0  0
   -0.3640   -5.5330    5.4630 H   0  0  0  0  0  0  0  0  0  0  0  0
    0.2690   -6.8600    3.5350 H   0  0  0  0  0  0  0  0  0  0  0  0
   -0.7140   -6.3540    1.3060 H   0  0  0  0  0  0  0  0  0  0  0  0
  1 11  1  0  0  0  0
  2  1  1  0  0  0  0
  2 13  1  0  0  0  0
  3 14  1  1  0  0  0
  3  2  1  0  0  0  0
  4 16  1  0  0  0  0
  4  3  1  0  0  0  0
  5  3  1  0  0  0  0
  5 18  1  1  0  0  0
  6 19  1  0  0  0  0
  6  5  1  0  0  0  0
  7  8  2  0  0  0  0
  7  5  1  0  0  0  0
  9  1  1  0  0  0  0
 10  1  1  0  0  0  0
 12  2  1  0  0  0  0
 15  4  1  0  0  0  0
 17  4  1  0  0  0  0
 20  6  1  0  0  0  0
 21  7  1  0  0  0  0
 22 28  1  0  0  0  0
 22 21  1  0  0  0  0
 22 31  1  1  0  0  0
 23 22  1  0  0  0  0
 24 23  1  0  0  0  0
 24 35  1  0  0  0  0
 24 25  1  0  0  0  0
 25 37  1  0  0  0  0
 26 25  1  0  0  0  0
 26 39  1  0  0  0  0
 26 27  1  0  0  0  0
 27 40  1  0  0  0  0
 28 29  2  0  0  0  0
 30 21  1  0  0  0  0
 32 23  1  0  0  0  0
 33 23  1  0  0  0  0
 34 24  1  0  0  0  0
 36 25  1  0  0  0  0
 38 26  1  0  0  0  0
 41 27  1  0  0  0  0
 42 43  1  0  0  0  0
 42 28  1  0  0  0  0
 43 58  1  1  0  0  0
 43 44  1  0  0  0  0
 44 45  1  0  0  0  0
 45 46  2  0  0  0  0
 45 53  1  0  0  0  0
 46 47  1  0  0  0  0
 47 48  1  0  0  0  0
 47 62  1  0  0  0  0
 48 49  1  0  0  0  0
 49 50  2  0  0  0  0
 49 63  1  0  0  0  0
 50 64  1  0  0  0  0
 51 65  1  0  0  0  0
 51 50  1  0  0  0  0
 52 51  2  0  0  0  0
 53 52  1  0  0  0  0
 53 48  2  0  0  0  0
 54 43  1  0  0  0  0
 55 54  2  0  0  0  0
 56 54  1  0  0  0  0
 57 42  1  0  0  0  0
 59 44  1  0  0  0  0
 60 44  1  0  0  0  0
 61 46  1  0  0  0  0
 66 52  1  0  0  0  0
M  END
$$$$
