IKY.pdb
 OpenBabel07022418423D

 63 63  0  0  1  0  0  0  0  0999 V2000
    3.6670    2.7740    3.3020 C   0  0  0  0  0  0  0  0  0  0  0  0
    4.1720    2.3010    1.9720 C   0  0  0  0  0  0  0  0  0  0  0  0
    4.7610    0.9470    1.9660 C   0  0  2  0  0  0  0  0  0  0  0  0
    5.2110    0.6530    0.5280 C   0  0  0  0  0  0  0  0  0  0  0  0
    3.8980   -0.1870    2.4050 C   0  0  2  0  0  0  0  0  0  0  0  0
    4.7570   -1.3880    2.2940 N   0  0  0  0  0  0  0  0  0  0  0  0
    2.7390   -0.4470    1.4800 C   0  0  0  0  0  0  0  0  0  0  0  0
    2.7990   -1.4320    0.7070 O   0  0  0  0  0  0  0  0  0  0  0  0
    3.4440    1.9560    4.0130 H   0  0  0  0  0  0  0  0  0  0  0  0
    2.7980    3.4580    3.1510 H   0  0  0  0  0  0  0  0  0  0  0  0
    4.4640    3.3870    3.7710 H   0  0  0  0  0  0  0  0  0  0  0  0
    4.9870    3.0050    1.6090 H   0  0  0  0  0  0  0  0  0  0  0  0
    3.3850    2.3960    1.2010 H   0  0  0  0  0  0  0  0  0  0  0  0
    5.7000    0.8990    2.5630 H   0  0  0  0  0  0  0  0  0  0  0  0
    4.4060    0.8370   -0.1940 H   0  0  0  0  0  0  0  0  0  0  0  0
    6.0110    1.3990    0.3130 H   0  0  0  0  0  0  0  0  0  0  0  0
    5.6680   -0.3410    0.4500 H   0  0  0  0  0  0  0  0  0  0  0  0
    3.5730   -0.1550    3.4460 H   0  0  0  0  0  0  0  0  0  0  0  0
    4.2030   -2.2220    2.0770 H   0  0  0  0  0  0  0  0  0  0  0  0
    5.3920   -1.4680    3.1050 H   0  0  0  0  0  0  0  0  0  0  0  0
    1.6040    0.3810    1.4670 N   0  0  0  0  0  0  0  0  0  0  0  0
    0.4270    0.1350    0.5430 C   0  0  1  0  0  0  0  0  0  0  0  0
    0.9160    0.2790   -0.8380 C   0  0  0  0  0  0  0  0  0  0  0  0
    0.0510    0.2240   -2.0170 C   0  0  0  0  0  0  0  0  0  0  0  0
   -0.9120    1.3040   -2.2950 C   0  0  0  0  0  0  0  0  0  0  0  0
   -1.9890    1.6660   -1.3690 C   0  0  0  0  0  0  0  0  0  0  0  0
   -2.9590    0.6470   -1.0620 N   0  0  0  0  0  0  0  0  0  0  0  0
   -0.0690   -1.2300    0.9250 C   0  0  0  0  0  0  0  0  0  0  0  0
    0.5910   -1.8150    1.8640 O   0  0  0  0  0  0  0  0  0  0  0  0
    1.5800    1.1810    2.1230 H   0  0  0  0  0  0  0  0  0  0  0  0
   -0.3130    0.8560    0.8560 H   0  0  0  0  0  0  0  0  0  0  0  0
    1.4500    1.3100   -0.8470 H   0  0  0  0  0  0  0  0  0  0  0  0
    1.7870   -0.4600   -1.0310 H   0  0  0  0  0  0  0  0  0  0  0  0
   -0.5090   -0.7600   -2.0350 H   0  0  0  0  0  0  0  0  0  0  0  0
    0.7160    0.0870   -2.9660 H   0  0  0  0  0  0  0  0  0  0  0  0
   -1.4290    1.1090   -3.3090 H   0  0  0  0  0  0  0  0  0  0  0  0
   -0.3580    2.2920   -2.5250 H   0  0  0  0  0  0  0  0  0  0  0  0
   -1.6450    2.1300   -0.4170 H   0  0  0  0  0  0  0  0  0  0  0  0
   -2.6050    2.4710   -1.9150 H   0  0  0  0  0  0  0  0  0  0  0  0
   -3.2510    0.1300   -1.9150 H   0  0  0  0  0  0  0  0  0  0  0  0
   -3.8140    1.1190   -0.6960 H   0  0  0  0  0  0  0  0  0  0  0  0
   -7.2040   -1.9770   -1.6480 O   0  0  0  0  0  0  0  0  0  0  0  0
   -6.1140   -2.2910   -0.8450 C   0  0  0  0  0  0  0  0  0  0  0  0
   -5.6560   -3.5980   -0.7820 C   0  0  0  0  0  0  0  0  0  0  0  0
   -4.5910   -3.9940   -0.0180 C   0  0  0  0  0  0  0  0  0  0  0  0
   -3.9290   -3.0450    0.7350 C   0  0  0  0  0  0  0  0  0  0  0  0
   -2.7810   -3.3720    1.5880 C   0  0  0  0  0  0  0  0  0  0  0  0
   -1.4430   -3.2910    0.9310 C   0  0  2  0  0  0  0  0  0  0  0  0
   -1.1330   -1.9480    0.4130 N   0  0  0  0  0  0  0  0  0  0  0  0
   -1.3280   -4.2610   -0.1750 C   0  0  0  0  0  0  0  0  0  0  0  0
   -1.5370   -5.4840    0.0260 O   0  0  0  0  0  0  0  0  0  0  0  0
   -4.3830   -1.7360    0.6740 C   0  0  0  0  0  0  0  0  0  0  0  0
   -5.4540   -1.3410   -0.0950 C   0  0  0  0  0  0  0  0  0  0  0  0
   -0.9880   -3.8720   -1.4620 O   0  0  0  0  0  0  0  0  0  0  0  0
   -8.0110   -1.4900   -1.2320 H   0  0  0  0  0  0  0  0  0  0  0  0
   -6.1660   -4.3600   -1.3680 H   0  0  0  0  0  0  0  0  0  0  0  0
   -4.2360   -5.0170    0.0300 H   0  0  0  0  0  0  0  0  0  0  0  0
   -2.8150   -2.7380    2.5210 H   0  0  0  0  0  0  0  0  0  0  0  0
   -2.9270   -4.4180    1.9420 H   0  0  0  0  0  0  0  0  0  0  0  0
   -0.6860   -3.5550    1.6920 H   0  0  0  0  0  0  0  0  0  0  0  0
   -1.7160   -1.5480   -0.3240 H   0  0  0  0  0  0  0  0  0  0  0  0
   -3.8710   -0.9770    1.2620 H   0  0  0  0  0  0  0  0  0  0  0  0
   -5.8140   -0.3220   -0.1470 H   0  0  0  0  0  0  0  0  0  0  0  0
  1 11  1  0  0  0  0
  1  9  1  0  0  0  0
  2  1  1  0  0  0  0
  3  2  1  0  0  0  0
  3  5  1  0  0  0  0
  3 14  1  1  0  0  0
  4  3  1  0  0  0  0
  5 18  1  1  0  0  0
  6  5  1  0  0  0  0
  6 20  1  0  0  0  0
  7  5  1  0  0  0  0
  8  7  2  0  0  0  0
 10  1  1  0  0  0  0
 12  2  1  0  0  0  0
 13  2  1  0  0  0  0
 15  4  1  0  0  0  0
 16  4  1  0  0  0  0
 17  4  1  0  0  0  0
 19  6  1  0  0  0  0
 21  7  1  0  0  0  0
 21 30  1  0  0  0  0
 22 31  1  1  0  0  0
 22 28  1  0  0  0  0
 22 21  1  0  0  0  0
 23 22  1  0  0  0  0
 24 23  1  0  0  0  0
 25 24  1  0  0  0  0
 25 26  1  0  0  0  0
 26 27  1  0  0  0  0
 26 38  1  0  0  0  0
 27 41  1  0  0  0  0
 28 29  2  0  0  0  0
 32 23  1  0  0  0  0
 33 23  1  0  0  0  0
 34 24  1  0  0  0  0
 35 24  1  0  0  0  0
 36 25  1  0  0  0  0
 37 25  1  0  0  0  0
 39 26  1  0  0  0  0
 40 27  1  0  0  0  0
 42 55  1  0  0  0  0
 42 43  1  0  0  0  0
 43 44  2  0  0  0  0
 43 53  1  0  0  0  0
 44 45  1  0  0  0  0
 45 57  1  0  0  0  0
 45 46  2  0  0  0  0
 46 47  1  0  0  0  0
 47 59  1  0  0  0  0
 47 58  1  0  0  0  0
 48 47  1  0  0  0  0
 48 60  1  1  0  0  0
 49 28  1  0  0  0  0
 49 48  1  0  0  0  0
 50 51  1  0  0  0  0
 50 48  1  0  0  0  0
 52 46  1  0  0  0  0
 52 62  1  0  0  0  0
 53 52  2  0  0  0  0
 54 50  2  0  0  0  0
 56 44  1  0  0  0  0
 61 49  1  0  0  0  0
 63 53  1  0  0  0  0
M  END
$$$$
