ILD.pdb
 OpenBabel07022418413D

 53 52  0  0  1  0  0  0  0  0999 V2000
   -1.6890   -2.8130    4.0430 C   0  0  0  0  0  0  0  0  0  0  0  0
   -1.1370   -2.4670    2.7170 C   0  0  0  0  0  0  0  0  0  0  0  0
    0.3560   -2.3470    2.6400 C   0  0  2  0  0  0  0  0  0  0  0  0
    1.0580   -3.6310    3.0180 C   0  0  0  0  0  0  0  0  0  0  0  0
    0.9230   -1.1350    3.2880 C   0  0  2  0  0  0  0  0  0  0  0  0
    0.6470   -1.0200    4.6890 N   0  0  0  0  0  0  0  0  0  0  0  0
    0.5860    0.0750    2.5350 C   0  0  0  0  0  0  0  0  0  0  0  0
    0.0930    1.0540    3.1830 O   0  0  0  0  0  0  0  0  0  0  0  0
   -1.1690   -3.6420    4.5350 H   0  0  0  0  0  0  0  0  0  0  0  0
   -1.7840   -1.9760    4.7580 H   0  0  0  0  0  0  0  0  0  0  0  0
   -2.7460   -3.1810    3.8810 H   0  0  0  0  0  0  0  0  0  0  0  0
   -1.4260   -3.2910    1.9990 H   0  0  0  0  0  0  0  0  0  0  0  0
   -1.6280   -1.5620    2.3070 H   0  0  0  0  0  0  0  0  0  0  0  0
    0.5750   -2.2420    1.5310 H   0  0  0  0  0  0  0  0  0  0  0  0
    2.1470   -3.4000    2.9950 H   0  0  0  0  0  0  0  0  0  0  0  0
    0.7280   -4.0860    3.9450 H   0  0  0  0  0  0  0  0  0  0  0  0
    0.8970   -4.3750    2.1980 H   0  0  0  0  0  0  0  0  0  0  0  0
    2.0480   -1.2450    3.2130 H   0  0  0  0  0  0  0  0  0  0  0  0
    0.0120   -0.2530    4.9480 H   0  0  0  0  0  0  0  0  0  0  0  0
    1.4660   -1.1350    5.3050 H   0  0  0  0  0  0  0  0  0  0  0  0
    3.6120    1.9540   -1.6830 C   0  0  0  0  0  0  0  0  0  0  0  0
    2.4000    1.1430   -1.1680 C   0  0  0  0  0  0  0  0  0  0  0  0
    1.6490    0.7310   -2.3980 C   0  0  0  0  0  0  0  0  0  0  0  0
    1.6510    2.0320   -0.2280 C   0  0  0  0  0  0  0  0  0  0  0  0
    0.4380    1.4220    0.4010 C   0  0  2  0  0  0  0  0  0  0  0  0
    0.7690    0.2260    1.1560 N   0  0  0  0  0  0  0  0  0  0  0  0
   -0.6510    1.1870   -0.5460 C   0  0  0  0  0  0  0  0  0  0  0  0
   -1.1020    2.0690   -1.3310 O   0  0  0  0  0  0  0  0  0  0  0  0
    3.1940    2.8240   -2.1880 H   0  0  0  0  0  0  0  0  0  0  0  0
    4.2920    2.1750   -0.8460 H   0  0  0  0  0  0  0  0  0  0  0  0
    4.0850    1.2660   -2.4390 H   0  0  0  0  0  0  0  0  0  0  0  0
    2.8560    0.2650   -0.6650 H   0  0  0  0  0  0  0  0  0  0  0  0
    2.4320    0.4600   -3.1560 H   0  0  0  0  0  0  0  0  0  0  0  0
    1.1200    1.6140   -2.8080 H   0  0  0  0  0  0  0  0  0  0  0  0
    0.9380   -0.0780   -2.2360 H   0  0  0  0  0  0  0  0  0  0  0  0
    1.3690    2.9810   -0.7790 H   0  0  0  0  0  0  0  0  0  0  0  0
    2.3580    2.4200    0.5690 H   0  0  0  0  0  0  0  0  0  0  0  0
    0.0380    2.1900    1.1680 H   0  0  0  0  0  0  0  0  0  0  0  0
    1.1770   -0.5610    0.5810 H   0  0  0  0  0  0  0  0  0  0  0  0
   -1.3170   -0.0900   -0.6640 N   0  0  0  0  0  0  0  0  0  0  0  0
   -2.3840   -0.3390   -1.5720 C   0  0  1  0  0  0  0  0  0  0  0  0
   -1.9240   -1.3110   -2.6300 C   0  0  0  0  0  0  0  0  0  0  0  0
   -1.4930   -2.6100   -2.1040 C   0  0  0  0  0  0  0  0  0  0  0  0
   -1.0770   -3.4580   -2.9380 O   0  0  0  0  0  0  0  0  0  0  0  0
   -3.6440   -0.7230   -0.9520 C   0  0  0  0  0  0  0  0  0  0  0  0
   -3.7400   -0.8250    0.2860 O   0  0  0  0  0  0  0  0  0  0  0  0
   -1.4980   -2.9950   -0.7810 O   0  0  0  0  0  0  0  0  0  0  0  0
   -4.7570   -0.9820   -1.7210 O   0  0  0  0  0  0  0  0  0  0  0  0
   -0.9870   -0.8500   -0.0490 H   0  0  0  0  0  0  0  0  0  0  0  0
   -2.5640    0.6290   -2.1280 H   0  0  0  0  0  0  0  0  0  0  0  0
   -1.1040   -0.8310   -3.1950 H   0  0  0  0  0  0  0  0  0  0  0  0
   -2.7740   -1.4080   -3.3590 H   0  0  0  0  0  0  0  0  0  0  0  0
   -1.8370   -3.9130   -0.5130 H   0  0  0  0  0  0  0  0  0  0  0  0
  1  9  1  0  0  0  0
  1 10  1  0  0  0  0
  2  1  1  0  0  0  0
  3 14  1  6  0  0  0
  3  2  1  0  0  0  0
  3  4  1  0  0  0  0
  3  5  1  0  0  0  0
  4 16  1  0  0  0  0
  5 18  1  6  0  0  0
  5  6  1  0  0  0  0
  6 19  1  0  0  0  0
  6 20  1  0  0  0  0
  7  8  2  0  0  0  0
  7  5  1  0  0  0  0
 11  1  1  0  0  0  0
 12  2  1  0  0  0  0
 13  2  1  0  0  0  0
 15  4  1  0  0  0  0
 17  4  1  0  0  0  0
 21 22  1  0  0  0  0
 21 30  1  0  0  0  0
 22 32  1  0  0  0  0
 22 24  1  0  0  0  0
 23 35  1  0  0  0  0
 23 22  1  0  0  0  0
 24 25  1  0  0  0  0
 24 37  1  0  0  0  0
 25 26  1  0  0  0  0
 25 38  1  1  0  0  0
 26  7  1  0  0  0  0
 27 25  1  0  0  0  0
 28 27  2  0  0  0  0
 29 21  1  0  0  0  0
 31 21  1  0  0  0  0
 33 23  1  0  0  0  0
 34 23  1  0  0  0  0
 36 24  1  0  0  0  0
 39 26  1  0  0  0  0
 40 27  1  0  0  0  0
 40 49  1  0  0  0  0
 41 50  1  6  0  0  0
 41 45  1  0  0  0  0
 41 40  1  0  0  0  0
 42 43  1  0  0  0  0
 42 41  1  0  0  0  0
 43 47  1  0  0  0  0
 44 43  2  0  0  0  0
 45 46  1  0  0  0  0
 47 53  1  0  0  0  0
 48 45  2  0  0  0  0
 51 42  1  0  0  0  0
 52 42  1  0  0  0  0
M  END
$$$$
