ILF.pdb
 OpenBabel07022418413D

 60 60  0  0  1  0  0  0  0  0999 V2000
    2.8580    1.0310    4.7400 C   0  0  0  0  0  0  0  0  0  0  0  0
    2.3860    2.1670    3.9010 C   0  0  0  0  0  0  0  0  0  0  0  0
    0.9180    2.3940    3.8730 C   0  0  2  0  0  0  0  0  0  0  0  0
    0.3010    2.6910    5.2220 C   0  0  0  0  0  0  0  0  0  0  0  0
    0.1460    1.3440    3.1180 C   0  0  2  0  0  0  0  0  0  0  0  0
    0.2830    0.0200    3.6310 N   0  0  0  0  0  0  0  0  0  0  0  0
    0.4290    1.4050    1.6540 C   0  0  0  0  0  0  0  0  0  0  0  0
    0.3530    2.5190    1.0330 O   0  0  0  0  0  0  0  0  0  0  0  0
    2.6070    1.1670    5.7900 H   0  0  0  0  0  0  0  0  0  0  0  0
    3.9880    1.0440    4.6990 H   0  0  0  0  0  0  0  0  0  0  0  0
    2.5900    0.0300    4.3330 H   0  0  0  0  0  0  0  0  0  0  0  0
    2.7430    2.1270    2.8560 H   0  0  0  0  0  0  0  0  0  0  0  0
    2.8560    3.0980    4.3270 H   0  0  0  0  0  0  0  0  0  0  0  0
    0.7680    3.3450    3.2750 H   0  0  0  0  0  0  0  0  0  0  0  0
   -0.7340    2.3030    5.3030 H   0  0  0  0  0  0  0  0  0  0  0  0
    0.2040    3.8010    5.4050 H   0  0  0  0  0  0  0  0  0  0  0  0
    0.9500    2.3150    6.0140 H   0  0  0  0  0  0  0  0  0  0  0  0
   -0.9420    1.6280    3.2420 H   0  0  0  0  0  0  0  0  0  0  0  0
    0.2150    0.0150    4.6730 H   0  0  0  0  0  0  0  0  0  0  0  0
   -0.4810   -0.5900    3.2850 H   0  0  0  0  0  0  0  0  0  0  0  0
    2.6160   -1.0560   -3.0540 C   0  0  0  0  0  0  0  0  0  0  0  0
    3.1100   -0.0950   -2.0310 C   0  0  0  0  0  0  0  0  0  0  0  0
    3.3500    1.2950   -2.6320 C   0  0  0  0  0  0  0  0  0  0  0  0
    2.4620   -0.0510   -0.7210 C   0  0  0  0  0  0  0  0  0  0  0  0
    1.0650    0.2850   -0.5050 C   0  0  2  0  0  0  0  0  0  0  0  0
    0.7820    0.2280    0.9540 N   0  0  0  0  0  0  0  0  0  0  0  0
    0.0060   -0.4660   -1.1770 C   0  0  0  0  0  0  0  0  0  0  0  0
   -0.1630   -0.5510   -2.4120 O   0  0  0  0  0  0  0  0  0  0  0  0
    2.1030   -1.9300   -2.6630 H   0  0  0  0  0  0  0  0  0  0  0  0
    3.4900   -1.5180   -3.6410 H   0  0  0  0  0  0  0  0  0  0  0  0
    2.0920   -0.4860   -3.8490 H   0  0  0  0  0  0  0  0  0  0  0  0
    4.1760   -0.4410   -1.8090 H   0  0  0  0  0  0  0  0  0  0  0  0
    3.8610    1.2010   -3.6120 H   0  0  0  0  0  0  0  0  0  0  0  0
    4.0330    1.8880   -1.9870 H   0  0  0  0  0  0  0  0  0  0  0  0
    2.4050    1.8740   -2.6890 H   0  0  0  0  0  0  0  0  0  0  0  0
    3.0830    0.6960   -0.1190 H   0  0  0  0  0  0  0  0  0  0  0  0
    2.6380   -1.0820   -0.2550 H   0  0  0  0  0  0  0  0  0  0  0  0
    0.9040    1.3630   -0.7760 H   0  0  0  0  0  0  0  0  0  0  0  0
    0.8440   -0.6810    1.4570 H   0  0  0  0  0  0  0  0  0  0  0  0
   -0.9770   -1.2080   -0.4180 N   0  0  0  0  0  0  0  0  0  0  0  0
   -2.0430   -1.9690   -1.0500 C   0  0  1  0  0  0  0  0  0  0  0  0
   -1.8570   -3.3940   -0.6080 C   0  0  0  0  0  0  0  0  0  0  0  0
   -2.8270   -4.3540   -1.1220 C   0  0  0  0  0  0  0  0  0  0  0  0
   -2.6120   -4.9940   -2.3340 C   0  0  0  0  0  0  0  0  0  0  0  0
   -3.5570   -5.8940   -2.7580 C   0  0  0  0  0  0  0  0  0  0  0  0
   -4.6850   -6.1510   -1.9980 C   0  0  0  0  0  0  0  0  0  0  0  0
   -4.9070   -5.5200   -0.7910 C   0  0  0  0  0  0  0  0  0  0  0  0
   -3.9600   -4.6140   -0.3620 C   0  0  0  0  0  0  0  0  0  0  0  0
   -3.3780   -1.4990   -0.6320 C   0  0  0  0  0  0  0  0  0  0  0  0
   -3.4500   -0.5650    0.1980 O   0  0  0  0  0  0  0  0  0  0  0  0
   -4.5580   -2.0340   -1.1070 O   0  0  0  0  0  0  0  0  0  0  0  0
   -0.9590   -1.2250    0.6300 H   0  0  0  0  0  0  0  0  0  0  0  0
   -1.9270   -1.8350   -2.1370 H   0  0  0  0  0  0  0  0  0  0  0  0
   -1.8410   -3.4630    0.4990 H   0  0  0  0  0  0  0  0  0  0  0  0
   -0.8380   -3.7720   -0.9200 H   0  0  0  0  0  0  0  0  0  0  0  0
   -1.7080   -4.7350   -2.8630 H   0  0  0  0  0  0  0  0  0  0  0  0
   -3.3780   -6.3830   -3.7030 H   0  0  0  0  0  0  0  0  0  0  0  0
   -5.4180   -6.8690   -2.3540 H   0  0  0  0  0  0  0  0  0  0  0  0
   -5.8120   -5.7530   -0.2230 H   0  0  0  0  0  0  0  0  0  0  0  0
   -4.1600   -4.1370    0.5910 H   0  0  0  0  0  0  0  0  0  0  0  0
  1  9  1  0  0  0  0
  2 13  1  0  0  0  0
  2  1  1  0  0  0  0
  3 14  1  6  0  0  0
  3  2  1  0  0  0  0
  3  4  1  0  0  0  0
  4 15  1  0  0  0  0
  4 16  1  0  0  0  0
  4 17  1  0  0  0  0
  5 18  1  1  0  0  0
  5  6  1  0  0  0  0
  5  3  1  0  0  0  0
  6 19  1  0  0  0  0
  7  5  1  0  0  0  0
  8  7  2  0  0  0  0
 10  1  1  0  0  0  0
 11  1  1  0  0  0  0
 12  2  1  0  0  0  0
 20  6  1  0  0  0  0
 21 29  1  0  0  0  0
 21 22  1  0  0  0  0
 22 32  1  0  0  0  0
 22 24  1  0  0  0  0
 23 22  1  0  0  0  0
 23 34  1  0  0  0  0
 24 25  1  0  0  0  0
 24 37  1  0  0  0  0
 24 36  1  0  0  0  0
 25 38  1  6  0  0  0
 25 26  1  0  0  0  0
 26 39  1  0  0  0  0
 26  7  1  0  0  0  0
 27 25  1  0  0  0  0
 27 40  1  0  0  0  0
 28 27  2  0  0  0  0
 30 21  1  0  0  0  0
 31 21  1  0  0  0  0
 33 23  1  0  0  0  0
 35 23  1  0  0  0  0
 40 52  1  0  0  0  0
 41 53  1  6  0  0  0
 41 49  1  0  0  0  0
 41 42  1  0  0  0  0
 41 40  1  0  0  0  0
 42 54  1  0  0  0  0
 43 42  1  0  0  0  0
 43 48  1  0  0  0  0
 44 43  2  0  0  0  0
 45 44  1  0  0  0  0
 45 46  2  0  0  0  0
 46 47  1  0  0  0  0
 47 48  2  0  0  0  0
 47 59  1  0  0  0  0
 48 60  1  0  0  0  0
 49 50  1  0  0  0  0
 51 49  2  0  0  0  0
 55 42  1  0  0  0  0
 56 44  1  0  0  0  0
 57 45  1  0  0  0  0
 58 46  1  0  0  0  0
M  END
$$$$
