ILI.pdb
 OpenBabel07022418413D

 59 58  0  0  1  0  0  0  0  0999 V2000
    2.9490   -3.0230    3.8250 C   0  0  0  0  0  0  0  0  0  0  0  0
    3.5830   -1.8240    3.2070 C   0  0  0  0  0  0  0  0  0  0  0  0
    3.5710   -1.8900    1.7060 C   0  0  2  0  0  0  0  0  0  0  0  0
    4.2170   -0.6620    1.0990 C   0  0  0  0  0  0  0  0  0  0  0  0
    2.2400   -2.1010    1.0930 C   0  0  2  0  0  0  0  0  0  0  0  0
    2.3990   -2.1380   -0.3510 N   0  0  0  0  0  0  0  0  0  0  0  0
    1.2510   -1.1270    1.5360 C   0  0  0  0  0  0  0  0  0  0  0  0
    1.0170   -0.9320    2.7550 O   0  0  0  0  0  0  0  0  0  0  0  0
    2.0480   -3.3990    3.3540 H   0  0  0  0  0  0  0  0  0  0  0  0
    3.7250   -3.8420    3.8700 H   0  0  0  0  0  0  0  0  0  0  0  0
    2.6850   -2.8520    4.9080 H   0  0  0  0  0  0  0  0  0  0  0  0
    3.1310   -0.9130    3.6350 H   0  0  0  0  0  0  0  0  0  0  0  0
    4.6880   -1.7780    3.4820 H   0  0  0  0  0  0  0  0  0  0  0  0
    4.2340   -2.7660    1.4480 H   0  0  0  0  0  0  0  0  0  0  0  0
    3.9040   -0.4990    0.0560 H   0  0  0  0  0  0  0  0  0  0  0  0
    5.3240   -0.7850    1.1020 H   0  0  0  0  0  0  0  0  0  0  0  0
    3.9140    0.2090    1.6960 H   0  0  0  0  0  0  0  0  0  0  0  0
    1.8970   -3.1250    1.3660 H   0  0  0  0  0  0  0  0  0  0  0  0
    1.5240   -2.2880   -0.8620 H   0  0  0  0  0  0  0  0  0  0  0  0
    3.0350   -2.9420   -0.5620 H   0  0  0  0  0  0  0  0  0  0  0  0
    0.4840    4.0710   -0.1800 C   0  0  0  0  0  0  0  0  0  0  0  0
    0.7550    2.7470    0.5530 C   0  0  0  0  0  0  0  0  0  0  0  0
    1.8160    2.0560   -0.3030 C   0  0  0  0  0  0  0  0  0  0  0  0
   -0.4940    1.9450    0.4590 C   0  0  0  0  0  0  0  0  0  0  0  0
   -0.4910    0.6130    1.1060 C   0  0  2  0  0  0  0  0  0  0  0  0
    0.4790   -0.3310    0.6340 N   0  0  0  0  0  0  0  0  0  0  0  0
   -1.8860    0.0490    0.8980 C   0  0  0  0  0  0  0  0  0  0  0  0
   -2.8670    0.7190    1.2320 O   0  0  0  0  0  0  0  0  0  0  0  0
    1.4220    4.4290   -0.6740 H   0  0  0  0  0  0  0  0  0  0  0  0
    0.0850    4.8180    0.5350 H   0  0  0  0  0  0  0  0  0  0  0  0
   -0.2730    3.9070   -0.9810 H   0  0  0  0  0  0  0  0  0  0  0  0
    1.1000    2.9460    1.5620 H   0  0  0  0  0  0  0  0  0  0  0  0
    2.2700    1.2810    0.3090 H   0  0  0  0  0  0  0  0  0  0  0  0
    2.6040    2.7690   -0.6190 H   0  0  0  0  0  0  0  0  0  0  0  0
    1.3780    1.6420   -1.2220 H   0  0  0  0  0  0  0  0  0  0  0  0
   -0.8030    1.7990   -0.6130 H   0  0  0  0  0  0  0  0  0  0  0  0
   -1.3680    2.5120    0.8980 H   0  0  0  0  0  0  0  0  0  0  0  0
   -0.3820    0.6690    2.2290 H   0  0  0  0  0  0  0  0  0  0  0  0
    0.6740   -0.4900   -0.3860 H   0  0  0  0  0  0  0  0  0  0  0  0
   -2.1780   -0.4530   -2.4180 C   0  0  0  0  0  0  0  0  0  0  0  0
   -3.3040   -1.3940   -2.4020 C   0  0  0  0  0  0  0  0  0  0  0  0
   -3.4200   -2.3720   -1.2970 C   0  0  2  0  0  0  0  0  0  0  0  0
   -4.6630   -3.2550   -1.4840 C   0  0  0  0  0  0  0  0  0  0  0  0
   -3.3180   -1.8590    0.0920 C   0  0  2  0  0  0  0  0  0  0  0  0
   -2.0450   -1.2420    0.3240 N   0  0  0  0  0  0  0  0  0  0  0  0
   -3.4000   -3.0310    1.0210 C   0  0  0  0  0  0  0  0  0  0  0  0
   -2.4810   -3.3580    1.8100 O   0  0  0  0  0  0  0  0  0  0  0  0
   -4.5480   -3.8040    1.0170 O   0  0  0  0  0  0  0  0  0  0  0  0
   -2.3450    0.5090   -1.9000 H   0  0  0  0  0  0  0  0  0  0  0  0
   -1.9980   -0.1340   -3.4960 H   0  0  0  0  0  0  0  0  0  0  0  0
   -1.1930   -0.8380   -2.1000 H   0  0  0  0  0  0  0  0  0  0  0  0
   -3.3130   -1.9430   -3.3930 H   0  0  0  0  0  0  0  0  0  0  0  0
   -4.2790   -0.8190   -2.4430 H   0  0  0  0  0  0  0  0  0  0  0  0
   -2.5490   -3.0870   -1.4190 H   0  0  0  0  0  0  0  0  0  0  0  0
   -5.5180   -2.8860   -0.9010 H   0  0  0  0  0  0  0  0  0  0  0  0
   -4.8570   -3.2410   -2.5840 H   0  0  0  0  0  0  0  0  0  0  0  0
   -4.3580   -4.2880   -1.2460 H   0  0  0  0  0  0  0  0  0  0  0  0
   -4.1690   -1.2100    0.3950 H   0  0  0  0  0  0  0  0  0  0  0  0
   -1.1500   -1.7380    0.0790 H   0  0  0  0  0  0  0  0  0  0  0  0
  1 10  1  0  0  0  0
  1 11  1  0  0  0  0
  2 13  1  0  0  0  0
  2 12  1  0  0  0  0
  2  1  1  0  0  0  0
  3 14  1  6  0  0  0
  3  2  1  0  0  0  0
  4 16  1  0  0  0  0
  4 17  1  0  0  0  0
  4  3  1  0  0  0  0
  5 18  1  1  0  0  0
  5  7  1  0  0  0  0
  5  3  1  0  0  0  0
  6  5  1  0  0  0  0
  7  8  2  0  0  0  0
  9  1  1  0  0  0  0
 15  4  1  0  0  0  0
 19  6  1  0  0  0  0
 20  6  1  0  0  0  0
 21 30  1  0  0  0  0
 21 22  1  0  0  0  0
 22 32  1  0  0  0  0
 23 33  1  0  0  0  0
 23 22  1  0  0  0  0
 24 22  1  0  0  0  0
 24 37  1  0  0  0  0
 24 25  1  0  0  0  0
 25 38  1  1  0  0  0
 26 25  1  0  0  0  0
 26  7  1  0  0  0  0
 27 25  1  0  0  0  0
 27 28  2  0  0  0  0
 29 21  1  0  0  0  0
 31 21  1  0  0  0  0
 34 23  1  0  0  0  0
 35 23  1  0  0  0  0
 36 24  1  0  0  0  0
 39 26  1  0  0  0  0
 40 41  1  0  0  0  0
 40 51  1  0  0  0  0
 40 49  1  0  0  0  0
 41 42  1  0  0  0  0
 42 54  1  6  0  0  0
 42 44  1  0  0  0  0
 43 42  1  0  0  0  0
 43 57  1  0  0  0  0
 43 55  1  0  0  0  0
 44 45  1  0  0  0  0
 44 58  1  1  0  0  0
 44 46  1  0  0  0  0
 45 27  1  0  0  0  0
 46 47  1  0  0  0  0
 48 46  2  0  0  0  0
 50 40  1  0  0  0  0
 52 41  1  0  0  0  0
 53 41  1  0  0  0  0
 56 43  1  0  0  0  0
 59 45  1  0  0  0  0
M  END
$$$$
