ILN.pdb
 OpenBabel07022418413D

 54 53  0  0  1  0  0  0  0  0999 V2000
    3.0900   -1.5310   -0.1370 C   0  0  0  0  0  0  0  0  0  0  0  0
    1.8850   -2.2660   -0.6750 C   0  0  0  0  0  0  0  0  0  0  0  0
    1.5940   -3.4280    0.2320 C   0  0  2  0  0  0  0  0  0  0  0  0
    0.4010   -4.2330   -0.2720 C   0  0  0  0  0  0  0  0  0  0  0  0
    1.4560   -3.0810    1.6700 C   0  0  2  0  0  0  0  0  0  0  0  0
    1.2210   -4.4040    2.3460 N   0  0  0  0  0  0  0  0  0  0  0  0
    0.4070   -2.2200    2.1300 C   0  0  0  0  0  0  0  0  0  0  0  0
   -0.4820   -2.7600    2.9120 O   0  0  0  0  0  0  0  0  0  0  0  0
    4.0320   -2.1090   -0.2950 H   0  0  0  0  0  0  0  0  0  0  0  0
    3.1680   -0.5770   -0.7030 H   0  0  0  0  0  0  0  0  0  0  0  0
    3.0420   -1.2630    0.9210 H   0  0  0  0  0  0  0  0  0  0  0  0
    1.0690   -1.5390   -0.7830 H   0  0  0  0  0  0  0  0  0  0  0  0
    2.1510   -2.7260   -1.6670 H   0  0  0  0  0  0  0  0  0  0  0  0
    2.4650   -4.1070    0.1440 H   0  0  0  0  0  0  0  0  0  0  0  0
    0.6960   -4.9790   -1.0400 H   0  0  0  0  0  0  0  0  0  0  0  0
   -0.3540   -3.5800   -0.7530 H   0  0  0  0  0  0  0  0  0  0  0  0
    0.0230   -4.7990    0.5940 H   0  0  0  0  0  0  0  0  0  0  0  0
    2.4350   -2.7780    2.0640 H   0  0  0  0  0  0  0  0  0  0  0  0
    1.1780   -4.2420    3.3770 H   0  0  0  0  0  0  0  0  0  0  0  0
    2.0150   -5.0180    2.0680 H   0  0  0  0  0  0  0  0  0  0  0  0
   -0.3770    2.8300    1.7170 C   0  0  0  0  0  0  0  0  0  0  0  0
    0.2900    2.0810    2.8660 C   0  0  0  0  0  0  0  0  0  0  0  0
    1.6760    1.7690    2.4760 C   0  0  0  0  0  0  0  0  0  0  0  0
   -0.5560    0.9840    3.3520 C   0  0  0  0  0  0  0  0  0  0  0  0
   -0.9470   -0.1060    2.4240 C   0  0  2  0  0  0  0  0  0  0  0  0
    0.1750   -0.8380    1.8660 N   0  0  0  0  0  0  0  0  0  0  0  0
   -1.9770    0.2750    1.4410 C   0  0  0  0  0  0  0  0  0  0  0  0
   -2.9730    0.9120    1.8670 O   0  0  0  0  0  0  0  0  0  0  0  0
    0.2000    3.7840    1.5690 H   0  0  0  0  0  0  0  0  0  0  0  0
   -1.3770    3.1340    2.0520 H   0  0  0  0  0  0  0  0  0  0  0  0
   -0.4230    2.2280    0.8090 H   0  0  0  0  0  0  0  0  0  0  0  0
    0.3240    2.8510    3.6960 H   0  0  0  0  0  0  0  0  0  0  0  0
    1.8710    1.7720    1.3860 H   0  0  0  0  0  0  0  0  0  0  0  0
    2.3580    2.5440    2.8860 H   0  0  0  0  0  0  0  0  0  0  0  0
    2.0180    0.8150    2.9680 H   0  0  0  0  0  0  0  0  0  0  0  0
   -0.1270    0.5060    4.2700 H   0  0  0  0  0  0  0  0  0  0  0  0
   -1.5220    1.4420    3.7230 H   0  0  0  0  0  0  0  0  0  0  0  0
   -1.4950   -0.8510    3.0880 H   0  0  0  0  0  0  0  0  0  0  0  0
    0.8760   -0.3970    1.2460 H   0  0  0  0  0  0  0  0  0  0  0  0
   -0.4600    0.9580   -3.8100 N   0  0  0  0  0  0  0  0  0  0  0  0
   -1.2110    0.3530   -2.7560 C   0  0  0  0  0  0  0  0  0  0  0  0
   -0.9470   -0.8420   -2.4900 O   0  0  0  0  0  0  0  0  0  0  0  0
   -2.2460    1.0820   -2.0100 C   0  0  0  0  0  0  0  0  0  0  0  0
   -2.8880    0.3210   -0.9010 C   0  0  2  0  0  0  0  0  0  0  0  0
   -1.8800   -0.0460    0.0800 N   0  0  0  0  0  0  0  0  0  0  0  0
   -3.4860   -0.9150   -1.4820 C   0  0  0  0  0  0  0  0  0  0  0  0
   -4.3840   -0.9020   -2.3570 O   0  0  0  0  0  0  0  0  0  0  0  0
   -3.0350   -2.1480   -1.0390 O   0  0  0  0  0  0  0  0  0  0  0  0
   -0.8180    1.8230   -4.2730 H   0  0  0  0  0  0  0  0  0  0  0  0
    0.4420    0.5560   -4.1300 H   0  0  0  0  0  0  0  0  0  0  0  0
   -3.0120    1.4190   -2.7490 H   0  0  0  0  0  0  0  0  0  0  0  0
   -1.7490    2.0010   -1.5930 H   0  0  0  0  0  0  0  0  0  0  0  0
   -3.7260    0.8780   -0.4320 H   0  0  0  0  0  0  0  0  0  0  0  0
   -1.0370   -0.5730   -0.2170 H   0  0  0  0  0  0  0  0  0  0  0  0
  1 11  1  0  0  0  0
  2  1  1  0  0  0  0
  2  3  1  0  0  0  0
  3 14  1  6  0  0  0
  3  5  1  0  0  0  0
  4  3  1  0  0  0  0
  4 17  1  0  0  0  0
  5 18  1  1  0  0  0
  5  7  1  0  0  0  0
  5  6  1  0  0  0  0
  6 19  1  0  0  0  0
  7  8  2  0  0  0  0
  9  1  1  0  0  0  0
 10  1  1  0  0  0  0
 12  2  1  0  0  0  0
 13  2  1  0  0  0  0
 15  4  1  0  0  0  0
 16  4  1  0  0  0  0
 20  6  1  0  0  0  0
 21 30  1  0  0  0  0
 21 22  1  0  0  0  0
 22 24  1  0  0  0  0
 22 32  1  0  0  0  0
 23 22  1  0  0  0  0
 23 34  1  0  0  0  0
 23 35  1  0  0  0  0
 24 37  1  0  0  0  0
 24 36  1  0  0  0  0
 25 38  1  1  0  0  0
 25 24  1  0  0  0  0
 26  7  1  0  0  0  0
 26 25  1  0  0  0  0
 27 28  2  0  0  0  0
 27 25  1  0  0  0  0
 29 21  1  0  0  0  0
 31 21  1  0  0  0  0
 33 23  1  0  0  0  0
 39 26  1  0  0  0  0
 40 41  1  0  0  0  0
 41 42  2  0  0  0  0
 41 43  1  0  0  0  0
 43 52  1  0  0  0  0
 43 44  1  0  0  0  0
 44 53  1  1  0  0  0
 44 45  1  0  0  0  0
 45 27  1  0  0  0  0
 46 48  1  0  0  0  0
 46 44  1  0  0  0  0
 47 46  2  0  0  0  0
 49 40  1  0  0  0  0
 50 40  1  0  0  0  0
 51 43  1  0  0  0  0
 54 45  1  0  0  0  0
M  END
$$$$
