ILP.pdb
 OpenBabel07022418423D

 54 54  0  0  1  0  0  0  0  0999 V2000
    0.8430   -5.9370    3.5390 C   0  0  0  0  0  0  0  0  0  0  0  0
    1.2830   -4.5530    3.9940 C   0  0  0  0  0  0  0  0  0  0  0  0
    0.4080   -3.4690    3.3750 C   0  0  2  0  0  0  0  0  0  0  0  0
   -1.0180   -3.6670    3.7810 C   0  0  0  0  0  0  0  0  0  0  0  0
    0.5610   -3.4530    1.8540 C   0  0  2  0  0  0  0  0  0  0  0  0
    1.9270   -3.1940    1.4770 N   0  0  0  0  0  0  0  0  0  0  0  0
   -0.3480   -2.3860    1.3640 C   0  0  0  0  0  0  0  0  0  0  0  0
   -1.6040   -2.4350    1.5960 O   0  0  0  0  0  0  0  0  0  0  0  0
    0.4730   -6.5360    4.4050 H   0  0  0  0  0  0  0  0  0  0  0  0
   -0.0110   -5.8820    2.8270 H   0  0  0  0  0  0  0  0  0  0  0  0
    1.6950   -6.5090    3.0920 H   0  0  0  0  0  0  0  0  0  0  0  0
    2.3490   -4.3650    3.7660 H   0  0  0  0  0  0  0  0  0  0  0  0
    1.1230   -4.4870    5.0860 H   0  0  0  0  0  0  0  0  0  0  0  0
    0.7600   -2.5120    3.8100 H   0  0  0  0  0  0  0  0  0  0  0  0
   -1.5990   -4.3160    3.1120 H   0  0  0  0  0  0  0  0  0  0  0  0
   -1.0250   -4.1380    4.7890 H   0  0  0  0  0  0  0  0  0  0  0  0
   -1.5210   -2.6680    3.9300 H   0  0  0  0  0  0  0  0  0  0  0  0
    0.2330   -4.4220    1.4240 H   0  0  0  0  0  0  0  0  0  0  0  0
    2.2340   -2.2900    1.8970 H   0  0  0  0  0  0  0  0  0  0  0  0
    2.0430   -3.1550    0.4500 H   0  0  0  0  0  0  0  0  0  0  0  0
    0.7660    2.9330    1.7600 C   0  0  0  0  0  0  0  0  0  0  0  0
    0.9140    1.6320    0.9330 C   0  0  0  0  0  0  0  0  0  0  0  0
    1.9180    0.8000    1.7300 C   0  0  0  0  0  0  0  0  0  0  0  0
   -0.4500    1.0400    0.8980 C   0  0  0  0  0  0  0  0  0  0  0  0
   -0.6030   -0.2420    0.1240 C   0  0  2  0  0  0  0  0  0  0  0  0
    0.2240   -1.3130    0.6300 N   0  0  0  0  0  0  0  0  0  0  0  0
   -0.3700   -0.1050   -1.3200 C   0  0  0  0  0  0  0  0  0  0  0  0
    0.5480   -0.8180   -1.8410 O   0  0  0  0  0  0  0  0  0  0  0  0
    0.2110    2.6210    2.6780 H   0  0  0  0  0  0  0  0  0  0  0  0
    0.1580    3.6700    1.2100 H   0  0  0  0  0  0  0  0  0  0  0  0
    1.7440    3.3400    2.0340 H   0  0  0  0  0  0  0  0  0  0  0  0
    1.2970    1.9310   -0.0510 H   0  0  0  0  0  0  0  0  0  0  0  0
    1.4220    0.0440    2.3700 H   0  0  0  0  0  0  0  0  0  0  0  0
    2.7350    0.4020    1.0960 H   0  0  0  0  0  0  0  0  0  0  0  0
    2.4730    1.4470    2.4830 H   0  0  0  0  0  0  0  0  0  0  0  0
   -0.7280    0.7980    1.9570 H   0  0  0  0  0  0  0  0  0  0  0  0
   -1.1860    1.7650    0.5590 H   0  0  0  0  0  0  0  0  0  0  0  0
   -1.6890   -0.5340    0.2880 H   0  0  0  0  0  0  0  0  0  0  0  0
    1.2440   -1.2860    0.4320 H   0  0  0  0  0  0  0  0  0  0  0  0
   -1.1200    0.7860   -2.1560 N   0  0  0  0  0  0  0  0  0  0  0  0
   -2.2020    1.6560   -1.8350 C   0  0  0  0  0  0  0  0  0  0  0  0
   -3.1000    1.6020   -3.0750 C   0  0  0  0  0  0  0  0  0  0  0  0
   -2.1060    1.5120   -4.1860 C   0  0  0  0  0  0  0  0  0  0  0  0
   -0.8440    0.9450   -3.5790 C   0  0  1  0  0  0  0  0  0  0  0  0
    0.2840    1.8990   -3.7330 C   0  0  0  0  0  0  0  0  0  0  0  0
    0.6450    2.1390   -4.9320 O   0  0  0  0  0  0  0  0  0  0  0  0
    0.9430    2.5220   -2.7070 O   0  0  0  0  0  0  0  0  0  0  0  0
   -1.9200    2.6970   -1.6380 H   0  0  0  0  0  0  0  0  0  0  0  0
   -2.8480    1.2750   -1.0110 H   0  0  0  0  0  0  0  0  0  0  0  0
   -3.8250    0.7850   -3.0290 H   0  0  0  0  0  0  0  0  0  0  0  0
   -3.6500    2.5800   -3.0800 H   0  0  0  0  0  0  0  0  0  0  0  0
   -2.4490    0.8950   -5.0450 H   0  0  0  0  0  0  0  0  0  0  0  0
   -1.9370    2.5550   -4.5750 H   0  0  0  0  0  0  0  0  0  0  0  0
   -0.5910   -0.0360   -4.0430 H   0  0  0  0  0  0  0  0  0  0  0  0
  1  2  1  0  0  0  0
  1  9  1  0  0  0  0
  2 13  1  0  0  0  0
  3  4  1  0  0  0  0
  3 14  1  1  0  0  0
  3  2  1  0  0  0  0
  4 17  1  0  0  0  0
  4 16  1  0  0  0  0
  5 18  1  6  0  0  0
  5  3  1  0  0  0  0
  6  5  1  0  0  0  0
  6 19  1  0  0  0  0
  7  8  2  0  0  0  0
  7  5  1  0  0  0  0
 10  1  1  0  0  0  0
 11  1  1  0  0  0  0
 12  2  1  0  0  0  0
 15  4  1  0  0  0  0
 20  6  1  0  0  0  0
 21 31  1  0  0  0  0
 21 29  1  0  0  0  0
 22 23  1  0  0  0  0
 22 21  1  0  0  0  0
 23 33  1  0  0  0  0
 23 35  1  0  0  0  0
 24 22  1  0  0  0  0
 24 36  1  0  0  0  0
 25 38  1  1  0  0  0
 25 26  1  0  0  0  0
 25 24  1  0  0  0  0
 26  7  1  0  0  0  0
 27 25  1  0  0  0  0
 28 27  2  0  0  0  0
 30 21  1  0  0  0  0
 32 22  1  0  0  0  0
 34 23  1  0  0  0  0
 37 24  1  0  0  0  0
 39 26  1  0  0  0  0
 40 41  1  0  0  0  0
 40 27  1  0  0  0  0
 41 48  1  0  0  0  0
 41 49  1  0  0  0  0
 42 50  1  0  0  0  0
 42 41  1  0  0  0  0
 43 44  1  0  0  0  0
 43 42  1  0  0  0  0
 44 54  1  6  0  0  0
 44 40  1  0  0  0  0
 45 44  1  0  0  0  0
 45 47  1  0  0  0  0
 46 45  2  0  0  0  0
 51 42  1  0  0  0  0
 52 43  1  0  0  0  0
 53 43  1  0  0  0  0
M  END
$$$$
