ILR.pdb
 OpenBabel07022418413D

 63 62  0  0  1  0  0  0  0  0999 V2000
    5.7420   -0.5980    2.2970 C   0  0  0  0  0  0  0  0  0  0  0  0
    4.8570   -0.6530    1.0870 C   0  0  0  0  0  0  0  0  0  0  0  0
    3.3830   -0.6180    1.4410 C   0  0  2  0  0  0  0  0  0  0  0  0
    2.6620   -0.7030    0.0820 C   0  0  0  0  0  0  0  0  0  0  0  0
    3.0370    0.7330    2.0130 C   0  0  2  0  0  0  0  0  0  0  0  0
    3.8990    0.8940    3.2080 N   0  0  0  0  0  0  0  0  0  0  0  0
    1.6750    0.9070    2.4860 C   0  0  0  0  0  0  0  0  0  0  0  0
    1.4680    0.9690    3.7530 O   0  0  0  0  0  0  0  0  0  0  0  0
    6.0930    0.4250    2.5520 H   0  0  0  0  0  0  0  0  0  0  0  0
    6.6670   -1.2280    2.1590 H   0  0  0  0  0  0  0  0  0  0  0  0
    5.2360   -1.0130    3.2030 H   0  0  0  0  0  0  0  0  0  0  0  0
    5.0900   -1.6240    0.5680 H   0  0  0  0  0  0  0  0  0  0  0  0
    5.1250    0.1860    0.3850 H   0  0  0  0  0  0  0  0  0  0  0  0
    3.1690   -1.4640    2.0790 H   0  0  0  0  0  0  0  0  0  0  0  0
    2.5660    0.2970   -0.3720 H   0  0  0  0  0  0  0  0  0  0  0  0
    3.3040   -1.2850   -0.6390 H   0  0  0  0  0  0  0  0  0  0  0  0
    1.6820   -1.1650    0.1570 H   0  0  0  0  0  0  0  0  0  0  0  0
    3.2950    1.5330    1.2990 H   0  0  0  0  0  0  0  0  0  0  0  0
    4.3030    1.8650    3.2300 H   0  0  0  0  0  0  0  0  0  0  0  0
    3.3480    0.7240    4.0910 H   0  0  0  0  0  0  0  0  0  0  0  0
   -0.3250    3.4100    0.0840 C   0  0  0  0  0  0  0  0  0  0  0  0
   -1.5170    3.2490    0.9510 C   0  0  0  0  0  0  0  0  0  0  0  0
   -2.6450    2.6290    0.1180 C   0  0  0  0  0  0  0  0  0  0  0  0
   -1.3330    2.6080    2.2510 C   0  0  0  0  0  0  0  0  0  0  0  0
   -0.8100    1.2080    2.3030 C   0  0  2  0  0  0  0  0  0  0  0  0
    0.4750    1.0280    1.7220 N   0  0  0  0  0  0  0  0  0  0  0  0
   -1.7820    0.1980    1.8350 C   0  0  0  0  0  0  0  0  0  0  0  0
   -2.9720    0.1870    2.3220 O   0  0  0  0  0  0  0  0  0  0  0  0
   -0.3870    2.6520   -0.7510 H   0  0  0  0  0  0  0  0  0  0  0  0
    0.6380    3.3930    0.5950 H   0  0  0  0  0  0  0  0  0  0  0  0
   -0.3590    4.3970   -0.4690 H   0  0  0  0  0  0  0  0  0  0  0  0
   -1.8960    4.2960    1.1680 H   0  0  0  0  0  0  0  0  0  0  0  0
   -2.2490    1.8020   -0.4820 H   0  0  0  0  0  0  0  0  0  0  0  0
   -3.0330    3.3800   -0.6300 H   0  0  0  0  0  0  0  0  0  0  0  0
   -3.5050    2.3770    0.7560 H   0  0  0  0  0  0  0  0  0  0  0  0
   -2.3210    2.5930    2.7800 H   0  0  0  0  0  0  0  0  0  0  0  0
   -0.6720    3.2410    2.8810 H   0  0  0  0  0  0  0  0  0  0  0  0
   -0.6870    1.0460    3.4230 H   0  0  0  0  0  0  0  0  0  0  0  0
    0.5710    0.9810    0.6960 H   0  0  0  0  0  0  0  0  0  0  0  0
   -0.9960   -5.5040   -3.8190 N   0  0  0  0  0  0  0  0  0  0  0  0
   -2.0310   -5.2990   -2.8510 C   0  0  0  0  0  0  0  0  0  0  0  0
   -2.6050   -6.2990   -2.2710 N   0  0  0  0  0  0  0  0  0  0  0  0
   -2.3750   -3.9320   -2.5790 N   0  0  0  0  0  0  0  0  0  0  0  0
   -3.6750   -3.6680   -1.9980 C   0  0  0  0  0  0  0  0  0  0  0  0
   -3.8750   -2.2100   -1.7820 C   0  0  0  0  0  0  0  0  0  0  0  0
   -2.8900   -1.5330   -0.9570 C   0  0  0  0  0  0  0  0  0  0  0  0
   -2.6030   -1.7930    0.4600 C   0  0  2  0  0  0  0  0  0  0  0  0
   -1.5330   -0.7960    0.8700 N   0  0  0  0  0  0  0  0  0  0  0  0
   -2.0510   -3.0660    0.8910 C   0  0  0  0  0  0  0  0  0  0  0  0
   -2.6680   -4.1400    0.9660 O   0  0  0  0  0  0  0  0  0  0  0  0
   -0.6850   -3.1880    1.2840 O   0  0  0  0  0  0  0  0  0  0  0  0
   -1.1590   -6.1780   -4.5840 H   0  0  0  0  0  0  0  0  0  0  0  0
   -0.1170   -4.9760   -3.7310 H   0  0  0  0  0  0  0  0  0  0  0  0
   -3.3570   -6.2060   -1.5660 H   0  0  0  0  0  0  0  0  0  0  0  0
   -1.6740   -3.1940   -2.8130 H   0  0  0  0  0  0  0  0  0  0  0  0
   -4.4190   -3.9900   -2.8350 H   0  0  0  0  0  0  0  0  0  0  0  0
   -3.8450   -4.2880   -1.1410 H   0  0  0  0  0  0  0  0  0  0  0  0
   -4.9490   -1.9980   -1.4600 H   0  0  0  0  0  0  0  0  0  0  0  0
   -3.8410   -1.6780   -2.8100 H   0  0  0  0  0  0  0  0  0  0  0  0
   -3.0410   -0.3800   -1.0440 H   0  0  0  0  0  0  0  0  0  0  0  0
   -1.8920   -1.6290   -1.5550 H   0  0  0  0  0  0  0  0  0  0  0  0
   -3.4560   -1.5320    1.1090 H   0  0  0  0  0  0  0  0  0  0  0  0
   -0.6060   -0.8580    0.4180 H   0  0  0  0  0  0  0  0  0  0  0  0
  1  9  1  0  0  0  0
  1 11  1  0  0  0  0
  2  3  1  0  0  0  0
  2  1  1  0  0  0  0
  3  5  1  0  0  0  0
  3 14  1  1  0  0  0
  4 17  1  0  0  0  0
  4  3  1  0  0  0  0
  5 18  1  6  0  0  0
  5  7  1  0  0  0  0
  5  6  1  0  0  0  0
  6 19  1  0  0  0  0
  6 20  1  0  0  0  0
  7  8  2  0  0  0  0
 10  1  1  0  0  0  0
 12  2  1  0  0  0  0
 13  2  1  0  0  0  0
 15  4  1  0  0  0  0
 16  4  1  0  0  0  0
 21 30  1  0  0  0  0
 21 22  1  0  0  0  0
 22 32  1  0  0  0  0
 22 24  1  0  0  0  0
 23 35  1  0  0  0  0
 23 22  1  0  0  0  0
 24 25  1  0  0  0  0
 24 36  1  0  0  0  0
 24 37  1  0  0  0  0
 25 38  1  1  0  0  0
 26 25  1  0  0  0  0
 26  7  1  0  0  0  0
 27 25  1  0  0  0  0
 27 28  2  0  0  0  0
 29 21  1  0  0  0  0
 31 21  1  0  0  0  0
 33 23  1  0  0  0  0
 34 23  1  0  0  0  0
 39 26  1  0  0  0  0
 40 53  1  0  0  0  0
 40 41  1  0  0  0  0
 41 43  1  0  0  0  0
 41 42  2  0  0  0  0
 42 54  1  0  0  0  0
 43 44  1  0  0  0  0
 44 45  1  0  0  0  0
 44 57  1  0  0  0  0
 45 58  1  0  0  0  0
 45 46  1  0  0  0  0
 46 47  1  0  0  0  0
 47 48  1  0  0  0  0
 47 49  1  0  0  0  0
 47 62  1  1  0  0  0
 48 27  1  0  0  0  0
 49 50  2  0  0  0  0
 49 51  1  0  0  0  0
 52 40  1  0  0  0  0
 55 43  1  0  0  0  0
 56 44  1  0  0  0  0
 59 45  1  0  0  0  0
 60 46  1  0  0  0  0
 61 46  1  0  0  0  0
 63 48  1  0  0  0  0
M  END
$$$$
