IMA.pdb
 OpenBabel07022418423D

 48 47  0  0  1  0  0  0  0  0999 V2000
    1.7850   -5.5880   -0.0210 C   0  0  0  0  0  0  0  0  0  0  0  0
    0.6340   -4.6020    0.2520 C   0  0  0  0  0  0  0  0  0  0  0  0
    0.7210   -3.4500   -0.7130 C   0  0  2  0  0  0  0  0  0  0  0  0
    2.0650   -2.7380   -0.5040 C   0  0  0  0  0  0  0  0  0  0  0  0
   -0.3910   -2.4550   -0.5510 C   0  0  2  0  0  0  0  0  0  0  0  0
   -0.1650   -1.4100   -1.5640 N   0  0  0  0  0  0  0  0  0  0  0  0
   -0.3460   -1.8740    0.7980 C   0  0  0  0  0  0  0  0  0  0  0  0
   -0.6140   -2.5230    1.8340 O   0  0  0  0  0  0  0  0  0  0  0  0
    1.6960   -5.8370   -1.0980 H   0  0  0  0  0  0  0  0  0  0  0  0
    2.7560   -5.1110    0.2300 H   0  0  0  0  0  0  0  0  0  0  0  0
    1.6160   -6.5330    0.5330 H   0  0  0  0  0  0  0  0  0  0  0  0
   -0.2870   -5.1850    0.0690 H   0  0  0  0  0  0  0  0  0  0  0  0
    0.6470   -4.2970    1.2980 H   0  0  0  0  0  0  0  0  0  0  0  0
    0.7580   -3.8360   -1.7810 H   0  0  0  0  0  0  0  0  0  0  0  0
    2.8980   -3.4020   -0.8730 H   0  0  0  0  0  0  0  0  0  0  0  0
    2.2640   -2.5470    0.5590 H   0  0  0  0  0  0  0  0  0  0  0  0
    2.0720   -1.7940   -1.0900 H   0  0  0  0  0  0  0  0  0  0  0  0
   -1.3430   -2.9570   -0.7870 H   0  0  0  0  0  0  0  0  0  0  0  0
    0.0110   -1.9360   -2.4580 H   0  0  0  0  0  0  0  0  0  0  0  0
   -1.0150   -0.8140   -1.6360 H   0  0  0  0  0  0  0  0  0  0  0  0
    3.6710    0.2790    0.1360 C   0  0  0  0  0  0  0  0  0  0  0  0
    2.2950    1.4460    0.3180 S   0  0  0  0  0  0  0  0  0  0  0  0
    1.8970    1.7770    2.0220 C   0  0  0  0  0  0  0  0  0  0  0  0
    1.3390    0.6440    2.8030 C   0  0  0  0  0  0  0  0  0  0  0  0
    0.0550    0.0650    2.3440 C   0  0  2  0  0  0  0  0  0  0  0  0
    0.0170   -0.4900    1.0290 N   0  0  0  0  0  0  0  0  0  0  0  0
   -1.0500    1.0800    2.4520 C   0  0  0  0  0  0  0  0  0  0  0  0
   -1.2160    1.7020    3.5130 O   0  0  0  0  0  0  0  0  0  0  0  0
    4.6520    0.7810    0.3640 H   0  0  0  0  0  0  0  0  0  0  0  0
    3.7490   -0.0950   -0.8960 H   0  0  0  0  0  0  0  0  0  0  0  0
    3.6010   -0.5760    0.8150 H   0  0  0  0  0  0  0  0  0  0  0  0
    1.2550    2.6890    2.0530 H   0  0  0  0  0  0  0  0  0  0  0  0
    2.8570    2.0840    2.5310 H   0  0  0  0  0  0  0  0  0  0  0  0
    1.1710    0.9610    3.8770 H   0  0  0  0  0  0  0  0  0  0  0  0
    2.0790   -0.1990    2.9160 H   0  0  0  0  0  0  0  0  0  0  0  0
   -0.2330   -0.7060    3.1260 H   0  0  0  0  0  0  0  0  0  0  0  0
    0.2340    0.0390    0.1610 H   0  0  0  0  0  0  0  0  0  0  0  0
   -2.8540    3.3560    0.3390 C   0  0  0  0  0  0  0  0  0  0  0  0
   -2.9780    2.2740    1.3640 C   0  0  2  0  0  0  0  0  0  0  0  0
   -1.9010    1.3340    1.3670 N   0  0  0  0  0  0  0  0  0  0  0  0
   -4.2790    1.5420    1.2090 C   0  0  0  0  0  0  0  0  0  0  0  0
   -4.2840    0.2950    1.1060 O   0  0  0  0  0  0  0  0  0  0  0  0
   -5.4930    2.2050    1.1760 O   0  0  0  0  0  0  0  0  0  0  0  0
   -2.2200    3.0990   -0.5200 H   0  0  0  0  0  0  0  0  0  0  0  0
   -3.8870    3.5500   -0.0660 H   0  0  0  0  0  0  0  0  0  0  0  0
   -2.5550    4.3270    0.8160 H   0  0  0  0  0  0  0  0  0  0  0  0
   -3.0080    2.7560    2.3690 H   0  0  0  0  0  0  0  0  0  0  0  0
   -1.7330    0.7880    0.4810 H   0  0  0  0  0  0  0  0  0  0  0  0
  1 10  1  0  0  0  0
  1  2  1  0  0  0  0
  1 11  1  0  0  0  0
  2 13  1  0  0  0  0
  3 14  1  6  0  0  0
  3  5  1  0  0  0  0
  3  4  1  0  0  0  0
  3  2  1  0  0  0  0
  4 16  1  0  0  0  0
  5 18  1  6  0  0  0
  5  7  1  0  0  0  0
  6  5  1  0  0  0  0
  7 26  1  0  0  0  0
  7  8  2  0  0  0  0
  9  1  1  0  0  0  0
 12  2  1  0  0  0  0
 15  4  1  0  0  0  0
 17  4  1  0  0  0  0
 19  6  1  0  0  0  0
 20  6  1  0  0  0  0
 21 22  1  0  0  0  0
 21 29  1  0  0  0  0
 21 31  1  0  0  0  0
 22 23  1  0  0  0  0
 23 32  1  0  0  0  0
 23 33  1  0  0  0  0
 23 24  1  0  0  0  0
 24 35  1  0  0  0  0
 24 34  1  0  0  0  0
 25 27  1  0  0  0  0
 25 24  1  0  0  0  0
 25 36  1  1  0  0  0
 26 25  1  0  0  0  0
 27 28  2  0  0  0  0
 30 21  1  0  0  0  0
 37 26  1  0  0  0  0
 38 46  1  0  0  0  0
 38 39  1  0  0  0  0
 39 40  1  0  0  0  0
 39 47  1  1  0  0  0
 40 27  1  0  0  0  0
 41 39  1  0  0  0  0
 42 41  2  0  0  0  0
 43 41  1  0  0  0  0
 44 38  1  0  0  0  0
 45 38  1  0  0  0  0
 48 40  1  0  0  0  0
M  END
$$$$
