IMC.pdb
 OpenBabel07022418423D

 49 48  0  0  1  0  0  0  0  0999 V2000
    2.7130   -1.5730    5.7010 C   0  0  0  0  0  0  0  0  0  0  0  0
    1.9560   -0.6040    4.7810 C   0  0  0  0  0  0  0  0  0  0  0  0
    0.7760   -1.3160    4.2140 C   0  0  2  0  0  0  0  0  0  0  0  0
    1.1370   -2.5400    3.4030 C   0  0  0  0  0  0  0  0  0  0  0  0
   -0.1380   -0.4720    3.3870 C   0  0  2  0  0  0  0  0  0  0  0  0
   -1.2160   -1.3410    2.9340 N   0  0  0  0  0  0  0  0  0  0  0  0
    0.5850   -0.0110    2.1580 C   0  0  0  0  0  0  0  0  0  0  0  0
    1.5550    0.7870    2.2670 O   0  0  0  0  0  0  0  0  0  0  0  0
    3.7420   -1.1810    5.8700 H   0  0  0  0  0  0  0  0  0  0  0  0
    2.1920   -1.6590    6.6900 H   0  0  0  0  0  0  0  0  0  0  0  0
    2.8320   -2.5590    5.2030 H   0  0  0  0  0  0  0  0  0  0  0  0
    2.6650   -0.2050    4.0600 H   0  0  0  0  0  0  0  0  0  0  0  0
    1.5950    0.2400    5.3980 H   0  0  0  0  0  0  0  0  0  0  0  0
    0.1790   -1.7010    5.0900 H   0  0  0  0  0  0  0  0  0  0  0  0
    0.3110   -2.7340    2.6590 H   0  0  0  0  0  0  0  0  0  0  0  0
    2.0500   -2.3990    2.8080 H   0  0  0  0  0  0  0  0  0  0  0  0
    1.2570   -3.4340    4.0580 H   0  0  0  0  0  0  0  0  0  0  0  0
   -0.5830    0.3480    3.9630 H   0  0  0  0  0  0  0  0  0  0  0  0
   -1.8420   -0.7840    2.2910 H   0  0  0  0  0  0  0  0  0  0  0  0
   -1.7810   -1.6450    3.7480 H   0  0  0  0  0  0  0  0  0  0  0  0
    1.8300   -3.5970   -3.1790 C   0  0  0  0  0  0  0  0  0  0  0  0
    3.1720   -2.4900   -2.6210 S   0  0  0  0  0  0  0  0  0  0  0  0
    2.4470   -0.8950   -2.0770 C   0  0  0  0  0  0  0  0  0  0  0  0
    1.6360   -1.1740   -0.8720 C   0  0  0  0  0  0  0  0  0  0  0  0
    0.9550    0.0380   -0.2780 C   0  0  2  0  0  0  0  0  0  0  0  0
    0.2280   -0.4340    0.8650 N   0  0  0  0  0  0  0  0  0  0  0  0
    0.0440    0.6950   -1.2150 C   0  0  0  0  0  0  0  0  0  0  0  0
    0.3920    1.2080   -2.3100 O   0  0  0  0  0  0  0  0  0  0  0  0
    2.2580   -4.4770   -3.6590 H   0  0  0  0  0  0  0  0  0  0  0  0
    1.1870   -3.0920   -3.9360 H   0  0  0  0  0  0  0  0  0  0  0  0
    1.2060   -3.9220   -2.3360 H   0  0  0  0  0  0  0  0  0  0  0  0
    3.2880   -0.2270   -1.8440 H   0  0  0  0  0  0  0  0  0  0  0  0
    1.8980   -0.4670   -2.9240 H   0  0  0  0  0  0  0  0  0  0  0  0
    0.8120   -1.8880   -1.1330 H   0  0  0  0  0  0  0  0  0  0  0  0
    2.2460   -1.6370   -0.0990 H   0  0  0  0  0  0  0  0  0  0  0  0
    1.7430    0.7540    0.0660 H   0  0  0  0  0  0  0  0  0  0  0  0
   -0.5570   -1.0860    0.7350 H   0  0  0  0  0  0  0  0  0  0  0  0
   -1.3390    0.7810   -0.9030 N   0  0  0  0  0  0  0  0  0  0  0  0
   -2.2920    1.4190   -1.7970 C   0  0  1  0  0  0  0  0  0  0  0  0
   -3.2960    0.3940   -2.3040 C   0  0  0  0  0  0  0  0  0  0  0  0
   -4.4880    1.1480   -3.4130 S   0  0  0  0  0  0  0  0  0  0  0  0
   -2.9320    2.6000   -1.1890 C   0  0  0  0  0  0  0  0  0  0  0  0
   -2.6860    3.0200   -0.0280 O   0  0  0  0  0  0  0  0  0  0  0  0
   -3.8710    3.3160   -1.9170 O   0  0  0  0  0  0  0  0  0  0  0  0
   -1.7480    0.3890   -0.0110 H   0  0  0  0  0  0  0  0  0  0  0  0
   -1.7260    1.7730   -2.6830 H   0  0  0  0  0  0  0  0  0  0  0  0
   -2.7040   -0.3760   -2.8400 H   0  0  0  0  0  0  0  0  0  0  0  0
   -3.7970   -0.1370   -1.4560 H   0  0  0  0  0  0  0  0  0  0  0  0
   -4.9510    0.1970   -4.3390 H   0  0  0  0  0  0  0  0  0  0  0  0
  1  9  1  0  0  0  0
  1 10  1  0  0  0  0
  2 13  1  0  0  0  0
  2  1  1  0  0  0  0
  3  2  1  0  0  0  0
  3 14  1  1  0  0  0
  4 17  1  0  0  0  0
  4  3  1  0  0  0  0
  5 18  1  1  0  0  0
  5  3  1  0  0  0  0
  6  5  1  0  0  0  0
  6 20  1  0  0  0  0
  7  8  2  0  0  0  0
  7  5  1  0  0  0  0
 11  1  1  0  0  0  0
 12  2  1  0  0  0  0
 15  4  1  0  0  0  0
 16  4  1  0  0  0  0
 19  6  1  0  0  0  0
 21 22  1  0  0  0  0
 21 31  1  0  0  0  0
 22 23  1  0  0  0  0
 23 32  1  0  0  0  0
 23 24  1  0  0  0  0
 24 25  1  0  0  0  0
 24 35  1  0  0  0  0
 25 36  1  1  0  0  0
 25 26  1  0  0  0  0
 26  7  1  0  0  0  0
 27 38  1  0  0  0  0
 27 25  1  0  0  0  0
 28 27  2  0  0  0  0
 29 21  1  0  0  0  0
 30 21  1  0  0  0  0
 33 23  1  0  0  0  0
 34 24  1  0  0  0  0
 37 26  1  0  0  0  0
 38 45  1  0  0  0  0
 39 46  1  6  0  0  0
 39 42  1  0  0  0  0
 39 38  1  0  0  0  0
 40 39  1  0  0  0  0
 40 48  1  0  0  0  0
 41 40  1  0  0  0  0
 42 43  1  0  0  0  0
 44 42  2  0  0  0  0
 47 40  1  0  0  0  0
 49 41  1  0  0  0  0
M  END
$$$$
