IME.pdb
 OpenBabel07022418423D

 54 53  0  0  1  0  0  0  0  0999 V2000
    1.7970   -1.3940    6.9290 C   0  0  0  0  0  0  0  0  0  0  0  0
    1.8960   -1.7830    5.4900 C   0  0  0  0  0  0  0  0  0  0  0  0
    0.8320   -1.1290    4.6180 C   0  0  2  0  0  0  0  0  0  0  0  0
   -0.5050   -1.5500    5.1300 C   0  0  0  0  0  0  0  0  0  0  0  0
    1.1000   -1.6020    3.2070 C   0  0  2  0  0  0  0  0  0  0  0  0
    2.4380   -1.1680    2.8510 N   0  0  0  0  0  0  0  0  0  0  0  0
    0.0980   -1.0610    2.2360 C   0  0  0  0  0  0  0  0  0  0  0  0
   -1.1050   -1.3620    2.4250 O   0  0  0  0  0  0  0  0  0  0  0  0
    1.5780   -2.3440    7.5000 H   0  0  0  0  0  0  0  0  0  0  0  0
    2.7660   -1.0360    7.3510 H   0  0  0  0  0  0  0  0  0  0  0  0
    1.0430   -0.6280    7.1520 H   0  0  0  0  0  0  0  0  0  0  0  0
    2.8820   -1.4460    5.1130 H   0  0  0  0  0  0  0  0  0  0  0  0
    1.8430   -2.8770    5.3140 H   0  0  0  0  0  0  0  0  0  0  0  0
    0.9090   -0.0290    4.7070 H   0  0  0  0  0  0  0  0  0  0  0  0
   -0.4080   -1.7580    6.2160 H   0  0  0  0  0  0  0  0  0  0  0  0
   -1.2730   -0.7320    5.0570 H   0  0  0  0  0  0  0  0  0  0  0  0
   -0.8770   -2.4880    4.6600 H   0  0  0  0  0  0  0  0  0  0  0  0
    1.0930   -2.7090    3.1530 H   0  0  0  0  0  0  0  0  0  0  0  0
    3.1060   -1.9120    3.1410 H   0  0  0  0  0  0  0  0  0  0  0  0
    2.6630   -0.2270    3.2250 H   0  0  0  0  0  0  0  0  0  0  0  0
    2.2960    1.1760   -1.9220 C   0  0  0  0  0  0  0  0  0  0  0  0
    1.2850    2.6190   -1.5780 S   0  0  0  0  0  0  0  0  0  0  0  0
    0.4540    2.6500   -0.0240 C   0  0  0  0  0  0  0  0  0  0  0  0
   -0.6550    1.7260    0.2410 C   0  0  0  0  0  0  0  0  0  0  0  0
   -0.4680    0.2710    0.2290 C   0  0  2  0  0  0  0  0  0  0  0  0
    0.4980   -0.2410    1.1500 N   0  0  0  0  0  0  0  0  0  0  0  0
   -0.4230   -0.4120   -1.0850 C   0  0  0  0  0  0  0  0  0  0  0  0
    0.4280   -1.3470   -1.2920 O   0  0  0  0  0  0  0  0  0  0  0  0
    1.7470    0.5820   -2.7110 H   0  0  0  0  0  0  0  0  0  0  0  0
    2.4130    0.5100   -1.0570 H   0  0  0  0  0  0  0  0  0  0  0  0
    3.2810    1.4480   -2.3760 H   0  0  0  0  0  0  0  0  0  0  0  0
    0.0140    3.7020    0.0880 H   0  0  0  0  0  0  0  0  0  0  0  0
    1.2040    2.6640    0.8480 H   0  0  0  0  0  0  0  0  0  0  0  0
   -1.0530    1.9970    1.2780 H   0  0  0  0  0  0  0  0  0  0  0  0
   -1.5380    1.9710   -0.4130 H   0  0  0  0  0  0  0  0  0  0  0  0
   -1.4810   -0.1330    0.6600 H   0  0  0  0  0  0  0  0  0  0  0  0
    1.5370   -0.0310    1.0650 H   0  0  0  0  0  0  0  0  0  0  0  0
   -1.2810   -0.1100   -2.1740 N   0  0  0  0  0  0  0  0  0  0  0  0
   -1.2710   -0.7690   -3.4490 C   0  0  1  0  0  0  0  0  0  0  0  0
   -2.6560   -1.2520   -3.8320 C   0  0  0  0  0  0  0  0  0  0  0  0
   -3.1850   -2.2290   -2.8400 C   0  0  0  0  0  0  0  0  0  0  0  0
   -2.3950   -3.4640   -2.7020 C   0  0  0  0  0  0  0  0  0  0  0  0
   -1.4250   -3.6590   -1.9620 O   0  0  0  0  0  0  0  0  0  0  0  0
   -0.7810    0.2120   -4.4760 C   0  0  0  0  0  0  0  0  0  0  0  0
   -0.6480   -0.1300   -5.6800 O   0  0  0  0  0  0  0  0  0  0  0  0
   -2.7840   -4.5570   -3.5060 O   0  0  0  0  0  0  0  0  0  0  0  0
   -0.4670    1.4990   -4.1310 O   0  0  0  0  0  0  0  0  0  0  0  0
   -1.9800    0.6660   -2.0190 H   0  0  0  0  0  0  0  0  0  0  0  0
   -0.5770   -1.6160   -3.5020 H   0  0  0  0  0  0  0  0  0  0  0  0
   -3.3420   -0.3970   -3.9790 H   0  0  0  0  0  0  0  0  0  0  0  0
   -2.5270   -1.7650   -4.8210 H   0  0  0  0  0  0  0  0  0  0  0  0
   -3.2350   -1.6870   -1.8470 H   0  0  0  0  0  0  0  0  0  0  0  0
   -4.2330   -2.4800   -3.1490 H   0  0  0  0  0  0  0  0  0  0  0  0
   -2.2030   -5.3690   -3.5710 H   0  0  0  0  0  0  0  0  0  0  0  0
  1 11  1  0  0  0  0
  1 10  1  0  0  0  0
  1  9  1  0  0  0  0
  2  1  1  0  0  0  0
  3 14  1  1  0  0  0
  3  4  1  0  0  0  0
  3  2  1  0  0  0  0
  4 15  1  0  0  0  0
  5 18  1  6  0  0  0
  5  3  1  0  0  0  0
  6 19  1  0  0  0  0
  6  5  1  0  0  0  0
  6 20  1  0  0  0  0
  7  8  2  0  0  0  0
  7  5  1  0  0  0  0
 12  2  1  0  0  0  0
 13  2  1  0  0  0  0
 16  4  1  0  0  0  0
 17  4  1  0  0  0  0
 21 22  1  0  0  0  0
 21 30  1  0  0  0  0
 22 23  1  0  0  0  0
 23 32  1  0  0  0  0
 23 24  1  0  0  0  0
 23 33  1  0  0  0  0
 24 34  1  0  0  0  0
 25 24  1  0  0  0  0
 25 36  1  1  0  0  0
 25 26  1  0  0  0  0
 26  7  1  0  0  0  0
 27 25  1  0  0  0  0
 28 27  2  0  0  0  0
 29 21  1  0  0  0  0
 31 21  1  0  0  0  0
 35 24  1  0  0  0  0
 37 26  1  0  0  0  0
 38 48  1  0  0  0  0
 38 27  1  0  0  0  0
 39 49  1  1  0  0  0
 39 38  1  0  0  0  0
 40 39  1  0  0  0  0
 40 41  1  0  0  0  0
 41 42  1  0  0  0  0
 41 52  1  0  0  0  0
 42 43  2  0  0  0  0
 44 47  1  0  0  0  0
 44 39  1  0  0  0  0
 45 44  2  0  0  0  0
 46 42  1  0  0  0  0
 50 40  1  0  0  0  0
 51 40  1  0  0  0  0
 53 41  1  0  0  0  0
 54 46  1  0  0  0  0
M  END
$$$$
