IMG.pdb
 OpenBabel07022418423D

 45 44  0  0  1  0  0  0  0  0999 V2000
   -0.5780   -4.6070    1.0860 C   0  0  0  0  0  0  0  0  0  0  0  0
   -0.3550   -3.3290    0.3610 C   0  0  0  0  0  0  0  0  0  0  0  0
    1.0880   -2.8950    0.2860 C   0  0  2  0  0  0  0  0  0  0  0  0
    1.9240   -3.9320   -0.4270 C   0  0  0  0  0  0  0  0  0  0  0  0
    1.6460   -2.5050    1.6240 C   0  0  2  0  0  0  0  0  0  0  0  0
    1.6050   -3.5880    2.5840 N   0  0  0  0  0  0  0  0  0  0  0  0
    0.9210   -1.3140    2.1060 C   0  0  0  0  0  0  0  0  0  0  0  0
    0.3160   -1.2560    3.1990 O   0  0  0  0  0  0  0  0  0  0  0  0
   -1.1510   -4.4020    2.0360 H   0  0  0  0  0  0  0  0  0  0  0  0
   -1.2590   -5.2920    0.5040 H   0  0  0  0  0  0  0  0  0  0  0  0
    0.3150   -5.1900    1.3050 H   0  0  0  0  0  0  0  0  0  0  0  0
   -0.9570   -2.4870    0.7890 H   0  0  0  0  0  0  0  0  0  0  0  0
   -0.7110   -3.4340   -0.6920 H   0  0  0  0  0  0  0  0  0  0  0  0
    1.1160   -1.9910   -0.3560 H   0  0  0  0  0  0  0  0  0  0  0  0
    2.9520   -3.5360   -0.5130 H   0  0  0  0  0  0  0  0  0  0  0  0
    1.8460   -4.9360   -0.0180 H   0  0  0  0  0  0  0  0  0  0  0  0
    1.5300   -3.9800   -1.4740 H   0  0  0  0  0  0  0  0  0  0  0  0
    2.7100   -2.2290    1.4820 H   0  0  0  0  0  0  0  0  0  0  0  0
    2.3100   -4.2920    2.2920 H   0  0  0  0  0  0  0  0  0  0  0  0
    1.8470   -3.1640    3.5190 H   0  0  0  0  0  0  0  0  0  0  0  0
    2.5510    1.4850   -1.2760 C   0  0  0  0  0  0  0  0  0  0  0  0
    2.9900    2.4370    0.1700 S   0  0  0  0  0  0  0  0  0  0  0  0
    1.6800    3.0460    1.1570 C   0  0  0  0  0  0  0  0  0  0  0  0
    0.9310    2.2230    2.0880 C   0  0  0  0  0  0  0  0  0  0  0  0
    0.1670    1.0230    1.7840 C   0  0  2  0  0  0  0  0  0  0  0  0
    0.8790   -0.1080    1.2900 N   0  0  0  0  0  0  0  0  0  0  0  0
   -0.9440    1.2810    0.7910 C   0  0  0  0  0  0  0  0  0  0  0  0
   -1.0760    0.5610   -0.2290 O   0  0  0  0  0  0  0  0  0  0  0  0
    2.9060    2.0200   -2.1960 H   0  0  0  0  0  0  0  0  0  0  0  0
    2.9910    0.4770   -1.2420 H   0  0  0  0  0  0  0  0  0  0  0  0
    1.4500    1.4200   -1.4050 H   0  0  0  0  0  0  0  0  0  0  0  0
    0.9810    3.6630    0.4760 H   0  0  0  0  0  0  0  0  0  0  0  0
    2.1230    3.9310    1.7720 H   0  0  0  0  0  0  0  0  0  0  0  0
    0.2240    2.9340    2.6840 H   0  0  0  0  0  0  0  0  0  0  0  0
    1.6620    1.9520    2.9420 H   0  0  0  0  0  0  0  0  0  0  0  0
   -0.3990    0.7520    2.7350 H   0  0  0  0  0  0  0  0  0  0  0  0
    1.3550   -0.1340    0.3910 H   0  0  0  0  0  0  0  0  0  0  0  0
   -1.8770    2.3320    0.9650 N   0  0  0  0  0  0  0  0  0  0  0  0
   -2.9340    2.5610    0.0020 C   0  0  0  0  0  0  0  0  0  0  0  0
   -3.8080    1.3630   -0.1030 C   0  0  0  0  0  0  0  0  0  0  0  0
   -4.7960    1.3230   -0.8830 O   0  0  0  0  0  0  0  0  0  0  0  0
   -3.5190    0.2610    0.6830 O   0  0  0  0  0  0  0  0  0  0  0  0
   -1.7740    2.9360    1.8130 H   0  0  0  0  0  0  0  0  0  0  0  0
   -3.4900    3.4820    0.1870 H   0  0  0  0  0  0  0  0  0  0  0  0
   -2.4480    2.6900   -1.0070 H   0  0  0  0  0  0  0  0  0  0  0  0
  1 11  1  0  0  0  0
  1  9  1  0  0  0  0
  2 12  1  0  0  0  0
  2  1  1  0  0  0  0
  3 14  1  6  0  0  0
  3  2  1  0  0  0  0
  3  5  1  0  0  0  0
  4 16  1  0  0  0  0
  4  3  1  0  0  0  0
  5 18  1  6  0  0  0
  5  7  1  0  0  0  0
  5  6  1  0  0  0  0
  6 20  1  0  0  0  0
  7  8  2  0  0  0  0
 10  1  1  0  0  0  0
 13  2  1  0  0  0  0
 15  4  1  0  0  0  0
 17  4  1  0  0  0  0
 19  6  1  0  0  0  0
 21 30  1  0  0  0  0
 21 22  1  0  0  0  0
 22 23  1  0  0  0  0
 23 33  1  0  0  0  0
 23 24  1  0  0  0  0
 24 34  1  0  0  0  0
 24 35  1  0  0  0  0
 25 24  1  0  0  0  0
 25 36  1  1  0  0  0
 26 25  1  0  0  0  0
 26  7  1  0  0  0  0
 27 38  1  0  0  0  0
 27 25  1  0  0  0  0
 28 27  2  0  0  0  0
 29 21  1  0  0  0  0
 31 21  1  0  0  0  0
 32 23  1  0  0  0  0
 37 26  1  0  0  0  0
 38 43  1  0  0  0  0
 39 44  1  0  0  0  0
 39 38  1  0  0  0  0
 40 39  1  0  0  0  0
 40 42  1  0  0  0  0
 41 40  2  0  0  0  0
 45 39  1  0  0  0  0
M  END
$$$$
