IMI.pdb
 OpenBabel07022418423D

 57 56  0  0  1  0  0  0  0  0999 V2000
    0.4950   -2.1120    3.5610 C   0  0  0  0  0  0  0  0  0  0  0  0
    1.6220   -1.5980    4.3870 C   0  0  0  0  0  0  0  0  0  0  0  0
    2.3740   -0.4420    3.8500 C   0  0  2  0  0  0  0  0  0  0  0  0
    3.4790   -0.0930    4.8570 C   0  0  0  0  0  0  0  0  0  0  0  0
    1.5990    0.7650    3.4680 C   0  0  2  0  0  0  0  0  0  0  0  0
    0.8360    1.3600    4.5260 N   0  0  0  0  0  0  0  0  0  0  0  0
    0.7680    0.6200    2.2570 C   0  0  0  0  0  0  0  0  0  0  0  0
   -0.4420    1.0290    2.2900 O   0  0  0  0  0  0  0  0  0  0  0  0
    0.8970   -2.5400    2.6190 H   0  0  0  0  0  0  0  0  0  0  0  0
    0.0670   -2.9890    4.1380 H   0  0  0  0  0  0  0  0  0  0  0  0
   -0.3490   -1.4450    3.4060 H   0  0  0  0  0  0  0  0  0  0  0  0
    2.3630   -2.4510    4.4600 H   0  0  0  0  0  0  0  0  0  0  0  0
    1.2700   -1.4710    5.4330 H   0  0  0  0  0  0  0  0  0  0  0  0
    2.8820   -0.8030    2.9050 H   0  0  0  0  0  0  0  0  0  0  0  0
    4.4430   -0.4990    4.4900 H   0  0  0  0  0  0  0  0  0  0  0  0
    3.5300    1.0130    5.0000 H   0  0  0  0  0  0  0  0  0  0  0  0
    3.2440   -0.5700    5.8290 H   0  0  0  0  0  0  0  0  0  0  0  0
    2.3910    1.5610    3.2290 H   0  0  0  0  0  0  0  0  0  0  0  0
    0.0370    0.7810    4.8490 H   0  0  0  0  0  0  0  0  0  0  0  0
    0.6380    2.3540    4.4120 H   0  0  0  0  0  0  0  0  0  0  0  0
   -0.6350    4.6060   -0.0940 C   0  0  0  0  0  0  0  0  0  0  0  0
   -0.7730    2.8280   -0.5110 S   0  0  0  0  0  0  0  0  0  0  0  0
    0.9010    2.2530   -0.9170 C   0  0  0  0  0  0  0  0  0  0  0  0
    0.8890    0.7980   -1.2760 C   0  0  0  0  0  0  0  0  0  0  0  0
    0.3790   -0.0740   -0.1470 C   0  0  2  0  0  0  0  0  0  0  0  0
    1.1980    0.0590    1.0360 N   0  0  0  0  0  0  0  0  0  0  0  0
    0.2400   -1.4530   -0.6330 C   0  0  0  0  0  0  0  0  0  0  0  0
    0.7890   -2.4480   -0.1060 O   0  0  0  0  0  0  0  0  0  0  0  0
    0.0550    4.7540    0.7630 H   0  0  0  0  0  0  0  0  0  0  0  0
   -0.1920    5.1000   -0.9780 H   0  0  0  0  0  0  0  0  0  0  0  0
   -1.6210    5.0340    0.1050 H   0  0  0  0  0  0  0  0  0  0  0  0
    1.5420    2.4930   -0.0590 H   0  0  0  0  0  0  0  0  0  0  0  0
    1.2470    2.8600   -1.7770 H   0  0  0  0  0  0  0  0  0  0  0  0
    0.2700    0.6660   -2.1800 H   0  0  0  0  0  0  0  0  0  0  0  0
    1.9200    0.4790   -1.5300 H   0  0  0  0  0  0  0  0  0  0  0  0
   -0.6310    0.3120    0.0980 H   0  0  0  0  0  0  0  0  0  0  0  0
    2.1820   -0.2860    0.9840 H   0  0  0  0  0  0  0  0  0  0  0  0
   -3.5440   -1.4650   -2.2210 C   0  0  0  0  0  0  0  0  0  0  0  0
   -3.2020   -2.8020   -2.7680 C   0  0  0  0  0  0  0  0  0  0  0  0
   -2.1190   -3.5550   -2.0900 C   0  0  2  0  0  0  0  0  0  0  0  0
   -2.3850   -3.8310   -0.6390 C   0  0  0  0  0  0  0  0  0  0  0  0
   -0.7240   -3.0300   -2.2800 C   0  0  2  0  0  0  0  0  0  0  0  0
   -0.5800   -1.6780   -1.7920 N   0  0  0  0  0  0  0  0  0  0  0  0
   -0.3860   -3.0830   -3.7400 C   0  0  0  0  0  0  0  0  0  0  0  0
   -0.0360   -2.0650   -4.3900 O   0  0  0  0  0  0  0  0  0  0  0  0
   -0.4550   -4.2880   -4.4150 O   0  0  0  0  0  0  0  0  0  0  0  0
   -3.1380   -1.2270   -1.2250 H   0  0  0  0  0  0  0  0  0  0  0  0
   -4.6700   -1.3710   -2.0810 H   0  0  0  0  0  0  0  0  0  0  0  0
   -3.3060   -0.6090   -2.8950 H   0  0  0  0  0  0  0  0  0  0  0  0
   -2.9890   -2.6540   -3.8650 H   0  0  0  0  0  0  0  0  0  0  0  0
   -4.1370   -3.4370   -2.7780 H   0  0  0  0  0  0  0  0  0  0  0  0
   -2.0900   -4.6020   -2.5660 H   0  0  0  0  0  0  0  0  0  0  0  0
   -1.7240   -4.6860   -0.3440 H   0  0  0  0  0  0  0  0  0  0  0  0
   -3.4160   -4.1640   -0.4630 H   0  0  0  0  0  0  0  0  0  0  0  0
   -2.0760   -2.9830    0.0160 H   0  0  0  0  0  0  0  0  0  0  0  0
   -0.0450   -3.7210   -1.7120 H   0  0  0  0  0  0  0  0  0  0  0  0
   -1.0470   -0.8750   -2.2660 H   0  0  0  0  0  0  0  0  0  0  0  0
  1 10  1  0  0  0  0
  1  2  1  0  0  0  0
  2 12  1  0  0  0  0
  2 13  1  0  0  0  0
  3 14  1  6  0  0  0
  3  2  1  0  0  0  0
  3  4  1  0  0  0  0
  4 16  1  0  0  0  0
  4 17  1  0  0  0  0
  5 18  1  6  0  0  0
  5  3  1  0  0  0  0
  5  6  1  0  0  0  0
  6 19  1  0  0  0  0
  7  8  2  0  0  0  0
  7  5  1  0  0  0  0
  9  1  1  0  0  0  0
 11  1  1  0  0  0  0
 15  4  1  0  0  0  0
 20  6  1  0  0  0  0
 21 31  1  0  0  0  0
 21 29  1  0  0  0  0
 22 21  1  0  0  0  0
 23 22  1  0  0  0  0
 23 32  1  0  0  0  0
 24 23  1  0  0  0  0
 24 25  1  0  0  0  0
 25 36  1  1  0  0  0
 25 26  1  0  0  0  0
 26  7  1  0  0  0  0
 27 25  1  0  0  0  0
 27 28  2  0  0  0  0
 30 21  1  0  0  0  0
 33 23  1  0  0  0  0
 34 24  1  0  0  0  0
 35 24  1  0  0  0  0
 37 26  1  0  0  0  0
 38 48  1  0  0  0  0
 38 47  1  0  0  0  0
 39 38  1  0  0  0  0
 39 40  1  0  0  0  0
 40 52  1  6  0  0  0
 40 41  1  0  0  0  0
 41 54  1  0  0  0  0
 41 53  1  0  0  0  0
 41 55  1  0  0  0  0
 42 40  1  0  0  0  0
 42 43  1  0  0  0  0
 42 56  1  1  0  0  0
 43 27  1  0  0  0  0
 44 42  1  0  0  0  0
 45 44  1  0  0  0  0
 46 44  2  0  0  0  0
 49 38  1  0  0  0  0
 50 39  1  0  0  0  0
 51 39  1  0  0  0  0
 57 43  1  0  0  0  0
M  END
$$$$
