IMP.pdb
 OpenBabel07022418423D

 52 52  0  0  1  0  0  0  0  0999 V2000
    1.2890   -4.8100    2.2230 C   0  0  0  0  0  0  0  0  0  0  0  0
    0.4500   -3.9620    3.1180 C   0  0  0  0  0  0  0  0  0  0  0  0
   -0.0800   -2.7410    2.2950 C   0  0  2  0  0  0  0  0  0  0  0  0
   -0.8650   -3.3710    1.1960 C   0  0  0  0  0  0  0  0  0  0  0  0
    1.1800   -2.0310    1.8870 C   0  0  2  0  0  0  0  0  0  0  0  0
    1.9010   -1.6950    3.1530 N   0  0  0  0  0  0  0  0  0  0  0  0
    1.0610   -0.7850    1.1410 C   0  0  0  0  0  0  0  0  0  0  0  0
    1.2860    0.2900    1.7970 O   0  0  0  0  0  0  0  0  0  0  0  0
    0.9920   -4.8160    1.1700 H   0  0  0  0  0  0  0  0  0  0  0  0
    2.3770   -4.5340    2.2630 H   0  0  0  0  0  0  0  0  0  0  0  0
    1.2440   -5.8740    2.5850 H   0  0  0  0  0  0  0  0  0  0  0  0
    1.0430   -3.5950    3.9700 H   0  0  0  0  0  0  0  0  0  0  0  0
   -0.4490   -4.5120    3.4310 H   0  0  0  0  0  0  0  0  0  0  0  0
   -0.6670   -2.1650    3.0260 H   0  0  0  0  0  0  0  0  0  0  0  0
   -0.4060   -3.1940    0.2310 H   0  0  0  0  0  0  0  0  0  0  0  0
   -1.9180   -3.0060    1.1520 H   0  0  0  0  0  0  0  0  0  0  0  0
   -0.9920   -4.4710    1.4050 H   0  0  0  0  0  0  0  0  0  0  0  0
    1.8290   -2.7310    1.3530 H   0  0  0  0  0  0  0  0  0  0  0  0
    2.6280   -2.4230    3.3530 H   0  0  0  0  0  0  0  0  0  0  0  0
    2.4270   -0.8100    2.9940 H   0  0  0  0  0  0  0  0  0  0  0  0
    3.9560    1.2450    0.1780 C   0  0  0  0  0  0  0  0  0  0  0  0
    3.8400    1.3960   -1.5880 S   0  0  0  0  0  0  0  0  0  0  0  0
    2.6240    0.4090   -2.4150 C   0  0  0  0  0  0  0  0  0  0  0  0
    1.2220    0.7950   -2.2190 C   0  0  0  0  0  0  0  0  0  0  0  0
    0.7050    0.7280   -0.8350 C   0  0  2  0  0  0  0  0  0  0  0  0
    0.7450   -0.5550   -0.2110 N   0  0  0  0  0  0  0  0  0  0  0  0
   -0.6110    1.4590   -0.7320 C   0  0  0  0  0  0  0  0  0  0  0  0
   -0.6050    2.6810   -1.1670 O   0  0  0  0  0  0  0  0  0  0  0  0
    3.6760    0.2310    0.5590 H   0  0  0  0  0  0  0  0  0  0  0  0
    3.3900    1.9890    0.7690 H   0  0  0  0  0  0  0  0  0  0  0  0
    5.0290    1.3890    0.5340 H   0  0  0  0  0  0  0  0  0  0  0  0
    2.8250   -0.6800   -2.2130 H   0  0  0  0  0  0  0  0  0  0  0  0
    2.8570    0.4770   -3.5330 H   0  0  0  0  0  0  0  0  0  0  0  0
    1.1740    1.9070   -2.4870 H   0  0  0  0  0  0  0  0  0  0  0  0
    0.5200    0.3760   -2.9840 H   0  0  0  0  0  0  0  0  0  0  0  0
    1.3610    1.3880   -0.2080 H   0  0  0  0  0  0  0  0  0  0  0  0
    0.5520   -1.3870   -0.8030 H   0  0  0  0  0  0  0  0  0  0  0  0
   -1.8180    0.9890   -0.2320 N   0  0  0  0  0  0  0  0  0  0  0  0
   -2.2010   -0.3050    0.2820 C   0  0  0  0  0  0  0  0  0  0  0  0
   -3.6630   -0.4420   -0.1220 C   0  0  0  0  0  0  0  0  0  0  0  0
   -4.0640    0.8760   -0.7050 C   0  0  0  0  0  0  0  0  0  0  0  0
   -3.0270    1.8040   -0.1150 C   0  0  1  0  0  0  0  0  0  0  0  0
   -3.3970    2.0540    1.2960 C   0  0  0  0  0  0  0  0  0  0  0  0
   -4.4320    2.7330    1.6000 O   0  0  0  0  0  0  0  0  0  0  0  0
   -2.6730    1.5840    2.3800 O   0  0  0  0  0  0  0  0  0  0  0  0
   -1.6890   -1.1250   -0.2790 H   0  0  0  0  0  0  0  0  0  0  0  0
   -2.0540   -0.4140    1.3690 H   0  0  0  0  0  0  0  0  0  0  0  0
   -3.8090   -1.2100   -0.9160 H   0  0  0  0  0  0  0  0  0  0  0  0
   -4.2970   -0.7560    0.7280 H   0  0  0  0  0  0  0  0  0  0  0  0
   -3.8980    0.9220   -1.8150 H   0  0  0  0  0  0  0  0  0  0  0  0
   -5.0900    1.1650   -0.4350 H   0  0  0  0  0  0  0  0  0  0  0  0
   -2.9300    2.7450   -0.6990 H   0  0  0  0  0  0  0  0  0  0  0  0
  1 10  1  0  0  0  0
  1 11  1  0  0  0  0
  1  2  1  0  0  0  0
  2 13  1  0  0  0  0
  2 12  1  0  0  0  0
  3 14  1  1  0  0  0
  3  2  1  0  0  0  0
  4 17  1  0  0  0  0
  4  3  1  0  0  0  0
  5 18  1  6  0  0  0
  5  3  1  0  0  0  0
  5  6  1  0  0  0  0
  6 19  1  0  0  0  0
  7  8  2  0  0  0  0
  7  5  1  0  0  0  0
  9  1  1  0  0  0  0
 15  4  1  0  0  0  0
 16  4  1  0  0  0  0
 20  6  1  0  0  0  0
 21 31  1  0  0  0  0
 21 29  1  0  0  0  0
 21 30  1  0  0  0  0
 22 21  1  0  0  0  0
 23 24  1  0  0  0  0
 23 32  1  0  0  0  0
 23 22  1  0  0  0  0
 24 25  1  0  0  0  0
 25 27  1  0  0  0  0
 25 26  1  0  0  0  0
 25 36  1  1  0  0  0
 26  7  1  0  0  0  0
 27 38  1  0  0  0  0
 28 27  2  0  0  0  0
 33 23  1  0  0  0  0
 34 24  1  0  0  0  0
 35 24  1  0  0  0  0
 37 26  1  0  0  0  0
 38 42  1  0  0  0  0
 38 39  1  0  0  0  0
 39 47  1  0  0  0  0
 40 39  1  0  0  0  0
 40 49  1  0  0  0  0
 41 51  1  0  0  0  0
 41 40  1  0  0  0  0
 41 42  1  0  0  0  0
 42 52  1  6  0  0  0
 42 43  1  0  0  0  0
 43 44  2  0  0  0  0
 43 45  1  0  0  0  0
 46 39  1  0  0  0  0
 48 40  1  0  0  0  0
 50 41  1  0  0  0  0
M  END
$$$$
