IMQ.pdb
 OpenBabel07022418423D

 55 54  0  0  1  0  0  0  0  0999 V2000
    1.5330   -2.1560    4.4880 C   0  0  0  0  0  0  0  0  0  0  0  0
    2.0920   -0.9330    5.1670 C   0  0  0  0  0  0  0  0  0  0  0  0
    1.3980    0.3280    4.7900 C   0  0  2  0  0  0  0  0  0  0  0  0
   -0.0910    0.2840    5.1130 C   0  0  0  0  0  0  0  0  0  0  0  0
    1.7430    0.9580    3.5030 C   0  0  2  0  0  0  0  0  0  0  0  0
    0.9080    2.1680    3.3950 N   0  0  0  0  0  0  0  0  0  0  0  0
    1.5490    0.1730    2.2800 C   0  0  0  0  0  0  0  0  0  0  0  0
    2.2830   -0.8230    1.9870 O   0  0  0  0  0  0  0  0  0  0  0  0
    2.2670   -2.7320    3.9010 H   0  0  0  0  0  0  0  0  0  0  0  0
    1.1140   -2.8700    5.2680 H   0  0  0  0  0  0  0  0  0  0  0  0
    0.6620   -1.9530    3.8320 H   0  0  0  0  0  0  0  0  0  0  0  0
    3.2060   -0.8620    4.9890 H   0  0  0  0  0  0  0  0  0  0  0  0
    2.0400   -1.1280    6.2770 H   0  0  0  0  0  0  0  0  0  0  0  0
    1.7790    1.0900    5.5810 H   0  0  0  0  0  0  0  0  0  0  0  0
   -0.2170   -0.3830    5.9770 H   0  0  0  0  0  0  0  0  0  0  0  0
   -0.6660   -0.0300    4.2230 H   0  0  0  0  0  0  0  0  0  0  0  0
   -0.4610    1.2920    5.3980 H   0  0  0  0  0  0  0  0  0  0  0  0
    2.8010    1.3420    3.5870 H   0  0  0  0  0  0  0  0  0  0  0  0
    0.9690    2.7440    4.2550 H   0  0  0  0  0  0  0  0  0  0  0  0
    1.3520    2.7200    2.6190 H   0  0  0  0  0  0  0  0  0  0  0  0
    3.7340    1.9290   -2.5080 C   0  0  0  0  0  0  0  0  0  0  0  0
    2.1560    1.1020   -2.1400 S   0  0  0  0  0  0  0  0  0  0  0  0
    2.5160   -0.1850   -0.9030 C   0  0  0  0  0  0  0  0  0  0  0  0
    1.3120   -0.9480   -0.5060 C   0  0  0  0  0  0  0  0  0  0  0  0
    0.2030   -0.1370    0.1250 C   0  0  2  0  0  0  0  0  0  0  0  0
    0.5170    0.5010    1.3630 N   0  0  0  0  0  0  0  0  0  0  0  0
   -1.0900   -0.7820    0.0540 C   0  0  0  0  0  0  0  0  0  0  0  0
   -1.8430   -0.7660    1.1000 O   0  0  0  0  0  0  0  0  0  0  0  0
    4.2910    2.0020   -1.5480 H   0  0  0  0  0  0  0  0  0  0  0  0
    4.3600    1.3390   -3.1990 H   0  0  0  0  0  0  0  0  0  0  0  0
    3.5750    2.9700   -2.8550 H   0  0  0  0  0  0  0  0  0  0  0  0
    3.1940   -0.9120   -1.4440 H   0  0  0  0  0  0  0  0  0  0  0  0
    3.1350    0.2790   -0.1510 H   0  0  0  0  0  0  0  0  0  0  0  0
    0.8550   -1.3410   -1.4680 H   0  0  0  0  0  0  0  0  0  0  0  0
    1.6010   -1.8440    0.0470 H   0  0  0  0  0  0  0  0  0  0  0  0
    0.1790    0.7600   -0.6230 H   0  0  0  0  0  0  0  0  0  0  0  0
   -0.1000    1.3410    1.6520 H   0  0  0  0  0  0  0  0  0  0  0  0
   -2.7600   -2.3360   -5.5830 N   0  0  0  0  0  0  0  0  0  0  0  0
   -3.3050   -2.4670   -4.2550 C   0  0  0  0  0  0  0  0  0  0  0  0
   -3.5480   -3.6230   -3.8990 O   0  0  0  0  0  0  0  0  0  0  0  0
   -3.5340   -1.2970   -3.4380 C   0  0  0  0  0  0  0  0  0  0  0  0
   -3.8940   -1.4210   -2.0210 C   0  0  0  0  0  0  0  0  0  0  0  0
   -2.9480   -2.0810   -1.0870 C   0  0  2  0  0  0  0  0  0  0  0  0
   -1.6440   -1.4490   -1.0700 N   0  0  0  0  0  0  0  0  0  0  0  0
   -2.9490   -3.5320   -1.1950 C   0  0  0  0  0  0  0  0  0  0  0  0
   -1.8750   -4.1510   -1.3890 O   0  0  0  0  0  0  0  0  0  0  0  0
   -4.1110   -4.2810   -1.0860 O   0  0  0  0  0  0  0  0  0  0  0  0
   -2.9650   -2.9830   -6.3610 H   0  0  0  0  0  0  0  0  0  0  0  0
   -2.1250   -1.5360   -5.7470 H   0  0  0  0  0  0  0  0  0  0  0  0
   -4.3940   -0.7100   -3.9240 H   0  0  0  0  0  0  0  0  0  0  0  0
   -2.6560   -0.6010   -3.5860 H   0  0  0  0  0  0  0  0  0  0  0  0
   -4.0550   -0.3680   -1.6250 H   0  0  0  0  0  0  0  0  0  0  0  0
   -4.9120   -1.8800   -1.9320 H   0  0  0  0  0  0  0  0  0  0  0  0
   -3.3660   -1.8910   -0.0180 H   0  0  0  0  0  0  0  0  0  0  0  0
   -1.0820   -1.4860   -1.9380 H   0  0  0  0  0  0  0  0  0  0  0  0
  1  2  1  0  0  0  0
  1 10  1  0  0  0  0
  2 13  1  0  0  0  0
  3  4  1  0  0  0  0
  3  2  1  0  0  0  0
  3 14  1  1  0  0  0
  4 17  1  0  0  0  0
  4 15  1  0  0  0  0
  5 18  1  1  0  0  0
  5  3  1  0  0  0  0
  6  5  1  0  0  0  0
  6 19  1  0  0  0  0
  7  5  1  0  0  0  0
  8  7  2  0  0  0  0
  9  1  1  0  0  0  0
 11  1  1  0  0  0  0
 12  2  1  0  0  0  0
 16  4  1  0  0  0  0
 20  6  1  0  0  0  0
 21 22  1  0  0  0  0
 21 29  1  0  0  0  0
 22 23  1  0  0  0  0
 23 24  1  0  0  0  0
 23 33  1  0  0  0  0
 24 35  1  0  0  0  0
 24 25  1  0  0  0  0
 25 36  1  6  0  0  0
 25 26  1  0  0  0  0
 26 37  1  0  0  0  0
 26  7  1  0  0  0  0
 27 25  1  0  0  0  0
 27 28  2  0  0  0  0
 30 21  1  0  0  0  0
 31 21  1  0  0  0  0
 32 23  1  0  0  0  0
 34 24  1  0  0  0  0
 38 39  1  0  0  0  0
 39 40  2  0  0  0  0
 39 41  1  0  0  0  0
 41 42  1  0  0  0  0
 42 53  1  0  0  0  0
 42 52  1  0  0  0  0
 42 43  1  0  0  0  0
 43 44  1  0  0  0  0
 43 54  1  1  0  0  0
 44 27  1  0  0  0  0
 45 43  1  0  0  0  0
 45 47  1  0  0  0  0
 46 45  2  0  0  0  0
 48 38  1  0  0  0  0
 49 38  1  0  0  0  0
 50 41  1  0  0  0  0
 51 41  1  0  0  0  0
 55 44  1  0  0  0  0
M  END
$$$$
