IMS.pdb
 OpenBabel07022418423D

 49 48  0  0  1  0  0  0  0  0999 V2000
   -0.8870   -1.9630    5.6260 C   0  0  0  0  0  0  0  0  0  0  0  0
    0.4310   -2.1930    4.9180 C   0  0  0  0  0  0  0  0  0  0  0  0
    0.7460   -1.0730    3.9510 C   0  0  2  0  0  0  0  0  0  0  0  0
    0.8430    0.2600    4.6540 C   0  0  0  0  0  0  0  0  0  0  0  0
   -0.2460   -1.0330    2.8080 C   0  0  2  0  0  0  0  0  0  0  0  0
   -0.1710   -2.3030    2.1170 N   0  0  0  0  0  0  0  0  0  0  0  0
    0.0560    0.1040    1.9150 C   0  0  0  0  0  0  0  0  0  0  0  0
    0.0560    1.2880    2.3370 O   0  0  0  0  0  0  0  0  0  0  0  0
   -0.9660   -2.6770    6.4570 H   0  0  0  0  0  0  0  0  0  0  0  0
   -0.9800   -0.9110    6.0050 H   0  0  0  0  0  0  0  0  0  0  0  0
   -1.7580   -2.1350    4.9640 H   0  0  0  0  0  0  0  0  0  0  0  0
    0.3810   -3.1540    4.4070 H   0  0  0  0  0  0  0  0  0  0  0  0
    1.2270   -2.2140    5.6810 H   0  0  0  0  0  0  0  0  0  0  0  0
    1.7410   -1.2880    3.5110 H   0  0  0  0  0  0  0  0  0  0  0  0
    1.6740    0.8790    4.2610 H   0  0  0  0  0  0  0  0  0  0  0  0
   -0.1070    0.8230    4.6200 H   0  0  0  0  0  0  0  0  0  0  0  0
    1.0390    0.0400    5.7380 H   0  0  0  0  0  0  0  0  0  0  0  0
   -1.2860   -0.9350    3.2270 H   0  0  0  0  0  0  0  0  0  0  0  0
    0.7910   -2.4290    1.7380 H   0  0  0  0  0  0  0  0  0  0  0  0
   -0.8500   -2.3660    1.3350 H   0  0  0  0  0  0  0  0  0  0  0  0
    5.1150   -0.8700   -0.8280 C   0  0  0  0  0  0  0  0  0  0  0  0
    3.9410   -0.7780   -2.1920 S   0  0  0  0  0  0  0  0  0  0  0  0
    2.2280   -0.6390   -1.6120 C   0  0  0  0  0  0  0  0  0  0  0  0
    2.0690    0.6880   -0.9190 C   0  0  0  0  0  0  0  0  0  0  0  0
    0.6610    0.9010   -0.3970 C   0  0  2  0  0  0  0  0  0  0  0  0
    0.3560   -0.1390    0.5400 N   0  0  0  0  0  0  0  0  0  0  0  0
   -0.3080    0.9620   -1.5190 C   0  0  0  0  0  0  0  0  0  0  0  0
   -0.1350    1.8410   -2.3940 O   0  0  0  0  0  0  0  0  0  0  0  0
    5.9760   -1.5040   -1.1910 H   0  0  0  0  0  0  0  0  0  0  0  0
    4.7220   -1.3700    0.0660 H   0  0  0  0  0  0  0  0  0  0  0  0
    5.5310    0.1260   -0.5420 H   0  0  0  0  0  0  0  0  0  0  0  0
    1.5890   -0.6060   -2.5270 H   0  0  0  0  0  0  0  0  0  0  0  0
    1.9720   -1.4840   -0.9450 H   0  0  0  0  0  0  0  0  0  0  0  0
    2.8170    0.7350   -0.1080 H   0  0  0  0  0  0  0  0  0  0  0  0
    2.3540    1.4980   -1.6400 H   0  0  0  0  0  0  0  0  0  0  0  0
    0.6360    1.8980    0.0900 H   0  0  0  0  0  0  0  0  0  0  0  0
    0.3450   -1.1340    0.2260 H   0  0  0  0  0  0  0  0  0  0  0  0
   -2.6770   -2.2110   -2.7690 O   0  0  0  0  0  0  0  0  0  0  0  0
   -2.3050   -1.1290   -3.5550 C   0  0  0  0  0  0  0  0  0  0  0  0
   -2.3310    0.1720   -2.7500 C   0  0  2  0  0  0  0  0  0  0  0  0
   -1.4150    0.0740   -1.6410 N   0  0  0  0  0  0  0  0  0  0  0  0
   -3.7300    0.4130   -2.2830 C   0  0  0  0  0  0  0  0  0  0  0  0
   -4.0270    0.5130   -1.0560 O   0  0  0  0  0  0  0  0  0  0  0  0
   -4.7830    0.5390   -3.1770 O   0  0  0  0  0  0  0  0  0  0  0  0
   -1.8790   -2.7180   -2.4280 H   0  0  0  0  0  0  0  0  0  0  0  0
   -1.2900   -1.3130   -3.9400 H   0  0  0  0  0  0  0  0  0  0  0  0
   -3.0080   -1.0700   -4.4100 H   0  0  0  0  0  0  0  0  0  0  0  0
   -2.0690    0.9890   -3.4460 H   0  0  0  0  0  0  0  0  0  0  0  0
   -1.5180   -0.6400   -0.8900 H   0  0  0  0  0  0  0  0  0  0  0  0
  1 10  1  0  0  0  0
  1  9  1  0  0  0  0
  2  1  1  0  0  0  0
  2 13  1  0  0  0  0
  3 14  1  6  0  0  0
  3  4  1  0  0  0  0
  3  2  1  0  0  0  0
  4 17  1  0  0  0  0
  5 18  1  1  0  0  0
  5  3  1  0  0  0  0
  6  5  1  0  0  0  0
  7  8  2  0  0  0  0
  7  5  1  0  0  0  0
 11  1  1  0  0  0  0
 12  2  1  0  0  0  0
 15  4  1  0  0  0  0
 16  4  1  0  0  0  0
 19  6  1  0  0  0  0
 20  6  1  0  0  0  0
 21 31  1  0  0  0  0
 21 30  1  0  0  0  0
 22 23  1  0  0  0  0
 22 21  1  0  0  0  0
 23 33  1  0  0  0  0
 23 24  1  0  0  0  0
 24 25  1  0  0  0  0
 24 34  1  0  0  0  0
 25 36  1  1  0  0  0
 25 26  1  0  0  0  0
 26  7  1  0  0  0  0
 27 25  1  0  0  0  0
 28 27  2  0  0  0  0
 29 21  1  0  0  0  0
 32 23  1  0  0  0  0
 35 24  1  0  0  0  0
 37 26  1  0  0  0  0
 38 45  1  0  0  0  0
 39 38  1  0  0  0  0
 39 40  1  0  0  0  0
 40 48  1  6  0  0  0
 40 42  1  0  0  0  0
 40 41  1  0  0  0  0
 41 27  1  0  0  0  0
 41 49  1  0  0  0  0
 42 43  1  0  0  0  0
 44 42  2  0  0  0  0
 46 39  1  0  0  0  0
 47 39  1  0  0  0  0
M  END
$$$$
