IMT.pdb
 OpenBabel07022418423D

 52 51  0  0  1  0  0  0  0  0999 V2000
    3.8690   -3.7630    0.8290 C   0  0  0  0  0  0  0  0  0  0  0  0
    4.1460   -2.3190    1.1660 C   0  0  0  0  0  0  0  0  0  0  0  0
    4.0290   -1.4160   -0.0120 C   0  0  2  0  0  0  0  0  0  0  0  0
    4.3280    0.0320    0.3440 C   0  0  0  0  0  0  0  0  0  0  0  0
    2.6840   -1.5560   -0.6570 C   0  0  2  0  0  0  0  0  0  0  0  0
    2.6470   -0.6570   -1.8050 N   0  0  0  0  0  0  0  0  0  0  0  0
    1.5430   -1.1780    0.1970 C   0  0  0  0  0  0  0  0  0  0  0  0
    1.3060   -1.8190    1.2540 O   0  0  0  0  0  0  0  0  0  0  0  0
    4.0710   -4.3610    1.7520 H   0  0  0  0  0  0  0  0  0  0  0  0
    2.8540   -3.8860    0.4740 H   0  0  0  0  0  0  0  0  0  0  0  0
    4.5730   -4.0370    0.0160 H   0  0  0  0  0  0  0  0  0  0  0  0
    5.2140   -2.2890    1.5100 H   0  0  0  0  0  0  0  0  0  0  0  0
    3.4780   -2.0480    2.0150 H   0  0  0  0  0  0  0  0  0  0  0  0
    4.7830   -1.7180   -0.7680 H   0  0  0  0  0  0  0  0  0  0  0  0
    5.2550    0.4010   -0.1680 H   0  0  0  0  0  0  0  0  0  0  0  0
    3.5200    0.7160    0.0170 H   0  0  0  0  0  0  0  0  0  0  0  0
    4.5390    0.0950    1.4300 H   0  0  0  0  0  0  0  0  0  0  0  0
    2.5750   -2.5740   -1.0420 H   0  0  0  0  0  0  0  0  0  0  0  0
    3.6000   -0.3650   -2.1090 H   0  0  0  0  0  0  0  0  0  0  0  0
    2.0560   -1.0330   -2.5700 H   0  0  0  0  0  0  0  0  0  0  0  0
    1.8020    0.6010    3.3380 C   0  0  0  0  0  0  0  0  0  0  0  0
    0.8830    2.1360    3.1980 S   0  0  0  0  0  0  0  0  0  0  0  0
    0.3320    2.5180    1.5530 C   0  0  0  0  0  0  0  0  0  0  0  0
   -0.7070    1.6580    0.9610 C   0  0  0  0  0  0  0  0  0  0  0  0
   -0.4200    0.2200    0.7410 C   0  0  2  0  0  0  0  0  0  0  0  0
    0.6660   -0.0790   -0.1360 N   0  0  0  0  0  0  0  0  0  0  0  0
   -1.6700   -0.3370    0.0790 C   0  0  0  0  0  0  0  0  0  0  0  0
   -1.5560   -0.9080   -1.0240 O   0  0  0  0  0  0  0  0  0  0  0  0
    2.3590    0.4410    2.4130 H   0  0  0  0  0  0  0  0  0  0  0  0
    1.1000   -0.2230    3.5420 H   0  0  0  0  0  0  0  0  0  0  0  0
    2.5800    0.6670    4.1490 H   0  0  0  0  0  0  0  0  0  0  0  0
   -0.1020    3.5680    1.5860 H   0  0  0  0  0  0  0  0  0  0  0  0
    1.2360    2.6480    0.9110 H   0  0  0  0  0  0  0  0  0  0  0  0
   -1.0840    2.1100    0.0130 H   0  0  0  0  0  0  0  0  0  0  0  0
   -1.5930    1.6890    1.6720 H   0  0  0  0  0  0  0  0  0  0  0  0
   -0.3390   -0.3860    1.6740 H   0  0  0  0  0  0  0  0  0  0  0  0
    0.8930    0.4230   -1.0060 H   0  0  0  0  0  0  0  0  0  0  0  0
   -6.0040   -2.3190    0.1630 C   0  0  0  0  0  0  0  0  0  0  0  0
   -4.8180   -1.7840    0.9390 C   0  0  1  0  0  0  0  0  0  0  0  0
   -3.9400   -2.8560    1.1420 O   0  0  0  0  0  0  0  0  0  0  0  0
   -4.1420   -0.7430    0.0740 C   0  0  2  0  0  0  0  0  0  0  0  0
   -2.9400   -0.2290    0.6700 N   0  0  0  0  0  0  0  0  0  0  0  0
   -5.1250    0.3450   -0.1840 C   0  0  0  0  0  0  0  0  0  0  0  0
   -4.8010    1.5250    0.1350 O   0  0  0  0  0  0  0  0  0  0  0  0
   -6.3580    0.1580   -0.7440 O   0  0  0  0  0  0  0  0  0  0  0  0
   -5.9210   -2.1270   -0.9270 H   0  0  0  0  0  0  0  0  0  0  0  0
   -6.9590   -1.8850    0.5560 H   0  0  0  0  0  0  0  0  0  0  0  0
   -6.0750   -3.3980    0.3020 H   0  0  0  0  0  0  0  0  0  0  0  0
   -5.2110   -1.3620    1.8770 H   0  0  0  0  0  0  0  0  0  0  0  0
   -3.4800   -3.0500    0.3040 H   0  0  0  0  0  0  0  0  0  0  0  0
   -3.8780   -1.2060   -0.8960 H   0  0  0  0  0  0  0  0  0  0  0  0
   -3.0330    0.2490    1.5960 H   0  0  0  0  0  0  0  0  0  0  0  0
  1  2  1  0  0  0  0
  1  9  1  0  0  0  0
  2 12  1  0  0  0  0
  2 13  1  0  0  0  0
  3 14  1  6  0  0  0
  3  4  1  0  0  0  0
  3  2  1  0  0  0  0
  4 17  1  0  0  0  0
  5 18  1  6  0  0  0
  5  3  1  0  0  0  0
  5  7  1  0  0  0  0
  6  5  1  0  0  0  0
  7  8  2  0  0  0  0
 10  1  1  0  0  0  0
 11  1  1  0  0  0  0
 15  4  1  0  0  0  0
 16  4  1  0  0  0  0
 19  6  1  0  0  0  0
 20  6  1  0  0  0  0
 21 30  1  0  0  0  0
 21 31  1  0  0  0  0
 22 21  1  0  0  0  0
 23 32  1  0  0  0  0
 23 22  1  0  0  0  0
 24 23  1  0  0  0  0
 24 35  1  0  0  0  0
 25 24  1  0  0  0  0
 25 36  1  1  0  0  0
 26  7  1  0  0  0  0
 26 25  1  0  0  0  0
 27 42  1  0  0  0  0
 27 25  1  0  0  0  0
 28 27  2  0  0  0  0
 29 21  1  0  0  0  0
 33 23  1  0  0  0  0
 34 24  1  0  0  0  0
 37 26  1  0  0  0  0
 38 48  1  0  0  0  0
 38 47  1  0  0  0  0
 38 39  1  0  0  0  0
 39 40  1  0  0  0  0
 39 49  1  1  0  0  0
 41 51  1  6  0  0  0
 41 42  1  0  0  0  0
 41 39  1  0  0  0  0
 42 52  1  0  0  0  0
 43 41  1  0  0  0  0
 43 44  1  0  0  0  0
 45 43  2  0  0  0  0
 46 38  1  0  0  0  0
 50 40  1  0  0  0  0
M  END
$$$$
