IMY.pdb
 OpenBabel07022418423D

 59 59  0  0  1  0  0  0  0  0999 V2000
    1.5840    1.6860    4.7630 C   0  0  0  0  0  0  0  0  0  0  0  0
    3.0290    1.6440    4.5040 C   0  0  0  0  0  0  0  0  0  0  0  0
    3.4780    1.9000    3.1060 C   0  0  2  0  0  0  0  0  0  0  0  0
    3.0550    3.2730    2.6060 C   0  0  0  0  0  0  0  0  0  0  0  0
    3.3560    0.8180    2.1260 C   0  0  2  0  0  0  0  0  0  0  0  0
    3.8660    1.3480    0.8420 N   0  0  0  0  0  0  0  0  0  0  0  0
    2.1080    0.1730    1.8470 C   0  0  0  0  0  0  0  0  0  0  0  0
    1.5150   -0.4280    2.7810 O   0  0  0  0  0  0  0  0  0  0  0  0
    1.1460    0.7790    5.2190 H   0  0  0  0  0  0  0  0  0  0  0  0
    1.0320    2.0360    3.8560 H   0  0  0  0  0  0  0  0  0  0  0  0
    1.3760    2.4980    5.5140 H   0  0  0  0  0  0  0  0  0  0  0  0
    3.5520    2.3780    5.1750 H   0  0  0  0  0  0  0  0  0  0  0  0
    3.4030    0.6480    4.8910 H   0  0  0  0  0  0  0  0  0  0  0  0
    4.6070    2.0400    3.2340 H   0  0  0  0  0  0  0  0  0  0  0  0
    3.4740    3.4790    1.6010 H   0  0  0  0  0  0  0  0  0  0  0  0
    3.4380    4.0840    3.2620 H   0  0  0  0  0  0  0  0  0  0  0  0
    1.9420    3.3900    2.6310 H   0  0  0  0  0  0  0  0  0  0  0  0
    4.1090    0.0160    2.3910 H   0  0  0  0  0  0  0  0  0  0  0  0
    4.0440    0.5740    0.1680 H   0  0  0  0  0  0  0  0  0  0  0  0
    4.7040    1.9480    1.0030 H   0  0  0  0  0  0  0  0  0  0  0  0
    1.0220    2.6900   -1.5400 C   0  0  0  0  0  0  0  0  0  0  0  0
   -0.4340    2.8010   -0.5260 S   0  0  0  0  0  0  0  0  0  0  0  0
   -1.4110    1.3430   -0.3330 C   0  0  0  0  0  0  0  0  0  0  0  0
   -1.0050    0.2630    0.5420 C   0  0  0  0  0  0  0  0  0  0  0  0
    0.2060   -0.5410    0.4380 C   0  0  2  0  0  0  0  0  0  0  0  0
    1.4440    0.1410    0.5720 N   0  0  0  0  0  0  0  0  0  0  0  0
    0.1540   -1.3610   -0.8130 C   0  0  0  0  0  0  0  0  0  0  0  0
    1.1580   -1.3490   -1.5790 O   0  0  0  0  0  0  0  0  0  0  0  0
    0.9760    3.4600   -2.3520 H   0  0  0  0  0  0  0  0  0  0  0  0
    1.0810    1.7100   -2.0490 H   0  0  0  0  0  0  0  0  0  0  0  0
    1.9610    2.8290   -0.9520 H   0  0  0  0  0  0  0  0  0  0  0  0
   -2.4520    1.6900    0.0420 H   0  0  0  0  0  0  0  0  0  0  0  0
   -1.7040    0.9130   -1.3670 H   0  0  0  0  0  0  0  0  0  0  0  0
   -0.9880    0.6920    1.6240 H   0  0  0  0  0  0  0  0  0  0  0  0
   -1.8840   -0.4790    0.5940 H   0  0  0  0  0  0  0  0  0  0  0  0
    0.1480   -1.3260    1.2840 H   0  0  0  0  0  0  0  0  0  0  0  0
    1.9690    0.6060   -0.1610 H   0  0  0  0  0  0  0  0  0  0  0  0
   -5.8760   -5.2990    0.8670 O   0  0  0  0  0  0  0  0  0  0  0  0
   -4.6720   -5.0610    0.1980 C   0  0  0  0  0  0  0  0  0  0  0  0
   -4.6560   -5.1800   -1.1800 C   0  0  0  0  0  0  0  0  0  0  0  0
   -3.4960   -4.9570   -1.8910 C   0  0  0  0  0  0  0  0  0  0  0  0
   -2.3180   -4.6110   -1.2670 C   0  0  0  0  0  0  0  0  0  0  0  0
   -1.0630   -4.3670   -2.0020 C   0  0  0  0  0  0  0  0  0  0  0  0
   -0.9400   -2.9010   -2.3930 C   0  0  2  0  0  0  0  0  0  0  0  0
   -0.9560   -2.1360   -1.1690 N   0  0  0  0  0  0  0  0  0  0  0  0
   -2.0390   -2.4630   -3.2740 C   0  0  0  0  0  0  0  0  0  0  0  0
   -2.8050   -1.5470   -2.8910 O   0  0  0  0  0  0  0  0  0  0  0  0
   -2.3810   -4.5030    0.1250 C   0  0  0  0  0  0  0  0  0  0  0  0
   -3.5140   -4.7180    0.8500 C   0  0  0  0  0  0  0  0  0  0  0  0
   -2.2430   -3.0440   -4.5180 O   0  0  0  0  0  0  0  0  0  0  0  0
   -5.8620   -5.9530    1.6410 H   0  0  0  0  0  0  0  0  0  0  0  0
   -5.5640   -5.4490   -1.6930 H   0  0  0  0  0  0  0  0  0  0  0  0
   -3.5210   -5.0580   -2.9650 H   0  0  0  0  0  0  0  0  0  0  0  0
   -1.0670   -5.0130   -2.9160 H   0  0  0  0  0  0  0  0  0  0  0  0
   -0.2010   -4.6180   -1.3610 H   0  0  0  0  0  0  0  0  0  0  0  0
    0.0210   -2.7450   -2.9320 H   0  0  0  0  0  0  0  0  0  0  0  0
   -1.7870   -2.1570   -0.5480 H   0  0  0  0  0  0  0  0  0  0  0  0
   -1.4530   -4.2300    0.6260 H   0  0  0  0  0  0  0  0  0  0  0  0
   -3.5360   -4.6290    1.9180 H   0  0  0  0  0  0  0  0  0  0  0  0
  1  9  1  0  0  0  0
  1 11  1  0  0  0  0
  2  1  1  0  0  0  0
  2 13  1  0  0  0  0
  2 12  1  0  0  0  0
  3 14  1  1  0  0  0
  3  2  1  0  0  0  0
  4 17  1  0  0  0  0
  4  3  1  0  0  0  0
  4 16  1  0  0  0  0
  5 18  1  1  0  0  0
  5  3  1  0  0  0  0
  6 20  1  0  0  0  0
  6  5  1  0  0  0  0
  7  5  1  0  0  0  0
  7  8  2  0  0  0  0
 10  1  1  0  0  0  0
 15  4  1  0  0  0  0
 19  6  1  0  0  0  0
 21 31  1  0  0  0  0
 21 22  1  0  0  0  0
 22 23  1  0  0  0  0
 23 32  1  0  0  0  0
 23 24  1  0  0  0  0
 24 35  1  0  0  0  0
 24 34  1  0  0  0  0
 25 24  1  0  0  0  0
 25 26  1  0  0  0  0
 25 36  1  1  0  0  0
 26  7  1  0  0  0  0
 27 25  1  0  0  0  0
 28 27  2  0  0  0  0
 29 21  1  0  0  0  0
 30 21  1  0  0  0  0
 33 23  1  0  0  0  0
 37 26  1  0  0  0  0
 38 51  1  0  0  0  0
 39 49  1  0  0  0  0
 39 38  1  0  0  0  0
 40 39  2  0  0  0  0
 41 42  2  0  0  0  0
 41 40  1  0  0  0  0
 42 48  1  0  0  0  0
 43 55  1  0  0  0  0
 43 42  1  0  0  0  0
 44 56  1  6  0  0  0
 44 43  1  0  0  0  0
 44 45  1  0  0  0  0
 45 27  1  0  0  0  0
 45 57  1  0  0  0  0
 46 47  1  0  0  0  0
 46 44  1  0  0  0  0
 48 58  1  0  0  0  0
 48 49  2  0  0  0  0
 49 59  1  0  0  0  0
 50 46  2  0  0  0  0
 52 40  1  0  0  0  0
 53 41  1  0  0  0  0
 54 43  1  0  0  0  0
M  END
$$$$
