INA.pdb
 OpenBabel07022418403D

 45 44  0  0  1  0  0  0  0  0999 V2000
    2.2890   -4.6670   -0.8890 C   0  0  0  0  0  0  0  0  0  0  0  0
    2.9020   -3.3780   -1.4140 C   0  0  0  0  0  0  0  0  0  0  0  0
    2.7980   -2.2670   -0.3880 C   0  0  2  0  0  0  0  0  0  0  0  0
    3.5280   -2.6620    0.8620 C   0  0  0  0  0  0  0  0  0  0  0  0
    1.3320   -1.9760   -0.1560 C   0  0  2  0  0  0  0  0  0  0  0  0
    0.7450   -1.5700   -1.4000 N   0  0  0  0  0  0  0  0  0  0  0  0
    1.0730   -1.0900    0.9770 C   0  0  0  0  0  0  0  0  0  0  0  0
    1.6190   -1.4250    2.0880 O   0  0  0  0  0  0  0  0  0  0  0  0
    1.3560   -4.9190   -1.4720 H   0  0  0  0  0  0  0  0  0  0  0  0
    2.9680   -5.5240   -1.0490 H   0  0  0  0  0  0  0  0  0  0  0  0
    2.0960   -4.5940    0.1860 H   0  0  0  0  0  0  0  0  0  0  0  0
    2.3630   -3.0840   -2.3320 H   0  0  0  0  0  0  0  0  0  0  0  0
    3.9720   -3.5780   -1.6640 H   0  0  0  0  0  0  0  0  0  0  0  0
    3.2430   -1.3620   -0.8670 H   0  0  0  0  0  0  0  0  0  0  0  0
    3.8720   -1.7550    1.3940 H   0  0  0  0  0  0  0  0  0  0  0  0
    4.4780   -3.1680    0.5320 H   0  0  0  0  0  0  0  0  0  0  0  0
    2.9110   -3.2800    1.5160 H   0  0  0  0  0  0  0  0  0  0  0  0
    0.8650   -2.9750    0.0950 H   0  0  0  0  0  0  0  0  0  0  0  0
   -0.1590   -1.0970   -1.3430 H   0  0  0  0  0  0  0  0  0  0  0  0
    1.4480   -1.0300   -1.9530 H   0  0  0  0  0  0  0  0  0  0  0  0
    2.8630    1.6100    0.4500 N   0  0  0  0  0  0  0  0  0  0  0  0
    2.2660    2.0020    1.6450 C   0  0  0  0  0  0  0  0  0  0  0  0
    3.0450    2.1960    2.6490 O   0  0  0  0  0  0  0  0  0  0  0  0
    0.8390    2.2230    1.9030 C   0  0  0  0  0  0  0  0  0  0  0  0
    0.1190    0.8930    2.1960 C   0  0  2  0  0  0  0  0  0  0  0  0
    0.3020    0.0850    1.0010 N   0  0  0  0  0  0  0  0  0  0  0  0
   -1.2800    1.1910    2.5140 C   0  0  0  0  0  0  0  0  0  0  0  0
   -1.6600    1.8100    3.5370 O   0  0  0  0  0  0  0  0  0  0  0  0
    3.6480    0.9060    0.4910 H   0  0  0  0  0  0  0  0  0  0  0  0
    2.5770    1.9740   -0.4810 H   0  0  0  0  0  0  0  0  0  0  0  0
    0.2960    2.6810    1.0500 H   0  0  0  0  0  0  0  0  0  0  0  0
    0.7140    2.9000    2.7900 H   0  0  0  0  0  0  0  0  0  0  0  0
    0.6550    0.3910    3.0280 H   0  0  0  0  0  0  0  0  0  0  0  0
   -0.1580    0.3600    0.0790 H   0  0  0  0  0  0  0  0  0  0  0  0
   -4.2830    2.1960    1.0790 C   0  0  0  0  0  0  0  0  0  0  0  0
   -3.7310    1.0870    1.9620 C   0  0  2  0  0  0  0  0  0  0  0  0
   -2.3650    0.7880    1.6440 N   0  0  0  0  0  0  0  0  0  0  0  0
   -4.6110   -0.0600    1.8320 C   0  0  0  0  0  0  0  0  0  0  0  0
   -4.1300   -1.1850    1.4280 O   0  0  0  0  0  0  0  0  0  0  0  0
   -5.9560   -0.0190    2.1180 O   0  0  0  0  0  0  0  0  0  0  0  0
   -3.9780    3.1900    1.4120 H   0  0  0  0  0  0  0  0  0  0  0  0
   -4.0400    1.9760    0.0030 H   0  0  0  0  0  0  0  0  0  0  0  0
   -5.3860    2.1350    1.1500 H   0  0  0  0  0  0  0  0  0  0  0  0
   -3.7880    1.5040    3.0050 H   0  0  0  0  0  0  0  0  0  0  0  0
   -2.1500    0.2730    0.7830 H   0  0  0  0  0  0  0  0  0  0  0  0
  1 11  1  0  0  0  0
  2  1  1  0  0  0  0
  2  3  1  0  0  0  0
  3 14  1  6  0  0  0
  3  5  1  0  0  0  0
  3  4  1  0  0  0  0
  4 15  1  0  0  0  0
  4 17  1  0  0  0  0
  5 18  1  1  0  0  0
  5  7  1  0  0  0  0
  6 19  1  0  0  0  0
  6  5  1  0  0  0  0
  7 26  1  0  0  0  0
  7  8  2  0  0  0  0
  9  1  1  0  0  0  0
 10  1  1  0  0  0  0
 12  2  1  0  0  0  0
 13  2  1  0  0  0  0
 16  4  1  0  0  0  0
 20  6  1  0  0  0  0
 21 29  1  0  0  0  0
 21 22  1  0  0  0  0
 22 24  1  0  0  0  0
 22 23  2  0  0  0  0
 24 25  1  0  0  0  0
 24 32  1  0  0  0  0
 25 27  1  0  0  0  0
 25 33  1  1  0  0  0
 26 25  1  0  0  0  0
 27 28  2  0  0  0  0
 30 21  1  0  0  0  0
 31 24  1  0  0  0  0
 34 26  1  0  0  0  0
 35 43  1  0  0  0  0
 35 41  1  0  0  0  0
 35 36  1  0  0  0  0
 36 44  1  1  0  0  0
 37 36  1  0  0  0  0
 37 27  1  0  0  0  0
 38 36  1  0  0  0  0
 38 40  1  0  0  0  0
 39 38  2  0  0  0  0
 42 35  1  0  0  0  0
 45 37  1  0  0  0  0
M  END
$$$$
