IND.pdb
 OpenBabel07022418403D

 48 47  0  0  1  0  0  0  0  0999 V2000
    2.2970   -3.4810   -0.9140 C   0  0  0  0  0  0  0  0  0  0  0  0
    3.1180   -2.8090    0.1360 C   0  0  0  0  0  0  0  0  0  0  0  0
    2.6290   -3.0420    1.5400 C   0  0  2  0  0  0  0  0  0  0  0  0
    2.6140   -4.4840    1.9230 C   0  0  0  0  0  0  0  0  0  0  0  0
    1.2610   -2.3890    1.7580 C   0  0  2  0  0  0  0  0  0  0  0  0
    0.3600   -3.0060    0.7980 N   0  0  0  0  0  0  0  0  0  0  0  0
    1.3360   -0.9270    1.5240 C   0  0  0  0  0  0  0  0  0  0  0  0
    2.0660   -0.2180    2.2530 O   0  0  0  0  0  0  0  0  0  0  0  0
    2.9730   -3.7330   -1.7790 H   0  0  0  0  0  0  0  0  0  0  0  0
    1.8230   -4.4170   -0.6170 H   0  0  0  0  0  0  0  0  0  0  0  0
    1.5110   -2.8080   -1.3460 H   0  0  0  0  0  0  0  0  0  0  0  0
    3.1390   -1.7040   -0.0370 H   0  0  0  0  0  0  0  0  0  0  0  0
    4.1750   -3.1340    0.0740 H   0  0  0  0  0  0  0  0  0  0  0  0
    3.3340   -2.4880    2.2130 H   0  0  0  0  0  0  0  0  0  0  0  0
    3.4620   -4.7150    2.6260 H   0  0  0  0  0  0  0  0  0  0  0  0
    1.6440   -4.6930    2.4250 H   0  0  0  0  0  0  0  0  0  0  0  0
    2.7730   -5.1210    1.0450 H   0  0  0  0  0  0  0  0  0  0  0  0
    0.8830   -2.6370    2.7580 H   0  0  0  0  0  0  0  0  0  0  0  0
   -0.5800   -2.5500    0.9680 H   0  0  0  0  0  0  0  0  0  0  0  0
    0.2300   -4.0010    1.1290 H   0  0  0  0  0  0  0  0  0  0  0  0
    1.3030    3.9350   -0.2580 N   0  0  0  0  0  0  0  0  0  0  0  0
    1.1880    2.9730   -1.2830 C   0  0  0  0  0  0  0  0  0  0  0  0
    1.1910    3.4220   -2.4860 O   0  0  0  0  0  0  0  0  0  0  0  0
    1.0680    1.5180   -1.1090 C   0  0  0  0  0  0  0  0  0  0  0  0
    0.7070    1.1760    0.2890 C   0  0  2  0  0  0  0  0  0  0  0  0
    0.6160   -0.2650    0.5010 N   0  0  0  0  0  0  0  0  0  0  0  0
   -0.6830    1.6770    0.5860 C   0  0  0  0  0  0  0  0  0  0  0  0
   -0.9360    2.8790    0.4810 O   0  0  0  0  0  0  0  0  0  0  0  0
    0.8640    4.8760   -0.3810 H   0  0  0  0  0  0  0  0  0  0  0  0
    1.8090    3.7810    0.6440 H   0  0  0  0  0  0  0  0  0  0  0  0
    0.2080    1.1940   -1.7580 H   0  0  0  0  0  0  0  0  0  0  0  0
    2.0140    1.0390   -1.4270 H   0  0  0  0  0  0  0  0  0  0  0  0
    1.4300    1.5580    1.0350 H   0  0  0  0  0  0  0  0  0  0  0  0
   -0.0040   -0.7910   -0.1400 H   0  0  0  0  0  0  0  0  0  0  0  0
   -1.7110    0.8150    0.9820 N   0  0  0  0  0  0  0  0  0  0  0  0
   -3.0650    1.2200    1.2830 C   0  0  1  0  0  0  0  0  0  0  0  0
   -4.0740    0.6660    0.3190 C   0  0  0  0  0  0  0  0  0  0  0  0
   -4.1120   -0.7990    0.2780 C   0  0  0  0  0  0  0  0  0  0  0  0
   -4.9440   -1.3260   -0.5250 O   0  0  0  0  0  0  0  0  0  0  0  0
   -3.4060    1.0010    2.6940 C   0  0  0  0  0  0  0  0  0  0  0  0
   -4.5280    1.2910    3.1340 O   0  0  0  0  0  0  0  0  0  0  0  0
   -3.3390   -1.6540    1.0190 O   0  0  0  0  0  0  0  0  0  0  0  0
   -2.4660    0.4670    3.5390 O   0  0  0  0  0  0  0  0  0  0  0  0
   -1.5090   -0.2030    1.0770 H   0  0  0  0  0  0  0  0  0  0  0  0
   -3.0820    2.3410    1.1300 H   0  0  0  0  0  0  0  0  0  0  0  0
   -5.0800    1.0210    0.6270 H   0  0  0  0  0  0  0  0  0  0  0  0
   -3.8750    1.1240   -0.6730 H   0  0  0  0  0  0  0  0  0  0  0  0
   -3.3240   -2.6440    0.8010 H   0  0  0  0  0  0  0  0  0  0  0  0
  1 10  1  0  0  0  0
  1  2  1  0  0  0  0
  2  3  1  0  0  0  0
  3  5  1  0  0  0  0
  3  4  1  0  0  0  0
  3 14  1  1  0  0  0
  4 16  1  0  0  0  0
  4 15  1  0  0  0  0
  5 18  1  1  0  0  0
  6 19  1  0  0  0  0
  6 20  1  0  0  0  0
  6  5  1  0  0  0  0
  7  5  1  0  0  0  0
  7  8  2  0  0  0  0
  9  1  1  0  0  0  0
 11  1  1  0  0  0  0
 12  2  1  0  0  0  0
 13  2  1  0  0  0  0
 17  4  1  0  0  0  0
 21 30  1  0  0  0  0
 22 24  1  0  0  0  0
 22 21  1  0  0  0  0
 23 22  2  0  0  0  0
 24 25  1  0  0  0  0
 25 26  1  0  0  0  0
 25 27  1  0  0  0  0
 25 33  1  1  0  0  0
 26  7  1  0  0  0  0
 27 35  1  0  0  0  0
 28 27  2  0  0  0  0
 29 21  1  0  0  0  0
 31 24  1  0  0  0  0
 32 24  1  0  0  0  0
 34 26  1  0  0  0  0
 35 44  1  0  0  0  0
 35 36  1  0  0  0  0
 36 45  1  6  0  0  0
 36 40  1  0  0  0  0
 37 46  1  0  0  0  0
 37 36  1  0  0  0  0
 38 37  1  0  0  0  0
 38 42  1  0  0  0  0
 39 38  2  0  0  0  0
 40 41  2  0  0  0  0
 40 43  1  0  0  0  0
 47 37  1  0  0  0  0
 48 42  1  0  0  0  0
M  END
$$$$
