INH.pdb
 OpenBabel07022418403D

 52 52  0  0  1  0  0  0  0  0999 V2000
   -2.0540    2.6810    3.4020 C   0  0  0  0  0  0  0  0  0  0  0  0
   -0.6560    2.1150    3.1270 C   0  0  0  0  0  0  0  0  0  0  0  0
   -0.3750    1.1180    4.2100 C   0  0  2  0  0  0  0  0  0  0  0  0
   -0.3980    1.7080    5.5900 C   0  0  0  0  0  0  0  0  0  0  0  0
    0.8890    0.3340    3.9950 C   0  0  2  0  0  0  0  0  0  0  0  0
    2.0670    1.1410    3.9260 N   0  0  0  0  0  0  0  0  0  0  0  0
    0.7650   -0.5390    2.7750 C   0  0  0  0  0  0  0  0  0  0  0  0
   -0.2020   -1.3220    2.6410 O   0  0  0  0  0  0  0  0  0  0  0  0
   -2.2860    3.4560    2.6220 H   0  0  0  0  0  0  0  0  0  0  0  0
   -2.1380    3.0970    4.4090 H   0  0  0  0  0  0  0  0  0  0  0  0
   -2.7520    1.8410    3.2020 H   0  0  0  0  0  0  0  0  0  0  0  0
    0.0720    2.9380    3.0920 H   0  0  0  0  0  0  0  0  0  0  0  0
   -0.7260    1.5800    2.1690 H   0  0  0  0  0  0  0  0  0  0  0  0
   -1.2170    0.3660    4.1740 H   0  0  0  0  0  0  0  0  0  0  0  0
   -1.4410    1.9150    5.9180 H   0  0  0  0  0  0  0  0  0  0  0  0
   -0.0320    0.9040    6.2850 H   0  0  0  0  0  0  0  0  0  0  0  0
    0.2490    2.5940    5.7040 H   0  0  0  0  0  0  0  0  0  0  0  0
    0.9980   -0.3620    4.8470 H   0  0  0  0  0  0  0  0  0  0  0  0
    1.9600    1.9260    4.6010 H   0  0  0  0  0  0  0  0  0  0  0  0
    2.8740    0.5680    4.2350 H   0  0  0  0  0  0  0  0  0  0  0  0
    4.4160   -1.0190    1.1330 N   0  0  0  0  0  0  0  0  0  0  0  0
    3.9260   -2.3240    0.9520 C   0  0  0  0  0  0  0  0  0  0  0  0
    4.6890   -3.2940    1.0610 O   0  0  0  0  0  0  0  0  0  0  0  0
    2.4970   -2.5250    0.6340 C   0  0  0  0  0  0  0  0  0  0  0  0
    1.7430   -1.2440    0.5500 C   0  0  2  0  0  0  0  0  0  0  0  0
    1.7540   -0.4780    1.7610 N   0  0  0  0  0  0  0  0  0  0  0  0
    0.4280   -1.3250   -0.1370 C   0  0  0  0  0  0  0  0  0  0  0  0
   -0.6000   -0.7200    0.2640 O   0  0  0  0  0  0  0  0  0  0  0  0
    4.3810   -0.2870    0.3640 H   0  0  0  0  0  0  0  0  0  0  0  0
    4.8410   -0.6910    2.0290 H   0  0  0  0  0  0  0  0  0  0  0  0
    2.1030   -3.1580    1.4910 H   0  0  0  0  0  0  0  0  0  0  0  0
    2.3730   -3.1730   -0.2460 H   0  0  0  0  0  0  0  0  0  0  0  0
    2.3260   -0.5760   -0.1880 H   0  0  0  0  0  0  0  0  0  0  0  0
    2.5600    0.2150    1.9630 H   0  0  0  0  0  0  0  0  0  0  0  0
    0.2670   -2.1090   -1.3110 N   0  0  0  0  0  0  0  0  0  0  0  0
   -1.0600   -2.1770   -1.9820 C   0  0  1  0  0  0  0  0  0  0  0  0
   -0.9240   -1.7010   -3.3930 C   0  0  0  0  0  0  0  0  0  0  0  0
   -2.1720   -1.6060   -4.1720 C   0  0  0  0  0  0  0  0  0  0  0  0
   -3.4810   -1.7310   -3.7910 C   0  0  0  0  0  0  0  0  0  0  0  0
   -4.2630   -1.4790   -4.8770 N   0  0  0  0  0  0  0  0  0  0  0  0
   -3.4490   -1.2060   -5.8900 C   0  0  0  0  0  0  0  0  0  0  0  0
   -2.1770   -1.2730   -5.5010 N   0  0  0  0  0  0  0  0  0  0  0  0
   -1.4830   -3.6090   -1.9190 C   0  0  0  0  0  0  0  0  0  0  0  0
   -2.5130   -4.0120   -2.4410 O   0  0  0  0  0  0  0  0  0  0  0  0
   -0.7080   -4.5790   -1.2490 O   0  0  0  0  0  0  0  0  0  0  0  0
    1.0930   -2.6150   -1.6700 H   0  0  0  0  0  0  0  0  0  0  0  0
   -1.7630   -1.5700   -1.4360 H   0  0  0  0  0  0  0  0  0  0  0  0
   -0.1790   -2.3610   -3.9400 H   0  0  0  0  0  0  0  0  0  0  0  0
   -0.4980   -0.6630   -3.3830 H   0  0  0  0  0  0  0  0  0  0  0  0
   -3.9120   -1.9510   -2.8370 H   0  0  0  0  0  0  0  0  0  0  0  0
   -5.3030   -1.4950   -4.9120 H   0  0  0  0  0  0  0  0  0  0  0  0
   -3.7310   -0.9560   -6.9190 H   0  0  0  0  0  0  0  0  0  0  0  0
  1 10  1  0  0  0  0
  2  1  1  0  0  0  0
  2  3  1  0  0  0  0
  3 14  1  6  0  0  0
  3  4  1  0  0  0  0
  4 17  1  0  0  0  0
  4 15  1  0  0  0  0
  4 16  1  0  0  0  0
  5  3  1  0  0  0  0
  5 18  1  1  0  0  0
  6  5  1  0  0  0  0
  6 20  1  0  0  0  0
  6 19  1  0  0  0  0
  7  5  1  0  0  0  0
  8  7  2  0  0  0  0
  9  1  1  0  0  0  0
 11  1  1  0  0  0  0
 12  2  1  0  0  0  0
 13  2  1  0  0  0  0
 21 30  1  0  0  0  0
 22 23  2  0  0  0  0
 22 21  1  0  0  0  0
 24 22  1  0  0  0  0
 24 31  1  0  0  0  0
 25 33  1  6  0  0  0
 25 24  1  0  0  0  0
 25 26  1  0  0  0  0
 26 34  1  0  0  0  0
 26  7  1  0  0  0  0
 27 28  2  0  0  0  0
 27 25  1  0  0  0  0
 29 21  1  0  0  0  0
 32 24  1  0  0  0  0
 35 27  1  0  0  0  0
 36 43  1  0  0  0  0
 36 47  1  1  0  0  0
 36 35  1  0  0  0  0
 37 49  1  0  0  0  0
 37 36  1  0  0  0  0
 38 39  2  0  0  0  0
 38 37  1  0  0  0  0
 39 50  1  0  0  0  0
 40 39  1  0  0  0  0
 41 42  2  0  0  0  0
 41 40  1  0  0  0  0
 42 38  1  0  0  0  0
 43 45  1  0  0  0  0
 44 43  2  0  0  0  0
 46 35  1  0  0  0  0
 48 37  1  0  0  0  0
 51 40  1  0  0  0  0
 52 41  1  0  0  0  0
M  END
$$$$
