INK.pdb
 OpenBabel07022418403D

 56 55  0  0  1  0  0  0  0  0999 V2000
    2.8750   -3.9650    4.0970 C   0  0  0  0  0  0  0  0  0  0  0  0
    3.5130   -2.6790    3.6520 C   0  0  0  0  0  0  0  0  0  0  0  0
    2.3800   -1.7800    3.1410 C   0  0  2  0  0  0  0  0  0  0  0  0
    1.7520   -2.5430    2.0030 C   0  0  0  0  0  0  0  0  0  0  0  0
    3.0010   -0.5050    2.5480 C   0  0  2  0  0  0  0  0  0  0  0  0
    3.7620    0.1200    3.6650 N   0  0  0  0  0  0  0  0  0  0  0  0
    1.9620    0.4630    2.1380 C   0  0  0  0  0  0  0  0  0  0  0  0
    1.7420    1.4880    2.8790 O   0  0  0  0  0  0  0  0  0  0  0  0
    2.9950   -4.7770    3.3550 H   0  0  0  0  0  0  0  0  0  0  0  0
    3.2910   -4.3310    5.0770 H   0  0  0  0  0  0  0  0  0  0  0  0
    1.7750   -3.8360    4.2920 H   0  0  0  0  0  0  0  0  0  0  0  0
    4.0440   -2.1990    4.4950 H   0  0  0  0  0  0  0  0  0  0  0  0
    4.1640   -2.8740    2.7770 H   0  0  0  0  0  0  0  0  0  0  0  0
    1.7070   -1.5490    3.9620 H   0  0  0  0  0  0  0  0  0  0  0  0
    1.7660   -3.6450    2.1900 H   0  0  0  0  0  0  0  0  0  0  0  0
    0.7280   -2.1780    1.8830 H   0  0  0  0  0  0  0  0  0  0  0  0
    2.4040   -2.4050    1.1160 H   0  0  0  0  0  0  0  0  0  0  0  0
    3.7420   -0.7330    1.7780 H   0  0  0  0  0  0  0  0  0  0  0  0
    4.6560   -0.4040    3.7430 H   0  0  0  0  0  0  0  0  0  0  0  0
    3.2290   -0.0210    4.5510 H   0  0  0  0  0  0  0  0  0  0  0  0
    3.1930    2.0940   -0.8220 N   0  0  0  0  0  0  0  0  0  0  0  0
    2.0160    2.7150   -0.3450 C   0  0  0  0  0  0  0  0  0  0  0  0
    2.1140    3.7860    0.2910 O   0  0  0  0  0  0  0  0  0  0  0  0
    0.7110    2.1170   -0.5910 C   0  0  0  0  0  0  0  0  0  0  0  0
    0.1610    1.3970    0.6590 C   0  0  2  0  0  0  0  0  0  0  0  0
    1.1620    0.3620    0.9590 N   0  0  0  0  0  0  0  0  0  0  0  0
   -1.1110    0.8020    0.2010 C   0  0  0  0  0  0  0  0  0  0  0  0
   -2.0430    1.6410   -0.0330 O   0  0  0  0  0  0  0  0  0  0  0  0
    4.1530    2.3540   -0.4610 H   0  0  0  0  0  0  0  0  0  0  0  0
    3.1910    1.3380   -1.5620 H   0  0  0  0  0  0  0  0  0  0  0  0
    0.7200    1.3320   -1.3820 H   0  0  0  0  0  0  0  0  0  0  0  0
   -0.0660    2.8600   -0.9360 H   0  0  0  0  0  0  0  0  0  0  0  0
    0.0830    2.1040    1.4830 H   0  0  0  0  0  0  0  0  0  0  0  0
    1.3170   -0.4530    0.3380 H   0  0  0  0  0  0  0  0  0  0  0  0
   -1.3630   -0.5580    0.0110 N   0  0  0  0  0  0  0  0  0  0  0  0
   -2.7060   -0.9500   -0.4520 C   0  0  1  0  0  0  0  0  0  0  0  0
   -2.4690   -1.6840   -1.7620 C   0  0  0  0  0  0  0  0  0  0  0  0
   -3.7420   -2.1510   -2.3760 C   0  0  0  0  0  0  0  0  0  0  0  0
   -4.7060   -1.0380   -2.6820 C   0  0  0  0  0  0  0  0  0  0  0  0
   -4.1540   -0.0250   -3.6380 C   0  0  0  0  0  0  0  0  0  0  0  0
   -3.7930   -0.5760   -4.9180 N   0  0  0  0  0  0  0  0  0  0  0  0
   -3.3270   -1.8270    0.5730 C   0  0  0  0  0  0  0  0  0  0  0  0
   -4.4770   -2.3140    0.5030 O   0  0  0  0  0  0  0  0  0  0  0  0
   -2.6040   -2.1610    1.7290 O   0  0  0  0  0  0  0  0  0  0  0  0
   -0.6210   -1.2450    0.1900 H   0  0  0  0  0  0  0  0  0  0  0  0
   -3.3350   -0.0630   -0.5860 H   0  0  0  0  0  0  0  0  0  0  0  0
   -1.9000   -1.0810   -2.4770 H   0  0  0  0  0  0  0  0  0  0  0  0
   -1.8720   -2.6120   -1.5230 H   0  0  0  0  0  0  0  0  0  0  0  0
   -4.2500   -2.8740   -1.7120 H   0  0  0  0  0  0  0  0  0  0  0  0
   -3.5670   -2.7010   -3.3270 H   0  0  0  0  0  0  0  0  0  0  0  0
   -4.9580   -0.5170   -1.7450 H   0  0  0  0  0  0  0  0  0  0  0  0
   -5.5970   -1.4980   -3.1590 H   0  0  0  0  0  0  0  0  0  0  0  0
   -4.9510    0.7260   -3.8200 H   0  0  0  0  0  0  0  0  0  0  0  0
   -3.3130    0.5590   -3.1680 H   0  0  0  0  0  0  0  0  0  0  0  0
   -3.4700    0.2300   -5.5110 H   0  0  0  0  0  0  0  0  0  0  0  0
   -3.0560   -1.2900   -4.8910 H   0  0  0  0  0  0  0  0  0  0  0  0
  1 11  1  0  0  0  0
  1 10  1  0  0  0  0
  2  1  1  0  0  0  0
  2 12  1  0  0  0  0
  3  2  1  0  0  0  0
  3 14  1  1  0  0  0
  4 15  1  0  0  0  0
  4  3  1  0  0  0  0
  5 18  1  6  0  0  0
  5  3  1  0  0  0  0
  5  6  1  0  0  0  0
  6 19  1  0  0  0  0
  6 20  1  0  0  0  0
  7  5  1  0  0  0  0
  7  8  2  0  0  0  0
  9  1  1  0  0  0  0
 13  2  1  0  0  0  0
 16  4  1  0  0  0  0
 17  4  1  0  0  0  0
 21 29  1  0  0  0  0
 21 22  1  0  0  0  0
 22 23  2  0  0  0  0
 24 22  1  0  0  0  0
 24 25  1  0  0  0  0
 25 26  1  0  0  0  0
 25 33  1  1  0  0  0
 26  7  1  0  0  0  0
 27 25  1  0  0  0  0
 28 27  2  0  0  0  0
 30 21  1  0  0  0  0
 31 24  1  0  0  0  0
 32 24  1  0  0  0  0
 34 26  1  0  0  0  0
 35 45  1  0  0  0  0
 35 27  1  0  0  0  0
 36 46  1  6  0  0  0
 36 35  1  0  0  0  0
 36 42  1  0  0  0  0
 37 48  1  0  0  0  0
 37 36  1  0  0  0  0
 38 37  1  0  0  0  0
 38 49  1  0  0  0  0
 39 38  1  0  0  0  0
 39 51  1  0  0  0  0
 40 54  1  0  0  0  0
 40 39  1  0  0  0  0
 41 56  1  0  0  0  0
 41 40  1  0  0  0  0
 42 44  1  0  0  0  0
 43 42  2  0  0  0  0
 47 37  1  0  0  0  0
 50 38  1  0  0  0  0
 52 39  1  0  0  0  0
 53 40  1  0  0  0  0
 55 41  1  0  0  0  0
M  END
$$$$
