INM.pdb
 OpenBabel07022418403D

 52 51  0  0  1  0  0  0  0  0999 V2000
    2.3530   -5.4440    2.1300 C   0  0  0  0  0  0  0  0  0  0  0  0
    2.2300   -4.8080    0.7900 C   0  0  0  0  0  0  0  0  0  0  0  0
    1.6910   -3.3860    0.8540 C   0  0  2  0  0  0  0  0  0  0  0  0
    1.6550   -2.9530   -0.6210 C   0  0  0  0  0  0  0  0  0  0  0  0
    2.6070   -2.4690    1.5830 C   0  0  2  0  0  0  0  0  0  0  0  0
    2.8540   -2.9810    2.9530 N   0  0  0  0  0  0  0  0  0  0  0  0
    1.9590   -1.1560    1.8120 C   0  0  0  0  0  0  0  0  0  0  0  0
    1.7010   -0.8020    3.0310 O   0  0  0  0  0  0  0  0  0  0  0  0
    2.2510   -6.5550    1.9800 H   0  0  0  0  0  0  0  0  0  0  0  0
    3.3650   -5.3010    2.5560 H   0  0  0  0  0  0  0  0  0  0  0  0
    1.5460   -5.1700    2.8400 H   0  0  0  0  0  0  0  0  0  0  0  0
    1.4960   -5.3890    0.1910 H   0  0  0  0  0  0  0  0  0  0  0  0
    3.1900   -4.8510    0.2700 H   0  0  0  0  0  0  0  0  0  0  0  0
    0.6910   -3.3480    1.2430 H   0  0  0  0  0  0  0  0  0  0  0  0
    2.5630   -2.4230   -0.9290 H   0  0  0  0  0  0  0  0  0  0  0  0
    1.6160   -3.8830   -1.2870 H   0  0  0  0  0  0  0  0  0  0  0  0
    0.7640   -2.3810   -0.8860 H   0  0  0  0  0  0  0  0  0  0  0  0
    3.5880   -2.3720    1.1080 H   0  0  0  0  0  0  0  0  0  0  0  0
    3.7390   -2.5460    3.3270 H   0  0  0  0  0  0  0  0  0  0  0  0
    2.0920   -2.6600    3.5990 H   0  0  0  0  0  0  0  0  0  0  0  0
    1.5240    4.2080    2.2010 N   0  0  0  0  0  0  0  0  0  0  0  0
    1.1360    3.5250    1.0000 C   0  0  0  0  0  0  0  0  0  0  0  0
    0.2730    4.1070    0.2800 O   0  0  0  0  0  0  0  0  0  0  0  0
    1.7340    2.2250    0.6680 C   0  0  0  0  0  0  0  0  0  0  0  0
    0.9570    1.0720    1.2050 C   0  0  2  0  0  0  0  0  0  0  0  0
    1.5750   -0.2050    0.8580 N   0  0  0  0  0  0  0  0  0  0  0  0
   -0.4850    1.0980    0.9200 C   0  0  0  0  0  0  0  0  0  0  0  0
   -1.1850    2.1280    1.1250 O   0  0  0  0  0  0  0  0  0  0  0  0
    2.1170    5.0620    2.1920 H   0  0  0  0  0  0  0  0  0  0  0  0
    1.1970    3.8310    3.1180 H   0  0  0  0  0  0  0  0  0  0  0  0
    1.8580    2.1920   -0.4380 H   0  0  0  0  0  0  0  0  0  0  0  0
    2.7430    2.1940    1.1700 H   0  0  0  0  0  0  0  0  0  0  0  0
    1.0240    1.1380    2.3350 H   0  0  0  0  0  0  0  0  0  0  0  0
    1.7410   -0.3960   -0.1500 H   0  0  0  0  0  0  0  0  0  0  0  0
   -4.5810    2.6650   -2.0560 C   0  0  0  0  0  0  0  0  0  0  0  0
   -5.1210    1.2550   -1.0880 S   0  0  0  0  0  0  0  0  0  0  0  0
   -4.3080   -0.2880   -1.6250 C   0  0  0  0  0  0  0  0  0  0  0  0
   -2.8310   -0.2520   -1.3460 C   0  0  0  0  0  0  0  0  0  0  0  0
   -2.5680   -0.0650    0.1000 C   0  0  2  0  0  0  0  0  0  0  0  0
   -1.1460   -0.0210    0.4080 N   0  0  0  0  0  0  0  0  0  0  0  0
   -3.2180   -1.0060    1.0110 C   0  0  0  0  0  0  0  0  0  0  0  0
   -4.4500   -1.2700    1.0510 O   0  0  0  0  0  0  0  0  0  0  0  0
   -2.4200   -1.7000    1.9450 O   0  0  0  0  0  0  0  0  0  0  0  0
   -3.8690    2.3140   -2.8380 H   0  0  0  0  0  0  0  0  0  0  0  0
   -5.4640    3.1720   -2.5320 H   0  0  0  0  0  0  0  0  0  0  0  0
   -4.0790    3.4410   -1.4410 H   0  0  0  0  0  0  0  0  0  0  0  0
   -4.5040   -0.3740   -2.7380 H   0  0  0  0  0  0  0  0  0  0  0  0
   -4.8580   -1.1190   -1.1820 H   0  0  0  0  0  0  0  0  0  0  0  0
   -2.4000    0.6160   -1.8860 H   0  0  0  0  0  0  0  0  0  0  0  0
   -2.4210   -1.2200   -1.7420 H   0  0  0  0  0  0  0  0  0  0  0  0
   -2.9540    0.9640    0.3640 H   0  0  0  0  0  0  0  0  0  0  0  0
   -0.6150   -0.8850    0.2330 H   0  0  0  0  0  0  0  0  0  0  0  0
  1 10  1  0  0  0  0
  1 11  1  0  0  0  0
  2  3  1  0  0  0  0
  2  1  1  0  0  0  0
  3 14  1  1  0  0  0
  3  5  1  0  0  0  0
  4  3  1  0  0  0  0
  5 18  1  6  0  0  0
  5  7  1  0  0  0  0
  5  6  1  0  0  0  0
  6 19  1  0  0  0  0
  6 20  1  0  0  0  0
  7  8  2  0  0  0  0
  9  1  1  0  0  0  0
 12  2  1  0  0  0  0
 13  2  1  0  0  0  0
 15  4  1  0  0  0  0
 16  4  1  0  0  0  0
 17  4  1  0  0  0  0
 21 30  1  0  0  0  0
 22 21  1  0  0  0  0
 23 22  2  0  0  0  0
 24 22  1  0  0  0  0
 24 32  1  0  0  0  0
 24 25  1  0  0  0  0
 25 33  1  1  0  0  0
 26 25  1  0  0  0  0
 26  7  1  0  0  0  0
 27 28  2  0  0  0  0
 27 25  1  0  0  0  0
 29 21  1  0  0  0  0
 31 24  1  0  0  0  0
 34 26  1  0  0  0  0
 35 46  1  0  0  0  0
 35 36  1  0  0  0  0
 37 38  1  0  0  0  0
 37 48  1  0  0  0  0
 37 36  1  0  0  0  0
 38 39  1  0  0  0  0
 39 51  1  1  0  0  0
 39 40  1  0  0  0  0
 39 41  1  0  0  0  0
 40 27  1  0  0  0  0
 41 42  2  0  0  0  0
 41 43  1  0  0  0  0
 44 35  1  0  0  0  0
 45 35  1  0  0  0  0
 47 37  1  0  0  0  0
 49 38  1  0  0  0  0
 50 38  1  0  0  0  0
 52 40  1  0  0  0  0
M  END
$$$$
