INN.pdb
 OpenBabel07022418403D

 49 48  0  0  1  0  0  0  0  0999 V2000
    2.4890   -4.2120    0.7530 C   0  0  0  0  0  0  0  0  0  0  0  0
    3.0180   -3.1340    1.6410 C   0  0  0  0  0  0  0  0  0  0  0  0
    2.1480   -2.8360    2.8280 C   0  0  2  0  0  0  0  0  0  0  0  0
    1.9450   -4.0110    3.7340 C   0  0  0  0  0  0  0  0  0  0  0  0
    0.8100   -2.2610    2.4300 C   0  0  2  0  0  0  0  0  0  0  0  0
    0.1530   -3.2530    1.5860 N   0  0  0  0  0  0  0  0  0  0  0  0
    1.0310   -0.9940    1.7210 C   0  0  0  0  0  0  0  0  0  0  0  0
    1.5810   -0.0400    2.3200 O   0  0  0  0  0  0  0  0  0  0  0  0
    3.3020   -4.8290    0.2840 H   0  0  0  0  0  0  0  0  0  0  0  0
    1.8130   -4.9190    1.2390 H   0  0  0  0  0  0  0  0  0  0  0  0
    1.9220   -3.7810   -0.1160 H   0  0  0  0  0  0  0  0  0  0  0  0
    3.1970   -2.1750    1.1140 H   0  0  0  0  0  0  0  0  0  0  0  0
    4.0050   -3.4700    2.0280 H   0  0  0  0  0  0  0  0  0  0  0  0
    2.6730   -2.0420    3.4190 H   0  0  0  0  0  0  0  0  0  0  0  0
    2.5010   -3.9120    4.6840 H   0  0  0  0  0  0  0  0  0  0  0  0
    0.8590   -4.1740    3.9150 H   0  0  0  0  0  0  0  0  0  0  0  0
    2.3380   -4.9170    3.2130 H   0  0  0  0  0  0  0  0  0  0  0  0
    0.1900   -2.1570    3.3450 H   0  0  0  0  0  0  0  0  0  0  0  0
   -0.7180   -2.7680    1.2150 H   0  0  0  0  0  0  0  0  0  0  0  0
   -0.2310   -4.0380    2.1720 H   0  0  0  0  0  0  0  0  0  0  0  0
    3.0300    2.5570   -1.6900 N   0  0  0  0  0  0  0  0  0  0  0  0
    1.9890    1.6660   -2.1380 C   0  0  0  0  0  0  0  0  0  0  0  0
    1.2870    2.0790   -3.1000 O   0  0  0  0  0  0  0  0  0  0  0  0
    1.7790    0.3540   -1.4920 C   0  0  0  0  0  0  0  0  0  0  0  0
    0.8880    0.5100   -0.3090 C   0  0  2  0  0  0  0  0  0  0  0  0
    0.6530   -0.7650    0.3650 N   0  0  0  0  0  0  0  0  0  0  0  0
   -0.4060    1.1440   -0.6700 C   0  0  0  0  0  0  0  0  0  0  0  0
   -0.4650    2.2520   -1.2180 O   0  0  0  0  0  0  0  0  0  0  0  0
    3.0670    3.5500   -1.9780 H   0  0  0  0  0  0  0  0  0  0  0  0
    3.7830    2.1940   -1.0470 H   0  0  0  0  0  0  0  0  0  0  0  0
    1.2920   -0.3090   -2.2480 H   0  0  0  0  0  0  0  0  0  0  0  0
    2.7780   -0.0220   -1.2000 H   0  0  0  0  0  0  0  0  0  0  0  0
    1.3820    1.1680    0.4370 H   0  0  0  0  0  0  0  0  0  0  0  0
    0.1960   -1.5540   -0.1410 H   0  0  0  0  0  0  0  0  0  0  0  0
   -4.0050    1.5150    2.9590 N   0  0  0  0  0  0  0  0  0  0  0  0
   -3.5420    0.9790    1.7400 C   0  0  0  0  0  0  0  0  0  0  0  0
   -3.1790   -0.2470    1.7350 O   0  0  0  0  0  0  0  0  0  0  0  0
   -3.4560    1.7440    0.4820 C   0  0  0  0  0  0  0  0  0  0  0  0
   -2.9180    0.9270   -0.6670 C   0  0  2  0  0  0  0  0  0  0  0  0
   -1.6140    0.4610   -0.3770 N   0  0  0  0  0  0  0  0  0  0  0  0
   -3.1470    1.5560   -1.9670 C   0  0  0  0  0  0  0  0  0  0  0  0
   -4.2680    2.0580   -2.2100 O   0  0  0  0  0  0  0  0  0  0  0  0
   -2.1820    1.6140   -2.9340 O   0  0  0  0  0  0  0  0  0  0  0  0
   -3.7910    2.4910    3.2070 H   0  0  0  0  0  0  0  0  0  0  0  0
   -4.5570    0.9280    3.6000 H   0  0  0  0  0  0  0  0  0  0  0  0
   -4.4730    2.1230    0.2360 H   0  0  0  0  0  0  0  0  0  0  0  0
   -2.7950    2.6230    0.6480 H   0  0  0  0  0  0  0  0  0  0  0  0
   -3.6130   -0.0010   -0.7150 H   0  0  0  0  0  0  0  0  0  0  0  0
   -1.5430   -0.4970    0.1070 H   0  0  0  0  0  0  0  0  0  0  0  0
  1 10  1  0  0  0  0
  1  2  1  0  0  0  0
  2 13  1  0  0  0  0
  2  3  1  0  0  0  0
  3 14  1  1  0  0  0
  3  4  1  0  0  0  0
  4 16  1  0  0  0  0
  4 15  1  0  0  0  0
  5  3  1  0  0  0  0
  5 18  1  1  0  0  0
  6 20  1  0  0  0  0
  6  5  1  0  0  0  0
  7  8  2  0  0  0  0
  7  5  1  0  0  0  0
  9  1  1  0  0  0  0
 11  1  1  0  0  0  0
 12  2  1  0  0  0  0
 17  4  1  0  0  0  0
 19  6  1  0  0  0  0
 21 30  1  0  0  0  0
 22 21  1  0  0  0  0
 22 24  1  0  0  0  0
 23 22  2  0  0  0  0
 24 32  1  0  0  0  0
 24 25  1  0  0  0  0
 25 26  1  0  0  0  0
 25 33  1  1  0  0  0
 26  7  1  0  0  0  0
 27 40  1  0  0  0  0
 27 25  1  0  0  0  0
 28 27  2  0  0  0  0
 29 21  1  0  0  0  0
 31 24  1  0  0  0  0
 34 26  1  0  0  0  0
 35 44  1  0  0  0  0
 35 45  1  0  0  0  0
 36 35  1  0  0  0  0
 37 36  2  0  0  0  0
 38 47  1  0  0  0  0
 38 36  1  0  0  0  0
 39 48  1  6  0  0  0
 39 40  1  0  0  0  0
 39 38  1  0  0  0  0
 40 49  1  0  0  0  0
 41 39  1  0  0  0  0
 42 41  1  0  0  0  0
 43 41  2  0  0  0  0
 46 38  1  0  0  0  0
M  END
$$$$
