INP.pdb
 OpenBabel07022418403D

 49 49  0  0  1  0  0  0  0  0999 V2000
   -1.1640   -3.8710    2.2600 C   0  0  0  0  0  0  0  0  0  0  0  0
    0.0340   -2.9980    2.6310 C   0  0  0  0  0  0  0  0  0  0  0  0
    1.0720   -3.2030    1.5820 C   0  0  2  0  0  0  0  0  0  0  0  0
    1.4550   -4.6700    1.5650 C   0  0  0  0  0  0  0  0  0  0  0  0
    2.2480   -2.3000    1.6510 C   0  0  2  0  0  0  0  0  0  0  0  0
    2.9450   -2.4280    2.9190 N   0  0  0  0  0  0  0  0  0  0  0  0
    2.0380   -0.9040    1.2640 C   0  0  0  0  0  0  0  0  0  0  0  0
    2.3630    0.0420    2.0600 O   0  0  0  0  0  0  0  0  0  0  0  0
   -2.0950   -3.3890    2.6100 H   0  0  0  0  0  0  0  0  0  0  0  0
   -1.2150   -4.0490    1.1490 H   0  0  0  0  0  0  0  0  0  0  0  0
   -1.0730   -4.8460    2.7420 H   0  0  0  0  0  0  0  0  0  0  0  0
    0.3760   -3.3690    3.6280 H   0  0  0  0  0  0  0  0  0  0  0  0
   -0.3370   -1.9770    2.7550 H   0  0  0  0  0  0  0  0  0  0  0  0
    0.5870   -3.0240    0.5770 H   0  0  0  0  0  0  0  0  0  0  0  0
    0.5820   -5.2830    1.2680 H   0  0  0  0  0  0  0  0  0  0  0  0
    1.7940   -5.0010    2.5620 H   0  0  0  0  0  0  0  0  0  0  0  0
    2.2560   -4.8480    0.8340 H   0  0  0  0  0  0  0  0  0  0  0  0
    2.9910   -2.7070    0.8940 H   0  0  0  0  0  0  0  0  0  0  0  0
    2.9260   -3.3840    3.2840 H   0  0  0  0  0  0  0  0  0  0  0  0
    3.8710   -1.9820    2.8380 H   0  0  0  0  0  0  0  0  0  0  0  0
    2.5130    3.7470   -0.8600 N   0  0  0  0  0  0  0  0  0  0  0  0
    1.9800    2.7590   -1.7330 C   0  0  0  0  0  0  0  0  0  0  0  0
    1.3080    3.1510   -2.7190 O   0  0  0  0  0  0  0  0  0  0  0  0
    2.2290    1.3340   -1.4520 C   0  0  0  0  0  0  0  0  0  0  0  0
    1.2970    0.8950   -0.3320 C   0  0  2  0  0  0  0  0  0  0  0  0
    1.4730   -0.4730    0.0030 N   0  0  0  0  0  0  0  0  0  0  0  0
   -0.0700    1.4180   -0.4670 C   0  0  0  0  0  0  0  0  0  0  0  0
   -0.2100    2.6920   -0.6980 O   0  0  0  0  0  0  0  0  0  0  0  0
    3.0440    3.4650    0.0130 H   0  0  0  0  0  0  0  0  0  0  0  0
    2.4180    4.7730   -1.0170 H   0  0  0  0  0  0  0  0  0  0  0  0
    3.2630    1.2700   -1.0390 H   0  0  0  0  0  0  0  0  0  0  0  0
    2.1000    0.7120   -2.3620 H   0  0  0  0  0  0  0  0  0  0  0  0
    1.7090    1.4860    0.5640 H   0  0  0  0  0  0  0  0  0  0  0  0
    1.2390   -1.2890   -0.6190 H   0  0  0  0  0  0  0  0  0  0  0  0
   -1.2960    0.7160   -0.3780 N   0  0  0  0  0  0  0  0  0  0  0  0
   -1.3670   -0.7140   -0.2020 C   0  0  0  0  0  0  0  0  0  0  0  0
   -2.8270   -1.0860   -0.0790 C   0  0  0  0  0  0  0  0  0  0  0  0
   -3.4600    0.1940    0.3260 C   0  0  0  0  0  0  0  0  0  0  0  0
   -2.6300    1.2360   -0.4410 C   0  0  1  0  0  0  0  0  0  0  0  0
   -2.8500    2.5440    0.1840 C   0  0  0  0  0  0  0  0  0  0  0  0
   -3.9440    3.1260   -0.0700 O   0  0  0  0  0  0  0  0  0  0  0  0
   -1.9590    3.1670    1.0160 O   0  0  0  0  0  0  0  0  0  0  0  0
   -0.7600   -1.0610    0.6210 H   0  0  0  0  0  0  0  0  0  0  0  0
   -0.9810   -1.1590   -1.1670 H   0  0  0  0  0  0  0  0  0  0  0  0
   -2.9000   -1.8890    0.6760 H   0  0  0  0  0  0  0  0  0  0  0  0
   -3.2060   -1.4220   -1.0520 H   0  0  0  0  0  0  0  0  0  0  0  0
   -3.2870    0.3680    1.4070 H   0  0  0  0  0  0  0  0  0  0  0  0
   -4.5150    0.2790    0.0560 H   0  0  0  0  0  0  0  0  0  0  0  0
   -2.9550    1.2090   -1.5090 H   0  0  0  0  0  0  0  0  0  0  0  0
  1  9  1  0  0  0  0
  1  2  1  0  0  0  0
  1 11  1  0  0  0  0
  2 13  1  0  0  0  0
  2 12  1  0  0  0  0
  3 14  1  6  0  0  0
  3  5  1  0  0  0  0
  3  2  1  0  0  0  0
  4  3  1  0  0  0  0
  4 16  1  0  0  0  0
  5 18  1  6  0  0  0
  5  6  1  0  0  0  0
  6 19  1  0  0  0  0
  7  5  1  0  0  0  0
  7  8  2  0  0  0  0
 10  1  1  0  0  0  0
 15  4  1  0  0  0  0
 17  4  1  0  0  0  0
 20  6  1  0  0  0  0
 21 29  1  0  0  0  0
 22 24  1  0  0  0  0
 22 21  1  0  0  0  0
 23 22  2  0  0  0  0
 24 31  1  0  0  0  0
 24 25  1  0  0  0  0
 25 26  1  0  0  0  0
 25 33  1  1  0  0  0
 26  7  1  0  0  0  0
 27 35  1  0  0  0  0
 27 25  1  0  0  0  0
 28 27  2  0  0  0  0
 30 21  1  0  0  0  0
 32 24  1  0  0  0  0
 34 26  1  0  0  0  0
 35 36  1  0  0  0  0
 36 37  1  0  0  0  0
 36 43  1  0  0  0  0
 37 38  1  0  0  0  0
 37 45  1  0  0  0  0
 38 47  1  0  0  0  0
 39 49  1  6  0  0  0
 39 35  1  0  0  0  0
 39 40  1  0  0  0  0
 39 38  1  0  0  0  0
 40 42  1  0  0  0  0
 41 40  2  0  0  0  0
 44 36  1  0  0  0  0
 46 37  1  0  0  0  0
 48 38  1  0  0  0  0
M  END
$$$$
