INQ.pdb
 OpenBabel07022418403D

 52 51  0  0  1  0  0  0  0  0999 V2000
    2.1680   -3.6500    4.3580 C   0  0  0  0  0  0  0  0  0  0  0  0
    2.0690   -3.8450    2.8750 C   0  0  0  0  0  0  0  0  0  0  0  0
    1.5750   -2.5660    2.1680 C   0  0  2  0  0  0  0  0  0  0  0  0
    1.5550   -2.9970    0.6930 C   0  0  0  0  0  0  0  0  0  0  0  0
    2.5710   -1.4730    2.3140 C   0  0  2  0  0  0  0  0  0  0  0  0
    2.8500   -1.2250    3.7460 N   0  0  0  0  0  0  0  0  0  0  0  0
    2.0380   -0.1780    1.8430 C   0  0  0  0  0  0  0  0  0  0  0  0
    1.8870    0.7890    2.6890 O   0  0  0  0  0  0  0  0  0  0  0  0
    1.9260   -4.5960    4.9250 H   0  0  0  0  0  0  0  0  0  0  0  0
    3.2360   -3.4450    4.6130 H   0  0  0  0  0  0  0  0  0  0  0  0
    1.4770   -2.8900    4.7470 H   0  0  0  0  0  0  0  0  0  0  0  0
    1.2730   -4.5990    2.6850 H   0  0  0  0  0  0  0  0  0  0  0  0
    2.9920   -4.1530    2.3870 H   0  0  0  0  0  0  0  0  0  0  0  0
    0.5690   -2.2970    2.4660 H   0  0  0  0  0  0  0  0  0  0  0  0
    0.7180   -2.5840    0.1310 H   0  0  0  0  0  0  0  0  0  0  0  0
    2.5040   -2.6660    0.2430 H   0  0  0  0  0  0  0  0  0  0  0  0
    1.5880   -4.1210    0.6030 H   0  0  0  0  0  0  0  0  0  0  0  0
    3.5060   -1.7310    1.8380 H   0  0  0  0  0  0  0  0  0  0  0  0
    2.1450   -0.6020    4.1620 H   0  0  0  0  0  0  0  0  0  0  0  0
    3.8270   -0.9670    3.9090 H   0  0  0  0  0  0  0  0  0  0  0  0
    2.3510    3.7720   -2.6520 N   0  0  0  0  0  0  0  0  0  0  0  0
    1.6930    3.2870   -1.4860 C   0  0  0  0  0  0  0  0  0  0  0  0
    0.8750    4.0530   -0.9480 O   0  0  0  0  0  0  0  0  0  0  0  0
    1.9990    1.9460   -0.9870 C   0  0  0  0  0  0  0  0  0  0  0  0
    1.1740    1.4630    0.1650 C   0  0  2  0  0  0  0  0  0  0  0  0
    1.6760    0.1180    0.5320 N   0  0  0  0  0  0  0  0  0  0  0  0
   -0.2790    1.3920   -0.1150 C   0  0  0  0  0  0  0  0  0  0  0  0
   -0.9410    2.3950   -0.4890 O   0  0  0  0  0  0  0  0  0  0  0  0
    2.6120    4.7710   -2.7350 H   0  0  0  0  0  0  0  0  0  0  0  0
    2.5820    3.1380   -3.4420 H   0  0  0  0  0  0  0  0  0  0  0  0
    3.0920    1.8980   -0.6770 H   0  0  0  0  0  0  0  0  0  0  0  0
    1.9690    1.1860   -1.8320 H   0  0  0  0  0  0  0  0  0  0  0  0
    1.3130    2.0980    1.0460 H   0  0  0  0  0  0  0  0  0  0  0  0
    1.7390   -0.5430   -0.2430 H   0  0  0  0  0  0  0  0  0  0  0  0
   -6.2950   -1.6710   -0.8910 N   0  0  0  0  0  0  0  0  0  0  0  0
   -4.8740   -1.7920   -0.9900 C   0  0  0  0  0  0  0  0  0  0  0  0
   -4.2900   -2.6590   -0.2540 O   0  0  0  0  0  0  0  0  0  0  0  0
   -4.0860   -0.9690   -1.9020 C   0  0  0  0  0  0  0  0  0  0  0  0
   -2.6910   -0.7220   -1.4550 C   0  0  0  0  0  0  0  0  0  0  0  0
   -2.4620    0.1330   -0.2650 C   0  0  2  0  0  0  0  0  0  0  0  0
   -1.0110    0.1930    0.0200 N   0  0  0  0  0  0  0  0  0  0  0  0
   -3.2030   -0.1980    0.9380 C   0  0  0  0  0  0  0  0  0  0  0  0
   -4.4530   -0.0990    1.0910 O   0  0  0  0  0  0  0  0  0  0  0  0
   -2.5130   -0.6810    2.0720 O   0  0  0  0  0  0  0  0  0  0  0  0
   -6.8620   -2.5310   -0.7330 H   0  0  0  0  0  0  0  0  0  0  0  0
   -6.7540   -0.7590   -0.9730 H   0  0  0  0  0  0  0  0  0  0  0  0
   -4.0170   -1.5040   -2.8960 H   0  0  0  0  0  0  0  0  0  0  0  0
   -4.6560   -0.0120   -2.0600 H   0  0  0  0  0  0  0  0  0  0  0  0
   -2.2240   -1.7530   -1.3160 H   0  0  0  0  0  0  0  0  0  0  0  0
   -2.0680   -0.2970   -2.2950 H   0  0  0  0  0  0  0  0  0  0  0  0
   -2.7870    1.1880   -0.5650 H   0  0  0  0  0  0  0  0  0  0  0  0
   -0.5690   -0.6790    0.3270 H   0  0  0  0  0  0  0  0  0  0  0  0
  1 10  1  0  0  0  0
  1 11  1  0  0  0  0
  1  9  1  0  0  0  0
  2  1  1  0  0  0  0
  3  5  1  0  0  0  0
  3 14  1  1  0  0  0
  3  2  1  0  0  0  0
  4  3  1  0  0  0  0
  5 18  1  6  0  0  0
  5  6  1  0  0  0  0
  6 20  1  0  0  0  0
  6 19  1  0  0  0  0
  7  5  1  0  0  0  0
  7  8  2  0  0  0  0
 12  2  1  0  0  0  0
 13  2  1  0  0  0  0
 15  4  1  0  0  0  0
 16  4  1  0  0  0  0
 17  4  1  0  0  0  0
 21 22  1  0  0  0  0
 22 24  1  0  0  0  0
 22 23  2  0  0  0  0
 24 31  1  0  0  0  0
 24 25  1  0  0  0  0
 25 26  1  0  0  0  0
 25 33  1  1  0  0  0
 26  7  1  0  0  0  0
 27 41  1  0  0  0  0
 27 25  1  0  0  0  0
 28 27  2  0  0  0  0
 29 21  1  0  0  0  0
 30 21  1  0  0  0  0
 32 24  1  0  0  0  0
 34 26  1  0  0  0  0
 35 45  1  0  0  0  0
 36 35  1  0  0  0  0
 36 37  2  0  0  0  0
 38 39  1  0  0  0  0
 38 36  1  0  0  0  0
 39 49  1  0  0  0  0
 39 40  1  0  0  0  0
 40 51  1  6  0  0  0
 40 41  1  0  0  0  0
 40 42  1  0  0  0  0
 41 52  1  0  0  0  0
 42 43  2  0  0  0  0
 42 44  1  0  0  0  0
 46 35  1  0  0  0  0
 47 38  1  0  0  0  0
 48 38  1  0  0  0  0
 50 39  1  0  0  0  0
M  END
$$$$
