INR.pdb
 OpenBabel07022418403D

 58 57  0  0  1  0  0  0  0  0999 V2000
   -3.9330   -2.4660    3.5370 C   0  0  0  0  0  0  0  0  0  0  0  0
   -2.7340   -3.3010    3.1700 C   0  0  0  0  0  0  0  0  0  0  0  0
   -1.9110   -2.4950    2.1560 C   0  0  2  0  0  0  0  0  0  0  0  0
   -2.7850   -2.2380    0.9670 C   0  0  0  0  0  0  0  0  0  0  0  0
   -0.6380   -3.2710    1.8080 C   0  0  2  0  0  0  0  0  0  0  0  0
    0.0460   -3.4140    3.1110 N   0  0  0  0  0  0  0  0  0  0  0  0
    0.2790   -2.4600    0.9670 C   0  0  0  0  0  0  0  0  0  0  0  0
    1.3620   -1.9630    1.4240 O   0  0  0  0  0  0  0  0  0  0  0  0
   -3.8170   -1.3960    3.3230 H   0  0  0  0  0  0  0  0  0  0  0  0
   -4.1070   -2.5560    4.6340 H   0  0  0  0  0  0  0  0  0  0  0  0
   -4.8520   -2.8320    3.0320 H   0  0  0  0  0  0  0  0  0  0  0  0
   -3.0070   -4.2850    2.7330 H   0  0  0  0  0  0  0  0  0  0  0  0
   -2.0610   -3.4470    4.0400 H   0  0  0  0  0  0  0  0  0  0  0  0
   -1.6330   -1.5570    2.6510 H   0  0  0  0  0  0  0  0  0  0  0  0
   -2.4720   -1.3450    0.3910 H   0  0  0  0  0  0  0  0  0  0  0  0
   -3.8280   -1.9950    1.3080 H   0  0  0  0  0  0  0  0  0  0  0  0
   -2.8540   -3.0930    0.2770 H   0  0  0  0  0  0  0  0  0  0  0  0
   -0.8500   -4.2670    1.4190 H   0  0  0  0  0  0  0  0  0  0  0  0
   -0.2020   -4.2920    3.5830 H   0  0  0  0  0  0  0  0  0  0  0  0
    1.0460   -3.1920    3.0480 H   0  0  0  0  0  0  0  0  0  0  0  0
    0.9740   -3.4670   -4.3600 N   0  0  0  0  0  0  0  0  0  0  0  0
    0.5320   -2.6740   -3.2640 C   0  0  0  0  0  0  0  0  0  0  0  0
   -0.7090   -2.4280   -3.1650 O   0  0  0  0  0  0  0  0  0  0  0  0
    1.5450   -2.1880   -2.3110 C   0  0  0  0  0  0  0  0  0  0  0  0
    0.9730   -1.3670   -1.1760 C   0  0  2  0  0  0  0  0  0  0  0  0
    0.0320   -2.1690   -0.4170 N   0  0  0  0  0  0  0  0  0  0  0  0
    0.3010   -0.1810   -1.7930 C   0  0  0  0  0  0  0  0  0  0  0  0
   -0.9290   -0.0590   -1.5790 O   0  0  0  0  0  0  0  0  0  0  0  0
    1.5560   -4.3040   -4.1290 H   0  0  0  0  0  0  0  0  0  0  0  0
    0.7590   -3.2680   -5.3540 H   0  0  0  0  0  0  0  0  0  0  0  0
    2.1250   -3.0570   -1.8990 H   0  0  0  0  0  0  0  0  0  0  0  0
    2.2890   -1.6080   -2.8990 H   0  0  0  0  0  0  0  0  0  0  0  0
    1.8380   -1.0550   -0.5520 H   0  0  0  0  0  0  0  0  0  0  0  0
   -0.8330   -2.5500   -0.8530 H   0  0  0  0  0  0  0  0  0  0  0  0
   -1.9280    6.8710   -1.2170 N   0  0  0  0  0  0  0  0  0  0  0  0
   -0.8780    5.9410   -0.9900 C   0  0  0  0  0  0  0  0  0  0  0  0
    0.3220    6.3200   -0.6210 N   0  0  0  0  0  0  0  0  0  0  0  0
   -1.1580    4.5590   -1.1730 N   0  0  0  0  0  0  0  0  0  0  0  0
   -0.3040    3.5320   -0.6690 C   0  0  0  0  0  0  0  0  0  0  0  0
    1.0250    3.4640   -1.3520 C   0  0  0  0  0  0  0  0  0  0  0  0
    0.9740    3.1990   -2.8160 C   0  0  0  0  0  0  0  0  0  0  0  0
    0.3250    1.8920   -3.1540 C   0  0  2  0  0  0  0  0  0  0  0  0
    1.0100    0.7600   -2.5790 N   0  0  0  0  0  0  0  0  0  0  0  0
    0.3880    1.7450   -4.6440 C   0  0  0  0  0  0  0  0  0  0  0  0
   -0.1400    2.6110   -5.3840 O   0  0  0  0  0  0  0  0  0  0  0  0
    1.0200    0.6650   -5.2120 O   0  0  0  0  0  0  0  0  0  0  0  0
   -2.0170    7.7870   -0.7340 H   0  0  0  0  0  0  0  0  0  0  0  0
   -2.6760    6.6430   -1.9140 H   0  0  0  0  0  0  0  0  0  0  0  0
    0.4630    7.3410   -0.5040 H   0  0  0  0  0  0  0  0  0  0  0  0
   -2.0210    4.3090   -1.6950 H   0  0  0  0  0  0  0  0  0  0  0  0
   -0.0860    3.6640    0.4300 H   0  0  0  0  0  0  0  0  0  0  0  0
   -0.7980    2.5470   -0.7790 H   0  0  0  0  0  0  0  0  0  0  0  0
    1.5900    2.6110   -0.8800 H   0  0  0  0  0  0  0  0  0  0  0  0
    1.6180    4.3980   -1.1830 H   0  0  0  0  0  0  0  0  0  0  0  0
    2.0060    3.2820   -3.2180 H   0  0  0  0  0  0  0  0  0  0  0  0
    0.3980    3.9940   -3.3510 H   0  0  0  0  0  0  0  0  0  0  0  0
   -0.7240    1.8980   -2.8250 H   0  0  0  0  0  0  0  0  0  0  0  0
    2.0360    0.6060   -2.7250 H   0  0  0  0  0  0  0  0  0  0  0  0
  1 10  1  0  0  0  0
  2  1  1  0  0  0  0
  2 13  1  0  0  0  0
  3 14  1  1  0  0  0
  3  2  1  0  0  0  0
  4 16  1  0  0  0  0
  4  3  1  0  0  0  0
  5 18  1  6  0  0  0
  5  3  1  0  0  0  0
  5  6  1  0  0  0  0
  6 19  1  0  0  0  0
  7  8  2  0  0  0  0
  7  5  1  0  0  0  0
  9  1  1  0  0  0  0
 11  1  1  0  0  0  0
 12  2  1  0  0  0  0
 15  4  1  0  0  0  0
 17  4  1  0  0  0  0
 20  6  1  0  0  0  0
 21 29  1  0  0  0  0
 21 22  1  0  0  0  0
 22 23  2  0  0  0  0
 22 24  1  0  0  0  0
 24 31  1  0  0  0  0
 24 25  1  0  0  0  0
 25 33  1  1  0  0  0
 25 26  1  0  0  0  0
 26  7  1  0  0  0  0
 27 28  2  0  0  0  0
 27 25  1  0  0  0  0
 30 21  1  0  0  0  0
 32 24  1  0  0  0  0
 34 26  1  0  0  0  0
 35 36  1  0  0  0  0
 35 47  1  0  0  0  0
 36 37  2  0  0  0  0
 37 49  1  0  0  0  0
 38 36  1  0  0  0  0
 38 39  1  0  0  0  0
 39 51  1  0  0  0  0
 40 54  1  0  0  0  0
 40 53  1  0  0  0  0
 40 39  1  0  0  0  0
 41 40  1  0  0  0  0
 42 57  1  1  0  0  0
 42 41  1  0  0  0  0
 42 43  1  0  0  0  0
 43 27  1  0  0  0  0
 44 42  1  0  0  0  0
 45 44  2  0  0  0  0
 46 44  1  0  0  0  0
 48 35  1  0  0  0  0
 50 38  1  0  0  0  0
 52 39  1  0  0  0  0
 55 41  1  0  0  0  0
 56 41  1  0  0  0  0
 58 43  1  0  0  0  0
M  END
$$$$
