INV.pdb
 OpenBabel07022418403D

 51 50  0  0  1  0  0  0  0  0999 V2000
    2.8800   -4.1210    3.5570 C   0  0  0  0  0  0  0  0  0  0  0  0
    3.7560   -3.0440    3.0190 C   0  0  0  0  0  0  0  0  0  0  0  0
    3.9810   -3.0590    1.5510 C   0  0  2  0  0  0  0  0  0  0  0  0
    4.8880   -1.9110    1.1670 C   0  0  0  0  0  0  0  0  0  0  0  0
    2.7220   -3.0970    0.7580 C   0  0  2  0  0  0  0  0  0  0  0  0
    3.0240   -3.1010   -0.6310 N   0  0  0  0  0  0  0  0  0  0  0  0
    1.7620   -2.0010    1.0800 C   0  0  0  0  0  0  0  0  0  0  0  0
    1.3230   -1.8710    2.2560 O   0  0  0  0  0  0  0  0  0  0  0  0
    2.4070   -3.7470    4.5110 H   0  0  0  0  0  0  0  0  0  0  0  0
    2.0510   -4.4440    2.9320 H   0  0  0  0  0  0  0  0  0  0  0  0
    3.4930   -5.0030    3.9060 H   0  0  0  0  0  0  0  0  0  0  0  0
    4.7580   -3.1650    3.5030 H   0  0  0  0  0  0  0  0  0  0  0  0
    3.3710   -2.0470    3.3420 H   0  0  0  0  0  0  0  0  0  0  0  0
    4.5340   -4.0150    1.3080 H   0  0  0  0  0  0  0  0  0  0  0  0
    5.9190   -2.2800    0.9440 H   0  0  0  0  0  0  0  0  0  0  0  0
    4.5260   -1.3450    0.2880 H   0  0  0  0  0  0  0  0  0  0  0  0
    5.0170   -1.2250    2.0400 H   0  0  0  0  0  0  0  0  0  0  0  0
    2.2070   -4.0680    0.9660 H   0  0  0  0  0  0  0  0  0  0  0  0
    3.2900   -2.2450   -1.0750 H   0  0  0  0  0  0  0  0  0  0  0  0
    3.2600   -4.0020   -1.0510 H   0  0  0  0  0  0  0  0  0  0  0  0
    0.0250    2.7560    2.1780 N   0  0  0  0  0  0  0  0  0  0  0  0
    0.2770    2.4180    0.8190 C   0  0  0  0  0  0  0  0  0  0  0  0
   -0.2350    3.1300   -0.0810 O   0  0  0  0  0  0  0  0  0  0  0  0
    1.1030    1.2780    0.4470 C   0  0  0  0  0  0  0  0  0  0  0  0
    0.3630   -0.0390    0.5100 C   0  0  2  0  0  0  0  0  0  0  0  0
    1.3070   -1.0810    0.1140 N   0  0  0  0  0  0  0  0  0  0  0  0
   -0.7850   -0.1360   -0.4050 C   0  0  0  0  0  0  0  0  0  0  0  0
   -0.7240   -0.9280   -1.3840 O   0  0  0  0  0  0  0  0  0  0  0  0
    0.4040    2.1520    2.9610 H   0  0  0  0  0  0  0  0  0  0  0  0
   -0.5230    3.5840    2.4750 H   0  0  0  0  0  0  0  0  0  0  0  0
    1.9300    1.1940    1.1980 H   0  0  0  0  0  0  0  0  0  0  0  0
    1.5580    1.4380   -0.5520 H   0  0  0  0  0  0  0  0  0  0  0  0
    0.0850   -0.1760    1.5810 H   0  0  0  0  0  0  0  0  0  0  0  0
    1.6110   -1.1080   -0.8660 H   0  0  0  0  0  0  0  0  0  0  0  0
   -4.6140    0.6520    0.8130 C   0  0  0  0  0  0  0  0  0  0  0  0
   -4.2370   -0.1720   -0.3880 C   0  0  0  0  0  0  0  0  0  0  0  0
   -5.4600   -0.3560   -1.2690 C   0  0  0  0  0  0  0  0  0  0  0  0
   -3.1010    0.4910   -1.1800 C   0  0  2  0  0  0  0  0  0  0  0  0
   -1.9780    0.5970   -0.2730 N   0  0  0  0  0  0  0  0  0  0  0  0
   -3.5400    1.7810   -1.7430 C   0  0  0  0  0  0  0  0  0  0  0  0
   -2.9780    2.8460   -1.4390 O   0  0  0  0  0  0  0  0  0  0  0  0
   -4.5990    1.8560   -2.6370 O   0  0  0  0  0  0  0  0  0  0  0  0
   -3.8420    0.6530    1.5990 H   0  0  0  0  0  0  0  0  0  0  0  0
   -4.9530    1.6590    0.5070 H   0  0  0  0  0  0  0  0  0  0  0  0
   -5.5120    0.1420    1.2610 H   0  0  0  0  0  0  0  0  0  0  0  0
   -3.9220   -1.1820   -0.0690 H   0  0  0  0  0  0  0  0  0  0  0  0
   -6.0590   -1.1760   -0.8390 H   0  0  0  0  0  0  0  0  0  0  0  0
   -6.0630    0.5780   -1.3430 H   0  0  0  0  0  0  0  0  0  0  0  0
   -5.1220   -0.6390   -2.2840 H   0  0  0  0  0  0  0  0  0  0  0  0
   -2.9110   -0.2020   -2.0160 H   0  0  0  0  0  0  0  0  0  0  0  0
   -2.0630    1.2490    0.5320 H   0  0  0  0  0  0  0  0  0  0  0  0
  1 11  1  0  0  0  0
  1  9  1  0  0  0  0
  2 13  1  0  0  0  0
  2 12  1  0  0  0  0
  2  1  1  0  0  0  0
  3 14  1  6  0  0  0
  3  2  1  0  0  0  0
  4  3  1  0  0  0  0
  4 17  1  0  0  0  0
  5 18  1  1  0  0  0
  5  7  1  0  0  0  0
  5  3  1  0  0  0  0
  6  5  1  0  0  0  0
  7  8  2  0  0  0  0
 10  1  1  0  0  0  0
 15  4  1  0  0  0  0
 16  4  1  0  0  0  0
 19  6  1  0  0  0  0
 20  6  1  0  0  0  0
 21 30  1  0  0  0  0
 21 29  1  0  0  0  0
 22 21  1  0  0  0  0
 23 22  2  0  0  0  0
 24 25  1  0  0  0  0
 24 22  1  0  0  0  0
 24 31  1  0  0  0  0
 25 33  1  1  0  0  0
 26 25  1  0  0  0  0
 26  7  1  0  0  0  0
 27 39  1  0  0  0  0
 27 25  1  0  0  0  0
 28 27  2  0  0  0  0
 32 24  1  0  0  0  0
 34 26  1  0  0  0  0
 35 45  1  0  0  0  0
 35 43  1  0  0  0  0
 36 46  1  0  0  0  0
 36 35  1  0  0  0  0
 37 47  1  0  0  0  0
 37 36  1  0  0  0  0
 38 50  1  6  0  0  0
 38 36  1  0  0  0  0
 38 39  1  0  0  0  0
 39 51  1  0  0  0  0
 40 41  1  0  0  0  0
 40 38  1  0  0  0  0
 42 40  2  0  0  0  0
 44 35  1  0  0  0  0
 48 37  1  0  0  0  0
 49 37  1  0  0  0  0
M  END
$$$$
