INY.pdb
 OpenBabel07022418403D

 56 56  0  0  1  0  0  0  0  0999 V2000
   -1.5490    1.4160    5.3600 C   0  0  0  0  0  0  0  0  0  0  0  0
   -0.1210    1.6820    4.9610 C   0  0  0  0  0  0  0  0  0  0  0  0
    0.5660    0.4420    4.4970 C   0  0  2  0  0  0  0  0  0  0  0  0
    1.9960    0.7440    4.1050 C   0  0  0  0  0  0  0  0  0  0  0  0
   -0.1240   -0.2290    3.3290 C   0  0  2  0  0  0  0  0  0  0  0  0
    0.5730   -1.4260    2.9140 N   0  0  0  0  0  0  0  0  0  0  0  0
   -0.3270    0.6920    2.1800 C   0  0  0  0  0  0  0  0  0  0  0  0
   -0.9070    1.7840    2.2890 O   0  0  0  0  0  0  0  0  0  0  0  0
   -1.7160    0.3010    5.4220 H   0  0  0  0  0  0  0  0  0  0  0  0
   -2.2950    1.8220    4.6570 H   0  0  0  0  0  0  0  0  0  0  0  0
   -1.7770    1.7730    6.4000 H   0  0  0  0  0  0  0  0  0  0  0  0
   -0.0010    2.5560    4.2920 H   0  0  0  0  0  0  0  0  0  0  0  0
    0.4090    1.9920    5.9110 H   0  0  0  0  0  0  0  0  0  0  0  0
    0.5830   -0.2740    5.3430 H   0  0  0  0  0  0  0  0  0  0  0  0
    2.1850    0.5980    3.0350 H   0  0  0  0  0  0  0  0  0  0  0  0
    2.7290    0.1230    4.6830 H   0  0  0  0  0  0  0  0  0  0  0  0
    2.2240    1.8060    4.3750 H   0  0  0  0  0  0  0  0  0  0  0  0
   -1.1340   -0.5470    3.6620 H   0  0  0  0  0  0  0  0  0  0  0  0
   -0.0310   -2.0710    2.3750 H   0  0  0  0  0  0  0  0  0  0  0  0
    1.5100   -1.2590    2.5280 H   0  0  0  0  0  0  0  0  0  0  0  0
    3.2850    0.7390   -2.2440 N   0  0  0  0  0  0  0  0  0  0  0  0
    2.1100    0.4200   -1.5100 C   0  0  0  0  0  0  0  0  0  0  0  0
    1.9010   -0.8030   -1.3180 O   0  0  0  0  0  0  0  0  0  0  0  0
    1.2270    1.5090   -1.0280 C   0  0  0  0  0  0  0  0  0  0  0  0
    0.0400    1.0910   -0.2920 C   0  0  2  0  0  0  0  0  0  0  0  0
    0.1460    0.3460    0.8940 N   0  0  0  0  0  0  0  0  0  0  0  0
   -0.9150    0.4080   -1.2030 C   0  0  0  0  0  0  0  0  0  0  0  0
   -1.1200    0.8930   -2.3440 O   0  0  0  0  0  0  0  0  0  0  0  0
    3.2210    1.4360   -3.0280 H   0  0  0  0  0  0  0  0  0  0  0  0
    4.1620    0.2600   -1.9670 H   0  0  0  0  0  0  0  0  0  0  0  0
    1.8260    2.3290   -0.5410 H   0  0  0  0  0  0  0  0  0  0  0  0
    0.8640    2.0210   -1.9750 H   0  0  0  0  0  0  0  0  0  0  0  0
   -0.5140    2.0470   -0.0020 H   0  0  0  0  0  0  0  0  0  0  0  0
    0.6360   -0.5840    0.8140 H   0  0  0  0  0  0  0  0  0  0  0  0
    2.8560   -4.6050   -3.4250 O   0  0  0  0  0  0  0  0  0  0  0  0
    1.5840   -4.1760   -3.0280 C   0  0  0  0  0  0  0  0  0  0  0  0
    0.5830   -3.9740   -3.9520 C   0  0  0  0  0  0  0  0  0  0  0  0
   -0.6690   -3.5520   -3.5630 C   0  0  0  0  0  0  0  0  0  0  0  0
   -0.9760   -3.3120   -2.2320 C   0  0  0  0  0  0  0  0  0  0  0  0
   -2.3120   -2.8800   -1.8060 C   0  0  0  0  0  0  0  0  0  0  0  0
   -2.5600   -1.4130   -1.7830 C   0  0  2  0  0  0  0  0  0  0  0  0
   -1.6320   -0.7780   -0.8710 N   0  0  0  0  0  0  0  0  0  0  0  0
   -3.9220   -1.2230   -1.1850 C   0  0  0  0  0  0  0  0  0  0  0  0
   -4.1050   -0.6160   -0.1000 O   0  0  0  0  0  0  0  0  0  0  0  0
    0.0330   -3.5170   -1.3160 C   0  0  0  0  0  0  0  0  0  0  0  0
    1.2980   -3.9430   -1.7050 C   0  0  0  0  0  0  0  0  0  0  0  0
   -4.9940   -1.7380   -1.8630 O   0  0  0  0  0  0  0  0  0  0  0  0
    3.3040   -5.4240   -3.0300 H   0  0  0  0  0  0  0  0  0  0  0  0
    0.7990   -4.1550   -4.9940 H   0  0  0  0  0  0  0  0  0  0  0  0
   -1.4550   -3.3920   -4.2740 H   0  0  0  0  0  0  0  0  0  0  0  0
   -3.0440   -3.4130   -2.4850 H   0  0  0  0  0  0  0  0  0  0  0  0
   -2.5060   -3.3610   -0.8080 H   0  0  0  0  0  0  0  0  0  0  0  0
   -2.4830   -0.9030   -2.7530 H   0  0  0  0  0  0  0  0  0  0  0  0
   -1.4390   -1.1650    0.0920 H   0  0  0  0  0  0  0  0  0  0  0  0
   -0.1170   -3.3550   -0.2620 H   0  0  0  0  0  0  0  0  0  0  0  0
    2.1020   -4.1100   -0.9990 H   0  0  0  0  0  0  0  0  0  0  0  0
  1  9  1  0  0  0  0
  1 11  1  0  0  0  0
  2  1  1  0  0  0  0
  2 13  1  0  0  0  0
  3  2  1  0  0  0  0
  3 14  1  1  0  0  0
  4 17  1  0  0  0  0
  4  3  1  0  0  0  0
  4 16  1  0  0  0  0
  5 18  1  1  0  0  0
  5  3  1  0  0  0  0
  6  5  1  0  0  0  0
  7  8  2  0  0  0  0
  7  5  1  0  0  0  0
 10  1  1  0  0  0  0
 12  2  1  0  0  0  0
 15  4  1  0  0  0  0
 19  6  1  0  0  0  0
 20  6  1  0  0  0  0
 21 30  1  0  0  0  0
 21 22  1  0  0  0  0
 22 23  2  0  0  0  0
 22 24  1  0  0  0  0
 24 31  1  0  0  0  0
 24 25  1  0  0  0  0
 25 33  1  1  0  0  0
 25 26  1  0  0  0  0
 26  7  1  0  0  0  0
 27 42  1  0  0  0  0
 27 25  1  0  0  0  0
 28 27  2  0  0  0  0
 29 21  1  0  0  0  0
 32 24  1  0  0  0  0
 34 26  1  0  0  0  0
 35 48  1  0  0  0  0
 35 36  1  0  0  0  0
 36 46  1  0  0  0  0
 37 38  1  0  0  0  0
 37 36  2  0  0  0  0
 38 39  2  0  0  0  0
 39 40  1  0  0  0  0
 39 45  1  0  0  0  0
 40 41  1  0  0  0  0
 40 52  1  0  0  0  0
 41 53  1  6  0  0  0
 41 43  1  0  0  0  0
 41 42  1  0  0  0  0
 42 54  1  0  0  0  0
 43 44  1  0  0  0  0
 45 55  1  0  0  0  0
 46 45  2  0  0  0  0
 46 56  1  0  0  0  0
 47 43  2  0  0  0  0
 49 37  1  0  0  0  0
 50 38  1  0  0  0  0
 51 40  1  0  0  0  0
M  END
$$$$
