IPI.pdb
 OpenBabel07022418423D

 54 54  0  0  1  0  0  0  0  0999 V2000
    1.5340   -3.0540    4.7460 C   0  0  0  0  0  0  0  0  0  0  0  0
    2.6410   -2.1020    4.4750 C   0  0  0  0  0  0  0  0  0  0  0  0
    3.1800   -2.1670    3.0920 C   0  0  2  0  0  0  0  0  0  0  0  0
    4.3220   -1.1790    2.8760 C   0  0  0  0  0  0  0  0  0  0  0  0
    2.1610   -2.0680    2.0040 C   0  0  2  0  0  0  0  0  0  0  0  0
    2.8950   -2.1430    0.7530 N   0  0  0  0  0  0  0  0  0  0  0  0
    1.2110   -0.9770    2.1110 C   0  0  0  0  0  0  0  0  0  0  0  0
    0.4320   -0.9260    3.1370 O   0  0  0  0  0  0  0  0  0  0  0  0
    1.9320   -3.8370    5.4370 H   0  0  0  0  0  0  0  0  0  0  0  0
    0.7270   -2.5440    5.3320 H   0  0  0  0  0  0  0  0  0  0  0  0
    1.0720   -3.4940    3.8590 H   0  0  0  0  0  0  0  0  0  0  0  0
    3.4570   -2.2000    5.2370 H   0  0  0  0  0  0  0  0  0  0  0  0
    2.2310   -1.0520    4.6010 H   0  0  0  0  0  0  0  0  0  0  0  0
    3.6680   -3.1820    2.9770 H   0  0  0  0  0  0  0  0  0  0  0  0
    5.2710   -1.5570    3.3010 H   0  0  0  0  0  0  0  0  0  0  0  0
    4.4250   -0.8930    1.8100 H   0  0  0  0  0  0  0  0  0  0  0  0
    4.0500   -0.2580    3.4330 H   0  0  0  0  0  0  0  0  0  0  0  0
    1.5710   -3.0320    2.0270 H   0  0  0  0  0  0  0  0  0  0  0  0
    2.3710   -2.6510    0.0260 H   0  0  0  0  0  0  0  0  0  0  0  0
    3.8100   -2.6290    0.8810 H   0  0  0  0  0  0  0  0  0  0  0  0
    1.0000    0.0990    1.2070 N   0  0  0  0  0  0  0  0  0  0  0  0
    1.7440    0.3080    0.0030 C   0  0  0  0  0  0  0  0  0  0  0  0
    1.6000    1.7860   -0.3270 C   0  0  0  0  0  0  0  0  0  0  0  0
    0.8610    2.3650    0.8940 C   0  0  0  0  0  0  0  0  0  0  0  0
    0.0510    1.1650    1.2420 C   0  0  1  0  0  0  0  0  0  0  0  0
   -1.1710    0.9830    0.4840 C   0  0  0  0  0  0  0  0  0  0  0  0
   -2.0010    1.9390    0.5120 O   0  0  0  0  0  0  0  0  0  0  0  0
    1.4500   -0.3330   -0.8400 H   0  0  0  0  0  0  0  0  0  0  0  0
    2.8350    0.0890    0.2250 H   0  0  0  0  0  0  0  0  0  0  0  0
    1.0230    1.9350   -1.2460 H   0  0  0  0  0  0  0  0  0  0  0  0
    2.5990    2.2600   -0.3550 H   0  0  0  0  0  0  0  0  0  0  0  0
    0.2620    3.2140    0.4930 H   0  0  0  0  0  0  0  0  0  0  0  0
    1.5800    2.6690    1.6540 H   0  0  0  0  0  0  0  0  0  0  0  0
   -0.2470    1.2850    2.3270 H   0  0  0  0  0  0  0  0  0  0  0  0
   -4.7420    0.8840   -2.8570 C   0  0  0  0  0  0  0  0  0  0  0  0
   -3.9110   -0.3510   -3.1440 C   0  0  0  0  0  0  0  0  0  0  0  0
   -2.5710   -0.3360   -2.4630 C   0  0  2  0  0  0  0  0  0  0  0  0
   -1.8670   -1.6190   -2.8440 C   0  0  0  0  0  0  0  0  0  0  0  0
   -2.7600   -0.2030   -0.9810 C   0  0  2  0  0  0  0  0  0  0  0  0
   -1.4970   -0.1660   -0.2730 N   0  0  0  0  0  0  0  0  0  0  0  0
   -3.5880   -1.2810   -0.3770 C   0  0  0  0  0  0  0  0  0  0  0  0
   -3.1100   -1.9870    0.5800 O   0  0  0  0  0  0  0  0  0  0  0  0
   -4.8700   -1.6150   -0.7530 O   0  0  0  0  0  0  0  0  0  0  0  0
   -5.0410    0.8930   -1.7950 H   0  0  0  0  0  0  0  0  0  0  0  0
   -5.6600    0.8120   -3.4720 H   0  0  0  0  0  0  0  0  0  0  0  0
   -4.2080    1.8130   -3.1530 H   0  0  0  0  0  0  0  0  0  0  0  0
   -4.5220   -1.2350   -2.9720 H   0  0  0  0  0  0  0  0  0  0  0  0
   -3.6840   -0.3690   -4.2540 H   0  0  0  0  0  0  0  0  0  0  0  0
   -2.0220    0.5410   -2.8210 H   0  0  0  0  0  0  0  0  0  0  0  0
   -0.8270   -1.6600   -2.5120 H   0  0  0  0  0  0  0  0  0  0  0  0
   -2.4940   -2.4520   -2.4680 H   0  0  0  0  0  0  0  0  0  0  0  0
   -1.8970   -1.6820   -3.9510 H   0  0  0  0  0  0  0  0  0  0  0  0
   -3.2860    0.7460   -0.7900 H   0  0  0  0  0  0  0  0  0  0  0  0
   -0.8010   -0.9390   -0.2810 H   0  0  0  0  0  0  0  0  0  0  0  0
  1 10  1  0  0  0  0
  1  9  1  0  0  0  0
  2 13  1  0  0  0  0
  2  1  1  0  0  0  0
  2 12  1  0  0  0  0
  3 14  1  6  0  0  0
  3  2  1  0  0  0  0
  4  3  1  0  0  0  0
  4 15  1  0  0  0  0
  4 17  1  0  0  0  0
  5 18  1  1  0  0  0
  5  7  1  0  0  0  0
  5  3  1  0  0  0  0
  6 20  1  0  0  0  0
  6  5  1  0  0  0  0
  7  8  2  0  0  0  0
 11  1  1  0  0  0  0
 16  4  1  0  0  0  0
 19  6  1  0  0  0  0
 21 25  1  0  0  0  0
 21  7  1  0  0  0  0
 22 29  1  0  0  0  0
 22 21  1  0  0  0  0
 23 22  1  0  0  0  0
 23 24  1  0  0  0  0
 24 25  1  0  0  0  0
 24 33  1  0  0  0  0
 25 34  1  1  0  0  0
 26 27  2  0  0  0  0
 26 25  1  0  0  0  0
 28 22  1  0  0  0  0
 30 23  1  0  0  0  0
 31 23  1  0  0  0  0
 32 24  1  0  0  0  0
 35 44  1  0  0  0  0
 36 47  1  0  0  0  0
 36 35  1  0  0  0  0
 36 37  1  0  0  0  0
 37 49  1  6  0  0  0
 37 39  1  0  0  0  0
 38 50  1  0  0  0  0
 38 51  1  0  0  0  0
 38 37  1  0  0  0  0
 39 53  1  1  0  0  0
 39 41  1  0  0  0  0
 39 40  1  0  0  0  0
 40 26  1  0  0  0  0
 41 42  1  0  0  0  0
 43 41  2  0  0  0  0
 45 35  1  0  0  0  0
 46 35  1  0  0  0  0
 48 36  1  0  0  0  0
 52 38  1  0  0  0  0
 54 40  1  0  0  0  0
M  END
$$$$
