IPL.pdb
 OpenBabel07022418423D

 54 54  0  0  1  0  0  0  0  0999 V2000
   -1.4570   -1.0120    4.7220 C   0  0  0  0  0  0  0  0  0  0  0  0
   -0.4600    0.0060    5.1550 C   0  0  0  0  0  0  0  0  0  0  0  0
    0.4370    0.5230    4.1020 C   0  0  2  0  0  0  0  0  0  0  0  0
   -0.3120    1.1820    2.9970 C   0  0  0  0  0  0  0  0  0  0  0  0
    1.4470   -0.4870    3.5950 C   0  0  2  0  0  0  0  0  0  0  0  0
    2.2880   -0.8760    4.7910 N   0  0  0  0  0  0  0  0  0  0  0  0
    2.3710    0.0210    2.5950 C   0  0  0  0  0  0  0  0  0  0  0  0
    3.4460    0.5480    3.1550 O   0  0  0  0  0  0  0  0  0  0  0  0
   -2.5020   -0.6390    4.6750 H   0  0  0  0  0  0  0  0  0  0  0  0
   -1.2440   -1.4840    3.7500 H   0  0  0  0  0  0  0  0  0  0  0  0
   -1.4710   -1.8340    5.4910 H   0  0  0  0  0  0  0  0  0  0  0  0
    0.1790   -0.3790    6.0000 H   0  0  0  0  0  0  0  0  0  0  0  0
   -1.0150    0.8630    5.5930 H   0  0  0  0  0  0  0  0  0  0  0  0
    1.0830    1.3170    4.6090 H   0  0  0  0  0  0  0  0  0  0  0  0
    0.2650    1.2090    2.0630 H   0  0  0  0  0  0  0  0  0  0  0  0
   -0.6500    2.2040    3.3060 H   0  0  0  0  0  0  0  0  0  0  0  0
   -1.2230    0.5480    2.7960 H   0  0  0  0  0  0  0  0  0  0  0  0
    0.9160   -1.4160    3.3980 H   0  0  0  0  0  0  0  0  0  0  0  0
    3.0110   -0.1540    4.9380 H   0  0  0  0  0  0  0  0  0  0  0  0
    2.7460   -1.7710    4.5240 H   0  0  0  0  0  0  0  0  0  0  0  0
    2.3310    0.0500    1.1970 N   0  0  0  0  0  0  0  0  0  0  0  0
    3.4830    0.7290    0.4680 C   0  0  0  0  0  0  0  0  0  0  0  0
    3.8320   -0.2980   -0.5880 C   0  0  0  0  0  0  0  0  0  0  0  0
    2.6410   -1.2280   -0.6530 C   0  0  0  0  0  0  0  0  0  0  0  0
    1.5850   -0.3490    0.0740 C   0  0  1  0  0  0  0  0  0  0  0  0
    0.3190   -0.9980    0.1230 C   0  0  0  0  0  0  0  0  0  0  0  0
   -0.2680   -1.3840    1.1260 O   0  0  0  0  0  0  0  0  0  0  0  0
    4.3420    0.8330    1.1220 H   0  0  0  0  0  0  0  0  0  0  0  0
    3.1380    1.6790    0.0650 H   0  0  0  0  0  0  0  0  0  0  0  0
    4.7680   -0.8390   -0.3670 H   0  0  0  0  0  0  0  0  0  0  0  0
    3.9750    0.2120   -1.5690 H   0  0  0  0  0  0  0  0  0  0  0  0
    2.7490   -2.1160   -0.0310 H   0  0  0  0  0  0  0  0  0  0  0  0
    2.2780   -1.4140   -1.6640 H   0  0  0  0  0  0  0  0  0  0  0  0
    1.5080    0.5510   -0.6480 H   0  0  0  0  0  0  0  0  0  0  0  0
   -3.7850    0.4500   -3.3440 C   0  0  0  0  0  0  0  0  0  0  0  0
   -2.5600   -0.4260   -3.0480 C   0  0  0  0  0  0  0  0  0  0  0  0
   -2.5340   -1.4570   -4.1460 C   0  0  0  0  0  0  0  0  0  0  0  0
   -2.7450   -0.9820   -1.6860 C   0  0  0  0  0  0  0  0  0  0  0  0
   -1.6410   -1.8780   -1.1930 C   0  0  2  0  0  0  0  0  0  0  0  0
   -0.3700   -1.2370   -1.1340 N   0  0  0  0  0  0  0  0  0  0  0  0
   -1.6150   -3.1900   -1.8760 C   0  0  0  0  0  0  0  0  0  0  0  0
   -2.6660   -3.8620   -1.9950 O   0  0  0  0  0  0  0  0  0  0  0  0
   -0.4650   -3.7450   -2.4110 O   0  0  0  0  0  0  0  0  0  0  0  0
   -3.5450    1.5220   -3.1760 H   0  0  0  0  0  0  0  0  0  0  0  0
   -4.6380    0.1830   -2.6880 H   0  0  0  0  0  0  0  0  0  0  0  0
   -4.1180    0.3560   -4.3830 H   0  0  0  0  0  0  0  0  0  0  0  0
   -1.6600    0.2060   -3.1370 H   0  0  0  0  0  0  0  0  0  0  0  0
   -2.6560   -0.9730   -5.1540 H   0  0  0  0  0  0  0  0  0  0  0  0
   -3.3130   -2.2100   -4.0850 H   0  0  0  0  0  0  0  0  0  0  0  0
   -1.5490   -1.9620   -4.1920 H   0  0  0  0  0  0  0  0  0  0  0  0
   -2.9540   -0.1510   -0.9840 H   0  0  0  0  0  0  0  0  0  0  0  0
   -3.6860   -1.6010   -1.6880 H   0  0  0  0  0  0  0  0  0  0  0  0
   -1.9300   -2.1190   -0.1230 H   0  0  0  0  0  0  0  0  0  0  0  0
    0.1050   -0.9200   -2.0030 H   0  0  0  0  0  0  0  0  0  0  0  0
  1  2  1  0  0  0  0
  1 11  1  0  0  0  0
  2 13  1  0  0  0  0
  2 12  1  0  0  0  0
  3 14  1  1  0  0  0
  3  2  1  0  0  0  0
  4 16  1  0  0  0  0
  4  3  1  0  0  0  0
  5 18  1  6  0  0  0
  5  3  1  0  0  0  0
  5  6  1  0  0  0  0
  6 19  1  0  0  0  0
  7  8  2  0  0  0  0
  7  5  1  0  0  0  0
  9  1  1  0  0  0  0
 10  1  1  0  0  0  0
 15  4  1  0  0  0  0
 17  4  1  0  0  0  0
 20  6  1  0  0  0  0
 21  7  1  0  0  0  0
 22 28  1  0  0  0  0
 22 21  1  0  0  0  0
 23 30  1  0  0  0  0
 23 22  1  0  0  0  0
 24 23  1  0  0  0  0
 24 32  1  0  0  0  0
 24 25  1  0  0  0  0
 25 34  1  6  0  0  0
 25 26  1  0  0  0  0
 25 21  1  0  0  0  0
 26 27  2  0  0  0  0
 29 22  1  0  0  0  0
 31 23  1  0  0  0  0
 33 24  1  0  0  0  0
 35 44  1  0  0  0  0
 35 36  1  0  0  0  0
 35 45  1  0  0  0  0
 36 38  1  0  0  0  0
 37 49  1  0  0  0  0
 37 36  1  0  0  0  0
 38 39  1  0  0  0  0
 38 51  1  0  0  0  0
 39 40  1  0  0  0  0
 39 53  1  1  0  0  0
 40 26  1  0  0  0  0
 41 39  1  0  0  0  0
 42 41  1  0  0  0  0
 43 41  2  0  0  0  0
 46 35  1  0  0  0  0
 47 36  1  0  0  0  0
 48 37  1  0  0  0  0
 50 37  1  0  0  0  0
 52 38  1  0  0  0  0
 54 40  1  0  0  0  0
M  END
$$$$
