IPM.pdb
 OpenBabel07022418423D

 52 52  0  0  1  0  0  0  0  0999 V2000
    3.2000   -2.2890    2.3650 C   0  0  0  0  0  0  0  0  0  0  0  0
    2.1140   -2.7410    1.4180 C   0  0  0  0  0  0  0  0  0  0  0  0
    0.9960   -3.4700    2.0920 C   0  0  2  0  0  0  0  0  0  0  0  0
   -0.0370   -3.9400    1.0640 C   0  0  0  0  0  0  0  0  0  0  0  0
    0.2880   -2.6870    3.1830 C   0  0  2  0  0  0  0  0  0  0  0  0
   -0.7160   -3.6790    3.6790 N   0  0  0  0  0  0  0  0  0  0  0  0
   -0.4180   -1.4840    2.7380 C   0  0  0  0  0  0  0  0  0  0  0  0
   -1.6660   -1.6630    2.4120 O   0  0  0  0  0  0  0  0  0  0  0  0
    2.8990   -2.2580    3.4210 H   0  0  0  0  0  0  0  0  0  0  0  0
    4.0280   -3.0490    2.3210 H   0  0  0  0  0  0  0  0  0  0  0  0
    3.6890   -1.3410    2.0430 H   0  0  0  0  0  0  0  0  0  0  0  0
    2.5900   -3.3960    0.6560 H   0  0  0  0  0  0  0  0  0  0  0  0
    1.7440   -1.7860    0.9350 H   0  0  0  0  0  0  0  0  0  0  0  0
    1.3930   -4.3790    2.5610 H   0  0  0  0  0  0  0  0  0  0  0  0
   -0.0560   -3.3060    0.1690 H   0  0  0  0  0  0  0  0  0  0  0  0
    0.1680   -4.9920    0.8470 H   0  0  0  0  0  0  0  0  0  0  0  0
   -1.0190   -3.8990    1.5750 H   0  0  0  0  0  0  0  0  0  0  0  0
    0.9680   -2.5040    3.9910 H   0  0  0  0  0  0  0  0  0  0  0  0
   -0.1410   -4.3610    4.2420 H   0  0  0  0  0  0  0  0  0  0  0  0
   -1.2630   -3.1390    4.3930 H   0  0  0  0  0  0  0  0  0  0  0  0
    0.0140   -0.1660    2.6060 N   0  0  0  0  0  0  0  0  0  0  0  0
    1.3280    0.3410    2.9230 C   0  0  0  0  0  0  0  0  0  0  0  0
    1.1020    1.7720    3.3580 C   0  0  0  0  0  0  0  0  0  0  0  0
    0.0130    2.1990    2.4200 C   0  0  0  0  0  0  0  0  0  0  0  0
   -0.7350    0.9460    2.1510 C   0  0  1  0  0  0  0  0  0  0  0  0
   -1.2310    0.8480    0.7650 C   0  0  0  0  0  0  0  0  0  0  0  0
   -1.9830    1.7980    0.3790 O   0  0  0  0  0  0  0  0  0  0  0  0
    1.8130   -0.1640    3.7630 H   0  0  0  0  0  0  0  0  0  0  0  0
    2.0150    0.3690    2.0720 H   0  0  0  0  0  0  0  0  0  0  0  0
    0.6820    1.7410    4.3830 H   0  0  0  0  0  0  0  0  0  0  0  0
    2.0160    2.3890    3.2760 H   0  0  0  0  0  0  0  0  0  0  0  0
    0.5170    2.6200    1.5200 H   0  0  0  0  0  0  0  0  0  0  0  0
   -0.6290    2.9810    2.8910 H   0  0  0  0  0  0  0  0  0  0  0  0
   -1.6680    0.9860    2.7920 H   0  0  0  0  0  0  0  0  0  0  0  0
   -1.2680    3.0820   -3.9350 C   0  0  0  0  0  0  0  0  0  0  0  0
   -2.1670    1.5140   -4.0820 S   0  0  0  0  0  0  0  0  0  0  0  0
   -1.0350    0.0910   -3.9210 C   0  0  0  0  0  0  0  0  0  0  0  0
   -0.4550    0.0180   -2.5330 C   0  0  0  0  0  0  0  0  0  0  0  0
   -1.5440   -0.1100   -1.5090 C   0  0  2  0  0  0  0  0  0  0  0  0
   -0.9580   -0.1720   -0.1530 N   0  0  0  0  0  0  0  0  0  0  0  0
   -2.4430   -1.2430   -1.7320 C   0  0  0  0  0  0  0  0  0  0  0  0
   -2.5370   -2.1140   -0.7950 O   0  0  0  0  0  0  0  0  0  0  0  0
   -3.2130   -1.4800   -2.8550 O   0  0  0  0  0  0  0  0  0  0  0  0
   -1.9800    3.8880   -4.1930 H   0  0  0  0  0  0  0  0  0  0  0  0
   -0.9620    3.1810   -2.8640 H   0  0  0  0  0  0  0  0  0  0  0  0
   -0.3540    3.1150   -4.5450 H   0  0  0  0  0  0  0  0  0  0  0  0
   -1.5780   -0.8030   -4.2460 H   0  0  0  0  0  0  0  0  0  0  0  0
   -0.2010    0.3190   -4.6690 H   0  0  0  0  0  0  0  0  0  0  0  0
    0.1520   -0.9290   -2.4810 H   0  0  0  0  0  0  0  0  0  0  0  0
    0.1910    0.8850   -2.3080 H   0  0  0  0  0  0  0  0  0  0  0  0
   -2.1580    0.8140   -1.5850 H   0  0  0  0  0  0  0  0  0  0  0  0
   -0.3520   -0.9420    0.1310 H   0  0  0  0  0  0  0  0  0  0  0  0
  1  9  1  0  0  0  0
  2  3  1  0  0  0  0
  2  1  1  0  0  0  0
  3 14  1  1  0  0  0
  3  5  1  0  0  0  0
  4 17  1  0  0  0  0
  4  3  1  0  0  0  0
  5  6  1  0  0  0  0
  5 18  1  1  0  0  0
  6 19  1  0  0  0  0
  6 20  1  0  0  0  0
  7  5  1  0  0  0  0
  8  7  2  0  0  0  0
 10  1  1  0  0  0  0
 11  1  1  0  0  0  0
 12  2  1  0  0  0  0
 13  2  1  0  0  0  0
 15  4  1  0  0  0  0
 16  4  1  0  0  0  0
 21  7  1  0  0  0  0
 21 22  1  0  0  0  0
 22 23  1  0  0  0  0
 22 28  1  0  0  0  0
 23 30  1  0  0  0  0
 24 33  1  0  0  0  0
 24 23  1  0  0  0  0
 25 24  1  0  0  0  0
 25 21  1  0  0  0  0
 25 34  1  1  0  0  0
 26 25  1  0  0  0  0
 27 26  2  0  0  0  0
 29 22  1  0  0  0  0
 31 23  1  0  0  0  0
 32 24  1  0  0  0  0
 35 45  1  0  0  0  0
 36 35  1  0  0  0  0
 36 37  1  0  0  0  0
 37 38  1  0  0  0  0
 38 49  1  0  0  0  0
 38 50  1  0  0  0  0
 38 39  1  0  0  0  0
 39 51  1  6  0  0  0
 39 40  1  0  0  0  0
 40 52  1  0  0  0  0
 40 26  1  0  0  0  0
 41 39  1  0  0  0  0
 41 42  1  0  0  0  0
 43 41  2  0  0  0  0
 44 35  1  0  0  0  0
 46 35  1  0  0  0  0
 47 37  1  0  0  0  0
 48 37  1  0  0  0  0
M  END
$$$$
