IPN.pdb
 OpenBabel07022418423D

 49 49  0  0  1  0  0  0  0  0999 V2000
    2.2450   -2.9190   -1.3310 C   0  0  0  0  0  0  0  0  0  0  0  0
    3.0430   -1.6460   -1.1300 C   0  0  0  0  0  0  0  0  0  0  0  0
    2.1760   -0.4290   -1.1020 C   0  0  2  0  0  0  0  0  0  0  0  0
    3.0610    0.7850   -0.8740 C   0  0  0  0  0  0  0  0  0  0  0  0
    1.0580   -0.4710   -0.1310 C   0  0  2  0  0  0  0  0  0  0  0  0
    0.3210    0.7980   -0.2750 N   0  0  0  0  0  0  0  0  0  0  0  0
    1.5100   -0.6530    1.2580 C   0  0  0  0  0  0  0  0  0  0  0  0
    2.5540   -1.3840    1.4220 O   0  0  0  0  0  0  0  0  0  0  0  0
    1.4930   -2.9990   -0.5330 H   0  0  0  0  0  0  0  0  0  0  0  0
    1.7270   -2.9320   -2.2970 H   0  0  0  0  0  0  0  0  0  0  0  0
    2.8770   -3.8080   -1.2750 H   0  0  0  0  0  0  0  0  0  0  0  0
    3.6390   -1.5540   -2.1070 H   0  0  0  0  0  0  0  0  0  0  0  0
    3.7870   -1.7200   -0.3460 H   0  0  0  0  0  0  0  0  0  0  0  0
    1.7990   -0.2860   -2.1610 H   0  0  0  0  0  0  0  0  0  0  0  0
    2.7900    1.2780    0.1010 H   0  0  0  0  0  0  0  0  0  0  0  0
    3.0050    1.5370   -1.6580 H   0  0  0  0  0  0  0  0  0  0  0  0
    4.1330    0.4850   -0.7700 H   0  0  0  0  0  0  0  0  0  0  0  0
    0.3730   -1.3040   -0.3810 H   0  0  0  0  0  0  0  0  0  0  0  0
    0.1540    1.0230   -1.2640 H   0  0  0  0  0  0  0  0  0  0  0  0
    0.7780    1.5670    0.2600 H   0  0  0  0  0  0  0  0  0  0  0  0
    0.9640   -0.1360    2.4200 N   0  0  0  0  0  0  0  0  0  0  0  0
    1.5980   -0.2290    3.7620 C   0  0  0  0  0  0  0  0  0  0  0  0
    1.5240    1.2630    4.1340 C   0  0  0  0  0  0  0  0  0  0  0  0
    0.3270    1.8380    3.3310 C   0  0  0  0  0  0  0  0  0  0  0  0
   -0.2230    0.5560    2.7510 C   0  0  1  0  0  0  0  0  0  0  0  0
   -1.3800    0.5850    1.9290 C   0  0  0  0  0  0  0  0  0  0  0  0
   -2.0210    1.6700    1.7990 O   0  0  0  0  0  0  0  0  0  0  0  0
    2.6110   -0.6080    3.7160 H   0  0  0  0  0  0  0  0  0  0  0  0
    0.8790   -0.7790    4.3810 H   0  0  0  0  0  0  0  0  0  0  0  0
    2.4420    1.7800    3.8520 H   0  0  0  0  0  0  0  0  0  0  0  0
    1.3450    1.3190    5.2080 H   0  0  0  0  0  0  0  0  0  0  0  0
   -0.4020    2.2330    4.0620 H   0  0  0  0  0  0  0  0  0  0  0  0
    0.6810    2.5570    2.5950 H   0  0  0  0  0  0  0  0  0  0  0  0
   -0.5840   -0.0100    3.7250 H   0  0  0  0  0  0  0  0  0  0  0  0
   -1.8770   -2.8020   -2.4010 N   0  0  0  0  0  0  0  0  0  0  0  0
   -2.2130   -2.3300   -1.1070 C   0  0  0  0  0  0  0  0  0  0  0  0
   -2.0800   -3.0820   -0.1350 O   0  0  0  0  0  0  0  0  0  0  0  0
   -2.7100   -0.9600   -0.9580 C   0  0  0  0  0  0  0  0  0  0  0  0
   -3.0150   -0.5380    0.4400 C   0  0  2  0  0  0  0  0  0  0  0  0
   -1.8320   -0.6050    1.2540 N   0  0  0  0  0  0  0  0  0  0  0  0
   -4.1380   -1.3220    1.0310 C   0  0  0  0  0  0  0  0  0  0  0  0
   -5.2530   -1.3760    0.4540 O   0  0  0  0  0  0  0  0  0  0  0  0
   -4.0160   -2.0220    2.2290 O   0  0  0  0  0  0  0  0  0  0  0  0
   -2.5770   -2.8500   -3.1850 H   0  0  0  0  0  0  0  0  0  0  0  0
   -0.9010   -3.1080   -2.5650 H   0  0  0  0  0  0  0  0  0  0  0  0
   -3.6260   -0.8900   -1.6180 H   0  0  0  0  0  0  0  0  0  0  0  0
   -1.9920   -0.2540   -1.4480 H   0  0  0  0  0  0  0  0  0  0  0  0
   -3.4020    0.5150    0.4010 H   0  0  0  0  0  0  0  0  0  0  0  0
   -1.3110   -1.4890    1.3570 H   0  0  0  0  0  0  0  0  0  0  0  0
  1 11  1  0  0  0  0
  1  2  1  0  0  0  0
  1  9  1  0  0  0  0
  2  3  1  0  0  0  0
  2 13  1  0  0  0  0
  3 14  1  6  0  0  0
  3  4  1  0  0  0  0
  3  5  1  0  0  0  0
  4 17  1  0  0  0  0
  4 15  1  0  0  0  0
  5 18  1  6  0  0  0
  5  7  1  0  0  0  0
  6  5  1  0  0  0  0
  6 20  1  0  0  0  0
  7  8  2  0  0  0  0
  7 21  1  0  0  0  0
 10  1  1  0  0  0  0
 12  2  1  0  0  0  0
 16  4  1  0  0  0  0
 19  6  1  0  0  0  0
 21 25  1  0  0  0  0
 21 22  1  0  0  0  0
 22 23  1  0  0  0  0
 22 29  1  0  0  0  0
 23 31  1  0  0  0  0
 24 32  1  0  0  0  0
 24 23  1  0  0  0  0
 25 24  1  0  0  0  0
 25 34  1  1  0  0  0
 26 25  1  0  0  0  0
 27 26  2  0  0  0  0
 28 22  1  0  0  0  0
 30 23  1  0  0  0  0
 33 24  1  0  0  0  0
 35 36  1  0  0  0  0
 36 38  1  0  0  0  0
 36 37  2  0  0  0  0
 38 39  1  0  0  0  0
 39 48  1  6  0  0  0
 39 41  1  0  0  0  0
 39 40  1  0  0  0  0
 40 49  1  0  0  0  0
 40 26  1  0  0  0  0
 41 43  1  0  0  0  0
 42 41  2  0  0  0  0
 44 35  1  0  0  0  0
 45 35  1  0  0  0  0
 46 38  1  0  0  0  0
 47 38  1  0  0  0  0
M  END
$$$$
