IPP.pdb
 OpenBabel07022418423D

 49 50  0  0  1  0  0  0  0  0999 V2000
    1.7350   -4.7920    4.1480 C   0  0  0  0  0  0  0  0  0  0  0  0
    2.1370   -3.4030    4.5210 C   0  0  0  0  0  0  0  0  0  0  0  0
    1.3100   -2.3280    3.8190 C   0  0  2  0  0  0  0  0  0  0  0  0
   -0.1200   -2.5350    4.2110 C   0  0  0  0  0  0  0  0  0  0  0  0
    1.5620   -2.4520    2.3290 C   0  0  2  0  0  0  0  0  0  0  0  0
    2.9580   -2.2550    2.1280 N   0  0  0  0  0  0  0  0  0  0  0  0
    0.6490   -1.6210    1.5290 C   0  0  0  0  0  0  0  0  0  0  0  0
   -0.5530   -1.6960    1.8890 O   0  0  0  0  0  0  0  0  0  0  0  0
    2.5280   -5.3240    3.5530 H   0  0  0  0  0  0  0  0  0  0  0  0
    1.5510   -5.4460    5.0450 H   0  0  0  0  0  0  0  0  0  0  0  0
    0.8180   -4.8550    3.5280 H   0  0  0  0  0  0  0  0  0  0  0  0
    2.1550   -3.2320    5.6190 H   0  0  0  0  0  0  0  0  0  0  0  0
    3.1930   -3.2570    4.1580 H   0  0  0  0  0  0  0  0  0  0  0  0
    1.6560   -1.3670    4.2120 H   0  0  0  0  0  0  0  0  0  0  0  0
   -0.5310   -3.3280    3.5530 H   0  0  0  0  0  0  0  0  0  0  0  0
   -0.7250   -1.6060    4.2110 H   0  0  0  0  0  0  0  0  0  0  0  0
   -0.1310   -2.9950    5.2400 H   0  0  0  0  0  0  0  0  0  0  0  0
    1.3760   -3.5440    2.0700 H   0  0  0  0  0  0  0  0  0  0  0  0
    3.3120   -1.5780    2.8340 H   0  0  0  0  0  0  0  0  0  0  0  0
    3.5270   -3.1220    2.0990 H   0  0  0  0  0  0  0  0  0  0  0  0
    0.9830   -0.8030    0.4680 N   0  0  0  0  0  0  0  0  0  0  0  0
    2.3490   -0.7170   -0.1050 C   0  0  0  0  0  0  0  0  0  0  0  0
    2.1020   -0.6270   -1.6290 C   0  0  0  0  0  0  0  0  0  0  0  0
    0.5610   -0.4700   -1.7220 C   0  0  0  0  0  0  0  0  0  0  0  0
    0.3220    0.1530   -0.3910 C   0  0  1  0  0  0  0  0  0  0  0  0
   -0.9550    0.6760   -0.0470 C   0  0  0  0  0  0  0  0  0  0  0  0
   -1.3350    0.4710    1.1760 O   0  0  0  0  0  0  0  0  0  0  0  0
    2.8630    0.1960    0.1930 H   0  0  0  0  0  0  0  0  0  0  0  0
    2.9320   -1.6210    0.0060 H   0  0  0  0  0  0  0  0  0  0  0  0
    2.4290   -1.5170   -2.1610 H   0  0  0  0  0  0  0  0  0  0  0  0
    2.5510    0.2920   -2.0450 H   0  0  0  0  0  0  0  0  0  0  0  0
    0.3040    0.1100   -2.6010 H   0  0  0  0  0  0  0  0  0  0  0  0
    0.1830   -1.5040   -1.8240 H   0  0  0  0  0  0  0  0  0  0  0  0
    1.0450    1.0470   -0.3720 H   0  0  0  0  0  0  0  0  0  0  0  0
   -1.9100    1.3930   -0.7970 N   0  0  0  0  0  0  0  0  0  0  0  0
   -3.1840    1.8690   -0.2840 C   0  0  0  0  0  0  0  0  0  0  0  0
   -4.0800    1.7780   -1.4870 C   0  0  0  0  0  0  0  0  0  0  0  0
   -3.1610    2.4770   -2.5030 C   0  0  0  0  0  0  0  0  0  0  0  0
   -1.8330    1.7910   -2.1660 C   0  0  1  0  0  0  0  0  0  0  0  0
   -0.7820    2.7670   -2.4770 C   0  0  0  0  0  0  0  0  0  0  0  0
   -0.0620    3.2290   -1.5700 O   0  0  0  0  0  0  0  0  0  0  0  0
   -0.5770    3.1850   -3.7750 O   0  0  0  0  0  0  0  0  0  0  0  0
   -3.5400    1.2880    0.5780 H   0  0  0  0  0  0  0  0  0  0  0  0
   -3.0830    2.9410   -0.0240 H   0  0  0  0  0  0  0  0  0  0  0  0
   -5.0340    2.3030   -1.3770 H   0  0  0  0  0  0  0  0  0  0  0  0
   -4.1890    0.7200   -1.8180 H   0  0  0  0  0  0  0  0  0  0  0  0
   -3.1210    3.5570   -2.3270 H   0  0  0  0  0  0  0  0  0  0  0  0
   -3.5280    2.2350   -3.5060 H   0  0  0  0  0  0  0  0  0  0  0  0
   -1.8020    0.9460   -2.8890 H   0  0  0  0  0  0  0  0  0  0  0  0
  1  2  1  0  0  0  0
  1 10  1  0  0  0  0
  2 12  1  0  0  0  0
  3  4  1  0  0  0  0
  3 14  1  1  0  0  0
  3  2  1  0  0  0  0
  4 17  1  0  0  0  0
  5 18  1  6  0  0  0
  5  3  1  0  0  0  0
  6  5  1  0  0  0  0
  6 19  1  0  0  0  0
  7  8  2  0  0  0  0
  7  5  1  0  0  0  0
  9  1  1  0  0  0  0
 11  1  1  0  0  0  0
 13  2  1  0  0  0  0
 15  4  1  0  0  0  0
 16  4  1  0  0  0  0
 20  6  1  0  0  0  0
 21  7  1  0  0  0  0
 22 29  1  0  0  0  0
 22 28  1  0  0  0  0
 22 21  1  0  0  0  0
 23 22  1  0  0  0  0
 24 23  1  0  0  0  0
 24 25  1  0  0  0  0
 25 34  1  1  0  0  0
 25 26  1  0  0  0  0
 25 21  1  0  0  0  0
 26 27  2  0  0  0  0
 30 23  1  0  0  0  0
 31 23  1  0  0  0  0
 32 24  1  0  0  0  0
 33 24  1  0  0  0  0
 35 36  1  0  0  0  0
 35 26  1  0  0  0  0
 36 44  1  0  0  0  0
 36 43  1  0  0  0  0
 37 45  1  0  0  0  0
 37 36  1  0  0  0  0
 38 47  1  0  0  0  0
 38 39  1  0  0  0  0
 38 37  1  0  0  0  0
 39 49  1  6  0  0  0
 39 35  1  0  0  0  0
 40 39  1  0  0  0  0
 40 41  1  0  0  0  0
 42 40  2  0  0  0  0
 46 37  1  0  0  0  0
 48 38  1  0  0  0  0
M  END
$$$$
