IPS.pdb
 OpenBabel07022418423D

 46 46  0  0  1  0  0  0  0  0999 V2000
    0.8530   -5.9970    0.3140 C   0  0  0  0  0  0  0  0  0  0  0  0
    0.2680   -4.6440    0.0780 C   0  0  0  0  0  0  0  0  0  0  0  0
    1.0360   -3.5180    0.7650 C   0  0  2  0  0  0  0  0  0  0  0  0
    1.0330   -3.7650    2.2580 C   0  0  0  0  0  0  0  0  0  0  0  0
    0.2050   -2.2440    0.5190 C   0  0  2  0  0  0  0  0  0  0  0  0
    0.0670   -2.0100   -0.8850 N   0  0  0  0  0  0  0  0  0  0  0  0
    0.6680   -1.1030    1.3160 C   0  0  0  0  0  0  0  0  0  0  0  0
    0.6750   -1.2510    2.6050 O   0  0  0  0  0  0  0  0  0  0  0  0
    1.9400   -6.0220    0.4650 H   0  0  0  0  0  0  0  0  0  0  0  0
    0.6640   -6.6720   -0.5660 H   0  0  0  0  0  0  0  0  0  0  0  0
    0.3760   -6.5350    1.1740 H   0  0  0  0  0  0  0  0  0  0  0  0
   -0.7620   -4.6570    0.5360 H   0  0  0  0  0  0  0  0  0  0  0  0
    0.2450   -4.4410   -1.0050 H   0  0  0  0  0  0  0  0  0  0  0  0
    2.0580   -3.4050    0.3880 H   0  0  0  0  0  0  0  0  0  0  0  0
    1.2520   -4.8410    2.4730 H   0  0  0  0  0  0  0  0  0  0  0  0
    0.0710   -3.4550    2.7090 H   0  0  0  0  0  0  0  0  0  0  0  0
    1.8670   -3.2090    2.7240 H   0  0  0  0  0  0  0  0  0  0  0  0
   -0.8180   -2.5420    0.9090 H   0  0  0  0  0  0  0  0  0  0  0  0
   -0.7800   -2.5580   -1.2160 H   0  0  0  0  0  0  0  0  0  0  0  0
    0.8730   -2.5340   -1.3470 H   0  0  0  0  0  0  0  0  0  0  0  0
    1.1040    0.1440    0.8060 N   0  0  0  0  0  0  0  0  0  0  0  0
    1.2260    0.5400   -0.5470 C   0  0  0  0  0  0  0  0  0  0  0  0
    2.4520    1.4630   -0.5360 C   0  0  0  0  0  0  0  0  0  0  0  0
    2.6140    1.9070    0.8820 C   0  0  0  0  0  0  0  0  0  0  0  0
    1.4760    1.2780    1.6160 C   0  0  1  0  0  0  0  0  0  0  0  0
    0.3620    2.1960    1.8780 C   0  0  0  0  0  0  0  0  0  0  0  0
    0.5580    3.2400    2.5330 O   0  0  0  0  0  0  0  0  0  0  0  0
    0.3500    1.0800   -0.9570 H   0  0  0  0  0  0  0  0  0  0  0  0
    1.5450   -0.3000   -1.2130 H   0  0  0  0  0  0  0  0  0  0  0  0
    3.3840    0.9120   -0.8390 H   0  0  0  0  0  0  0  0  0  0  0  0
    2.3250    2.3030   -1.2580 H   0  0  0  0  0  0  0  0  0  0  0  0
    3.6110    1.6560    1.3060 H   0  0  0  0  0  0  0  0  0  0  0  0
    2.4710    3.0310    0.8800 H   0  0  0  0  0  0  0  0  0  0  0  0
    1.9250    0.9000    2.5850 H   0  0  0  0  0  0  0  0  0  0  0  0
   -1.6770    3.7920   -0.4740 O   0  0  0  0  0  0  0  0  0  0  0  0
   -2.6560    3.1590    0.3180 C   0  0  0  0  0  0  0  0  0  0  0  0
   -2.0420    2.8010    1.6490 C   0  0  2  0  0  0  0  0  0  0  0  0
   -0.9260    1.9020    1.3960 N   0  0  0  0  0  0  0  0  0  0  0  0
   -3.0850    2.1280    2.4740 C   0  0  0  0  0  0  0  0  0  0  0  0
   -4.1170    2.7830    2.7500 O   0  0  0  0  0  0  0  0  0  0  0  0
   -2.9670    0.8380    2.9440 O   0  0  0  0  0  0  0  0  0  0  0  0
   -2.0690    4.5400   -1.0030 H   0  0  0  0  0  0  0  0  0  0  0  0
   -3.5250    3.8330    0.4250 H   0  0  0  0  0  0  0  0  0  0  0  0
   -2.9380    2.2350   -0.2210 H   0  0  0  0  0  0  0  0  0  0  0  0
   -1.7250    3.7020    2.2210 H   0  0  0  0  0  0  0  0  0  0  0  0
   -1.1860    1.0420    0.8390 H   0  0  0  0  0  0  0  0  0  0  0  0
  1  9  1  0  0  0  0
  1 11  1  0  0  0  0
  2  1  1  0  0  0  0
  2 12  1  0  0  0  0
  2  3  1  0  0  0  0
  3 14  1  6  0  0  0
  3  4  1  0  0  0  0
  4 15  1  0  0  0  0
  4 16  1  0  0  0  0
  4 17  1  0  0  0  0
  5  3  1  0  0  0  0
  5 18  1  1  0  0  0
  5  7  1  0  0  0  0
  6  5  1  0  0  0  0
  7  8  2  0  0  0  0
 10  1  1  0  0  0  0
 13  2  1  0  0  0  0
 19  6  1  0  0  0  0
 20  6  1  0  0  0  0
 21  7  1  0  0  0  0
 21 25  1  0  0  0  0
 22 23  1  0  0  0  0
 22 21  1  0  0  0  0
 23 24  1  0  0  0  0
 24 32  1  0  0  0  0
 24 25  1  0  0  0  0
 25 26  1  0  0  0  0
 25 34  1  1  0  0  0
 26 27  2  0  0  0  0
 28 22  1  0  0  0  0
 29 22  1  0  0  0  0
 30 23  1  0  0  0  0
 31 23  1  0  0  0  0
 33 24  1  0  0  0  0
 35 36  1  0  0  0  0
 36 43  1  0  0  0  0
 36 37  1  0  0  0  0
 37 45  1  1  0  0  0
 37 39  1  0  0  0  0
 38 37  1  0  0  0  0
 38 26  1  0  0  0  0
 39 40  2  0  0  0  0
 39 41  1  0  0  0  0
 42 35  1  0  0  0  0
 44 36  1  0  0  0  0
 46 38  1  0  0  0  0
M  END
$$$$
