IPT.pdb
 OpenBabel07022418423D

 49 49  0  0  1  0  0  0  0  0999 V2000
    0.1280   -1.6770    4.7800 C   0  0  0  0  0  0  0  0  0  0  0  0
    0.9300   -2.3070    3.6510 C   0  0  0  0  0  0  0  0  0  0  0  0
    0.1250   -2.1420    2.3740 C   0  0  2  0  0  0  0  0  0  0  0  0
   -1.2220   -2.8720    2.5940 C   0  0  0  0  0  0  0  0  0  0  0  0
    0.7570   -2.8280    1.1960 C   0  0  2  0  0  0  0  0  0  0  0  0
    0.8450   -4.2950    1.5000 N   0  0  0  0  0  0  0  0  0  0  0  0
    2.0890   -2.3490    0.8280 C   0  0  0  0  0  0  0  0  0  0  0  0
    3.0980   -3.1620    0.8820 O   0  0  0  0  0  0  0  0  0  0  0  0
    0.7600   -1.5870    5.6830 H   0  0  0  0  0  0  0  0  0  0  0  0
   -0.1400   -0.6290    4.4930 H   0  0  0  0  0  0  0  0  0  0  0  0
   -0.7730   -2.2610    5.0300 H   0  0  0  0  0  0  0  0  0  0  0  0
    1.1290   -3.3570    3.8760 H   0  0  0  0  0  0  0  0  0  0  0  0
    1.8440   -1.6810    3.5490 H   0  0  0  0  0  0  0  0  0  0  0  0
   -0.1250   -1.1150    2.1370 H   0  0  0  0  0  0  0  0  0  0  0  0
   -1.0000   -3.8510    3.0560 H   0  0  0  0  0  0  0  0  0  0  0  0
   -1.6770   -3.0250    1.6050 H   0  0  0  0  0  0  0  0  0  0  0  0
   -1.8950   -2.2740    3.2070 H   0  0  0  0  0  0  0  0  0  0  0  0
    0.0590   -2.7920    0.3510 H   0  0  0  0  0  0  0  0  0  0  0  0
    1.6120   -4.4250    2.2120 H   0  0  0  0  0  0  0  0  0  0  0  0
    1.2400   -4.6930    0.5980 H   0  0  0  0  0  0  0  0  0  0  0  0
    2.3660   -1.0380    0.4100 N   0  0  0  0  0  0  0  0  0  0  0  0
    3.7780   -0.6690    0.0790 C   0  0  0  0  0  0  0  0  0  0  0  0
    3.7720    0.8230    0.4600 C   0  0  0  0  0  0  0  0  0  0  0  0
    2.4950    1.2060   -0.2440 C   0  0  0  0  0  0  0  0  0  0  0  0
    1.5420    0.1160    0.2210 C   0  0  1  0  0  0  0  0  0  0  0  0
    0.4560   -0.0660   -0.7810 C   0  0  0  0  0  0  0  0  0  0  0  0
    0.5330   -1.0300   -1.5670 O   0  0  0  0  0  0  0  0  0  0  0  0
    4.4900   -1.2500    0.6730 H   0  0  0  0  0  0  0  0  0  0  0  0
    3.9340   -0.7320   -1.0110 H   0  0  0  0  0  0  0  0  0  0  0  0
    4.6510    1.3540    0.1090 H   0  0  0  0  0  0  0  0  0  0  0  0
    3.6180    0.8840    1.5620 H   0  0  0  0  0  0  0  0  0  0  0  0
    2.1520    2.2130   -0.0090 H   0  0  0  0  0  0  0  0  0  0  0  0
    2.7180    1.0950   -1.3460 H   0  0  0  0  0  0  0  0  0  0  0  0
    1.1520    0.4780    1.1810 H   0  0  0  0  0  0  0  0  0  0  0  0
   -3.5330    1.5340   -0.3540 C   0  0  0  0  0  0  0  0  0  0  0  0
   -3.0630    0.4020   -1.2290 C   0  0  1  0  0  0  0  0  0  0  0  0
   -3.9680    0.3000   -2.2900 O   0  0  0  0  0  0  0  0  0  0  0  0
   -1.7190    0.6560   -1.8320 C   0  0  2  0  0  0  0  0  0  0  0  0
   -0.6520    0.7900   -0.8870 N   0  0  0  0  0  0  0  0  0  0  0  0
   -1.8160    1.8710   -2.6770 C   0  0  0  0  0  0  0  0  0  0  0  0
   -2.6770    1.9680   -3.5870 O   0  0  0  0  0  0  0  0  0  0  0  0
   -0.9520    2.9140   -2.4640 O   0  0  0  0  0  0  0  0  0  0  0  0
   -3.7360    1.2180    0.7060 H   0  0  0  0  0  0  0  0  0  0  0  0
   -2.7990    2.3930   -0.3640 H   0  0  0  0  0  0  0  0  0  0  0  0
   -4.4940    1.9830   -0.7030 H   0  0  0  0  0  0  0  0  0  0  0  0
   -3.1260   -0.5860   -0.7050 H   0  0  0  0  0  0  0  0  0  0  0  0
   -4.8370    0.6990   -2.0870 H   0  0  0  0  0  0  0  0  0  0  0  0
   -1.4810   -0.2010   -2.4960 H   0  0  0  0  0  0  0  0  0  0  0  0
   -0.7110    1.5910   -0.2270 H   0  0  0  0  0  0  0  0  0  0  0  0
  1 11  1  0  0  0  0
  1  9  1  0  0  0  0
  2 12  1  0  0  0  0
  2  1  1  0  0  0  0
  3 14  1  6  0  0  0
  3  4  1  0  0  0  0
  3  2  1  0  0  0  0
  4 15  1  0  0  0  0
  4 17  1  0  0  0  0
  5 18  1  6  0  0  0
  5  6  1  0  0  0  0
  5  3  1  0  0  0  0
  6 19  1  0  0  0  0
  7  8  2  0  0  0  0
  7  5  1  0  0  0  0
 10  1  1  0  0  0  0
 13  2  1  0  0  0  0
 16  4  1  0  0  0  0
 20  6  1  0  0  0  0
 21  7  1  0  0  0  0
 22 21  1  0  0  0  0
 22 23  1  0  0  0  0
 22 28  1  0  0  0  0
 23 31  1  0  0  0  0
 24 32  1  0  0  0  0
 24 25  1  0  0  0  0
 24 23  1  0  0  0  0
 25 21  1  0  0  0  0
 25 34  1  1  0  0  0
 26 25  1  0  0  0  0
 27 26  2  0  0  0  0
 29 22  1  0  0  0  0
 30 23  1  0  0  0  0
 33 24  1  0  0  0  0
 35 43  1  0  0  0  0
 36 46  1  1  0  0  0
 36 35  1  0  0  0  0
 37 47  1  0  0  0  0
 37 36  1  0  0  0  0
 38 48  1  6  0  0  0
 38 36  1  0  0  0  0
 38 39  1  0  0  0  0
 39 26  1  0  0  0  0
 39 49  1  0  0  0  0
 40 42  1  0  0  0  0
 40 38  1  0  0  0  0
 41 40  2  0  0  0  0
 44 35  1  0  0  0  0
 45 35  1  0  0  0  0
M  END
$$$$
