IPY.pdb
 OpenBabel07022418423D

 56 57  0  0  1  0  0  0  0  0999 V2000
    3.2630    0.0970    2.2630 C   0  0  0  0  0  0  0  0  0  0  0  0
    3.9360   -0.8970    3.1380 C   0  0  0  0  0  0  0  0  0  0  0  0
    3.0360   -1.9120    3.7800 C   0  0  2  0  0  0  0  0  0  0  0  0
    3.9920   -2.7940    4.6370 C   0  0  0  0  0  0  0  0  0  0  0  0
    2.3920   -2.8730    2.8460 C   0  0  2  0  0  0  0  0  0  0  0  0
    3.5330   -3.5630    2.1830 N   0  0  0  0  0  0  0  0  0  0  0  0
    1.4770   -2.3510    1.8410 C   0  0  0  0  0  0  0  0  0  0  0  0
    1.8490   -2.3240    0.6460 O   0  0  0  0  0  0  0  0  0  0  0  0
    2.1680    0.1430    2.5010 H   0  0  0  0  0  0  0  0  0  0  0  0
    3.7410    1.0940    2.4010 H   0  0  0  0  0  0  0  0  0  0  0  0
    3.3560   -0.1510    1.2050 H   0  0  0  0  0  0  0  0  0  0  0  0
    4.4860   -0.3330    3.9520 H   0  0  0  0  0  0  0  0  0  0  0  0
    4.7640   -1.3730    2.5580 H   0  0  0  0  0  0  0  0  0  0  0  0
    2.4130   -1.4120    4.5110 H   0  0  0  0  0  0  0  0  0  0  0  0
    4.5710   -3.3610    3.8620 H   0  0  0  0  0  0  0  0  0  0  0  0
    4.6310   -2.1540    5.2630 H   0  0  0  0  0  0  0  0  0  0  0  0
    3.3760   -3.5180    5.1860 H   0  0  0  0  0  0  0  0  0  0  0  0
    1.9190   -3.6880    3.4410 H   0  0  0  0  0  0  0  0  0  0  0  0
    3.2890   -4.5340    1.9360 H   0  0  0  0  0  0  0  0  0  0  0  0
    3.7480   -2.9920    1.3170 H   0  0  0  0  0  0  0  0  0  0  0  0
    0.1800   -1.8770    2.1600 N   0  0  0  0  0  0  0  0  0  0  0  0
   -0.4360   -1.8610    3.5010 C   0  0  0  0  0  0  0  0  0  0  0  0
   -1.0090   -0.4690    3.5300 C   0  0  0  0  0  0  0  0  0  0  0  0
   -1.7430   -0.4800    2.1810 C   0  0  0  0  0  0  0  0  0  0  0  0
   -0.8330   -1.3330    1.2830 C   0  0  1  0  0  0  0  0  0  0  0  0
   -0.3480   -0.4430    0.2290 C   0  0  0  0  0  0  0  0  0  0  0  0
    0.8350   -0.0430    0.1220 O   0  0  0  0  0  0  0  0  0  0  0  0
   -1.3030   -2.5650    3.5220 H   0  0  0  0  0  0  0  0  0  0  0  0
    0.2230   -2.1320    4.3040 H   0  0  0  0  0  0  0  0  0  0  0  0
   -1.7400   -0.3060    4.3420 H   0  0  0  0  0  0  0  0  0  0  0  0
   -0.2410    0.3270    3.5630 H   0  0  0  0  0  0  0  0  0  0  0  0
   -1.8010    0.5630    1.8320 H   0  0  0  0  0  0  0  0  0  0  0  0
   -2.7470   -0.9190    2.2950 H   0  0  0  0  0  0  0  0  0  0  0  0
   -1.4870   -2.1490    0.9050 H   0  0  0  0  0  0  0  0  0  0  0  0
   -6.1360   -0.8280   -4.9910 O   0  0  0  0  0  0  0  0  0  0  0  0
   -4.8450   -0.5300   -4.5500 C   0  0  0  0  0  0  0  0  0  0  0  0
   -4.1030   -1.4750   -3.8980 C   0  0  0  0  0  0  0  0  0  0  0  0
   -2.8030   -1.1800   -3.4530 C   0  0  0  0  0  0  0  0  0  0  0  0
   -2.2540    0.0620   -3.6640 C   0  0  0  0  0  0  0  0  0  0  0  0
   -0.9180    0.3800   -3.2170 C   0  0  0  0  0  0  0  0  0  0  0  0
   -0.7640    0.9330   -1.8420 C   0  0  2  0  0  0  0  0  0  0  0  0
   -1.2360    0.0540   -0.8020 N   0  0  0  0  0  0  0  0  0  0  0  0
   -1.3650    2.3040   -1.7060 C   0  0  0  0  0  0  0  0  0  0  0  0
   -2.1600    2.5090   -0.7560 O   0  0  0  0  0  0  0  0  0  0  0  0
   -3.0220    0.9870   -4.3190 C   0  0  0  0  0  0  0  0  0  0  0  0
   -4.3040    0.7130   -4.7650 C   0  0  0  0  0  0  0  0  0  0  0  0
   -1.0120    3.2560   -2.6290 O   0  0  0  0  0  0  0  0  0  0  0  0
   -6.3360   -1.7070   -5.4650 H   0  0  0  0  0  0  0  0  0  0  0  0
   -4.5350   -2.4520   -3.7330 H   0  0  0  0  0  0  0  0  0  0  0  0
   -2.2680   -1.9640   -2.9450 H   0  0  0  0  0  0  0  0  0  0  0  0
   -0.3860    1.0770   -3.9080 H   0  0  0  0  0  0  0  0  0  0  0  0
   -0.2820   -0.5550   -3.2510 H   0  0  0  0  0  0  0  0  0  0  0  0
    0.3220    1.1050   -1.6790 H   0  0  0  0  0  0  0  0  0  0  0  0
   -2.2280   -0.2630   -0.7430 H   0  0  0  0  0  0  0  0  0  0  0  0
   -2.6160    1.9580   -4.4950 H   0  0  0  0  0  0  0  0  0  0  0  0
   -4.9190    1.4410   -5.2850 H   0  0  0  0  0  0  0  0  0  0  0  0
  1 10  1  0  0  0  0
  1  9  1  0  0  0  0
  1  2  1  0  0  0  0
  2  3  1  0  0  0  0
  2 12  1  0  0  0  0
  3 14  1  1  0  0  0
  3  4  1  0  0  0  0
  4 17  1  0  0  0  0
  4 16  1  0  0  0  0
  5 18  1  1  0  0  0
  5  3  1  0  0  0  0
  6  5  1  0  0  0  0
  7 21  1  0  0  0  0
  7  5  1  0  0  0  0
  8  7  2  0  0  0  0
 11  1  1  0  0  0  0
 13  2  1  0  0  0  0
 15  4  1  0  0  0  0
 19  6  1  0  0  0  0
 20  6  1  0  0  0  0
 21 22  1  0  0  0  0
 22 28  1  0  0  0  0
 22 23  1  0  0  0  0
 22 29  1  0  0  0  0
 23 31  1  0  0  0  0
 23 30  1  0  0  0  0
 24 33  1  0  0  0  0
 24 23  1  0  0  0  0
 25 34  1  6  0  0  0
 25 21  1  0  0  0  0
 25 24  1  0  0  0  0
 26 25  1  0  0  0  0
 27 26  2  0  0  0  0
 32 24  1  0  0  0  0
 35 36  1  0  0  0  0
 36 37  1  0  0  0  0
 37 49  1  0  0  0  0
 37 38  2  0  0  0  0
 38 50  1  0  0  0  0
 39 38  1  0  0  0  0
 39 40  1  0  0  0  0
 40 41  1  0  0  0  0
 41 43  1  0  0  0  0
 41 53  1  1  0  0  0
 41 42  1  0  0  0  0
 42 54  1  0  0  0  0
 42 26  1  0  0  0  0
 43 44  1  0  0  0  0
 45 39  2  0  0  0  0
 46 36  2  0  0  0  0
 46 45  1  0  0  0  0
 47 43  2  0  0  0  0
 48 35  1  0  0  0  0
 51 40  1  0  0  0  0
 52 40  1  0  0  0  0
 55 45  1  0  0  0  0
 56 46  1  0  0  0  0
M  END
$$$$
