IQD.pdb
 OpenBabel07022418413D

 51 50  0  0  1  0  0  0  0  0999 V2000
    2.2620   -3.8990    0.3120 C   0  0  0  0  0  0  0  0  0  0  0  0
    2.0740   -2.4040    0.6050 C   0  0  0  0  0  0  0  0  0  0  0  0
    2.9960   -2.0050    1.7200 C   0  0  2  0  0  0  0  0  0  0  0  0
    2.7030   -2.7740    2.9740 C   0  0  0  0  0  0  0  0  0  0  0  0
    2.9540   -0.5060    1.8990 C   0  0  2  0  0  0  0  0  0  0  0  0
    3.8660   -0.1350    3.0030 N   0  0  0  0  0  0  0  0  0  0  0  0
    1.6390    0.0220    2.2420 C   0  0  0  0  0  0  0  0  0  0  0  0
    1.3580    0.3500    3.4470 O   0  0  0  0  0  0  0  0  0  0  0  0
    2.3090   -4.0690   -0.7820 H   0  0  0  0  0  0  0  0  0  0  0  0
    3.2650   -4.2120    0.7050 H   0  0  0  0  0  0  0  0  0  0  0  0
    1.5150   -4.5130    0.8180 H   0  0  0  0  0  0  0  0  0  0  0  0
    1.0060   -2.3230    0.9490 H   0  0  0  0  0  0  0  0  0  0  0  0
    2.2020   -1.8640   -0.3310 H   0  0  0  0  0  0  0  0  0  0  0  0
    4.0610   -2.2180    1.3890 H   0  0  0  0  0  0  0  0  0  0  0  0
    1.6710   -3.1860    2.8790 H   0  0  0  0  0  0  0  0  0  0  0  0
    3.3990   -3.6520    3.0410 H   0  0  0  0  0  0  0  0  0  0  0  0
    2.8240   -2.1630    3.8970 H   0  0  0  0  0  0  0  0  0  0  0  0
    3.3860   -0.0480    0.9900 H   0  0  0  0  0  0  0  0  0  0  0  0
    4.2790    0.7960    2.7690 H   0  0  0  0  0  0  0  0  0  0  0  0
    3.3040    0.0010    3.8720 H   0  0  0  0  0  0  0  0  0  0  0  0
    0.9080    2.5160   -2.0150 N   0  0  0  0  0  0  0  0  0  0  0  0
    0.7510    2.5180   -0.5860 C   0  0  0  0  0  0  0  0  0  0  0  0
    1.8220    2.3470    0.0480 O   0  0  0  0  0  0  0  0  0  0  0  0
   -0.5700    2.7120    0.0470 C   0  0  0  0  0  0  0  0  0  0  0  0
   -0.7570    2.2070    1.4080 C   0  0  0  0  0  0  0  0  0  0  0  0
   -0.6890    0.7400    1.6670 C   0  0  2  0  0  0  0  0  0  0  0  0
    0.5930    0.2130    1.2860 N   0  0  0  0  0  0  0  0  0  0  0  0
   -1.8520    0.0040    1.1600 C   0  0  0  0  0  0  0  0  0  0  0  0
   -2.9900    0.4400    1.5410 O   0  0  0  0  0  0  0  0  0  0  0  0
    1.2060    1.6610   -2.5180 H   0  0  0  0  0  0  0  0  0  0  0  0
    0.7130    3.4020   -2.5280 H   0  0  0  0  0  0  0  0  0  0  0  0
   -0.6880    3.8440    0.0980 H   0  0  0  0  0  0  0  0  0  0  0  0
   -1.3910    2.4290   -0.6650 H   0  0  0  0  0  0  0  0  0  0  0  0
   -1.7660    2.5740    1.7750 H   0  0  0  0  0  0  0  0  0  0  0  0
   -0.0400    2.7690    2.0820 H   0  0  0  0  0  0  0  0  0  0  0  0
   -0.7210    0.6120    2.8060 H   0  0  0  0  0  0  0  0  0  0  0  0
    0.7840   -0.0590    0.2880 H   0  0  0  0  0  0  0  0  0  0  0  0
   -1.8750   -1.1090    0.3140 N   0  0  0  0  0  0  0  0  0  0  0  0
   -3.0580   -1.7890   -0.1480 C   0  0  1  0  0  0  0  0  0  0  0  0
   -3.2610   -1.7280   -1.6290 C   0  0  0  0  0  0  0  0  0  0  0  0
   -3.3790   -0.3180   -2.0550 C   0  0  0  0  0  0  0  0  0  0  0  0
   -2.4100    0.4430   -2.2810 O   0  0  0  0  0  0  0  0  0  0  0  0
   -3.1670   -3.1640    0.3700 C   0  0  0  0  0  0  0  0  0  0  0  0
   -2.2850   -3.6130    1.1220 O   0  0  0  0  0  0  0  0  0  0  0  0
   -4.6480    0.2110   -2.2190 O   0  0  0  0  0  0  0  0  0  0  0  0
   -4.2400   -3.9470    0.0240 O   0  0  0  0  0  0  0  0  0  0  0  0
   -0.9640   -1.4820   -0.0190 H   0  0  0  0  0  0  0  0  0  0  0  0
   -3.9250   -1.2240    0.3090 H   0  0  0  0  0  0  0  0  0  0  0  0
   -4.2270   -2.2240   -1.8470 H   0  0  0  0  0  0  0  0  0  0  0  0
   -2.5050   -2.2930   -2.2050 H   0  0  0  0  0  0  0  0  0  0  0  0
   -4.8630    1.1920   -2.1010 H   0  0  0  0  0  0  0  0  0  0  0  0
  1  2  1  0  0  0  0
  1 10  1  0  0  0  0
  1 11  1  0  0  0  0
  2 12  1  0  0  0  0
  2  3  1  0  0  0  0
  3 14  1  6  0  0  0
  3  5  1  0  0  0  0
  3  4  1  0  0  0  0
  4 16  1  0  0  0  0
  4 17  1  0  0  0  0
  5 18  1  6  0  0  0
  5  7  1  0  0  0  0
  5  6  1  0  0  0  0
  6 20  1  0  0  0  0
  7  8  2  0  0  0  0
  9  1  1  0  0  0  0
 13  2  1  0  0  0  0
 15  4  1  0  0  0  0
 19  6  1  0  0  0  0
 21 22  1  0  0  0  0
 22 24  1  0  0  0  0
 22 23  2  0  0  0  0
 24 32  1  0  0  0  0
 24 25  1  0  0  0  0
 25 26  1  0  0  0  0
 25 34  1  0  0  0  0
 25 35  1  0  0  0  0
 26 36  1  1  0  0  0
 27 26  1  0  0  0  0
 27  7  1  0  0  0  0
 28 29  2  0  0  0  0
 28 26  1  0  0  0  0
 30 21  1  0  0  0  0
 31 21  1  0  0  0  0
 33 24  1  0  0  0  0
 37 27  1  0  0  0  0
 38 28  1  0  0  0  0
 39 48  1  1  0  0  0
 39 38  1  0  0  0  0
 39 43  1  0  0  0  0
 40 39  1  0  0  0  0
 41 40  1  0  0  0  0
 42 41  2  0  0  0  0
 43 44  1  0  0  0  0
 45 51  1  0  0  0  0
 45 41  1  0  0  0  0
 46 43  2  0  0  0  0
 47 38  1  0  0  0  0
 49 40  1  0  0  0  0
 50 40  1  0  0  0  0
M  END
$$$$
