IQE.pdb
 OpenBabel07022418413D

 54 53  0  0  1  0  0  0  0  0999 V2000
    4.9990    0.2200    2.4810 C   0  0  0  0  0  0  0  0  0  0  0  0
    3.6750   -0.2180    1.8380 C   0  0  0  0  0  0  0  0  0  0  0  0
    2.8400   -0.8080    2.9200 C   0  0  2  0  0  0  0  0  0  0  0  0
    3.5980   -1.9980    3.4990 C   0  0  0  0  0  0  0  0  0  0  0  0
    1.5030   -1.3020    2.4870 C   0  0  2  0  0  0  0  0  0  0  0  0
    1.5670   -2.3410    1.4790 N   0  0  0  0  0  0  0  0  0  0  0  0
    0.5880   -0.2060    2.0530 C   0  0  0  0  0  0  0  0  0  0  0  0
    0.4050    0.7900    2.8020 O   0  0  0  0  0  0  0  0  0  0  0  0
    5.5330   -0.6430    2.9080 H   0  0  0  0  0  0  0  0  0  0  0  0
    4.7960    1.0230    3.2270 H   0  0  0  0  0  0  0  0  0  0  0  0
    5.6760    0.6730    1.7190 H   0  0  0  0  0  0  0  0  0  0  0  0
    3.9520   -0.9220    1.0410 H   0  0  0  0  0  0  0  0  0  0  0  0
    3.2290    0.7270    1.4430 H   0  0  0  0  0  0  0  0  0  0  0  0
    2.6840   -0.0390    3.6970 H   0  0  0  0  0  0  0  0  0  0  0  0
    4.0620   -2.6110    2.7280 H   0  0  0  0  0  0  0  0  0  0  0  0
    2.8400   -2.6470    4.0230 H   0  0  0  0  0  0  0  0  0  0  0  0
    4.3120   -1.5980    4.2510 H   0  0  0  0  0  0  0  0  0  0  0  0
    1.0170   -1.7690    3.3810 H   0  0  0  0  0  0  0  0  0  0  0  0
    0.5980   -2.7330    1.3970 H   0  0  0  0  0  0  0  0  0  0  0  0
    1.9280   -1.9940    0.5680 H   0  0  0  0  0  0  0  0  0  0  0  0
    2.2700    3.3050   -2.4920 N   0  0  0  0  0  0  0  0  0  0  0  0
    1.0440    2.6490   -2.2720 C   0  0  0  0  0  0  0  0  0  0  0  0
    0.2080    2.5740   -3.1910 O   0  0  0  0  0  0  0  0  0  0  0  0
    0.7470    2.0490   -0.9590 C   0  0  0  0  0  0  0  0  0  0  0  0
   -0.6080    1.4010   -0.9340 C   0  0  0  0  0  0  0  0  0  0  0  0
   -0.9640    0.7760    0.3730 C   0  0  2  0  0  0  0  0  0  0  0  0
   -0.0870   -0.2560    0.8100 N   0  0  0  0  0  0  0  0  0  0  0  0
   -2.3810    0.3030    0.2620 C   0  0  0  0  0  0  0  0  0  0  0  0
   -3.3230    1.0210   -0.1010 O   0  0  0  0  0  0  0  0  0  0  0  0
    2.2900    4.3180   -2.7510 H   0  0  0  0  0  0  0  0  0  0  0  0
    3.1930    2.8270   -2.4090 H   0  0  0  0  0  0  0  0  0  0  0  0
    0.7890    2.8890   -0.2100 H   0  0  0  0  0  0  0  0  0  0  0  0
    1.5690    1.3730   -0.7010 H   0  0  0  0  0  0  0  0  0  0  0  0
   -1.3560    2.1870   -1.1640 H   0  0  0  0  0  0  0  0  0  0  0  0
   -0.6490    0.6680   -1.7660 H   0  0  0  0  0  0  0  0  0  0  0  0
   -0.9910    1.5660    1.1660 H   0  0  0  0  0  0  0  0  0  0  0  0
    0.0690   -1.0800    0.1980 H   0  0  0  0  0  0  0  0  0  0  0  0
   -2.6400   -1.0530    0.5970 N   0  0  0  0  0  0  0  0  0  0  0  0
   -3.9590   -1.6470    0.5360 C   0  0  1  0  0  0  0  0  0  0  0  0
   -3.9120   -2.8280   -0.4440 C   0  0  0  0  0  0  0  0  0  0  0  0
   -3.5050   -2.3050   -1.7830 C   0  0  0  0  0  0  0  0  0  0  0  0
   -3.4530   -3.4240   -2.7450 C   0  0  0  0  0  0  0  0  0  0  0  0
   -3.7280   -4.5900   -2.3800 O   0  0  0  0  0  0  0  0  0  0  0  0
   -4.3130   -2.2230    1.8500 C   0  0  0  0  0  0  0  0  0  0  0  0
   -5.4040   -2.8000    2.0740 O   0  0  0  0  0  0  0  0  0  0  0  0
   -3.1010   -3.2050   -4.0570 O   0  0  0  0  0  0  0  0  0  0  0  0
   -3.4010   -2.1230    2.8840 O   0  0  0  0  0  0  0  0  0  0  0  0
   -1.8560   -1.6740    0.9050 H   0  0  0  0  0  0  0  0  0  0  0  0
   -4.7230   -0.9150    0.2000 H   0  0  0  0  0  0  0  0  0  0  0  0
   -4.8870   -3.3390   -0.4870 H   0  0  0  0  0  0  0  0  0  0  0  0
   -3.1200   -3.5010   -0.0310 H   0  0  0  0  0  0  0  0  0  0  0  0
   -2.5040   -1.8400   -1.7420 H   0  0  0  0  0  0  0  0  0  0  0  0
   -4.2190   -1.5160   -2.0970 H   0  0  0  0  0  0  0  0  0  0  0  0
   -3.3090   -3.8430   -4.8140 H   0  0  0  0  0  0  0  0  0  0  0  0
  1  9  1  0  0  0  0
  1 10  1  0  0  0  0
  2  1  1  0  0  0  0
  2  3  1  0  0  0  0
  3  4  1  0  0  0  0
  3 14  1  1  0  0  0
  4 16  1  0  0  0  0
  4 17  1  0  0  0  0
  5  3  1  0  0  0  0
  5 18  1  1  0  0  0
  6  5  1  0  0  0  0
  7  5  1  0  0  0  0
  7  8  2  0  0  0  0
 11  1  1  0  0  0  0
 12  2  1  0  0  0  0
 13  2  1  0  0  0  0
 15  4  1  0  0  0  0
 19  6  1  0  0  0  0
 20  6  1  0  0  0  0
 21 31  1  0  0  0  0
 21 22  1  0  0  0  0
 22 24  1  0  0  0  0
 23 22  2  0  0  0  0
 24 25  1  0  0  0  0
 24 33  1  0  0  0  0
 24 32  1  0  0  0  0
 25 26  1  0  0  0  0
 26 27  1  0  0  0  0
 26 36  1  1  0  0  0
 27  7  1  0  0  0  0
 28 26  1  0  0  0  0
 28 38  1  0  0  0  0
 29 28  2  0  0  0  0
 30 21  1  0  0  0  0
 34 25  1  0  0  0  0
 35 25  1  0  0  0  0
 37 27  1  0  0  0  0
 38 48  1  0  0  0  0
 39 49  1  6  0  0  0
 39 38  1  0  0  0  0
 39 44  1  0  0  0  0
 40 51  1  0  0  0  0
 40 39  1  0  0  0  0
 41 52  1  0  0  0  0
 41 40  1  0  0  0  0
 42 43  2  0  0  0  0
 42 41  1  0  0  0  0
 44 45  2  0  0  0  0
 44 47  1  0  0  0  0
 46 42  1  0  0  0  0
 50 40  1  0  0  0  0
 53 41  1  0  0  0  0
 54 46  1  0  0  0  0
M  END
$$$$
