IQG.pdb
 OpenBabel07022418413D

 45 44  0  0  1  0  0  0  0  0999 V2000
   -1.5170   -4.3610    1.4750 C   0  0  0  0  0  0  0  0  0  0  0  0
   -1.0300   -3.2410    0.6060 C   0  0  0  0  0  0  0  0  0  0  0  0
    0.4550   -3.0220    0.6810 C   0  0  2  0  0  0  0  0  0  0  0  0
    1.2370   -4.2410    0.2570 C   0  0  0  0  0  0  0  0  0  0  0  0
    0.9160   -2.4830    2.0070 C   0  0  2  0  0  0  0  0  0  0  0  0
    0.5970   -3.3590    3.0940 N   0  0  0  0  0  0  0  0  0  0  0  0
    0.4230   -1.1320    2.2860 C   0  0  0  0  0  0  0  0  0  0  0  0
   -0.1840   -0.9040    3.3600 O   0  0  0  0  0  0  0  0  0  0  0  0
   -0.7350   -4.9550    1.9450 H   0  0  0  0  0  0  0  0  0  0  0  0
   -2.1460   -5.0940    0.8890 H   0  0  0  0  0  0  0  0  0  0  0  0
   -2.2090   -4.0140    2.2860 H   0  0  0  0  0  0  0  0  0  0  0  0
   -1.5880   -2.3220    0.8780 H   0  0  0  0  0  0  0  0  0  0  0  0
   -1.3250   -3.4690   -0.4380 H   0  0  0  0  0  0  0  0  0  0  0  0
    0.7020   -2.2260   -0.0810 H   0  0  0  0  0  0  0  0  0  0  0  0
    2.2090   -4.2110    0.8030 H   0  0  0  0  0  0  0  0  0  0  0  0
    1.4310   -4.2360   -0.8340 H   0  0  0  0  0  0  0  0  0  0  0  0
    0.7510   -5.1930    0.5570 H   0  0  0  0  0  0  0  0  0  0  0  0
    2.0400   -2.4020    1.9450 H   0  0  0  0  0  0  0  0  0  0  0  0
   -0.3370   -3.1660    3.5200 H   0  0  0  0  0  0  0  0  0  0  0  0
    1.3630   -3.3540    3.8030 H   0  0  0  0  0  0  0  0  0  0  0  0
    3.8760    1.1900   -0.2790 N   0  0  0  0  0  0  0  0  0  0  0  0
    3.1290    1.3430    0.9150 C   0  0  0  0  0  0  0  0  0  0  0  0
    3.2090    0.4560    1.8110 O   0  0  0  0  0  0  0  0  0  0  0  0
    2.2570    2.5100    1.1620 C   0  0  0  0  0  0  0  0  0  0  0  0
    1.1520    2.2820    2.1230 C   0  0  0  0  0  0  0  0  0  0  0  0
    0.1060    1.2910    1.6770 C   0  0  2  0  0  0  0  0  0  0  0  0
    0.5920   -0.0280    1.3940 N   0  0  0  0  0  0  0  0  0  0  0  0
   -0.6420    1.8090    0.5030 C   0  0  0  0  0  0  0  0  0  0  0  0
   -1.1330    2.9810    0.5880 O   0  0  0  0  0  0  0  0  0  0  0  0
    3.6530    1.7750   -1.1040 H   0  0  0  0  0  0  0  0  0  0  0  0
    4.6400    0.4870   -0.3050 H   0  0  0  0  0  0  0  0  0  0  0  0
    1.8080    2.8150    0.1810 H   0  0  0  0  0  0  0  0  0  0  0  0
    2.8670    3.3790    1.5030 H   0  0  0  0  0  0  0  0  0  0  0  0
    0.6210    3.2550    2.3380 H   0  0  0  0  0  0  0  0  0  0  0  0
    1.5570    1.9770    3.1320 H   0  0  0  0  0  0  0  0  0  0  0  0
   -0.6230    1.1980    2.5660 H   0  0  0  0  0  0  0  0  0  0  0  0
    1.0730   -0.2060    0.4830 H   0  0  0  0  0  0  0  0  0  0  0  0
   -0.8430    1.0880   -0.7000 N   0  0  0  0  0  0  0  0  0  0  0  0
   -1.5850    1.6510   -1.8140 C   0  0  0  0  0  0  0  0  0  0  0  0
   -2.9590    1.9610   -1.3660 C   0  0  0  0  0  0  0  0  0  0  0  0
   -3.3270    1.7370   -0.1920 O   0  0  0  0  0  0  0  0  0  0  0  0
   -3.8490    2.5100   -2.2690 O   0  0  0  0  0  0  0  0  0  0  0  0
   -0.4600    0.1460   -0.7910 H   0  0  0  0  0  0  0  0  0  0  0  0
   -1.0610    2.6100   -2.0960 H   0  0  0  0  0  0  0  0  0  0  0  0
   -1.6310    0.9680   -2.6650 H   0  0  0  0  0  0  0  0  0  0  0  0
  1  9  1  0  0  0  0
  1 11  1  0  0  0  0
  2  3  1  0  0  0  0
  2 12  1  0  0  0  0
  2  1  1  0  0  0  0
  3 14  1  6  0  0  0
  3  5  1  0  0  0  0
  4 17  1  0  0  0  0
  4  3  1  0  0  0  0
  4 15  1  0  0  0  0
  5 18  1  6  0  0  0
  5  7  1  0  0  0  0
  5  6  1  0  0  0  0
  6 19  1  0  0  0  0
  6 20  1  0  0  0  0
  7  8  2  0  0  0  0
 10  1  1  0  0  0  0
 13  2  1  0  0  0  0
 16  4  1  0  0  0  0
 21 22  1  0  0  0  0
 22 24  1  0  0  0  0
 22 23  2  0  0  0  0
 24 33  1  0  0  0  0
 24 25  1  0  0  0  0
 25 34  1  0  0  0  0
 25 35  1  0  0  0  0
 26 25  1  0  0  0  0
 26 36  1  1  0  0  0
 27 26  1  0  0  0  0
 27  7  1  0  0  0  0
 28 29  2  0  0  0  0
 28 26  1  0  0  0  0
 30 21  1  0  0  0  0
 31 21  1  0  0  0  0
 32 24  1  0  0  0  0
 37 27  1  0  0  0  0
 38 28  1  0  0  0  0
 39 40  1  0  0  0  0
 39 38  1  0  0  0  0
 40 41  1  0  0  0  0
 42 40  2  0  0  0  0
 43 38  1  0  0  0  0
 44 39  1  0  0  0  0
 45 39  1  0  0  0  0
M  END
$$$$
