IQM.pdb
 OpenBabel07022418413D

 55 54  0  0  1  0  0  0  0  0999 V2000
    0.2390   -5.0120    2.9570 C   0  0  0  0  0  0  0  0  0  0  0  0
    1.1070   -3.8360    3.2730 C   0  0  0  0  0  0  0  0  0  0  0  0
    0.4250   -2.5840    2.6780 C   0  0  2  0  0  0  0  0  0  0  0  0
    0.2870   -2.7750    1.1800 C   0  0  0  0  0  0  0  0  0  0  0  0
    1.2790   -1.4010    3.0450 C   0  0  2  0  0  0  0  0  0  0  0  0
    1.3230   -1.4140    4.5400 N   0  0  0  0  0  0  0  0  0  0  0  0
    0.7590   -0.0930    2.6320 C   0  0  0  0  0  0  0  0  0  0  0  0
    0.3280    0.7110    3.5380 O   0  0  0  0  0  0  0  0  0  0  0  0
    0.5890   -5.5190    2.0360 H   0  0  0  0  0  0  0  0  0  0  0  0
    0.3470   -5.7480    3.8060 H   0  0  0  0  0  0  0  0  0  0  0  0
   -0.8330   -4.7240    2.8640 H   0  0  0  0  0  0  0  0  0  0  0  0
    1.0370   -3.6440    4.3860 H   0  0  0  0  0  0  0  0  0  0  0  0
    2.1320   -3.9560    2.9420 H   0  0  0  0  0  0  0  0  0  0  0  0
   -0.5920   -2.5590    3.1000 H   0  0  0  0  0  0  0  0  0  0  0  0
    1.2830   -2.6600    0.7220 H   0  0  0  0  0  0  0  0  0  0  0  0
   -0.5180   -2.1860    0.7570 H   0  0  0  0  0  0  0  0  0  0  0  0
   -0.0020   -3.8580    0.9860 H   0  0  0  0  0  0  0  0  0  0  0  0
    2.3290   -1.5760    2.7500 H   0  0  0  0  0  0  0  0  0  0  0  0
    0.3740   -1.5580    4.9220 H   0  0  0  0  0  0  0  0  0  0  0  0
    1.7900   -0.5550    4.8830 H   0  0  0  0  0  0  0  0  0  0  0  0
    3.9040    0.9080   -1.2070 N   0  0  0  0  0  0  0  0  0  0  0  0
    3.1830    1.4260   -0.1230 C   0  0  0  0  0  0  0  0  0  0  0  0
    3.3680    0.8360    0.9930 O   0  0  0  0  0  0  0  0  0  0  0  0
    2.2690    2.5530   -0.1670 C   0  0  0  0  0  0  0  0  0  0  0  0
    1.2600    2.7140    0.8770 C   0  0  0  0  0  0  0  0  0  0  0  0
    0.1910    1.6720    1.0160 C   0  0  2  0  0  0  0  0  0  0  0  0
    0.6940    0.3770    1.2930 N   0  0  0  0  0  0  0  0  0  0  0  0
   -0.8060    1.7680   -0.0900 C   0  0  0  0  0  0  0  0  0  0  0  0
   -1.2070    2.9400   -0.3570 O   0  0  0  0  0  0  0  0  0  0  0  0
    4.3560    1.5430   -1.8830 H   0  0  0  0  0  0  0  0  0  0  0  0
    3.9900   -0.1100   -1.3380 H   0  0  0  0  0  0  0  0  0  0  0  0
    1.7660    2.6230   -1.1650 H   0  0  0  0  0  0  0  0  0  0  0  0
    2.9220    3.4860   -0.1450 H   0  0  0  0  0  0  0  0  0  0  0  0
    0.7170    3.6880    0.6720 H   0  0  0  0  0  0  0  0  0  0  0  0
    1.6820    2.8840    1.9010 H   0  0  0  0  0  0  0  0  0  0  0  0
   -0.3930    2.0070    1.9430 H   0  0  0  0  0  0  0  0  0  0  0  0
    1.0240   -0.3040    0.5460 H   0  0  0  0  0  0  0  0  0  0  0  0
   -1.7350   -4.0170   -2.2780 C   0  0  0  0  0  0  0  0  0  0  0  0
   -2.1760   -2.2920   -2.7120 S   0  0  0  0  0  0  0  0  0  0  0  0
   -3.1040   -1.5920   -1.3140 C   0  0  0  0  0  0  0  0  0  0  0  0
   -3.4800   -0.1850   -1.6480 C   0  0  0  0  0  0  0  0  0  0  0  0
   -2.2220    0.6160   -1.9020 C   0  0  2  0  0  0  0  0  0  0  0  0
   -1.3110    0.6850   -0.8280 N   0  0  0  0  0  0  0  0  0  0  0  0
   -2.5420    1.8260   -2.6660 C   0  0  0  0  0  0  0  0  0  0  0  0
   -1.9990    2.9340   -2.5670 O   0  0  0  0  0  0  0  0  0  0  0  0
   -3.5810    1.7870   -3.6410 O   0  0  0  0  0  0  0  0  0  0  0  0
   -1.6550   -4.0640   -1.1520 H   0  0  0  0  0  0  0  0  0  0  0  0
   -2.5580   -4.6410   -2.6340 H   0  0  0  0  0  0  0  0  0  0  0  0
   -0.7730   -4.2930   -2.7550 H   0  0  0  0  0  0  0  0  0  0  0  0
   -2.5620   -1.6780   -0.3520 H   0  0  0  0  0  0  0  0  0  0  0  0
   -4.0330   -2.2230   -1.1570 H   0  0  0  0  0  0  0  0  0  0  0  0
   -4.0840    0.2610   -0.8130 H   0  0  0  0  0  0  0  0  0  0  0  0
   -4.1140   -0.1000   -2.5460 H   0  0  0  0  0  0  0  0  0  0  0  0
   -1.6510   -0.0160   -2.7230 H   0  0  0  0  0  0  0  0  0  0  0  0
   -0.8890   -0.2660   -0.4800 H   0  0  0  0  0  0  0  0  0  0  0  0
  1  2  1  0  0  0  0
  1 10  1  0  0  0  0
  2 12  1  0  0  0  0
  3  5  1  0  0  0  0
  3 14  1  1  0  0  0
  3  2  1  0  0  0  0
  4  3  1  0  0  0  0
  5 18  1  6  0  0  0
  5  6  1  0  0  0  0
  6 20  1  0  0  0  0
  6 19  1  0  0  0  0
  7  5  1  0  0  0  0
  7  8  2  0  0  0  0
  9  1  1  0  0  0  0
 11  1  1  0  0  0  0
 13  2  1  0  0  0  0
 15  4  1  0  0  0  0
 16  4  1  0  0  0  0
 17  4  1  0  0  0  0
 21 22  1  0  0  0  0
 22 23  2  0  0  0  0
 24 33  1  0  0  0  0
 24 22  1  0  0  0  0
 24 25  1  0  0  0  0
 25 26  1  0  0  0  0
 25 35  1  0  0  0  0
 26 27  1  0  0  0  0
 26 36  1  1  0  0  0
 27  7  1  0  0  0  0
 28 26  1  0  0  0  0
 29 28  2  0  0  0  0
 30 21  1  0  0  0  0
 31 21  1  0  0  0  0
 32 24  1  0  0  0  0
 34 25  1  0  0  0  0
 37 27  1  0  0  0  0
 38 47  1  0  0  0  0
 39 38  1  0  0  0  0
 39 40  1  0  0  0  0
 40 51  1  0  0  0  0
 40 50  1  0  0  0  0
 41 40  1  0  0  0  0
 41 52  1  0  0  0  0
 42 54  1  6  0  0  0
 42 41  1  0  0  0  0
 42 43  1  0  0  0  0
 43 55  1  0  0  0  0
 43 28  1  0  0  0  0
 44 45  1  0  0  0  0
 44 42  1  0  0  0  0
 46 44  2  0  0  0  0
 48 38  1  0  0  0  0
 49 38  1  0  0  0  0
 53 41  1  0  0  0  0
M  END
$$$$
