IQP.pdb
 OpenBabel07022418413D

 52 52  0  0  1  0  0  0  0  0999 V2000
    1.9690   -5.3640   -0.0430 C   0  0  0  0  0  0  0  0  0  0  0  0
    3.0020   -4.5060    0.6030 C   0  0  0  0  0  0  0  0  0  0  0  0
    2.7260   -3.0450    0.5900 C   0  0  2  0  0  0  0  0  0  0  0  0
    3.8250   -2.2640    1.2650 C   0  0  0  0  0  0  0  0  0  0  0  0
    1.3880   -2.6290    1.1120 C   0  0  2  0  0  0  0  0  0  0  0  0
    0.2780   -3.1610    0.4070 N   0  0  0  0  0  0  0  0  0  0  0  0
    1.2410   -1.1590    1.2440 C   0  0  0  0  0  0  0  0  0  0  0  0
    2.1020   -0.4460    1.8570 O   0  0  0  0  0  0  0  0  0  0  0  0
    2.4210   -6.2760   -0.5380 H   0  0  0  0  0  0  0  0  0  0  0  0
    1.3210   -5.8180    0.7570 H   0  0  0  0  0  0  0  0  0  0  0  0
    1.3820   -4.8830   -0.8220 H   0  0  0  0  0  0  0  0  0  0  0  0
    3.9450   -4.6510   -0.0050 H   0  0  0  0  0  0  0  0  0  0  0  0
    3.2840   -4.8770    1.6270 H   0  0  0  0  0  0  0  0  0  0  0  0
    2.7550   -2.7250   -0.4940 H   0  0  0  0  0  0  0  0  0  0  0  0
    4.0120   -1.2800    0.8400 H   0  0  0  0  0  0  0  0  0  0  0  0
    4.7640   -2.8730    1.1130 H   0  0  0  0  0  0  0  0  0  0  0  0
    3.6220   -2.1380    2.3550 H   0  0  0  0  0  0  0  0  0  0  0  0
    1.3250   -3.0570    2.1610 H   0  0  0  0  0  0  0  0  0  0  0  0
   -0.1930   -3.9750    0.7720 H   0  0  0  0  0  0  0  0  0  0  0  0
    0.1300   -2.8790   -0.5560 H   0  0  0  0  0  0  0  0  0  0  0  0
    0.9890    4.8110   -2.3790 N   0  0  0  0  0  0  0  0  0  0  0  0
    0.9470    3.4500   -2.0090 C   0  0  0  0  0  0  0  0  0  0  0  0
    1.4070    2.5980   -2.8100 O   0  0  0  0  0  0  0  0  0  0  0  0
    0.3620    3.0140   -0.6790 C   0  0  0  0  0  0  0  0  0  0  0  0
    0.4270    1.5450   -0.5410 C   0  0  0  0  0  0  0  0  0  0  0  0
   -0.0770    0.9540    0.7790 C   0  0  2  0  0  0  0  0  0  0  0  0
    0.1070   -0.5080    0.6750 N   0  0  0  0  0  0  0  0  0  0  0  0
   -1.4330    1.3020    1.1190 C   0  0  0  0  0  0  0  0  0  0  0  0
   -1.6530    2.6060    1.0530 O   0  0  0  0  0  0  0  0  0  0  0  0
    1.1030    5.5780   -1.6910 H   0  0  0  0  0  0  0  0  0  0  0  0
    0.9010    5.0590   -3.3820 H   0  0  0  0  0  0  0  0  0  0  0  0
    0.9650    3.5230    0.0950 H   0  0  0  0  0  0  0  0  0  0  0  0
   -0.6680    3.4560   -0.6180 H   0  0  0  0  0  0  0  0  0  0  0  0
   -0.0400    1.0040   -1.3980 H   0  0  0  0  0  0  0  0  0  0  0  0
    1.5080    1.2170   -0.5810 H   0  0  0  0  0  0  0  0  0  0  0  0
    0.6960    1.2820    1.5200 H   0  0  0  0  0  0  0  0  0  0  0  0
   -0.5810   -1.0970    0.1720 H   0  0  0  0  0  0  0  0  0  0  0  0
   -2.5640    0.5960    1.4910 N   0  0  0  0  0  0  0  0  0  0  0  0
   -3.9260    1.2850    1.5410 C   0  0  0  0  0  0  0  0  0  0  0  0
   -4.7360    0.2660    0.7090 C   0  0  0  0  0  0  0  0  0  0  0  0
   -3.9030   -1.0470    0.7540 C   0  0  0  0  0  0  0  0  0  0  0  0
   -3.0120   -0.6940    1.9170 C   0  0  1  0  0  0  0  0  0  0  0  0
   -2.1390   -1.6650    2.4740 C   0  0  0  0  0  0  0  0  0  0  0  0
   -2.2490   -2.9210    2.2510 O   0  0  0  0  0  0  0  0  0  0  0  0
   -1.1010   -1.3140    3.3180 O   0  0  0  0  0  0  0  0  0  0  0  0
   -4.2220    1.1960    2.5870 H   0  0  0  0  0  0  0  0  0  0  0  0
   -3.8780    2.2620    1.1030 H   0  0  0  0  0  0  0  0  0  0  0  0
   -4.8900    0.5930   -0.3160 H   0  0  0  0  0  0  0  0  0  0  0  0
   -5.6930    0.0270    1.2140 H   0  0  0  0  0  0  0  0  0  0  0  0
   -4.5430   -1.9170    0.9090 H   0  0  0  0  0  0  0  0  0  0  0  0
   -3.2970   -1.0780   -0.1830 H   0  0  0  0  0  0  0  0  0  0  0  0
   -3.8450   -0.4650    2.7490 H   0  0  0  0  0  0  0  0  0  0  0  0
  1  2  1  0  0  0  0
  1 10  1  0  0  0  0
  2 13  1  0  0  0  0
  3 14  1  6  0  0  0
  3  2  1  0  0  0  0
  3  5  1  0  0  0  0
  3  4  1  0  0  0  0
  4 17  1  0  0  0  0
  5  7  1  0  0  0  0
  5 18  1  1  0  0  0
  6 19  1  0  0  0  0
  6  5  1  0  0  0  0
  7  8  2  0  0  0  0
  9  1  1  0  0  0  0
 11  1  1  0  0  0  0
 12  2  1  0  0  0  0
 15  4  1  0  0  0  0
 16  4  1  0  0  0  0
 20  6  1  0  0  0  0
 21 22  1  0  0  0  0
 21 30  1  0  0  0  0
 22 24  1  0  0  0  0
 23 22  2  0  0  0  0
 24 33  1  0  0  0  0
 24 25  1  0  0  0  0
 24 32  1  0  0  0  0
 25 26  1  0  0  0  0
 26 28  1  0  0  0  0
 26 36  1  1  0  0  0
 27 26  1  0  0  0  0
 27  7  1  0  0  0  0
 28 38  1  0  0  0  0
 29 28  2  0  0  0  0
 31 21  1  0  0  0  0
 34 25  1  0  0  0  0
 35 25  1  0  0  0  0
 37 27  1  0  0  0  0
 38 39  1  0  0  0  0
 38 42  1  0  0  0  0
 39 46  1  0  0  0  0
 40 41  1  0  0  0  0
 40 49  1  0  0  0  0
 40 39  1  0  0  0  0
 41 50  1  0  0  0  0
 41 42  1  0  0  0  0
 42 43  1  0  0  0  0
 42 52  1  1  0  0  0
 43 45  1  0  0  0  0
 44 43  2  0  0  0  0
 47 39  1  0  0  0  0
 48 40  1  0  0  0  0
 51 41  1  0  0  0  0
M  END
$$$$
