IQY.pdb
 OpenBabel07022418413D

 59 59  0  0  1  0  0  0  0  0999 V2000
    3.5540    0.5510    2.0470 C   0  0  0  0  0  0  0  0  0  0  0  0
    2.5990    1.5740    2.5640 C   0  0  0  0  0  0  0  0  0  0  0  0
    1.4920    1.0480    3.4070 C   0  0  2  0  0  0  0  0  0  0  0  0
    2.0290    0.3450    4.6290 C   0  0  0  0  0  0  0  0  0  0  0  0
    0.5520    0.1250    2.6920 C   0  0  2  0  0  0  0  0  0  0  0  0
    1.1780   -1.0520    2.1580 N   0  0  0  0  0  0  0  0  0  0  0  0
   -0.2280    0.8550    1.6290 C   0  0  0  0  0  0  0  0  0  0  0  0
   -0.8460    1.9160    1.8930 O   0  0  0  0  0  0  0  0  0  0  0  0
    4.3990    1.1240    1.5630 H   0  0  0  0  0  0  0  0  0  0  0  0
    3.1390   -0.0750    1.2300 H   0  0  0  0  0  0  0  0  0  0  0  0
    4.0070   -0.0070    2.8650 H   0  0  0  0  0  0  0  0  0  0  0  0
    2.2170    2.2380    1.7490 H   0  0  0  0  0  0  0  0  0  0  0  0
    3.1990    2.2730    3.2190 H   0  0  0  0  0  0  0  0  0  0  0  0
    0.8990    1.9090    3.7710 H   0  0  0  0  0  0  0  0  0  0  0  0
    1.1850   -0.1630    5.1740 H   0  0  0  0  0  0  0  0  0  0  0  0
    2.4790    1.1130    5.3150 H   0  0  0  0  0  0  0  0  0  0  0  0
    2.7660   -0.4310    4.4240 H   0  0  0  0  0  0  0  0  0  0  0  0
   -0.2030   -0.2140    3.4400 H   0  0  0  0  0  0  0  0  0  0  0  0
    1.8910   -1.3790    2.8450 H   0  0  0  0  0  0  0  0  0  0  0  0
    0.4540   -1.8050    2.1160 H   0  0  0  0  0  0  0  0  0  0  0  0
    3.0600    3.3330   -2.5170 N   0  0  0  0  0  0  0  0  0  0  0  0
    1.9090    2.5220   -2.6590 C   0  0  0  0  0  0  0  0  0  0  0  0
    1.6680    2.0490   -3.8190 O   0  0  0  0  0  0  0  0  0  0  0  0
    1.0310    2.2420   -1.5030 C   0  0  0  0  0  0  0  0  0  0  0  0
   -0.1290    1.3570   -1.9100 C   0  0  0  0  0  0  0  0  0  0  0  0
   -1.0380    1.0600   -0.7460 C   0  0  2  0  0  0  0  0  0  0  0  0
   -0.3040    0.3880    0.2880 N   0  0  0  0  0  0  0  0  0  0  0  0
   -2.1340    0.1910   -1.2630 C   0  0  0  0  0  0  0  0  0  0  0  0
   -2.9040    0.5860   -2.1740 O   0  0  0  0  0  0  0  0  0  0  0  0
    3.0150    4.2260   -2.0180 H   0  0  0  0  0  0  0  0  0  0  0  0
    3.9440    2.9880   -2.9360 H   0  0  0  0  0  0  0  0  0  0  0  0
    1.6500    1.7820   -0.7210 H   0  0  0  0  0  0  0  0  0  0  0  0
    0.6570    3.2150   -1.1120 H   0  0  0  0  0  0  0  0  0  0  0  0
   -0.7100    1.8850   -2.6940 H   0  0  0  0  0  0  0  0  0  0  0  0
    0.2870    0.4530   -2.3690 H   0  0  0  0  0  0  0  0  0  0  0  0
   -1.5220    1.9740   -0.3750 H   0  0  0  0  0  0  0  0  0  0  0  0
    0.1980   -0.4910    0.0300 H   0  0  0  0  0  0  0  0  0  0  0  0
    0.5370   -6.3260    1.4430 O   0  0  0  0  0  0  0  0  0  0  0  0
   -0.3050   -5.5620    0.6220 C   0  0  0  0  0  0  0  0  0  0  0  0
   -1.6610   -5.8080    0.5570 C   0  0  0  0  0  0  0  0  0  0  0  0
   -2.4980   -5.0530   -0.2550 C   0  0  0  0  0  0  0  0  0  0  0  0
   -1.9980   -4.0230   -1.0310 C   0  0  0  0  0  0  0  0  0  0  0  0
   -2.8430   -3.2020   -1.9020 C   0  0  0  0  0  0  0  0  0  0  0  0
   -3.4060   -1.9790   -1.2250 C   0  0  2  0  0  0  0  0  0  0  0  0
   -2.3520   -1.1090   -0.7490 N   0  0  0  0  0  0  0  0  0  0  0  0
   -4.3910   -2.3040   -0.1840 C   0  0  0  0  0  0  0  0  0  0  0  0
   -5.3550   -3.0420   -0.4500 O   0  0  0  0  0  0  0  0  0  0  0  0
   -0.6400   -3.7940   -0.9520 C   0  0  0  0  0  0  0  0  0  0  0  0
    0.1960   -4.5370   -0.1500 C   0  0  0  0  0  0  0  0  0  0  0  0
   -4.2620   -1.8000    1.0870 O   0  0  0  0  0  0  0  0  0  0  0  0
    0.7100   -5.9230    2.3650 H   0  0  0  0  0  0  0  0  0  0  0  0
   -2.0830   -6.6080    1.1530 H   0  0  0  0  0  0  0  0  0  0  0  0
   -3.5360   -5.2910   -0.2630 H   0  0  0  0  0  0  0  0  0  0  0  0
   -3.6790   -3.7950   -2.3110 H   0  0  0  0  0  0  0  0  0  0  0  0
   -2.2470   -2.8550   -2.7680 H   0  0  0  0  0  0  0  0  0  0  0  0
   -3.9490   -1.4070   -2.0190 H   0  0  0  0  0  0  0  0  0  0  0  0
   -1.7380   -1.4750    0.0050 H   0  0  0  0  0  0  0  0  0  0  0  0
   -0.1670   -2.9970   -1.5350 H   0  0  0  0  0  0  0  0  0  0  0  0
    1.2730   -4.3510   -0.0890 H   0  0  0  0  0  0  0  0  0  0  0  0
  1  2  1  0  0  0  0
  1 11  1  0  0  0  0
  2 13  1  0  0  0  0
  2  3  1  0  0  0  0
  3 14  1  1  0  0  0
  3  4  1  0  0  0  0
  4 15  1  0  0  0  0
  4 16  1  0  0  0  0
  5  3  1  0  0  0  0
  5 18  1  1  0  0  0
  6  5  1  0  0  0  0
  6 19  1  0  0  0  0
  7  8  2  0  0  0  0
  7  5  1  0  0  0  0
  9  1  1  0  0  0  0
 10  1  1  0  0  0  0
 12  2  1  0  0  0  0
 17  4  1  0  0  0  0
 20  6  1  0  0  0  0
 21 30  1  0  0  0  0
 22 21  1  0  0  0  0
 22 24  1  0  0  0  0
 23 22  2  0  0  0  0
 24 33  1  0  0  0  0
 24 32  1  0  0  0  0
 25 24  1  0  0  0  0
 25 26  1  0  0  0  0
 26 36  1  1  0  0  0
 26 27  1  0  0  0  0
 27  7  1  0  0  0  0
 28 45  1  0  0  0  0
 28 26  1  0  0  0  0
 29 28  2  0  0  0  0
 31 21  1  0  0  0  0
 34 25  1  0  0  0  0
 35 25  1  0  0  0  0
 37 27  1  0  0  0  0
 38 51  1  0  0  0  0
 39 38  1  0  0  0  0
 40 39  1  0  0  0  0
 40 52  1  0  0  0  0
 41 40  2  0  0  0  0
 42 48  2  0  0  0  0
 42 41  1  0  0  0  0
 43 44  1  0  0  0  0
 43 42  1  0  0  0  0
 44 56  1  6  0  0  0
 44 45  1  0  0  0  0
 44 46  1  0  0  0  0
 45 57  1  0  0  0  0
 46 50  1  0  0  0  0
 47 46  2  0  0  0  0
 48 49  1  0  0  0  0
 49 59  1  0  0  0  0
 49 39  2  0  0  0  0
 53 41  1  0  0  0  0
 54 43  1  0  0  0  0
 55 43  1  0  0  0  0
 58 48  1  0  0  0  0
M  END
$$$$
