IRC.pdb
 OpenBabel07022418393D

 55 54  0  0  1  0  0  0  0  0999 V2000
    0.5360   -4.2830    4.0350 C   0  0  0  0  0  0  0  0  0  0  0  0
    2.0140   -4.3070    3.8600 C   0  0  0  0  0  0  0  0  0  0  0  0
    2.6390   -3.0540    3.3590 C   0  0  2  0  0  0  0  0  0  0  0  0
    2.3690   -1.8520    4.2390 C   0  0  0  0  0  0  0  0  0  0  0  0
    2.5430   -2.8000    1.8950 C   0  0  2  0  0  0  0  0  0  0  0  0
    3.2170   -1.5170    1.6710 N   0  0  0  0  0  0  0  0  0  0  0  0
    1.2010   -2.8150    1.3030 C   0  0  0  0  0  0  0  0  0  0  0  0
    0.5930   -3.8880    1.1560 O   0  0  0  0  0  0  0  0  0  0  0  0
    0.0820   -5.1240    3.4810 H   0  0  0  0  0  0  0  0  0  0  0  0
    0.2710   -4.5020    5.1180 H   0  0  0  0  0  0  0  0  0  0  0  0
    0.0350   -3.3480    3.7180 H   0  0  0  0  0  0  0  0  0  0  0  0
    2.4730   -4.6190    4.8450 H   0  0  0  0  0  0  0  0  0  0  0  0
    2.2770   -5.1770    3.1850 H   0  0  0  0  0  0  0  0  0  0  0  0
    3.7810   -3.2390    3.5370 H   0  0  0  0  0  0  0  0  0  0  0  0
    3.2160   -1.1350    4.1420 H   0  0  0  0  0  0  0  0  0  0  0  0
    1.4270   -1.3470    3.9960 H   0  0  0  0  0  0  0  0  0  0  0  0
    2.3860   -2.2200    5.2850 H   0  0  0  0  0  0  0  0  0  0  0  0
    3.2310   -3.5440    1.3850 H   0  0  0  0  0  0  0  0  0  0  0  0
    2.7710   -0.7450    2.1890 H   0  0  0  0  0  0  0  0  0  0  0  0
    3.1840   -1.2720    0.6600 H   0  0  0  0  0  0  0  0  0  0  0  0
   -0.3530    5.1060    0.1670 N   0  0  0  0  0  0  0  0  0  0  0  0
   -1.0940    3.9170   -0.1750 C   0  0  0  0  0  0  0  0  0  0  0  0
   -1.6710    3.7880   -1.3290 N   0  0  0  0  0  0  0  0  0  0  0  0
   -1.2240    2.8420    0.7310 N   0  0  0  0  0  0  0  0  0  0  0  0
   -1.4570    1.4620    0.2820 C   0  0  0  0  0  0  0  0  0  0  0  0
   -1.5540    0.5310    1.4600 C   0  0  0  0  0  0  0  0  0  0  0  0
   -1.7950   -0.8950    1.1280 C   0  0  0  0  0  0  0  0  0  0  0  0
   -0.7730   -1.5790    0.2920 C   0  0  2  0  0  0  0  0  0  0  0  0
    0.5400   -1.6040    0.8750 N   0  0  0  0  0  0  0  0  0  0  0  0
   -0.7790   -1.2080   -1.1410 C   0  0  0  0  0  0  0  0  0  0  0  0
    0.2740   -0.9660   -1.7760 O   0  0  0  0  0  0  0  0  0  0  0  0
   -0.6230    5.6100    1.0320 H   0  0  0  0  0  0  0  0  0  0  0  0
    0.4270    5.4680   -0.4130 H   0  0  0  0  0  0  0  0  0  0  0  0
   -1.5700    4.5980   -2.0050 H   0  0  0  0  0  0  0  0  0  0  0  0
   -1.1560    3.0130    1.7540 H   0  0  0  0  0  0  0  0  0  0  0  0
   -2.4340    1.5160   -0.2830 H   0  0  0  0  0  0  0  0  0  0  0  0
   -0.7000    1.1930   -0.4530 H   0  0  0  0  0  0  0  0  0  0  0  0
   -2.3760    0.9460    2.1070 H   0  0  0  0  0  0  0  0  0  0  0  0
   -0.6330    0.7000    2.0640 H   0  0  0  0  0  0  0  0  0  0  0  0
   -1.9380   -1.4330    2.1120 H   0  0  0  0  0  0  0  0  0  0  0  0
   -2.8150   -0.9770    0.6610 H   0  0  0  0  0  0  0  0  0  0  0  0
   -1.1060   -2.6730    0.2630 H   0  0  0  0  0  0  0  0  0  0  0  0
    1.0970   -0.7340    1.0230 H   0  0  0  0  0  0  0  0  0  0  0  0
   -2.0130   -1.1220   -1.8250 N   0  0  0  0  0  0  0  0  0  0  0  0
   -2.0000   -0.7590   -3.2260 C   0  0  1  0  0  0  0  0  0  0  0  0
   -1.4810    0.6410   -3.4600 C   0  0  0  0  0  0  0  0  0  0  0  0
   -1.4820    1.0540   -5.2260 S   0  0  0  0  0  0  0  0  0  0  0  0
   -1.1670   -1.6890   -4.0470 C   0  0  0  0  0  0  0  0  0  0  0  0
   -0.5780   -2.6760   -3.5480 O   0  0  0  0  0  0  0  0  0  0  0  0
   -1.0330   -1.4640   -5.4090 O   0  0  0  0  0  0  0  0  0  0  0  0
   -2.9420   -1.3190   -1.3330 H   0  0  0  0  0  0  0  0  0  0  0  0
   -3.0400   -0.7800   -3.6530 H   0  0  0  0  0  0  0  0  0  0  0  0
   -2.2150    1.3250   -2.9820 H   0  0  0  0  0  0  0  0  0  0  0  0
   -0.5140    0.8510   -2.9830 H   0  0  0  0  0  0  0  0  0  0  0  0
   -2.7830    1.4960   -5.6130 H   0  0  0  0  0  0  0  0  0  0  0  0
  1 10  1  0  0  0  0
  2  1  1  0  0  0  0
  2 12  1  0  0  0  0
  3 14  1  1  0  0  0
  3  2  1  0  0  0  0
  3  4  1  0  0  0  0
  4 17  1  0  0  0  0
  5 18  1  6  0  0  0
  5  3  1  0  0  0  0
  6  5  1  0  0  0  0
  6 19  1  0  0  0  0
  7  5  1  0  0  0  0
  8  7  2  0  0  0  0
  9  1  1  0  0  0  0
 11  1  1  0  0  0  0
 13  2  1  0  0  0  0
 15  4  1  0  0  0  0
 16  4  1  0  0  0  0
 20  6  1  0  0  0  0
 21 32  1  0  0  0  0
 22 21  1  0  0  0  0
 22 24  1  0  0  0  0
 23 22  2  0  0  0  0
 24 35  1  0  0  0  0
 25 24  1  0  0  0  0
 25 26  1  0  0  0  0
 26 39  1  0  0  0  0
 26 38  1  0  0  0  0
 27 26  1  0  0  0  0
 27 40  1  0  0  0  0
 28 42  1  1  0  0  0
 28 29  1  0  0  0  0
 28 27  1  0  0  0  0
 29 43  1  0  0  0  0
 29  7  1  0  0  0  0
 30 28  1  0  0  0  0
 31 30  2  0  0  0  0
 33 21  1  0  0  0  0
 34 23  1  0  0  0  0
 36 25  1  0  0  0  0
 37 25  1  0  0  0  0
 41 27  1  0  0  0  0
 44 51  1  0  0  0  0
 44 30  1  0  0  0  0
 45 52  1  6  0  0  0
 45 44  1  0  0  0  0
 46 45  1  0  0  0  0
 46 54  1  0  0  0  0
 46 53  1  0  0  0  0
 47 46  1  0  0  0  0
 48 49  1  0  0  0  0
 48 45  1  0  0  0  0
 50 48  2  0  0  0  0
 55 47  1  0  0  0  0
M  END
$$$$
