IRE.pdb
 OpenBabel07022418393D

 60 59  0  0  1  0  0  0  0  0999 V2000
   -1.5550    3.2960    5.2470 C   0  0  0  0  0  0  0  0  0  0  0  0
   -2.0660    1.9010    5.3400 C   0  0  0  0  0  0  0  0  0  0  0  0
   -1.5600    0.9750    4.2390 C   0  0  2  0  0  0  0  0  0  0  0  0
   -0.0750    0.9240    4.3300 C   0  0  0  0  0  0  0  0  0  0  0  0
   -2.1130    1.3750    2.8990 C   0  0  2  0  0  0  0  0  0  0  0  0
   -3.5830    1.2810    3.0340 N   0  0  0  0  0  0  0  0  0  0  0  0
   -1.7140    0.5350    1.7730 C   0  0  0  0  0  0  0  0  0  0  0  0
   -2.5840   -0.1510    1.1260 O   0  0  0  0  0  0  0  0  0  0  0  0
   -2.3530    4.0230    4.9130 H   0  0  0  0  0  0  0  0  0  0  0  0
   -1.3050    3.6580    6.2880 H   0  0  0  0  0  0  0  0  0  0  0  0
   -0.6260    3.4330    4.6730 H   0  0  0  0  0  0  0  0  0  0  0  0
   -3.1930    1.9540    5.2950 H   0  0  0  0  0  0  0  0  0  0  0  0
   -1.8500    1.4780    6.3430 H   0  0  0  0  0  0  0  0  0  0  0  0
   -1.9460   -0.0440    4.5250 H   0  0  0  0  0  0  0  0  0  0  0  0
    0.3630   -0.0140    3.9460 H   0  0  0  0  0  0  0  0  0  0  0  0
    0.3750    1.8480    3.9150 H   0  0  0  0  0  0  0  0  0  0  0  0
    0.2380    0.9480    5.4170 H   0  0  0  0  0  0  0  0  0  0  0  0
   -1.9180    2.4590    2.7640 H   0  0  0  0  0  0  0  0  0  0  0  0
   -3.9870    2.1600    3.3890 H   0  0  0  0  0  0  0  0  0  0  0  0
   -3.8160    0.5270    3.7050 H   0  0  0  0  0  0  0  0  0  0  0  0
   -0.2350   -0.3190   -5.4200 N   0  0  0  0  0  0  0  0  0  0  0  0
   -0.6790    0.6140   -4.4520 C   0  0  0  0  0  0  0  0  0  0  0  0
   -0.5360    1.8990   -4.5870 N   0  0  0  0  0  0  0  0  0  0  0  0
   -1.3210    0.1290   -3.2560 N   0  0  0  0  0  0  0  0  0  0  0  0
   -1.4620    1.0490   -2.1530 C   0  0  0  0  0  0  0  0  0  0  0  0
   -0.1690    1.4230   -1.5150 C   0  0  0  0  0  0  0  0  0  0  0  0
    0.6170    0.2980   -0.9370 C   0  0  0  0  0  0  0  0  0  0  0  0
   -0.0540   -0.4780    0.1390 C   0  0  2  0  0  0  0  0  0  0  0  0
   -0.3920    0.3790    1.2770 N   0  0  0  0  0  0  0  0  0  0  0  0
    0.8370   -1.5870    0.5640 C   0  0  0  0  0  0  0  0  0  0  0  0
    1.2020   -1.7260    1.7560 O   0  0  0  0  0  0  0  0  0  0  0  0
   -0.8440   -1.0570   -5.8080 H   0  0  0  0  0  0  0  0  0  0  0  0
    0.7450   -0.2560   -5.7540 H   0  0  0  0  0  0  0  0  0  0  0  0
   -0.0670    2.2200   -5.4630 H   0  0  0  0  0  0  0  0  0  0  0  0
   -1.6640   -0.8680   -3.2250 H   0  0  0  0  0  0  0  0  0  0  0  0
   -1.8860    1.9900   -2.5970 H   0  0  0  0  0  0  0  0  0  0  0  0
   -2.2070    0.6530   -1.4630 H   0  0  0  0  0  0  0  0  0  0  0  0
   -0.3980    2.1370   -0.6920 H   0  0  0  0  0  0  0  0  0  0  0  0
    0.4620    1.9740   -2.2390 H   0  0  0  0  0  0  0  0  0  0  0  0
    0.9760   -0.3880   -1.7290 H   0  0  0  0  0  0  0  0  0  0  0  0
    1.5460    0.7490   -0.4880 H   0  0  0  0  0  0  0  0  0  0  0  0
   -1.0110   -0.8810   -0.2420 H   0  0  0  0  0  0  0  0  0  0  0  0
    0.3650    0.8970    1.7390 H   0  0  0  0  0  0  0  0  0  0  0  0
    1.2990   -2.5250   -0.3930 N   0  0  0  0  0  0  0  0  0  0  0  0
    2.1730   -3.6340   -0.0450 C   0  0  1  0  0  0  0  0  0  0  0  0
    1.4630   -4.8900   -0.4740 C   0  0  0  0  0  0  0  0  0  0  0  0
    2.2000   -6.1560   -0.1980 C   0  0  0  0  0  0  0  0  0  0  0  0
    1.4040   -7.3520   -0.6570 C   0  0  0  0  0  0  0  0  0  0  0  0
    1.8070   -8.5170   -0.5360 O   0  0  0  0  0  0  0  0  0  0  0  0
    3.4410   -3.4850   -0.7870 C   0  0  0  0  0  0  0  0  0  0  0  0
    4.3920   -4.2880   -0.6590 O   0  0  0  0  0  0  0  0  0  0  0  0
    0.1640   -7.1390   -1.2410 O   0  0  0  0  0  0  0  0  0  0  0  0
    3.5930   -2.4230   -1.6590 O   0  0  0  0  0  0  0  0  0  0  0  0
    1.0210   -2.4520   -1.4050 H   0  0  0  0  0  0  0  0  0  0  0  0
    2.3900   -3.6580    1.0370 H   0  0  0  0  0  0  0  0  0  0  0  0
    1.2030   -4.8470   -1.5680 H   0  0  0  0  0  0  0  0  0  0  0  0
    0.4580   -4.9800    0.0280 H   0  0  0  0  0  0  0  0  0  0  0  0
    2.3990   -6.3180    0.8760 H   0  0  0  0  0  0  0  0  0  0  0  0
    3.1440   -6.2140   -0.7930 H   0  0  0  0  0  0  0  0  0  0  0  0
   -0.5090   -7.8770   -1.4140 H   0  0  0  0  0  0  0  0  0  0  0  0
  1  2  1  0  0  0  0
  1 10  1  0  0  0  0
  2 13  1  0  0  0  0
  3  4  1  0  0  0  0
  3 14  1  1  0  0  0
  3  2  1  0  0  0  0
  4 17  1  0  0  0  0
  5 18  1  6  0  0  0
  5  6  1  0  0  0  0
  5  3  1  0  0  0  0
  6 19  1  0  0  0  0
  6 20  1  0  0  0  0
  7  5  1  0  0  0  0
  8  7  2  0  0  0  0
  9  1  1  0  0  0  0
 11  1  1  0  0  0  0
 12  2  1  0  0  0  0
 15  4  1  0  0  0  0
 16  4  1  0  0  0  0
 21 22  1  0  0  0  0
 22 24  1  0  0  0  0
 23 22  2  0  0  0  0
 24 35  1  0  0  0  0
 24 25  1  0  0  0  0
 25 26  1  0  0  0  0
 25 37  1  0  0  0  0
 26 27  1  0  0  0  0
 26 38  1  0  0  0  0
 27 41  1  0  0  0  0
 27 28  1  0  0  0  0
 28 42  1  6  0  0  0
 28 30  1  0  0  0  0
 28 29  1  0  0  0  0
 29 43  1  0  0  0  0
 29  7  1  0  0  0  0
 30 31  2  0  0  0  0
 32 21  1  0  0  0  0
 33 21  1  0  0  0  0
 34 23  1  0  0  0  0
 36 25  1  0  0  0  0
 39 26  1  0  0  0  0
 40 27  1  0  0  0  0
 44 45  1  0  0  0  0
 44 30  1  0  0  0  0
 45 55  1  1  0  0  0
 46 47  1  0  0  0  0
 46 45  1  0  0  0  0
 46 57  1  0  0  0  0
 47 58  1  0  0  0  0
 48 49  2  0  0  0  0
 48 47  1  0  0  0  0
 50 51  1  0  0  0  0
 50 45  1  0  0  0  0
 52 48  1  0  0  0  0
 53 50  2  0  0  0  0
 54 44  1  0  0  0  0
 56 46  1  0  0  0  0
 59 47  1  0  0  0  0
 60 52  1  0  0  0  0
M  END
$$$$
