IRI.pdb
 OpenBabel07022418393D

 63 62  0  0  1  0  0  0  0  0999 V2000
   -0.0090   -2.2550    3.4970 C   0  0  0  0  0  0  0  0  0  0  0  0
    0.6840   -1.6470    4.6570 C   0  0  0  0  0  0  0  0  0  0  0  0
    1.2940   -0.2970    4.4330 C   0  0  2  0  0  0  0  0  0  0  0  0
    1.9500    0.0680    5.7850 C   0  0  0  0  0  0  0  0  0  0  0  0
    0.3470    0.8060    4.1470 C   0  0  2  0  0  0  0  0  0  0  0  0
   -0.5940    0.9830    5.2480 N   0  0  0  0  0  0  0  0  0  0  0  0
   -0.3130    0.8120    2.8500 C   0  0  0  0  0  0  0  0  0  0  0  0
   -1.5660    0.9610    2.8300 O   0  0  0  0  0  0  0  0  0  0  0  0
   -0.6320   -1.6170    2.8800 H   0  0  0  0  0  0  0  0  0  0  0  0
   -0.7010   -3.0490    3.9090 H   0  0  0  0  0  0  0  0  0  0  0  0
    0.6830   -2.8200    2.8250 H   0  0  0  0  0  0  0  0  0  0  0  0
   -0.0160   -1.6010    5.5180 H   0  0  0  0  0  0  0  0  0  0  0  0
    1.4970   -2.3390    4.9790 H   0  0  0  0  0  0  0  0  0  0  0  0
    2.1310   -0.3160    3.7090 H   0  0  0  0  0  0  0  0  0  0  0  0
    1.5140   -0.5170    6.6100 H   0  0  0  0  0  0  0  0  0  0  0  0
    1.8620    1.1530    5.9910 H   0  0  0  0  0  0  0  0  0  0  0  0
    3.0460   -0.1910    5.7610 H   0  0  0  0  0  0  0  0  0  0  0  0
    0.9670    1.7600    4.1800 H   0  0  0  0  0  0  0  0  0  0  0  0
   -0.2250    0.6770    6.1510 H   0  0  0  0  0  0  0  0  0  0  0  0
   -0.9750    1.9410    5.1980 H   0  0  0  0  0  0  0  0  0  0  0  0
    3.7440    1.3530   -2.8340 N   0  0  0  0  0  0  0  0  0  0  0  0
    2.3890    0.8910   -2.8060 C   0  0  0  0  0  0  0  0  0  0  0  0
    2.1110   -0.2300   -2.2560 N   0  0  0  0  0  0  0  0  0  0  0  0
    1.3340    1.6190   -3.3760 N   0  0  0  0  0  0  0  0  0  0  0  0
    0.0030    1.6820   -2.9360 C   0  0  0  0  0  0  0  0  0  0  0  0
   -0.3530    2.3420   -1.6870 C   0  0  0  0  0  0  0  0  0  0  0  0
    0.0900    1.9000   -0.3650 C   0  0  0  0  0  0  0  0  0  0  0  0
   -0.3410    0.6710    0.3010 C   0  0  2  0  0  0  0  0  0  0  0  0
    0.3830    0.6600    1.6420 N   0  0  0  0  0  0  0  0  0  0  0  0
   -0.2450   -0.6550   -0.1970 C   0  0  0  0  0  0  0  0  0  0  0  0
    0.6140   -1.4510    0.3640 O   0  0  0  0  0  0  0  0  0  0  0  0
    4.0160    2.1950   -2.3020 H   0  0  0  0  0  0  0  0  0  0  0  0
    4.4560    0.8340   -3.3990 H   0  0  0  0  0  0  0  0  0  0  0  0
    2.8050   -0.8370   -1.8240 H   0  0  0  0  0  0  0  0  0  0  0  0
    1.5980    2.1900   -4.2490 H   0  0  0  0  0  0  0  0  0  0  0  0
   -0.5620    2.2770   -3.7650 H   0  0  0  0  0  0  0  0  0  0  0  0
   -0.5120    0.7100   -3.0040 H   0  0  0  0  0  0  0  0  0  0  0  0
   -0.2640    3.4980   -1.7790 H   0  0  0  0  0  0  0  0  0  0  0  0
   -1.5120    2.2920   -1.6380 H   0  0  0  0  0  0  0  0  0  0  0  0
   -0.2100    2.7470    0.3780 H   0  0  0  0  0  0  0  0  0  0  0  0
    1.2310    1.9830   -0.2560 H   0  0  0  0  0  0  0  0  0  0  0  0
   -1.4270    0.8410    0.6390 H   0  0  0  0  0  0  0  0  0  0  0  0
    1.4080    0.5390    1.6690 H   0  0  0  0  0  0  0  0  0  0  0  0
   -3.8590   -2.0970   -1.3790 C   0  0  0  0  0  0  0  0  0  0  0  0
   -3.1760   -3.3310   -1.8940 C   0  0  0  0  0  0  0  0  0  0  0  0
   -1.8590   -3.6230   -1.2670 C   0  0  2  0  0  0  0  0  0  0  0  0
   -1.9150   -3.8220    0.2200 C   0  0  0  0  0  0  0  0  0  0  0  0
   -0.7390   -2.6880   -1.5980 C   0  0  2  0  0  0  0  0  0  0  0  0
   -0.9610   -1.3160   -1.2440 N   0  0  0  0  0  0  0  0  0  0  0  0
   -0.3170   -2.8070   -3.0030 C   0  0  0  0  0  0  0  0  0  0  0  0
   -0.0890   -3.9600   -3.5230 O   0  0  0  0  0  0  0  0  0  0  0  0
   -0.1250   -1.7520   -3.8790 O   0  0  0  0  0  0  0  0  0  0  0  0
   -3.3800   -1.7520   -0.4410 H   0  0  0  0  0  0  0  0  0  0  0  0
   -3.9340   -1.3220   -2.1680 H   0  0  0  0  0  0  0  0  0  0  0  0
   -4.9280   -2.3090   -1.0840 H   0  0  0  0  0  0  0  0  0  0  0  0
   -3.8850   -4.1930   -1.7020 H   0  0  0  0  0  0  0  0  0  0  0  0
   -3.1200   -3.2460   -2.9940 H   0  0  0  0  0  0  0  0  0  0  0  0
   -1.5180   -4.6300   -1.6770 H   0  0  0  0  0  0  0  0  0  0  0  0
   -2.6500   -4.5690    0.5310 H   0  0  0  0  0  0  0  0  0  0  0  0
   -0.9070   -4.2240    0.5210 H   0  0  0  0  0  0  0  0  0  0  0  0
   -2.0560   -2.8180    0.6780 H   0  0  0  0  0  0  0  0  0  0  0  0
    0.1450   -3.1060   -1.0040 H   0  0  0  0  0  0  0  0  0  0  0  0
   -1.6720   -0.7520   -1.7360 H   0  0  0  0  0  0  0  0  0  0  0  0
  1 10  1  0  0  0  0
  1  2  1  0  0  0  0
  2 13  1  0  0  0  0
  2 12  1  0  0  0  0
  3 14  1  6  0  0  0
  3  2  1  0  0  0  0
  3  4  1  0  0  0  0
  4 16  1  0  0  0  0
  4 15  1  0  0  0  0
  5 18  1  1  0  0  0
  5  3  1  0  0  0  0
  5  6  1  0  0  0  0
  6 19  1  0  0  0  0
  7  5  1  0  0  0  0
  8  7  2  0  0  0  0
  9  1  1  0  0  0  0
 11  1  1  0  0  0  0
 17  4  1  0  0  0  0
 20  6  1  0  0  0  0
 21 22  1  0  0  0  0
 21 32  1  0  0  0  0
 22 23  2  0  0  0  0
 23 34  1  0  0  0  0
 24 25  1  0  0  0  0
 24 22  1  0  0  0  0
 25 26  1  0  0  0  0
 26 39  1  0  0  0  0
 26 27  1  0  0  0  0
 27 41  1  0  0  0  0
 27 28  1  0  0  0  0
 27 40  1  0  0  0  0
 28 42  1  1  0  0  0
 28 29  1  0  0  0  0
 29 43  1  0  0  0  0
 29  7  1  0  0  0  0
 30 28  1  0  0  0  0
 30 31  2  0  0  0  0
 33 21  1  0  0  0  0
 35 24  1  0  0  0  0
 36 25  1  0  0  0  0
 37 25  1  0  0  0  0
 38 26  1  0  0  0  0
 44 55  1  0  0  0  0
 44 53  1  0  0  0  0
 45 56  1  0  0  0  0
 45 44  1  0  0  0  0
 45 46  1  0  0  0  0
 46 58  1  6  0  0  0
 46 47  1  0  0  0  0
 47 60  1  0  0  0  0
 47 59  1  0  0  0  0
 47 61  1  0  0  0  0
 48 46  1  0  0  0  0
 48 49  1  0  0  0  0
 48 62  1  1  0  0  0
 49 30  1  0  0  0  0
 50 48  1  0  0  0  0
 51 50  1  0  0  0  0
 52 50  2  0  0  0  0
 54 44  1  0  0  0  0
 57 45  1  0  0  0  0
 63 49  1  0  0  0  0
M  END
$$$$
