IRN.pdb
 OpenBabel07022418393D

 58 57  0  0  1  0  0  0  0  0999 V2000
    1.2610   -3.0380    3.0850 C   0  0  0  0  0  0  0  0  0  0  0  0
    2.6380   -2.5100    2.9570 C   0  0  0  0  0  0  0  0  0  0  0  0
    2.8850   -1.1060    3.3150 C   0  0  2  0  0  0  0  0  0  0  0  0
    2.4890   -0.8430    4.7580 C   0  0  0  0  0  0  0  0  0  0  0  0
    2.5880   -0.0200    2.3670 C   0  0  2  0  0  0  0  0  0  0  0  0
    2.9440    1.2790    3.0340 N   0  0  0  0  0  0  0  0  0  0  0  0
    1.2580    0.1090    1.7970 C   0  0  0  0  0  0  0  0  0  0  0  0
    0.4910    1.0690    2.1720 O   0  0  0  0  0  0  0  0  0  0  0  0
    1.0520   -3.8880    2.3710 H   0  0  0  0  0  0  0  0  0  0  0  0
    0.4370   -2.3350    3.0500 H   0  0  0  0  0  0  0  0  0  0  0  0
    1.1510   -3.5580    4.0900 H   0  0  0  0  0  0  0  0  0  0  0  0
    3.2930   -3.1450    3.6340 H   0  0  0  0  0  0  0  0  0  0  0  0
    3.0120   -2.7820    1.9410 H   0  0  0  0  0  0  0  0  0  0  0  0
    4.0550   -1.0610    3.4060 H   0  0  0  0  0  0  0  0  0  0  0  0
    3.0830   -0.0700    5.2420 H   0  0  0  0  0  0  0  0  0  0  0  0
    2.7000   -1.8020    5.3160 H   0  0  0  0  0  0  0  0  0  0  0  0
    1.4310   -0.6280    4.8940 H   0  0  0  0  0  0  0  0  0  0  0  0
    3.3020   -0.0020    1.4850 H   0  0  0  0  0  0  0  0  0  0  0  0
    2.7390    2.0010    2.3030 H   0  0  0  0  0  0  0  0  0  0  0  0
    3.9840    1.2360    3.1180 H   0  0  0  0  0  0  0  0  0  0  0  0
    3.5380    3.9600   -1.6470 N   0  0  0  0  0  0  0  0  0  0  0  0
    2.9050    2.8100   -2.1380 C   0  0  0  0  0  0  0  0  0  0  0  0
    3.5710    1.6930   -2.1860 N   0  0  0  0  0  0  0  0  0  0  0  0
    1.5480    2.7830   -2.6030 N   0  0  0  0  0  0  0  0  0  0  0  0
    0.7680    1.5640   -2.6050 C   0  0  0  0  0  0  0  0  0  0  0  0
    0.4550    1.0970   -1.2010 C   0  0  0  0  0  0  0  0  0  0  0  0
   -0.3580   -0.1640   -1.1940 C   0  0  0  0  0  0  0  0  0  0  0  0
   -0.6200   -0.5570    0.2780 C   0  0  2  0  0  0  0  0  0  0  0  0
    0.7150   -0.7460    0.8310 N   0  0  0  0  0  0  0  0  0  0  0  0
   -1.3090   -1.8550    0.2030 C   0  0  0  0  0  0  0  0  0  0  0  0
   -0.7060   -2.8940    0.5560 O   0  0  0  0  0  0  0  0  0  0  0  0
    3.8510    4.1190   -0.6580 H   0  0  0  0  0  0  0  0  0  0  0  0
    3.7330    4.7640   -2.3120 H   0  0  0  0  0  0  0  0  0  0  0  0
    4.5540    1.6340   -1.8690 H   0  0  0  0  0  0  0  0  0  0  0  0
    1.1510    3.6880   -2.9400 H   0  0  0  0  0  0  0  0  0  0  0  0
   -0.1580    1.7560   -3.1760 H   0  0  0  0  0  0  0  0  0  0  0  0
    1.3700    0.7760   -3.1090 H   0  0  0  0  0  0  0  0  0  0  0  0
    1.3770    0.9530   -0.6030 H   0  0  0  0  0  0  0  0  0  0  0  0
   -0.1500    1.8860   -0.7040 H   0  0  0  0  0  0  0  0  0  0  0  0
   -1.3140   -0.0630   -1.7420 H   0  0  0  0  0  0  0  0  0  0  0  0
    0.2350   -0.9580   -1.6890 H   0  0  0  0  0  0  0  0  0  0  0  0
   -1.1710    0.2460    0.7790 H   0  0  0  0  0  0  0  0  0  0  0  0
    1.2620   -1.5470    0.4830 H   0  0  0  0  0  0  0  0  0  0  0  0
   -6.6220   -2.6060   -0.4390 N   0  0  0  0  0  0  0  0  0  0  0  0
   -5.4470   -2.3060    0.2640 C   0  0  0  0  0  0  0  0  0  0  0  0
   -5.2090   -1.1080    0.5850 O   0  0  0  0  0  0  0  0  0  0  0  0
   -4.4280   -3.3270    0.6720 C   0  0  0  0  0  0  0  0  0  0  0  0
   -3.2440   -3.2970   -0.2970 C   0  0  2  0  0  0  0  0  0  0  0  0
   -2.6560   -1.9760   -0.2620 N   0  0  0  0  0  0  0  0  0  0  0  0
   -3.7100   -3.6240   -1.6630 C   0  0  0  0  0  0  0  0  0  0  0  0
   -4.2630   -4.7120   -1.9480 O   0  0  0  0  0  0  0  0  0  0  0  0
   -3.5320   -2.6940   -2.6820 O   0  0  0  0  0  0  0  0  0  0  0  0
   -7.5630   -2.2050   -0.2260 H   0  0  0  0  0  0  0  0  0  0  0  0
   -6.5800   -3.2890   -1.2530 H   0  0  0  0  0  0  0  0  0  0  0  0
   -4.1140   -3.1740    1.7050 H   0  0  0  0  0  0  0  0  0  0  0  0
   -4.9370   -4.3180    0.5890 H   0  0  0  0  0  0  0  0  0  0  0  0
   -2.5240   -4.0730    0.0650 H   0  0  0  0  0  0  0  0  0  0  0  0
   -3.1530   -1.1260   -0.5530 H   0  0  0  0  0  0  0  0  0  0  0  0
  1 11  1  0  0  0  0
  2  1  1  0  0  0  0
  2  3  1  0  0  0  0
  2 12  1  0  0  0  0
  3 14  1  1  0  0  0
  3  4  1  0  0  0  0
  4 17  1  0  0  0  0
  4 15  1  0  0  0  0
  4 16  1  0  0  0  0
  5 18  1  6  0  0  0
  5  6  1  0  0  0  0
  5  3  1  0  0  0  0
  6 20  1  0  0  0  0
  7  8  2  0  0  0  0
  7  5  1  0  0  0  0
  9  1  1  0  0  0  0
 10  1  1  0  0  0  0
 13  2  1  0  0  0  0
 19  6  1  0  0  0  0
 21 32  1  0  0  0  0
 22 21  1  0  0  0  0
 23 22  2  0  0  0  0
 23 34  1  0  0  0  0
 24 22  1  0  0  0  0
 25 24  1  0  0  0  0
 25 26  1  0  0  0  0
 26 27  1  0  0  0  0
 26 39  1  0  0  0  0
 26 38  1  0  0  0  0
 27 28  1  0  0  0  0
 28 42  1  1  0  0  0
 28 29  1  0  0  0  0
 29  7  1  0  0  0  0
 30 28  1  0  0  0  0
 30 31  2  0  0  0  0
 33 21  1  0  0  0  0
 35 24  1  0  0  0  0
 36 25  1  0  0  0  0
 37 25  1  0  0  0  0
 40 27  1  0  0  0  0
 41 27  1  0  0  0  0
 43 29  1  0  0  0  0
 44 53  1  0  0  0  0
 44 45  1  0  0  0  0
 45 46  2  0  0  0  0
 45 47  1  0  0  0  0
 47 55  1  0  0  0  0
 48 49  1  0  0  0  0
 48 57  1  1  0  0  0
 48 47  1  0  0  0  0
 49 30  1  0  0  0  0
 50 48  1  0  0  0  0
 51 50  1  0  0  0  0
 52 50  2  0  0  0  0
 54 44  1  0  0  0  0
 56 47  1  0  0  0  0
 58 49  1  0  0  0  0
M  END
$$$$
