IRS.pdb
 OpenBabel07022418393D

 55 54  0  0  1  0  0  0  0  0999 V2000
    2.9630   -4.0980    1.6410 C   0  0  0  0  0  0  0  0  0  0  0  0
    2.3850   -2.7180    1.2870 C   0  0  0  0  0  0  0  0  0  0  0  0
    2.3850   -1.8340    2.4800 C   0  0  2  0  0  0  0  0  0  0  0  0
    1.5520   -2.3780    3.6220 C   0  0  0  0  0  0  0  0  0  0  0  0
    2.0270   -0.4070    2.2650 C   0  0  2  0  0  0  0  0  0  0  0  0
    2.1100    0.2200    3.6060 N   0  0  0  0  0  0  0  0  0  0  0  0
    0.6410   -0.1670    1.8150 C   0  0  0  0  0  0  0  0  0  0  0  0
   -0.2680    0.3210    2.5730 O   0  0  0  0  0  0  0  0  0  0  0  0
    2.2370   -4.6980    2.2110 H   0  0  0  0  0  0  0  0  0  0  0  0
    3.8980   -3.9270    2.1900 H   0  0  0  0  0  0  0  0  0  0  0  0
    3.1170   -4.6220    0.6730 H   0  0  0  0  0  0  0  0  0  0  0  0
    1.3860   -2.9290    0.8570 H   0  0  0  0  0  0  0  0  0  0  0  0
    3.0160   -2.3260    0.4710 H   0  0  0  0  0  0  0  0  0  0  0  0
    3.4500   -1.8740    2.8830 H   0  0  0  0  0  0  0  0  0  0  0  0
    0.4780   -2.1070    3.5300 H   0  0  0  0  0  0  0  0  0  0  0  0
    1.7170   -3.4570    3.7710 H   0  0  0  0  0  0  0  0  0  0  0  0
    1.9140   -1.8670    4.5470 H   0  0  0  0  0  0  0  0  0  0  0  0
    2.7450    0.1560    1.6380 H   0  0  0  0  0  0  0  0  0  0  0  0
    1.1690    0.1790    4.0670 H   0  0  0  0  0  0  0  0  0  0  0  0
    2.4260    1.2070    3.5320 H   0  0  0  0  0  0  0  0  0  0  0  0
    3.1870    4.7720   -1.8090 N   0  0  0  0  0  0  0  0  0  0  0  0
    2.6480    3.5180   -1.4080 C   0  0  0  0  0  0  0  0  0  0  0  0
    3.4630    2.6440   -0.9220 N   0  0  0  0  0  0  0  0  0  0  0  0
    1.2860    3.1820   -1.5130 N   0  0  0  0  0  0  0  0  0  0  0  0
    0.7810    1.8120   -1.3040 C   0  0  0  0  0  0  0  0  0  0  0  0
   -0.6890    1.7470   -1.4780 C   0  0  0  0  0  0  0  0  0  0  0  0
   -1.2570    0.3850   -1.3060 C   0  0  0  0  0  0  0  0  0  0  0  0
   -1.1060   -0.2490    0.0060 C   0  0  2  0  0  0  0  0  0  0  0  0
    0.2220   -0.4680    0.4740 N   0  0  0  0  0  0  0  0  0  0  0  0
   -1.9010   -1.5330    0.1120 C   0  0  0  0  0  0  0  0  0  0  0  0
   -1.3070   -2.5190    0.5660 O   0  0  0  0  0  0  0  0  0  0  0  0
    4.0020    5.2320   -1.3690 H   0  0  0  0  0  0  0  0  0  0  0  0
    2.7240    5.2600   -2.6030 H   0  0  0  0  0  0  0  0  0  0  0  0
    3.1900    1.7060   -0.6000 H   0  0  0  0  0  0  0  0  0  0  0  0
    0.5910    3.9100   -1.7460 H   0  0  0  0  0  0  0  0  0  0  0  0
    1.1770    1.5080   -0.3430 H   0  0  0  0  0  0  0  0  0  0  0  0
    1.2810    1.1990   -2.0830 H   0  0  0  0  0  0  0  0  0  0  0  0
   -0.9000    2.0730   -2.5390 H   0  0  0  0  0  0  0  0  0  0  0  0
   -1.2360    2.5040   -0.8530 H   0  0  0  0  0  0  0  0  0  0  0  0
   -2.3710    0.4860   -1.5370 H   0  0  0  0  0  0  0  0  0  0  0  0
   -0.8950   -0.2450   -2.1610 H   0  0  0  0  0  0  0  0  0  0  0  0
   -1.6090    0.3950    0.8010 H   0  0  0  0  0  0  0  0  0  0  0  0
    0.9360   -0.8580   -0.1670 H   0  0  0  0  0  0  0  0  0  0  0  0
   -5.7870   -3.8440    1.0440 O   0  0  0  0  0  0  0  0  0  0  0  0
   -5.0710   -2.6780    0.8560 C   0  0  0  0  0  0  0  0  0  0  0  0
   -3.9300   -2.8980   -0.1410 C   0  0  2  0  0  0  0  0  0  0  0  0
   -3.2480   -1.6460   -0.2730 N   0  0  0  0  0  0  0  0  0  0  0  0
   -4.4950   -3.4000   -1.3930 C   0  0  0  0  0  0  0  0  0  0  0  0
   -5.1160   -4.4900   -1.3980 O   0  0  0  0  0  0  0  0  0  0  0  0
   -4.3740   -2.7170   -2.5920 O   0  0  0  0  0  0  0  0  0  0  0  0
   -5.3390   -4.3930    1.7360 H   0  0  0  0  0  0  0  0  0  0  0  0
   -5.6910   -1.8570    0.4350 H   0  0  0  0  0  0  0  0  0  0  0  0
   -4.6760   -2.3100    1.8210 H   0  0  0  0  0  0  0  0  0  0  0  0
   -3.2580   -3.6650    0.2780 H   0  0  0  0  0  0  0  0  0  0  0  0
   -3.7460   -0.8160   -0.6550 H   0  0  0  0  0  0  0  0  0  0  0  0
  1 10  1  0  0  0  0
  1  9  1  0  0  0  0
  2  1  1  0  0  0  0
  2  3  1  0  0  0  0
  3 14  1  1  0  0  0
  3  4  1  0  0  0  0
  4 16  1  0  0  0  0
  4 17  1  0  0  0  0
  5 18  1  6  0  0  0
  5  3  1  0  0  0  0
  5  6  1  0  0  0  0
  6 19  1  0  0  0  0
  7  5  1  0  0  0  0
  7  8  2  0  0  0  0
 11  1  1  0  0  0  0
 12  2  1  0  0  0  0
 13  2  1  0  0  0  0
 15  4  1  0  0  0  0
 20  6  1  0  0  0  0
 21 22  1  0  0  0  0
 21 32  1  0  0  0  0
 22 23  2  0  0  0  0
 23 34  1  0  0  0  0
 24 22  1  0  0  0  0
 24 25  1  0  0  0  0
 25 36  1  0  0  0  0
 26 27  1  0  0  0  0
 26 25  1  0  0  0  0
 26 39  1  0  0  0  0
 27 28  1  0  0  0  0
 28 30  1  0  0  0  0
 28 29  1  0  0  0  0
 28 42  1  1  0  0  0
 29  7  1  0  0  0  0
 30 31  2  0  0  0  0
 33 21  1  0  0  0  0
 35 24  1  0  0  0  0
 37 25  1  0  0  0  0
 38 26  1  0  0  0  0
 40 27  1  0  0  0  0
 41 27  1  0  0  0  0
 43 29  1  0  0  0  0
 44 51  1  0  0  0  0
 45 44  1  0  0  0  0
 45 53  1  0  0  0  0
 46 54  1  1  0  0  0
 46 45  1  0  0  0  0
 47 46  1  0  0  0  0
 47 30  1  0  0  0  0
 48 46  1  0  0  0  0
 49 48  1  0  0  0  0
 50 48  2  0  0  0  0
 52 45  1  0  0  0  0
 55 47  1  0  0  0  0
M  END
$$$$
