IRT.pdb
 OpenBabel07022418393D

 58 57  0  0  1  0  0  0  0  0999 V2000
    2.0370   -2.8620    1.7530 C   0  0  0  0  0  0  0  0  0  0  0  0
    2.8250   -2.3900    2.9220 C   0  0  0  0  0  0  0  0  0  0  0  0
    2.1130   -2.1750    4.1920 C   0  0  2  0  0  0  0  0  0  0  0  0
    1.4000   -3.4410    4.6990 C   0  0  0  0  0  0  0  0  0  0  0  0
    1.3270   -0.9350    4.3590 C   0  0  2  0  0  0  0  0  0  0  0  0
    0.7040   -0.9260    5.7090 N   0  0  0  0  0  0  0  0  0  0  0  0
    0.2520   -0.6360    3.4120 C   0  0  0  0  0  0  0  0  0  0  0  0
   -0.9800   -0.7740    3.7500 O   0  0  0  0  0  0  0  0  0  0  0  0
    0.9490   -2.8450    1.8490 H   0  0  0  0  0  0  0  0  0  0  0  0
    2.2790   -3.9360    1.4880 H   0  0  0  0  0  0  0  0  0  0  0  0
    2.3280   -2.2630    0.8510 H   0  0  0  0  0  0  0  0  0  0  0  0
    3.6440   -3.1590    3.0840 H   0  0  0  0  0  0  0  0  0  0  0  0
    3.3760   -1.4460    2.6730 H   0  0  0  0  0  0  0  0  0  0  0  0
    2.9840   -2.0360    4.9710 H   0  0  0  0  0  0  0  0  0  0  0  0
    0.6760   -3.1170    5.4650 H   0  0  0  0  0  0  0  0  0  0  0  0
    2.1700   -4.1370    5.1020 H   0  0  0  0  0  0  0  0  0  0  0  0
    0.9160   -3.9540    3.8320 H   0  0  0  0  0  0  0  0  0  0  0  0
    2.0350   -0.0680    4.3430 H   0  0  0  0  0  0  0  0  0  0  0  0
   -0.2580   -1.2990    5.6710 H   0  0  0  0  0  0  0  0  0  0  0  0
    1.3160   -1.3900    6.3930 H   0  0  0  0  0  0  0  0  0  0  0  0
    2.6210    0.1230   -2.5740 N   0  0  0  0  0  0  0  0  0  0  0  0
    1.6050    1.0860   -2.4290 C   0  0  0  0  0  0  0  0  0  0  0  0
    1.0300    1.6950   -3.4100 N   0  0  0  0  0  0  0  0  0  0  0  0
    1.1760    1.4160   -1.1010 N   0  0  0  0  0  0  0  0  0  0  0  0
    0.3380    2.5270   -0.8110 C   0  0  0  0  0  0  0  0  0  0  0  0
   -0.1400    2.5710    0.5820 C   0  0  0  0  0  0  0  0  0  0  0  0
   -1.0400    1.5620    1.1170 C   0  0  0  0  0  0  0  0  0  0  0  0
   -0.6920    0.1240    1.2290 C   0  0  2  0  0  0  0  0  0  0  0  0
    0.4440   -0.1640    2.0610 N   0  0  0  0  0  0  0  0  0  0  0  0
   -0.7580   -0.6420   -0.0420 C   0  0  0  0  0  0  0  0  0  0  0  0
    0.0970   -1.4820   -0.4180 O   0  0  0  0  0  0  0  0  0  0  0  0
    2.3700   -0.8720   -2.6700 H   0  0  0  0  0  0  0  0  0  0  0  0
    3.6090    0.4140   -2.5830 H   0  0  0  0  0  0  0  0  0  0  0  0
    1.3540    1.4420   -4.3750 H   0  0  0  0  0  0  0  0  0  0  0  0
    1.5450    0.8160   -0.3550 H   0  0  0  0  0  0  0  0  0  0  0  0
    0.9740    3.4470   -1.0510 H   0  0  0  0  0  0  0  0  0  0  0  0
   -0.4960    2.6390   -1.5600 H   0  0  0  0  0  0  0  0  0  0  0  0
   -0.6720    3.5860    0.7020 H   0  0  0  0  0  0  0  0  0  0  0  0
    0.7110    2.7010    1.3200 H   0  0  0  0  0  0  0  0  0  0  0  0
   -1.3150    1.9130    2.1830 H   0  0  0  0  0  0  0  0  0  0  0  0
   -2.0710    1.6110    0.6300 H   0  0  0  0  0  0  0  0  0  0  0  0
   -1.6340   -0.3030    1.7930 H   0  0  0  0  0  0  0  0  0  0  0  0
    1.4130   -0.0430    1.7260 H   0  0  0  0  0  0  0  0  0  0  0  0
   -3.1920   -3.0760   -3.2410 C   0  0  0  0  0  0  0  0  0  0  0  0
   -3.0540   -2.1860   -2.0340 C   0  0  1  0  0  0  0  0  0  0  0  0
   -2.7220   -3.0040   -0.9480 O   0  0  0  0  0  0  0  0  0  0  0  0
   -1.9130   -1.1890   -2.1710 C   0  0  2  0  0  0  0  0  0  0  0  0
   -1.8450   -0.4620   -0.9510 N   0  0  0  0  0  0  0  0  0  0  0  0
   -2.0400   -0.3780   -3.3710 C   0  0  0  0  0  0  0  0  0  0  0  0
   -2.0920   -0.9170   -4.4930 O   0  0  0  0  0  0  0  0  0  0  0  0
   -2.1050    0.9950   -3.2900 O   0  0  0  0  0  0  0  0  0  0  0  0
   -2.2280   -3.5780   -3.4810 H   0  0  0  0  0  0  0  0  0  0  0  0
   -3.9070   -3.8980   -2.9360 H   0  0  0  0  0  0  0  0  0  0  0  0
   -3.6730   -2.5880   -4.1010 H   0  0  0  0  0  0  0  0  0  0  0  0
   -4.0010   -1.7010   -1.7990 H   0  0  0  0  0  0  0  0  0  0  0  0
   -3.5220   -3.3400   -0.4780 H   0  0  0  0  0  0  0  0  0  0  0  0
   -0.9970   -1.8100   -2.2760 H   0  0  0  0  0  0  0  0  0  0  0  0
   -2.6230    0.2150   -0.7360 H   0  0  0  0  0  0  0  0  0  0  0  0
  1  9  1  0  0  0  0
  1  2  1  0  0  0  0
  2 12  1  0  0  0  0
  2  3  1  0  0  0  0
  3  5  1  0  0  0  0
  3  4  1  0  0  0  0
  3 14  1  1  0  0  0
  4 16  1  0  0  0  0
  4 15  1  0  0  0  0
  5 18  1  6  0  0  0
  5  6  1  0  0  0  0
  6 20  1  0  0  0  0
  7  8  2  0  0  0  0
  7  5  1  0  0  0  0
 10  1  1  0  0  0  0
 11  1  1  0  0  0  0
 13  2  1  0  0  0  0
 17  4  1  0  0  0  0
 19  6  1  0  0  0  0
 21 22  1  0  0  0  0
 22 24  1  0  0  0  0
 23 22  2  0  0  0  0
 24 25  1  0  0  0  0
 24 35  1  0  0  0  0
 25 26  1  0  0  0  0
 26 38  1  0  0  0  0
 26 27  1  0  0  0  0
 26 39  1  0  0  0  0
 27 28  1  0  0  0  0
 27 40  1  0  0  0  0
 28 42  1  1  0  0  0
 28 29  1  0  0  0  0
 29  7  1  0  0  0  0
 30 28  1  0  0  0  0
 31 30  2  0  0  0  0
 32 21  1  0  0  0  0
 33 21  1  0  0  0  0
 34 23  1  0  0  0  0
 36 25  1  0  0  0  0
 37 25  1  0  0  0  0
 41 27  1  0  0  0  0
 43 29  1  0  0  0  0
 44 53  1  0  0  0  0
 44 45  1  0  0  0  0
 45 55  1  1  0  0  0
 45 46  1  0  0  0  0
 46 56  1  0  0  0  0
 47 57  1  6  0  0  0
 47 45  1  0  0  0  0
 47 48  1  0  0  0  0
 48 58  1  0  0  0  0
 48 30  1  0  0  0  0
 49 51  1  0  0  0  0
 49 47  1  0  0  0  0
 50 49  2  0  0  0  0
 52 44  1  0  0  0  0
 54 44  1  0  0  0  0
M  END
$$$$
