IRV.pdb
 OpenBabel07022418403D

 60 59  0  0  1  0  0  0  0  0999 V2000
   -0.6690   -2.2700    5.4590 C   0  0  0  0  0  0  0  0  0  0  0  0
    0.5910   -3.0580    5.4180 C   0  0  0  0  0  0  0  0  0  0  0  0
    1.7250   -2.4890    4.6530 C   0  0  2  0  0  0  0  0  0  0  0  0
    2.1540   -1.1250    5.1360 C   0  0  0  0  0  0  0  0  0  0  0  0
    1.7300   -2.6470    3.1710 C   0  0  2  0  0  0  0  0  0  0  0  0
    2.9410   -1.9960    2.6660 N   0  0  0  0  0  0  0  0  0  0  0  0
    0.5290   -2.1330    2.4790 C   0  0  0  0  0  0  0  0  0  0  0  0
   -0.5390   -2.7810    2.6270 O   0  0  0  0  0  0  0  0  0  0  0  0
   -1.5140   -2.9000    5.1190 H   0  0  0  0  0  0  0  0  0  0  0  0
   -0.6800   -1.3370    4.8820 H   0  0  0  0  0  0  0  0  0  0  0  0
   -0.9450   -1.9950    6.5380 H   0  0  0  0  0  0  0  0  0  0  0  0
    0.3730   -4.0700    4.9510 H   0  0  0  0  0  0  0  0  0  0  0  0
    0.8910   -3.2890    6.4840 H   0  0  0  0  0  0  0  0  0  0  0  0
    2.6280   -3.1570    4.9920 H   0  0  0  0  0  0  0  0  0  0  0  0
    2.0150   -1.1260    6.2410 H   0  0  0  0  0  0  0  0  0  0  0  0
    1.6360   -0.3040    4.6310 H   0  0  0  0  0  0  0  0  0  0  0  0
    3.2400   -1.0170    4.9560 H   0  0  0  0  0  0  0  0  0  0  0  0
    1.8860   -3.7340    2.9550 H   0  0  0  0  0  0  0  0  0  0  0  0
    3.0100   -1.0030    2.9350 H   0  0  0  0  0  0  0  0  0  0  0  0
    3.7400   -2.4820    3.1700 H   0  0  0  0  0  0  0  0  0  0  0  0
    2.1940    0.8620   -2.8450 N   0  0  0  0  0  0  0  0  0  0  0  0
    1.4150    1.8310   -2.1540 C   0  0  0  0  0  0  0  0  0  0  0  0
    1.0010    2.9090   -2.7180 N   0  0  0  0  0  0  0  0  0  0  0  0
    1.0800    1.5840   -0.7650 N   0  0  0  0  0  0  0  0  0  0  0  0
    0.0760    2.4090   -0.1910 C   0  0  0  0  0  0  0  0  0  0  0  0
   -0.4000    2.0870    1.1730 C   0  0  0  0  0  0  0  0  0  0  0  0
   -1.1150    0.8310    1.3300 C   0  0  0  0  0  0  0  0  0  0  0  0
   -0.5970   -0.4890    1.0250 C   0  0  2  0  0  0  0  0  0  0  0  0
    0.5650   -0.9490    1.6690 N   0  0  0  0  0  0  0  0  0  0  0  0
   -0.5650   -0.8530   -0.4160 C   0  0  0  0  0  0  0  0  0  0  0  0
    0.4340   -1.5140   -0.8680 O   0  0  0  0  0  0  0  0  0  0  0  0
    2.6150    0.0660   -2.3470 H   0  0  0  0  0  0  0  0  0  0  0  0
    2.3450    0.9520   -3.8630 H   0  0  0  0  0  0  0  0  0  0  0  0
    1.2410    3.0820   -3.7100 H   0  0  0  0  0  0  0  0  0  0  0  0
    1.6260    0.8390   -0.2930 H   0  0  0  0  0  0  0  0  0  0  0  0
    0.4810    3.4710   -0.2620 H   0  0  0  0  0  0  0  0  0  0  0  0
   -0.8130    2.4650   -0.8980 H   0  0  0  0  0  0  0  0  0  0  0  0
   -1.1500    2.9200    1.4240 H   0  0  0  0  0  0  0  0  0  0  0  0
    0.3820    2.2840    1.9600 H   0  0  0  0  0  0  0  0  0  0  0  0
   -1.5750    0.8200    2.3900 H   0  0  0  0  0  0  0  0  0  0  0  0
   -2.0880    0.9520    0.7260 H   0  0  0  0  0  0  0  0  0  0  0  0
   -1.4420   -1.2180    1.4020 H   0  0  0  0  0  0  0  0  0  0  0  0
    1.5160   -0.5140    1.6380 H   0  0  0  0  0  0  0  0  0  0  0  0
   -2.4340   -2.4420   -4.4840 C   0  0  0  0  0  0  0  0  0  0  0  0
   -2.5170   -1.9980   -3.0630 C   0  0  0  0  0  0  0  0  0  0  0  0
   -2.2880   -3.1330   -2.0990 C   0  0  0  0  0  0  0  0  0  0  0  0
   -1.4430   -0.9400   -2.7730 C   0  0  2  0  0  0  0  0  0  0  0  0
   -1.5560   -0.5340   -1.3630 N   0  0  0  0  0  0  0  0  0  0  0  0
   -1.6030    0.2150   -3.6710 C   0  0  0  0  0  0  0  0  0  0  0  0
   -1.8240    1.3440   -3.1760 O   0  0  0  0  0  0  0  0  0  0  0  0
   -1.5170    0.0940   -5.0440 O   0  0  0  0  0  0  0  0  0  0  0  0
   -1.4150   -2.7210   -4.8110 H   0  0  0  0  0  0  0  0  0  0  0  0
   -3.0320   -3.4010   -4.5600 H   0  0  0  0  0  0  0  0  0  0  0  0
   -2.9210   -1.7460   -5.1970 H   0  0  0  0  0  0  0  0  0  0  0  0
   -3.5190   -1.5170   -2.9140 H   0  0  0  0  0  0  0  0  0  0  0  0
   -2.8390   -4.0320   -2.4400 H   0  0  0  0  0  0  0  0  0  0  0  0
   -1.2050   -3.3900   -2.1480 H   0  0  0  0  0  0  0  0  0  0  0  0
   -2.5790   -2.8060   -1.0790 H   0  0  0  0  0  0  0  0  0  0  0  0
   -0.4780   -1.4690   -2.8960 H   0  0  0  0  0  0  0  0  0  0  0  0
   -2.3870    0.0040   -1.0400 H   0  0  0  0  0  0  0  0  0  0  0  0
  1 11  1  0  0  0  0
  2  1  1  0  0  0  0
  2 13  1  0  0  0  0
  3 14  1  1  0  0  0
  3  4  1  0  0  0  0
  3  2  1  0  0  0  0
  4 15  1  0  0  0  0
  5 18  1  6  0  0  0
  5  3  1  0  0  0  0
  6 19  1  0  0  0  0
  6 20  1  0  0  0  0
  6  5  1  0  0  0  0
  7  8  2  0  0  0  0
  7  5  1  0  0  0  0
  9  1  1  0  0  0  0
 10  1  1  0  0  0  0
 12  2  1  0  0  0  0
 16  4  1  0  0  0  0
 17  4  1  0  0  0  0
 21 32  1  0  0  0  0
 21 22  1  0  0  0  0
 22 24  1  0  0  0  0
 23 22  2  0  0  0  0
 24 35  1  0  0  0  0
 24 25  1  0  0  0  0
 25 26  1  0  0  0  0
 26 27  1  0  0  0  0
 26 38  1  0  0  0  0
 26 39  1  0  0  0  0
 27 40  1  0  0  0  0
 28 27  1  0  0  0  0
 28 42  1  1  0  0  0
 28 29  1  0  0  0  0
 29  7  1  0  0  0  0
 30 28  1  0  0  0  0
 31 30  2  0  0  0  0
 33 21  1  0  0  0  0
 34 23  1  0  0  0  0
 36 25  1  0  0  0  0
 37 25  1  0  0  0  0
 41 27  1  0  0  0  0
 43 29  1  0  0  0  0
 44 45  1  0  0  0  0
 45 55  1  0  0  0  0
 45 47  1  0  0  0  0
 45 46  1  0  0  0  0
 46 58  1  0  0  0  0
 47 59  1  6  0  0  0
 47 48  1  0  0  0  0
 48 60  1  0  0  0  0
 48 30  1  0  0  0  0
 49 50  1  0  0  0  0
 49 47  1  0  0  0  0
 51 49  2  0  0  0  0
 52 44  1  0  0  0  0
 53 44  1  0  0  0  0
 54 44  1  0  0  0  0
 56 46  1  0  0  0  0
 57 46  1  0  0  0  0
M  END
$$$$
