IRW.pdb
 OpenBabel07022418403D

 68 69  0  0  1  0  0  0  0  0999 V2000
    4.8230    0.7110    4.7500 C   0  0  0  0  0  0  0  0  0  0  0  0
    4.5700    1.6460    3.6100 C   0  0  0  0  0  0  0  0  0  0  0  0
    3.1540    1.6420    3.1260 C   0  0  2  0  0  0  0  0  0  0  0  0
    2.1730    2.0360    4.1830 C   0  0  0  0  0  0  0  0  0  0  0  0
    2.7290    0.3260    2.5140 C   0  0  2  0  0  0  0  0  0  0  0  0
    3.5570   -0.0170    1.3650 N   0  0  0  0  0  0  0  0  0  0  0  0
    1.3470    0.5240    2.0020 C   0  0  0  0  0  0  0  0  0  0  0  0
    0.3760    0.8240    2.7710 O   0  0  0  0  0  0  0  0  0  0  0  0
    5.6570    1.1390    5.3600 H   0  0  0  0  0  0  0  0  0  0  0  0
    5.1030   -0.2870    4.3350 H   0  0  0  0  0  0  0  0  0  0  0  0
    3.9190    0.5400    5.3730 H   0  0  0  0  0  0  0  0  0  0  0  0
    4.7970    2.6790    3.9490 H   0  0  0  0  0  0  0  0  0  0  0  0
    5.2410    1.4500    2.7480 H   0  0  0  0  0  0  0  0  0  0  0  0
    3.0800    2.4000    2.3060 H   0  0  0  0  0  0  0  0  0  0  0  0
    1.7580    1.1060    4.6320 H   0  0  0  0  0  0  0  0  0  0  0  0
    2.6490    2.6780    4.9810 H   0  0  0  0  0  0  0  0  0  0  0  0
    1.3570    2.6950    3.7680 H   0  0  0  0  0  0  0  0  0  0  0  0
    2.7800   -0.4470    3.3090 H   0  0  0  0  0  0  0  0  0  0  0  0
    3.1960   -0.9620    1.0410 H   0  0  0  0  0  0  0  0  0  0  0  0
    4.5670   -0.1270    1.6320 H   0  0  0  0  0  0  0  0  0  0  0  0
   -2.4210    0.0490   -5.4250 N   0  0  0  0  0  0  0  0  0  0  0  0
   -1.3830   -0.2180   -4.4930 C   0  0  0  0  0  0  0  0  0  0  0  0
   -0.7360   -1.3100   -4.5410 N   0  0  0  0  0  0  0  0  0  0  0  0
   -1.0750    0.7460   -3.5050 N   0  0  0  0  0  0  0  0  0  0  0  0
    0.2780    0.7690   -2.9620 C   0  0  0  0  0  0  0  0  0  0  0  0
    0.4280    1.8610   -1.9430 C   0  0  0  0  0  0  0  0  0  0  0  0
   -0.4430    1.7900   -0.7520 C   0  0  0  0  0  0  0  0  0  0  0  0
   -0.3230    0.5850    0.1170 C   0  0  2  0  0  0  0  0  0  0  0  0
    1.0160    0.3940    0.6250 N   0  0  0  0  0  0  0  0  0  0  0  0
   -0.9520   -0.6250   -0.4330 C   0  0  0  0  0  0  0  0  0  0  0  0
   -0.3720   -1.7300   -0.5850 O   0  0  0  0  0  0  0  0  0  0  0  0
   -3.1140    0.8040   -5.2420 H   0  0  0  0  0  0  0  0  0  0  0  0
   -2.5380   -0.4800   -6.3130 H   0  0  0  0  0  0  0  0  0  0  0  0
    0.0300   -1.6330   -3.9400 H   0  0  0  0  0  0  0  0  0  0  0  0
   -1.7680    1.4330   -3.1560 H   0  0  0  0  0  0  0  0  0  0  0  0
    0.5940   -0.2170   -2.6010 H   0  0  0  0  0  0  0  0  0  0  0  0
    1.0050    1.0060   -3.7930 H   0  0  0  0  0  0  0  0  0  0  0  0
    0.1350    2.8100   -2.4950 H   0  0  0  0  0  0  0  0  0  0  0  0
    1.5030    2.0460   -1.7030 H   0  0  0  0  0  0  0  0  0  0  0  0
   -0.3570    2.7480   -0.1610 H   0  0  0  0  0  0  0  0  0  0  0  0
   -1.5110    1.8300   -1.1310 H   0  0  0  0  0  0  0  0  0  0  0  0
   -0.9800    0.8350    1.0280 H   0  0  0  0  0  0  0  0  0  0  0  0
    1.7890    0.1510   -0.0210 H   0  0  0  0  0  0  0  0  0  0  0  0
   -2.3380   -0.5790   -0.8320 N   0  0  0  0  0  0  0  0  0  0  0  0
   -3.0160   -1.7400   -1.3730 C   0  0  1  0  0  0  0  0  0  0  0  0
   -3.9290   -2.2520   -0.2250 C   0  0  0  0  0  0  0  0  0  0  0  0
   -3.0640   -2.6020    0.9280 C   0  0  0  0  0  0  0  0  0  0  0  0
   -2.8640   -1.8780    2.0860 C   0  0  0  0  0  0  0  0  0  0  0  0
   -2.0070   -2.5410    2.8810 N   0  0  0  0  0  0  0  0  0  0  0  0
   -1.6200   -3.6890    2.3000 C   0  0  0  0  0  0  0  0  0  0  0  0
   -0.7650   -4.6830    2.7230 C   0  0  0  0  0  0  0  0  0  0  0  0
   -0.5620   -5.7630    1.8890 C   0  0  0  0  0  0  0  0  0  0  0  0
   -1.2100   -5.8300    0.6600 C   0  0  0  0  0  0  0  0  0  0  0  0
   -2.0660   -4.8160    0.2550 C   0  0  0  0  0  0  0  0  0  0  0  0
   -2.2690   -3.7420    1.0820 C   0  0  0  0  0  0  0  0  0  0  0  0
   -3.9240   -1.3160   -2.4460 C   0  0  0  0  0  0  0  0  0  0  0  0
   -4.5690   -2.1980   -3.0900 O   0  0  0  0  0  0  0  0  0  0  0  0
   -4.0670    0.0290   -2.7410 O   0  0  0  0  0  0  0  0  0  0  0  0
   -2.8550    0.3110   -0.7250 H   0  0  0  0  0  0  0  0  0  0  0  0
   -2.3370   -2.5640   -1.6040 H   0  0  0  0  0  0  0  0  0  0  0  0
   -4.4670   -3.1290   -0.6000 H   0  0  0  0  0  0  0  0  0  0  0  0
   -4.5760   -1.4180    0.0530 H   0  0  0  0  0  0  0  0  0  0  0  0
   -3.3280   -0.9430    2.2950 H   0  0  0  0  0  0  0  0  0  0  0  0
   -1.6910   -2.1980    3.8240 H   0  0  0  0  0  0  0  0  0  0  0  0
   -0.2390   -4.6800    3.6630 H   0  0  0  0  0  0  0  0  0  0  0  0
    0.0890   -6.5880    2.1370 H   0  0  0  0  0  0  0  0  0  0  0  0
   -1.0550   -6.6710    0.0050 H   0  0  0  0  0  0  0  0  0  0  0  0
   -2.5880   -4.8270   -0.6880 H   0  0  0  0  0  0  0  0  0  0  0  0
  1  9  1  0  0  0  0
  1 11  1  0  0  0  0
  2 12  1  0  0  0  0
  2  1  1  0  0  0  0
  3 14  1  6  0  0  0
  3  2  1  0  0  0  0
  3  4  1  0  0  0  0
  4 15  1  0  0  0  0
  4 16  1  0  0  0  0
  5  3  1  0  0  0  0
  5 18  1  1  0  0  0
  6 20  1  0  0  0  0
  6  5  1  0  0  0  0
  7  5  1  0  0  0  0
  7  8  2  0  0  0  0
 10  1  1  0  0  0  0
 13  2  1  0  0  0  0
 17  4  1  0  0  0  0
 19  6  1  0  0  0  0
 21 32  1  0  0  0  0
 21 22  1  0  0  0  0
 22 24  1  0  0  0  0
 23 22  2  0  0  0  0
 23 34  1  0  0  0  0
 24 35  1  0  0  0  0
 24 25  1  0  0  0  0
 25 36  1  0  0  0  0
 25 26  1  0  0  0  0
 26 39  1  0  0  0  0
 26 27  1  0  0  0  0
 27 40  1  0  0  0  0
 27 28  1  0  0  0  0
 28 29  1  0  0  0  0
 28 42  1  1  0  0  0
 29  7  1  0  0  0  0
 30 28  1  0  0  0  0
 31 30  2  0  0  0  0
 33 21  1  0  0  0  0
 37 25  1  0  0  0  0
 38 26  1  0  0  0  0
 41 27  1  0  0  0  0
 43 29  1  0  0  0  0
 44 59  1  0  0  0  0
 44 30  1  0  0  0  0
 45 60  1  6  0  0  0
 45 44  1  0  0  0  0
 45 46  1  0  0  0  0
 46 62  1  0  0  0  0
 46 47  1  0  0  0  0
 47 55  1  0  0  0  0
 47 48  2  0  0  0  0
 48 63  1  0  0  0  0
 48 49  1  0  0  0  0
 49 64  1  0  0  0  0
 50 51  1  0  0  0  0
 50 49  1  0  0  0  0
 51 65  1  0  0  0  0
 52 66  1  0  0  0  0
 52 51  2  0  0  0  0
 53 52  1  0  0  0  0
 54 53  2  0  0  0  0
 54 55  1  0  0  0  0
 55 50  2  0  0  0  0
 56 45  1  0  0  0  0
 57 56  2  0  0  0  0
 58 56  1  0  0  0  0
 61 46  1  0  0  0  0
 67 53  1  0  0  0  0
 68 54  1  0  0  0  0
M  END
$$$$
