ISC.pdb
 OpenBabel07022418433D

 43 42  0  0  1  0  0  0  0  0999 V2000
    0.9400   -4.5510   -0.3460 C   0  0  0  0  0  0  0  0  0  0  0  0
    0.9720   -3.1240   -0.7750 C   0  0  0  0  0  0  0  0  0  0  0  0
    2.3210   -2.4880   -0.6870 C   0  0  2  0  0  0  0  0  0  0  0  0
    3.3060   -3.2150   -1.5560 C   0  0  0  0  0  0  0  0  0  0  0  0
    2.7980   -2.3950    0.7520 C   0  0  2  0  0  0  0  0  0  0  0  0
    2.8630   -3.7440    1.2770 N   0  0  0  0  0  0  0  0  0  0  0  0
    1.7840   -1.5860    1.5160 C   0  0  0  0  0  0  0  0  0  0  0  0
    1.1290   -2.0710    2.4580 O   0  0  0  0  0  0  0  0  0  0  0  0
    0.5460   -4.6710    0.6990 H   0  0  0  0  0  0  0  0  0  0  0  0
    0.1900   -5.0920   -0.9910 H   0  0  0  0  0  0  0  0  0  0  0  0
    1.8840   -5.0880   -0.4270 H   0  0  0  0  0  0  0  0  0  0  0  0
    0.2520   -2.5450   -0.1290 H   0  0  0  0  0  0  0  0  0  0  0  0
    0.5910   -3.0150   -1.8080 H   0  0  0  0  0  0  0  0  0  0  0  0
    2.2280   -1.4530   -1.1000 H   0  0  0  0  0  0  0  0  0  0  0  0
    4.1630   -3.5480   -0.9250 H   0  0  0  0  0  0  0  0  0  0  0  0
    2.8330   -4.0830   -2.0740 H   0  0  0  0  0  0  0  0  0  0  0  0
    3.7050   -2.5720   -2.3870 H   0  0  0  0  0  0  0  0  0  0  0  0
    3.7990   -1.9430    0.7900 H   0  0  0  0  0  0  0  0  0  0  0  0
    3.8320   -3.9540    1.6060 H   0  0  0  0  0  0  0  0  0  0  0  0
    2.2590   -3.7860    2.1280 H   0  0  0  0  0  0  0  0  0  0  0  0
    0.4930    2.5530    3.3140 O   0  0  0  0  0  0  0  0  0  0  0  0
    1.3360    1.7130    2.6080 C   0  0  0  0  0  0  0  0  0  0  0  0
    0.5810    0.6000    1.8820 C   0  0  2  0  0  0  0  0  0  0  0  0
    1.5520   -0.2290    1.1730 N   0  0  0  0  0  0  0  0  0  0  0  0
   -0.4560    1.1150    0.9770 C   0  0  0  0  0  0  0  0  0  0  0  0
   -0.4370    0.8450   -0.2740 O   0  0  0  0  0  0  0  0  0  0  0  0
    0.7590    3.5170    3.2510 H   0  0  0  0  0  0  0  0  0  0  0  0
    1.9770    2.2890    1.8950 H   0  0  0  0  0  0  0  0  0  0  0  0
    2.0270    1.2550    3.3450 H   0  0  0  0  0  0  0  0  0  0  0  0
    0.1280   -0.0350    2.6650 H   0  0  0  0  0  0  0  0  0  0  0  0
    2.0680    0.2150    0.4060 H   0  0  0  0  0  0  0  0  0  0  0  0
   -1.5310    1.9330    1.4180 N   0  0  0  0  0  0  0  0  0  0  0  0
   -2.5300    2.4100    0.4490 C   0  0  1  0  0  0  0  0  0  0  0  0
   -3.8640    1.7520    0.8240 C   0  0  0  0  0  0  0  0  0  0  0  0
   -3.7400   -0.0400    0.7490 S   0  0  0  0  0  0  0  0  0  0  0  0
   -2.6530    3.8690    0.4840 C   0  0  0  0  0  0  0  0  0  0  0  0
   -3.4610    4.4500   -0.2780 O   0  0  0  0  0  0  0  0  0  0  0  0
   -1.8920    4.6410    1.3460 O   0  0  0  0  0  0  0  0  0  0  0  0
   -1.6230    2.1980    2.4230 H   0  0  0  0  0  0  0  0  0  0  0  0
   -2.2910    2.0400   -0.5680 H   0  0  0  0  0  0  0  0  0  0  0  0
   -4.2130    2.1120    1.8010 H   0  0  0  0  0  0  0  0  0  0  0  0
   -4.6190    2.0770    0.0760 H   0  0  0  0  0  0  0  0  0  0  0  0
   -3.0420   -0.5870    1.8290 H   0  0  0  0  0  0  0  0  0  0  0  0
  1  9  1  0  0  0  0
  2  3  1  0  0  0  0
  2  1  1  0  0  0  0
  2 12  1  0  0  0  0
  3 14  1  6  0  0  0
  3  5  1  0  0  0  0
  4 15  1  0  0  0  0
  4  3  1  0  0  0  0
  5 18  1  1  0  0  0
  5  6  1  0  0  0  0
  5  7  1  0  0  0  0
  6 19  1  0  0  0  0
  6 20  1  0  0  0  0
  7  8  2  0  0  0  0
 10  1  1  0  0  0  0
 11  1  1  0  0  0  0
 13  2  1  0  0  0  0
 16  4  1  0  0  0  0
 17  4  1  0  0  0  0
 22 21  1  0  0  0  0
 22 29  1  0  0  0  0
 23 22  1  0  0  0  0
 23 30  1  1  0  0  0
 24  7  1  0  0  0  0
 24 23  1  0  0  0  0
 25 32  1  0  0  0  0
 25 23  1  0  0  0  0
 26 25  2  0  0  0  0
 27 21  1  0  0  0  0
 28 22  1  0  0  0  0
 31 24  1  0  0  0  0
 32 39  1  0  0  0  0
 33 40  1  6  0  0  0
 33 36  1  0  0  0  0
 33 34  1  0  0  0  0
 33 32  1  0  0  0  0
 34 41  1  0  0  0  0
 35 34  1  0  0  0  0
 35 43  1  0  0  0  0
 36 38  1  0  0  0  0
 37 36  2  0  0  0  0
 42 34  1  0  0  0  0
M  END
$$$$
