ISG.pdb
 OpenBabel07022418433D

 39 38  0  0  1  0  0  0  0  0999 V2000
   -0.9590   -4.4660    2.4580 C   0  0  0  0  0  0  0  0  0  0  0  0
    0.3980   -4.3340    1.8050 C   0  0  0  0  0  0  0  0  0  0  0  0
    0.1970   -3.8360    0.4010 C   0  0  2  0  0  0  0  0  0  0  0  0
    1.5490   -3.7090   -0.2780 C   0  0  0  0  0  0  0  0  0  0  0  0
   -0.5930   -2.5570    0.3080 C   0  0  2  0  0  0  0  0  0  0  0  0
   -0.6810   -2.2580   -1.1280 N   0  0  0  0  0  0  0  0  0  0  0  0
    0.0460   -1.4180    0.9660 C   0  0  0  0  0  0  0  0  0  0  0  0
    0.2830   -1.3740    2.2100 O   0  0  0  0  0  0  0  0  0  0  0  0
   -1.6280   -5.0650    1.7950 H   0  0  0  0  0  0  0  0  0  0  0  0
   -1.4110   -3.4710    2.5860 H   0  0  0  0  0  0  0  0  0  0  0  0
   -0.8200   -5.0060    3.4160 H   0  0  0  0  0  0  0  0  0  0  0  0
    1.0760   -3.7040    2.3950 H   0  0  0  0  0  0  0  0  0  0  0  0
    0.7870   -5.3870    1.7040 H   0  0  0  0  0  0  0  0  0  0  0  0
   -0.3630   -4.6090   -0.1570 H   0  0  0  0  0  0  0  0  0  0  0  0
    1.4630   -3.7700   -1.3630 H   0  0  0  0  0  0  0  0  0  0  0  0
    2.1360   -4.6080    0.0510 H   0  0  0  0  0  0  0  0  0  0  0  0
    2.1110   -2.8320    0.0840 H   0  0  0  0  0  0  0  0  0  0  0  0
   -1.5940   -2.7380    0.6990 H   0  0  0  0  0  0  0  0  0  0  0  0
   -0.5150   -3.0910   -1.7090 H   0  0  0  0  0  0  0  0  0  0  0  0
   -1.5730   -1.7920   -1.3550 H   0  0  0  0  0  0  0  0  0  0  0  0
    3.1420    2.1120    0.5180 O   0  0  0  0  0  0  0  0  0  0  0  0
    2.4110    1.0380    0.0590 C   0  0  0  0  0  0  0  0  0  0  0  0
    1.0690    0.8760    0.7870 C   0  0  2  0  0  0  0  0  0  0  0  0
    0.4300   -0.2890    0.1940 N   0  0  0  0  0  0  0  0  0  0  0  0
    0.2810    2.1100    0.5280 C   0  0  0  0  0  0  0  0  0  0  0  0
   -0.7940    2.0650   -0.1620 O   0  0  0  0  0  0  0  0  0  0  0  0
    3.2740    2.8270   -0.1820 H   0  0  0  0  0  0  0  0  0  0  0  0
    2.9700    0.0860    0.0470 H   0  0  0  0  0  0  0  0  0  0  0  0
    2.1360    1.2550   -1.0050 H   0  0  0  0  0  0  0  0  0  0  0  0
    1.2000    0.7490    1.8690 H   0  0  0  0  0  0  0  0  0  0  0  0
    0.2490   -0.2930   -0.8320 H   0  0  0  0  0  0  0  0  0  0  0  0
    0.7460    3.3390    1.0630 N   0  0  0  0  0  0  0  0  0  0  0  0
   -0.0660    4.5320    0.7820 C   0  0  0  0  0  0  0  0  0  0  0  0
   -1.4180    4.3010    1.3590 C   0  0  0  0  0  0  0  0  0  0  0  0
   -1.7440    3.2500    1.9770 O   0  0  0  0  0  0  0  0  0  0  0  0
   -2.4340    5.2600    1.2470 O   0  0  0  0  0  0  0  0  0  0  0  0
    1.6160    3.4490    1.6390 H   0  0  0  0  0  0  0  0  0  0  0  0
   -0.1750    4.5650   -0.3220 H   0  0  0  0  0  0  0  0  0  0  0  0
    0.4090    5.4380    1.1950 H   0  0  0  0  0  0  0  0  0  0  0  0
  1 10  1  0  0  0  0
  1 11  1  0  0  0  0
  2 12  1  0  0  0  0
  2  1  1  0  0  0  0
  3 14  1  6  0  0  0
  3  2  1  0  0  0  0
  4 16  1  0  0  0  0
  4 17  1  0  0  0  0
  4  3  1  0  0  0  0
  5  3  1  0  0  0  0
  5 18  1  1  0  0  0
  5  7  1  0  0  0  0
  6  5  1  0  0  0  0
  7  8  2  0  0  0  0
  9  1  1  0  0  0  0
 13  2  1  0  0  0  0
 15  4  1  0  0  0  0
 19  6  1  0  0  0  0
 20  6  1  0  0  0  0
 22 21  1  0  0  0  0
 22 23  1  0  0  0  0
 23 30  1  1  0  0  0
 24 23  1  0  0  0  0
 24  7  1  0  0  0  0
 25 23  1  0  0  0  0
 25 32  1  0  0  0  0
 26 25  2  0  0  0  0
 27 21  1  0  0  0  0
 28 22  1  0  0  0  0
 29 22  1  0  0  0  0
 31 24  1  0  0  0  0
 32 37  1  0  0  0  0
 33 32  1  0  0  0  0
 33 39  1  0  0  0  0
 33 34  1  0  0  0  0
 34 35  1  0  0  0  0
 36 34  2  0  0  0  0
 38 33  1  0  0  0  0
M  END
$$$$
