ISL.pdb
 OpenBabel07022418433D

 51 50  0  0  1  0  0  0  0  0999 V2000
   -0.8660   -5.5000    1.9130 C   0  0  0  0  0  0  0  0  0  0  0  0
    0.4970   -4.9980    1.5670 C   0  0  0  0  0  0  0  0  0  0  0  0
    0.5620   -3.4820    1.5180 C   0  0  2  0  0  0  0  0  0  0  0  0
   -0.3800   -2.9590    0.4960 C   0  0  0  0  0  0  0  0  0  0  0  0
    1.9960   -3.0290    1.3830 C   0  0  2  0  0  0  0  0  0  0  0  0
    2.7390   -3.5440    2.5680 N   0  0  0  0  0  0  0  0  0  0  0  0
    2.1710   -1.5690    1.3110 C   0  0  0  0  0  0  0  0  0  0  0  0
    2.5940   -0.9660    2.3550 O   0  0  0  0  0  0  0  0  0  0  0  0
   -0.8180   -6.0870    2.8520 H   0  0  0  0  0  0  0  0  0  0  0  0
   -1.5940   -4.6760    2.1160 H   0  0  0  0  0  0  0  0  0  0  0  0
   -1.2760   -6.2020    1.1360 H   0  0  0  0  0  0  0  0  0  0  0  0
    0.7450   -5.3530    0.5400 H   0  0  0  0  0  0  0  0  0  0  0  0
    1.2410   -5.4310    2.2510 H   0  0  0  0  0  0  0  0  0  0  0  0
    0.2270   -3.1310    2.5350 H   0  0  0  0  0  0  0  0  0  0  0  0
   -1.2930   -3.6330    0.3910 H   0  0  0  0  0  0  0  0  0  0  0  0
   -0.8400   -2.0060    0.8740 H   0  0  0  0  0  0  0  0  0  0  0  0
   -0.0030   -2.8860   -0.5290 H   0  0  0  0  0  0  0  0  0  0  0  0
    2.4380   -3.5370    0.5140 H   0  0  0  0  0  0  0  0  0  0  0  0
    3.0460   -4.5050    2.3170 H   0  0  0  0  0  0  0  0  0  0  0  0
    2.1120   -3.6020    3.3810 H   0  0  0  0  0  0  0  0  0  0  0  0
    3.1360    0.6850   -1.9230 O   0  0  0  0  0  0  0  0  0  0  0  0
    3.3380    1.0240   -0.6050 C   0  0  0  0  0  0  0  0  0  0  0  0
    2.1470    0.6870    0.2770 C   0  0  2  0  0  0  0  0  0  0  0  0
    1.9240   -0.7380    0.1950 N   0  0  0  0  0  0  0  0  0  0  0  0
    0.9540    1.4640   -0.0930 C   0  0  0  0  0  0  0  0  0  0  0  0
    0.9320    2.7200   -0.0640 O   0  0  0  0  0  0  0  0  0  0  0  0
    3.7970    0.0410   -2.2760 H   0  0  0  0  0  0  0  0  0  0  0  0
    3.6020    2.0860   -0.5360 H   0  0  0  0  0  0  0  0  0  0  0  0
    4.1960    0.4480   -0.1930 H   0  0  0  0  0  0  0  0  0  0  0  0
    2.4650    0.9650    1.3080 H   0  0  0  0  0  0  0  0  0  0  0  0
    1.5920   -1.1780   -0.6860 H   0  0  0  0  0  0  0  0  0  0  0  0
   -1.1820    1.9440    2.1950 C   0  0  0  0  0  0  0  0  0  0  0  0
   -2.2740    2.3680    1.3000 C   0  0  0  0  0  0  0  0  0  0  0  0
   -3.4250    1.3800    1.4880 C   0  0  0  0  0  0  0  0  0  0  0  0
   -1.9690    2.5720   -0.1510 C   0  0  0  0  0  0  0  0  0  0  0  0
   -1.4470    1.3730   -0.8690 C   0  0  2  0  0  0  0  0  0  0  0  0
   -0.2170    0.8000   -0.4970 N   0  0  0  0  0  0  0  0  0  0  0  0
   -1.5900    1.4110   -2.3280 C   0  0  0  0  0  0  0  0  0  0  0  0
   -0.6670    0.9600   -3.0530 O   0  0  0  0  0  0  0  0  0  0  0  0
   -2.7030    1.9220   -2.9930 O   0  0  0  0  0  0  0  0  0  0  0  0
   -0.8850    0.8920    2.0050 H   0  0  0  0  0  0  0  0  0  0  0  0
   -1.6380    1.9110    3.2390 H   0  0  0  0  0  0  0  0  0  0  0  0
   -0.3720    2.6630    2.2870 H   0  0  0  0  0  0  0  0  0  0  0  0
   -2.7020    3.3430    1.6970 H   0  0  0  0  0  0  0  0  0  0  0  0
   -4.0310    1.2680    0.5880 H   0  0  0  0  0  0  0  0  0  0  0  0
   -3.0280    0.3680    1.7530 H   0  0  0  0  0  0  0  0  0  0  0  0
   -4.0910    1.6800    2.3220 H   0  0  0  0  0  0  0  0  0  0  0  0
   -2.9780    2.7790   -0.6290 H   0  0  0  0  0  0  0  0  0  0  0  0
   -1.4050    3.5050   -0.3500 H   0  0  0  0  0  0  0  0  0  0  0  0
   -2.2200    0.5820   -0.4980 H   0  0  0  0  0  0  0  0  0  0  0  0
   -0.1570   -0.2440   -0.5320 H   0  0  0  0  0  0  0  0  0  0  0  0
  1 10  1  0  0  0  0
  1  9  1  0  0  0  0
  2  1  1  0  0  0  0
  2 13  1  0  0  0  0
  3  2  1  0  0  0  0
  3 14  1  1  0  0  0
  4 16  1  0  0  0  0
  4  3  1  0  0  0  0
  5 18  1  6  0  0  0
  5  3  1  0  0  0  0
  5  6  1  0  0  0  0
  6 20  1  0  0  0  0
  7  5  1  0  0  0  0
  7  8  2  0  0  0  0
 11  1  1  0  0  0  0
 12  2  1  0  0  0  0
 15  4  1  0  0  0  0
 17  4  1  0  0  0  0
 19  6  1  0  0  0  0
 21 22  1  0  0  0  0
 22 28  1  0  0  0  0
 22 29  1  0  0  0  0
 22 23  1  0  0  0  0
 23 30  1  1  0  0  0
 24 23  1  0  0  0  0
 24  7  1  0  0  0  0
 25 26  2  0  0  0  0
 25 23  1  0  0  0  0
 27 21  1  0  0  0  0
 31 24  1  0  0  0  0
 32 43  1  0  0  0  0
 32 42  1  0  0  0  0
 33 34  1  0  0  0  0
 33 44  1  0  0  0  0
 33 32  1  0  0  0  0
 34 46  1  0  0  0  0
 34 47  1  0  0  0  0
 35 33  1  0  0  0  0
 36 50  1  1  0  0  0
 36 37  1  0  0  0  0
 36 35  1  0  0  0  0
 37 25  1  0  0  0  0
 38 36  1  0  0  0  0
 39 38  2  0  0  0  0
 40 38  1  0  0  0  0
 41 32  1  0  0  0  0
 45 34  1  0  0  0  0
 48 35  1  0  0  0  0
 49 35  1  0  0  0  0
 51 37  1  0  0  0  0
M  END
$$$$
