IST.pdb
 OpenBabel07022418433D

 46 45  0  0  1  0  0  0  0  0999 V2000
   -0.4160   -5.2970   -0.2570 C   0  0  0  0  0  0  0  0  0  0  0  0
    0.6960   -4.6430   -1.0340 C   0  0  0  0  0  0  0  0  0  0  0  0
    0.2780   -3.3940   -1.7580 C   0  0  2  0  0  0  0  0  0  0  0  0
    1.4640   -2.8200   -2.5030 C   0  0  0  0  0  0  0  0  0  0  0  0
   -0.3730   -2.4010   -0.8580 C   0  0  2  0  0  0  0  0  0  0  0  0
   -0.7650   -1.2130   -1.6190 N   0  0  0  0  0  0  0  0  0  0  0  0
    0.4690   -1.9920    0.3090 C   0  0  0  0  0  0  0  0  0  0  0  0
    0.8830   -2.8180    1.1520 O   0  0  0  0  0  0  0  0  0  0  0  0
   -0.2230   -5.2950    0.8260 H   0  0  0  0  0  0  0  0  0  0  0  0
   -0.4630   -6.3700   -0.5560 H   0  0  0  0  0  0  0  0  0  0  0  0
   -1.4000   -4.8540   -0.5390 H   0  0  0  0  0  0  0  0  0  0  0  0
    1.0680   -5.3400   -1.8370 H   0  0  0  0  0  0  0  0  0  0  0  0
    1.5290   -4.4060   -0.3640 H   0  0  0  0  0  0  0  0  0  0  0  0
   -0.5000   -3.6830   -2.5190 H   0  0  0  0  0  0  0  0  0  0  0  0
    1.2200   -1.9380   -3.0980 H   0  0  0  0  0  0  0  0  0  0  0  0
    2.3270   -2.6660   -1.8230 H   0  0  0  0  0  0  0  0  0  0  0  0
    1.7880   -3.6120   -3.2250 H   0  0  0  0  0  0  0  0  0  0  0  0
   -1.3190   -2.8310   -0.4760 H   0  0  0  0  0  0  0  0  0  0  0  0
   -1.4530   -0.6390   -1.1100 H   0  0  0  0  0  0  0  0  0  0  0  0
    0.0410   -0.6940   -1.9930 H   0  0  0  0  0  0  0  0  0  0  0  0
    3.7060    0.6720    2.2610 O   0  0  0  0  0  0  0  0  0  0  0  0
    2.9580    0.3180    1.1570 C   0  0  0  0  0  0  0  0  0  0  0  0
    1.6360   -0.2550    1.6150 C   0  0  2  0  0  0  0  0  0  0  0  0
    0.8270   -0.6360    0.4910 N   0  0  0  0  0  0  0  0  0  0  0  0
    0.9250    0.6660    2.5370 C   0  0  0  0  0  0  0  0  0  0  0  0
    1.5230    1.0700    3.5510 O   0  0  0  0  0  0  0  0  0  0  0  0
    4.6080    0.9930    2.0070 H   0  0  0  0  0  0  0  0  0  0  0  0
    2.8240    1.1430    0.4240 H   0  0  0  0  0  0  0  0  0  0  0  0
    3.4950   -0.5060    0.6400 H   0  0  0  0  0  0  0  0  0  0  0  0
    1.8780   -1.1570    2.2090 H   0  0  0  0  0  0  0  0  0  0  0  0
    0.5160    0.0970   -0.1730 H   0  0  0  0  0  0  0  0  0  0  0  0
   -0.5390    4.2490    2.2590 C   0  0  0  0  0  0  0  0  0  0  0  0
   -1.6430    3.2530    2.5860 C   0  0  1  0  0  0  0  0  0  0  0  0
   -2.5030    3.0630    1.5180 O   0  0  0  0  0  0  0  0  0  0  0  0
   -1.1300    1.9950    3.1820 C   0  0  2  0  0  0  0  0  0  0  0  0
   -0.3900    1.1240    2.3550 N   0  0  0  0  0  0  0  0  0  0  0  0
   -2.2810    1.2600    3.7810 C   0  0  0  0  0  0  0  0  0  0  0  0
   -2.4890    0.0390    3.5310 O   0  0  0  0  0  0  0  0  0  0  0  0
   -3.1910    1.8690    4.6450 O   0  0  0  0  0  0  0  0  0  0  0  0
   -0.2480    4.1580    1.1760 H   0  0  0  0  0  0  0  0  0  0  0  0
    0.3310    4.1240    2.9350 H   0  0  0  0  0  0  0  0  0  0  0  0
   -0.8730    5.3000    2.3820 H   0  0  0  0  0  0  0  0  0  0  0  0
   -2.2570    3.7400    3.3770 H   0  0  0  0  0  0  0  0  0  0  0  0
   -2.3770    3.7050    0.7820 H   0  0  0  0  0  0  0  0  0  0  0  0
   -0.4810    2.2840    4.0490 H   0  0  0  0  0  0  0  0  0  0  0  0
   -0.8930    0.7740    1.4860 H   0  0  0  0  0  0  0  0  0  0  0  0
  1  9  1  0  0  0  0
  2 13  1  0  0  0  0
  2  1  1  0  0  0  0
  3 14  1  6  0  0  0
  3  2  1  0  0  0  0
  3  5  1  0  0  0  0
  4 16  1  0  0  0  0
  4  3  1  0  0  0  0
  5 18  1  1  0  0  0
  5  7  1  0  0  0  0
  6 19  1  0  0  0  0
  6  5  1  0  0  0  0
  7 24  1  0  0  0  0
  7  8  2  0  0  0  0
 10  1  1  0  0  0  0
 11  1  1  0  0  0  0
 12  2  1  0  0  0  0
 15  4  1  0  0  0  0
 17  4  1  0  0  0  0
 20  6  1  0  0  0  0
 22 23  1  0  0  0  0
 22 21  1  0  0  0  0
 23 30  1  1  0  0  0
 23 25  1  0  0  0  0
 24 23  1  0  0  0  0
 25 26  2  0  0  0  0
 27 21  1  0  0  0  0
 28 22  1  0  0  0  0
 29 22  1  0  0  0  0
 31 24  1  0  0  0  0
 32 42  1  0  0  0  0
 32 33  1  0  0  0  0
 32 41  1  0  0  0  0
 33 35  1  0  0  0  0
 33 43  1  1  0  0  0
 34 33  1  0  0  0  0
 35 37  1  0  0  0  0
 35 45  1  1  0  0  0
 36 25  1  0  0  0  0
 36 35  1  0  0  0  0
 37 39  1  0  0  0  0
 38 37  2  0  0  0  0
 40 32  1  0  0  0  0
 44 34  1  0  0  0  0
 46 36  1  0  0  0  0
M  END
$$$$
