ITA.pdb
 OpenBabel07022418433D

 45 44  0  0  1  0  0  0  0  0999 V2000
    0.7590   -5.0550   -0.3700 C   0  0  0  0  0  0  0  0  0  0  0  0
   -0.3450   -4.2050   -0.9050 C   0  0  0  0  0  0  0  0  0  0  0  0
   -0.2940   -2.7780   -0.2950 C   0  0  2  0  0  0  0  0  0  0  0  0
    1.0780   -2.2700   -0.7270 C   0  0  0  0  0  0  0  0  0  0  0  0
   -0.4590   -2.8550    1.1820 C   0  0  2  0  0  0  0  0  0  0  0  0
   -1.7720   -3.5230    1.3860 N   0  0  0  0  0  0  0  0  0  0  0  0
   -0.5760   -1.5850    1.9070 C   0  0  0  0  0  0  0  0  0  0  0  0
   -1.6490   -1.3340    2.5760 O   0  0  0  0  0  0  0  0  0  0  0  0
    0.2750   -5.8690    0.2440 H   0  0  0  0  0  0  0  0  0  0  0  0
    1.3230   -5.5790   -1.1840 H   0  0  0  0  0  0  0  0  0  0  0  0
    1.4920   -4.5240    0.2440 H   0  0  0  0  0  0  0  0  0  0  0  0
   -1.3530   -4.6320   -0.7820 H   0  0  0  0  0  0  0  0  0  0  0  0
   -0.1570   -4.0410   -1.9900 H   0  0  0  0  0  0  0  0  0  0  0  0
   -1.0520   -2.2030   -0.8430 H   0  0  0  0  0  0  0  0  0  0  0  0
    1.8680   -2.4830   -0.0060 H   0  0  0  0  0  0  0  0  0  0  0  0
    1.3030   -2.7030   -1.7410 H   0  0  0  0  0  0  0  0  0  0  0  0
    0.9960   -1.1890   -0.8750 H   0  0  0  0  0  0  0  0  0  0  0  0
    0.3370   -3.5180    1.5960 H   0  0  0  0  0  0  0  0  0  0  0  0
   -1.7990   -3.7930    2.3810 H   0  0  0  0  0  0  0  0  0  0  0  0
   -2.4690   -2.7540    1.1610 H   0  0  0  0  0  0  0  0  0  0  0  0
    2.6170    0.9480    3.2390 C   0  0  0  0  0  0  0  0  0  0  0  0
    1.2300    0.8940    3.7820 C   0  0  1  0  0  0  0  0  0  0  0  0
    0.9150    2.0720    4.4510 O   0  0  0  0  0  0  0  0  0  0  0  0
    0.1780    0.6650    2.7410 C   0  0  2  0  0  0  0  0  0  0  0  0
    0.4000   -0.5450    1.9710 N   0  0  0  0  0  0  0  0  0  0  0  0
   -0.0080    1.7950    1.8180 C   0  0  0  0  0  0  0  0  0  0  0  0
   -0.1840    2.9460    2.3310 O   0  0  0  0  0  0  0  0  0  0  0  0
    3.3250    0.8520    4.1010 H   0  0  0  0  0  0  0  0  0  0  0  0
    2.7800    1.9570    2.7890 H   0  0  0  0  0  0  0  0  0  0  0  0
    2.7790    0.1260    2.5440 H   0  0  0  0  0  0  0  0  0  0  0  0
    1.1370    0.0750    4.5320 H   0  0  0  0  0  0  0  0  0  0  0  0
   -0.0610    2.1110    4.6560 H   0  0  0  0  0  0  0  0  0  0  0  0
   -0.8060    0.5940    3.3010 H   0  0  0  0  0  0  0  0  0  0  0  0
    1.2740   -0.7060    1.4390 H   0  0  0  0  0  0  0  0  0  0  0  0
    0.9380    3.0470   -1.4190 C   0  0  0  0  0  0  0  0  0  0  0  0
   -0.1930    2.8560   -0.4600 C   0  0  2  0  0  0  0  0  0  0  0  0
   -0.0080    1.7210    0.4260 N   0  0  0  0  0  0  0  0  0  0  0  0
   -1.4330    2.5940   -1.2420 C   0  0  0  0  0  0  0  0  0  0  0  0
   -1.8510    3.4260   -2.1070 O   0  0  0  0  0  0  0  0  0  0  0  0
   -2.1980    1.4450   -1.0790 O   0  0  0  0  0  0  0  0  0  0  0  0
    1.3700    2.0570   -1.7300 H   0  0  0  0  0  0  0  0  0  0  0  0
    0.5070    3.4690   -2.3700 H   0  0  0  0  0  0  0  0  0  0  0  0
    1.7060    3.7540   -1.0860 H   0  0  0  0  0  0  0  0  0  0  0  0
   -0.3350    3.8020    0.1110 H   0  0  0  0  0  0  0  0  0  0  0  0
    0.1280    0.8010   -0.0240 H   0  0  0  0  0  0  0  0  0  0  0  0
  1 11  1  0  0  0  0
  1  9  1  0  0  0  0
  2 12  1  0  0  0  0
  2  1  1  0  0  0  0
  2  3  1  0  0  0  0
  3 14  1  6  0  0  0
  3  5  1  0  0  0  0
  4  3  1  0  0  0  0
  4 15  1  0  0  0  0
  5  6  1  0  0  0  0
  5 18  1  1  0  0  0
  5  7  1  0  0  0  0
  6 19  1  0  0  0  0
  7 25  1  0  0  0  0
  7  8  2  0  0  0  0
 10  1  1  0  0  0  0
 13  2  1  0  0  0  0
 16  4  1  0  0  0  0
 17  4  1  0  0  0  0
 20  6  1  0  0  0  0
 21 22  1  0  0  0  0
 21 28  1  0  0  0  0
 22 23  1  0  0  0  0
 22 31  1  1  0  0  0
 23 32  1  0  0  0  0
 24 33  1  1  0  0  0
 24 22  1  0  0  0  0
 25 24  1  0  0  0  0
 26 27  2  0  0  0  0
 26 24  1  0  0  0  0
 29 21  1  0  0  0  0
 30 21  1  0  0  0  0
 34 25  1  0  0  0  0
 35 43  1  0  0  0  0
 35 36  1  0  0  0  0
 36 44  1  1  0  0  0
 36 37  1  0  0  0  0
 37 26  1  0  0  0  0
 38 40  1  0  0  0  0
 38 36  1  0  0  0  0
 39 38  2  0  0  0  0
 41 35  1  0  0  0  0
 42 35  1  0  0  0  0
 45 37  1  0  0  0  0
M  END
$$$$
