ITD.pdb
 OpenBabel07022418433D

 48 47  0  0  1  0  0  0  0  0999 V2000
    1.6540   -2.4110    1.9100 C   0  0  0  0  0  0  0  0  0  0  0  0
    2.8490   -2.1810    1.0570 C   0  0  0  0  0  0  0  0  0  0  0  0
    2.9200   -0.8790    0.3470 C   0  0  2  0  0  0  0  0  0  0  0  0
    4.2070   -0.8470   -0.4550 C   0  0  0  0  0  0  0  0  0  0  0  0
    2.8270    0.3340    1.1950 C   0  0  2  0  0  0  0  0  0  0  0  0
    3.8540    0.4350    2.1980 N   0  0  0  0  0  0  0  0  0  0  0  0
    1.5080    0.5650    1.8120 C   0  0  0  0  0  0  0  0  0  0  0  0
    1.3690    0.6620    3.0770 O   0  0  0  0  0  0  0  0  0  0  0  0
    0.7240   -1.9990    1.5220 H   0  0  0  0  0  0  0  0  0  0  0  0
    1.4810   -3.5230    2.0000 H   0  0  0  0  0  0  0  0  0  0  0  0
    1.8940   -2.0680    2.9420 H   0  0  0  0  0  0  0  0  0  0  0  0
    3.8130   -2.3110    1.6280 H   0  0  0  0  0  0  0  0  0  0  0  0
    2.9080   -2.9840    0.2640 H   0  0  0  0  0  0  0  0  0  0  0  0
    2.0620   -0.8270   -0.3830 H   0  0  0  0  0  0  0  0  0  0  0  0
    4.3560    0.1480   -0.9520 H   0  0  0  0  0  0  0  0  0  0  0  0
    5.0270   -1.0400    0.2830 H   0  0  0  0  0  0  0  0  0  0  0  0
    4.2200   -1.6290   -1.2380 H   0  0  0  0  0  0  0  0  0  0  0  0
    2.9970    1.2150    0.5040 H   0  0  0  0  0  0  0  0  0  0  0  0
    3.5410    0.8800    3.0800 H   0  0  0  0  0  0  0  0  0  0  0  0
    4.4500   -0.3880    2.2960 H   0  0  0  0  0  0  0  0  0  0  0  0
   -2.7470    2.5950    2.2090 C   0  0  0  0  0  0  0  0  0  0  0  0
   -1.4640    2.3550    1.4720 C   0  0  1  0  0  0  0  0  0  0  0  0
   -0.5000    3.2210    1.9890 O   0  0  0  0  0  0  0  0  0  0  0  0
   -0.9750    0.9300    1.7140 C   0  0  2  0  0  0  0  0  0  0  0  0
    0.2900    0.7020    1.0580 N   0  0  0  0  0  0  0  0  0  0  0  0
   -1.9970   -0.0450    1.2880 C   0  0  0  0  0  0  0  0  0  0  0  0
   -3.1670    0.0120    1.7930 O   0  0  0  0  0  0  0  0  0  0  0  0
   -2.7380    1.9310    3.1180 H   0  0  0  0  0  0  0  0  0  0  0  0
   -2.8910    3.6560    2.5100 H   0  0  0  0  0  0  0  0  0  0  0  0
   -3.6440    2.2940    1.6150 H   0  0  0  0  0  0  0  0  0  0  0  0
   -1.6130    2.5760    0.4140 H   0  0  0  0  0  0  0  0  0  0  0  0
   -0.1410    3.8230    1.3070 H   0  0  0  0  0  0  0  0  0  0  0  0
   -0.8340    0.8580    2.8120 H   0  0  0  0  0  0  0  0  0  0  0  0
    0.3600    0.6290    0.0180 H   0  0  0  0  0  0  0  0  0  0  0  0
   -1.7490   -1.0640    0.3280 N   0  0  0  0  0  0  0  0  0  0  0  0
   -2.8190   -1.9640   -0.0190 C   0  0  1  0  0  0  0  0  0  0  0  0
   -3.2500   -1.8440   -1.4660 C   0  0  0  0  0  0  0  0  0  0  0  0
   -2.1750   -2.1370   -2.4300 C   0  0  0  0  0  0  0  0  0  0  0  0
   -2.3870   -2.0370   -3.6570 O   0  0  0  0  0  0  0  0  0  0  0  0
   -2.4910   -3.3530    0.3460 C   0  0  0  0  0  0  0  0  0  0  0  0
   -1.3930   -3.6030    0.8830 O   0  0  0  0  0  0  0  0  0  0  0  0
   -0.9350   -2.5230   -1.9730 O   0  0  0  0  0  0  0  0  0  0  0  0
   -3.3730   -4.3860    0.1080 O   0  0  0  0  0  0  0  0  0  0  0  0
   -0.7900   -1.1480   -0.1170 H   0  0  0  0  0  0  0  0  0  0  0  0
   -3.7440   -1.7080    0.5730 H   0  0  0  0  0  0  0  0  0  0  0  0
   -4.1210   -2.5430   -1.5870 H   0  0  0  0  0  0  0  0  0  0  0  0
   -3.6840   -0.8220   -1.6110 H   0  0  0  0  0  0  0  0  0  0  0  0
   -0.0810   -2.3250   -2.5120 H   0  0  0  0  0  0  0  0  0  0  0  0
  1 10  1  0  0  0  0
  1 11  1  0  0  0  0
  2 12  1  0  0  0  0
  2  1  1  0  0  0  0
  3 14  1  6  0  0  0
  3  2  1  0  0  0  0
  3  5  1  0  0  0  0
  4 16  1  0  0  0  0
  4  3  1  0  0  0  0
  5 18  1  6  0  0  0
  5  7  1  0  0  0  0
  5  6  1  0  0  0  0
  6 20  1  0  0  0  0
  6 19  1  0  0  0  0
  7  8  2  0  0  0  0
  9  1  1  0  0  0  0
 13  2  1  0  0  0  0
 15  4  1  0  0  0  0
 17  4  1  0  0  0  0
 21 29  1  0  0  0  0
 21 28  1  0  0  0  0
 22 31  1  6  0  0  0
 22 24  1  0  0  0  0
 22 23  1  0  0  0  0
 22 21  1  0  0  0  0
 24 33  1  1  0  0  0
 25 24  1  0  0  0  0
 25  7  1  0  0  0  0
 26 24  1  0  0  0  0
 26 27  2  0  0  0  0
 30 21  1  0  0  0  0
 32 23  1  0  0  0  0
 34 25  1  0  0  0  0
 35 26  1  0  0  0  0
 36 35  1  0  0  0  0
 36 40  1  0  0  0  0
 36 45  1  1  0  0  0
 37 36  1  0  0  0  0
 38 42  1  0  0  0  0
 38 37  1  0  0  0  0
 39 38  2  0  0  0  0
 40 41  1  0  0  0  0
 43 40  2  0  0  0  0
 44 35  1  0  0  0  0
 46 37  1  0  0  0  0
 47 37  1  0  0  0  0
 48 42  1  0  0  0  0
M  END
$$$$
