ITE.pdb
 OpenBabel07022418433D

 51 50  0  0  1  0  0  0  0  0999 V2000
   -1.8160   -4.0350   -4.1550 C   0  0  0  0  0  0  0  0  0  0  0  0
   -0.4210   -3.4510   -4.1630 C   0  0  0  0  0  0  0  0  0  0  0  0
   -0.1790   -2.8730   -2.7630 C   0  0  2  0  0  0  0  0  0  0  0  0
   -1.2200   -1.8300   -2.5450 C   0  0  0  0  0  0  0  0  0  0  0  0
    1.2550   -2.3330   -2.7040 C   0  0  2  0  0  0  0  0  0  0  0  0
    2.1170   -3.4790   -2.9830 N   0  0  0  0  0  0  0  0  0  0  0  0
    1.4750   -1.8350   -1.3290 C   0  0  0  0  0  0  0  0  0  0  0  0
    2.2010   -2.5030   -0.5080 O   0  0  0  0  0  0  0  0  0  0  0  0
   -2.5350   -3.3300   -4.6510 H   0  0  0  0  0  0  0  0  0  0  0  0
   -1.7920   -4.9680   -4.7900 H   0  0  0  0  0  0  0  0  0  0  0  0
   -2.1250   -4.2630   -3.1300 H   0  0  0  0  0  0  0  0  0  0  0  0
   -0.4060   -2.6110   -4.8780 H   0  0  0  0  0  0  0  0  0  0  0  0
    0.3260   -4.2300   -4.4090 H   0  0  0  0  0  0  0  0  0  0  0  0
   -0.3190   -3.7080   -2.0510 H   0  0  0  0  0  0  0  0  0  0  0  0
   -2.1820   -2.2360   -2.9740 H   0  0  0  0  0  0  0  0  0  0  0  0
   -0.9760   -0.9280   -3.1300 H   0  0  0  0  0  0  0  0  0  0  0  0
   -1.4190   -1.5960   -1.4760 H   0  0  0  0  0  0  0  0  0  0  0  0
    1.3550   -1.6030   -3.4970 H   0  0  0  0  0  0  0  0  0  0  0  0
    1.6350   -4.3550   -2.6930 H   0  0  0  0  0  0  0  0  0  0  0  0
    2.3490   -3.4830   -3.9880 H   0  0  0  0  0  0  0  0  0  0  0  0
    1.3030    2.0990   -0.3160 C   0  0  0  0  0  0  0  0  0  0  0  0
    2.0520    1.0550    0.4580 C   0  0  1  0  0  0  0  0  0  0  0  0
    2.3950    1.5850    1.6900 O   0  0  0  0  0  0  0  0  0  0  0  0
    1.2170   -0.2210    0.5870 C   0  0  2  0  0  0  0  0  0  0  0  0
    0.9480   -0.6390   -0.7920 N   0  0  0  0  0  0  0  0  0  0  0  0
   -0.0140    0.1340    1.3000 C   0  0  0  0  0  0  0  0  0  0  0  0
   -1.1120    0.0580    0.6960 O   0  0  0  0  0  0  0  0  0  0  0  0
    0.2960    2.2750    0.1280 H   0  0  0  0  0  0  0  0  0  0  0  0
    1.1940    1.8350   -1.3880 H   0  0  0  0  0  0  0  0  0  0  0  0
    1.8820    3.0410   -0.2600 H   0  0  0  0  0  0  0  0  0  0  0  0
    3.0000    0.8440   -0.1130 H   0  0  0  0  0  0  0  0  0  0  0  0
    2.6490    2.5330    1.5290 H   0  0  0  0  0  0  0  0  0  0  0  0
    1.8600   -0.9580    1.1030 H   0  0  0  0  0  0  0  0  0  0  0  0
    0.3550   -0.0270   -1.3890 H   0  0  0  0  0  0  0  0  0  0  0  0
   -0.0570    0.5670    2.6500 N   0  0  0  0  0  0  0  0  0  0  0  0
   -1.2460    0.9140    3.3510 C   0  0  1  0  0  0  0  0  0  0  0  0
   -1.4780    0.0920    4.5990 C   0  0  0  0  0  0  0  0  0  0  0  0
   -0.3590    0.2360    5.6000 C   0  0  0  0  0  0  0  0  0  0  0  0
   -0.6810   -0.6010    6.7740 C   0  0  0  0  0  0  0  0  0  0  0  0
   -1.7370   -1.2860    6.8380 O   0  0  0  0  0  0  0  0  0  0  0  0
   -1.1680    2.3330    3.7770 C   0  0  0  0  0  0  0  0  0  0  0  0
   -0.1610    3.0110    3.5010 O   0  0  0  0  0  0  0  0  0  0  0  0
    0.1650   -0.6850    7.8860 O   0  0  0  0  0  0  0  0  0  0  0  0
   -2.1930    2.9500    4.4850 O   0  0  0  0  0  0  0  0  0  0  0  0
    0.8510    0.6320    3.1580 H   0  0  0  0  0  0  0  0  0  0  0  0
   -2.1700    0.8200    2.7420 H   0  0  0  0  0  0  0  0  0  0  0  0
   -1.7430   -0.9530    4.3950 H   0  0  0  0  0  0  0  0  0  0  0  0
   -2.3880    0.5450    5.0920 H   0  0  0  0  0  0  0  0  0  0  0  0
   -0.3170    1.2880    5.9480 H   0  0  0  0  0  0  0  0  0  0  0  0
    0.6370    0.0100    5.1740 H   0  0  0  0  0  0  0  0  0  0  0  0
    0.0760   -1.4850    8.5100 H   0  0  0  0  0  0  0  0  0  0  0  0
  1 11  1  0  0  0  0
  2  1  1  0  0  0  0
  2  3  1  0  0  0  0
  3  5  1  0  0  0  0
  3  4  1  0  0  0  0
  3 14  1  1  0  0  0
  4 17  1  0  0  0  0
  5 18  1  6  0  0  0
  5  7  1  0  0  0  0
  6  5  1  0  0  0  0
  6 19  1  0  0  0  0
  7 25  1  0  0  0  0
  7  8  2  0  0  0  0
  9  1  1  0  0  0  0
 10  1  1  0  0  0  0
 12  2  1  0  0  0  0
 13  2  1  0  0  0  0
 15  4  1  0  0  0  0
 16  4  1  0  0  0  0
 20  6  1  0  0  0  0
 21 30  1  0  0  0  0
 21 28  1  0  0  0  0
 21 22  1  0  0  0  0
 22 31  1  6  0  0  0
 22 24  1  0  0  0  0
 22 23  1  0  0  0  0
 24 33  1  1  0  0  0
 24 26  1  0  0  0  0
 25 24  1  0  0  0  0
 26 35  1  0  0  0  0
 27 26  2  0  0  0  0
 29 21  1  0  0  0  0
 32 23  1  0  0  0  0
 34 25  1  0  0  0  0
 35 45  1  0  0  0  0
 35 36  1  0  0  0  0
 36 46  1  6  0  0  0
 36 41  1  0  0  0  0
 36 37  1  0  0  0  0
 37 48  1  0  0  0  0
 37 38  1  0  0  0  0
 38 49  1  0  0  0  0
 38 39  1  0  0  0  0
 39 40  2  0  0  0  0
 39 43  1  0  0  0  0
 41 44  1  0  0  0  0
 42 41  2  0  0  0  0
 43 51  1  0  0  0  0
 47 37  1  0  0  0  0
 50 38  1  0  0  0  0
M  END
$$$$
