ITF.pdb
 OpenBabel07022418433D

 55 55  0  0  1  0  0  0  0  0999 V2000
    1.4650    1.6550    6.6630 C   0  0  0  0  0  0  0  0  0  0  0  0
    0.4700    1.6290    5.5230 C   0  0  0  0  0  0  0  0  0  0  0  0
    1.0960    1.0470    4.2850 C   0  0  2  0  0  0  0  0  0  0  0  0
    2.2820    1.9170    3.9130 C   0  0  0  0  0  0  0  0  0  0  0  0
    0.1010    0.9870    3.1490 C   0  0  2  0  0  0  0  0  0  0  0  0
   -1.0390    0.1800    3.4520 N   0  0  0  0  0  0  0  0  0  0  0  0
    0.7170    0.5530    1.8870 C   0  0  0  0  0  0  0  0  0  0  0  0
    1.7190    1.2320    1.4750 O   0  0  0  0  0  0  0  0  0  0  0  0
    1.9660    2.6360    6.7000 H   0  0  0  0  0  0  0  0  0  0  0  0
    0.8960    1.5430    7.6100 H   0  0  0  0  0  0  0  0  0  0  0  0
    2.2070    0.8320    6.5850 H   0  0  0  0  0  0  0  0  0  0  0  0
   -0.3810    0.9920    5.8230 H   0  0  0  0  0  0  0  0  0  0  0  0
    0.1740    2.6860    5.3340 H   0  0  0  0  0  0  0  0  0  0  0  0
    1.4970    0.0480    4.5430 H   0  0  0  0  0  0  0  0  0  0  0  0
    3.0290    1.2850    3.3940 H   0  0  0  0  0  0  0  0  0  0  0  0
    2.7220    2.3620    4.8300 H   0  0  0  0  0  0  0  0  0  0  0  0
    2.0050    2.7410    3.2280 H   0  0  0  0  0  0  0  0  0  0  0  0
   -0.2510    2.0430    2.9970 H   0  0  0  0  0  0  0  0  0  0  0  0
   -1.6500    0.0420    2.6100 H   0  0  0  0  0  0  0  0  0  0  0  0
   -1.5870    0.5140    4.2770 H   0  0  0  0  0  0  0  0  0  0  0  0
    2.3500   -2.8310   -1.0670 C   0  0  0  0  0  0  0  0  0  0  0  0
    1.5870   -2.2040    0.0260 C   0  0  1  0  0  0  0  0  0  0  0  0
    2.4570   -2.1320    1.1430 O   0  0  0  0  0  0  0  0  0  0  0  0
    1.0330   -0.8450   -0.1580 C   0  0  2  0  0  0  0  0  0  0  0  0
    0.3330   -0.5230    1.0760 N   0  0  0  0  0  0  0  0  0  0  0  0
    0.0790   -0.6830   -1.2730 C   0  0  0  0  0  0  0  0  0  0  0  0
   -1.1040   -0.3690   -0.9940 O   0  0  0  0  0  0  0  0  0  0  0  0
    3.1690   -2.1630   -1.4520 H   0  0  0  0  0  0  0  0  0  0  0  0
    2.9370   -3.6860   -0.6040 H   0  0  0  0  0  0  0  0  0  0  0  0
    1.7760   -3.3160   -1.8660 H   0  0  0  0  0  0  0  0  0  0  0  0
    0.7870   -2.9080    0.3470 H   0  0  0  0  0  0  0  0  0  0  0  0
    3.3740   -1.8760    0.8500 H   0  0  0  0  0  0  0  0  0  0  0  0
    1.8520   -0.1090   -0.2700 H   0  0  0  0  0  0  0  0  0  0  0  0
   -0.4960   -1.0990    1.4040 H   0  0  0  0  0  0  0  0  0  0  0  0
    0.4310   -0.8630   -2.6210 N   0  0  0  0  0  0  0  0  0  0  0  0
   -0.4950   -0.6950   -3.6820 C   0  0  1  0  0  0  0  0  0  0  0  0
   -1.2350   -1.9120   -4.1050 C   0  0  0  0  0  0  0  0  0  0  0  0
   -2.0540   -2.5430   -3.0370 C   0  0  0  0  0  0  0  0  0  0  0  0
   -3.3600   -2.1440   -2.8830 C   0  0  0  0  0  0  0  0  0  0  0  0
   -4.1110   -2.7380   -1.8900 C   0  0  0  0  0  0  0  0  0  0  0  0
   -3.6280   -3.7090   -1.0410 C   0  0  0  0  0  0  0  0  0  0  0  0
   -2.3080   -4.0710   -1.2430 C   0  0  0  0  0  0  0  0  0  0  0  0
   -1.5410   -3.5040   -2.2140 C   0  0  0  0  0  0  0  0  0  0  0  0
   -1.3580    0.4940   -3.6380 C   0  0  0  0  0  0  0  0  0  0  0  0
   -1.2630    1.3770   -2.7660 O   0  0  0  0  0  0  0  0  0  0  0  0
   -2.3410    0.6720   -4.6030 O   0  0  0  0  0  0  0  0  0  0  0  0
    1.4600   -1.1360   -2.7810 H   0  0  0  0  0  0  0  0  0  0  0  0
    0.1870   -0.4490   -4.5950 H   0  0  0  0  0  0  0  0  0  0  0  0
   -1.9280   -1.6290   -4.9240 H   0  0  0  0  0  0  0  0  0  0  0  0
   -0.5830   -2.7120   -4.5110 H   0  0  0  0  0  0  0  0  0  0  0  0
   -3.8080   -1.3700   -3.5330 H   0  0  0  0  0  0  0  0  0  0  0  0
   -5.1440   -2.4150   -1.7750 H   0  0  0  0  0  0  0  0  0  0  0  0
   -4.2360   -4.1700   -0.2610 H   0  0  0  0  0  0  0  0  0  0  0  0
   -1.9300   -4.8470   -0.5590 H   0  0  0  0  0  0  0  0  0  0  0  0
   -0.5220   -3.8150   -2.3340 H   0  0  0  0  0  0  0  0  0  0  0  0
  1  9  1  0  0  0  0
  1 10  1  0  0  0  0
  2 12  1  0  0  0  0
  2  1  1  0  0  0  0
  3 14  1  1  0  0  0
  3  2  1  0  0  0  0
  4  3  1  0  0  0  0
  4 16  1  0  0  0  0
  5 18  1  6  0  0  0
  5  6  1  0  0  0  0
  5  3  1  0  0  0  0
  6 20  1  0  0  0  0
  7  5  1  0  0  0  0
  8  7  2  0  0  0  0
 11  1  1  0  0  0  0
 13  2  1  0  0  0  0
 15  4  1  0  0  0  0
 17  4  1  0  0  0  0
 19  6  1  0  0  0  0
 21 29  1  0  0  0  0
 21 22  1  0  0  0  0
 22 31  1  1  0  0  0
 22 23  1  0  0  0  0
 24 33  1  6  0  0  0
 24 22  1  0  0  0  0
 24 25  1  0  0  0  0
 25 34  1  0  0  0  0
 25  7  1  0  0  0  0
 26 27  2  0  0  0  0
 26 24  1  0  0  0  0
 28 21  1  0  0  0  0
 30 21  1  0  0  0  0
 32 23  1  0  0  0  0
 35 26  1  0  0  0  0
 36 48  1  6  0  0  0
 36 44  1  0  0  0  0
 36 35  1  0  0  0  0
 37 36  1  0  0  0  0
 37 38  1  0  0  0  0
 38 39  2  0  0  0  0
 38 43  1  0  0  0  0
 39 40  1  0  0  0  0
 40 52  1  0  0  0  0
 40 41  2  0  0  0  0
 41 53  1  0  0  0  0
 42 41  1  0  0  0  0
 42 54  1  0  0  0  0
 43 42  2  0  0  0  0
 44 45  1  0  0  0  0
 46 44  2  0  0  0  0
 47 35  1  0  0  0  0
 49 37  1  0  0  0  0
 50 37  1  0  0  0  0
 51 39  1  0  0  0  0
 55 43  1  0  0  0  0
M  END
$$$$
