ITI.pdb
 OpenBabel07022418433D

 54 53  0  0  1  0  0  0  0  0999 V2000
    2.6920   -0.0970    5.5940 C   0  0  0  0  0  0  0  0  0  0  0  0
    2.1120   -0.3560    4.2230 C   0  0  0  0  0  0  0  0  0  0  0  0
    1.0190   -1.3970    4.3040 C   0  0  2  0  0  0  0  0  0  0  0  0
    1.6510   -2.6610    4.8550 C   0  0  0  0  0  0  0  0  0  0  0  0
    0.4150   -1.7030    2.9710 C   0  0  2  0  0  0  0  0  0  0  0  0
    1.3470   -2.2060    2.0120 N   0  0  0  0  0  0  0  0  0  0  0  0
   -0.3950   -0.5760    2.4340 C   0  0  0  0  0  0  0  0  0  0  0  0
   -1.2560   -0.0150    3.1430 O   0  0  0  0  0  0  0  0  0  0  0  0
    2.5490    0.9500    5.9300 H   0  0  0  0  0  0  0  0  0  0  0  0
    2.1890   -0.7710    6.3330 H   0  0  0  0  0  0  0  0  0  0  0  0
    3.7730   -0.3530    5.6570 H   0  0  0  0  0  0  0  0  0  0  0  0
    2.9330   -0.7030    3.5680 H   0  0  0  0  0  0  0  0  0  0  0  0
    1.7480    0.6120    3.8240 H   0  0  0  0  0  0  0  0  0  0  0  0
    0.2520   -1.0240    4.9890 H   0  0  0  0  0  0  0  0  0  0  0  0
    1.5530   -2.6880    5.9630 H   0  0  0  0  0  0  0  0  0  0  0  0
    2.7110   -2.6880    4.5290 H   0  0  0  0  0  0  0  0  0  0  0  0
    1.1170   -3.5440    4.4260 H   0  0  0  0  0  0  0  0  0  0  0  0
   -0.3300   -2.5330    3.1540 H   0  0  0  0  0  0  0  0  0  0  0  0
    2.1390   -1.5810    1.8010 H   0  0  0  0  0  0  0  0  0  0  0  0
    1.5640   -3.2040    2.0940 H   0  0  0  0  0  0  0  0  0  0  0  0
   -0.9100    3.1930   -0.5090 C   0  0  0  0  0  0  0  0  0  0  0  0
   -0.0600    2.1160    0.1210 C   0  0  1  0  0  0  0  0  0  0  0  0
    0.6960    2.5930    1.1860 O   0  0  0  0  0  0  0  0  0  0  0  0
   -1.0010    1.0020    0.5580 C   0  0  2  0  0  0  0  0  0  0  0  0
   -0.2240   -0.0930    1.0990 N   0  0  0  0  0  0  0  0  0  0  0  0
   -1.7360    0.5670   -0.6510 C   0  0  0  0  0  0  0  0  0  0  0  0
   -2.4800    1.3290   -1.3170 O   0  0  0  0  0  0  0  0  0  0  0  0
   -0.9670    3.0830   -1.6260 H   0  0  0  0  0  0  0  0  0  0  0  0
   -0.3720    4.1590   -0.3350 H   0  0  0  0  0  0  0  0  0  0  0  0
   -1.9150    3.2120   -0.0460 H   0  0  0  0  0  0  0  0  0  0  0  0
    0.6390    1.7520   -0.6580 H   0  0  0  0  0  0  0  0  0  0  0  0
    0.4090    3.5190    1.3960 H   0  0  0  0  0  0  0  0  0  0  0  0
   -1.6830    1.3740    1.3510 H   0  0  0  0  0  0  0  0  0  0  0  0
    0.4990   -0.5720    0.5290 H   0  0  0  0  0  0  0  0  0  0  0  0
    0.8990   -1.9740   -2.1800 C   0  0  0  0  0  0  0  0  0  0  0  0
   -0.1650   -2.4460   -3.1040 C   0  0  0  0  0  0  0  0  0  0  0  0
   -1.3010   -1.5320   -3.3500 C   0  0  2  0  0  0  0  0  0  0  0  0
   -0.8930   -0.1990   -3.9360 C   0  0  0  0  0  0  0  0  0  0  0  0
   -2.2630   -1.3130   -2.2420 C   0  0  2  0  0  0  0  0  0  0  0  0
   -1.6090   -0.7600   -1.0900 N   0  0  0  0  0  0  0  0  0  0  0  0
   -3.1350   -2.4430   -1.9510 C   0  0  0  0  0  0  0  0  0  0  0  0
   -3.2660   -2.8530   -0.7830 O   0  0  0  0  0  0  0  0  0  0  0  0
   -3.8220   -3.0680   -2.9650 O   0  0  0  0  0  0  0  0  0  0  0  0
    0.8600   -0.9060   -1.9070 H   0  0  0  0  0  0  0  0  0  0  0  0
    1.9240   -2.1050   -2.6300 H   0  0  0  0  0  0  0  0  0  0  0  0
    0.9020   -2.6080   -1.2700 H   0  0  0  0  0  0  0  0  0  0  0  0
   -0.5710   -3.4450   -2.8070 H   0  0  0  0  0  0  0  0  0  0  0  0
    0.3210   -2.6480   -4.1050 H   0  0  0  0  0  0  0  0  0  0  0  0
   -1.9150   -2.0130   -4.1890 H   0  0  0  0  0  0  0  0  0  0  0  0
   -1.7060    0.5490   -3.8360 H   0  0  0  0  0  0  0  0  0  0  0  0
    0.0110    0.2050   -3.4210 H   0  0  0  0  0  0  0  0  0  0  0  0
   -0.6720   -0.2750   -5.0260 H   0  0  0  0  0  0  0  0  0  0  0  0
   -2.9520   -0.4810   -2.6050 H   0  0  0  0  0  0  0  0  0  0  0  0
   -1.0050   -1.4080   -0.5400 H   0  0  0  0  0  0  0  0  0  0  0  0
  1 11  1  0  0  0  0
  1  9  1  0  0  0  0
  1 10  1  0  0  0  0
  2  3  1  0  0  0  0
  2  1  1  0  0  0  0
  3  4  1  0  0  0  0
  3 14  1  1  0  0  0
  4 15  1  0  0  0  0
  5 18  1  1  0  0  0
  5  3  1  0  0  0  0
  6 20  1  0  0  0  0
  6  5  1  0  0  0  0
  7  5  1  0  0  0  0
  7  8  2  0  0  0  0
 12  2  1  0  0  0  0
 13  2  1  0  0  0  0
 16  4  1  0  0  0  0
 17  4  1  0  0  0  0
 19  6  1  0  0  0  0
 21 29  1  0  0  0  0
 21 30  1  0  0  0  0
 21 22  1  0  0  0  0
 22 31  1  6  0  0  0
 22 24  1  0  0  0  0
 22 23  1  0  0  0  0
 23 32  1  0  0  0  0
 24 25  1  0  0  0  0
 24 33  1  1  0  0  0
 25  7  1  0  0  0  0
 26 24  1  0  0  0  0
 27 26  2  0  0  0  0
 28 21  1  0  0  0  0
 34 25  1  0  0  0  0
 35 44  1  0  0  0  0
 35 46  1  0  0  0  0
 36 47  1  0  0  0  0
 36 35  1  0  0  0  0
 37 49  1  6  0  0  0
 37 36  1  0  0  0  0
 37 39  1  0  0  0  0
 38 50  1  0  0  0  0
 38 51  1  0  0  0  0
 38 37  1  0  0  0  0
 39 53  1  6  0  0  0
 39 41  1  0  0  0  0
 39 40  1  0  0  0  0
 40 26  1  0  0  0  0
 40 54  1  0  0  0  0
 41 42  1  0  0  0  0
 43 41  2  0  0  0  0
 45 35  1  0  0  0  0
 48 36  1  0  0  0  0
 52 38  1  0  0  0  0
M  END
$$$$
