ITM.pdb
 OpenBabel07022418433D

 52 51  0  0  1  0  0  0  0  0999 V2000
   -0.0970   -1.9690    3.3940 C   0  0  0  0  0  0  0  0  0  0  0  0
    1.3880   -2.1810    3.2920 C   0  0  0  0  0  0  0  0  0  0  0  0
    2.0850   -1.2530    2.3550 C   0  0  2  0  0  0  0  0  0  0  0  0
    3.5760   -1.5410    2.3200 C   0  0  0  0  0  0  0  0  0  0  0  0
    1.8950    0.2010    2.6370 C   0  0  2  0  0  0  0  0  0  0  0  0
    2.3760    0.4830    3.9600 N   0  0  0  0  0  0  0  0  0  0  0  0
    0.5720    0.7430    2.3280 C   0  0  0  0  0  0  0  0  0  0  0  0
   -0.1620    1.3230    3.1820 O   0  0  0  0  0  0  0  0  0  0  0  0
   -0.3050   -1.2170    4.1980 H   0  0  0  0  0  0  0  0  0  0  0  0
   -0.5360   -1.6680    2.4290 H   0  0  0  0  0  0  0  0  0  0  0  0
   -0.6240   -2.9390    3.6470 H   0  0  0  0  0  0  0  0  0  0  0  0
    1.8590   -2.1760    4.3050 H   0  0  0  0  0  0  0  0  0  0  0  0
    1.5430   -3.2310    2.9200 H   0  0  0  0  0  0  0  0  0  0  0  0
    1.7240   -1.4810    1.3100 H   0  0  0  0  0  0  0  0  0  0  0  0
    3.9860   -1.0700    1.4210 H   0  0  0  0  0  0  0  0  0  0  0  0
    3.7280   -2.6530    2.3040 H   0  0  0  0  0  0  0  0  0  0  0  0
    4.0680   -1.1220    3.2350 H   0  0  0  0  0  0  0  0  0  0  0  0
    2.6180    0.7390    1.9460 H   0  0  0  0  0  0  0  0  0  0  0  0
    1.6690    0.9490    4.5670 H   0  0  0  0  0  0  0  0  0  0  0  0
    3.3040    0.9560    3.9920 H   0  0  0  0  0  0  0  0  0  0  0  0
   -0.3640    3.4760    0.2590 C   0  0  0  0  0  0  0  0  0  0  0  0
   -1.1650    2.3350   -0.3040 C   0  0  1  0  0  0  0  0  0  0  0  0
   -0.5740    1.8840   -1.4810 O   0  0  0  0  0  0  0  0  0  0  0  0
   -1.2980    1.1880    0.7000 C   0  0  2  0  0  0  0  0  0  0  0  0
    0.0040    0.6550    1.0100 N   0  0  0  0  0  0  0  0  0  0  0  0
   -2.1640    0.1820    0.0580 C   0  0  0  0  0  0  0  0  0  0  0  0
   -3.3350    0.4900   -0.2610 O   0  0  0  0  0  0  0  0  0  0  0  0
   -0.5030    3.5340    1.3590 H   0  0  0  0  0  0  0  0  0  0  0  0
   -0.7490    4.4150   -0.1830 H   0  0  0  0  0  0  0  0  0  0  0  0
    0.7070    3.3970    0.0190 H   0  0  0  0  0  0  0  0  0  0  0  0
   -2.1750    2.7090   -0.5550 H   0  0  0  0  0  0  0  0  0  0  0  0
   -0.9030    2.4560   -2.2370 H   0  0  0  0  0  0  0  0  0  0  0  0
   -1.7950    1.5950    1.6070 H   0  0  0  0  0  0  0  0  0  0  0  0
    0.5510    0.1950    0.2700 H   0  0  0  0  0  0  0  0  0  0  0  0
    0.9400   -0.6450   -2.8830 C   0  0  0  0  0  0  0  0  0  0  0  0
    0.6620   -2.0840   -1.8570 S   0  0  0  0  0  0  0  0  0  0  0  0
   -0.7070   -3.0940   -2.3290 C   0  0  0  0  0  0  0  0  0  0  0  0
   -2.0680   -2.5350   -2.2080 C   0  0  0  0  0  0  0  0  0  0  0  0
   -2.5160   -2.1390   -0.8330 C   0  0  2  0  0  0  0  0  0  0  0  0
   -1.7130   -1.1340   -0.2140 N   0  0  0  0  0  0  0  0  0  0  0  0
   -2.7290   -3.3280    0.0460 C   0  0  0  0  0  0  0  0  0  0  0  0
   -2.2510   -3.4260    1.2040 O   0  0  0  0  0  0  0  0  0  0  0  0
   -3.4890   -4.3950   -0.4120 O   0  0  0  0  0  0  0  0  0  0  0  0
   -0.0150   -0.1570   -3.2330 H   0  0  0  0  0  0  0  0  0  0  0  0
    1.4710    0.1210   -2.2760 H   0  0  0  0  0  0  0  0  0  0  0  0
    1.5650   -0.8480   -3.7750 H   0  0  0  0  0  0  0  0  0  0  0  0
   -0.5630   -3.4820   -3.3740 H   0  0  0  0  0  0  0  0  0  0  0  0
   -0.6780   -4.0250   -1.6880 H   0  0  0  0  0  0  0  0  0  0  0  0
   -2.7760   -3.3660   -2.5160 H   0  0  0  0  0  0  0  0  0  0  0  0
   -2.2970   -1.7260   -2.9370 H   0  0  0  0  0  0  0  0  0  0  0  0
   -3.5550   -1.6920   -0.9590 H   0  0  0  0  0  0  0  0  0  0  0  0
   -0.7420   -1.3650    0.0680 H   0  0  0  0  0  0  0  0  0  0  0  0
  1 11  1  0  0  0  0
  1  9  1  0  0  0  0
  2  1  1  0  0  0  0
  2 12  1  0  0  0  0
  3 14  1  6  0  0  0
  3  5  1  0  0  0  0
  3  2  1  0  0  0  0
  4  3  1  0  0  0  0
  4 17  1  0  0  0  0
  5 18  1  6  0  0  0
  5  6  1  0  0  0  0
  6 20  1  0  0  0  0
  6 19  1  0  0  0  0
  7  5  1  0  0  0  0
  7  8  2  0  0  0  0
 10  1  1  0  0  0  0
 13  2  1  0  0  0  0
 15  4  1  0  0  0  0
 16  4  1  0  0  0  0
 21 28  1  0  0  0  0
 22 31  1  6  0  0  0
 22 21  1  0  0  0  0
 22 24  1  0  0  0  0
 23 22  1  0  0  0  0
 24 25  1  0  0  0  0
 24 33  1  1  0  0  0
 25  7  1  0  0  0  0
 26 24  1  0  0  0  0
 27 26  2  0  0  0  0
 29 21  1  0  0  0  0
 30 21  1  0  0  0  0
 32 23  1  0  0  0  0
 34 25  1  0  0  0  0
 35 45  1  0  0  0  0
 35 36  1  0  0  0  0
 37 38  1  0  0  0  0
 37 36  1  0  0  0  0
 37 48  1  0  0  0  0
 38 39  1  0  0  0  0
 39 51  1  6  0  0  0
 39 40  1  0  0  0  0
 39 41  1  0  0  0  0
 40 26  1  0  0  0  0
 40 52  1  0  0  0  0
 41 42  1  0  0  0  0
 43 41  2  0  0  0  0
 44 35  1  0  0  0  0
 46 35  1  0  0  0  0
 47 37  1  0  0  0  0
 49 38  1  0  0  0  0
 50 38  1  0  0  0  0
M  END
$$$$
