ITS.pdb
 OpenBabel07022418433D

 46 45  0  0  1  0  0  0  0  0999 V2000
    0.1820   -4.7160    2.7150 C   0  0  0  0  0  0  0  0  0  0  0  0
    1.3820   -4.2880    1.8890 C   0  0  0  0  0  0  0  0  0  0  0  0
    0.8860   -3.7060    0.6020 C   0  0  2  0  0  0  0  0  0  0  0  0
    1.9800   -3.2420   -0.3070 C   0  0  0  0  0  0  0  0  0  0  0  0
   -0.1180   -2.6030    0.8070 C   0  0  2  0  0  0  0  0  0  0  0  0
   -0.4890   -2.1610   -0.5490 N   0  0  0  0  0  0  0  0  0  0  0  0
    0.4500   -1.4310    1.5190 C   0  0  0  0  0  0  0  0  0  0  0  0
    0.8380   -1.5240    2.7110 O   0  0  0  0  0  0  0  0  0  0  0  0
    0.0180   -4.0100    3.5470 H   0  0  0  0  0  0  0  0  0  0  0  0
    0.4000   -5.7350    3.1410 H   0  0  0  0  0  0  0  0  0  0  0  0
   -0.7160   -4.7890    2.0710 H   0  0  0  0  0  0  0  0  0  0  0  0
    2.0010   -5.1930    1.6500 H   0  0  0  0  0  0  0  0  0  0  0  0
    1.9780   -3.5320    2.4260 H   0  0  0  0  0  0  0  0  0  0  0  0
    0.3510   -4.5440    0.0670 H   0  0  0  0  0  0  0  0  0  0  0  0
    1.8450   -2.1630   -0.5390 H   0  0  0  0  0  0  0  0  0  0  0  0
    1.9970   -3.7750   -1.2600 H   0  0  0  0  0  0  0  0  0  0  0  0
    2.9490   -3.4300    0.1970 H   0  0  0  0  0  0  0  0  0  0  0  0
   -1.0630   -2.9480    1.2660 H   0  0  0  0  0  0  0  0  0  0  0  0
   -0.4480   -2.9560   -1.1900 H   0  0  0  0  0  0  0  0  0  0  0  0
   -1.3770   -1.6330   -0.5390 H   0  0  0  0  0  0  0  0  0  0  0  0
    3.4740    0.5040    0.8540 C   0  0  0  0  0  0  0  0  0  0  0  0
    2.3480    1.5140    0.7650 C   0  0  1  0  0  0  0  0  0  0  0  0
    2.0640    1.8170   -0.5560 O   0  0  0  0  0  0  0  0  0  0  0  0
    1.1060    1.0030    1.4900 C   0  0  2  0  0  0  0  0  0  0  0  0
    0.5760   -0.1770    0.8940 N   0  0  0  0  0  0  0  0  0  0  0  0
    0.1090    2.1050    1.4590 C   0  0  0  0  0  0  0  0  0  0  0  0
    0.3560    3.2450    1.9280 O   0  0  0  0  0  0  0  0  0  0  0  0
    3.4680    0.0240    1.8750 H   0  0  0  0  0  0  0  0  0  0  0  0
    4.4690    0.9860    0.7710 H   0  0  0  0  0  0  0  0  0  0  0  0
    3.4220   -0.2590    0.0470 H   0  0  0  0  0  0  0  0  0  0  0  0
    2.7050    2.4440    1.2530 H   0  0  0  0  0  0  0  0  0  0  0  0
    2.4510    1.1700   -1.1980 H   0  0  0  0  0  0  0  0  0  0  0  0
    1.4060    0.7530    2.5330 H   0  0  0  0  0  0  0  0  0  0  0  0
    0.2420   -0.1200   -0.1140 H   0  0  0  0  0  0  0  0  0  0  0  0
   -3.0580    1.9140   -1.1650 O   0  0  0  0  0  0  0  0  0  0  0  0
   -2.5760    3.1110   -0.6410 C   0  0  0  0  0  0  0  0  0  0  0  0
   -2.1970    2.8920    0.8130 C   0  0  2  0  0  0  0  0  0  0  0  0
   -1.1660    1.8640    0.8810 N   0  0  0  0  0  0  0  0  0  0  0  0
   -3.3860    2.4220    1.5470 C   0  0  0  0  0  0  0  0  0  0  0  0
   -4.3940    3.1540    1.6140 O   0  0  0  0  0  0  0  0  0  0  0  0
   -3.4030    1.1890    2.1590 O   0  0  0  0  0  0  0  0  0  0  0  0
   -3.9260    2.0380   -1.6130 H   0  0  0  0  0  0  0  0  0  0  0  0
   -1.6710    3.4280   -1.1860 H   0  0  0  0  0  0  0  0  0  0  0  0
   -3.3680    3.8930   -0.6670 H   0  0  0  0  0  0  0  0  0  0  0  0
   -1.7960    3.8090    1.2690 H   0  0  0  0  0  0  0  0  0  0  0  0
   -1.4000    0.9260    0.4840 H   0  0  0  0  0  0  0  0  0  0  0  0
  1 10  1  0  0  0  0
  1  9  1  0  0  0  0
  2 13  1  0  0  0  0
  2  1  1  0  0  0  0
  3 14  1  6  0  0  0
  3  5  1  0  0  0  0
  3  2  1  0  0  0  0
  4 17  1  0  0  0  0
  4  3  1  0  0  0  0
  5 18  1  1  0  0  0
  5  7  1  0  0  0  0
  6 20  1  0  0  0  0
  6  5  1  0  0  0  0
  7  8  2  0  0  0  0
 11  1  1  0  0  0  0
 12  2  1  0  0  0  0
 15  4  1  0  0  0  0
 16  4  1  0  0  0  0
 19  6  1  0  0  0  0
 21 28  1  0  0  0  0
 22 21  1  0  0  0  0
 22 31  1  1  0  0  0
 22 24  1  0  0  0  0
 23 22  1  0  0  0  0
 24 33  1  1  0  0  0
 25 24  1  0  0  0  0
 25  7  1  0  0  0  0
 26 24  1  0  0  0  0
 26 27  2  0  0  0  0
 29 21  1  0  0  0  0
 30 21  1  0  0  0  0
 32 23  1  0  0  0  0
 34 25  1  0  0  0  0
 35 36  1  0  0  0  0
 36 37  1  0  0  0  0
 37 38  1  0  0  0  0
 37 45  1  1  0  0  0
 37 39  1  0  0  0  0
 38 26  1  0  0  0  0
 39 40  2  0  0  0  0
 39 41  1  0  0  0  0
 42 35  1  0  0  0  0
 43 36  1  0  0  0  0
 44 36  1  0  0  0  0
 46 38  1  0  0  0  0
M  END
$$$$
