IVA.pdb
 OpenBabel07022418433D

 47 46  0  0  1  0  0  0  0  0999 V2000
   -0.0600   -5.8060    0.6890 C   0  0  0  0  0  0  0  0  0  0  0  0
    0.8700   -5.0640   -0.2120 C   0  0  0  0  0  0  0  0  0  0  0  0
    1.3750   -3.7770    0.3770 C   0  0  2  0  0  0  0  0  0  0  0  0
    2.1270   -3.9560    1.6510 C   0  0  0  0  0  0  0  0  0  0  0  0
    0.2830   -2.7480    0.4590 C   0  0  2  0  0  0  0  0  0  0  0  0
   -0.2760   -2.4260   -0.8310 N   0  0  0  0  0  0  0  0  0  0  0  0
    0.6910   -1.5400    1.2080 C   0  0  0  0  0  0  0  0  0  0  0  0
    1.1950   -1.6710    2.3490 O   0  0  0  0  0  0  0  0  0  0  0  0
   -0.8430   -6.3080    0.0540 H   0  0  0  0  0  0  0  0  0  0  0  0
   -0.6030   -5.2010    1.4160 H   0  0  0  0  0  0  0  0  0  0  0  0
    0.5260   -6.5530    1.2620 H   0  0  0  0  0  0  0  0  0  0  0  0
    0.2850   -4.7690   -1.1320 H   0  0  0  0  0  0  0  0  0  0  0  0
    1.6860   -5.7450   -0.5140 H   0  0  0  0  0  0  0  0  0  0  0  0
    2.1160   -3.3710   -0.3750 H   0  0  0  0  0  0  0  0  0  0  0  0
    2.6540   -4.9510    1.5890 H   0  0  0  0  0  0  0  0  0  0  0  0
    1.4970   -4.0070    2.5460 H   0  0  0  0  0  0  0  0  0  0  0  0
    2.9370   -3.2040    1.7210 H   0  0  0  0  0  0  0  0  0  0  0  0
   -0.5560   -3.2030    1.0530 H   0  0  0  0  0  0  0  0  0  0  0  0
    0.4380   -2.1480   -1.5320 H   0  0  0  0  0  0  0  0  0  0  0  0
   -0.9520   -3.1290   -1.1790 H   0  0  0  0  0  0  0  0  0  0  0  0
    1.5000    2.0110   -0.8710 C   0  0  0  0  0  0  0  0  0  0  0  0
    1.9760    1.6630    0.5230 C   0  0  0  0  0  0  0  0  0  0  0  0
    2.4420    2.9310    1.1740 C   0  0  0  0  0  0  0  0  0  0  0  0
    0.8940    0.9690    1.3220 C   0  0  2  0  0  0  0  0  0  0  0  0
    0.5160   -0.2510    0.6430 N   0  0  0  0  0  0  0  0  0  0  0  0
   -0.2530    1.8760    1.5150 C   0  0  0  0  0  0  0  0  0  0  0  0
   -0.0660    2.9710    2.0900 O   0  0  0  0  0  0  0  0  0  0  0  0
    0.4200    2.2620   -0.8850 H   0  0  0  0  0  0  0  0  0  0  0  0
    2.0340    2.9250   -1.2480 H   0  0  0  0  0  0  0  0  0  0  0  0
    1.7470    1.1940   -1.5800 H   0  0  0  0  0  0  0  0  0  0  0  0
    2.8590    1.0040    0.4100 H   0  0  0  0  0  0  0  0  0  0  0  0
    2.5660    2.8290    2.2730 H   0  0  0  0  0  0  0  0  0  0  0  0
    1.8190    3.8150    0.9070 H   0  0  0  0  0  0  0  0  0  0  0  0
    3.4610    3.1490    0.7690 H   0  0  0  0  0  0  0  0  0  0  0  0
    1.3220    0.7100    2.3110 H   0  0  0  0  0  0  0  0  0  0  0  0
    0.0910   -0.2080   -0.3110 H   0  0  0  0  0  0  0  0  0  0  0  0
   -3.2970    2.8910   -0.0390 C   0  0  0  0  0  0  0  0  0  0  0  0
   -2.6780    2.4560    1.2690 C   0  0  2  0  0  0  0  0  0  0  0  0
   -1.5620    1.5670    1.0780 N   0  0  0  0  0  0  0  0  0  0  0  0
   -3.6750    1.7920    2.1190 C   0  0  0  0  0  0  0  0  0  0  0  0
   -4.7260    2.3900    2.4110 O   0  0  0  0  0  0  0  0  0  0  0  0
   -3.4580    0.5230    2.5920 O   0  0  0  0  0  0  0  0  0  0  0  0
   -3.2070    3.9910   -0.1690 H   0  0  0  0  0  0  0  0  0  0  0  0
   -2.8110    2.3260   -0.8560 H   0  0  0  0  0  0  0  0  0  0  0  0
   -4.3730    2.6330   -0.0170 H   0  0  0  0  0  0  0  0  0  0  0  0
   -2.2950    3.3760    1.8010 H   0  0  0  0  0  0  0  0  0  0  0  0
   -1.7460    0.6580    0.5940 H   0  0  0  0  0  0  0  0  0  0  0  0
  1 11  1  0  0  0  0
  1 10  1  0  0  0  0
  2  3  1  0  0  0  0
  2  1  1  0  0  0  0
  3 14  1  6  0  0  0
  3  5  1  0  0  0  0
  3  4  1  0  0  0  0
  4 17  1  0  0  0  0
  4 16  1  0  0  0  0
  5 18  1  1  0  0  0
  5  7  1  0  0  0  0
  6  5  1  0  0  0  0
  7  8  2  0  0  0  0
  9  1  1  0  0  0  0
 12  2  1  0  0  0  0
 13  2  1  0  0  0  0
 15  4  1  0  0  0  0
 19  6  1  0  0  0  0
 20  6  1  0  0  0  0
 21 22  1  0  0  0  0
 22 23  1  0  0  0  0
 22 24  1  0  0  0  0
 23 32  1  0  0  0  0
 24 26  1  0  0  0  0
 24 35  1  1  0  0  0
 25  7  1  0  0  0  0
 25 24  1  0  0  0  0
 26 27  2  0  0  0  0
 28 21  1  0  0  0  0
 29 21  1  0  0  0  0
 30 21  1  0  0  0  0
 31 22  1  0  0  0  0
 33 23  1  0  0  0  0
 34 23  1  0  0  0  0
 36 25  1  0  0  0  0
 37 45  1  0  0  0  0
 37 38  1  0  0  0  0
 38 46  1  1  0  0  0
 38 40  1  0  0  0  0
 39 38  1  0  0  0  0
 39 26  1  0  0  0  0
 40 41  2  0  0  0  0
 40 42  1  0  0  0  0
 43 37  1  0  0  0  0
 44 37  1  0  0  0  0
 47 39  1  0  0  0  0
M  END
$$$$
