IVD.pdb
 OpenBabel07022418433D

 50 49  0  0  1  0  0  0  0  0999 V2000
    2.7480   -4.7350    1.3620 C   0  0  0  0  0  0  0  0  0  0  0  0
    3.2410   -3.5780    0.5290 C   0  0  0  0  0  0  0  0  0  0  0  0
    2.3540   -3.2440   -0.6130 C   0  0  2  0  0  0  0  0  0  0  0  0
    2.9810   -2.0560   -1.3490 C   0  0  0  0  0  0  0  0  0  0  0  0
    0.9570   -2.8780   -0.2410 C   0  0  2  0  0  0  0  0  0  0  0  0
    0.1740   -2.5720   -1.4290 N   0  0  0  0  0  0  0  0  0  0  0  0
    0.9490   -1.7480    0.7170 C   0  0  0  0  0  0  0  0  0  0  0  0
    1.5290   -1.8990    1.8170 O   0  0  0  0  0  0  0  0  0  0  0  0
    2.4710   -4.4130    2.4080 H   0  0  0  0  0  0  0  0  0  0  0  0
    1.8240   -5.1700    0.9090 H   0  0  0  0  0  0  0  0  0  0  0  0
    3.5040   -5.5330    1.5070 H   0  0  0  0  0  0  0  0  0  0  0  0
    4.2080   -3.9580    0.0650 H   0  0  0  0  0  0  0  0  0  0  0  0
    3.5580   -2.7430    1.1550 H   0  0  0  0  0  0  0  0  0  0  0  0
    2.3670   -4.1040   -1.3220 H   0  0  0  0  0  0  0  0  0  0  0  0
    3.9300   -2.4040   -1.8380 H   0  0  0  0  0  0  0  0  0  0  0  0
    2.3150   -1.6370   -2.1060 H   0  0  0  0  0  0  0  0  0  0  0  0
    3.2530   -1.3100   -0.5930 H   0  0  0  0  0  0  0  0  0  0  0  0
    0.4720   -3.7800    0.2210 H   0  0  0  0  0  0  0  0  0  0  0  0
    0.5740   -3.0780   -2.2460 H   0  0  0  0  0  0  0  0  0  0  0  0
   -0.8090   -2.9230   -1.3130 H   0  0  0  0  0  0  0  0  0  0  0  0
    0.9850    2.8270    1.9060 C   0  0  0  0  0  0  0  0  0  0  0  0
    1.0370    1.7640    0.8170 C   0  0  0  0  0  0  0  0  0  0  0  0
    2.5030    1.4520    0.5970 C   0  0  0  0  0  0  0  0  0  0  0  0
    0.3090    0.5450    1.3370 C   0  0  2  0  0  0  0  0  0  0  0  0
    0.2970   -0.5340    0.3790 N   0  0  0  0  0  0  0  0  0  0  0  0
   -1.0710    0.8830    1.7860 C   0  0  0  0  0  0  0  0  0  0  0  0
   -1.2490    1.8030    2.6220 O   0  0  0  0  0  0  0  0  0  0  0  0
    1.0210    2.2970    2.8720 H   0  0  0  0  0  0  0  0  0  0  0  0
    0.1210    3.5040    1.7930 H   0  0  0  0  0  0  0  0  0  0  0  0
    1.9340    3.4330    1.8630 H   0  0  0  0  0  0  0  0  0  0  0  0
    0.6320    2.1470   -0.1230 H   0  0  0  0  0  0  0  0  0  0  0  0
    2.6870    1.0300   -0.4120 H   0  0  0  0  0  0  0  0  0  0  0  0
    3.0630    2.4210    0.6290 H   0  0  0  0  0  0  0  0  0  0  0  0
    2.9250    0.8320    1.4040 H   0  0  0  0  0  0  0  0  0  0  0  0
    0.8660    0.2210    2.2380 H   0  0  0  0  0  0  0  0  0  0  0  0
   -0.1600   -0.4950   -0.5560 H   0  0  0  0  0  0  0  0  0  0  0  0
   -2.1730    0.1850    1.2830 N   0  0  0  0  0  0  0  0  0  0  0  0
   -3.5520    0.4310    1.6480 C   0  0  1  0  0  0  0  0  0  0  0  0
   -4.3860    0.8690    0.4800 C   0  0  0  0  0  0  0  0  0  0  0  0
   -3.9360    2.1090   -0.1660 C   0  0  0  0  0  0  0  0  0  0  0  0
   -4.6060    2.5150   -1.1520 O   0  0  0  0  0  0  0  0  0  0  0  0
   -4.2010   -0.7170    2.2680 C   0  0  0  0  0  0  0  0  0  0  0  0
   -5.3920   -0.6430    2.6330 O   0  0  0  0  0  0  0  0  0  0  0  0
   -2.8470    2.8740    0.2040 O   0  0  0  0  0  0  0  0  0  0  0  0
   -3.5370   -1.9070    2.4730 O   0  0  0  0  0  0  0  0  0  0  0  0
   -2.0080   -0.5760    0.5890 H   0  0  0  0  0  0  0  0  0  0  0  0
   -3.5180    1.3030    2.3660 H   0  0  0  0  0  0  0  0  0  0  0  0
   -4.4780    0.0770   -0.2960 H   0  0  0  0  0  0  0  0  0  0  0  0
   -5.4180    1.0350    0.8580 H   0  0  0  0  0  0  0  0  0  0  0  0
   -2.4370    3.4970   -0.4840 H   0  0  0  0  0  0  0  0  0  0  0  0
  1 11  1  0  0  0  0
  1  9  1  0  0  0  0
  2 13  1  0  0  0  0
  2  1  1  0  0  0  0
  3 14  1  6  0  0  0
  3  5  1  0  0  0  0
  3  2  1  0  0  0  0
  4  3  1  0  0  0  0
  4 17  1  0  0  0  0
  5 18  1  1  0  0  0
  5  7  1  0  0  0  0
  6 20  1  0  0  0  0
  6  5  1  0  0  0  0
  7  8  2  0  0  0  0
 10  1  1  0  0  0  0
 12  2  1  0  0  0  0
 15  4  1  0  0  0  0
 16  4  1  0  0  0  0
 19  6  1  0  0  0  0
 21 28  1  0  0  0  0
 22 24  1  0  0  0  0
 22 21  1  0  0  0  0
 23 33  1  0  0  0  0
 23 22  1  0  0  0  0
 23 34  1  0  0  0  0
 24 26  1  0  0  0  0
 24 35  1  1  0  0  0
 25  7  1  0  0  0  0
 25 24  1  0  0  0  0
 26 27  2  0  0  0  0
 29 21  1  0  0  0  0
 30 21  1  0  0  0  0
 31 22  1  0  0  0  0
 32 23  1  0  0  0  0
 36 25  1  0  0  0  0
 37 38  1  0  0  0  0
 37 26  1  0  0  0  0
 38 42  1  0  0  0  0
 38 47  1  1  0  0  0
 39 49  1  0  0  0  0
 39 38  1  0  0  0  0
 40 44  1  0  0  0  0
 40 39  1  0  0  0  0
 41 40  2  0  0  0  0
 42 45  2  0  0  0  0
 42 43  1  0  0  0  0
 46 37  1  0  0  0  0
 48 39  1  0  0  0  0
 50 44  1  0  0  0  0
M  END
$$$$
