IVE.pdb
 OpenBabel07022418433D

 53 52  0  0  1  0  0  0  0  0999 V2000
    3.2750   -4.2820   -0.0500 C   0  0  0  0  0  0  0  0  0  0  0  0
    3.1010   -2.8300    0.3620 C   0  0  0  0  0  0  0  0  0  0  0  0
    3.6040   -2.5720    1.7360 C   0  0  2  0  0  0  0  0  0  0  0  0
    2.9290   -3.3580    2.8150 C   0  0  0  0  0  0  0  0  0  0  0  0
    3.6570   -1.0910    2.0410 C   0  0  2  0  0  0  0  0  0  0  0  0
    4.1630   -0.9190    3.4240 N   0  0  0  0  0  0  0  0  0  0  0  0
    2.3380   -0.4270    1.9910 C   0  0  0  0  0  0  0  0  0  0  0  0
    1.7470   -0.1170    3.0710 O   0  0  0  0  0  0  0  0  0  0  0  0
    3.3120   -4.2960   -1.1600 H   0  0  0  0  0  0  0  0  0  0  0  0
    4.2550   -4.6930    0.3150 H   0  0  0  0  0  0  0  0  0  0  0  0
    2.4190   -4.9160    0.2490 H   0  0  0  0  0  0  0  0  0  0  0  0
    2.0180   -2.6240    0.2360 H   0  0  0  0  0  0  0  0  0  0  0  0
    3.6480   -2.2120   -0.3610 H   0  0  0  0  0  0  0  0  0  0  0  0
    4.6840   -2.9180    1.7430 H   0  0  0  0  0  0  0  0  0  0  0  0
    3.0230   -4.4320    2.6220 H   0  0  0  0  0  0  0  0  0  0  0  0
    1.8810   -3.0010    2.9240 H   0  0  0  0  0  0  0  0  0  0  0  0
    3.5040   -3.1540    3.7660 H   0  0  0  0  0  0  0  0  0  0  0  0
    4.4000   -0.5930    1.3930 H   0  0  0  0  0  0  0  0  0  0  0  0
    3.3870   -0.8760    4.1060 H   0  0  0  0  0  0  0  0  0  0  0  0
    4.8700   -1.6450    3.6340 H   0  0  0  0  0  0  0  0  0  0  0  0
   -0.7130    2.7830    0.3900 C   0  0  0  0  0  0  0  0  0  0  0  0
    0.5460    1.9690    0.3610 C   0  0  0  0  0  0  0  0  0  0  0  0
    1.1470    1.9810   -1.0360 C   0  0  0  0  0  0  0  0  0  0  0  0
    0.3740    0.5470    0.8700 C   0  0  2  0  0  0  0  0  0  0  0  0
    1.6710   -0.1020    0.7890 N   0  0  0  0  0  0  0  0  0  0  0  0
   -0.5830   -0.2340    0.0820 C   0  0  0  0  0  0  0  0  0  0  0  0
   -0.1500   -1.2010   -0.5970 O   0  0  0  0  0  0  0  0  0  0  0  0
   -0.3690    3.8630    0.3100 H   0  0  0  0  0  0  0  0  0  0  0  0
   -1.2430    2.6620    1.3510 H   0  0  0  0  0  0  0  0  0  0  0  0
   -1.3820    2.6450   -0.4610 H   0  0  0  0  0  0  0  0  0  0  0  0
    1.2840    2.4670    1.0220 H   0  0  0  0  0  0  0  0  0  0  0  0
    0.9850    0.9480   -1.4400 H   0  0  0  0  0  0  0  0  0  0  0  0
    0.7120    2.7730   -1.6710 H   0  0  0  0  0  0  0  0  0  0  0  0
    2.2440    2.1330   -1.0220 H   0  0  0  0  0  0  0  0  0  0  0  0
    0.0230    0.6390    1.9050 H   0  0  0  0  0  0  0  0  0  0  0  0
    2.0670   -0.2990   -0.1420 H   0  0  0  0  0  0  0  0  0  0  0  0
   -1.9770   -0.0110    0.0040 N   0  0  0  0  0  0  0  0  0  0  0  0
   -2.8080   -0.8290   -0.7980 C   0  0  1  0  0  0  0  0  0  0  0  0
   -3.8060   -1.6740   -0.1110 C   0  0  0  0  0  0  0  0  0  0  0  0
   -4.8260   -0.9950    0.7300 C   0  0  0  0  0  0  0  0  0  0  0  0
   -5.6970   -0.0340    0.0270 C   0  0  0  0  0  0  0  0  0  0  0  0
   -5.4230    1.1890    0.0970 O   0  0  0  0  0  0  0  0  0  0  0  0
   -3.4750   -0.0510   -1.8650 C   0  0  0  0  0  0  0  0  0  0  0  0
   -3.2470    1.1620   -2.0240 O   0  0  0  0  0  0  0  0  0  0  0  0
   -6.8080   -0.4160   -0.7090 O   0  0  0  0  0  0  0  0  0  0  0  0
   -4.3660   -0.7040   -2.6920 O   0  0  0  0  0  0  0  0  0  0  0  0
   -2.4120    0.7630    0.5480 H   0  0  0  0  0  0  0  0  0  0  0  0
   -2.1460   -1.5620   -1.3720 H   0  0  0  0  0  0  0  0  0  0  0  0
   -4.3890   -2.1830   -0.9450 H   0  0  0  0  0  0  0  0  0  0  0  0
   -3.3530   -2.5700    0.4070 H   0  0  0  0  0  0  0  0  0  0  0  0
   -4.2970   -0.5010    1.5980 H   0  0  0  0  0  0  0  0  0  0  0  0
   -5.5080   -1.7270    1.2560 H   0  0  0  0  0  0  0  0  0  0  0  0
   -7.6140    0.2130   -0.8390 H   0  0  0  0  0  0  0  0  0  0  0  0
  1 11  1  0  0  0  0
  1 10  1  0  0  0  0
  1  2  1  0  0  0  0
  2  3  1  0  0  0  0
  3 14  1  6  0  0  0
  3  5  1  0  0  0  0
  3  4  1  0  0  0  0
  4 16  1  0  0  0  0
  4 17  1  0  0  0  0
  5 18  1  6  0  0  0
  5  6  1  0  0  0  0
  6 20  1  0  0  0  0
  6 19  1  0  0  0  0
  7  5  1  0  0  0  0
  7  8  2  0  0  0  0
  9  1  1  0  0  0  0
 12  2  1  0  0  0  0
 13  2  1  0  0  0  0
 15  4  1  0  0  0  0
 21 29  1  0  0  0  0
 22 21  1  0  0  0  0
 22 24  1  0  0  0  0
 22 31  1  0  0  0  0
 23 34  1  0  0  0  0
 23 22  1  0  0  0  0
 24 35  1  1  0  0  0
 25 24  1  0  0  0  0
 25  7  1  0  0  0  0
 26 24  1  0  0  0  0
 27 26  2  0  0  0  0
 28 21  1  0  0  0  0
 30 21  1  0  0  0  0
 32 23  1  0  0  0  0
 33 23  1  0  0  0  0
 36 25  1  0  0  0  0
 37 26  1  0  0  0  0
 37 47  1  0  0  0  0
 38 48  1  6  0  0  0
 38 39  1  0  0  0  0
 38 37  1  0  0  0  0
 39 50  1  0  0  0  0
 39 40  1  0  0  0  0
 40 52  1  0  0  0  0
 40 51  1  0  0  0  0
 41 42  2  0  0  0  0
 41 40  1  0  0  0  0
 43 38  1  0  0  0  0
 44 43  1  0  0  0  0
 45 41  1  0  0  0  0
 46 43  2  0  0  0  0
 49 39  1  0  0  0  0
 53 45  1  0  0  0  0
M  END
$$$$
