IVI.pdb
 OpenBabel07022418433D

 56 55  0  0  1  0  0  0  0  0999 V2000
    1.6670   -3.0930    1.1680 C   0  0  0  0  0  0  0  0  0  0  0  0
    2.4730   -3.1240   -0.1060 C   0  0  0  0  0  0  0  0  0  0  0  0
    3.7370   -2.3430    0.0010 C   0  0  2  0  0  0  0  0  0  0  0  0
    4.6360   -2.8250    1.1000 C   0  0  0  0  0  0  0  0  0  0  0  0
    3.5760   -0.8510   -0.0860 C   0  0  2  0  0  0  0  0  0  0  0  0
    4.9110   -0.2210    0.0790 N   0  0  0  0  0  0  0  0  0  0  0  0
    2.5680   -0.2700    0.8010 C   0  0  0  0  0  0  0  0  0  0  0  0
    2.8810    0.1340    1.9500 O   0  0  0  0  0  0  0  0  0  0  0  0
    0.6440   -2.7590    1.0730 H   0  0  0  0  0  0  0  0  0  0  0  0
    1.6250   -4.1380    1.5620 H   0  0  0  0  0  0  0  0  0  0  0  0
    2.2270   -2.5310    1.9620 H   0  0  0  0  0  0  0  0  0  0  0  0
    2.6510   -4.1750   -0.3880 H   0  0  0  0  0  0  0  0  0  0  0  0
    1.8050   -2.6940   -0.8990 H   0  0  0  0  0  0  0  0  0  0  0  0
    4.3210   -2.6030   -0.9620 H   0  0  0  0  0  0  0  0  0  0  0  0
    4.4750   -3.9180    1.1980 H   0  0  0  0  0  0  0  0  0  0  0  0
    4.3810   -2.3900    2.0890 H   0  0  0  0  0  0  0  0  0  0  0  0
    5.7010   -2.6790    0.8290 H   0  0  0  0  0  0  0  0  0  0  0  0
    3.3220   -0.6190   -1.1640 H   0  0  0  0  0  0  0  0  0  0  0  0
    4.8220    0.8120   -0.0430 H   0  0  0  0  0  0  0  0  0  0  0  0
    5.4550   -0.5520   -0.7610 H   0  0  0  0  0  0  0  0  0  0  0  0
   -0.9960    2.5040    1.9610 C   0  0  0  0  0  0  0  0  0  0  0  0
    0.0500    1.9760    0.9930 C   0  0  0  0  0  0  0  0  0  0  0  0
    1.3330    2.7140    1.2640 C   0  0  0  0  0  0  0  0  0  0  0  0
    0.2100    0.4600    1.3120 C   0  0  2  0  0  0  0  0  0  0  0  0
    1.1780   -0.1120    0.4400 N   0  0  0  0  0  0  0  0  0  0  0  0
   -1.1110   -0.1820    1.1850 C   0  0  0  0  0  0  0  0  0  0  0  0
   -2.0770    0.1640    1.9680 O   0  0  0  0  0  0  0  0  0  0  0  0
   -0.8940    1.9430    2.9170 H   0  0  0  0  0  0  0  0  0  0  0  0
   -2.0180    2.4610    1.5410 H   0  0  0  0  0  0  0  0  0  0  0  0
   -0.7290    3.5640    2.2030 H   0  0  0  0  0  0  0  0  0  0  0  0
   -0.2570    2.0850   -0.0600 H   0  0  0  0  0  0  0  0  0  0  0  0
    2.1700    2.4150    0.6160 H   0  0  0  0  0  0  0  0  0  0  0  0
    1.6350    2.5370    2.3260 H   0  0  0  0  0  0  0  0  0  0  0  0
    1.1790    3.8270    1.2150 H   0  0  0  0  0  0  0  0  0  0  0  0
    0.5020    0.4730    2.3750 H   0  0  0  0  0  0  0  0  0  0  0  0
    0.9490   -0.4530   -0.5180 H   0  0  0  0  0  0  0  0  0  0  0  0
   -4.3950    0.8360   -0.4060 C   0  0  0  0  0  0  0  0  0  0  0  0
   -3.4680    0.1320   -1.3380 C   0  0  0  0  0  0  0  0  0  0  0  0
   -3.3970   -1.3520   -1.1440 C   0  0  2  0  0  0  0  0  0  0  0  0
   -4.7570   -1.9560   -1.3500 C   0  0  0  0  0  0  0  0  0  0  0  0
   -2.8180   -1.7460    0.2040 C   0  0  2  0  0  0  0  0  0  0  0  0
   -1.4750   -1.1870    0.2520 N   0  0  0  0  0  0  0  0  0  0  0  0
   -2.7730   -3.2220    0.2160 C   0  0  0  0  0  0  0  0  0  0  0  0
   -1.6820   -3.8410    0.2480 O   0  0  0  0  0  0  0  0  0  0  0  0
   -3.9540   -3.9820    0.1930 O   0  0  0  0  0  0  0  0  0  0  0  0
   -5.4070    0.9280   -0.8850 H   0  0  0  0  0  0  0  0  0  0  0  0
   -4.4420    0.3880    0.5850 H   0  0  0  0  0  0  0  0  0  0  0  0
   -4.0220    1.8980   -0.3160 H   0  0  0  0  0  0  0  0  0  0  0  0
   -2.4580    0.6060   -1.3000 H   0  0  0  0  0  0  0  0  0  0  0  0
   -3.8330    0.3050   -2.3740 H   0  0  0  0  0  0  0  0  0  0  0  0
   -2.7060   -1.7550   -1.9110 H   0  0  0  0  0  0  0  0  0  0  0  0
   -5.3360   -2.0560   -0.4300 H   0  0  0  0  0  0  0  0  0  0  0  0
   -4.6130   -2.9550   -1.8280 H   0  0  0  0  0  0  0  0  0  0  0  0
   -5.3050   -1.3050   -2.0690 H   0  0  0  0  0  0  0  0  0  0  0  0
   -3.4550   -1.3450    1.0080 H   0  0  0  0  0  0  0  0  0  0  0  0
   -0.7570   -1.5260   -0.4130 H   0  0  0  0  0  0  0  0  0  0  0  0
  1 10  1  0  0  0  0
  1 11  1  0  0  0  0
  2  3  1  0  0  0  0
  2  1  1  0  0  0  0
  3 14  1  6  0  0  0
  3  4  1  0  0  0  0
  4 15  1  0  0  0  0
  4 16  1  0  0  0  0
  5 18  1  6  0  0  0
  5  3  1  0  0  0  0
  5  6  1  0  0  0  0
  5  7  1  0  0  0  0
  7  8  2  0  0  0  0
  9  1  1  0  0  0  0
 12  2  1  0  0  0  0
 13  2  1  0  0  0  0
 17  4  1  0  0  0  0
 19  6  1  0  0  0  0
 20  6  1  0  0  0  0
 21 30  1  0  0  0  0
 21 28  1  0  0  0  0
 22 23  1  0  0  0  0
 22 24  1  0  0  0  0
 22 21  1  0  0  0  0
 23 33  1  0  0  0  0
 24 35  1  1  0  0  0
 25  7  1  0  0  0  0
 25 24  1  0  0  0  0
 26 24  1  0  0  0  0
 26 27  2  0  0  0  0
 29 21  1  0  0  0  0
 31 22  1  0  0  0  0
 32 23  1  0  0  0  0
 34 23  1  0  0  0  0
 36 25  1  0  0  0  0
 37 48  1  0  0  0  0
 37 47  1  0  0  0  0
 38 49  1  0  0  0  0
 38 39  1  0  0  0  0
 38 37  1  0  0  0  0
 39 51  1  6  0  0  0
 39 41  1  0  0  0  0
 40 39  1  0  0  0  0
 40 52  1  0  0  0  0
 41 43  1  0  0  0  0
 41 42  1  0  0  0  0
 41 55  1  1  0  0  0
 42 26  1  0  0  0  0
 43 44  1  0  0  0  0
 45 43  2  0  0  0  0
 46 37  1  0  0  0  0
 50 38  1  0  0  0  0
 53 40  1  0  0  0  0
 54 40  1  0  0  0  0
 56 42  1  0  0  0  0
M  END
$$$$
