IVK.pdb
 OpenBabel07022418443D

 58 57  0  0  1  0  0  0  0  0999 V2000
    2.9260   -4.3790   -0.3470 C   0  0  0  0  0  0  0  0  0  0  0  0
    2.7200   -2.9070    0.0030 C   0  0  0  0  0  0  0  0  0  0  0  0
    3.5360   -2.5120    1.1850 C   0  0  2  0  0  0  0  0  0  0  0  0
    3.1060   -3.3520    2.3660 C   0  0  0  0  0  0  0  0  0  0  0  0
    3.6490   -1.0610    1.4400 C   0  0  2  0  0  0  0  0  0  0  0  0
    4.4940   -0.8590    2.6410 N   0  0  0  0  0  0  0  0  0  0  0  0
    2.4220   -0.2920    1.6020 C   0  0  0  0  0  0  0  0  0  0  0  0
    2.2120    0.2760    2.7300 O   0  0  0  0  0  0  0  0  0  0  0  0
    2.2980   -4.5550   -1.2690 H   0  0  0  0  0  0  0  0  0  0  0  0
    3.9730   -4.5650   -0.6210 H   0  0  0  0  0  0  0  0  0  0  0  0
    2.5240   -5.0530    0.4240 H   0  0  0  0  0  0  0  0  0  0  0  0
    1.6280   -2.8150    0.1680 H   0  0  0  0  0  0  0  0  0  0  0  0
    2.9750   -2.3210   -0.8910 H   0  0  0  0  0  0  0  0  0  0  0  0
    4.5890   -2.8900    0.9550 H   0  0  0  0  0  0  0  0  0  0  0  0
    3.4070   -4.3980    2.1430 H   0  0  0  0  0  0  0  0  0  0  0  0
    3.6530   -3.0680    3.2970 H   0  0  0  0  0  0  0  0  0  0  0  0
    2.0130   -3.3550    2.5140 H   0  0  0  0  0  0  0  0  0  0  0  0
    4.2630   -0.6190    0.6110 H   0  0  0  0  0  0  0  0  0  0  0  0
    5.4720   -1.1240    2.3610 H   0  0  0  0  0  0  0  0  0  0  0  0
    4.5120    0.1670    2.8090 H   0  0  0  0  0  0  0  0  0  0  0  0
   -0.9420    2.8530    0.3060 C   0  0  0  0  0  0  0  0  0  0  0  0
    0.1930    1.9050    0.0660 C   0  0  0  0  0  0  0  0  0  0  0  0
    1.4800    2.7370    0.2820 C   0  0  0  0  0  0  0  0  0  0  0  0
    0.2340    0.7070    0.9100 C   0  0  2  0  0  0  0  0  0  0  0  0
    1.4340   -0.1070    0.6250 N   0  0  0  0  0  0  0  0  0  0  0  0
   -0.8530   -0.2270    1.0130 C   0  0  0  0  0  0  0  0  0  0  0  0
   -0.5230   -1.4790    1.1350 O   0  0  0  0  0  0  0  0  0  0  0  0
   -1.8010    2.7830   -0.3450 H   0  0  0  0  0  0  0  0  0  0  0  0
   -1.2820    2.8100    1.3850 H   0  0  0  0  0  0  0  0  0  0  0  0
   -0.5900    3.9320    0.2270 H   0  0  0  0  0  0  0  0  0  0  0  0
    0.2070    1.7120   -1.0300 H   0  0  0  0  0  0  0  0  0  0  0  0
    2.3690    2.1260    0.0850 H   0  0  0  0  0  0  0  0  0  0  0  0
    1.5240    3.1400    1.2940 H   0  0  0  0  0  0  0  0  0  0  0  0
    1.4970    3.5880   -0.4280 H   0  0  0  0  0  0  0  0  0  0  0  0
    0.3870    1.1000    1.9830 H   0  0  0  0  0  0  0  0  0  0  0  0
    1.5060   -0.5170   -0.3190 H   0  0  0  0  0  0  0  0  0  0  0  0
   -2.2560   -0.0360    1.0110 N   0  0  0  0  0  0  0  0  0  0  0  0
   -3.1410   -1.1330    1.1830 C   0  0  1  0  0  0  0  0  0  0  0  0
   -3.1550   -2.1600    0.1430 C   0  0  0  0  0  0  0  0  0  0  0  0
   -3.5440   -1.8870   -1.2170 C   0  0  0  0  0  0  0  0  0  0  0  0
   -2.9340   -1.0340   -2.1930 C   0  0  0  0  0  0  0  0  0  0  0  0
   -2.7470    0.4070   -2.0650 C   0  0  0  0  0  0  0  0  0  0  0  0
   -3.9370    1.1920   -1.8530 N   0  0  0  0  0  0  0  0  0  0  0  0
   -2.8200   -1.7770    2.5520 C   0  0  0  0  0  0  0  0  0  0  0  0
   -3.5180   -2.7810    2.8210 O   0  0  0  0  0  0  0  0  0  0  0  0
   -1.8550   -1.2670    3.3660 O   0  0  0  0  0  0  0  0  0  0  0  0
   -2.5680    0.9540    0.8760 H   0  0  0  0  0  0  0  0  0  0  0  0
   -4.1980   -0.7480    1.4290 H   0  0  0  0  0  0  0  0  0  0  0  0
   -3.9010   -2.9720    0.5290 H   0  0  0  0  0  0  0  0  0  0  0  0
   -2.1990   -2.8120    0.2020 H   0  0  0  0  0  0  0  0  0  0  0  0
   -4.6770   -1.5890   -1.1650 H   0  0  0  0  0  0  0  0  0  0  0  0
   -3.7060   -2.9120   -1.7620 H   0  0  0  0  0  0  0  0  0  0  0  0
   -3.4960   -1.1920   -3.1870 H   0  0  0  0  0  0  0  0  0  0  0  0
   -1.9090   -1.4680   -2.4900 H   0  0  0  0  0  0  0  0  0  0  0  0
   -2.4350    0.7480   -3.1380 H   0  0  0  0  0  0  0  0  0  0  0  0
   -1.9340    0.7870   -1.4730 H   0  0  0  0  0  0  0  0  0  0  0  0
   -3.7270    2.1970   -1.9880 H   0  0  0  0  0  0  0  0  0  0  0  0
   -4.4270    0.9810   -0.9620 H   0  0  0  0  0  0  0  0  0  0  0  0
  1  2  1  0  0  0  0
  1 11  1  0  0  0  0
  2 12  1  0  0  0  0
  2  3  1  0  0  0  0
  3 14  1  6  0  0  0
  3  5  1  0  0  0  0
  3  4  1  0  0  0  0
  4 17  1  0  0  0  0
  4 16  1  0  0  0  0
  5 18  1  6  0  0  0
  5  7  1  0  0  0  0
  5  6  1  0  0  0  0
  6 20  1  0  0  0  0
  7  8  2  0  0  0  0
  9  1  1  0  0  0  0
 10  1  1  0  0  0  0
 13  2  1  0  0  0  0
 15  4  1  0  0  0  0
 19  6  1  0  0  0  0
 21 29  1  0  0  0  0
 22 23  1  0  0  0  0
 22 21  1  0  0  0  0
 22 24  1  0  0  0  0
 23 33  1  0  0  0  0
 24 26  1  0  0  0  0
 24 35  1  1  0  0  0
 25 24  1  0  0  0  0
 25  7  1  0  0  0  0
 26 27  2  0  0  0  0
 28 21  1  0  0  0  0
 30 21  1  0  0  0  0
 31 22  1  0  0  0  0
 32 23  1  0  0  0  0
 34 23  1  0  0  0  0
 36 25  1  0  0  0  0
 37 26  1  0  0  0  0
 37 38  1  0  0  0  0
 38 48  1  1  0  0  0
 38 44  1  0  0  0  0
 39 50  1  0  0  0  0
 39 49  1  0  0  0  0
 39 38  1  0  0  0  0
 40 51  1  0  0  0  0
 40 39  1  0  0  0  0
 41 42  1  0  0  0  0
 41 40  1  0  0  0  0
 42 43  1  0  0  0  0
 42 56  1  0  0  0  0
 43 58  1  0  0  0  0
 44 45  2  0  0  0  0
 44 46  1  0  0  0  0
 47 37  1  0  0  0  0
 52 40  1  0  0  0  0
 53 41  1  0  0  0  0
 54 41  1  0  0  0  0
 55 42  1  0  0  0  0
 57 43  1  0  0  0  0
M  END
$$$$
