IVN.pdb
 OpenBabel07022418433D

 51 50  0  0  1  0  0  0  0  0999 V2000
   -3.3740   -2.0470    1.6730 C   0  0  0  0  0  0  0  0  0  0  0  0
   -1.9900   -1.4570    1.9770 C   0  0  0  0  0  0  0  0  0  0  0  0
   -2.0860   -0.3890    3.0150 C   0  0  2  0  0  0  0  0  0  0  0  0
   -2.9680    0.7620    2.5810 C   0  0  0  0  0  0  0  0  0  0  0  0
   -0.7730    0.1610    3.4930 C   0  0  2  0  0  0  0  0  0  0  0  0
   -1.1230    1.1760    4.4840 N   0  0  0  0  0  0  0  0  0  0  0  0
    0.0600    0.7880    2.4580 C   0  0  0  0  0  0  0  0  0  0  0  0
    0.1650    2.0640    2.4610 O   0  0  0  0  0  0  0  0  0  0  0  0
   -3.9860   -2.0380    2.5990 H   0  0  0  0  0  0  0  0  0  0  0  0
   -3.8270   -1.4860    0.8500 H   0  0  0  0  0  0  0  0  0  0  0  0
   -3.2430   -3.1020    1.3670 H   0  0  0  0  0  0  0  0  0  0  0  0
   -1.6530   -0.9570    1.0400 H   0  0  0  0  0  0  0  0  0  0  0  0
   -1.2730   -2.2340    2.2450 H   0  0  0  0  0  0  0  0  0  0  0  0
   -2.5710   -0.8160    3.9540 H   0  0  0  0  0  0  0  0  0  0  0  0
   -2.3700    1.5700    2.0870 H   0  0  0  0  0  0  0  0  0  0  0  0
   -3.5160    1.2100    3.4270 H   0  0  0  0  0  0  0  0  0  0  0  0
   -3.6920    0.4120    1.8260 H   0  0  0  0  0  0  0  0  0  0  0  0
   -0.2200   -0.6330    4.0620 H   0  0  0  0  0  0  0  0  0  0  0  0
   -1.6020    1.9880    4.0490 H   0  0  0  0  0  0  0  0  0  0  0  0
   -0.3000    1.4440    5.0640 H   0  0  0  0  0  0  0  0  0  0  0  0
    3.2550    1.0320    2.2180 C   0  0  0  0  0  0  0  0  0  0  0  0
    3.0430    0.4600    0.8350 C   0  0  0  0  0  0  0  0  0  0  0  0
    3.2750   -1.0310    0.8610 C   0  0  0  0  0  0  0  0  0  0  0  0
    1.5770    0.7480    0.4530 C   0  0  2  0  0  0  0  0  0  0  0  0
    0.7720    0.0920    1.4420 N   0  0  0  0  0  0  0  0  0  0  0  0
    1.4230    0.2930   -0.9190 C   0  0  0  0  0  0  0  0  0  0  0  0
    2.0970    0.8870   -1.8110 O   0  0  0  0  0  0  0  0  0  0  0  0
    2.6090    0.4690    2.9220 H   0  0  0  0  0  0  0  0  0  0  0  0
    2.9240    2.0910    2.2580 H   0  0  0  0  0  0  0  0  0  0  0  0
    4.3170    0.9190    2.5180 H   0  0  0  0  0  0  0  0  0  0  0  0
    3.6580    0.9280    0.0670 H   0  0  0  0  0  0  0  0  0  0  0  0
    2.7030   -1.5780    0.0920 H   0  0  0  0  0  0  0  0  0  0  0  0
    4.3590   -1.1980    0.6860 H   0  0  0  0  0  0  0  0  0  0  0  0
    3.0410   -1.3810    1.9000 H   0  0  0  0  0  0  0  0  0  0  0  0
    1.4920    1.8680    0.5170 H   0  0  0  0  0  0  0  0  0  0  0  0
    0.6900   -0.9420    1.4410 H   0  0  0  0  0  0  0  0  0  0  0  0
   -0.8090   -3.4220   -1.2430 N   0  0  0  0  0  0  0  0  0  0  0  0
    0.3040   -3.5740   -2.0930 C   0  0  0  0  0  0  0  0  0  0  0  0
    0.7610   -4.7550   -2.2180 O   0  0  0  0  0  0  0  0  0  0  0  0
    0.9960   -2.5310   -2.8480 C   0  0  0  0  0  0  0  0  0  0  0  0
    0.4800   -1.1460   -2.6800 C   0  0  2  0  0  0  0  0  0  0  0  0
    0.5780   -0.7560   -1.3010 N   0  0  0  0  0  0  0  0  0  0  0  0
   -0.8680   -0.9910   -3.2420 C   0  0  0  0  0  0  0  0  0  0  0  0
   -1.8620   -0.5590   -2.6080 O   0  0  0  0  0  0  0  0  0  0  0  0
   -1.0600   -1.3470   -4.5680 O   0  0  0  0  0  0  0  0  0  0  0  0
   -0.7280   -3.6030   -0.2300 H   0  0  0  0  0  0  0  0  0  0  0  0
   -1.7160   -3.1260   -1.6400 H   0  0  0  0  0  0  0  0  0  0  0  0
    0.9840   -2.8480   -3.9270 H   0  0  0  0  0  0  0  0  0  0  0  0
    2.0850   -2.5890   -2.5570 H   0  0  0  0  0  0  0  0  0  0  0  0
    1.1500   -0.4820   -3.2990 H   0  0  0  0  0  0  0  0  0  0  0  0
   -0.0030   -1.2910   -0.6190 H   0  0  0  0  0  0  0  0  0  0  0  0
  1  2  1  0  0  0  0
  1  9  1  0  0  0  0
  2 13  1  0  0  0  0
  2  3  1  0  0  0  0
  3  5  1  0  0  0  0
  3 14  1  1  0  0  0
  4  3  1  0  0  0  0
  4 16  1  0  0  0  0
  5 18  1  1  0  0  0
  5  6  1  0  0  0  0
  6 20  1  0  0  0  0
  7  8  2  0  0  0  0
  7  5  1  0  0  0  0
 10  1  1  0  0  0  0
 11  1  1  0  0  0  0
 12  2  1  0  0  0  0
 15  4  1  0  0  0  0
 17  4  1  0  0  0  0
 19  6  1  0  0  0  0
 21 29  1  0  0  0  0
 21 30  1  0  0  0  0
 21 28  1  0  0  0  0
 22 23  1  0  0  0  0
 22 21  1  0  0  0  0
 23 34  1  0  0  0  0
 24 35  1  1  0  0  0
 24 22  1  0  0  0  0
 24 25  1  0  0  0  0
 25  7  1  0  0  0  0
 26 24  1  0  0  0  0
 27 26  2  0  0  0  0
 31 22  1  0  0  0  0
 32 23  1  0  0  0  0
 33 23  1  0  0  0  0
 36 25  1  0  0  0  0
 37 46  1  0  0  0  0
 38 37  1  0  0  0  0
 39 38  2  0  0  0  0
 40 41  1  0  0  0  0
 40 49  1  0  0  0  0
 40 38  1  0  0  0  0
 41 50  1  6  0  0  0
 41 42  1  0  0  0  0
 42 26  1  0  0  0  0
 42 51  1  0  0  0  0
 43 41  1  0  0  0  0
 43 44  1  0  0  0  0
 45 43  2  0  0  0  0
 47 37  1  0  0  0  0
 48 40  1  0  0  0  0
M  END
$$$$
