IVR.pdb
 OpenBabel07022418433D

 60 59  0  0  1  0  0  0  0  0999 V2000
    1.3070    3.1970   -4.8120 C   0  0  0  0  0  0  0  0  0  0  0  0
    0.6710    1.9860   -5.4470 C   0  0  0  0  0  0  0  0  0  0  0  0
   -0.2330    1.2470   -4.4790 C   0  0  2  0  0  0  0  0  0  0  0  0
   -1.3130    2.2140   -4.0500 C   0  0  0  0  0  0  0  0  0  0  0  0
    0.5590    0.8720   -3.2540 C   0  0  2  0  0  0  0  0  0  0  0  0
    1.6810    0.0210   -3.5180 N   0  0  0  0  0  0  0  0  0  0  0  0
   -0.3100    0.2190   -2.2480 C   0  0  0  0  0  0  0  0  0  0  0  0
   -1.3870    0.7690   -1.8430 O   0  0  0  0  0  0  0  0  0  0  0  0
    2.3720    3.0030   -4.5540 H   0  0  0  0  0  0  0  0  0  0  0  0
    1.3010    4.0190   -5.5560 H   0  0  0  0  0  0  0  0  0  0  0  0
    0.7500    3.5560   -3.9300 H   0  0  0  0  0  0  0  0  0  0  0  0
    0.0030    2.3380   -6.2890 H   0  0  0  0  0  0  0  0  0  0  0  0
    1.4490    1.3670   -5.8960 H   0  0  0  0  0  0  0  0  0  0  0  0
   -0.6500    0.3780   -5.0190 H   0  0  0  0  0  0  0  0  0  0  0  0
   -0.9770    2.7290   -3.1470 H   0  0  0  0  0  0  0  0  0  0  0  0
   -1.4900    2.9410   -4.8820 H   0  0  0  0  0  0  0  0  0  0  0  0
   -2.2680    1.7040   -3.8250 H   0  0  0  0  0  0  0  0  0  0  0  0
    0.8860    1.8580   -2.7990 H   0  0  0  0  0  0  0  0  0  0  0  0
    2.0850    0.0840   -4.4560 H   0  0  0  0  0  0  0  0  0  0  0  0
    2.4450    0.1540   -2.8090 H   0  0  0  0  0  0  0  0  0  0  0  0
   -0.0240   -3.8710   -1.4620 C   0  0  0  0  0  0  0  0  0  0  0  0
   -1.2580   -3.0580   -1.2340 C   0  0  0  0  0  0  0  0  0  0  0  0
   -2.2710   -3.6780   -0.3180 C   0  0  0  0  0  0  0  0  0  0  0  0
   -0.8480   -1.7060   -0.6810 C   0  0  2  0  0  0  0  0  0  0  0  0
    0.0210   -1.0440   -1.6940 N   0  0  0  0  0  0  0  0  0  0  0  0
    0.0100   -1.8580    0.5180 C   0  0  0  0  0  0  0  0  0  0  0  0
    1.2500   -1.5570    0.4350 O   0  0  0  0  0  0  0  0  0  0  0  0
    0.2780   -3.7440   -2.5250 H   0  0  0  0  0  0  0  0  0  0  0  0
    0.8560   -3.5120   -0.8550 H   0  0  0  0  0  0  0  0  0  0  0  0
   -0.2160   -4.9500   -1.2450 H   0  0  0  0  0  0  0  0  0  0  0  0
   -1.7800   -2.8200   -2.2060 H   0  0  0  0  0  0  0  0  0  0  0  0
   -2.9670   -4.2890   -0.9540 H   0  0  0  0  0  0  0  0  0  0  0  0
   -2.8530   -2.8630    0.1550 H   0  0  0  0  0  0  0  0  0  0  0  0
   -1.7940   -4.3130    0.4580 H   0  0  0  0  0  0  0  0  0  0  0  0
   -1.6960   -1.0190   -0.5360 H   0  0  0  0  0  0  0  0  0  0  0  0
    0.9000   -1.5130   -2.0120 H   0  0  0  0  0  0  0  0  0  0  0  0
    1.6450   -0.5310    7.4080 N   0  0  0  0  0  0  0  0  0  0  0  0
    0.6290    0.0660    6.6250 C   0  0  0  0  0  0  0  0  0  0  0  0
    0.9700    1.0700    5.8660 N   0  0  0  0  0  0  0  0  0  0  0  0
   -0.7210   -0.3670    6.6310 N   0  0  0  0  0  0  0  0  0  0  0  0
   -1.5360   -0.4430    5.4680 C   0  0  0  0  0  0  0  0  0  0  0  0
   -1.2080   -1.5170    4.4760 C   0  0  0  0  0  0  0  0  0  0  0  0
    0.1720   -1.3760    3.9600 C   0  0  0  0  0  0  0  0  0  0  0  0
    0.5120   -2.4330    2.9110 C   0  0  2  0  0  0  0  0  0  0  0  0
   -0.4020   -2.3110    1.7880 N   0  0  0  0  0  0  0  0  0  0  0  0
    0.5760   -3.7810    3.4550 C   0  0  0  0  0  0  0  0  0  0  0  0
   -0.1140   -4.7020    2.9700 O   0  0  0  0  0  0  0  0  0  0  0  0
    1.4070   -4.0550    4.5210 O   0  0  0  0  0  0  0  0  0  0  0  0
    2.3360   -1.1880    6.9860 H   0  0  0  0  0  0  0  0  0  0  0  0
    1.7390   -0.3380    8.4280 H   0  0  0  0  0  0  0  0  0  0  0  0
    0.2940    1.5760    5.2530 H   0  0  0  0  0  0  0  0  0  0  0  0
   -1.1180   -0.6460    7.5570 H   0  0  0  0  0  0  0  0  0  0  0  0
   -1.5160    0.5490    4.9090 H   0  0  0  0  0  0  0  0  0  0  0  0
   -2.6220   -0.5730    5.7110 H   0  0  0  0  0  0  0  0  0  0  0  0
   -1.3450   -2.4930    5.0270 H   0  0  0  0  0  0  0  0  0  0  0  0
   -1.9670   -1.5310    3.6600 H   0  0  0  0  0  0  0  0  0  0  0  0
    0.3130   -0.3970    3.4800 H   0  0  0  0  0  0  0  0  0  0  0  0
    0.9240   -1.4530    4.7830 H   0  0  0  0  0  0  0  0  0  0  0  0
    1.5190   -2.1310    2.5350 H   0  0  0  0  0  0  0  0  0  0  0  0
   -1.3860   -2.5660    1.9670 H   0  0  0  0  0  0  0  0  0  0  0  0
  1  9  1  0  0  0  0
  1 11  1  0  0  0  0
  2  1  1  0  0  0  0
  2  3  1  0  0  0  0
  3 14  1  6  0  0  0
  3  4  1  0  0  0  0
  3  5  1  0  0  0  0
  4 17  1  0  0  0  0
  4 15  1  0  0  0  0
  5 18  1  1  0  0  0
  5  7  1  0  0  0  0
  6  5  1  0  0  0  0
  6 20  1  0  0  0  0
  7  8  2  0  0  0  0
  7 25  1  0  0  0  0
 10  1  1  0  0  0  0
 12  2  1  0  0  0  0
 13  2  1  0  0  0  0
 16  4  1  0  0  0  0
 19  6  1  0  0  0  0
 21 30  1  0  0  0  0
 21 22  1  0  0  0  0
 21 29  1  0  0  0  0
 22 24  1  0  0  0  0
 22 23  1  0  0  0  0
 23 33  1  0  0  0  0
 23 34  1  0  0  0  0
 24 35  1  1  0  0  0
 24 26  1  0  0  0  0
 25 24  1  0  0  0  0
 26 45  1  0  0  0  0
 27 26  2  0  0  0  0
 28 21  1  0  0  0  0
 31 22  1  0  0  0  0
 32 23  1  0  0  0  0
 36 25  1  0  0  0  0
 37 50  1  0  0  0  0
 38 40  1  0  0  0  0
 38 37  1  0  0  0  0
 39 38  2  0  0  0  0
 40 52  1  0  0  0  0
 41 54  1  0  0  0  0
 41 40  1  0  0  0  0
 42 55  1  0  0  0  0
 42 41  1  0  0  0  0
 43 42  1  0  0  0  0
 43 58  1  0  0  0  0
 44 59  1  6  0  0  0
 44 46  1  0  0  0  0
 44 43  1  0  0  0  0
 45 60  1  0  0  0  0
 45 44  1  0  0  0  0
 46 48  1  0  0  0  0
 47 46  2  0  0  0  0
 49 37  1  0  0  0  0
 51 39  1  0  0  0  0
 53 41  1  0  0  0  0
 56 42  1  0  0  0  0
 57 43  1  0  0  0  0
M  END
$$$$
