IWD.pdb
 OpenBabel07022418433D

 58 59  0  0  1  0  0  0  0  0999 V2000
    2.2120   -1.2910    4.0050 C   0  0  0  0  0  0  0  0  0  0  0  0
    1.8040   -0.3750    2.8430 C   0  0  0  0  0  0  0  0  0  0  0  0
    2.0350    1.0590    3.1880 C   0  0  2  0  0  0  0  0  0  0  0  0
    1.2500    1.5140    4.3810 C   0  0  0  0  0  0  0  0  0  0  0  0
    1.8650    1.9960    2.0160 C   0  0  2  0  0  0  0  0  0  0  0  0
    2.1130    3.3570    2.4980 N   0  0  0  0  0  0  0  0  0  0  0  0
    0.4800    1.8700    1.5030 C   0  0  0  0  0  0  0  0  0  0  0  0
   -0.4060    2.7530    1.7870 O   0  0  0  0  0  0  0  0  0  0  0  0
    2.2420   -2.3380    3.6080 H   0  0  0  0  0  0  0  0  0  0  0  0
    3.2180   -1.0480    4.3550 H   0  0  0  0  0  0  0  0  0  0  0  0
    1.4330   -1.2860    4.7930 H   0  0  0  0  0  0  0  0  0  0  0  0
    0.7090   -0.5750    2.7110 H   0  0  0  0  0  0  0  0  0  0  0  0
    2.3410   -0.7200    1.9450 H   0  0  0  0  0  0  0  0  0  0  0  0
    3.1280    1.1790    3.4870 H   0  0  0  0  0  0  0  0  0  0  0  0
    1.7520    1.2840    5.3430 H   0  0  0  0  0  0  0  0  0  0  0  0
    0.2390    1.0270    4.4370 H   0  0  0  0  0  0  0  0  0  0  0  0
    1.1390    2.6280    4.3100 H   0  0  0  0  0  0  0  0  0  0  0  0
    2.5750    1.7760    1.2160 H   0  0  0  0  0  0  0  0  0  0  0  0
    2.9240    3.3000    3.1350 H   0  0  0  0  0  0  0  0  0  0  0  0
    2.4030    3.9320    1.6760 H   0  0  0  0  0  0  0  0  0  0  0  0
    0.0040    0.8150    0.6770 N   0  0  0  0  0  0  0  0  0  0  0  0
   -1.3790    0.7770    0.2150 C   0  0  1  0  0  0  0  0  0  0  0  0
   -1.4320    1.3290   -1.2200 C   0  0  0  0  0  0  0  0  0  0  0  0
   -0.6000    0.5910   -2.1670 C   0  0  0  0  0  0  0  0  0  0  0  0
    0.7010    0.9530   -2.5530 C   0  0  0  0  0  0  0  0  0  0  0  0
    1.1710    0.0420   -3.3990 N   0  0  0  0  0  0  0  0  0  0  0  0
    0.2700   -0.9280   -3.6220 C   0  0  0  0  0  0  0  0  0  0  0  0
    0.3020   -2.0540   -4.4130 C   0  0  0  0  0  0  0  0  0  0  0  0
   -0.7980   -2.8740   -4.4500 C   0  0  0  0  0  0  0  0  0  0  0  0
   -1.9180   -2.5750   -3.7060 C   0  0  0  0  0  0  0  0  0  0  0  0
   -1.9240   -1.4360   -2.9180 C   0  0  0  0  0  0  0  0  0  0  0  0
   -0.8420   -0.5790   -2.8450 C   0  0  0  0  0  0  0  0  0  0  0  0
   -2.0640   -0.4980    0.3880 C   0  0  0  0  0  0  0  0  0  0  0  0
   -3.3350   -0.5650    0.1910 O   0  0  0  0  0  0  0  0  0  0  0  0
    0.6810    0.0710    0.4120 H   0  0  0  0  0  0  0  0  0  0  0  0
   -1.9840    1.5570    0.7810 H   0  0  0  0  0  0  0  0  0  0  0  0
   -1.1330    2.3930   -1.1750 H   0  0  0  0  0  0  0  0  0  0  0  0
   -2.5180    1.3160   -1.4950 H   0  0  0  0  0  0  0  0  0  0  0  0
    1.1730    1.8400   -2.1800 H   0  0  0  0  0  0  0  0  0  0  0  0
    2.1140    0.0440   -3.8550 H   0  0  0  0  0  0  0  0  0  0  0  0
    1.1600   -2.3090   -5.0010 H   0  0  0  0  0  0  0  0  0  0  0  0
   -0.7930   -3.7780   -5.0750 H   0  0  0  0  0  0  0  0  0  0  0  0
   -2.8020   -3.1970   -3.7110 H   0  0  0  0  0  0  0  0  0  0  0  0
   -2.7890   -1.1620   -2.3310 H   0  0  0  0  0  0  0  0  0  0  0  0
   -1.3750   -1.6850    0.7670 N   0  0  0  0  0  0  0  0  0  0  0  0
   -2.0870   -2.9580    0.9430 C   0  0  1  0  0  0  0  0  0  0  0  0
   -1.5960   -3.9960   -0.0210 C   0  0  0  0  0  0  0  0  0  0  0  0
   -0.1560   -4.2960    0.1270 C   0  0  0  0  0  0  0  0  0  0  0  0
    0.3250   -5.1630   -0.6520 O   0  0  0  0  0  0  0  0  0  0  0  0
   -1.8750   -3.4840    2.3120 C   0  0  0  0  0  0  0  0  0  0  0  0
   -2.4130   -4.5670    2.6330 O   0  0  0  0  0  0  0  0  0  0  0  0
    0.6830   -3.7100    1.0350 O   0  0  0  0  0  0  0  0  0  0  0  0
   -1.1050   -2.8270    3.2560 O   0  0  0  0  0  0  0  0  0  0  0  0
   -0.3490   -1.6110    0.9060 H   0  0  0  0  0  0  0  0  0  0  0  0
   -3.1430   -2.7590    0.7200 H   0  0  0  0  0  0  0  0  0  0  0  0
   -1.8750   -3.6830   -1.0370 H   0  0  0  0  0  0  0  0  0  0  0  0
   -2.1430   -4.9430    0.2360 H   0  0  0  0  0  0  0  0  0  0  0  0
    1.6990   -3.8610    0.9810 H   0  0  0  0  0  0  0  0  0  0  0  0
  1 10  1  0  0  0  0
  1 11  1  0  0  0  0
  2  3  1  0  0  0  0
  2  1  1  0  0  0  0
  3 14  1  1  0  0  0
  3  4  1  0  0  0  0
  4 16  1  0  0  0  0
  4 15  1  0  0  0  0
  5 18  1  6  0  0  0
  5  6  1  0  0  0  0
  5  3  1  0  0  0  0
  6 19  1  0  0  0  0
  7  8  2  0  0  0  0
  7  5  1  0  0  0  0
  9  1  1  0  0  0  0
 12  2  1  0  0  0  0
 13  2  1  0  0  0  0
 17  4  1  0  0  0  0
 20  6  1  0  0  0  0
 21  7  1  0  0  0  0
 22 33  1  0  0  0  0
 22 21  1  0  0  0  0
 22 36  1  1  0  0  0
 23 37  1  0  0  0  0
 23 22  1  0  0  0  0
 24 23  1  0  0  0  0
 25 39  1  0  0  0  0
 25 24  2  0  0  0  0
 26 25  1  0  0  0  0
 27 26  1  0  0  0  0
 27 32  1  0  0  0  0
 28 27  2  0  0  0  0
 29 28  1  0  0  0  0
 29 30  2  0  0  0  0
 30 31  1  0  0  0  0
 31 32  2  0  0  0  0
 31 44  1  0  0  0  0
 32 24  1  0  0  0  0
 33 45  1  0  0  0  0
 34 33  2  0  0  0  0
 35 21  1  0  0  0  0
 38 23  1  0  0  0  0
 40 26  1  0  0  0  0
 41 28  1  0  0  0  0
 42 29  1  0  0  0  0
 43 30  1  0  0  0  0
 45 54  1  0  0  0  0
 45 46  1  0  0  0  0
 46 55  1  6  0  0  0
 46 50  1  0  0  0  0
 47 48  1  0  0  0  0
 47 57  1  0  0  0  0
 47 46  1  0  0  0  0
 48 52  1  0  0  0  0
 49 48  2  0  0  0  0
 50 51  2  0  0  0  0
 50 53  1  0  0  0  0
 56 47  1  0  0  0  0
 58 52  1  0  0  0  0
M  END
$$$$
