IWF.pdb
 OpenBabel07022418433D

 65 67  0  0  1  0  0  0  0  0999 V2000
    4.8700    1.6630    2.7810 C   0  0  0  0  0  0  0  0  0  0  0  0
    3.8640    2.6410    2.2810 C   0  0  0  0  0  0  0  0  0  0  0  0
    2.8330    2.1040    1.3160 C   0  0  2  0  0  0  0  0  0  0  0  0
    1.9430    3.2920    0.9630 C   0  0  0  0  0  0  0  0  0  0  0  0
    2.1070    0.9630    1.9300 C   0  0  2  0  0  0  0  0  0  0  0  0
    3.1290   -0.0710    2.2010 N   0  0  0  0  0  0  0  0  0  0  0  0
    1.0110    0.3820    1.1590 C   0  0  0  0  0  0  0  0  0  0  0  0
   -0.0520    1.0450    0.9970 O   0  0  0  0  0  0  0  0  0  0  0  0
    5.7490    2.2640    3.1770 H   0  0  0  0  0  0  0  0  0  0  0  0
    5.2610    0.9510    2.0480 H   0  0  0  0  0  0  0  0  0  0  0  0
    4.5320    1.0670    3.6750 H   0  0  0  0  0  0  0  0  0  0  0  0
    4.3920    3.5420    1.8380 H   0  0  0  0  0  0  0  0  0  0  0  0
    3.3490    3.0800    3.1900 H   0  0  0  0  0  0  0  0  0  0  0  0
    3.3180    1.7730    0.3660 H   0  0  0  0  0  0  0  0  0  0  0  0
    2.5010    4.0260    0.3360 H   0  0  0  0  0  0  0  0  0  0  0  0
    1.5950    3.7350    1.9090 H   0  0  0  0  0  0  0  0  0  0  0  0
    1.0720    2.8980    0.4130 H   0  0  0  0  0  0  0  0  0  0  0  0
    1.7890    1.2800    2.9580 H   0  0  0  0  0  0  0  0  0  0  0  0
    3.5280   -0.4370    1.3090 H   0  0  0  0  0  0  0  0  0  0  0  0
    2.7050   -0.8810    2.7080 H   0  0  0  0  0  0  0  0  0  0  0  0
    1.0440   -0.9270    0.5470 N   0  0  0  0  0  0  0  0  0  0  0  0
   -0.0870   -1.4260   -0.1970 C   0  0  1  0  0  0  0  0  0  0  0  0
    0.1790   -1.3910   -1.6960 C   0  0  0  0  0  0  0  0  0  0  0  0
    0.4390    0.0110   -2.1130 C   0  0  0  0  0  0  0  0  0  0  0  0
    1.6890    0.5740   -2.4220 C   0  0  0  0  0  0  0  0  0  0  0  0
    1.5190    1.8600   -2.7550 N   0  0  0  0  0  0  0  0  0  0  0  0
    0.2240    2.2050   -2.6900 C   0  0  0  0  0  0  0  0  0  0  0  0
   -0.4440    3.3890   -2.9320 C   0  0  0  0  0  0  0  0  0  0  0  0
   -1.8100    3.4860   -2.7880 C   0  0  0  0  0  0  0  0  0  0  0  0
   -2.4620    2.3210   -2.3870 C   0  0  0  0  0  0  0  0  0  0  0  0
   -1.8060    1.1340   -2.1420 C   0  0  0  0  0  0  0  0  0  0  0  0
   -0.4450    1.0600   -2.2920 C   0  0  0  0  0  0  0  0  0  0  0  0
   -0.4880   -2.7810    0.2480 C   0  0  0  0  0  0  0  0  0  0  0  0
    0.1590   -3.3340    1.1740 O   0  0  0  0  0  0  0  0  0  0  0  0
    1.9230   -1.4650    0.6840 H   0  0  0  0  0  0  0  0  0  0  0  0
   -0.9320   -0.7210   -0.0520 H   0  0  0  0  0  0  0  0  0  0  0  0
   -0.6650   -1.8600   -2.2430 H   0  0  0  0  0  0  0  0  0  0  0  0
    1.0840   -1.9800   -1.9680 H   0  0  0  0  0  0  0  0  0  0  0  0
    2.6250    0.0660   -2.3980 H   0  0  0  0  0  0  0  0  0  0  0  0
    2.2770    2.5400   -3.0360 H   0  0  0  0  0  0  0  0  0  0  0  0
    0.0790    4.2850   -3.2420 H   0  0  0  0  0  0  0  0  0  0  0  0
   -2.3570    4.4080   -2.9700 H   0  0  0  0  0  0  0  0  0  0  0  0
   -3.5260    2.3580   -2.2650 H   0  0  0  0  0  0  0  0  0  0  0  0
   -2.3230    0.2340   -1.8290 H   0  0  0  0  0  0  0  0  0  0  0  0
   -1.5690   -3.4950   -0.3200 N   0  0  0  0  0  0  0  0  0  0  0  0
   -1.9930   -4.8240    0.0760 C   0  0  1  0  0  0  0  0  0  0  0  0
   -3.3540   -4.7140    0.7350 C   0  0  0  0  0  0  0  0  0  0  0  0
   -3.3000   -3.8450    1.9380 C   0  0  0  0  0  0  0  0  0  0  0  0
   -3.0190   -4.4120    3.1830 C   0  0  0  0  0  0  0  0  0  0  0  0
   -2.9580   -3.6640    4.3400 C   0  0  0  0  0  0  0  0  0  0  0  0
   -3.1800   -2.3080    4.2770 C   0  0  0  0  0  0  0  0  0  0  0  0
   -3.4590   -1.7330    3.0570 C   0  0  0  0  0  0  0  0  0  0  0  0
   -3.5200   -2.4850    1.8950 C   0  0  0  0  0  0  0  0  0  0  0  0
   -1.9820   -5.7760   -1.0360 C   0  0  0  0  0  0  0  0  0  0  0  0
   -1.6360   -5.4390   -2.1920 O   0  0  0  0  0  0  0  0  0  0  0  0
   -2.3610   -7.0870   -0.8170 O   0  0  0  0  0  0  0  0  0  0  0  0
   -2.0800   -2.9800   -1.0920 H   0  0  0  0  0  0  0  0  0  0  0  0
   -1.3270   -5.2310    0.8850 H   0  0  0  0  0  0  0  0  0  0  0  0
   -3.6050   -5.7500    1.0870 H   0  0  0  0  0  0  0  0  0  0  0  0
   -4.1170   -4.3000    0.0470 H   0  0  0  0  0  0  0  0  0  0  0  0
   -2.8460   -5.4950    3.2050 H   0  0  0  0  0  0  0  0  0  0  0  0
   -2.7360   -4.1310    5.3090 H   0  0  0  0  0  0  0  0  0  0  0  0
   -3.1360   -1.7150    5.1770 H   0  0  0  0  0  0  0  0  0  0  0  0
   -3.6340   -0.6790    2.9800 H   0  0  0  0  0  0  0  0  0  0  0  0
   -3.7380   -2.0590    0.9150 H   0  0  0  0  0  0  0  0  0  0  0  0
  1  9  1  0  0  0  0
  1 11  1  0  0  0  0
  2  1  1  0  0  0  0
  2 13  1  0  0  0  0
  3 14  1  6  0  0  0
  3  5  1  0  0  0  0
  3  2  1  0  0  0  0
  4  3  1  0  0  0  0
  4 16  1  0  0  0  0
  5  6  1  0  0  0  0
  5 18  1  1  0  0  0
  6 20  1  0  0  0  0
  7  5  1  0  0  0  0
  8  7  2  0  0  0  0
 10  1  1  0  0  0  0
 12  2  1  0  0  0  0
 15  4  1  0  0  0  0
 17  4  1  0  0  0  0
 19  6  1  0  0  0  0
 21 35  1  0  0  0  0
 21  7  1  0  0  0  0
 22 36  1  1  0  0  0
 22 33  1  0  0  0  0
 22 21  1  0  0  0  0
 23 22  1  0  0  0  0
 24 23  1  0  0  0  0
 25 39  1  0  0  0  0
 25 24  2  0  0  0  0
 26 27  1  0  0  0  0
 26 25  1  0  0  0  0
 27 32  1  0  0  0  0
 28 29  1  0  0  0  0
 28 27  2  0  0  0  0
 29 30  2  0  0  0  0
 30 43  1  0  0  0  0
 30 31  1  0  0  0  0
 31 44  1  0  0  0  0
 32 31  2  0  0  0  0
 32 24  1  0  0  0  0
 33 34  2  0  0  0  0
 37 23  1  0  0  0  0
 38 23  1  0  0  0  0
 40 26  1  0  0  0  0
 41 28  1  0  0  0  0
 42 29  1  0  0  0  0
 45 46  1  0  0  0  0
 45 33  1  0  0  0  0
 46 47  1  0  0  0  0
 46 58  1  1  0  0  0
 47 59  1  0  0  0  0
 47 48  1  0  0  0  0
 48 49  1  0  0  0  0
 49 61  1  0  0  0  0
 49 50  2  0  0  0  0
 50 62  1  0  0  0  0
 51 50  1  0  0  0  0
 51 63  1  0  0  0  0
 52 51  2  0  0  0  0
 53 48  2  0  0  0  0
 53 52  1  0  0  0  0
 54 56  1  0  0  0  0
 54 46  1  0  0  0  0
 55 54  2  0  0  0  0
 57 45  1  0  0  0  0
 60 47  1  0  0  0  0
 64 52  1  0  0  0  0
 65 53  1  0  0  0  0
M  END
$$$$
