IWG.pdb
 OpenBabel07022418433D

 52 53  0  0  1  0  0  0  0  0999 V2000
    4.2780   -4.3240    2.5930 C   0  0  0  0  0  0  0  0  0  0  0  0
    3.0880   -4.0450    3.4450 C   0  0  0  0  0  0  0  0  0  0  0  0
    2.0680   -3.1110    2.7870 C   0  0  2  0  0  0  0  0  0  0  0  0
    1.6030   -3.7770    1.5060 C   0  0  0  0  0  0  0  0  0  0  0  0
    2.6170   -1.7400    2.6140 C   0  0  2  0  0  0  0  0  0  0  0  0
    2.9800   -1.3060    3.9930 N   0  0  0  0  0  0  0  0  0  0  0  0
    1.7060   -0.6980    2.1410 C   0  0  0  0  0  0  0  0  0  0  0  0
    1.4830    0.3390    2.8780 O   0  0  0  0  0  0  0  0  0  0  0  0
    4.5370   -3.5220    1.8960 H   0  0  0  0  0  0  0  0  0  0  0  0
    5.1380   -4.5080    3.2930 H   0  0  0  0  0  0  0  0  0  0  0  0
    4.1470   -5.2980    2.0360 H   0  0  0  0  0  0  0  0  0  0  0  0
    2.5360   -5.0200    3.5880 H   0  0  0  0  0  0  0  0  0  0  0  0
    3.3210   -3.6880    4.4520 H   0  0  0  0  0  0  0  0  0  0  0  0
    1.2060   -3.0660    3.4750 H   0  0  0  0  0  0  0  0  0  0  0  0
    1.6290   -4.8960    1.6760 H   0  0  0  0  0  0  0  0  0  0  0  0
    0.5530   -3.5640    1.2670 H   0  0  0  0  0  0  0  0  0  0  0  0
    2.2270   -3.5070    0.6340 H   0  0  0  0  0  0  0  0  0  0  0  0
    3.5840   -1.7540    2.0680 H   0  0  0  0  0  0  0  0  0  0  0  0
    3.4810   -0.4040    3.9670 H   0  0  0  0  0  0  0  0  0  0  0  0
    2.0710   -1.1900    4.5230 H   0  0  0  0  0  0  0  0  0  0  0  0
    0.9920   -0.6600    0.9140 N   0  0  0  0  0  0  0  0  0  0  0  0
    0.1140    0.4640    0.5390 C   0  0  1  0  0  0  0  0  0  0  0  0
    0.6090    1.1240   -0.6950 C   0  0  0  0  0  0  0  0  0  0  0  0
   -0.2790    2.2210   -1.1130 C   0  0  0  0  0  0  0  0  0  0  0  0
   -0.1870    3.5710   -0.7480 C   0  0  0  0  0  0  0  0  0  0  0  0
   -1.1940    4.2660   -1.2920 N   0  0  0  0  0  0  0  0  0  0  0  0
   -1.9850    3.4440   -2.0240 C   0  0  0  0  0  0  0  0  0  0  0  0
   -3.1250    3.6850   -2.7830 C   0  0  0  0  0  0  0  0  0  0  0  0
   -3.7350    2.6550   -3.4610 C   0  0  0  0  0  0  0  0  0  0  0  0
   -3.1600    1.4070   -3.3420 C   0  0  0  0  0  0  0  0  0  0  0  0
   -2.0330    1.1550   -2.5940 C   0  0  0  0  0  0  0  0  0  0  0  0
   -1.4250    2.1910   -1.9150 C   0  0  0  0  0  0  0  0  0  0  0  0
   -1.2970    0.0740    0.5770 C   0  0  0  0  0  0  0  0  0  0  0  0
   -2.2300    0.9570    0.4670 O   0  0  0  0  0  0  0  0  0  0  0  0
    1.1090   -1.4640    0.2680 H   0  0  0  0  0  0  0  0  0  0  0  0
    0.2440    1.2220    1.3630 H   0  0  0  0  0  0  0  0  0  0  0  0
    0.7400    0.4180   -1.5460 H   0  0  0  0  0  0  0  0  0  0  0  0
    1.6140    1.5690   -0.4330 H   0  0  0  0  0  0  0  0  0  0  0  0
    0.6250    3.9420   -0.1030 H   0  0  0  0  0  0  0  0  0  0  0  0
   -1.3820    5.2820   -1.1950 H   0  0  0  0  0  0  0  0  0  0  0  0
   -3.5640    4.6680   -2.8650 H   0  0  0  0  0  0  0  0  0  0  0  0
   -4.6340    2.8180   -4.0650 H   0  0  0  0  0  0  0  0  0  0  0  0
   -3.6220    0.5650   -3.8720 H   0  0  0  0  0  0  0  0  0  0  0  0
   -1.5840    0.1760   -2.5030 H   0  0  0  0  0  0  0  0  0  0  0  0
   -1.7960   -1.2490    0.7290 N   0  0  0  0  0  0  0  0  0  0  0  0
   -3.2090   -1.5540    0.7580 C   0  0  0  0  0  0  0  0  0  0  0  0
   -3.4680   -2.9920    0.9270 C   0  0  0  0  0  0  0  0  0  0  0  0
   -2.5150   -3.7910    1.0280 O   0  0  0  0  0  0  0  0  0  0  0  0
   -4.7580   -3.4610    0.9750 O   0  0  0  0  0  0  0  0  0  0  0  0
   -1.1230   -2.0190    0.8200 H   0  0  0  0  0  0  0  0  0  0  0  0
   -3.7570   -1.1280   -0.1090 H   0  0  0  0  0  0  0  0  0  0  0  0
   -3.6390   -1.0480    1.6730 H   0  0  0  0  0  0  0  0  0  0  0  0
  1 10  1  0  0  0  0
  1  2  1  0  0  0  0
  2 12  1  0  0  0  0
  2 13  1  0  0  0  0
  3  2  1  0  0  0  0
  3 14  1  1  0  0  0
  4 15  1  0  0  0  0
  4  3  1  0  0  0  0
  5 18  1  6  0  0  0
  5  3  1  0  0  0  0
  5  6  1  0  0  0  0
  6 20  1  0  0  0  0
  7  5  1  0  0  0  0
  7  8  2  0  0  0  0
  9  1  1  0  0  0  0
 11  1  1  0  0  0  0
 16  4  1  0  0  0  0
 17  4  1  0  0  0  0
 19  6  1  0  0  0  0
 21  7  1  0  0  0  0
 22 33  1  0  0  0  0
 22 21  1  0  0  0  0
 22 36  1  1  0  0  0
 23 38  1  0  0  0  0
 23 22  1  0  0  0  0
 24 25  2  0  0  0  0
 24 23  1  0  0  0  0
 25 39  1  0  0  0  0
 26 40  1  0  0  0  0
 26 25  1  0  0  0  0
 27 32  1  0  0  0  0
 27 26  1  0  0  0  0
 28 27  2  0  0  0  0
 29 30  2  0  0  0  0
 29 28  1  0  0  0  0
 30 31  1  0  0  0  0
 31 44  1  0  0  0  0
 31 32  2  0  0  0  0
 32 24  1  0  0  0  0
 33 45  1  0  0  0  0
 34 33  2  0  0  0  0
 35 21  1  0  0  0  0
 37 23  1  0  0  0  0
 41 28  1  0  0  0  0
 42 29  1  0  0  0  0
 43 30  1  0  0  0  0
 45 46  1  0  0  0  0
 45 50  1  0  0  0  0
 46 47  1  0  0  0  0
 46 52  1  0  0  0  0
 47 49  2  0  0  0  0
 47 48  1  0  0  0  0
 51 46  1  0  0  0  0
M  END
$$$$
