IWI.pdb
 OpenBabel07022418433D

 64 65  0  0  1  0  0  0  0  0999 V2000
    0.6830   -0.8290    3.8310 C   0  0  0  0  0  0  0  0  0  0  0  0
    2.1450   -0.7430    3.6410 C   0  0  0  0  0  0  0  0  0  0  0  0
    2.7760    0.5840    3.6570 C   0  0  2  0  0  0  0  0  0  0  0  0
    2.5510    1.3640    4.9370 C   0  0  0  0  0  0  0  0  0  0  0  0
    2.7520    1.4110    2.4130 C   0  0  2  0  0  0  0  0  0  0  0  0
    3.4580    2.6930    2.7580 N   0  0  0  0  0  0  0  0  0  0  0  0
    1.4610    1.7170    1.8180 C   0  0  0  0  0  0  0  0  0  0  0  0
    0.9040    2.8280    2.1030 O   0  0  0  0  0  0  0  0  0  0  0  0
    0.3290   -1.8160    3.4290 H   0  0  0  0  0  0  0  0  0  0  0  0
    0.4480   -0.9220    4.9400 H   0  0  0  0  0  0  0  0  0  0  0  0
    0.0580   -0.0540    3.4090 H   0  0  0  0  0  0  0  0  0  0  0  0
    2.6400   -1.4070    4.4070 H   0  0  0  0  0  0  0  0  0  0  0  0
    2.4210   -1.2380    2.6640 H   0  0  0  0  0  0  0  0  0  0  0  0
    3.9160    0.3320    3.7580 H   0  0  0  0  0  0  0  0  0  0  0  0
    3.0190    0.8250    5.7890 H   0  0  0  0  0  0  0  0  0  0  0  0
    1.4990    1.5400    5.1680 H   0  0  0  0  0  0  0  0  0  0  0  0
    3.1350    2.3180    4.8320 H   0  0  0  0  0  0  0  0  0  0  0  0
    3.4420    0.9240    1.6680 H   0  0  0  0  0  0  0  0  0  0  0  0
    4.3840    2.4300    3.1360 H   0  0  0  0  0  0  0  0  0  0  0  0
    3.5280    3.2860    1.8960 H   0  0  0  0  0  0  0  0  0  0  0  0
    0.7140    0.9090    0.9160 N   0  0  0  0  0  0  0  0  0  0  0  0
   -0.5720    1.3710    0.3850 C   0  0  1  0  0  0  0  0  0  0  0  0
   -0.3690    2.0570   -0.9360 C   0  0  0  0  0  0  0  0  0  0  0  0
    0.2270    1.2710   -2.0090 C   0  0  0  0  0  0  0  0  0  0  0  0
    1.6020    1.1650   -2.3010 C   0  0  0  0  0  0  0  0  0  0  0  0
    1.7700    0.3200   -3.3160 N   0  0  0  0  0  0  0  0  0  0  0  0
    0.5600   -0.1440   -3.7170 C   0  0  0  0  0  0  0  0  0  0  0  0
    0.2330   -1.0340   -4.7540 C   0  0  0  0  0  0  0  0  0  0  0  0
   -1.0880   -1.3340   -4.9810 C   0  0  0  0  0  0  0  0  0  0  0  0
   -2.0280   -0.7410   -4.1720 C   0  0  0  0  0  0  0  0  0  0  0  0
   -1.7350    0.1250   -3.1590 C   0  0  0  0  0  0  0  0  0  0  0  0
   -0.3880    0.4400   -2.9140 C   0  0  0  0  0  0  0  0  0  0  0  0
   -1.5600    0.3150    0.4530 C   0  0  0  0  0  0  0  0  0  0  0  0
   -2.7420    0.5750    0.0810 O   0  0  0  0  0  0  0  0  0  0  0  0
    1.0820   -0.0060    0.6360 H   0  0  0  0  0  0  0  0  0  0  0  0
   -0.9450    2.2230    1.0580 H   0  0  0  0  0  0  0  0  0  0  0  0
   -1.3330    2.5330   -1.2050 H   0  0  0  0  0  0  0  0  0  0  0  0
    0.3280    2.9160   -0.7260 H   0  0  0  0  0  0  0  0  0  0  0  0
    2.3810    1.7110   -1.7540 H   0  0  0  0  0  0  0  0  0  0  0  0
    2.6620    0.0240   -3.7720 H   0  0  0  0  0  0  0  0  0  0  0  0
    1.0240   -1.4710   -5.3590 H   0  0  0  0  0  0  0  0  0  0  0  0
   -1.3840   -2.0260   -5.7820 H   0  0  0  0  0  0  0  0  0  0  0  0
   -3.0720   -0.9730   -4.3450 H   0  0  0  0  0  0  0  0  0  0  0  0
   -2.4470    0.6020   -2.5350 H   0  0  0  0  0  0  0  0  0  0  0  0
   -2.2270   -3.2220   -1.8690 C   0  0  0  0  0  0  0  0  0  0  0  0
   -1.3490   -3.5750   -0.7070 C   0  0  0  0  0  0  0  0  0  0  0  0
   -1.9960   -3.3480    0.6240 C   0  0  2  0  0  0  0  0  0  0  0  0
   -3.2520   -4.2300    0.6430 C   0  0  0  0  0  0  0  0  0  0  0  0
   -2.4030   -1.9550    0.9200 C   0  0  2  0  0  0  0  0  0  0  0  0
   -1.3240   -1.0070    0.9080 N   0  0  0  0  0  0  0  0  0  0  0  0
   -2.9810   -1.9850    2.3280 C   0  0  0  0  0  0  0  0  0  0  0  0
   -3.9300   -2.7500    2.5870 O   0  0  0  0  0  0  0  0  0  0  0  0
   -2.4670   -1.1750    3.3110 O   0  0  0  0  0  0  0  0  0  0  0  0
   -2.9980   -4.0010   -2.0710 H   0  0  0  0  0  0  0  0  0  0  0  0
   -1.5800   -3.2220   -2.7930 H   0  0  0  0  0  0  0  0  0  0  0  0
   -2.6750   -2.2200   -1.7600 H   0  0  0  0  0  0  0  0  0  0  0  0
   -1.1550   -4.6850   -0.7720 H   0  0  0  0  0  0  0  0  0  0  0  0
   -0.3420   -3.1040   -0.7740 H   0  0  0  0  0  0  0  0  0  0  0  0
   -1.3160   -3.7830    1.4040 H   0  0  0  0  0  0  0  0  0  0  0  0
   -4.1640   -3.6310    0.4530 H   0  0  0  0  0  0  0  0  0  0  0  0
   -3.2260   -4.9800   -0.1890 H   0  0  0  0  0  0  0  0  0  0  0  0
   -3.3750   -4.7620    1.5960 H   0  0  0  0  0  0  0  0  0  0  0  0
   -3.1860   -1.6160    0.2330 H   0  0  0  0  0  0  0  0  0  0  0  0
   -0.3810   -1.2970    1.2240 H   0  0  0  0  0  0  0  0  0  0  0  0
  1 10  1  0  0  0  0
  2  3  1  0  0  0  0
  2  1  1  0  0  0  0
  2 12  1  0  0  0  0
  3 14  1  1  0  0  0
  3  4  1  0  0  0  0
  4 16  1  0  0  0  0
  4 15  1  0  0  0  0
  5 18  1  6  0  0  0
  5  6  1  0  0  0  0
  5  3  1  0  0  0  0
  6 19  1  0  0  0  0
  7  8  2  0  0  0  0
  7  5  1  0  0  0  0
  9  1  1  0  0  0  0
 11  1  1  0  0  0  0
 13  2  1  0  0  0  0
 17  4  1  0  0  0  0
 20  6  1  0  0  0  0
 21  7  1  0  0  0  0
 22 33  1  0  0  0  0
 22 21  1  0  0  0  0
 22 36  1  1  0  0  0
 23 38  1  0  0  0  0
 23 22  1  0  0  0  0
 24 23  1  0  0  0  0
 25 24  2  0  0  0  0
 25 39  1  0  0  0  0
 26 25  1  0  0  0  0
 27 26  1  0  0  0  0
 27 32  1  0  0  0  0
 28 27  2  0  0  0  0
 29 28  1  0  0  0  0
 29 30  2  0  0  0  0
 30 31  1  0  0  0  0
 31 32  2  0  0  0  0
 31 44  1  0  0  0  0
 32 24  1  0  0  0  0
 33 50  1  0  0  0  0
 34 33  2  0  0  0  0
 35 21  1  0  0  0  0
 37 23  1  0  0  0  0
 40 26  1  0  0  0  0
 41 28  1  0  0  0  0
 42 29  1  0  0  0  0
 43 30  1  0  0  0  0
 45 56  1  0  0  0  0
 45 46  1  0  0  0  0
 46 47  1  0  0  0  0
 47 48  1  0  0  0  0
 47 49  1  0  0  0  0
 47 59  1  1  0  0  0
 48 62  1  0  0  0  0
 49 63  1  6  0  0  0
 49 51  1  0  0  0  0
 50 49  1  0  0  0  0
 50 64  1  0  0  0  0
 51 52  2  0  0  0  0
 51 53  1  0  0  0  0
 54 45  1  0  0  0  0
 55 45  1  0  0  0  0
 57 46  1  0  0  0  0
 58 46  1  0  0  0  0
 60 48  1  0  0  0  0
 61 48  1  0  0  0  0
M  END
$$$$
