IWK.pdb
 OpenBabel07022418433D

 66 67  0  0  1  0  0  0  0  0999 V2000
    3.9410    3.1320    2.5700 C   0  0  0  0  0  0  0  0  0  0  0  0
    3.6830    1.6360    2.8020 C   0  0  0  0  0  0  0  0  0  0  0  0
    2.5040    1.4710    3.7400 C   0  0  2  0  0  0  0  0  0  0  0  0
    2.8700    2.1400    5.0760 C   0  0  0  0  0  0  0  0  0  0  0  0
    2.1450    0.0620    4.0210 C   0  0  2  0  0  0  0  0  0  0  0  0
    3.2490   -0.6180    4.6500 N   0  0  0  0  0  0  0  0  0  0  0  0
    1.5840   -0.7110    2.8930 C   0  0  0  0  0  0  0  0  0  0  0  0
    1.5970   -1.9710    2.8780 O   0  0  0  0  0  0  0  0  0  0  0  0
    3.2500    3.4950    1.7560 H   0  0  0  0  0  0  0  0  0  0  0  0
    3.5870    3.6990    3.4700 H   0  0  0  0  0  0  0  0  0  0  0  0
    4.9680    3.3570    2.2910 H   0  0  0  0  0  0  0  0  0  0  0  0
    3.3900    1.2060    1.8460 H   0  0  0  0  0  0  0  0  0  0  0  0
    4.6170    1.1660    3.2070 H   0  0  0  0  0  0  0  0  0  0  0  0
    1.6740    2.0950    3.3600 H   0  0  0  0  0  0  0  0  0  0  0  0
    2.5060    1.5090    5.9160 H   0  0  0  0  0  0  0  0  0  0  0  0
    2.3760    3.1350    5.1950 H   0  0  0  0  0  0  0  0  0  0  0  0
    3.9670    2.3500    5.1300 H   0  0  0  0  0  0  0  0  0  0  0  0
    1.3340    0.1120    4.8450 H   0  0  0  0  0  0  0  0  0  0  0  0
    3.1930   -0.5080    5.6770 H   0  0  0  0  0  0  0  0  0  0  0  0
    3.2360   -1.6230    4.4050 H   0  0  0  0  0  0  0  0  0  0  0  0
    1.0160   -0.0400    1.7940 N   0  0  0  0  0  0  0  0  0  0  0  0
    0.3980   -0.5700    0.6310 C   0  0  1  0  0  0  0  0  0  0  0  0
    0.0210    0.5110   -0.3490 C   0  0  0  0  0  0  0  0  0  0  0  0
   -0.9330    1.4270    0.3030 C   0  0  0  0  0  0  0  0  0  0  0  0
   -0.6930    2.6910    0.8270 C   0  0  0  0  0  0  0  0  0  0  0  0
   -1.8630    3.1470    1.3370 N   0  0  0  0  0  0  0  0  0  0  0  0
   -2.8460    2.2550    1.1710 C   0  0  0  0  0  0  0  0  0  0  0  0
   -4.1730    2.2270    1.4830 C   0  0  0  0  0  0  0  0  0  0  0  0
   -4.9990    1.1540    1.1840 C   0  0  0  0  0  0  0  0  0  0  0  0
   -4.4150    0.0640    0.5310 C   0  0  0  0  0  0  0  0  0  0  0  0
   -3.0870    0.1010    0.2250 C   0  0  0  0  0  0  0  0  0  0  0  0
   -2.2740    1.1810    0.5290 C   0  0  0  0  0  0  0  0  0  0  0  0
    1.1560   -1.6710   -0.0610 C   0  0  0  0  0  0  0  0  0  0  0  0
    2.2600   -2.1000    0.2680 O   0  0  0  0  0  0  0  0  0  0  0  0
    1.0540    1.0310    1.8880 H   0  0  0  0  0  0  0  0  0  0  0  0
   -0.5290   -1.1100    0.9610 H   0  0  0  0  0  0  0  0  0  0  0  0
   -0.3320    0.1230   -1.3000 H   0  0  0  0  0  0  0  0  0  0  0  0
    0.9640    1.0920   -0.6130 H   0  0  0  0  0  0  0  0  0  0  0  0
    0.2670    3.1730    0.8050 H   0  0  0  0  0  0  0  0  0  0  0  0
   -1.9820    4.0690    1.7910 H   0  0  0  0  0  0  0  0  0  0  0  0
   -4.6650    3.0660    1.9930 H   0  0  0  0  0  0  0  0  0  0  0  0
   -6.0530    1.1680    1.4420 H   0  0  0  0  0  0  0  0  0  0  0  0
   -5.0650   -0.7890    0.2970 H   0  0  0  0  0  0  0  0  0  0  0  0
   -2.6110   -0.7360   -0.2830 H   0  0  0  0  0  0  0  0  0  0  0  0
    0.5010   -2.2650   -1.2070 N   0  0  0  0  0  0  0  0  0  0  0  0
    1.0690   -3.3550   -1.9670 C   0  0  1  0  0  0  0  0  0  0  0  0
   -0.1250   -4.2800   -2.2750 C   0  0  0  0  0  0  0  0  0  0  0  0
   -1.1330   -3.5770   -3.1150 C   0  0  0  0  0  0  0  0  0  0  0  0
   -2.3700   -4.4050   -3.4450 C   0  0  0  0  0  0  0  0  0  0  0  0
   -3.0970   -4.7900   -2.1600 C   0  0  0  0  0  0  0  0  0  0  0  0
   -4.2880   -5.5280   -2.4320 N   0  0  0  0  0  0  0  0  0  0  0  0
    1.4860   -2.8230   -3.2790 C   0  0  0  0  0  0  0  0  0  0  0  0
    1.3590   -1.6470   -3.6670 O   0  0  0  0  0  0  0  0  0  0  0  0
    2.0860   -3.7100   -4.1870 O   0  0  0  0  0  0  0  0  0  0  0  0
   -0.4240   -1.8520   -1.4440 H   0  0  0  0  0  0  0  0  0  0  0  0
    1.8590   -3.8990   -1.4600 H   0  0  0  0  0  0  0  0  0  0  0  0
    0.2130   -5.1920   -2.7790 H   0  0  0  0  0  0  0  0  0  0  0  0
   -0.5740   -4.6240   -1.2960 H   0  0  0  0  0  0  0  0  0  0  0  0
   -0.6590   -3.2770   -4.1060 H   0  0  0  0  0  0  0  0  0  0  0  0
   -1.4900   -2.6380   -2.6820 H   0  0  0  0  0  0  0  0  0  0  0  0
   -2.1180   -5.3270   -4.0020 H   0  0  0  0  0  0  0  0  0  0  0  0
   -3.0180   -3.8000   -4.1040 H   0  0  0  0  0  0  0  0  0  0  0  0
   -3.3530   -3.9170   -1.5290 H   0  0  0  0  0  0  0  0  0  0  0  0
   -2.3800   -5.4620   -1.5990 H   0  0  0  0  0  0  0  0  0  0  0  0
   -5.0220   -4.9770   -2.9030 H   0  0  0  0  0  0  0  0  0  0  0  0
   -4.6640   -6.0750   -1.6530 H   0  0  0  0  0  0  0  0  0  0  0  0
  1  2  1  0  0  0  0
  1 10  1  0  0  0  0
  2 13  1  0  0  0  0
  2  3  1  0  0  0  0
  3 14  1  6  0  0  0
  3  5  1  0  0  0  0
  3  4  1  0  0  0  0
  4 17  1  0  0  0  0
  4 16  1  0  0  0  0
  4 15  1  0  0  0  0
  5  6  1  0  0  0  0
  5 18  1  1  0  0  0
  6 19  1  0  0  0  0
  7  5  1  0  0  0  0
  8  7  2  0  0  0  0
  9  1  1  0  0  0  0
 11  1  1  0  0  0  0
 12  2  1  0  0  0  0
 20  6  1  0  0  0  0
 21 35  1  0  0  0  0
 21  7  1  0  0  0  0
 22 36  1  1  0  0  0
 22 21  1  0  0  0  0
 23 24  1  0  0  0  0
 23 22  1  0  0  0  0
 24 32  1  0  0  0  0
 24 25  2  0  0  0  0
 25 26  1  0  0  0  0
 26 40  1  0  0  0  0
 27 26  1  0  0  0  0
 27 28  1  0  0  0  0
 28 41  1  0  0  0  0
 29 42  1  0  0  0  0
 29 28  2  0  0  0  0
 30 29  1  0  0  0  0
 31 32  1  0  0  0  0
 31 30  2  0  0  0  0
 32 27  2  0  0  0  0
 33 34  2  0  0  0  0
 33 22  1  0  0  0  0
 37 23  1  0  0  0  0
 38 23  1  0  0  0  0
 39 25  1  0  0  0  0
 43 30  1  0  0  0  0
 44 31  1  0  0  0  0
 45 33  1  0  0  0  0
 46 56  1  1  0  0  0
 46 45  1  0  0  0  0
 47 46  1  0  0  0  0
 47 58  1  0  0  0  0
 48 60  1  0  0  0  0
 48 47  1  0  0  0  0
 49 48  1  0  0  0  0
 49 50  1  0  0  0  0
 50 64  1  0  0  0  0
 50 63  1  0  0  0  0
 51 50  1  0  0  0  0
 51 66  1  0  0  0  0
 52 46  1  0  0  0  0
 53 52  1  0  0  0  0
 54 52  2  0  0  0  0
 55 45  1  0  0  0  0
 57 47  1  0  0  0  0
 59 48  1  0  0  0  0
 61 49  1  0  0  0  0
 62 49  1  0  0  0  0
 65 51  1  0  0  0  0
M  END
$$$$
