IWL.pdb
 OpenBabel07022418433D

 64 65  0  0  1  0  0  0  0  0999 V2000
    1.2320    0.4320    3.7350 C   0  0  0  0  0  0  0  0  0  0  0  0
    2.5840   -0.1840    3.6030 C   0  0  0  0  0  0  0  0  0  0  0  0
    3.6160    0.6280    2.9170 C   0  0  2  0  0  0  0  0  0  0  0  0
    3.8050    1.9490    3.6270 C   0  0  0  0  0  0  0  0  0  0  0  0
    3.6440    0.6720    1.4420 C   0  0  2  0  0  0  0  0  0  0  0  0
    4.7780    1.5550    1.0860 N   0  0  0  0  0  0  0  0  0  0  0  0
    2.4780    1.1590    0.7180 C   0  0  0  0  0  0  0  0  0  0  0  0
    2.4570    2.3950    0.3680 O   0  0  0  0  0  0  0  0  0  0  0  0
    0.4790   -0.3880    3.7830 H   0  0  0  0  0  0  0  0  0  0  0  0
    1.1430    0.9580    4.7380 H   0  0  0  0  0  0  0  0  0  0  0  0
    0.9640    1.1190    2.9360 H   0  0  0  0  0  0  0  0  0  0  0  0
    2.9200   -0.4520    4.6470 H   0  0  0  0  0  0  0  0  0  0  0  0
    2.4530   -1.1880    3.1100 H   0  0  0  0  0  0  0  0  0  0  0  0
    4.6120    0.0720    3.2010 H   0  0  0  0  0  0  0  0  0  0  0  0
    3.3430    1.8500    4.6470 H   0  0  0  0  0  0  0  0  0  0  0  0
    3.2650    2.7870    3.1410 H   0  0  0  0  0  0  0  0  0  0  0  0
    4.8530    2.2060    3.7820 H   0  0  0  0  0  0  0  0  0  0  0  0
    3.9580   -0.3280    1.0690 H   0  0  0  0  0  0  0  0  0  0  0  0
    4.4300    2.4080    0.6070 H   0  0  0  0  0  0  0  0  0  0  0  0
    5.3790    1.6980    1.9000 H   0  0  0  0  0  0  0  0  0  0  0  0
    1.3300    0.4300    0.3240 N   0  0  0  0  0  0  0  0  0  0  0  0
    0.2520    1.0720   -0.4210 C   0  0  1  0  0  0  0  0  0  0  0  0
    0.4830    0.9770   -1.8900 C   0  0  0  0  0  0  0  0  0  0  0  0
    0.6020   -0.3450   -2.4840 C   0  0  0  0  0  0  0  0  0  0  0  0
    1.8330   -0.9950   -2.6790 C   0  0  0  0  0  0  0  0  0  0  0  0
    1.5980   -2.1950   -3.2010 N   0  0  0  0  0  0  0  0  0  0  0  0
    0.2530   -2.3510   -3.3550 C   0  0  0  0  0  0  0  0  0  0  0  0
   -0.4780   -3.4260   -3.8730 C   0  0  0  0  0  0  0  0  0  0  0  0
   -1.8490   -3.3330   -3.9450 C   0  0  0  0  0  0  0  0  0  0  0  0
   -2.4600   -2.1860   -3.5030 C   0  0  0  0  0  0  0  0  0  0  0  0
   -1.7590   -1.1260   -2.9910 C   0  0  0  0  0  0  0  0  0  0  0  0
   -0.3570   -1.2050   -2.9110 C   0  0  0  0  0  0  0  0  0  0  0  0
   -1.0400    0.7430    0.1230 C   0  0  0  0  0  0  0  0  0  0  0  0
   -2.0630    1.3020   -0.4150 O   0  0  0  0  0  0  0  0  0  0  0  0
    1.2760   -0.5670    0.5760 H   0  0  0  0  0  0  0  0  0  0  0  0
    0.3780    2.2100   -0.2260 H   0  0  0  0  0  0  0  0  0  0  0  0
   -0.3300    1.5920   -2.3710 H   0  0  0  0  0  0  0  0  0  0  0  0
    1.4170    1.5780   -2.1050 H   0  0  0  0  0  0  0  0  0  0  0  0
    2.8180   -0.5830   -2.4420 H   0  0  0  0  0  0  0  0  0  0  0  0
    2.2980   -2.9480   -3.4740 H   0  0  0  0  0  0  0  0  0  0  0  0
    0.0530   -4.3160   -4.2110 H   0  0  0  0  0  0  0  0  0  0  0  0
   -2.4060   -4.1840   -4.3520 H   0  0  0  0  0  0  0  0  0  0  0  0
   -3.5320   -2.1180   -3.5700 H   0  0  0  0  0  0  0  0  0  0  0  0
   -2.2040   -0.2180   -2.6470 H   0  0  0  0  0  0  0  0  0  0  0  0
   -4.1370   -1.7600   -0.5450 C   0  0  0  0  0  0  0  0  0  0  0  0
   -3.1580   -2.4880    0.3920 C   0  0  0  0  0  0  0  0  0  0  0  0
   -3.7680   -3.8500    0.6510 C   0  0  0  0  0  0  0  0  0  0  0  0
   -3.1110   -1.7650    1.7160 C   0  0  0  0  0  0  0  0  0  0  0  0
   -2.6380   -0.3590    1.6560 C   0  0  2  0  0  0  0  0  0  0  0  0
   -1.3130   -0.1350    1.2030 N   0  0  0  0  0  0  0  0  0  0  0  0
   -2.8420    0.2330    3.0130 C   0  0  0  0  0  0  0  0  0  0  0  0
   -1.9380    0.8690    3.5950 O   0  0  0  0  0  0  0  0  0  0  0  0
   -4.0450    0.1050    3.6880 O   0  0  0  0  0  0  0  0  0  0  0  0
   -4.4130   -2.4120   -1.3900 H   0  0  0  0  0  0  0  0  0  0  0  0
   -3.7190   -0.8250   -0.9120 H   0  0  0  0  0  0  0  0  0  0  0  0
   -5.0990   -1.5850    0.0070 H   0  0  0  0  0  0  0  0  0  0  0  0
   -2.2080   -2.5420   -0.1360 H   0  0  0  0  0  0  0  0  0  0  0  0
   -4.4710   -3.8030    1.5250 H   0  0  0  0  0  0  0  0  0  0  0  0
   -4.3690   -4.1980   -0.2130 H   0  0  0  0  0  0  0  0  0  0  0  0
   -2.9860   -4.6010    0.9470 H   0  0  0  0  0  0  0  0  0  0  0  0
   -2.5800   -2.3690    2.4850 H   0  0  0  0  0  0  0  0  0  0  0  0
   -4.1760   -1.7250    2.0860 H   0  0  0  0  0  0  0  0  0  0  0  0
   -3.3560    0.1880    0.9660 H   0  0  0  0  0  0  0  0  0  0  0  0
   -0.4570   -0.6040    1.6270 H   0  0  0  0  0  0  0  0  0  0  0  0
  1  9  1  0  0  0  0
  1 10  1  0  0  0  0
  2  1  1  0  0  0  0
  2 12  1  0  0  0  0
  3 14  1  1  0  0  0
  3  2  1  0  0  0  0
  3  4  1  0  0  0  0
  4 17  1  0  0  0  0
  4 15  1  0  0  0  0
  5 18  1  6  0  0  0
  5  3  1  0  0  0  0
  6  5  1  0  0  0  0
  6 20  1  0  0  0  0
  7  5  1  0  0  0  0
  8  7  2  0  0  0  0
 11  1  1  0  0  0  0
 13  2  1  0  0  0  0
 16  4  1  0  0  0  0
 19  6  1  0  0  0  0
 21 35  1  0  0  0  0
 21  7  1  0  0  0  0
 22 36  1  1  0  0  0
 22 33  1  0  0  0  0
 22 21  1  0  0  0  0
 23 22  1  0  0  0  0
 24 23  1  0  0  0  0
 25 24  2  0  0  0  0
 25 39  1  0  0  0  0
 26 25  1  0  0  0  0
 27 26  1  0  0  0  0
 27 32  1  0  0  0  0
 28 27  2  0  0  0  0
 29 28  1  0  0  0  0
 29 30  2  0  0  0  0
 30 31  1  0  0  0  0
 31 32  2  0  0  0  0
 31 44  1  0  0  0  0
 32 24  1  0  0  0  0
 33 50  1  0  0  0  0
 34 33  2  0  0  0  0
 37 23  1  0  0  0  0
 38 23  1  0  0  0  0
 40 26  1  0  0  0  0
 41 28  1  0  0  0  0
 42 29  1  0  0  0  0
 43 30  1  0  0  0  0
 45 56  1  0  0  0  0
 45 46  1  0  0  0  0
 46 47  1  0  0  0  0
 46 48  1  0  0  0  0
 47 60  1  0  0  0  0
 47 58  1  0  0  0  0
 48 62  1  0  0  0  0
 48 61  1  0  0  0  0
 49 63  1  6  0  0  0
 49 48  1  0  0  0  0
 49 51  1  0  0  0  0
 50 64  1  0  0  0  0
 50 49  1  0  0  0  0
 51 52  2  0  0  0  0
 51 53  1  0  0  0  0
 54 45  1  0  0  0  0
 55 45  1  0  0  0  0
 57 46  1  0  0  0  0
 59 47  1  0  0  0  0
M  END
$$$$
