IWM.pdb
 OpenBabel07022418433D

 62 63  0  0  1  0  0  0  0  0999 V2000
   -0.6110   -0.5330    3.7070 C   0  0  0  0  0  0  0  0  0  0  0  0
    0.7010    0.0530    4.1420 C   0  0  0  0  0  0  0  0  0  0  0  0
    0.7510    1.5240    4.2550 C   0  0  2  0  0  0  0  0  0  0  0  0
   -0.3010    2.0000    5.2340 C   0  0  0  0  0  0  0  0  0  0  0  0
    0.9670    2.3530    3.0630 C   0  0  2  0  0  0  0  0  0  0  0  0
    0.9590    3.7740    3.4850 N   0  0  0  0  0  0  0  0  0  0  0  0
    0.0820    2.2210    1.9160 C   0  0  0  0  0  0  0  0  0  0  0  0
   -0.8000    3.1090    1.7060 O   0  0  0  0  0  0  0  0  0  0  0  0
   -1.2140   -0.6670    4.6570 H   0  0  0  0  0  0  0  0  0  0  0  0
   -1.2290    0.1400    3.1000 H   0  0  0  0  0  0  0  0  0  0  0  0
   -0.5090   -1.5650    3.3190 H   0  0  0  0  0  0  0  0  0  0  0  0
    0.9420   -0.4140    5.1470 H   0  0  0  0  0  0  0  0  0  0  0  0
    1.5450   -0.3580    3.5010 H   0  0  0  0  0  0  0  0  0  0  0  0
    1.7280    1.7060    4.8860 H   0  0  0  0  0  0  0  0  0  0  0  0
   -0.0810    1.4860    6.2000 H   0  0  0  0  0  0  0  0  0  0  0  0
   -1.3250    1.7510    4.9580 H   0  0  0  0  0  0  0  0  0  0  0  0
   -0.1640    3.0950    5.4540 H   0  0  0  0  0  0  0  0  0  0  0  0
    2.0370    2.1880    2.7220 H   0  0  0  0  0  0  0  0  0  0  0  0
    1.8580    3.9360    3.9660 H   0  0  0  0  0  0  0  0  0  0  0  0
    0.8410    4.3730    2.6440 H   0  0  0  0  0  0  0  0  0  0  0  0
    0.1230    1.1610    0.9790 N   0  0  0  0  0  0  0  0  0  0  0  0
   -0.7990    1.1470   -0.1320 C   0  0  1  0  0  0  0  0  0  0  0  0
   -0.0270    1.6530   -1.3600 C   0  0  0  0  0  0  0  0  0  0  0  0
    1.1630    0.8740   -1.6860 C   0  0  0  0  0  0  0  0  0  0  0  0
    2.4540    1.2090   -1.2350 C   0  0  0  0  0  0  0  0  0  0  0  0
    3.3090    0.2890   -1.6610 N   0  0  0  0  0  0  0  0  0  0  0  0
    2.6470   -0.6530   -2.3830 C   0  0  0  0  0  0  0  0  0  0  0  0
    3.1250   -1.7880   -3.0300 C   0  0  0  0  0  0  0  0  0  0  0  0
    2.2540   -2.6000   -3.7230 C   0  0  0  0  0  0  0  0  0  0  0  0
    0.9190   -2.2280   -3.7360 C   0  0  0  0  0  0  0  0  0  0  0  0
    0.4410   -1.1090   -3.1000 C   0  0  0  0  0  0  0  0  0  0  0  0
    1.3160   -0.2850   -2.3960 C   0  0  0  0  0  0  0  0  0  0  0  0
   -1.4420   -0.1290   -0.4190 C   0  0  0  0  0  0  0  0  0  0  0  0
   -2.3650   -0.2350   -1.3070 O   0  0  0  0  0  0  0  0  0  0  0  0
    0.8090    0.3830    1.0710 H   0  0  0  0  0  0  0  0  0  0  0  0
   -1.5740    1.9580    0.0370 H   0  0  0  0  0  0  0  0  0  0  0  0
    0.2530    2.7050   -1.1080 H   0  0  0  0  0  0  0  0  0  0  0  0
   -0.7350    1.7020   -2.2150 H   0  0  0  0  0  0  0  0  0  0  0  0
    2.7140    2.0870   -0.6320 H   0  0  0  0  0  0  0  0  0  0  0  0
    4.3580    0.2320   -1.5030 H   0  0  0  0  0  0  0  0  0  0  0  0
    4.1920   -2.0460   -2.9940 H   0  0  0  0  0  0  0  0  0  0  0  0
    2.5920   -3.4870   -4.2360 H   0  0  0  0  0  0  0  0  0  0  0  0
    0.2440   -2.8680   -4.2810 H   0  0  0  0  0  0  0  0  0  0  0  0
   -0.5870   -0.8160   -3.1250 H   0  0  0  0  0  0  0  0  0  0  0  0
   -3.8490   -3.9950   -2.4230 C   0  0  0  0  0  0  0  0  0  0  0  0
   -2.3510   -4.9600   -2.3770 S   0  0  0  0  0  0  0  0  0  0  0  0
   -1.4450   -4.9520   -0.8570 C   0  0  0  0  0  0  0  0  0  0  0  0
   -0.8430   -3.6690   -0.4330 C   0  0  0  0  0  0  0  0  0  0  0  0
   -1.8360   -2.6170   -0.1210 C   0  0  2  0  0  0  0  0  0  0  0  0
   -1.1300   -1.3510    0.2310 N   0  0  0  0  0  0  0  0  0  0  0  0
   -2.7320   -2.9590    1.0090 C   0  0  0  0  0  0  0  0  0  0  0  0
   -2.8200   -2.1840    1.9940 O   0  0  0  0  0  0  0  0  0  0  0  0
   -3.4810   -4.0950    1.0350 O   0  0  0  0  0  0  0  0  0  0  0  0
   -4.6070   -4.4690   -3.1310 H   0  0  0  0  0  0  0  0  0  0  0  0
   -3.6560   -3.0060   -2.9210 H   0  0  0  0  0  0  0  0  0  0  0  0
   -4.3170   -3.8010   -1.4470 H   0  0  0  0  0  0  0  0  0  0  0  0
   -2.0610   -5.4400   -0.0720 H   0  0  0  0  0  0  0  0  0  0  0  0
   -0.5550   -5.6670   -1.0070 H   0  0  0  0  0  0  0  0  0  0  0  0
   -0.2070   -3.2570   -1.2800 H   0  0  0  0  0  0  0  0  0  0  0  0
   -0.1190   -3.8130    0.4060 H   0  0  0  0  0  0  0  0  0  0  0  0
   -2.4600   -2.3840   -0.9810 H   0  0  0  0  0  0  0  0  0  0  0  0
   -0.4140   -1.4030    0.9520 H   0  0  0  0  0  0  0  0  0  0  0  0
  1  2  1  0  0  0  0
  1  9  1  0  0  0  0
  2  3  1  0  0  0  0
  2 12  1  0  0  0  0
  3 14  1  1  0  0  0
  3  4  1  0  0  0  0
  4 17  1  0  0  0  0
  4 15  1  0  0  0  0
  5 18  1  6  0  0  0
  5  6  1  0  0  0  0
  5  3  1  0  0  0  0
  6 19  1  0  0  0  0
  7  5  1  0  0  0  0
  8  7  2  0  0  0  0
 10  1  1  0  0  0  0
 11  1  1  0  0  0  0
 13  2  1  0  0  0  0
 16  4  1  0  0  0  0
 20  6  1  0  0  0  0
 21 35  1  0  0  0  0
 21  7  1  0  0  0  0
 22 36  1  1  0  0  0
 22 21  1  0  0  0  0
 23 37  1  0  0  0  0
 23 22  1  0  0  0  0
 24 23  1  0  0  0  0
 24 25  2  0  0  0  0
 25 39  1  0  0  0  0
 26 40  1  0  0  0  0
 26 25  1  0  0  0  0
 27 26  1  0  0  0  0
 28 41  1  0  0  0  0
 28 27  2  0  0  0  0
 29 28  1  0  0  0  0
 30 29  2  0  0  0  0
 30 31  1  0  0  0  0
 31 32  2  0  0  0  0
 32 27  1  0  0  0  0
 32 24  1  0  0  0  0
 33 22  1  0  0  0  0
 33 50  1  0  0  0  0
 34 33  2  0  0  0  0
 38 23  1  0  0  0  0
 42 29  1  0  0  0  0
 43 30  1  0  0  0  0
 44 31  1  0  0  0  0
 45 46  1  0  0  0  0
 45 56  1  0  0  0  0
 46 47  1  0  0  0  0
 47 48  1  0  0  0  0
 47 57  1  0  0  0  0
 48 49  1  0  0  0  0
 48 60  1  0  0  0  0
 49 61  1  6  0  0  0
 49 50  1  0  0  0  0
 49 51  1  0  0  0  0
 50 62  1  0  0  0  0
 51 53  2  0  0  0  0
 51 52  1  0  0  0  0
 54 45  1  0  0  0  0
 55 45  1  0  0  0  0
 58 47  1  0  0  0  0
 59 48  1  0  0  0  0
M  END
$$$$
