IWV.pdb
 OpenBabel07022418433D

 61 62  0  0  1  0  0  0  0  0999 V2000
    1.1320    2.9770    2.1520 C   0  0  0  0  0  0  0  0  0  0  0  0
    1.6530    2.3770    3.4090 C   0  0  0  0  0  0  0  0  0  0  0  0
    1.0910    1.0260    3.7600 C   0  0  2  0  0  0  0  0  0  0  0  0
    1.7780    0.6280    5.0800 C   0  0  0  0  0  0  0  0  0  0  0  0
    1.2650   -0.0180    2.7340 C   0  0  2  0  0  0  0  0  0  0  0  0
    2.6590   -0.2600    2.3920 N   0  0  0  0  0  0  0  0  0  0  0  0
    0.3430   -0.0750    1.6090 C   0  0  0  0  0  0  0  0  0  0  0  0
    0.7890   -0.4310    0.4850 O   0  0  0  0  0  0  0  0  0  0  0  0
    1.2440    4.1000    2.2250 H   0  0  0  0  0  0  0  0  0  0  0  0
    1.7360    2.7130    1.2570 H   0  0  0  0  0  0  0  0  0  0  0  0
    0.0460    2.8010    2.0160 H   0  0  0  0  0  0  0  0  0  0  0  0
    2.7800    2.3430    3.3300 H   0  0  0  0  0  0  0  0  0  0  0  0
    1.4300    3.1170    4.2360 H   0  0  0  0  0  0  0  0  0  0  0  0
    0.0360    1.1970    4.0640 H   0  0  0  0  0  0  0  0  0  0  0  0
    1.6390   -0.4590    5.2720 H   0  0  0  0  0  0  0  0  0  0  0  0
    1.3590    1.2450    5.9140 H   0  0  0  0  0  0  0  0  0  0  0  0
    2.8540    0.8080    4.9290 H   0  0  0  0  0  0  0  0  0  0  0  0
    1.0140   -1.0110    3.3150 H   0  0  0  0  0  0  0  0  0  0  0  0
    3.2980    0.3090    2.9870 H   0  0  0  0  0  0  0  0  0  0  0  0
    2.8040    0.0850    1.4130 H   0  0  0  0  0  0  0  0  0  0  0  0
   -1.0220    0.2390    1.7090 N   0  0  0  0  0  0  0  0  0  0  0  0
   -2.0210    0.1930    0.7180 C   0  0  1  0  0  0  0  0  0  0  0  0
   -1.9750    1.1720   -0.3970 C   0  0  0  0  0  0  0  0  0  0  0  0
   -0.8180    1.2450   -1.2710 C   0  0  0  0  0  0  0  0  0  0  0  0
    0.1570    2.2590   -1.1890 C   0  0  0  0  0  0  0  0  0  0  0  0
    1.0700    2.0500   -2.1290 N   0  0  0  0  0  0  0  0  0  0  0  0
    0.7450    0.9560   -2.8220 C   0  0  0  0  0  0  0  0  0  0  0  0
    1.3920    0.3420   -3.9100 C   0  0  0  0  0  0  0  0  0  0  0  0
    0.8710   -0.7900   -4.4860 C   0  0  0  0  0  0  0  0  0  0  0  0
   -0.2880   -1.2910   -3.9690 C   0  0  0  0  0  0  0  0  0  0  0  0
   -0.9360   -0.6950   -2.8960 C   0  0  0  0  0  0  0  0  0  0  0  0
   -0.4250    0.4470   -2.3010 C   0  0  0  0  0  0  0  0  0  0  0  0
   -2.4270   -1.1810    0.3230 C   0  0  0  0  0  0  0  0  0  0  0  0
   -3.4040   -1.2750   -0.4640 O   0  0  0  0  0  0  0  0  0  0  0  0
   -1.3160    0.5550    2.6950 H   0  0  0  0  0  0  0  0  0  0  0  0
   -2.9890    0.5600    1.2990 H   0  0  0  0  0  0  0  0  0  0  0  0
   -2.9260    0.9840   -1.0190 H   0  0  0  0  0  0  0  0  0  0  0  0
   -2.2090    2.2290   -0.0050 H   0  0  0  0  0  0  0  0  0  0  0  0
    0.1820    3.0880   -0.5020 H   0  0  0  0  0  0  0  0  0  0  0  0
    1.9040    2.6410   -2.3000 H   0  0  0  0  0  0  0  0  0  0  0  0
    2.3030    0.7730   -4.2830 H   0  0  0  0  0  0  0  0  0  0  0  0
    1.3660   -1.2660   -5.3240 H   0  0  0  0  0  0  0  0  0  0  0  0
   -0.7150   -2.1900   -4.4160 H   0  0  0  0  0  0  0  0  0  0  0  0
   -1.8420   -1.0910   -2.5090 H   0  0  0  0  0  0  0  0  0  0  0  0
   -0.7020   -3.7910   -1.5550 C   0  0  0  0  0  0  0  0  0  0  0  0
   -1.1650   -4.4860   -0.3230 C   0  0  0  0  0  0  0  0  0  0  0  0
   -0.0230   -4.8490    0.5710 C   0  0  0  0  0  0  0  0  0  0  0  0
   -2.2210   -3.6590    0.3700 C   0  0  2  0  0  0  0  0  0  0  0  0
   -1.7910   -2.3600    0.7750 N   0  0  0  0  0  0  0  0  0  0  0  0
   -2.8160   -4.3780    1.5210 C   0  0  0  0  0  0  0  0  0  0  0  0
   -2.8630   -3.7930    2.6240 O   0  0  0  0  0  0  0  0  0  0  0  0
   -3.3250   -5.6620    1.4490 O   0  0  0  0  0  0  0  0  0  0  0  0
   -1.5950   -3.4480   -2.1290 H   0  0  0  0  0  0  0  0  0  0  0  0
   -0.1880   -4.5160   -2.2530 H   0  0  0  0  0  0  0  0  0  0  0  0
    0.0110   -2.9760   -1.3770 H   0  0  0  0  0  0  0  0  0  0  0  0
   -1.6620   -5.4340   -0.6320 H   0  0  0  0  0  0  0  0  0  0  0  0
    0.4690   -5.7570    0.1140 H   0  0  0  0  0  0  0  0  0  0  0  0
   -0.3510   -5.1580    1.5710 H   0  0  0  0  0  0  0  0  0  0  0  0
    0.7740   -4.0760    0.6080 H   0  0  0  0  0  0  0  0  0  0  0  0
   -3.0640   -3.5540   -0.3790 H   0  0  0  0  0  0  0  0  0  0  0  0
   -0.9810   -2.2890    1.4280 H   0  0  0  0  0  0  0  0  0  0  0  0
  1  9  1  0  0  0  0
  1  2  1  0  0  0  0
  2  3  1  0  0  0  0
  2 13  1  0  0  0  0
  3 14  1  1  0  0  0
  3  4  1  0  0  0  0
  4 15  1  0  0  0  0
  4 16  1  0  0  0  0
  5 18  1  1  0  0  0
  5  3  1  0  0  0  0
  6  5  1  0  0  0  0
  6 19  1  0  0  0  0
  7 21  1  0  0  0  0
  7  5  1  0  0  0  0
  8  7  2  0  0  0  0
 10  1  1  0  0  0  0
 11  1  1  0  0  0  0
 12  2  1  0  0  0  0
 17  4  1  0  0  0  0
 20  6  1  0  0  0  0
 21 35  1  0  0  0  0
 22 36  1  1  0  0  0
 22 21  1  0  0  0  0
 23 38  1  0  0  0  0
 23 22  1  0  0  0  0
 24 25  2  0  0  0  0
 24 23  1  0  0  0  0
 25 39  1  0  0  0  0
 26 25  1  0  0  0  0
 27 32  1  0  0  0  0
 27 26  1  0  0  0  0
 28 27  2  0  0  0  0
 29 30  2  0  0  0  0
 29 28  1  0  0  0  0
 30 31  1  0  0  0  0
 31 44  1  0  0  0  0
 31 32  2  0  0  0  0
 32 24  1  0  0  0  0
 33 22  1  0  0  0  0
 33 49  1  0  0  0  0
 34 33  2  0  0  0  0
 37 23  1  0  0  0  0
 40 26  1  0  0  0  0
 41 28  1  0  0  0  0
 42 29  1  0  0  0  0
 43 30  1  0  0  0  0
 45 55  1  0  0  0  0
 45 46  1  0  0  0  0
 46 48  1  0  0  0  0
 46 47  1  0  0  0  0
 47 59  1  0  0  0  0
 47 58  1  0  0  0  0
 48 60  1  6  0  0  0
 48 49  1  0  0  0  0
 48 50  1  0  0  0  0
 49 61  1  0  0  0  0
 50 51  1  0  0  0  0
 52 50  2  0  0  0  0
 53 45  1  0  0  0  0
 54 45  1  0  0  0  0
 56 46  1  0  0  0  0
 57 47  1  0  0  0  0
M  END
$$$$
