IYD.pdb
 OpenBabel07022418433D

 55 55  0  0  1  0  0  0  0  0999 V2000
    0.8640    2.4660    1.7970 C   0  0  0  0  0  0  0  0  0  0  0  0
    1.3250    1.8910    3.1040 C   0  0  0  0  0  0  0  0  0  0  0  0
    0.6340    0.6070    3.3860 C   0  0  2  0  0  0  0  0  0  0  0  0
    1.1870    0.1040    4.7330 C   0  0  0  0  0  0  0  0  0  0  0  0
    0.7750   -0.4850    2.4130 C   0  0  2  0  0  0  0  0  0  0  0  0
    2.1820   -0.7950    2.2310 N   0  0  0  0  0  0  0  0  0  0  0  0
   -0.0020   -0.4760    1.1720 C   0  0  0  0  0  0  0  0  0  0  0  0
    0.5830   -0.6630    0.0790 O   0  0  0  0  0  0  0  0  0  0  0  0
    1.1690    3.5480    1.7000 H   0  0  0  0  0  0  0  0  0  0  0  0
    1.3220    1.9310    0.9370 H   0  0  0  0  0  0  0  0  0  0  0  0
   -0.2340    2.4720    1.8050 H   0  0  0  0  0  0  0  0  0  0  0  0
    2.4330    1.8250    3.1590 H   0  0  0  0  0  0  0  0  0  0  0  0
    1.0620    2.6680    3.8820 H   0  0  0  0  0  0  0  0  0  0  0  0
   -0.4490    0.8140    3.6310 H   0  0  0  0  0  0  0  0  0  0  0  0
    2.2940   -0.0180    4.6610 H   0  0  0  0  0  0  0  0  0  0  0  0
    0.7390   -0.8730    4.9850 H   0  0  0  0  0  0  0  0  0  0  0  0
    1.0150    0.8500    5.5300 H   0  0  0  0  0  0  0  0  0  0  0  0
    0.4230   -1.4320    3.0280 H   0  0  0  0  0  0  0  0  0  0  0  0
    2.5890   -1.3760    2.9800 H   0  0  0  0  0  0  0  0  0  0  0  0
    2.2480   -1.3190    1.3150 H   0  0  0  0  0  0  0  0  0  0  0  0
    2.4370    2.0200   -3.8300 O   0  0  0  0  0  0  0  0  0  0  0  0
    1.2640    1.7030   -3.1360 C   0  0  0  0  0  0  0  0  0  0  0  0
    0.8170    2.4450   -2.0620 C   0  0  0  0  0  0  0  0  0  0  0  0
   -0.3280    2.1510   -1.3700 C   0  0  0  0  0  0  0  0  0  0  0  0
   -1.0850    1.0660   -1.7470 C   0  0  0  0  0  0  0  0  0  0  0  0
   -2.3050    0.7420   -0.9860 C   0  0  0  0  0  0  0  0  0  0  0  0
   -2.2670   -0.3080    0.0230 C   0  0  2  0  0  0  0  0  0  0  0  0
   -1.4120   -0.2760    1.1440 N   0  0  0  0  0  0  0  0  0  0  0  0
   -2.3410   -1.7050   -0.5790 C   0  0  0  0  0  0  0  0  0  0  0  0
   -3.0210   -1.9370   -1.6080 O   0  0  0  0  0  0  0  0  0  0  0  0
   -0.6760    0.3050   -2.8090 C   0  0  0  0  0  0  0  0  0  0  0  0
    0.4780    0.6240   -3.4860 C   0  0  0  0  0  0  0  0  0  0  0  0
    3.2970    1.6590   -3.4190 H   0  0  0  0  0  0  0  0  0  0  0  0
    1.4310    3.3070   -1.7710 H   0  0  0  0  0  0  0  0  0  0  0  0
   -0.6580    2.7900   -0.5250 H   0  0  0  0  0  0  0  0  0  0  0  0
   -2.6720    1.6870   -0.4670 H   0  0  0  0  0  0  0  0  0  0  0  0
   -3.1280    0.5200   -1.7110 H   0  0  0  0  0  0  0  0  0  0  0  0
   -3.3430   -0.2770    0.4840 H   0  0  0  0  0  0  0  0  0  0  0  0
   -1.8030   -0.0800    2.1320 H   0  0  0  0  0  0  0  0  0  0  0  0
   -1.2720   -0.5730   -3.1360 H   0  0  0  0  0  0  0  0  0  0  0  0
    0.8000    0.0020   -4.3410 H   0  0  0  0  0  0  0  0  0  0  0  0
   -1.6450   -2.8080   -0.0010 N   0  0  0  0  0  0  0  0  0  0  0  0
   -1.7220   -4.1390   -0.5930 C   0  0  1  0  0  0  0  0  0  0  0  0
   -0.3770   -4.4680   -1.1860 C   0  0  0  0  0  0  0  0  0  0  0  0
    0.6700   -4.4800   -0.1750 C   0  0  0  0  0  0  0  0  0  0  0  0
    0.4140   -4.3110    1.0260 O   0  0  0  0  0  0  0  0  0  0  0  0
   -2.1910   -5.1340    0.3670 C   0  0  0  0  0  0  0  0  0  0  0  0
   -2.3120   -6.3310    0.0270 O   0  0  0  0  0  0  0  0  0  0  0  0
    2.0230   -4.6840   -0.4970 O   0  0  0  0  0  0  0  0  0  0  0  0
   -2.5060   -4.7640    1.6580 O   0  0  0  0  0  0  0  0  0  0  0  0
   -1.0890   -2.6400    0.8670 H   0  0  0  0  0  0  0  0  0  0  0  0
   -2.4350   -4.0430   -1.4660 H   0  0  0  0  0  0  0  0  0  0  0  0
   -0.1470   -3.6100   -1.8860 H   0  0  0  0  0  0  0  0  0  0  0  0
   -0.4090   -5.3940   -1.8050 H   0  0  0  0  0  0  0  0  0  0  0  0
    2.7260   -4.1990    0.0700 H   0  0  0  0  0  0  0  0  0  0  0  0
  1 11  1  0  0  0  0
  1  2  1  0  0  0  0
  2 12  1  0  0  0  0
  2  3  1  0  0  0  0
  2 13  1  0  0  0  0
  3 14  1  1  0  0  0
  3  4  1  0  0  0  0
  4 16  1  0  0  0  0
  4 17  1  0  0  0  0
  5 18  1  1  0  0  0
  5  3  1  0  0  0  0
  6  5  1  0  0  0  0
  6 19  1  0  0  0  0
  7  5  1  0  0  0  0
  8  7  2  0  0  0  0
  9  1  1  0  0  0  0
 10  1  1  0  0  0  0
 15  4  1  0  0  0  0
 20  6  1  0  0  0  0
 21 33  1  0  0  0  0
 21 22  1  0  0  0  0
 22 23  1  0  0  0  0
 23 34  1  0  0  0  0
 23 24  2  0  0  0  0
 24 35  1  0  0  0  0
 25 24  1  0  0  0  0
 25 26  1  0  0  0  0
 26 36  1  0  0  0  0
 26 27  1  0  0  0  0
 27 38  1  1  0  0  0
 27 28  1  0  0  0  0
 28  7  1  0  0  0  0
 28 39  1  0  0  0  0
 29 42  1  0  0  0  0
 29 27  1  0  0  0  0
 30 29  2  0  0  0  0
 31 25  2  0  0  0  0
 32 22  2  0  0  0  0
 32 31  1  0  0  0  0
 37 26  1  0  0  0  0
 40 31  1  0  0  0  0
 41 32  1  0  0  0  0
 42 51  1  0  0  0  0
 43 52  1  6  0  0  0
 43 42  1  0  0  0  0
 43 47  1  0  0  0  0
 44 43  1  0  0  0  0
 44 45  1  0  0  0  0
 45 46  2  0  0  0  0
 47 50  1  0  0  0  0
 48 47  2  0  0  0  0
 49 45  1  0  0  0  0
 49 55  1  0  0  0  0
 53 44  1  0  0  0  0
 54 44  1  0  0  0  0
M  END
$$$$
