IYG.pdb
 OpenBabel07022418433D

 49 49  0  0  1  0  0  0  0  0999 V2000
    2.5150   -4.7390    1.4630 C   0  0  0  0  0  0  0  0  0  0  0  0
    1.7780   -3.8200    0.5270 C   0  0  0  0  0  0  0  0  0  0  0  0
    2.5020   -2.5420    0.2630 C   0  0  2  0  0  0  0  0  0  0  0  0
    3.8370   -2.8600   -0.3570 C   0  0  0  0  0  0  0  0  0  0  0  0
    2.7190   -1.7080    1.4950 C   0  0  2  0  0  0  0  0  0  0  0  0
    3.4980   -2.3960    2.5020 N   0  0  0  0  0  0  0  0  0  0  0  0
    1.4820   -1.1860    2.0800 C   0  0  0  0  0  0  0  0  0  0  0  0
    1.2750   -1.3940    3.3040 O   0  0  0  0  0  0  0  0  0  0  0  0
    2.1760   -5.7860    1.2480 H   0  0  0  0  0  0  0  0  0  0  0  0
    3.6070   -4.7380    1.3100 H   0  0  0  0  0  0  0  0  0  0  0  0
    2.2280   -4.5060    2.5220 H   0  0  0  0  0  0  0  0  0  0  0  0
    0.7510   -3.6770    0.9150 H   0  0  0  0  0  0  0  0  0  0  0  0
    1.6700   -4.3540   -0.4390 H   0  0  0  0  0  0  0  0  0  0  0  0
    1.9260   -1.9490   -0.4560 H   0  0  0  0  0  0  0  0  0  0  0  0
    4.2830   -1.9530   -0.8430 H   0  0  0  0  0  0  0  0  0  0  0  0
    4.5870   -3.2150    0.3640 H   0  0  0  0  0  0  0  0  0  0  0  0
    3.7430   -3.6500   -1.1380 H   0  0  0  0  0  0  0  0  0  0  0  0
    3.3300   -0.8180    1.1780 H   0  0  0  0  0  0  0  0  0  0  0  0
    4.4420   -1.9720    2.6410 H   0  0  0  0  0  0  0  0  0  0  0  0
    3.0170   -2.3260    3.4420 H   0  0  0  0  0  0  0  0  0  0  0  0
   -0.4110    3.9720   -3.1640 O   0  0  0  0  0  0  0  0  0  0  0  0
   -0.5150    3.3720   -1.9080 C   0  0  0  0  0  0  0  0  0  0  0  0
    0.6320    3.0770   -1.2010 C   0  0  0  0  0  0  0  0  0  0  0  0
    0.5560    2.4840    0.0420 C   0  0  0  0  0  0  0  0  0  0  0  0
   -0.6720    2.1600    0.6340 C   0  0  0  0  0  0  0  0  0  0  0  0
   -0.7250    1.5260    1.9690 C   0  0  0  0  0  0  0  0  0  0  0  0
   -0.6950    0.0350    1.9520 C   0  0  2  0  0  0  0  0  0  0  0  0
    0.5110   -0.4600    1.3290 N   0  0  0  0  0  0  0  0  0  0  0  0
   -1.9020   -0.6260    1.4360 C   0  0  0  0  0  0  0  0  0  0  0  0
   -1.7570   -1.5120    0.5540 O   0  0  0  0  0  0  0  0  0  0  0  0
   -1.7860    2.4760   -0.1160 C   0  0  0  0  0  0  0  0  0  0  0  0
   -1.7380    3.0660   -1.3550 C   0  0  0  0  0  0  0  0  0  0  0  0
   -0.9070    3.5560   -3.9500 H   0  0  0  0  0  0  0  0  0  0  0  0
    1.5990    3.3260   -1.6530 H   0  0  0  0  0  0  0  0  0  0  0  0
    1.4660    2.2570    0.5890 H   0  0  0  0  0  0  0  0  0  0  0  0
    0.1850    1.8640    2.5170 H   0  0  0  0  0  0  0  0  0  0  0  0
   -1.5840    1.8850    2.5750 H   0  0  0  0  0  0  0  0  0  0  0  0
   -0.6350   -0.2820    3.0360 H   0  0  0  0  0  0  0  0  0  0  0  0
    0.7120   -0.3000    0.2970 H   0  0  0  0  0  0  0  0  0  0  0  0
   -2.7460    2.2270    0.3380 H   0  0  0  0  0  0  0  0  0  0  0  0
   -2.6630    3.2950   -1.9060 H   0  0  0  0  0  0  0  0  0  0  0  0
   -3.2160   -0.3440    1.8530 N   0  0  0  0  0  0  0  0  0  0  0  0
   -4.3290   -1.0600    1.2770 C   0  0  0  0  0  0  0  0  0  0  0  0
   -4.4490   -0.8950   -0.1810 C   0  0  0  0  0  0  0  0  0  0  0  0
   -5.3760   -1.4610   -0.8090 O   0  0  0  0  0  0  0  0  0  0  0  0
   -3.5580   -0.1200   -0.9040 O   0  0  0  0  0  0  0  0  0  0  0  0
   -3.3840    0.3680    2.5640 H   0  0  0  0  0  0  0  0  0  0  0  0
   -5.2800   -0.7610    1.7660 H   0  0  0  0  0  0  0  0  0  0  0  0
   -4.1260   -2.1530    1.4630 H   0  0  0  0  0  0  0  0  0  0  0  0
  1 11  1  0  0  0  0
  2 12  1  0  0  0  0
  2  1  1  0  0  0  0
  3 14  1  6  0  0  0
  3  2  1  0  0  0  0
  3  5  1  0  0  0  0
  4  3  1  0  0  0  0
  4 16  1  0  0  0  0
  5 18  1  6  0  0  0
  5  7  1  0  0  0  0
  5  6  1  0  0  0  0
  6 19  1  0  0  0  0
  6 20  1  0  0  0  0
  7  8  2  0  0  0  0
  9  1  1  0  0  0  0
 10  1  1  0  0  0  0
 13  2  1  0  0  0  0
 15  4  1  0  0  0  0
 17  4  1  0  0  0  0
 21 22  1  0  0  0  0
 22 32  2  0  0  0  0
 22 23  1  0  0  0  0
 23 24  2  0  0  0  0
 24 35  1  0  0  0  0
 24 25  1  0  0  0  0
 25 26  1  0  0  0  0
 26 36  1  0  0  0  0
 26 37  1  0  0  0  0
 27 26  1  0  0  0  0
 27 38  1  1  0  0  0
 28 27  1  0  0  0  0
 28  7  1  0  0  0  0
 29 42  1  0  0  0  0
 29 27  1  0  0  0  0
 30 29  2  0  0  0  0
 31 40  1  0  0  0  0
 31 25  2  0  0  0  0
 32 31  1  0  0  0  0
 33 21  1  0  0  0  0
 34 23  1  0  0  0  0
 39 28  1  0  0  0  0
 41 32  1  0  0  0  0
 42 47  1  0  0  0  0
 43 49  1  0  0  0  0
 43 48  1  0  0  0  0
 43 42  1  0  0  0  0
 44 43  1  0  0  0  0
 45 44  1  0  0  0  0
 46 44  2  0  0  0  0
M  END
$$$$
