IYL.pdb
 OpenBabel07022418433D

 61 61  0  0  1  0  0  0  0  0999 V2000
    1.1640    0.5460    3.8310 C   0  0  0  0  0  0  0  0  0  0  0  0
    2.6440    0.3520    3.6860 C   0  0  0  0  0  0  0  0  0  0  0  0
    3.1180   -0.0270    2.3300 C   0  0  2  0  0  0  0  0  0  0  0  0
    4.6300   -0.1870    2.3320 C   0  0  0  0  0  0  0  0  0  0  0  0
    2.7270    0.9110    1.2190 C   0  0  2  0  0  0  0  0  0  0  0  0
    3.2420    2.2540    1.4820 N   0  0  0  0  0  0  0  0  0  0  0  0
    1.3070    0.8780    0.8820 C   0  0  0  0  0  0  0  0  0  0  0  0
    0.5910    1.9260    0.9670 O   0  0  0  0  0  0  0  0  0  0  0  0
    0.8250    0.3460    4.8930 H   0  0  0  0  0  0  0  0  0  0  0  0
    0.8610    1.6150    3.6730 H   0  0  0  0  0  0  0  0  0  0  0  0
    0.6030   -0.1620    3.2120 H   0  0  0  0  0  0  0  0  0  0  0  0
    3.2230    1.2020    4.1290 H   0  0  0  0  0  0  0  0  0  0  0  0
    2.9020   -0.5140    4.3660 H   0  0  0  0  0  0  0  0  0  0  0  0
    2.7260   -1.0410    2.0550 H   0  0  0  0  0  0  0  0  0  0  0  0
    5.1590    0.7510    2.5060 H   0  0  0  0  0  0  0  0  0  0  0  0
    4.9420   -0.7360    1.4320 H   0  0  0  0  0  0  0  0  0  0  0  0
    4.8560   -0.8430    3.2190 H   0  0  0  0  0  0  0  0  0  0  0  0
    3.3170    0.5680    0.3280 H   0  0  0  0  0  0  0  0  0  0  0  0
    2.8980    2.8530    0.6880 H   0  0  0  0  0  0  0  0  0  0  0  0
    4.2810    2.2110    1.3790 H   0  0  0  0  0  0  0  0  0  0  0  0
    1.4950    3.8140   -4.2350 O   0  0  0  0  0  0  0  0  0  0  0  0
    0.8980    2.7590   -3.5340 C   0  0  0  0  0  0  0  0  0  0  0  0
   -0.4180    2.8320   -3.1060 C   0  0  0  0  0  0  0  0  0  0  0  0
   -1.0310    1.8070   -2.4130 C   0  0  0  0  0  0  0  0  0  0  0  0
   -0.3300    0.6540   -2.1220 C   0  0  0  0  0  0  0  0  0  0  0  0
   -0.9860   -0.4530   -1.3760 C   0  0  0  0  0  0  0  0  0  0  0  0
   -0.7970   -0.2850    0.1100 C   0  0  2  0  0  0  0  0  0  0  0  0
    0.6140   -0.2870    0.4410 N   0  0  0  0  0  0  0  0  0  0  0  0
   -1.4670   -1.2840    0.9210 C   0  0  0  0  0  0  0  0  0  0  0  0
   -0.7780   -1.9800    1.7260 O   0  0  0  0  0  0  0  0  0  0  0  0
    0.9800    0.5930   -2.5530 C   0  0  0  0  0  0  0  0  0  0  0  0
    1.5940    1.6100   -3.2430 C   0  0  0  0  0  0  0  0  0  0  0  0
    2.2060    3.5400   -4.9230 H   0  0  0  0  0  0  0  0  0  0  0  0
   -0.9520    3.7440   -3.3440 H   0  0  0  0  0  0  0  0  0  0  0  0
   -2.0690    1.9430   -2.1120 H   0  0  0  0  0  0  0  0  0  0  0  0
   -2.0660   -0.4020   -1.6300 H   0  0  0  0  0  0  0  0  0  0  0  0
   -0.6010   -1.3900   -1.7700 H   0  0  0  0  0  0  0  0  0  0  0  0
   -1.2580    0.7190    0.3440 H   0  0  0  0  0  0  0  0  0  0  0  0
    1.1460   -1.1790    0.3520 H   0  0  0  0  0  0  0  0  0  0  0  0
    1.5770   -0.3010   -2.3460 H   0  0  0  0  0  0  0  0  0  0  0  0
    2.6230    1.5460   -3.5740 H   0  0  0  0  0  0  0  0  0  0  0  0
   -2.6900   -3.6350   -1.1190 C   0  0  0  0  0  0  0  0  0  0  0  0
   -3.4920   -4.3390   -0.0750 C   0  0  0  0  0  0  0  0  0  0  0  0
   -3.0550   -5.8100   -0.1080 C   0  0  0  0  0  0  0  0  0  0  0  0
   -3.2840   -3.8500    1.3220 C   0  0  0  0  0  0  0  0  0  0  0  0
   -3.6110   -2.4240    1.5680 C   0  0  2  0  0  0  0  0  0  0  0  0
   -2.8710   -1.4640    0.8020 N   0  0  0  0  0  0  0  0  0  0  0  0
   -3.3440   -2.1500    3.0250 C   0  0  0  0  0  0  0  0  0  0  0  0
   -3.8480   -2.8860    3.9120 O   0  0  0  0  0  0  0  0  0  0  0  0
   -2.5460   -1.0890    3.3900 O   0  0  0  0  0  0  0  0  0  0  0  0
   -1.6270   -3.6240   -0.7690 H   0  0  0  0  0  0  0  0  0  0  0  0
   -2.6720   -4.2890   -2.0210 H   0  0  0  0  0  0  0  0  0  0  0  0
   -3.0640   -2.6570   -1.4170 H   0  0  0  0  0  0  0  0  0  0  0  0
   -4.5500   -4.3310   -0.3900 H   0  0  0  0  0  0  0  0  0  0  0  0
   -1.9830   -5.8430   -0.3530 H   0  0  0  0  0  0  0  0  0  0  0  0
   -3.6830   -6.3800   -0.8300 H   0  0  0  0  0  0  0  0  0  0  0  0
   -3.2550   -6.2340    0.8860 H   0  0  0  0  0  0  0  0  0  0  0  0
   -2.2770   -4.1350    1.7230 H   0  0  0  0  0  0  0  0  0  0  0  0
   -3.9960   -4.4510    1.9630 H   0  0  0  0  0  0  0  0  0  0  0  0
   -4.7170   -2.2780    1.4580 H   0  0  0  0  0  0  0  0  0  0  0  0
   -3.3480   -0.8500    0.1170 H   0  0  0  0  0  0  0  0  0  0  0  0
  1  9  1  0  0  0  0
  2  1  1  0  0  0  0
  2 12  1  0  0  0  0
  2 13  1  0  0  0  0
  3 14  1  6  0  0  0
  3  4  1  0  0  0  0
  3  2  1  0  0  0  0
  4 15  1  0  0  0  0
  4 17  1  0  0  0  0
  5 18  1  6  0  0  0
  5  6  1  0  0  0  0
  5  3  1  0  0  0  0
  7  8  2  0  0  0  0
  7  5  1  0  0  0  0
 10  1  1  0  0  0  0
 11  1  1  0  0  0  0
 16  4  1  0  0  0  0
 19  6  1  0  0  0  0
 20  6  1  0  0  0  0
 21 22  1  0  0  0  0
 22 32  2  0  0  0  0
 22 23  1  0  0  0  0
 23 24  2  0  0  0  0
 24 25  1  0  0  0  0
 24 35  1  0  0  0  0
 25 26  1  0  0  0  0
 26 27  1  0  0  0  0
 27 38  1  1  0  0  0
 27 28  1  0  0  0  0
 27 29  1  0  0  0  0
 28  7  1  0  0  0  0
 29 30  2  0  0  0  0
 31 40  1  0  0  0  0
 31 25  2  0  0  0  0
 32 31  1  0  0  0  0
 33 21  1  0  0  0  0
 34 23  1  0  0  0  0
 36 26  1  0  0  0  0
 37 26  1  0  0  0  0
 39 28  1  0  0  0  0
 41 32  1  0  0  0  0
 42 51  1  0  0  0  0
 42 43  1  0  0  0  0
 43 45  1  0  0  0  0
 44 43  1  0  0  0  0
 44 57  1  0  0  0  0
 45 46  1  0  0  0  0
 45 58  1  0  0  0  0
 45 59  1  0  0  0  0
 46 60  1  6  0  0  0
 46 48  1  0  0  0  0
 47 29  1  0  0  0  0
 47 46  1  0  0  0  0
 48 50  2  0  0  0  0
 48 49  1  0  0  0  0
 52 42  1  0  0  0  0
 53 42  1  0  0  0  0
 54 43  1  0  0  0  0
 55 44  1  0  0  0  0
 56 44  1  0  0  0  0
 61 47  1  0  0  0  0
M  END
$$$$
