IYN.pdb
 OpenBabel07022418433D

 56 56  0  0  1  0  0  0  0  0999 V2000
    3.4040    0.6430    3.1460 C   0  0  0  0  0  0  0  0  0  0  0  0
    3.0310    1.2240    1.8160 C   0  0  0  0  0  0  0  0  0  0  0  0
    3.2400    0.2400    0.7070 C   0  0  2  0  0  0  0  0  0  0  0  0
    2.8570    0.9520   -0.5850 C   0  0  0  0  0  0  0  0  0  0  0  0
    2.4390   -1.0430    0.8430 C   0  0  2  0  0  0  0  0  0  0  0  0
    2.8040   -1.8750   -0.3250 N   0  0  0  0  0  0  0  0  0  0  0  0
    0.9780   -0.8250    0.7960 C   0  0  0  0  0  0  0  0  0  0  0  0
    0.3870   -1.0730   -0.2860 O   0  0  0  0  0  0  0  0  0  0  0  0
    3.6300   -0.4350    3.1060 H   0  0  0  0  0  0  0  0  0  0  0  0
    2.6000    0.7660    3.9160 H   0  0  0  0  0  0  0  0  0  0  0  0
    4.3360    1.1290    3.5650 H   0  0  0  0  0  0  0  0  0  0  0  0
    1.9880    1.6270    1.8380 H   0  0  0  0  0  0  0  0  0  0  0  0
    3.7530    2.0720    1.6140 H   0  0  0  0  0  0  0  0  0  0  0  0
    4.3060   -0.0500    0.6750 H   0  0  0  0  0  0  0  0  0  0  0  0
    3.7710    1.0150   -1.2390 H   0  0  0  0  0  0  0  0  0  0  0  0
    2.0330    0.4570   -1.1160 H   0  0  0  0  0  0  0  0  0  0  0  0
    2.5690    2.0030   -0.4000 H   0  0  0  0  0  0  0  0  0  0  0  0
    2.7180   -1.5990    1.7290 H   0  0  0  0  0  0  0  0  0  0  0  0
    3.7990   -1.6810   -0.5400 H   0  0  0  0  0  0  0  0  0  0  0  0
    2.1660   -1.7120   -1.1190 H   0  0  0  0  0  0  0  0  0  0  0  0
   -0.5060    2.1940   -4.2190 O   0  0  0  0  0  0  0  0  0  0  0  0
   -0.8120    1.9150   -2.8780 C   0  0  0  0  0  0  0  0  0  0  0  0
   -0.0240    2.3570   -1.8340 C   0  0  0  0  0  0  0  0  0  0  0  0
   -0.3420    2.0730   -0.5300 C   0  0  0  0  0  0  0  0  0  0  0  0
   -1.4590    1.3360   -0.2010 C   0  0  0  0  0  0  0  0  0  0  0  0
   -1.7430    1.0680    1.1850 C   0  0  0  0  0  0  0  0  0  0  0  0
   -1.2450   -0.1570    1.8360 C   0  0  2  0  0  0  0  0  0  0  0  0
    0.1730   -0.3610    1.8740 N   0  0  0  0  0  0  0  0  0  0  0  0
   -2.0540   -1.3770    1.5820 C   0  0  0  0  0  0  0  0  0  0  0  0
   -3.3020   -1.2240    1.4900 O   0  0  0  0  0  0  0  0  0  0  0  0
   -2.2610    0.8840   -1.2230 C   0  0  0  0  0  0  0  0  0  0  0  0
   -1.9270    1.1790   -2.5260 C   0  0  0  0  0  0  0  0  0  0  0  0
    0.2880    2.7970   -4.3760 H   0  0  0  0  0  0  0  0  0  0  0  0
    0.8740    2.9480   -2.0770 H   0  0  0  0  0  0  0  0  0  0  0  0
    0.3080    2.4440    0.2490 H   0  0  0  0  0  0  0  0  0  0  0  0
   -2.8630    1.1570    1.3250 H   0  0  0  0  0  0  0  0  0  0  0  0
   -1.3570    1.9400    1.7990 H   0  0  0  0  0  0  0  0  0  0  0  0
   -1.5100    0.0310    2.9500 H   0  0  0  0  0  0  0  0  0  0  0  0
    0.7330   -0.1770    2.7570 H   0  0  0  0  0  0  0  0  0  0  0  0
   -3.1620    0.2920   -0.9910 H   0  0  0  0  0  0  0  0  0  0  0  0
   -2.5650    0.8180   -3.3220 H   0  0  0  0  0  0  0  0  0  0  0  0
   -3.7030   -3.7960   -1.9940 N   0  0  0  0  0  0  0  0  0  0  0  0
   -2.4760   -3.7340   -1.3020 C   0  0  0  0  0  0  0  0  0  0  0  0
   -1.5720   -2.9600   -1.7060 O   0  0  0  0  0  0  0  0  0  0  0  0
   -2.1840   -4.5530   -0.0890 C   0  0  0  0  0  0  0  0  0  0  0  0
   -2.3720   -3.8570    1.1960 C   0  0  2  0  0  0  0  0  0  0  0  0
   -1.5710   -2.6870    1.4350 N   0  0  0  0  0  0  0  0  0  0  0  0
   -2.1800   -4.8140    2.3140 C   0  0  0  0  0  0  0  0  0  0  0  0
   -2.8080   -5.9040    2.2710 O   0  0  0  0  0  0  0  0  0  0  0  0
   -1.3570   -4.5850    3.4000 O   0  0  0  0  0  0  0  0  0  0  0  0
   -4.3700   -4.5650   -1.8200 H   0  0  0  0  0  0  0  0  0  0  0  0
   -3.9380   -3.0650   -2.6840 H   0  0  0  0  0  0  0  0  0  0  0  0
   -2.9300   -5.3950   -0.1160 H   0  0  0  0  0  0  0  0  0  0  0  0
   -1.1940   -5.0710   -0.1880 H   0  0  0  0  0  0  0  0  0  0  0  0
   -3.4480   -3.5020    1.2170 H   0  0  0  0  0  0  0  0  0  0  0  0
   -0.5460   -2.8430    1.5120 H   0  0  0  0  0  0  0  0  0  0  0  0
  1 11  1  0  0  0  0
  1 10  1  0  0  0  0
  2 12  1  0  0  0  0
  2  1  1  0  0  0  0
  3 14  1  6  0  0  0
  3  5  1  0  0  0  0
  3  2  1  0  0  0  0
  4 17  1  0  0  0  0
  4  3  1  0  0  0  0
  5 18  1  1  0  0  0
  6  5  1  0  0  0  0
  7  5  1  0  0  0  0
  7 28  1  0  0  0  0
  8  7  2  0  0  0  0
  9  1  1  0  0  0  0
 13  2  1  0  0  0  0
 15  4  1  0  0  0  0
 16  4  1  0  0  0  0
 19  6  1  0  0  0  0
 20  6  1  0  0  0  0
 21 22  1  0  0  0  0
 22 32  2  0  0  0  0
 22 23  1  0  0  0  0
 23 24  2  0  0  0  0
 24 25  1  0  0  0  0
 24 35  1  0  0  0  0
 25 26  1  0  0  0  0
 26 36  1  0  0  0  0
 26 37  1  0  0  0  0
 26 27  1  0  0  0  0
 27 28  1  0  0  0  0
 27 38  1  1  0  0  0
 28 39  1  0  0  0  0
 29 27  1  0  0  0  0
 30 29  2  0  0  0  0
 31 40  1  0  0  0  0
 31 25  2  0  0  0  0
 32 31  1  0  0  0  0
 33 21  1  0  0  0  0
 34 23  1  0  0  0  0
 41 32  1  0  0  0  0
 42 51  1  0  0  0  0
 42 43  1  0  0  0  0
 43 45  1  0  0  0  0
 44 43  2  0  0  0  0
 45 46  1  0  0  0  0
 46 55  1  1  0  0  0
 46 47  1  0  0  0  0
 46 48  1  0  0  0  0
 47 56  1  0  0  0  0
 47 29  1  0  0  0  0
 48 50  1  0  0  0  0
 49 48  2  0  0  0  0
 52 42  1  0  0  0  0
 53 45  1  0  0  0  0
 54 45  1  0  0  0  0
M  END
$$$$
