IYP.pdb
 OpenBabel07022418433D

 56 57  0  0  1  0  0  0  0  0999 V2000
    3.7070   -0.1340    1.8420 C   0  0  0  0  0  0  0  0  0  0  0  0
    2.9820    1.1420    2.0970 C   0  0  0  0  0  0  0  0  0  0  0  0
    1.9630    1.0810    3.1870 C   0  0  2  0  0  0  0  0  0  0  0  0
    2.5360    0.7040    4.5220 C   0  0  0  0  0  0  0  0  0  0  0  0
    0.7520    0.2490    2.8670 C   0  0  2  0  0  0  0  0  0  0  0  0
    1.0150   -1.1150    2.5810 N   0  0  0  0  0  0  0  0  0  0  0  0
   -0.0680    0.8660    1.8200 C   0  0  0  0  0  0  0  0  0  0  0  0
   -0.3960    2.0780    1.8870 O   0  0  0  0  0  0  0  0  0  0  0  0
    3.5780   -0.9010    2.6360 H   0  0  0  0  0  0  0  0  0  0  0  0
    4.8150    0.0910    1.8520 H   0  0  0  0  0  0  0  0  0  0  0  0
    3.5010   -0.5090    0.8260 H   0  0  0  0  0  0  0  0  0  0  0  0
    2.4580    1.4850    1.1730 H   0  0  0  0  0  0  0  0  0  0  0  0
    3.6850    1.9740    2.3510 H   0  0  0  0  0  0  0  0  0  0  0  0
    1.5770    2.1380    3.3090 H   0  0  0  0  0  0  0  0  0  0  0  0
    3.2380    1.4800    4.8950 H   0  0  0  0  0  0  0  0  0  0  0  0
    1.6830    0.7010    5.2490 H   0  0  0  0  0  0  0  0  0  0  0  0
    3.0770   -0.2480    4.5290 H   0  0  0  0  0  0  0  0  0  0  0  0
    0.1260    0.2670    3.8090 H   0  0  0  0  0  0  0  0  0  0  0  0
    0.4880   -1.8220    3.0890 H   0  0  0  0  0  0  0  0  0  0  0  0
    1.4250   -1.3520    1.6800 H   0  0  0  0  0  0  0  0  0  0  0  0
    2.4790   -3.2050   -3.7920 O   0  0  0  0  0  0  0  0  0  0  0  0
    1.7750   -2.1520   -3.2280 C   0  0  0  0  0  0  0  0  0  0  0  0
    2.2980   -1.3800   -2.2110 C   0  0  0  0  0  0  0  0  0  0  0  0
    1.5390   -0.3470   -1.6970 C   0  0  0  0  0  0  0  0  0  0  0  0
    0.2780   -0.0520   -2.1570 C   0  0  0  0  0  0  0  0  0  0  0  0
   -0.4610    1.0550   -1.5670 C   0  0  0  0  0  0  0  0  0  0  0  0
   -1.3130    0.6480   -0.3540 C   0  0  2  0  0  0  0  0  0  0  0  0
   -0.5240    0.1030    0.6800 N   0  0  0  0  0  0  0  0  0  0  0  0
   -2.4860   -0.0920   -0.8110 C   0  0  0  0  0  0  0  0  0  0  0  0
   -3.0230    0.4720   -1.8770 O   0  0  0  0  0  0  0  0  0  0  0  0
   -0.2480   -0.8130   -3.1660 C   0  0  0  0  0  0  0  0  0  0  0  0
    0.5020   -1.8620   -3.6990 C   0  0  0  0  0  0  0  0  0  0  0  0
    3.0310   -3.8180   -3.1870 H   0  0  0  0  0  0  0  0  0  0  0  0
    3.2960   -1.6000   -1.8350 H   0  0  0  0  0  0  0  0  0  0  0  0
    2.0020    0.2290   -0.8960 H   0  0  0  0  0  0  0  0  0  0  0  0
   -1.2050    1.4150   -2.3250 H   0  0  0  0  0  0  0  0  0  0  0  0
    0.1590    1.9430   -1.3240 H   0  0  0  0  0  0  0  0  0  0  0  0
   -1.6760    1.6600    0.0230 H   0  0  0  0  0  0  0  0  0  0  0  0
   -0.2530   -0.9110    0.6190 H   0  0  0  0  0  0  0  0  0  0  0  0
   -1.2270   -0.6590   -3.5940 H   0  0  0  0  0  0  0  0  0  0  0  0
    0.1060   -2.4680   -4.4890 H   0  0  0  0  0  0  0  0  0  0  0  0
   -3.1290   -1.2260   -0.3840 N   0  0  0  0  0  0  0  0  0  0  0  0
   -4.2550   -1.8440   -1.2070 C   0  0  0  0  0  0  0  0  0  0  0  0
   -3.6770   -3.2510   -1.3060 C   0  0  0  0  0  0  0  0  0  0  0  0
   -2.7510   -3.4220   -0.0710 C   0  0  0  0  0  0  0  0  0  0  0  0
   -3.1420   -2.1800    0.6870 C   0  0  1  0  0  0  0  0  0  0  0  0
   -2.6080   -1.9190    1.9650 C   0  0  0  0  0  0  0  0  0  0  0  0
   -2.0140   -2.8500    2.6100 O   0  0  0  0  0  0  0  0  0  0  0  0
   -2.6830   -0.7070    2.6000 O   0  0  0  0  0  0  0  0  0  0  0  0
   -4.3740   -1.3300   -2.1430 H   0  0  0  0  0  0  0  0  0  0  0  0
   -5.1130   -1.8830   -0.5220 H   0  0  0  0  0  0  0  0  0  0  0  0
   -3.1310   -3.4050   -2.2350 H   0  0  0  0  0  0  0  0  0  0  0  0
   -4.4670   -4.0240   -1.2310 H   0  0  0  0  0  0  0  0  0  0  0  0
   -2.9970   -4.3280    0.4840 H   0  0  0  0  0  0  0  0  0  0  0  0
   -1.7100   -3.4560   -0.3890 H   0  0  0  0  0  0  0  0  0  0  0  0
   -4.2880   -2.4200    0.9060 H   0  0  0  0  0  0  0  0  0  0  0  0
  1 10  1  0  0  0  0
  1  2  1  0  0  0  0
  1  9  1  0  0  0  0
  2 13  1  0  0  0  0
  2  3  1  0  0  0  0
  3 14  1  1  0  0  0
  3  4  1  0  0  0  0
  4 17  1  0  0  0  0
  4 15  1  0  0  0  0
  4 16  1  0  0  0  0
  5  3  1  0  0  0  0
  5 18  1  1  0  0  0
  6  5  1  0  0  0  0
  6 19  1  0  0  0  0
  7  8  2  0  0  0  0
  7  5  1  0  0  0  0
 11  1  1  0  0  0  0
 12  2  1  0  0  0  0
 20  6  1  0  0  0  0
 21 22  1  0  0  0  0
 21 33  1  0  0  0  0
 22 23  1  0  0  0  0
 23 34  1  0  0  0  0
 23 24  2  0  0  0  0
 24 35  1  0  0  0  0
 25 24  1  0  0  0  0
 25 26  1  0  0  0  0
 26 37  1  0  0  0  0
 26 27  1  0  0  0  0
 27 38  1  1  0  0  0
 27 28  1  0  0  0  0
 28  7  1  0  0  0  0
 29 42  1  0  0  0  0
 29 27  1  0  0  0  0
 30 29  2  0  0  0  0
 31 25  2  0  0  0  0
 32 22  2  0  0  0  0
 32 31  1  0  0  0  0
 36 26  1  0  0  0  0
 39 28  1  0  0  0  0
 40 31  1  0  0  0  0
 41 32  1  0  0  0  0
 42 46  1  0  0  0  0
 43 51  1  0  0  0  0
 43 42  1  0  0  0  0
 44 53  1  0  0  0  0
 44 43  1  0  0  0  0
 44 45  1  0  0  0  0
 45 54  1  0  0  0  0
 45 46  1  0  0  0  0
 46 56  1  1  0  0  0
 46 47  1  0  0  0  0
 47 49  2  0  0  0  0
 47 48  1  0  0  0  0
 50 43  1  0  0  0  0
 52 44  1  0  0  0  0
 55 45  1  0  0  0  0
M  END
$$$$
