IYQ.pdb
 OpenBabel07022418433D

 59 59  0  0  1  0  0  0  0  0999 V2000
    2.3700   -0.9710    6.3670 C   0  0  0  0  0  0  0  0  0  0  0  0
    1.9610   -1.5670    5.0310 C   0  0  0  0  0  0  0  0  0  0  0  0
    2.8460   -1.1130    3.9190 C   0  0  2  0  0  0  0  0  0  0  0  0
    2.8290    0.3780    3.7200 C   0  0  0  0  0  0  0  0  0  0  0  0
    2.5620   -1.8840    2.6590 C   0  0  2  0  0  0  0  0  0  0  0  0
    3.4470   -1.4250    1.5890 N   0  0  0  0  0  0  0  0  0  0  0  0
    1.1620   -1.6510    2.2360 C   0  0  0  0  0  0  0  0  0  0  0  0
    0.1670   -2.0210    2.9030 O   0  0  0  0  0  0  0  0  0  0  0  0
    1.6190   -0.2980    6.8010 H   0  0  0  0  0  0  0  0  0  0  0  0
    2.5310   -1.7850    7.1010 H   0  0  0  0  0  0  0  0  0  0  0  0
    3.3520   -0.4840    6.2030 H   0  0  0  0  0  0  0  0  0  0  0  0
    1.9340   -2.6630    5.1470 H   0  0  0  0  0  0  0  0  0  0  0  0
    0.8880   -1.2430    4.8980 H   0  0  0  0  0  0  0  0  0  0  0  0
    3.9000   -1.4050    4.2410 H   0  0  0  0  0  0  0  0  0  0  0  0
    3.7280    0.8820    4.1140 H   0  0  0  0  0  0  0  0  0  0  0  0
    2.7830    0.5620    2.6240 H   0  0  0  0  0  0  0  0  0  0  0  0
    1.9560    0.8640    4.2050 H   0  0  0  0  0  0  0  0  0  0  0  0
    2.7370   -2.9560    2.8770 H   0  0  0  0  0  0  0  0  0  0  0  0
    4.3910   -1.1620    1.9930 H   0  0  0  0  0  0  0  0  0  0  0  0
    3.5520   -2.2000    0.8980 H   0  0  0  0  0  0  0  0  0  0  0  0
    2.5580    3.5900   -3.0910 O   0  0  0  0  0  0  0  0  0  0  0  0
    1.7480    2.8940   -2.1850 C   0  0  0  0  0  0  0  0  0  0  0  0
    0.5510    2.3630   -2.6130 C   0  0  0  0  0  0  0  0  0  0  0  0
   -0.2760    1.6630   -1.7260 C   0  0  0  0  0  0  0  0  0  0  0  0
    0.0810    1.4860   -0.4130 C   0  0  0  0  0  0  0  0  0  0  0  0
   -0.7800    0.7540    0.5050 C   0  0  0  0  0  0  0  0  0  0  0  0
   -0.4850   -0.7260    0.5730 C   0  0  2  0  0  0  0  0  0  0  0  0
    0.8800   -0.9660    1.0030 N   0  0  0  0  0  0  0  0  0  0  0  0
   -0.7070   -1.4490   -0.6920 C   0  0  0  0  0  0  0  0  0  0  0  0
    0.2480   -2.0670   -1.2180 O   0  0  0  0  0  0  0  0  0  0  0  0
    1.2830    2.0290   -0.0200 C   0  0  0  0  0  0  0  0  0  0  0  0
    2.1130    2.7210   -0.8720 C   0  0  0  0  0  0  0  0  0  0  0  0
    2.1680    4.1660   -3.8330 H   0  0  0  0  0  0  0  0  0  0  0  0
    0.2800    2.5080   -3.6480 H   0  0  0  0  0  0  0  0  0  0  0  0
   -1.1950    1.2820   -2.1420 H   0  0  0  0  0  0  0  0  0  0  0  0
   -1.8650    0.9250    0.3520 H   0  0  0  0  0  0  0  0  0  0  0  0
   -0.5720    1.1450    1.5410 H   0  0  0  0  0  0  0  0  0  0  0  0
   -1.1850   -1.1340    1.3650 H   0  0  0  0  0  0  0  0  0  0  0  0
    1.7070   -0.6600    0.4500 H   0  0  0  0  0  0  0  0  0  0  0  0
    1.5610    1.8810    1.0390 H   0  0  0  0  0  0  0  0  0  0  0  0
    3.0410    3.1180   -0.4860 H   0  0  0  0  0  0  0  0  0  0  0  0
   -5.4090   -2.6860    0.0450 N   0  0  0  0  0  0  0  0  0  0  0  0
   -4.2050   -3.1950   -0.5300 C   0  0  0  0  0  0  0  0  0  0  0  0
   -3.1570   -3.3260    0.1610 O   0  0  0  0  0  0  0  0  0  0  0  0
   -4.2090   -3.5710   -1.9530 C   0  0  0  0  0  0  0  0  0  0  0  0
   -2.8460   -3.5380   -2.5280 C   0  0  0  0  0  0  0  0  0  0  0  0
   -2.1630   -2.2100   -2.6050 C   0  0  2  0  0  0  0  0  0  0  0  0
   -1.9530   -1.5080   -1.3860 N   0  0  0  0  0  0  0  0  0  0  0  0
   -2.7680   -1.3610   -3.6700 C   0  0  0  0  0  0  0  0  0  0  0  0
   -3.0710   -0.1570   -3.4850 O   0  0  0  0  0  0  0  0  0  0  0  0
   -3.0250   -1.8760   -4.9330 O   0  0  0  0  0  0  0  0  0  0  0  0
   -6.3080   -2.7780   -0.4700 H   0  0  0  0  0  0  0  0  0  0  0  0
   -5.3410   -2.2320    0.9830 H   0  0  0  0  0  0  0  0  0  0  0  0
   -4.9000   -2.8360   -2.4650 H   0  0  0  0  0  0  0  0  0  0  0  0
   -4.6150   -4.6000   -2.1130 H   0  0  0  0  0  0  0  0  0  0  0  0
   -2.1410   -4.2300   -1.9740 H   0  0  0  0  0  0  0  0  0  0  0  0
   -2.8080   -3.9560   -3.5800 H   0  0  0  0  0  0  0  0  0  0  0  0
   -1.1120   -2.4650   -2.9810 H   0  0  0  0  0  0  0  0  0  0  0  0
   -2.7460   -0.9720   -0.9580 H   0  0  0  0  0  0  0  0  0  0  0  0
  1  9  1  0  0  0  0
  1 10  1  0  0  0  0
  2 12  1  0  0  0  0
  2  1  1  0  0  0  0
  3 14  1  1  0  0  0
  3  2  1  0  0  0  0
  4  3  1  0  0  0  0
  4 15  1  0  0  0  0
  4 17  1  0  0  0  0
  5 18  1  1  0  0  0
  5  3  1  0  0  0  0
  6 19  1  0  0  0  0
  6  5  1  0  0  0  0
  7  5  1  0  0  0  0
  7  8  2  0  0  0  0
 11  1  1  0  0  0  0
 13  2  1  0  0  0  0
 16  4  1  0  0  0  0
 20  6  1  0  0  0  0
 21 22  1  0  0  0  0
 22 32  1  0  0  0  0
 23 22  2  0  0  0  0
 23 24  1  0  0  0  0
 24 25  2  0  0  0  0
 25 31  1  0  0  0  0
 25 26  1  0  0  0  0
 26 27  1  0  0  0  0
 26 37  1  0  0  0  0
 27 28  1  0  0  0  0
 27 38  1  1  0  0  0
 28  7  1  0  0  0  0
 29 27  1  0  0  0  0
 30 29  2  0  0  0  0
 31 40  1  0  0  0  0
 32 41  1  0  0  0  0
 32 31  2  0  0  0  0
 33 21  1  0  0  0  0
 34 23  1  0  0  0  0
 35 24  1  0  0  0  0
 36 26  1  0  0  0  0
 39 28  1  0  0  0  0
 42 53  1  0  0  0  0
 43 42  1  0  0  0  0
 43 44  2  0  0  0  0
 45 43  1  0  0  0  0
 46 56  1  0  0  0  0
 46 45  1  0  0  0  0
 47 58  1  6  0  0  0
 47 46  1  0  0  0  0
 47 48  1  0  0  0  0
 48 59  1  0  0  0  0
 48 29  1  0  0  0  0
 49 50  1  0  0  0  0
 49 47  1  0  0  0  0
 51 49  2  0  0  0  0
 52 42  1  0  0  0  0
 54 45  1  0  0  0  0
 55 45  1  0  0  0  0
 57 46  1  0  0  0  0
M  END
$$$$
