IYR.pdb
 OpenBabel07022418433D

 65 65  0  0  1  0  0  0  0  0999 V2000
    3.8030   -0.1040    5.9170 C   0  0  0  0  0  0  0  0  0  0  0  0
    3.5370   -1.3150    5.0870 C   0  0  0  0  0  0  0  0  0  0  0  0
    2.6420   -1.0350    3.8800 C   0  0  2  0  0  0  0  0  0  0  0  0
    3.3010   -0.0180    2.9810 C   0  0  0  0  0  0  0  0  0  0  0  0
    1.2730   -0.5900    4.3720 C   0  0  2  0  0  0  0  0  0  0  0  0
    0.7460   -1.6900    5.2190 N   0  0  0  0  0  0  0  0  0  0  0  0
    0.2960   -0.3810    3.2870 C   0  0  0  0  0  0  0  0  0  0  0  0
   -0.7220   -1.1700    3.2040 O   0  0  0  0  0  0  0  0  0  0  0  0
    3.3530   -0.1790    6.9380 H   0  0  0  0  0  0  0  0  0  0  0  0
    4.8950   -0.0320    6.0960 H   0  0  0  0  0  0  0  0  0  0  0  0
    3.5150    0.8450    5.4340 H   0  0  0  0  0  0  0  0  0  0  0  0
    4.4860   -1.7240    4.6930 H   0  0  0  0  0  0  0  0  0  0  0  0
    3.0100   -2.0720    5.6990 H   0  0  0  0  0  0  0  0  0  0  0  0
    2.5350   -1.9750    3.3250 H   0  0  0  0  0  0  0  0  0  0  0  0
    3.2280    1.0220    3.3590 H   0  0  0  0  0  0  0  0  0  0  0  0
    2.9890   -0.1380    1.9340 H   0  0  0  0  0  0  0  0  0  0  0  0
    4.4190   -0.2270    2.9700 H   0  0  0  0  0  0  0  0  0  0  0  0
    1.4220    0.2590    5.0480 H   0  0  0  0  0  0  0  0  0  0  0  0
   -0.2930   -1.7290    5.1730 H   0  0  0  0  0  0  0  0  0  0  0  0
    1.1790   -2.5990    4.9700 H   0  0  0  0  0  0  0  0  0  0  0  0
   -5.1770    3.5370   -2.5820 O   0  0  0  0  0  0  0  0  0  0  0  0
   -4.1530    3.2050   -1.6820 C   0  0  0  0  0  0  0  0  0  0  0  0
   -4.4400    2.7160   -0.4250 C   0  0  0  0  0  0  0  0  0  0  0  0
   -3.4630    2.3800    0.4810 C   0  0  0  0  0  0  0  0  0  0  0  0
   -2.1050    2.5230    0.1600 C   0  0  0  0  0  0  0  0  0  0  0  0
   -1.0770    2.1840    1.1580 C   0  0  0  0  0  0  0  0  0  0  0  0
   -0.6500    0.7690    1.2400 C   0  0  2  0  0  0  0  0  0  0  0  0
    0.3820    0.6310    2.3100 N   0  0  0  0  0  0  0  0  0  0  0  0
   -0.1550    0.1200    0.0230 C   0  0  0  0  0  0  0  0  0  0  0  0
    1.0610   -0.3100   -0.0290 O   0  0  0  0  0  0  0  0  0  0  0  0
   -1.8340    3.0090   -1.0930 C   0  0  0  0  0  0  0  0  0  0  0  0
   -2.8280    3.3520   -2.0160 C   0  0  0  0  0  0  0  0  0  0  0  0
   -5.8930    2.8610   -2.8420 H   0  0  0  0  0  0  0  0  0  0  0  0
   -5.4890    2.5990   -0.1610 H   0  0  0  0  0  0  0  0  0  0  0  0
   -3.6810    1.9880    1.4880 H   0  0  0  0  0  0  0  0  0  0  0  0
   -1.4120    2.5810    2.1560 H   0  0  0  0  0  0  0  0  0  0  0  0
   -0.1890    2.8580    0.9250 H   0  0  0  0  0  0  0  0  0  0  0  0
   -1.5000    0.1450    1.6040 H   0  0  0  0  0  0  0  0  0  0  0  0
    1.1650    1.3020    2.3340 H   0  0  0  0  0  0  0  0  0  0  0  0
   -0.7770    3.1240   -1.3580 H   0  0  0  0  0  0  0  0  0  0  0  0
   -2.5550    3.7360   -3.0010 H   0  0  0  0  0  0  0  0  0  0  0  0
    0.5660   -6.3680   -3.5660 N   0  0  0  0  0  0  0  0  0  0  0  0
   -0.0930   -5.5830   -2.5890 C   0  0  0  0  0  0  0  0  0  0  0  0
   -1.2200   -5.9330   -2.1410 N   0  0  0  0  0  0  0  0  0  0  0  0
    0.5190   -4.4030   -2.1130 N   0  0  0  0  0  0  0  0  0  0  0  0
   -0.0750   -3.6260   -1.0700 C   0  0  0  0  0  0  0  0  0  0  0  0
   -1.3470   -2.9480   -1.4760 C   0  0  0  0  0  0  0  0  0  0  0  0
   -1.2350   -1.9850   -2.6040 C   0  0  0  0  0  0  0  0  0  0  0  0
   -0.3180   -0.8020   -2.3200 C   0  0  2  0  0  0  0  0  0  0  0  0
   -0.8820   -0.1180   -1.1670 N   0  0  0  0  0  0  0  0  0  0  0  0
   -0.1950    0.0640   -3.5140 C   0  0  0  0  0  0  0  0  0  0  0  0
    0.2890   -0.3800   -4.6060 O   0  0  0  0  0  0  0  0  0  0  0  0
   -0.5920    1.3920   -3.5260 O   0  0  0  0  0  0  0  0  0  0  0  0
    1.1610   -7.1710   -3.2730 H   0  0  0  0  0  0  0  0  0  0  0  0
    0.4390   -6.1160   -4.5790 H   0  0  0  0  0  0  0  0  0  0  0  0
   -1.6770   -6.8080   -2.4900 H   0  0  0  0  0  0  0  0  0  0  0  0
    1.4180   -4.1010   -2.5310 H   0  0  0  0  0  0  0  0  0  0  0  0
    0.6260   -2.9310   -0.6180 H   0  0  0  0  0  0  0  0  0  0  0  0
   -0.3720   -4.3420   -0.2390 H   0  0  0  0  0  0  0  0  0  0  0  0
   -1.6800   -2.3660   -0.5620 H   0  0  0  0  0  0  0  0  0  0  0  0
   -2.1910   -3.6400   -1.6690 H   0  0  0  0  0  0  0  0  0  0  0  0
   -2.2480   -1.5950   -2.8230 H   0  0  0  0  0  0  0  0  0  0  0  0
   -0.8590   -2.4490   -3.5400 H   0  0  0  0  0  0  0  0  0  0  0  0
    0.7020   -1.1290   -2.0290 H   0  0  0  0  0  0  0  0  0  0  0  0
   -1.8760    0.1900   -1.2380 H   0  0  0  0  0  0  0  0  0  0  0  0
  1 10  1  0  0  0  0
  1  9  1  0  0  0  0
  2 13  1  0  0  0  0
  2  1  1  0  0  0  0
  3 14  1  6  0  0  0
  3  5  1  0  0  0  0
  3  2  1  0  0  0  0
  4 15  1  0  0  0  0
  4  3  1  0  0  0  0
  5 18  1  1  0  0  0
  5  6  1  0  0  0  0
  7  5  1  0  0  0  0
  8  7  2  0  0  0  0
 11  1  1  0  0  0  0
 12  2  1  0  0  0  0
 16  4  1  0  0  0  0
 17  4  1  0  0  0  0
 19  6  1  0  0  0  0
 20  6  1  0  0  0  0
 21 22  1  0  0  0  0
 22 23  1  0  0  0  0
 23 34  1  0  0  0  0
 23 24  2  0  0  0  0
 24 35  1  0  0  0  0
 25 24  1  0  0  0  0
 25 26  1  0  0  0  0
 26 27  1  0  0  0  0
 26 36  1  0  0  0  0
 27 38  1  1  0  0  0
 27 28  1  0  0  0  0
 28 39  1  0  0  0  0
 28  7  1  0  0  0  0
 29 27  1  0  0  0  0
 30 29  2  0  0  0  0
 31 25  2  0  0  0  0
 32 22  2  0  0  0  0
 32 31  1  0  0  0  0
 33 21  1  0  0  0  0
 37 26  1  0  0  0  0
 40 31  1  0  0  0  0
 41 32  1  0  0  0  0
 42 54  1  0  0  0  0
 42 43  1  0  0  0  0
 43 44  2  0  0  0  0
 43 45  1  0  0  0  0
 45 46  1  0  0  0  0
 46 58  1  0  0  0  0
 46 59  1  0  0  0  0
 47 46  1  0  0  0  0
 47 60  1  0  0  0  0
 48 49  1  0  0  0  0
 48 47  1  0  0  0  0
 49 64  1  1  0  0  0
 49 50  1  0  0  0  0
 50 29  1  0  0  0  0
 51 49  1  0  0  0  0
 52 51  2  0  0  0  0
 53 51  1  0  0  0  0
 55 42  1  0  0  0  0
 56 44  1  0  0  0  0
 57 45  1  0  0  0  0
 61 47  1  0  0  0  0
 62 48  1  0  0  0  0
 63 48  1  0  0  0  0
 65 50  1  0  0  0  0
M  END
$$$$
