IYY.pdb
 OpenBabel07022418433D

 63 64  0  0  1  0  0  0  0  0999 V2000
    1.8130    4.3940    4.7020 C   0  0  0  0  0  0  0  0  0  0  0  0
    2.6130    3.1470    4.4730 C   0  0  0  0  0  0  0  0  0  0  0  0
    2.5630    2.6760    3.0440 C   0  0  2  0  0  0  0  0  0  0  0  0
    3.1050    3.7260    2.1340 C   0  0  0  0  0  0  0  0  0  0  0  0
    1.2060    2.1630    2.6480 C   0  0  2  0  0  0  0  0  0  0  0  0
    0.9010    1.0410    3.5350 N   0  0  0  0  0  0  0  0  0  0  0  0
    1.3250    1.6300    1.2600 C   0  0  0  0  0  0  0  0  0  0  0  0
    1.5870    2.4180    0.3050 O   0  0  0  0  0  0  0  0  0  0  0  0
    0.7450    4.1880    4.9070 H   0  0  0  0  0  0  0  0  0  0  0  0
    1.9410    5.1240    3.8740 H   0  0  0  0  0  0  0  0  0  0  0  0
    2.2170    4.8910    5.6230 H   0  0  0  0  0  0  0  0  0  0  0  0
    2.2540    2.3450    5.1530 H   0  0  0  0  0  0  0  0  0  0  0  0
    3.6740    3.3540    4.7250 H   0  0  0  0  0  0  0  0  0  0  0  0
    3.2620    1.7920    2.9840 H   0  0  0  0  0  0  0  0  0  0  0  0
    2.3820    4.5000    1.8380 H   0  0  0  0  0  0  0  0  0  0  0  0
    3.9170    4.2710    2.6980 H   0  0  0  0  0  0  0  0  0  0  0  0
    3.6210    3.2840    1.2450 H   0  0  0  0  0  0  0  0  0  0  0  0
    0.3990    2.8930    2.7630 H   0  0  0  0  0  0  0  0  0  0  0  0
    1.8080    0.5410    3.6830 H   0  0  0  0  0  0  0  0  0  0  0  0
    0.5810    1.3840    4.4650 H   0  0  0  0  0  0  0  0  0  0  0  0
    3.4110   -3.9370   -5.3470 O   0  0  0  0  0  0  0  0  0  0  0  0
    3.1350   -3.2850   -4.1410 C   0  0  0  0  0  0  0  0  0  0  0  0
    3.8290   -2.1590   -3.7680 C   0  0  0  0  0  0  0  0  0  0  0  0
    3.5520   -1.5200   -2.5780 C   0  0  0  0  0  0  0  0  0  0  0  0
    2.5820   -1.9670   -1.7100 C   0  0  0  0  0  0  0  0  0  0  0  0
    2.2790   -1.3150   -0.4490 C   0  0  0  0  0  0  0  0  0  0  0  0
    1.2820   -0.2220   -0.4490 C   0  0  2  0  0  0  0  0  0  0  0  0
    1.1560    0.2620    0.9360 N   0  0  0  0  0  0  0  0  0  0  0  0
   -0.0420   -0.7440   -0.8630 C   0  0  0  0  0  0  0  0  0  0  0  0
   -0.2320   -1.2090   -2.0300 O   0  0  0  0  0  0  0  0  0  0  0  0
    1.8830   -3.0970   -2.0820 C   0  0  0  0  0  0  0  0  0  0  0  0
    2.1560   -3.7520   -3.2880 C   0  0  0  0  0  0  0  0  0  0  0  0
    4.2430   -3.7100   -5.8410 H   0  0  0  0  0  0  0  0  0  0  0  0
    4.5960   -1.7840   -4.4250 H   0  0  0  0  0  0  0  0  0  0  0  0
    4.1170   -0.6530   -2.3350 H   0  0  0  0  0  0  0  0  0  0  0  0
    1.9860   -2.1050    0.2870 H   0  0  0  0  0  0  0  0  0  0  0  0
    3.2540   -0.9160   -0.0380 H   0  0  0  0  0  0  0  0  0  0  0  0
    1.5110    0.6270   -1.1040 H   0  0  0  0  0  0  0  0  0  0  0  0
    0.9390   -0.3970    1.7160 H   0  0  0  0  0  0  0  0  0  0  0  0
    1.1090   -3.5130   -1.4530 H   0  0  0  0  0  0  0  0  0  0  0  0
    1.6200   -4.6390   -3.5970 H   0  0  0  0  0  0  0  0  0  0  0  0
   -7.6250   -5.0550   -0.5010 O   0  0  0  0  0  0  0  0  0  0  0  0
   -6.4260   -4.3810   -0.2300 C   0  0  0  0  0  0  0  0  0  0  0  0
   -5.2830   -4.7800   -0.8590 C   0  0  0  0  0  0  0  0  0  0  0  0
   -4.1080   -4.1110   -0.5860 C   0  0  0  0  0  0  0  0  0  0  0  0
   -4.0480   -3.0560    0.2970 C   0  0  0  0  0  0  0  0  0  0  0  0
   -2.7690   -2.3950    0.5460 C   0  0  0  0  0  0  0  0  0  0  0  0
   -2.4490   -1.2630   -0.3930 C   0  0  2  0  0  0  0  0  0  0  0  0
   -1.1420   -0.7430    0.0300 N   0  0  0  0  0  0  0  0  0  0  0  0
   -3.4460   -0.1890   -0.2630 C   0  0  0  0  0  0  0  0  0  0  0  0
   -3.1150    0.9290    0.1730 O   0  0  0  0  0  0  0  0  0  0  0  0
   -5.2020   -2.6560    0.9290 C   0  0  0  0  0  0  0  0  0  0  0  0
   -6.3920   -3.3350    0.6520 C   0  0  0  0  0  0  0  0  0  0  0  0
   -4.7870   -0.3770   -0.6190 O   0  0  0  0  0  0  0  0  0  0  0  0
   -7.6800   -6.0380   -0.2270 H   0  0  0  0  0  0  0  0  0  0  0  0
   -5.2790   -5.6040   -1.5610 H   0  0  0  0  0  0  0  0  0  0  0  0
   -3.2170   -4.4590   -1.1080 H   0  0  0  0  0  0  0  0  0  0  0  0
   -2.7800   -1.9870    1.5780 H   0  0  0  0  0  0  0  0  0  0  0  0
   -1.8970   -3.0990    0.5020 H   0  0  0  0  0  0  0  0  0  0  0  0
   -2.3660   -1.6110   -1.4460 H   0  0  0  0  0  0  0  0  0  0  0  0
   -1.0440   -0.3750    0.9940 H   0  0  0  0  0  0  0  0  0  0  0  0
   -5.2360   -1.8400    1.6380 H   0  0  0  0  0  0  0  0  0  0  0  0
   -7.2980   -3.0260    1.1440 H   0  0  0  0  0  0  0  0  0  0  0  0
  1  9  1  0  0  0  0
  1 11  1  0  0  0  0
  2  1  1  0  0  0  0
  2 13  1  0  0  0  0
  2 12  1  0  0  0  0
  3 14  1  6  0  0  0
  3  2  1  0  0  0  0
  4 16  1  0  0  0  0
  4  3  1  0  0  0  0
  5 18  1  1  0  0  0
  5  3  1  0  0  0  0
  5  6  1  0  0  0  0
  6 19  1  0  0  0  0
  6 20  1  0  0  0  0
  7  5  1  0  0  0  0
  8  7  2  0  0  0  0
 10  1  1  0  0  0  0
 15  4  1  0  0  0  0
 17  4  1  0  0  0  0
 21 22  1  0  0  0  0
 22 23  2  0  0  0  0
 22 32  1  0  0  0  0
 23 24  1  0  0  0  0
 24 35  1  0  0  0  0
 24 25  2  0  0  0  0
 25 26  1  0  0  0  0
 26 37  1  0  0  0  0
 26 36  1  0  0  0  0
 27 38  1  6  0  0  0
 27 26  1  0  0  0  0
 27 28  1  0  0  0  0
 28  7  1  0  0  0  0
 28 39  1  0  0  0  0
 29 27  1  0  0  0  0
 29 49  1  0  0  0  0
 30 29  2  0  0  0  0
 31 25  1  0  0  0  0
 31 40  1  0  0  0  0
 32 31  2  0  0  0  0
 33 21  1  0  0  0  0
 34 23  1  0  0  0  0
 41 32  1  0  0  0  0
 42 43  1  0  0  0  0
 42 55  1  0  0  0  0
 43 53  1  0  0  0  0
 44 45  1  0  0  0  0
 44 43  2  0  0  0  0
 45 46  2  0  0  0  0
 46 47  1  0  0  0  0
 46 52  1  0  0  0  0
 47 58  1  0  0  0  0
 48 60  1  6  0  0  0
 48 50  1  0  0  0  0
 48 49  1  0  0  0  0
 48 47  1  0  0  0  0
 49 61  1  0  0  0  0
 50 51  1  0  0  0  0
 52 62  1  0  0  0  0
 53 52  2  0  0  0  0
 53 63  1  0  0  0  0
 54 50  2  0  0  0  0
 56 44  1  0  0  0  0
 57 45  1  0  0  0  0
 59 47  1  0  0  0  0
M  END
$$$$
