KAD.pdb
 OpenBabel07022418483D

 46 45  0  0  1  0  0  0  0  0999 V2000
    2.9900   -2.7090    2.4330 N   0  0  0  0  0  0  0  0  0  0  0  0
    2.3910   -1.9560    1.3390 C   0  0  1  0  0  0  0  0  0  0  0  0
    1.4060   -2.8690    0.6560 C   0  0  0  0  0  0  0  0  0  0  0  0
    2.0280   -4.1170    0.0950 C   0  0  0  0  0  0  0  0  0  0  0  0
    3.0830   -3.8060   -0.9330 C   0  0  0  0  0  0  0  0  0  0  0  0
    3.6980   -5.0720   -1.4930 C   0  0  0  0  0  0  0  0  0  0  0  0
    2.7060   -5.9090   -2.1310 N   0  0  0  0  0  0  0  0  0  0  0  0
    1.6750   -0.7550    1.8520 C   0  0  0  0  0  0  0  0  0  0  0  0
    1.6670   -0.5370    3.0900 O   0  0  0  0  0  0  0  0  0  0  0  0
    3.7370   -2.1710    2.9050 H   0  0  0  0  0  0  0  0  0  0  0  0
    2.2740   -2.9570    3.1500 H   0  0  0  0  0  0  0  0  0  0  0  0
    3.1770   -1.6960    0.6180 H   0  0  0  0  0  0  0  0  0  0  0  0
    0.5270   -3.0920    1.2910 H   0  0  0  0  0  0  0  0  0  0  0  0
    0.9760   -2.3170   -0.2320 H   0  0  0  0  0  0  0  0  0  0  0  0
    1.1980   -4.7110   -0.3570 H   0  0  0  0  0  0  0  0  0  0  0  0
    2.4430   -4.6860    0.9510 H   0  0  0  0  0  0  0  0  0  0  0  0
    3.9060   -3.2690   -0.4300 H   0  0  0  0  0  0  0  0  0  0  0  0
    2.7110   -3.2060   -1.7660 H   0  0  0  0  0  0  0  0  0  0  0  0
    4.4350   -4.7590   -2.2700 H   0  0  0  0  0  0  0  0  0  0  0  0
    4.2680   -5.6300   -0.7220 H   0  0  0  0  0  0  0  0  0  0  0  0
    2.5980   -5.5580   -3.1090 H   0  0  0  0  0  0  0  0  0  0  0  0
    3.0160   -6.9010   -2.1780 H   0  0  0  0  0  0  0  0  0  0  0  0
    1.0210    2.5340    0.8870 C   0  0  0  0  0  0  0  0  0  0  0  0
    0.2980    1.3230    1.4460 C   0  0  2  0  0  0  0  0  0  0  0  0
    1.0010    0.1560    1.0160 N   0  0  0  0  0  0  0  0  0  0  0  0
   -1.1130    1.3610    1.0690 C   0  0  0  0  0  0  0  0  0  0  0  0
   -1.6920    0.4580    0.4190 O   0  0  0  0  0  0  0  0  0  0  0  0
    0.6460    3.4810    1.2690 H   0  0  0  0  0  0  0  0  0  0  0  0
    2.1020    2.4520    1.0860 H   0  0  0  0  0  0  0  0  0  0  0  0
    0.9150    2.5630   -0.2250 H   0  0  0  0  0  0  0  0  0  0  0  0
    0.3550    1.4190    2.5580 H   0  0  0  0  0  0  0  0  0  0  0  0
    1.0190   -0.0430   -0.0180 H   0  0  0  0  0  0  0  0  0  0  0  0
   -1.8980    2.4780    1.4490 N   0  0  0  0  0  0  0  0  0  0  0  0
   -3.2770    2.5680    1.1100 C   0  0  1  0  0  0  0  0  0  0  0  0
   -4.1980    2.8150    2.2490 C   0  0  0  0  0  0  0  0  0  0  0  0
   -4.0990    1.7340    3.2400 C   0  0  0  0  0  0  0  0  0  0  0  0
   -3.3030    0.7880    3.0310 O   0  0  0  0  0  0  0  0  0  0  0  0
   -3.5000    3.6550    0.0850 C   0  0  0  0  0  0  0  0  0  0  0  0
   -2.4960    4.2940   -0.3040 O   0  0  0  0  0  0  0  0  0  0  0  0
   -4.8440    1.6960    4.4120 O   0  0  0  0  0  0  0  0  0  0  0  0
   -4.7620    3.9250   -0.3950 O   0  0  0  0  0  0  0  0  0  0  0  0
   -1.4820    3.2870    2.0000 H   0  0  0  0  0  0  0  0  0  0  0  0
   -3.5750    1.6250    0.5810 H   0  0  0  0  0  0  0  0  0  0  0  0
   -5.2510    2.7700    1.8420 H   0  0  0  0  0  0  0  0  0  0  0  0
   -4.1130    3.8250    2.6890 H   0  0  0  0  0  0  0  0  0  0  0  0
   -5.1520    0.7760    4.7370 H   0  0  0  0  0  0  0  0  0  0  0  0
  1 10  1  0  0  0  0
  1 11  1  0  0  0  0
  2 12  1  6  0  0  0
  2  8  1  0  0  0  0
  2  1  1  0  0  0  0
  3 13  1  0  0  0  0
  3  2  1  0  0  0  0
  4  3  1  0  0  0  0
  4 16  1  0  0  0  0
  5 17  1  0  0  0  0
  5  4  1  0  0  0  0
  6  5  1  0  0  0  0
  6 20  1  0  0  0  0
  7  6  1  0  0  0  0
  8  9  2  0  0  0  0
 14  3  1  0  0  0  0
 15  4  1  0  0  0  0
 18  5  1  0  0  0  0
 19  6  1  0  0  0  0
 21  7  1  0  0  0  0
 22  7  1  0  0  0  0
 23 29  1  0  0  0  0
 23 28  1  0  0  0  0
 23 24  1  0  0  0  0
 24 31  1  1  0  0  0
 25 24  1  0  0  0  0
 25  8  1  0  0  0  0
 26 24  1  0  0  0  0
 26 33  1  0  0  0  0
 27 26  2  0  0  0  0
 30 23  1  0  0  0  0
 32 25  1  0  0  0  0
 33 42  1  0  0  0  0
 34 43  1  6  0  0  0
 34 33  1  0  0  0  0
 34 35  1  0  0  0  0
 35 45  1  0  0  0  0
 35 36  1  0  0  0  0
 36 40  1  0  0  0  0
 37 36  2  0  0  0  0
 38 34  1  0  0  0  0
 39 38  1  0  0  0  0
 40 46  1  0  0  0  0
 41 38  2  0  0  0  0
 44 35  1  0  0  0  0
M  END
$$$$
