KAG.pdb
 OpenBabel07022418483D

 40 39  0  0  1  0  0  0  0  0999 V2000
   -2.9210   -1.8320   -0.6510 N   0  0  0  0  0  0  0  0  0  0  0  0
   -2.4140   -0.9040    0.3450 C   0  0  1  0  0  0  0  0  0  0  0  0
   -1.7350   -1.6720    1.4580 C   0  0  0  0  0  0  0  0  0  0  0  0
   -0.5750   -2.4960    0.9490 C   0  0  0  0  0  0  0  0  0  0  0  0
    0.0360   -3.2190    2.1090 C   0  0  0  0  0  0  0  0  0  0  0  0
    1.2090   -4.0770    1.7180 C   0  0  0  0  0  0  0  0  0  0  0  0
    2.2830   -3.3360    1.1210 N   0  0  0  0  0  0  0  0  0  0  0  0
   -1.5160    0.0960   -0.2760 C   0  0  0  0  0  0  0  0  0  0  0  0
   -1.3070    0.0370   -1.5040 O   0  0  0  0  0  0  0  0  0  0  0  0
   -2.9560   -1.4330   -1.5970 H   0  0  0  0  0  0  0  0  0  0  0  0
   -3.8010   -2.2920   -0.3430 H   0  0  0  0  0  0  0  0  0  0  0  0
   -3.2970   -0.3660    0.7440 H   0  0  0  0  0  0  0  0  0  0  0  0
   -2.5130   -2.3230    1.9090 H   0  0  0  0  0  0  0  0  0  0  0  0
   -1.4240   -0.9450    2.2360 H   0  0  0  0  0  0  0  0  0  0  0  0
    0.1190   -1.9320    0.3300 H   0  0  0  0  0  0  0  0  0  0  0  0
   -1.0270   -3.2830    0.2770 H   0  0  0  0  0  0  0  0  0  0  0  0
    0.3730   -2.5280    2.9060 H   0  0  0  0  0  0  0  0  0  0  0  0
   -0.7400   -3.9100    2.5230 H   0  0  0  0  0  0  0  0  0  0  0  0
    0.8670   -4.9280    1.0700 H   0  0  0  0  0  0  0  0  0  0  0  0
    1.6010   -4.5480    2.6460 H   0  0  0  0  0  0  0  0  0  0  0  0
    2.9640   -4.0220    0.7280 H   0  0  0  0  0  0  0  0  0  0  0  0
    2.0120   -2.7020    0.3640 H   0  0  0  0  0  0  0  0  0  0  0  0
   -0.5550    3.5060    0.1210 C   0  0  0  0  0  0  0  0  0  0  0  0
   -0.0170    2.1070   -0.0410 C   0  0  2  0  0  0  0  0  0  0  0  0
   -0.9030    1.0980    0.4900 N   0  0  0  0  0  0  0  0  0  0  0  0
    1.3590    1.9780    0.5310 C   0  0  0  0  0  0  0  0  0  0  0  0
    2.2640    2.7770    0.1790 O   0  0  0  0  0  0  0  0  0  0  0  0
   -0.1250    4.1760   -0.6530 H   0  0  0  0  0  0  0  0  0  0  0  0
   -1.6460    3.5050   -0.0170 H   0  0  0  0  0  0  0  0  0  0  0  0
   -0.3320    3.9500    1.1090 H   0  0  0  0  0  0  0  0  0  0  0  0
    0.0630    1.9180   -1.1320 H   0  0  0  0  0  0  0  0  0  0  0  0
   -1.0880    1.1360    1.5230 H   0  0  0  0  0  0  0  0  0  0  0  0
    1.7050    0.9750    1.4750 N   0  0  0  0  0  0  0  0  0  0  0  0
    3.0390    0.8430    2.0350 C   0  0  0  0  0  0  0  0  0  0  0  0
    4.0350    0.6000    0.9640 C   0  0  0  0  0  0  0  0  0  0  0  0
    5.2370    0.4640    1.2950 O   0  0  0  0  0  0  0  0  0  0  0  0
    3.7190    0.5130   -0.3810 O   0  0  0  0  0  0  0  0  0  0  0  0
    0.9180    0.3160    1.7510 H   0  0  0  0  0  0  0  0  0  0  0  0
    3.3380    1.7590    2.5880 H   0  0  0  0  0  0  0  0  0  0  0  0
    3.0370   -0.0540    2.6890 H   0  0  0  0  0  0  0  0  0  0  0  0
  1 11  1  0  0  0  0
  1  2  1  0  0  0  0
  2 12  1  1  0  0  0
  2  3  1  0  0  0  0
  3 13  1  0  0  0  0
  3 14  1  0  0  0  0
  4  3  1  0  0  0  0
  4  5  1  0  0  0  0
  5 18  1  0  0  0  0
  5 17  1  0  0  0  0
  6  5  1  0  0  0  0
  6 20  1  0  0  0  0
  7  6  1  0  0  0  0
  8  2  1  0  0  0  0
  8 25  1  0  0  0  0
  9  8  2  0  0  0  0
 10  1  1  0  0  0  0
 15  4  1  0  0  0  0
 16  4  1  0  0  0  0
 19  6  1  0  0  0  0
 21  7  1  0  0  0  0
 22  7  1  0  0  0  0
 23 30  1  0  0  0  0
 24 31  1  6  0  0  0
 24 23  1  0  0  0  0
 24 25  1  0  0  0  0
 24 26  1  0  0  0  0
 25 32  1  0  0  0  0
 26 33  1  0  0  0  0
 27 26  2  0  0  0  0
 28 23  1  0  0  0  0
 29 23  1  0  0  0  0
 33 38  1  0  0  0  0
 33 34  1  0  0  0  0
 34 39  1  0  0  0  0
 34 40  1  0  0  0  0
 35 36  1  0  0  0  0
 35 34  1  0  0  0  0
 37 35  2  0  0  0  0
M  END
$$$$
