KAH.pdb
 OpenBabel07022418483D

 50 50  0  0  1  0  0  0  0  0999 V2000
    0.7440   -2.5350    3.1770 N   0  0  0  0  0  0  0  0  0  0  0  0
    1.9130   -1.9160    2.3980 C   0  0  1  0  0  0  0  0  0  0  0  0
    1.8880   -2.4520    1.0500 C   0  0  0  0  0  0  0  0  0  0  0  0
    2.8200   -2.2960   -0.0180 C   0  0  0  0  0  0  0  0  0  0  0  0
    3.3920   -1.1150   -0.6360 C   0  0  0  0  0  0  0  0  0  0  0  0
    4.3960   -0.2640    0.0510 C   0  0  0  0  0  0  0  0  0  0  0  0
    4.0150    0.3290    1.2390 N   0  0  0  0  0  0  0  0  0  0  0  0
    1.4530   -0.4590    2.5060 C   0  0  0  0  0  0  0  0  0  0  0  0
    1.5640    0.1350    3.6100 O   0  0  0  0  0  0  0  0  0  0  0  0
    0.7040   -2.0320    4.0660 H   0  0  0  0  0  0  0  0  0  0  0  0
   -0.0990   -2.3760    2.6160 H   0  0  0  0  0  0  0  0  0  0  0  0
    2.7370   -2.0380    3.0570 H   0  0  0  0  0  0  0  0  0  0  0  0
    0.8150   -2.2210    0.6250 H   0  0  0  0  0  0  0  0  0  0  0  0
    1.7620   -3.6190    1.2150 H   0  0  0  0  0  0  0  0  0  0  0  0
    2.3290   -2.8730   -0.9320 H   0  0  0  0  0  0  0  0  0  0  0  0
    3.7010   -3.1020    0.1170 H   0  0  0  0  0  0  0  0  0  0  0  0
    3.9170   -1.3850   -1.6420 H   0  0  0  0  0  0  0  0  0  0  0  0
    2.5580   -0.4610   -1.0510 H   0  0  0  0  0  0  0  0  0  0  0  0
    4.6610    0.5570   -0.6950 H   0  0  0  0  0  0  0  0  0  0  0  0
    5.3670   -0.8530    0.1500 H   0  0  0  0  0  0  0  0  0  0  0  0
    3.9540    1.3610    1.2910 H   0  0  0  0  0  0  0  0  0  0  0  0
    4.3220   -0.1170    2.1290 H   0  0  0  0  0  0  0  0  0  0  0  0
    1.2700    2.4980    0.5770 C   0  0  0  0  0  0  0  0  0  0  0  0
    0.4680    1.6120    1.4970 C   0  0  2  0  0  0  0  0  0  0  0  0
    0.9120    0.2240    1.4110 N   0  0  0  0  0  0  0  0  0  0  0  0
   -0.9960    1.7110    1.2390 C   0  0  0  0  0  0  0  0  0  0  0  0
   -1.5860    2.8190    1.2640 O   0  0  0  0  0  0  0  0  0  0  0  0
    1.7000    1.8900   -0.2540 H   0  0  0  0  0  0  0  0  0  0  0  0
    0.6350    3.3050    0.1740 H   0  0  0  0  0  0  0  0  0  0  0  0
    2.1250    2.9310    1.1260 H   0  0  0  0  0  0  0  0  0  0  0  0
    0.6510    1.9430    2.5370 H   0  0  0  0  0  0  0  0  0  0  0  0
    0.8010   -0.2300    0.4980 H   0  0  0  0  0  0  0  0  0  0  0  0
   -1.7780    0.5570    0.9540 N   0  0  0  0  0  0  0  0  0  0  0  0
   -3.1920    0.6550    0.7050 C   0  0  1  0  0  0  0  0  0  0  0  0
   -3.5330    0.2260   -0.7190 C   0  0  0  0  0  0  0  0  0  0  0  0
   -3.1300   -1.1820   -0.9740 C   0  0  0  0  0  0  0  0  0  0  0  0
   -3.8520   -2.3340   -0.7930 C   0  0  0  0  0  0  0  0  0  0  0  0
   -3.0790   -3.3570   -1.1560 N   0  0  0  0  0  0  0  0  0  0  0  0
   -1.8990   -2.8610   -1.5560 C   0  0  0  0  0  0  0  0  0  0  0  0
   -1.9350   -1.5270   -1.4430 N   0  0  0  0  0  0  0  0  0  0  0  0
   -3.9600   -0.2090    1.6210 C   0  0  0  0  0  0  0  0  0  0  0  0
   -3.3490   -0.8950    2.4660 O   0  0  0  0  0  0  0  0  0  0  0  0
   -5.3340   -0.2730    1.5610 O   0  0  0  0  0  0  0  0  0  0  0  0
   -1.3230   -0.3840    0.9240 H   0  0  0  0  0  0  0  0  0  0  0  0
   -3.5050    1.7210    0.7760 H   0  0  0  0  0  0  0  0  0  0  0  0
   -4.6420    0.2610   -0.7970 H   0  0  0  0  0  0  0  0  0  0  0  0
   -3.1280    0.9170   -1.4690 H   0  0  0  0  0  0  0  0  0  0  0  0
   -4.8590   -2.4140   -0.4260 H   0  0  0  0  0  0  0  0  0  0  0  0
   -3.2860   -4.3840   -1.1560 H   0  0  0  0  0  0  0  0  0  0  0  0
   -1.0440   -3.4540   -1.9180 H   0  0  0  0  0  0  0  0  0  0  0  0
  1 10  1  0  0  0  0
  2  8  1  0  0  0  0
  2 12  1  1  0  0  0
  2  1  1  0  0  0  0
  3 14  1  0  0  0  0
  3  2  1  0  0  0  0
  4 16  1  0  0  0  0
  4  3  1  0  0  0  0
  5  4  1  0  0  0  0
  5  6  1  0  0  0  0
  6 20  1  0  0  0  0
  6  7  1  0  0  0  0
  7 21  1  0  0  0  0
  7 22  1  0  0  0  0
  8  9  2  0  0  0  0
 11  1  1  0  0  0  0
 13  3  1  0  0  0  0
 15  4  1  0  0  0  0
 17  5  1  0  0  0  0
 18  5  1  0  0  0  0
 19  6  1  0  0  0  0
 23 30  1  0  0  0  0
 23 24  1  0  0  0  0
 24 31  1  1  0  0  0
 25 24  1  0  0  0  0
 25  8  1  0  0  0  0
 26 27  2  0  0  0  0
 26 24  1  0  0  0  0
 28 23  1  0  0  0  0
 29 23  1  0  0  0  0
 32 25  1  0  0  0  0
 33 26  1  0  0  0  0
 34 45  1  1  0  0  0
 34 33  1  0  0  0  0
 34 41  1  0  0  0  0
 35 34  1  0  0  0  0
 36 37  2  0  0  0  0
 36 35  1  0  0  0  0
 37 48  1  0  0  0  0
 38 37  1  0  0  0  0
 39 40  2  0  0  0  0
 39 38  1  0  0  0  0
 40 36  1  0  0  0  0
 41 42  1  0  0  0  0
 43 41  2  0  0  0  0
 44 33  1  0  0  0  0
 46 35  1  0  0  0  0
 47 35  1  0  0  0  0
 49 38  1  0  0  0  0
 50 39  1  0  0  0  0
M  END
$$$$
