KAK.pdb
 OpenBabel07022418483D

 54 53  0  0  1  0  0  0  0  0999 V2000
    2.1930   -5.2770   -0.2580 N   0  0  0  0  0  0  0  0  0  0  0  0
    1.5950   -4.1530    0.4910 C   0  0  1  0  0  0  0  0  0  0  0  0
    2.2050   -4.0330    1.8220 C   0  0  0  0  0  0  0  0  0  0  0  0
    3.6340   -3.8060    2.0090 C   0  0  0  0  0  0  0  0  0  0  0  0
    4.2730   -2.5850    1.4850 C   0  0  0  0  0  0  0  0  0  0  0  0
    3.7390   -1.2910    2.0590 C   0  0  0  0  0  0  0  0  0  0  0  0
    3.9600   -1.3310    3.4900 N   0  0  0  0  0  0  0  0  0  0  0  0
    1.5030   -3.0190   -0.3920 C   0  0  0  0  0  0  0  0  0  0  0  0
    2.3280   -2.7990   -1.3050 O   0  0  0  0  0  0  0  0  0  0  0  0
    1.5170   -5.5950   -1.0090 H   0  0  0  0  0  0  0  0  0  0  0  0
    2.4260   -6.0570    0.3870 H   0  0  0  0  0  0  0  0  0  0  0  0
    0.5250   -4.5140    0.6870 H   0  0  0  0  0  0  0  0  0  0  0  0
    1.9620   -5.0120    2.3580 H   0  0  0  0  0  0  0  0  0  0  0  0
    1.6430   -3.2870    2.4660 H   0  0  0  0  0  0  0  0  0  0  0  0
    3.8000   -3.7770    3.1420 H   0  0  0  0  0  0  0  0  0  0  0  0
    4.2780   -4.6810    1.7240 H   0  0  0  0  0  0  0  0  0  0  0  0
    4.3560   -2.4710    0.4070 H   0  0  0  0  0  0  0  0  0  0  0  0
    5.3570   -2.6200    1.8320 H   0  0  0  0  0  0  0  0  0  0  0  0
    2.7420   -1.0170    1.7600 H   0  0  0  0  0  0  0  0  0  0  0  0
    4.4320   -0.4880    1.6750 H   0  0  0  0  0  0  0  0  0  0  0  0
    4.8900   -1.6990    3.7040 H   0  0  0  0  0  0  0  0  0  0  0  0
    3.2240   -1.8150    4.0210 H   0  0  0  0  0  0  0  0  0  0  0  0
   -0.6160   -1.4530   -2.2630 C   0  0  0  0  0  0  0  0  0  0  0  0
    0.3670   -0.9630   -1.1510 C   0  0  2  0  0  0  0  0  0  0  0  0
    0.4450   -2.0970   -0.2590 N   0  0  0  0  0  0  0  0  0  0  0  0
   -0.2750    0.2250   -0.5970 C   0  0  0  0  0  0  0  0  0  0  0  0
   -0.2680    1.2590   -1.3450 O   0  0  0  0  0  0  0  0  0  0  0  0
   -1.2060   -2.3150   -1.8990 H   0  0  0  0  0  0  0  0  0  0  0  0
   -0.0860   -1.7630   -3.1580 H   0  0  0  0  0  0  0  0  0  0  0  0
   -1.3030   -0.6260   -2.5430 H   0  0  0  0  0  0  0  0  0  0  0  0
    1.3030   -0.7990   -1.7020 H   0  0  0  0  0  0  0  0  0  0  0  0
   -0.2910   -2.2170    0.4600 H   0  0  0  0  0  0  0  0  0  0  0  0
   -0.9050    0.3750    0.6540 N   0  0  0  0  0  0  0  0  0  0  0  0
   -1.5170    1.6330    1.0330 C   0  0  1  0  0  0  0  0  0  0  0  0
   -2.9810    1.4550    1.3670 C   0  0  0  0  0  0  0  0  0  0  0  0
   -3.7980    0.9070    0.2560 C   0  0  0  0  0  0  0  0  0  0  0  0
   -3.8460    1.6900   -1.0010 C   0  0  0  0  0  0  0  0  0  0  0  0
   -4.3860    3.0850   -0.8670 C   0  0  0  0  0  0  0  0  0  0  0  0
   -4.3720    3.7600   -2.1640 N   0  0  0  0  0  0  0  0  0  0  0  0
   -0.8720    2.2310    2.2540 C   0  0  0  0  0  0  0  0  0  0  0  0
    0.0800    1.6670    2.8470 O   0  0  0  0  0  0  0  0  0  0  0  0
   -1.3080    3.4410    2.7770 O   0  0  0  0  0  0  0  0  0  0  0  0
   -0.8990   -0.4640    1.2930 H   0  0  0  0  0  0  0  0  0  0  0  0
   -1.3560    2.3430    0.2160 H   0  0  0  0  0  0  0  0  0  0  0  0
   -3.0350    0.7560    2.2260 H   0  0  0  0  0  0  0  0  0  0  0  0
   -3.4350    2.4020    1.7270 H   0  0  0  0  0  0  0  0  0  0  0  0
   -3.5620   -0.1590    0.0140 H   0  0  0  0  0  0  0  0  0  0  0  0
   -4.8600    0.8620    0.6420 H   0  0  0  0  0  0  0  0  0  0  0  0
   -4.5880    1.1420   -1.6650 H   0  0  0  0  0  0  0  0  0  0  0  0
   -2.9360    1.7320   -1.6000 H   0  0  0  0  0  0  0  0  0  0  0  0
   -3.7900    3.7020   -0.1830 H   0  0  0  0  0  0  0  0  0  0  0  0
   -5.4440    3.1160   -0.5430 H   0  0  0  0  0  0  0  0  0  0  0  0
   -4.8590    4.6830   -2.1260 H   0  0  0  0  0  0  0  0  0  0  0  0
   -4.7280    3.1360   -2.9300 H   0  0  0  0  0  0  0  0  0  0  0  0
  1 11  1  0  0  0  0
  1  2  1  0  0  0  0
  2 12  1  1  0  0  0
  2  3  1  0  0  0  0
  3  4  1  0  0  0  0
  3 13  1  0  0  0  0
  3 14  1  0  0  0  0
  4 15  1  0  0  0  0
  5 18  1  0  0  0  0
  5  4  1  0  0  0  0
  5  6  1  0  0  0  0
  6  7  1  0  0  0  0
  7 21  1  0  0  0  0
  7 22  1  0  0  0  0
  8 25  1  0  0  0  0
  8  2  1  0  0  0  0
  9  8  2  0  0  0  0
 10  1  1  0  0  0  0
 16  4  1  0  0  0  0
 17  5  1  0  0  0  0
 19  6  1  0  0  0  0
 20  6  1  0  0  0  0
 23 28  1  0  0  0  0
 23 24  1  0  0  0  0
 24 31  1  6  0  0  0
 24 26  1  0  0  0  0
 24 25  1  0  0  0  0
 25 32  1  0  0  0  0
 26 33  1  0  0  0  0
 27 26  2  0  0  0  0
 29 23  1  0  0  0  0
 30 23  1  0  0  0  0
 33 34  1  0  0  0  0
 33 43  1  0  0  0  0
 34 44  1  6  0  0  0
 34 35  1  0  0  0  0
 34 40  1  0  0  0  0
 35 46  1  0  0  0  0
 35 45  1  0  0  0  0
 36 48  1  0  0  0  0
 36 35  1  0  0  0  0
 37 38  1  0  0  0  0
 37 36  1  0  0  0  0
 38 52  1  0  0  0  0
 38 51  1  0  0  0  0
 39 53  1  0  0  0  0
 39 38  1  0  0  0  0
 40 42  2  0  0  0  0
 40 41  1  0  0  0  0
 47 36  1  0  0  0  0
 49 37  1  0  0  0  0
 50 37  1  0  0  0  0
 54 39  1  0  0  0  0
M  END
$$$$
