KAN.pdb
 OpenBabel07022418483D

 47 46  0  0  1  0  0  0  0  0999 V2000
   -0.5480   -3.0050    1.0290 N   0  0  0  0  0  0  0  0  0  0  0  0
    0.3390   -2.5570    2.0570 C   0  0  1  0  0  0  0  0  0  0  0  0
    1.3840   -3.5830    2.2880 C   0  0  0  0  0  0  0  0  0  0  0  0
    2.2270   -3.9250    1.0900 C   0  0  0  0  0  0  0  0  0  0  0  0
    3.0470   -2.8360    0.5190 C   0  0  0  0  0  0  0  0  0  0  0  0
    4.0970   -2.3090    1.4860 C   0  0  0  0  0  0  0  0  0  0  0  0
    4.8630   -1.2370    0.8870 N   0  0  0  0  0  0  0  0  0  0  0  0
    0.7100   -1.1690    1.9390 C   0  0  0  0  0  0  0  0  0  0  0  0
    1.3720   -0.6220    2.8780 O   0  0  0  0  0  0  0  0  0  0  0  0
   -0.1610   -3.2460    0.1410 H   0  0  0  0  0  0  0  0  0  0  0  0
   -1.5060   -3.1770    1.2670 H   0  0  0  0  0  0  0  0  0  0  0  0
   -0.3220   -2.6020    2.9920 H   0  0  0  0  0  0  0  0  0  0  0  0
    0.9330   -4.5680    2.6170 H   0  0  0  0  0  0  0  0  0  0  0  0
    2.0930   -3.3410    3.1070 H   0  0  0  0  0  0  0  0  0  0  0  0
    1.5630   -4.4190    0.3430 H   0  0  0  0  0  0  0  0  0  0  0  0
    2.9440   -4.7500    1.3930 H   0  0  0  0  0  0  0  0  0  0  0  0
    3.6320   -3.2830   -0.3400 H   0  0  0  0  0  0  0  0  0  0  0  0
    2.5160   -1.9740    0.1230 H   0  0  0  0  0  0  0  0  0  0  0  0
    4.8390   -3.1180    1.7190 H   0  0  0  0  0  0  0  0  0  0  0  0
    3.6410   -1.9440    2.4120 H   0  0  0  0  0  0  0  0  0  0  0  0
    4.7580   -0.3930    1.4860 H   0  0  0  0  0  0  0  0  0  0  0  0
    4.3930   -0.9960   -0.0230 H   0  0  0  0  0  0  0  0  0  0  0  0
    1.7770    1.2090   -0.3740 C   0  0  0  0  0  0  0  0  0  0  0  0
    0.8140    1.0760    0.8080 C   0  0  2  0  0  0  0  0  0  0  0  0
    0.4060   -0.3080    0.8500 N   0  0  0  0  0  0  0  0  0  0  0  0
   -0.3280    2.0000    0.6300 C   0  0  0  0  0  0  0  0  0  0  0  0
   -0.1990    3.2360    0.5750 O   0  0  0  0  0  0  0  0  0  0  0  0
    1.5120    0.4410   -1.1330 H   0  0  0  0  0  0  0  0  0  0  0  0
    1.7310    2.2000   -0.8280 H   0  0  0  0  0  0  0  0  0  0  0  0
    2.7930    1.0020   -0.0050 H   0  0  0  0  0  0  0  0  0  0  0  0
    1.3890    1.3740    1.7130 H   0  0  0  0  0  0  0  0  0  0  0  0
   -0.1240   -0.7010    0.0690 H   0  0  0  0  0  0  0  0  0  0  0  0
   -3.6950   -0.3540   -0.4830 N   0  0  0  0  0  0  0  0  0  0  0  0
   -3.7360    0.6980   -1.4070 C   0  0  0  0  0  0  0  0  0  0  0  0
   -4.1240    0.4340   -2.5840 O   0  0  0  0  0  0  0  0  0  0  0  0
   -3.3510    2.0710   -1.0570 C   0  0  0  0  0  0  0  0  0  0  0  0
   -2.8190    2.2590    0.3390 C   0  0  2  0  0  0  0  0  0  0  0  0
   -1.6450    1.4600    0.5130 N   0  0  0  0  0  0  0  0  0  0  0  0
   -3.8190    2.0850    1.3940 C   0  0  0  0  0  0  0  0  0  0  0  0
   -3.5830    1.3120    2.3510 O   0  0  0  0  0  0  0  0  0  0  0  0
   -5.0320    2.7490    1.3800 O   0  0  0  0  0  0  0  0  0  0  0  0
   -3.0090   -1.1370   -0.7080 H   0  0  0  0  0  0  0  0  0  0  0  0
   -4.2730   -0.4280    0.3810 H   0  0  0  0  0  0  0  0  0  0  0  0
   -4.1730    2.8000   -1.2760 H   0  0  0  0  0  0  0  0  0  0  0  0
   -2.5550    2.3600   -1.8100 H   0  0  0  0  0  0  0  0  0  0  0  0
   -2.4380    3.3400    0.3880 H   0  0  0  0  0  0  0  0  0  0  0  0
   -1.7480    0.4270    0.5630 H   0  0  0  0  0  0  0  0  0  0  0  0
  1 11  1  0  0  0  0
  1  2  1  0  0  0  0
  2  3  1  0  0  0  0
  2 12  1  1  0  0  0
  3 13  1  0  0  0  0
  3 14  1  0  0  0  0
  4 16  1  0  0  0  0
  4  3  1  0  0  0  0
  5  4  1  0  0  0  0
  5  6  1  0  0  0  0
  6 19  1  0  0  0  0
  6 20  1  0  0  0  0
  7  6  1  0  0  0  0
  7 21  1  0  0  0  0
  8  2  1  0  0  0  0
  8  9  2  0  0  0  0
 10  1  1  0  0  0  0
 15  4  1  0  0  0  0
 17  5  1  0  0  0  0
 18  5  1  0  0  0  0
 22  7  1  0  0  0  0
 23 30  1  0  0  0  0
 23 24  1  0  0  0  0
 24 25  1  0  0  0  0
 24 31  1  1  0  0  0
 25  8  1  0  0  0  0
 26 24  1  0  0  0  0
 27 26  2  0  0  0  0
 28 23  1  0  0  0  0
 29 23  1  0  0  0  0
 32 25  1  0  0  0  0
 33 43  1  0  0  0  0
 34 36  1  0  0  0  0
 34 33  1  0  0  0  0
 35 34  2  0  0  0  0
 36 37  1  0  0  0  0
 37 46  1  1  0  0  0
 37 38  1  0  0  0  0
 37 39  1  0  0  0  0
 38 47  1  0  0  0  0
 38 26  1  0  0  0  0
 39 40  1  0  0  0  0
 41 39  2  0  0  0  0
 42 33  1  0  0  0  0
 44 36  1  0  0  0  0
 45 36  1  0  0  0  0
M  END
$$$$
