KAP.pdb
 OpenBabel07022418483D

 47 47  0  0  1  0  0  0  0  0999 V2000
    1.5550   -1.4540   -0.1280 N   0  0  0  0  0  0  0  0  0  0  0  0
    0.7840   -2.2800    0.7760 C   0  0  1  0  0  0  0  0  0  0  0  0
    1.6880   -3.4250    1.1900 C   0  0  0  0  0  0  0  0  0  0  0  0
    2.1300   -4.2360   -0.0010 C   0  0  0  0  0  0  0  0  0  0  0  0
    0.9580   -4.8420   -0.7440 C   0  0  0  0  0  0  0  0  0  0  0  0
    1.4240   -5.6510   -1.9310 C   0  0  0  0  0  0  0  0  0  0  0  0
    2.1630   -4.8590   -2.8820 N   0  0  0  0  0  0  0  0  0  0  0  0
    0.3170   -1.4920    1.9140 C   0  0  0  0  0  0  0  0  0  0  0  0
   -0.3330   -1.9360    2.8850 O   0  0  0  0  0  0  0  0  0  0  0  0
    2.3750   -1.0280    0.3410 H   0  0  0  0  0  0  0  0  0  0  0  0
    0.9480   -0.7350   -0.5220 H   0  0  0  0  0  0  0  0  0  0  0  0
   -0.1250   -2.6530    0.2480 H   0  0  0  0  0  0  0  0  0  0  0  0
    1.2030   -4.0850    1.9320 H   0  0  0  0  0  0  0  0  0  0  0  0
    2.6100   -2.9510    1.6070 H   0  0  0  0  0  0  0  0  0  0  0  0
    2.7510   -5.0670    0.3870 H   0  0  0  0  0  0  0  0  0  0  0  0
    2.7850   -3.6460   -0.6700 H   0  0  0  0  0  0  0  0  0  0  0  0
    0.2410   -4.1110   -1.1180 H   0  0  0  0  0  0  0  0  0  0  0  0
    0.4360   -5.5340   -0.0550 H   0  0  0  0  0  0  0  0  0  0  0  0
    2.0260   -6.5180   -1.6580 H   0  0  0  0  0  0  0  0  0  0  0  0
    0.5130   -6.0170   -2.4520 H   0  0  0  0  0  0  0  0  0  0  0  0
    3.1930   -4.9010   -2.7370 H   0  0  0  0  0  0  0  0  0  0  0  0
    1.7970   -3.8910   -2.9800 H   0  0  0  0  0  0  0  0  0  0  0  0
    1.3880    1.3560    3.7740 C   0  0  0  0  0  0  0  0  0  0  0  0
    0.1800    0.7410    3.0500 C   0  0  2  0  0  0  0  0  0  0  0  0
    0.6120   -0.0830    1.9520 N   0  0  0  0  0  0  0  0  0  0  0  0
   -0.6800    1.8660    2.6800 C   0  0  0  0  0  0  0  0  0  0  0  0
   -1.0010    2.6400    3.6590 O   0  0  0  0  0  0  0  0  0  0  0  0
    2.2880    0.7430    3.6490 H   0  0  0  0  0  0  0  0  0  0  0  0
    1.1160    1.4590    4.8460 H   0  0  0  0  0  0  0  0  0  0  0  0
    1.6170    2.3640    3.3620 H   0  0  0  0  0  0  0  0  0  0  0  0
   -0.4000    0.1430    3.8050 H   0  0  0  0  0  0  0  0  0  0  0  0
    1.1600    0.3730    1.1780 H   0  0  0  0  0  0  0  0  0  0  0  0
   -1.1860    2.1890    1.3890 N   0  0  0  0  0  0  0  0  0  0  0  0
   -1.0340    1.5060    0.1420 C   0  0  0  0  0  0  0  0  0  0  0  0
   -2.2130    1.9200   -0.6970 C   0  0  0  0  0  0  0  0  0  0  0  0
   -2.2810    3.4120   -0.3390 C   0  0  0  0  0  0  0  0  0  0  0  0
   -1.9840    3.3990    1.1390 C   0  0  1  0  0  0  0  0  0  0  0  0
   -3.2330    3.3860    1.9490 C   0  0  0  0  0  0  0  0  0  0  0  0
   -3.4330    2.3960    2.6880 O   0  0  0  0  0  0  0  0  0  0  0  0
   -4.1060    4.4510    1.8520 O   0  0  0  0  0  0  0  0  0  0  0  0
   -1.0000    0.3960    0.2600 H   0  0  0  0  0  0  0  0  0  0  0  0
   -0.1220    1.8680   -0.4020 H   0  0  0  0  0  0  0  0  0  0  0  0
   -3.1730    1.4920   -0.3130 H   0  0  0  0  0  0  0  0  0  0  0  0
   -2.0870    1.7570   -1.7680 H   0  0  0  0  0  0  0  0  0  0  0  0
   -3.2850    3.8190   -0.5640 H   0  0  0  0  0  0  0  0  0  0  0  0
   -1.4800    3.8920   -0.9160 H   0  0  0  0  0  0  0  0  0  0  0  0
   -1.3630    4.2640    1.4070 H   0  0  0  0  0  0  0  0  0  0  0  0
  1 10  1  0  0  0  0
  1  2  1  0  0  0  0
  2 12  1  6  0  0  0
  2  3  1  0  0  0  0
  2  8  1  0  0  0  0
  3 14  1  0  0  0  0
  3 13  1  0  0  0  0
  4 15  1  0  0  0  0
  4  3  1  0  0  0  0
  5 18  1  0  0  0  0
  5  4  1  0  0  0  0
  6 19  1  0  0  0  0
  6  5  1  0  0  0  0
  7 21  1  0  0  0  0
  7  6  1  0  0  0  0
  8 25  1  0  0  0  0
  8  9  2  0  0  0  0
 11  1  1  0  0  0  0
 16  4  1  0  0  0  0
 17  5  1  0  0  0  0
 20  6  1  0  0  0  0
 22  7  1  0  0  0  0
 23 29  1  0  0  0  0
 24 23  1  0  0  0  0
 24 31  1  1  0  0  0
 25 24  1  0  0  0  0
 26 24  1  0  0  0  0
 26 27  2  0  0  0  0
 28 23  1  0  0  0  0
 30 23  1  0  0  0  0
 32 25  1  0  0  0  0
 33 26  1  0  0  0  0
 34 41  1  0  0  0  0
 34 33  1  0  0  0  0
 35 36  1  0  0  0  0
 35 43  1  0  0  0  0
 35 34  1  0  0  0  0
 36 37  1  0  0  0  0
 37 33  1  0  0  0  0
 37 47  1  1  0  0  0
 37 38  1  0  0  0  0
 38 39  1  0  0  0  0
 40 38  2  0  0  0  0
 42 34  1  0  0  0  0
 44 35  1  0  0  0  0
 45 36  1  0  0  0  0
 46 36  1  0  0  0  0
M  END
$$$$
