KCA.pdb
 OpenBabel07022418503D

 44 43  0  0  1  0  0  0  0  0999 V2000
   -1.1680   -2.0250   -0.0500 N   0  0  0  0  0  0  0  0  0  0  0  0
   -0.3540   -2.1510    1.1650 C   0  0  1  0  0  0  0  0  0  0  0  0
    0.6000   -3.3120    0.8570 C   0  0  0  0  0  0  0  0  0  0  0  0
    1.5320   -3.6100    1.9860 C   0  0  0  0  0  0  0  0  0  0  0  0
    2.4330   -4.7650    1.6090 C   0  0  0  0  0  0  0  0  0  0  0  0
    1.6810   -6.0330    1.3010 C   0  0  0  0  0  0  0  0  0  0  0  0
    2.6940   -7.0420    0.9570 N   0  0  0  0  0  0  0  0  0  0  0  0
    0.3710   -0.8890    1.4220 C   0  0  0  0  0  0  0  0  0  0  0  0
    1.0340   -0.7230    2.4600 O   0  0  0  0  0  0  0  0  0  0  0  0
   -1.7790   -1.1860    0.0410 H   0  0  0  0  0  0  0  0  0  0  0  0
   -0.6030   -1.9180   -0.9070 H   0  0  0  0  0  0  0  0  0  0  0  0
   -0.9570   -2.4640    2.0160 H   0  0  0  0  0  0  0  0  0  0  0  0
   -0.0610   -4.2100    0.6850 H   0  0  0  0  0  0  0  0  0  0  0  0
    1.1260   -3.1380   -0.0830 H   0  0  0  0  0  0  0  0  0  0  0  0
    0.9990   -3.8300    2.9210 H   0  0  0  0  0  0  0  0  0  0  0  0
    2.1850   -2.6980    2.1080 H   0  0  0  0  0  0  0  0  0  0  0  0
    3.0120   -4.5300    0.6720 H   0  0  0  0  0  0  0  0  0  0  0  0
    3.1870   -4.9730    2.4080 H   0  0  0  0  0  0  0  0  0  0  0  0
    1.0320   -5.8850    0.4100 H   0  0  0  0  0  0  0  0  0  0  0  0
    1.0700   -6.3820    2.1510 H   0  0  0  0  0  0  0  0  0  0  0  0
    3.5430   -6.8240    1.5160 H   0  0  0  0  0  0  0  0  0  0  0  0
    2.8330   -7.0580   -0.0600 H   0  0  0  0  0  0  0  0  0  0  0  0
    0.3370    0.1850    0.4870 N   0  0  0  0  0  0  0  0  0  0  0  0
    1.0420    1.4130    0.7450 C   0  0  1  0  0  0  0  0  0  0  0  0
    2.2090    1.6070   -0.2060 C   0  0  0  0  0  0  0  0  0  0  0  0
    3.0040    3.1790    0.2260 S   0  0  0  0  0  0  0  0  0  0  0  0
    0.2010    2.6220    0.6880 C   0  0  0  0  0  0  0  0  0  0  0  0
    0.7850    3.7200    0.9420 O   0  0  0  0  0  0  0  0  0  0  0  0
   -0.2150    0.0380   -0.3830 H   0  0  0  0  0  0  0  0  0  0  0  0
    1.5110    1.3540    1.7590 H   0  0  0  0  0  0  0  0  0  0  0  0
    2.9550    0.7920   -0.0510 H   0  0  0  0  0  0  0  0  0  0  0  0
    1.9060    1.6500   -1.2540 H   0  0  0  0  0  0  0  0  0  0  0  0
    3.1150    3.3210    1.6200 H   0  0  0  0  0  0  0  0  0  0  0  0
   -2.4150    4.2320   -1.0560 C   0  0  0  0  0  0  0  0  0  0  0  0
   -1.9330    3.9170    0.3450 C   0  0  2  0  0  0  0  0  0  0  0  0
   -1.1810    2.6670    0.3790 N   0  0  0  0  0  0  0  0  0  0  0  0
   -3.1320    3.8420    1.2130 C   0  0  0  0  0  0  0  0  0  0  0  0
   -3.9020    4.8000    1.3230 O   0  0  0  0  0  0  0  0  0  0  0  0
   -3.3970    2.6750    1.9150 O   0  0  0  0  0  0  0  0  0  0  0  0
   -3.1660    5.0620   -0.9470 H   0  0  0  0  0  0  0  0  0  0  0  0
   -1.5940    4.6670   -1.6820 H   0  0  0  0  0  0  0  0  0  0  0  0
   -2.9360    3.3920   -1.5310 H   0  0  0  0  0  0  0  0  0  0  0  0
   -1.2360    4.7250    0.6450 H   0  0  0  0  0  0  0  0  0  0  0  0
   -1.6510    1.7610    0.1730 H   0  0  0  0  0  0  0  0  0  0  0  0
  1 10  1  0  0  0  0
  1  2  1  0  0  0  0
  2  8  1  0  0  0  0
  2 12  1  1  0  0  0
  3  2  1  0  0  0  0
  3  4  1  0  0  0  0
  4 16  1  0  0  0  0
  4 15  1  0  0  0  0
  5  4  1  0  0  0  0
  5 18  1  0  0  0  0
  6  5  1  0  0  0  0
  6 20  1  0  0  0  0
  7  6  1  0  0  0  0
  7 21  1  0  0  0  0
  8  9  2  0  0  0  0
 11  1  1  0  0  0  0
 13  3  1  0  0  0  0
 14  3  1  0  0  0  0
 17  5  1  0  0  0  0
 19  6  1  0  0  0  0
 22  7  1  0  0  0  0
 23 24  1  0  0  0  0
 23  8  1  0  0  0  0
 24 30  1  1  0  0  0
 25 31  1  0  0  0  0
 25 26  1  0  0  0  0
 25 24  1  0  0  0  0
 26 33  1  0  0  0  0
 27 24  1  0  0  0  0
 27 28  2  0  0  0  0
 29 23  1  0  0  0  0
 32 25  1  0  0  0  0
 34 40  1  0  0  0  0
 34 35  1  0  0  0  0
 35 36  1  0  0  0  0
 35 43  1  1  0  0  0
 35 37  1  0  0  0  0
 36 27  1  0  0  0  0
 37 38  2  0  0  0  0
 37 39  1  0  0  0  0
 41 34  1  0  0  0  0
 42 34  1  0  0  0  0
 44 36  1  0  0  0  0
M  END
$$$$
