KCE.pdb
 OpenBabel07022418503D

 50 49  0  0  1  0  0  0  0  0999 V2000
    2.5140   -1.1580    3.5920 N   0  0  0  0  0  0  0  0  0  0  0  0
    2.0300   -0.7630    2.3000 C   0  0  1  0  0  0  0  0  0  0  0  0
    1.2720   -1.8730    1.6030 C   0  0  0  0  0  0  0  0  0  0  0  0
    2.1240   -3.1040    1.3810 C   0  0  0  0  0  0  0  0  0  0  0  0
    3.3070   -2.7340    0.5290 C   0  0  0  0  0  0  0  0  0  0  0  0
    4.2180   -3.8980    0.2510 C   0  0  0  0  0  0  0  0  0  0  0  0
    4.7770   -4.4980    1.4150 N   0  0  0  0  0  0  0  0  0  0  0  0
    1.0330    0.3480    2.4910 C   0  0  0  0  0  0  0  0  0  0  0  0
    0.7480    0.7900    3.6310 O   0  0  0  0  0  0  0  0  0  0  0  0
    1.8090   -0.9200    4.3070 H   0  0  0  0  0  0  0  0  0  0  0  0
    2.8300   -2.1340    3.5940 H   0  0  0  0  0  0  0  0  0  0  0  0
    2.8380   -0.3490    1.7010 H   0  0  0  0  0  0  0  0  0  0  0  0
    0.9500   -1.5320    0.5980 H   0  0  0  0  0  0  0  0  0  0  0  0
    0.3510   -2.1100    2.1830 H   0  0  0  0  0  0  0  0  0  0  0  0
    1.4870   -3.8010    0.7730 H   0  0  0  0  0  0  0  0  0  0  0  0
    2.3830   -3.6380    2.2910 H   0  0  0  0  0  0  0  0  0  0  0  0
    2.9640   -2.3420   -0.4500 H   0  0  0  0  0  0  0  0  0  0  0  0
    3.9020   -1.9440    1.0130 H   0  0  0  0  0  0  0  0  0  0  0  0
    5.0750   -3.4840   -0.3520 H   0  0  0  0  0  0  0  0  0  0  0  0
    3.7530   -4.6720   -0.3960 H   0  0  0  0  0  0  0  0  0  0  0  0
    4.1290   -4.7340    2.1650 H   0  0  0  0  0  0  0  0  0  0  0  0
    5.7170   -4.1970    1.6770 H   0  0  0  0  0  0  0  0  0  0  0  0
    0.3750    0.9390    1.3750 N   0  0  0  0  0  0  0  0  0  0  0  0
   -0.5770    1.9980    1.5370 C   0  0  1  0  0  0  0  0  0  0  0  0
   -0.0250    3.2260    0.8480 C   0  0  0  0  0  0  0  0  0  0  0  0
   -1.1230    4.6470    0.9700 S   0  0  0  0  0  0  0  0  0  0  0  0
   -1.9260    1.6340    1.0470 C   0  0  0  0  0  0  0  0  0  0  0  0
   -2.8840    2.4420    1.1110 O   0  0  0  0  0  0  0  0  0  0  0  0
    0.5990    0.5840    0.4060 H   0  0  0  0  0  0  0  0  0  0  0  0
   -0.6780    2.2410    2.6150 H   0  0  0  0  0  0  0  0  0  0  0  0
    0.1790    2.9330   -0.2090 H   0  0  0  0  0  0  0  0  0  0  0  0
    0.9390    3.4760    1.2960 H   0  0  0  0  0  0  0  0  0  0  0  0
   -1.2860    5.2900   -0.2710 H   0  0  0  0  0  0  0  0  0  0  0  0
   -2.1810    0.3320    0.4760 N   0  0  0  0  0  0  0  0  0  0  0  0
   -3.4920   -0.0230   -0.0020 C   0  0  1  0  0  0  0  0  0  0  0  0
   -3.5340   -0.7590   -1.2890 C   0  0  0  0  0  0  0  0  0  0  0  0
   -2.9670   -0.0930   -2.4870 C   0  0  0  0  0  0  0  0  0  0  0  0
   -1.5470    0.2590   -2.4400 C   0  0  0  0  0  0  0  0  0  0  0  0
   -1.1870    1.3890   -2.0510 O   0  0  0  0  0  0  0  0  0  0  0  0
   -4.1000   -0.9450    1.0240 C   0  0  0  0  0  0  0  0  0  0  0  0
   -5.2470   -1.4350    0.9020 O   0  0  0  0  0  0  0  0  0  0  0  0
   -0.5730   -0.6460   -2.8220 O   0  0  0  0  0  0  0  0  0  0  0  0
   -3.3600   -1.2580    2.1400 O   0  0  0  0  0  0  0  0  0  0  0  0
   -1.3590   -0.3050    0.4410 H   0  0  0  0  0  0  0  0  0  0  0  0
   -4.1580    0.8760    0.0310 H   0  0  0  0  0  0  0  0  0  0  0  0
   -4.6300   -0.9350   -1.5160 H   0  0  0  0  0  0  0  0  0  0  0  0
   -3.1350   -1.7790   -1.1130 H   0  0  0  0  0  0  0  0  0  0  0  0
   -3.5460    0.8430   -2.7270 H   0  0  0  0  0  0  0  0  0  0  0  0
   -3.1930   -0.7590   -3.3760 H   0  0  0  0  0  0  0  0  0  0  0  0
    0.3480   -0.6800   -2.3620 H   0  0  0  0  0  0  0  0  0  0  0  0
  1 11  1  0  0  0  0
  1 10  1  0  0  0  0
  2 12  1  6  0  0  0
  2  8  1  0  0  0  0
  2  1  1  0  0  0  0
  3 14  1  0  0  0  0
  3  2  1  0  0  0  0
  4  3  1  0  0  0  0
  4 16  1  0  0  0  0
  5 18  1  0  0  0  0
  5  4  1  0  0  0  0
  6  5  1  0  0  0  0
  6  7  1  0  0  0  0
  7 22  1  0  0  0  0
  7 21  1  0  0  0  0
  8  9  2  0  0  0  0
 13  3  1  0  0  0  0
 15  4  1  0  0  0  0
 17  5  1  0  0  0  0
 19  6  1  0  0  0  0
 20  6  1  0  0  0  0
 23 24  1  0  0  0  0
 23  8  1  0  0  0  0
 24 30  1  1  0  0  0
 25 26  1  0  0  0  0
 25 32  1  0  0  0  0
 25 24  1  0  0  0  0
 27 28  2  0  0  0  0
 27 24  1  0  0  0  0
 29 23  1  0  0  0  0
 31 25  1  0  0  0  0
 33 26  1  0  0  0  0
 34 27  1  0  0  0  0
 35 45  1  6  0  0  0
 35 34  1  0  0  0  0
 35 40  1  0  0  0  0
 36 47  1  0  0  0  0
 36 35  1  0  0  0  0
 37 38  1  0  0  0  0
 37 36  1  0  0  0  0
 38 39  2  0  0  0  0
 40 43  1  0  0  0  0
 41 40  2  0  0  0  0
 42 38  1  0  0  0  0
 42 50  1  0  0  0  0
 44 34  1  0  0  0  0
 46 36  1  0  0  0  0
 48 37  1  0  0  0  0
 49 37  1  0  0  0  0
M  END
$$$$
