KCS.pdb
 OpenBabel07022418503D

 45 44  0  0  1  0  0  0  0  0999 V2000
    1.0840   -1.2500   -0.2760 N   0  0  0  0  0  0  0  0  0  0  0  0
    0.9620   -1.9520    0.9730 C   0  0  1  0  0  0  0  0  0  0  0  0
    2.1600   -2.7170    1.4000 C   0  0  0  0  0  0  0  0  0  0  0  0
    2.6310   -3.7960    0.5000 C   0  0  0  0  0  0  0  0  0  0  0  0
    3.0290   -3.3830   -0.8820 C   0  0  0  0  0  0  0  0  0  0  0  0
    3.4810   -4.6710   -1.5900 C   0  0  0  0  0  0  0  0  0  0  0  0
    4.5950   -5.2490   -0.8750 N   0  0  0  0  0  0  0  0  0  0  0  0
    0.4820   -1.0180    2.0420 C   0  0  0  0  0  0  0  0  0  0  0  0
    0.2970   -1.4040    3.2250 O   0  0  0  0  0  0  0  0  0  0  0  0
    1.7200   -0.4350   -0.1240 H   0  0  0  0  0  0  0  0  0  0  0  0
    0.1450   -0.8580   -0.5060 H   0  0  0  0  0  0  0  0  0  0  0  0
    0.1010   -2.6710    0.8330 H   0  0  0  0  0  0  0  0  0  0  0  0
    1.9390   -3.2050    2.3930 H   0  0  0  0  0  0  0  0  0  0  0  0
    3.0380   -2.0600    1.6230 H   0  0  0  0  0  0  0  0  0  0  0  0
    1.9520   -4.6750    0.4550 H   0  0  0  0  0  0  0  0  0  0  0  0
    3.5700   -4.2120    0.9760 H   0  0  0  0  0  0  0  0  0  0  0  0
    3.8470   -2.6650   -0.8430 H   0  0  0  0  0  0  0  0  0  0  0  0
    2.1770   -2.9570   -1.4510 H   0  0  0  0  0  0  0  0  0  0  0  0
    3.7040   -4.4680   -2.6520 H   0  0  0  0  0  0  0  0  0  0  0  0
    2.6550   -5.4110   -1.5630 H   0  0  0  0  0  0  0  0  0  0  0  0
    5.2580   -4.5180   -0.5680 H   0  0  0  0  0  0  0  0  0  0  0  0
    5.0330   -5.9540   -1.5210 H   0  0  0  0  0  0  0  0  0  0  0  0
    0.2080    0.3600    1.7720 N   0  0  0  0  0  0  0  0  0  0  0  0
   -0.2580    1.2660    2.8040 C   0  0  1  0  0  0  0  0  0  0  0  0
    0.7830    2.3480    3.0190 C   0  0  0  0  0  0  0  0  0  0  0  0
    0.2730    3.5170    4.2920 S   0  0  0  0  0  0  0  0  0  0  0  0
   -1.5750    1.8490    2.4380 C   0  0  0  0  0  0  0  0  0  0  0  0
   -2.1470    2.6510    3.1900 O   0  0  0  0  0  0  0  0  0  0  0  0
    0.3410    0.7350    0.8190 H   0  0  0  0  0  0  0  0  0  0  0  0
   -0.3370    0.6760    3.7480 H   0  0  0  0  0  0  0  0  0  0  0  0
    1.7450    1.9020    3.2970 H   0  0  0  0  0  0  0  0  0  0  0  0
    0.9320    2.8810    2.0600 H   0  0  0  0  0  0  0  0  0  0  0  0
   -0.1610    4.7050    3.6720 H   0  0  0  0  0  0  0  0  0  0  0  0
   -2.2680    3.7190   -0.2680 O   0  0  0  0  0  0  0  0  0  0  0  0
   -3.1730    2.6890   -0.5670 C   0  0  0  0  0  0  0  0  0  0  0  0
   -3.4500    1.9790    0.7550 C   0  0  2  0  0  0  0  0  0  0  0  0
   -2.1730    1.4830    1.2240 N   0  0  0  0  0  0  0  0  0  0  0  0
   -4.3430    0.8090    0.5540 C   0  0  0  0  0  0  0  0  0  0  0  0
   -3.9590   -0.3740    0.7810 O   0  0  0  0  0  0  0  0  0  0  0  0
   -5.6540    0.9460    0.1040 O   0  0  0  0  0  0  0  0  0  0  0  0
   -1.3560    3.5260   -0.6040 H   0  0  0  0  0  0  0  0  0  0  0  0
   -4.1000    3.0680   -1.0220 H   0  0  0  0  0  0  0  0  0  0  0  0
   -2.6450    1.9540   -1.2090 H   0  0  0  0  0  0  0  0  0  0  0  0
   -3.9170    2.6860    1.4570 H   0  0  0  0  0  0  0  0  0  0  0  0
   -1.6860    0.8020    0.5870 H   0  0  0  0  0  0  0  0  0  0  0  0
  1 10  1  0  0  0  0
  1  2  1  0  0  0  0
  2 12  1  6  0  0  0
  2  3  1  0  0  0  0
  2  8  1  0  0  0  0
  3 14  1  0  0  0  0
  3 13  1  0  0  0  0
  4 16  1  0  0  0  0
  4  3  1  0  0  0  0
  5 17  1  0  0  0  0
  5  4  1  0  0  0  0
  6 20  1  0  0  0  0
  6  5  1  0  0  0  0
  6  7  1  0  0  0  0
  7 21  1  0  0  0  0
  8  9  2  0  0  0  0
 11  1  1  0  0  0  0
 15  4  1  0  0  0  0
 18  5  1  0  0  0  0
 19  6  1  0  0  0  0
 22  7  1  0  0  0  0
 23  8  1  0  0  0  0
 23 24  1  0  0  0  0
 24 25  1  0  0  0  0
 24 30  1  1  0  0  0
 25 31  1  0  0  0  0
 25 26  1  0  0  0  0
 27 24  1  0  0  0  0
 27 28  2  0  0  0  0
 29 23  1  0  0  0  0
 32 25  1  0  0  0  0
 33 26  1  0  0  0  0
 35 34  1  0  0  0  0
 35 36  1  0  0  0  0
 36 37  1  0  0  0  0
 36 44  1  1  0  0  0
 37 27  1  0  0  0  0
 38 36  1  0  0  0  0
 38 39  1  0  0  0  0
 40 38  2  0  0  0  0
 41 34  1  0  0  0  0
 42 35  1  0  0  0  0
 43 35  1  0  0  0  0
 45 37  1  0  0  0  0
M  END
$$$$
