KDG.pdb
 OpenBabel07022418493D

 43 42  0  0  1  0  0  0  0  0999 V2000
    3.2960   -3.5390    2.3120 N   0  0  0  0  0  0  0  0  0  0  0  0
    2.6490   -2.5440    1.4210 C   0  0  1  0  0  0  0  0  0  0  0  0
    2.0840   -3.2670    0.2290 C   0  0  0  0  0  0  0  0  0  0  0  0
    1.4220   -2.2980   -0.6910 C   0  0  0  0  0  0  0  0  0  0  0  0
    0.8720   -2.9780   -1.9360 C   0  0  0  0  0  0  0  0  0  0  0  0
    0.2370   -1.9290   -2.7960 C   0  0  0  0  0  0  0  0  0  0  0  0
   -0.8430   -1.2230   -2.1960 N   0  0  0  0  0  0  0  0  0  0  0  0
    1.6590   -1.7970    2.2010 C   0  0  0  0  0  0  0  0  0  0  0  0
    1.1880   -2.2750    3.2800 O   0  0  0  0  0  0  0  0  0  0  0  0
    4.0980   -3.9120    1.7530 H   0  0  0  0  0  0  0  0  0  0  0  0
    3.7330   -2.9470    3.0680 H   0  0  0  0  0  0  0  0  0  0  0  0
    3.4680   -1.8560    1.1250 H   0  0  0  0  0  0  0  0  0  0  0  0
    1.3280   -3.9930    0.6580 H   0  0  0  0  0  0  0  0  0  0  0  0
    2.8410   -3.9010   -0.2770 H   0  0  0  0  0  0  0  0  0  0  0  0
    2.1450   -1.5170   -0.9740 H   0  0  0  0  0  0  0  0  0  0  0  0
    0.5340   -1.8560   -0.1880 H   0  0  0  0  0  0  0  0  0  0  0  0
    0.0820   -3.7070   -1.6640 H   0  0  0  0  0  0  0  0  0  0  0  0
    1.6420   -3.5330   -2.4910 H   0  0  0  0  0  0  0  0  0  0  0  0
   -0.1070   -2.3280   -3.7750 H   0  0  0  0  0  0  0  0  0  0  0  0
    1.0430   -1.1730   -3.0230 H   0  0  0  0  0  0  0  0  0  0  0  0
   -1.2810   -1.6620   -1.3840 H   0  0  0  0  0  0  0  0  0  0  0  0
   -0.7430   -0.2020   -2.1740 H   0  0  0  0  0  0  0  0  0  0  0  0
    1.1910   -0.5220    1.8020 N   0  0  0  0  0  0  0  0  0  0  0  0
    0.2140    0.1990    2.6050 C   0  0  1  0  0  0  0  0  0  0  0  0
    0.8340    1.4180    3.2250 C   0  0  0  0  0  0  0  0  0  0  0  0
    1.3620    2.3730    2.2370 C   0  0  0  0  0  0  0  0  0  0  0  0
    1.3170    2.2130    0.9950 O   0  0  0  0  0  0  0  0  0  0  0  0
   -0.9220    0.5800    1.7450 C   0  0  0  0  0  0  0  0  0  0  0  0
   -0.9430    0.3160    0.5190 O   0  0  0  0  0  0  0  0  0  0  0  0
    1.9640    3.5570    2.6660 O   0  0  0  0  0  0  0  0  0  0  0  0
    1.5340   -0.0730    0.9420 H   0  0  0  0  0  0  0  0  0  0  0  0
   -0.1260   -0.4800    3.4390 H   0  0  0  0  0  0  0  0  0  0  0  0
    0.1140    1.9380    3.8780 H   0  0  0  0  0  0  0  0  0  0  0  0
    1.7090    1.1100    3.8630 H   0  0  0  0  0  0  0  0  0  0  0  0
    1.9830    4.3910    2.0930 H   0  0  0  0  0  0  0  0  0  0  0  0
   -2.0610    1.2720    2.2810 N   0  0  0  0  0  0  0  0  0  0  0  0
   -3.1530    1.6200    1.4120 C   0  0  0  0  0  0  0  0  0  0  0  0
   -2.7440    2.5100    0.3120 C   0  0  0  0  0  0  0  0  0  0  0  0
   -1.5690    2.8980    0.1890 O   0  0  0  0  0  0  0  0  0  0  0  0
   -3.6890    2.9210   -0.6050 O   0  0  0  0  0  0  0  0  0  0  0  0
   -2.0390    1.4900    3.2870 H   0  0  0  0  0  0  0  0  0  0  0  0
   -3.6310    0.6740    1.0200 H   0  0  0  0  0  0  0  0  0  0  0  0
   -3.9350    2.1470    2.0200 H   0  0  0  0  0  0  0  0  0  0  0  0
  1 11  1  0  0  0  0
  2 12  1  6  0  0  0
  2  8  1  0  0  0  0
  2  1  1  0  0  0  0
  3 13  1  0  0  0  0
  3  2  1  0  0  0  0
  4 16  1  0  0  0  0
  4  3  1  0  0  0  0
  5 17  1  0  0  0  0
  5  4  1  0  0  0  0
  6  7  1  0  0  0  0
  6  5  1  0  0  0  0
  7 22  1  0  0  0  0
  7 21  1  0  0  0  0
  8  9  2  0  0  0  0
 10  1  1  0  0  0  0
 14  3  1  0  0  0  0
 15  4  1  0  0  0  0
 18  5  1  0  0  0  0
 19  6  1  0  0  0  0
 20  6  1  0  0  0  0
 23  8  1  0  0  0  0
 23 24  1  0  0  0  0
 24 25  1  0  0  0  0
 24 32  1  1  0  0  0
 25 34  1  0  0  0  0
 25 33  1  0  0  0  0
 26 30  1  0  0  0  0
 26 25  1  0  0  0  0
 27 26  2  0  0  0  0
 28 36  1  0  0  0  0
 28 24  1  0  0  0  0
 29 28  2  0  0  0  0
 31 23  1  0  0  0  0
 35 30  1  0  0  0  0
 36 41  1  0  0  0  0
 37 43  1  0  0  0  0
 37 36  1  0  0  0  0
 38 37  1  0  0  0  0
 39 38  1  0  0  0  0
 40 38  2  0  0  0  0
 42 37  1  0  0  0  0
M  END
$$$$
