KDK.pdb
 OpenBabel07022418493D

 57 56  0  0  1  0  0  0  0  0999 V2000
    2.6390   -0.6940    4.3070 N   0  0  0  0  0  0  0  0  0  0  0  0
    2.1950   -0.3580    2.9160 C   0  0  1  0  0  0  0  0  0  0  0  0
    2.2730   -1.6360    2.1790 C   0  0  0  0  0  0  0  0  0  0  0  0
    1.9260   -1.6510    0.7450 C   0  0  0  0  0  0  0  0  0  0  0  0
    2.7750   -0.7300   -0.1020 C   0  0  0  0  0  0  0  0  0  0  0  0
    4.2390   -1.0910   -0.0320 C   0  0  0  0  0  0  0  0  0  0  0  0
    4.5130   -2.4170   -0.4870 N   0  0  0  0  0  0  0  0  0  0  0  0
    0.9170    0.3010    3.0750 C   0  0  0  0  0  0  0  0  0  0  0  0
    0.4380    0.4680    4.2500 O   0  0  0  0  0  0  0  0  0  0  0  0
    3.3940   -1.4110    4.2380 H   0  0  0  0  0  0  0  0  0  0  0  0
    1.8070   -1.2070    4.7250 H   0  0  0  0  0  0  0  0  0  0  0  0
    2.9870    0.3240    2.5080 H   0  0  0  0  0  0  0  0  0  0  0  0
    3.3380   -1.9920    2.2660 H   0  0  0  0  0  0  0  0  0  0  0  0
    1.6900   -2.4620    2.6680 H   0  0  0  0  0  0  0  0  0  0  0  0
    2.2100   -2.6970    0.3720 H   0  0  0  0  0  0  0  0  0  0  0  0
    0.8630   -1.5640    0.4970 H   0  0  0  0  0  0  0  0  0  0  0  0
    2.6300    0.3170    0.1640 H   0  0  0  0  0  0  0  0  0  0  0  0
    2.4570   -0.8950   -1.1630 H   0  0  0  0  0  0  0  0  0  0  0  0
    4.8030   -0.3910   -0.7040 H   0  0  0  0  0  0  0  0  0  0  0  0
    4.5720   -0.9810    1.0020 H   0  0  0  0  0  0  0  0  0  0  0  0
    4.7950   -3.0990    0.2180 H   0  0  0  0  0  0  0  0  0  0  0  0
    4.8910   -2.5070   -1.4320 H   0  0  0  0  0  0  0  0  0  0  0  0
    0.0980    0.8110    2.0350 N   0  0  0  0  0  0  0  0  0  0  0  0
   -1.1600    1.4820    2.3310 C   0  0  1  0  0  0  0  0  0  0  0  0
   -1.0030    2.9020    1.7700 C   0  0  0  0  0  0  0  0  0  0  0  0
   -2.2280    3.7010    2.0070 C   0  0  0  0  0  0  0  0  0  0  0  0
   -2.4280    4.1870    3.1600 O   0  0  0  0  0  0  0  0  0  0  0  0
   -2.2840    0.8790    1.6080 C   0  0  0  0  0  0  0  0  0  0  0  0
   -3.4750    1.3380    1.7320 O   0  0  0  0  0  0  0  0  0  0  0  0
   -3.1920    3.9650    1.0470 O   0  0  0  0  0  0  0  0  0  0  0  0
    0.4120    0.7030    1.0480 H   0  0  0  0  0  0  0  0  0  0  0  0
   -1.3330    1.5480    3.4260 H   0  0  0  0  0  0  0  0  0  0  0  0
   -0.8610    2.8290    0.6700 H   0  0  0  0  0  0  0  0  0  0  0  0
   -0.1150    3.4060    2.2270 H   0  0  0  0  0  0  0  0  0  0  0  0
   -4.1510    4.1090    1.3560 H   0  0  0  0  0  0  0  0  0  0  0  0
   -2.1280   -0.2210    0.7490 N   0  0  0  0  0  0  0  0  0  0  0  0
   -3.2310   -0.8300    0.0250 C   0  0  1  0  0  0  0  0  0  0  0  0
   -2.9750   -0.8640   -1.4480 C   0  0  0  0  0  0  0  0  0  0  0  0
   -1.7240   -1.6660   -1.7340 C   0  0  0  0  0  0  0  0  0  0  0  0
   -1.4510   -1.7110   -3.2340 C   0  0  0  0  0  0  0  0  0  0  0  0
   -0.1790   -2.5360   -3.3940 C   0  0  0  0  0  0  0  0  0  0  0  0
   -0.4420   -3.8410   -2.8450 N   0  0  0  0  0  0  0  0  0  0  0  0
   -3.4350   -2.2000    0.5690 C   0  0  0  0  0  0  0  0  0  0  0  0
   -4.3310   -2.9760    0.1440 O   0  0  0  0  0  0  0  0  0  0  0  0
   -2.6280   -2.6910    1.5900 O   0  0  0  0  0  0  0  0  0  0  0  0
   -1.2060   -0.6220    0.6160 H   0  0  0  0  0  0  0  0  0  0  0  0
   -4.1970   -0.2920    0.2240 H   0  0  0  0  0  0  0  0  0  0  0  0
   -3.8200   -1.4130   -1.9260 H   0  0  0  0  0  0  0  0  0  0  0  0
   -2.8910    0.1550   -1.8370 H   0  0  0  0  0  0  0  0  0  0  0  0
   -0.8150   -1.2230   -1.2860 H   0  0  0  0  0  0  0  0  0  0  0  0
   -1.8870   -2.7220   -1.4260 H   0  0  0  0  0  0  0  0  0  0  0  0
   -1.2410   -0.6780   -3.5880 H   0  0  0  0  0  0  0  0  0  0  0  0
   -2.3040   -2.1790   -3.7730 H   0  0  0  0  0  0  0  0  0  0  0  0
    0.1880   -2.5470   -4.4320 H   0  0  0  0  0  0  0  0  0  0  0  0
    0.5660   -2.0540   -2.6960 H   0  0  0  0  0  0  0  0  0  0  0  0
   -0.6410   -4.5700   -3.5650 H   0  0  0  0  0  0  0  0  0  0  0  0
    0.3250   -4.1720   -2.2040 H   0  0  0  0  0  0  0  0  0  0  0  0
  1 11  1  0  0  0  0
  2 12  1  6  0  0  0
  2  8  1  0  0  0  0
  2  1  1  0  0  0  0
  3 13  1  0  0  0  0
  3 14  1  0  0  0  0
  3  2  1  0  0  0  0
  4  3  1  0  0  0  0
  5  6  1  0  0  0  0
  5 17  1  0  0  0  0
  5  4  1  0  0  0  0
  6 20  1  0  0  0  0
  7  6  1  0  0  0  0
  7 21  1  0  0  0  0
  8  9  2  0  0  0  0
 10  1  1  0  0  0  0
 15  4  1  0  0  0  0
 16  4  1  0  0  0  0
 18  5  1  0  0  0  0
 19  6  1  0  0  0  0
 22  7  1  0  0  0  0
 23 24  1  0  0  0  0
 23  8  1  0  0  0  0
 24 32  1  1  0  0  0
 25 26  1  0  0  0  0
 25 34  1  0  0  0  0
 25 24  1  0  0  0  0
 26 27  2  0  0  0  0
 28 29  2  0  0  0  0
 28 24  1  0  0  0  0
 30 35  1  0  0  0  0
 30 26  1  0  0  0  0
 31 23  1  0  0  0  0
 33 25  1  0  0  0  0
 36 28  1  0  0  0  0
 37 47  1  1  0  0  0
 37 43  1  0  0  0  0
 37 36  1  0  0  0  0
 38 37  1  0  0  0  0
 39 38  1  0  0  0  0
 39 51  1  0  0  0  0
 39 50  1  0  0  0  0
 40 39  1  0  0  0  0
 41 40  1  0  0  0  0
 41 42  1  0  0  0  0
 41 55  1  0  0  0  0
 42 57  1  0  0  0  0
 43 45  1  0  0  0  0
 44 43  2  0  0  0  0
 46 36  1  0  0  0  0
 48 38  1  0  0  0  0
 49 38  1  0  0  0  0
 52 40  1  0  0  0  0
 53 40  1  0  0  0  0
 54 41  1  0  0  0  0
 56 42  1  0  0  0  0
M  END
$$$$
