KDM.pdb
 OpenBabel07022418493D

 53 52  0  0  1  0  0  0  0  0999 V2000
    1.2260   -1.2550    5.2750 N   0  0  0  0  0  0  0  0  0  0  0  0
    1.6630   -0.8180    3.9340 C   0  0  1  0  0  0  0  0  0  0  0  0
    2.5410   -1.9260    3.4280 C   0  0  0  0  0  0  0  0  0  0  0  0
    3.1160   -1.6820    2.0640 C   0  0  0  0  0  0  0  0  0  0  0  0
    3.9850   -0.4340    2.0390 C   0  0  0  0  0  0  0  0  0  0  0  0
    4.5550   -0.1900    0.6680 C   0  0  0  0  0  0  0  0  0  0  0  0
    3.5120   -0.0110   -0.3150 N   0  0  0  0  0  0  0  0  0  0  0  0
    0.4300   -0.6260    3.1260 C   0  0  0  0  0  0  0  0  0  0  0  0
   -0.6960   -1.0320    3.5830 O   0  0  0  0  0  0  0  0  0  0  0  0
    0.4340   -1.9120    5.1090 H   0  0  0  0  0  0  0  0  0  0  0  0
    2.0180   -1.7260    5.7330 H   0  0  0  0  0  0  0  0  0  0  0  0
    2.2230    0.1090    4.0010 H   0  0  0  0  0  0  0  0  0  0  0  0
    3.4010   -2.1160    4.1180 H   0  0  0  0  0  0  0  0  0  0  0  0
    1.9950   -2.9030    3.3800 H   0  0  0  0  0  0  0  0  0  0  0  0
    3.8140   -2.5520    1.8470 H   0  0  0  0  0  0  0  0  0  0  0  0
    2.3680   -1.6970    1.2530 H   0  0  0  0  0  0  0  0  0  0  0  0
    4.8370   -0.6330    2.7490 H   0  0  0  0  0  0  0  0  0  0  0  0
    3.3940    0.4340    2.3720 H   0  0  0  0  0  0  0  0  0  0  0  0
    5.1460   -1.0820    0.3640 H   0  0  0  0  0  0  0  0  0  0  0  0
    5.2300    0.6700    0.6880 H   0  0  0  0  0  0  0  0  0  0  0  0
    3.5450    0.9500   -0.6780 H   0  0  0  0  0  0  0  0  0  0  0  0
    3.5280   -0.7560   -1.0450 H   0  0  0  0  0  0  0  0  0  0  0  0
    0.3860   -0.0110    1.8510 N   0  0  0  0  0  0  0  0  0  0  0  0
   -0.8670    0.1180    1.1620 C   0  0  1  0  0  0  0  0  0  0  0  0
   -1.2880    1.5490    0.9340 C   0  0  0  0  0  0  0  0  0  0  0  0
   -0.3600    2.3400    0.1400 C   0  0  0  0  0  0  0  0  0  0  0  0
    0.6920    1.8360   -0.3060 O   0  0  0  0  0  0  0  0  0  0  0  0
   -0.7580   -0.5610   -0.1610 C   0  0  0  0  0  0  0  0  0  0  0  0
    0.3340   -1.1250   -0.5050 O   0  0  0  0  0  0  0  0  0  0  0  0
   -0.6330    3.6640   -0.1300 O   0  0  0  0  0  0  0  0  0  0  0  0
    1.2390    0.3570    1.4050 H   0  0  0  0  0  0  0  0  0  0  0  0
   -1.7130   -0.3340    1.7580 H   0  0  0  0  0  0  0  0  0  0  0  0
   -2.3080    1.5210    0.4990 H   0  0  0  0  0  0  0  0  0  0  0  0
   -1.3990    2.0100    1.9370 H   0  0  0  0  0  0  0  0  0  0  0  0
    0.1120    4.3610   -0.2310 H   0  0  0  0  0  0  0  0  0  0  0  0
   -4.4740   -2.8350    0.5950 C   0  0  0  0  0  0  0  0  0  0  0  0
   -4.7380   -1.5970   -0.6990 S   0  0  0  0  0  0  0  0  0  0  0  0
   -4.2010   -2.1490   -2.3070 C   0  0  0  0  0  0  0  0  0  0  0  0
   -2.7430   -2.3620   -2.4750 C   0  0  0  0  0  0  0  0  0  0  0  0
   -1.8600   -1.1830   -2.2800 C   0  0  2  0  0  0  0  0  0  0  0  0
   -1.8930   -0.5560   -1.0070 N   0  0  0  0  0  0  0  0  0  0  0  0
   -2.1040   -0.2250   -3.3930 C   0  0  0  0  0  0  0  0  0  0  0  0
   -2.3140    0.9860   -3.2210 O   0  0  0  0  0  0  0  0  0  0  0  0
   -2.0960   -0.7180   -4.6810 O   0  0  0  0  0  0  0  0  0  0  0  0
   -5.0420   -3.7510    0.2810 H   0  0  0  0  0  0  0  0  0  0  0  0
   -3.4280   -3.1180    0.7150 H   0  0  0  0  0  0  0  0  0  0  0  0
   -4.9640   -2.4820    1.5200 H   0  0  0  0  0  0  0  0  0  0  0  0
   -4.4970   -1.3430   -3.0430 H   0  0  0  0  0  0  0  0  0  0  0  0
   -4.7540   -3.0500   -2.6630 H   0  0  0  0  0  0  0  0  0  0  0  0
   -2.5380   -2.7390   -3.5200 H   0  0  0  0  0  0  0  0  0  0  0  0
   -2.3760   -3.2120   -1.8300 H   0  0  0  0  0  0  0  0  0  0  0  0
   -0.8030   -1.5500   -2.4550 H   0  0  0  0  0  0  0  0  0  0  0  0
   -2.7560   -0.0780   -0.6840 H   0  0  0  0  0  0  0  0  0  0  0  0
  1 11  1  0  0  0  0
  2 12  1  1  0  0  0
  2  1  1  0  0  0  0
  3  2  1  0  0  0  0
  3 13  1  0  0  0  0
  4  3  1  0  0  0  0
  5  4  1  0  0  0  0
  5 18  1  0  0  0  0
  5 17  1  0  0  0  0
  6 20  1  0  0  0  0
  6  5  1  0  0  0  0
  7  6  1  0  0  0  0
  8  9  2  0  0  0  0
  8  2  1  0  0  0  0
 10  1  1  0  0  0  0
 14  3  1  0  0  0  0
 15  4  1  0  0  0  0
 16  4  1  0  0  0  0
 19  6  1  0  0  0  0
 21  7  1  0  0  0  0
 22  7  1  0  0  0  0
 23  8  1  0  0  0  0
 24 32  1  1  0  0  0
 24 23  1  0  0  0  0
 25 24  1  0  0  0  0
 25 34  1  0  0  0  0
 26 25  1  0  0  0  0
 27 26  2  0  0  0  0
 28 24  1  0  0  0  0
 29 28  2  0  0  0  0
 30 26  1  0  0  0  0
 31 23  1  0  0  0  0
 33 25  1  0  0  0  0
 35 30  1  0  0  0  0
 36 46  1  0  0  0  0
 36 47  1  0  0  0  0
 37 36  1  0  0  0  0
 38 37  1  0  0  0  0
 39 38  1  0  0  0  0
 39 40  1  0  0  0  0
 39 51  1  0  0  0  0
 40 52  1  6  0  0  0
 40 41  1  0  0  0  0
 41 53  1  0  0  0  0
 41 28  1  0  0  0  0
 42 43  1  0  0  0  0
 42 40  1  0  0  0  0
 44 42  2  0  0  0  0
 45 36  1  0  0  0  0
 48 38  1  0  0  0  0
 49 38  1  0  0  0  0
 50 39  1  0  0  0  0
M  END
$$$$
