KDP.pdb
 OpenBabel07022418493D

 50 50  0  0  1  0  0  0  0  0999 V2000
   -0.0990   -2.6190    1.8270 N   0  0  0  0  0  0  0  0  0  0  0  0
    1.0930   -1.6970    1.9580 C   0  0  1  0  0  0  0  0  0  0  0  0
    2.2660   -2.4900    1.5830 C   0  0  0  0  0  0  0  0  0  0  0  0
    3.6310   -1.9710    1.5780 C   0  0  0  0  0  0  0  0  0  0  0  0
    4.0480   -0.8890    0.6740 C   0  0  0  0  0  0  0  0  0  0  0  0
    5.5620   -0.6650    0.9670 C   0  0  0  0  0  0  0  0  0  0  0  0
    5.6250   -0.3000    2.3660 N   0  0  0  0  0  0  0  0  0  0  0  0
    0.7480   -0.4770    1.2710 C   0  0  0  0  0  0  0  0  0  0  0  0
    1.3030    0.6050    1.5590 O   0  0  0  0  0  0  0  0  0  0  0  0
   -0.7500   -2.4740    2.6040 H   0  0  0  0  0  0  0  0  0  0  0  0
    0.2150   -3.5870    1.6950 H   0  0  0  0  0  0  0  0  0  0  0  0
    1.1330   -1.5180    3.0720 H   0  0  0  0  0  0  0  0  0  0  0  0
    2.2840   -3.3650    2.3390 H   0  0  0  0  0  0  0  0  0  0  0  0
    2.0570   -3.1120    0.6250 H   0  0  0  0  0  0  0  0  0  0  0  0
    4.3220   -2.8590    1.3430 H   0  0  0  0  0  0  0  0  0  0  0  0
    3.9690   -1.7380    2.6460 H   0  0  0  0  0  0  0  0  0  0  0  0
    4.0030   -1.1900   -0.4100 H   0  0  0  0  0  0  0  0  0  0  0  0
    3.6250    0.0910    0.7530 H   0  0  0  0  0  0  0  0  0  0  0  0
    5.8880    0.1580    0.3280 H   0  0  0  0  0  0  0  0  0  0  0  0
    6.0690   -1.6230    0.8110 H   0  0  0  0  0  0  0  0  0  0  0  0
    5.8870   -1.1120    2.9500 H   0  0  0  0  0  0  0  0  0  0  0  0
    4.7350    0.1520    2.6840 H   0  0  0  0  0  0  0  0  0  0  0  0
   -0.2510   -0.4860    0.2310 N   0  0  0  0  0  0  0  0  0  0  0  0
   -0.5910    0.7200   -0.4570 C   0  0  1  0  0  0  0  0  0  0  0  0
   -0.2420    0.5230   -1.9410 C   0  0  0  0  0  0  0  0  0  0  0  0
    1.2160    0.2400   -2.0760 C   0  0  0  0  0  0  0  0  0  0  0  0
    1.6710   -0.9240   -1.8350 O   0  0  0  0  0  0  0  0  0  0  0  0
   -1.9980    1.1220   -0.4240 C   0  0  0  0  0  0  0  0  0  0  0  0
   -2.3080    2.1520   -1.1480 O   0  0  0  0  0  0  0  0  0  0  0  0
    2.1050    1.2280   -2.4640 O   0  0  0  0  0  0  0  0  0  0  0  0
   -0.6780   -1.4040    0.0190 H   0  0  0  0  0  0  0  0  0  0  0  0
    0.0640    1.5670   -0.1000 H   0  0  0  0  0  0  0  0  0  0  0  0
   -0.8040   -0.3550   -2.3290 H   0  0  0  0  0  0  0  0  0  0  0  0
   -0.5220    1.4120   -2.5140 H   0  0  0  0  0  0  0  0  0  0  0  0
    3.0310    1.2350   -2.0070 H   0  0  0  0  0  0  0  0  0  0  0  0
   -3.0570    0.5420    0.2850 N   0  0  0  0  0  0  0  0  0  0  0  0
   -4.4670    0.9910    0.2120 C   0  0  0  0  0  0  0  0  0  0  0  0
   -5.2080    0.2770    1.2900 C   0  0  0  0  0  0  0  0  0  0  0  0
   -4.0940   -0.0880    2.2450 C   0  0  0  0  0  0  0  0  0  0  0  0
   -3.0410   -0.5570    1.2190 C   0  0  1  0  0  0  0  0  0  0  0  0
   -3.4930   -1.7740    0.5350 C   0  0  0  0  0  0  0  0  0  0  0  0
   -3.5580   -2.8560    1.1560 O   0  0  0  0  0  0  0  0  0  0  0  0
   -3.8500   -1.7400   -0.7950 O   0  0  0  0  0  0  0  0  0  0  0  0
   -4.5270    2.0700    0.3790 H   0  0  0  0  0  0  0  0  0  0  0  0
   -4.8490    0.6610   -0.7720 H   0  0  0  0  0  0  0  0  0  0  0  0
   -5.6540   -0.6910    0.9490 H   0  0  0  0  0  0  0  0  0  0  0  0
   -5.9790    0.8920    1.7970 H   0  0  0  0  0  0  0  0  0  0  0  0
   -4.3530   -0.8700    2.9530 H   0  0  0  0  0  0  0  0  0  0  0  0
   -3.6760    0.8290    2.6860 H   0  0  0  0  0  0  0  0  0  0  0  0
   -2.0650   -0.6650    1.7420 H   0  0  0  0  0  0  0  0  0  0  0  0
  1  2  1  0  0  0  0
  1 10  1  0  0  0  0
  2 12  1  1  0  0  0
  3  2  1  0  0  0  0
  3 13  1  0  0  0  0
  4  3  1  0  0  0  0
  4 16  1  0  0  0  0
  5 18  1  0  0  0  0
  5  6  1  0  0  0  0
  5  4  1  0  0  0  0
  6  7  1  0  0  0  0
  7 22  1  0  0  0  0
  7 21  1  0  0  0  0
  8  9  2  0  0  0  0
  8  2  1  0  0  0  0
 11  1  1  0  0  0  0
 14  3  1  0  0  0  0
 15  4  1  0  0  0  0
 17  5  1  0  0  0  0
 19  6  1  0  0  0  0
 20  6  1  0  0  0  0
 23  8  1  0  0  0  0
 24 28  1  0  0  0  0
 24 32  1  1  0  0  0
 24 23  1  0  0  0  0
 25 24  1  0  0  0  0
 26 25  1  0  0  0  0
 26 27  2  0  0  0  0
 28 36  1  0  0  0  0
 29 28  2  0  0  0  0
 30 26  1  0  0  0  0
 30 35  1  0  0  0  0
 31 23  1  0  0  0  0
 33 25  1  0  0  0  0
 34 25  1  0  0  0  0
 36 40  1  0  0  0  0
 37 36  1  0  0  0  0
 37 44  1  0  0  0  0
 37 38  1  0  0  0  0
 38 47  1  0  0  0  0
 38 39  1  0  0  0  0
 39 49  1  0  0  0  0
 39 48  1  0  0  0  0
 40 50  1  1  0  0  0
 40 39  1  0  0  0  0
 41 42  1  0  0  0  0
 41 40  1  0  0  0  0
 43 41  2  0  0  0  0
 45 37  1  0  0  0  0
 46 38  1  0  0  0  0
M  END
$$$$
