KDQ.pdb
 OpenBabel07022418493D

 53 52  0  0  1  0  0  0  0  0999 V2000
   -0.6740   -1.6830    2.8790 N   0  0  0  0  0  0  0  0  0  0  0  0
   -0.8000   -0.4400    2.1400 C   0  0  1  0  0  0  0  0  0  0  0  0
   -0.4180    0.7540    2.9650 C   0  0  0  0  0  0  0  0  0  0  0  0
    1.0070    0.7020    3.4560 C   0  0  0  0  0  0  0  0  0  0  0  0
    1.3330    1.9300    4.2800 C   0  0  0  0  0  0  0  0  0  0  0  0
    2.7680    1.8840    4.7780 C   0  0  0  0  0  0  0  0  0  0  0  0
    3.6820    1.8300    3.6690 N   0  0  0  0  0  0  0  0  0  0  0  0
   -0.0620   -0.5320    0.8670 C   0  0  0  0  0  0  0  0  0  0  0  0
    0.5490   -1.5800    0.5700 O   0  0  0  0  0  0  0  0  0  0  0  0
   -1.2220   -2.3980    2.3290 H   0  0  0  0  0  0  0  0  0  0  0  0
   -1.2310   -1.5290    3.7740 H   0  0  0  0  0  0  0  0  0  0  0  0
   -1.8900   -0.3330    1.9110 H   0  0  0  0  0  0  0  0  0  0  0  0
   -0.6150    1.6840    2.3970 H   0  0  0  0  0  0  0  0  0  0  0  0
   -1.0820    0.7720    3.8540 H   0  0  0  0  0  0  0  0  0  0  0  0
    1.2550   -0.2220    3.9750 H   0  0  0  0  0  0  0  0  0  0  0  0
    1.6640    0.7590    2.5500 H   0  0  0  0  0  0  0  0  0  0  0  0
    0.6630    1.9990    5.1710 H   0  0  0  0  0  0  0  0  0  0  0  0
    1.2190    2.8610    3.7230 H   0  0  0  0  0  0  0  0  0  0  0  0
    2.8910    0.9340    5.3540 H   0  0  0  0  0  0  0  0  0  0  0  0
    2.9830    2.7140    5.4670 H   0  0  0  0  0  0  0  0  0  0  0  0
    3.7570    0.9030    3.2360 H   0  0  0  0  0  0  0  0  0  0  0  0
    4.6200    2.2520    3.8990 H   0  0  0  0  0  0  0  0  0  0  0  0
   -0.0350    0.5580   -0.0330 N   0  0  0  0  0  0  0  0  0  0  0  0
    0.6730    0.4930   -1.2660 C   0  0  1  0  0  0  0  0  0  0  0  0
    2.1610    0.2100   -1.0960 C   0  0  0  0  0  0  0  0  0  0  0  0
    2.7580    1.2920   -0.2770 C   0  0  0  0  0  0  0  0  0  0  0  0
    3.9840    1.2330   -0.0260 O   0  0  0  0  0  0  0  0  0  0  0  0
    0.1170   -0.4200   -2.2680 C   0  0  0  0  0  0  0  0  0  0  0  0
    0.7120   -0.5240   -3.3710 O   0  0  0  0  0  0  0  0  0  0  0  0
    1.9830    2.3380    0.1970 O   0  0  0  0  0  0  0  0  0  0  0  0
   -0.5560    1.4680    0.2000 H   0  0  0  0  0  0  0  0  0  0  0  0
    0.6680    1.5210   -1.7580 H   0  0  0  0  0  0  0  0  0  0  0  0
    2.2780   -0.7870   -0.6650 H   0  0  0  0  0  0  0  0  0  0  0  0
    2.5650    0.2530   -2.1520 H   0  0  0  0  0  0  0  0  0  0  0  0
    2.4110    3.2160    0.4570 H   0  0  0  0  0  0  0  0  0  0  0  0
   -2.8640   -5.3200    0.5700 N   0  0  0  0  0  0  0  0  0  0  0  0
   -2.2190   -5.0000   -0.6390 C   0  0  0  0  0  0  0  0  0  0  0  0
   -1.5900   -5.9120   -1.2340 O   0  0  0  0  0  0  0  0  0  0  0  0
   -2.3110   -3.6090   -1.1520 C   0  0  0  0  0  0  0  0  0  0  0  0
   -1.5540   -3.4760   -2.4580 C   0  0  0  0  0  0  0  0  0  0  0  0
   -1.6170   -2.0920   -3.0180 C   0  0  2  0  0  0  0  0  0  0  0  0
   -1.0370   -1.1810   -2.0610 N   0  0  0  0  0  0  0  0  0  0  0  0
   -2.9870   -1.6890   -3.4150 C   0  0  0  0  0  0  0  0  0  0  0  0
   -3.5660   -0.6610   -2.9560 O   0  0  0  0  0  0  0  0  0  0  0  0
   -3.7040   -2.4460   -4.3300 O   0  0  0  0  0  0  0  0  0  0  0  0
   -3.7680   -4.8440    0.8030 H   0  0  0  0  0  0  0  0  0  0  0  0
   -2.5160   -6.0030    1.2710 H   0  0  0  0  0  0  0  0  0  0  0  0
   -1.9340   -2.9480   -0.3740 H   0  0  0  0  0  0  0  0  0  0  0  0
   -3.3740   -3.3560   -1.3710 H   0  0  0  0  0  0  0  0  0  0  0  0
   -1.8280   -4.2550   -3.1810 H   0  0  0  0  0  0  0  0  0  0  0  0
   -0.4760   -3.6670   -2.2010 H   0  0  0  0  0  0  0  0  0  0  0  0
   -0.9780   -2.0630   -3.9210 H   0  0  0  0  0  0  0  0  0  0  0  0
   -1.5380   -1.0980   -1.1430 H   0  0  0  0  0  0  0  0  0  0  0  0
  1 11  1  0  0  0  0
  2 12  1  6  0  0  0
  2  1  1  0  0  0  0
  2  3  1  0  0  0  0
  3  4  1  0  0  0  0
  3 14  1  0  0  0  0
  4 15  1  0  0  0  0
  4  5  1  0  0  0  0
  5  6  1  0  0  0  0
  5 17  1  0  0  0  0
  6 19  1  0  0  0  0
  6 20  1  0  0  0  0
  7 22  1  0  0  0  0
  7  6  1  0  0  0  0
  8  2  1  0  0  0  0
  9  8  2  0  0  0  0
 10  1  1  0  0  0  0
 13  3  1  0  0  0  0
 16  4  1  0  0  0  0
 18  5  1  0  0  0  0
 21  7  1  0  0  0  0
 23 31  1  0  0  0  0
 23  8  1  0  0  0  0
 24 32  1  6  0  0  0
 24 25  1  0  0  0  0
 24 23  1  0  0  0  0
 25 33  1  0  0  0  0
 25 26  1  0  0  0  0
 26 27  2  0  0  0  0
 26 30  1  0  0  0  0
 28 42  1  0  0  0  0
 28 24  1  0  0  0  0
 29 28  2  0  0  0  0
 30 35  1  0  0  0  0
 34 25  1  0  0  0  0
 36 46  1  0  0  0  0
 36 47  1  0  0  0  0
 37 36  1  0  0  0  0
 38 37  2  0  0  0  0
 39 37  1  0  0  0  0
 39 48  1  0  0  0  0
 40 51  1  0  0  0  0
 40 39  1  0  0  0  0
 41 52  1  6  0  0  0
 41 40  1  0  0  0  0
 41 42  1  0  0  0  0
 42 53  1  0  0  0  0
 43 41  1  0  0  0  0
 43 44  1  0  0  0  0
 45 43  2  0  0  0  0
 49 39  1  0  0  0  0
 50 40  1  0  0  0  0
M  END
$$$$
