KDR.pdb
 OpenBabel07022418493D

 59 58  0  0  1  0  0  0  0  0999 V2000
    1.7160    0.3020    4.0870 N   0  0  0  0  0  0  0  0  0  0  0  0
    1.9090    1.5050    3.2800 C   0  0  1  0  0  0  0  0  0  0  0  0
    3.0670    1.2350    2.3740 C   0  0  0  0  0  0  0  0  0  0  0  0
    2.8060    0.0390    1.4660 C   0  0  0  0  0  0  0  0  0  0  0  0
    4.0340   -0.1410    0.6130 C   0  0  0  0  0  0  0  0  0  0  0  0
    3.9440   -1.2910   -0.3490 C   0  0  0  0  0  0  0  0  0  0  0  0
    2.8500   -1.1240   -1.2650 N   0  0  0  0  0  0  0  0  0  0  0  0
    0.6750    1.8130    2.4680 C   0  0  0  0  0  0  0  0  0  0  0  0
    0.7530    2.8560    1.7970 O   0  0  0  0  0  0  0  0  0  0  0  0
    2.5740    0.2400    4.6880 H   0  0  0  0  0  0  0  0  0  0  0  0
    0.9170    0.4240    4.7680 H   0  0  0  0  0  0  0  0  0  0  0  0
    2.0800    2.3410    3.9760 H   0  0  0  0  0  0  0  0  0  0  0  0
    3.2730    2.0930    1.6840 H   0  0  0  0  0  0  0  0  0  0  0  0
    3.9770    1.0940    2.9750 H   0  0  0  0  0  0  0  0  0  0  0  0
    1.9030    0.1980    0.8470 H   0  0  0  0  0  0  0  0  0  0  0  0
    2.6060   -0.8470    2.1000 H   0  0  0  0  0  0  0  0  0  0  0  0
    4.9130   -0.2340    1.2890 H   0  0  0  0  0  0  0  0  0  0  0  0
    4.1590    0.8130    0.0370 H   0  0  0  0  0  0  0  0  0  0  0  0
    3.7140   -2.2090    0.2540 H   0  0  0  0  0  0  0  0  0  0  0  0
    4.8940   -1.3840   -0.9010 H   0  0  0  0  0  0  0  0  0  0  0  0
    1.9490   -0.9860   -0.8010 H   0  0  0  0  0  0  0  0  0  0  0  0
    3.0970   -0.3960   -1.9440 H   0  0  0  0  0  0  0  0  0  0  0  0
   -0.4370    0.9640    2.5020 N   0  0  0  0  0  0  0  0  0  0  0  0
   -1.6590    1.1350    1.8210 C   0  0  1  0  0  0  0  0  0  0  0  0
   -1.7860    2.3560    0.9270 C   0  0  0  0  0  0  0  0  0  0  0  0
   -1.7230    3.6250    1.6820 C   0  0  0  0  0  0  0  0  0  0  0  0
   -1.5820    4.6990    1.0340 O   0  0  0  0  0  0  0  0  0  0  0  0
   -2.2260   -0.0720    1.2000 C   0  0  0  0  0  0  0  0  0  0  0  0
   -3.3330   -0.0780    0.6040 O   0  0  0  0  0  0  0  0  0  0  0  0
   -1.8100    3.7310    3.0650 O   0  0  0  0  0  0  0  0  0  0  0  0
   -0.3410    0.0950    3.1220 H   0  0  0  0  0  0  0  0  0  0  0  0
   -2.4220    1.4640    2.6580 H   0  0  0  0  0  0  0  0  0  0  0  0
   -0.9320    2.3390    0.2300 H   0  0  0  0  0  0  0  0  0  0  0  0
   -2.7650    2.3220    0.4180 H   0  0  0  0  0  0  0  0  0  0  0  0
   -1.6180    4.6210    3.5470 H   0  0  0  0  0  0  0  0  0  0  0  0
   -2.4960   -5.1480   -4.1640 N   0  0  0  0  0  0  0  0  0  0  0  0
   -1.9770   -3.8190   -3.9050 C   0  0  0  0  0  0  0  0  0  0  0  0
   -1.0380   -3.3410   -4.4980 N   0  0  0  0  0  0  0  0  0  0  0  0
   -2.6510   -3.0770   -2.8830 N   0  0  0  0  0  0  0  0  0  0  0  0
   -2.0390   -1.8930   -2.3380 C   0  0  0  0  0  0  0  0  0  0  0  0
   -0.8090   -2.1830   -1.5350 C   0  0  0  0  0  0  0  0  0  0  0  0
   -0.9980   -3.0630   -0.3560 C   0  0  0  0  0  0  0  0  0  0  0  0
   -1.9370   -2.5480    0.6970 C   0  0  2  0  0  0  0  0  0  0  0  0
   -1.5110   -1.2930    1.2600 N   0  0  0  0  0  0  0  0  0  0  0  0
   -2.0810   -3.6080    1.7240 C   0  0  0  0  0  0  0  0  0  0  0  0
   -1.8600   -3.4200    2.9380 O   0  0  0  0  0  0  0  0  0  0  0  0
   -2.4820   -4.8620    1.2860 O   0  0  0  0  0  0  0  0  0  0  0  0
   -2.9190   -5.3940   -5.0820 H   0  0  0  0  0  0  0  0  0  0  0  0
   -2.4520   -5.8800   -3.4320 H   0  0  0  0  0  0  0  0  0  0  0  0
   -0.3510   -2.7850   -4.8190 H   0  0  0  0  0  0  0  0  0  0  0  0
   -3.5820   -3.3730   -2.5210 H   0  0  0  0  0  0  0  0  0  0  0  0
   -1.6860   -1.2920   -3.2260 H   0  0  0  0  0  0  0  0  0  0  0  0
   -2.7280   -1.2530   -1.7960 H   0  0  0  0  0  0  0  0  0  0  0  0
   -0.0490   -2.6300   -2.2040 H   0  0  0  0  0  0  0  0  0  0  0  0
   -0.3940   -1.1860   -1.2410 H   0  0  0  0  0  0  0  0  0  0  0  0
   -1.4250   -4.0400   -0.7120 H   0  0  0  0  0  0  0  0  0  0  0  0
    0.0050   -3.3300    0.0490 H   0  0  0  0  0  0  0  0  0  0  0  0
   -2.9300   -2.4060    0.2310 H   0  0  0  0  0  0  0  0  0  0  0  0
   -0.5670   -1.3460    1.7520 H   0  0  0  0  0  0  0  0  0  0  0  0
  1 10  1  0  0  0  0
  1 11  1  0  0  0  0
  2 12  1  1  0  0  0
  2  1  1  0  0  0  0
  3 14  1  0  0  0  0
  3  2  1  0  0  0  0
  4 16  1  0  0  0  0
  4  3  1  0  0  0  0
  5 17  1  0  0  0  0
  5  4  1  0  0  0  0
  6 19  1  0  0  0  0
  6  5  1  0  0  0  0
  7 21  1  0  0  0  0
  7  6  1  0  0  0  0
  8 23  1  0  0  0  0
  8  2  1  0  0  0  0
  9  8  2  0  0  0  0
 13  3  1  0  0  0  0
 15  4  1  0  0  0  0
 18  5  1  0  0  0  0
 20  6  1  0  0  0  0
 22  7  1  0  0  0  0
 23 31  1  0  0  0  0
 24 23  1  0  0  0  0
 24 32  1  1  0  0  0
 25 26  1  0  0  0  0
 25 24  1  0  0  0  0
 26 30  1  0  0  0  0
 27 26  2  0  0  0  0
 28 44  1  0  0  0  0
 28 24  1  0  0  0  0
 29 28  2  0  0  0  0
 30 35  1  0  0  0  0
 33 25  1  0  0  0  0
 34 25  1  0  0  0  0
 36 37  1  0  0  0  0
 36 49  1  0  0  0  0
 37 39  1  0  0  0  0
 38 37  2  0  0  0  0
 39 51  1  0  0  0  0
 39 40  1  0  0  0  0
 40 53  1  0  0  0  0
 40 41  1  0  0  0  0
 41 55  1  0  0  0  0
 41 42  1  0  0  0  0
 42 57  1  0  0  0  0
 42 43  1  0  0  0  0
 43 58  1  6  0  0  0
 43 44  1  0  0  0  0
 43 45  1  0  0  0  0
 44 59  1  0  0  0  0
 45 46  1  0  0  0  0
 47 45  2  0  0  0  0
 48 36  1  0  0  0  0
 50 38  1  0  0  0  0
 52 40  1  0  0  0  0
 54 41  1  0  0  0  0
 56 42  1  0  0  0  0
M  END
$$$$
