KDT.pdb
 OpenBabel07022418493D

 50 49  0  0  1  0  0  0  0  0999 V2000
   -0.9050   -1.8470    4.0550 N   0  0  0  0  0  0  0  0  0  0  0  0
    0.5250   -1.3700    3.7910 C   0  0  1  0  0  0  0  0  0  0  0  0
    1.2330   -2.5800    3.3840 C   0  0  0  0  0  0  0  0  0  0  0  0
    2.6560   -2.6700    3.1420 C   0  0  0  0  0  0  0  0  0  0  0  0
    3.4530   -1.8600    2.2340 C   0  0  0  0  0  0  0  0  0  0  0  0
    3.6020   -0.4070    2.5700 C   0  0  0  0  0  0  0  0  0  0  0  0
    4.1940   -0.2490    3.9160 N   0  0  0  0  0  0  0  0  0  0  0  0
    0.2070   -0.4290    2.6460 C   0  0  0  0  0  0  0  0  0  0  0  0
   -0.2310    0.7240    2.8640 O   0  0  0  0  0  0  0  0  0  0  0  0
   -1.1220   -2.4020    3.1980 H   0  0  0  0  0  0  0  0  0  0  0  0
   -0.8320   -2.5340    4.8440 H   0  0  0  0  0  0  0  0  0  0  0  0
    0.8310   -0.8300    4.6660 H   0  0  0  0  0  0  0  0  0  0  0  0
    0.6500   -3.0820    2.5380 H   0  0  0  0  0  0  0  0  0  0  0  0
    1.0210   -3.3660    4.2220 H   0  0  0  0  0  0  0  0  0  0  0  0
    2.8360   -3.7860    2.8360 H   0  0  0  0  0  0  0  0  0  0  0  0
    3.1840   -2.7280    4.1870 H   0  0  0  0  0  0  0  0  0  0  0  0
    4.5220   -2.2670    2.2080 H   0  0  0  0  0  0  0  0  0  0  0  0
    3.1520   -1.9580    1.1540 H   0  0  0  0  0  0  0  0  0  0  0  0
    2.7420    0.2070    2.4290 H   0  0  0  0  0  0  0  0  0  0  0  0
    4.4060    0.0570    1.8880 H   0  0  0  0  0  0  0  0  0  0  0  0
    4.4470    0.7800    4.0140 H   0  0  0  0  0  0  0  0  0  0  0  0
    3.4130   -0.3910    4.6100 H   0  0  0  0  0  0  0  0  0  0  0  0
    0.3820   -0.8180    1.3010 N   0  0  0  0  0  0  0  0  0  0  0  0
    0.0600    0.0350    0.2100 C   0  0  1  0  0  0  0  0  0  0  0  0
    1.0220    0.2200   -0.8860 C   0  0  0  0  0  0  0  0  0  0  0  0
    2.3360    0.7830   -0.5220 C   0  0  0  0  0  0  0  0  0  0  0  0
    3.3830    0.0850   -0.6110 O   0  0  0  0  0  0  0  0  0  0  0  0
   -1.1880   -0.5490   -0.4270 C   0  0  0  0  0  0  0  0  0  0  0  0
   -1.6530   -1.5840    0.0990 O   0  0  0  0  0  0  0  0  0  0  0  0
    2.4420    2.0970   -0.0750 O   0  0  0  0  0  0  0  0  0  0  0  0
    0.7660   -1.7730    1.0280 H   0  0  0  0  0  0  0  0  0  0  0  0
   -0.1900    1.0360    0.6360 H   0  0  0  0  0  0  0  0  0  0  0  0
    1.1870   -0.6860   -1.5150 H   0  0  0  0  0  0  0  0  0  0  0  0
    0.5910    0.9610   -1.6290 H   0  0  0  0  0  0  0  0  0  0  0  0
    3.2050    2.3770    0.5390 H   0  0  0  0  0  0  0  0  0  0  0  0
   -4.7120    0.6690   -0.7930 C   0  0  0  0  0  0  0  0  0  0  0  0
   -4.1820    0.3680   -2.1610 C   0  0  1  0  0  0  0  0  0  0  0  0
   -3.8990    1.5250   -2.8980 O   0  0  0  0  0  0  0  0  0  0  0  0
   -3.0130   -0.5780   -2.1330 C   0  0  2  0  0  0  0  0  0  0  0  0
   -1.8240   -0.0020   -1.5410 N   0  0  0  0  0  0  0  0  0  0  0  0
   -2.7520   -1.0700   -3.5120 C   0  0  0  0  0  0  0  0  0  0  0  0
   -3.6650   -1.6150   -4.2040 O   0  0  0  0  0  0  0  0  0  0  0  0
   -1.5040   -0.9550   -4.0990 O   0  0  0  0  0  0  0  0  0  0  0  0
   -4.6620    1.7550   -0.5220 H   0  0  0  0  0  0  0  0  0  0  0  0
   -5.8080    0.4250   -0.7120 H   0  0  0  0  0  0  0  0  0  0  0  0
   -4.1900    0.0600   -0.0500 H   0  0  0  0  0  0  0  0  0  0  0  0
   -4.9910   -0.1550   -2.7360 H   0  0  0  0  0  0  0  0  0  0  0  0
   -2.9820    1.5260   -3.2620 H   0  0  0  0  0  0  0  0  0  0  0  0
   -3.2940   -1.4530   -1.5140 H   0  0  0  0  0  0  0  0  0  0  0  0
   -1.4300    0.8660   -1.9750 H   0  0  0  0  0  0  0  0  0  0  0  0
  1 11  1  0  0  0  0
  2  1  1  0  0  0  0
  2 12  1  1  0  0  0
  3  2  1  0  0  0  0
  3 14  1  0  0  0  0
  4  3  1  0  0  0  0
  4 16  1  0  0  0  0
  5  6  1  0  0  0  0
  5  4  1  0  0  0  0
  6  7  1  0  0  0  0
  7 21  1  0  0  0  0
  7 22  1  0  0  0  0
  8  9  2  0  0  0  0
  8  2  1  0  0  0  0
 10  1  1  0  0  0  0
 13  3  1  0  0  0  0
 15  4  1  0  0  0  0
 17  5  1  0  0  0  0
 18  5  1  0  0  0  0
 19  6  1  0  0  0  0
 20  6  1  0  0  0  0
 23  8  1  0  0  0  0
 24 32  1  1  0  0  0
 24 23  1  0  0  0  0
 25 26  1  0  0  0  0
 25 24  1  0  0  0  0
 26 30  1  0  0  0  0
 27 26  2  0  0  0  0
 28 29  2  0  0  0  0
 28 24  1  0  0  0  0
 30 35  1  0  0  0  0
 31 23  1  0  0  0  0
 33 25  1  0  0  0  0
 34 25  1  0  0  0  0
 36 45  1  0  0  0  0
 36 44  1  0  0  0  0
 36 46  1  0  0  0  0
 37 47  1  6  0  0  0
 37 39  1  0  0  0  0
 37 36  1  0  0  0  0
 38 37  1  0  0  0  0
 39 40  1  0  0  0  0
 39 49  1  1  0  0  0
 40 28  1  0  0  0  0
 41 39  1  0  0  0  0
 42 41  2  0  0  0  0
 43 41  1  0  0  0  0
 48 38  1  0  0  0  0
 50 40  1  0  0  0  0
M  END
$$$$
