KDV.pdb
 OpenBabel07022418493D

 52 51  0  0  1  0  0  0  0  0999 V2000
    1.6880   -1.8980    3.7660 N   0  0  0  0  0  0  0  0  0  0  0  0
    1.3820   -1.1610    2.5540 C   0  0  1  0  0  0  0  0  0  0  0  0
    1.0250   -2.1060    1.4300 C   0  0  0  0  0  0  0  0  0  0  0  0
    2.1200   -3.0630    1.0860 C   0  0  0  0  0  0  0  0  0  0  0  0
    3.3860   -2.3580    0.6470 C   0  0  0  0  0  0  0  0  0  0  0  0
    4.4620   -3.3670    0.3110 C   0  0  0  0  0  0  0  0  0  0  0  0
    5.6760   -2.7100   -0.1100 N   0  0  0  0  0  0  0  0  0  0  0  0
    0.2500   -0.2290    2.7670 C   0  0  0  0  0  0  0  0  0  0  0  0
   -0.3440   -0.1210    3.8750 O   0  0  0  0  0  0  0  0  0  0  0  0
    2.3300   -2.6860    3.6040 H   0  0  0  0  0  0  0  0  0  0  0  0
    2.0510   -1.2480    4.4730 H   0  0  0  0  0  0  0  0  0  0  0  0
    2.2900   -0.5950    2.2720 H   0  0  0  0  0  0  0  0  0  0  0  0
    0.6930   -1.5950    0.5280 H   0  0  0  0  0  0  0  0  0  0  0  0
    0.1610   -2.7120    1.7960 H   0  0  0  0  0  0  0  0  0  0  0  0
    1.7680   -3.6370    0.1870 H   0  0  0  0  0  0  0  0  0  0  0  0
    2.3460   -3.7790    1.8860 H   0  0  0  0  0  0  0  0  0  0  0  0
    3.2250   -1.7530   -0.2670 H   0  0  0  0  0  0  0  0  0  0  0  0
    3.7780   -1.7040    1.4260 H   0  0  0  0  0  0  0  0  0  0  0  0
    4.1400   -4.0600   -0.5010 H   0  0  0  0  0  0  0  0  0  0  0  0
    4.7030   -3.9690    1.1990 H   0  0  0  0  0  0  0  0  0  0  0  0
    5.4920   -2.0050   -0.8680 H   0  0  0  0  0  0  0  0  0  0  0  0
    6.1790   -2.2630    0.6880 H   0  0  0  0  0  0  0  0  0  0  0  0
   -0.1740    0.5630    1.6880 N   0  0  0  0  0  0  0  0  0  0  0  0
   -1.2540    1.5190    1.7250 C   0  0  1  0  0  0  0  0  0  0  0  0
   -0.7220    2.8510    1.2730 C   0  0  0  0  0  0  0  0  0  0  0  0
    0.3690    3.2920    2.1730 C   0  0  0  0  0  0  0  0  0  0  0  0
    0.7860    2.6470    3.1680 O   0  0  0  0  0  0  0  0  0  0  0  0
   -2.4090    1.0780    0.9010 C   0  0  0  0  0  0  0  0  0  0  0  0
   -3.4130    1.8270    0.8530 O   0  0  0  0  0  0  0  0  0  0  0  0
    1.0160    4.5210    1.9320 O   0  0  0  0  0  0  0  0  0  0  0  0
    0.3230    0.4730    0.7510 H   0  0  0  0  0  0  0  0  0  0  0  0
   -1.6030    1.5890    2.7570 H   0  0  0  0  0  0  0  0  0  0  0  0
   -1.5040    3.6460    1.2960 H   0  0  0  0  0  0  0  0  0  0  0  0
   -0.2760    2.7420    0.2610 H   0  0  0  0  0  0  0  0  0  0  0  0
    1.5050    4.9710    2.7160 H   0  0  0  0  0  0  0  0  0  0  0  0
   -2.7150    0.5490   -2.7010 C   0  0  0  0  0  0  0  0  0  0  0  0
   -3.2590   -0.7220   -2.0670 C   0  0  0  0  0  0  0  0  0  0  0  0
   -2.2640   -1.8330   -2.2180 C   0  0  0  0  0  0  0  0  0  0  0  0
   -3.5880   -0.5230   -0.6180 C   0  0  2  0  0  0  0  0  0  0  0  0
   -2.4500   -0.1330    0.1670 N   0  0  0  0  0  0  0  0  0  0  0  0
   -4.2220   -1.7700   -0.1180 C   0  0  0  0  0  0  0  0  0  0  0  0
   -5.2290   -2.1910   -0.7450 O   0  0  0  0  0  0  0  0  0  0  0  0
   -3.7680   -2.4700    0.9750 O   0  0  0  0  0  0  0  0  0  0  0  0
   -3.3810    1.3920   -2.4250 H   0  0  0  0  0  0  0  0  0  0  0  0
   -2.6420    0.3860   -3.7920 H   0  0  0  0  0  0  0  0  0  0  0  0
   -1.6920    0.6980   -2.2620 H   0  0  0  0  0  0  0  0  0  0  0  0
   -4.2280   -1.0050   -2.5750 H   0  0  0  0  0  0  0  0  0  0  0  0
   -2.7880   -2.7400   -2.6210 H   0  0  0  0  0  0  0  0  0  0  0  0
   -1.4980   -1.5790   -2.9800 H   0  0  0  0  0  0  0  0  0  0  0  0
   -1.7810   -2.1200   -1.2730 H   0  0  0  0  0  0  0  0  0  0  0  0
   -4.3700    0.2740   -0.5290 H   0  0  0  0  0  0  0  0  0  0  0  0
   -1.5980   -0.7450    0.2220 H   0  0  0  0  0  0  0  0  0  0  0  0
  1 11  1  0  0  0  0
  2 12  1  6  0  0  0
  2  8  1  0  0  0  0
  2  1  1  0  0  0  0
  3 14  1  0  0  0  0
  3  2  1  0  0  0  0
  4  3  1  0  0  0  0
  4 16  1  0  0  0  0
  5  4  1  0  0  0  0
  5 18  1  0  0  0  0
  6  5  1  0  0  0  0
  6 20  1  0  0  0  0
  7  6  1  0  0  0  0
  7 22  1  0  0  0  0
  8  9  2  0  0  0  0
 10  1  1  0  0  0  0
 13  3  1  0  0  0  0
 15  4  1  0  0  0  0
 17  5  1  0  0  0  0
 19  6  1  0  0  0  0
 21  7  1  0  0  0  0
 23 24  1  0  0  0  0
 23  8  1  0  0  0  0
 24 32  1  1  0  0  0
 25 33  1  0  0  0  0
 25 24  1  0  0  0  0
 25 26  1  0  0  0  0
 26 27  2  0  0  0  0
 28 24  1  0  0  0  0
 29 28  2  0  0  0  0
 30 26  1  0  0  0  0
 30 35  1  0  0  0  0
 31 23  1  0  0  0  0
 34 25  1  0  0  0  0
 36 44  1  0  0  0  0
 36 46  1  0  0  0  0
 36 37  1  0  0  0  0
 37 39  1  0  0  0  0
 38 37  1  0  0  0  0
 38 50  1  0  0  0  0
 39 51  1  1  0  0  0
 39 41  1  0  0  0  0
 39 40  1  0  0  0  0
 40 52  1  0  0  0  0
 40 28  1  0  0  0  0
 41 43  1  0  0  0  0
 42 41  2  0  0  0  0
 45 36  1  0  0  0  0
 47 37  1  0  0  0  0
 48 38  1  0  0  0  0
 49 38  1  0  0  0  0
M  END
$$$$
