KDW.pdb
 OpenBabel07022418493D

 60 61  0  0  1  0  0  0  0  0999 V2000
    1.6940    1.7340    3.6720 N   0  0  0  0  0  0  0  0  0  0  0  0
    1.3890    1.2190    2.3510 C   0  0  1  0  0  0  0  0  0  0  0  0
    1.2500   -0.2800    2.4860 C   0  0  0  0  0  0  0  0  0  0  0  0
    2.5360   -0.8880    3.0010 C   0  0  0  0  0  0  0  0  0  0  0  0
    3.7070   -0.6290    2.0960 C   0  0  0  0  0  0  0  0  0  0  0  0
    3.4930   -1.2010    0.7050 C   0  0  0  0  0  0  0  0  0  0  0  0
    4.7010   -0.8780   -0.0630 N   0  0  0  0  0  0  0  0  0  0  0  0
    0.1730    1.8690    1.8660 C   0  0  0  0  0  0  0  0  0  0  0  0
   -0.4210    2.7260    2.5770 O   0  0  0  0  0  0  0  0  0  0  0  0
    1.0450    1.2340    4.3390 H   0  0  0  0  0  0  0  0  0  0  0  0
    1.3660    2.7360    3.6790 H   0  0  0  0  0  0  0  0  0  0  0  0
    2.2880    1.4380    1.7230 H   0  0  0  0  0  0  0  0  0  0  0  0
    0.9930   -0.7890    1.5520 H   0  0  0  0  0  0  0  0  0  0  0  0
    0.4650   -0.5370    3.2290 H   0  0  0  0  0  0  0  0  0  0  0  0
    2.4080   -1.9910    3.0590 H   0  0  0  0  0  0  0  0  0  0  0  0
    2.7890   -0.4880    4.0030 H   0  0  0  0  0  0  0  0  0  0  0  0
    4.0330    0.4150    2.0700 H   0  0  0  0  0  0  0  0  0  0  0  0
    4.5660   -1.2150    2.5270 H   0  0  0  0  0  0  0  0  0  0  0  0
    3.4200   -2.3010    0.7230 H   0  0  0  0  0  0  0  0  0  0  0  0
    2.6090   -0.7960    0.2090 H   0  0  0  0  0  0  0  0  0  0  0  0
    4.5470   -0.0730   -0.7090 H   0  0  0  0  0  0  0  0  0  0  0  0
    5.1390   -1.7020   -0.4860 H   0  0  0  0  0  0  0  0  0  0  0  0
   -0.4100    1.5910    0.5930 N   0  0  0  0  0  0  0  0  0  0  0  0
   -1.6260    2.2790    0.1730 C   0  0  1  0  0  0  0  0  0  0  0  0
   -1.3570    2.9070   -1.1710 C   0  0  0  0  0  0  0  0  0  0  0  0
   -0.2520    3.8780   -1.1380 C   0  0  0  0  0  0  0  0  0  0  0  0
    0.3710    4.1170   -0.0710 O   0  0  0  0  0  0  0  0  0  0  0  0
   -2.6520    1.2160   -0.0650 C   0  0  0  0  0  0  0  0  0  0  0  0
   -3.7800    1.5800   -0.4280 O   0  0  0  0  0  0  0  0  0  0  0  0
    0.1340    4.5540   -2.2770 O   0  0  0  0  0  0  0  0  0  0  0  0
    0.0500    0.8990   -0.0050 H   0  0  0  0  0  0  0  0  0  0  0  0
   -1.9730    2.9990    0.9090 H   0  0  0  0  0  0  0  0  0  0  0  0
   -1.1370    2.1060   -1.9110 H   0  0  0  0  0  0  0  0  0  0  0  0
   -2.2820    3.4150   -1.5540 H   0  0  0  0  0  0  0  0  0  0  0  0
    0.9630    5.1680   -2.2590 H   0  0  0  0  0  0  0  0  0  0  0  0
   -2.3990   -0.1490    0.0990 N   0  0  0  0  0  0  0  0  0  0  0  0
   -3.3490   -1.2270   -0.1140 C   0  0  1  0  0  0  0  0  0  0  0  0
   -3.0790   -2.0760   -1.2670 C   0  0  0  0  0  0  0  0  0  0  0  0
   -1.8510   -2.8120   -1.4090 C   0  0  0  0  0  0  0  0  0  0  0  0
   -0.8320   -2.3310   -2.2540 C   0  0  0  0  0  0  0  0  0  0  0  0
    0.1940   -3.1660   -2.2050 N   0  0  0  0  0  0  0  0  0  0  0  0
   -0.0520   -4.1930   -1.3810 C   0  0  0  0  0  0  0  0  0  0  0  0
    0.6520   -5.3080   -0.9810 C   0  0  0  0  0  0  0  0  0  0  0  0
    0.0760   -6.1890   -0.0910 C   0  0  0  0  0  0  0  0  0  0  0  0
   -1.2100   -5.9530    0.4000 C   0  0  0  0  0  0  0  0  0  0  0  0
   -1.9170   -4.8460    0.0070 C   0  0  0  0  0  0  0  0  0  0  0  0
   -1.3410   -3.9660   -0.8810 C   0  0  0  0  0  0  0  0  0  0  0  0
   -3.7880   -1.8670    1.1340 C   0  0  0  0  0  0  0  0  0  0  0  0
   -4.6330   -2.7670    1.1560 O   0  0  0  0  0  0  0  0  0  0  0  0
   -3.2350   -1.4470    2.3430 O   0  0  0  0  0  0  0  0  0  0  0  0
   -1.4350   -0.4510    0.4080 H   0  0  0  0  0  0  0  0  0  0  0  0
   -4.2820   -0.6290   -0.4050 H   0  0  0  0  0  0  0  0  0  0  0  0
   -3.3010   -1.5100   -2.1940 H   0  0  0  0  0  0  0  0  0  0  0  0
   -3.9060   -2.8630   -1.2720 H   0  0  0  0  0  0  0  0  0  0  0  0
   -0.8330   -1.4360   -2.8640 H   0  0  0  0  0  0  0  0  0  0  0  0
    1.1040   -3.0650   -2.7360 H   0  0  0  0  0  0  0  0  0  0  0  0
    1.6500   -5.4870   -1.3650 H   0  0  0  0  0  0  0  0  0  0  0  0
    0.6180   -7.0740    0.2360 H   0  0  0  0  0  0  0  0  0  0  0  0
   -1.5990   -6.6700    1.0840 H   0  0  0  0  0  0  0  0  0  0  0  0
   -2.8990   -4.6750    0.3830 H   0  0  0  0  0  0  0  0  0  0  0  0
  1 11  1  0  0  0  0
  1 10  1  0  0  0  0
  2 12  1  6  0  0  0
  2  3  1  0  0  0  0
  2  1  1  0  0  0  0
  3  4  1  0  0  0  0
  3 14  1  0  0  0  0
  4 15  1  0  0  0  0
  4 16  1  0  0  0  0
  5 18  1  0  0  0  0
  5  4  1  0  0  0  0
  6 19  1  0  0  0  0
  6  5  1  0  0  0  0
  7  6  1  0  0  0  0
  8  2  1  0  0  0  0
  8  9  2  0  0  0  0
 13  3  1  0  0  0  0
 17  5  1  0  0  0  0
 20  6  1  0  0  0  0
 21  7  1  0  0  0  0
 22  7  1  0  0  0  0
 23  8  1  0  0  0  0
 24 23  1  0  0  0  0
 24 32  1  1  0  0  0
 25 26  1  0  0  0  0
 25 24  1  0  0  0  0
 26 27  2  0  0  0  0
 28 36  1  0  0  0  0
 28 24  1  0  0  0  0
 29 28  2  0  0  0  0
 30 35  1  0  0  0  0
 30 26  1  0  0  0  0
 31 23  1  0  0  0  0
 33 25  1  0  0  0  0
 34 25  1  0  0  0  0
 36 51  1  0  0  0  0
 37 52  1  6  0  0  0
 37 36  1  0  0  0  0
 37 48  1  0  0  0  0
 38 37  1  0  0  0  0
 39 38  1  0  0  0  0
 39 47  1  0  0  0  0
 40 41  1  0  0  0  0
 40 39  2  0  0  0  0
 41 42  1  0  0  0  0
 42 43  2  0  0  0  0
 42 47  1  0  0  0  0
 43 44  1  0  0  0  0
 44 58  1  0  0  0  0
 44 45  2  0  0  0  0
 45 59  1  0  0  0  0
 46 60  1  0  0  0  0
 46 45  1  0  0  0  0
 47 46  2  0  0  0  0
 48 49  2  0  0  0  0
 48 50  1  0  0  0  0
 53 38  1  0  0  0  0
 54 38  1  0  0  0  0
 55 40  1  0  0  0  0
 56 41  1  0  0  0  0
 57 43  1  0  0  0  0
M  END
$$$$
