KDY.pdb
 OpenBabel07022418493D

 57 57  0  0  1  0  0  0  0  0999 V2000
    1.8010    1.5240    0.7070 N   0  0  0  0  0  0  0  0  0  0  0  0
    1.6140    1.4230    2.1610 C   0  0  1  0  0  0  0  0  0  0  0  0
    2.0540    2.7330    2.7350 C   0  0  0  0  0  0  0  0  0  0  0  0
    3.5000    2.9940    2.4040 C   0  0  0  0  0  0  0  0  0  0  0  0
    4.4410    1.9540    2.9390 C   0  0  0  0  0  0  0  0  0  0  0  0
    5.8530    2.3650    2.5210 C   0  0  0  0  0  0  0  0  0  0  0  0
    5.9470    2.4310    1.0750 N   0  0  0  0  0  0  0  0  0  0  0  0
    0.2110    1.0870    2.4920 C   0  0  0  0  0  0  0  0  0  0  0  0
   -0.1060    0.9590    3.7010 O   0  0  0  0  0  0  0  0  0  0  0  0
    1.0920    2.2310    0.3960 H   0  0  0  0  0  0  0  0  0  0  0  0
    1.4910    0.6070    0.3180 H   0  0  0  0  0  0  0  0  0  0  0  0
    2.2850    0.6100    2.4990 H   0  0  0  0  0  0  0  0  0  0  0  0
    1.4380    3.5810    2.4360 H   0  0  0  0  0  0  0  0  0  0  0  0
    2.0040    2.6680    3.8620 H   0  0  0  0  0  0  0  0  0  0  0  0
    3.8480    3.9790    2.7720 H   0  0  0  0  0  0  0  0  0  0  0  0
    3.6610    3.0240    1.2930 H   0  0  0  0  0  0  0  0  0  0  0  0
    4.4370    1.9640    4.0390 H   0  0  0  0  0  0  0  0  0  0  0  0
    4.2870    0.9440    2.5260 H   0  0  0  0  0  0  0  0  0  0  0  0
    5.9920    3.4070    2.9030 H   0  0  0  0  0  0  0  0  0  0  0  0
    6.6270    1.7390    2.9840 H   0  0  0  0  0  0  0  0  0  0  0  0
    6.9260    2.2460    0.7450 H   0  0  0  0  0  0  0  0  0  0  0  0
    5.2920    1.7590    0.6160 H   0  0  0  0  0  0  0  0  0  0  0  0
   -0.8120    0.8980    1.5310 N   0  0  0  0  0  0  0  0  0  0  0  0
   -2.1840    0.5690    1.8750 C   0  0  1  0  0  0  0  0  0  0  0  0
   -3.1650    1.6360    1.4570 C   0  0  0  0  0  0  0  0  0  0  0  0
   -3.1890    1.9000    0.0160 C   0  0  0  0  0  0  0  0  0  0  0  0
   -2.4430    1.2470   -0.7540 O   0  0  0  0  0  0  0  0  0  0  0  0
   -2.4920   -0.7420    1.2750 C   0  0  0  0  0  0  0  0  0  0  0  0
   -3.6320   -1.2250    1.4320 O   0  0  0  0  0  0  0  0  0  0  0  0
   -4.0030    2.8500   -0.5780 O   0  0  0  0  0  0  0  0  0  0  0  0
   -0.5330    1.0090    0.5370 H   0  0  0  0  0  0  0  0  0  0  0  0
   -2.3050    0.4860    2.9860 H   0  0  0  0  0  0  0  0  0  0  0  0
   -4.1460    1.3580    1.8690 H   0  0  0  0  0  0  0  0  0  0  0  0
   -2.8530    2.5730    1.9820 H   0  0  0  0  0  0  0  0  0  0  0  0
   -3.7470    3.3500   -1.4280 H   0  0  0  0  0  0  0  0  0  0  0  0
   -2.8140   -7.7140   -3.9260 O   0  0  0  0  0  0  0  0  0  0  0  0
   -2.5410   -6.4640   -3.3410 C   0  0  0  0  0  0  0  0  0  0  0  0
   -1.2410   -6.1510   -3.0590 C   0  0  0  0  0  0  0  0  0  0  0  0
   -0.9770   -4.9300   -2.4890 C   0  0  0  0  0  0  0  0  0  0  0  0
   -1.9450   -3.9940   -2.1790 C   0  0  0  0  0  0  0  0  0  0  0  0
   -1.6780   -2.6840   -1.5660 C   0  0  0  0  0  0  0  0  0  0  0  0
   -1.7930   -2.7520   -0.0760 C   0  0  2  0  0  0  0  0  0  0  0  0
   -1.5280   -1.4510    0.5350 N   0  0  0  0  0  0  0  0  0  0  0  0
   -0.9720   -3.8080    0.5260 C   0  0  0  0  0  0  0  0  0  0  0  0
   -0.1050   -3.5330    1.4320 O   0  0  0  0  0  0  0  0  0  0  0  0
   -3.2560   -4.3720   -2.4910 C   0  0  0  0  0  0  0  0  0  0  0  0
   -3.5480   -5.5840   -3.0610 C   0  0  0  0  0  0  0  0  0  0  0  0
   -1.0420   -5.1500    0.2020 O   0  0  0  0  0  0  0  0  0  0  0  0
   -2.1790   -8.4890   -3.8580 H   0  0  0  0  0  0  0  0  0  0  0  0
   -0.4610   -6.8730   -3.2950 H   0  0  0  0  0  0  0  0  0  0  0  0
    0.0580   -4.6730   -2.2630 H   0  0  0  0  0  0  0  0  0  0  0  0
   -0.6760   -2.3500   -1.9090 H   0  0  0  0  0  0  0  0  0  0  0  0
   -2.4560   -1.9340   -1.9000 H   0  0  0  0  0  0  0  0  0  0  0  0
   -2.8590   -2.9960    0.1650 H   0  0  0  0  0  0  0  0  0  0  0  0
   -0.5850   -1.0200    0.4240 H   0  0  0  0  0  0  0  0  0  0  0  0
   -4.0300   -3.6470   -2.2530 H   0  0  0  0  0  0  0  0  0  0  0  0
   -4.5670   -5.8240   -3.2790 H   0  0  0  0  0  0  0  0  0  0  0  0
  1  2  1  0  0  0  0
  2  8  1  0  0  0  0
  2 12  1  1  0  0  0
  2  3  1  0  0  0  0
  3 14  1  0  0  0  0
  4  3  1  0  0  0  0
  4 15  1  0  0  0  0
  4  5  1  0  0  0  0
  5 17  1  0  0  0  0
  6 19  1  0  0  0  0
  6  5  1  0  0  0  0
  6 20  1  0  0  0  0
  7  6  1  0  0  0  0
  8  9  2  0  0  0  0
 10  1  1  0  0  0  0
 11  1  1  0  0  0  0
 13  3  1  0  0  0  0
 16  4  1  0  0  0  0
 18  5  1  0  0  0  0
 21  7  1  0  0  0  0
 22  7  1  0  0  0  0
 23 24  1  0  0  0  0
 23  8  1  0  0  0  0
 24 32  1  1  0  0  0
 25 33  1  0  0  0  0
 25 24  1  0  0  0  0
 25 34  1  0  0  0  0
 26 25  1  0  0  0  0
 27 26  2  0  0  0  0
 28 29  2  0  0  0  0
 28 24  1  0  0  0  0
 30 26  1  0  0  0  0
 31 23  1  0  0  0  0
 35 30  1  0  0  0  0
 36 49  1  0  0  0  0
 36 37  1  0  0  0  0
 37 47  2  0  0  0  0
 37 38  1  0  0  0  0
 38 39  2  0  0  0  0
 39 51  1  0  0  0  0
 39 40  1  0  0  0  0
 40 41  1  0  0  0  0
 41 42  1  0  0  0  0
 42 54  1  1  0  0  0
 42 44  1  0  0  0  0
 42 43  1  0  0  0  0
 43 28  1  0  0  0  0
 44 45  1  0  0  0  0
 46 56  1  0  0  0  0
 46 40  2  0  0  0  0
 47 46  1  0  0  0  0
 48 44  2  0  0  0  0
 50 38  1  0  0  0  0
 52 41  1  0  0  0  0
 53 41  1  0  0  0  0
 55 43  1  0  0  0  0
 57 47  1  0  0  0  0
M  END
$$$$
