KED.pdb
 OpenBabel07022418493D

 52 51  0  0  1  0  0  0  0  0999 V2000
    0.9430   -0.1950    4.0630 N   0  0  0  0  0  0  0  0  0  0  0  0
    1.6370   -0.2150    2.7670 C   0  0  1  0  0  0  0  0  0  0  0  0
    2.4600   -1.4650    2.7460 C   0  0  0  0  0  0  0  0  0  0  0  0
    3.2650   -1.6880    1.5100 C   0  0  0  0  0  0  0  0  0  0  0  0
    4.2710   -0.6300    1.1970 C   0  0  0  0  0  0  0  0  0  0  0  0
    5.3310   -0.4530    2.2780 C   0  0  0  0  0  0  0  0  0  0  0  0
    6.0480   -1.7120    2.4350 N   0  0  0  0  0  0  0  0  0  0  0  0
    0.6720   -0.1500    1.6370 C   0  0  0  0  0  0  0  0  0  0  0  0
    1.1490   -0.1890    0.4900 O   0  0  0  0  0  0  0  0  0  0  0  0
    0.4290   -1.0710    4.2610 H   0  0  0  0  0  0  0  0  0  0  0  0
    0.3650    0.6610    4.1900 H   0  0  0  0  0  0  0  0  0  0  0  0
    2.2480    0.7120    2.7620 H   0  0  0  0  0  0  0  0  0  0  0  0
    1.7780   -2.3350    2.8550 H   0  0  0  0  0  0  0  0  0  0  0  0
    3.1790   -1.3860    3.6120 H   0  0  0  0  0  0  0  0  0  0  0  0
    3.8830   -2.6210    1.7300 H   0  0  0  0  0  0  0  0  0  0  0  0
    2.6450   -1.9420    0.6610 H   0  0  0  0  0  0  0  0  0  0  0  0
    3.8310    0.3650    1.0160 H   0  0  0  0  0  0  0  0  0  0  0  0
    4.7840   -0.9110    0.2390 H   0  0  0  0  0  0  0  0  0  0  0  0
    5.9850    0.3700    1.9440 H   0  0  0  0  0  0  0  0  0  0  0  0
    4.8000   -0.1810    3.2060 H   0  0  0  0  0  0  0  0  0  0  0  0
    5.5940   -2.2620    3.1900 H   0  0  0  0  0  0  0  0  0  0  0  0
    6.1200   -2.2410    1.5410 H   0  0  0  0  0  0  0  0  0  0  0  0
   -0.7270   -0.0470    1.8340 N   0  0  0  0  0  0  0  0  0  0  0  0
   -1.7360    0.0110    0.8440 C   0  0  1  0  0  0  0  0  0  0  0  0
   -2.0340    1.3360    0.2300 C   0  0  0  0  0  0  0  0  0  0  0  0
   -2.4710    2.3740    1.2360 C   0  0  0  0  0  0  0  0  0  0  0  0
   -1.4130    2.6760    2.2290 C   0  0  0  0  0  0  0  0  0  0  0  0
   -0.2420    2.8860    1.8380 O   0  0  0  0  0  0  0  0  0  0  0  0
   -1.5150   -1.0490   -0.2080 C   0  0  0  0  0  0  0  0  0  0  0  0
   -0.5900   -1.8750   -0.1400 O   0  0  0  0  0  0  0  0  0  0  0  0
   -1.6900    2.7340    3.5990 O   0  0  0  0  0  0  0  0  0  0  0  0
   -1.0120   -0.0210    2.8620 H   0  0  0  0  0  0  0  0  0  0  0  0
   -2.7170   -0.2920    1.3680 H   0  0  0  0  0  0  0  0  0  0  0  0
   -1.2250    1.7400   -0.4070 H   0  0  0  0  0  0  0  0  0  0  0  0
   -2.9110    1.1930   -0.4550 H   0  0  0  0  0  0  0  0  0  0  0  0
   -2.6900    3.3550    0.7310 H   0  0  0  0  0  0  0  0  0  0  0  0
   -3.4150    2.0580    1.7480 H   0  0  0  0  0  0  0  0  0  0  0  0
   -0.9990    3.1050    4.2270 H   0  0  0  0  0  0  0  0  0  0  0  0
   -2.3670   -1.1650   -1.3560 N   0  0  0  0  0  0  0  0  0  0  0  0
   -2.1360   -2.1880   -2.3620 C   0  0  1  0  0  0  0  0  0  0  0  0
   -3.1840   -3.2750   -2.1500 C   0  0  0  0  0  0  0  0  0  0  0  0
   -4.5630   -2.7390   -2.3010 C   0  0  0  0  0  0  0  0  0  0  0  0
   -5.0420   -1.7950   -1.6160 O   0  0  0  0  0  0  0  0  0  0  0  0
   -2.1700   -1.6490   -3.7290 C   0  0  0  0  0  0  0  0  0  0  0  0
   -2.3800   -0.4100   -3.9450 O   0  0  0  0  0  0  0  0  0  0  0  0
   -5.4250   -3.2910   -3.2630 O   0  0  0  0  0  0  0  0  0  0  0  0
   -1.9760   -2.4600   -4.8260 O   0  0  0  0  0  0  0  0  0  0  0  0
   -3.1450   -0.5060   -1.4700 H   0  0  0  0  0  0  0  0  0  0  0  0
   -1.1580   -2.6970   -2.1150 H   0  0  0  0  0  0  0  0  0  0  0  0
   -3.0760   -3.6140   -1.0830 H   0  0  0  0  0  0  0  0  0  0  0  0
   -3.0100   -4.1640   -2.7580 H   0  0  0  0  0  0  0  0  0  0  0  0
   -6.3950   -3.4510   -3.1060 H   0  0  0  0  0  0  0  0  0  0  0  0
  1 11  1  0  0  0  0
  1 10  1  0  0  0  0
  2 12  1  6  0  0  0
  2  1  1  0  0  0  0
  3  2  1  0  0  0  0
  3 13  1  0  0  0  0
  3 14  1  0  0  0  0
  4 15  1  0  0  0  0
  4  3  1  0  0  0  0
  5  4  1  0  0  0  0
  5  6  1  0  0  0  0
  6  7  1  0  0  0  0
  6 20  1  0  0  0  0
  7 21  1  0  0  0  0
  8 23  1  0  0  0  0
  8  2  1  0  0  0  0
  9  8  2  0  0  0  0
 16  4  1  0  0  0  0
 17  5  1  0  0  0  0
 18  5  1  0  0  0  0
 19  6  1  0  0  0  0
 22  7  1  0  0  0  0
 23 32  1  0  0  0  0
 24 33  1  1  0  0  0
 24 23  1  0  0  0  0
 25 24  1  0  0  0  0
 25 26  1  0  0  0  0
 26 37  1  0  0  0  0
 26 27  1  0  0  0  0
 27 31  1  0  0  0  0
 28 27  2  0  0  0  0
 29 30  2  0  0  0  0
 29 24  1  0  0  0  0
 31 38  1  0  0  0  0
 34 25  1  0  0  0  0
 35 25  1  0  0  0  0
 36 26  1  0  0  0  0
 39 29  1  0  0  0  0
 40 41  1  0  0  0  0
 40 49  1  1  0  0  0
 40 39  1  0  0  0  0
 41 50  1  0  0  0  0
 42 41  1  0  0  0  0
 42 43  2  0  0  0  0
 44 40  1  0  0  0  0
 45 44  1  0  0  0  0
 46 52  1  0  0  0  0
 46 42  1  0  0  0  0
 47 44  2  0  0  0  0
 48 39  1  0  0  0  0
 51 41  1  0  0  0  0
M  END
$$$$
