KEH.pdb
 OpenBabel07022418493D

 56 56  0  0  1  0  0  0  0  0999 V2000
    3.1550    1.2190    3.3020 N   0  0  0  0  0  0  0  0  0  0  0  0
    2.1500    1.3480    2.2730 C   0  0  1  0  0  0  0  0  0  0  0  0
    2.6620    0.8030    0.9860 C   0  0  0  0  0  0  0  0  0  0  0  0
    3.0360   -0.6260    0.9280 C   0  0  0  0  0  0  0  0  0  0  0  0
    4.1270   -1.0130    1.8820 C   0  0  0  0  0  0  0  0  0  0  0  0
    4.4800   -2.4910    1.7170 C   0  0  0  0  0  0  0  0  0  0  0  0
    4.9300   -2.7200    0.3550 N   0  0  0  0  0  0  0  0  0  0  0  0
    0.8740    0.7240    2.7000 C   0  0  0  0  0  0  0  0  0  0  0  0
    0.8170    0.1930    3.8290 O   0  0  0  0  0  0  0  0  0  0  0  0
    3.9280    1.8840    3.2230 H   0  0  0  0  0  0  0  0  0  0  0  0
    2.7710    1.1360    4.2580 H   0  0  0  0  0  0  0  0  0  0  0  0
    2.0220    2.4560    2.1200 H   0  0  0  0  0  0  0  0  0  0  0  0
    1.9640    1.0860    0.1330 H   0  0  0  0  0  0  0  0  0  0  0  0
    3.5770    1.4340    0.7380 H   0  0  0  0  0  0  0  0  0  0  0  0
    3.3200   -0.9420   -0.1230 H   0  0  0  0  0  0  0  0  0  0  0  0
    2.1760   -1.3130    1.1630 H   0  0  0  0  0  0  0  0  0  0  0  0
    3.6990   -0.9230    2.9260 H   0  0  0  0  0  0  0  0  0  0  0  0
    5.0010   -0.3540    1.7380 H   0  0  0  0  0  0  0  0  0  0  0  0
    3.5440   -3.0680    1.8560 H   0  0  0  0  0  0  0  0  0  0  0  0
    5.2460   -2.7280    2.4720 H   0  0  0  0  0  0  0  0  0  0  0  0
    4.2640   -3.3310   -0.1740 H   0  0  0  0  0  0  0  0  0  0  0  0
    5.1500   -1.8480   -0.1430 H   0  0  0  0  0  0  0  0  0  0  0  0
   -0.2760    0.7100    1.8770 N   0  0  0  0  0  0  0  0  0  0  0  0
   -1.5200    0.1030    2.2940 C   0  0  1  0  0  0  0  0  0  0  0  0
   -2.6300    1.1370    2.3970 C   0  0  0  0  0  0  0  0  0  0  0  0
   -2.8570    1.8050    1.0480 C   0  0  0  0  0  0  0  0  0  0  0  0
   -3.9400    2.8150    1.1450 C   0  0  0  0  0  0  0  0  0  0  0  0
   -4.2520    3.4580    0.1160 O   0  0  0  0  0  0  0  0  0  0  0  0
   -1.9700   -0.9330    1.3180 C   0  0  0  0  0  0  0  0  0  0  0  0
   -3.0400   -1.5750    1.5120 O   0  0  0  0  0  0  0  0  0  0  0  0
   -4.5970    3.0470    2.3420 O   0  0  0  0  0  0  0  0  0  0  0  0
   -0.1710    1.1750    0.9320 H   0  0  0  0  0  0  0  0  0  0  0  0
   -1.3760   -0.3110    3.3120 H   0  0  0  0  0  0  0  0  0  0  0  0
   -2.3840    1.9310    3.1290 H   0  0  0  0  0  0  0  0  0  0  0  0
   -3.5890    0.6750    2.6880 H   0  0  0  0  0  0  0  0  0  0  0  0
   -1.9390    2.3760    0.7290 H   0  0  0  0  0  0  0  0  0  0  0  0
   -3.0960    1.0430    0.2790 H   0  0  0  0  0  0  0  0  0  0  0  0
   -5.4070    3.6500    2.3840 H   0  0  0  0  0  0  0  0  0  0  0  0
   -1.2490   -1.2510    0.1500 N   0  0  0  0  0  0  0  0  0  0  0  0
   -1.7170   -2.2870   -0.8070 C   0  0  1  0  0  0  0  0  0  0  0  0
   -1.8780   -1.6680   -2.1610 C   0  0  0  0  0  0  0  0  0  0  0  0
   -2.4020   -2.6740   -3.1150 C   0  0  0  0  0  0  0  0  0  0  0  0
   -2.6490   -2.4480   -4.4810 C   0  0  0  0  0  0  0  0  0  0  0  0
   -3.1170   -3.5720   -5.0340 N   0  0  0  0  0  0  0  0  0  0  0  0
   -3.1760   -4.5020   -4.0760 C   0  0  0  0  0  0  0  0  0  0  0  0
   -2.7490   -3.9580   -2.9390 N   0  0  0  0  0  0  0  0  0  0  0  0
   -0.5910   -3.2460   -0.8480 C   0  0  0  0  0  0  0  0  0  0  0  0
    0.4450   -3.0370   -0.1810 O   0  0  0  0  0  0  0  0  0  0  0  0
   -0.6440   -4.3770   -1.6060 O   0  0  0  0  0  0  0  0  0  0  0  0
   -0.3700   -0.7770   -0.0820 H   0  0  0  0  0  0  0  0  0  0  0  0
   -2.6580   -2.7310   -0.4710 H   0  0  0  0  0  0  0  0  0  0  0  0
   -0.9100   -1.2410   -2.5250 H   0  0  0  0  0  0  0  0  0  0  0  0
   -2.6100   -0.8100   -2.0970 H   0  0  0  0  0  0  0  0  0  0  0  0
   -2.4860   -1.5210   -4.9850 H   0  0  0  0  0  0  0  0  0  0  0  0
   -3.3960   -3.7100   -6.0600 H   0  0  0  0  0  0  0  0  0  0  0  0
   -3.5120   -5.5100   -4.2090 H   0  0  0  0  0  0  0  0  0  0  0  0
  1 11  1  0  0  0  0
  2 12  1  6  0  0  0
  2  8  1  0  0  0  0
  2  1  1  0  0  0  0
  3  2  1  0  0  0  0
  4  3  1  0  0  0  0
  4 16  1  0  0  0  0
  4  5  1  0  0  0  0
  5 17  1  0  0  0  0
  6 19  1  0  0  0  0
  6  5  1  0  0  0  0
  6 20  1  0  0  0  0
  7  6  1  0  0  0  0
  8  9  2  0  0  0  0
 10  1  1  0  0  0  0
 13  3  1  0  0  0  0
 14  3  1  0  0  0  0
 15  4  1  0  0  0  0
 18  5  1  0  0  0  0
 21  7  1  0  0  0  0
 22  7  1  0  0  0  0
 23 24  1  0  0  0  0
 23  8  1  0  0  0  0
 24 25  1  0  0  0  0
 24 33  1  1  0  0  0
 25 35  1  0  0  0  0
 25 34  1  0  0  0  0
 26 27  1  0  0  0  0
 26 25  1  0  0  0  0
 27 31  1  0  0  0  0
 28 27  2  0  0  0  0
 29 30  2  0  0  0  0
 29 24  1  0  0  0  0
 31 38  1  0  0  0  0
 32 23  1  0  0  0  0
 36 26  1  0  0  0  0
 37 26  1  0  0  0  0
 39 29  1  0  0  0  0
 40 51  1  1  0  0  0
 40 39  1  0  0  0  0
 41 53  1  0  0  0  0
 41 40  1  0  0  0  0
 42 46  1  0  0  0  0
 42 41  1  0  0  0  0
 43 42  2  0  0  0  0
 44 43  1  0  0  0  0
 44 45  1  0  0  0  0
 45 46  2  0  0  0  0
 47 40  1  0  0  0  0
 47 48  1  0  0  0  0
 49 47  2  0  0  0  0
 50 39  1  0  0  0  0
 52 41  1  0  0  0  0
 54 43  1  0  0  0  0
 55 44  1  0  0  0  0
 56 45  1  0  0  0  0
M  END
$$$$
