KEK.pdb
 OpenBabel07022418493D

 60 59  0  0  1  0  0  0  0  0999 V2000
    1.6830    1.8620    3.8440 N   0  0  0  0  0  0  0  0  0  0  0  0
    1.8720    1.4570    2.4680 C   0  0  1  0  0  0  0  0  0  0  0  0
    2.4580    0.0620    2.4780 C   0  0  0  0  0  0  0  0  0  0  0  0
    3.7890    0.0350    3.2060 C   0  0  0  0  0  0  0  0  0  0  0  0
    4.7700    0.9540    2.5280 C   0  0  0  0  0  0  0  0  0  0  0  0
    6.0880    0.9040    3.2790 C   0  0  0  0  0  0  0  0  0  0  0  0
    7.0760    1.7700    2.6740 N   0  0  0  0  0  0  0  0  0  0  0  0
    0.5120    1.3290    1.8370 C   0  0  0  0  0  0  0  0  0  0  0  0
   -0.5340    1.5590    2.4950 O   0  0  0  0  0  0  0  0  0  0  0  0
    0.8600    2.4880    3.9640 H   0  0  0  0  0  0  0  0  0  0  0  0
    1.6000    1.0680    4.4990 H   0  0  0  0  0  0  0  0  0  0  0  0
    2.5020    2.1340    1.8850 H   0  0  0  0  0  0  0  0  0  0  0  0
    2.5580   -0.3690    1.4710 H   0  0  0  0  0  0  0  0  0  0  0  0
    1.7820   -0.6200    3.0520 H   0  0  0  0  0  0  0  0  0  0  0  0
    4.2230   -0.9780    3.2080 H   0  0  0  0  0  0  0  0  0  0  0  0
    3.6460    0.3550    4.2520 H   0  0  0  0  0  0  0  0  0  0  0  0
    4.4320    2.0120    2.5280 H   0  0  0  0  0  0  0  0  0  0  0  0
    4.9700    0.6460    1.4880 H   0  0  0  0  0  0  0  0  0  0  0  0
    5.8970    1.3110    4.3010 H   0  0  0  0  0  0  0  0  0  0  0  0
    6.4630   -0.1350    3.3030 H   0  0  0  0  0  0  0  0  0  0  0  0
    6.7080    2.0380    1.7290 H   0  0  0  0  0  0  0  0  0  0  0  0
    8.0000    1.3020    2.5410 H   0  0  0  0  0  0  0  0  0  0  0  0
    0.3620    0.9450    0.4820 N   0  0  0  0  0  0  0  0  0  0  0  0
   -0.9850    0.8200   -0.1390 C   0  0  1  0  0  0  0  0  0  0  0  0
   -1.0930    1.8610   -1.2170 C   0  0  0  0  0  0  0  0  0  0  0  0
   -2.3640    1.9170   -1.9720 C   0  0  0  0  0  0  0  0  0  0  0  0
   -3.5750    2.1860   -1.1770 C   0  0  0  0  0  0  0  0  0  0  0  0
   -3.5020    2.3780    0.0600 O   0  0  0  0  0  0  0  0  0  0  0  0
   -1.0950   -0.5690   -0.6170 C   0  0  0  0  0  0  0  0  0  0  0  0
   -0.0750   -1.3510   -0.5780 O   0  0  0  0  0  0  0  0  0  0  0  0
   -4.8450    2.2440   -1.7340 O   0  0  0  0  0  0  0  0  0  0  0  0
    1.2160    0.7520   -0.0730 H   0  0  0  0  0  0  0  0  0  0  0  0
   -1.7050    1.0760    0.6580 H   0  0  0  0  0  0  0  0  0  0  0  0
   -0.8040    2.8700   -0.8490 H   0  0  0  0  0  0  0  0  0  0  0  0
   -0.2900    1.5980   -1.9640 H   0  0  0  0  0  0  0  0  0  0  0  0
   -2.4900    1.0370   -2.6650 H   0  0  0  0  0  0  0  0  0  0  0  0
   -2.2200    2.7690   -2.7280 H   0  0  0  0  0  0  0  0  0  0  0  0
   -5.6120    1.9250   -1.1540 H   0  0  0  0  0  0  0  0  0  0  0  0
   -2.2530   -1.1860   -1.1440 N   0  0  0  0  0  0  0  0  0  0  0  0
   -2.2750   -2.5760   -1.6020 C   0  0  1  0  0  0  0  0  0  0  0  0
   -3.3150   -3.2610   -0.7200 C   0  0  0  0  0  0  0  0  0  0  0  0
   -3.4950   -4.7030   -1.0240 C   0  0  0  0  0  0  0  0  0  0  0  0
   -2.2960   -5.5610   -0.8880 C   0  0  0  0  0  0  0  0  0  0  0  0
   -1.6780   -5.6270    0.4760 C   0  0  0  0  0  0  0  0  0  0  0  0
   -1.2080   -4.3630    0.9780 N   0  0  0  0  0  0  0  0  0  0  0  0
   -2.7240   -2.6220   -3.0180 C   0  0  0  0  0  0  0  0  0  0  0  0
   -3.0100   -1.5530   -3.5980 O   0  0  0  0  0  0  0  0  0  0  0  0
   -2.8340   -3.8130   -3.7110 O   0  0  0  0  0  0  0  0  0  0  0  0
   -3.1350   -0.6510   -1.2010 H   0  0  0  0  0  0  0  0  0  0  0  0
   -1.2920   -3.0450   -1.4740 H   0  0  0  0  0  0  0  0  0  0  0  0
   -3.0510   -3.1310    0.3420 H   0  0  0  0  0  0  0  0  0  0  0  0
   -4.3090   -2.7460   -0.8620 H   0  0  0  0  0  0  0  0  0  0  0  0
   -4.0290   -4.8520   -1.9990 H   0  0  0  0  0  0  0  0  0  0  0  0
   -4.2410   -5.0810   -0.2560 H   0  0  0  0  0  0  0  0  0  0  0  0
   -1.5230   -5.1670   -1.6180 H   0  0  0  0  0  0  0  0  0  0  0  0
   -2.5610   -6.5780   -1.2690 H   0  0  0  0  0  0  0  0  0  0  0  0
   -2.4380   -6.0470    1.1920 H   0  0  0  0  0  0  0  0  0  0  0  0
   -0.8350   -6.3550    0.4920 H   0  0  0  0  0  0  0  0  0  0  0  0
   -0.3000   -4.0880    0.5480 H   0  0  0  0  0  0  0  0  0  0  0  0
   -1.1690   -4.3790    2.0190 H   0  0  0  0  0  0  0  0  0  0  0  0
  1 10  1  0  0  0  0
  1 11  1  0  0  0  0
  2 12  1  6  0  0  0
  2  3  1  0  0  0  0
  2  1  1  0  0  0  0
  3 14  1  0  0  0  0
  3  4  1  0  0  0  0
  4 15  1  0  0  0  0
  4 16  1  0  0  0  0
  5  4  1  0  0  0  0
  5  6  1  0  0  0  0
  6 20  1  0  0  0  0
  6 19  1  0  0  0  0
  7  6  1  0  0  0  0
  8  2  1  0  0  0  0
  8  9  2  0  0  0  0
 13  3  1  0  0  0  0
 17  5  1  0  0  0  0
 18  5  1  0  0  0  0
 21  7  1  0  0  0  0
 22  7  1  0  0  0  0
 23  8  1  0  0  0  0
 24 23  1  0  0  0  0
 24 33  1  1  0  0  0
 25 34  1  0  0  0  0
 25 24  1  0  0  0  0
 26 25  1  0  0  0  0
 26 27  1  0  0  0  0
 27 28  2  0  0  0  0
 29 30  2  0  0  0  0
 29 24  1  0  0  0  0
 31 27  1  0  0  0  0
 31 38  1  0  0  0  0
 32 23  1  0  0  0  0
 35 25  1  0  0  0  0
 36 26  1  0  0  0  0
 37 26  1  0  0  0  0
 39 29  1  0  0  0  0
 40 50  1  1  0  0  0
 40 39  1  0  0  0  0
 40 41  1  0  0  0  0
 41 51  1  0  0  0  0
 42 43  1  0  0  0  0
 42 41  1  0  0  0  0
 42 54  1  0  0  0  0
 43 44  1  0  0  0  0
 44 58  1  0  0  0  0
 44 45  1  0  0  0  0
 44 57  1  0  0  0  0
 45 60  1  0  0  0  0
 46 40  1  0  0  0  0
 47 46  1  0  0  0  0
 48 46  2  0  0  0  0
 49 39  1  0  0  0  0
 52 41  1  0  0  0  0
 53 42  1  0  0  0  0
 55 43  1  0  0  0  0
 56 43  1  0  0  0  0
 59 45  1  0  0  0  0
M  END
$$$$
