KEM.pdb
 OpenBabel07022418493D

 56 55  0  0  1  0  0  0  0  0999 V2000
    1.5640   -0.1620    4.2680 N   0  0  0  0  0  0  0  0  0  0  0  0
    1.2030    0.4040    3.0260 C   0  0  1  0  0  0  0  0  0  0  0  0
    2.2320    0.7300    2.0370 C   0  0  0  0  0  0  0  0  0  0  0  0
    3.1260   -0.2480    1.4370 C   0  0  0  0  0  0  0  0  0  0  0  0
    4.1160   -1.0130    2.1760 C   0  0  0  0  0  0  0  0  0  0  0  0
    3.7970   -1.9480    3.2550 C   0  0  0  0  0  0  0  0  0  0  0  0
    2.8940   -3.0270    2.9250 N   0  0  0  0  0  0  0  0  0  0  0  0
    0.0580   -0.3720    2.4660 C   0  0  0  0  0  0  0  0  0  0  0  0
   -0.3730   -1.3500    3.1060 O   0  0  0  0  0  0  0  0  0  0  0  0
    0.7400   -0.6350    4.6910 H   0  0  0  0  0  0  0  0  0  0  0  0
    2.0130    0.5410    4.8990 H   0  0  0  0  0  0  0  0  0  0  0  0
    0.7190    1.4190    3.2990 H   0  0  0  0  0  0  0  0  0  0  0  0
    1.7430    1.4050    1.2490 H   0  0  0  0  0  0  0  0  0  0  0  0
    2.9130    1.5120    2.5510 H   0  0  0  0  0  0  0  0  0  0  0  0
    2.5530   -0.9170    0.6850 H   0  0  0  0  0  0  0  0  0  0  0  0
    3.7450    0.3580    0.6580 H   0  0  0  0  0  0  0  0  0  0  0  0
    4.8030   -1.5480    1.4450 H   0  0  0  0  0  0  0  0  0  0  0  0
    4.8270   -0.2360    2.6510 H   0  0  0  0  0  0  0  0  0  0  0  0
    3.6930   -1.5600    4.2790 H   0  0  0  0  0  0  0  0  0  0  0  0
    4.8050   -2.5510    3.3930 H   0  0  0  0  0  0  0  0  0  0  0  0
    3.1490   -3.9340    3.4190 H   0  0  0  0  0  0  0  0  0  0  0  0
    1.9120   -2.8500    3.1400 H   0  0  0  0  0  0  0  0  0  0  0  0
   -0.5840   -0.0660    1.2360 N   0  0  0  0  0  0  0  0  0  0  0  0
   -1.6710   -0.7810    0.6800 C   0  0  1  0  0  0  0  0  0  0  0  0
   -3.0060   -0.1070    0.6420 C   0  0  0  0  0  0  0  0  0  0  0  0
   -3.6200    0.2970    1.9300 C   0  0  0  0  0  0  0  0  0  0  0  0
   -2.8910    1.3460    2.6420 C   0  0  0  0  0  0  0  0  0  0  0  0
   -1.9780    2.0210    2.1270 O   0  0  0  0  0  0  0  0  0  0  0  0
   -1.3970   -1.2590   -0.7070 C   0  0  0  0  0  0  0  0  0  0  0  0
   -0.3440   -0.9130   -1.2470 O   0  0  0  0  0  0  0  0  0  0  0  0
   -3.1730    1.6730    3.9810 O   0  0  0  0  0  0  0  0  0  0  0  0
   -0.1880    0.7480    0.7010 H   0  0  0  0  0  0  0  0  0  0  0  0
   -1.8180   -1.6790    1.3710 H   0  0  0  0  0  0  0  0  0  0  0  0
   -3.7760   -0.7400    0.1060 H   0  0  0  0  0  0  0  0  0  0  0  0
   -2.9260    0.7850   -0.0730 H   0  0  0  0  0  0  0  0  0  0  0  0
   -4.6790    0.5960    1.7040 H   0  0  0  0  0  0  0  0  0  0  0  0
   -3.6370   -0.6260    2.5930 H   0  0  0  0  0  0  0  0  0  0  0  0
   -3.1590    2.6800    4.2010 H   0  0  0  0  0  0  0  0  0  0  0  0
    0.9170    0.8450   -4.1770 C   0  0  0  0  0  0  0  0  0  0  0  0
   -0.7010    0.5550   -4.9060 S   0  0  0  0  0  0  0  0  0  0  0  0
   -1.7990   -0.3870   -3.8180 C   0  0  0  0  0  0  0  0  0  0  0  0
   -1.3140   -1.7850   -3.6010 C   0  0  0  0  0  0  0  0  0  0  0  0
   -2.2230   -2.5840   -2.6710 C   0  0  2  0  0  0  0  0  0  0  0  0
   -2.3310   -2.0730   -1.3430 N   0  0  0  0  0  0  0  0  0  0  0  0
   -1.9420   -3.9970   -2.7260 C   0  0  0  0  0  0  0  0  0  0  0  0
   -1.8080   -4.6850   -1.6770 O   0  0  0  0  0  0  0  0  0  0  0  0
   -1.8070   -4.6670   -3.9260 O   0  0  0  0  0  0  0  0  0  0  0  0
    1.4500    1.5910   -4.8320 H   0  0  0  0  0  0  0  0  0  0  0  0
    1.5580   -0.0490   -4.1290 H   0  0  0  0  0  0  0  0  0  0  0  0
    0.8090    1.3560   -3.1890 H   0  0  0  0  0  0  0  0  0  0  0  0
   -2.8000   -0.4010   -4.3730 H   0  0  0  0  0  0  0  0  0  0  0  0
   -1.9810    0.1730   -2.9120 H   0  0  0  0  0  0  0  0  0  0  0  0
   -0.2850   -1.9020   -3.2830 H   0  0  0  0  0  0  0  0  0  0  0  0
   -1.4650   -2.3030   -4.6080 H   0  0  0  0  0  0  0  0  0  0  0  0
   -3.2410   -2.3960   -3.1890 H   0  0  0  0  0  0  0  0  0  0  0  0
   -3.2380   -2.3820   -0.8250 H   0  0  0  0  0  0  0  0  0  0  0  0
  1 10  1  0  0  0  0
  1 11  1  0  0  0  0
  2 12  1  1  0  0  0
  2  1  1  0  0  0  0
  3 14  1  0  0  0  0
  3  2  1  0  0  0  0
  4  3  1  0  0  0  0
  4  5  1  0  0  0  0
  5 18  1  0  0  0  0
  5  6  1  0  0  0  0
  6 20  1  0  0  0  0
  6 19  1  0  0  0  0
  7 22  1  0  0  0  0
  7  6  1  0  0  0  0
  7 21  1  0  0  0  0
  8  2  1  0  0  0  0
  8  9  2  0  0  0  0
 13  3  1  0  0  0  0
 15  4  1  0  0  0  0
 16  4  1  0  0  0  0
 17  5  1  0  0  0  0
 23  8  1  0  0  0  0
 24 23  1  0  0  0  0
 24 33  1  1  0  0  0
 25 24  1  0  0  0  0
 25 26  1  0  0  0  0
 26 37  1  0  0  0  0
 26 27  1  0  0  0  0
 27 31  1  0  0  0  0
 28 27  2  0  0  0  0
 29 24  1  0  0  0  0
 30 29  2  0  0  0  0
 31 38  1  0  0  0  0
 32 23  1  0  0  0  0
 34 25  1  0  0  0  0
 35 25  1  0  0  0  0
 36 26  1  0  0  0  0
 39 49  1  0  0  0  0
 39 50  1  0  0  0  0
 40 39  1  0  0  0  0
 40 41  1  0  0  0  0
 41 42  1  0  0  0  0
 41 52  1  0  0  0  0
 42 53  1  0  0  0  0
 42 43  1  0  0  0  0
 43 55  1  6  0  0  0
 43 44  1  0  0  0  0
 44 56  1  0  0  0  0
 44 29  1  0  0  0  0
 45 43  1  0  0  0  0
 45 46  1  0  0  0  0
 47 45  2  0  0  0  0
 48 39  1  0  0  0  0
 51 41  1  0  0  0  0
 54 42  1  0  0  0  0
M  END
$$$$
