KEP.pdb
 OpenBabel07022418493D

 53 53  0  0  1  0  0  0  0  0999 V2000
    0.9060   -3.0590    0.2160 N   0  0  0  0  0  0  0  0  0  0  0  0
    1.5930   -1.9730    0.9170 C   0  0  1  0  0  0  0  0  0  0  0  0
    3.0370   -2.0450    0.4880 C   0  0  0  0  0  0  0  0  0  0  0  0
    3.9200   -1.0100    1.0970 C   0  0  0  0  0  0  0  0  0  0  0  0
    3.9890   -1.0500    2.5880 C   0  0  0  0  0  0  0  0  0  0  0  0
    4.5120   -2.3770    3.1000 C   0  0  0  0  0  0  0  0  0  0  0  0
    4.5270   -2.2780    4.5590 N   0  0  0  0  0  0  0  0  0  0  0  0
    0.9590   -0.6900    0.5030 C   0  0  0  0  0  0  0  0  0  0  0  0
    1.3560    0.3570    1.0100 O   0  0  0  0  0  0  0  0  0  0  0  0
    0.1040   -3.4430    0.7640 H   0  0  0  0  0  0  0  0  0  0  0  0
    1.5990   -3.8310    0.0020 H   0  0  0  0  0  0  0  0  0  0  0  0
    1.5170   -2.1380    1.9900 H   0  0  0  0  0  0  0  0  0  0  0  0
    3.3780   -3.0790    0.6360 H   0  0  0  0  0  0  0  0  0  0  0  0
    3.0510   -1.8690   -0.6190 H   0  0  0  0  0  0  0  0  0  0  0  0
    4.9580   -1.2180    0.7170 H   0  0  0  0  0  0  0  0  0  0  0  0
    3.6430   -0.0240    0.7280 H   0  0  0  0  0  0  0  0  0  0  0  0
    3.0000   -0.8170    3.0390 H   0  0  0  0  0  0  0  0  0  0  0  0
    4.7430   -0.2890    2.9160 H   0  0  0  0  0  0  0  0  0  0  0  0
    5.5580   -2.4700    2.7440 H   0  0  0  0  0  0  0  0  0  0  0  0
    3.8740   -3.2270    2.7800 H   0  0  0  0  0  0  0  0  0  0  0  0
    3.7550   -1.6430    4.8720 H   0  0  0  0  0  0  0  0  0  0  0  0
    5.4710   -1.8950    4.8310 H   0  0  0  0  0  0  0  0  0  0  0  0
   -0.0870   -0.6400   -0.4590 N   0  0  0  0  0  0  0  0  0  0  0  0
   -0.7360    0.5440   -0.9030 C   0  0  1  0  0  0  0  0  0  0  0  0
   -0.5370    0.7990   -2.3710 C   0  0  0  0  0  0  0  0  0  0  0  0
   -1.1820    2.0150   -2.9390 C   0  0  0  0  0  0  0  0  0  0  0  0
   -0.7780    3.2960   -2.3370 C   0  0  0  0  0  0  0  0  0  0  0  0
   -1.3390    4.3600   -2.6990 O   0  0  0  0  0  0  0  0  0  0  0  0
   -2.1360    0.5890   -0.5210 C   0  0  0  0  0  0  0  0  0  0  0  0
   -2.7450    1.6740   -0.9310 O   0  0  0  0  0  0  0  0  0  0  0  0
    0.2060    3.3980   -1.3750 O   0  0  0  0  0  0  0  0  0  0  0  0
   -0.3670   -1.5540   -0.8780 H   0  0  0  0  0  0  0  0  0  0  0  0
   -0.2170    1.3950   -0.3380 H   0  0  0  0  0  0  0  0  0  0  0  0
    0.5420    0.7020   -2.6680 H   0  0  0  0  0  0  0  0  0  0  0  0
   -1.0250   -0.0730   -2.9050 H   0  0  0  0  0  0  0  0  0  0  0  0
   -0.8550    2.1300   -4.0480 H   0  0  0  0  0  0  0  0  0  0  0  0
   -2.2890    1.9480   -3.0770 H   0  0  0  0  0  0  0  0  0  0  0  0
    0.0900    4.1590   -0.6980 H   0  0  0  0  0  0  0  0  0  0  0  0
   -2.9370   -0.2970    0.1910 N   0  0  0  0  0  0  0  0  0  0  0  0
   -4.3580   -0.0660    0.4070 C   0  0  0  0  0  0  0  0  0  0  0  0
   -4.6310   -0.7140    1.7250 C   0  0  0  0  0  0  0  0  0  0  0  0
   -3.3320   -1.3020    2.2050 C   0  0  0  0  0  0  0  0  0  0  0  0
   -2.6380   -1.5170    0.8350 C   0  0  1  0  0  0  0  0  0  0  0  0
   -3.3230   -2.7030    0.2540 C   0  0  0  0  0  0  0  0  0  0  0  0
   -3.0850   -3.8220    0.8270 O   0  0  0  0  0  0  0  0  0  0  0  0
   -4.1650   -2.7040   -0.8170 O   0  0  0  0  0  0  0  0  0  0  0  0
   -4.5630    1.0330    0.4210 H   0  0  0  0  0  0  0  0  0  0  0  0
   -4.9400   -0.5640   -0.4000 H   0  0  0  0  0  0  0  0  0  0  0  0
   -5.3970   -1.5160    1.5820 H   0  0  0  0  0  0  0  0  0  0  0  0
   -4.9490    0.0300    2.4890 H   0  0  0  0  0  0  0  0  0  0  0  0
   -2.7290   -0.6140    2.7970 H   0  0  0  0  0  0  0  0  0  0  0  0
   -3.4580   -2.2850    2.6980 H   0  0  0  0  0  0  0  0  0  0  0  0
   -1.5740   -1.7520    1.0240 H   0  0  0  0  0  0  0  0  0  0  0  0
  1 10  1  0  0  0  0
  1  2  1  0  0  0  0
  2 12  1  1  0  0  0
  3 13  1  0  0  0  0
  3  2  1  0  0  0  0
  3  4  1  0  0  0  0
  4  5  1  0  0  0  0
  5 18  1  0  0  0  0
  5 17  1  0  0  0  0
  5  6  1  0  0  0  0
  6  7  1  0  0  0  0
  7 22  1  0  0  0  0
  7 21  1  0  0  0  0
  8  2  1  0  0  0  0
  8  9  2  0  0  0  0
 11  1  1  0  0  0  0
 14  3  1  0  0  0  0
 15  4  1  0  0  0  0
 16  4  1  0  0  0  0
 19  6  1  0  0  0  0
 20  6  1  0  0  0  0
 23  8  1  0  0  0  0
 24 29  1  0  0  0  0
 24 23  1  0  0  0  0
 24 33  1  1  0  0  0
 25 24  1  0  0  0  0
 26 25  1  0  0  0  0
 26 27  1  0  0  0  0
 27 31  1  0  0  0  0
 28 27  2  0  0  0  0
 29 39  1  0  0  0  0
 30 29  2  0  0  0  0
 31 38  1  0  0  0  0
 32 23  1  0  0  0  0
 34 25  1  0  0  0  0
 35 25  1  0  0  0  0
 36 26  1  0  0  0  0
 37 26  1  0  0  0  0
 39 40  1  0  0  0  0
 39 43  1  0  0  0  0
 40 47  1  0  0  0  0
 40 41  1  0  0  0  0
 41 42  1  0  0  0  0
 41 50  1  0  0  0  0
 42 52  1  0  0  0  0
 42 51  1  0  0  0  0
 43 53  1  1  0  0  0
 43 42  1  0  0  0  0
 44 45  1  0  0  0  0
 44 43  1  0  0  0  0
 46 44  2  0  0  0  0
 48 40  1  0  0  0  0
 49 41  1  0  0  0  0
M  END
$$$$
