KEQ.pdb
 OpenBabel07022418493D

 56 55  0  0  1  0  0  0  0  0999 V2000
    2.3070   -2.3520    0.9700 N   0  0  0  0  0  0  0  0  0  0  0  0
    1.6910   -2.0180    2.2290 C   0  0  1  0  0  0  0  0  0  0  0  0
    2.6050   -1.3110    3.1810 C   0  0  0  0  0  0  0  0  0  0  0  0
    3.1240   -0.0040    2.6260 C   0  0  0  0  0  0  0  0  0  0  0  0
    4.0360    0.6280    3.6700 C   0  0  0  0  0  0  0  0  0  0  0  0
    4.5890    1.9360    3.1780 C   0  0  0  0  0  0  0  0  0  0  0  0
    5.3500    1.7010    1.9660 N   0  0  0  0  0  0  0  0  0  0  0  0
    0.4470   -1.2120    2.0400 C   0  0  0  0  0  0  0  0  0  0  0  0
   -0.2150   -0.8170    3.0350 O   0  0  0  0  0  0  0  0  0  0  0  0
    3.2620   -2.7290    1.1830 H   0  0  0  0  0  0  0  0  0  0  0  0
    1.7770   -3.1470    0.5460 H   0  0  0  0  0  0  0  0  0  0  0  0
    1.4400   -3.0070    2.7170 H   0  0  0  0  0  0  0  0  0  0  0  0
    3.4770   -2.0000    3.3700 H   0  0  0  0  0  0  0  0  0  0  0  0
    2.0740   -1.1800    4.1320 H   0  0  0  0  0  0  0  0  0  0  0  0
    2.2550    0.6760    2.5110 H   0  0  0  0  0  0  0  0  0  0  0  0
    3.6180   -0.1110    1.6650 H   0  0  0  0  0  0  0  0  0  0  0  0
    3.5020    0.7950    4.6100 H   0  0  0  0  0  0  0  0  0  0  0  0
    4.8820   -0.0680    3.9120 H   0  0  0  0  0  0  0  0  0  0  0  0
    3.7480    2.6210    2.9790 H   0  0  0  0  0  0  0  0  0  0  0  0
    5.2590    2.3450    3.9530 H   0  0  0  0  0  0  0  0  0  0  0  0
    5.9520    0.8680    2.0240 H   0  0  0  0  0  0  0  0  0  0  0  0
    4.7840    1.7800    1.1100 H   0  0  0  0  0  0  0  0  0  0  0  0
   -0.0500   -0.8520    0.7670 N   0  0  0  0  0  0  0  0  0  0  0  0
   -1.2720   -0.0580    0.5700 C   0  0  1  0  0  0  0  0  0  0  0  0
   -0.9860    1.1720   -0.2250 C   0  0  0  0  0  0  0  0  0  0  0  0
   -2.1650    2.0550   -0.4840 C   0  0  0  0  0  0  0  0  0  0  0  0
   -2.8150    2.5880    0.7300 C   0  0  0  0  0  0  0  0  0  0  0  0
   -2.4430    2.3710    1.9090 O   0  0  0  0  0  0  0  0  0  0  0  0
   -2.2290   -0.9700   -0.1100 C   0  0  0  0  0  0  0  0  0  0  0  0
   -3.3960   -0.6190   -0.4150 O   0  0  0  0  0  0  0  0  0  0  0  0
   -3.9510    3.4130    0.6190 O   0  0  0  0  0  0  0  0  0  0  0  0
    0.4510   -1.1470   -0.0910 H   0  0  0  0  0  0  0  0  0  0  0  0
   -1.7200    0.2200    1.5290 H   0  0  0  0  0  0  0  0  0  0  0  0
   -0.5500    0.8820   -1.2040 H   0  0  0  0  0  0  0  0  0  0  0  0
   -0.1980    1.8030    0.2560 H   0  0  0  0  0  0  0  0  0  0  0  0
   -2.9610    1.5520   -1.0970 H   0  0  0  0  0  0  0  0  0  0  0  0
   -1.8720    2.9400   -1.1270 H   0  0  0  0  0  0  0  0  0  0  0  0
   -4.6300    3.3970    1.3690 H   0  0  0  0  0  0  0  0  0  0  0  0
   -1.4220   -0.3080   -4.1150 N   0  0  0  0  0  0  0  0  0  0  0  0
   -1.3680   -1.5460   -3.3860 C   0  0  0  0  0  0  0  0  0  0  0  0
   -0.3980   -1.7200   -2.6400 O   0  0  0  0  0  0  0  0  0  0  0  0
   -2.4170   -2.5390   -3.5370 C   0  0  0  0  0  0  0  0  0  0  0  0
   -2.5200   -3.6110   -2.5160 C   0  0  0  0  0  0  0  0  0  0  0  0
   -2.8230   -3.1960   -1.1260 C   0  0  2  0  0  0  0  0  0  0  0  0
   -1.8920   -2.3250   -0.4730 N   0  0  0  0  0  0  0  0  0  0  0  0
   -3.0830   -4.4320   -0.3120 C   0  0  0  0  0  0  0  0  0  0  0  0
   -2.5250   -4.6300    0.8000 O   0  0  0  0  0  0  0  0  0  0  0  0
   -3.9550   -5.4120   -0.7600 O   0  0  0  0  0  0  0  0  0  0  0  0
   -0.5500    0.0920   -4.5270 H   0  0  0  0  0  0  0  0  0  0  0  0
   -2.3140    0.2160   -4.2510 H   0  0  0  0  0  0  0  0  0  0  0  0
   -3.4420   -2.0400   -3.5600 H   0  0  0  0  0  0  0  0  0  0  0  0
   -2.3690   -3.0500   -4.5350 H   0  0  0  0  0  0  0  0  0  0  0  0
   -3.3930   -4.2610   -2.8410 H   0  0  0  0  0  0  0  0  0  0  0  0
   -1.6590   -4.3340   -2.5600 H   0  0  0  0  0  0  0  0  0  0  0  0
   -3.8280   -2.6570   -1.1540 H   0  0  0  0  0  0  0  0  0  0  0  0
   -0.9320   -2.6970   -0.2320 H   0  0  0  0  0  0  0  0  0  0  0  0
  1 10  1  0  0  0  0
  1  2  1  0  0  0  0
  2 12  1  1  0  0  0
  2  3  1  0  0  0  0
  3 13  1  0  0  0  0
  3 14  1  0  0  0  0
  4  3  1  0  0  0  0
  4  5  1  0  0  0  0
  5 18  1  0  0  0  0
  5 17  1  0  0  0  0
  6  5  1  0  0  0  0
  6 20  1  0  0  0  0
  7 21  1  0  0  0  0
  7  6  1  0  0  0  0
  8  2  1  0  0  0  0
  8  9  2  0  0  0  0
 11  1  1  0  0  0  0
 15  4  1  0  0  0  0
 16  4  1  0  0  0  0
 19  6  1  0  0  0  0
 22  7  1  0  0  0  0
 23  8  1  0  0  0  0
 24 23  1  0  0  0  0
 24 33  1  1  0  0  0
 25 35  1  0  0  0  0
 25 24  1  0  0  0  0
 26 25  1  0  0  0  0
 26 27  1  0  0  0  0
 27 28  2  0  0  0  0
 29 24  1  0  0  0  0
 30 29  2  0  0  0  0
 31 27  1  0  0  0  0
 31 38  1  0  0  0  0
 32 23  1  0  0  0  0
 34 25  1  0  0  0  0
 36 26  1  0  0  0  0
 37 26  1  0  0  0  0
 39 40  1  0  0  0  0
 40 41  2  0  0  0  0
 42 40  1  0  0  0  0
 42 43  1  0  0  0  0
 43 44  1  0  0  0  0
 44 55  1  6  0  0  0
 44 45  1  0  0  0  0
 44 46  1  0  0  0  0
 45 56  1  0  0  0  0
 45 29  1  0  0  0  0
 46 47  1  0  0  0  0
 48 46  2  0  0  0  0
 49 39  1  0  0  0  0
 50 39  1  0  0  0  0
 51 42  1  0  0  0  0
 52 42  1  0  0  0  0
 53 43  1  0  0  0  0
 54 43  1  0  0  0  0
M  END
$$$$
