KES.pdb
 OpenBabel07022418493D

 50 49  0  0  1  0  0  0  0  0999 V2000
    2.5560   -1.5160    3.2330 N   0  0  0  0  0  0  0  0  0  0  0  0
    2.0820   -1.0790    1.9350 C   0  0  1  0  0  0  0  0  0  0  0  0
    1.5500   -2.2280    1.1260 C   0  0  0  0  0  0  0  0  0  0  0  0
    2.5460   -3.3000    0.8520 C   0  0  0  0  0  0  0  0  0  0  0  0
    3.7530   -2.8200    0.0850 C   0  0  0  0  0  0  0  0  0  0  0  0
    4.6950   -3.9840   -0.1380 C   0  0  0  0  0  0  0  0  0  0  0  0
    5.1320   -4.5410    1.1070 N   0  0  0  0  0  0  0  0  0  0  0  0
    0.9520   -0.1190    2.1340 C   0  0  0  0  0  0  0  0  0  0  0  0
    0.5850    0.1660    3.3210 O   0  0  0  0  0  0  0  0  0  0  0  0
    2.0620   -1.0500    4.0250 H   0  0  0  0  0  0  0  0  0  0  0  0
    2.5350   -2.5550    3.3200 H   0  0  0  0  0  0  0  0  0  0  0  0
    2.9330   -0.5650    1.4450 H   0  0  0  0  0  0  0  0  0  0  0  0
    1.0320   -1.8950    0.2050 H   0  0  0  0  0  0  0  0  0  0  0  0
    0.7390   -2.7000    1.7560 H   0  0  0  0  0  0  0  0  0  0  0  0
    2.0430   -4.0580    0.2030 H   0  0  0  0  0  0  0  0  0  0  0  0
    2.8500   -3.8320    1.7630 H   0  0  0  0  0  0  0  0  0  0  0  0
    3.4440   -2.3950   -0.8920 H   0  0  0  0  0  0  0  0  0  0  0  0
    4.3230   -2.0420    0.6110 H   0  0  0  0  0  0  0  0  0  0  0  0
    5.6080   -3.6130   -0.6800 H   0  0  0  0  0  0  0  0  0  0  0  0
    4.1570   -4.7450   -0.7520 H   0  0  0  0  0  0  0  0  0  0  0  0
    6.0760   -4.9470    1.1010 H   0  0  0  0  0  0  0  0  0  0  0  0
    5.0290   -3.8850    1.9200 H   0  0  0  0  0  0  0  0  0  0  0  0
    0.2850    0.4760    1.0430 N   0  0  0  0  0  0  0  0  0  0  0  0
   -0.8250    1.4200    1.1800 C   0  0  1  0  0  0  0  0  0  0  0  0
   -0.4220    2.7250    0.5950 C   0  0  0  0  0  0  0  0  0  0  0  0
   -1.4980    3.7520    0.6880 C   0  0  0  0  0  0  0  0  0  0  0  0
   -1.9290    4.0780    2.0570 C   0  0  0  0  0  0  0  0  0  0  0  0
   -1.3890    3.5790    3.0710 O   0  0  0  0  0  0  0  0  0  0  0  0
   -2.0570    0.9050    0.6040 C   0  0  0  0  0  0  0  0  0  0  0  0
   -3.1230    1.5500    0.7020 O   0  0  0  0  0  0  0  0  0  0  0  0
   -2.9740    4.9680    2.3140 O   0  0  0  0  0  0  0  0  0  0  0  0
    0.5760    0.2490    0.0840 H   0  0  0  0  0  0  0  0  0  0  0  0
   -0.9740    1.5200    2.2710 H   0  0  0  0  0  0  0  0  0  0  0  0
   -0.2070    2.5670   -0.4960 H   0  0  0  0  0  0  0  0  0  0  0  0
    0.5310    3.1220    1.0290 H   0  0  0  0  0  0  0  0  0  0  0  0
   -2.3740    3.5400    0.0350 H   0  0  0  0  0  0  0  0  0  0  0  0
   -1.0370    4.7120    0.2910 H   0  0  0  0  0  0  0  0  0  0  0  0
   -3.1460    5.3070    3.2730 H   0  0  0  0  0  0  0  0  0  0  0  0
   -2.4160   -1.7930   -2.5760 O   0  0  0  0  0  0  0  0  0  0  0  0
   -3.3720   -0.8750   -2.1530 C   0  0  0  0  0  0  0  0  0  0  0  0
   -3.4140   -0.7720   -0.6380 C   0  0  2  0  0  0  0  0  0  0  0  0
   -2.1390   -0.3480   -0.1010 N   0  0  0  0  0  0  0  0  0  0  0  0
   -3.8460   -2.0410   -0.0170 C   0  0  0  0  0  0  0  0  0  0  0  0
   -3.1060   -2.5680    0.8470 O   0  0  0  0  0  0  0  0  0  0  0  0
   -5.0290   -2.6800   -0.3400 O   0  0  0  0  0  0  0  0  0  0  0  0
   -1.9550   -1.5390   -3.3920 H   0  0  0  0  0  0  0  0  0  0  0  0
   -4.3500   -1.2230   -2.4940 H   0  0  0  0  0  0  0  0  0  0  0  0
   -3.2010    0.1360   -2.5350 H   0  0  0  0  0  0  0  0  0  0  0  0
   -4.2080   -0.0140   -0.4140 H   0  0  0  0  0  0  0  0  0  0  0  0
   -1.2920   -0.9110   -0.2070 H   0  0  0  0  0  0  0  0  0  0  0  0
  1 11  1  0  0  0  0
  1 10  1  0  0  0  0
  2 12  1  6  0  0  0
  2  8  1  0  0  0  0
  2  1  1  0  0  0  0
  3 14  1  0  0  0  0
  3  2  1  0  0  0  0
  4  3  1  0  0  0  0
  4 16  1  0  0  0  0
  5 18  1  0  0  0  0
  5  4  1  0  0  0  0
  6  5  1  0  0  0  0
  6  7  1  0  0  0  0
  7 22  1  0  0  0  0
  8  9  2  0  0  0  0
 13  3  1  0  0  0  0
 15  4  1  0  0  0  0
 17  5  1  0  0  0  0
 19  6  1  0  0  0  0
 20  6  1  0  0  0  0
 21  7  1  0  0  0  0
 23 24  1  0  0  0  0
 23  8  1  0  0  0  0
 24 33  1  1  0  0  0
 25 26  1  0  0  0  0
 25 35  1  0  0  0  0
 25 24  1  0  0  0  0
 26 27  1  0  0  0  0
 27 31  1  0  0  0  0
 27 28  2  0  0  0  0
 29 30  2  0  0  0  0
 29 24  1  0  0  0  0
 31 38  1  0  0  0  0
 32 23  1  0  0  0  0
 34 25  1  0  0  0  0
 36 26  1  0  0  0  0
 37 26  1  0  0  0  0
 39 40  1  0  0  0  0
 40 41  1  0  0  0  0
 41 49  1  1  0  0  0
 41 42  1  0  0  0  0
 41 43  1  0  0  0  0
 42 29  1  0  0  0  0
 43 44  1  0  0  0  0
 45 43  2  0  0  0  0
 46 39  1  0  0  0  0
 47 40  1  0  0  0  0
 48 40  1  0  0  0  0
 50 42  1  0  0  0  0
M  END
$$$$
