KET.pdb
 OpenBabel07022418493D

 53 52  0  0  1  0  0  0  0  0999 V2000
   -0.4360   -2.3820    3.7170 N   0  0  0  0  0  0  0  0  0  0  0  0
    0.4830   -1.1820    3.7800 C   0  0  1  0  0  0  0  0  0  0  0  0
    1.8110   -1.7890    4.0010 C   0  0  0  0  0  0  0  0  0  0  0  0
    3.0230   -0.9980    4.1700 C   0  0  0  0  0  0  0  0  0  0  0  0
    3.5080   -0.0860    3.1150 C   0  0  0  0  0  0  0  0  0  0  0  0
    4.8460    0.4980    3.6700 C   0  0  0  0  0  0  0  0  0  0  0  0
    5.4060    1.4050    2.7150 N   0  0  0  0  0  0  0  0  0  0  0  0
    0.3140   -0.5810    2.4320 C   0  0  0  0  0  0  0  0  0  0  0  0
    0.5160    0.6340    2.1630 O   0  0  0  0  0  0  0  0  0  0  0  0
   -0.1740   -3.0190    4.4810 H   0  0  0  0  0  0  0  0  0  0  0  0
   -1.3920   -1.9800    3.8190 H   0  0  0  0  0  0  0  0  0  0  0  0
    0.0820   -0.5880    4.5950 H   0  0  0  0  0  0  0  0  0  0  0  0
    1.7700   -2.5070    4.8970 H   0  0  0  0  0  0  0  0  0  0  0  0
    1.9710   -2.5560    3.1590 H   0  0  0  0  0  0  0  0  0  0  0  0
    3.0570   -0.4180    5.1380 H   0  0  0  0  0  0  0  0  0  0  0  0
    3.8750   -1.7480    4.3350 H   0  0  0  0  0  0  0  0  0  0  0  0
    2.9160    0.8670    2.9960 H   0  0  0  0  0  0  0  0  0  0  0  0
    3.7610   -0.5410    2.1500 H   0  0  0  0  0  0  0  0  0  0  0  0
    5.5110   -0.3050    3.9860 H   0  0  0  0  0  0  0  0  0  0  0  0
    4.5400    1.0700    4.5690 H   0  0  0  0  0  0  0  0  0  0  0  0
    6.0440    2.0800    3.2010 H   0  0  0  0  0  0  0  0  0  0  0  0
    4.6530    1.9780    2.2870 H   0  0  0  0  0  0  0  0  0  0  0  0
   -0.1030   -1.4230    1.3540 N   0  0  0  0  0  0  0  0  0  0  0  0
   -0.2750   -0.8410    0.0010 C   0  0  1  0  0  0  0  0  0  0  0  0
    0.7420   -1.5290   -0.8520 C   0  0  0  0  0  0  0  0  0  0  0  0
    0.7030   -1.0680   -2.2770 C   0  0  0  0  0  0  0  0  0  0  0  0
    1.7750   -1.7590   -3.0870 C   0  0  0  0  0  0  0  0  0  0  0  0
    1.8840   -1.4900   -4.3040 O   0  0  0  0  0  0  0  0  0  0  0  0
   -1.6710   -0.9810   -0.3590 C   0  0  0  0  0  0  0  0  0  0  0  0
   -2.4050   -1.7230    0.3870 O   0  0  0  0  0  0  0  0  0  0  0  0
    2.6400   -2.6780   -2.5320 O   0  0  0  0  0  0  0  0  0  0  0  0
   -0.2820   -2.4290    1.5220 H   0  0  0  0  0  0  0  0  0  0  0  0
   -0.0220    0.2330    0.0900 H   0  0  0  0  0  0  0  0  0  0  0  0
    1.7500   -1.2070   -0.4520 H   0  0  0  0  0  0  0  0  0  0  0  0
    0.7430   -2.6260   -0.7490 H   0  0  0  0  0  0  0  0  0  0  0  0
   -0.2770   -1.3040   -2.7590 H   0  0  0  0  0  0  0  0  0  0  0  0
    0.8720    0.0130   -2.3860 H   0  0  0  0  0  0  0  0  0  0  0  0
    3.6080   -2.7420   -2.8420 H   0  0  0  0  0  0  0  0  0  0  0  0
   -6.0150    0.3990   -2.0320 C   0  0  0  0  0  0  0  0  0  0  0  0
   -4.5580    0.6590   -1.7130 C   0  0  1  0  0  0  0  0  0  0  0  0
   -4.4290    1.3220   -0.5060 O   0  0  0  0  0  0  0  0  0  0  0  0
   -3.7900   -0.6410   -1.6890 C   0  0  2  0  0  0  0  0  0  0  0  0
   -2.3610   -0.3960   -1.4480 N   0  0  0  0  0  0  0  0  0  0  0  0
   -3.9750   -1.2970   -3.0160 C   0  0  0  0  0  0  0  0  0  0  0  0
   -5.0970   -1.6000   -3.4350 O   0  0  0  0  0  0  0  0  0  0  0  0
   -2.8810   -1.5940   -3.8380 O   0  0  0  0  0  0  0  0  0  0  0  0
   -6.3610   -0.5560   -1.5960 H   0  0  0  0  0  0  0  0  0  0  0  0
   -6.6270    1.2550   -1.6220 H   0  0  0  0  0  0  0  0  0  0  0  0
   -6.2020    0.4390   -3.1420 H   0  0  0  0  0  0  0  0  0  0  0  0
   -4.1720    1.3110   -2.5250 H   0  0  0  0  0  0  0  0  0  0  0  0
   -4.5420    2.2810   -0.6660 H   0  0  0  0  0  0  0  0  0  0  0  0
   -4.1400   -1.3110   -0.9020 H   0  0  0  0  0  0  0  0  0  0  0  0
   -1.8090    0.2350   -2.0610 H   0  0  0  0  0  0  0  0  0  0  0  0
  1  2  1  0  0  0  0
  1 11  1  0  0  0  0
  1 10  1  0  0  0  0
  2  3  1  0  0  0  0
  2 12  1  1  0  0  0
  3  4  1  0  0  0  0
  3 13  1  0  0  0  0
  4 16  1  0  0  0  0
  4 15  1  0  0  0  0
  5  6  1  0  0  0  0
  5  4  1  0  0  0  0
  6 19  1  0  0  0  0
  6 20  1  0  0  0  0
  7 21  1  0  0  0  0
  7  6  1  0  0  0  0
  8  2  1  0  0  0  0
  9  8  2  0  0  0  0
 14  3  1  0  0  0  0
 17  5  1  0  0  0  0
 18  5  1  0  0  0  0
 22  7  1  0  0  0  0
 23 32  1  0  0  0  0
 23  8  1  0  0  0  0
 24 33  1  1  0  0  0
 24 23  1  0  0  0  0
 25 35  1  0  0  0  0
 25 34  1  0  0  0  0
 25 24  1  0  0  0  0
 26 25  1  0  0  0  0
 27 31  1  0  0  0  0
 27 26  1  0  0  0  0
 28 27  2  0  0  0  0
 29 24  1  0  0  0  0
 29 30  2  0  0  0  0
 36 26  1  0  0  0  0
 37 26  1  0  0  0  0
 38 31  1  0  0  0  0
 39 40  1  0  0  0  0
 39 48  1  0  0  0  0
 39 47  1  0  0  0  0
 40 50  1  6  0  0  0
 40 42  1  0  0  0  0
 40 41  1  0  0  0  0
 42 43  1  0  0  0  0
 42 52  1  1  0  0  0
 43 29  1  0  0  0  0
 44 42  1  0  0  0  0
 45 44  1  0  0  0  0
 46 44  2  0  0  0  0
 49 39  1  0  0  0  0
 51 41  1  0  0  0  0
 53 43  1  0  0  0  0
M  END
$$$$
