KEV.pdb
 OpenBabel07022418493D

 55 54  0  0  1  0  0  0  0  0999 V2000
    1.9480   -1.0520    2.9450 N   0  0  0  0  0  0  0  0  0  0  0  0
    1.9690   -0.5420    1.5710 C   0  0  1  0  0  0  0  0  0  0  0  0
    2.2990   -1.7320    0.7020 C   0  0  0  0  0  0  0  0  0  0  0  0
    2.3720   -1.4350   -0.7550 C   0  0  0  0  0  0  0  0  0  0  0  0
    3.4250   -0.4040   -1.0920 C   0  0  0  0  0  0  0  0  0  0  0  0
    4.8080   -0.8580   -0.6700 C   0  0  0  0  0  0  0  0  0  0  0  0
    5.7290    0.1980   -1.0410 N   0  0  0  0  0  0  0  0  0  0  0  0
    0.6740    0.0830    1.2220 C   0  0  0  0  0  0  0  0  0  0  0  0
    0.5310    0.6040    0.1030 O   0  0  0  0  0  0  0  0  0  0  0  0
    1.4480   -1.9720    3.0040 H   0  0  0  0  0  0  0  0  0  0  0  0
    2.8950   -1.1460    3.3460 H   0  0  0  0  0  0  0  0  0  0  0  0
    2.8180    0.1760    1.5260 H   0  0  0  0  0  0  0  0  0  0  0  0
    3.2370   -2.1820    1.0580 H   0  0  0  0  0  0  0  0  0  0  0  0
    1.5100   -2.5140    0.8470 H   0  0  0  0  0  0  0  0  0  0  0  0
    2.7200   -2.3900   -1.2490 H   0  0  0  0  0  0  0  0  0  0  0  0
    1.4160   -1.1790   -1.2120 H   0  0  0  0  0  0  0  0  0  0  0  0
    3.1950    0.5180   -0.5490 H   0  0  0  0  0  0  0  0  0  0  0  0
    3.5000   -0.2560   -2.2080 H   0  0  0  0  0  0  0  0  0  0  0  0
    5.0300   -1.7650   -1.2990 H   0  0  0  0  0  0  0  0  0  0  0  0
    4.8540   -1.1120    0.4080 H   0  0  0  0  0  0  0  0  0  0  0  0
    5.1980    1.0950   -1.0220 H   0  0  0  0  0  0  0  0  0  0  0  0
    6.0260    0.0460   -2.0300 H   0  0  0  0  0  0  0  0  0  0  0  0
   -0.4330    0.1220    2.1040 N   0  0  0  0  0  0  0  0  0  0  0  0
   -1.6490    0.7250    1.7760 C   0  0  1  0  0  0  0  0  0  0  0  0
   -1.6540    2.0230    1.0220 C   0  0  0  0  0  0  0  0  0  0  0  0
   -1.0050    3.1760    1.6960 C   0  0  0  0  0  0  0  0  0  0  0  0
    0.3870    3.1020    2.0570 C   0  0  0  0  0  0  0  0  0  0  0  0
    1.2570    3.4000    1.1670 O   0  0  0  0  0  0  0  0  0  0  0  0
   -2.5720   -0.2100    1.1190 C   0  0  0  0  0  0  0  0  0  0  0  0
   -3.7390    0.1900    0.7810 O   0  0  0  0  0  0  0  0  0  0  0  0
    0.9040    2.7360    3.2820 O   0  0  0  0  0  0  0  0  0  0  0  0
   -0.3360   -0.3340    3.0720 H   0  0  0  0  0  0  0  0  0  0  0  0
   -2.1520    1.0360    2.7630 H   0  0  0  0  0  0  0  0  0  0  0  0
   -1.3820    1.9260   -0.0500 H   0  0  0  0  0  0  0  0  0  0  0  0
   -2.7570    2.3010    0.9710 H   0  0  0  0  0  0  0  0  0  0  0  0
   -1.1540    4.0560    0.9970 H   0  0  0  0  0  0  0  0  0  0  0  0
   -1.5760    3.5100    2.6160 H   0  0  0  0  0  0  0  0  0  0  0  0
    1.8790    2.5650    3.4610 H   0  0  0  0  0  0  0  0  0  0  0  0
   -3.8780   -3.7230   -1.8160 C   0  0  0  0  0  0  0  0  0  0  0  0
   -2.8090   -2.8230   -1.2360 C   0  0  0  0  0  0  0  0  0  0  0  0
   -2.7900   -1.5550   -2.0710 C   0  0  0  0  0  0  0  0  0  0  0  0
   -3.2420   -2.4390    0.1580 C   0  0  2  0  0  0  0  0  0  0  0  0
   -2.2880   -1.5650    0.8070 N   0  0  0  0  0  0  0  0  0  0  0  0
   -3.5460   -3.6260    0.9950 C   0  0  0  0  0  0  0  0  0  0  0  0
   -4.3400   -4.5390    0.6650 O   0  0  0  0  0  0  0  0  0  0  0  0
   -2.9240   -3.7670    2.2400 O   0  0  0  0  0  0  0  0  0  0  0  0
   -4.8410   -3.4680   -1.3220 H   0  0  0  0  0  0  0  0  0  0  0  0
   -3.9180   -3.5360   -2.9120 H   0  0  0  0  0  0  0  0  0  0  0  0
   -3.5930   -4.7690   -1.5880 H   0  0  0  0  0  0  0  0  0  0  0  0
   -1.8630   -3.3610   -1.2680 H   0  0  0  0  0  0  0  0  0  0  0  0
   -2.6990   -1.8630   -3.1290 H   0  0  0  0  0  0  0  0  0  0  0  0
   -3.7070   -0.9690   -1.9540 H   0  0  0  0  0  0  0  0  0  0  0  0
   -1.9320   -0.9070   -1.7910 H   0  0  0  0  0  0  0  0  0  0  0  0
   -4.1790   -1.8630    0.0340 H   0  0  0  0  0  0  0  0  0  0  0  0
   -1.3470   -1.9340    1.0630 H   0  0  0  0  0  0  0  0  0  0  0  0
  1 10  1  0  0  0  0
  1 11  1  0  0  0  0
  2 12  1  6  0  0  0
  2  1  1  0  0  0  0
  3 14  1  0  0  0  0
  3 13  1  0  0  0  0
  3  2  1  0  0  0  0
  4  3  1  0  0  0  0
  5  4  1  0  0  0  0
  5  6  1  0  0  0  0
  5 17  1  0  0  0  0
  6 20  1  0  0  0  0
  7 21  1  0  0  0  0
  7  6  1  0  0  0  0
  8  2  1  0  0  0  0
  8 23  1  0  0  0  0
  9  8  2  0  0  0  0
 15  4  1  0  0  0  0
 16  4  1  0  0  0  0
 18  5  1  0  0  0  0
 19  6  1  0  0  0  0
 22  7  1  0  0  0  0
 23 32  1  0  0  0  0
 24 23  1  0  0  0  0
 24 33  1  1  0  0  0
 25 26  1  0  0  0  0
 25 24  1  0  0  0  0
 26 27  1  0  0  0  0
 26 37  1  0  0  0  0
 27 31  1  0  0  0  0
 28 27  2  0  0  0  0
 29 24  1  0  0  0  0
 30 29  2  0  0  0  0
 31 38  1  0  0  0  0
 34 25  1  0  0  0  0
 35 25  1  0  0  0  0
 36 26  1  0  0  0  0
 39 49  1  0  0  0  0
 39 47  1  0  0  0  0
 39 40  1  0  0  0  0
 40 42  1  0  0  0  0
 41 52  1  0  0  0  0
 41 53  1  0  0  0  0
 41 40  1  0  0  0  0
 42 54  1  6  0  0  0
 42 43  1  0  0  0  0
 42 44  1  0  0  0  0
 43 55  1  0  0  0  0
 43 29  1  0  0  0  0
 44 46  1  0  0  0  0
 45 44  2  0  0  0  0
 48 39  1  0  0  0  0
 50 40  1  0  0  0  0
 51 41  1  0  0  0  0
M  END
$$$$
