KEW.pdb
 OpenBabel07022418493D

 63 64  0  0  1  0  0  0  0  0999 V2000
    4.3000   -0.1470    4.0990 N   0  0  0  0  0  0  0  0  0  0  0  0
    4.1010    0.0890    2.6520 C   0  0  1  0  0  0  0  0  0  0  0  0
    4.6810   -1.1370    2.0030 C   0  0  0  0  0  0  0  0  0  0  0  0
    4.6200   -1.1800    0.5230 C   0  0  0  0  0  0  0  0  0  0  0  0
    5.3380   -0.0590   -0.1850 C   0  0  0  0  0  0  0  0  0  0  0  0
    5.1390   -0.3200   -1.6800 C   0  0  0  0  0  0  0  0  0  0  0  0
    5.7780    0.6760   -2.4950 N   0  0  0  0  0  0  0  0  0  0  0  0
    2.6090    0.1890    2.4750 C   0  0  0  0  0  0  0  0  0  0  0  0
    1.8090   -0.0530    3.4310 O   0  0  0  0  0  0  0  0  0  0  0  0
    3.6160   -0.9190    4.3310 H   0  0  0  0  0  0  0  0  0  0  0  0
    3.9590    0.6890    4.6480 H   0  0  0  0  0  0  0  0  0  0  0  0
    4.6270    1.0080    2.4050 H   0  0  0  0  0  0  0  0  0  0  0  0
    5.7280   -1.2100    2.3360 H   0  0  0  0  0  0  0  0  0  0  0  0
    4.1560   -2.0320    2.3980 H   0  0  0  0  0  0  0  0  0  0  0  0
    5.1960   -2.1120    0.2230 H   0  0  0  0  0  0  0  0  0  0  0  0
    3.6060   -1.3750    0.1200 H   0  0  0  0  0  0  0  0  0  0  0  0
    6.4190   -0.1720    0.0180 H   0  0  0  0  0  0  0  0  0  0  0  0
    5.0300    0.9440    0.1030 H   0  0  0  0  0  0  0  0  0  0  0  0
    5.5150   -1.3160   -1.9310 H   0  0  0  0  0  0  0  0  0  0  0  0
    4.0210   -0.2490   -1.8210 H   0  0  0  0  0  0  0  0  0  0  0  0
    5.0940    1.3080   -2.9990 H   0  0  0  0  0  0  0  0  0  0  0  0
    6.2620    0.1660   -3.2940 H   0  0  0  0  0  0  0  0  0  0  0  0
    2.0420    0.5630    1.2270 N   0  0  0  0  0  0  0  0  0  0  0  0
    0.5670    0.6330    1.1530 C   0  0  1  0  0  0  0  0  0  0  0  0
    0.1760    2.0720    0.9240 C   0  0  0  0  0  0  0  0  0  0  0  0
   -1.2610    2.3820    0.8280 C   0  0  0  0  0  0  0  0  0  0  0  0
   -2.0890    2.0700    1.9960 C   0  0  0  0  0  0  0  0  0  0  0  0
   -1.5560    1.5810    3.0200 O   0  0  0  0  0  0  0  0  0  0  0  0
    0.1810   -0.2700    0.0470 C   0  0  0  0  0  0  0  0  0  0  0  0
    1.1010   -0.7260   -0.7400 O   0  0  0  0  0  0  0  0  0  0  0  0
   -3.4560    2.2810    2.0570 O   0  0  0  0  0  0  0  0  0  0  0  0
    2.6220    0.7830    0.3930 H   0  0  0  0  0  0  0  0  0  0  0  0
    0.0890    0.2860    2.0750 H   0  0  0  0  0  0  0  0  0  0  0  0
    0.7360    2.7510    1.6210 H   0  0  0  0  0  0  0  0  0  0  0  0
    0.6280    2.3350   -0.0830 H   0  0  0  0  0  0  0  0  0  0  0  0
   -1.3260    3.5010    0.5960 H   0  0  0  0  0  0  0  0  0  0  0  0
   -1.7470    1.9360   -0.0740 H   0  0  0  0  0  0  0  0  0  0  0  0
   -4.0010    1.6080    2.6050 H   0  0  0  0  0  0  0  0  0  0  0  0
   -1.1630   -0.6490   -0.1680 N   0  0  0  0  0  0  0  0  0  0  0  0
   -1.5250   -1.5350   -1.2710 C   0  0  1  0  0  0  0  0  0  0  0  0
   -2.0240   -2.8490   -0.7670 C   0  0  0  0  0  0  0  0  0  0  0  0
   -3.1840   -2.8180    0.1160 C   0  0  0  0  0  0  0  0  0  0  0  0
   -3.1310   -2.8220    1.5280 C   0  0  0  0  0  0  0  0  0  0  0  0
   -4.3700   -2.7510    1.9950 N   0  0  0  0  0  0  0  0  0  0  0  0
   -5.2660   -2.7000    0.9950 C   0  0  0  0  0  0  0  0  0  0  0  0
   -6.6420   -2.6320    0.9790 C   0  0  0  0  0  0  0  0  0  0  0  0
   -7.2980   -2.6070   -0.2310 C   0  0  0  0  0  0  0  0  0  0  0  0
   -6.6070   -2.6480   -1.4190 C   0  0  0  0  0  0  0  0  0  0  0  0
   -5.2190   -2.7150   -1.3640 C   0  0  0  0  0  0  0  0  0  0  0  0
   -4.5220   -2.7420   -0.1790 C   0  0  0  0  0  0  0  0  0  0  0  0
   -2.4170   -0.9210   -2.2570 C   0  0  0  0  0  0  0  0  0  0  0  0
   -2.7010   -1.4870   -3.3500 O   0  0  0  0  0  0  0  0  0  0  0  0
   -3.0230    0.3310   -2.0720 O   0  0  0  0  0  0  0  0  0  0  0  0
   -1.9070   -0.3190    0.4590 H   0  0  0  0  0  0  0  0  0  0  0  0
   -0.5430   -1.7030   -1.8350 H   0  0  0  0  0  0  0  0  0  0  0  0
   -1.1630   -3.3190   -0.2030 H   0  0  0  0  0  0  0  0  0  0  0  0
   -2.1620   -3.5650   -1.6310 H   0  0  0  0  0  0  0  0  0  0  0  0
   -2.2090   -2.8740    2.0690 H   0  0  0  0  0  0  0  0  0  0  0  0
   -4.6680   -2.7350    3.0130 H   0  0  0  0  0  0  0  0  0  0  0  0
   -7.1910   -2.6000    1.9210 H   0  0  0  0  0  0  0  0  0  0  0  0
   -8.3760   -2.5540   -0.2670 H   0  0  0  0  0  0  0  0  0  0  0  0
   -7.0740   -2.6310   -2.4010 H   0  0  0  0  0  0  0  0  0  0  0  0
   -4.6850   -2.7610   -2.2830 H   0  0  0  0  0  0  0  0  0  0  0  0
  1 10  1  0  0  0  0
  1 11  1  0  0  0  0
  2 12  1  6  0  0  0
  2  1  1  0  0  0  0
  3 13  1  0  0  0  0
  3 14  1  0  0  0  0
  3  2  1  0  0  0  0
  4  3  1  0  0  0  0
  5 17  1  0  0  0  0
  5 18  1  0  0  0  0
  5  4  1  0  0  0  0
  6  5  1  0  0  0  0
  7  6  1  0  0  0  0
  8  2  1  0  0  0  0
  8  9  2  0  0  0  0
 15  4  1  0  0  0  0
 16  4  1  0  0  0  0
 19  6  1  0  0  0  0
 20  6  1  0  0  0  0
 21  7  1  0  0  0  0
 22  7  1  0  0  0  0
 23  8  1  0  0  0  0
 24 23  1  0  0  0  0
 24 33  1  1  0  0  0
 25 24  1  0  0  0  0
 25 34  1  0  0  0  0
 26 25  1  0  0  0  0
 26 27  1  0  0  0  0
 27 31  1  0  0  0  0
 27 28  2  0  0  0  0
 29 24  1  0  0  0  0
 30 29  2  0  0  0  0
 31 38  1  0  0  0  0
 32 23  1  0  0  0  0
 35 25  1  0  0  0  0
 36 26  1  0  0  0  0
 37 26  1  0  0  0  0
 39 29  1  0  0  0  0
 39 54  1  0  0  0  0
 40 55  1  6  0  0  0
 40 41  1  0  0  0  0
 40 39  1  0  0  0  0
 41 56  1  0  0  0  0
 41 42  1  0  0  0  0
 42 43  2  0  0  0  0
 43 44  1  0  0  0  0
 43 58  1  0  0  0  0
 44 59  1  0  0  0  0
 45 44  1  0  0  0  0
 46 45  1  0  0  0  0
 46 60  1  0  0  0  0
 47 46  2  0  0  0  0
 48 49  2  0  0  0  0
 48 47  1  0  0  0  0
 49 50  1  0  0  0  0
 50 42  1  0  0  0  0
 50 45  2  0  0  0  0
 51 53  1  0  0  0  0
 51 40  1  0  0  0  0
 52 51  2  0  0  0  0
 57 41  1  0  0  0  0
 61 47  1  0  0  0  0
 62 48  1  0  0  0  0
 63 49  1  0  0  0  0
M  END
$$$$
