KFA.pdb
 OpenBabel07022418513D

 53 53  0  0  1  0  0  0  0  0999 V2000
    0.2430   -0.5630    3.6430 N   0  0  0  0  0  0  0  0  0  0  0  0
    1.3280   -1.1710    2.8910 C   0  0  1  0  0  0  0  0  0  0  0  0
    1.4750   -2.5800    3.4140 C   0  0  0  0  0  0  0  0  0  0  0  0
    2.5560   -3.3620    2.7490 C   0  0  0  0  0  0  0  0  0  0  0  0
    3.9180   -2.7290    2.9110 C   0  0  0  0  0  0  0  0  0  0  0  0
    4.9810   -3.5360    2.2340 C   0  0  0  0  0  0  0  0  0  0  0  0
    6.2580   -2.8740    2.4290 N   0  0  0  0  0  0  0  0  0  0  0  0
    1.0030   -1.0970    1.4650 C   0  0  0  0  0  0  0  0  0  0  0  0
    1.8090   -1.5590    0.6220 O   0  0  0  0  0  0  0  0  0  0  0  0
   -0.5940   -1.1880    3.4840 H   0  0  0  0  0  0  0  0  0  0  0  0
    0.5190   -0.6320    4.6590 H   0  0  0  0  0  0  0  0  0  0  0  0
    2.2670   -0.6290    3.1380 H   0  0  0  0  0  0  0  0  0  0  0  0
    0.5200   -3.1130    3.2820 H   0  0  0  0  0  0  0  0  0  0  0  0
    1.6770   -2.5120    4.4980 H   0  0  0  0  0  0  0  0  0  0  0  0
    2.6150   -4.3510    3.2880 H   0  0  0  0  0  0  0  0  0  0  0  0
    2.3130   -3.5680    1.6940 H   0  0  0  0  0  0  0  0  0  0  0  0
    4.1240   -2.6330    3.9940 H   0  0  0  0  0  0  0  0  0  0  0  0
    3.9610   -1.7030    2.4960 H   0  0  0  0  0  0  0  0  0  0  0  0
    4.7360   -3.6220    1.1510 H   0  0  0  0  0  0  0  0  0  0  0  0
    5.0290   -4.5480    2.6950 H   0  0  0  0  0  0  0  0  0  0  0  0
    6.7980   -2.9000    1.5290 H   0  0  0  0  0  0  0  0  0  0  0  0
    6.0800   -1.8610    2.6150 H   0  0  0  0  0  0  0  0  0  0  0  0
   -0.2030   -0.5150    1.0200 N   0  0  0  0  0  0  0  0  0  0  0  0
   -0.5260   -0.4400   -0.3830 C   0  0  1  0  0  0  0  0  0  0  0  0
   -1.6970   -1.3320   -0.7350 C   0  0  0  0  0  0  0  0  0  0  0  0
   -2.9220   -1.0200   -0.0190 C   0  0  0  0  0  0  0  0  0  0  0  0
   -3.8460   -0.1300   -0.4950 C   0  0  0  0  0  0  0  0  0  0  0  0
   -4.9790    0.0990    0.2600 C   0  0  0  0  0  0  0  0  0  0  0  0
   -5.2270   -0.5210    1.4650 C   0  0  0  0  0  0  0  0  0  0  0  0
   -4.2910   -1.4140    1.9340 C   0  0  0  0  0  0  0  0  0  0  0  0
   -3.1650   -1.6410    1.1830 C   0  0  0  0  0  0  0  0  0  0  0  0
   -0.6150    0.9200   -0.9150 C   0  0  0  0  0  0  0  0  0  0  0  0
   -0.4890    1.9730   -0.2250 O   0  0  0  0  0  0  0  0  0  0  0  0
   -0.8920   -0.1210    1.7350 H   0  0  0  0  0  0  0  0  0  0  0  0
    0.3450   -0.9140   -0.9290 H   0  0  0  0  0  0  0  0  0  0  0  0
   -1.8580   -1.2190   -1.8390 H   0  0  0  0  0  0  0  0  0  0  0  0
   -1.3440   -2.3810   -0.5950 H   0  0  0  0  0  0  0  0  0  0  0  0
   -3.7290    0.4020   -1.4360 H   0  0  0  0  0  0  0  0  0  0  0  0
   -5.7490    0.8000   -0.0740 H   0  0  0  0  0  0  0  0  0  0  0  0
   -6.1240   -0.3280    2.0440 H   0  0  0  0  0  0  0  0  0  0  0  0
   -4.4380   -1.9270    2.8750 H   0  0  0  0  0  0  0  0  0  0  0  0
   -2.4470   -2.3660    1.6050 H   0  0  0  0  0  0  0  0  0  0  0  0
    0.2540    2.6790   -3.8070 C   0  0  0  0  0  0  0  0  0  0  0  0
   -0.9500    2.4340   -2.8950 C   0  0  2  0  0  0  0  0  0  0  0  0
   -0.8560    1.1020   -2.3050 N   0  0  0  0  0  0  0  0  0  0  0  0
   -2.1820    2.5550   -3.6880 C   0  0  0  0  0  0  0  0  0  0  0  0
   -2.5000    3.6340   -4.2850 O   0  0  0  0  0  0  0  0  0  0  0  0
   -3.0570    1.5090   -3.8290 O   0  0  0  0  0  0  0  0  0  0  0  0
   -0.0530    3.1390   -4.7670 H   0  0  0  0  0  0  0  0  0  0  0  0
    0.9820    3.3610   -3.3350 H   0  0  0  0  0  0  0  0  0  0  0  0
    0.7750    1.7290   -4.0430 H   0  0  0  0  0  0  0  0  0  0  0  0
   -0.9080    3.1560   -2.0570 H   0  0  0  0  0  0  0  0  0  0  0  0
   -0.9760    0.2950   -2.9600 H   0  0  0  0  0  0  0  0  0  0  0  0
  1 11  1  0  0  0  0
  2 12  1  1  0  0  0
  2  3  1  0  0  0  0
  2  1  1  0  0  0  0
  3 14  1  0  0  0  0
  4  5  1  0  0  0  0
  4 15  1  0  0  0  0
  4  3  1  0  0  0  0
  5 17  1  0  0  0  0
  6  7  1  0  0  0  0
  6 20  1  0  0  0  0
  6  5  1  0  0  0  0
  7 22  1  0  0  0  0
  8  2  1  0  0  0  0
  9  8  2  0  0  0  0
 10  1  1  0  0  0  0
 13  3  1  0  0  0  0
 16  4  1  0  0  0  0
 18  5  1  0  0  0  0
 19  6  1  0  0  0  0
 21  7  1  0  0  0  0
 23  8  1  0  0  0  0
 23 34  1  0  0  0  0
 24 35  1  6  0  0  0
 24 23  1  0  0  0  0
 25 37  1  0  0  0  0
 25 24  1  0  0  0  0
 25 26  1  0  0  0  0
 26 31  1  0  0  0  0
 27 26  2  0  0  0  0
 27 28  1  0  0  0  0
 28 29  2  0  0  0  0
 29 30  1  0  0  0  0
 29 40  1  0  0  0  0
 30 41  1  0  0  0  0
 31 42  1  0  0  0  0
 31 30  2  0  0  0  0
 32 24  1  0  0  0  0
 32 33  2  0  0  0  0
 36 25  1  0  0  0  0
 38 27  1  0  0  0  0
 39 28  1  0  0  0  0
 43 50  1  0  0  0  0
 43 44  1  0  0  0  0
 44 45  1  0  0  0  0
 44 52  1  1  0  0  0
 45 32  1  0  0  0  0
 46 44  1  0  0  0  0
 47 46  2  0  0  0  0
 48 46  1  0  0  0  0
 49 43  1  0  0  0  0
 51 43  1  0  0  0  0
 53 45  1  0  0  0  0
M  END
$$$$
