KFG.pdb
 OpenBabel07022418513D

 50 50  0  0  1  0  0  0  0  0999 V2000
   -0.7070   -1.6820    3.8280 N   0  0  0  0  0  0  0  0  0  0  0  0
    0.5480   -1.4170    3.0880 C   0  0  1  0  0  0  0  0  0  0  0  0
    1.2940   -2.6890    3.1010 C   0  0  0  0  0  0  0  0  0  0  0  0
    2.6020   -2.7980    2.4110 C   0  0  0  0  0  0  0  0  0  0  0  0
    2.6160   -2.6990    0.9350 C   0  0  0  0  0  0  0  0  0  0  0  0
    4.0490   -2.8240    0.3900 C   0  0  0  0  0  0  0  0  0  0  0  0
    4.8810   -1.7610    0.9310 N   0  0  0  0  0  0  0  0  0  0  0  0
    0.3310   -0.6730    1.8840 C   0  0  0  0  0  0  0  0  0  0  0  0
    1.1640    0.1860    1.4530 O   0  0  0  0  0  0  0  0  0  0  0  0
   -1.1690   -2.5390    3.4630 H   0  0  0  0  0  0  0  0  0  0  0  0
   -0.5410   -1.7050    4.8500 H   0  0  0  0  0  0  0  0  0  0  0  0
    1.0930   -0.7230    3.8120 H   0  0  0  0  0  0  0  0  0  0  0  0
    1.5130   -2.9940    4.1900 H   0  0  0  0  0  0  0  0  0  0  0  0
    0.6140   -3.5690    2.7960 H   0  0  0  0  0  0  0  0  0  0  0  0
    3.1120   -3.7740    2.6780 H   0  0  0  0  0  0  0  0  0  0  0  0
    3.3110   -2.0420    2.8870 H   0  0  0  0  0  0  0  0  0  0  0  0
    2.1190   -3.6420    0.5110 H   0  0  0  0  0  0  0  0  0  0  0  0
    2.1530   -1.8740    0.4390 H   0  0  0  0  0  0  0  0  0  0  0  0
    3.9810   -2.6600   -0.7040 H   0  0  0  0  0  0  0  0  0  0  0  0
    4.4980   -3.7810    0.6710 H   0  0  0  0  0  0  0  0  0  0  0  0
    4.2930   -0.9290    1.2090 H   0  0  0  0  0  0  0  0  0  0  0  0
    5.4660   -2.0680    1.7250 H   0  0  0  0  0  0  0  0  0  0  0  0
   -0.8210   -0.7900    1.0260 N   0  0  0  0  0  0  0  0  0  0  0  0
   -1.0700   -0.0680   -0.1480 C   0  0  1  0  0  0  0  0  0  0  0  0
   -0.8040    1.4070   -0.1840 C   0  0  0  0  0  0  0  0  0  0  0  0
   -1.6550    2.1260    0.8040 C   0  0  0  0  0  0  0  0  0  0  0  0
   -2.9490    2.5430    0.4390 C   0  0  0  0  0  0  0  0  0  0  0  0
   -3.7840    3.2180    1.2930 C   0  0  0  0  0  0  0  0  0  0  0  0
   -3.3820    3.5230    2.5730 C   0  0  0  0  0  0  0  0  0  0  0  0
   -2.1250    3.1290    2.9550 C   0  0  0  0  0  0  0  0  0  0  0  0
   -1.2820    2.4430    2.0830 C   0  0  0  0  0  0  0  0  0  0  0  0
   -0.5960   -0.8150   -1.3280 C   0  0  0  0  0  0  0  0  0  0  0  0
   -0.0270   -1.9440   -1.2350 O   0  0  0  0  0  0  0  0  0  0  0  0
   -1.5150   -1.5030    1.3540 H   0  0  0  0  0  0  0  0  0  0  0  0
   -2.2210   -0.0580   -0.2520 H   0  0  0  0  0  0  0  0  0  0  0  0
    0.2520    1.6870   -0.1260 H   0  0  0  0  0  0  0  0  0  0  0  0
   -1.1480    1.7580   -1.1800 H   0  0  0  0  0  0  0  0  0  0  0  0
   -3.2460    2.2890   -0.5840 H   0  0  0  0  0  0  0  0  0  0  0  0
   -4.7760    3.5280    0.9870 H   0  0  0  0  0  0  0  0  0  0  0  0
   -4.0480    4.0660    3.2660 H   0  0  0  0  0  0  0  0  0  0  0  0
   -1.8040    3.3670    3.9620 H   0  0  0  0  0  0  0  0  0  0  0  0
   -0.2900    2.1610    2.4390 H   0  0  0  0  0  0  0  0  0  0  0  0
   -0.7370   -0.3350   -2.6660 N   0  0  0  0  0  0  0  0  0  0  0  0
   -0.2700   -1.0750   -3.8030 C   0  0  0  0  0  0  0  0  0  0  0  0
   -0.9700   -2.3810   -3.8490 C   0  0  0  0  0  0  0  0  0  0  0  0
   -0.7040   -3.1800   -4.7580 O   0  0  0  0  0  0  0  0  0  0  0  0
   -1.9040   -2.7130   -2.9010 O   0  0  0  0  0  0  0  0  0  0  0  0
   -1.1960    0.5830   -2.8070 H   0  0  0  0  0  0  0  0  0  0  0  0
   -0.5850   -0.5310   -4.7240 H   0  0  0  0  0  0  0  0  0  0  0  0
    0.8330   -1.2170   -3.7750 H   0  0  0  0  0  0  0  0  0  0  0  0
  1 11  1  0  0  0  0
  2  3  1  0  0  0  0
  2 12  1  1  0  0  0
  2  1  1  0  0  0  0
  3 13  1  0  0  0  0
  4 15  1  0  0  0  0
  4 16  1  0  0  0  0
  4  3  1  0  0  0  0
  5  4  1  0  0  0  0
  6 20  1  0  0  0  0
  6  7  1  0  0  0  0
  6  5  1  0  0  0  0
  7 21  1  0  0  0  0
  7 22  1  0  0  0  0
  8  2  1  0  0  0  0
  9  8  2  0  0  0  0
 10  1  1  0  0  0  0
 14  3  1  0  0  0  0
 17  5  1  0  0  0  0
 18  5  1  0  0  0  0
 19  6  1  0  0  0  0
 23 34  1  0  0  0  0
 23  8  1  0  0  0  0
 24 35  1  6  0  0  0
 24 23  1  0  0  0  0
 25 24  1  0  0  0  0
 25 36  1  0  0  0  0
 25 26  1  0  0  0  0
 26 31  1  0  0  0  0
 27 26  2  0  0  0  0
 27 28  1  0  0  0  0
 28 29  2  0  0  0  0
 29 30  1  0  0  0  0
 29 40  1  0  0  0  0
 30 41  1  0  0  0  0
 31 42  1  0  0  0  0
 31 30  2  0  0  0  0
 32 33  2  0  0  0  0
 32 24  1  0  0  0  0
 37 25  1  0  0  0  0
 38 27  1  0  0  0  0
 39 28  1  0  0  0  0
 43 32  1  0  0  0  0
 44 50  1  0  0  0  0
 44 43  1  0  0  0  0
 45 44  1  0  0  0  0
 45 47  1  0  0  0  0
 46 45  2  0  0  0  0
 48 43  1  0  0  0  0
 49 44  1  0  0  0  0
M  END
$$$$
