KFI.pdb
 OpenBabel07022418513D

 62 62  0  0  1  0  0  0  0  0999 V2000
   -3.1850    1.2960    2.6070 N   0  0  0  0  0  0  0  0  0  0  0  0
   -1.8460    0.6660    2.4020 C   0  0  1  0  0  0  0  0  0  0  0  0
   -2.0430   -0.7610    2.7690 C   0  0  0  0  0  0  0  0  0  0  0  0
   -0.8580   -1.6500    2.6950 C   0  0  0  0  0  0  0  0  0  0  0  0
    0.2450   -1.1270    3.6200 C   0  0  0  0  0  0  0  0  0  0  0  0
    1.4500   -2.0560    3.5260 C   0  0  0  0  0  0  0  0  0  0  0  0
    1.1000   -3.3840    3.9220 N   0  0  0  0  0  0  0  0  0  0  0  0
   -1.4930    0.8890    1.0100 C   0  0  0  0  0  0  0  0  0  0  0  0
   -2.3650    1.4860    0.2670 O   0  0  0  0  0  0  0  0  0  0  0  0
   -3.4400    1.2350    3.6090 H   0  0  0  0  0  0  0  0  0  0  0  0
   -3.1110    2.3130    2.3670 H   0  0  0  0  0  0  0  0  0  0  0  0
   -1.1840    1.2040    3.1220 H   0  0  0  0  0  0  0  0  0  0  0  0
   -2.8600   -1.2400    2.1590 H   0  0  0  0  0  0  0  0  0  0  0  0
   -2.4440   -0.8590    3.8280 H   0  0  0  0  0  0  0  0  0  0  0  0
   -0.4940   -1.8990    1.7050 H   0  0  0  0  0  0  0  0  0  0  0  0
   -1.1800   -2.6270    3.1850 H   0  0  0  0  0  0  0  0  0  0  0  0
   -0.1670   -1.1600    4.6590 H   0  0  0  0  0  0  0  0  0  0  0  0
    0.5090   -0.1090    3.2850 H   0  0  0  0  0  0  0  0  0  0  0  0
    2.2560   -1.6750    4.1650 H   0  0  0  0  0  0  0  0  0  0  0  0
    1.8200   -2.0550    2.4880 H   0  0  0  0  0  0  0  0  0  0  0  0
    0.6160   -3.3710    4.8700 H   0  0  0  0  0  0  0  0  0  0  0  0
    0.4570   -3.8440    3.2410 H   0  0  0  0  0  0  0  0  0  0  0  0
   -0.3050    0.5480    0.3280 N   0  0  0  0  0  0  0  0  0  0  0  0
   -0.0890    0.8620   -1.0580 C   0  0  1  0  0  0  0  0  0  0  0  0
    1.1970    1.6310   -1.2690 C   0  0  0  0  0  0  0  0  0  0  0  0
    1.0950    2.8870   -0.4850 C   0  0  0  0  0  0  0  0  0  0  0  0
    0.5410    4.0460   -0.9760 C   0  0  0  0  0  0  0  0  0  0  0  0
    0.4820    5.1980   -0.1970 C   0  0  0  0  0  0  0  0  0  0  0  0
    0.9740    5.1950    1.0690 C   0  0  0  0  0  0  0  0  0  0  0  0
    1.5310    4.0340    1.5680 C   0  0  0  0  0  0  0  0  0  0  0  0
    1.5940    2.8920    0.8080 C   0  0  0  0  0  0  0  0  0  0  0  0
   -0.1890   -0.3060   -1.9570 C   0  0  0  0  0  0  0  0  0  0  0  0
    0.0450   -0.1800   -3.2110 O   0  0  0  0  0  0  0  0  0  0  0  0
    0.4340    0.0570    0.8920 H   0  0  0  0  0  0  0  0  0  0  0  0
   -0.9440    1.5390   -1.3750 H   0  0  0  0  0  0  0  0  0  0  0  0
    2.0800    1.0720   -0.9100 H   0  0  0  0  0  0  0  0  0  0  0  0
    1.3180    1.9110   -2.3330 H   0  0  0  0  0  0  0  0  0  0  0  0
    0.1460    4.0720   -1.9720 H   0  0  0  0  0  0  0  0  0  0  0  0
    0.0380    6.0740   -0.6330 H   0  0  0  0  0  0  0  0  0  0  0  0
    0.9450    6.0780    1.7060 H   0  0  0  0  0  0  0  0  0  0  0  0
    1.9260    4.0290    2.5830 H   0  0  0  0  0  0  0  0  0  0  0  0
    2.0350    2.0000    1.2260 H   0  0  0  0  0  0  0  0  0  0  0  0
   -1.1140   -4.9130   -0.3950 C   0  0  0  0  0  0  0  0  0  0  0  0
    0.2390   -4.3480   -0.7240 C   0  0  0  0  0  0  0  0  0  0  0  0
    0.3790   -3.7900   -2.0990 C   0  0  2  0  0  0  0  0  0  0  0  0
    1.8000   -3.2700   -2.2470 C   0  0  0  0  0  0  0  0  0  0  0  0
   -0.6240   -2.7460   -2.4760 C   0  0  2  0  0  0  0  0  0  0  0  0
   -0.5360   -1.6220   -1.5750 N   0  0  0  0  0  0  0  0  0  0  0  0
   -1.9810   -3.2330   -2.6970 C   0  0  0  0  0  0  0  0  0  0  0  0
   -2.1760   -4.1850   -3.4830 O   0  0  0  0  0  0  0  0  0  0  0  0
   -3.0790   -2.6820   -2.0700 O   0  0  0  0  0  0  0  0  0  0  0  0
   -1.5320   -5.5340   -1.2050 H   0  0  0  0  0  0  0  0  0  0  0  0
   -0.9900   -5.6350    0.4670 H   0  0  0  0  0  0  0  0  0  0  0  0
   -1.8650   -4.1850   -0.0960 H   0  0  0  0  0  0  0  0  0  0  0  0
    0.5760   -3.6690    0.0870 H   0  0  0  0  0  0  0  0  0  0  0  0
    0.9460   -5.2310   -0.6650 H   0  0  0  0  0  0  0  0  0  0  0  0
    0.2910   -4.6580   -2.8010 H   0  0  0  0  0  0  0  0  0  0  0  0
    2.0840   -2.8570   -1.2460 H   0  0  0  0  0  0  0  0  0  0  0  0
    1.8430   -2.4400   -2.9690 H   0  0  0  0  0  0  0  0  0  0  0  0
    2.4550   -4.1280   -2.4930 H   0  0  0  0  0  0  0  0  0  0  0  0
   -0.2800   -2.3370   -3.4770 H   0  0  0  0  0  0  0  0  0  0  0  0
   -0.7470   -1.8010   -0.5790 H   0  0  0  0  0  0  0  0  0  0  0  0
  1 10  1  0  0  0  0
  2  1  1  0  0  0  0
  2  3  1  0  0  0  0
  2 12  1  1  0  0  0
  3 14  1  0  0  0  0
  4  3  1  0  0  0  0
  4 16  1  0  0  0  0
  4  5  1  0  0  0  0
  5 17  1  0  0  0  0
  6  5  1  0  0  0  0
  6  7  1  0  0  0  0
  6 19  1  0  0  0  0
  7 21  1  0  0  0  0
  8  2  1  0  0  0  0
  9  8  2  0  0  0  0
 11  1  1  0  0  0  0
 13  3  1  0  0  0  0
 15  4  1  0  0  0  0
 18  5  1  0  0  0  0
 20  6  1  0  0  0  0
 22  7  1  0  0  0  0
 23 34  1  0  0  0  0
 23  8  1  0  0  0  0
 24 35  1  6  0  0  0
 24 23  1  0  0  0  0
 25 24  1  0  0  0  0
 25 36  1  0  0  0  0
 25 26  1  0  0  0  0
 26 31  1  0  0  0  0
 27 26  2  0  0  0  0
 27 28  1  0  0  0  0
 28 29  2  0  0  0  0
 29 30  1  0  0  0  0
 29 40  1  0  0  0  0
 30 41  1  0  0  0  0
 31 42  1  0  0  0  0
 31 30  2  0  0  0  0
 32 48  1  0  0  0  0
 32 24  1  0  0  0  0
 33 32  2  0  0  0  0
 37 25  1  0  0  0  0
 38 27  1  0  0  0  0
 39 28  1  0  0  0  0
 43 54  1  0  0  0  0
 43 53  1  0  0  0  0
 44 56  1  0  0  0  0
 44 43  1  0  0  0  0
 44 55  1  0  0  0  0
 45 57  1  6  0  0  0
 45 44  1  0  0  0  0
 46 45  1  0  0  0  0
 46 58  1  0  0  0  0
 47 61  1  6  0  0  0
 47 45  1  0  0  0  0
 47 48  1  0  0  0  0
 48 62  1  0  0  0  0
 49 47  1  0  0  0  0
 49 51  1  0  0  0  0
 50 49  2  0  0  0  0
 52 43  1  0  0  0  0
 59 46  1  0  0  0  0
 60 46  1  0  0  0  0
M  END
$$$$
