KFL.pdb
 OpenBabel07022418513D

 62 62  0  0  1  0  0  0  0  0999 V2000
   -1.0120   -0.4750    4.0290 N   0  0  0  0  0  0  0  0  0  0  0  0
   -2.0040    0.4010    3.4390 C   0  0  1  0  0  0  0  0  0  0  0  0
   -1.7160    1.7960    3.9910 C   0  0  0  0  0  0  0  0  0  0  0  0
   -0.3380    2.2570    3.6270 C   0  0  0  0  0  0  0  0  0  0  0  0
   -0.1230    3.6390    4.2030 C   0  0  0  0  0  0  0  0  0  0  0  0
    1.2550    4.1710    3.8700 C   0  0  0  0  0  0  0  0  0  0  0  0
    2.2890    3.2870    4.4170 N   0  0  0  0  0  0  0  0  0  0  0  0
   -1.7890    0.4270    1.9770 C   0  0  0  0  0  0  0  0  0  0  0  0
   -2.4870    1.1220    1.1900 O   0  0  0  0  0  0  0  0  0  0  0  0
   -0.7280   -0.1930    4.9880 H   0  0  0  0  0  0  0  0  0  0  0  0
   -1.2560   -1.4760    3.9670 H   0  0  0  0  0  0  0  0  0  0  0  0
   -3.0050    0.0540    3.7240 H   0  0  0  0  0  0  0  0  0  0  0  0
   -2.4470    2.5300    3.6490 H   0  0  0  0  0  0  0  0  0  0  0  0
   -1.7640    1.7440    5.1010 H   0  0  0  0  0  0  0  0  0  0  0  0
   -0.1880    2.3330    2.5250 H   0  0  0  0  0  0  0  0  0  0  0  0
    0.4550    1.5950    4.0560 H   0  0  0  0  0  0  0  0  0  0  0  0
   -0.2060    3.6430    5.3070 H   0  0  0  0  0  0  0  0  0  0  0  0
   -0.8600    4.3630    3.8080 H   0  0  0  0  0  0  0  0  0  0  0  0
    1.3800    4.3350    2.7890 H   0  0  0  0  0  0  0  0  0  0  0  0
    1.3980    5.1510    4.3680 H   0  0  0  0  0  0  0  0  0  0  0  0
    2.4410    3.5210    5.4170 H   0  0  0  0  0  0  0  0  0  0  0  0
    3.1610    3.3460    3.8590 H   0  0  0  0  0  0  0  0  0  0  0  0
   -0.7620   -0.3520    1.4100 N   0  0  0  0  0  0  0  0  0  0  0  0
   -0.4760   -0.3840   -0.0280 C   0  0  1  0  0  0  0  0  0  0  0  0
    0.8970    0.1160   -0.3260 C   0  0  0  0  0  0  0  0  0  0  0  0
    1.9950   -0.6120    0.3020 C   0  0  0  0  0  0  0  0  0  0  0  0
    2.4320   -0.2400    1.5570 C   0  0  0  0  0  0  0  0  0  0  0  0
    3.4660   -0.8820    2.2030 C   0  0  0  0  0  0  0  0  0  0  0  0
    4.1000   -1.9380    1.5850 C   0  0  0  0  0  0  0  0  0  0  0  0
    3.6700   -2.3140    0.3340 C   0  0  0  0  0  0  0  0  0  0  0  0
    2.6330   -1.6670   -0.3070 C   0  0  0  0  0  0  0  0  0  0  0  0
   -0.6770   -1.7690   -0.4810 C   0  0  0  0  0  0  0  0  0  0  0  0
   -0.9750   -2.6500    0.3590 O   0  0  0  0  0  0  0  0  0  0  0  0
   -0.1720   -0.9380    2.0430 H   0  0  0  0  0  0  0  0  0  0  0  0
   -1.1830    0.3250   -0.5590 H   0  0  0  0  0  0  0  0  0  0  0  0
    1.0250    0.0290   -1.4450 H   0  0  0  0  0  0  0  0  0  0  0  0
    0.9530    1.2160   -0.1370 H   0  0  0  0  0  0  0  0  0  0  0  0
    1.9600    0.5940    2.0920 H   0  0  0  0  0  0  0  0  0  0  0  0
    3.8230   -0.6040    3.1890 H   0  0  0  0  0  0  0  0  0  0  0  0
    4.9070   -2.4710    2.0380 H   0  0  0  0  0  0  0  0  0  0  0  0
    4.1430   -3.1350   -0.1780 H   0  0  0  0  0  0  0  0  0  0  0  0
    2.3280   -2.0020   -1.3050 H   0  0  0  0  0  0  0  0  0  0  0  0
   -2.5760   -1.6030   -3.9350 C   0  0  0  0  0  0  0  0  0  0  0  0
   -2.4970   -3.1000   -4.0940 C   0  0  0  0  0  0  0  0  0  0  0  0
   -3.9240   -3.5630   -4.4350 C   0  0  0  0  0  0  0  0  0  0  0  0
   -2.1070   -3.8390   -2.8870 C   0  0  0  0  0  0  0  0  0  0  0  0
   -0.7690   -3.5540   -2.2710 C   0  0  2  0  0  0  0  0  0  0  0  0
   -0.5630   -2.2110   -1.8380 N   0  0  0  0  0  0  0  0  0  0  0  0
    0.3440   -4.1590   -3.0340 C   0  0  0  0  0  0  0  0  0  0  0  0
    1.4070   -3.5560   -3.3210 O   0  0  0  0  0  0  0  0  0  0  0  0
    0.2880   -5.4840   -3.5020 O   0  0  0  0  0  0  0  0  0  0  0  0
   -3.4400   -1.1850   -4.5210 H   0  0  0  0  0  0  0  0  0  0  0  0
   -2.6350   -1.3190   -2.8740 H   0  0  0  0  0  0  0  0  0  0  0  0
   -1.6930   -1.0670   -4.3680 H   0  0  0  0  0  0  0  0  0  0  0  0
   -1.8690   -3.2820   -4.9880 H   0  0  0  0  0  0  0  0  0  0  0  0
   -4.5920   -2.9450   -3.7680 H   0  0  0  0  0  0  0  0  0  0  0  0
   -4.0620   -4.6140   -4.1050 H   0  0  0  0  0  0  0  0  0  0  0  0
   -4.1760   -3.3770   -5.4800 H   0  0  0  0  0  0  0  0  0  0  0  0
   -2.1710   -4.9530   -2.9950 H   0  0  0  0  0  0  0  0  0  0  0  0
   -2.8690   -3.6100   -2.0850 H   0  0  0  0  0  0  0  0  0  0  0  0
   -0.8210   -4.1560   -1.3030 H   0  0  0  0  0  0  0  0  0  0  0  0
   -0.2970   -1.4580   -2.5110 H   0  0  0  0  0  0  0  0  0  0  0  0
  1 10  1  0  0  0  0
  2 12  1  1  0  0  0
  2  3  1  0  0  0  0
  2  1  1  0  0  0  0
  3 14  1  0  0  0  0
  4  3  1  0  0  0  0
  4 16  1  0  0  0  0
  4  5  1  0  0  0  0
  5 17  1  0  0  0  0
  6  5  1  0  0  0  0
  6 20  1  0  0  0  0
  6  7  1  0  0  0  0
  7 21  1  0  0  0  0
  8  2  1  0  0  0  0
  9  8  2  0  0  0  0
 11  1  1  0  0  0  0
 13  3  1  0  0  0  0
 15  4  1  0  0  0  0
 18  5  1  0  0  0  0
 19  6  1  0  0  0  0
 22  7  1  0  0  0  0
 23  8  1  0  0  0  0
 23 34  1  0  0  0  0
 24 35  1  6  0  0  0
 24 23  1  0  0  0  0
 25 37  1  0  0  0  0
 25 24  1  0  0  0  0
 25 26  1  0  0  0  0
 26 27  1  0  0  0  0
 27 38  1  0  0  0  0
 27 28  2  0  0  0  0
 28 39  1  0  0  0  0
 29 40  1  0  0  0  0
 29 28  1  0  0  0  0
 30 29  2  0  0  0  0
 31 26  2  0  0  0  0
 31 30  1  0  0  0  0
 32 24  1  0  0  0  0
 32 33  2  0  0  0  0
 36 25  1  0  0  0  0
 41 30  1  0  0  0  0
 42 31  1  0  0  0  0
 43 53  1  0  0  0  0
 44 43  1  0  0  0  0
 44 46  1  0  0  0  0
 45 57  1  0  0  0  0
 45 44  1  0  0  0  0
 45 56  1  0  0  0  0
 46 47  1  0  0  0  0
 46 60  1  0  0  0  0
 47 48  1  0  0  0  0
 47 61  1  1  0  0  0
 48 32  1  0  0  0  0
 49 47  1  0  0  0  0
 50 49  1  0  0  0  0
 51 49  2  0  0  0  0
 52 43  1  0  0  0  0
 54 43  1  0  0  0  0
 55 44  1  0  0  0  0
 58 45  1  0  0  0  0
 59 46  1  0  0  0  0
 62 48  1  0  0  0  0
M  END
$$$$
