KFM.pdb
 OpenBabel07022418513D

 60 60  0  0  1  0  0  0  0  0999 V2000
   -0.7580    0.0980    4.1560 N   0  0  0  0  0  0  0  0  0  0  0  0
    0.1800    0.2840    3.0300 C   0  0  1  0  0  0  0  0  0  0  0  0
    1.2730   -0.6780    3.2150 C   0  0  0  0  0  0  0  0  0  0  0  0
    2.3760   -0.6730    2.2160 C   0  0  0  0  0  0  0  0  0  0  0  0
    3.4430   -1.7160    2.5470 C   0  0  0  0  0  0  0  0  0  0  0  0
    4.5420   -1.6660    1.5070 C   0  0  0  0  0  0  0  0  0  0  0  0
    3.9610   -1.9510    0.2210 N   0  0  0  0  0  0  0  0  0  0  0  0
   -0.5850    0.1590    1.7540 C   0  0  0  0  0  0  0  0  0  0  0  0
    0.0370    0.1220    0.6680 O   0  0  0  0  0  0  0  0  0  0  0  0
   -0.1410    0.1110    5.0070 H   0  0  0  0  0  0  0  0  0  0  0  0
   -1.3140    0.9840    4.2200 H   0  0  0  0  0  0  0  0  0  0  0  0
    0.5450    1.3390    3.1310 H   0  0  0  0  0  0  0  0  0  0  0  0
    0.8670   -1.7210    3.2760 H   0  0  0  0  0  0  0  0  0  0  0  0
    1.7010   -0.4970    4.2470 H   0  0  0  0  0  0  0  0  0  0  0  0
    2.8700    0.3270    2.2740 H   0  0  0  0  0  0  0  0  0  0  0  0
    2.0280   -0.8930    1.2070 H   0  0  0  0  0  0  0  0  0  0  0  0
    3.0100   -2.7250    2.6260 H   0  0  0  0  0  0  0  0  0  0  0  0
    3.9150   -1.4200    3.5200 H   0  0  0  0  0  0  0  0  0  0  0  0
    5.3360   -2.3880    1.6880 H   0  0  0  0  0  0  0  0  0  0  0  0
    4.9450   -0.6120    1.4670 H   0  0  0  0  0  0  0  0  0  0  0  0
    4.1530   -2.9320   -0.0970 H   0  0  0  0  0  0  0  0  0  0  0  0
    4.2630   -1.2500   -0.4930 H   0  0  0  0  0  0  0  0  0  0  0  0
   -1.9990    0.0910    1.7980 N   0  0  0  0  0  0  0  0  0  0  0  0
   -2.8300   -0.0120    0.6600 C   0  0  1  0  0  0  0  0  0  0  0  0
   -3.0990    1.2270   -0.1110 C   0  0  0  0  0  0  0  0  0  0  0  0
   -1.9730    1.9450   -0.6790 C   0  0  0  0  0  0  0  0  0  0  0  0
   -1.3420    2.9170    0.0510 C   0  0  0  0  0  0  0  0  0  0  0  0
   -0.2870    3.5920   -0.5140 C   0  0  0  0  0  0  0  0  0  0  0  0
    0.1670    3.3320   -1.7950 C   0  0  0  0  0  0  0  0  0  0  0  0
   -0.4740    2.3610   -2.5080 C   0  0  0  0  0  0  0  0  0  0  0  0
   -1.5350    1.6760   -1.9500 C   0  0  0  0  0  0  0  0  0  0  0  0
   -2.5750   -1.2370   -0.1160 C   0  0  0  0  0  0  0  0  0  0  0  0
   -3.1750   -1.3780   -1.2280 O   0  0  0  0  0  0  0  0  0  0  0  0
   -2.4440    0.1210    2.7630 H   0  0  0  0  0  0  0  0  0  0  0  0
   -3.9280   -0.2690    1.0680 H   0  0  0  0  0  0  0  0  0  0  0  0
   -3.8530    0.9360   -0.9130 H   0  0  0  0  0  0  0  0  0  0  0  0
   -3.6940    1.9390    0.5260 H   0  0  0  0  0  0  0  0  0  0  0  0
   -1.6450    3.1740    1.0640 H   0  0  0  0  0  0  0  0  0  0  0  0
    0.2260    4.3620    0.0470 H   0  0  0  0  0  0  0  0  0  0  0  0
    0.9990    3.8600   -2.2490 H   0  0  0  0  0  0  0  0  0  0  0  0
   -0.1440    2.1320   -3.5130 H   0  0  0  0  0  0  0  0  0  0  0  0
   -2.0150    0.9090   -2.5760 H   0  0  0  0  0  0  0  0  0  0  0  0
   -0.5350   -1.7250   -3.1930 C   0  0  0  0  0  0  0  0  0  0  0  0
    0.8300   -2.8010   -2.7820 S   0  0  0  0  0  0  0  0  0  0  0  0
    0.9830   -3.1460   -1.0380 C   0  0  0  0  0  0  0  0  0  0  0  0
   -0.0920   -3.9970   -0.4440 C   0  0  0  0  0  0  0  0  0  0  0  0
   -1.4720   -3.4880   -0.4370 C   0  0  2  0  0  0  0  0  0  0  0  0
   -1.7110   -2.2640    0.3110 N   0  0  0  0  0  0  0  0  0  0  0  0
   -2.4160   -4.5150    0.1490 C   0  0  0  0  0  0  0  0  0  0  0  0
   -2.4090   -5.6620   -0.3240 O   0  0  0  0  0  0  0  0  0  0  0  0
   -3.2590   -4.1930    1.1760 O   0  0  0  0  0  0  0  0  0  0  0  0
   -0.2250   -1.0040   -4.0180 H   0  0  0  0  0  0  0  0  0  0  0  0
   -1.4350   -2.2740   -3.5170 H   0  0  0  0  0  0  0  0  0  0  0  0
   -0.7350   -1.0640   -2.3230 H   0  0  0  0  0  0  0  0  0  0  0  0
    1.0650   -2.1650   -0.5030 H   0  0  0  0  0  0  0  0  0  0  0  0
    2.0030   -3.6130   -0.8900 H   0  0  0  0  0  0  0  0  0  0  0  0
   -0.1040   -4.9420   -1.0860 H   0  0  0  0  0  0  0  0  0  0  0  0
    0.2250   -4.4050    0.5600 H   0  0  0  0  0  0  0  0  0  0  0  0
   -1.9140   -3.2980   -1.4510 H   0  0  0  0  0  0  0  0  0  0  0  0
   -1.2010   -2.1910    1.2140 H   0  0  0  0  0  0  0  0  0  0  0  0
  1 11  1  0  0  0  0
  1 10  1  0  0  0  0
  2 12  1  1  0  0  0
  2  3  1  0  0  0  0
  2  1  1  0  0  0  0
  3 13  1  0  0  0  0
  3 14  1  0  0  0  0
  4 15  1  0  0  0  0
  4  5  1  0  0  0  0
  4  3  1  0  0  0  0
  5 17  1  0  0  0  0
  5 18  1  0  0  0  0
  6 19  1  0  0  0  0
  6  5  1  0  0  0  0
  7  6  1  0  0  0  0
  8 23  1  0  0  0  0
  8  2  1  0  0  0  0
  9  8  2  0  0  0  0
 16  4  1  0  0  0  0
 20  6  1  0  0  0  0
 21  7  1  0  0  0  0
 22  7  1  0  0  0  0
 23 34  1  0  0  0  0
 24 35  1  1  0  0  0
 24 23  1  0  0  0  0
 25 37  1  0  0  0  0
 25 24  1  0  0  0  0
 26 25  1  0  0  0  0
 26 27  1  0  0  0  0
 27 38  1  0  0  0  0
 28 39  1  0  0  0  0
 28 27  2  0  0  0  0
 29 28  1  0  0  0  0
 30 31  1  0  0  0  0
 30 29  2  0  0  0  0
 31 26  2  0  0  0  0
 32 48  1  0  0  0  0
 32 24  1  0  0  0  0
 33 32  2  0  0  0  0
 36 25  1  0  0  0  0
 40 29  1  0  0  0  0
 41 30  1  0  0  0  0
 42 31  1  0  0  0  0
 43 44  1  0  0  0  0
 43 54  1  0  0  0  0
 44 45  1  0  0  0  0
 45 56  1  0  0  0  0
 45 55  1  0  0  0  0
 45 46  1  0  0  0  0
 46 47  1  0  0  0  0
 46 58  1  0  0  0  0
 47 59  1  6  0  0  0
 47 49  1  0  0  0  0
 47 48  1  0  0  0  0
 48 60  1  0  0  0  0
 49 51  1  0  0  0  0
 50 49  2  0  0  0  0
 52 43  1  0  0  0  0
 53 43  1  0  0  0  0
 57 46  1  0  0  0  0
M  END
$$$$
