KFR.pdb
 OpenBabel07022418513D

 66 66  0  0  1  0  0  0  0  0999 V2000
    5.1260   -0.0290    0.9090 N   0  0  0  0  0  0  0  0  0  0  0  0
    3.9250   -0.4370    0.1710 C   0  0  1  0  0  0  0  0  0  0  0  0
    3.6780   -1.8750    0.6070 C   0  0  0  0  0  0  0  0  0  0  0  0
    4.8790   -2.6940    0.2500 C   0  0  0  0  0  0  0  0  0  0  0  0
    5.1750   -2.7160   -1.2160 C   0  0  0  0  0  0  0  0  0  0  0  0
    3.9690   -3.3010   -1.9430 C   0  0  0  0  0  0  0  0  0  0  0  0
    4.2380   -3.3430   -3.3790 N   0  0  0  0  0  0  0  0  0  0  0  0
    2.8210    0.4410    0.6520 C   0  0  0  0  0  0  0  0  0  0  0  0
    3.0120    1.2870    1.5600 O   0  0  0  0  0  0  0  0  0  0  0  0
    5.0170   -0.1790    1.9370 H   0  0  0  0  0  0  0  0  0  0  0  0
    5.4290    0.9270    0.6610 H   0  0  0  0  0  0  0  0  0  0  0  0
    4.1300   -0.3190   -0.8870 H   0  0  0  0  0  0  0  0  0  0  0  0
    2.7310   -2.2700    0.2360 H   0  0  0  0  0  0  0  0  0  0  0  0
    3.5990   -1.9070    1.7330 H   0  0  0  0  0  0  0  0  0  0  0  0
    5.7570   -2.2490    0.7800 H   0  0  0  0  0  0  0  0  0  0  0  0
    4.7330   -3.7250    0.6430 H   0  0  0  0  0  0  0  0  0  0  0  0
    5.4250   -1.7170   -1.5700 H   0  0  0  0  0  0  0  0  0  0  0  0
    6.0610   -3.4090   -1.3370 H   0  0  0  0  0  0  0  0  0  0  0  0
    3.8090   -4.3170   -1.5540 H   0  0  0  0  0  0  0  0  0  0  0  0
    3.0580   -2.7070   -1.7240 H   0  0  0  0  0  0  0  0  0  0  0  0
    3.3400   -3.2610   -3.8820 H   0  0  0  0  0  0  0  0  0  0  0  0
    4.8380   -2.5390   -3.6240 H   0  0  0  0  0  0  0  0  0  0  0  0
    1.4960    0.3740    0.1230 N   0  0  0  0  0  0  0  0  0  0  0  0
    0.4350    1.2350    0.6290 C   0  0  1  0  0  0  0  0  0  0  0  0
   -0.1680    2.0720   -0.4520 C   0  0  0  0  0  0  0  0  0  0  0  0
   -1.2510    2.9470    0.0360 C   0  0  0  0  0  0  0  0  0  0  0  0
   -1.0090    4.1960    0.5700 C   0  0  0  0  0  0  0  0  0  0  0  0
   -2.0570    4.9870    0.9990 C   0  0  0  0  0  0  0  0  0  0  0  0
   -3.3850    4.5850    0.9220 C   0  0  0  0  0  0  0  0  0  0  0  0
   -3.6150    3.3320    0.3850 C   0  0  0  0  0  0  0  0  0  0  0  0
   -2.5600    2.5340   -0.0480 C   0  0  0  0  0  0  0  0  0  0  0  0
   -0.6190    0.3860    1.2930 C   0  0  0  0  0  0  0  0  0  0  0  0
   -1.5930    0.8780    1.8960 O   0  0  0  0  0  0  0  0  0  0  0  0
    1.3400   -0.3170   -0.6420 H   0  0  0  0  0  0  0  0  0  0  0  0
    0.8650    1.9000    1.4000 H   0  0  0  0  0  0  0  0  0  0  0  0
    0.6390    2.7650   -0.8300 H   0  0  0  0  0  0  0  0  0  0  0  0
   -0.5610    1.4590   -1.3000 H   0  0  0  0  0  0  0  0  0  0  0  0
    0.0330    4.5370    0.6420 H   0  0  0  0  0  0  0  0  0  0  0  0
   -1.8800    5.9670    1.4220 H   0  0  0  0  0  0  0  0  0  0  0  0
   -4.1930    5.2240    1.2670 H   0  0  0  0  0  0  0  0  0  0  0  0
   -4.6480    2.9820    0.3080 H   0  0  0  0  0  0  0  0  0  0  0  0
   -2.7570    1.5630   -0.4670 H   0  0  0  0  0  0  0  0  0  0  0  0
   -5.0260   -0.4840   -0.5200 N   0  0  0  0  0  0  0  0  0  0  0  0
   -4.9130   -1.0690    0.7630 C   0  0  0  0  0  0  0  0  0  0  0  0
   -4.5210   -0.2980    1.7320 N   0  0  0  0  0  0  0  0  0  0  0  0
   -5.2120   -2.4190    1.0530 N   0  0  0  0  0  0  0  0  0  0  0  0
   -4.3410   -3.2990    1.7720 C   0  0  0  0  0  0  0  0  0  0  0  0
   -3.1120   -3.7130    1.0600 C   0  0  0  0  0  0  0  0  0  0  0  0
   -2.1090   -2.7030    0.6930 C   0  0  0  0  0  0  0  0  0  0  0  0
   -1.4640   -1.9560    1.8430 C   0  0  2  0  0  0  0  0  0  0  0  0
   -0.5120   -1.0280    1.2390 N   0  0  0  0  0  0  0  0  0  0  0  0
   -0.7950   -2.8880    2.7700 C   0  0  0  0  0  0  0  0  0  0  0  0
   -1.4720   -3.7520    3.3710 O   0  0  0  0  0  0  0  0  0  0  0  0
    0.5670   -2.8560    3.0150 O   0  0  0  0  0  0  0  0  0  0  0  0
   -4.8430   -0.9630   -1.4050 H   0  0  0  0  0  0  0  0  0  0  0  0
   -5.3210    0.5230   -0.5910 H   0  0  0  0  0  0  0  0  0  0  0  0
   -4.3920   -0.5740    2.7130 H   0  0  0  0  0  0  0  0  0  0  0  0
   -6.1560   -2.7470    0.6760 H   0  0  0  0  0  0  0  0  0  0  0  0
   -4.1580   -2.8760    2.7840 H   0  0  0  0  0  0  0  0  0  0  0  0
   -4.9270   -4.2490    1.9720 H   0  0  0  0  0  0  0  0  0  0  0  0
   -3.4790   -4.1490    0.0640 H   0  0  0  0  0  0  0  0  0  0  0  0
   -2.6190   -4.5940    1.5300 H   0  0  0  0  0  0  0  0  0  0  0  0
   -1.2720   -3.2350    0.1660 H   0  0  0  0  0  0  0  0  0  0  0  0
   -2.4700   -1.9510   -0.0460 H   0  0  0  0  0  0  0  0  0  0  0  0
   -2.1490   -1.3480    2.4270 H   0  0  0  0  0  0  0  0  0  0  0  0
    0.3310   -1.4130    0.7190 H   0  0  0  0  0  0  0  0  0  0  0  0
  1 10  1  0  0  0  0
  2 12  1  6  0  0  0
  2  3  1  0  0  0  0
  2  8  1  0  0  0  0
  2  1  1  0  0  0  0
  3 14  1  0  0  0  0
  4  3  1  0  0  0  0
  4 16  1  0  0  0  0
  4 15  1  0  0  0  0
  5  4  1  0  0  0  0
  6 20  1  0  0  0  0
  6 19  1  0  0  0  0
  6  5  1  0  0  0  0
  7  6  1  0  0  0  0
  8  9  2  0  0  0  0
 11  1  1  0  0  0  0
 13  3  1  0  0  0  0
 17  5  1  0  0  0  0
 18  5  1  0  0  0  0
 21  7  1  0  0  0  0
 22  7  1  0  0  0  0
 23 24  1  0  0  0  0
 23  8  1  0  0  0  0
 24 32  1  0  0  0  0
 24 35  1  1  0  0  0
 25 26  1  0  0  0  0
 25 24  1  0  0  0  0
 26 27  1  0  0  0  0
 27 38  1  0  0  0  0
 27 28  2  0  0  0  0
 28 39  1  0  0  0  0
 29 28  1  0  0  0  0
 29 40  1  0  0  0  0
 30 29  2  0  0  0  0
 31 26  2  0  0  0  0
 31 30  1  0  0  0  0
 32 33  2  0  0  0  0
 34 23  1  0  0  0  0
 36 25  1  0  0  0  0
 37 25  1  0  0  0  0
 41 30  1  0  0  0  0
 42 31  1  0  0  0  0
 43 44  1  0  0  0  0
 44 46  1  0  0  0  0
 44 45  2  0  0  0  0
 45 57  1  0  0  0  0
 46 47  1  0  0  0  0
 47 60  1  0  0  0  0
 47 59  1  0  0  0  0
 48 62  1  0  0  0  0
 48 47  1  0  0  0  0
 49 48  1  0  0  0  0
 49 50  1  0  0  0  0
 50 65  1  1  0  0  0
 50 52  1  0  0  0  0
 51 32  1  0  0  0  0
 51 50  1  0  0  0  0
 52 54  2  0  0  0  0
 52 53  1  0  0  0  0
 55 43  1  0  0  0  0
 56 43  1  0  0  0  0
 58 46  1  0  0  0  0
 61 48  1  0  0  0  0
 63 49  1  0  0  0  0
 64 49  1  0  0  0  0
 66 51  1  0  0  0  0
M  END
$$$$
