KFT.pdb
 OpenBabel07022418513D

 57 57  0  0  1  0  0  0  0  0999 V2000
    2.8940   -1.9970    0.3500 N   0  0  0  0  0  0  0  0  0  0  0  0
    2.5340   -2.0490    1.7330 C   0  0  1  0  0  0  0  0  0  0  0  0
    3.5500   -1.5130    2.6750 C   0  0  0  0  0  0  0  0  0  0  0  0
    3.9340   -0.0910    2.5150 C   0  0  0  0  0  0  0  0  0  0  0  0
    4.5250    0.2850    1.1950 C   0  0  0  0  0  0  0  0  0  0  0  0
    4.8900    1.7790    1.1600 C   0  0  0  0  0  0  0  0  0  0  0  0
    5.4500    2.0200   -0.1620 N   0  0  0  0  0  0  0  0  0  0  0  0
    1.1920   -1.4590    1.9950 C   0  0  0  0  0  0  0  0  0  0  0  0
    0.7140   -1.4210    3.1560 O   0  0  0  0  0  0  0  0  0  0  0  0
    3.7990   -2.5100    0.2400 H   0  0  0  0  0  0  0  0  0  0  0  0
    2.1860   -2.5800   -0.1770 H   0  0  0  0  0  0  0  0  0  0  0  0
    2.4240   -3.1460    1.9850 H   0  0  0  0  0  0  0  0  0  0  0  0
    4.4710   -2.1290    2.5610 H   0  0  0  0  0  0  0  0  0  0  0  0
    3.1320   -1.6520    3.7110 H   0  0  0  0  0  0  0  0  0  0  0  0
    3.1140    0.6210    2.8230 H   0  0  0  0  0  0  0  0  0  0  0  0
    4.7390    0.1090    3.2840 H   0  0  0  0  0  0  0  0  0  0  0  0
    3.7400    0.1880    0.3940 H   0  0  0  0  0  0  0  0  0  0  0  0
    5.4290   -0.2630    0.9400 H   0  0  0  0  0  0  0  0  0  0  0  0
    4.0010    2.3920    1.3500 H   0  0  0  0  0  0  0  0  0  0  0  0
    5.6720    1.9870    1.9180 H   0  0  0  0  0  0  0  0  0  0  0  0
    4.6900    2.2000   -0.8510 H   0  0  0  0  0  0  0  0  0  0  0  0
    6.0080    1.1950   -0.4760 H   0  0  0  0  0  0  0  0  0  0  0  0
    0.4270   -0.9250    0.9150 N   0  0  0  0  0  0  0  0  0  0  0  0
   -0.8840   -0.3400    1.1160 C   0  0  1  0  0  0  0  0  0  0  0  0
   -0.9050    1.1080    0.6950 C   0  0  0  0  0  0  0  0  0  0  0  0
   -2.2010    1.7690    0.8660 C   0  0  0  0  0  0  0  0  0  0  0  0
   -3.0840    1.7570   -0.1920 C   0  0  0  0  0  0  0  0  0  0  0  0
   -4.3120    2.3640   -0.0660 C   0  0  0  0  0  0  0  0  0  0  0  0
   -4.6910    2.9890    1.0920 C   0  0  0  0  0  0  0  0  0  0  0  0
   -3.8090    3.0030    2.1550 C   0  0  0  0  0  0  0  0  0  0  0  0
   -2.5700    2.4010    2.0540 C   0  0  0  0  0  0  0  0  0  0  0  0
   -1.8730   -1.1780    0.4110 C   0  0  0  0  0  0  0  0  0  0  0  0
   -3.1110   -0.9370    0.4130 O   0  0  0  0  0  0  0  0  0  0  0  0
    0.8710   -0.9820   -0.0280 H   0  0  0  0  0  0  0  0  0  0  0  0
   -1.1730   -0.3810    2.2050 H   0  0  0  0  0  0  0  0  0  0  0  0
   -0.1370    1.7040    1.2150 H   0  0  0  0  0  0  0  0  0  0  0  0
   -0.6350    1.1320   -0.3810 H   0  0  0  0  0  0  0  0  0  0  0  0
   -2.8680    1.2860   -1.1550 H   0  0  0  0  0  0  0  0  0  0  0  0
   -4.9980    2.3530   -0.8930 H   0  0  0  0  0  0  0  0  0  0  0  0
   -5.6680    3.4500    1.1360 H   0  0  0  0  0  0  0  0  0  0  0  0
   -4.1430    3.5070    3.0540 H   0  0  0  0  0  0  0  0  0  0  0  0
   -1.8840    2.4170    2.8920 H   0  0  0  0  0  0  0  0  0  0  0  0
   -3.1430   -4.0520   -3.1690 C   0  0  0  0  0  0  0  0  0  0  0  0
   -2.0880   -3.1750   -2.5100 C   0  0  1  0  0  0  0  0  0  0  0  0
   -2.2430   -1.9020   -3.0520 O   0  0  0  0  0  0  0  0  0  0  0  0
   -2.3280   -3.1730   -1.0170 C   0  0  2  0  0  0  0  0  0  0  0  0
   -1.4280   -2.3150   -0.3110 N   0  0  0  0  0  0  0  0  0  0  0  0
   -2.3430   -4.5370   -0.4550 C   0  0  0  0  0  0  0  0  0  0  0  0
   -3.0430   -5.4670   -0.8940 O   0  0  0  0  0  0  0  0  0  0  0  0
   -1.5240   -4.8020    0.6340 O   0  0  0  0  0  0  0  0  0  0  0  0
   -2.7330   -5.0510   -3.4500 H   0  0  0  0  0  0  0  0  0  0  0  0
   -3.5120   -3.5850   -4.1260 H   0  0  0  0  0  0  0  0  0  0  0  0
   -4.0470   -4.1300   -2.5280 H   0  0  0  0  0  0  0  0  0  0  0  0
   -1.0990   -3.6010   -2.7660 H   0  0  0  0  0  0  0  0  0  0  0  0
   -3.1970   -1.6550   -2.9450 H   0  0  0  0  0  0  0  0  0  0  0  0
   -3.3710   -2.7680   -0.8780 H   0  0  0  0  0  0  0  0  0  0  0  0
   -0.3970   -2.5760   -0.3540 H   0  0  0  0  0  0  0  0  0  0  0  0
  1  2  1  0  0  0  0
  2 12  1  1  0  0  0
  2  8  1  0  0  0  0
  2  3  1  0  0  0  0
  3 14  1  0  0  0  0
  4  3  1  0  0  0  0
  4 15  1  0  0  0  0
  4 16  1  0  0  0  0
  5  4  1  0  0  0  0
  6  5  1  0  0  0  0
  6 19  1  0  0  0  0
  6 20  1  0  0  0  0
  7  6  1  0  0  0  0
  8  9  2  0  0  0  0
 10  1  1  0  0  0  0
 11  1  1  0  0  0  0
 13  3  1  0  0  0  0
 17  5  1  0  0  0  0
 18  5  1  0  0  0  0
 21  7  1  0  0  0  0
 22  7  1  0  0  0  0
 23 24  1  0  0  0  0
 23  8  1  0  0  0  0
 24 35  1  1  0  0  0
 25 26  1  0  0  0  0
 25 24  1  0  0  0  0
 25 36  1  0  0  0  0
 26 31  1  0  0  0  0
 27 28  1  0  0  0  0
 27 26  2  0  0  0  0
 28 29  2  0  0  0  0
 29 40  1  0  0  0  0
 29 30  1  0  0  0  0
 30 41  1  0  0  0  0
 31 30  2  0  0  0  0
 31 42  1  0  0  0  0
 32 33  2  0  0  0  0
 32 24  1  0  0  0  0
 34 23  1  0  0  0  0
 37 25  1  0  0  0  0
 38 27  1  0  0  0  0
 39 28  1  0  0  0  0
 43 53  1  0  0  0  0
 43 44  1  0  0  0  0
 44 54  1  6  0  0  0
 44 46  1  0  0  0  0
 45 55  1  0  0  0  0
 45 44  1  0  0  0  0
 46 56  1  1  0  0  0
 46 48  1  0  0  0  0
 46 47  1  0  0  0  0
 47 32  1  0  0  0  0
 48 50  1  0  0  0  0
 49 48  2  0  0  0  0
 51 43  1  0  0  0  0
 52 43  1  0  0  0  0
 57 47  1  0  0  0  0
M  END
$$$$
