KFY.pdb
 OpenBabel07022418513D

 64 65  0  0  1  0  0  0  0  0999 V2000
    2.7480    2.0130    3.9940 N   0  0  0  0  0  0  0  0  0  0  0  0
    2.6490    1.7030    2.5750 C   0  0  1  0  0  0  0  0  0  0  0  0
    3.0580    0.2450    2.3650 C   0  0  0  0  0  0  0  0  0  0  0  0
    4.4670    0.0830    2.8410 C   0  0  0  0  0  0  0  0  0  0  0  0
    4.9850   -1.3180    2.6850 C   0  0  0  0  0  0  0  0  0  0  0  0
    4.1520   -2.3180    3.4690 C   0  0  0  0  0  0  0  0  0  0  0  0
    4.6740   -3.6580    3.3010 N   0  0  0  0  0  0  0  0  0  0  0  0
    1.2160    1.8950    2.1760 C   0  0  0  0  0  0  0  0  0  0  0  0
    0.3430    2.2600    3.0050 O   0  0  0  0  0  0  0  0  0  0  0  0
    1.8970    2.5110    4.3390 H   0  0  0  0  0  0  0  0  0  0  0  0
    3.5670    2.6590    4.0960 H   0  0  0  0  0  0  0  0  0  0  0  0
    3.3330    2.3110    1.9560 H   0  0  0  0  0  0  0  0  0  0  0  0
    2.9510    0.0440    1.2890 H   0  0  0  0  0  0  0  0  0  0  0  0
    2.4160   -0.4190    2.9890 H   0  0  0  0  0  0  0  0  0  0  0  0
    4.5010    0.3540    3.9230 H   0  0  0  0  0  0  0  0  0  0  0  0
    5.1810    0.7600    2.3350 H   0  0  0  0  0  0  0  0  0  0  0  0
    6.0070   -1.3380    3.1580 H   0  0  0  0  0  0  0  0  0  0  0  0
    5.0460   -1.6220    1.6280 H   0  0  0  0  0  0  0  0  0  0  0  0
    4.1500   -2.0400    4.5370 H   0  0  0  0  0  0  0  0  0  0  0  0
    3.1350   -2.3250    3.0150 H   0  0  0  0  0  0  0  0  0  0  0  0
    3.9140   -4.3790    3.4490 H   0  0  0  0  0  0  0  0  0  0  0  0
    5.0350   -3.8210    2.3270 H   0  0  0  0  0  0  0  0  0  0  0  0
    0.7900    1.6710    0.8470 N   0  0  0  0  0  0  0  0  0  0  0  0
   -0.5820    1.8450    0.4280 C   0  0  1  0  0  0  0  0  0  0  0  0
   -0.5910    2.9130   -0.6350 C   0  0  0  0  0  0  0  0  0  0  0  0
   -1.9100    3.2350   -1.1810 C   0  0  0  0  0  0  0  0  0  0  0  0
   -2.6640    4.1970   -0.5220 C   0  0  0  0  0  0  0  0  0  0  0  0
   -3.9060    4.5440   -0.9980 C   0  0  0  0  0  0  0  0  0  0  0  0
   -4.4110    3.9350   -2.1360 C   0  0  0  0  0  0  0  0  0  0  0  0
   -3.6800    2.9750   -2.8090 C   0  0  0  0  0  0  0  0  0  0  0  0
   -2.4390    2.6510   -2.3050 C   0  0  0  0  0  0  0  0  0  0  0  0
   -1.1410    0.5510   -0.0960 C   0  0  0  0  0  0  0  0  0  0  0  0
   -2.3120    0.4730   -0.5400 O   0  0  0  0  0  0  0  0  0  0  0  0
    1.4840    1.3700    0.1410 H   0  0  0  0  0  0  0  0  0  0  0  0
   -1.1710    2.1700    1.3310 H   0  0  0  0  0  0  0  0  0  0  0  0
    0.0880    2.6060   -1.4840 H   0  0  0  0  0  0  0  0  0  0  0  0
   -0.0840    3.7980   -0.1850 H   0  0  0  0  0  0  0  0  0  0  0  0
   -2.2990    4.6980    0.3760 H   0  0  0  0  0  0  0  0  0  0  0  0
   -4.5100    5.2990   -0.4900 H   0  0  0  0  0  0  0  0  0  0  0  0
   -5.4020    4.2200   -2.5040 H   0  0  0  0  0  0  0  0  0  0  0  0
   -4.1130    2.5280   -3.6890 H   0  0  0  0  0  0  0  0  0  0  0  0
   -1.8630    1.9070   -2.8310 H   0  0  0  0  0  0  0  0  0  0  0  0
   -3.9400   -7.4380   -1.6420 O   0  0  0  0  0  0  0  0  0  0  0  0
   -3.4130   -6.2360   -1.1640 C   0  0  0  0  0  0  0  0  0  0  0  0
   -2.2390   -6.1810   -0.4520 C   0  0  0  0  0  0  0  0  0  0  0  0
   -1.7360   -4.9890    0.0110 C   0  0  0  0  0  0  0  0  0  0  0  0
   -2.3910   -3.7760   -0.2210 C   0  0  0  0  0  0  0  0  0  0  0  0
   -1.8840   -2.4970    0.3020 C   0  0  0  0  0  0  0  0  0  0  0  0
   -0.8700   -1.9010   -0.5970 C   0  0  2  0  0  0  0  0  0  0  0  0
   -0.3570   -0.6350   -0.1020 N   0  0  0  0  0  0  0  0  0  0  0  0
   -1.3340   -1.8320   -1.9760 C   0  0  0  0  0  0  0  0  0  0  0  0
   -1.3580   -0.7540   -2.6340 O   0  0  0  0  0  0  0  0  0  0  0  0
   -3.5670   -3.8700   -0.9400 C   0  0  0  0  0  0  0  0  0  0  0  0
   -4.0810   -5.0600   -1.4090 C   0  0  0  0  0  0  0  0  0  0  0  0
   -1.7710   -2.9550   -2.6400 O   0  0  0  0  0  0  0  0  0  0  0  0
   -3.2680   -8.0840   -2.0650 H   0  0  0  0  0  0  0  0  0  0  0  0
   -1.7180   -7.1030   -0.2620 H   0  0  0  0  0  0  0  0  0  0  0  0
   -0.8070   -4.9310    0.5770 H   0  0  0  0  0  0  0  0  0  0  0  0
   -1.5180   -2.6060    1.3610 H   0  0  0  0  0  0  0  0  0  0  0  0
   -2.7210   -1.7630    0.3930 H   0  0  0  0  0  0  0  0  0  0  0  0
    0.0220   -2.6080   -0.6210 H   0  0  0  0  0  0  0  0  0  0  0  0
    0.6220   -0.5620    0.2700 H   0  0  0  0  0  0  0  0  0  0  0  0
   -4.1090   -2.9470   -1.1420 H   0  0  0  0  0  0  0  0  0  0  0  0
   -5.0120   -5.1210   -1.9760 H   0  0  0  0  0  0  0  0  0  0  0  0
  1 11  1  0  0  0  0
  1 10  1  0  0  0  0
  2 12  1  6  0  0  0
  2  1  1  0  0  0  0
  3  2  1  0  0  0  0
  3  4  1  0  0  0  0
  3 14  1  0  0  0  0
  4 15  1  0  0  0  0
  5  4  1  0  0  0  0
  5 17  1  0  0  0  0
  5  6  1  0  0  0  0
  6 19  1  0  0  0  0
  7 21  1  0  0  0  0
  7  6  1  0  0  0  0
  8  2  1  0  0  0  0
  8  9  2  0  0  0  0
 13  3  1  0  0  0  0
 16  4  1  0  0  0  0
 18  5  1  0  0  0  0
 20  6  1  0  0  0  0
 22  7  1  0  0  0  0
 23  8  1  0  0  0  0
 24 23  1  0  0  0  0
 24 35  1  1  0  0  0
 25 37  1  0  0  0  0
 25 24  1  0  0  0  0
 26 25  1  0  0  0  0
 26 27  1  0  0  0  0
 27 38  1  0  0  0  0
 28 27  2  0  0  0  0
 28 39  1  0  0  0  0
 29 28  1  0  0  0  0
 30 31  1  0  0  0  0
 30 29  2  0  0  0  0
 31 26  2  0  0  0  0
 32 24  1  0  0  0  0
 33 32  2  0  0  0  0
 34 23  1  0  0  0  0
 36 25  1  0  0  0  0
 40 29  1  0  0  0  0
 41 30  1  0  0  0  0
 42 31  1  0  0  0  0
 43 44  1  0  0  0  0
 44 45  1  0  0  0  0
 45 57  1  0  0  0  0
 45 46  2  0  0  0  0
 46 58  1  0  0  0  0
 47 46  1  0  0  0  0
 47 48  1  0  0  0  0
 48 60  1  0  0  0  0
 48 59  1  0  0  0  0
 49 61  1  6  0  0  0
 49 50  1  0  0  0  0
 49 48  1  0  0  0  0
 50 32  1  0  0  0  0
 50 62  1  0  0  0  0
 51 49  1  0  0  0  0
 52 51  1  0  0  0  0
 53 47  2  0  0  0  0
 54 44  2  0  0  0  0
 54 53  1  0  0  0  0
 55 51  2  0  0  0  0
 56 43  1  0  0  0  0
 63 53  1  0  0  0  0
 64 54  1  0  0  0  0
M  END
$$$$
