KGC.pdb
 OpenBabel07022418493D

 41 40  0  0  1  0  0  0  0  0999 V2000
   -0.8650   -1.5170    2.8830 N   0  0  0  0  0  0  0  0  0  0  0  0
   -0.2330   -2.1540    1.6600 C   0  0  1  0  0  0  0  0  0  0  0  0
   -1.2270   -3.1470    1.1630 C   0  0  0  0  0  0  0  0  0  0  0  0
   -0.9510   -3.9760   -0.0070 C   0  0  0  0  0  0  0  0  0  0  0  0
   -0.7230   -3.3750   -1.3340 C   0  0  0  0  0  0  0  0  0  0  0  0
   -1.8620   -2.5200   -1.8310 C   0  0  0  0  0  0  0  0  0  0  0  0
   -1.4760   -2.0120   -3.1380 N   0  0  0  0  0  0  0  0  0  0  0  0
    0.0590   -1.0060    0.8020 C   0  0  0  0  0  0  0  0  0  0  0  0
   -0.6970    0.0260    0.8520 O   0  0  0  0  0  0  0  0  0  0  0  0
   -0.0900   -1.2140    3.5080 H   0  0  0  0  0  0  0  0  0  0  0  0
   -1.3320   -2.3250    3.3590 H   0  0  0  0  0  0  0  0  0  0  0  0
    0.6540   -2.6600    2.0640 H   0  0  0  0  0  0  0  0  0  0  0  0
   -1.3810   -3.8810    2.0320 H   0  0  0  0  0  0  0  0  0  0  0  0
   -2.2650   -2.6890    1.1020 H   0  0  0  0  0  0  0  0  0  0  0  0
   -1.7860   -4.7320   -0.1110 H   0  0  0  0  0  0  0  0  0  0  0  0
   -0.0520   -4.6350    0.2170 H   0  0  0  0  0  0  0  0  0  0  0  0
   -0.7600   -4.2790   -2.0640 H   0  0  0  0  0  0  0  0  0  0  0  0
    0.2620   -2.9690   -1.5200 H   0  0  0  0  0  0  0  0  0  0  0  0
   -2.0570   -1.6480   -1.1910 H   0  0  0  0  0  0  0  0  0  0  0  0
   -2.7720   -3.1230   -1.8710 H   0  0  0  0  0  0  0  0  0  0  0  0
   -1.9590   -1.1200   -3.3810 H   0  0  0  0  0  0  0  0  0  0  0  0
   -0.4330   -1.8750   -3.1890 H   0  0  0  0  0  0  0  0  0  0  0  0
    1.1450   -0.9110   -0.1140 N   0  0  0  0  0  0  0  0  0  0  0  0
    1.3890    0.2560   -0.9230 C   0  0  0  0  0  0  0  0  0  0  0  0
    1.6930    1.4600   -0.1340 C   0  0  0  0  0  0  0  0  0  0  0  0
    1.8840    2.5720   -0.7370 O   0  0  0  0  0  0  0  0  0  0  0  0
    1.7820   -1.7650   -0.1630 H   0  0  0  0  0  0  0  0  0  0  0  0
    2.2670    0.0590   -1.5880 H   0  0  0  0  0  0  0  0  0  0  0  0
    0.5080    0.3980   -1.5850 H   0  0  0  0  0  0  0  0  0  0  0  0
    1.8000    1.5120    1.2750 N   0  0  0  0  0  0  0  0  0  0  0  0
    2.1020    2.7670    1.9520 C   0  0  1  0  0  0  0  0  0  0  0  0
    0.9730    3.0820    2.9130 C   0  0  0  0  0  0  0  0  0  0  0  0
    0.7620    1.8000    4.1520 S   0  0  0  0  0  0  0  0  0  0  0  0
    3.3620    2.6100    2.7350 C   0  0  0  0  0  0  0  0  0  0  0  0
    3.8120    3.5740    3.4010 O   0  0  0  0  0  0  0  0  0  0  0  0
    4.0740    1.4140    2.7580 O   0  0  0  0  0  0  0  0  0  0  0  0
    1.6820    0.6630    1.8430 H   0  0  0  0  0  0  0  0  0  0  0  0
    2.2190    3.5900    1.2380 H   0  0  0  0  0  0  0  0  0  0  0  0
    1.2090    4.0550    3.4210 H   0  0  0  0  0  0  0  0  0  0  0  0
    0.0350    3.2590    2.3370 H   0  0  0  0  0  0  0  0  0  0  0  0
    2.0120    1.2120    4.4710 H   0  0  0  0  0  0  0  0  0  0  0  0
  1 11  1  0  0  0  0
  1 10  1  0  0  0  0
  2 12  1  1  0  0  0
  2  1  1  0  0  0  0
  3  2  1  0  0  0  0
  3 13  1  0  0  0  0
  4 16  1  0  0  0  0
  4  3  1  0  0  0  0
  5  4  1  0  0  0  0
  6  5  1  0  0  0  0
  6 19  1  0  0  0  0
  7  6  1  0  0  0  0
  8  9  2  0  0  0  0
  8  2  1  0  0  0  0
 14  3  1  0  0  0  0
 15  4  1  0  0  0  0
 17  5  1  0  0  0  0
 18  5  1  0  0  0  0
 20  6  1  0  0  0  0
 21  7  1  0  0  0  0
 22  7  1  0  0  0  0
 23  8  1  0  0  0  0
 24 25  1  0  0  0  0
 24 23  1  0  0  0  0
 25 30  1  0  0  0  0
 26 25  2  0  0  0  0
 27 23  1  0  0  0  0
 28 24  1  0  0  0  0
 29 24  1  0  0  0  0
 30 37  1  0  0  0  0
 30 31  1  0  0  0  0
 31 38  1  6  0  0  0
 31 34  1  0  0  0  0
 31 32  1  0  0  0  0
 32 39  1  0  0  0  0
 32 33  1  0  0  0  0
 33 41  1  0  0  0  0
 34 36  2  0  0  0  0
 34 35  1  0  0  0  0
 40 32  1  0  0  0  0
M  END
$$$$
