KGF.pdb
 OpenBabel07022418503D

 50 50  0  0  1  0  0  0  0  0999 V2000
    0.2930   -2.1220   -2.3710 N   0  0  0  0  0  0  0  0  0  0  0  0
    1.0490   -1.9160   -1.1270 C   0  0  1  0  0  0  0  0  0  0  0  0
    2.3290   -2.6660   -1.2760 C   0  0  0  0  0  0  0  0  0  0  0  0
    3.2510   -2.5850   -0.1080 C   0  0  0  0  0  0  0  0  0  0  0  0
    2.6550   -3.1220    1.1690 C   0  0  0  0  0  0  0  0  0  0  0  0
    3.7320   -2.9590    2.2440 C   0  0  0  0  0  0  0  0  0  0  0  0
    3.2770   -3.4430    3.5290 N   0  0  0  0  0  0  0  0  0  0  0  0
    1.2050   -0.4640   -0.9500 C   0  0  0  0  0  0  0  0  0  0  0  0
    1.8250   -0.0630    0.0680 O   0  0  0  0  0  0  0  0  0  0  0  0
    0.5380   -3.0060   -2.8320 H   0  0  0  0  0  0  0  0  0  0  0  0
   -0.7200   -2.0140   -2.2390 H   0  0  0  0  0  0  0  0  0  0  0  0
    0.4170   -2.3370   -0.3220 H   0  0  0  0  0  0  0  0  0  0  0  0
    2.8460   -2.2790   -2.1780 H   0  0  0  0  0  0  0  0  0  0  0  0
    2.0630   -3.7240   -1.5210 H   0  0  0  0  0  0  0  0  0  0  0  0
    3.6200   -1.5530    0.0150 H   0  0  0  0  0  0  0  0  0  0  0  0
    4.1360   -3.2220   -0.3360 H   0  0  0  0  0  0  0  0  0  0  0  0
    1.7590   -2.5950    1.5020 H   0  0  0  0  0  0  0  0  0  0  0  0
    2.4260   -4.2000    1.1080 H   0  0  0  0  0  0  0  0  0  0  0  0
    4.0590   -1.8890    2.2870 H   0  0  0  0  0  0  0  0  0  0  0  0
    4.6120   -3.5340    1.8600 H   0  0  0  0  0  0  0  0  0  0  0  0
    3.3010   -2.6620    4.2400 H   0  0  0  0  0  0  0  0  0  0  0  0
    4.0020   -4.1400    3.8530 H   0  0  0  0  0  0  0  0  0  0  0  0
    0.7000    0.4780   -1.8540 N   0  0  0  0  0  0  0  0  0  0  0  0
    0.8070    1.8950   -1.7390 C   0  0  0  0  0  0  0  0  0  0  0  0
    0.1430    2.4960   -0.5720 C   0  0  0  0  0  0  0  0  0  0  0  0
    0.1990    3.7460   -0.3300 O   0  0  0  0  0  0  0  0  0  0  0  0
    0.1910    0.0870   -2.7010 H   0  0  0  0  0  0  0  0  0  0  0  0
    0.4780    2.4100   -2.6910 H   0  0  0  0  0  0  0  0  0  0  0  0
    1.8920    2.1900   -1.6580 H   0  0  0  0  0  0  0  0  0  0  0  0
   -0.5890    1.6900    0.3260 N   0  0  0  0  0  0  0  0  0  0  0  0
   -1.2350    2.2870    1.4740 C   0  0  1  0  0  0  0  0  0  0  0  0
   -2.7290    2.1020    1.4600 C   0  0  0  0  0  0  0  0  0  0  0  0
   -3.1570    0.7100    1.4590 C   0  0  0  0  0  0  0  0  0  0  0  0
   -3.3820    0.0180    2.6240 C   0  0  0  0  0  0  0  0  0  0  0  0
   -3.7910   -1.3130    2.6130 C   0  0  0  0  0  0  0  0  0  0  0  0
   -3.9760   -1.9570    1.4140 C   0  0  0  0  0  0  0  0  0  0  0  0
   -3.7560   -1.2790    0.2350 C   0  0  0  0  0  0  0  0  0  0  0  0
   -3.3490    0.0450    0.2720 C   0  0  0  0  0  0  0  0  0  0  0  0
   -0.6130    1.7300    2.6970 C   0  0  0  0  0  0  0  0  0  0  0  0
    0.3140    0.8880    2.6130 O   0  0  0  0  0  0  0  0  0  0  0  0
   -1.0070    2.0990    3.9780 O   0  0  0  0  0  0  0  0  0  0  0  0
   -0.7320    0.6540    0.2390 H   0  0  0  0  0  0  0  0  0  0  0  0
   -1.0400    3.3690    1.4700 H   0  0  0  0  0  0  0  0  0  0  0  0
   -3.1210    2.6880    0.5880 H   0  0  0  0  0  0  0  0  0  0  0  0
   -3.1270    2.6210    2.3580 H   0  0  0  0  0  0  0  0  0  0  0  0
   -3.2560    0.4630    3.6090 H   0  0  0  0  0  0  0  0  0  0  0  0
   -3.9730   -1.8730    3.5210 H   0  0  0  0  0  0  0  0  0  0  0  0
   -4.2980   -3.0030    1.4160 H   0  0  0  0  0  0  0  0  0  0  0  0
   -3.9070   -1.8020   -0.7080 H   0  0  0  0  0  0  0  0  0  0  0  0
   -3.1860    0.5420   -0.7000 H   0  0  0  0  0  0  0  0  0  0  0  0
  1 11  1  0  0  0  0
  1  2  1  0  0  0  0
  2  8  1  0  0  0  0
  2 12  1  1  0  0  0
  3  2  1  0  0  0  0
  3  4  1  0  0  0  0
  4 15  1  0  0  0  0
  4  5  1  0  0  0  0
  5 17  1  0  0  0  0
  5  6  1  0  0  0  0
  6 19  1  0  0  0  0
  6  7  1  0  0  0  0
  7 22  1  0  0  0  0
  7 21  1  0  0  0  0
  8  9  2  0  0  0  0
 10  1  1  0  0  0  0
 13  3  1  0  0  0  0
 14  3  1  0  0  0  0
 16  4  1  0  0  0  0
 18  5  1  0  0  0  0
 20  6  1  0  0  0  0
 23 24  1  0  0  0  0
 23  8  1  0  0  0  0
 24 29  1  0  0  0  0
 24 25  1  0  0  0  0
 25 26  2  0  0  0  0
 25 30  1  0  0  0  0
 27 23  1  0  0  0  0
 28 24  1  0  0  0  0
 30 31  1  0  0  0  0
 31 43  1  6  0  0  0
 31 39  1  0  0  0  0
 32 31  1  0  0  0  0
 32 45  1  0  0  0  0
 33 32  1  0  0  0  0
 33 34  1  0  0  0  0
 34 46  1  0  0  0  0
 35 34  2  0  0  0  0
 35 47  1  0  0  0  0
 36 48  1  0  0  0  0
 36 35  1  0  0  0  0
 37 38  1  0  0  0  0
 37 36  2  0  0  0  0
 38 33  2  0  0  0  0
 39 41  1  0  0  0  0
 40 39  2  0  0  0  0
 42 30  1  0  0  0  0
 44 32  1  0  0  0  0
 49 37  1  0  0  0  0
 50 38  1  0  0  0  0
M  END
$$$$
