KGG.pdb
 OpenBabel07022418493D

 37 36  0  0  1  0  0  0  0  0999 V2000
   -2.9880   -1.4790    1.5930 N   0  0  0  0  0  0  0  0  0  0  0  0
   -1.4500   -1.7120    1.4240 C   0  0  1  0  0  0  0  0  0  0  0  0
   -1.3880   -2.9900    0.7610 C   0  0  0  0  0  0  0  0  0  0  0  0
   -0.2160   -3.8080    0.4760 C   0  0  0  0  0  0  0  0  0  0  0  0
    0.9660   -3.3820   -0.2490 C   0  0  0  0  0  0  0  0  0  0  0  0
    1.8770   -2.3720    0.3310 C   0  0  0  0  0  0  0  0  0  0  0  0
    2.9520   -2.1350   -0.6550 N   0  0  0  0  0  0  0  0  0  0  0  0
   -1.1300   -0.4450    0.7770 C   0  0  0  0  0  0  0  0  0  0  0  0
   -1.5540    0.5820    1.4550 O   0  0  0  0  0  0  0  0  0  0  0  0
   -3.2980   -1.2790    0.6180 H   0  0  0  0  0  0  0  0  0  0  0  0
   -3.0290   -0.5800    2.1190 H   0  0  0  0  0  0  0  0  0  0  0  0
   -1.0640   -1.7170    2.4480 H   0  0  0  0  0  0  0  0  0  0  0  0
   -2.1380   -3.6690    1.3670 H   0  0  0  0  0  0  0  0  0  0  0  0
   -2.0080   -2.9830   -0.2260 H   0  0  0  0  0  0  0  0  0  0  0  0
    0.0960   -4.4050    1.4370 H   0  0  0  0  0  0  0  0  0  0  0  0
   -0.5990   -4.7420   -0.1260 H   0  0  0  0  0  0  0  0  0  0  0  0
    1.6480   -4.2820   -0.4920 H   0  0  0  0  0  0  0  0  0  0  0  0
    0.6920   -3.0610   -1.3060 H   0  0  0  0  0  0  0  0  0  0  0  0
    2.4800   -2.8510    1.1940 H   0  0  0  0  0  0  0  0  0  0  0  0
    1.4980   -1.4720    0.7510 H   0  0  0  0  0  0  0  0  0  0  0  0
    2.8070   -2.6880   -1.5220 H   0  0  0  0  0  0  0  0  0  0  0  0
    2.9830   -1.1370   -0.9390 H   0  0  0  0  0  0  0  0  0  0  0  0
   -0.4810   -0.1200   -0.4040 N   0  0  0  0  0  0  0  0  0  0  0  0
   -0.2870    1.2480   -0.8340 C   0  0  0  0  0  0  0  0  0  0  0  0
    0.5290    2.0730    0.0630 C   0  0  0  0  0  0  0  0  0  0  0  0
    0.7440    3.3130   -0.2000 O   0  0  0  0  0  0  0  0  0  0  0  0
   -0.1410   -0.9050   -1.0080 H   0  0  0  0  0  0  0  0  0  0  0  0
   -1.3090    1.7040   -0.9670 H   0  0  0  0  0  0  0  0  0  0  0  0
    0.1730    1.2810   -1.8590 H   0  0  0  0  0  0  0  0  0  0  0  0
    1.1460    1.6250    1.2590 N   0  0  0  0  0  0  0  0  0  0  0  0
    1.9260    2.5590    2.0540 C   0  0  0  0  0  0  0  0  0  0  0  0
    1.1400    3.7000    2.5220 C   0  0  0  0  0  0  0  0  0  0  0  0
    1.6950    4.5760    3.2160 O   0  0  0  0  0  0  0  0  0  0  0  0
   -0.2070    3.8400    2.2170 O   0  0  0  0  0  0  0  0  0  0  0  0
    1.0720    0.6600    1.5870 H   0  0  0  0  0  0  0  0  0  0  0  0
    2.3870    1.9930    2.8840 H   0  0  0  0  0  0  0  0  0  0  0  0
    2.7630    2.9350    1.4270 H   0  0  0  0  0  0  0  0  0  0  0  0
  1 11  1  0  0  0  0
  2  1  1  0  0  0  0
  2 12  1  1  0  0  0
  3 13  1  0  0  0  0
  3  2  1  0  0  0  0
  4  3  1  0  0  0  0
  4 15  1  0  0  0  0
  5  6  1  0  0  0  0
  5  4  1  0  0  0  0
  6 20  1  0  0  0  0
  6 19  1  0  0  0  0
  7  6  1  0  0  0  0
  8  2  1  0  0  0  0
  8  9  2  0  0  0  0
 10  1  1  0  0  0  0
 14  3  1  0  0  0  0
 16  4  1  0  0  0  0
 17  5  1  0  0  0  0
 18  5  1  0  0  0  0
 21  7  1  0  0  0  0
 22  7  1  0  0  0  0
 23  8  1  0  0  0  0
 24 23  1  0  0  0  0
 24 25  1  0  0  0  0
 25 30  1  0  0  0  0
 26 25  2  0  0  0  0
 27 23  1  0  0  0  0
 28 24  1  0  0  0  0
 29 24  1  0  0  0  0
 30 35  1  0  0  0  0
 30 31  1  0  0  0  0
 31 32  1  0  0  0  0
 31 36  1  0  0  0  0
 32 33  1  0  0  0  0
 34 32  2  0  0  0  0
 37 31  1  0  0  0  0
M  END
$$$$
