KGH.pdb
 OpenBabel07022418503D

 47 47  0  0  1  0  0  0  0  0999 V2000
    3.4520   -1.0890    3.3960 N   0  0  0  0  0  0  0  0  0  0  0  0
    3.2150   -1.2510    1.9750 C   0  0  1  0  0  0  0  0  0  0  0  0
    2.8240   -2.6610    1.6800 C   0  0  0  0  0  0  0  0  0  0  0  0
    2.5480   -2.9850    0.2700 C   0  0  0  0  0  0  0  0  0  0  0  0
    3.7040   -2.7630   -0.6740 C   0  0  0  0  0  0  0  0  0  0  0  0
    4.9200   -3.5790   -0.3400 C   0  0  0  0  0  0  0  0  0  0  0  0
    4.6510   -5.0020   -0.3740 N   0  0  0  0  0  0  0  0  0  0  0  0
    2.3210   -0.2160    1.5060 C   0  0  0  0  0  0  0  0  0  0  0  0
    1.9150   -0.0770    0.3110 O   0  0  0  0  0  0  0  0  0  0  0  0
    2.5860   -1.1850    3.9620 H   0  0  0  0  0  0  0  0  0  0  0  0
    4.1120   -1.8380    3.7310 H   0  0  0  0  0  0  0  0  0  0  0  0
    4.2230   -1.0660    1.4930 H   0  0  0  0  0  0  0  0  0  0  0  0
    3.6010   -3.3420    2.0920 H   0  0  0  0  0  0  0  0  0  0  0  0
    1.9100   -2.8870    2.2730 H   0  0  0  0  0  0  0  0  0  0  0  0
    2.3400   -4.0960    0.2110 H   0  0  0  0  0  0  0  0  0  0  0  0
    1.6100   -2.5260   -0.1040 H   0  0  0  0  0  0  0  0  0  0  0  0
    3.4390   -3.0030   -1.7250 H   0  0  0  0  0  0  0  0  0  0  0  0
    3.9310   -1.6770   -0.6540 H   0  0  0  0  0  0  0  0  0  0  0  0
    5.4080   -3.2650    0.6050 H   0  0  0  0  0  0  0  0  0  0  0  0
    5.6660   -3.3850   -1.1410 H   0  0  0  0  0  0  0  0  0  0  0  0
    4.1910   -5.1980   -1.2960 H   0  0  0  0  0  0  0  0  0  0  0  0
    3.9970   -5.3150    0.3570 H   0  0  0  0  0  0  0  0  0  0  0  0
    1.8340    0.7470    2.4300 N   0  0  0  0  0  0  0  0  0  0  0  0
    0.9360    1.8040    2.0160 C   0  0  0  0  0  0  0  0  0  0  0  0
   -0.2910    1.1660    1.4740 C   0  0  0  0  0  0  0  0  0  0  0  0
   -0.4680   -0.0810    1.4120 O   0  0  0  0  0  0  0  0  0  0  0  0
    2.1050    0.7330    3.4590 H   0  0  0  0  0  0  0  0  0  0  0  0
    0.7200    2.5100    2.8170 H   0  0  0  0  0  0  0  0  0  0  0  0
    1.4250    2.3960    1.1980 H   0  0  0  0  0  0  0  0  0  0  0  0
   -1.3740    1.9350    0.9780 N   0  0  0  0  0  0  0  0  0  0  0  0
   -2.5880    1.4060    0.4410 C   0  0  1  0  0  0  0  0  0  0  0  0
   -3.8370    1.8160    1.1250 C   0  0  0  0  0  0  0  0  0  0  0  0
   -5.0770    1.2460    0.5400 C   0  0  0  0  0  0  0  0  0  0  0  0
   -5.7140    0.0630    0.8540 C   0  0  0  0  0  0  0  0  0  0  0  0
   -6.8090   -0.0880    0.0940 N   0  0  0  0  0  0  0  0  0  0  0  0
   -6.8900    0.9810   -0.7090 C   0  0  0  0  0  0  0  0  0  0  0  0
   -5.8610    1.7700   -0.4410 N   0  0  0  0  0  0  0  0  0  0  0  0
   -2.6280    1.7500   -1.0040 C   0  0  0  0  0  0  0  0  0  0  0  0
   -1.6900    2.4220   -1.5590 O   0  0  0  0  0  0  0  0  0  0  0  0
   -3.6500    1.3920   -1.8670 O   0  0  0  0  0  0  0  0  0  0  0  0
   -1.2820    2.9750    1.0050 H   0  0  0  0  0  0  0  0  0  0  0  0
   -2.5020    0.2990    0.4940 H   0  0  0  0  0  0  0  0  0  0  0  0
   -3.7960    1.3910    2.1750 H   0  0  0  0  0  0  0  0  0  0  0  0
   -3.9250    2.9100    1.3050 H   0  0  0  0  0  0  0  0  0  0  0  0
   -5.3940   -0.6470    1.5980 H   0  0  0  0  0  0  0  0  0  0  0  0
   -7.4720   -0.8770    0.1150 H   0  0  0  0  0  0  0  0  0  0  0  0
   -7.6740    1.1450   -1.4420 H   0  0  0  0  0  0  0  0  0  0  0  0
  1 11  1  0  0  0  0
  1 10  1  0  0  0  0
  2 12  1  6  0  0  0
  2  1  1  0  0  0  0
  3  2  1  0  0  0  0
  3 13  1  0  0  0  0
  3 14  1  0  0  0  0
  4  3  1  0  0  0  0
  5 18  1  0  0  0  0
  5  6  1  0  0  0  0
  5  4  1  0  0  0  0
  6 19  1  0  0  0  0
  7  6  1  0  0  0  0
  7 22  1  0  0  0  0
  8  2  1  0  0  0  0
  8 23  1  0  0  0  0
  9  8  2  0  0  0  0
 15  4  1  0  0  0  0
 16  4  1  0  0  0  0
 17  5  1  0  0  0  0
 20  6  1  0  0  0  0
 21  7  1  0  0  0  0
 23 27  1  0  0  0  0
 24 23  1  0  0  0  0
 24 28  1  0  0  0  0
 25 24  1  0  0  0  0
 26 25  2  0  0  0  0
 29 24  1  0  0  0  0
 30 41  1  0  0  0  0
 30 25  1  0  0  0  0
 31 42  1  1  0  0  0
 31 30  1  0  0  0  0
 31 32  1  0  0  0  0
 32 44  1  0  0  0  0
 32 43  1  0  0  0  0
 33 34  2  0  0  0  0
 33 32  1  0  0  0  0
 34 45  1  0  0  0  0
 35 46  1  0  0  0  0
 35 34  1  0  0  0  0
 36 37  2  0  0  0  0
 36 35  1  0  0  0  0
 37 33  1  0  0  0  0
 38 31  1  0  0  0  0
 39 38  1  0  0  0  0
 40 38  2  0  0  0  0
 47 36  1  0  0  0  0
M  END
$$$$
