KGK.pdb
 OpenBabel07022418503D

 51 50  0  0  1  0  0  0  0  0999 V2000
    0.0910   -3.0030   -0.1910 N   0  0  0  0  0  0  0  0  0  0  0  0
    1.3210   -2.4040    0.4480 C   0  0  1  0  0  0  0  0  0  0  0  0
    2.5030   -3.0090   -0.1920 C   0  0  0  0  0  0  0  0  0  0  0  0
    3.8700   -2.6410    0.1910 C   0  0  0  0  0  0  0  0  0  0  0  0
    4.3660   -1.2700   -0.0530 C   0  0  0  0  0  0  0  0  0  0  0  0
    5.8260   -1.1330    0.4240 C   0  0  0  0  0  0  0  0  0  0  0  0
    6.6740   -2.0560   -0.2810 N   0  0  0  0  0  0  0  0  0  0  0  0
    1.1010   -0.9750    0.3980 C   0  0  0  0  0  0  0  0  0  0  0  0
    1.5360   -0.2330    1.3270 O   0  0  0  0  0  0  0  0  0  0  0  0
    0.1460   -4.0430   -0.0240 H   0  0  0  0  0  0  0  0  0  0  0  0
   -0.6770   -2.6790    0.4630 H   0  0  0  0  0  0  0  0  0  0  0  0
    1.2510   -2.7870    1.4970 H   0  0  0  0  0  0  0  0  0  0  0  0
    2.3870   -3.0190   -1.3340 H   0  0  0  0  0  0  0  0  0  0  0  0
    2.4170   -4.1380    0.0260 H   0  0  0  0  0  0  0  0  0  0  0  0
    3.9910   -2.8690    1.2930 H   0  0  0  0  0  0  0  0  0  0  0  0
    4.5650   -3.3940   -0.3060 H   0  0  0  0  0  0  0  0  0  0  0  0
    4.4640   -1.1270   -1.1780 H   0  0  0  0  0  0  0  0  0  0  0  0
    3.8200   -0.4240    0.3050 H   0  0  0  0  0  0  0  0  0  0  0  0
    5.8590   -1.2820    1.5170 H   0  0  0  0  0  0  0  0  0  0  0  0
    6.1960   -0.1090    0.2120 H   0  0  0  0  0  0  0  0  0  0  0  0
    7.0420   -2.8270    0.2970 H   0  0  0  0  0  0  0  0  0  0  0  0
    7.3910   -1.5760   -0.8690 H   0  0  0  0  0  0  0  0  0  0  0  0
    0.3840   -0.3900   -0.7090 N   0  0  0  0  0  0  0  0  0  0  0  0
    0.1540    1.0240   -0.7500 C   0  0  0  0  0  0  0  0  0  0  0  0
   -0.7060    1.5130    0.3300 C   0  0  0  0  0  0  0  0  0  0  0  0
   -0.9670    2.7670    0.4610 O   0  0  0  0  0  0  0  0  0  0  0  0
    0.0280   -1.0120   -1.4940 H   0  0  0  0  0  0  0  0  0  0  0  0
    1.1790    1.4950   -0.7020 H   0  0  0  0  0  0  0  0  0  0  0  0
   -0.2210    1.3180   -1.7620 H   0  0  0  0  0  0  0  0  0  0  0  0
   -1.2970    0.6270    1.2810 N   0  0  0  0  0  0  0  0  0  0  0  0
   -2.1450    1.1530    2.3290 C   0  0  1  0  0  0  0  0  0  0  0  0
   -3.3710    0.3650    2.5620 C   0  0  0  0  0  0  0  0  0  0  0  0
   -4.3580    0.1920    1.4810 C   0  0  0  0  0  0  0  0  0  0  0  0
   -3.8670   -0.5150    0.2600 C   0  0  0  0  0  0  0  0  0  0  0  0
   -4.9780   -0.6640   -0.7790 C   0  0  0  0  0  0  0  0  0  0  0  0
   -5.4890    0.6090   -1.1980 N   0  0  0  0  0  0  0  0  0  0  0  0
   -1.3870    1.1420    3.6360 C   0  0  0  0  0  0  0  0  0  0  0  0
   -1.9770    1.5690    4.6510 O   0  0  0  0  0  0  0  0  0  0  0  0
   -0.0920    0.6860    3.7500 O   0  0  0  0  0  0  0  0  0  0  0  0
   -1.1220   -0.3930    1.2050 H   0  0  0  0  0  0  0  0  0  0  0  0
   -2.3520    2.2400    2.0860 H   0  0  0  0  0  0  0  0  0  0  0  0
   -3.8490    0.7780    3.5090 H   0  0  0  0  0  0  0  0  0  0  0  0
   -3.0160   -0.6690    2.9000 H   0  0  0  0  0  0  0  0  0  0  0  0
   -4.9170    1.1260    1.2280 H   0  0  0  0  0  0  0  0  0  0  0  0
   -5.1760   -0.4780    1.9030 H   0  0  0  0  0  0  0  0  0  0  0  0
   -3.5230   -1.5480    0.4680 H   0  0  0  0  0  0  0  0  0  0  0  0
   -3.0140    0.0200   -0.1880 H   0  0  0  0  0  0  0  0  0  0  0  0
   -5.8030   -1.2670   -0.3970 H   0  0  0  0  0  0  0  0  0  0  0  0
   -4.5340   -1.1720   -1.6500 H   0  0  0  0  0  0  0  0  0  0  0  0
   -5.7700    0.6690   -2.1820 H   0  0  0  0  0  0  0  0  0  0  0  0
   -4.9740    1.4200   -0.8250 H   0  0  0  0  0  0  0  0  0  0  0  0
  1 10  1  0  0  0  0
  1  2  1  0  0  0  0
  1 11  1  0  0  0  0
  2 12  1  1  0  0  0
  3 14  1  0  0  0  0
  3  4  1  0  0  0  0
  3  2  1  0  0  0  0
  4 15  1  0  0  0  0
  5  4  1  0  0  0  0
  5 18  1  0  0  0  0
  5  6  1  0  0  0  0
  6 19  1  0  0  0  0
  7 21  1  0  0  0  0
  7  6  1  0  0  0  0
  8  2  1  0  0  0  0
  8  9  2  0  0  0  0
 13  3  1  0  0  0  0
 16  4  1  0  0  0  0
 17  5  1  0  0  0  0
 20  6  1  0  0  0  0
 22  7  1  0  0  0  0
 23  8  1  0  0  0  0
 24 23  1  0  0  0  0
 24 28  1  0  0  0  0
 24 25  1  0  0  0  0
 25 26  2  0  0  0  0
 25 30  1  0  0  0  0
 27 23  1  0  0  0  0
 29 24  1  0  0  0  0
 30 31  1  0  0  0  0
 31 41  1  6  0  0  0
 31 32  1  0  0  0  0
 31 37  1  0  0  0  0
 32 43  1  0  0  0  0
 32 42  1  0  0  0  0
 33 45  1  0  0  0  0
 33 32  1  0  0  0  0
 34 46  1  0  0  0  0
 34 33  1  0  0  0  0
 35 48  1  0  0  0  0
 35 34  1  0  0  0  0
 36 51  1  0  0  0  0
 36 35  1  0  0  0  0
 37 39  2  0  0  0  0
 37 38  1  0  0  0  0
 40 30  1  0  0  0  0
 44 33  1  0  0  0  0
 47 34  1  0  0  0  0
 49 35  1  0  0  0  0
 50 36  1  0  0  0  0
M  END
$$$$
