KGL.pdb
 OpenBabel07022418503D

 49 48  0  0  1  0  0  0  0  0999 V2000
    1.3450   -2.9030    0.6290 N   0  0  0  0  0  0  0  0  0  0  0  0
    1.7260   -1.5800    1.0480 C   0  0  1  0  0  0  0  0  0  0  0  0
    3.1820   -1.3650    1.1890 C   0  0  0  0  0  0  0  0  0  0  0  0
    4.0100   -1.5620   -0.0250 C   0  0  0  0  0  0  0  0  0  0  0  0
    3.9660   -2.9130   -0.6410 C   0  0  0  0  0  0  0  0  0  0  0  0
    4.8950   -2.8720   -1.8670 C   0  0  0  0  0  0  0  0  0  0  0  0
    4.3470   -1.8470   -2.7380 N   0  0  0  0  0  0  0  0  0  0  0  0
    1.0630   -0.5300    0.1950 C   0  0  0  0  0  0  0  0  0  0  0  0
    1.2760    0.6950    0.3940 O   0  0  0  0  0  0  0  0  0  0  0  0
    0.3400   -3.0390    0.8880 H   0  0  0  0  0  0  0  0  0  0  0  0
    1.8820   -3.5730    1.2290 H   0  0  0  0  0  0  0  0  0  0  0  0
    1.2780   -1.4470    2.0680 H   0  0  0  0  0  0  0  0  0  0  0  0
    3.5740   -1.9820    2.0240 H   0  0  0  0  0  0  0  0  0  0  0  0
    3.3320   -0.3030    1.5210 H   0  0  0  0  0  0  0  0  0  0  0  0
    5.0850   -1.3960    0.2930 H   0  0  0  0  0  0  0  0  0  0  0  0
    3.8430   -0.7780   -0.8060 H   0  0  0  0  0  0  0  0  0  0  0  0
    2.9790   -3.1870   -1.0680 H   0  0  0  0  0  0  0  0  0  0  0  0
    4.3740   -3.6990    0.0090 H   0  0  0  0  0  0  0  0  0  0  0  0
    5.8990   -2.5400   -1.5400 H   0  0  0  0  0  0  0  0  0  0  0  0
    4.9140   -3.8510   -2.3880 H   0  0  0  0  0  0  0  0  0  0  0  0
    4.8330   -0.9320   -2.5890 H   0  0  0  0  0  0  0  0  0  0  0  0
    3.3290   -1.6680   -2.5680 H   0  0  0  0  0  0  0  0  0  0  0  0
    0.1930   -0.9680   -0.8370 N   0  0  0  0  0  0  0  0  0  0  0  0
   -0.5140   -0.0790   -1.7190 C   0  0  0  0  0  0  0  0  0  0  0  0
   -1.4860    0.8120   -1.0730 C   0  0  0  0  0  0  0  0  0  0  0  0
   -2.0990    1.6380   -1.7920 O   0  0  0  0  0  0  0  0  0  0  0  0
    0.0580   -1.9940   -0.9620 H   0  0  0  0  0  0  0  0  0  0  0  0
   -1.0020   -0.6250   -2.5600 H   0  0  0  0  0  0  0  0  0  0  0  0
    0.2950    0.5300   -2.2280 H   0  0  0  0  0  0  0  0  0  0  0  0
   -3.1030   -1.2710    2.0690 C   0  0  0  0  0  0  0  0  0  0  0  0
   -3.8750   -0.0430    2.4420 C   0  0  0  0  0  0  0  0  0  0  0  0
   -3.4460    0.4500    3.8120 C   0  0  0  0  0  0  0  0  0  0  0  0
   -3.9580    1.0230    1.4290 C   0  0  0  0  0  0  0  0  0  0  0  0
   -2.7150    1.6610    0.9420 C   0  0  2  0  0  0  0  0  0  0  0  0
   -1.7610    0.7810    0.3060 N   0  0  0  0  0  0  0  0  0  0  0  0
   -2.0840    2.5700    1.9160 C   0  0  0  0  0  0  0  0  0  0  0  0
   -2.7770    3.3900    2.5370 O   0  0  0  0  0  0  0  0  0  0  0  0
   -0.7330    2.5130    2.1360 O   0  0  0  0  0  0  0  0  0  0  0  0
   -3.6410   -2.1860    2.4750 H   0  0  0  0  0  0  0  0  0  0  0  0
   -2.1050   -1.3410    2.5880 H   0  0  0  0  0  0  0  0  0  0  0  0
   -3.0620   -1.4460    0.9930 H   0  0  0  0  0  0  0  0  0  0  0  0
   -4.9450   -0.3820    2.6100 H   0  0  0  0  0  0  0  0  0  0  0  0
   -3.6830   -0.3390    4.5590 H   0  0  0  0  0  0  0  0  0  0  0  0
   -4.0040    1.3770    4.0850 H   0  0  0  0  0  0  0  0  0  0  0  0
   -2.3860    0.6840    3.8770 H   0  0  0  0  0  0  0  0  0  0  0  0
   -4.5170    0.6130    0.5480 H   0  0  0  0  0  0  0  0  0  0  0  0
   -4.6170    1.8230    1.8250 H   0  0  0  0  0  0  0  0  0  0  0  0
   -3.0600    2.3580    0.1080 H   0  0  0  0  0  0  0  0  0  0  0  0
   -1.2620    0.0920    0.8980 H   0  0  0  0  0  0  0  0  0  0  0  0
  1 10  1  0  0  0  0
  1  2  1  0  0  0  0
  1 11  1  0  0  0  0
  2  3  1  0  0  0  0
  2 12  1  1  0  0  0
  3 14  1  0  0  0  0
  3 13  1  0  0  0  0
  4 15  1  0  0  0  0
  4  3  1  0  0  0  0
  5  4  1  0  0  0  0
  5 18  1  0  0  0  0
  6 19  1  0  0  0  0
  6  5  1  0  0  0  0
  7 21  1  0  0  0  0
  7 22  1  0  0  0  0
  7  6  1  0  0  0  0
  8  9  2  0  0  0  0
  8  2  1  0  0  0  0
 16  4  1  0  0  0  0
 17  5  1  0  0  0  0
 20  6  1  0  0  0  0
 23  8  1  0  0  0  0
 24 25  1  0  0  0  0
 24 23  1  0  0  0  0
 25 35  1  0  0  0  0
 26 25  2  0  0  0  0
 27 23  1  0  0  0  0
 28 24  1  0  0  0  0
 29 24  1  0  0  0  0
 30 31  1  0  0  0  0
 30 39  1  0  0  0  0
 30 40  1  0  0  0  0
 31 42  1  0  0  0  0
 31 32  1  0  0  0  0
 32 45  1  0  0  0  0
 32 44  1  0  0  0  0
 32 43  1  0  0  0  0
 33 47  1  0  0  0  0
 33 31  1  0  0  0  0
 34 48  1  6  0  0  0
 34 33  1  0  0  0  0
 34 36  1  0  0  0  0
 35 49  1  0  0  0  0
 35 34  1  0  0  0  0
 36 38  2  0  0  0  0
 36 37  1  0  0  0  0
 41 30  1  0  0  0  0
 46 33  1  0  0  0  0
M  END
$$$$
