KGN.pdb
 OpenBabel07022418493D

 44 43  0  0  1  0  0  0  0  0999 V2000
   -0.3750   -2.7170   -2.4000 N   0  0  0  0  0  0  0  0  0  0  0  0
   -0.8790   -2.9510   -1.0820 C   0  0  1  0  0  0  0  0  0  0  0  0
   -0.0800   -3.8370   -0.2140 C   0  0  0  0  0  0  0  0  0  0  0  0
    1.3240   -3.4920    0.0670 C   0  0  0  0  0  0  0  0  0  0  0  0
    1.6280   -2.1970    0.7110 C   0  0  0  0  0  0  0  0  0  0  0  0
    3.1560   -2.1300    0.8920 C   0  0  0  0  0  0  0  0  0  0  0  0
    3.6410   -3.1980    1.7120 N   0  0  0  0  0  0  0  0  0  0  0  0
   -1.5190   -1.7840   -0.4310 C   0  0  0  0  0  0  0  0  0  0  0  0
   -2.0310   -1.8770    0.7240 O   0  0  0  0  0  0  0  0  0  0  0  0
   -1.1230   -2.3110   -2.9940 H   0  0  0  0  0  0  0  0  0  0  0  0
    0.4690   -2.1110   -2.3180 H   0  0  0  0  0  0  0  0  0  0  0  0
   -1.8370   -3.6030   -1.3230 H   0  0  0  0  0  0  0  0  0  0  0  0
   -0.6300   -3.9980    0.7580 H   0  0  0  0  0  0  0  0  0  0  0  0
   -0.0610   -4.8860   -0.6490 H   0  0  0  0  0  0  0  0  0  0  0  0
    1.9790   -3.6160   -0.8300 H   0  0  0  0  0  0  0  0  0  0  0  0
    1.7100   -4.2940    0.7710 H   0  0  0  0  0  0  0  0  0  0  0  0
    1.1960   -2.0600    1.7060 H   0  0  0  0  0  0  0  0  0  0  0  0
    1.4140   -1.3170    0.0550 H   0  0  0  0  0  0  0  0  0  0  0  0
    3.6740   -2.1410   -0.0820 H   0  0  0  0  0  0  0  0  0  0  0  0
    3.4380   -1.1730    1.3910 H   0  0  0  0  0  0  0  0  0  0  0  0
    3.7510   -2.9050    2.7230 H   0  0  0  0  0  0  0  0  0  0  0  0
    4.5360   -3.6200    1.3560 H   0  0  0  0  0  0  0  0  0  0  0  0
   -1.5920   -0.5390   -1.0600 N   0  0  0  0  0  0  0  0  0  0  0  0
   -2.1940    0.6620   -0.5860 C   0  0  0  0  0  0  0  0  0  0  0  0
   -1.7030    1.2550    0.6420 C   0  0  0  0  0  0  0  0  0  0  0  0
   -2.2940    2.3370    1.0250 O   0  0  0  0  0  0  0  0  0  0  0  0
   -1.1340   -0.4830   -2.0240 H   0  0  0  0  0  0  0  0  0  0  0  0
   -2.2050    1.4650   -1.3770 H   0  0  0  0  0  0  0  0  0  0  0  0
   -3.2930    0.3820   -0.4100 H   0  0  0  0  0  0  0  0  0  0  0  0
    2.2700    3.8200    1.0660 N   0  0  0  0  0  0  0  0  0  0  0  0
    1.5300    2.6950    1.5090 C   0  0  0  0  0  0  0  0  0  0  0  0
    1.9070    1.5630    1.1730 O   0  0  0  0  0  0  0  0  0  0  0  0
    0.3260    2.8500    2.3590 C   0  0  0  0  0  0  0  0  0  0  0  0
   -0.2780    1.5150    2.6940 C   0  0  2  0  0  0  0  0  0  0  0  0
   -0.6670    0.8170    1.4790 N   0  0  0  0  0  0  0  0  0  0  0  0
   -1.4360    1.6030    3.6020 C   0  0  0  0  0  0  0  0  0  0  0  0
   -1.3320    2.1880    4.7040 O   0  0  0  0  0  0  0  0  0  0  0  0
   -2.6490    1.0450    3.2600 O   0  0  0  0  0  0  0  0  0  0  0  0
    2.9730    4.2160    1.7380 H   0  0  0  0  0  0  0  0  0  0  0  0
    2.1580    4.2640    0.1360 H   0  0  0  0  0  0  0  0  0  0  0  0
   -0.4140    3.4490    1.8160 H   0  0  0  0  0  0  0  0  0  0  0  0
    0.5940    3.4200    3.2880 H   0  0  0  0  0  0  0  0  0  0  0  0
    0.5220    0.9410    3.2270 H   0  0  0  0  0  0  0  0  0  0  0  0
   -0.1410   -0.0340    1.2430 H   0  0  0  0  0  0  0  0  0  0  0  0
  1 11  1  0  0  0  0
  1  2  1  0  0  0  0
  2 12  1  6  0  0  0
  2  8  1  0  0  0  0
  2  3  1  0  0  0  0
  3  4  1  0  0  0  0
  3 13  1  0  0  0  0
  4  5  1  0  0  0  0
  4 16  1  0  0  0  0
  5  6  1  0  0  0  0
  5 17  1  0  0  0  0
  6 20  1  0  0  0  0
  6  7  1  0  0  0  0
  7 21  1  0  0  0  0
  8  9  2  0  0  0  0
 10  1  1  0  0  0  0
 14  3  1  0  0  0  0
 15  4  1  0  0  0  0
 18  5  1  0  0  0  0
 19  6  1  0  0  0  0
 22  7  1  0  0  0  0
 23 24  1  0  0  0  0
 23  8  1  0  0  0  0
 24 29  1  0  0  0  0
 24 25  1  0  0  0  0
 25 26  2  0  0  0  0
 25 35  1  0  0  0  0
 27 23  1  0  0  0  0
 28 24  1  0  0  0  0
 30 31  1  0  0  0  0
 30 39  1  0  0  0  0
 31 33  1  0  0  0  0
 32 31  2  0  0  0  0
 33 34  1  0  0  0  0
 33 42  1  0  0  0  0
 34 43  1  1  0  0  0
 34 36  1  0  0  0  0
 35 34  1  0  0  0  0
 36 37  1  0  0  0  0
 38 36  2  0  0  0  0
 40 30  1  0  0  0  0
 41 33  1  0  0  0  0
 44 35  1  0  0  0  0
M  END
$$$$
