KGR.pdb
 OpenBabel07022418493D

 53 52  0  0  1  0  0  0  0  0999 V2000
    1.7980   -0.8100    3.0040 N   0  0  0  0  0  0  0  0  0  0  0  0
    2.3730   -0.9410    1.6480 C   0  0  1  0  0  0  0  0  0  0  0  0
    2.2000   -2.3890    1.3100 C   0  0  0  0  0  0  0  0  0  0  0  0
    2.6840   -2.8580    0.0060 C   0  0  0  0  0  0  0  0  0  0  0  0
    4.1100   -2.7180   -0.3290 C   0  0  0  0  0  0  0  0  0  0  0  0
    5.0630   -3.4470    0.5860 C   0  0  0  0  0  0  0  0  0  0  0  0
    4.9620   -2.9820    1.9520 N   0  0  0  0  0  0  0  0  0  0  0  0
    1.6350   -0.0000    0.7950 C   0  0  0  0  0  0  0  0  0  0  0  0
    0.6440    0.6230    1.3070 O   0  0  0  0  0  0  0  0  0  0  0  0
    0.7660   -0.6180    2.9090 H   0  0  0  0  0  0  0  0  0  0  0  0
    2.0200   -1.6270    3.5850 H   0  0  0  0  0  0  0  0  0  0  0  0
    3.4360   -0.6530    1.7740 H   0  0  0  0  0  0  0  0  0  0  0  0
    1.0840   -2.5800    1.4070 H   0  0  0  0  0  0  0  0  0  0  0  0
    2.6200   -2.9780    2.1590 H   0  0  0  0  0  0  0  0  0  0  0  0
    2.0330   -2.4500   -0.8130 H   0  0  0  0  0  0  0  0  0  0  0  0
    2.4580   -3.9740   -0.0670 H   0  0  0  0  0  0  0  0  0  0  0  0
    4.2690   -3.1590   -1.3570 H   0  0  0  0  0  0  0  0  0  0  0  0
    4.4910   -1.6850   -0.4110 H   0  0  0  0  0  0  0  0  0  0  0  0
    6.1070   -3.3530    0.2330 H   0  0  0  0  0  0  0  0  0  0  0  0
    4.7860   -4.5310    0.6060 H   0  0  0  0  0  0  0  0  0  0  0  0
    5.0600   -3.7420    2.6400 H   0  0  0  0  0  0  0  0  0  0  0  0
    5.7270   -2.2800    2.1000 H   0  0  0  0  0  0  0  0  0  0  0  0
    1.9280    0.2800   -0.5530 N   0  0  0  0  0  0  0  0  0  0  0  0
    1.1320    1.2080   -1.2900 C   0  0  0  0  0  0  0  0  0  0  0  0
   -0.2540    0.7350   -1.4360 C   0  0  0  0  0  0  0  0  0  0  0  0
   -1.1310    1.4690   -2.0130 O   0  0  0  0  0  0  0  0  0  0  0  0
    2.7290   -0.1910   -1.0070 H   0  0  0  0  0  0  0  0  0  0  0  0
    1.5870    1.3620   -2.3080 H   0  0  0  0  0  0  0  0  0  0  0  0
    1.1000    2.2150   -0.7670 H   0  0  0  0  0  0  0  0  0  0  0  0
   -4.8330    2.9050    3.4680 N   0  0  0  0  0  0  0  0  0  0  0  0
   -4.7960    1.8510    2.5160 C   0  0  0  0  0  0  0  0  0  0  0  0
   -5.7620    1.6620    1.6830 N   0  0  0  0  0  0  0  0  0  0  0  0
   -3.6800    0.9720    2.4620 N   0  0  0  0  0  0  0  0  0  0  0  0
   -3.5380    0.0110    1.3530 C   0  0  0  0  0  0  0  0  0  0  0  0
   -3.2650    0.7910    0.0640 C   0  0  0  0  0  0  0  0  0  0  0  0
   -3.1500   -0.0880   -1.1110 C   0  0  0  0  0  0  0  0  0  0  0  0
   -2.0220   -1.0560   -1.0390 C   0  0  2  0  0  0  0  0  0  0  0  0
   -0.6980   -0.5200   -0.9710 N   0  0  0  0  0  0  0  0  0  0  0  0
   -2.1370   -2.1990   -1.9730 C   0  0  0  0  0  0  0  0  0  0  0  0
   -3.2220   -2.8000   -2.1640 O   0  0  0  0  0  0  0  0  0  0  0  0
   -1.0250   -2.6400   -2.6720 O   0  0  0  0  0  0  0  0  0  0  0  0
   -4.6960    3.8800    3.1570 H   0  0  0  0  0  0  0  0  0  0  0  0
   -4.9980    2.6890    4.4740 H   0  0  0  0  0  0  0  0  0  0  0  0
   -6.5870    2.3000    1.7130 H   0  0  0  0  0  0  0  0  0  0  0  0
   -2.9650    1.0110    3.2060 H   0  0  0  0  0  0  0  0  0  0  0  0
   -2.6780   -0.6220    1.5880 H   0  0  0  0  0  0  0  0  0  0  0  0
   -4.4430   -0.5930    1.2390 H   0  0  0  0  0  0  0  0  0  0  0  0
   -4.1130    1.5330   -0.0760 H   0  0  0  0  0  0  0  0  0  0  0  0
   -2.3610    1.3850    0.2370 H   0  0  0  0  0  0  0  0  0  0  0  0
   -3.2100    0.4580   -2.0780 H   0  0  0  0  0  0  0  0  0  0  0  0
   -4.0850   -0.7430   -1.1540 H   0  0  0  0  0  0  0  0  0  0  0  0
   -2.1760   -1.5150    0.0070 H   0  0  0  0  0  0  0  0  0  0  0  0
    0.0210   -1.1860   -0.5340 H   0  0  0  0  0  0  0  0  0  0  0  0
  1 11  1  0  0  0  0
  2 12  1  1  0  0  0
  2  1  1  0  0  0  0
  3 13  1  0  0  0  0
  3  2  1  0  0  0  0
  3 14  1  0  0  0  0
  4  3  1  0  0  0  0
  5  4  1  0  0  0  0
  5  6  1  0  0  0  0
  6 20  1  0  0  0  0
  6  7  1  0  0  0  0
  7 22  1  0  0  0  0
  7 21  1  0  0  0  0
  8  9  2  0  0  0  0
  8  2  1  0  0  0  0
 10  1  1  0  0  0  0
 15  4  1  0  0  0  0
 16  4  1  0  0  0  0
 17  5  1  0  0  0  0
 18  5  1  0  0  0  0
 19  6  1  0  0  0  0
 23  8  1  0  0  0  0
 24 29  1  0  0  0  0
 24 23  1  0  0  0  0
 25 24  1  0  0  0  0
 25 38  1  0  0  0  0
 26 25  2  0  0  0  0
 27 23  1  0  0  0  0
 28 24  1  0  0  0  0
 30 43  1  0  0  0  0
 31 30  1  0  0  0  0
 32 44  1  0  0  0  0
 32 31  2  0  0  0  0
 33 31  1  0  0  0  0
 33 45  1  0  0  0  0
 34 46  1  0  0  0  0
 34 33  1  0  0  0  0
 35 49  1  0  0  0  0
 35 34  1  0  0  0  0
 36 37  1  0  0  0  0
 36 35  1  0  0  0  0
 37 38  1  0  0  0  0
 37 52  1  1  0  0  0
 38 53  1  0  0  0  0
 39 37  1  0  0  0  0
 40 39  1  0  0  0  0
 41 39  2  0  0  0  0
 42 30  1  0  0  0  0
 47 34  1  0  0  0  0
 48 35  1  0  0  0  0
 50 36  1  0  0  0  0
 51 36  1  0  0  0  0
M  END
$$$$
