KHC.pdb
 OpenBabel07022418503D

 51 51  0  0  1  0  0  0  0  0999 V2000
    2.0430   -3.8180    1.8520 N   0  0  0  0  0  0  0  0  0  0  0  0
    1.2660   -3.0350    2.7480 C   0  0  1  0  0  0  0  0  0  0  0  0
    1.8220   -2.6960    4.0530 C   0  0  0  0  0  0  0  0  0  0  0  0
    3.0730   -2.0060    4.2910 C   0  0  0  0  0  0  0  0  0  0  0  0
    3.3970   -0.6680    3.7920 C   0  0  0  0  0  0  0  0  0  0  0  0
    3.5570   -0.4040    2.3520 C   0  0  0  0  0  0  0  0  0  0  0  0
    3.9100    1.0340    2.1720 N   0  0  0  0  0  0  0  0  0  0  0  0
    0.5240   -1.9460    2.1080 C   0  0  0  0  0  0  0  0  0  0  0  0
   -0.0990   -1.1200    2.8520 O   0  0  0  0  0  0  0  0  0  0  0  0
    1.3980   -4.1580    1.0850 H   0  0  0  0  0  0  0  0  0  0  0  0
    2.3870   -4.6770    2.3210 H   0  0  0  0  0  0  0  0  0  0  0  0
    0.4060   -3.8560    3.0170 H   0  0  0  0  0  0  0  0  0  0  0  0
    1.8370   -3.6730    4.6930 H   0  0  0  0  0  0  0  0  0  0  0  0
    1.0280   -2.1220    4.6860 H   0  0  0  0  0  0  0  0  0  0  0  0
    3.9810   -2.7170    4.1490 H   0  0  0  0  0  0  0  0  0  0  0  0
    3.1470   -1.9040    5.4510 H   0  0  0  0  0  0  0  0  0  0  0  0
    4.3460   -0.2520    4.2870 H   0  0  0  0  0  0  0  0  0  0  0  0
    2.6190    0.0500    4.2530 H   0  0  0  0  0  0  0  0  0  0  0  0
    2.7140   -0.5410    1.6850 H   0  0  0  0  0  0  0  0  0  0  0  0
    4.4740   -0.9510    2.0110 H   0  0  0  0  0  0  0  0  0  0  0  0
    4.1960    1.4360    3.0790 H   0  0  0  0  0  0  0  0  0  0  0  0
    4.6400    1.1410    1.4490 H   0  0  0  0  0  0  0  0  0  0  0  0
    0.4330   -1.7240    0.7260 N   0  0  0  0  0  0  0  0  0  0  0  0
   -0.3460   -0.5920    0.1460 C   0  0  1  0  0  0  0  0  0  0  0  0
    0.5870    0.3300   -0.5410 C   0  0  0  0  0  0  0  0  0  0  0  0
   -0.0620    1.4970   -1.1600 C   0  0  0  0  0  0  0  0  0  0  0  0
   -0.3360    2.7370   -0.5720 C   0  0  0  0  0  0  0  0  0  0  0  0
   -0.9360    3.5400   -1.4550 N   0  0  0  0  0  0  0  0  0  0  0  0
   -1.0520    2.8430   -2.5960 C   0  0  0  0  0  0  0  0  0  0  0  0
   -0.5300    1.6190   -2.4230 N   0  0  0  0  0  0  0  0  0  0  0  0
   -1.4380   -1.1770   -0.5940 C   0  0  0  0  0  0  0  0  0  0  0  0
   -1.4550   -2.4500   -0.7570 O   0  0  0  0  0  0  0  0  0  0  0  0
    0.9210   -2.3670    0.0770 H   0  0  0  0  0  0  0  0  0  0  0  0
   -0.7980   -0.0130    1.0070 H   0  0  0  0  0  0  0  0  0  0  0  0
    1.2670    0.7450    0.2680 H   0  0  0  0  0  0  0  0  0  0  0  0
    1.2990   -0.1760   -1.2300 H   0  0  0  0  0  0  0  0  0  0  0  0
   -0.0750    2.9510    0.4520 H   0  0  0  0  0  0  0  0  0  0  0  0
   -1.2530    4.5390   -1.2700 H   0  0  0  0  0  0  0  0  0  0  0  0
   -1.5110    3.2670   -3.4890 H   0  0  0  0  0  0  0  0  0  0  0  0
   -2.5510   -0.5170   -1.1900 N   0  0  0  0  0  0  0  0  0  0  0  0
   -3.5820   -1.2600   -1.9070 C   0  0  1  0  0  0  0  0  0  0  0  0
   -4.9300   -1.0830   -1.1970 C   0  0  0  0  0  0  0  0  0  0  0  0
   -4.7940   -1.7150    0.5070 S   0  0  0  0  0  0  0  0  0  0  0  0
   -3.6970   -0.7720   -3.2820 C   0  0  0  0  0  0  0  0  0  0  0  0
   -4.5450   -1.2930   -4.0880 O   0  0  0  0  0  0  0  0  0  0  0  0
   -2.9430    0.2510   -3.8360 O   0  0  0  0  0  0  0  0  0  0  0  0
   -2.6120    0.5050   -1.0870 H   0  0  0  0  0  0  0  0  0  0  0  0
   -3.3450   -2.3330   -1.9170 H   0  0  0  0  0  0  0  0  0  0  0  0
   -5.1710   -0.0120   -1.1600 H   0  0  0  0  0  0  0  0  0  0  0  0
   -5.6760   -1.6970   -1.7100 H   0  0  0  0  0  0  0  0  0  0  0  0
   -5.5440   -2.8850    0.6760 H   0  0  0  0  0  0  0  0  0  0  0  0
  1 11  1  0  0  0  0
  1  2  1  0  0  0  0
  2 12  1  1  0  0  0
  2  3  1  0  0  0  0
  3  4  1  0  0  0  0
  3 14  1  0  0  0  0
  3 13  1  0  0  0  0
  4 16  1  0  0  0  0
  5 18  1  0  0  0  0
  5 17  1  0  0  0  0
  5  4  1  0  0  0  0
  6  5  1  0  0  0  0
  7  6  1  0  0  0  0
  7 21  1  0  0  0  0
  8  2  1  0  0  0  0
  8  9  2  0  0  0  0
 10  1  1  0  0  0  0
 15  4  1  0  0  0  0
 19  6  1  0  0  0  0
 20  6  1  0  0  0  0
 22  7  1  0  0  0  0
 23  8  1  0  0  0  0
 24 23  1  0  0  0  0
 24 34  1  1  0  0  0
 25 24  1  0  0  0  0
 25 35  1  0  0  0  0
 26 27  2  0  0  0  0
 26 25  1  0  0  0  0
 27 37  1  0  0  0  0
 28 38  1  0  0  0  0
 28 27  1  0  0  0  0
 29 30  2  0  0  0  0
 29 28  1  0  0  0  0
 30 26  1  0  0  0  0
 31 24  1  0  0  0  0
 32 31  2  0  0  0  0
 33 23  1  0  0  0  0
 36 25  1  0  0  0  0
 39 29  1  0  0  0  0
 40 47  1  0  0  0  0
 40 31  1  0  0  0  0
 41 48  1  6  0  0  0
 41 42  1  0  0  0  0
 41 40  1  0  0  0  0
 42 49  1  0  0  0  0
 42 43  1  0  0  0  0
 43 51  1  0  0  0  0
 44 41  1  0  0  0  0
 45 44  2  0  0  0  0
 46 44  1  0  0  0  0
 50 42  1  0  0  0  0
M  END
$$$$
