KHE.pdb
 OpenBabel07022418503D

 56 56  0  0  1  0  0  0  0  0999 V2000
    0.4060   -0.7860    4.0290 N   0  0  0  0  0  0  0  0  0  0  0  0
    1.2410    0.1000    3.2220 C   0  0  1  0  0  0  0  0  0  0  0  0
    2.6460   -0.3910    3.1450 C   0  0  0  0  0  0  0  0  0  0  0  0
    3.5950    0.4460    2.3550 C   0  0  0  0  0  0  0  0  0  0  0  0
    3.7280    1.8490    2.8990 C   0  0  0  0  0  0  0  0  0  0  0  0
    4.6980    2.6390    2.0500 C   0  0  0  0  0  0  0  0  0  0  0  0
    6.0010    2.0120    2.0560 N   0  0  0  0  0  0  0  0  0  0  0  0
    0.6400    0.2120    1.8370 C   0  0  0  0  0  0  0  0  0  0  0  0
    1.2170    1.0150    1.0740 O   0  0  0  0  0  0  0  0  0  0  0  0
    1.0280   -1.2960    4.6980 H   0  0  0  0  0  0  0  0  0  0  0  0
   -0.3760   -0.2940    4.4730 H   0  0  0  0  0  0  0  0  0  0  0  0
    1.2180    1.0920    3.7000 H   0  0  0  0  0  0  0  0  0  0  0  0
    3.0710   -0.4950    4.1780 H   0  0  0  0  0  0  0  0  0  0  0  0
    2.6180   -1.4210    2.6830 H   0  0  0  0  0  0  0  0  0  0  0  0
    3.3980    0.3860    1.2860 H   0  0  0  0  0  0  0  0  0  0  0  0
    4.6140   -0.0250    2.4890 H   0  0  0  0  0  0  0  0  0  0  0  0
    4.1650    1.7580    3.9200 H   0  0  0  0  0  0  0  0  0  0  0  0
    2.7440    2.3290    2.9080 H   0  0  0  0  0  0  0  0  0  0  0  0
    4.3240    2.6840    0.9980 H   0  0  0  0  0  0  0  0  0  0  0  0
    4.7670    3.6740    2.4420 H   0  0  0  0  0  0  0  0  0  0  0  0
    6.7330    2.6120    2.4790 H   0  0  0  0  0  0  0  0  0  0  0  0
    6.2800    1.6530    1.1250 H   0  0  0  0  0  0  0  0  0  0  0  0
   -0.4830   -0.5570    1.4970 N   0  0  0  0  0  0  0  0  0  0  0  0
   -1.2000   -0.5780    0.2670 C   0  0  1  0  0  0  0  0  0  0  0  0
   -0.7210    0.5370   -0.6390 C   0  0  0  0  0  0  0  0  0  0  0  0
   -1.0500    1.8310    0.0360 C   0  0  0  0  0  0  0  0  0  0  0  0
   -1.7150    2.0440    1.2240 C   0  0  0  0  0  0  0  0  0  0  0  0
   -1.8340    3.3610    1.4650 N   0  0  0  0  0  0  0  0  0  0  0  0
   -1.2450    3.9730    0.4320 C   0  0  0  0  0  0  0  0  0  0  0  0
   -0.7670    3.0760   -0.4390 N   0  0  0  0  0  0  0  0  0  0  0  0
   -1.2290   -1.9040   -0.3200 C   0  0  0  0  0  0  0  0  0  0  0  0
   -0.6510   -2.8820    0.2700 O   0  0  0  0  0  0  0  0  0  0  0  0
   -0.8400   -1.2090    2.2640 H   0  0  0  0  0  0  0  0  0  0  0  0
   -2.2680   -0.2150    0.4930 H   0  0  0  0  0  0  0  0  0  0  0  0
    0.3040    0.4520   -0.9780 H   0  0  0  0  0  0  0  0  0  0  0  0
   -1.3560    0.5380   -1.5740 H   0  0  0  0  0  0  0  0  0  0  0  0
   -2.0850    1.2320    1.8680 H   0  0  0  0  0  0  0  0  0  0  0  0
   -2.2990    3.7580    2.3020 H   0  0  0  0  0  0  0  0  0  0  0  0
   -1.1970    5.0690    0.3720 H   0  0  0  0  0  0  0  0  0  0  0  0
   -1.8650   -2.2440   -1.5420 N   0  0  0  0  0  0  0  0  0  0  0  0
   -1.8720   -3.6000   -2.1040 C   0  0  1  0  0  0  0  0  0  0  0  0
   -3.3120   -4.0340   -2.1840 C   0  0  0  0  0  0  0  0  0  0  0  0
   -3.4980   -5.4080   -2.7310 C   0  0  0  0  0  0  0  0  0  0  0  0
   -4.9490   -5.7680   -2.7470 C   0  0  0  0  0  0  0  0  0  0  0  0
   -5.8170   -4.9810   -2.3480 O   0  0  0  0  0  0  0  0  0  0  0  0
   -1.2590   -3.6190   -3.4300 C   0  0  0  0  0  0  0  0  0  0  0  0
   -0.9030   -2.5100   -3.9480 O   0  0  0  0  0  0  0  0  0  0  0  0
   -5.3050   -7.0070   -3.2210 O   0  0  0  0  0  0  0  0  0  0  0  0
   -1.0270   -4.7470   -4.1750 O   0  0  0  0  0  0  0  0  0  0  0  0
   -2.3560   -1.5100   -2.0800 H   0  0  0  0  0  0  0  0  0  0  0  0
   -1.3320   -4.3050   -1.4610 H   0  0  0  0  0  0  0  0  0  0  0  0
   -3.9310   -3.2900   -2.7600 H   0  0  0  0  0  0  0  0  0  0  0  0
   -3.7420   -3.9610   -1.1400 H   0  0  0  0  0  0  0  0  0  0  0  0
   -3.0900   -5.4600   -3.7660 H   0  0  0  0  0  0  0  0  0  0  0  0
   -2.9740   -6.1360   -2.0970 H   0  0  0  0  0  0  0  0  0  0  0  0
   -6.2100   -7.4390   -3.0720 H   0  0  0  0  0  0  0  0  0  0  0  0
  1 11  1  0  0  0  0
  1 10  1  0  0  0  0
  2 12  1  1  0  0  0
  2  1  1  0  0  0  0
  3  2  1  0  0  0  0
  3 13  1  0  0  0  0
  4 16  1  0  0  0  0
  4  5  1  0  0  0  0
  4  3  1  0  0  0  0
  5 18  1  0  0  0  0
  5 17  1  0  0  0  0
  6  7  1  0  0  0  0
  6 20  1  0  0  0  0
  6  5  1  0  0  0  0
  7 21  1  0  0  0  0
  8  2  1  0  0  0  0
  9  8  2  0  0  0  0
 14  3  1  0  0  0  0
 15  4  1  0  0  0  0
 19  6  1  0  0  0  0
 22  7  1  0  0  0  0
 23  8  1  0  0  0  0
 23 33  1  0  0  0  0
 24 34  1  1  0  0  0
 24 23  1  0  0  0  0
 25 26  1  0  0  0  0
 25 24  1  0  0  0  0
 26 27  2  0  0  0  0
 27 28  1  0  0  0  0
 27 37  1  0  0  0  0
 28 38  1  0  0  0  0
 29 28  1  0  0  0  0
 30 26  1  0  0  0  0
 30 29  2  0  0  0  0
 31 24  1  0  0  0  0
 31 32  2  0  0  0  0
 35 25  1  0  0  0  0
 36 25  1  0  0  0  0
 39 29  1  0  0  0  0
 40 31  1  0  0  0  0
 41 40  1  0  0  0  0
 41 51  1  1  0  0  0
 42 41  1  0  0  0  0
 42 53  1  0  0  0  0
 43 42  1  0  0  0  0
 43 55  1  0  0  0  0
 44 43  1  0  0  0  0
 44 45  2  0  0  0  0
 46 41  1  0  0  0  0
 47 46  1  0  0  0  0
 48 56  1  0  0  0  0
 48 44  1  0  0  0  0
 49 46  2  0  0  0  0
 50 40  1  0  0  0  0
 52 42  1  0  0  0  0
 54 43  1  0  0  0  0
M  END
$$$$
