KHG.pdb
 OpenBabel07022418503D

 47 47  0  0  1  0  0  0  0  0999 V2000
    1.6220   -3.7830    2.1210 N   0  0  0  0  0  0  0  0  0  0  0  0
    1.4820   -2.3570    2.0510 C   0  0  1  0  0  0  0  0  0  0  0  0
    2.2830   -1.7480    0.9040 C   0  0  0  0  0  0  0  0  0  0  0  0
    1.7820   -2.3450   -0.3760 C   0  0  0  0  0  0  0  0  0  0  0  0
    2.4990   -1.7990   -1.5800 C   0  0  0  0  0  0  0  0  0  0  0  0
    3.9660   -2.1220   -1.4420 C   0  0  0  0  0  0  0  0  0  0  0  0
    4.0790   -3.5670   -1.3590 N   0  0  0  0  0  0  0  0  0  0  0  0
    0.0360   -2.0160    1.9000 C   0  0  0  0  0  0  0  0  0  0  0  0
   -0.8330   -2.9230    1.8540 O   0  0  0  0  0  0  0  0  0  0  0  0
    2.5240   -4.1240    1.7190 H   0  0  0  0  0  0  0  0  0  0  0  0
    1.6250   -4.1300    3.1270 H   0  0  0  0  0  0  0  0  0  0  0  0
    1.8660   -1.9500    3.0290 H   0  0  0  0  0  0  0  0  0  0  0  0
    2.1260   -0.6690    0.9220 H   0  0  0  0  0  0  0  0  0  0  0  0
    3.3400   -2.0600    1.0930 H   0  0  0  0  0  0  0  0  0  0  0  0
    1.9040   -3.4490   -0.3780 H   0  0  0  0  0  0  0  0  0  0  0  0
    0.6860   -2.1720   -0.4690 H   0  0  0  0  0  0  0  0  0  0  0  0
    2.0660   -2.3240   -2.4680 H   0  0  0  0  0  0  0  0  0  0  0  0
    2.3430   -0.7000   -1.6910 H   0  0  0  0  0  0  0  0  0  0  0  0
    4.3790   -1.6270   -0.5510 H   0  0  0  0  0  0  0  0  0  0  0  0
    4.5360   -1.7290   -2.3180 H   0  0  0  0  0  0  0  0  0  0  0  0
    4.6040   -3.9820   -2.1460 H   0  0  0  0  0  0  0  0  0  0  0  0
    4.3740   -3.8990   -0.4260 H   0  0  0  0  0  0  0  0  0  0  0  0
   -0.4240   -0.6770    1.8040 N   0  0  0  0  0  0  0  0  0  0  0  0
   -1.8010   -0.3160    1.6590 C   0  0  1  0  0  0  0  0  0  0  0  0
   -2.3390    0.4730    2.8320 C   0  0  0  0  0  0  0  0  0  0  0  0
   -1.6150    1.7340    3.0440 C   0  0  0  0  0  0  0  0  0  0  0  0
   -0.5070    1.9180    3.8340 C   0  0  0  0  0  0  0  0  0  0  0  0
   -0.1500    3.2230    3.7570 N   0  0  0  0  0  0  0  0  0  0  0  0
   -1.0160    3.8600    2.9310 C   0  0  0  0  0  0  0  0  0  0  0  0
   -1.9070    2.9260    2.5060 N   0  0  0  0  0  0  0  0  0  0  0  0
   -2.0910    0.3970    0.4100 C   0  0  0  0  0  0  0  0  0  0  0  0
   -1.1550    0.6240   -0.3960 O   0  0  0  0  0  0  0  0  0  0  0  0
    0.2890    0.0810    1.8410 H   0  0  0  0  0  0  0  0  0  0  0  0
   -2.3890   -1.2770    1.6420 H   0  0  0  0  0  0  0  0  0  0  0  0
   -3.4320    0.6130    2.6510 H   0  0  0  0  0  0  0  0  0  0  0  0
   -2.2800   -0.1840    3.7480 H   0  0  0  0  0  0  0  0  0  0  0  0
   -0.0060    1.1790    4.4110 H   0  0  0  0  0  0  0  0  0  0  0  0
    0.6730    3.6440    4.2680 H   0  0  0  0  0  0  0  0  0  0  0  0
   -0.9770    4.9170    2.6800 H   0  0  0  0  0  0  0  0  0  0  0  0
   -3.3910    0.8460    0.0670 N   0  0  0  0  0  0  0  0  0  0  0  0
   -3.6620    1.5500   -1.1720 C   0  0  0  0  0  0  0  0  0  0  0  0
   -3.2900    0.6630   -2.3160 C   0  0  0  0  0  0  0  0  0  0  0  0
   -3.4310    1.0440   -3.5060 O   0  0  0  0  0  0  0  0  0  0  0  0
   -2.7750   -0.6120   -2.1230 O   0  0  0  0  0  0  0  0  0  0  0  0
   -4.1690    0.6600    0.7320 H   0  0  0  0  0  0  0  0  0  0  0  0
   -4.7060    1.8620   -1.2080 H   0  0  0  0  0  0  0  0  0  0  0  0
   -3.0210    2.4600   -1.2680 H   0  0  0  0  0  0  0  0  0  0  0  0
  1 11  1  0  0  0  0
  2  1  1  0  0  0  0
  2 12  1  1  0  0  0
  3 13  1  0  0  0  0
  3 14  1  0  0  0  0
  3  2  1  0  0  0  0
  4  3  1  0  0  0  0
  5  6  1  0  0  0  0
  5  4  1  0  0  0  0
  6  7  1  0  0  0  0
  6 19  1  0  0  0  0
  7 22  1  0  0  0  0
  8  2  1  0  0  0  0
  9  8  2  0  0  0  0
 10  1  1  0  0  0  0
 15  4  1  0  0  0  0
 16  4  1  0  0  0  0
 17  5  1  0  0  0  0
 18  5  1  0  0  0  0
 20  6  1  0  0  0  0
 21  7  1  0  0  0  0
 23 33  1  0  0  0  0
 23  8  1  0  0  0  0
 24 34  1  6  0  0  0
 24 23  1  0  0  0  0
 24 25  1  0  0  0  0
 25 26  1  0  0  0  0
 25 36  1  0  0  0  0
 26 27  2  0  0  0  0
 27 37  1  0  0  0  0
 28 27  1  0  0  0  0
 28 38  1  0  0  0  0
 29 28  1  0  0  0  0
 30 29  2  0  0  0  0
 30 26  1  0  0  0  0
 31 24  1  0  0  0  0
 32 31  2  0  0  0  0
 35 25  1  0  0  0  0
 39 29  1  0  0  0  0
 40 31  1  0  0  0  0
 40 45  1  0  0  0  0
 41 40  1  0  0  0  0
 42 44  1  0  0  0  0
 42 41  1  0  0  0  0
 43 42  2  0  0  0  0
 46 41  1  0  0  0  0
 47 41  1  0  0  0  0
M  END
$$$$
