KHK.pdb
 OpenBabel07022418503D

 61 61  0  0  1  0  0  0  0  0999 V2000
    2.1690    0.8800    3.2170 N   0  0  0  0  0  0  0  0  0  0  0  0
    1.6510    0.7590    1.8790 C   0  0  1  0  0  0  0  0  0  0  0  0
    1.7530   -0.6020    1.2820 C   0  0  0  0  0  0  0  0  0  0  0  0
    3.1570   -1.0860    1.1740 C   0  0  0  0  0  0  0  0  0  0  0  0
    3.9010   -1.2150    2.4670 C   0  0  0  0  0  0  0  0  0  0  0  0
    3.2060   -2.1870    3.3960 C   0  0  0  0  0  0  0  0  0  0  0  0
    3.1630   -3.4840    2.7180 N   0  0  0  0  0  0  0  0  0  0  0  0
    0.1900    1.1320    1.8910 C   0  0  0  0  0  0  0  0  0  0  0  0
   -0.3800    1.4760    2.9570 O   0  0  0  0  0  0  0  0  0  0  0  0
    1.5250    0.4830    3.9410 H   0  0  0  0  0  0  0  0  0  0  0  0
    2.3410    1.8870    3.4080 H   0  0  0  0  0  0  0  0  0  0  0  0
    2.1830    1.4830    1.2250 H   0  0  0  0  0  0  0  0  0  0  0  0
    1.1030   -1.3450    1.8070 H   0  0  0  0  0  0  0  0  0  0  0  0
    1.3680   -0.5270    0.2210 H   0  0  0  0  0  0  0  0  0  0  0  0
    3.6960   -0.3880    0.4920 H   0  0  0  0  0  0  0  0  0  0  0  0
    3.1210   -2.0920    0.6840 H   0  0  0  0  0  0  0  0  0  0  0  0
    4.1590   -0.2760    2.9500 H   0  0  0  0  0  0  0  0  0  0  0  0
    4.8840   -1.7000    2.2060 H   0  0  0  0  0  0  0  0  0  0  0  0
    2.1910   -1.8700    3.6330 H   0  0  0  0  0  0  0  0  0  0  0  0
    3.7870   -2.2840    4.3180 H   0  0  0  0  0  0  0  0  0  0  0  0
    4.0140   -3.5910    2.1150 H   0  0  0  0  0  0  0  0  0  0  0  0
    2.2860   -3.5830    2.1710 H   0  0  0  0  0  0  0  0  0  0  0  0
   -0.5780    1.1060    0.7020 N   0  0  0  0  0  0  0  0  0  0  0  0
   -2.0020    1.4710    0.7200 C   0  0  1  0  0  0  0  0  0  0  0  0
   -2.2500    2.6760   -0.1640 C   0  0  0  0  0  0  0  0  0  0  0  0
   -1.4740    3.8550    0.2870 C   0  0  0  0  0  0  0  0  0  0  0  0
   -1.9260    4.8000    1.2010 C   0  0  0  0  0  0  0  0  0  0  0  0
   -0.9820    5.7330    1.3880 N   0  0  0  0  0  0  0  0  0  0  0  0
    0.0510    5.3790    0.6020 C   0  0  0  0  0  0  0  0  0  0  0  0
   -0.2450    4.2480   -0.0610 N   0  0  0  0  0  0  0  0  0  0  0  0
   -2.7840    0.2940    0.2650 C   0  0  0  0  0  0  0  0  0  0  0  0
   -4.0330    0.3670    0.1970 O   0  0  0  0  0  0  0  0  0  0  0  0
   -0.1060    0.8210   -0.1810 H   0  0  0  0  0  0  0  0  0  0  0  0
   -2.3090    1.7460    1.7480 H   0  0  0  0  0  0  0  0  0  0  0  0
   -2.0010    2.4750   -1.2220 H   0  0  0  0  0  0  0  0  0  0  0  0
   -3.3150    2.9280   -0.0990 H   0  0  0  0  0  0  0  0  0  0  0  0
   -2.8970    4.8140    1.7100 H   0  0  0  0  0  0  0  0  0  0  0  0
   -1.0710    6.5540    2.0260 H   0  0  0  0  0  0  0  0  0  0  0  0
    0.9750    5.9660    0.5500 H   0  0  0  0  0  0  0  0  0  0  0  0
   -2.1740   -0.9110   -0.0960 N   0  0  0  0  0  0  0  0  0  0  0  0
   -2.8350   -2.1060   -0.5480 C   0  0  1  0  0  0  0  0  0  0  0  0
   -2.5640   -2.5230   -1.9210 C   0  0  0  0  0  0  0  0  0  0  0  0
   -1.1920   -2.8190   -2.3480 C   0  0  0  0  0  0  0  0  0  0  0  0
   -0.4140   -3.9100   -1.7640 C   0  0  0  0  0  0  0  0  0  0  0  0
   -0.9590   -5.2990   -1.9900 C   0  0  0  0  0  0  0  0  0  0  0  0
   -1.0300   -5.5990   -3.4290 N   0  0  0  0  0  0  0  0  0  0  0  0
   -2.7450   -3.1890    0.4410 C   0  0  0  0  0  0  0  0  0  0  0  0
   -3.3130   -4.2950    0.3270 O   0  0  0  0  0  0  0  0  0  0  0  0
   -1.9850   -3.0440    1.6230 O   0  0  0  0  0  0  0  0  0  0  0  0
   -1.1340   -0.9660   -0.0380 H   0  0  0  0  0  0  0  0  0  0  0  0
   -3.9390   -1.8160   -0.5330 H   0  0  0  0  0  0  0  0  0  0  0  0
   -3.0920   -1.8310   -2.6460 H   0  0  0  0  0  0  0  0  0  0  0  0
   -3.1560   -3.4850   -2.0710 H   0  0  0  0  0  0  0  0  0  0  0  0
   -1.1410   -2.9850   -3.4750 H   0  0  0  0  0  0  0  0  0  0  0  0
   -0.6170   -1.8380   -2.2750 H   0  0  0  0  0  0  0  0  0  0  0  0
    0.6050   -3.9070   -2.2570 H   0  0  0  0  0  0  0  0  0  0  0  0
   -0.1810   -3.8310   -0.6870 H   0  0  0  0  0  0  0  0  0  0  0  0
   -0.2490   -6.0820   -1.5930 H   0  0  0  0  0  0  0  0  0  0  0  0
   -1.9210   -5.5180   -1.5540 H   0  0  0  0  0  0  0  0  0  0  0  0
   -1.8410   -5.1240   -3.8670 H   0  0  0  0  0  0  0  0  0  0  0  0
   -0.1400   -5.3230   -3.8830 H   0  0  0  0  0  0  0  0  0  0  0  0
  1 11  1  0  0  0  0
  1 10  1  0  0  0  0
  2 12  1  6  0  0  0
  2  8  1  0  0  0  0
  2  1  1  0  0  0  0
  3 13  1  0  0  0  0
  3  2  1  0  0  0  0
  4  3  1  0  0  0  0
  4  5  1  0  0  0  0
  5 17  1  0  0  0  0
  5  6  1  0  0  0  0
  6 19  1  0  0  0  0
  6 20  1  0  0  0  0
  7  6  1  0  0  0  0
  8  9  2  0  0  0  0
 14  3  1  0  0  0  0
 15  4  1  0  0  0  0
 16  4  1  0  0  0  0
 18  5  1  0  0  0  0
 21  7  1  0  0  0  0
 22  7  1  0  0  0  0
 23 24  1  0  0  0  0
 23  8  1  0  0  0  0
 24 34  1  1  0  0  0
 25 36  1  0  0  0  0
 25 26  1  0  0  0  0
 25 24  1  0  0  0  0
 26 27  2  0  0  0  0
 27 28  1  0  0  0  0
 27 37  1  0  0  0  0
 28 38  1  0  0  0  0
 29 28  1  0  0  0  0
 30 26  1  0  0  0  0
 30 29  2  0  0  0  0
 31 24  1  0  0  0  0
 32 31  2  0  0  0  0
 33 23  1  0  0  0  0
 35 25  1  0  0  0  0
 39 29  1  0  0  0  0
 40 50  1  0  0  0  0
 40 31  1  0  0  0  0
 41 51  1  6  0  0  0
 41 40  1  0  0  0  0
 41 47  1  0  0  0  0
 42 41  1  0  0  0  0
 43 55  1  0  0  0  0
 43 42  1  0  0  0  0
 43 44  1  0  0  0  0
 44 57  1  0  0  0  0
 45 44  1  0  0  0  0
 45 58  1  0  0  0  0
 45 59  1  0  0  0  0
 46 45  1  0  0  0  0
 47 49  1  0  0  0  0
 48 47  2  0  0  0  0
 52 42  1  0  0  0  0
 53 42  1  0  0  0  0
 54 43  1  0  0  0  0
 56 44  1  0  0  0  0
 60 46  1  0  0  0  0
 61 46  1  0  0  0  0
M  END
$$$$
