KHQ.pdb
 OpenBabel07022418503D

 57 57  0  0  1  0  0  0  0  0999 V2000
    3.3700    2.6530   -0.9730 N   0  0  0  0  0  0  0  0  0  0  0  0
    2.3710    1.6460   -1.1550 C   0  0  1  0  0  0  0  0  0  0  0  0
    2.9140    0.2640   -1.3750 C   0  0  0  0  0  0  0  0  0  0  0  0
    3.7880   -0.2990   -0.3270 C   0  0  0  0  0  0  0  0  0  0  0  0
    3.2520   -0.4280    1.0460 C   0  0  0  0  0  0  0  0  0  0  0  0
    4.2690   -1.0800    1.9940 C   0  0  0  0  0  0  0  0  0  0  0  0
    4.6450   -2.3920    1.5730 N   0  0  0  0  0  0  0  0  0  0  0  0
    1.3130    1.6060   -0.1260 C   0  0  0  0  0  0  0  0  0  0  0  0
    1.3220    2.3830    0.8720 O   0  0  0  0  0  0  0  0  0  0  0  0
    3.0270    3.5840   -1.3040 H   0  0  0  0  0  0  0  0  0  0  0  0
    4.1870    2.4020   -1.5730 H   0  0  0  0  0  0  0  0  0  0  0  0
    1.8740    1.9080   -2.1510 H   0  0  0  0  0  0  0  0  0  0  0  0
    3.4380    0.2710   -2.3860 H   0  0  0  0  0  0  0  0  0  0  0  0
    2.0130   -0.3820   -1.5910 H   0  0  0  0  0  0  0  0  0  0  0  0
    4.7640    0.2650   -0.3330 H   0  0  0  0  0  0  0  0  0  0  0  0
    4.0540   -1.3500   -0.6630 H   0  0  0  0  0  0  0  0  0  0  0  0
    2.2900   -0.9510    1.0600 H   0  0  0  0  0  0  0  0  0  0  0  0
    3.1220    0.5950    1.5250 H   0  0  0  0  0  0  0  0  0  0  0  0
    3.8250   -1.0550    3.0040 H   0  0  0  0  0  0  0  0  0  0  0  0
    5.1370   -0.3840    2.0030 H   0  0  0  0  0  0  0  0  0  0  0  0
    5.4530   -2.3900    0.9170 H   0  0  0  0  0  0  0  0  0  0  0  0
    4.7030   -3.0890    2.3320 H   0  0  0  0  0  0  0  0  0  0  0  0
    0.2090    0.7050   -0.1740 N   0  0  0  0  0  0  0  0  0  0  0  0
   -0.8130    0.7030    0.8780 C   0  0  1  0  0  0  0  0  0  0  0  0
   -2.0810    1.3550    0.3070 C   0  0  0  0  0  0  0  0  0  0  0  0
   -3.1100    1.4250    1.3650 C   0  0  0  0  0  0  0  0  0  0  0  0
   -4.4120    1.9360    1.2010 C   0  0  0  0  0  0  0  0  0  0  0  0
   -5.0640    1.8420    2.3660 N   0  0  0  0  0  0  0  0  0  0  0  0
   -4.2500    1.2990    3.2660 C   0  0  0  0  0  0  0  0  0  0  0  0
   -3.0930    1.0580    2.6520 N   0  0  0  0  0  0  0  0  0  0  0  0
   -1.0200   -0.7060    1.2340 C   0  0  0  0  0  0  0  0  0  0  0  0
   -1.8150   -1.0280    2.1480 O   0  0  0  0  0  0  0  0  0  0  0  0
    0.1430    0.0690   -0.9800 H   0  0  0  0  0  0  0  0  0  0  0  0
   -0.5670    1.2940    1.7480 H   0  0  0  0  0  0  0  0  0  0  0  0
   -2.4360    0.8110   -0.5830 H   0  0  0  0  0  0  0  0  0  0  0  0
   -1.7820    2.4070    0.0770 H   0  0  0  0  0  0  0  0  0  0  0  0
   -4.7760    2.3290    0.2620 H   0  0  0  0  0  0  0  0  0  0  0  0
   -6.0570    2.1480    2.5370 H   0  0  0  0  0  0  0  0  0  0  0  0
   -4.5290    1.1060    4.3080 H   0  0  0  0  0  0  0  0  0  0  0  0
   -4.8580   -2.7490   -1.6030 N   0  0  0  0  0  0  0  0  0  0  0  0
   -3.6310   -3.4350   -1.3730 C   0  0  0  0  0  0  0  0  0  0  0  0
   -3.3510   -4.4080   -2.0900 O   0  0  0  0  0  0  0  0  0  0  0  0
   -2.7730   -2.9240   -0.2770 C   0  0  0  0  0  0  0  0  0  0  0  0
   -1.5020   -3.7390   -0.1410 C   0  0  0  0  0  0  0  0  0  0  0  0
   -0.6390   -3.1780    1.0060 C   0  0  2  0  0  0  0  0  0  0  0  0
   -0.3650   -1.8000    0.5990 N   0  0  0  0  0  0  0  0  0  0  0  0
    0.5470   -4.0270    1.0670 C   0  0  0  0  0  0  0  0  0  0  0  0
    0.4760   -5.2510    1.4330 O   0  0  0  0  0  0  0  0  0  0  0  0
    1.8100   -3.5810    0.7410 O   0  0  0  0  0  0  0  0  0  0  0  0
   -5.1240   -2.3590   -2.5510 H   0  0  0  0  0  0  0  0  0  0  0  0
   -5.5710   -2.5870   -0.8540 H   0  0  0  0  0  0  0  0  0  0  0  0
   -3.3500   -3.1040    0.6710 H   0  0  0  0  0  0  0  0  0  0  0  0
   -2.5850   -1.8540   -0.3610 H   0  0  0  0  0  0  0  0  0  0  0  0
   -1.7260   -4.7890    0.1110 H   0  0  0  0  0  0  0  0  0  0  0  0
   -0.9380   -3.7360   -1.0900 H   0  0  0  0  0  0  0  0  0  0  0  0
   -1.2830   -3.1860    1.8990 H   0  0  0  0  0  0  0  0  0  0  0  0
    0.3200   -1.6790   -0.1550 H   0  0  0  0  0  0  0  0  0  0  0  0
  2 12  1  6  0  0  0
  2  1  1  0  0  0  0
  2  8  1  0  0  0  0
  3  2  1  0  0  0  0
  3  4  1  0  0  0  0
  4  5  1  0  0  0  0
  5 17  1  0  0  0  0
  5 18  1  0  0  0  0
  5  6  1  0  0  0  0
  6 20  1  0  0  0  0
  6 19  1  0  0  0  0
  7  6  1  0  0  0  0
  7 22  1  0  0  0  0
  8  9  2  0  0  0  0
 10  1  1  0  0  0  0
 11  1  1  0  0  0  0
 13  3  1  0  0  0  0
 14  3  1  0  0  0  0
 15  4  1  0  0  0  0
 16  4  1  0  0  0  0
 21  7  1  0  0  0  0
 23  8  1  0  0  0  0
 23 24  1  0  0  0  0
 24 31  1  0  0  0  0
 24 34  1  1  0  0  0
 25 24  1  0  0  0  0
 25 26  1  0  0  0  0
 26 30  1  0  0  0  0
 27 26  2  0  0  0  0
 27 28  1  0  0  0  0
 28 38  1  0  0  0  0
 28 29  1  0  0  0  0
 29 39  1  0  0  0  0
 30 29  2  0  0  0  0
 31 32  2  0  0  0  0
 33 23  1  0  0  0  0
 35 25  1  0  0  0  0
 36 25  1  0  0  0  0
 37 27  1  0  0  0  0
 40 41  1  0  0  0  0
 40 51  1  0  0  0  0
 41 43  1  0  0  0  0
 42 41  2  0  0  0  0
 43 44  1  0  0  0  0
 43 52  1  0  0  0  0
 44 54  1  0  0  0  0
 44 45  1  0  0  0  0
 45 47  1  0  0  0  0
 45 56  1  1  0  0  0
 46 45  1  0  0  0  0
 46 31  1  0  0  0  0
 47 48  1  0  0  0  0
 49 47  2  0  0  0  0
 50 40  1  0  0  0  0
 53 43  1  0  0  0  0
 55 44  1  0  0  0  0
 57 46  1  0  0  0  0
M  END
$$$$
