KHV.pdb
 OpenBabel07022418503D

 56 56  0  0  1  0  0  0  0  0999 V2000
    2.7380   -1.5250    0.7420 N   0  0  0  0  0  0  0  0  0  0  0  0
    2.1540   -1.7160    2.0440 C   0  0  1  0  0  0  0  0  0  0  0  0
    2.9780   -1.1830    3.1680 C   0  0  0  0  0  0  0  0  0  0  0  0
    3.2580    0.2750    3.1250 C   0  0  0  0  0  0  0  0  0  0  0  0
    3.9950    0.7620    1.9310 C   0  0  0  0  0  0  0  0  0  0  0  0
    5.3530    0.1410    1.7530 C   0  0  0  0  0  0  0  0  0  0  0  0
    5.9380    0.7220    0.5450 N   0  0  0  0  0  0  0  0  0  0  0  0
    0.7650   -1.1970    2.1130 C   0  0  0  0  0  0  0  0  0  0  0  0
    0.1740   -1.3290    3.2290 O   0  0  0  0  0  0  0  0  0  0  0  0
    2.0470   -1.9500    0.0530 H   0  0  0  0  0  0  0  0  0  0  0  0
    3.5630   -2.1950    0.6920 H   0  0  0  0  0  0  0  0  0  0  0  0
    2.0740   -2.8230    2.1960 H   0  0  0  0  0  0  0  0  0  0  0  0
    2.3860   -1.3700    4.1100 H   0  0  0  0  0  0  0  0  0  0  0  0
    3.8830   -1.8150    3.2770 H   0  0  0  0  0  0  0  0  0  0  0  0
    2.2570    0.7970    3.1210 H   0  0  0  0  0  0  0  0  0  0  0  0
    3.7510    0.5780    4.0540 H   0  0  0  0  0  0  0  0  0  0  0  0
    4.1890    1.8630    2.1080 H   0  0  0  0  0  0  0  0  0  0  0  0
    3.4080    0.7390    0.9940 H   0  0  0  0  0  0  0  0  0  0  0  0
    5.3560   -0.9440    1.6780 H   0  0  0  0  0  0  0  0  0  0  0  0
    6.0310    0.4230    2.5800 H   0  0  0  0  0  0  0  0  0  0  0  0
    6.8220    0.1900    0.2910 H   0  0  0  0  0  0  0  0  0  0  0  0
    5.2900    0.5360   -0.2740 H   0  0  0  0  0  0  0  0  0  0  0  0
    0.1090   -0.5850    1.0140 N   0  0  0  0  0  0  0  0  0  0  0  0
   -1.2380   -0.1140    1.1800 C   0  0  1  0  0  0  0  0  0  0  0  0
   -1.3040    1.4120    1.0320 C   0  0  0  0  0  0  0  0  0  0  0  0
   -2.6810    1.9150    1.2020 C   0  0  0  0  0  0  0  0  0  0  0  0
   -3.2870    2.3080    2.3900 C   0  0  0  0  0  0  0  0  0  0  0  0
   -4.5430    2.7040    2.1430 N   0  0  0  0  0  0  0  0  0  0  0  0
   -4.7690    2.5780    0.8300 C   0  0  0  0  0  0  0  0  0  0  0  0
   -3.6230    2.0950    0.2630 N   0  0  0  0  0  0  0  0  0  0  0  0
   -2.1860   -0.7950    0.2640 C   0  0  0  0  0  0  0  0  0  0  0  0
   -3.4170   -0.5540    0.2410 O   0  0  0  0  0  0  0  0  0  0  0  0
    0.6240   -0.4910    0.1070 H   0  0  0  0  0  0  0  0  0  0  0  0
   -1.5760   -0.3170    2.2150 H   0  0  0  0  0  0  0  0  0  0  0  0
   -0.6230    1.8790    1.7690 H   0  0  0  0  0  0  0  0  0  0  0  0
   -0.9130    1.6950    0.0260 H   0  0  0  0  0  0  0  0  0  0  0  0
   -2.7770    2.2820    3.3550 H   0  0  0  0  0  0  0  0  0  0  0  0
   -5.2240    3.0470    2.8380 H   0  0  0  0  0  0  0  0  0  0  0  0
   -5.6960    2.8180    0.3070 H   0  0  0  0  0  0  0  0  0  0  0  0
   -0.9110   -2.6460   -3.2800 C   0  0  0  0  0  0  0  0  0  0  0  0
   -2.3290   -2.1560   -3.0140 C   0  0  0  0  0  0  0  0  0  0  0  0
   -3.2440   -2.8970   -3.9560 C   0  0  0  0  0  0  0  0  0  0  0  0
   -2.6510   -2.4580   -1.5650 C   0  0  2  0  0  0  0  0  0  0  0  0
   -1.7310   -1.7900   -0.6680 N   0  0  0  0  0  0  0  0  0  0  0  0
   -2.6680   -3.9010   -1.2860 C   0  0  0  0  0  0  0  0  0  0  0  0
   -1.9530   -4.3760   -0.3820 O   0  0  0  0  0  0  0  0  0  0  0  0
   -3.4720   -4.7720   -2.0100 O   0  0  0  0  0  0  0  0  0  0  0  0
   -0.6980   -2.5170   -4.3670 H   0  0  0  0  0  0  0  0  0  0  0  0
   -0.8710   -3.7090   -3.0500 H   0  0  0  0  0  0  0  0  0  0  0  0
   -0.1650   -2.0300   -2.7440 H   0  0  0  0  0  0  0  0  0  0  0  0
   -2.3390   -1.0750   -3.1930 H   0  0  0  0  0  0  0  0  0  0  0  0
   -2.7710   -3.8430   -4.2590 H   0  0  0  0  0  0  0  0  0  0  0  0
   -4.2270   -3.1250   -3.4940 H   0  0  0  0  0  0  0  0  0  0  0  0
   -3.4620   -2.2150   -4.8100 H   0  0  0  0  0  0  0  0  0  0  0  0
   -3.6620   -2.0510   -1.3660 H   0  0  0  0  0  0  0  0  0  0  0  0
   -0.7070   -2.0260   -0.6860 H   0  0  0  0  0  0  0  0  0  0  0  0
  1  2  1  0  0  0  0
  2  8  1  0  0  0  0
  2 12  1  1  0  0  0
  2  3  1  0  0  0  0
  3 14  1  0  0  0  0
  3 13  1  0  0  0  0
  4  3  1  0  0  0  0
  4 16  1  0  0  0  0
  5 17  1  0  0  0  0
  5  4  1  0  0  0  0
  6  5  1  0  0  0  0
  6 20  1  0  0  0  0
  7  6  1  0  0  0  0
  8  9  2  0  0  0  0
 10  1  1  0  0  0  0
 11  1  1  0  0  0  0
 15  4  1  0  0  0  0
 18  5  1  0  0  0  0
 19  6  1  0  0  0  0
 21  7  1  0  0  0  0
 22  7  1  0  0  0  0
 23 24  1  0  0  0  0
 23  8  1  0  0  0  0
 24 34  1  1  0  0  0
 25 24  1  0  0  0  0
 25 26  1  0  0  0  0
 25 35  1  0  0  0  0
 26 27  2  0  0  0  0
 27 37  1  0  0  0  0
 28 27  1  0  0  0  0
 28 38  1  0  0  0  0
 29 28  1  0  0  0  0
 30 29  2  0  0  0  0
 30 26  1  0  0  0  0
 31 24  1  0  0  0  0
 32 31  2  0  0  0  0
 33 23  1  0  0  0  0
 36 25  1  0  0  0  0
 39 29  1  0  0  0  0
 40 49  1  0  0  0  0
 40 41  1  0  0  0  0
 40 50  1  0  0  0  0
 41 43  1  0  0  0  0
 42 53  1  0  0  0  0
 42 41  1  0  0  0  0
 43 55  1  1  0  0  0
 43 45  1  0  0  0  0
 43 44  1  0  0  0  0
 44 31  1  0  0  0  0
 45 46  1  0  0  0  0
 47 45  2  0  0  0  0
 48 40  1  0  0  0  0
 51 41  1  0  0  0  0
 52 42  1  0  0  0  0
 54 42  1  0  0  0  0
 56 44  1  0  0  0  0
M  END
$$$$
