KIA.pdb
 OpenBabel07022418503D

 52 51  0  0  1  0  0  0  0  0999 V2000
    0.5960   -2.9880    3.7920 N   0  0  0  0  0  0  0  0  0  0  0  0
    1.0490   -2.0290    2.7930 C   0  0  1  0  0  0  0  0  0  0  0  0
    1.3850   -2.7390    1.5220 C   0  0  0  0  0  0  0  0  0  0  0  0
    0.2060   -3.4870    0.9380 C   0  0  0  0  0  0  0  0  0  0  0  0
    0.6790   -4.1510   -0.3260 C   0  0  0  0  0  0  0  0  0  0  0  0
   -0.3990   -4.9400   -1.0170 C   0  0  0  0  0  0  0  0  0  0  0  0
    0.1730   -5.5300   -2.2140 N   0  0  0  0  0  0  0  0  0  0  0  0
    0.0470   -0.9460    2.6360 C   0  0  0  0  0  0  0  0  0  0  0  0
   -1.0290   -0.9860    3.3290 O   0  0  0  0  0  0  0  0  0  0  0  0
   -0.4480   -2.9670    3.8200 H   0  0  0  0  0  0  0  0  0  0  0  0
    0.8710   -3.9640    3.4930 H   0  0  0  0  0  0  0  0  0  0  0  0
    2.0090   -1.5450    3.1420 H   0  0  0  0  0  0  0  0  0  0  0  0
    2.1530   -3.4970    1.7630 H   0  0  0  0  0  0  0  0  0  0  0  0
    1.8410   -2.0480    0.7980 H   0  0  0  0  0  0  0  0  0  0  0  0
   -0.6620   -2.8570    0.7430 H   0  0  0  0  0  0  0  0  0  0  0  0
   -0.1130   -4.2820    1.6420 H   0  0  0  0  0  0  0  0  0  0  0  0
    1.0400   -3.3840   -1.0390 H   0  0  0  0  0  0  0  0  0  0  0  0
    1.5200   -4.8430   -0.0670 H   0  0  0  0  0  0  0  0  0  0  0  0
   -0.8370   -5.7210   -0.3530 H   0  0  0  0  0  0  0  0  0  0  0  0
   -1.2400   -4.2840   -1.3060 H   0  0  0  0  0  0  0  0  0  0  0  0
    1.0530   -5.0410   -2.5080 H   0  0  0  0  0  0  0  0  0  0  0  0
   -0.5010   -5.4820   -3.0210 H   0  0  0  0  0  0  0  0  0  0  0  0
    1.4640    1.7740    3.7870 C   0  0  0  0  0  0  0  0  0  0  0  0
    0.2720    2.5820    3.4250 C   0  0  0  0  0  0  0  0  0  0  0  0
   -0.1340    2.5440    1.9820 C   0  0  2  0  0  0  0  0  0  0  0  0
   -1.3700    3.4630    1.8950 C   0  0  0  0  0  0  0  0  0  0  0  0
   -0.6660    1.1760    1.5590 C   0  0  2  0  0  0  0  0  0  0  0  0
    0.2920    0.1170    1.7240 N   0  0  0  0  0  0  0  0  0  0  0  0
   -1.1200    1.2870    0.1350 C   0  0  0  0  0  0  0  0  0  0  0  0
   -1.9690    2.1650   -0.1430 O   0  0  0  0  0  0  0  0  0  0  0  0
    1.2490    0.9230    4.4640 H   0  0  0  0  0  0  0  0  0  0  0  0
    2.0710    1.4070    2.9530 H   0  0  0  0  0  0  0  0  0  0  0  0
    2.1530    2.4270    4.4000 H   0  0  0  0  0  0  0  0  0  0  0  0
   -0.5800    2.2880    4.0740 H   0  0  0  0  0  0  0  0  0  0  0  0
    0.4950    3.6640    3.6470 H   0  0  0  0  0  0  0  0  0  0  0  0
    0.6540    2.9150    1.3260 H   0  0  0  0  0  0  0  0  0  0  0  0
   -2.3100    2.9000    2.0320 H   0  0  0  0  0  0  0  0  0  0  0  0
   -1.3610    4.0860    0.9980 H   0  0  0  0  0  0  0  0  0  0  0  0
   -1.3670    4.2020    2.7520 H   0  0  0  0  0  0  0  0  0  0  0  0
   -1.5230    0.9750    2.2340 H   0  0  0  0  0  0  0  0  0  0  0  0
    1.1960    0.0770    1.1870 H   0  0  0  0  0  0  0  0  0  0  0  0
    0.0240    0.9460   -3.1970 C   0  0  0  0  0  0  0  0  0  0  0  0
   -1.1130    0.6050   -2.2770 C   0  0  2  0  0  0  0  0  0  0  0  0
   -0.6470    0.4630   -0.9060 N   0  0  0  0  0  0  0  0  0  0  0  0
   -1.7190   -0.6720   -2.7640 C   0  0  0  0  0  0  0  0  0  0  0  0
   -1.7870   -1.6940   -2.0370 O   0  0  0  0  0  0  0  0  0  0  0  0
   -2.2300   -0.7660   -4.0500 O   0  0  0  0  0  0  0  0  0  0  0  0
   -0.2270    0.6510   -4.2510 H   0  0  0  0  0  0  0  0  0  0  0  0
    0.9550    0.3710   -2.9610 H   0  0  0  0  0  0  0  0  0  0  0  0
    0.3110    2.0280   -3.1430 H   0  0  0  0  0  0  0  0  0  0  0  0
   -1.8610    1.4250   -2.3660 H   0  0  0  0  0  0  0  0  0  0  0  0
    0.0600   -0.2740   -0.6950 H   0  0  0  0  0  0  0  0  0  0  0  0
  1 10  1  0  0  0  0
  2 12  1  1  0  0  0
  2  1  1  0  0  0  0
  3 13  1  0  0  0  0
  3  2  1  0  0  0  0
  4  3  1  0  0  0  0
  4 16  1  0  0  0  0
  5 18  1  0  0  0  0
  5  4  1  0  0  0  0
  6 19  1  0  0  0  0
  6  5  1  0  0  0  0
  7  6  1  0  0  0  0
  8  2  1  0  0  0  0
  8  9  2  0  0  0  0
 11  1  1  0  0  0  0
 14  3  1  0  0  0  0
 15  4  1  0  0  0  0
 17  5  1  0  0  0  0
 20  6  1  0  0  0  0
 21  7  1  0  0  0  0
 22  7  1  0  0  0  0
 23 33  1  0  0  0  0
 23 31  1  0  0  0  0
 24 35  1  0  0  0  0
 24 23  1  0  0  0  0
 24 34  1  0  0  0  0
 25 36  1  6  0  0  0
 25 24  1  0  0  0  0
 26 25  1  0  0  0  0
 26 37  1  0  0  0  0
 26 39  1  0  0  0  0
 27 28  1  0  0  0  0
 27 25  1  0  0  0  0
 27 40  1  1  0  0  0
 28  8  1  0  0  0  0
 29 27  1  0  0  0  0
 30 29  2  0  0  0  0
 32 23  1  0  0  0  0
 38 26  1  0  0  0  0
 41 28  1  0  0  0  0
 42 50  1  0  0  0  0
 42 49  1  0  0  0  0
 42 43  1  0  0  0  0
 43 51  1  6  0  0  0
 43 44  1  0  0  0  0
 44 52  1  0  0  0  0
 44 29  1  0  0  0  0
 45 43  1  0  0  0  0
 45 46  1  0  0  0  0
 47 45  2  0  0  0  0
 48 42  1  0  0  0  0
M  END
$$$$
