KIE.pdb
 OpenBabel07022418503D

 58 57  0  0  1  0  0  0  0  0999 V2000
    0.9030   -1.6760    4.7710 N   0  0  0  0  0  0  0  0  0  0  0  0
    1.1890   -1.2330    3.3700 C   0  0  1  0  0  0  0  0  0  0  0  0
    2.0740   -2.2640    2.7980 C   0  0  0  0  0  0  0  0  0  0  0  0
    2.5510   -2.0950    1.4090 C   0  0  0  0  0  0  0  0  0  0  0  0
    3.3400   -0.8600    1.1470 C   0  0  0  0  0  0  0  0  0  0  0  0
    4.5940   -0.8330    2.0250 C   0  0  0  0  0  0  0  0  0  0  0  0
    5.3680    0.3720    1.7680 N   0  0  0  0  0  0  0  0  0  0  0  0
   -0.1300   -1.0430    2.7540 C   0  0  0  0  0  0  0  0  0  0  0  0
   -1.2130   -1.3890    3.3380 O   0  0  0  0  0  0  0  0  0  0  0  0
    1.8560   -1.9100    5.1450 H   0  0  0  0  0  0  0  0  0  0  0  0
    0.2880   -2.5070    4.7630 H   0  0  0  0  0  0  0  0  0  0  0  0
    1.6740   -0.2540    3.4970 H   0  0  0  0  0  0  0  0  0  0  0  0
    1.6240   -3.2900    2.9500 H   0  0  0  0  0  0  0  0  0  0  0  0
    2.9930   -2.3080    3.4570 H   0  0  0  0  0  0  0  0  0  0  0  0
    1.6900   -2.1970    0.7310 H   0  0  0  0  0  0  0  0  0  0  0  0
    3.2280   -2.9570    1.1030 H   0  0  0  0  0  0  0  0  0  0  0  0
    2.8200    0.0870    1.2690 H   0  0  0  0  0  0  0  0  0  0  0  0
    3.7250   -0.8970    0.0970 H   0  0  0  0  0  0  0  0  0  0  0  0
    5.2500   -1.6940    1.8400 H   0  0  0  0  0  0  0  0  0  0  0  0
    4.3110   -0.8030    3.0960 H   0  0  0  0  0  0  0  0  0  0  0  0
    5.6640    0.4190    0.7560 H   0  0  0  0  0  0  0  0  0  0  0  0
    4.7470    1.1940    1.9110 H   0  0  0  0  0  0  0  0  0  0  0  0
   -0.5950    2.0270    2.7800 C   0  0  0  0  0  0  0  0  0  0  0  0
   -1.9010    1.9220    2.0970 C   0  0  0  0  0  0  0  0  0  0  0  0
   -1.9470    1.2250    0.7730 C   0  0  2  0  0  0  0  0  0  0  0  0
   -3.4080    1.3230    0.2780 C   0  0  0  0  0  0  0  0  0  0  0  0
   -1.6500   -0.2720    0.9150 C   0  0  2  0  0  0  0  0  0  0  0  0
   -0.3540   -0.4520    1.4550 N   0  0  0  0  0  0  0  0  0  0  0  0
   -1.9570   -0.9860   -0.3290 C   0  0  0  0  0  0  0  0  0  0  0  0
   -3.1220   -0.9240   -0.7870 O   0  0  0  0  0  0  0  0  0  0  0  0
   -0.5550    1.5330    3.7930 H   0  0  0  0  0  0  0  0  0  0  0  0
    0.2940    1.7250    2.2270 H   0  0  0  0  0  0  0  0  0  0  0  0
   -0.4510    3.1340    3.0710 H   0  0  0  0  0  0  0  0  0  0  0  0
   -2.4030    2.9350    2.0320 H   0  0  0  0  0  0  0  0  0  0  0  0
   -2.5920    1.3810    2.8310 H   0  0  0  0  0  0  0  0  0  0  0  0
   -1.2640    1.7050    0.0800 H   0  0  0  0  0  0  0  0  0  0  0  0
   -3.4460    1.3510   -0.8020 H   0  0  0  0  0  0  0  0  0  0  0  0
   -3.7770    2.3150    0.6320 H   0  0  0  0  0  0  0  0  0  0  0  0
   -3.9970    0.5370    0.7710 H   0  0  0  0  0  0  0  0  0  0  0  0
   -2.4020   -0.6080    1.6940 H   0  0  0  0  0  0  0  0  0  0  0  0
    0.4710   -0.1590    0.8890 H   0  0  0  0  0  0  0  0  0  0  0  0
   -1.0130   -1.7440   -1.0510 N   0  0  0  0  0  0  0  0  0  0  0  0
   -1.4280   -2.4210   -2.2860 C   0  0  1  0  0  0  0  0  0  0  0  0
   -0.6070   -1.9900   -3.4550 C   0  0  0  0  0  0  0  0  0  0  0  0
   -0.6730   -0.5160   -3.7580 C   0  0  0  0  0  0  0  0  0  0  0  0
   -2.0380   -0.0580   -4.0900 C   0  0  0  0  0  0  0  0  0  0  0  0
   -2.2880    1.1800   -4.2890 O   0  0  0  0  0  0  0  0  0  0  0  0
   -1.3110   -3.8990   -2.0830 C   0  0  0  0  0  0  0  0  0  0  0  0
   -1.6200   -4.6580   -3.0360 O   0  0  0  0  0  0  0  0  0  0  0  0
   -3.1310   -0.8990   -4.2100 O   0  0  0  0  0  0  0  0  0  0  0  0
   -0.8820   -4.4680   -0.9060 O   0  0  0  0  0  0  0  0  0  0  0  0
   -0.0310   -1.8520   -0.7630 H   0  0  0  0  0  0  0  0  0  0  0  0
   -2.4940   -2.2240   -2.4490 H   0  0  0  0  0  0  0  0  0  0  0  0
   -1.0500   -2.4930   -4.3660 H   0  0  0  0  0  0  0  0  0  0  0  0
    0.4300   -2.3670   -3.4190 H   0  0  0  0  0  0  0  0  0  0  0  0
    0.0540   -0.2690   -4.5810 H   0  0  0  0  0  0  0  0  0  0  0  0
   -0.3120    0.1000   -2.8970 H   0  0  0  0  0  0  0  0  0  0  0  0
   -4.0540   -0.6450   -3.8360 H   0  0  0  0  0  0  0  0  0  0  0  0
  1 10  1  0  0  0  0
  2 12  1  1  0  0  0
  2  1  1  0  0  0  0
  3 13  1  0  0  0  0
  3  2  1  0  0  0  0
  3 14  1  0  0  0  0
  4  3  1  0  0  0  0
  5 17  1  0  0  0  0
  5  4  1  0  0  0  0
  5  6  1  0  0  0  0
  6 20  1  0  0  0  0
  7 22  1  0  0  0  0
  7  6  1  0  0  0  0
  8  9  2  0  0  0  0
  8  2  1  0  0  0  0
 11  1  1  0  0  0  0
 15  4  1  0  0  0  0
 16  4  1  0  0  0  0
 18  5  1  0  0  0  0
 19  6  1  0  0  0  0
 21  7  1  0  0  0  0
 23 33  1  0  0  0  0
 23 31  1  0  0  0  0
 24 23  1  0  0  0  0
 24 35  1  0  0  0  0
 25 36  1  6  0  0  0
 25 27  1  0  0  0  0
 25 24  1  0  0  0  0
 26 38  1  0  0  0  0
 26 39  1  0  0  0  0
 26 25  1  0  0  0  0
 27 28  1  0  0  0  0
 27 40  1  1  0  0  0
 28  8  1  0  0  0  0
 29 27  1  0  0  0  0
 30 29  2  0  0  0  0
 32 23  1  0  0  0  0
 34 24  1  0  0  0  0
 37 26  1  0  0  0  0
 41 28  1  0  0  0  0
 42 52  1  0  0  0  0
 42 29  1  0  0  0  0
 43 53  1  6  0  0  0
 43 48  1  0  0  0  0
 43 42  1  0  0  0  0
 44 55  1  0  0  0  0
 44 43  1  0  0  0  0
 45 44  1  0  0  0  0
 45 57  1  0  0  0  0
 46 45  1  0  0  0  0
 47 46  2  0  0  0  0
 48 51  1  0  0  0  0
 49 48  2  0  0  0  0
 50 46  1  0  0  0  0
 50 58  1  0  0  0  0
 54 44  1  0  0  0  0
 56 45  1  0  0  0  0
M  END
$$$$
