KIG.pdb
 OpenBabel07022418503D

 49 48  0  0  1  0  0  0  0  0999 V2000
    0.5130   -2.6450    4.1450 N   0  0  0  0  0  0  0  0  0  0  0  0
    0.6250   -2.5150    2.6340 C   0  0  1  0  0  0  0  0  0  0  0  0
    0.2160   -3.8520    2.1760 C   0  0  0  0  0  0  0  0  0  0  0  0
    0.1540   -4.2420    0.7740 C   0  0  0  0  0  0  0  0  0  0  0  0
   -0.8000   -3.5250   -0.1310 C   0  0  0  0  0  0  0  0  0  0  0  0
   -0.7280   -4.1210   -1.5570 C   0  0  0  0  0  0  0  0  0  0  0  0
    0.6350   -3.9580   -2.0260 N   0  0  0  0  0  0  0  0  0  0  0  0
   -0.1630   -1.3520    2.2300 C   0  0  0  0  0  0  0  0  0  0  0  0
   -1.2780   -1.1250    2.7510 O   0  0  0  0  0  0  0  0  0  0  0  0
   -0.5010   -2.8160    4.3020 H   0  0  0  0  0  0  0  0  0  0  0  0
    0.8590   -1.7540    4.5530 H   0  0  0  0  0  0  0  0  0  0  0  0
    1.7200   -2.3730    2.4900 H   0  0  0  0  0  0  0  0  0  0  0  0
   -0.7600   -4.1560    2.6590 H   0  0  0  0  0  0  0  0  0  0  0  0
    0.9420   -4.5830    2.6810 H   0  0  0  0  0  0  0  0  0  0  0  0
   -0.1960   -5.3290    0.7590 H   0  0  0  0  0  0  0  0  0  0  0  0
    1.1720   -4.3450    0.2830 H   0  0  0  0  0  0  0  0  0  0  0  0
   -0.4570   -2.4890   -0.2730 H   0  0  0  0  0  0  0  0  0  0  0  0
   -1.8480   -3.5960    0.1960 H   0  0  0  0  0  0  0  0  0  0  0  0
   -0.9050   -5.2090   -1.4710 H   0  0  0  0  0  0  0  0  0  0  0  0
   -1.4530   -3.5970   -2.1930 H   0  0  0  0  0  0  0  0  0  0  0  0
    0.9030   -2.9610   -2.1380 H   0  0  0  0  0  0  0  0  0  0  0  0
    0.8040   -4.5080   -2.8880 H   0  0  0  0  0  0  0  0  0  0  0  0
    0.8880    2.7750    3.7700 C   0  0  0  0  0  0  0  0  0  0  0  0
    0.1820    1.6980    3.0150 C   0  0  0  0  0  0  0  0  0  0  0  0
    0.2890    1.8810    1.5110 C   0  0  2  0  0  0  0  0  0  0  0  0
   -0.3220    3.1960    1.1500 C   0  0  0  0  0  0  0  0  0  0  0  0
   -0.3910    0.7140    0.8020 C   0  0  2  0  0  0  0  0  0  0  0  0
    0.3250   -0.4620    1.2500 N   0  0  0  0  0  0  0  0  0  0  0  0
   -0.4820    0.9040   -0.6300 C   0  0  0  0  0  0  0  0  0  0  0  0
   -1.1580    1.8840   -1.0540 O   0  0  0  0  0  0  0  0  0  0  0  0
    1.5300    3.4200    3.1250 H   0  0  0  0  0  0  0  0  0  0  0  0
    1.5490    2.3380    4.5400 H   0  0  0  0  0  0  0  0  0  0  0  0
    0.1290    3.4010    4.2940 H   0  0  0  0  0  0  0  0  0  0  0  0
    0.6980    0.7200    3.2390 H   0  0  0  0  0  0  0  0  0  0  0  0
   -0.8530    1.6010    3.3540 H   0  0  0  0  0  0  0  0  0  0  0  0
    1.3710    1.9260    1.2700 H   0  0  0  0  0  0  0  0  0  0  0  0
    0.0700    3.6200    0.2070 H   0  0  0  0  0  0  0  0  0  0  0  0
   -1.4240    3.0910    1.1520 H   0  0  0  0  0  0  0  0  0  0  0  0
   -0.0780    3.9230    1.9510 H   0  0  0  0  0  0  0  0  0  0  0  0
   -1.4010    0.6590    1.2510 H   0  0  0  0  0  0  0  0  0  0  0  0
    1.2580   -0.6080    0.7800 H   0  0  0  0  0  0  0  0  0  0  0  0
    0.1220    0.0900   -1.6280 N   0  0  0  0  0  0  0  0  0  0  0  0
   -0.0580    0.4040   -3.0490 C   0  0  0  0  0  0  0  0  0  0  0  0
    0.4600    1.7440   -3.3690 C   0  0  0  0  0  0  0  0  0  0  0  0
    0.3890    2.1820   -4.5400 O   0  0  0  0  0  0  0  0  0  0  0  0
    1.0300    2.5380   -2.3970 O   0  0  0  0  0  0  0  0  0  0  0  0
    0.6910   -0.7170   -1.3440 H   0  0  0  0  0  0  0  0  0  0  0  0
    0.3870   -0.3750   -3.6660 H   0  0  0  0  0  0  0  0  0  0  0  0
   -1.1770    0.4190   -3.1940 H   0  0  0  0  0  0  0  0  0  0  0  0
  1 10  1  0  0  0  0
  1 11  1  0  0  0  0
  2 12  1  6  0  0  0
  2  1  1  0  0  0  0
  3  2  1  0  0  0  0
  3 13  1  0  0  0  0
  3 14  1  0  0  0  0
  4  3  1  0  0  0  0
  5 18  1  0  0  0  0
  5  4  1  0  0  0  0
  6 19  1  0  0  0  0
  6  5  1  0  0  0  0
  7  6  1  0  0  0  0
  8  2  1  0  0  0  0
  8  9  2  0  0  0  0
 15  4  1  0  0  0  0
 16  4  1  0  0  0  0
 17  5  1  0  0  0  0
 20  6  1  0  0  0  0
 21  7  1  0  0  0  0
 22  7  1  0  0  0  0
 23 33  1  0  0  0  0
 23 32  1  0  0  0  0
 24 34  1  0  0  0  0
 24 35  1  0  0  0  0
 24 23  1  0  0  0  0
 25 36  1  6  0  0  0
 25 24  1  0  0  0  0
 26 38  1  0  0  0  0
 26 25  1  0  0  0  0
 26 39  1  0  0  0  0
 27 28  1  0  0  0  0
 27 40  1  1  0  0  0
 27 25  1  0  0  0  0
 28  8  1  0  0  0  0
 29 27  1  0  0  0  0
 30 29  2  0  0  0  0
 31 23  1  0  0  0  0
 37 26  1  0  0  0  0
 41 28  1  0  0  0  0
 42 47  1  0  0  0  0
 42 29  1  0  0  0  0
 43 42  1  0  0  0  0
 44 43  1  0  0  0  0
 44 46  1  0  0  0  0
 45 44  2  0  0  0  0
 48 43  1  0  0  0  0
 49 43  1  0  0  0  0
M  END
$$$$
