KIH.pdb
 OpenBabel07022418503D

 59 59  0  0  1  0  0  0  0  0999 V2000
    0.3150   -1.6000    2.9480 N   0  0  0  0  0  0  0  0  0  0  0  0
    0.3150   -0.1250    3.0070 C   0  0  1  0  0  0  0  0  0  0  0  0
    1.7890    0.2340    3.2390 C   0  0  0  0  0  0  0  0  0  0  0  0
    2.0040    1.7240    3.3160 C   0  0  0  0  0  0  0  0  0  0  0  0
    3.5050    1.9430    3.5450 C   0  0  0  0  0  0  0  0  0  0  0  0
    3.7720    3.4210    3.6020 C   0  0  0  0  0  0  0  0  0  0  0  0
    3.3580    4.0330    2.3270 N   0  0  0  0  0  0  0  0  0  0  0  0
   -0.1110    0.4420    1.7220 C   0  0  0  0  0  0  0  0  0  0  0  0
   -0.4130    1.6490    1.5550 O   0  0  0  0  0  0  0  0  0  0  0  0
   -0.5740   -1.9550    2.5550 H   0  0  0  0  0  0  0  0  0  0  0  0
    1.1700   -1.9470    2.4730 H   0  0  0  0  0  0  0  0  0  0  0  0
   -0.2490    0.2010    3.8880 H   0  0  0  0  0  0  0  0  0  0  0  0
    2.0410   -0.2510    4.2290 H   0  0  0  0  0  0  0  0  0  0  0  0
    2.4260   -0.2580    2.4790 H   0  0  0  0  0  0  0  0  0  0  0  0
    1.4620    2.1400    4.1790 H   0  0  0  0  0  0  0  0  0  0  0  0
    1.6840    2.2270    2.3910 H   0  0  0  0  0  0  0  0  0  0  0  0
    3.7910    1.5260    4.5310 H   0  0  0  0  0  0  0  0  0  0  0  0
    4.1050    1.5120    2.7320 H   0  0  0  0  0  0  0  0  0  0  0  0
    3.1760    3.8470    4.4260 H   0  0  0  0  0  0  0  0  0  0  0  0
    4.8470    3.6120    3.7950 H   0  0  0  0  0  0  0  0  0  0  0  0
    3.0070    5.0070    2.4980 H   0  0  0  0  0  0  0  0  0  0  0  0
    4.1910    4.1200    1.6960 H   0  0  0  0  0  0  0  0  0  0  0  0
    1.2340    1.0300   -3.9070 C   0  0  0  0  0  0  0  0  0  0  0  0
    0.0650    0.6850   -3.0000 C   0  0  0  0  0  0  0  0  0  0  0  0
    0.5050    0.1360   -1.6850 C   0  0  2  0  0  0  0  0  0  0  0  0
    1.2900   -1.1320   -1.7560 C   0  0  0  0  0  0  0  0  0  0  0  0
   -0.6170    0.1240   -0.6860 C   0  0  2  0  0  0  0  0  0  0  0  0
   -0.1890   -0.4180    0.5940 N   0  0  0  0  0  0  0  0  0  0  0  0
   -1.8030   -0.5970   -1.1810 C   0  0  0  0  0  0  0  0  0  0  0  0
   -2.4100   -0.2630   -2.2470 O   0  0  0  0  0  0  0  0  0  0  0  0
    1.8060    0.1540   -4.2440 H   0  0  0  0  0  0  0  0  0  0  0  0
    1.8260    1.8190   -3.4250 H   0  0  0  0  0  0  0  0  0  0  0  0
    0.7920    1.4830   -4.8340 H   0  0  0  0  0  0  0  0  0  0  0  0
   -0.5910   -0.0440   -3.5700 H   0  0  0  0  0  0  0  0  0  0  0  0
   -0.5380    1.5990   -2.8780 H   0  0  0  0  0  0  0  0  0  0  0  0
    1.2780    0.9130   -1.3100 H   0  0  0  0  0  0  0  0  0  0  0  0
    2.1430   -1.1130   -1.0310 H   0  0  0  0  0  0  0  0  0  0  0  0
    1.7390   -1.3310   -2.7460 H   0  0  0  0  0  0  0  0  0  0  0  0
    0.6370   -1.9800   -1.4540 H   0  0  0  0  0  0  0  0  0  0  0  0
   -0.9090    1.2100   -0.5550 H   0  0  0  0  0  0  0  0  0  0  0  0
    0.0630   -1.4280    0.6550 H   0  0  0  0  0  0  0  0  0  0  0  0
   -2.3040   -1.7230   -0.4440 N   0  0  0  0  0  0  0  0  0  0  0  0
   -3.4720   -2.4200   -0.9460 C   0  0  1  0  0  0  0  0  0  0  0  0
   -3.0680   -3.7860   -1.4980 C   0  0  0  0  0  0  0  0  0  0  0  0
   -2.4430   -4.6370   -0.4840 C   0  0  0  0  0  0  0  0  0  0  0  0
   -1.9980   -5.9200   -0.7640 C   0  0  0  0  0  0  0  0  0  0  0  0
   -1.4660   -6.4730    0.3330 N   0  0  0  0  0  0  0  0  0  0  0  0
   -1.5770   -5.5490    1.2950 C   0  0  0  0  0  0  0  0  0  0  0  0
   -2.1690   -4.4300    0.8100 N   0  0  0  0  0  0  0  0  0  0  0  0
   -4.5410   -2.5610    0.0650 C   0  0  0  0  0  0  0  0  0  0  0  0
   -4.3570   -2.0850    1.2130 O   0  0  0  0  0  0  0  0  0  0  0  0
   -5.7450   -3.2080   -0.2220 O   0  0  0  0  0  0  0  0  0  0  0  0
   -1.8280   -2.0280    0.4440 H   0  0  0  0  0  0  0  0  0  0  0  0
   -3.8670   -1.8480   -1.8020 H   0  0  0  0  0  0  0  0  0  0  0  0
   -2.4780   -3.6200   -2.4000 H   0  0  0  0  0  0  0  0  0  0  0  0
   -4.0340   -4.2560   -1.8260 H   0  0  0  0  0  0  0  0  0  0  0  0
   -2.0400   -6.4570   -1.7090 H   0  0  0  0  0  0  0  0  0  0  0  0
   -1.0470   -7.4160    0.4580 H   0  0  0  0  0  0  0  0  0  0  0  0
   -1.2300   -5.6960    2.3230 H   0  0  0  0  0  0  0  0  0  0  0  0
  1  2  1  0  0  0  0
  2  3  1  0  0  0  0
  2 12  1  1  0  0  0
  3  4  1  0  0  0  0
  3 13  1  0  0  0  0
  4  5  1  0  0  0  0
  4 15  1  0  0  0  0
  5  6  1  0  0  0  0
  5 17  1  0  0  0  0
  6 20  1  0  0  0  0
  6 19  1  0  0  0  0
  7 21  1  0  0  0  0
  7  6  1  0  0  0  0
  8  2  1  0  0  0  0
  9  8  2  0  0  0  0
 10  1  1  0  0  0  0
 11  1  1  0  0  0  0
 14  3  1  0  0  0  0
 16  4  1  0  0  0  0
 18  5  1  0  0  0  0
 22  7  1  0  0  0  0
 23 32  1  0  0  0  0
 23 24  1  0  0  0  0
 24 35  1  0  0  0  0
 24 25  1  0  0  0  0
 25 36  1  1  0  0  0
 25 27  1  0  0  0  0
 26 25  1  0  0  0  0
 26 39  1  0  0  0  0
 26 37  1  0  0  0  0
 27 40  1  1  0  0  0
 27 28  1  0  0  0  0
 28 41  1  0  0  0  0
 28  8  1  0  0  0  0
 29 27  1  0  0  0  0
 29 42  1  0  0  0  0
 30 29  2  0  0  0  0
 31 23  1  0  0  0  0
 33 23  1  0  0  0  0
 34 24  1  0  0  0  0
 38 26  1  0  0  0  0
 42 53  1  0  0  0  0
 43 54  1  6  0  0  0
 43 42  1  0  0  0  0
 43 50  1  0  0  0  0
 44 43  1  0  0  0  0
 44 45  1  0  0  0  0
 45 49  1  0  0  0  0
 46 45  2  0  0  0  0
 46 47  1  0  0  0  0
 47 58  1  0  0  0  0
 47 48  1  0  0  0  0
 48 59  1  0  0  0  0
 49 48  2  0  0  0  0
 50 51  1  0  0  0  0
 52 50  2  0  0  0  0
 55 44  1  0  0  0  0
 56 44  1  0  0  0  0
 57 46  1  0  0  0  0
M  END
$$$$
