KII.pdb
 OpenBabel07022418503D

 61 60  0  0  1  0  0  0  0  0999 V2000
    2.3320    1.4270    4.7760 N   0  0  0  0  0  0  0  0  0  0  0  0
    1.8720    1.5070    3.3680 C   0  0  1  0  0  0  0  0  0  0  0  0
    3.0880    1.2340    2.5410 C   0  0  0  0  0  0  0  0  0  0  0  0
    2.8270    1.2620    1.0550 C   0  0  0  0  0  0  0  0  0  0  0  0
    4.1280    0.9820    0.2930 C   0  0  0  0  0  0  0  0  0  0  0  0
    3.9050    0.9920   -1.1900 C   0  0  0  0  0  0  0  0  0  0  0  0
    5.1790    0.7190   -1.8420 N   0  0  0  0  0  0  0  0  0  0  0  0
    0.7850    0.5140    3.1510 C   0  0  0  0  0  0  0  0  0  0  0  0
    0.6590   -0.4230    3.9590 O   0  0  0  0  0  0  0  0  0  0  0  0
    2.6340    0.4480    4.9850 H   0  0  0  0  0  0  0  0  0  0  0  0
    3.2040    2.0020    4.8030 H   0  0  0  0  0  0  0  0  0  0  0  0
    1.5570    2.5520    3.2100 H   0  0  0  0  0  0  0  0  0  0  0  0
    3.8390    2.0550    2.7310 H   0  0  0  0  0  0  0  0  0  0  0  0
    3.6220    0.2970    2.8240 H   0  0  0  0  0  0  0  0  0  0  0  0
    2.0910    0.4840    0.7410 H   0  0  0  0  0  0  0  0  0  0  0  0
    2.4220    2.2410    0.7530 H   0  0  0  0  0  0  0  0  0  0  0  0
    4.4750   -0.0290    0.5700 H   0  0  0  0  0  0  0  0  0  0  0  0
    4.9090    1.7270    0.5820 H   0  0  0  0  0  0  0  0  0  0  0  0
    3.4500    1.9300   -1.5410 H   0  0  0  0  0  0  0  0  0  0  0  0
    3.1820    0.1710   -1.4050 H   0  0  0  0  0  0  0  0  0  0  0  0
    5.9260    1.3590   -1.5190 H   0  0  0  0  0  0  0  0  0  0  0  0
    5.4330   -0.2800   -1.6500 H   0  0  0  0  0  0  0  0  0  0  0  0
   -3.2240    1.3870    0.1460 C   0  0  0  0  0  0  0  0  0  0  0  0
   -2.9400    1.4830    1.6220 C   0  0  0  0  0  0  0  0  0  0  0  0
   -2.4970    0.2190    2.2700 C   0  0  2  0  0  0  0  0  0  0  0  0
   -2.2720    0.5580    3.7610 C   0  0  0  0  0  0  0  0  0  0  0  0
   -1.1820   -0.3430    1.8040 C   0  0  2  0  0  0  0  0  0  0  0  0
   -0.1100    0.6250    2.0380 N   0  0  0  0  0  0  0  0  0  0  0  0
   -1.1410   -0.8670    0.4500 C   0  0  0  0  0  0  0  0  0  0  0  0
   -0.2470   -0.4140   -0.3420 O   0  0  0  0  0  0  0  0  0  0  0  0
   -3.6330    0.3950   -0.0780 H   0  0  0  0  0  0  0  0  0  0  0  0
   -4.0520    2.1090   -0.1060 H   0  0  0  0  0  0  0  0  0  0  0  0
   -2.3310    1.5840   -0.4760 H   0  0  0  0  0  0  0  0  0  0  0  0
   -2.3090    2.3610    1.8880 H   0  0  0  0  0  0  0  0  0  0  0  0
   -3.9350    1.7340    2.1070 H   0  0  0  0  0  0  0  0  0  0  0  0
   -3.2850   -0.5220    2.2520 H   0  0  0  0  0  0  0  0  0  0  0  0
   -2.1540   -0.3550    4.3640 H   0  0  0  0  0  0  0  0  0  0  0  0
   -3.1950    1.0720    4.1570 H   0  0  0  0  0  0  0  0  0  0  0  0
   -1.4700    1.3010    3.8600 H   0  0  0  0  0  0  0  0  0  0  0  0
   -0.9810   -1.1850    2.5180 H   0  0  0  0  0  0  0  0  0  0  0  0
    0.0520    1.4440    1.4140 H   0  0  0  0  0  0  0  0  0  0  0  0
   -0.5280   -5.6700   -2.6940 C   0  0  0  0  0  0  0  0  0  0  0  0
   -1.2010   -4.3090   -2.8370 C   0  0  0  0  0  0  0  0  0  0  0  0
   -1.4050   -3.7250   -1.4600 C   0  0  2  0  0  0  0  0  0  0  0  0
   -2.2660   -4.5780   -0.5940 C   0  0  0  0  0  0  0  0  0  0  0  0
   -1.8460   -2.2830   -1.5100 C   0  0  2  0  0  0  0  0  0  0  0  0
   -1.9920   -1.8430   -0.1090 N   0  0  0  0  0  0  0  0  0  0  0  0
   -3.1430   -2.1960   -2.1980 C   0  0  0  0  0  0  0  0  0  0  0  0
   -3.2750   -2.4720   -3.4170 O   0  0  0  0  0  0  0  0  0  0  0  0
   -4.3190   -1.8030   -1.5530 O   0  0  0  0  0  0  0  0  0  0  0  0
    0.5260   -5.5950   -2.3880 H   0  0  0  0  0  0  0  0  0  0  0  0
   -1.1160   -6.3560   -2.0580 H   0  0  0  0  0  0  0  0  0  0  0  0
   -0.5280   -6.0950   -3.7400 H   0  0  0  0  0  0  0  0  0  0  0  0
   -0.5240   -3.6660   -3.4300 H   0  0  0  0  0  0  0  0  0  0  0  0
   -2.1420   -4.4660   -3.3930 H   0  0  0  0  0  0  0  0  0  0  0  0
   -0.3760   -3.6960   -1.0000 H   0  0  0  0  0  0  0  0  0  0  0  0
   -2.7060   -5.3690   -1.2710 H   0  0  0  0  0  0  0  0  0  0  0  0
   -1.6250   -5.1540    0.1040 H   0  0  0  0  0  0  0  0  0  0  0  0
   -3.1090   -4.0770   -0.0980 H   0  0  0  0  0  0  0  0  0  0  0  0
   -1.0450   -1.6750   -1.9720 H   0  0  0  0  0  0  0  0  0  0  0  0
   -2.7240   -2.2230    0.5260 H   0  0  0  0  0  0  0  0  0  0  0  0
  1 11  1  0  0  0  0
  1 10  1  0  0  0  0
  2 12  1  6  0  0  0
  2  1  1  0  0  0  0
  3 13  1  0  0  0  0
  3 14  1  0  0  0  0
  3  2  1  0  0  0  0
  4  3  1  0  0  0  0
  5 17  1  0  0  0  0
  5 18  1  0  0  0  0
  5  4  1  0  0  0  0
  6  5  1  0  0  0  0
  7 22  1  0  0  0  0
  7 21  1  0  0  0  0
  7  6  1  0  0  0  0
  8  2  1  0  0  0  0
  8  9  2  0  0  0  0
 15  4  1  0  0  0  0
 16  4  1  0  0  0  0
 19  6  1  0  0  0  0
 20  6  1  0  0  0  0
 23 24  1  0  0  0  0
 24 34  1  0  0  0  0
 24 35  1  0  0  0  0
 24 25  1  0  0  0  0
 25 36  1  6  0  0  0
 25 26  1  0  0  0  0
 26 39  1  0  0  0  0
 26 38  1  0  0  0  0
 26 37  1  0  0  0  0
 27 28  1  0  0  0  0
 27 25  1  0  0  0  0
 27 40  1  1  0  0  0
 28  8  1  0  0  0  0
 29 27  1  0  0  0  0
 30 29  2  0  0  0  0
 31 23  1  0  0  0  0
 32 23  1  0  0  0  0
 33 23  1  0  0  0  0
 41 28  1  0  0  0  0
 42 51  1  0  0  0  0
 42 52  1  0  0  0  0
 43 42  1  0  0  0  0
 43 44  1  0  0  0  0
 44 56  1  1  0  0  0
 44 45  1  0  0  0  0
 45 59  1  0  0  0  0
 45 58  1  0  0  0  0
 46 60  1  6  0  0  0
 46 44  1  0  0  0  0
 46 47  1  0  0  0  0
 47 29  1  0  0  0  0
 47 61  1  0  0  0  0
 48 50  1  0  0  0  0
 48 46  1  0  0  0  0
 49 48  2  0  0  0  0
 53 42  1  0  0  0  0
 54 43  1  0  0  0  0
 55 43  1  0  0  0  0
 57 45  1  0  0  0  0
M  END
$$$$
