KIK.pdb
 OpenBabel07022418503D

 63 62  0  0  1  0  0  0  0  0999 V2000
   -0.9110   -1.2450    4.0710 N   0  0  0  0  0  0  0  0  0  0  0  0
    0.1960   -0.2260    3.8560 C   0  0  1  0  0  0  0  0  0  0  0  0
    1.3610   -0.6810    4.6320 C   0  0  0  0  0  0  0  0  0  0  0  0
    2.6340    0.0580    4.6670 C   0  0  0  0  0  0  0  0  0  0  0  0
    3.4240    0.1950    3.4190 C   0  0  0  0  0  0  0  0  0  0  0  0
    4.7010    0.9870    3.8180 C   0  0  0  0  0  0  0  0  0  0  0  0
    5.5230    1.1530    2.6290 N   0  0  0  0  0  0  0  0  0  0  0  0
    0.3130   -0.0020    2.4240 C   0  0  0  0  0  0  0  0  0  0  0  0
    0.6270    1.1080    1.9000 O   0  0  0  0  0  0  0  0  0  0  0  0
   -1.0730   -1.1970    5.1180 H   0  0  0  0  0  0  0  0  0  0  0  0
   -0.4980   -2.1960    3.9150 H   0  0  0  0  0  0  0  0  0  0  0  0
   -0.2230    0.6890    4.3340 H   0  0  0  0  0  0  0  0  0  0  0  0
    1.0440   -0.8450    5.7150 H   0  0  0  0  0  0  0  0  0  0  0  0
    1.6200   -1.7090    4.2170 H   0  0  0  0  0  0  0  0  0  0  0  0
    2.4910    1.0640    5.1680 H   0  0  0  0  0  0  0  0  0  0  0  0
    3.3080   -0.5320    5.3850 H   0  0  0  0  0  0  0  0  0  0  0  0
    3.0060    0.7350    2.5900 H   0  0  0  0  0  0  0  0  0  0  0  0
    3.8310   -0.8100    3.1490 H   0  0  0  0  0  0  0  0  0  0  0  0
    5.2890    0.3760    4.5370 H   0  0  0  0  0  0  0  0  0  0  0  0
    4.3720    1.9540    4.2150 H   0  0  0  0  0  0  0  0  0  0  0  0
    5.3470    0.3630    1.9460 H   0  0  0  0  0  0  0  0  0  0  0  0
    5.4050    2.0640    2.1690 H   0  0  0  0  0  0  0  0  0  0  0  0
    1.4340   -3.7060    0.8490 C   0  0  0  0  0  0  0  0  0  0  0  0
    1.1950   -3.1140   -0.4800 C   0  0  0  0  0  0  0  0  0  0  0  0
    1.2840   -1.6280   -0.5890 C   0  0  2  0  0  0  0  0  0  0  0  0
    2.6620   -1.1010   -0.1950 C   0  0  0  0  0  0  0  0  0  0  0  0
    0.1820   -0.8550    0.0650 C   0  0  2  0  0  0  0  0  0  0  0  0
    0.0690   -1.0720    1.4740 N   0  0  0  0  0  0  0  0  0  0  0  0
   -1.0990   -1.0820   -0.6550 C   0  0  0  0  0  0  0  0  0  0  0  0
   -2.1480   -1.4550   -0.0410 O   0  0  0  0  0  0  0  0  0  0  0  0
    1.9290   -3.0510    1.5910 H   0  0  0  0  0  0  0  0  0  0  0  0
    0.5180   -4.1830    1.3080 H   0  0  0  0  0  0  0  0  0  0  0  0
    2.1350   -4.5830    0.7380 H   0  0  0  0  0  0  0  0  0  0  0  0
    0.2230   -3.4620   -0.8650 H   0  0  0  0  0  0  0  0  0  0  0  0
    1.9550   -3.5170   -1.2080 H   0  0  0  0  0  0  0  0  0  0  0  0
    1.2180   -1.3900   -1.6830 H   0  0  0  0  0  0  0  0  0  0  0  0
    3.3630   -1.0980   -1.0560 H   0  0  0  0  0  0  0  0  0  0  0  0
    3.1100   -1.6680    0.6180 H   0  0  0  0  0  0  0  0  0  0  0  0
    2.4950   -0.0170    0.0580 H   0  0  0  0  0  0  0  0  0  0  0  0
    0.4380    0.2210   -0.1000 H   0  0  0  0  0  0  0  0  0  0  0  0
   -0.1900   -1.9820    1.9110 H   0  0  0  0  0  0  0  0  0  0  0  0
   -1.2330   -0.9010   -2.0530 N   0  0  0  0  0  0  0  0  0  0  0  0
   -2.4750   -1.1220   -2.7600 C   0  0  1  0  0  0  0  0  0  0  0  0
   -2.8920    0.0660   -3.5710 C   0  0  0  0  0  0  0  0  0  0  0  0
   -3.1090    1.3110   -2.7770 C   0  0  0  0  0  0  0  0  0  0  0  0
   -4.1560    1.2250   -1.7280 C   0  0  0  0  0  0  0  0  0  0  0  0
   -5.5320    0.8870   -2.3140 C   0  0  0  0  0  0  0  0  0  0  0  0
   -6.5310    0.8090   -1.2810 N   0  0  0  0  0  0  0  0  0  0  0  0
   -2.3170   -2.2710   -3.6860 C   0  0  0  0  0  0  0  0  0  0  0  0
   -3.2510   -2.6770   -4.4260 O   0  0  0  0  0  0  0  0  0  0  0  0
   -1.0910   -2.9140   -3.7310 O   0  0  0  0  0  0  0  0  0  0  0  0
   -0.3940   -0.5930   -2.5860 H   0  0  0  0  0  0  0  0  0  0  0  0
   -3.2220   -1.4310   -2.0050 H   0  0  0  0  0  0  0  0  0  0  0  0
   -3.8180   -0.1520   -4.1400 H   0  0  0  0  0  0  0  0  0  0  0  0
   -2.1000    0.2520   -4.3260 H   0  0  0  0  0  0  0  0  0  0  0  0
   -2.1500    1.5740   -2.2570 H   0  0  0  0  0  0  0  0  0  0  0  0
   -3.3350    2.1750   -3.4330 H   0  0  0  0  0  0  0  0  0  0  0  0
   -3.9140    0.5850   -0.8770 H   0  0  0  0  0  0  0  0  0  0  0  0
   -4.2810    2.2600   -1.3050 H   0  0  0  0  0  0  0  0  0  0  0  0
   -5.4960   -0.0420   -2.9070 H   0  0  0  0  0  0  0  0  0  0  0  0
   -5.8480    1.6910   -3.0120 H   0  0  0  0  0  0  0  0  0  0  0  0
   -7.2530    0.0700   -1.4760 H   0  0  0  0  0  0  0  0  0  0  0  0
   -6.1410    0.5870   -0.3440 H   0  0  0  0  0  0  0  0  0  0  0  0
  1 10  1  0  0  0  0
  2  1  1  0  0  0  0
  2 12  1  1  0  0  0
  2  3  1  0  0  0  0
  3  4  1  0  0  0  0
  3 13  1  0  0  0  0
  4 15  1  0  0  0  0
  4 16  1  0  0  0  0
  5  6  1  0  0  0  0
  5  4  1  0  0  0  0
  6 20  1  0  0  0  0
  6 19  1  0  0  0  0
  7  6  1  0  0  0  0
  8  2  1  0  0  0  0
  9  8  2  0  0  0  0
 11  1  1  0  0  0  0
 14  3  1  0  0  0  0
 17  5  1  0  0  0  0
 18  5  1  0  0  0  0
 21  7  1  0  0  0  0
 22  7  1  0  0  0  0
 23 32  1  0  0  0  0
 23 31  1  0  0  0  0
 24 23  1  0  0  0  0
 25 36  1  6  0  0  0
 25 24  1  0  0  0  0
 25 26  1  0  0  0  0
 25 27  1  0  0  0  0
 26 39  1  0  0  0  0
 26 38  1  0  0  0  0
 27 40  1  6  0  0  0
 27 28  1  0  0  0  0
 28 41  1  0  0  0  0
 28  8  1  0  0  0  0
 29 30  2  0  0  0  0
 29 27  1  0  0  0  0
 33 23  1  0  0  0  0
 34 24  1  0  0  0  0
 35 24  1  0  0  0  0
 37 26  1  0  0  0  0
 42 29  1  0  0  0  0
 43 42  1  0  0  0  0
 43 53  1  1  0  0  0
 44 45  1  0  0  0  0
 44 43  1  0  0  0  0
 45 56  1  0  0  0  0
 45 46  1  0  0  0  0
 46 59  1  0  0  0  0
 46 58  1  0  0  0  0
 47 46  1  0  0  0  0
 47 48  1  0  0  0  0
 48 63  1  0  0  0  0
 49 43  1  0  0  0  0
 50 49  2  0  0  0  0
 51 49  1  0  0  0  0
 52 42  1  0  0  0  0
 54 44  1  0  0  0  0
 55 44  1  0  0  0  0
 57 45  1  0  0  0  0
 60 47  1  0  0  0  0
 61 47  1  0  0  0  0
 62 48  1  0  0  0  0
M  END
$$$$
