KIL.pdb
 OpenBabel07022418503D

 61 60  0  0  1  0  0  0  0  0999 V2000
    0.0620    0.1630    5.1480 N   0  0  0  0  0  0  0  0  0  0  0  0
    0.6070   -0.0310    3.7680 C   0  0  1  0  0  0  0  0  0  0  0  0
    1.2370   -1.3660    3.7780 C   0  0  0  0  0  0  0  0  0  0  0  0
    1.9130   -1.8260    2.5290 C   0  0  0  0  0  0  0  0  0  0  0  0
    3.0380   -0.9040    2.0910 C   0  0  0  0  0  0  0  0  0  0  0  0
    4.0820   -0.8500    3.1760 C   0  0  0  0  0  0  0  0  0  0  0  0
    5.1380    0.0510    2.6740 N   0  0  0  0  0  0  0  0  0  0  0  0
   -0.5030    0.2400    2.8810 C   0  0  0  0  0  0  0  0  0  0  0  0
   -1.6580    0.4680    3.4220 O   0  0  0  0  0  0  0  0  0  0  0  0
   -0.4670   -0.7310    5.3280 H   0  0  0  0  0  0  0  0  0  0  0  0
   -0.6320    0.9410    5.1390 H   0  0  0  0  0  0  0  0  0  0  0  0
    1.3890    0.7500    3.6570 H   0  0  0  0  0  0  0  0  0  0  0  0
    2.0220   -1.3470    4.5950 H   0  0  0  0  0  0  0  0  0  0  0  0
    0.5260   -2.1550    4.1560 H   0  0  0  0  0  0  0  0  0  0  0  0
    1.2200   -1.9500    1.7080 H   0  0  0  0  0  0  0  0  0  0  0  0
    2.4500   -2.8170    2.7470 H   0  0  0  0  0  0  0  0  0  0  0  0
    2.5720    0.1100    1.9400 H   0  0  0  0  0  0  0  0  0  0  0  0
    3.4750   -1.2620    1.1510 H   0  0  0  0  0  0  0  0  0  0  0  0
    4.4540   -1.8620    3.3520 H   0  0  0  0  0  0  0  0  0  0  0  0
    3.6880   -0.3660    4.0940 H   0  0  0  0  0  0  0  0  0  0  0  0
    5.2890   -0.1450    1.6480 H   0  0  0  0  0  0  0  0  0  0  0  0
    4.8130    1.0410    2.8190 H   0  0  0  0  0  0  0  0  0  0  0  0
    0.2870    2.9500    0.8710 C   0  0  0  0  0  0  0  0  0  0  0  0
   -1.0730    3.0350    0.2520 C   0  0  0  0  0  0  0  0  0  0  0  0
   -1.5110    1.7290   -0.3050 C   0  0  2  0  0  0  0  0  0  0  0  0
   -2.8950    1.9720   -0.9420 C   0  0  0  0  0  0  0  0  0  0  0  0
   -1.7040    0.6150    0.7100 C   0  0  2  0  0  0  0  0  0  0  0  0
   -0.4970    0.3000    1.4430 N   0  0  0  0  0  0  0  0  0  0  0  0
   -2.1470   -0.5640   -0.0800 C   0  0  0  0  0  0  0  0  0  0  0  0
   -3.2120   -0.4500   -0.7430 O   0  0  0  0  0  0  0  0  0  0  0  0
    0.8190    3.9590    0.7330 H   0  0  0  0  0  0  0  0  0  0  0  0
    0.9430    2.2580    0.2960 H   0  0  0  0  0  0  0  0  0  0  0  0
    0.3070    2.7610    1.9430 H   0  0  0  0  0  0  0  0  0  0  0  0
   -0.9790    3.7690   -0.6030 H   0  0  0  0  0  0  0  0  0  0  0  0
   -1.8240    3.4980    0.9290 H   0  0  0  0  0  0  0  0  0  0  0  0
   -0.8650    1.3550   -1.1100 H   0  0  0  0  0  0  0  0  0  0  0  0
   -2.9790    1.4960   -1.9270 H   0  0  0  0  0  0  0  0  0  0  0  0
   -3.0120    3.0780   -1.1460 H   0  0  0  0  0  0  0  0  0  0  0  0
   -3.6900    1.7390   -0.2230 H   0  0  0  0  0  0  0  0  0  0  0  0
   -2.4850    0.8950    1.4620 H   0  0  0  0  0  0  0  0  0  0  0  0
    0.4060    0.1040    0.9780 H   0  0  0  0  0  0  0  0  0  0  0  0
   -1.9420   -1.8660   -3.7490 C   0  0  0  0  0  0  0  0  0  0  0  0
   -0.6860   -2.3210   -3.0370 C   0  0  0  0  0  0  0  0  0  0  0  0
    0.2080   -2.9720   -4.0770 C   0  0  0  0  0  0  0  0  0  0  0  0
   -1.0280   -3.3720   -2.0160 C   0  0  0  0  0  0  0  0  0  0  0  0
   -1.9810   -2.9150   -0.9540 C   0  0  2  0  0  0  0  0  0  0  0  0
   -1.5080   -1.8040   -0.1720 N   0  0  0  0  0  0  0  0  0  0  0  0
   -2.3430   -4.0830   -0.1280 C   0  0  0  0  0  0  0  0  0  0  0  0
   -2.2200   -4.0270    1.1160 O   0  0  0  0  0  0  0  0  0  0  0  0
   -2.8180   -5.2460   -0.6980 O   0  0  0  0  0  0  0  0  0  0  0  0
   -2.7390   -2.6450   -3.6660 H   0  0  0  0  0  0  0  0  0  0  0  0
   -1.7720   -1.7380   -4.8400 H   0  0  0  0  0  0  0  0  0  0  0  0
   -2.3180   -0.9360   -3.2970 H   0  0  0  0  0  0  0  0  0  0  0  0
   -0.2310   -1.4170   -2.5890 H   0  0  0  0  0  0  0  0  0  0  0  0
    0.8090   -2.2100   -4.6340 H   0  0  0  0  0  0  0  0  0  0  0  0
   -0.3910   -3.5130   -4.8410 H   0  0  0  0  0  0  0  0  0  0  0  0
    0.8570   -3.7210   -3.5840 H   0  0  0  0  0  0  0  0  0  0  0  0
   -0.1310   -3.8840   -1.6120 H   0  0  0  0  0  0  0  0  0  0  0  0
   -1.5750   -4.1810   -2.5870 H   0  0  0  0  0  0  0  0  0  0  0  0
   -2.9110   -2.5930   -1.4680 H   0  0  0  0  0  0  0  0  0  0  0  0
   -0.6280   -1.9430    0.3570 H   0  0  0  0  0  0  0  0  0  0  0  0
  1 10  1  0  0  0  0
  2 12  1  6  0  0  0
  2  3  1  0  0  0  0
  2  1  1  0  0  0  0
  3 14  1  0  0  0  0
  3 13  1  0  0  0  0
  4 16  1  0  0  0  0
  4  3  1  0  0  0  0
  5  4  1  0  0  0  0
  5  6  1  0  0  0  0
  6 19  1  0  0  0  0
  6 20  1  0  0  0  0
  7 22  1  0  0  0  0
  7  6  1  0  0  0  0
  8  9  2  0  0  0  0
  8  2  1  0  0  0  0
 11  1  1  0  0  0  0
 15  4  1  0  0  0  0
 17  5  1  0  0  0  0
 18  5  1  0  0  0  0
 21  7  1  0  0  0  0
 23 33  1  0  0  0  0
 24 23  1  0  0  0  0
 24 35  1  0  0  0  0
 25 36  1  6  0  0  0
 25 24  1  0  0  0  0
 25 27  1  0  0  0  0
 26 25  1  0  0  0  0
 26 39  1  0  0  0  0
 27 28  1  0  0  0  0
 27 40  1  1  0  0  0
 28  8  1  0  0  0  0
 29 27  1  0  0  0  0
 30 29  2  0  0  0  0
 31 23  1  0  0  0  0
 32 23  1  0  0  0  0
 34 24  1  0  0  0  0
 37 26  1  0  0  0  0
 38 26  1  0  0  0  0
 41 28  1  0  0  0  0
 42 51  1  0  0  0  0
 42 53  1  0  0  0  0
 42 43  1  0  0  0  0
 43 54  1  0  0  0  0
 43 45  1  0  0  0  0
 44 57  1  0  0  0  0
 44 43  1  0  0  0  0
 45 58  1  0  0  0  0
 45 46  1  0  0  0  0
 46 60  1  6  0  0  0
 46 47  1  0  0  0  0
 46 48  1  0  0  0  0
 47 29  1  0  0  0  0
 47 61  1  0  0  0  0
 48 49  1  0  0  0  0
 50 48  2  0  0  0  0
 52 42  1  0  0  0  0
 55 44  1  0  0  0  0
 56 44  1  0  0  0  0
 59 45  1  0  0  0  0
M  END
$$$$
