KIM.pdb
 OpenBabel07022418503D

 59 58  0  0  1  0  0  0  0  0999 V2000
    1.7210   -0.4070    3.3460 N   0  0  0  0  0  0  0  0  0  0  0  0
    2.0310    0.2720    2.0800 C   0  0  1  0  0  0  0  0  0  0  0  0
    2.9900   -0.6290    1.3540 C   0  0  0  0  0  0  0  0  0  0  0  0
    3.4350   -0.1170    0.0180 C   0  0  0  0  0  0  0  0  0  0  0  0
    4.1370    1.2080    0.1200 C   0  0  0  0  0  0  0  0  0  0  0  0
    4.5630    1.6670   -1.2650 C   0  0  0  0  0  0  0  0  0  0  0  0
    5.2320    2.9280   -1.1640 N   0  0  0  0  0  0  0  0  0  0  0  0
    0.7880    0.4150    1.2520 C   0  0  0  0  0  0  0  0  0  0  0  0
    0.8890    1.0520    0.2100 O   0  0  0  0  0  0  0  0  0  0  0  0
    1.6050   -1.4060    3.1270 H   0  0  0  0  0  0  0  0  0  0  0  0
    2.5470   -0.2700    3.9680 H   0  0  0  0  0  0  0  0  0  0  0  0
    2.5300    1.2270    2.2820 H   0  0  0  0  0  0  0  0  0  0  0  0
    3.9130   -0.7480    1.9720 H   0  0  0  0  0  0  0  0  0  0  0  0
    2.5240   -1.6200    1.2580 H   0  0  0  0  0  0  0  0  0  0  0  0
    4.2150   -0.8470   -0.3370 H   0  0  0  0  0  0  0  0  0  0  0  0
    2.6380   -0.1460   -0.7600 H   0  0  0  0  0  0  0  0  0  0  0  0
    5.0280    1.0470    0.7680 H   0  0  0  0  0  0  0  0  0  0  0  0
    3.4590    1.9640    0.5630 H   0  0  0  0  0  0  0  0  0  0  0  0
    3.6370    1.7200   -1.8740 H   0  0  0  0  0  0  0  0  0  0  0  0
    5.1990    0.8590   -1.6790 H   0  0  0  0  0  0  0  0  0  0  0  0
    4.8240    3.5880   -1.8730 H   0  0  0  0  0  0  0  0  0  0  0  0
    5.1000    3.3210   -0.2150 H   0  0  0  0  0  0  0  0  0  0  0  0
   -1.7540    3.2080   -0.8240 C   0  0  0  0  0  0  0  0  0  0  0  0
   -1.7960    2.2880    0.3740 C   0  0  0  0  0  0  0  0  0  0  0  0
   -1.9150    0.8410   -0.0300 C   0  0  2  0  0  0  0  0  0  0  0  0
   -3.2020    0.6680   -0.7950 C   0  0  0  0  0  0  0  0  0  0  0  0
   -1.7070   -0.1430    1.0760 C   0  0  2  0  0  0  0  0  0  0  0  0
   -0.4130   -0.1580    1.6660 N   0  0  0  0  0  0  0  0  0  0  0  0
   -2.3480   -1.4400    0.9020 C   0  0  0  0  0  0  0  0  0  0  0  0
   -3.4890   -1.6040    0.3840 O   0  0  0  0  0  0  0  0  0  0  0  0
   -1.3610    2.6560   -1.7180 H   0  0  0  0  0  0  0  0  0  0  0  0
   -1.0550    4.0610   -0.6730 H   0  0  0  0  0  0  0  0  0  0  0  0
   -2.7370    3.6720   -1.0540 H   0  0  0  0  0  0  0  0  0  0  0  0
   -2.7530    2.5980    0.9180 H   0  0  0  0  0  0  0  0  0  0  0  0
   -0.9700    2.5320    1.0420 H   0  0  0  0  0  0  0  0  0  0  0  0
   -1.1010    0.6560   -0.7780 H   0  0  0  0  0  0  0  0  0  0  0  0
   -3.3080    1.5690   -1.4500 H   0  0  0  0  0  0  0  0  0  0  0  0
   -4.0780    0.6850   -0.1110 H   0  0  0  0  0  0  0  0  0  0  0  0
   -3.2090   -0.2090   -1.4700 H   0  0  0  0  0  0  0  0  0  0  0  0
   -2.3320    0.3980    1.9230 H   0  0  0  0  0  0  0  0  0  0  0  0
   -0.3780   -0.7190    2.5990 H   0  0  0  0  0  0  0  0  0  0  0  0
   -2.5710   -3.4860   -2.0840 C   0  0  0  0  0  0  0  0  0  0  0  0
   -1.6010   -4.9650   -1.8590 S   0  0  0  0  0  0  0  0  0  0  0  0
   -0.5240   -4.9640   -0.4190 C   0  0  0  0  0  0  0  0  0  0  0  0
   -1.2690   -5.0410    0.8760 C   0  0  0  0  0  0  0  0  0  0  0  0
   -2.1970   -3.9620    1.2080 C   0  0  2  0  0  0  0  0  0  0  0  0
   -1.6990   -2.6280    1.3210 N   0  0  0  0  0  0  0  0  0  0  0  0
   -2.8480   -4.3790    2.5280 C   0  0  0  0  0  0  0  0  0  0  0  0
   -2.9040   -3.6360    3.5050 O   0  0  0  0  0  0  0  0  0  0  0  0
   -3.3710   -5.6550    2.5520 O   0  0  0  0  0  0  0  0  0  0  0  0
   -3.6090   -3.5360   -1.7410 H   0  0  0  0  0  0  0  0  0  0  0  0
   -2.6480   -3.3240   -3.2030 H   0  0  0  0  0  0  0  0  0  0  0  0
   -2.0490   -2.5730   -1.7220 H   0  0  0  0  0  0  0  0  0  0  0  0
    0.1140   -5.8730   -0.5010 H   0  0  0  0  0  0  0  0  0  0  0  0
    0.0920   -4.0340   -0.5030 H   0  0  0  0  0  0  0  0  0  0  0  0
   -1.9200   -5.9730    0.7620 H   0  0  0  0  0  0  0  0  0  0  0  0
   -0.6080   -5.3630    1.7240 H   0  0  0  0  0  0  0  0  0  0  0  0
   -3.0600   -3.9560    0.5200 H   0  0  0  0  0  0  0  0  0  0  0  0
   -0.7370   -2.5420    1.7700 H   0  0  0  0  0  0  0  0  0  0  0  0
  1 11  1  0  0  0  0
  2 12  1  1  0  0  0
  2  1  1  0  0  0  0
  3 13  1  0  0  0  0
  3  2  1  0  0  0  0
  4  5  1  0  0  0  0
  4  3  1  0  0  0  0
  5 18  1  0  0  0  0
  5 17  1  0  0  0  0
  6  7  1  0  0  0  0
  6  5  1  0  0  0  0
  7 22  1  0  0  0  0
  8 28  1  0  0  0  0
  8  2  1  0  0  0  0
  9  8  2  0  0  0  0
 10  1  1  0  0  0  0
 14  3  1  0  0  0  0
 15  4  1  0  0  0  0
 16  4  1  0  0  0  0
 19  6  1  0  0  0  0
 20  6  1  0  0  0  0
 21  7  1  0  0  0  0
 23 32  1  0  0  0  0
 23 24  1  0  0  0  0
 24 34  1  0  0  0  0
 24 35  1  0  0  0  0
 25 36  1  6  0  0  0
 25 24  1  0  0  0  0
 25 27  1  0  0  0  0
 26 38  1  0  0  0  0
 26 25  1  0  0  0  0
 27 28  1  0  0  0  0
 27 40  1  1  0  0  0
 28 41  1  0  0  0  0
 29 27  1  0  0  0  0
 29 47  1  0  0  0  0
 30 29  2  0  0  0  0
 31 23  1  0  0  0  0
 33 23  1  0  0  0  0
 37 26  1  0  0  0  0
 39 26  1  0  0  0  0
 42 43  1  0  0  0  0
 42 51  1  0  0  0  0
 42 53  1  0  0  0  0
 43 44  1  0  0  0  0
 44 45  1  0  0  0  0
 45 46  1  0  0  0  0
 45 57  1  0  0  0  0
 46 58  1  6  0  0  0
 46 47  1  0  0  0  0
 46 48  1  0  0  0  0
 47 59  1  0  0  0  0
 48 50  2  0  0  0  0
 48 49  1  0  0  0  0
 52 42  1  0  0  0  0
 54 44  1  0  0  0  0
 55 44  1  0  0  0  0
 56 45  1  0  0  0  0
M  END
$$$$
