KIP.pdb
 OpenBabel07022418513D

 56 56  0  0  1  0  0  0  0  0999 V2000
    3.7930    0.5940    1.6420 N   0  0  0  0  0  0  0  0  0  0  0  0
    2.6800    1.0570    0.8500 C   0  0  1  0  0  0  0  0  0  0  0  0
    3.0010    0.9580   -0.5890 C   0  0  0  0  0  0  0  0  0  0  0  0
    3.3050   -0.3710   -1.1570 C   0  0  0  0  0  0  0  0  0  0  0  0
    4.4870   -1.0940   -0.5660 C   0  0  0  0  0  0  0  0  0  0  0  0
    4.6880   -2.4400   -1.2820 C   0  0  0  0  0  0  0  0  0  0  0  0
    3.5370   -3.2790   -1.1510 N   0  0  0  0  0  0  0  0  0  0  0  0
    1.4370    0.2640    1.1620 C   0  0  0  0  0  0  0  0  0  0  0  0
    1.5230   -0.6440    2.0200 O   0  0  0  0  0  0  0  0  0  0  0  0
    3.5300    0.2250    2.5640 H   0  0  0  0  0  0  0  0  0  0  0  0
    4.5430    1.2940    1.6360 H   0  0  0  0  0  0  0  0  0  0  0  0
    2.5160    2.1320    1.0880 H   0  0  0  0  0  0  0  0  0  0  0  0
    3.8900    1.6190   -0.7940 H   0  0  0  0  0  0  0  0  0  0  0  0
    2.1600    1.4550   -1.1540 H   0  0  0  0  0  0  0  0  0  0  0  0
    3.5170   -0.2030   -2.2580 H   0  0  0  0  0  0  0  0  0  0  0  0
    2.4570   -1.0940   -1.1000 H   0  0  0  0  0  0  0  0  0  0  0  0
    5.4170   -0.5250   -0.5750 H   0  0  0  0  0  0  0  0  0  0  0  0
    4.2150   -1.3530    0.5040 H   0  0  0  0  0  0  0  0  0  0  0  0
    5.5500   -2.9490   -0.7990 H   0  0  0  0  0  0  0  0  0  0  0  0
    4.8830   -2.2050   -2.3570 H   0  0  0  0  0  0  0  0  0  0  0  0
    3.0500   -3.4810   -2.0460 H   0  0  0  0  0  0  0  0  0  0  0  0
    3.7580   -4.1740   -0.7040 H   0  0  0  0  0  0  0  0  0  0  0  0
   -1.4060    2.8940    0.9650 C   0  0  0  0  0  0  0  0  0  0  0  0
   -2.4240    1.8110    1.1890 C   0  0  0  0  0  0  0  0  0  0  0  0
   -1.9150    0.5330    1.7260 C   0  0  2  0  0  0  0  0  0  0  0  0
   -1.2380    0.7810    3.0560 C   0  0  0  0  0  0  0  0  0  0  0  0
   -0.9910   -0.2860    0.8620 C   0  0  2  0  0  0  0  0  0  0  0  0
    0.2090    0.4970    0.5430 N   0  0  0  0  0  0  0  0  0  0  0  0
   -1.6190   -0.8130   -0.3450 C   0  0  0  0  0  0  0  0  0  0  0  0
   -1.3180   -0.3420   -1.5120 O   0  0  0  0  0  0  0  0  0  0  0  0
   -0.4750    2.7090    1.5420 H   0  0  0  0  0  0  0  0  0  0  0  0
   -1.2360    3.1270   -0.1080 H   0  0  0  0  0  0  0  0  0  0  0  0
   -1.8070    3.8480    1.4190 H   0  0  0  0  0  0  0  0  0  0  0  0
   -3.1070    1.6970    0.3130 H   0  0  0  0  0  0  0  0  0  0  0  0
   -3.1290    2.2100    1.9830 H   0  0  0  0  0  0  0  0  0  0  0  0
   -2.8270   -0.0900    2.0060 H   0  0  0  0  0  0  0  0  0  0  0  0
   -0.2420    1.2480    2.9370 H   0  0  0  0  0  0  0  0  0  0  0  0
   -1.2150   -0.1380    3.6830 H   0  0  0  0  0  0  0  0  0  0  0  0
   -1.8660    1.5570    3.5760 H   0  0  0  0  0  0  0  0  0  0  0  0
   -0.6430   -1.1140    1.4980 H   0  0  0  0  0  0  0  0  0  0  0  0
    0.1180    1.2230   -0.1760 H   0  0  0  0  0  0  0  0  0  0  0  0
   -2.5810   -1.8510   -0.3830 N   0  0  0  0  0  0  0  0  0  0  0  0
   -3.3040   -2.3590   -1.5410 C   0  0  0  0  0  0  0  0  0  0  0  0
   -4.6670   -2.6440   -0.9790 C   0  0  0  0  0  0  0  0  0  0  0  0
   -4.5320   -2.6830    0.5150 C   0  0  0  0  0  0  0  0  0  0  0  0
   -3.0190   -2.6780    0.7130 C   0  0  1  0  0  0  0  0  0  0  0  0
   -2.4700   -4.0810    0.6120 C   0  0  0  0  0  0  0  0  0  0  0  0
   -1.6610   -4.4080   -0.2750 O   0  0  0  0  0  0  0  0  0  0  0  0
   -2.8770   -5.0290    1.5320 O   0  0  0  0  0  0  0  0  0  0  0  0
   -2.8470   -3.3030   -1.8700 H   0  0  0  0  0  0  0  0  0  0  0  0
   -3.3300   -1.6010   -2.3540 H   0  0  0  0  0  0  0  0  0  0  0  0
   -5.0220   -3.6440   -1.3050 H   0  0  0  0  0  0  0  0  0  0  0  0
   -5.3640   -1.8570   -1.3260 H   0  0  0  0  0  0  0  0  0  0  0  0
   -5.0080   -3.5460    0.9880 H   0  0  0  0  0  0  0  0  0  0  0  0
   -4.8980   -1.7300    0.9720 H   0  0  0  0  0  0  0  0  0  0  0  0
   -2.7550   -2.3060    1.7170 H   0  0  0  0  0  0  0  0  0  0  0  0
  1 10  1  0  0  0  0
  2 12  1  1  0  0  0
  2  8  1  0  0  0  0
  2  1  1  0  0  0  0
  3  2  1  0  0  0  0
  4 16  1  0  0  0  0
  4  3  1  0  0  0  0
  4  5  1  0  0  0  0
  5 18  1  0  0  0  0
  6  7  1  0  0  0  0
  6 19  1  0  0  0  0
  6  5  1  0  0  0  0
  7 22  1  0  0  0  0
  8  9  2  0  0  0  0
 11  1  1  0  0  0  0
 13  3  1  0  0  0  0
 14  3  1  0  0  0  0
 15  4  1  0  0  0  0
 17  5  1  0  0  0  0
 20  6  1  0  0  0  0
 21  7  1  0  0  0  0
 23 24  1  0  0  0  0
 23 33  1  0  0  0  0
 23 31  1  0  0  0  0
 24 25  1  0  0  0  0
 24 35  1  0  0  0  0
 25 36  1  1  0  0  0
 25 26  1  0  0  0  0
 26 39  1  0  0  0  0
 26 38  1  0  0  0  0
 27 40  1  1  0  0  0
 27 25  1  0  0  0  0
 28 27  1  0  0  0  0
 28  8  1  0  0  0  0
 29 27  1  0  0  0  0
 30 29  2  0  0  0  0
 32 23  1  0  0  0  0
 34 24  1  0  0  0  0
 37 26  1  0  0  0  0
 41 28  1  0  0  0  0
 42 29  1  0  0  0  0
 42 46  1  0  0  0  0
 43 44  1  0  0  0  0
 43 42  1  0  0  0  0
 44 45  1  0  0  0  0
 45 46  1  0  0  0  0
 45 55  1  0  0  0  0
 45 54  1  0  0  0  0
 46 56  1  1  0  0  0
 47 46  1  0  0  0  0
 47 49  1  0  0  0  0
 48 47  2  0  0  0  0
 50 43  1  0  0  0  0
 51 43  1  0  0  0  0
 52 44  1  0  0  0  0
 53 44  1  0  0  0  0
M  END
$$$$
