KIR.pdb
 OpenBabel07022418503D

 65 64  0  0  1  0  0  0  0  0999 V2000
   -2.8230    0.8610    1.8750 N   0  0  0  0  0  0  0  0  0  0  0  0
   -1.5550    1.4990    2.0060 C   0  0  1  0  0  0  0  0  0  0  0  0
   -0.7710    1.1970    3.2310 C   0  0  0  0  0  0  0  0  0  0  0  0
   -0.4210   -0.2330    3.4450 C   0  0  0  0  0  0  0  0  0  0  0  0
    0.3690   -0.4390    4.6970 C   0  0  0  0  0  0  0  0  0  0  0  0
    1.6850    0.3150    4.6860 C   0  0  0  0  0  0  0  0  0  0  0  0
    2.4990   -0.1460    3.5510 N   0  0  0  0  0  0  0  0  0  0  0  0
   -0.7630    1.3930    0.7400 C   0  0  0  0  0  0  0  0  0  0  0  0
    0.4100    1.8350    0.7320 O   0  0  0  0  0  0  0  0  0  0  0  0
   -3.0820    0.2200    2.6420 H   0  0  0  0  0  0  0  0  0  0  0  0
   -3.5970    1.5060    1.5960 H   0  0  0  0  0  0  0  0  0  0  0  0
   -1.7800    2.6240    2.0710 H   0  0  0  0  0  0  0  0  0  0  0  0
    0.1850    1.7790    3.1970 H   0  0  0  0  0  0  0  0  0  0  0  0
   -1.2710    1.5650    4.1630 H   0  0  0  0  0  0  0  0  0  0  0  0
    0.1980   -0.5830    2.5980 H   0  0  0  0  0  0  0  0  0  0  0  0
   -1.3690   -0.8090    3.5630 H   0  0  0  0  0  0  0  0  0  0  0  0
    0.6280   -1.5250    4.7380 H   0  0  0  0  0  0  0  0  0  0  0  0
   -0.2040   -0.2280    5.6240 H   0  0  0  0  0  0  0  0  0  0  0  0
    1.5720    1.3970    4.6380 H   0  0  0  0  0  0  0  0  0  0  0  0
    2.2500    0.0180    5.5960 H   0  0  0  0  0  0  0  0  0  0  0  0
    2.6620   -1.1710    3.6290 H   0  0  0  0  0  0  0  0  0  0  0  0
    3.4550    0.2960    3.6750 H   0  0  0  0  0  0  0  0  0  0  0  0
   -1.8680    3.4860   -1.2880 C   0  0  0  0  0  0  0  0  0  0  0  0
   -0.9680    3.1170   -2.4000 C   0  0  0  0  0  0  0  0  0  0  0  0
    0.0800    2.0680   -2.1130 C   0  0  2  0  0  0  0  0  0  0  0  0
    0.8270    1.9260   -3.4280 C   0  0  0  0  0  0  0  0  0  0  0  0
   -0.5140    0.7640   -1.6550 C   0  0  2  0  0  0  0  0  0  0  0  0
   -1.2850    0.8210   -0.4420 N   0  0  0  0  0  0  0  0  0  0  0  0
    0.3330   -0.4110   -1.8070 C   0  0  0  0  0  0  0  0  0  0  0  0
    1.1090   -0.4020   -2.8420 O   0  0  0  0  0  0  0  0  0  0  0  0
   -2.5930    2.7200   -1.0020 H   0  0  0  0  0  0  0  0  0  0  0  0
   -1.2800    3.9140   -0.4480 H   0  0  0  0  0  0  0  0  0  0  0  0
   -2.5070    4.3450   -1.6860 H   0  0  0  0  0  0  0  0  0  0  0  0
   -1.6000    2.7540   -3.2670 H   0  0  0  0  0  0  0  0  0  0  0  0
   -0.4530    4.0140   -2.8280 H   0  0  0  0  0  0  0  0  0  0  0  0
    0.7550    2.4610   -1.3450 H   0  0  0  0  0  0  0  0  0  0  0  0
    0.8310    2.9610   -3.8940 H   0  0  0  0  0  0  0  0  0  0  0  0
    1.8750    1.6640   -3.3480 H   0  0  0  0  0  0  0  0  0  0  0  0
    0.2760    1.3070   -4.1560 H   0  0  0  0  0  0  0  0  0  0  0  0
   -1.3450    0.6130   -2.4710 H   0  0  0  0  0  0  0  0  0  0  0  0
   -2.2800    0.4410   -0.3600 H   0  0  0  0  0  0  0  0  0  0  0  0
   -2.6120   -4.0430   -0.2790 N   0  0  0  0  0  0  0  0  0  0  0  0
   -1.5180   -4.0410    0.6620 C   0  0  0  0  0  0  0  0  0  0  0  0
   -1.6410   -3.3240    1.7430 N   0  0  0  0  0  0  0  0  0  0  0  0
   -0.3580   -4.7910    0.4230 N   0  0  0  0  0  0  0  0  0  0  0  0
    0.8300   -4.6620    1.1790 C   0  0  0  0  0  0  0  0  0  0  0  0
    1.6170   -3.4150    1.1130 C   0  0  0  0  0  0  0  0  0  0  0  0
    2.2090   -2.9800   -0.1660 C   0  0  0  0  0  0  0  0  0  0  0  0
    1.3610   -2.6480   -1.3140 C   0  0  2  0  0  0  0  0  0  0  0  0
    0.4360   -1.5570   -1.0080 N   0  0  0  0  0  0  0  0  0  0  0  0
    0.7910   -3.7520   -2.0590 C   0  0  0  0  0  0  0  0  0  0  0  0
    1.4750   -4.7820   -2.2950 O   0  0  0  0  0  0  0  0  0  0  0  0
   -0.5140   -3.8100   -2.5850 O   0  0  0  0  0  0  0  0  0  0  0  0
   -3.1960   -3.2080   -0.4790 H   0  0  0  0  0  0  0  0  0  0  0  0
   -2.8440   -4.9240   -0.8050 H   0  0  0  0  0  0  0  0  0  0  0  0
   -2.5140   -2.7890    1.8800 H   0  0  0  0  0  0  0  0  0  0  0  0
   -0.4220   -5.5080   -0.3610 H   0  0  0  0  0  0  0  0  0  0  0  0
    1.5100   -5.5380    0.9570 H   0  0  0  0  0  0  0  0  0  0  0  0
    0.5290   -4.8800    2.2650 H   0  0  0  0  0  0  0  0  0  0  0  0
    1.0910   -2.5720    1.6500 H   0  0  0  0  0  0  0  0  0  0  0  0
    2.5110   -3.5860    1.8200 H   0  0  0  0  0  0  0  0  0  0  0  0
    2.9220   -2.0940    0.0130 H   0  0  0  0  0  0  0  0  0  0  0  0
    2.9650   -3.7660   -0.5320 H   0  0  0  0  0  0  0  0  0  0  0  0
    2.1170   -2.1990   -2.0960 H   0  0  0  0  0  0  0  0  0  0  0  0
   -0.1870   -1.6030   -0.1650 H   0  0  0  0  0  0  0  0  0  0  0  0
  1  2  1  0  0  0  0
  1 10  1  0  0  0  0
  2 12  1  1  0  0  0
  2  3  1  0  0  0  0
  3  4  1  0  0  0  0
  3 14  1  0  0  0  0
  4 16  1  0  0  0  0
  4  5  1  0  0  0  0
  5 17  1  0  0  0  0
  5 18  1  0  0  0  0
  6  5  1  0  0  0  0
  6 20  1  0  0  0  0
  7 21  1  0  0  0  0
  7 22  1  0  0  0  0
  7  6  1  0  0  0  0
  8  2  1  0  0  0  0
  9  8  2  0  0  0  0
 11  1  1  0  0  0  0
 13  3  1  0  0  0  0
 15  4  1  0  0  0  0
 19  6  1  0  0  0  0
 23 31  1  0  0  0  0
 23 32  1  0  0  0  0
 24 25  1  0  0  0  0
 24 23  1  0  0  0  0
 25 27  1  0  0  0  0
 25 36  1  1  0  0  0
 26 38  1  0  0  0  0
 26 25  1  0  0  0  0
 27 40  1  6  0  0  0
 27 28  1  0  0  0  0
 28 41  1  0  0  0  0
 28  8  1  0  0  0  0
 29 27  1  0  0  0  0
 29 50  1  0  0  0  0
 30 29  2  0  0  0  0
 33 23  1  0  0  0  0
 34 24  1  0  0  0  0
 35 24  1  0  0  0  0
 37 26  1  0  0  0  0
 39 26  1  0  0  0  0
 42 43  1  0  0  0  0
 43 44  2  0  0  0  0
 44 56  1  0  0  0  0
 45 43  1  0  0  0  0
 45 46  1  0  0  0  0
 46 59  1  0  0  0  0
 47 46  1  0  0  0  0
 47 60  1  0  0  0  0
 47 61  1  0  0  0  0
 48 62  1  0  0  0  0
 48 47  1  0  0  0  0
 49 64  1  6  0  0  0
 49 50  1  0  0  0  0
 49 48  1  0  0  0  0
 50 65  1  0  0  0  0
 51 49  1  0  0  0  0
 52 51  1  0  0  0  0
 53 51  2  0  0  0  0
 54 42  1  0  0  0  0
 55 42  1  0  0  0  0
 57 45  1  0  0  0  0
 58 46  1  0  0  0  0
 63 48  1  0  0  0  0
M  END
$$$$
