KIS.pdb
 OpenBabel07022418513D

 53 52  0  0  1  0  0  0  0  0999 V2000
   -0.2960    0.1260    4.5350 N   0  0  0  0  0  0  0  0  0  0  0  0
    0.4270   -0.7820    3.6440 C   0  0  1  0  0  0  0  0  0  0  0  0
   -0.0100   -2.1790    3.9330 C   0  0  0  0  0  0  0  0  0  0  0  0
    0.6350   -3.2400    3.1080 C   0  0  0  0  0  0  0  0  0  0  0  0
    2.1370   -3.2750    3.2620 C   0  0  0  0  0  0  0  0  0  0  0  0
    2.6520   -4.4060    2.3620 C   0  0  0  0  0  0  0  0  0  0  0  0
    2.3060   -4.1750    0.9870 N   0  0  0  0  0  0  0  0  0  0  0  0
    0.1440   -0.4190    2.2140 C   0  0  0  0  0  0  0  0  0  0  0  0
    0.7300   -1.0910    1.3630 O   0  0  0  0  0  0  0  0  0  0  0  0
   -0.4080   -0.3110    5.4770 H   0  0  0  0  0  0  0  0  0  0  0  0
    0.2530    1.0100    4.6810 H   0  0  0  0  0  0  0  0  0  0  0  0
    1.5020   -0.6520    3.8050 H   0  0  0  0  0  0  0  0  0  0  0  0
   -1.1150   -2.2330    3.7210 H   0  0  0  0  0  0  0  0  0  0  0  0
    0.1260   -2.3680    5.0150 H   0  0  0  0  0  0  0  0  0  0  0  0
    0.2800   -4.2240    3.5390 H   0  0  0  0  0  0  0  0  0  0  0  0
    0.3120   -3.2540    2.0710 H   0  0  0  0  0  0  0  0  0  0  0  0
    2.4120   -3.5320    4.2930 H   0  0  0  0  0  0  0  0  0  0  0  0
    2.6070   -2.3170    2.9860 H   0  0  0  0  0  0  0  0  0  0  0  0
    2.2680   -5.3730    2.6990 H   0  0  0  0  0  0  0  0  0  0  0  0
    3.7750   -4.4430    2.4160 H   0  0  0  0  0  0  0  0  0  0  0  0
    2.2180   -5.0350    0.4290 H   0  0  0  0  0  0  0  0  0  0  0  0
    2.9650   -3.4790    0.5690 H   0  0  0  0  0  0  0  0  0  0  0  0
    0.6390    3.7480   -1.4850 C   0  0  0  0  0  0  0  0  0  0  0  0
   -0.2120    2.4570   -1.4060 C   0  0  0  0  0  0  0  0  0  0  0  0
   -0.0530    1.9480   -0.0010 C   0  0  2  0  0  0  0  0  0  0  0  0
    1.4050    1.6430    0.2950 C   0  0  0  0  0  0  0  0  0  0  0  0
   -1.0390    0.9980    0.5100 C   0  0  2  0  0  0  0  0  0  0  0  0
   -0.7310    0.6210    1.8720 N   0  0  0  0  0  0  0  0  0  0  0  0
   -1.4540   -0.1630   -0.2550 C   0  0  0  0  0  0  0  0  0  0  0  0
   -1.4730   -1.2910    0.3510 O   0  0  0  0  0  0  0  0  0  0  0  0
    0.1960    4.4440   -2.2210 H   0  0  0  0  0  0  0  0  0  0  0  0
    0.5960    4.1950   -0.4760 H   0  0  0  0  0  0  0  0  0  0  0  0
    1.6720    3.4730   -1.7030 H   0  0  0  0  0  0  0  0  0  0  0  0
   -1.2440    2.8230   -1.5380 H   0  0  0  0  0  0  0  0  0  0  0  0
    0.1440    1.7500   -2.1800 H   0  0  0  0  0  0  0  0  0  0  0  0
   -0.2210    2.9090    0.6250 H   0  0  0  0  0  0  0  0  0  0  0  0
    2.0400    2.5550    0.0670 H   0  0  0  0  0  0  0  0  0  0  0  0
    1.6050    1.4630    1.3680 H   0  0  0  0  0  0  0  0  0  0  0  0
    1.7850    0.7930   -0.2740 H   0  0  0  0  0  0  0  0  0  0  0  0
   -2.0330    1.5970    0.6230 H   0  0  0  0  0  0  0  0  0  0  0  0
   -1.1910    1.1640    2.6640 H   0  0  0  0  0  0  0  0  0  0  0  0
   -3.7340   -0.5090   -3.7230 O   0  0  0  0  0  0  0  0  0  0  0  0
   -3.6320   -1.4890   -2.7280 C   0  0  0  0  0  0  0  0  0  0  0  0
   -2.2220   -1.4800   -2.1850 C   0  0  2  0  0  0  0  0  0  0  0  0
   -1.8530   -0.2230   -1.6120 N   0  0  0  0  0  0  0  0  0  0  0  0
   -1.3340   -1.8480   -3.3350 C   0  0  0  0  0  0  0  0  0  0  0  0
   -0.4250   -1.0700   -3.6500 O   0  0  0  0  0  0  0  0  0  0  0  0
   -1.5090   -3.0250   -4.0380 O   0  0  0  0  0  0  0  0  0  0  0  0
   -2.8740   -0.3500   -4.1720 H   0  0  0  0  0  0  0  0  0  0  0  0
   -3.7830   -2.4730   -3.2190 H   0  0  0  0  0  0  0  0  0  0  0  0
   -4.3930   -1.3820   -1.9520 H   0  0  0  0  0  0  0  0  0  0  0  0
   -2.1330   -2.2740   -1.4320 H   0  0  0  0  0  0  0  0  0  0  0  0
   -1.8800    0.6780   -2.1560 H   0  0  0  0  0  0  0  0  0  0  0  0
  1 11  1  0  0  0  0
  1 10  1  0  0  0  0
  2 12  1  1  0  0  0
  2  3  1  0  0  0  0
  2  1  1  0  0  0  0
  3 14  1  0  0  0  0
  4  5  1  0  0  0  0
  4 15  1  0  0  0  0
  4  3  1  0  0  0  0
  5 17  1  0  0  0  0
  6 20  1  0  0  0  0
  6 19  1  0  0  0  0
  6  5  1  0  0  0  0
  7  6  1  0  0  0  0
  8  2  1  0  0  0  0
  9  8  2  0  0  0  0
 13  3  1  0  0  0  0
 16  4  1  0  0  0  0
 18  5  1  0  0  0  0
 21  7  1  0  0  0  0
 22  7  1  0  0  0  0
 23 24  1  0  0  0  0
 23 32  1  0  0  0  0
 24 25  1  0  0  0  0
 25 26  1  0  0  0  0
 25 27  1  0  0  0  0
 25 36  1  1  0  0  0
 26 38  1  0  0  0  0
 27 40  1  1  0  0  0
 27 28  1  0  0  0  0
 28  8  1  0  0  0  0
 28 41  1  0  0  0  0
 29 30  2  0  0  0  0
 29 27  1  0  0  0  0
 31 23  1  0  0  0  0
 33 23  1  0  0  0  0
 34 24  1  0  0  0  0
 35 24  1  0  0  0  0
 37 26  1  0  0  0  0
 39 26  1  0  0  0  0
 42 43  1  0  0  0  0
 43 44  1  0  0  0  0
 43 51  1  0  0  0  0
 44 45  1  0  0  0  0
 44 52  1  1  0  0  0
 45 29  1  0  0  0  0
 46 44  1  0  0  0  0
 47 46  1  0  0  0  0
 48 46  2  0  0  0  0
 49 42  1  0  0  0  0
 50 43  1  0  0  0  0
 53 45  1  0  0  0  0
M  END
$$$$
