KIT.pdb
 OpenBabel07022418513D

 56 55  0  0  1  0  0  0  0  0999 V2000
   -0.2450   -2.6450    3.9270 N   0  0  0  0  0  0  0  0  0  0  0  0
    0.7090   -1.8280    3.0020 C   0  0  1  0  0  0  0  0  0  0  0  0
    1.4650   -2.8250    2.2950 C   0  0  0  0  0  0  0  0  0  0  0  0
    2.5880   -2.5830    1.3830 C   0  0  0  0  0  0  0  0  0  0  0  0
    2.4780   -1.7660    0.1720 C   0  0  0  0  0  0  0  0  0  0  0  0
    3.8360   -1.7980   -0.5860 C   0  0  0  0  0  0  0  0  0  0  0  0
    3.7320   -0.9910   -1.7830 N   0  0  0  0  0  0  0  0  0  0  0  0
   -0.1650   -0.8220    2.5070 C   0  0  0  0  0  0  0  0  0  0  0  0
   -1.0860   -0.4550    3.4010 O   0  0  0  0  0  0  0  0  0  0  0  0
   -0.8210   -3.1950    3.2420 H   0  0  0  0  0  0  0  0  0  0  0  0
    0.4420   -3.2920    4.3550 H   0  0  0  0  0  0  0  0  0  0  0  0
    1.3600   -1.3690    3.8070 H   0  0  0  0  0  0  0  0  0  0  0  0
    0.7860   -3.6510    1.8420 H   0  0  0  0  0  0  0  0  0  0  0  0
    1.9390   -3.4890    3.1340 H   0  0  0  0  0  0  0  0  0  0  0  0
    2.9690   -3.6280    1.0790 H   0  0  0  0  0  0  0  0  0  0  0  0
    3.4830   -2.2120    2.0110 H   0  0  0  0  0  0  0  0  0  0  0  0
    1.6430   -2.0210   -0.4820 H   0  0  0  0  0  0  0  0  0  0  0  0
    2.4380   -0.6870    0.4880 H   0  0  0  0  0  0  0  0  0  0  0  0
    4.0360   -2.8340   -0.8940 H   0  0  0  0  0  0  0  0  0  0  0  0
    4.5870   -1.3770    0.0810 H   0  0  0  0  0  0  0  0  0  0  0  0
    2.7270   -0.7780   -1.9410 H   0  0  0  0  0  0  0  0  0  0  0  0
    4.2240   -0.0830   -1.6310 H   0  0  0  0  0  0  0  0  0  0  0  0
    1.2850    2.0380    2.2730 C   0  0  0  0  0  0  0  0  0  0  0  0
    0.1220    2.8120    1.8000 C   0  0  0  0  0  0  0  0  0  0  0  0
   -0.7580    2.2180    0.7580 C   0  0  2  0  0  0  0  0  0  0  0  0
   -1.8820    3.2060    0.4070 C   0  0  0  0  0  0  0  0  0  0  0  0
   -1.3620    0.9010    1.1220 C   0  0  2  0  0  0  0  0  0  0  0  0
   -0.3360   -0.1040    1.3310 N   0  0  0  0  0  0  0  0  0  0  0  0
   -2.2480    0.4240    0.0230 C   0  0  0  0  0  0  0  0  0  0  0  0
   -3.2120    1.1340   -0.3730 O   0  0  0  0  0  0  0  0  0  0  0  0
    1.1240    1.5710    3.2740 H   0  0  0  0  0  0  0  0  0  0  0  0
    2.2140    2.7000    2.3660 H   0  0  0  0  0  0  0  0  0  0  0  0
    1.5960    1.2680    1.5580 H   0  0  0  0  0  0  0  0  0  0  0  0
   -0.4800    3.1850    2.6780 H   0  0  0  0  0  0  0  0  0  0  0  0
    0.5300    3.7890    1.3740 H   0  0  0  0  0  0  0  0  0  0  0  0
   -0.1440    2.0450   -0.1680 H   0  0  0  0  0  0  0  0  0  0  0  0
   -2.0640    3.1500   -0.6820 H   0  0  0  0  0  0  0  0  0  0  0  0
   -2.7890    2.9810    1.0060 H   0  0  0  0  0  0  0  0  0  0  0  0
   -1.5590    4.2360    0.6380 H   0  0  0  0  0  0  0  0  0  0  0  0
   -1.9860    1.0130    2.0570 H   0  0  0  0  0  0  0  0  0  0  0  0
    0.2570   -0.2880    0.5320 H   0  0  0  0  0  0  0  0  0  0  0  0
   -0.9500   -2.6480   -2.3640 C   0  0  0  0  0  0  0  0  0  0  0  0
   -1.9610   -1.6200   -2.8400 C   0  0  1  0  0  0  0  0  0  0  0  0
   -2.6810   -2.0960   -3.9380 O   0  0  0  0  0  0  0  0  0  0  0  0
   -2.8800   -1.3220   -1.6750 C   0  0  2  0  0  0  0  0  0  0  0  0
   -2.0170   -0.8310   -0.5850 N   0  0  0  0  0  0  0  0  0  0  0  0
   -3.4690   -2.6480   -1.2630 C   0  0  0  0  0  0  0  0  0  0  0  0
   -3.2130   -3.1740   -0.1560 O   0  0  0  0  0  0  0  0  0  0  0  0
   -4.3250   -3.3310   -2.1140 O   0  0  0  0  0  0  0  0  0  0  0  0
    0.0610   -2.2260   -2.2720 H   0  0  0  0  0  0  0  0  0  0  0  0
   -1.2210   -3.0910   -1.3880 H   0  0  0  0  0  0  0  0  0  0  0  0
   -0.8960   -3.5120   -3.0800 H   0  0  0  0  0  0  0  0  0  0  0  0
   -1.4090   -0.6980   -3.0690 H   0  0  0  0  0  0  0  0  0  0  0  0
   -2.6980   -3.0860   -3.9690 H   0  0  0  0  0  0  0  0  0  0  0  0
   -3.6650   -0.6010   -1.9040 H   0  0  0  0  0  0  0  0  0  0  0  0
   -1.2180   -1.4040   -0.2420 H   0  0  0  0  0  0  0  0  0  0  0  0
  1 11  1  0  0  0  0
  2 12  1  1  0  0  0
  2  1  1  0  0  0  0
  3  2  1  0  0  0  0
  3 14  1  0  0  0  0
  4 16  1  0  0  0  0
  4  3  1  0  0  0  0
  5 18  1  0  0  0  0
  5  4  1  0  0  0  0
  6 20  1  0  0  0  0
  6  5  1  0  0  0  0
  7 22  1  0  0  0  0
  7  6  1  0  0  0  0
  8  2  1  0  0  0  0
  8  9  2  0  0  0  0
 10  1  1  0  0  0  0
 13  3  1  0  0  0  0
 15  4  1  0  0  0  0
 17  5  1  0  0  0  0
 19  6  1  0  0  0  0
 21  7  1  0  0  0  0
 23 32  1  0  0  0  0
 23 31  1  0  0  0  0
 24 23  1  0  0  0  0
 24 34  1  0  0  0  0
 25 36  1  6  0  0  0
 25 27  1  0  0  0  0
 25 24  1  0  0  0  0
 26 39  1  0  0  0  0
 26 25  1  0  0  0  0
 26 38  1  0  0  0  0
 27 28  1  0  0  0  0
 27 40  1  1  0  0  0
 28  8  1  0  0  0  0
 29 27  1  0  0  0  0
 30 29  2  0  0  0  0
 33 23  1  0  0  0  0
 35 24  1  0  0  0  0
 37 26  1  0  0  0  0
 41 28  1  0  0  0  0
 42 50  1  0  0  0  0
 42 51  1  0  0  0  0
 43 53  1  6  0  0  0
 43 42  1  0  0  0  0
 43 45  1  0  0  0  0
 44 43  1  0  0  0  0
 45 55  1  6  0  0  0
 45 47  1  0  0  0  0
 45 46  1  0  0  0  0
 46 56  1  0  0  0  0
 46 29  1  0  0  0  0
 47 48  1  0  0  0  0
 49 47  2  0  0  0  0
 52 42  1  0  0  0  0
 54 44  1  0  0  0  0
M  END
$$$$
