KIW.pdb
 OpenBabel07022418513D

 66 67  0  0  1  0  0  0  0  0999 V2000
    3.5070    3.3650    1.0350 N   0  0  0  0  0  0  0  0  0  0  0  0
    3.3670    1.9330    0.9090 C   0  0  1  0  0  0  0  0  0  0  0  0
    3.1060    1.3330    2.2640 C   0  0  0  0  0  0  0  0  0  0  0  0
    4.2200    1.6100    3.2350 C   0  0  0  0  0  0  0  0  0  0  0  0
    5.5380    1.0710    2.7910 C   0  0  0  0  0  0  0  0  0  0  0  0
    5.5490   -0.4290    2.5950 C   0  0  0  0  0  0  0  0  0  0  0  0
    6.9140   -0.7660    2.1640 N   0  0  0  0  0  0  0  0  0  0  0  0
    2.2600    1.5850   -0.0100 C   0  0  0  0  0  0  0  0  0  0  0  0
    1.6390    2.5280   -0.5660 O   0  0  0  0  0  0  0  0  0  0  0  0
    3.0230    3.8900    0.2690 H   0  0  0  0  0  0  0  0  0  0  0  0
    3.1540    3.6610    1.9870 H   0  0  0  0  0  0  0  0  0  0  0  0
    4.3460    1.5460    0.5600 H   0  0  0  0  0  0  0  0  0  0  0  0
    2.9840    0.2310    2.2080 H   0  0  0  0  0  0  0  0  0  0  0  0
    2.1630    1.7210    2.7220 H   0  0  0  0  0  0  0  0  0  0  0  0
    4.3140    2.6940    3.3630 H   0  0  0  0  0  0  0  0  0  0  0  0
    3.9350    1.1310    4.1960 H   0  0  0  0  0  0  0  0  0  0  0  0
    5.8890    1.6010    1.9020 H   0  0  0  0  0  0  0  0  0  0  0  0
    6.2680    1.2740    3.6210 H   0  0  0  0  0  0  0  0  0  0  0  0
    5.3720   -0.9650    3.5470 H   0  0  0  0  0  0  0  0  0  0  0  0
    4.8120   -0.7770    1.8670 H   0  0  0  0  0  0  0  0  0  0  0  0
    6.8670   -1.7460    1.7740 H   0  0  0  0  0  0  0  0  0  0  0  0
    7.1790   -0.1250    1.3570 H   0  0  0  0  0  0  0  0  0  0  0  0
   -0.2370    0.0590   -4.1690 C   0  0  0  0  0  0  0  0  0  0  0  0
    0.4640   -1.1150   -3.5050 C   0  0  0  0  0  0  0  0  0  0  0  0
    1.3590   -0.7340   -2.3880 C   0  0  2  0  0  0  0  0  0  0  0  0
    1.9880   -2.0360   -1.8620 C   0  0  0  0  0  0  0  0  0  0  0  0
    0.7320    0.0170   -1.2420 C   0  0  2  0  0  0  0  0  0  0  0  0
    1.8510    0.2860   -0.3080 N   0  0  0  0  0  0  0  0  0  0  0  0
   -0.3430   -0.6930   -0.5380 C   0  0  0  0  0  0  0  0  0  0  0  0
   -0.1140   -1.0290    0.6720 O   0  0  0  0  0  0  0  0  0  0  0  0
    0.2910    0.4350   -5.0530 H   0  0  0  0  0  0  0  0  0  0  0  0
   -0.3770    0.8880   -3.4780 H   0  0  0  0  0  0  0  0  0  0  0  0
   -1.2370   -0.3150   -4.5390 H   0  0  0  0  0  0  0  0  0  0  0  0
   -0.2300   -1.9390   -3.3240 H   0  0  0  0  0  0  0  0  0  0  0  0
    1.1500   -1.5120   -4.3200 H   0  0  0  0  0  0  0  0  0  0  0  0
    2.1960   -0.1260   -2.7790 H   0  0  0  0  0  0  0  0  0  0  0  0
    2.0180   -2.8010   -2.6640 H   0  0  0  0  0  0  0  0  0  0  0  0
    3.0680   -1.8470   -1.5990 H   0  0  0  0  0  0  0  0  0  0  0  0
    1.4930   -2.3540   -0.9430 H   0  0  0  0  0  0  0  0  0  0  0  0
    0.4090    0.9990   -1.6050 H   0  0  0  0  0  0  0  0  0  0  0  0
    2.3120   -0.5290    0.1100 H   0  0  0  0  0  0  0  0  0  0  0  0
   -1.6060   -1.0470   -1.0420 N   0  0  0  0  0  0  0  0  0  0  0  0
   -2.6300   -1.7490   -0.3040 C   0  0  1  0  0  0  0  0  0  0  0  0
   -3.9180   -0.9670   -0.2200 C   0  0  0  0  0  0  0  0  0  0  0  0
   -4.9570   -1.7000    0.5400 C   0  0  0  0  0  0  0  0  0  0  0  0
   -6.0660   -2.3820    0.0540 C   0  0  0  0  0  0  0  0  0  0  0  0
   -6.7590   -2.9080    1.0790 N   0  0  0  0  0  0  0  0  0  0  0  0
   -6.1610   -2.6100    2.2430 C   0  0  0  0  0  0  0  0  0  0  0  0
   -6.4420   -2.8910    3.5710 C   0  0  0  0  0  0  0  0  0  0  0  0
   -5.6030   -2.4220    4.5580 C   0  0  0  0  0  0  0  0  0  0  0  0
   -4.4840   -1.6730    4.2280 C   0  0  0  0  0  0  0  0  0  0  0  0
   -4.1920   -1.3840    2.9100 C   0  0  0  0  0  0  0  0  0  0  0  0
   -5.0300   -1.8520    1.9190 C   0  0  0  0  0  0  0  0  0  0  0  0
   -2.9230   -3.0310   -0.9910 C   0  0  0  0  0  0  0  0  0  0  0  0
   -2.3160   -3.3500   -2.0470 O   0  0  0  0  0  0  0  0  0  0  0  0
   -3.8640   -3.9400   -0.5270 O   0  0  0  0  0  0  0  0  0  0  0  0
   -1.8300   -0.7830   -2.0120 H   0  0  0  0  0  0  0  0  0  0  0  0
   -2.3320   -2.0000    0.7330 H   0  0  0  0  0  0  0  0  0  0  0  0
   -4.2940   -0.8620   -1.2610 H   0  0  0  0  0  0  0  0  0  0  0  0
   -3.7750    0.0620    0.1610 H   0  0  0  0  0  0  0  0  0  0  0  0
   -6.2830   -2.4410   -1.0200 H   0  0  0  0  0  0  0  0  0  0  0  0
   -7.6330   -3.4670    0.9900 H   0  0  0  0  0  0  0  0  0  0  0  0
   -7.3120   -3.4750    3.8330 H   0  0  0  0  0  0  0  0  0  0  0  0
   -5.7850   -2.6200    5.6160 H   0  0  0  0  0  0  0  0  0  0  0  0
   -3.8100   -1.2940    5.0040 H   0  0  0  0  0  0  0  0  0  0  0  0
   -3.3410   -0.8110    2.6210 H   0  0  0  0  0  0  0  0  0  0  0  0
  1 11  1  0  0  0  0
  2 12  1  6  0  0  0
  2  1  1  0  0  0  0
  2  3  1  0  0  0  0
  3 14  1  0  0  0  0
  3  4  1  0  0  0  0
  4 15  1  0  0  0  0
  4 16  1  0  0  0  0
  5  4  1  0  0  0  0
  5 18  1  0  0  0  0
  6  5  1  0  0  0  0
  6 19  1  0  0  0  0
  7  6  1  0  0  0  0
  8  2  1  0  0  0  0
  9  8  2  0  0  0  0
 10  1  1  0  0  0  0
 13  3  1  0  0  0  0
 17  5  1  0  0  0  0
 20  6  1  0  0  0  0
 21  7  1  0  0  0  0
 22  7  1  0  0  0  0
 23 24  1  0  0  0  0
 23 32  1  0  0  0  0
 24 34  1  0  0  0  0
 24 25  1  0  0  0  0
 25 36  1  6  0  0  0
 25 26  1  0  0  0  0
 25 27  1  0  0  0  0
 26 38  1  0  0  0  0
 26 39  1  0  0  0  0
 27 40  1  6  0  0  0
 27 29  1  0  0  0  0
 27 28  1  0  0  0  0
 28  8  1  0  0  0  0
 28 41  1  0  0  0  0
 29 30  2  0  0  0  0
 31 23  1  0  0  0  0
 33 23  1  0  0  0  0
 35 24  1  0  0  0  0
 37 26  1  0  0  0  0
 42 29  1  0  0  0  0
 42 43  1  0  0  0  0
 43 44  1  0  0  0  0
 43 58  1  1  0  0  0
 44 60  1  0  0  0  0
 44 45  1  0  0  0  0
 45 53  1  0  0  0  0
 46 45  2  0  0  0  0
 46 47  1  0  0  0  0
 47 48  1  0  0  0  0
 48 49  1  0  0  0  0
 49 63  1  0  0  0  0
 49 50  2  0  0  0  0
 50 64  1  0  0  0  0
 51 50  1  0  0  0  0
 51 65  1  0  0  0  0
 52 51  2  0  0  0  0
 53 48  2  0  0  0  0
 53 52  1  0  0  0  0
 54 56  1  0  0  0  0
 54 43  1  0  0  0  0
 55 54  2  0  0  0  0
 57 42  1  0  0  0  0
 59 44  1  0  0  0  0
 61 46  1  0  0  0  0
 62 47  1  0  0  0  0
 66 52  1  0  0  0  0
M  END
$$$$
