KIY.pdb
 OpenBabel07022418513D

 63 63  0  0  1  0  0  0  0  0999 V2000
    1.3090    3.1240    3.9820 N   0  0  0  0  0  0  0  0  0  0  0  0
    1.7420    2.8450    2.6280 C   0  0  1  0  0  0  0  0  0  0  0  0
    2.9770    1.9520    2.7370 C   0  0  0  0  0  0  0  0  0  0  0  0
    2.6440    0.6720    3.4520 C   0  0  0  0  0  0  0  0  0  0  0  0
    3.8910   -0.1780    3.5370 C   0  0  0  0  0  0  0  0  0  0  0  0
    3.6110   -1.4820    4.2490 C   0  0  0  0  0  0  0  0  0  0  0  0
    2.5880   -2.2450    3.5380 N   0  0  0  0  0  0  0  0  0  0  0  0
    0.6560    2.1540    1.9160 C   0  0  0  0  0  0  0  0  0  0  0  0
   -0.4320    1.9150    2.5280 O   0  0  0  0  0  0  0  0  0  0  0  0
    0.2830    3.2160    4.0670 H   0  0  0  0  0  0  0  0  0  0  0  0
    1.8290    3.9090    4.4220 H   0  0  0  0  0  0  0  0  0  0  0  0
    2.0270    3.8070    2.1610 H   0  0  0  0  0  0  0  0  0  0  0  0
    3.6860    2.5160    3.3960 H   0  0  0  0  0  0  0  0  0  0  0  0
    3.4630    1.7860    1.7760 H   0  0  0  0  0  0  0  0  0  0  0  0
    1.8830    0.0810    2.9130 H   0  0  0  0  0  0  0  0  0  0  0  0
    2.2760    0.8940    4.4710 H   0  0  0  0  0  0  0  0  0  0  0  0
    4.1770   -0.4300    2.4840 H   0  0  0  0  0  0  0  0  0  0  0  0
    4.7230    0.3250    4.0380 H   0  0  0  0  0  0  0  0  0  0  0  0
    3.2860   -1.3370    5.2840 H   0  0  0  0  0  0  0  0  0  0  0  0
    4.5220   -2.0960    4.2520 H   0  0  0  0  0  0  0  0  0  0  0  0
    2.5200   -1.8310    2.5790 H   0  0  0  0  0  0  0  0  0  0  0  0
    2.8140   -3.2660    3.5140 H   0  0  0  0  0  0  0  0  0  0  0  0
   -1.6890    0.5160   -3.1610 C   0  0  0  0  0  0  0  0  0  0  0  0
   -2.0310    1.3840   -2.0240 C   0  0  0  0  0  0  0  0  0  0  0  0
   -0.9030    1.8930   -1.1870 C   0  0  2  0  0  0  0  0  0  0  0  0
    0.1050    2.7020   -1.9670 C   0  0  0  0  0  0  0  0  0  0  0  0
   -0.3850    1.0290   -0.1190 C   0  0  2  0  0  0  0  0  0  0  0  0
    0.7310    1.7260    0.5740 N   0  0  0  0  0  0  0  0  0  0  0  0
    0.0480   -0.3160   -0.3240 C   0  0  0  0  0  0  0  0  0  0  0  0
    1.2800   -0.5720   -0.0670 O   0  0  0  0  0  0  0  0  0  0  0  0
   -0.6250    0.1400   -3.0880 H   0  0  0  0  0  0  0  0  0  0  0  0
   -1.6800    1.1220   -4.1010 H   0  0  0  0  0  0  0  0  0  0  0  0
   -2.3170   -0.3470   -3.3430 H   0  0  0  0  0  0  0  0  0  0  0  0
   -2.7420    0.8770   -1.3050 H   0  0  0  0  0  0  0  0  0  0  0  0
   -2.6730    2.2240   -2.4290 H   0  0  0  0  0  0  0  0  0  0  0  0
   -1.4350    2.7420   -0.6060 H   0  0  0  0  0  0  0  0  0  0  0  0
    0.4650    3.6060   -1.4290 H   0  0  0  0  0  0  0  0  0  0  0  0
    1.0230    2.0860   -2.1300 H   0  0  0  0  0  0  0  0  0  0  0  0
   -0.3110    3.0850   -2.9200 H   0  0  0  0  0  0  0  0  0  0  0  0
   -1.1790    0.9820    0.6880 H   0  0  0  0  0  0  0  0  0  0  0  0
    1.6210    1.9140    0.0530 H   0  0  0  0  0  0  0  0  0  0  0  0
   -6.2820   -4.4530   -0.9350 O   0  0  0  0  0  0  0  0  0  0  0  0
   -4.9230   -4.2710   -0.6960 C   0  0  0  0  0  0  0  0  0  0  0  0
   -3.9750   -5.0400   -1.3370 C   0  0  0  0  0  0  0  0  0  0  0  0
   -2.6260   -4.8870   -1.1260 C   0  0  0  0  0  0  0  0  0  0  0  0
   -2.1560   -3.9390   -0.2430 C   0  0  0  0  0  0  0  0  0  0  0  0
   -0.7000   -3.7530    0.0010 C   0  0  0  0  0  0  0  0  0  0  0  0
   -0.0780   -2.7270   -0.9270 C   0  0  2  0  0  0  0  0  0  0  0  0
   -0.6970   -1.4320   -0.7760 N   0  0  0  0  0  0  0  0  0  0  0  0
   -0.1360   -3.2320   -2.3090 C   0  0  0  0  0  0  0  0  0  0  0  0
    0.4050   -4.3560   -2.5380 O   0  0  0  0  0  0  0  0  0  0  0  0
   -3.1010   -3.1580    0.4100 C   0  0  0  0  0  0  0  0  0  0  0  0
   -4.4460   -3.3270    0.1840 C   0  0  0  0  0  0  0  0  0  0  0  0
   -0.7270   -2.5900   -3.3700 O   0  0  0  0  0  0  0  0  0  0  0  0
   -6.9210   -4.0660   -0.2640 H   0  0  0  0  0  0  0  0  0  0  0  0
   -4.3380   -5.7940   -2.0390 H   0  0  0  0  0  0  0  0  0  0  0  0
   -1.9010   -5.5200   -1.6540 H   0  0  0  0  0  0  0  0  0  0  0  0
   -0.5440   -3.5200    1.0560 H   0  0  0  0  0  0  0  0  0  0  0  0
   -0.2090   -4.7250   -0.2110 H   0  0  0  0  0  0  0  0  0  0  0  0
    0.9900   -2.6470   -0.6610 H   0  0  0  0  0  0  0  0  0  0  0  0
   -1.6900   -1.2400   -0.9640 H   0  0  0  0  0  0  0  0  0  0  0  0
   -2.7690   -2.4050    1.1080 H   0  0  0  0  0  0  0  0  0  0  0  0
   -5.1950   -2.7140    0.6960 H   0  0  0  0  0  0  0  0  0  0  0  0
  1 10  1  0  0  0  0
  1 11  1  0  0  0  0
  2 12  1  6  0  0  0
  2  3  1  0  0  0  0
  2  1  1  0  0  0  0
  3 13  1  0  0  0  0
  3  4  1  0  0  0  0
  4  5  1  0  0  0  0
  4 16  1  0  0  0  0
  5 18  1  0  0  0  0
  5  6  1  0  0  0  0
  6 20  1  0  0  0  0
  6 19  1  0  0  0  0
  7  6  1  0  0  0  0
  8  9  2  0  0  0  0
  8  2  1  0  0  0  0
 14  3  1  0  0  0  0
 15  4  1  0  0  0  0
 17  5  1  0  0  0  0
 21  7  1  0  0  0  0
 22  7  1  0  0  0  0
 23 31  1  0  0  0  0
 23 24  1  0  0  0  0
 24 34  1  0  0  0  0
 24 25  1  0  0  0  0
 25 36  1  1  0  0  0
 25 27  1  0  0  0  0
 26 37  1  0  0  0  0
 26 25  1  0  0  0  0
 27 28  1  0  0  0  0
 27 40  1  1  0  0  0
 28  8  1  0  0  0  0
 29 27  1  0  0  0  0
 29 30  2  0  0  0  0
 32 23  1  0  0  0  0
 33 23  1  0  0  0  0
 35 24  1  0  0  0  0
 38 26  1  0  0  0  0
 39 26  1  0  0  0  0
 41 28  1  0  0  0  0
 42 43  1  0  0  0  0
 42 55  1  0  0  0  0
 43 53  1  0  0  0  0
 44 45  1  0  0  0  0
 44 43  2  0  0  0  0
 45 46  2  0  0  0  0
 46 47  1  0  0  0  0
 46 52  1  0  0  0  0
 47 58  1  0  0  0  0
 48 49  1  0  0  0  0
 48 60  1  1  0  0  0
 48 47  1  0  0  0  0
 49 29  1  0  0  0  0
 50 48  1  0  0  0  0
 51 50  1  0  0  0  0
 52 62  1  0  0  0  0
 53 52  2  0  0  0  0
 53 63  1  0  0  0  0
 54 50  2  0  0  0  0
 56 44  1  0  0  0  0
 57 45  1  0  0  0  0
 59 47  1  0  0  0  0
 61 49  1  0  0  0  0
M  END
$$$$
