KKA.pdb
 OpenBabel07022418513D

 54 53  0  0  1  0  0  0  0  0999 V2000
    1.2160   -1.7790    4.2600 N   0  0  0  0  0  0  0  0  0  0  0  0
    1.3860   -1.5530    2.8340 C   0  0  1  0  0  0  0  0  0  0  0  0
    1.7080   -2.8990    2.2410 C   0  0  0  0  0  0  0  0  0  0  0  0
    1.9580   -2.9390    0.7870 C   0  0  0  0  0  0  0  0  0  0  0  0
    3.1260   -2.1280    0.3120 C   0  0  0  0  0  0  0  0  0  0  0  0
    4.4320   -2.5890    0.9360 C   0  0  0  0  0  0  0  0  0  0  0  0
    4.7420   -3.9520    0.6370 N   0  0  0  0  0  0  0  0  0  0  0  0
    0.1670   -0.9240    2.2900 C   0  0  0  0  0  0  0  0  0  0  0  0
   -0.8900   -0.9590    3.0110 O   0  0  0  0  0  0  0  0  0  0  0  0
    1.1650   -2.7610    4.5280 H   0  0  0  0  0  0  0  0  0  0  0  0
    0.5710   -1.1300    4.7150 H   0  0  0  0  0  0  0  0  0  0  0  0
    2.2660   -0.9020    2.7080 H   0  0  0  0  0  0  0  0  0  0  0  0
    0.7880   -3.5300    2.4300 H   0  0  0  0  0  0  0  0  0  0  0  0
    2.4910   -3.3920    2.8570 H   0  0  0  0  0  0  0  0  0  0  0  0
    2.1180   -3.9990    0.4210 H   0  0  0  0  0  0  0  0  0  0  0  0
    1.0540   -2.6070    0.2490 H   0  0  0  0  0  0  0  0  0  0  0  0
    3.2280   -2.3030   -0.7810 H   0  0  0  0  0  0  0  0  0  0  0  0
    3.0680   -1.0560    0.4740 H   0  0  0  0  0  0  0  0  0  0  0  0
    4.4660   -2.3920    2.0260 H   0  0  0  0  0  0  0  0  0  0  0  0
    5.2280   -1.9520    0.4810 H   0  0  0  0  0  0  0  0  0  0  0  0
    5.1350   -4.0690   -0.3060 H   0  0  0  0  0  0  0  0  0  0  0  0
    4.0170   -4.6310    0.8970 H   0  0  0  0  0  0  0  0  0  0  0  0
    0.0510   -0.2760    1.0450 N   0  0  0  0  0  0  0  0  0  0  0  0
   -1.2320    0.3220    0.6220 C   0  0  1  0  0  0  0  0  0  0  0  0
   -1.0150    1.8100    0.8090 C   0  0  0  0  0  0  0  0  0  0  0  0
   -2.1620    2.6650    0.4550 C   0  0  0  0  0  0  0  0  0  0  0  0
   -3.4270    2.4400    1.2020 C   0  0  0  0  0  0  0  0  0  0  0  0
   -3.2710    2.6520    2.7000 C   0  0  0  0  0  0  0  0  0  0  0  0
   -4.5900    2.3930    3.2790 N   0  0  0  0  0  0  0  0  0  0  0  0
   -1.4760   -0.0470   -0.7650 C   0  0  0  0  0  0  0  0  0  0  0  0
   -2.6140    0.3260   -1.2480 O   0  0  0  0  0  0  0  0  0  0  0  0
    0.8890   -0.2240    0.4330 H   0  0  0  0  0  0  0  0  0  0  0  0
   -1.9740   -0.0390    1.3350 H   0  0  0  0  0  0  0  0  0  0  0  0
   -0.7590    1.9540    1.8770 H   0  0  0  0  0  0  0  0  0  0  0  0
   -0.1120    2.0770    0.2280 H   0  0  0  0  0  0  0  0  0  0  0  0
   -2.3840    2.5610   -0.6290 H   0  0  0  0  0  0  0  0  0  0  0  0
   -1.8980    3.7490    0.5790 H   0  0  0  0  0  0  0  0  0  0  0  0
   -4.1390    3.2560    0.8700 H   0  0  0  0  0  0  0  0  0  0  0  0
   -3.9520    1.5000    0.9750 H   0  0  0  0  0  0  0  0  0  0  0  0
   -2.4820    2.0410    3.1440 H   0  0  0  0  0  0  0  0  0  0  0  0
   -3.0470    3.7120    2.9390 H   0  0  0  0  0  0  0  0  0  0  0  0
   -4.6500    1.4620    3.7100 H   0  0  0  0  0  0  0  0  0  0  0  0
   -5.3510    2.6180    2.6250 H   0  0  0  0  0  0  0  0  0  0  0  0
   -0.1530   -0.3390   -4.0060 C   0  0  0  0  0  0  0  0  0  0  0  0
   -1.0600   -1.0320   -3.0060 C   0  0  2  0  0  0  0  0  0  0  0  0
   -0.6430   -0.7490   -1.6440 N   0  0  0  0  0  0  0  0  0  0  0  0
   -1.1390   -2.4840   -3.2520 C   0  0  0  0  0  0  0  0  0  0  0  0
   -1.4790   -2.9520   -4.3620 O   0  0  0  0  0  0  0  0  0  0  0  0
   -0.8250   -3.3470   -2.2120 O   0  0  0  0  0  0  0  0  0  0  0  0
    0.9150   -0.5130   -3.8130 H   0  0  0  0  0  0  0  0  0  0  0  0
   -0.4540   -0.7440   -5.0120 H   0  0  0  0  0  0  0  0  0  0  0  0
   -0.4370    0.7320   -4.0290 H   0  0  0  0  0  0  0  0  0  0  0  0
   -2.0690   -0.6070   -3.1520 H   0  0  0  0  0  0  0  0  0  0  0  0
    0.2850   -1.0560   -1.2960 H   0  0  0  0  0  0  0  0  0  0  0  0
  1 10  1  0  0  0  0
  1 11  1  0  0  0  0
  2 12  1  6  0  0  0
  2  1  1  0  0  0  0
  3 13  1  0  0  0  0
  3  2  1  0  0  0  0
  3 14  1  0  0  0  0
  4  3  1  0  0  0  0
  5 18  1  0  0  0  0
  5  4  1  0  0  0  0
  5  6  1  0  0  0  0
  6 19  1  0  0  0  0
  7 22  1  0  0  0  0
  7  6  1  0  0  0  0
  8  2  1  0  0  0  0
  8  9  2  0  0  0  0
 15  4  1  0  0  0  0
 16  4  1  0  0  0  0
 17  5  1  0  0  0  0
 20  6  1  0  0  0  0
 21  7  1  0  0  0  0
 23  8  1  0  0  0  0
 24 25  1  0  0  0  0
 24 23  1  0  0  0  0
 24 33  1  1  0  0  0
 25 34  1  0  0  0  0
 26 37  1  0  0  0  0
 26 25  1  0  0  0  0
 26 27  1  0  0  0  0
 27 28  1  0  0  0  0
 28 41  1  0  0  0  0
 28 40  1  0  0  0  0
 28 29  1  0  0  0  0
 29 42  1  0  0  0  0
 30 24  1  0  0  0  0
 31 30  2  0  0  0  0
 32 23  1  0  0  0  0
 35 25  1  0  0  0  0
 36 26  1  0  0  0  0
 38 27  1  0  0  0  0
 39 27  1  0  0  0  0
 43 29  1  0  0  0  0
 44 50  1  0  0  0  0
 44 45  1  0  0  0  0
 45 53  1  6  0  0  0
 45 46  1  0  0  0  0
 46 54  1  0  0  0  0
 46 30  1  0  0  0  0
 47 45  1  0  0  0  0
 47 49  1  0  0  0  0
 48 47  2  0  0  0  0
 51 44  1  0  0  0  0
 52 44  1  0  0  0  0
M  END
$$$$
