KKE.pdb
 OpenBabel07022418513D

 60 59  0  0  1  0  0  0  0  0999 V2000
    0.9230    1.7120    4.7270 N   0  0  0  0  0  0  0  0  0  0  0  0
    0.7160    1.8690    3.3010 C   0  0  1  0  0  0  0  0  0  0  0  0
    1.9750    1.8860    2.5150 C   0  0  0  0  0  0  0  0  0  0  0  0
    2.8510    0.7050    2.5660 C   0  0  0  0  0  0  0  0  0  0  0  0
    3.3590    0.3720    3.9480 C   0  0  0  0  0  0  0  0  0  0  0  0
    4.2660   -0.8680    3.8240 C   0  0  0  0  0  0  0  0  0  0  0  0
    3.5160   -1.9790    3.2900 N   0  0  0  0  0  0  0  0  0  0  0  0
   -0.2790    0.8930    2.8540 C   0  0  0  0  0  0  0  0  0  0  0  0
   -0.7890    0.1090    3.6800 O   0  0  0  0  0  0  0  0  0  0  0  0
    0.1000    1.3150    5.2140 H   0  0  0  0  0  0  0  0  0  0  0  0
    1.2190    2.5960    5.1900 H   0  0  0  0  0  0  0  0  0  0  0  0
    0.2280    2.8920    3.2060 H   0  0  0  0  0  0  0  0  0  0  0  0
    2.5780    2.7630    2.9010 H   0  0  0  0  0  0  0  0  0  0  0  0
    1.7410    2.1870    1.4630 H   0  0  0  0  0  0  0  0  0  0  0  0
    3.7830    0.9620    1.9770 H   0  0  0  0  0  0  0  0  0  0  0  0
    2.4570   -0.1920    2.0420 H   0  0  0  0  0  0  0  0  0  0  0  0
    2.5630    0.0600    4.6550 H   0  0  0  0  0  0  0  0  0  0  0  0
    3.9380    1.2060    4.3490 H   0  0  0  0  0  0  0  0  0  0  0  0
    5.0760   -0.5710    3.1160 H   0  0  0  0  0  0  0  0  0  0  0  0
    4.6620   -1.1440    4.8270 H   0  0  0  0  0  0  0  0  0  0  0  0
    3.4790   -1.9480    2.2280 H   0  0  0  0  0  0  0  0  0  0  0  0
    3.9560   -2.8810    3.6060 H   0  0  0  0  0  0  0  0  0  0  0  0
   -0.6960    0.7980    1.5040 N   0  0  0  0  0  0  0  0  0  0  0  0
   -1.6980   -0.1860    1.0590 C   0  0  1  0  0  0  0  0  0  0  0  0
   -2.9320    0.4830    0.6100 C   0  0  0  0  0  0  0  0  0  0  0  0
   -2.8550    1.4510   -0.5050 C   0  0  0  0  0  0  0  0  0  0  0  0
   -2.3670    0.8870   -1.8160 C   0  0  0  0  0  0  0  0  0  0  0  0
   -2.3370    1.9760   -2.8870 C   0  0  0  0  0  0  0  0  0  0  0  0
   -1.8600    1.3720   -4.1220 N   0  0  0  0  0  0  0  0  0  0  0  0
   -1.0730   -1.1510    0.1460 C   0  0  0  0  0  0  0  0  0  0  0  0
    0.1770   -1.0590   -0.1230 O   0  0  0  0  0  0  0  0  0  0  0  0
   -0.2870    1.4390    0.7980 H   0  0  0  0  0  0  0  0  0  0  0  0
   -2.0150   -0.7790    1.9960 H   0  0  0  0  0  0  0  0  0  0  0  0
   -3.6340   -0.3430    0.2630 H   0  0  0  0  0  0  0  0  0  0  0  0
   -3.4610    0.8920    1.5020 H   0  0  0  0  0  0  0  0  0  0  0  0
   -3.9190    1.7800   -0.7150 H   0  0  0  0  0  0  0  0  0  0  0  0
   -2.3360    2.4000   -0.2490 H   0  0  0  0  0  0  0  0  0  0  0  0
   -3.0170    0.0490   -2.1650 H   0  0  0  0  0  0  0  0  0  0  0  0
   -1.3480    0.4840   -1.6940 H   0  0  0  0  0  0  0  0  0  0  0  0
   -3.3810    2.3140   -3.0480 H   0  0  0  0  0  0  0  0  0  0  0  0
   -1.6700    2.7620   -2.5280 H   0  0  0  0  0  0  0  0  0  0  0  0
   -0.8420    1.1290   -3.9660 H   0  0  0  0  0  0  0  0  0  0  0  0
   -2.4220    0.5150   -4.3200 H   0  0  0  0  0  0  0  0  0  0  0  0
   -1.7620   -2.2240   -0.4900 N   0  0  0  0  0  0  0  0  0  0  0  0
   -1.0400   -3.1450   -1.3900 C   0  0  1  0  0  0  0  0  0  0  0  0
   -1.0220   -4.5210   -0.7220 C   0  0  0  0  0  0  0  0  0  0  0  0
   -0.3230   -5.5690   -1.5110 C   0  0  0  0  0  0  0  0  0  0  0  0
    1.0990   -5.2940   -1.7870 C   0  0  0  0  0  0  0  0  0  0  0  0
    1.7400   -4.2880   -1.4030 O   0  0  0  0  0  0  0  0  0  0  0  0
   -1.8110   -3.2680   -2.6370 C   0  0  0  0  0  0  0  0  0  0  0  0
   -1.4180   -3.9540   -3.5980 O   0  0  0  0  0  0  0  0  0  0  0  0
    1.7780   -6.2620   -2.5530 O   0  0  0  0  0  0  0  0  0  0  0  0
   -3.0170   -2.6080   -2.7670 O   0  0  0  0  0  0  0  0  0  0  0  0
   -2.7780   -2.3240   -0.2930 H   0  0  0  0  0  0  0  0  0  0  0  0
   -0.0100   -2.7910   -1.5050 H   0  0  0  0  0  0  0  0  0  0  0  0
   -2.1060   -4.8250   -0.6750 H   0  0  0  0  0  0  0  0  0  0  0  0
   -0.5680   -4.4630    0.2710 H   0  0  0  0  0  0  0  0  0  0  0  0
   -0.8250   -5.8680   -2.4570 H   0  0  0  0  0  0  0  0  0  0  0  0
   -0.3180   -6.5360   -0.9120 H   0  0  0  0  0  0  0  0  0  0  0  0
    2.7140   -6.0980   -2.8820 H   0  0  0  0  0  0  0  0  0  0  0  0
  1 11  1  0  0  0  0
  1 10  1  0  0  0  0
  2 12  1  6  0  0  0
  2  1  1  0  0  0  0
  3  4  1  0  0  0  0
  3 13  1  0  0  0  0
  3  2  1  0  0  0  0
  4  5  1  0  0  0  0
  5 18  1  0  0  0  0
  5 17  1  0  0  0  0
  6  5  1  0  0  0  0
  6 20  1  0  0  0  0
  7 22  1  0  0  0  0
  7  6  1  0  0  0  0
  8  2  1  0  0  0  0
  8  9  2  0  0  0  0
 14  3  1  0  0  0  0
 15  4  1  0  0  0  0
 16  4  1  0  0  0  0
 19  6  1  0  0  0  0
 21  7  1  0  0  0  0
 23  8  1  0  0  0  0
 24 23  1  0  0  0  0
 24 33  1  1  0  0  0
 25 24  1  0  0  0  0
 25 35  1  0  0  0  0
 26 37  1  0  0  0  0
 26 25  1  0  0  0  0
 27 39  1  0  0  0  0
 27 26  1  0  0  0  0
 28 41  1  0  0  0  0
 28 27  1  0  0  0  0
 29 42  1  0  0  0  0
 29 28  1  0  0  0  0
 30 24  1  0  0  0  0
 31 30  2  0  0  0  0
 32 23  1  0  0  0  0
 34 25  1  0  0  0  0
 36 26  1  0  0  0  0
 38 27  1  0  0  0  0
 40 28  1  0  0  0  0
 43 29  1  0  0  0  0
 44 54  1  0  0  0  0
 44 30  1  0  0  0  0
 45 55  1  6  0  0  0
 45 46  1  0  0  0  0
 45 44  1  0  0  0  0
 46 56  1  0  0  0  0
 46 57  1  0  0  0  0
 47 59  1  0  0  0  0
 47 46  1  0  0  0  0
 48 47  1  0  0  0  0
 48 49  2  0  0  0  0
 50 45  1  0  0  0  0
 51 50  2  0  0  0  0
 52 48  1  0  0  0  0
 53 50  1  0  0  0  0
 58 47  1  0  0  0  0
 60 52  1  0  0  0  0
M  END
$$$$
