KKG.pdb
 OpenBabel07022418513D

 51 50  0  0  1  0  0  0  0  0999 V2000
    0.6090   -3.6790    3.2550 N   0  0  0  0  0  0  0  0  0  0  0  0
    1.2780   -2.5060    2.7690 C   0  0  1  0  0  0  0  0  0  0  0  0
    2.1240   -2.9160    1.5870 C   0  0  0  0  0  0  0  0  0  0  0  0
    1.2240   -3.5040    0.5020 C   0  0  0  0  0  0  0  0  0  0  0  0
    2.1370   -3.8900   -0.6450 C   0  0  0  0  0  0  0  0  0  0  0  0
    1.3690   -4.4930   -1.8010 C   0  0  0  0  0  0  0  0  0  0  0  0
    2.3290   -4.8210   -2.8310 N   0  0  0  0  0  0  0  0  0  0  0  0
    0.3020   -1.4680    2.4430 C   0  0  0  0  0  0  0  0  0  0  0  0
   -0.9330   -1.7400    2.6270 O   0  0  0  0  0  0  0  0  0  0  0  0
   -0.3100   -3.8380    2.8220 H   0  0  0  0  0  0  0  0  0  0  0  0
    0.5510   -3.6540    4.3070 H   0  0  0  0  0  0  0  0  0  0  0  0
    1.9870   -2.0780    3.5240 H   0  0  0  0  0  0  0  0  0  0  0  0
    2.7550   -2.1090    1.1990 H   0  0  0  0  0  0  0  0  0  0  0  0
    2.7950   -3.7270    1.9360 H   0  0  0  0  0  0  0  0  0  0  0  0
    0.4460   -2.7960    0.1920 H   0  0  0  0  0  0  0  0  0  0  0  0
    0.7270   -4.4050    0.9140 H   0  0  0  0  0  0  0  0  0  0  0  0
    2.6970   -3.0170   -1.0340 H   0  0  0  0  0  0  0  0  0  0  0  0
    2.8920   -4.5820   -0.2270 H   0  0  0  0  0  0  0  0  0  0  0  0
    0.7700   -5.3620   -1.4910 H   0  0  0  0  0  0  0  0  0  0  0  0
    0.6870   -3.6880   -2.1780 H   0  0  0  0  0  0  0  0  0  0  0  0
    3.1770   -4.2360   -2.7290 H   0  0  0  0  0  0  0  0  0  0  0  0
    1.9150   -4.7830   -3.7880 H   0  0  0  0  0  0  0  0  0  0  0  0
    0.6900   -0.1960    1.9400 N   0  0  0  0  0  0  0  0  0  0  0  0
   -0.3640    0.7940    1.6380 C   0  0  1  0  0  0  0  0  0  0  0  0
   -0.1260    2.0520    2.3750 C   0  0  0  0  0  0  0  0  0  0  0  0
   -1.1510    3.1050    2.1970 C   0  0  0  0  0  0  0  0  0  0  0  0
   -2.5080    2.9280    2.6930 C   0  0  0  0  0  0  0  0  0  0  0  0
   -3.4310    1.8820    2.2960 C   0  0  0  0  0  0  0  0  0  0  0  0
   -3.8140    1.7630    0.9300 N   0  0  0  0  0  0  0  0  0  0  0  0
   -0.3170    1.0550    0.1580 C   0  0  0  0  0  0  0  0  0  0  0  0
   -1.0550    1.8400   -0.4320 O   0  0  0  0  0  0  0  0  0  0  0  0
    1.6990   -0.0160    1.8070 H   0  0  0  0  0  0  0  0  0  0  0  0
   -1.3160    0.3480    1.8680 H   0  0  0  0  0  0  0  0  0  0  0  0
    0.1020    1.8670    3.4680 H   0  0  0  0  0  0  0  0  0  0  0  0
    0.8560    2.5160    2.0070 H   0  0  0  0  0  0  0  0  0  0  0  0
   -1.0780    3.4640    1.1360 H   0  0  0  0  0  0  0  0  0  0  0  0
   -0.7080    4.0230    2.7550 H   0  0  0  0  0  0  0  0  0  0  0  0
   -2.4210    2.8630    3.8410 H   0  0  0  0  0  0  0  0  0  0  0  0
   -3.0720    3.9270    2.5760 H   0  0  0  0  0  0  0  0  0  0  0  0
   -4.4440    2.1790    2.8110 H   0  0  0  0  0  0  0  0  0  0  0  0
   -3.3080    0.8650    2.7290 H   0  0  0  0  0  0  0  0  0  0  0  0
   -3.5920    2.5300    0.3000 H   0  0  0  0  0  0  0  0  0  0  0  0
   -3.4190    0.8810    0.5460 H   0  0  0  0  0  0  0  0  0  0  0  0
    0.6460    0.3480   -0.6310 N   0  0  0  0  0  0  0  0  0  0  0  0
    0.7150    0.5760   -2.0550 C   0  0  0  0  0  0  0  0  0  0  0  0
   -0.5760    0.2310   -2.6890 C   0  0  0  0  0  0  0  0  0  0  0  0
   -1.5500   -0.1920   -2.0390 O   0  0  0  0  0  0  0  0  0  0  0  0
   -0.7410    0.3730   -4.0640 O   0  0  0  0  0  0  0  0  0  0  0  0
    1.3000   -0.3280   -0.2100 H   0  0  0  0  0  0  0  0  0  0  0  0
    0.9250    1.6610   -2.2400 H   0  0  0  0  0  0  0  0  0  0  0  0
    1.4940   -0.0400   -2.5390 H   0  0  0  0  0  0  0  0  0  0  0  0
  1 11  1  0  0  0  0
  2  1  1  0  0  0  0
  2 12  1  1  0  0  0
  3 14  1  0  0  0  0
  3  2  1  0  0  0  0
  4 16  1  0  0  0  0
  4  3  1  0  0  0  0
  5 18  1  0  0  0  0
  5  4  1  0  0  0  0
  6 19  1  0  0  0  0
  6  5  1  0  0  0  0
  7 21  1  0  0  0  0
  7  6  1  0  0  0  0
  8  9  2  0  0  0  0
  8  2  1  0  0  0  0
 10  1  1  0  0  0  0
 13  3  1  0  0  0  0
 15  4  1  0  0  0  0
 17  5  1  0  0  0  0
 20  6  1  0  0  0  0
 22  7  1  0  0  0  0
 23  8  1  0  0  0  0
 24 33  1  1  0  0  0
 24 23  1  0  0  0  0
 24 25  1  0  0  0  0
 25 34  1  0  0  0  0
 26 25  1  0  0  0  0
 26 27  1  0  0  0  0
 26 37  1  0  0  0  0
 27 38  1  0  0  0  0
 28 27  1  0  0  0  0
 28 41  1  0  0  0  0
 28 40  1  0  0  0  0
 29 28  1  0  0  0  0
 30 24  1  0  0  0  0
 31 30  2  0  0  0  0
 32 23  1  0  0  0  0
 35 25  1  0  0  0  0
 36 26  1  0  0  0  0
 39 27  1  0  0  0  0
 42 29  1  0  0  0  0
 43 29  1  0  0  0  0
 44 49  1  0  0  0  0
 44 30  1  0  0  0  0
 45 44  1  0  0  0  0
 46 45  1  0  0  0  0
 46 47  1  0  0  0  0
 48 46  2  0  0  0  0
 50 45  1  0  0  0  0
 51 45  1  0  0  0  0
M  END
$$$$
