KKK.pdb
 OpenBabel07022418513D

 65 64  0  0  1  0  0  0  0  0999 V2000
    0.4830    2.6530    3.4820 N   0  0  0  0  0  0  0  0  0  0  0  0
    1.4480    2.1140    2.5060 C   0  0  1  0  0  0  0  0  0  0  0  0
    2.5010    1.3410    3.2300 C   0  0  0  0  0  0  0  0  0  0  0  0
    3.5640    0.7320    2.3730 C   0  0  0  0  0  0  0  0  0  0  0  0
    4.5250    0.0100    3.3280 C   0  0  0  0  0  0  0  0  0  0  0  0
    5.6450   -0.6430    2.5430 C   0  0  0  0  0  0  0  0  0  0  0  0
    6.5710   -1.3310    3.3890 N   0  0  0  0  0  0  0  0  0  0  0  0
    0.6650    1.2620    1.5390 C   0  0  0  0  0  0  0  0  0  0  0  0
    1.3090    0.7830    0.5900 O   0  0  0  0  0  0  0  0  0  0  0  0
    0.8900    3.4810    3.9720 H   0  0  0  0  0  0  0  0  0  0  0  0
    0.2580    1.9010    4.1660 H   0  0  0  0  0  0  0  0  0  0  0  0
    1.9030    2.9810    2.0110 H   0  0  0  0  0  0  0  0  0  0  0  0
    3.0070    1.9960    3.9660 H   0  0  0  0  0  0  0  0  0  0  0  0
    2.0520    0.4890    3.8220 H   0  0  0  0  0  0  0  0  0  0  0  0
    4.1260    1.5440    1.8900 H   0  0  0  0  0  0  0  0  0  0  0  0
    3.2220    0.0390    1.6010 H   0  0  0  0  0  0  0  0  0  0  0  0
    4.0020   -0.7690    3.9100 H   0  0  0  0  0  0  0  0  0  0  0  0
    4.9870    0.7620    3.9870 H   0  0  0  0  0  0  0  0  0  0  0  0
    5.2280   -1.3240    1.7780 H   0  0  0  0  0  0  0  0  0  0  0  0
    6.2120    0.1440    1.9930 H   0  0  0  0  0  0  0  0  0  0  0  0
    7.5180   -1.4300    3.0130 H   0  0  0  0  0  0  0  0  0  0  0  0
    6.1570   -2.1890    3.7940 H   0  0  0  0  0  0  0  0  0  0  0  0
   -0.7070    1.0300    1.7110 N   0  0  0  0  0  0  0  0  0  0  0  0
   -1.5470    0.2290    0.8720 C   0  0  1  0  0  0  0  0  0  0  0  0
   -2.4970    1.0440    0.0630 C   0  0  0  0  0  0  0  0  0  0  0  0
   -1.8890    2.0230   -0.8800 C   0  0  0  0  0  0  0  0  0  0  0  0
   -1.0190    1.4600   -1.9450 C   0  0  0  0  0  0  0  0  0  0  0  0
   -0.5080    2.6450   -2.7760 C   0  0  0  0  0  0  0  0  0  0  0  0
    0.3580    2.1790   -3.8490 N   0  0  0  0  0  0  0  0  0  0  0  0
   -0.9390   -0.9220    0.2140 C   0  0  0  0  0  0  0  0  0  0  0  0
    0.2240   -1.3110    0.4210 O   0  0  0  0  0  0  0  0  0  0  0  0
   -1.1510    1.5230    2.5800 H   0  0  0  0  0  0  0  0  0  0  0  0
   -2.2600   -0.2900    1.6620 H   0  0  0  0  0  0  0  0  0  0  0  0
   -3.1330    1.6700    0.7740 H   0  0  0  0  0  0  0  0  0  0  0  0
   -3.2560    0.4700   -0.5020 H   0  0  0  0  0  0  0  0  0  0  0  0
   -2.7490    2.5360   -1.3970 H   0  0  0  0  0  0  0  0  0  0  0  0
   -1.3350    2.8410   -0.3780 H   0  0  0  0  0  0  0  0  0  0  0  0
   -1.6500    0.8740   -2.6800 H   0  0  0  0  0  0  0  0  0  0  0  0
   -0.2290    0.7840   -1.6470 H   0  0  0  0  0  0  0  0  0  0  0  0
   -1.3610    3.2140   -3.1940 H   0  0  0  0  0  0  0  0  0  0  0  0
    0.0940    3.3410   -2.1560 H   0  0  0  0  0  0  0  0  0  0  0  0
    1.2650    1.8610   -3.4710 H   0  0  0  0  0  0  0  0  0  0  0  0
   -0.1540    1.4480   -4.3700 H   0  0  0  0  0  0  0  0  0  0  0  0
   -1.6850   -1.7090   -0.7540 N   0  0  0  0  0  0  0  0  0  0  0  0
   -1.0900   -2.8420   -1.4020 C   0  0  1  0  0  0  0  0  0  0  0  0
   -1.5790   -4.1080   -0.8500 C   0  0  0  0  0  0  0  0  0  0  0  0
   -2.9750   -4.5030   -0.8860 C   0  0  0  0  0  0  0  0  0  0  0  0
   -4.0370   -3.7300   -0.2390 C   0  0  0  0  0  0  0  0  0  0  0  0
   -3.8650   -3.5360    1.2500 C   0  0  0  0  0  0  0  0  0  0  0  0
   -3.8220   -4.7670    1.9760 N   0  0  0  0  0  0  0  0  0  0  0  0
   -1.1280   -2.7500   -2.8800 C   0  0  0  0  0  0  0  0  0  0  0  0
   -1.6450   -1.7570   -3.4520 O   0  0  0  0  0  0  0  0  0  0  0  0
   -0.5860   -3.7720   -3.6420 O   0  0  0  0  0  0  0  0  0  0  0  0
   -2.6470   -1.3650   -0.9220 H   0  0  0  0  0  0  0  0  0  0  0  0
    0.0220   -2.7950   -1.1530 H   0  0  0  0  0  0  0  0  0  0  0  0
   -0.9900   -4.9390   -1.3690 H   0  0  0  0  0  0  0  0  0  0  0  0
   -1.1480   -4.1850    0.2060 H   0  0  0  0  0  0  0  0  0  0  0  0
   -3.2950   -4.6960   -1.9630 H   0  0  0  0  0  0  0  0  0  0  0  0
   -3.0360   -5.5580   -0.4550 H   0  0  0  0  0  0  0  0  0  0  0  0
   -4.9690   -4.4100   -0.3000 H   0  0  0  0  0  0  0  0  0  0  0  0
   -4.3900   -2.8090   -0.6790 H   0  0  0  0  0  0  0  0  0  0  0  0
   -4.6770   -2.9050    1.6650 H   0  0  0  0  0  0  0  0  0  0  0  0
   -2.9190   -2.9720    1.4450 H   0  0  0  0  0  0  0  0  0  0  0  0
   -2.8180   -5.1200    1.9930 H   0  0  0  0  0  0  0  0  0  0  0  0
   -4.0630   -4.6100    2.9800 H   0  0  0  0  0  0  0  0  0  0  0  0
  1 10  1  0  0  0  0
  1 11  1  0  0  0  0
  2 12  1  6  0  0  0
  2  3  1  0  0  0  0
  2  1  1  0  0  0  0
  3 14  1  0  0  0  0
  3 13  1  0  0  0  0
  4  3  1  0  0  0  0
  4  5  1  0  0  0  0
  5 17  1  0  0  0  0
  5 18  1  0  0  0  0
  6  5  1  0  0  0  0
  6  7  1  0  0  0  0
  7 22  1  0  0  0  0
  8 23  1  0  0  0  0
  8  2  1  0  0  0  0
  9  8  2  0  0  0  0
 15  4  1  0  0  0  0
 16  4  1  0  0  0  0
 19  6  1  0  0  0  0
 20  6  1  0  0  0  0
 21  7  1  0  0  0  0
 23 32  1  0  0  0  0
 24 33  1  1  0  0  0
 24 23  1  0  0  0  0
 25 34  1  0  0  0  0
 25 24  1  0  0  0  0
 26 37  1  0  0  0  0
 26 25  1  0  0  0  0
 27 39  1  0  0  0  0
 27 26  1  0  0  0  0
 28 41  1  0  0  0  0
 28 27  1  0  0  0  0
 29 42  1  0  0  0  0
 29 28  1  0  0  0  0
 30 31  2  0  0  0  0
 30 24  1  0  0  0  0
 35 25  1  0  0  0  0
 36 26  1  0  0  0  0
 38 27  1  0  0  0  0
 40 28  1  0  0  0  0
 43 29  1  0  0  0  0
 44 30  1  0  0  0  0
 45 55  1  1  0  0  0
 45 46  1  0  0  0  0
 45 44  1  0  0  0  0
 46 57  1  0  0  0  0
 47 46  1  0  0  0  0
 47 59  1  0  0  0  0
 47 48  1  0  0  0  0
 48 49  1  0  0  0  0
 49 63  1  0  0  0  0
 49 62  1  0  0  0  0
 49 50  1  0  0  0  0
 50 64  1  0  0  0  0
 50 65  1  0  0  0  0
 51 45  1  0  0  0  0
 52 51  1  0  0  0  0
 53 51  2  0  0  0  0
 54 44  1  0  0  0  0
 56 46  1  0  0  0  0
 58 47  1  0  0  0  0
 60 48  1  0  0  0  0
 61 48  1  0  0  0  0
M  END
$$$$
