KKM.pdb
 OpenBabel07022418513D

 61 60  0  0  1  0  0  0  0  0999 V2000
    2.4360   -1.9210    0.2940 N   0  0  0  0  0  0  0  0  0  0  0  0
    2.3190   -1.7200    1.7240 C   0  0  1  0  0  0  0  0  0  0  0  0
    3.5090   -0.9340    2.2590 C   0  0  0  0  0  0  0  0  0  0  0  0
    3.5380    0.4060    1.5620 C   0  0  0  0  0  0  0  0  0  0  0  0
    4.6940    1.2470    2.0430 C   0  0  0  0  0  0  0  0  0  0  0  0
    6.0320    0.5900    1.7900 C   0  0  0  0  0  0  0  0  0  0  0  0
    6.1730    0.3800    0.3690 N   0  0  0  0  0  0  0  0  0  0  0  0
    1.0310   -1.0960    2.0890 C   0  0  0  0  0  0  0  0  0  0  0  0
    0.7940   -0.8580    3.3060 O   0  0  0  0  0  0  0  0  0  0  0  0
    1.9230   -2.8150    0.0690 H   0  0  0  0  0  0  0  0  0  0  0  0
    3.4390   -2.1140    0.0920 H   0  0  0  0  0  0  0  0  0  0  0  0
    2.3590   -2.7150    2.1920 H   0  0  0  0  0  0  0  0  0  0  0  0
    3.3920   -0.8190    3.3520 H   0  0  0  0  0  0  0  0  0  0  0  0
    4.4400   -1.5040    2.0520 H   0  0  0  0  0  0  0  0  0  0  0  0
    3.6090    0.2850    0.4630 H   0  0  0  0  0  0  0  0  0  0  0  0
    2.6080    0.9580    1.8480 H   0  0  0  0  0  0  0  0  0  0  0  0
    4.5890    1.4630    3.1450 H   0  0  0  0  0  0  0  0  0  0  0  0
    4.7210    2.2350    1.5580 H   0  0  0  0  0  0  0  0  0  0  0  0
    6.0850   -0.3550    2.3510 H   0  0  0  0  0  0  0  0  0  0  0  0
    6.8380    1.2510    2.1880 H   0  0  0  0  0  0  0  0  0  0  0  0
    5.8520   -0.5700    0.0790 H   0  0  0  0  0  0  0  0  0  0  0  0
    5.7580    1.1340   -0.1990 H   0  0  0  0  0  0  0  0  0  0  0  0
    0.0400   -0.7460    1.1570 N   0  0  0  0  0  0  0  0  0  0  0  0
   -1.2050   -0.1360    1.5770 C   0  0  1  0  0  0  0  0  0  0  0  0
   -1.2140    1.2920    1.0590 C   0  0  0  0  0  0  0  0  0  0  0  0
   -2.4390    2.0440    1.4210 C   0  0  0  0  0  0  0  0  0  0  0  0
   -2.3450    3.4680    0.8790 C   0  0  0  0  0  0  0  0  0  0  0  0
   -2.2160    3.5380   -0.6070 C   0  0  0  0  0  0  0  0  0  0  0  0
   -2.1430    4.9430   -0.9690 N   0  0  0  0  0  0  0  0  0  0  0  0
   -2.3710   -0.9280    1.1690 C   0  0  0  0  0  0  0  0  0  0  0  0
   -3.5190   -0.5660    1.4980 O   0  0  0  0  0  0  0  0  0  0  0  0
    0.1890   -0.9210    0.1550 H   0  0  0  0  0  0  0  0  0  0  0  0
   -1.1620   -0.0390    2.6870 H   0  0  0  0  0  0  0  0  0  0  0  0
   -0.3570    1.7990    1.5840 H   0  0  0  0  0  0  0  0  0  0  0  0
   -0.9510    1.3340   -0.0170 H   0  0  0  0  0  0  0  0  0  0  0  0
   -2.5040    2.1350    2.5160 H   0  0  0  0  0  0  0  0  0  0  0  0
   -3.3850    1.6410    0.9960 H   0  0  0  0  0  0  0  0  0  0  0  0
   -3.3240    3.9560    1.1410 H   0  0  0  0  0  0  0  0  0  0  0  0
   -1.5710    4.0600    1.3940 H   0  0  0  0  0  0  0  0  0  0  0  0
   -3.1350    3.1420   -1.0930 H   0  0  0  0  0  0  0  0  0  0  0  0
   -1.3650    3.0120   -1.0430 H   0  0  0  0  0  0  0  0  0  0  0  0
   -1.1480    5.2460   -1.0660 H   0  0  0  0  0  0  0  0  0  0  0  0
   -2.5850    5.1200   -1.9010 H   0  0  0  0  0  0  0  0  0  0  0  0
   -3.2400   -6.3440   -2.3750 C   0  0  0  0  0  0  0  0  0  0  0  0
   -1.9490   -5.1700   -1.8870 S   0  0  0  0  0  0  0  0  0  0  0  0
   -2.4080   -3.4930   -2.2580 C   0  0  0  0  0  0  0  0  0  0  0  0
   -3.5430   -2.9340   -1.4920 C   0  0  0  0  0  0  0  0  0  0  0  0
   -3.3410   -2.8880   -0.0030 C   0  0  2  0  0  0  0  0  0  0  0  0
   -2.2250   -2.1060    0.4040 N   0  0  0  0  0  0  0  0  0  0  0  0
   -3.3670   -4.2350    0.6370 C   0  0  0  0  0  0  0  0  0  0  0  0
   -4.2890   -5.0580    0.4030 O   0  0  0  0  0  0  0  0  0  0  0  0
   -2.3790   -4.6520    1.5220 O   0  0  0  0  0  0  0  0  0  0  0  0
   -4.2480   -5.9110   -2.2440 H   0  0  0  0  0  0  0  0  0  0  0  0
   -3.1610   -7.3040   -1.8230 H   0  0  0  0  0  0  0  0  0  0  0  0
   -3.1160   -6.5300   -3.4660 H   0  0  0  0  0  0  0  0  0  0  0  0
   -1.5040   -2.8420   -2.0930 H   0  0  0  0  0  0  0  0  0  0  0  0
   -2.6090   -3.4140   -3.3490 H   0  0  0  0  0  0  0  0  0  0  0  0
   -3.7830   -1.9120   -1.8470 H   0  0  0  0  0  0  0  0  0  0  0  0
   -4.4600   -3.5480   -1.6720 H   0  0  0  0  0  0  0  0  0  0  0  0
   -4.2710   -2.3820    0.3990 H   0  0  0  0  0  0  0  0  0  0  0  0
   -1.2700   -2.4040    0.1330 H   0  0  0  0  0  0  0  0  0  0  0  0
  1  2  1  0  0  0  0
  2  8  1  0  0  0  0
  2 12  1  1  0  0  0
  2  3  1  0  0  0  0
  3 13  1  0  0  0  0
  4 16  1  0  0  0  0
  4  5  1  0  0  0  0
  4  3  1  0  0  0  0
  5 17  1  0  0  0  0
  6  5  1  0  0  0  0
  6 20  1  0  0  0  0
  6 19  1  0  0  0  0
  7  6  1  0  0  0  0
  8  9  2  0  0  0  0
 10  1  1  0  0  0  0
 11  1  1  0  0  0  0
 14  3  1  0  0  0  0
 15  4  1  0  0  0  0
 18  5  1  0  0  0  0
 21  7  1  0  0  0  0
 22  7  1  0  0  0  0
 23 24  1  0  0  0  0
 23  8  1  0  0  0  0
 24 33  1  1  0  0  0
 25 26  1  0  0  0  0
 25 24  1  0  0  0  0
 25 34  1  0  0  0  0
 26 36  1  0  0  0  0
 27 38  1  0  0  0  0
 27 39  1  0  0  0  0
 27 26  1  0  0  0  0
 28 27  1  0  0  0  0
 29 28  1  0  0  0  0
 30 31  2  0  0  0  0
 30 24  1  0  0  0  0
 32 23  1  0  0  0  0
 35 25  1  0  0  0  0
 37 26  1  0  0  0  0
 40 28  1  0  0  0  0
 41 28  1  0  0  0  0
 42 29  1  0  0  0  0
 43 29  1  0  0  0  0
 44 53  1  0  0  0  0
 44 45  1  0  0  0  0
 44 54  1  0  0  0  0
 46 56  1  0  0  0  0
 46 45  1  0  0  0  0
 46 47  1  0  0  0  0
 47 48  1  0  0  0  0
 48 60  1  1  0  0  0
 48 49  1  0  0  0  0
 48 50  1  0  0  0  0
 49 30  1  0  0  0  0
 50 52  1  0  0  0  0
 51 50  2  0  0  0  0
 55 44  1  0  0  0  0
 57 46  1  0  0  0  0
 58 47  1  0  0  0  0
 59 47  1  0  0  0  0
 61 49  1  0  0  0  0
M  END
$$$$
