KKN.pdb
 OpenBabel07022418513D

 58 57  0  0  1  0  0  0  0  0999 V2000
    2.6800    1.0180    4.0500 N   0  0  0  0  0  0  0  0  0  0  0  0
    2.3610    0.5770    2.6650 C   0  0  1  0  0  0  0  0  0  0  0  0
    3.1710   -0.6480    2.4420 C   0  0  0  0  0  0  0  0  0  0  0  0
    3.0550   -1.3030    1.1160 C   0  0  0  0  0  0  0  0  0  0  0  0
    3.9220   -2.5310    0.9690 C   0  0  0  0  0  0  0  0  0  0  0  0
    5.3910   -2.2660    1.1410 C   0  0  0  0  0  0  0  0  0  0  0  0
    6.1100   -3.5140    0.9690 N   0  0  0  0  0  0  0  0  0  0  0  0
    0.9110    0.4500    2.6020 C   0  0  0  0  0  0  0  0  0  0  0  0
    0.2450    0.5150    3.6940 O   0  0  0  0  0  0  0  0  0  0  0  0
    3.5640    0.6130    4.3720 H   0  0  0  0  0  0  0  0  0  0  0  0
    2.6690    2.0730    4.0940 H   0  0  0  0  0  0  0  0  0  0  0  0
    2.6500    1.4240    1.9970 H   0  0  0  0  0  0  0  0  0  0  0  0
    4.2270   -0.4700    2.7580 H   0  0  0  0  0  0  0  0  0  0  0  0
    2.8050   -1.4040    3.2020 H   0  0  0  0  0  0  0  0  0  0  0  0
    2.0240   -1.6500    0.8980 H   0  0  0  0  0  0  0  0  0  0  0  0
    3.3090   -0.5740    0.3200 H   0  0  0  0  0  0  0  0  0  0  0  0
    3.7240   -2.9360   -0.0450 H   0  0  0  0  0  0  0  0  0  0  0  0
    3.5930   -3.3170    1.6810 H   0  0  0  0  0  0  0  0  0  0  0  0
    5.7370   -1.5740    0.3480 H   0  0  0  0  0  0  0  0  0  0  0  0
    5.6290   -1.7810    2.1090 H   0  0  0  0  0  0  0  0  0  0  0  0
    5.5110   -4.3540    1.2060 H   0  0  0  0  0  0  0  0  0  0  0  0
    6.3160   -3.6150   -0.0500 H   0  0  0  0  0  0  0  0  0  0  0  0
    0.1180    0.2620    1.4350 N   0  0  0  0  0  0  0  0  0  0  0  0
   -1.3490    0.1630    1.4960 C   0  0  1  0  0  0  0  0  0  0  0  0
   -1.8900    1.4540    0.9100 C   0  0  0  0  0  0  0  0  0  0  0  0
   -3.3700    1.5650    0.8790 C   0  0  0  0  0  0  0  0  0  0  0  0
   -3.8360    2.8900    0.2990 C   0  0  0  0  0  0  0  0  0  0  0  0
   -3.3810    3.1280   -1.1080 C   0  0  0  0  0  0  0  0  0  0  0  0
   -3.8370    2.1460   -2.0370 N   0  0  0  0  0  0  0  0  0  0  0  0
   -1.8770   -1.0540    0.8670 C   0  0  0  0  0  0  0  0  0  0  0  0
   -3.1250   -1.3260    0.9430 O   0  0  0  0  0  0  0  0  0  0  0  0
    0.5810    0.1980    0.5320 H   0  0  0  0  0  0  0  0  0  0  0  0
   -1.5880    0.1380    2.5940 H   0  0  0  0  0  0  0  0  0  0  0  0
   -1.4280    2.2740    1.4960 H   0  0  0  0  0  0  0  0  0  0  0  0
   -1.4470    1.5610   -0.1250 H   0  0  0  0  0  0  0  0  0  0  0  0
   -3.7390    1.5430    1.9260 H   0  0  0  0  0  0  0  0  0  0  0  0
   -3.8760    0.7330    0.3500 H   0  0  0  0  0  0  0  0  0  0  0  0
   -4.9450    2.8460    0.2880 H   0  0  0  0  0  0  0  0  0  0  0  0
   -3.5550    3.6860    0.9950 H   0  0  0  0  0  0  0  0  0  0  0  0
   -2.2840    3.2250   -1.2100 H   0  0  0  0  0  0  0  0  0  0  0  0
   -3.8000    4.1120   -1.4100 H   0  0  0  0  0  0  0  0  0  0  0  0
   -4.7700    1.7630   -1.8670 H   0  0  0  0  0  0  0  0  0  0  0  0
   -3.1000    1.4130   -2.1260 H   0  0  0  0  0  0  0  0  0  0  0  0
   -1.8240   -2.1590   -4.1170 N   0  0  0  0  0  0  0  0  0  0  0  0
   -1.9590   -2.2220   -2.7100 C   0  0  0  0  0  0  0  0  0  0  0  0
   -2.5420   -1.2720   -2.1330 O   0  0  0  0  0  0  0  0  0  0  0  0
   -1.4430   -3.3550   -1.9120 C   0  0  0  0  0  0  0  0  0  0  0  0
   -1.7180   -3.1980   -0.4410 C   0  0  2  0  0  0  0  0  0  0  0  0
   -1.1270   -2.0210    0.1440 N   0  0  0  0  0  0  0  0  0  0  0  0
   -1.1880   -4.4050    0.2380 C   0  0  0  0  0  0  0  0  0  0  0  0
   -1.5400   -5.5700   -0.0940 O   0  0  0  0  0  0  0  0  0  0  0  0
   -0.2770   -4.2300    1.2710 O   0  0  0  0  0  0  0  0  0  0  0  0
   -2.6110   -1.9530   -4.7680 H   0  0  0  0  0  0  0  0  0  0  0  0
   -0.8860   -2.3260   -4.5600 H   0  0  0  0  0  0  0  0  0  0  0  0
   -0.3510   -3.4590   -2.1160 H   0  0  0  0  0  0  0  0  0  0  0  0
   -1.8870   -4.3180   -2.2390 H   0  0  0  0  0  0  0  0  0  0  0  0
   -2.8170   -3.2060   -0.2560 H   0  0  0  0  0  0  0  0  0  0  0  0
   -0.1160   -1.8420    0.0430 H   0  0  0  0  0  0  0  0  0  0  0  0
  1 11  1  0  0  0  0
  1 10  1  0  0  0  0
  2 12  1  6  0  0  0
  2  1  1  0  0  0  0
  3  2  1  0  0  0  0
  3 13  1  0  0  0  0
  3 14  1  0  0  0  0
  4  3  1  0  0  0  0
  5  4  1  0  0  0  0
  5  6  1  0  0  0  0
  5 18  1  0  0  0  0
  6 20  1  0  0  0  0
  7  6  1  0  0  0  0
  7 21  1  0  0  0  0
  8  2  1  0  0  0  0
  8  9  2  0  0  0  0
 15  4  1  0  0  0  0
 16  4  1  0  0  0  0
 17  5  1  0  0  0  0
 19  6  1  0  0  0  0
 22  7  1  0  0  0  0
 23 24  1  0  0  0  0
 23  8  1  0  0  0  0
 24 33  1  1  0  0  0
 25 34  1  0  0  0  0
 25 24  1  0  0  0  0
 26 25  1  0  0  0  0
 26 36  1  0  0  0  0
 27 26  1  0  0  0  0
 27 39  1  0  0  0  0
 28 27  1  0  0  0  0
 29 42  1  0  0  0  0
 29 28  1  0  0  0  0
 30 31  2  0  0  0  0
 30 24  1  0  0  0  0
 32 23  1  0  0  0  0
 35 25  1  0  0  0  0
 37 26  1  0  0  0  0
 38 27  1  0  0  0  0
 40 28  1  0  0  0  0
 41 28  1  0  0  0  0
 43 29  1  0  0  0  0
 44 45  1  0  0  0  0
 45 46  2  0  0  0  0
 45 47  1  0  0  0  0
 47 48  1  0  0  0  0
 48 57  1  1  0  0  0
 48 49  1  0  0  0  0
 48 50  1  0  0  0  0
 49 30  1  0  0  0  0
 50 52  1  0  0  0  0
 51 50  2  0  0  0  0
 53 44  1  0  0  0  0
 54 44  1  0  0  0  0
 55 47  1  0  0  0  0
 56 47  1  0  0  0  0
 58 49  1  0  0  0  0
M  END
$$$$
