KKT.pdb
 OpenBabel07022418513D

 58 57  0  0  1  0  0  0  0  0999 V2000
    1.7740   -0.9140    4.1780 N   0  0  0  0  0  0  0  0  0  0  0  0
    1.8170   -0.7890    2.7350 C   0  0  1  0  0  0  0  0  0  0  0  0
    2.0270   -2.1600    2.1500 C   0  0  0  0  0  0  0  0  0  0  0  0
    3.3120   -2.7700    2.6300 C   0  0  0  0  0  0  0  0  0  0  0  0
    4.5240   -1.9620    2.2660 C   0  0  0  0  0  0  0  0  0  0  0  0
    5.7360   -2.7190    2.8260 C   0  0  0  0  0  0  0  0  0  0  0  0
    6.9680   -2.0480    2.5440 N   0  0  0  0  0  0  0  0  0  0  0  0
    0.5690   -0.1790    2.2750 C   0  0  0  0  0  0  0  0  0  0  0  0
   -0.3310    0.1470    3.0970 O   0  0  0  0  0  0  0  0  0  0  0  0
    1.3030   -1.8100    4.4260 H   0  0  0  0  0  0  0  0  0  0  0  0
    1.1790   -0.1490    4.5560 H   0  0  0  0  0  0  0  0  0  0  0  0
    2.7020   -0.1420    2.5080 H   0  0  0  0  0  0  0  0  0  0  0  0
    2.0390   -2.1660    1.0490 H   0  0  0  0  0  0  0  0  0  0  0  0
    1.2010   -2.8200    2.4770 H   0  0  0  0  0  0  0  0  0  0  0  0
    3.3180   -2.8700    3.7490 H   0  0  0  0  0  0  0  0  0  0  0  0
    3.4410   -3.7780    2.1870 H   0  0  0  0  0  0  0  0  0  0  0  0
    4.5440   -0.9720    2.7960 H   0  0  0  0  0  0  0  0  0  0  0  0
    4.6670   -1.8360    1.1880 H   0  0  0  0  0  0  0  0  0  0  0  0
    5.7210   -3.7240    2.3390 H   0  0  0  0  0  0  0  0  0  0  0  0
    5.6040   -2.8610    3.9100 H   0  0  0  0  0  0  0  0  0  0  0  0
    6.7600   -1.2880    1.8330 H   0  0  0  0  0  0  0  0  0  0  0  0
    7.2850   -1.5750    3.4260 H   0  0  0  0  0  0  0  0  0  0  0  0
    0.2830    0.0860    0.9060 N   0  0  0  0  0  0  0  0  0  0  0  0
   -0.9700    0.6920    0.5120 C   0  0  1  0  0  0  0  0  0  0  0  0
   -0.6570    2.0160   -0.1210 C   0  0  0  0  0  0  0  0  0  0  0  0
   -1.8600    2.7640   -0.5830 C   0  0  0  0  0  0  0  0  0  0  0  0
   -2.8210    3.0740    0.5440 C   0  0  0  0  0  0  0  0  0  0  0  0
   -4.0260    3.8330    0.0320 C   0  0  0  0  0  0  0  0  0  0  0  0
   -4.7430    3.0510   -0.9730 N   0  0  0  0  0  0  0  0  0  0  0  0
   -1.7140   -0.2230   -0.3460 C   0  0  0  0  0  0  0  0  0  0  0  0
   -2.8410    0.0350   -0.8410 O   0  0  0  0  0  0  0  0  0  0  0  0
    0.9790   -0.1580    0.1970 H   0  0  0  0  0  0  0  0  0  0  0  0
   -1.5820    0.8790    1.4300 H   0  0  0  0  0  0  0  0  0  0  0  0
   -0.1550    2.6400    0.6620 H   0  0  0  0  0  0  0  0  0  0  0  0
    0.0490    1.9330   -0.9540 H   0  0  0  0  0  0  0  0  0  0  0  0
   -1.5200    3.7410   -0.9850 H   0  0  0  0  0  0  0  0  0  0  0  0
   -2.3830    2.2560   -1.4220 H   0  0  0  0  0  0  0  0  0  0  0  0
   -3.1380    2.1850    1.1060 H   0  0  0  0  0  0  0  0  0  0  0  0
   -2.2980    3.7370    1.2620 H   0  0  0  0  0  0  0  0  0  0  0  0
   -3.7330    4.7860   -0.4440 H   0  0  0  0  0  0  0  0  0  0  0  0
   -4.7350    3.9910    0.8650 H   0  0  0  0  0  0  0  0  0  0  0  0
   -5.3630    3.7530   -1.4740 H   0  0  0  0  0  0  0  0  0  0  0  0
   -5.3990    2.4100   -0.4670 H   0  0  0  0  0  0  0  0  0  0  0  0
   -1.8520   -3.7920   -3.5410 C   0  0  0  0  0  0  0  0  0  0  0  0
   -0.9930   -2.8700   -2.6980 C   0  0  1  0  0  0  0  0  0  0  0  0
   -0.7860   -1.7150   -3.4570 O   0  0  0  0  0  0  0  0  0  0  0  0
   -1.8010   -2.4710   -1.4910 C   0  0  2  0  0  0  0  0  0  0  0  0
   -1.1680   -1.4960   -0.6650 N   0  0  0  0  0  0  0  0  0  0  0  0
   -2.0580   -3.6930   -0.6990 C   0  0  0  0  0  0  0  0  0  0  0  0
   -1.7360   -3.7640    0.4910 O   0  0  0  0  0  0  0  0  0  0  0  0
   -2.6690   -4.7680   -1.3130 O   0  0  0  0  0  0  0  0  0  0  0  0
   -1.6920   -3.6040   -4.6350 H   0  0  0  0  0  0  0  0  0  0  0  0
   -2.9240   -3.6730   -3.3620 H   0  0  0  0  0  0  0  0  0  0  0  0
   -1.5910   -4.8670   -3.3850 H   0  0  0  0  0  0  0  0  0  0  0  0
   -0.0760   -3.4060   -2.4560 H   0  0  0  0  0  0  0  0  0  0  0  0
   -1.6170   -1.5610   -3.9720 H   0  0  0  0  0  0  0  0  0  0  0  0
   -2.7850   -2.1090   -1.8570 H   0  0  0  0  0  0  0  0  0  0  0  0
   -0.2160   -1.7530   -0.2660 H   0  0  0  0  0  0  0  0  0  0  0  0
  1 10  1  0  0  0  0
  1 11  1  0  0  0  0
  2 12  1  6  0  0  0
  2  1  1  0  0  0  0
  3 14  1  0  0  0  0
  3  4  1  0  0  0  0
  3  2  1  0  0  0  0
  4 15  1  0  0  0  0
  5  4  1  0  0  0  0
  5 17  1  0  0  0  0
  5  6  1  0  0  0  0
  6 20  1  0  0  0  0
  7  6  1  0  0  0  0
  7 22  1  0  0  0  0
  8  2  1  0  0  0  0
  8  9  2  0  0  0  0
 13  3  1  0  0  0  0
 16  4  1  0  0  0  0
 18  5  1  0  0  0  0
 19  6  1  0  0  0  0
 21  7  1  0  0  0  0
 23  8  1  0  0  0  0
 24 23  1  0  0  0  0
 24 33  1  1  0  0  0
 25 24  1  0  0  0  0
 25 34  1  0  0  0  0
 26 25  1  0  0  0  0
 26 27  1  0  0  0  0
 27 38  1  0  0  0  0
 27 39  1  0  0  0  0
 28 27  1  0  0  0  0
 28 41  1  0  0  0  0
 29 43  1  0  0  0  0
 29 28  1  0  0  0  0
 30 24  1  0  0  0  0
 31 30  2  0  0  0  0
 32 23  1  0  0  0  0
 35 25  1  0  0  0  0
 36 26  1  0  0  0  0
 37 26  1  0  0  0  0
 40 28  1  0  0  0  0
 42 29  1  0  0  0  0
 44 54  1  0  0  0  0
 44 53  1  0  0  0  0
 44 45  1  0  0  0  0
 45 55  1  1  0  0  0
 45 47  1  0  0  0  0
 46 45  1  0  0  0  0
 47 57  1  6  0  0  0
 47 49  1  0  0  0  0
 47 48  1  0  0  0  0
 48 30  1  0  0  0  0
 48 58  1  0  0  0  0
 49 50  1  0  0  0  0
 51 49  2  0  0  0  0
 52 44  1  0  0  0  0
 56 46  1  0  0  0  0
M  END
$$$$
