KLA.pdb
 OpenBabel07022418513D

 52 51  0  0  1  0  0  0  0  0999 V2000
    1.2110   -3.0240    2.5260 N   0  0  0  0  0  0  0  0  0  0  0  0
    0.9510   -2.0620    1.4860 C   0  0  1  0  0  0  0  0  0  0  0  0
    0.1360   -2.6710    0.3660 C   0  0  0  0  0  0  0  0  0  0  0  0
    0.8290   -3.8390   -0.2790 C   0  0  0  0  0  0  0  0  0  0  0  0
    2.1540   -3.4820   -0.8830 C   0  0  0  0  0  0  0  0  0  0  0  0
    2.7260   -4.7600   -1.4910 C   0  0  0  0  0  0  0  0  0  0  0  0
    2.8740   -5.7350   -0.4190 N   0  0  0  0  0  0  0  0  0  0  0  0
    0.2100   -0.8760    1.9910 C   0  0  0  0  0  0  0  0  0  0  0  0
   -0.1170   -0.8170    3.2270 O   0  0  0  0  0  0  0  0  0  0  0  0
    1.4130   -2.5980    3.4460 H   0  0  0  0  0  0  0  0  0  0  0  0
    0.5320   -3.8040    2.5590 H   0  0  0  0  0  0  0  0  0  0  0  0
    1.9340   -1.7440    1.0830 H   0  0  0  0  0  0  0  0  0  0  0  0
   -0.0480   -1.9200   -0.4210 H   0  0  0  0  0  0  0  0  0  0  0  0
   -0.8460   -3.0180    0.7320 H   0  0  0  0  0  0  0  0  0  0  0  0
    0.1720   -4.1950   -1.0990 H   0  0  0  0  0  0  0  0  0  0  0  0
    0.9070   -4.6740    0.4460 H   0  0  0  0  0  0  0  0  0  0  0  0
    1.9830   -2.7240   -1.6750 H   0  0  0  0  0  0  0  0  0  0  0  0
    2.8890   -3.0850   -0.1870 H   0  0  0  0  0  0  0  0  0  0  0  0
    1.9900   -5.1380   -2.2510 H   0  0  0  0  0  0  0  0  0  0  0  0
    3.7040   -4.5750   -1.9740 H   0  0  0  0  0  0  0  0  0  0  0  0
    3.7650   -6.2750   -0.5670 H   0  0  0  0  0  0  0  0  0  0  0  0
    2.9760   -5.2790    0.5170 H   0  0  0  0  0  0  0  0  0  0  0  0
    2.2420    1.7560    1.7900 C   0  0  0  0  0  0  0  0  0  0  0  0
    1.1850    2.7530    2.1280 C   0  0  0  0  0  0  0  0  0  0  0  0
    0.9290    2.8600    3.6180 C   0  0  0  0  0  0  0  0  0  0  0  0
   -0.0850    2.6210    1.3760 C   0  0  0  0  0  0  0  0  0  0  0  0
   -0.8330    1.3380    1.5110 C   0  0  2  0  0  0  0  0  0  0  0  0
   -0.1210    0.1690    1.0890 N   0  0  0  0  0  0  0  0  0  0  0  0
   -2.1180    1.5110    0.7990 C   0  0  0  0  0  0  0  0  0  0  0  0
   -2.8560    2.4770    1.0510 O   0  0  0  0  0  0  0  0  0  0  0  0
    2.3780    0.9570    2.5420 H   0  0  0  0  0  0  0  0  0  0  0  0
    2.0610    1.3550    0.7770 H   0  0  0  0  0  0  0  0  0  0  0  0
    3.2590    2.2490    1.7280 H   0  0  0  0  0  0  0  0  0  0  0  0
    1.6020    3.7660    1.8400 H   0  0  0  0  0  0  0  0  0  0  0  0
    1.8580    3.0160    4.1800 H   0  0  0  0  0  0  0  0  0  0  0  0
    0.3100    3.7780    3.7600 H   0  0  0  0  0  0  0  0  0  0  0  0
    0.3470    2.0230    4.0140 H   0  0  0  0  0  0  0  0  0  0  0  0
   -0.7600    3.4440    1.6890 H   0  0  0  0  0  0  0  0  0  0  0  0
    0.1410    2.8350    0.2910 H   0  0  0  0  0  0  0  0  0  0  0  0
   -1.0330    1.2220    2.6210 H   0  0  0  0  0  0  0  0  0  0  0  0
    0.1840    0.0360    0.1000 H   0  0  0  0  0  0  0  0  0  0  0  0
   -3.4710    0.8280   -2.3870 C   0  0  0  0  0  0  0  0  0  0  0  0
   -3.7610    0.6870   -0.9080 C   0  0  2  0  0  0  0  0  0  0  0  0
   -2.5120    0.5730   -0.1750 N   0  0  0  0  0  0  0  0  0  0  0  0
   -4.6010   -0.5330   -0.7180 C   0  0  0  0  0  0  0  0  0  0  0  0
   -5.7190   -0.6270   -1.2710 O   0  0  0  0  0  0  0  0  0  0  0  0
   -4.1560   -1.5710    0.0670 O   0  0  0  0  0  0  0  0  0  0  0  0
   -4.3320    1.3140   -2.8800 H   0  0  0  0  0  0  0  0  0  0  0  0
   -3.3470   -0.1750   -2.8090 H   0  0  0  0  0  0  0  0  0  0  0  0
   -2.5410    1.4240   -2.5200 H   0  0  0  0  0  0  0  0  0  0  0  0
   -4.3180    1.5790   -0.5930 H   0  0  0  0  0  0  0  0  0  0  0  0
   -1.8810   -0.2490   -0.3880 H   0  0  0  0  0  0  0  0  0  0  0  0
  1 11  1  0  0  0  0
  1 10  1  0  0  0  0
  2 12  1  6  0  0  0
  2  8  1  0  0  0  0
  2  1  1  0  0  0  0
  3 14  1  0  0  0  0
  3  2  1  0  0  0  0
  4  3  1  0  0  0  0
  4 16  1  0  0  0  0
  5  4  1  0  0  0  0
  5 18  1  0  0  0  0
  6  5  1  0  0  0  0
  6  7  1  0  0  0  0
  7 22  1  0  0  0  0
  8  9  2  0  0  0  0
 13  3  1  0  0  0  0
 15  4  1  0  0  0  0
 17  5  1  0  0  0  0
 19  6  1  0  0  0  0
 20  6  1  0  0  0  0
 21  7  1  0  0  0  0
 23 24  1  0  0  0  0
 23 31  1  0  0  0  0
 24 25  1  0  0  0  0
 25 36  1  0  0  0  0
 25 37  1  0  0  0  0
 25 35  1  0  0  0  0
 26 27  1  0  0  0  0
 26 38  1  0  0  0  0
 26 24  1  0  0  0  0
 27 40  1  1  0  0  0
 28 27  1  0  0  0  0
 28  8  1  0  0  0  0
 29 30  2  0  0  0  0
 29 27  1  0  0  0  0
 32 23  1  0  0  0  0
 33 23  1  0  0  0  0
 34 24  1  0  0  0  0
 39 26  1  0  0  0  0
 41 28  1  0  0  0  0
 42 43  1  0  0  0  0
 43 45  1  0  0  0  0
 43 51  1  1  0  0  0
 43 44  1  0  0  0  0
 44 29  1  0  0  0  0
 45 47  1  0  0  0  0
 46 45  2  0  0  0  0
 48 42  1  0  0  0  0
 49 42  1  0  0  0  0
 50 42  1  0  0  0  0
 52 44  1  0  0  0  0
M  END
$$$$
