KLC.pdb
 OpenBabel07022418513D

 53 52  0  0  1  0  0  0  0  0999 V2000
    0.6490   -4.1860    3.5320 N   0  0  0  0  0  0  0  0  0  0  0  0
    1.0090   -2.8920    2.9940 C   0  0  1  0  0  0  0  0  0  0  0  0
    2.1450   -3.0280    1.9920 C   0  0  0  0  0  0  0  0  0  0  0  0
    1.6790   -3.9170    0.8920 C   0  0  0  0  0  0  0  0  0  0  0  0
    2.6410   -4.2010   -0.1940 C   0  0  0  0  0  0  0  0  0  0  0  0
    3.1490   -3.0390   -0.9730 C   0  0  0  0  0  0  0  0  0  0  0  0
    3.8490   -2.1240   -0.1020 N   0  0  0  0  0  0  0  0  0  0  0  0
   -0.1610   -2.2230    2.4330 C   0  0  0  0  0  0  0  0  0  0  0  0
   -1.2780   -2.7980    2.4710 O   0  0  0  0  0  0  0  0  0  0  0  0
   -0.3820   -4.3130    3.4600 H   0  0  0  0  0  0  0  0  0  0  0  0
    0.9460   -4.3360    4.5020 H   0  0  0  0  0  0  0  0  0  0  0  0
    1.3980   -2.2730    3.8340 H   0  0  0  0  0  0  0  0  0  0  0  0
    2.3780   -1.9840    1.6870 H   0  0  0  0  0  0  0  0  0  0  0  0
    2.9850   -3.4980    2.5140 H   0  0  0  0  0  0  0  0  0  0  0  0
    0.7260   -3.5820    0.4280 H   0  0  0  0  0  0  0  0  0  0  0  0
    1.4210   -4.9030    1.3680 H   0  0  0  0  0  0  0  0  0  0  0  0
    3.4860   -4.8120    0.2460 H   0  0  0  0  0  0  0  0  0  0  0  0
    2.1570   -4.9140   -0.9050 H   0  0  0  0  0  0  0  0  0  0  0  0
    2.3560   -2.5050   -1.5350 H   0  0  0  0  0  0  0  0  0  0  0  0
    3.8480   -3.4090   -1.7780 H   0  0  0  0  0  0  0  0  0  0  0  0
    4.5440   -1.6110   -0.7240 H   0  0  0  0  0  0  0  0  0  0  0  0
    4.4440   -2.6550    0.5730 H   0  0  0  0  0  0  0  0  0  0  0  0
    0.4010    1.8660    2.9270 C   0  0  0  0  0  0  0  0  0  0  0  0
   -0.8830    2.0930    2.1810 C   0  0  0  0  0  0  0  0  0  0  0  0
   -0.6680    2.9090    0.9180 C   0  0  0  0  0  0  0  0  0  0  0  0
   -1.7460    0.9180    1.9930 C   0  0  0  0  0  0  0  0  0  0  0  0
   -1.2900   -0.2670    1.2700 C   0  0  2  0  0  0  0  0  0  0  0  0
   -0.1240   -0.9260    1.8260 N   0  0  0  0  0  0  0  0  0  0  0  0
   -1.1150   -0.1510   -0.1800 C   0  0  0  0  0  0  0  0  0  0  0  0
   -0.0810   -0.5690   -0.7610 O   0  0  0  0  0  0  0  0  0  0  0  0
    1.2870    1.8070    2.2670 H   0  0  0  0  0  0  0  0  0  0  0  0
    0.3200    1.0150    3.6010 H   0  0  0  0  0  0  0  0  0  0  0  0
    0.6270    2.7620    3.5810 H   0  0  0  0  0  0  0  0  0  0  0  0
   -1.4800    2.7940    2.8490 H   0  0  0  0  0  0  0  0  0  0  0  0
   -0.3150    2.2890    0.0680 H   0  0  0  0  0  0  0  0  0  0  0  0
    0.1560    3.6630    1.0720 H   0  0  0  0  0  0  0  0  0  0  0  0
   -1.5640    3.5180    0.6840 H   0  0  0  0  0  0  0  0  0  0  0  0
   -2.7030    1.2850    1.5250 H   0  0  0  0  0  0  0  0  0  0  0  0
   -2.0850    0.5810    3.0180 H   0  0  0  0  0  0  0  0  0  0  0  0
   -2.1290   -1.0240    1.4130 H   0  0  0  0  0  0  0  0  0  0  0  0
    0.8310   -0.4900    1.8150 H   0  0  0  0  0  0  0  0  0  0  0  0
   -2.0930    0.4360   -1.0320 N   0  0  0  0  0  0  0  0  0  0  0  0
   -1.8750    0.5270   -2.4600 C   0  0  1  0  0  0  0  0  0  0  0  0
   -2.9730   -0.2080   -3.2270 C   0  0  0  0  0  0  0  0  0  0  0  0
   -4.5500    0.6000   -2.7720 S   0  0  0  0  0  0  0  0  0  0  0  0
   -2.0020    1.9540   -2.8360 C   0  0  0  0  0  0  0  0  0  0  0  0
   -1.8550    2.3290   -4.0400 O   0  0  0  0  0  0  0  0  0  0  0  0
   -2.2840    2.9320   -1.9000 O   0  0  0  0  0  0  0  0  0  0  0  0
   -3.0040    0.8210   -0.6360 H   0  0  0  0  0  0  0  0  0  0  0  0
   -0.8810    0.0980   -2.7050 H   0  0  0  0  0  0  0  0  0  0  0  0
   -2.7670   -0.0430   -4.2980 H   0  0  0  0  0  0  0  0  0  0  0  0
   -2.9880   -1.2770   -3.0140 H   0  0  0  0  0  0  0  0  0  0  0  0
   -5.4740   -0.3580   -2.3110 H   0  0  0  0  0  0  0  0  0  0  0  0
  1 11  1  0  0  0  0
  2  1  1  0  0  0  0
  2 12  1  1  0  0  0
  3 14  1  0  0  0  0
  3  2  1  0  0  0  0
  4 16  1  0  0  0  0
  4  3  1  0  0  0  0
  5 17  1  0  0  0  0
  5  4  1  0  0  0  0
  6  5  1  0  0  0  0
  6  7  1  0  0  0  0
  7 22  1  0  0  0  0
  8  9  2  0  0  0  0
  8  2  1  0  0  0  0
 10  1  1  0  0  0  0
 13  3  1  0  0  0  0
 15  4  1  0  0  0  0
 18  5  1  0  0  0  0
 19  6  1  0  0  0  0
 20  6  1  0  0  0  0
 21  7  1  0  0  0  0
 23 33  1  0  0  0  0
 23 32  1  0  0  0  0
 24 34  1  0  0  0  0
 24 23  1  0  0  0  0
 25 36  1  0  0  0  0
 25 24  1  0  0  0  0
 26 24  1  0  0  0  0
 26 39  1  0  0  0  0
 27 40  1  1  0  0  0
 27 28  1  0  0  0  0
 27 26  1  0  0  0  0
 28  8  1  0  0  0  0
 29 27  1  0  0  0  0
 30 29  2  0  0  0  0
 31 23  1  0  0  0  0
 35 25  1  0  0  0  0
 37 25  1  0  0  0  0
 38 26  1  0  0  0  0
 41 28  1  0  0  0  0
 42 49  1  0  0  0  0
 42 29  1  0  0  0  0
 43 50  1  6  0  0  0
 43 42  1  0  0  0  0
 44 52  1  0  0  0  0
 44 45  1  0  0  0  0
 44 43  1  0  0  0  0
 45 53  1  0  0  0  0
 46 43  1  0  0  0  0
 46 48  1  0  0  0  0
 47 46  2  0  0  0  0
 51 44  1  0  0  0  0
M  END
$$$$
