KLD.pdb
 OpenBabel07022418513D

 55 54  0  0  1  0  0  0  0  0999 V2000
    0.1980   -1.3150    4.2330 N   0  0  0  0  0  0  0  0  0  0  0  0
    0.7480   -1.3630    2.8410 C   0  0  1  0  0  0  0  0  0  0  0  0
    0.8360   -2.7790    2.4660 C   0  0  0  0  0  0  0  0  0  0  0  0
    1.3670   -3.1860    1.1650 C   0  0  0  0  0  0  0  0  0  0  0  0
    2.7680   -2.7500    0.8590 C   0  0  0  0  0  0  0  0  0  0  0  0
    3.7160   -3.3300    1.9050 C   0  0  0  0  0  0  0  0  0  0  0  0
    5.0820   -2.9360    1.6510 N   0  0  0  0  0  0  0  0  0  0  0  0
   -0.0340   -0.4420    2.0440 C   0  0  0  0  0  0  0  0  0  0  0  0
   -0.9640    0.2140    2.6160 O   0  0  0  0  0  0  0  0  0  0  0  0
   -0.6270   -1.9390    4.2990 H   0  0  0  0  0  0  0  0  0  0  0  0
   -0.0590   -0.3060    4.4160 H   0  0  0  0  0  0  0  0  0  0  0  0
    1.8050   -0.9880    3.0320 H   0  0  0  0  0  0  0  0  0  0  0  0
   -0.1730   -3.2770    2.6580 H   0  0  0  0  0  0  0  0  0  0  0  0
    1.4690   -3.2800    3.2730 H   0  0  0  0  0  0  0  0  0  0  0  0
    1.3970   -4.3360    1.1370 H   0  0  0  0  0  0  0  0  0  0  0  0
    0.7130   -2.9420    0.3260 H   0  0  0  0  0  0  0  0  0  0  0  0
    2.9250   -1.6780    0.8470 H   0  0  0  0  0  0  0  0  0  0  0  0
    3.1110   -3.1560   -0.1140 H   0  0  0  0  0  0  0  0  0  0  0  0
    3.6350   -4.4400    1.9370 H   0  0  0  0  0  0  0  0  0  0  0  0
    3.4470   -2.9450    2.9060 H   0  0  0  0  0  0  0  0  0  0  0  0
    5.1800   -2.1770    0.9590 H   0  0  0  0  0  0  0  0  0  0  0  0
    5.6330   -2.7780    2.5220 H   0  0  0  0  0  0  0  0  0  0  0  0
    1.7400    3.5630   -0.9220 C   0  0  0  0  0  0  0  0  0  0  0  0
    0.9790    2.5630   -0.0720 C   0  0  0  0  0  0  0  0  0  0  0  0
    0.2310    3.3710    0.9730 C   0  0  0  0  0  0  0  0  0  0  0  0
   -0.0050    1.7710   -0.8960 C   0  0  0  0  0  0  0  0  0  0  0  0
   -0.7240    0.8050   -0.0160 C   0  0  2  0  0  0  0  0  0  0  0  0
    0.0990   -0.1490    0.6540 N   0  0  0  0  0  0  0  0  0  0  0  0
   -1.8190    0.0830   -0.7670 C   0  0  0  0  0  0  0  0  0  0  0  0
   -2.5700    0.7710   -1.5080 O   0  0  0  0  0  0  0  0  0  0  0  0
    1.0410    4.1890   -1.4820 H   0  0  0  0  0  0  0  0  0  0  0  0
    2.3740    4.1630   -0.2440 H   0  0  0  0  0  0  0  0  0  0  0  0
    2.3990    2.9930   -1.6090 H   0  0  0  0  0  0  0  0  0  0  0  0
    1.6680    1.8740    0.4420 H   0  0  0  0  0  0  0  0  0  0  0  0
   -0.7420    3.7330    0.5620 H   0  0  0  0  0  0  0  0  0  0  0  0
    0.0850    2.7660    1.8860 H   0  0  0  0  0  0  0  0  0  0  0  0
    0.8100    4.2910    1.2030 H   0  0  0  0  0  0  0  0  0  0  0  0
    0.4940    1.2660   -1.7470 H   0  0  0  0  0  0  0  0  0  0  0  0
   -0.7720    2.4590   -1.3270 H   0  0  0  0  0  0  0  0  0  0  0  0
   -1.2810    1.3800    0.7700 H   0  0  0  0  0  0  0  0  0  0  0  0
    0.8250   -0.6400    0.1190 H   0  0  0  0  0  0  0  0  0  0  0  0
   -1.9510   -1.2970   -0.6070 N   0  0  0  0  0  0  0  0  0  0  0  0
   -2.9150   -2.1660   -1.1970 C   0  0  1  0  0  0  0  0  0  0  0  0
   -3.9640   -1.3840   -1.9660 C   0  0  0  0  0  0  0  0  0  0  0  0
   -4.7100   -0.5520   -1.0020 C   0  0  0  0  0  0  0  0  0  0  0  0
   -4.5030   -0.6840    0.2230 O   0  0  0  0  0  0  0  0  0  0  0  0
   -2.3750   -3.3210   -1.8890 C   0  0  0  0  0  0  0  0  0  0  0  0
   -1.1050   -3.4520   -1.9110 O   0  0  0  0  0  0  0  0  0  0  0  0
   -5.6410    0.3820   -1.4170 O   0  0  0  0  0  0  0  0  0  0  0  0
   -3.1140   -4.2930   -2.5290 O   0  0  0  0  0  0  0  0  0  0  0  0
   -1.2420   -1.7740    0.0550 H   0  0  0  0  0  0  0  0  0  0  0  0
   -3.5790   -2.5310   -0.3070 H   0  0  0  0  0  0  0  0  0  0  0  0
   -4.7090   -2.1360   -2.3630 H   0  0  0  0  0  0  0  0  0  0  0  0
   -3.5640   -0.8340   -2.8260 H   0  0  0  0  0  0  0  0  0  0  0  0
   -6.2740    0.8630   -0.7970 H   0  0  0  0  0  0  0  0  0  0  0  0
  1 10  1  0  0  0  0
  1 11  1  0  0  0  0
  2 12  1  1  0  0  0
  2  1  1  0  0  0  0
  3 13  1  0  0  0  0
  3  2  1  0  0  0  0
  3 14  1  0  0  0  0
  4  3  1  0  0  0  0
  5  4  1  0  0  0  0
  5  6  1  0  0  0  0
  6 19  1  0  0  0  0
  6 20  1  0  0  0  0
  7  6  1  0  0  0  0
  7 22  1  0  0  0  0
  8  9  2  0  0  0  0
  8  2  1  0  0  0  0
 15  4  1  0  0  0  0
 16  4  1  0  0  0  0
 17  5  1  0  0  0  0
 18  5  1  0  0  0  0
 21  7  1  0  0  0  0
 23 32  1  0  0  0  0
 23 24  1  0  0  0  0
 24 34  1  0  0  0  0
 24 25  1  0  0  0  0
 25 37  1  0  0  0  0
 25 36  1  0  0  0  0
 26 24  1  0  0  0  0
 26 27  1  0  0  0  0
 27 28  1  0  0  0  0
 27 40  1  1  0  0  0
 28  8  1  0  0  0  0
 29 42  1  0  0  0  0
 29 27  1  0  0  0  0
 30 29  2  0  0  0  0
 31 23  1  0  0  0  0
 33 23  1  0  0  0  0
 35 25  1  0  0  0  0
 38 26  1  0  0  0  0
 39 26  1  0  0  0  0
 41 28  1  0  0  0  0
 42 51  1  0  0  0  0
 43 42  1  0  0  0  0
 43 52  1  1  0  0  0
 44 43  1  0  0  0  0
 44 45  1  0  0  0  0
 45 46  2  0  0  0  0
 47 43  1  0  0  0  0
 48 47  1  0  0  0  0
 49 45  1  0  0  0  0
 49 55  1  0  0  0  0
 50 47  2  0  0  0  0
 53 44  1  0  0  0  0
 54 44  1  0  0  0  0
M  END
$$$$
