KLF.pdb
 OpenBabel07022418513D

 62 62  0  0  1  0  0  0  0  0999 V2000
    2.4380   -1.6180    1.3270 N   0  0  0  0  0  0  0  0  0  0  0  0
    1.9260   -0.3670    1.6960 C   0  0  1  0  0  0  0  0  0  0  0  0
    2.9250    0.7370    1.8570 C   0  0  0  0  0  0  0  0  0  0  0  0
    3.9730    0.5470    2.8960 C   0  0  0  0  0  0  0  0  0  0  0  0
    4.8350   -0.6500    2.6260 C   0  0  0  0  0  0  0  0  0  0  0  0
    5.9100   -0.7310    3.7170 C   0  0  0  0  0  0  0  0  0  0  0  0
    6.6710    0.4980    3.6360 N   0  0  0  0  0  0  0  0  0  0  0  0
    0.8550    0.1580    0.8040 C   0  0  0  0  0  0  0  0  0  0  0  0
    0.3440    1.2500    1.1560 O   0  0  0  0  0  0  0  0  0  0  0  0
    3.0130   -1.6480    0.4860 H   0  0  0  0  0  0  0  0  0  0  0  0
    1.9420   -2.4540    1.6200 H   0  0  0  0  0  0  0  0  0  0  0  0
    1.4260   -0.4930    2.7070 H   0  0  0  0  0  0  0  0  0  0  0  0
    3.3900    0.8640    0.8260 H   0  0  0  0  0  0  0  0  0  0  0  0
    2.4220    1.7260    2.0430 H   0  0  0  0  0  0  0  0  0  0  0  0
    4.6240    1.4650    2.9860 H   0  0  0  0  0  0  0  0  0  0  0  0
    3.4880    0.4630    3.9180 H   0  0  0  0  0  0  0  0  0  0  0  0
    5.3710   -0.5860    1.6640 H   0  0  0  0  0  0  0  0  0  0  0  0
    4.2310   -1.5770    2.6410 H   0  0  0  0  0  0  0  0  0  0  0  0
    5.3800   -0.7910    4.6800 H   0  0  0  0  0  0  0  0  0  0  0  0
    6.5540   -1.5800    3.4890 H   0  0  0  0  0  0  0  0  0  0  0  0
    7.6410    0.2910    3.9750 H   0  0  0  0  0  0  0  0  0  0  0  0
    6.7470    0.7230    2.6010 H   0  0  0  0  0  0  0  0  0  0  0  0
   -1.7540    2.2520   -2.9430 C   0  0  0  0  0  0  0  0  0  0  0  0
   -1.0630    1.0490   -3.5470 C   0  0  0  0  0  0  0  0  0  0  0  0
   -1.9150    0.1080   -4.2870 C   0  0  0  0  0  0  0  0  0  0  0  0
   -0.1200    0.4890   -2.5270 C   0  0  0  0  0  0  0  0  0  0  0  0
   -0.6660    0.0620   -1.2320 C   0  0  2  0  0  0  0  0  0  0  0  0
    0.4010   -0.4620   -0.3520 N   0  0  0  0  0  0  0  0  0  0  0  0
   -1.7440   -0.8950   -1.1530 C   0  0  0  0  0  0  0  0  0  0  0  0
   -2.8230   -0.6660   -1.7360 O   0  0  0  0  0  0  0  0  0  0  0  0
   -2.7130    1.9660   -2.4930 H   0  0  0  0  0  0  0  0  0  0  0  0
   -1.0790    2.7250   -2.1950 H   0  0  0  0  0  0  0  0  0  0  0  0
   -1.9100    3.0150   -3.7390 H   0  0  0  0  0  0  0  0  0  0  0  0
   -0.3620    1.5190   -4.3500 H   0  0  0  0  0  0  0  0  0  0  0  0
   -1.7130    0.2310   -5.4030 H   0  0  0  0  0  0  0  0  0  0  0  0
   -3.0120    0.2680   -4.2250 H   0  0  0  0  0  0  0  0  0  0  0  0
   -1.6140   -0.9640   -4.1210 H   0  0  0  0  0  0  0  0  0  0  0  0
    0.5750   -0.2490   -2.9990 H   0  0  0  0  0  0  0  0  0  0  0  0
    0.5730    1.3650   -2.3000 H   0  0  0  0  0  0  0  0  0  0  0  0
   -1.0050    0.9980   -0.6920 H   0  0  0  0  0  0  0  0  0  0  0  0
    0.8150   -1.3610   -0.6580 H   0  0  0  0  0  0  0  0  0  0  0  0
   -1.6900   -2.1360   -0.4350 N   0  0  0  0  0  0  0  0  0  0  0  0
   -2.7690   -3.0650   -0.3720 C   0  0  1  0  0  0  0  0  0  0  0  0
   -4.0830   -2.5000    0.0980 C   0  0  0  0  0  0  0  0  0  0  0  0
   -4.0500   -1.9260    1.4490 C   0  0  0  0  0  0  0  0  0  0  0  0
   -4.2990   -2.7010    2.5560 C   0  0  0  0  0  0  0  0  0  0  0  0
   -4.2780   -2.1750    3.8370 C   0  0  0  0  0  0  0  0  0  0  0  0
   -4.0030   -0.8480    4.0290 C   0  0  0  0  0  0  0  0  0  0  0  0
   -3.7510   -0.0510    2.9410 C   0  0  0  0  0  0  0  0  0  0  0  0
   -3.7770   -0.5970    1.6630 C   0  0  0  0  0  0  0  0  0  0  0  0
   -2.9450   -3.6700   -1.7200 C   0  0  0  0  0  0  0  0  0  0  0  0
   -3.8380   -4.5310   -1.9190 O   0  0  0  0  0  0  0  0  0  0  0  0
   -2.1480   -3.3180   -2.8030 O   0  0  0  0  0  0  0  0  0  0  0  0
   -0.8030   -2.3580    0.0630 H   0  0  0  0  0  0  0  0  0  0  0  0
   -2.4800   -3.9250    0.2990 H   0  0  0  0  0  0  0  0  0  0  0  0
   -4.7990   -3.3730    0.1520 H   0  0  0  0  0  0  0  0  0  0  0  0
   -4.5460   -1.8240   -0.6500 H   0  0  0  0  0  0  0  0  0  0  0  0
   -4.5260   -3.7620    2.4840 H   0  0  0  0  0  0  0  0  0  0  0  0
   -4.4740   -2.7940    4.6990 H   0  0  0  0  0  0  0  0  0  0  0  0
   -3.9780   -0.3930    5.0330 H   0  0  0  0  0  0  0  0  0  0  0  0
   -3.5380    0.9910    3.1270 H   0  0  0  0  0  0  0  0  0  0  0  0
   -3.5820    0.0490    0.8340 H   0  0  0  0  0  0  0  0  0  0  0  0
  1 11  1  0  0  0  0
  1  2  1  0  0  0  0
  2  3  1  0  0  0  0
  2 12  1  1  0  0  0
  3 14  1  0  0  0  0
  3  4  1  0  0  0  0
  4 15  1  0  0  0  0
  4 16  1  0  0  0  0
  5 18  1  0  0  0  0
  5  4  1  0  0  0  0
  5  6  1  0  0  0  0
  6 19  1  0  0  0  0
  7  6  1  0  0  0  0
  7 21  1  0  0  0  0
  8  9  2  0  0  0  0
  8  2  1  0  0  0  0
 10  1  1  0  0  0  0
 13  3  1  0  0  0  0
 17  5  1  0  0  0  0
 20  6  1  0  0  0  0
 22  7  1  0  0  0  0
 23 31  1  0  0  0  0
 23 32  1  0  0  0  0
 24 23  1  0  0  0  0
 24 26  1  0  0  0  0
 25 36  1  0  0  0  0
 25 37  1  0  0  0  0
 25 24  1  0  0  0  0
 26 39  1  0  0  0  0
 26 27  1  0  0  0  0
 27 29  1  0  0  0  0
 27 40  1  1  0  0  0
 27 28  1  0  0  0  0
 28  8  1  0  0  0  0
 29 42  1  0  0  0  0
 30 29  2  0  0  0  0
 33 23  1  0  0  0  0
 34 24  1  0  0  0  0
 35 25  1  0  0  0  0
 38 26  1  0  0  0  0
 41 28  1  0  0  0  0
 42 43  1  0  0  0  0
 42 54  1  0  0  0  0
 43 44  1  0  0  0  0
 43 55  1  1  0  0  0
 44 56  1  0  0  0  0
 44 45  1  0  0  0  0
 45 50  2  0  0  0  0
 45 46  1  0  0  0  0
 46 47  2  0  0  0  0
 47 48  1  0  0  0  0
 47 59  1  0  0  0  0
 48 60  1  0  0  0  0
 49 61  1  0  0  0  0
 49 48  2  0  0  0  0
 50 49  1  0  0  0  0
 51 43  1  0  0  0  0
 52 51  1  0  0  0  0
 53 51  2  0  0  0  0
 57 44  1  0  0  0  0
 58 46  1  0  0  0  0
 62 50  1  0  0  0  0
M  END
$$$$
