KLG.pdb
 OpenBabel07022418513D

 49 48  0  0  1  0  0  0  0  0999 V2000
   -0.4650   -4.4940    2.5770 N   0  0  0  0  0  0  0  0  0  0  0  0
    0.4310   -3.5570    1.9590 C   0  0  1  0  0  0  0  0  0  0  0  0
    0.9960   -3.9960    0.6610 C   0  0  0  0  0  0  0  0  0  0  0  0
    0.0410   -4.2900   -0.4340 C   0  0  0  0  0  0  0  0  0  0  0  0
   -0.8200   -3.1460   -0.8500 C   0  0  0  0  0  0  0  0  0  0  0  0
   -1.7670   -3.5540   -1.9880 C   0  0  0  0  0  0  0  0  0  0  0  0
   -1.0290   -3.9950   -3.1470 N   0  0  0  0  0  0  0  0  0  0  0  0
   -0.0790   -2.1520    1.9720 C   0  0  0  0  0  0  0  0  0  0  0  0
   -1.1860   -1.8550    2.4900 O   0  0  0  0  0  0  0  0  0  0  0  0
   -1.1750   -4.8890    1.9240 H   0  0  0  0  0  0  0  0  0  0  0  0
    0.1000   -5.2930    2.9450 H   0  0  0  0  0  0  0  0  0  0  0  0
    1.3200   -3.5080    2.6720 H   0  0  0  0  0  0  0  0  0  0  0  0
    1.6550   -3.1520    0.2960 H   0  0  0  0  0  0  0  0  0  0  0  0
    1.6270   -4.9040    0.8340 H   0  0  0  0  0  0  0  0  0  0  0  0
   -0.5500   -5.2280   -0.2530 H   0  0  0  0  0  0  0  0  0  0  0  0
    0.6710   -4.5560   -1.3350 H   0  0  0  0  0  0  0  0  0  0  0  0
   -0.1470   -2.3680   -1.2810 H   0  0  0  0  0  0  0  0  0  0  0  0
   -1.4760   -2.7810   -0.0530 H   0  0  0  0  0  0  0  0  0  0  0  0
   -2.4090   -2.7040   -2.2790 H   0  0  0  0  0  0  0  0  0  0  0  0
   -2.4220   -4.3920   -1.6660 H   0  0  0  0  0  0  0  0  0  0  0  0
   -1.4860   -3.6890   -4.0290 H   0  0  0  0  0  0  0  0  0  0  0  0
   -0.0410   -3.6630   -3.1660 H   0  0  0  0  0  0  0  0  0  0  0  0
    1.8820    2.8590    3.6640 C   0  0  0  0  0  0  0  0  0  0  0  0
    0.7970    2.4020    2.6570 C   0  0  0  0  0  0  0  0  0  0  0  0
   -0.5100    2.6120    3.3860 C   0  0  0  0  0  0  0  0  0  0  0  0
    1.0580    0.9790    2.3890 C   0  0  0  0  0  0  0  0  0  0  0  0
    0.1350    0.2640    1.4330 C   0  0  2  0  0  0  0  0  0  0  0  0
    0.6710   -1.1060    1.3980 N   0  0  0  0  0  0  0  0  0  0  0  0
    0.0530    0.8280    0.0940 C   0  0  0  0  0  0  0  0  0  0  0  0
    0.5780    0.2470   -0.9090 O   0  0  0  0  0  0  0  0  0  0  0  0
    2.8820    2.6060    3.3140 H   0  0  0  0  0  0  0  0  0  0  0  0
    1.6970    2.2840    4.5950 H   0  0  0  0  0  0  0  0  0  0  0  0
    1.7490    3.9310    3.9010 H   0  0  0  0  0  0  0  0  0  0  0  0
    0.8200    3.0790    1.7830 H   0  0  0  0  0  0  0  0  0  0  0  0
   -0.3920    2.9370    4.4370 H   0  0  0  0  0  0  0  0  0  0  0  0
   -1.1660    3.3490    2.8740 H   0  0  0  0  0  0  0  0  0  0  0  0
   -1.0850    1.6420    3.4480 H   0  0  0  0  0  0  0  0  0  0  0  0
    2.1050    0.7590    2.0780 H   0  0  0  0  0  0  0  0  0  0  0  0
    0.9460    0.4260    3.3680 H   0  0  0  0  0  0  0  0  0  0  0  0
   -0.8490    0.2140    1.9100 H   0  0  0  0  0  0  0  0  0  0  0  0
    1.5920   -1.2230    0.9430 H   0  0  0  0  0  0  0  0  0  0  0  0
   -0.6140    2.0460   -0.1680 N   0  0  0  0  0  0  0  0  0  0  0  0
   -0.6620    2.5790   -1.5470 C   0  0  0  0  0  0  0  0  0  0  0  0
    0.6880    2.8250   -2.0620 C   0  0  0  0  0  0  0  0  0  0  0  0
    1.6990    2.5870   -1.3570 O   0  0  0  0  0  0  0  0  0  0  0  0
    0.8470    3.3250   -3.3430 O   0  0  0  0  0  0  0  0  0  0  0  0
   -1.0980    2.5900    0.5830 H   0  0  0  0  0  0  0  0  0  0  0  0
   -1.2970    3.4610   -1.5590 H   0  0  0  0  0  0  0  0  0  0  0  0
   -1.1740    1.8070   -2.1940 H   0  0  0  0  0  0  0  0  0  0  0  0
  1 11  1  0  0  0  0
  2  8  1  0  0  0  0
  2  1  1  0  0  0  0
  2 12  1  1  0  0  0
  3 14  1  0  0  0  0
  3  2  1  0  0  0  0
  4 15  1  0  0  0  0
  4  3  1  0  0  0  0
  5  4  1  0  0  0  0
  5 18  1  0  0  0  0
  6 20  1  0  0  0  0
  6  5  1  0  0  0  0
  7  6  1  0  0  0  0
  8  9  2  0  0  0  0
 10  1  1  0  0  0  0
 13  3  1  0  0  0  0
 16  4  1  0  0  0  0
 17  5  1  0  0  0  0
 19  6  1  0  0  0  0
 21  7  1  0  0  0  0
 22  7  1  0  0  0  0
 23 33  1  0  0  0  0
 23 32  1  0  0  0  0
 24 25  1  0  0  0  0
 24 23  1  0  0  0  0
 25 37  1  0  0  0  0
 25 35  1  0  0  0  0
 26 24  1  0  0  0  0
 26 39  1  0  0  0  0
 27 40  1  1  0  0  0
 27 26  1  0  0  0  0
 28 27  1  0  0  0  0
 28  8  1  0  0  0  0
 29 27  1  0  0  0  0
 30 29  2  0  0  0  0
 31 23  1  0  0  0  0
 34 24  1  0  0  0  0
 36 25  1  0  0  0  0
 38 26  1  0  0  0  0
 41 28  1  0  0  0  0
 42 29  1  0  0  0  0
 42 47  1  0  0  0  0
 43 42  1  0  0  0  0
 44 43  1  0  0  0  0
 44 45  1  0  0  0  0
 46 44  2  0  0  0  0
 48 43  1  0  0  0  0
 49 43  1  0  0  0  0
M  END
$$$$
