KLH.pdb
 OpenBabel07022418513D

 59 59  0  0  1  0  0  0  0  0999 V2000
   -0.7430    0.8720    4.2210 N   0  0  0  0  0  0  0  0  0  0  0  0
   -0.1960    0.7880    2.8920 C   0  0  1  0  0  0  0  0  0  0  0  0
    0.5700   -0.5160    2.7820 C   0  0  0  0  0  0  0  0  0  0  0  0
    1.6970   -0.5620    3.8040 C   0  0  0  0  0  0  0  0  0  0  0  0
    2.3950   -1.9120    3.6000 C   0  0  0  0  0  0  0  0  0  0  0  0
    3.5380   -2.0420    4.5840 C   0  0  0  0  0  0  0  0  0  0  0  0
    4.1660   -3.3280    4.3550 N   0  0  0  0  0  0  0  0  0  0  0  0
   -1.2110    0.9440    1.8390 C   0  0  0  0  0  0  0  0  0  0  0  0
   -2.4300    1.1340    2.1110 O   0  0  0  0  0  0  0  0  0  0  0  0
   -0.4650    1.7210    4.7310 H   0  0  0  0  0  0  0  0  0  0  0  0
   -0.6540    0.0160    4.7810 H   0  0  0  0  0  0  0  0  0  0  0  0
    0.5800    1.6010    2.8140 H   0  0  0  0  0  0  0  0  0  0  0  0
   -0.0650   -1.4040    2.8860 H   0  0  0  0  0  0  0  0  0  0  0  0
    1.0590   -0.5420    1.7870 H   0  0  0  0  0  0  0  0  0  0  0  0
    1.3290   -0.4610    4.8330 H   0  0  0  0  0  0  0  0  0  0  0  0
    2.4690    0.2020    3.5830 H   0  0  0  0  0  0  0  0  0  0  0  0
    2.7790   -1.9830    2.5750 H   0  0  0  0  0  0  0  0  0  0  0  0
    1.7040   -2.7580    3.7660 H   0  0  0  0  0  0  0  0  0  0  0  0
    4.2700   -1.2490    4.3950 H   0  0  0  0  0  0  0  0  0  0  0  0
    3.1270   -1.9720    5.6090 H   0  0  0  0  0  0  0  0  0  0  0  0
    4.9020   -3.1970    3.6280 H   0  0  0  0  0  0  0  0  0  0  0  0
    3.4600   -3.9800    3.9280 H   0  0  0  0  0  0  0  0  0  0  0  0
   -2.5200    1.6250   -3.8060 C   0  0  0  0  0  0  0  0  0  0  0  0
   -2.2700    2.5340   -2.6730 C   0  0  0  0  0  0  0  0  0  0  0  0
   -3.6210    3.1660   -2.2920 C   0  0  0  0  0  0  0  0  0  0  0  0
   -1.4890    2.1350   -1.5120 C   0  0  0  0  0  0  0  0  0  0  0  0
   -1.8680    1.0430   -0.6110 C   0  0  2  0  0  0  0  0  0  0  0  0
   -0.8910    0.8910    0.4730 N   0  0  0  0  0  0  0  0  0  0  0  0
   -1.9580   -0.2620   -1.2360 C   0  0  0  0  0  0  0  0  0  0  0  0
   -2.8260   -0.5040   -2.0820 O   0  0  0  0  0  0  0  0  0  0  0  0
   -3.5800    1.2370   -3.8880 H   0  0  0  0  0  0  0  0  0  0  0  0
   -1.7480    0.8840   -4.0450 H   0  0  0  0  0  0  0  0  0  0  0  0
   -2.4990    2.2860   -4.7560 H   0  0  0  0  0  0  0  0  0  0  0  0
   -1.7250    3.4490   -3.1140 H   0  0  0  0  0  0  0  0  0  0  0  0
   -4.2730    2.4630   -1.7780 H   0  0  0  0  0  0  0  0  0  0  0  0
   -3.4040    4.0920   -1.7520 H   0  0  0  0  0  0  0  0  0  0  0  0
   -4.0930    3.4430   -3.2580 H   0  0  0  0  0  0  0  0  0  0  0  0
   -0.4280    1.9400   -1.8530 H   0  0  0  0  0  0  0  0  0  0  0  0
   -1.4600    3.0840   -0.8600 H   0  0  0  0  0  0  0  0  0  0  0  0
   -2.8270    1.2950   -0.0570 H   0  0  0  0  0  0  0  0  0  0  0  0
    0.0940    0.7450    0.1680 H   0  0  0  0  0  0  0  0  0  0  0  0
   -1.0680   -1.3160   -0.9130 N   0  0  0  0  0  0  0  0  0  0  0  0
   -1.1850   -2.5910   -1.5480 C   0  0  1  0  0  0  0  0  0  0  0  0
   -0.0100   -3.1100   -2.2680 C   0  0  0  0  0  0  0  0  0  0  0  0
    1.2130   -3.3660   -1.5250 C   0  0  0  0  0  0  0  0  0  0  0  0
    1.4680   -3.2680   -0.1970 C   0  0  0  0  0  0  0  0  0  0  0  0
    2.7650   -3.6460    0.0540 N   0  0  0  0  0  0  0  0  0  0  0  0
    3.2680   -3.9670   -1.1370 C   0  0  0  0  0  0  0  0  0  0  0  0
    2.3720   -3.8130   -2.0960 N   0  0  0  0  0  0  0  0  0  0  0  0
   -1.6170   -3.6550   -0.5790 C   0  0  0  0  0  0  0  0  0  0  0  0
   -1.7430   -4.8190   -1.0320 O   0  0  0  0  0  0  0  0  0  0  0  0
   -1.8760   -3.4280    0.7440 O   0  0  0  0  0  0  0  0  0  0  0  0
   -0.3200   -1.1650   -0.2080 H   0  0  0  0  0  0  0  0  0  0  0  0
   -2.0360   -2.5300   -2.2800 H   0  0  0  0  0  0  0  0  0  0  0  0
    0.2720   -2.5080   -3.1710 H   0  0  0  0  0  0  0  0  0  0  0  0
   -0.3320   -4.0990   -2.7370 H   0  0  0  0  0  0  0  0  0  0  0  0
    0.8220   -2.9650    0.6110 H   0  0  0  0  0  0  0  0  0  0  0  0
    3.2660   -3.6820    0.9600 H   0  0  0  0  0  0  0  0  0  0  0  0
    4.2800   -4.3110   -1.3010 H   0  0  0  0  0  0  0  0  0  0  0  0
  1 10  1  0  0  0  0
  1 11  1  0  0  0  0
  2 12  1  6  0  0  0
  2  1  1  0  0  0  0
  3 13  1  0  0  0  0
  3  2  1  0  0  0  0
  3  4  1  0  0  0  0
  4 15  1  0  0  0  0
  5 18  1  0  0  0  0
  5  4  1  0  0  0  0
  5  6  1  0  0  0  0
  6 20  1  0  0  0  0
  7  6  1  0  0  0  0
  8  9  2  0  0  0  0
  8  2  1  0  0  0  0
 14  3  1  0  0  0  0
 16  4  1  0  0  0  0
 17  5  1  0  0  0  0
 19  6  1  0  0  0  0
 21  7  1  0  0  0  0
 22  7  1  0  0  0  0
 23 24  1  0  0  0  0
 24 25  1  0  0  0  0
 24 26  1  0  0  0  0
 25 35  1  0  0  0  0
 25 36  1  0  0  0  0
 26 39  1  0  0  0  0
 26 27  1  0  0  0  0
 27 40  1  1  0  0  0
 27 28  1  0  0  0  0
 28  8  1  0  0  0  0
 29 42  1  0  0  0  0
 29 27  1  0  0  0  0
 30 29  2  0  0  0  0
 31 23  1  0  0  0  0
 32 23  1  0  0  0  0
 33 23  1  0  0  0  0
 34 24  1  0  0  0  0
 37 25  1  0  0  0  0
 38 26  1  0  0  0  0
 41 28  1  0  0  0  0
 42 53  1  0  0  0  0
 43 54  1  6  0  0  0
 43 42  1  0  0  0  0
 43 50  1  0  0  0  0
 44 43  1  0  0  0  0
 44 45  1  0  0  0  0
 45 46  2  0  0  0  0
 46 47  1  0  0  0  0
 46 57  1  0  0  0  0
 47 58  1  0  0  0  0
 48 47  1  0  0  0  0
 49 45  1  0  0  0  0
 49 48  2  0  0  0  0
 50 52  1  0  0  0  0
 51 50  2  0  0  0  0
 55 44  1  0  0  0  0
 56 44  1  0  0  0  0
 59 48  1  0  0  0  0
M  END
$$$$
