KLL.pdb
 OpenBabel07022418513D

 61 60  0  0  1  0  0  0  0  0999 V2000
    0.7550   -1.8980    3.1120 N   0  0  0  0  0  0  0  0  0  0  0  0
    1.4450   -1.3250    1.9730 C   0  0  1  0  0  0  0  0  0  0  0  0
    1.6650   -2.4340    0.9830 C   0  0  0  0  0  0  0  0  0  0  0  0
    2.3720   -2.0040   -0.2610 C   0  0  0  0  0  0  0  0  0  0  0  0
    3.7340   -1.4360   -0.0170 C   0  0  0  0  0  0  0  0  0  0  0  0
    4.6690   -2.4180    0.6560 C   0  0  0  0  0  0  0  0  0  0  0  0
    5.9470   -1.7090    0.8200 N   0  0  0  0  0  0  0  0  0  0  0  0
    0.6120   -0.2320    1.4370 C   0  0  0  0  0  0  0  0  0  0  0  0
    0.9600    0.4460    0.4510 O   0  0  0  0  0  0  0  0  0  0  0  0
    1.4060   -2.2850    3.8300 H   0  0  0  0  0  0  0  0  0  0  0  0
    0.0160   -2.5770    2.8220 H   0  0  0  0  0  0  0  0  0  0  0  0
    2.4070   -0.9310    2.3580 H   0  0  0  0  0  0  0  0  0  0  0  0
    0.7140   -2.9010    0.7290 H   0  0  0  0  0  0  0  0  0  0  0  0
    2.2870   -3.2040    1.4900 H   0  0  0  0  0  0  0  0  0  0  0  0
    2.5240   -2.9390   -0.8750 H   0  0  0  0  0  0  0  0  0  0  0  0
    1.7860   -1.3050   -0.8550 H   0  0  0  0  0  0  0  0  0  0  0  0
    3.7160   -0.4690    0.5220 H   0  0  0  0  0  0  0  0  0  0  0  0
    4.1840   -1.2160   -1.0170 H   0  0  0  0  0  0  0  0  0  0  0  0
    4.8940   -3.2670   -0.0210 H   0  0  0  0  0  0  0  0  0  0  0  0
    4.2890   -2.8210    1.5930 H   0  0  0  0  0  0  0  0  0  0  0  0
    5.8230   -0.6770    0.7550 H   0  0  0  0  0  0  0  0  0  0  0  0
    6.3470   -1.8910    1.7690 H   0  0  0  0  0  0  0  0  0  0  0  0
    0.8110    2.4570    3.0860 C   0  0  0  0  0  0  0  0  0  0  0  0
   -0.3110    3.1820    2.4490 C   0  0  0  0  0  0  0  0  0  0  0  0
    0.1980    4.5760    2.0190 C   0  0  0  0  0  0  0  0  0  0  0  0
   -0.9240    2.4810    1.2780 C   0  0  0  0  0  0  0  0  0  0  0  0
   -1.4990    1.1410    1.5800 C   0  0  2  0  0  0  0  0  0  0  0  0
   -0.6530    0.1090    2.0330 N   0  0  0  0  0  0  0  0  0  0  0  0
   -2.5180    0.7140    0.5870 C   0  0  0  0  0  0  0  0  0  0  0  0
   -3.3440    1.5250    0.0910 O   0  0  0  0  0  0  0  0  0  0  0  0
    1.2400    3.1760    3.8600 H   0  0  0  0  0  0  0  0  0  0  0  0
    0.4780    1.5430    3.6250 H   0  0  0  0  0  0  0  0  0  0  0  0
    1.6050    2.2710    2.3610 H   0  0  0  0  0  0  0  0  0  0  0  0
   -1.1220    3.4380    3.1990 H   0  0  0  0  0  0  0  0  0  0  0  0
    1.2270    4.5060    1.6210 H   0  0  0  0  0  0  0  0  0  0  0  0
    0.1140    5.2970    2.8510 H   0  0  0  0  0  0  0  0  0  0  0  0
   -0.4830    4.9150    1.2240 H   0  0  0  0  0  0  0  0  0  0  0  0
   -1.8180    3.1200    0.9910 H   0  0  0  0  0  0  0  0  0  0  0  0
   -0.2960    2.5140    0.3680 H   0  0  0  0  0  0  0  0  0  0  0  0
   -2.1380    1.4120    2.5140 H   0  0  0  0  0  0  0  0  0  0  0  0
   -0.9090   -0.4950    2.8610 H   0  0  0  0  0  0  0  0  0  0  0  0
   -2.6410   -3.9350   -1.4490 C   0  0  0  0  0  0  0  0  0  0  0  0
   -2.0570   -2.6760   -1.9860 C   0  0  0  0  0  0  0  0  0  0  0  0
   -1.4840   -2.9580   -3.3640 C   0  0  0  0  0  0  0  0  0  0  0  0
   -2.9860   -1.5220   -2.1080 C   0  0  0  0  0  0  0  0  0  0  0  0
   -3.6200   -1.0550   -0.8380 C   0  0  2  0  0  0  0  0  0  0  0  0
   -2.6230   -0.6360    0.1340 N   0  0  0  0  0  0  0  0  0  0  0  0
   -4.5830   -2.0200   -0.2820 C   0  0  0  0  0  0  0  0  0  0  0  0
   -4.4910   -2.3920    0.9030 O   0  0  0  0  0  0  0  0  0  0  0  0
   -5.5910   -2.5130   -1.0750 O   0  0  0  0  0  0  0  0  0  0  0  0
   -2.6270   -3.9910   -0.3210 H   0  0  0  0  0  0  0  0  0  0  0  0
   -1.9320   -4.7660   -1.7450 H   0  0  0  0  0  0  0  0  0  0  0  0
   -3.6040   -4.2240   -1.8810 H   0  0  0  0  0  0  0  0  0  0  0  0
   -1.2030   -2.3730   -1.3520 H   0  0  0  0  0  0  0  0  0  0  0  0
   -1.3080   -1.9760   -3.8410 H   0  0  0  0  0  0  0  0  0  0  0  0
   -2.2100   -3.5560   -3.9440 H   0  0  0  0  0  0  0  0  0  0  0  0
   -0.5270   -3.4810   -3.2100 H   0  0  0  0  0  0  0  0  0  0  0  0
   -3.7940   -1.6700   -2.8530 H   0  0  0  0  0  0  0  0  0  0  0  0
   -2.3760   -0.6600   -2.5000 H   0  0  0  0  0  0  0  0  0  0  0  0
   -4.2400   -0.1530   -1.1310 H   0  0  0  0  0  0  0  0  0  0  0  0
   -1.9620   -1.3230    0.5200 H   0  0  0  0  0  0  0  0  0  0  0  0
  1 10  1  0  0  0  0
  2 12  1  1  0  0  0
  2  1  1  0  0  0  0
  3 14  1  0  0  0  0
  3  2  1  0  0  0  0
  4  5  1  0  0  0  0
  4  3  1  0  0  0  0
  5 17  1  0  0  0  0
  5  6  1  0  0  0  0
  6  7  1  0  0  0  0
  6 20  1  0  0  0  0
  7 22  1  0  0  0  0
  8  2  1  0  0  0  0
  8 28  1  0  0  0  0
  9  8  2  0  0  0  0
 11  1  1  0  0  0  0
 13  3  1  0  0  0  0
 15  4  1  0  0  0  0
 16  4  1  0  0  0  0
 18  5  1  0  0  0  0
 19  6  1  0  0  0  0
 21  7  1  0  0  0  0
 23 32  1  0  0  0  0
 23 31  1  0  0  0  0
 24 23  1  0  0  0  0
 24 34  1  0  0  0  0
 25 24  1  0  0  0  0
 25 36  1  0  0  0  0
 26 27  1  0  0  0  0
 26 24  1  0  0  0  0
 27 28  1  0  0  0  0
 27 40  1  1  0  0  0
 28 41  1  0  0  0  0
 29 27  1  0  0  0  0
 30 29  2  0  0  0  0
 33 23  1  0  0  0  0
 35 25  1  0  0  0  0
 37 25  1  0  0  0  0
 38 26  1  0  0  0  0
 39 26  1  0  0  0  0
 42 51  1  0  0  0  0
 43 42  1  0  0  0  0
 43 54  1  0  0  0  0
 44 57  1  0  0  0  0
 44 43  1  0  0  0  0
 45 43  1  0  0  0  0
 45 46  1  0  0  0  0
 46 60  1  6  0  0  0
 46 48  1  0  0  0  0
 46 47  1  0  0  0  0
 47 61  1  0  0  0  0
 47 29  1  0  0  0  0
 48 49  1  0  0  0  0
 50 48  2  0  0  0  0
 52 42  1  0  0  0  0
 53 42  1  0  0  0  0
 55 44  1  0  0  0  0
 56 44  1  0  0  0  0
 58 45  1  0  0  0  0
 59 45  1  0  0  0  0
M  END
$$$$
