KLQ.pdb
 OpenBabel07022418513D

 59 58  0  0  1  0  0  0  0  0999 V2000
   -1.0290   -0.9460    4.4700 N   0  0  0  0  0  0  0  0  0  0  0  0
   -0.3180    0.1580    3.7180 C   0  0  1  0  0  0  0  0  0  0  0  0
    1.1210    0.0160    3.9260 C   0  0  0  0  0  0  0  0  0  0  0  0
    1.9920    1.0750    3.3490 C   0  0  0  0  0  0  0  0  0  0  0  0
    3.4660    0.8010    3.6220 C   0  0  0  0  0  0  0  0  0  0  0  0
    3.7850    0.7370    5.0820 C   0  0  0  0  0  0  0  0  0  0  0  0
    5.2150    0.4740    5.2140 N   0  0  0  0  0  0  0  0  0  0  0  0
   -0.9100    0.0660    2.3920 C   0  0  0  0  0  0  0  0  0  0  0  0
   -2.2190    0.0170    2.3840 O   0  0  0  0  0  0  0  0  0  0  0  0
   -0.3980   -1.1750    5.2650 H   0  0  0  0  0  0  0  0  0  0  0  0
   -1.0070   -1.7830    3.8300 H   0  0  0  0  0  0  0  0  0  0  0  0
   -0.7350    1.0750    4.2110 H   0  0  0  0  0  0  0  0  0  0  0  0
    1.3010    0.0570    5.0550 H   0  0  0  0  0  0  0  0  0  0  0  0
    1.4990   -1.0130    3.6690 H   0  0  0  0  0  0  0  0  0  0  0  0
    1.8460    1.2670    2.3140 H   0  0  0  0  0  0  0  0  0  0  0  0
    1.8150    2.0750    3.8800 H   0  0  0  0  0  0  0  0  0  0  0  0
    4.0670    1.6160    3.1610 H   0  0  0  0  0  0  0  0  0  0  0  0
    3.7570   -0.1490    3.1400 H   0  0  0  0  0  0  0  0  0  0  0  0
    3.2640   -0.1550    5.5350 H   0  0  0  0  0  0  0  0  0  0  0  0
    3.5490    1.6700    5.6030 H   0  0  0  0  0  0  0  0  0  0  0  0
    5.4010   -0.5280    5.3620 H   0  0  0  0  0  0  0  0  0  0  0  0
    5.7130    0.8430    4.3770 H   0  0  0  0  0  0  0  0  0  0  0  0
   -0.5910    2.8680    0.6600 C   0  0  0  0  0  0  0  0  0  0  0  0
   -1.3520    2.3890   -0.5350 C   0  0  0  0  0  0  0  0  0  0  0  0
   -1.1450    3.4360   -1.6460 C   0  0  0  0  0  0  0  0  0  0  0  0
   -0.9370    1.0430   -1.0560 C   0  0  0  0  0  0  0  0  0  0  0  0
   -1.0850   -0.0730   -0.1130 C   0  0  2  0  0  0  0  0  0  0  0  0
   -0.3140    0.0160    1.1200 N   0  0  0  0  0  0  0  0  0  0  0  0
   -0.8590   -1.4150   -0.7090 C   0  0  0  0  0  0  0  0  0  0  0  0
   -0.1020   -2.2380   -0.1350 O   0  0  0  0  0  0  0  0  0  0  0  0
    0.3680    2.3360    0.7950 H   0  0  0  0  0  0  0  0  0  0  0  0
   -1.2040    2.7910    1.5830 H   0  0  0  0  0  0  0  0  0  0  0  0
   -0.4060    3.9810    0.5580 H   0  0  0  0  0  0  0  0  0  0  0  0
   -2.4320    2.4090   -0.2480 H   0  0  0  0  0  0  0  0  0  0  0  0
   -0.2660    3.0650   -2.2270 H   0  0  0  0  0  0  0  0  0  0  0  0
   -2.0040    3.4380   -2.3490 H   0  0  0  0  0  0  0  0  0  0  0  0
   -0.9610    4.4100   -1.1680 H   0  0  0  0  0  0  0  0  0  0  0  0
    0.0880    1.1770   -1.4670 H   0  0  0  0  0  0  0  0  0  0  0  0
   -1.5680    0.8530   -1.9780 H   0  0  0  0  0  0  0  0  0  0  0  0
   -2.1740   -0.0930    0.2030 H   0  0  0  0  0  0  0  0  0  0  0  0
    0.7160    0.0060    1.0350 H   0  0  0  0  0  0  0  0  0  0  0  0
   -1.2680   -7.4110   -3.0310 N   0  0  0  0  0  0  0  0  0  0  0  0
   -1.5720   -6.1210   -2.4730 C   0  0  0  0  0  0  0  0  0  0  0  0
   -1.1190   -5.8860   -1.3450 O   0  0  0  0  0  0  0  0  0  0  0  0
   -2.3870   -5.2250   -3.3000 C   0  0  0  0  0  0  0  0  0  0  0  0
   -2.5480   -3.8580   -2.7080 C   0  0  0  0  0  0  0  0  0  0  0  0
   -1.2470   -3.1540   -2.5160 C   0  0  2  0  0  0  0  0  0  0  0  0
   -1.4690   -1.8270   -1.9230 N   0  0  0  0  0  0  0  0  0  0  0  0
   -0.5310   -2.9190   -3.7790 C   0  0  0  0  0  0  0  0  0  0  0  0
   -0.1180   -3.8380   -4.5020 O   0  0  0  0  0  0  0  0  0  0  0  0
   -0.2920   -1.6260   -4.2070 O   0  0  0  0  0  0  0  0  0  0  0  0
   -1.8940   -7.8650   -3.7150 H   0  0  0  0  0  0  0  0  0  0  0  0
   -0.4030   -7.9230   -2.7580 H   0  0  0  0  0  0  0  0  0  0  0  0
   -1.9120   -5.1250   -4.2940 H   0  0  0  0  0  0  0  0  0  0  0  0
   -3.4040   -5.6890   -3.5020 H   0  0  0  0  0  0  0  0  0  0  0  0
   -3.1890   -3.2770   -3.4400 H   0  0  0  0  0  0  0  0  0  0  0  0
   -3.1490   -3.9090   -1.7620 H   0  0  0  0  0  0  0  0  0  0  0  0
   -0.5560   -3.7450   -1.8800 H   0  0  0  0  0  0  0  0  0  0  0  0
   -2.0930   -1.1360   -2.3880 H   0  0  0  0  0  0  0  0  0  0  0  0
  1 10  1  0  0  0  0
  2  3  1  0  0  0  0
  2 12  1  1  0  0  0
  2  1  1  0  0  0  0
  3 13  1  0  0  0  0
  4  5  1  0  0  0  0
  4 16  1  0  0  0  0
  4  3  1  0  0  0  0
  5  6  1  0  0  0  0
  6  7  1  0  0  0  0
  6 19  1  0  0  0  0
  6 20  1  0  0  0  0
  7 21  1  0  0  0  0
  8  2  1  0  0  0  0
  9  8  2  0  0  0  0
 11  1  1  0  0  0  0
 14  3  1  0  0  0  0
 15  4  1  0  0  0  0
 17  5  1  0  0  0  0
 18  5  1  0  0  0  0
 22  7  1  0  0  0  0
 23 31  1  0  0  0  0
 23 32  1  0  0  0  0
 24 34  1  0  0  0  0
 24 23  1  0  0  0  0
 25 37  1  0  0  0  0
 25 24  1  0  0  0  0
 26 24  1  0  0  0  0
 26 27  1  0  0  0  0
 27 40  1  1  0  0  0
 27 28  1  0  0  0  0
 28  8  1  0  0  0  0
 29 30  2  0  0  0  0
 29 27  1  0  0  0  0
 33 23  1  0  0  0  0
 35 25  1  0  0  0  0
 36 25  1  0  0  0  0
 38 26  1  0  0  0  0
 39 26  1  0  0  0  0
 41 28  1  0  0  0  0
 42 53  1  0  0  0  0
 42 43  1  0  0  0  0
 43 44  2  0  0  0  0
 45 46  1  0  0  0  0
 45 43  1  0  0  0  0
 46 47  1  0  0  0  0
 46 57  1  0  0  0  0
 47 48  1  0  0  0  0
 47 58  1  1  0  0  0
 48 29  1  0  0  0  0
 49 47  1  0  0  0  0
 50 49  2  0  0  0  0
 51 49  1  0  0  0  0
 52 42  1  0  0  0  0
 54 45  1  0  0  0  0
 55 45  1  0  0  0  0
 56 46  1  0  0  0  0
 59 48  1  0  0  0  0
M  END
$$$$
