KLS.pdb
 OpenBabel07022418513D

 53 52  0  0  1  0  0  0  0  0999 V2000
    0.5200   -2.1230    3.9430 N   0  0  0  0  0  0  0  0  0  0  0  0
    0.8970   -1.2680    2.8500 C   0  0  1  0  0  0  0  0  0  0  0  0
    1.6520   -2.0150    1.7590 C   0  0  0  0  0  0  0  0  0  0  0  0
    0.7390   -3.0980    1.2460 C   0  0  0  0  0  0  0  0  0  0  0  0
    1.3620   -3.9200    0.1580 C   0  0  0  0  0  0  0  0  0  0  0  0
    2.6180   -4.6220    0.5780 C   0  0  0  0  0  0  0  0  0  0  0  0
    2.3630   -5.5200    1.6700 N   0  0  0  0  0  0  0  0  0  0  0  0
   -0.3410   -0.6440    2.3150 C   0  0  0  0  0  0  0  0  0  0  0  0
   -1.4820   -0.8770    2.7890 O   0  0  0  0  0  0  0  0  0  0  0  0
    0.3230   -1.5390    4.7790 H   0  0  0  0  0  0  0  0  0  0  0  0
    1.2610   -2.8390    4.1090 H   0  0  0  0  0  0  0  0  0  0  0  0
    1.5120   -0.4380    3.2620 H   0  0  0  0  0  0  0  0  0  0  0  0
    2.5630   -2.4310    2.2440 H   0  0  0  0  0  0  0  0  0  0  0  0
    1.9380   -1.2840    0.9970 H   0  0  0  0  0  0  0  0  0  0  0  0
    0.3440   -3.6810    2.0780 H   0  0  0  0  0  0  0  0  0  0  0  0
   -0.1350   -2.5650    0.7740 H   0  0  0  0  0  0  0  0  0  0  0  0
    0.6170   -4.7220   -0.1000 H   0  0  0  0  0  0  0  0  0  0  0  0
    1.4760   -3.3140   -0.7450 H   0  0  0  0  0  0  0  0  0  0  0  0
    3.4690   -3.9380    0.7460 H   0  0  0  0  0  0  0  0  0  0  0  0
    2.9260   -5.2650   -0.2950 H   0  0  0  0  0  0  0  0  0  0  0  0
    1.8490   -6.3480    1.2850 H   0  0  0  0  0  0  0  0  0  0  0  0
    1.8280   -5.0400    2.4010 H   0  0  0  0  0  0  0  0  0  0  0  0
   -2.3950    2.4380    3.0140 C   0  0  0  0  0  0  0  0  0  0  0  0
   -1.2030    2.8450    2.2030 C   0  0  0  0  0  0  0  0  0  0  0  0
   -1.1430    4.3750    2.1950 C   0  0  0  0  0  0  0  0  0  0  0  0
   -1.2600    2.4080    0.7770 C   0  0  0  0  0  0  0  0  0  0  0  0
   -1.3490    0.8990    0.6390 C   0  0  2  0  0  0  0  0  0  0  0  0
   -0.2190    0.2470    1.2260 N   0  0  0  0  0  0  0  0  0  0  0  0
   -1.5490    0.5200   -0.7820 C   0  0  0  0  0  0  0  0  0  0  0  0
   -2.5010    1.0050   -1.4470 O   0  0  0  0  0  0  0  0  0  0  0  0
   -2.7240    3.2960    3.6710 H   0  0  0  0  0  0  0  0  0  0  0  0
   -2.1960    1.6070    3.7220 H   0  0  0  0  0  0  0  0  0  0  0  0
   -3.2660    2.1250    2.3680 H   0  0  0  0  0  0  0  0  0  0  0  0
   -0.2460    2.5200    2.6700 H   0  0  0  0  0  0  0  0  0  0  0  0
   -1.6990    4.7930    3.0600 H   0  0  0  0  0  0  0  0  0  0  0  0
   -0.1060    4.7420    2.2810 H   0  0  0  0  0  0  0  0  0  0  0  0
   -1.6220    4.7810    1.2780 H   0  0  0  0  0  0  0  0  0  0  0  0
   -2.1140    2.8950    0.2820 H   0  0  0  0  0  0  0  0  0  0  0  0
   -0.3420    2.8040    0.2750 H   0  0  0  0  0  0  0  0  0  0  0  0
   -2.2590    0.5810    1.1860 H   0  0  0  0  0  0  0  0  0  0  0  0
    0.7260    0.4680    0.8000 H   0  0  0  0  0  0  0  0  0  0  0  0
    0.2970   -0.7390   -4.9330 O   0  0  0  0  0  0  0  0  0  0  0  0
    0.4130   -0.3940   -3.5890 C   0  0  0  0  0  0  0  0  0  0  0  0
   -0.8570   -0.7800   -2.8260 C   0  0  2  0  0  0  0  0  0  0  0  0
   -0.6790   -0.4000   -1.4460 N   0  0  0  0  0  0  0  0  0  0  0  0
   -1.0110   -2.2460   -2.9910 C   0  0  0  0  0  0  0  0  0  0  0  0
   -0.9930   -3.0780   -2.0520 O   0  0  0  0  0  0  0  0  0  0  0  0
   -1.1890   -2.7360   -4.2750 O   0  0  0  0  0  0  0  0  0  0  0  0
    0.6720   -0.0220   -5.5280 H   0  0  0  0  0  0  0  0  0  0  0  0
    1.2220   -1.0230   -3.1220 H   0  0  0  0  0  0  0  0  0  0  0  0
    0.5980    0.6760   -3.4250 H   0  0  0  0  0  0  0  0  0  0  0  0
   -1.7520   -0.2560   -3.2690 H   0  0  0  0  0  0  0  0  0  0  0  0
    0.1230   -0.8260   -0.9320 H   0  0  0  0  0  0  0  0  0  0  0  0
  1 11  1  0  0  0  0
  1 10  1  0  0  0  0
  2 12  1  1  0  0  0
  2  1  1  0  0  0  0
  3 13  1  0  0  0  0
  3  2  1  0  0  0  0
  4  3  1  0  0  0  0
  4 15  1  0  0  0  0
  5  6  1  0  0  0  0
  5  4  1  0  0  0  0
  6 19  1  0  0  0  0
  6  7  1  0  0  0  0
  7 22  1  0  0  0  0
  8  9  2  0  0  0  0
  8  2  1  0  0  0  0
 14  3  1  0  0  0  0
 16  4  1  0  0  0  0
 17  5  1  0  0  0  0
 18  5  1  0  0  0  0
 20  6  1  0  0  0  0
 21  7  1  0  0  0  0
 23 31  1  0  0  0  0
 23 32  1  0  0  0  0
 24 34  1  0  0  0  0
 24 23  1  0  0  0  0
 25 24  1  0  0  0  0
 25 36  1  0  0  0  0
 25 35  1  0  0  0  0
 26 24  1  0  0  0  0
 27 26  1  0  0  0  0
 27 40  1  1  0  0  0
 27 28  1  0  0  0  0
 28  8  1  0  0  0  0
 29 27  1  0  0  0  0
 30 29  2  0  0  0  0
 33 23  1  0  0  0  0
 37 25  1  0  0  0  0
 38 26  1  0  0  0  0
 39 26  1  0  0  0  0
 41 28  1  0  0  0  0
 42 43  1  0  0  0  0
 43 51  1  0  0  0  0
 43 50  1  0  0  0  0
 43 44  1  0  0  0  0
 44 52  1  6  0  0  0
 44 45  1  0  0  0  0
 45 53  1  0  0  0  0
 45 29  1  0  0  0  0
 46 44  1  0  0  0  0
 46 47  1  0  0  0  0
 48 46  2  0  0  0  0
 49 42  1  0  0  0  0
M  END
$$$$
