KLT.pdb
 OpenBabel07022418513D

 56 55  0  0  1  0  0  0  0  0999 V2000
    1.9140   -3.5640    2.0850 N   0  0  0  0  0  0  0  0  0  0  0  0
    1.5460   -2.2580    1.5340 C   0  0  1  0  0  0  0  0  0  0  0  0
    1.4280   -2.4630    0.0350 C   0  0  0  0  0  0  0  0  0  0  0  0
    2.7300   -2.9410   -0.5630 C   0  0  0  0  0  0  0  0  0  0  0  0
    3.8730   -1.9830   -0.3600 C   0  0  0  0  0  0  0  0  0  0  0  0
    5.1160   -2.5680   -1.0020 C   0  0  0  0  0  0  0  0  0  0  0  0
    5.4640   -3.8470   -0.4130 N   0  0  0  0  0  0  0  0  0  0  0  0
    0.2330   -1.9050    2.1350 C   0  0  0  0  0  0  0  0  0  0  0  0
   -0.3650   -2.6580    2.9520 O   0  0  0  0  0  0  0  0  0  0  0  0
    1.6060   -4.3320    1.4430 H   0  0  0  0  0  0  0  0  0  0  0  0
    1.4050   -3.7350    2.9850 H   0  0  0  0  0  0  0  0  0  0  0  0
    2.3400   -1.5630    1.8020 H   0  0  0  0  0  0  0  0  0  0  0  0
    1.1620   -1.4960   -0.4290 H   0  0  0  0  0  0  0  0  0  0  0  0
    0.6720   -3.2410   -0.1970 H   0  0  0  0  0  0  0  0  0  0  0  0
    2.5520   -3.1700   -1.6290 H   0  0  0  0  0  0  0  0  0  0  0  0
    3.0180   -3.9260   -0.0960 H   0  0  0  0  0  0  0  0  0  0  0  0
    3.6380   -1.0390   -0.8760 H   0  0  0  0  0  0  0  0  0  0  0  0
    4.0300   -1.7730    0.7000 H   0  0  0  0  0  0  0  0  0  0  0  0
    5.9800   -1.8670   -0.8290 H   0  0  0  0  0  0  0  0  0  0  0  0
    4.9540   -2.6790   -2.0820 H   0  0  0  0  0  0  0  0  0  0  0  0
    5.9480   -4.4750   -1.1080 H   0  0  0  0  0  0  0  0  0  0  0  0
    6.0400   -3.7570    0.4340 H   0  0  0  0  0  0  0  0  0  0  0  0
    0.1810    2.2570    2.2960 C   0  0  0  0  0  0  0  0  0  0  0  0
   -1.2230    2.1770    2.7960 C   0  0  0  0  0  0  0  0  0  0  0  0
   -2.1210    2.8070    1.7570 C   0  0  0  0  0  0  0  0  0  0  0  0
   -1.6860    0.8690    3.2850 C   0  0  0  0  0  0  0  0  0  0  0  0
   -1.6960   -0.2850    2.3590 C   0  0  2  0  0  0  0  0  0  0  0  0
   -0.4260   -0.6610    1.8000 N   0  0  0  0  0  0  0  0  0  0  0  0
   -2.7610   -0.2050    1.3260 C   0  0  0  0  0  0  0  0  0  0  0  0
   -3.9130    0.1160    1.7000 O   0  0  0  0  0  0  0  0  0  0  0  0
    0.8430    1.4870    2.7480 H   0  0  0  0  0  0  0  0  0  0  0  0
    0.2440    2.2930    1.1790 H   0  0  0  0  0  0  0  0  0  0  0  0
    0.6790    3.2300    2.6000 H   0  0  0  0  0  0  0  0  0  0  0  0
   -1.2740    2.8800    3.6830 H   0  0  0  0  0  0  0  0  0  0  0  0
   -1.8230    3.8770    1.6530 H   0  0  0  0  0  0  0  0  0  0  0  0
   -1.8900    2.3500    0.7570 H   0  0  0  0  0  0  0  0  0  0  0  0
   -3.1800    2.7860    2.0120 H   0  0  0  0  0  0  0  0  0  0  0  0
   -1.0480    0.5890    4.1650 H   0  0  0  0  0  0  0  0  0  0  0  0
   -2.7120    0.9890    3.6910 H   0  0  0  0  0  0  0  0  0  0  0  0
   -2.0150   -1.1660    3.0050 H   0  0  0  0  0  0  0  0  0  0  0  0
    0.1090   -0.0810    1.1160 H   0  0  0  0  0  0  0  0  0  0  0  0
   -1.7610    0.3070   -2.6920 C   0  0  0  0  0  0  0  0  0  0  0  0
   -3.0820    0.6430   -2.0670 C   0  0  1  0  0  0  0  0  0  0  0  0
   -4.0510    0.7280   -3.0680 O   0  0  0  0  0  0  0  0  0  0  0  0
   -3.5130   -0.4100   -1.0710 C   0  0  2  0  0  0  0  0  0  0  0  0
   -2.4770   -0.4820   -0.0280 N   0  0  0  0  0  0  0  0  0  0  0  0
   -3.5500   -1.7180   -1.8090 C   0  0  0  0  0  0  0  0  0  0  0  0
   -4.3590   -1.9020   -2.7530 O   0  0  0  0  0  0  0  0  0  0  0  0
   -2.7040   -2.7700   -1.4880 O   0  0  0  0  0  0  0  0  0  0  0  0
   -0.9180    0.8960   -2.2830 H   0  0  0  0  0  0  0  0  0  0  0  0
   -1.5820   -0.7870   -2.6140 H   0  0  0  0  0  0  0  0  0  0  0  0
   -1.8050    0.5320   -3.7780 H   0  0  0  0  0  0  0  0  0  0  0  0
   -3.0450    1.6490   -1.5850 H   0  0  0  0  0  0  0  0  0  0  0  0
   -3.7480    0.3380   -3.9080 H   0  0  0  0  0  0  0  0  0  0  0  0
   -4.4780   -0.1260   -0.6600 H   0  0  0  0  0  0  0  0  0  0  0  0
   -1.4980   -0.7420   -0.2720 H   0  0  0  0  0  0  0  0  0  0  0  0
  1 11  1  0  0  0  0
  2 12  1  1  0  0  0
  2  1  1  0  0  0  0
  2  8  1  0  0  0  0
  3  2  1  0  0  0  0
  4  5  1  0  0  0  0
  4 16  1  0  0  0  0
  4  3  1  0  0  0  0
  5 18  1  0  0  0  0
  6 19  1  0  0  0  0
  6  7  1  0  0  0  0
  6  5  1  0  0  0  0
  7 22  1  0  0  0  0
  8  9  2  0  0  0  0
 10  1  1  0  0  0  0
 13  3  1  0  0  0  0
 14  3  1  0  0  0  0
 15  4  1  0  0  0  0
 17  5  1  0  0  0  0
 20  6  1  0  0  0  0
 21  7  1  0  0  0  0
 23 33  1  0  0  0  0
 23 31  1  0  0  0  0
 23 24  1  0  0  0  0
 24 26  1  0  0  0  0
 24 34  1  0  0  0  0
 25 37  1  0  0  0  0
 25 24  1  0  0  0  0
 26 39  1  0  0  0  0
 26 38  1  0  0  0  0
 27 40  1  1  0  0  0
 27 26  1  0  0  0  0
 28  8  1  0  0  0  0
 28 27  1  0  0  0  0
 29 30  2  0  0  0  0
 29 27  1  0  0  0  0
 32 23  1  0  0  0  0
 35 25  1  0  0  0  0
 36 25  1  0  0  0  0
 41 28  1  0  0  0  0
 42 51  1  0  0  0  0
 42 50  1  0  0  0  0
 42 43  1  0  0  0  0
 43 53  1  1  0  0  0
 43 45  1  0  0  0  0
 44 43  1  0  0  0  0
 45 55  1  1  0  0  0
 45 46  1  0  0  0  0
 46 29  1  0  0  0  0
 47 49  1  0  0  0  0
 47 45  1  0  0  0  0
 48 47  2  0  0  0  0
 52 42  1  0  0  0  0
 54 44  1  0  0  0  0
 56 46  1  0  0  0  0
M  END
$$$$
