KLV.pdb
 OpenBabel07022418513D

 58 57  0  0  1  0  0  0  0  0999 V2000
   -0.5180   -1.1230    4.6450 N   0  0  0  0  0  0  0  0  0  0  0  0
   -1.5990   -0.9330    3.7580 C   0  0  1  0  0  0  0  0  0  0  0  0
   -2.3860    0.3310    4.1330 C   0  0  0  0  0  0  0  0  0  0  0  0
   -1.5110    1.5480    4.0680 C   0  0  0  0  0  0  0  0  0  0  0  0
   -2.2760    2.8010    4.4350 C   0  0  0  0  0  0  0  0  0  0  0  0
   -1.3720    4.0100    4.3600 C   0  0  0  0  0  0  0  0  0  0  0  0
   -0.2460    3.8850    5.2730 N   0  0  0  0  0  0  0  0  0  0  0  0
   -1.2950   -0.8400    2.3270 C   0  0  0  0  0  0  0  0  0  0  0  0
   -2.2980   -0.6840    1.5400 O   0  0  0  0  0  0  0  0  0  0  0  0
   -0.5370   -0.4430    5.4130 H   0  0  0  0  0  0  0  0  0  0  0  0
    0.3770   -1.2480    4.1500 H   0  0  0  0  0  0  0  0  0  0  0  0
   -2.3310   -1.7840    3.9100 H   0  0  0  0  0  0  0  0  0  0  0  0
   -3.2250    0.4860    3.4150 H   0  0  0  0  0  0  0  0  0  0  0  0
   -2.8070    0.2420    5.1460 H   0  0  0  0  0  0  0  0  0  0  0  0
   -1.0610    1.6730    3.0480 H   0  0  0  0  0  0  0  0  0  0  0  0
   -0.6610    1.4790    4.7770 H   0  0  0  0  0  0  0  0  0  0  0  0
   -3.0680    2.9280    3.6680 H   0  0  0  0  0  0  0  0  0  0  0  0
   -2.6580    2.7370    5.4540 H   0  0  0  0  0  0  0  0  0  0  0  0
   -1.9360    4.9080    4.6880 H   0  0  0  0  0  0  0  0  0  0  0  0
   -1.0390    4.2280    3.3200 H   0  0  0  0  0  0  0  0  0  0  0  0
    0.4680    3.2030    4.9220 H   0  0  0  0  0  0  0  0  0  0  0  0
    0.2110    4.8180    5.3740 H   0  0  0  0  0  0  0  0  0  0  0  0
    2.1670    1.7630   -1.7370 C   0  0  0  0  0  0  0  0  0  0  0  0
    1.2210    0.5530   -1.5050 C   0  0  0  0  0  0  0  0  0  0  0  0
   -0.0240    0.8470   -2.2910 C   0  0  0  0  0  0  0  0  0  0  0  0
    1.0120    0.3560   -0.0490 C   0  0  0  0  0  0  0  0  0  0  0  0
    0.0880   -0.7910    0.2460 C   0  0  2  0  0  0  0  0  0  0  0  0
   -0.0530   -0.9010    1.7170 N   0  0  0  0  0  0  0  0  0  0  0  0
    0.6020   -2.1050   -0.2000 C   0  0  0  0  0  0  0  0  0  0  0  0
    1.0730   -2.9130    0.6860 O   0  0  0  0  0  0  0  0  0  0  0  0
    1.5730    2.6490   -2.0520 H   0  0  0  0  0  0  0  0  0  0  0  0
    2.9510    1.5070   -2.4600 H   0  0  0  0  0  0  0  0  0  0  0  0
    2.6110    2.0290   -0.7560 H   0  0  0  0  0  0  0  0  0  0  0  0
    1.7280   -0.3290   -1.9950 H   0  0  0  0  0  0  0  0  0  0  0  0
   -0.3600    1.8730   -2.0310 H   0  0  0  0  0  0  0  0  0  0  0  0
    0.2670    0.8370   -3.3720 H   0  0  0  0  0  0  0  0  0  0  0  0
   -0.8450    0.1380   -2.0710 H   0  0  0  0  0  0  0  0  0  0  0  0
    0.5510    1.2670    0.3720 H   0  0  0  0  0  0  0  0  0  0  0  0
    1.9940    0.1210    0.4090 H   0  0  0  0  0  0  0  0  0  0  0  0
   -0.9280   -0.6660   -0.1570 H   0  0  0  0  0  0  0  0  0  0  0  0
    0.8170   -1.0220    2.2420 H   0  0  0  0  0  0  0  0  0  0  0  0
    0.7060   -6.1140   -2.7890 C   0  0  0  0  0  0  0  0  0  0  0  0
    0.1030   -4.7550   -2.4590 C   0  0  0  0  0  0  0  0  0  0  0  0
   -0.4510   -4.1580   -3.7330 C   0  0  0  0  0  0  0  0  0  0  0  0
    1.1740   -3.9110   -1.8530 C   0  0  2  0  0  0  0  0  0  0  0  0
    0.6290   -2.5840   -1.5190 N   0  0  0  0  0  0  0  0  0  0  0  0
    2.3350   -3.7690   -2.7710 C   0  0  0  0  0  0  0  0  0  0  0  0
    2.7450   -2.6440   -3.1700 O   0  0  0  0  0  0  0  0  0  0  0  0
    3.0250   -4.8790   -3.2330 O   0  0  0  0  0  0  0  0  0  0  0  0
    1.0990   -6.0810   -3.8170 H   0  0  0  0  0  0  0  0  0  0  0  0
    1.4910   -6.3050   -2.0300 H   0  0  0  0  0  0  0  0  0  0  0  0
   -0.0630   -6.9010   -2.6460 H   0  0  0  0  0  0  0  0  0  0  0  0
   -0.7130   -4.9340   -1.7570 H   0  0  0  0  0  0  0  0  0  0  0  0
   -0.7620   -4.9990   -4.3830 H   0  0  0  0  0  0  0  0  0  0  0  0
    0.3230   -3.5950   -4.2620 H   0  0  0  0  0  0  0  0  0  0  0  0
   -1.3520   -3.5680   -3.4970 H   0  0  0  0  0  0  0  0  0  0  0  0
    1.5310   -4.4140   -0.9310 H   0  0  0  0  0  0  0  0  0  0  0  0
    0.2360   -2.0060   -2.2840 H   0  0  0  0  0  0  0  0  0  0  0  0
  1 10  1  0  0  0  0
  2 12  1  1  0  0  0
  2  3  1  0  0  0  0
  2  1  1  0  0  0  0
  3 14  1  0  0  0  0
  4  3  1  0  0  0  0
  4  5  1  0  0  0  0
  4 16  1  0  0  0  0
  5 18  1  0  0  0  0
  6  5  1  0  0  0  0
  6 19  1  0  0  0  0
  6  7  1  0  0  0  0
  7 22  1  0  0  0  0
  8  2  1  0  0  0  0
  9  8  2  0  0  0  0
 11  1  1  0  0  0  0
 13  3  1  0  0  0  0
 15  4  1  0  0  0  0
 17  5  1  0  0  0  0
 20  6  1  0  0  0  0
 21  7  1  0  0  0  0
 23 24  1  0  0  0  0
 23 33  1  0  0  0  0
 24 26  1  0  0  0  0
 25 37  1  0  0  0  0
 25 35  1  0  0  0  0
 25 24  1  0  0  0  0
 26 27  1  0  0  0  0
 26 38  1  0  0  0  0
 26 39  1  0  0  0  0
 27 40  1  6  0  0  0
 27 28  1  0  0  0  0
 28 41  1  0  0  0  0
 28  8  1  0  0  0  0
 29 27  1  0  0  0  0
 29 30  2  0  0  0  0
 31 23  1  0  0  0  0
 32 23  1  0  0  0  0
 34 24  1  0  0  0  0
 36 25  1  0  0  0  0
 42 52  1  0  0  0  0
 42 43  1  0  0  0  0
 42 51  1  0  0  0  0
 43 45  1  0  0  0  0
 43 53  1  0  0  0  0
 44 56  1  0  0  0  0
 44 43  1  0  0  0  0
 45 46  1  0  0  0  0
 45 57  1  1  0  0  0
 46 29  1  0  0  0  0
 47 45  1  0  0  0  0
 48 47  1  0  0  0  0
 49 47  2  0  0  0  0
 50 42  1  0  0  0  0
 54 44  1  0  0  0  0
 55 44  1  0  0  0  0
 58 46  1  0  0  0  0
M  END
$$$$
