KME.pdb
 OpenBabel07022418513D

 56 55  0  0  1  0  0  0  0  0999 V2000
    0.0360    0.2080   -2.0390 N   0  0  0  0  0  0  0  0  0  0  0  0
    1.1180   -0.1070   -1.0720 C   0  0  1  0  0  0  0  0  0  0  0  0
    2.2430    0.8060   -1.3870 C   0  0  0  0  0  0  0  0  0  0  0  0
    3.4780    0.7650   -0.5960 C   0  0  0  0  0  0  0  0  0  0  0  0
    4.3540   -0.3960   -0.5350 C   0  0  0  0  0  0  0  0  0  0  0  0
    3.9140   -1.6940    0.0080 C   0  0  0  0  0  0  0  0  0  0  0  0
    5.0420   -2.6710   -0.0160 N   0  0  0  0  0  0  0  0  0  0  0  0
    0.6020    0.0330    0.3060 C   0  0  0  0  0  0  0  0  0  0  0  0
    1.3470   -0.1750    1.2890 O   0  0  0  0  0  0  0  0  0  0  0  0
    0.4330    0.5400   -2.9310 H   0  0  0  0  0  0  0  0  0  0  0  0
   -0.5800   -0.6370   -2.1570 H   0  0  0  0  0  0  0  0  0  0  0  0
    1.3750   -1.1420   -1.3330 H   0  0  0  0  0  0  0  0  0  0  0  0
    1.7970    1.8580   -1.3780 H   0  0  0  0  0  0  0  0  0  0  0  0
    2.4870    0.6300   -2.4880 H   0  0  0  0  0  0  0  0  0  0  0  0
    4.1310    1.6200   -1.0250 H   0  0  0  0  0  0  0  0  0  0  0  0
    3.2740    1.2010    0.4450 H   0  0  0  0  0  0  0  0  0  0  0  0
    5.2920   -0.1160    0.0710 H   0  0  0  0  0  0  0  0  0  0  0  0
    4.8180   -0.5470   -1.5620 H   0  0  0  0  0  0  0  0  0  0  0  0
    3.1370   -2.1650   -0.6150 H   0  0  0  0  0  0  0  0  0  0  0  0
    3.5880   -1.6930    1.0450 H   0  0  0  0  0  0  0  0  0  0  0  0
    5.9360   -2.2000    0.2320 H   0  0  0  0  0  0  0  0  0  0  0  0
    4.8680   -3.4090    0.7010 H   0  0  0  0  0  0  0  0  0  0  0  0
    1.2610    2.8090    2.5610 C   0  0  0  0  0  0  0  0  0  0  0  0
   -0.2950    3.6410    2.7850 S   0  0  0  0  0  0  0  0  0  0  0  0
   -1.6460    3.0830    1.7760 C   0  0  0  0  0  0  0  0  0  0  0  0
   -2.1920    1.7370    2.0430 C   0  0  0  0  0  0  0  0  0  0  0  0
   -1.3010    0.5620    1.8990 C   0  0  2  0  0  0  0  0  0  0  0  0
   -0.7480    0.4040    0.5680 N   0  0  0  0  0  0  0  0  0  0  0  0
   -2.1510   -0.6750    2.1300 C   0  0  0  0  0  0  0  0  0  0  0  0
   -2.7440   -0.7910    3.2120 O   0  0  0  0  0  0  0  0  0  0  0  0
    2.1420    3.4440    2.8590 H   0  0  0  0  0  0  0  0  0  0  0  0
    1.4760    2.5230    1.5140 H   0  0  0  0  0  0  0  0  0  0  0  0
    1.3250    1.9210    3.2130 H   0  0  0  0  0  0  0  0  0  0  0  0
   -2.5030    3.8070    1.9620 H   0  0  0  0  0  0  0  0  0  0  0  0
   -1.4550    3.2560    0.6660 H   0  0  0  0  0  0  0  0  0  0  0  0
   -2.6510    1.7310    3.0770 H   0  0  0  0  0  0  0  0  0  0  0  0
   -3.0750    1.6000    1.3440 H   0  0  0  0  0  0  0  0  0  0  0  0
   -0.5280    0.5530    2.6800 H   0  0  0  0  0  0  0  0  0  0  0  0
   -1.3330    0.5620   -0.2960 H   0  0  0  0  0  0  0  0  0  0  0  0
   -2.2580   -1.6550    1.1430 N   0  0  0  0  0  0  0  0  0  0  0  0
   -3.0390   -2.8620    1.2650 C   0  0  1  0  0  0  0  0  0  0  0  0
   -4.1350   -2.9930    0.2600 C   0  0  0  0  0  0  0  0  0  0  0  0
   -3.7220   -2.9930   -1.1620 C   0  0  0  0  0  0  0  0  0  0  0  0
   -2.8140   -4.0650   -1.5760 C   0  0  0  0  0  0  0  0  0  0  0  0
   -1.5770   -3.8190   -1.6400 O   0  0  0  0  0  0  0  0  0  0  0  0
   -2.2020   -4.0780    1.2910 C   0  0  0  0  0  0  0  0  0  0  0  0
   -2.7450   -5.2070    1.3170 O   0  0  0  0  0  0  0  0  0  0  0  0
   -3.2710   -5.3470   -1.9000 O   0  0  0  0  0  0  0  0  0  0  0  0
   -0.8300   -3.9530    1.2880 O   0  0  0  0  0  0  0  0  0  0  0  0
   -1.7430   -1.5340    0.2290 H   0  0  0  0  0  0  0  0  0  0  0  0
   -3.5230   -2.8380    2.2930 H   0  0  0  0  0  0  0  0  0  0  0  0
   -4.7330   -3.9380    0.4220 H   0  0  0  0  0  0  0  0  0  0  0  0
   -4.9170   -2.1880    0.4370 H   0  0  0  0  0  0  0  0  0  0  0  0
   -3.3110   -1.9720   -1.4130 H   0  0  0  0  0  0  0  0  0  0  0  0
   -4.6420   -3.0990   -1.7970 H   0  0  0  0  0  0  0  0  0  0  0  0
   -2.5550   -6.0890   -1.9250 H   0  0  0  0  0  0  0  0  0  0  0  0
  1  2  1  0  0  0  0
  2 12  1  6  0  0  0
  2  8  1  0  0  0  0
  3 13  1  0  0  0  0
  3  2  1  0  0  0  0
  3  4  1  0  0  0  0
  4  5  1  0  0  0  0
  4 16  1  0  0  0  0
  5  6  1  0  0  0  0
  5 17  1  0  0  0  0
  6 20  1  0  0  0  0
  7  6  1  0  0  0  0
  7 21  1  0  0  0  0
  7 22  1  0  0  0  0
  8 28  1  0  0  0  0
  8  9  2  0  0  0  0
 10  1  1  0  0  0  0
 11  1  1  0  0  0  0
 14  3  1  0  0  0  0
 15  4  1  0  0  0  0
 18  5  1  0  0  0  0
 19  6  1  0  0  0  0
 23 24  1  0  0  0  0
 23 31  1  0  0  0  0
 23 33  1  0  0  0  0
 25 34  1  0  0  0  0
 25 26  1  0  0  0  0
 25 24  1  0  0  0  0
 26 36  1  0  0  0  0
 27 26  1  0  0  0  0
 27 29  1  0  0  0  0
 27 38  1  1  0  0  0
 28 27  1  0  0  0  0
 29 30  2  0  0  0  0
 32 23  1  0  0  0  0
 35 25  1  0  0  0  0
 37 26  1  0  0  0  0
 39 28  1  0  0  0  0
 40 41  1  0  0  0  0
 40 29  1  0  0  0  0
 41 46  1  0  0  0  0
 41 51  1  1  0  0  0
 42 52  1  0  0  0  0
 42 53  1  0  0  0  0
 42 41  1  0  0  0  0
 43 42  1  0  0  0  0
 44 43  1  0  0  0  0
 45 44  2  0  0  0  0
 46 47  1  0  0  0  0
 48 44  1  0  0  0  0
 49 46  2  0  0  0  0
 50 40  1  0  0  0  0
 54 43  1  0  0  0  0
 55 43  1  0  0  0  0
 56 48  1  0  0  0  0
M  END
$$$$
