KMG.pdb
 OpenBabel07022418513D

 47 46  0  0  1  0  0  0  0  0999 V2000
    0.1550   -3.8450    2.5470 N   0  0  0  0  0  0  0  0  0  0  0  0
    0.7000   -2.7360    1.7720 C   0  0  1  0  0  0  0  0  0  0  0  0
    0.7960   -3.0580    0.3200 C   0  0  0  0  0  0  0  0  0  0  0  0
   -0.4340   -3.4070   -0.3880 C   0  0  0  0  0  0  0  0  0  0  0  0
   -1.5370   -2.4380   -0.4450 C   0  0  0  0  0  0  0  0  0  0  0  0
   -2.7240   -3.0180   -1.2330 C   0  0  0  0  0  0  0  0  0  0  0  0
   -2.2770   -3.3250   -2.5880 N   0  0  0  0  0  0  0  0  0  0  0  0
    0.0900   -1.4540    2.1170 C   0  0  0  0  0  0  0  0  0  0  0  0
   -0.8710   -1.4120    2.9350 O   0  0  0  0  0  0  0  0  0  0  0  0
   -0.5860   -3.5500    3.1960 H   0  0  0  0  0  0  0  0  0  0  0  0
   -0.0460   -4.6790    1.9840 H   0  0  0  0  0  0  0  0  0  0  0  0
    1.7750   -2.6670    2.1340 H   0  0  0  0  0  0  0  0  0  0  0  0
    1.5010   -3.9350    0.2340 H   0  0  0  0  0  0  0  0  0  0  0  0
    1.3530   -2.2220   -0.1700 H   0  0  0  0  0  0  0  0  0  0  0  0
   -0.8520   -4.3890   -0.0130 H   0  0  0  0  0  0  0  0  0  0  0  0
   -0.1470   -3.6510   -1.4550 H   0  0  0  0  0  0  0  0  0  0  0  0
   -1.2620   -1.5280   -1.0540 H   0  0  0  0  0  0  0  0  0  0  0  0
   -1.9400   -2.0740    0.4920 H   0  0  0  0  0  0  0  0  0  0  0  0
   -3.5590   -2.2860   -1.2860 H   0  0  0  0  0  0  0  0  0  0  0  0
   -3.1240   -3.9120   -0.7180 H   0  0  0  0  0  0  0  0  0  0  0  0
   -1.4300   -2.7400   -2.7700 H   0  0  0  0  0  0  0  0  0  0  0  0
   -3.0040   -3.0080   -3.2760 H   0  0  0  0  0  0  0  0  0  0  0  0
    3.8720    2.5370    4.1300 C   0  0  0  0  0  0  0  0  0  0  0  0
    2.3200    2.2730    5.0370 S   0  0  0  0  0  0  0  0  0  0  0  0
    1.2090    1.1850    4.0740 C   0  0  0  0  0  0  0  0  0  0  0  0
    0.7860    1.9040    2.8090 C   0  0  0  0  0  0  0  0  0  0  0  0
   -0.1400    1.0270    1.9740 C   0  0  2  0  0  0  0  0  0  0  0  0
    0.5050   -0.2000    1.5890 N   0  0  0  0  0  0  0  0  0  0  0  0
   -0.6670    1.7880    0.8260 C   0  0  0  0  0  0  0  0  0  0  0  0
   -1.2970    2.8700    0.9980 O   0  0  0  0  0  0  0  0  0  0  0  0
    3.7460    3.2480    3.2950 H   0  0  0  0  0  0  0  0  0  0  0  0
    4.2170    1.5810    3.6690 H   0  0  0  0  0  0  0  0  0  0  0  0
    4.6820    2.8640    4.8050 H   0  0  0  0  0  0  0  0  0  0  0  0
    1.6880    0.2250    3.8720 H   0  0  0  0  0  0  0  0  0  0  0  0
    0.3330    1.0000    4.7270 H   0  0  0  0  0  0  0  0  0  0  0  0
    0.1910    2.7890    3.1090 H   0  0  0  0  0  0  0  0  0  0  0  0
    1.6580    2.2620    2.2380 H   0  0  0  0  0  0  0  0  0  0  0  0
   -0.9870    0.7750    2.6420 H   0  0  0  0  0  0  0  0  0  0  0  0
    1.3040   -0.1700    0.9030 H   0  0  0  0  0  0  0  0  0  0  0  0
   -0.4540    1.2830   -0.4890 N   0  0  0  0  0  0  0  0  0  0  0  0
   -0.9790    2.0420   -1.6110 C   0  0  0  0  0  0  0  0  0  0  0  0
   -0.6580    1.3630   -2.8980 C   0  0  0  0  0  0  0  0  0  0  0  0
   -1.0560    1.9140   -3.9570 O   0  0  0  0  0  0  0  0  0  0  0  0
    0.0530    0.1660   -2.9520 O   0  0  0  0  0  0  0  0  0  0  0  0
    0.0710    0.3920   -0.6180 H   0  0  0  0  0  0  0  0  0  0  0  0
   -2.1040    2.0970   -1.5820 H   0  0  0  0  0  0  0  0  0  0  0  0
   -0.6320    3.0820   -1.6150 H   0  0  0  0  0  0  0  0  0  0  0  0
  1 10  1  0  0  0  0
  2  8  1  0  0  0  0
  2 12  1  1  0  0  0
  2  1  1  0  0  0  0
  3  2  1  0  0  0  0
  4 15  1  0  0  0  0
  4  3  1  0  0  0  0
  5  4  1  0  0  0  0
  5 18  1  0  0  0  0
  6 20  1  0  0  0  0
  6  5  1  0  0  0  0
  7  6  1  0  0  0  0
  8  9  2  0  0  0  0
 11  1  1  0  0  0  0
 13  3  1  0  0  0  0
 14  3  1  0  0  0  0
 16  4  1  0  0  0  0
 17  5  1  0  0  0  0
 19  6  1  0  0  0  0
 21  7  1  0  0  0  0
 22  7  1  0  0  0  0
 23 33  1  0  0  0  0
 23 24  1  0  0  0  0
 25 35  1  0  0  0  0
 25 24  1  0  0  0  0
 26 36  1  0  0  0  0
 26 25  1  0  0  0  0
 27 38  1  1  0  0  0
 27 26  1  0  0  0  0
 28 27  1  0  0  0  0
 28  8  1  0  0  0  0
 29 30  2  0  0  0  0
 29 27  1  0  0  0  0
 31 23  1  0  0  0  0
 32 23  1  0  0  0  0
 34 25  1  0  0  0  0
 37 26  1  0  0  0  0
 39 28  1  0  0  0  0
 40 29  1  0  0  0  0
 41 46  1  0  0  0  0
 41 40  1  0  0  0  0
 42 41  1  0  0  0  0
 43 42  2  0  0  0  0
 44 42  1  0  0  0  0
 45 40  1  0  0  0  0
 47 41  1  0  0  0  0
M  END
$$$$
