KMK.pdb
 OpenBabel07022418513D

 61 60  0  0  1  0  0  0  0  0999 V2000
    2.8680   -1.1540   -1.3850 N   0  0  0  0  0  0  0  0  0  0  0  0
    2.0060   -1.1990   -0.2180 C   0  0  1  0  0  0  0  0  0  0  0  0
    2.7280   -1.7920    0.9100 C   0  0  0  0  0  0  0  0  0  0  0  0
    3.9920   -1.1230    1.3060 C   0  0  0  0  0  0  0  0  0  0  0  0
    3.9470    0.2850    1.7430 C   0  0  0  0  0  0  0  0  0  0  0  0
    3.1260    0.5830    2.9490 C   0  0  0  0  0  0  0  0  0  0  0  0
    3.6280   -0.1600    4.1020 N   0  0  0  0  0  0  0  0  0  0  0  0
    1.1230   -0.0550   -0.0670 C   0  0  0  0  0  0  0  0  0  0  0  0
    1.2550    0.8550   -0.9190 O   0  0  0  0  0  0  0  0  0  0  0  0
    2.3680   -1.1230   -2.2780 H   0  0  0  0  0  0  0  0  0  0  0  0
    3.6340   -0.4500   -1.2950 H   0  0  0  0  0  0  0  0  0  0  0  0
    1.2410   -2.0470   -0.5480 H   0  0  0  0  0  0  0  0  0  0  0  0
    3.0490   -2.8270    0.5530 H   0  0  0  0  0  0  0  0  0  0  0  0
    2.0830   -2.0570    1.7870 H   0  0  0  0  0  0  0  0  0  0  0  0
    4.5250   -1.6930    2.1330 H   0  0  0  0  0  0  0  0  0  0  0  0
    4.7140   -1.2410    0.4410 H   0  0  0  0  0  0  0  0  0  0  0  0
    3.7140    1.0070    0.9440 H   0  0  0  0  0  0  0  0  0  0  0  0
    5.0160    0.5590    2.0340 H   0  0  0  0  0  0  0  0  0  0  0  0
    2.0500    0.4790    2.8560 H   0  0  0  0  0  0  0  0  0  0  0  0
    3.3140    1.6640    3.2100 H   0  0  0  0  0  0  0  0  0  0  0  0
    3.1140   -1.0720    4.1900 H   0  0  0  0  0  0  0  0  0  0  0  0
    4.6650   -0.3210    4.0170 H   0  0  0  0  0  0  0  0  0  0  0  0
    2.4510    3.7310   -0.6530 C   0  0  0  0  0  0  0  0  0  0  0  0
    1.9810    3.3100    1.0440 S   0  0  0  0  0  0  0  0  0  0  0  0
    0.2740    3.4470    1.3930 C   0  0  0  0  0  0  0  0  0  0  0  0
   -0.7360    2.5240    0.8670 C   0  0  0  0  0  0  0  0  0  0  0  0
   -0.7730    1.1060    1.2050 C   0  0  2  0  0  0  0  0  0  0  0  0
    0.1490    0.1190    0.9160 N   0  0  0  0  0  0  0  0  0  0  0  0
   -2.2010    0.6340    1.0240 C   0  0  0  0  0  0  0  0  0  0  0  0
   -3.1130    1.4460    1.2520 O   0  0  0  0  0  0  0  0  0  0  0  0
    2.8460    4.7840   -0.6540 H   0  0  0  0  0  0  0  0  0  0  0  0
    1.5360    3.7440   -1.2700 H   0  0  0  0  0  0  0  0  0  0  0  0
    3.2170    3.0310   -1.0500 H   0  0  0  0  0  0  0  0  0  0  0  0
   -0.0640    4.4930    1.0280 H   0  0  0  0  0  0  0  0  0  0  0  0
    0.1220    3.5930    2.5180 H   0  0  0  0  0  0  0  0  0  0  0  0
   -1.7400    2.9470    1.2420 H   0  0  0  0  0  0  0  0  0  0  0  0
   -0.8800    2.7110   -0.2580 H   0  0  0  0  0  0  0  0  0  0  0  0
   -0.7510    1.1880    2.4070 H   0  0  0  0  0  0  0  0  0  0  0  0
    0.1180   -0.7340    1.6060 H   0  0  0  0  0  0  0  0  0  0  0  0
   -2.4610   -0.6940    0.6100 N   0  0  0  0  0  0  0  0  0  0  0  0
   -3.8260   -1.1790    0.4270 C   0  0  1  0  0  0  0  0  0  0  0  0
   -4.1550   -1.5470   -0.9710 C   0  0  0  0  0  0  0  0  0  0  0  0
   -3.3410   -2.6110   -1.6110 C   0  0  0  0  0  0  0  0  0  0  0  0
   -3.3970   -3.9520   -0.9410 C   0  0  0  0  0  0  0  0  0  0  0  0
   -2.5200   -4.9110   -1.7500 C   0  0  0  0  0  0  0  0  0  0  0  0
   -2.5240   -6.2330   -1.1620 N   0  0  0  0  0  0  0  0  0  0  0  0
   -4.1780   -2.2030    1.4200 C   0  0  0  0  0  0  0  0  0  0  0  0
   -3.4070   -2.5670    2.3680 O   0  0  0  0  0  0  0  0  0  0  0  0
   -5.4060   -2.8150    1.3380 O   0  0  0  0  0  0  0  0  0  0  0  0
   -1.6760   -1.3630    0.4230 H   0  0  0  0  0  0  0  0  0  0  0  0
   -4.5180   -0.2970    0.6720 H   0  0  0  0  0  0  0  0  0  0  0  0
   -5.2340   -1.8420   -1.0160 H   0  0  0  0  0  0  0  0  0  0  0  0
   -4.0860   -0.6060   -1.6020 H   0  0  0  0  0  0  0  0  0  0  0  0
   -3.6780   -2.6870   -2.6870 H   0  0  0  0  0  0  0  0  0  0  0  0
   -2.2680   -2.2670   -1.6850 H   0  0  0  0  0  0  0  0  0  0  0  0
   -3.0490   -3.9280    0.0920 H   0  0  0  0  0  0  0  0  0  0  0  0
   -4.4370   -4.3350   -0.9600 H   0  0  0  0  0  0  0  0  0  0  0  0
   -2.9970   -4.9960   -2.7410 H   0  0  0  0  0  0  0  0  0  0  0  0
   -1.5050   -4.4930   -1.7650 H   0  0  0  0  0  0  0  0  0  0  0  0
   -2.9750   -6.9400   -1.7820 H   0  0  0  0  0  0  0  0  0  0  0  0
   -2.9600   -6.2240   -0.1990 H   0  0  0  0  0  0  0  0  0  0  0  0
  1 11  1  0  0  0  0
  1  2  1  0  0  0  0
  2 12  1  6  0  0  0
  2  8  1  0  0  0  0
  2  3  1  0  0  0  0
  3  4  1  0  0  0  0
  3 14  1  0  0  0  0
  4  5  1  0  0  0  0
  4 15  1  0  0  0  0
  5 18  1  0  0  0  0
  5  6  1  0  0  0  0
  6 20  1  0  0  0  0
  6  7  1  0  0  0  0
  7 21  1  0  0  0  0
  8 28  1  0  0  0  0
  9  8  2  0  0  0  0
 10  1  1  0  0  0  0
 13  3  1  0  0  0  0
 16  4  1  0  0  0  0
 17  5  1  0  0  0  0
 19  6  1  0  0  0  0
 22  7  1  0  0  0  0
 23 24  1  0  0  0  0
 24 25  1  0  0  0  0
 25 35  1  0  0  0  0
 26 27  1  0  0  0  0
 26 36  1  0  0  0  0
 26 25  1  0  0  0  0
 27 38  1  1  0  0  0
 28 27  1  0  0  0  0
 28 39  1  0  0  0  0
 29 27  1  0  0  0  0
 29 30  2  0  0  0  0
 31 23  1  0  0  0  0
 32 23  1  0  0  0  0
 33 23  1  0  0  0  0
 34 25  1  0  0  0  0
 37 26  1  0  0  0  0
 40 29  1  0  0  0  0
 41 40  1  0  0  0  0
 41 51  1  1  0  0  0
 41 47  1  0  0  0  0
 42 41  1  0  0  0  0
 43 42  1  0  0  0  0
 43 44  1  0  0  0  0
 44 56  1  0  0  0  0
 45 46  1  0  0  0  0
 45 44  1  0  0  0  0
 46 61  1  0  0  0  0
 47 48  1  0  0  0  0
 49 47  2  0  0  0  0
 50 40  1  0  0  0  0
 52 42  1  0  0  0  0
 53 42  1  0  0  0  0
 54 43  1  0  0  0  0
 55 43  1  0  0  0  0
 57 44  1  0  0  0  0
 58 45  1  0  0  0  0
 59 45  1  0  0  0  0
 60 46  1  0  0  0  0
M  END
$$$$
