KML.pdb
 OpenBabel07022418513D

 59 58  0  0  1  0  0  0  0  0999 V2000
    1.2130    0.2020    4.6170 N   0  0  0  0  0  0  0  0  0  0  0  0
    1.1310    0.3470    3.2070 C   0  0  1  0  0  0  0  0  0  0  0  0
    1.5480   -0.9120    2.5110 C   0  0  0  0  0  0  0  0  0  0  0  0
    2.9300   -1.3850    2.7350 C   0  0  0  0  0  0  0  0  0  0  0  0
    3.2590   -1.6960    4.1530 C   0  0  0  0  0  0  0  0  0  0  0  0
    4.7140   -2.1990    4.1480 C   0  0  0  0  0  0  0  0  0  0  0  0
    5.6070   -1.1840    3.6270 N   0  0  0  0  0  0  0  0  0  0  0  0
   -0.3080    0.6510    2.8690 C   0  0  0  0  0  0  0  0  0  0  0  0
   -1.1950    0.7360    3.7600 O   0  0  0  0  0  0  0  0  0  0  0  0
    0.3640   -0.2050    5.0410 H   0  0  0  0  0  0  0  0  0  0  0  0
    1.5600    1.0530    5.1150 H   0  0  0  0  0  0  0  0  0  0  0  0
    1.7450    1.1940    2.8130 H   0  0  0  0  0  0  0  0  0  0  0  0
    0.7830   -1.7360    2.6690 H   0  0  0  0  0  0  0  0  0  0  0  0
    1.4520   -0.7280    1.3930 H   0  0  0  0  0  0  0  0  0  0  0  0
    3.1180   -2.3470    2.1610 H   0  0  0  0  0  0  0  0  0  0  0  0
    3.6720   -0.6810    2.2720 H   0  0  0  0  0  0  0  0  0  0  0  0
    3.1950   -0.8440    4.8570 H   0  0  0  0  0  0  0  0  0  0  0  0
    2.6460   -2.5110    4.5440 H   0  0  0  0  0  0  0  0  0  0  0  0
    4.7440   -3.0600    3.4760 H   0  0  0  0  0  0  0  0  0  0  0  0
    5.0160   -2.4860    5.1730 H   0  0  0  0  0  0  0  0  0  0  0  0
    5.3550   -0.2310    3.9770 H   0  0  0  0  0  0  0  0  0  0  0  0
    5.6230   -1.2020    2.5710 H   0  0  0  0  0  0  0  0  0  0  0  0
    1.0630    3.1890   -2.2090 C   0  0  0  0  0  0  0  0  0  0  0  0
    0.2860    2.7850   -0.6450 S   0  0  0  0  0  0  0  0  0  0  0  0
   -1.4960    2.7940   -0.7420 C   0  0  0  0  0  0  0  0  0  0  0  0
   -2.2250    2.4700    0.5060 C   0  0  0  0  0  0  0  0  0  0  0  0
   -1.9870    1.1320    1.1070 C   0  0  2  0  0  0  0  0  0  0  0  0
   -0.6380    0.8420    1.4870 N   0  0  0  0  0  0  0  0  0  0  0  0
   -2.5610    0.0480    0.2340 C   0  0  0  0  0  0  0  0  0  0  0  0
   -3.7520    0.1950   -0.1670 O   0  0  0  0  0  0  0  0  0  0  0  0
    0.9400    4.2600   -2.4910 H   0  0  0  0  0  0  0  0  0  0  0  0
    2.1720    3.0420   -2.0960 H   0  0  0  0  0  0  0  0  0  0  0  0
    0.7240    2.4990   -2.9910 H   0  0  0  0  0  0  0  0  0  0  0  0
   -1.7890    2.0990   -1.5820 H   0  0  0  0  0  0  0  0  0  0  0  0
   -1.8030    3.8180   -1.1060 H   0  0  0  0  0  0  0  0  0  0  0  0
   -3.3270    2.5110    0.2630 H   0  0  0  0  0  0  0  0  0  0  0  0
   -2.1050    3.2450    1.2990 H   0  0  0  0  0  0  0  0  0  0  0  0
   -2.6250    1.0980    2.0400 H   0  0  0  0  0  0  0  0  0  0  0  0
    0.1570    0.7480    0.8090 H   0  0  0  0  0  0  0  0  0  0  0  0
   -0.9180   -3.4610   -4.2810 C   0  0  0  0  0  0  0  0  0  0  0  0
   -1.9290   -3.4150   -3.1350 C   0  0  0  0  0  0  0  0  0  0  0  0
   -3.2620   -3.0510   -3.7760 C   0  0  0  0  0  0  0  0  0  0  0  0
   -1.4770   -2.3600   -2.1820 C   0  0  0  0  0  0  0  0  0  0  0  0
   -2.3560   -2.1600   -0.9840 C   0  0  2  0  0  0  0  0  0  0  0  0
   -1.8090   -1.0940   -0.1320 N   0  0  0  0  0  0  0  0  0  0  0  0
   -2.4050   -3.3910   -0.1920 C   0  0  0  0  0  0  0  0  0  0  0  0
   -1.9580   -3.3700    1.0040 O   0  0  0  0  0  0  0  0  0  0  0  0
   -2.8980   -4.6140   -0.6040 O   0  0  0  0  0  0  0  0  0  0  0  0
   -1.4430   -3.7380   -5.2180 H   0  0  0  0  0  0  0  0  0  0  0  0
   -0.1450   -4.2380   -4.0930 H   0  0  0  0  0  0  0  0  0  0  0  0
   -0.5190   -2.4520   -4.4030 H   0  0  0  0  0  0  0  0  0  0  0  0
   -2.0060   -4.4170   -2.6840 H   0  0  0  0  0  0  0  0  0  0  0  0
   -4.0580   -2.9340   -3.0310 H   0  0  0  0  0  0  0  0  0  0  0  0
   -3.4710   -3.8050   -4.5550 H   0  0  0  0  0  0  0  0  0  0  0  0
   -3.0990   -2.0400   -4.2490 H   0  0  0  0  0  0  0  0  0  0  0  0
   -1.3260   -1.3960   -2.7110 H   0  0  0  0  0  0  0  0  0  0  0  0
   -0.4400   -2.6580   -1.8490 H   0  0  0  0  0  0  0  0  0  0  0  0
   -3.3950   -1.8940   -1.2520 H   0  0  0  0  0  0  0  0  0  0  0  0
   -0.8350   -1.2200    0.1920 H   0  0  0  0  0  0  0  0  0  0  0  0
  1 10  1  0  0  0  0
  1 11  1  0  0  0  0
  2 12  1  6  0  0  0
  2  1  1  0  0  0  0
  3 13  1  0  0  0  0
  3  4  1  0  0  0  0
  3  2  1  0  0  0  0
  4  5  1  0  0  0  0
  5 18  1  0  0  0  0
  5 17  1  0  0  0  0
  6  5  1  0  0  0  0
  6 20  1  0  0  0  0
  7 21  1  0  0  0  0
  7  6  1  0  0  0  0
  8  2  1  0  0  0  0
  8  9  2  0  0  0  0
 14  3  1  0  0  0  0
 15  4  1  0  0  0  0
 16  4  1  0  0  0  0
 19  6  1  0  0  0  0
 22  7  1  0  0  0  0
 23 32  1  0  0  0  0
 23 24  1  0  0  0  0
 25 24  1  0  0  0  0
 25 26  1  0  0  0  0
 26 27  1  0  0  0  0
 26 37  1  0  0  0  0
 27 28  1  0  0  0  0
 27 38  1  1  0  0  0
 28  8  1  0  0  0  0
 29 27  1  0  0  0  0
 30 29  2  0  0  0  0
 31 23  1  0  0  0  0
 33 23  1  0  0  0  0
 34 25  1  0  0  0  0
 35 25  1  0  0  0  0
 36 26  1  0  0  0  0
 39 28  1  0  0  0  0
 40 50  1  0  0  0  0
 40 41  1  0  0  0  0
 41 52  1  0  0  0  0
 41 43  1  0  0  0  0
 42 41  1  0  0  0  0
 42 53  1  0  0  0  0
 43 57  1  0  0  0  0
 43 44  1  0  0  0  0
 44 58  1  6  0  0  0
 44 46  1  0  0  0  0
 44 45  1  0  0  0  0
 45 59  1  0  0  0  0
 45 29  1  0  0  0  0
 46 47  1  0  0  0  0
 48 46  2  0  0  0  0
 49 40  1  0  0  0  0
 51 40  1  0  0  0  0
 54 42  1  0  0  0  0
 55 42  1  0  0  0  0
 56 43  1  0  0  0  0
M  END
$$$$
