KMP.pdb
 OpenBabel07022418513D

 54 54  0  0  1  0  0  0  0  0999 V2000
    0.7740   -2.8340   -0.4890 N   0  0  0  0  0  0  0  0  0  0  0  0
    0.5860   -2.8960    0.9290 C   0  0  1  0  0  0  0  0  0  0  0  0
    1.8620   -3.2980    1.6830 C   0  0  0  0  0  0  0  0  0  0  0  0
    2.9620   -2.3340    1.4420 C   0  0  0  0  0  0  0  0  0  0  0  0
    4.2500   -2.5910    2.1230 C   0  0  0  0  0  0  0  0  0  0  0  0
    4.9390   -3.8700    1.8210 C   0  0  0  0  0  0  0  0  0  0  0  0
    4.2250   -5.0650    2.1410 N   0  0  0  0  0  0  0  0  0  0  0  0
    0.1080   -1.6120    1.4820 C   0  0  0  0  0  0  0  0  0  0  0  0
   -0.0780   -1.4910    2.7130 O   0  0  0  0  0  0  0  0  0  0  0  0
   -0.0270   -3.3020   -0.9660 H   0  0  0  0  0  0  0  0  0  0  0  0
    1.6330   -3.3250   -0.8180 H   0  0  0  0  0  0  0  0  0  0  0  0
   -0.1650   -3.6930    1.1640 H   0  0  0  0  0  0  0  0  0  0  0  0
    1.5680   -3.4450    2.7190 H   0  0  0  0  0  0  0  0  0  0  0  0
    2.1790   -4.3040    1.2750 H   0  0  0  0  0  0  0  0  0  0  0  0
    3.0910   -2.1970    0.3490 H   0  0  0  0  0  0  0  0  0  0  0  0
    2.6030   -1.3280    1.8110 H   0  0  0  0  0  0  0  0  0  0  0  0
    4.1750   -2.4190    3.2200 H   0  0  0  0  0  0  0  0  0  0  0  0
    4.9540   -1.7710    1.7830 H   0  0  0  0  0  0  0  0  0  0  0  0
    5.8720   -3.8810    2.4590 H   0  0  0  0  0  0  0  0  0  0  0  0
    5.3400   -3.8770    0.7730 H   0  0  0  0  0  0  0  0  0  0  0  0
    3.6760   -4.9380    3.0280 H   0  0  0  0  0  0  0  0  0  0  0  0
    4.7940   -5.9180    2.1450 H   0  0  0  0  0  0  0  0  0  0  0  0
    1.2120    4.5430   -1.3380 C   0  0  0  0  0  0  0  0  0  0  0  0
    1.2030    4.4330    0.4670 S   0  0  0  0  0  0  0  0  0  0  0  0
   -0.0470    3.2130    1.0350 C   0  0  0  0  0  0  0  0  0  0  0  0
    0.3250    1.8460    0.6150 C   0  0  0  0  0  0  0  0  0  0  0  0
   -0.6160    0.7800    1.0870 C   0  0  2  0  0  0  0  0  0  0  0  0
   -0.1380   -0.5270    0.6090 N   0  0  0  0  0  0  0  0  0  0  0  0
   -1.9780    1.0440    0.6830 C   0  0  0  0  0  0  0  0  0  0  0  0
   -2.5230    2.0790    1.2370 O   0  0  0  0  0  0  0  0  0  0  0  0
    0.7400    3.6610   -1.8160 H   0  0  0  0  0  0  0  0  0  0  0  0
    0.6020    5.4240   -1.6250 H   0  0  0  0  0  0  0  0  0  0  0  0
    2.2410    4.7130   -1.6810 H   0  0  0  0  0  0  0  0  0  0  0  0
   -1.0410    3.5280    0.6170 H   0  0  0  0  0  0  0  0  0  0  0  0
   -0.1040    3.2990    2.1320 H   0  0  0  0  0  0  0  0  0  0  0  0
    1.3730    1.6630    0.9480 H   0  0  0  0  0  0  0  0  0  0  0  0
    0.3880    1.8460   -0.5040 H   0  0  0  0  0  0  0  0  0  0  0  0
   -0.5310    0.6790    2.2170 H   0  0  0  0  0  0  0  0  0  0  0  0
    0.0610   -0.6740   -0.3990 H   0  0  0  0  0  0  0  0  0  0  0  0
   -2.7800    0.2970   -0.2500 N   0  0  0  0  0  0  0  0  0  0  0  0
   -2.4180   -0.8560   -0.9880 C   0  0  0  0  0  0  0  0  0  0  0  0
   -3.7410   -1.3690   -1.5760 C   0  0  0  0  0  0  0  0  0  0  0  0
   -4.5240   -0.0550   -1.7680 C   0  0  0  0  0  0  0  0  0  0  0  0
   -4.1390    0.7000   -0.5320 C   0  0  1  0  0  0  0  0  0  0  0  0
   -5.0690    0.2280    0.5540 C   0  0  0  0  0  0  0  0  0  0  0  0
   -6.2930    0.4970    0.4760 O   0  0  0  0  0  0  0  0  0  0  0  0
   -4.6140   -0.4950    1.6360 O   0  0  0  0  0  0  0  0  0  0  0  0
   -2.0430   -1.6930   -0.3450 H   0  0  0  0  0  0  0  0  0  0  0  0
   -1.7200   -0.6330   -1.8360 H   0  0  0  0  0  0  0  0  0  0  0  0
   -3.6110   -1.8010   -2.5730 H   0  0  0  0  0  0  0  0  0  0  0  0
   -4.2510   -1.9860   -0.8390 H   0  0  0  0  0  0  0  0  0  0  0  0
   -4.2150    0.4510   -2.7040 H   0  0  0  0  0  0  0  0  0  0  0  0
   -5.6060   -0.2680   -1.8470 H   0  0  0  0  0  0  0  0  0  0  0  0
   -4.2300    1.8020   -0.6490 H   0  0  0  0  0  0  0  0  0  0  0  0
  1  2  1  0  0  0  0
  2 12  1  1  0  0  0
  2  8  1  0  0  0  0
  2  3  1  0  0  0  0
  3 13  1  0  0  0  0
  4  3  1  0  0  0  0
  4 16  1  0  0  0  0
  4  5  1  0  0  0  0
  5 17  1  0  0  0  0
  6  5  1  0  0  0  0
  6  7  1  0  0  0  0
  6 19  1  0  0  0  0
  7 22  1  0  0  0  0
  7 21  1  0  0  0  0
  8  9  2  0  0  0  0
 10  1  1  0  0  0  0
 11  1  1  0  0  0  0
 14  3  1  0  0  0  0
 15  4  1  0  0  0  0
 18  5  1  0  0  0  0
 20  6  1  0  0  0  0
 23 24  1  0  0  0  0
 24 25  1  0  0  0  0
 25 35  1  0  0  0  0
 26 36  1  0  0  0  0
 26 25  1  0  0  0  0
 26 27  1  0  0  0  0
 27 38  1  1  0  0  0
 28 27  1  0  0  0  0
 28  8  1  0  0  0  0
 29 27  1  0  0  0  0
 29 30  2  0  0  0  0
 31 23  1  0  0  0  0
 32 23  1  0  0  0  0
 33 23  1  0  0  0  0
 34 25  1  0  0  0  0
 37 26  1  0  0  0  0
 39 28  1  0  0  0  0
 40 29  1  0  0  0  0
 41 48  1  0  0  0  0
 41 40  1  0  0  0  0
 42 41  1  0  0  0  0
 42 51  1  0  0  0  0
 43 42  1  0  0  0  0
 43 44  1  0  0  0  0
 44 54  1  6  0  0  0
 44 40  1  0  0  0  0
 44 45  1  0  0  0  0
 45 47  1  0  0  0  0
 46 45  2  0  0  0  0
 49 41  1  0  0  0  0
 50 42  1  0  0  0  0
 52 43  1  0  0  0  0
 53 43  1  0  0  0  0
M  END
$$$$
