KMQ.pdb
 OpenBabel07022418513D

 57 56  0  0  1  0  0  0  0  0999 V2000
    0.4480    1.2280    5.2530 N   0  0  0  0  0  0  0  0  0  0  0  0
    1.0120    0.8290    3.9360 C   0  0  1  0  0  0  0  0  0  0  0  0
    1.5550   -0.5440    4.1800 C   0  0  0  0  0  0  0  0  0  0  0  0
    2.2070   -1.2250    3.0410 C   0  0  0  0  0  0  0  0  0  0  0  0
    3.4070   -0.4820    2.4980 C   0  0  0  0  0  0  0  0  0  0  0  0
    4.4680   -0.3280    3.5890 C   0  0  0  0  0  0  0  0  0  0  0  0
    4.9140   -1.5990    4.0730 N   0  0  0  0  0  0  0  0  0  0  0  0
   -0.1600    0.8500    3.0050 C   0  0  0  0  0  0  0  0  0  0  0  0
   -1.3550    1.0490    3.4180 O   0  0  0  0  0  0  0  0  0  0  0  0
    1.0870    0.8610    6.0080 H   0  0  0  0  0  0  0  0  0  0  0  0
   -0.4320    0.6560    5.3460 H   0  0  0  0  0  0  0  0  0  0  0  0
    1.7520    1.5870    3.6820 H   0  0  0  0  0  0  0  0  0  0  0  0
    0.6860   -1.1760    4.5110 H   0  0  0  0  0  0  0  0  0  0  0  0
    2.2370   -0.4860    5.0430 H   0  0  0  0  0  0  0  0  0  0  0  0
    1.5760   -1.5560    2.2210 H   0  0  0  0  0  0  0  0  0  0  0  0
    2.6490   -2.1830    3.4620 H   0  0  0  0  0  0  0  0  0  0  0  0
    3.1860    0.4770    2.0340 H   0  0  0  0  0  0  0  0  0  0  0  0
    3.8700   -1.1430    1.7240 H   0  0  0  0  0  0  0  0  0  0  0  0
    4.0700    0.2480    4.4510 H   0  0  0  0  0  0  0  0  0  0  0  0
    5.3230    0.2230    3.1410 H   0  0  0  0  0  0  0  0  0  0  0  0
    4.5000   -1.8780    4.9790 H   0  0  0  0  0  0  0  0  0  0  0  0
    4.9730   -2.3350    3.3630 H   0  0  0  0  0  0  0  0  0  0  0  0
    1.9590    2.9270   -3.0650 C   0  0  0  0  0  0  0  0  0  0  0  0
    0.4160    3.1970   -2.1150 S   0  0  0  0  0  0  0  0  0  0  0  0
    0.2520    1.7500   -1.0050 C   0  0  0  0  0  0  0  0  0  0  0  0
   -1.0000    1.8680   -0.1650 C   0  0  0  0  0  0  0  0  0  0  0  0
   -1.1480    0.6760    0.7530 C   0  0  2  0  0  0  0  0  0  0  0  0
    0.0230    0.6480    1.6120 N   0  0  0  0  0  0  0  0  0  0  0  0
   -1.2410   -0.5340   -0.0930 C   0  0  0  0  0  0  0  0  0  0  0  0
   -0.3750   -1.4630   -0.0410 O   0  0  0  0  0  0  0  0  0  0  0  0
    2.8230    3.3680   -2.5290 H   0  0  0  0  0  0  0  0  0  0  0  0
    1.8610    3.3060   -4.1050 H   0  0  0  0  0  0  0  0  0  0  0  0
    2.1630    1.8300   -3.1660 H   0  0  0  0  0  0  0  0  0  0  0  0
    0.2430    0.8540   -1.6490 H   0  0  0  0  0  0  0  0  0  0  0  0
    1.1370    1.8090   -0.3380 H   0  0  0  0  0  0  0  0  0  0  0  0
   -0.8940    2.8140    0.4380 H   0  0  0  0  0  0  0  0  0  0  0  0
   -1.9040    2.0300   -0.7880 H   0  0  0  0  0  0  0  0  0  0  0  0
   -2.0660    0.8430    1.3390 H   0  0  0  0  0  0  0  0  0  0  0  0
    0.9680    0.4830    1.1840 H   0  0  0  0  0  0  0  0  0  0  0  0
   -2.9370   -6.1360   -2.9640 N   0  0  0  0  0  0  0  0  0  0  0  0
   -2.8970   -4.9270   -2.2150 C   0  0  0  0  0  0  0  0  0  0  0  0
   -1.9270   -4.7870   -1.4380 O   0  0  0  0  0  0  0  0  0  0  0  0
   -3.9120   -3.8790   -2.3110 C   0  0  0  0  0  0  0  0  0  0  0  0
   -3.6690   -2.6500   -1.5200 C   0  0  0  0  0  0  0  0  0  0  0  0
   -2.4210   -1.8900   -1.8480 C   0  0  2  0  0  0  0  0  0  0  0  0
   -2.3020   -0.6960   -0.9930 N   0  0  0  0  0  0  0  0  0  0  0  0
   -2.3620   -1.4590   -3.2490 C   0  0  0  0  0  0  0  0  0  0  0  0
   -2.2460   -0.2290   -3.5280 O   0  0  0  0  0  0  0  0  0  0  0  0
   -2.4240   -2.3110   -4.3390 O   0  0  0  0  0  0  0  0  0  0  0  0
   -2.0500   -6.4550   -3.4050 H   0  0  0  0  0  0  0  0  0  0  0  0
   -3.7920   -6.7140   -3.0960 H   0  0  0  0  0  0  0  0  0  0  0  0
   -4.0630   -3.6400   -3.3890 H   0  0  0  0  0  0  0  0  0  0  0  0
   -4.8880   -4.3120   -1.9840 H   0  0  0  0  0  0  0  0  0  0  0  0
   -3.7190   -2.9270   -0.4350 H   0  0  0  0  0  0  0  0  0  0  0  0
   -4.5800   -1.9950   -1.6620 H   0  0  0  0  0  0  0  0  0  0  0  0
   -1.5480   -2.5250   -1.5990 H   0  0  0  0  0  0  0  0  0  0  0  0
   -3.0530    0.0400   -1.0840 H   0  0  0  0  0  0  0  0  0  0  0  0
  1 11  1  0  0  0  0
  1 10  1  0  0  0  0
  2 12  1  6  0  0  0
  2  3  1  0  0  0  0
  2  1  1  0  0  0  0
  3 13  1  0  0  0  0
  3 14  1  0  0  0  0
  4 16  1  0  0  0  0
  4  3  1  0  0  0  0
  5  4  1  0  0  0  0
  5  6  1  0  0  0  0
  6  7  1  0  0  0  0
  6 19  1  0  0  0  0
  7 21  1  0  0  0  0
  8  9  2  0  0  0  0
  8  2  1  0  0  0  0
 15  4  1  0  0  0  0
 17  5  1  0  0  0  0
 18  5  1  0  0  0  0
 20  6  1  0  0  0  0
 22  7  1  0  0  0  0
 23 31  1  0  0  0  0
 23 24  1  0  0  0  0
 24 25  1  0  0  0  0
 25 35  1  0  0  0  0
 25 26  1  0  0  0  0
 26 36  1  0  0  0  0
 26 27  1  0  0  0  0
 27 38  1  1  0  0  0
 27 28  1  0  0  0  0
 28  8  1  0  0  0  0
 29 30  2  0  0  0  0
 29 27  1  0  0  0  0
 32 23  1  0  0  0  0
 33 23  1  0  0  0  0
 34 25  1  0  0  0  0
 37 26  1  0  0  0  0
 39 28  1  0  0  0  0
 40 41  1  0  0  0  0
 41 42  2  0  0  0  0
 43 41  1  0  0  0  0
 43 53  1  0  0  0  0
 43 44  1  0  0  0  0
 44 54  1  0  0  0  0
 45 56  1  1  0  0  0
 45 44  1  0  0  0  0
 45 46  1  0  0  0  0
 46 29  1  0  0  0  0
 47 45  1  0  0  0  0
 48 47  1  0  0  0  0
 49 47  2  0  0  0  0
 50 40  1  0  0  0  0
 51 40  1  0  0  0  0
 52 43  1  0  0  0  0
 55 44  1  0  0  0  0
 57 46  1  0  0  0  0
M  END
$$$$
