KMV.pdb
 OpenBabel07022418513D

 56 55  0  0  1  0  0  0  0  0999 V2000
    1.9120   -1.7270    1.9340 N   0  0  0  0  0  0  0  0  0  0  0  0
    0.8280   -1.4040    2.8590 C   0  0  1  0  0  0  0  0  0  0  0  0
    1.3930   -0.7030    4.0380 C   0  0  0  0  0  0  0  0  0  0  0  0
    2.1140    0.5660    3.8110 C   0  0  0  0  0  0  0  0  0  0  0  0
    1.3300    1.6790    3.2000 C   0  0  0  0  0  0  0  0  0  0  0  0
    2.1980    2.9280    3.0380 C   0  0  0  0  0  0  0  0  0  0  0  0
    3.3320    2.6750    2.1930 N   0  0  0  0  0  0  0  0  0  0  0  0
   -0.2770   -0.7040    2.1610 C   0  0  0  0  0  0  0  0  0  0  0  0
   -1.2240   -0.2000    2.8250 O   0  0  0  0  0  0  0  0  0  0  0  0
    1.6960   -2.5380    1.3410 H   0  0  0  0  0  0  0  0  0  0  0  0
    2.1280   -0.8570    1.4240 H   0  0  0  0  0  0  0  0  0  0  0  0
    0.4540   -2.4500    3.1660 H   0  0  0  0  0  0  0  0  0  0  0  0
    2.0250   -1.4660    4.5820 H   0  0  0  0  0  0  0  0  0  0  0  0
    0.5250   -0.5050    4.7370 H   0  0  0  0  0  0  0  0  0  0  0  0
    3.0490    0.4570    3.2170 H   0  0  0  0  0  0  0  0  0  0  0  0
    2.4840    0.9320    4.8180 H   0  0  0  0  0  0  0  0  0  0  0  0
    0.4760    1.9680    3.8610 H   0  0  0  0  0  0  0  0  0  0  0  0
    0.9250    1.3980    2.2290 H   0  0  0  0  0  0  0  0  0  0  0  0
    2.5070    3.2870    4.0200 H   0  0  0  0  0  0  0  0  0  0  0  0
    1.5460    3.6820    2.5100 H   0  0  0  0  0  0  0  0  0  0  0  0
    4.2060    2.4720    2.7300 H   0  0  0  0  0  0  0  0  0  0  0  0
    3.1570    1.9660    1.4530 H   0  0  0  0  0  0  0  0  0  0  0  0
    1.4910    2.0750   -3.1360 C   0  0  0  0  0  0  0  0  0  0  0  0
    0.5300    3.0730   -1.9570 S   0  0  0  0  0  0  0  0  0  0  0  0
    0.0590    2.0800   -0.4960 C   0  0  0  0  0  0  0  0  0  0  0  0
   -0.8920    1.0220   -0.9590 C   0  0  0  0  0  0  0  0  0  0  0  0
   -1.4020    0.1070    0.0970 C   0  0  2  0  0  0  0  0  0  0  0  0
   -0.2870   -0.5910    0.7220 N   0  0  0  0  0  0  0  0  0  0  0  0
   -2.3110   -0.9190   -0.5530 C   0  0  0  0  0  0  0  0  0  0  0  0
   -3.3440   -0.5610   -1.1580 O   0  0  0  0  0  0  0  0  0  0  0  0
    2.2180    1.4900   -2.5340 H   0  0  0  0  0  0  0  0  0  0  0  0
    2.0180    2.7680   -3.8070 H   0  0  0  0  0  0  0  0  0  0  0  0
    0.8430    1.4060   -3.7320 H   0  0  0  0  0  0  0  0  0  0  0  0
   -0.3970    2.7590    0.2310 H   0  0  0  0  0  0  0  0  0  0  0  0
    1.0330    1.6330   -0.1310 H   0  0  0  0  0  0  0  0  0  0  0  0
   -0.3930    0.4420   -1.7780 H   0  0  0  0  0  0  0  0  0  0  0  0
   -1.7360    1.5490   -1.4620 H   0  0  0  0  0  0  0  0  0  0  0  0
   -2.0450    0.5860    0.8600 H   0  0  0  0  0  0  0  0  0  0  0  0
    0.4920   -1.0060    0.1910 H   0  0  0  0  0  0  0  0  0  0  0  0
   -0.8020   -4.7300   -1.6960 C   0  0  0  0  0  0  0  0  0  0  0  0
   -2.0650   -4.0850   -2.1710 C   0  0  0  0  0  0  0  0  0  0  0  0
   -1.8570   -3.1740   -3.3600 C   0  0  0  0  0  0  0  0  0  0  0  0
   -2.8010   -3.3450   -1.0670 C   0  0  2  0  0  0  0  0  0  0  0  0
   -2.0110   -2.2940   -0.4890 N   0  0  0  0  0  0  0  0  0  0  0  0
   -3.2920   -4.3270   -0.1000 C   0  0  0  0  0  0  0  0  0  0  0  0
   -3.0730   -4.3060    1.1390 O   0  0  0  0  0  0  0  0  0  0  0  0
   -4.0680   -5.3800   -0.5670 O   0  0  0  0  0  0  0  0  0  0  0  0
    0.1130   -4.1650   -1.9660 H   0  0  0  0  0  0  0  0  0  0  0  0
   -0.7170   -5.7920   -1.9930 H   0  0  0  0  0  0  0  0  0  0  0  0
   -0.8230   -4.7340   -0.5740 H   0  0  0  0  0  0  0  0  0  0  0  0
   -2.7520   -4.8950   -2.5040 H   0  0  0  0  0  0  0  0  0  0  0  0
   -1.4340   -3.7880   -4.1800 H   0  0  0  0  0  0  0  0  0  0  0  0
   -2.8710   -2.8010   -3.6500 H   0  0  0  0  0  0  0  0  0  0  0  0
   -1.1730   -2.3490   -3.0770 H   0  0  0  0  0  0  0  0  0  0  0  0
   -3.6810   -2.8690   -1.5570 H   0  0  0  0  0  0  0  0  0  0  0  0
   -1.1300   -2.5780    0.0280 H   0  0  0  0  0  0  0  0  0  0  0  0
  1  2  1  0  0  0  0
  2 12  1  1  0  0  0
  2  3  1  0  0  0  0
  3 13  1  0  0  0  0
  3 14  1  0  0  0  0
  4  3  1  0  0  0  0
  4 16  1  0  0  0  0
  5  4  1  0  0  0  0
  5 17  1  0  0  0  0
  6  5  1  0  0  0  0
  6 19  1  0  0  0  0
  7 21  1  0  0  0  0
  7  6  1  0  0  0  0
  8  9  2  0  0  0  0
  8  2  1  0  0  0  0
 10  1  1  0  0  0  0
 11  1  1  0  0  0  0
 15  4  1  0  0  0  0
 18  5  1  0  0  0  0
 20  6  1  0  0  0  0
 22  7  1  0  0  0  0
 23 31  1  0  0  0  0
 23 24  1  0  0  0  0
 24 25  1  0  0  0  0
 25 35  1  0  0  0  0
 25 34  1  0  0  0  0
 26 25  1  0  0  0  0
 26 27  1  0  0  0  0
 27 28  1  0  0  0  0
 27 38  1  1  0  0  0
 28  8  1  0  0  0  0
 29 44  1  0  0  0  0
 29 27  1  0  0  0  0
 30 29  2  0  0  0  0
 32 23  1  0  0  0  0
 33 23  1  0  0  0  0
 36 26  1  0  0  0  0
 37 26  1  0  0  0  0
 39 28  1  0  0  0  0
 40 50  1  0  0  0  0
 41 40  1  0  0  0  0
 41 43  1  0  0  0  0
 42 54  1  0  0  0  0
 42 41  1  0  0  0  0
 43 55  1  6  0  0  0
 43 44  1  0  0  0  0
 43 45  1  0  0  0  0
 44 56  1  0  0  0  0
 45 46  1  0  0  0  0
 47 45  2  0  0  0  0
 48 40  1  0  0  0  0
 49 40  1  0  0  0  0
 51 41  1  0  0  0  0
 52 42  1  0  0  0  0
 53 42  1  0  0  0  0
M  END
$$$$
