KNF.pdb
 OpenBabel07022418493D

 57 57  0  0  1  0  0  0  0  0999 V2000
    1.4550   -0.9370    2.6790 N   0  0  0  0  0  0  0  0  0  0  0  0
    1.1800    0.3680    3.2140 C   0  0  1  0  0  0  0  0  0  0  0  0
    2.3970    1.1620    3.5690 C   0  0  0  0  0  0  0  0  0  0  0  0
    3.3370    1.4530    2.4570 C   0  0  0  0  0  0  0  0  0  0  0  0
    3.9310    0.2730    1.7670 C   0  0  0  0  0  0  0  0  0  0  0  0
    4.8710    0.7930    0.6660 C   0  0  0  0  0  0  0  0  0  0  0  0
    4.0180    1.5870   -0.2190 N   0  0  0  0  0  0  0  0  0  0  0  0
    0.3000    1.1220    2.2500 C   0  0  0  0  0  0  0  0  0  0  0  0
   -0.1090    2.2810    2.5190 O   0  0  0  0  0  0  0  0  0  0  0  0
    1.9380   -1.5190    3.4210 H   0  0  0  0  0  0  0  0  0  0  0  0
    0.5280   -1.4100    2.5510 H   0  0  0  0  0  0  0  0  0  0  0  0
    0.5880    0.2360    4.1430 H   0  0  0  0  0  0  0  0  0  0  0  0
    2.0110    2.1660    3.9190 H   0  0  0  0  0  0  0  0  0  0  0  0
    2.9410    0.7530    4.4200 H   0  0  0  0  0  0  0  0  0  0  0  0
    4.2020    2.0150    2.9150 H   0  0  0  0  0  0  0  0  0  0  0  0
    2.9280    2.1490    1.6940 H   0  0  0  0  0  0  0  0  0  0  0  0
    3.1840   -0.3370    1.1960 H   0  0  0  0  0  0  0  0  0  0  0  0
    4.5570   -0.3290    2.4440 H   0  0  0  0  0  0  0  0  0  0  0  0
    5.2880   -0.0720    0.1330 H   0  0  0  0  0  0  0  0  0  0  0  0
    5.6270    1.4750    1.0840 H   0  0  0  0  0  0  0  0  0  0  0  0
    3.7740    1.0830   -1.0820 H   0  0  0  0  0  0  0  0  0  0  0  0
    4.3460    2.5550   -0.3290 H   0  0  0  0  0  0  0  0  0  0  0  0
    0.1520   -0.9320   -1.6080 N   0  0  0  0  0  0  0  0  0  0  0  0
    0.3650    0.4250   -1.9320 C   0  0  0  0  0  0  0  0  0  0  0  0
    1.0880    0.6310   -2.9690 O   0  0  0  0  0  0  0  0  0  0  0  0
   -0.1770    1.5490   -1.1750 C   0  0  0  0  0  0  0  0  0  0  0  0
   -0.9060    1.2010    0.0830 C   0  0  2  0  0  0  0  0  0  0  0  0
   -0.0730    0.5180    1.0200 N   0  0  0  0  0  0  0  0  0  0  0  0
   -2.1440    0.4470   -0.2420 C   0  0  0  0  0  0  0  0  0  0  0  0
   -2.9290    0.8870   -1.1150 O   0  0  0  0  0  0  0  0  0  0  0  0
    0.9310   -1.5120   -1.2500 H   0  0  0  0  0  0  0  0  0  0  0  0
   -0.7920   -1.3330   -1.7380 H   0  0  0  0  0  0  0  0  0  0  0  0
    0.6690    2.2710   -0.9870 H   0  0  0  0  0  0  0  0  0  0  0  0
   -0.8370    2.1240   -1.8910 H   0  0  0  0  0  0  0  0  0  0  0  0
   -1.1790    2.2050    0.5500 H   0  0  0  0  0  0  0  0  0  0  0  0
    0.2580   -0.4500    0.7760 H   0  0  0  0  0  0  0  0  0  0  0  0
   -2.5040   -0.7820    0.4000 N   0  0  0  0  0  0  0  0  0  0  0  0
   -3.6900   -1.5330    0.1100 C   0  0  1  0  0  0  0  0  0  0  0  0
   -3.5580   -3.0070    0.1130 C   0  0  0  0  0  0  0  0  0  0  0  0
   -2.6120   -3.6000   -0.8270 C   0  0  0  0  0  0  0  0  0  0  0  0
   -2.9720   -3.9530   -2.0940 C   0  0  0  0  0  0  0  0  0  0  0  0
   -2.0270   -4.5160   -2.9170 C   0  0  0  0  0  0  0  0  0  0  0  0
   -0.7240   -4.7410   -2.5180 C   0  0  0  0  0  0  0  0  0  0  0  0
   -0.3570   -4.3840   -1.2350 C   0  0  0  0  0  0  0  0  0  0  0  0
   -1.3120   -3.8150   -0.4040 C   0  0  0  0  0  0  0  0  0  0  0  0
   -4.6550   -1.2100    1.2400 C   0  0  0  0  0  0  0  0  0  0  0  0
   -5.8020   -1.7230    1.2800 O   0  0  0  0  0  0  0  0  0  0  0  0
   -4.3100   -0.3430    2.2620 O   0  0  0  0  0  0  0  0  0  0  0  0
   -1.8640   -1.1640    1.1300 H   0  0  0  0  0  0  0  0  0  0  0  0
   -4.2300   -1.1750   -0.7940 H   0  0  0  0  0  0  0  0  0  0  0  0
   -3.4000   -3.4070    1.1480 H   0  0  0  0  0  0  0  0  0  0  0  0
   -4.5770   -3.4090   -0.1720 H   0  0  0  0  0  0  0  0  0  0  0  0
   -3.9820   -3.8100   -2.4900 H   0  0  0  0  0  0  0  0  0  0  0  0
   -2.2820   -4.8090   -3.9330 H   0  0  0  0  0  0  0  0  0  0  0  0
    0.0250   -5.1840   -3.1620 H   0  0  0  0  0  0  0  0  0  0  0  0
    0.6620   -4.5560   -0.9120 H   0  0  0  0  0  0  0  0  0  0  0  0
   -0.9990   -3.5470    0.5890 H   0  0  0  0  0  0  0  0  0  0  0  0
  1  2  1  0  0  0  0
  1 10  1  0  0  0  0
  2  3  1  0  0  0  0
  2 12  1  1  0  0  0
  3 13  1  0  0  0  0
  3 14  1  0  0  0  0
  4 15  1  0  0  0  0
  4  3  1  0  0  0  0
  5 18  1  0  0  0  0
  5  4  1  0  0  0  0
  6 20  1  0  0  0  0
  6  5  1  0  0  0  0
  7  6  1  0  0  0  0
  8  9  2  0  0  0  0
  8  2  1  0  0  0  0
 11  1  1  0  0  0  0
 16  4  1  0  0  0  0
 17  5  1  0  0  0  0
 19  6  1  0  0  0  0
 21  7  1  0  0  0  0
 22  7  1  0  0  0  0
 23 31  1  0  0  0  0
 24 23  1  0  0  0  0
 24 26  1  0  0  0  0
 25 24  2  0  0  0  0
 26 33  1  0  0  0  0
 26 27  1  0  0  0  0
 27 35  1  1  0  0  0
 27 28  1  0  0  0  0
 28  8  1  0  0  0  0
 29 27  1  0  0  0  0
 29 37  1  0  0  0  0
 30 29  2  0  0  0  0
 32 23  1  0  0  0  0
 34 26  1  0  0  0  0
 36 28  1  0  0  0  0
 37 49  1  0  0  0  0
 38 50  1  6  0  0  0
 38 39  1  0  0  0  0
 38 37  1  0  0  0  0
 38 46  1  0  0  0  0
 39 51  1  0  0  0  0
 40 45  1  0  0  0  0
 40 39  1  0  0  0  0
 41 40  2  0  0  0  0
 42 43  2  0  0  0  0
 42 41  1  0  0  0  0
 43 44  1  0  0  0  0
 44 56  1  0  0  0  0
 44 45  2  0  0  0  0
 45 57  1  0  0  0  0
 46 47  2  0  0  0  0
 46 48  1  0  0  0  0
 52 39  1  0  0  0  0
 53 41  1  0  0  0  0
 54 42  1  0  0  0  0
 55 43  1  0  0  0  0
M  END
$$$$
