KNG.pdb
 OpenBabel07022418493D

 44 43  0  0  1  0  0  0  0  0999 V2000
   -1.1890   -1.8950   -0.1300 N   0  0  0  0  0  0  0  0  0  0  0  0
   -0.7030   -2.1940    1.1970 C   0  0  1  0  0  0  0  0  0  0  0  0
    0.0740   -3.4380    1.3050 C   0  0  0  0  0  0  0  0  0  0  0  0
    1.3040   -3.5820    0.5160 C   0  0  0  0  0  0  0  0  0  0  0  0
    1.1700   -3.4920   -0.9610 C   0  0  0  0  0  0  0  0  0  0  0  0
    2.5780   -3.6740   -1.5500 C   0  0  0  0  0  0  0  0  0  0  0  0
    2.5550   -3.6030   -2.9860 N   0  0  0  0  0  0  0  0  0  0  0  0
   -0.0900   -0.9800    1.7590 C   0  0  0  0  0  0  0  0  0  0  0  0
    0.4200   -1.0970    2.9270 O   0  0  0  0  0  0  0  0  0  0  0  0
   -1.4780   -2.7680   -0.6440 H   0  0  0  0  0  0  0  0  0  0  0  0
   -1.9110   -1.1630   -0.1460 H   0  0  0  0  0  0  0  0  0  0  0  0
   -1.6450   -2.3540    1.8100 H   0  0  0  0  0  0  0  0  0  0  0  0
   -0.6070   -4.2980    1.1040 H   0  0  0  0  0  0  0  0  0  0  0  0
    0.3550   -3.5620    2.3920 H   0  0  0  0  0  0  0  0  0  0  0  0
    1.7060   -4.6190    0.7330 H   0  0  0  0  0  0  0  0  0  0  0  0
    2.1430   -2.9170    0.8330 H   0  0  0  0  0  0  0  0  0  0  0  0
    0.8190   -2.4650   -1.2640 H   0  0  0  0  0  0  0  0  0  0  0  0
    0.5560   -4.2820   -1.4140 H   0  0  0  0  0  0  0  0  0  0  0  0
    3.2550   -2.8700   -1.1850 H   0  0  0  0  0  0  0  0  0  0  0  0
    3.0100   -4.6400   -1.2380 H   0  0  0  0  0  0  0  0  0  0  0  0
    2.9970   -2.7520   -3.3740 H   0  0  0  0  0  0  0  0  0  0  0  0
    1.6320   -3.8360   -3.3970 H   0  0  0  0  0  0  0  0  0  0  0  0
    2.7740   -0.0540    0.7680 N   0  0  0  0  0  0  0  0  0  0  0  0
    2.6710    1.2800    0.3240 C   0  0  0  0  0  0  0  0  0  0  0  0
    3.5510    1.7530   -0.4150 O   0  0  0  0  0  0  0  0  0  0  0  0
    1.5340    2.1020    0.7310 C   0  0  0  0  0  0  0  0  0  0  0  0
    0.5410    1.4170    1.6290 C   0  0  2  0  0  0  0  0  0  0  0  0
   -0.0680    0.2450    1.0440 N   0  0  0  0  0  0  0  0  0  0  0  0
   -0.5120    2.4600    1.9170 C   0  0  0  0  0  0  0  0  0  0  0  0
   -0.2340    3.5550    2.4200 O   0  0  0  0  0  0  0  0  0  0  0  0
    2.8520   -0.7830    0.0180 H   0  0  0  0  0  0  0  0  0  0  0  0
    2.7720   -0.2690    1.7750 H   0  0  0  0  0  0  0  0  0  0  0  0
    1.9080    2.9870    1.3040 H   0  0  0  0  0  0  0  0  0  0  0  0
    0.9910    2.5300   -0.1390 H   0  0  0  0  0  0  0  0  0  0  0  0
    0.9970    1.1850    2.6150 H   0  0  0  0  0  0  0  0  0  0  0  0
   -0.4970    0.2860    0.0980 H   0  0  0  0  0  0  0  0  0  0  0  0
   -1.8500    2.1420    1.5880 N   0  0  0  0  0  0  0  0  0  0  0  0
   -2.9550    3.0320    1.8040 C   0  0  0  0  0  0  0  0  0  0  0  0
   -3.1320    3.3990    3.2210 C   0  0  0  0  0  0  0  0  0  0  0  0
   -4.0560    4.1710    3.5730 O   0  0  0  0  0  0  0  0  0  0  0  0
   -2.2840    2.9030    4.2000 O   0  0  0  0  0  0  0  0  0  0  0  0
   -2.0620    1.1970    1.1570 H   0  0  0  0  0  0  0  0  0  0  0  0
   -3.8860    2.6420    1.3800 H   0  0  0  0  0  0  0  0  0  0  0  0
   -2.7070    3.9820    1.2480 H   0  0  0  0  0  0  0  0  0  0  0  0
  1  2  1  0  0  0  0
  2  3  1  0  0  0  0
  2  8  1  0  0  0  0
  2 12  1  1  0  0  0
  3 14  1  0  0  0  0
  4 15  1  0  0  0  0
  4 16  1  0  0  0  0
  4  3  1  0  0  0  0
  5  4  1  0  0  0  0
  6 20  1  0  0  0  0
  6 19  1  0  0  0  0
  6  5  1  0  0  0  0
  7  6  1  0  0  0  0
  8  9  2  0  0  0  0
 10  1  1  0  0  0  0
 11  1  1  0  0  0  0
 13  3  1  0  0  0  0
 17  5  1  0  0  0  0
 18  5  1  0  0  0  0
 21  7  1  0  0  0  0
 22  7  1  0  0  0  0
 23 32  1  0  0  0  0
 24 26  1  0  0  0  0
 24 23  1  0  0  0  0
 25 24  2  0  0  0  0
 26 33  1  0  0  0  0
 26 27  1  0  0  0  0
 27 29  1  0  0  0  0
 27 35  1  1  0  0  0
 28 27  1  0  0  0  0
 28  8  1  0  0  0  0
 29 30  2  0  0  0  0
 31 23  1  0  0  0  0
 34 26  1  0  0  0  0
 36 28  1  0  0  0  0
 37 38  1  0  0  0  0
 37 29  1  0  0  0  0
 38 39  1  0  0  0  0
 39 40  2  0  0  0  0
 39 41  1  0  0  0  0
 42 37  1  0  0  0  0
 43 38  1  0  0  0  0
 44 38  1  0  0  0  0
M  END
$$$$
