KNL.pdb
 OpenBabel07022418493D

 56 55  0  0  1  0  0  0  0  0999 V2000
   -0.0420   -2.5330    3.6050 N   0  0  0  0  0  0  0  0  0  0  0  0
    0.6670   -1.2110    3.7720 C   0  0  1  0  0  0  0  0  0  0  0  0
    1.9660   -1.5960    4.3480 C   0  0  0  0  0  0  0  0  0  0  0  0
    2.9970   -0.6460    4.7220 C   0  0  0  0  0  0  0  0  0  0  0  0
    3.6310    0.2590    3.7510 C   0  0  0  0  0  0  0  0  0  0  0  0
    4.7070    1.0770    4.5290 C   0  0  0  0  0  0  0  0  0  0  0  0
    5.3480    1.9750    3.6000 N   0  0  0  0  0  0  0  0  0  0  0  0
    0.7010   -0.7030    2.3620 C   0  0  0  0  0  0  0  0  0  0  0  0
    0.8500    0.5040    2.0530 O   0  0  0  0  0  0  0  0  0  0  0  0
    0.6620   -3.2520    3.3540 H   0  0  0  0  0  0  0  0  0  0  0  0
   -0.4340   -2.7600    4.5240 H   0  0  0  0  0  0  0  0  0  0  0  0
   -0.0060   -0.6320    4.4000 H   0  0  0  0  0  0  0  0  0  0  0  0
    1.7280   -2.2210    5.2760 H   0  0  0  0  0  0  0  0  0  0  0  0
    2.3750   -2.4190    3.6550 H   0  0  0  0  0  0  0  0  0  0  0  0
    2.6950   -0.0210    5.6350 H   0  0  0  0  0  0  0  0  0  0  0  0
    3.8530   -1.2570    5.1810 H   0  0  0  0  0  0  0  0  0  0  0  0
    3.0160    1.0570    3.3170 H   0  0  0  0  0  0  0  0  0  0  0  0
    4.2040   -0.2520    2.9650 H   0  0  0  0  0  0  0  0  0  0  0  0
    5.4510    0.3690    4.9230 H   0  0  0  0  0  0  0  0  0  0  0  0
    4.2270    1.6130    5.3560 H   0  0  0  0  0  0  0  0  0  0  0  0
    6.1720    2.4070    4.0700 H   0  0  0  0  0  0  0  0  0  0  0  0
    4.6630    2.7400    3.3390 H   0  0  0  0  0  0  0  0  0  0  0  0
    2.9110   -1.9140   -3.0230 N   0  0  0  0  0  0  0  0  0  0  0  0
    2.0030   -1.2160   -2.1340 C   0  0  0  0  0  0  0  0  0  0  0  0
    1.4910   -0.2000   -2.6650 O   0  0  0  0  0  0  0  0  0  0  0  0
    1.7600   -1.7010   -0.7830 C   0  0  0  0  0  0  0  0  0  0  0  0
    0.6060   -1.0420   -0.0950 C   0  0  2  0  0  0  0  0  0  0  0  0
    0.5620   -1.6100    1.2940 N   0  0  0  0  0  0  0  0  0  0  0  0
   -0.7310   -1.4280   -0.6190 C   0  0  0  0  0  0  0  0  0  0  0  0
   -1.3670   -2.3200    0.0340 O   0  0  0  0  0  0  0  0  0  0  0  0
    3.8890   -1.6330   -3.0480 H   0  0  0  0  0  0  0  0  0  0  0  0
    2.5340   -2.6670   -3.5940 H   0  0  0  0  0  0  0  0  0  0  0  0
    2.6670   -1.4430   -0.1680 H   0  0  0  0  0  0  0  0  0  0  0  0
    1.6410   -2.8080   -0.8500 H   0  0  0  0  0  0  0  0  0  0  0  0
    0.7450    0.0370   -0.0860 H   0  0  0  0  0  0  0  0  0  0  0  0
    0.4320   -2.6280    1.3390 H   0  0  0  0  0  0  0  0  0  0  0  0
   -5.7060    0.9580   -1.7590 C   0  0  0  0  0  0  0  0  0  0  0  0
   -5.1040   -0.4290   -2.1650 C   0  0  0  0  0  0  0  0  0  0  0  0
   -5.5120   -0.5740   -3.6090 C   0  0  0  0  0  0  0  0  0  0  0  0
   -3.6570   -0.2970   -1.9030 C   0  0  0  0  0  0  0  0  0  0  0  0
   -2.7480   -1.4530   -2.1280 C   0  0  2  0  0  0  0  0  0  0  0  0
   -1.3920   -0.9260   -1.7500 N   0  0  0  0  0  0  0  0  0  0  0  0
   -2.6860   -2.0360   -3.4550 C   0  0  0  0  0  0  0  0  0  0  0  0
   -3.6130   -2.6840   -3.9890 O   0  0  0  0  0  0  0  0  0  0  0  0
   -1.5370   -1.9180   -4.2800 O   0  0  0  0  0  0  0  0  0  0  0  0
   -6.7870    0.8510   -1.6070 H   0  0  0  0  0  0  0  0  0  0  0  0
   -5.2280    1.3010   -0.8200 H   0  0  0  0  0  0  0  0  0  0  0  0
   -5.4590    1.7040   -2.5390 H   0  0  0  0  0  0  0  0  0  0  0  0
   -5.6160   -1.1750   -1.5270 H   0  0  0  0  0  0  0  0  0  0  0  0
   -4.7560   -0.3080   -4.3420 H   0  0  0  0  0  0  0  0  0  0  0  0
   -6.3500    0.1780   -3.7920 H   0  0  0  0  0  0  0  0  0  0  0  0
   -5.9880   -1.5730   -3.7250 H   0  0  0  0  0  0  0  0  0  0  0  0
   -3.5540    0.1090   -0.8490 H   0  0  0  0  0  0  0  0  0  0  0  0
   -3.3140    0.6130   -2.5110 H   0  0  0  0  0  0  0  0  0  0  0  0
   -3.0410   -2.2440   -1.3950 H   0  0  0  0  0  0  0  0  0  0  0  0
   -0.9810   -0.1860   -2.3190 H   0  0  0  0  0  0  0  0  0  0  0  0
  1  2  1  0  0  0  0
  1 11  1  0  0  0  0
  2  3  1  0  0  0  0
  2 12  1  1  0  0  0
  3  4  1  0  0  0  0
  3 13  1  0  0  0  0
  4 16  1  0  0  0  0
  4 15  1  0  0  0  0
  5  6  1  0  0  0  0
  5  4  1  0  0  0  0
  6 19  1  0  0  0  0
  6 20  1  0  0  0  0
  7 21  1  0  0  0  0
  7  6  1  0  0  0  0
  8  2  1  0  0  0  0
  9  8  2  0  0  0  0
 10  1  1  0  0  0  0
 14  3  1  0  0  0  0
 17  5  1  0  0  0  0
 18  5  1  0  0  0  0
 22  7  1  0  0  0  0
 23 24  1  0  0  0  0
 24 26  1  0  0  0  0
 25 24  2  0  0  0  0
 26 33  1  0  0  0  0
 26 27  1  0  0  0  0
 27 35  1  1  0  0  0
 27 28  1  0  0  0  0
 28 36  1  0  0  0  0
 28  8  1  0  0  0  0
 29 27  1  0  0  0  0
 29 30  2  0  0  0  0
 31 23  1  0  0  0  0
 32 23  1  0  0  0  0
 34 26  1  0  0  0  0
 37 46  1  0  0  0  0
 37 47  1  0  0  0  0
 38 40  1  0  0  0  0
 38 37  1  0  0  0  0
 38 49  1  0  0  0  0
 39 38  1  0  0  0  0
 40 53  1  0  0  0  0
 41 40  1  0  0  0  0
 41 42  1  0  0  0  0
 41 55  1  1  0  0  0
 42 29  1  0  0  0  0
 43 41  1  0  0  0  0
 44 43  1  0  0  0  0
 45 43  2  0  0  0  0
 48 37  1  0  0  0  0
 50 39  1  0  0  0  0
 51 39  1  0  0  0  0
 52 39  1  0  0  0  0
 54 40  1  0  0  0  0
 56 42  1  0  0  0  0
M  END
$$$$
