KNR.pdb
 OpenBabel07022418493D

 60 59  0  0  1  0  0  0  0  0999 V2000
    2.1110   -0.6440    1.5990 N   0  0  0  0  0  0  0  0  0  0  0  0
    1.5870    0.4080    2.4350 C   0  0  1  0  0  0  0  0  0  0  0  0
    2.6460    1.4790    2.5450 C   0  0  0  0  0  0  0  0  0  0  0  0
    3.9200    0.9900    3.1490 C   0  0  0  0  0  0  0  0  0  0  0  0
    4.9220    2.1080    3.2170 C   0  0  0  0  0  0  0  0  0  0  0  0
    5.2750    2.6840    1.8760 C   0  0  0  0  0  0  0  0  0  0  0  0
    6.2490    3.7510    2.1020 N   0  0  0  0  0  0  0  0  0  0  0  0
    0.4070    1.0040    1.7610 C   0  0  0  0  0  0  0  0  0  0  0  0
   -0.2280    1.9790    2.2550 O   0  0  0  0  0  0  0  0  0  0  0  0
    1.4820   -1.4580    1.5280 H   0  0  0  0  0  0  0  0  0  0  0  0
    2.5440   -0.3440    0.7220 H   0  0  0  0  0  0  0  0  0  0  0  0
    1.3240   -0.0300    3.4230 H   0  0  0  0  0  0  0  0  0  0  0  0
    2.8480    1.8400    1.5130 H   0  0  0  0  0  0  0  0  0  0  0  0
    2.2420    2.3030    3.1940 H   0  0  0  0  0  0  0  0  0  0  0  0
    4.3530    0.1050    2.6870 H   0  0  0  0  0  0  0  0  0  0  0  0
    3.6990    0.6870    4.2160 H   0  0  0  0  0  0  0  0  0  0  0  0
    4.5490    2.9580    3.8330 H   0  0  0  0  0  0  0  0  0  0  0  0
    5.8510    1.7530    3.6990 H   0  0  0  0  0  0  0  0  0  0  0  0
    4.4480    3.1410    1.3270 H   0  0  0  0  0  0  0  0  0  0  0  0
    5.8180    1.9190    1.2440 H   0  0  0  0  0  0  0  0  0  0  0  0
    6.9820    3.4450    2.7920 H   0  0  0  0  0  0  0  0  0  0  0  0
    6.6340    4.1160    1.2210 H   0  0  0  0  0  0  0  0  0  0  0  0
    1.0120   -0.2690   -2.2210 N   0  0  0  0  0  0  0  0  0  0  0  0
   -0.2470    0.3180   -2.4680 C   0  0  0  0  0  0  0  0  0  0  0  0
   -0.8930   -0.0900   -3.4580 O   0  0  0  0  0  0  0  0  0  0  0  0
   -0.7890    1.3610   -1.6060 C   0  0  0  0  0  0  0  0  0  0  0  0
   -1.1440    0.9560   -0.2200 C   0  0  2  0  0  0  0  0  0  0  0  0
   -0.0090    0.4540    0.5290 N   0  0  0  0  0  0  0  0  0  0  0  0
   -2.1970   -0.0930   -0.2140 C   0  0  0  0  0  0  0  0  0  0  0  0
   -3.3060    0.0670   -0.8210 O   0  0  0  0  0  0  0  0  0  0  0  0
    1.8200    0.3220   -1.9830 H   0  0  0  0  0  0  0  0  0  0  0  0
    1.1290   -1.2950   -2.2760 H   0  0  0  0  0  0  0  0  0  0  0  0
   -0.0960    2.2490   -1.5090 H   0  0  0  0  0  0  0  0  0  0  0  0
   -1.6980    1.7950   -2.1040 H   0  0  0  0  0  0  0  0  0  0  0  0
   -1.5560    1.8140    0.3630 H   0  0  0  0  0  0  0  0  0  0  0  0
    0.5080   -0.3540    0.1180 H   0  0  0  0  0  0  0  0  0  0  0  0
   -4.3860   -6.3350   -1.0190 N   0  0  0  0  0  0  0  0  0  0  0  0
   -4.4420   -4.9770   -1.4960 C   0  0  0  0  0  0  0  0  0  0  0  0
   -5.3630   -4.2170   -1.0220 N   0  0  0  0  0  0  0  0  0  0  0  0
   -3.5640   -4.4700   -2.4470 N   0  0  0  0  0  0  0  0  0  0  0  0
   -2.8290   -3.2640   -2.3350 C   0  0  0  0  0  0  0  0  0  0  0  0
   -1.7300   -3.3870   -1.3130 C   0  0  0  0  0  0  0  0  0  0  0  0
   -2.1720   -3.6160    0.0870 C   0  0  0  0  0  0  0  0  0  0  0  0
   -2.9510   -2.3990    0.5550 C   0  0  2  0  0  0  0  0  0  0  0  0
   -1.9960   -1.2970    0.4700 N   0  0  0  0  0  0  0  0  0  0  0  0
   -3.2320   -2.6070    1.9980 C   0  0  0  0  0  0  0  0  0  0  0  0
   -4.0260   -3.5260    2.3230 O   0  0  0  0  0  0  0  0  0  0  0  0
   -2.6830   -1.8570    3.0260 O   0  0  0  0  0  0  0  0  0  0  0  0
   -4.1950   -7.1380   -1.6340 H   0  0  0  0  0  0  0  0  0  0  0  0
   -4.5480   -6.4870   -0.0080 H   0  0  0  0  0  0  0  0  0  0  0  0
   -5.5400   -3.2380   -1.2530 H   0  0  0  0  0  0  0  0  0  0  0  0
   -3.4220   -5.0460   -3.3310 H   0  0  0  0  0  0  0  0  0  0  0  0
   -3.4850   -2.3760   -2.1010 H   0  0  0  0  0  0  0  0  0  0  0  0
   -2.4000   -2.9960   -3.3490 H   0  0  0  0  0  0  0  0  0  0  0  0
   -0.9310   -4.0900   -1.6480 H   0  0  0  0  0  0  0  0  0  0  0  0
   -1.2130   -2.3870   -1.3230 H   0  0  0  0  0  0  0  0  0  0  0  0
   -2.7210   -4.5600    0.2650 H   0  0  0  0  0  0  0  0  0  0  0  0
   -1.2330   -3.5910    0.7200 H   0  0  0  0  0  0  0  0  0  0  0  0
   -3.8470   -2.1940   -0.0270 H   0  0  0  0  0  0  0  0  0  0  0  0
   -1.0870   -1.4670    0.9840 H   0  0  0  0  0  0  0  0  0  0  0  0
  1  2  1  0  0  0  0
  2  3  1  0  0  0  0
  2 12  1  1  0  0  0
  3  4  1  0  0  0  0
  3 14  1  0  0  0  0
  4  5  1  0  0  0  0
  4 16  1  0  0  0  0
  5 18  1  0  0  0  0
  5 17  1  0  0  0  0
  6  7  1  0  0  0  0
  6  5  1  0  0  0  0
  7 21  1  0  0  0  0
  8  9  2  0  0  0  0
  8  2  1  0  0  0  0
 10  1  1  0  0  0  0
 11  1  1  0  0  0  0
 13  3  1  0  0  0  0
 15  4  1  0  0  0  0
 19  6  1  0  0  0  0
 20  6  1  0  0  0  0
 22  7  1  0  0  0  0
 23 31  1  0  0  0  0
 24 23  1  0  0  0  0
 24 26  1  0  0  0  0
 25 24  2  0  0  0  0
 26 33  1  0  0  0  0
 26 27  1  0  0  0  0
 27 29  1  0  0  0  0
 27 35  1  1  0  0  0
 27 28  1  0  0  0  0
 28  8  1  0  0  0  0
 29 45  1  0  0  0  0
 30 29  2  0  0  0  0
 32 23  1  0  0  0  0
 34 26  1  0  0  0  0
 36 28  1  0  0  0  0
 37 50  1  0  0  0  0
 38 39  2  0  0  0  0
 38 37  1  0  0  0  0
 40 41  1  0  0  0  0
 40 38  1  0  0  0  0
 41 53  1  0  0  0  0
 41 42  1  0  0  0  0
 42 43  1  0  0  0  0
 43 57  1  0  0  0  0
 43 44  1  0  0  0  0
 43 58  1  0  0  0  0
 44 59  1  6  0  0  0
 44 46  1  0  0  0  0
 45 44  1  0  0  0  0
 45 60  1  0  0  0  0
 46 47  2  0  0  0  0
 46 48  1  0  0  0  0
 49 37  1  0  0  0  0
 51 39  1  0  0  0  0
 52 40  1  0  0  0  0
 54 41  1  0  0  0  0
 55 42  1  0  0  0  0
 56 42  1  0  0  0  0
M  END
$$$$
