KNS.pdb
 OpenBabel07022418493D

 48 47  0  0  1  0  0  0  0  0999 V2000
    1.1960   -3.3960    3.3890 N   0  0  0  0  0  0  0  0  0  0  0  0
    1.3490   -2.3190    2.4300 C   0  0  1  0  0  0  0  0  0  0  0  0
    1.5110   -2.9480    1.0740 C   0  0  0  0  0  0  0  0  0  0  0  0
    2.7170   -3.8510    1.0020 C   0  0  0  0  0  0  0  0  0  0  0  0
    2.8250   -4.4530   -0.3800 C   0  0  0  0  0  0  0  0  0  0  0  0
    2.9700   -3.3990   -1.4410 C   0  0  0  0  0  0  0  0  0  0  0  0
    4.1430   -2.5800   -1.2570 N   0  0  0  0  0  0  0  0  0  0  0  0
    0.2120   -1.4270    2.5580 C   0  0  0  0  0  0  0  0  0  0  0  0
   -0.6950   -1.6580    3.4030 O   0  0  0  0  0  0  0  0  0  0  0  0
    0.6210   -3.1230    4.2160 H   0  0  0  0  0  0  0  0  0  0  0  0
    2.0870   -3.7770    3.7240 H   0  0  0  0  0  0  0  0  0  0  0  0
    2.2910   -1.7850    2.7290 H   0  0  0  0  0  0  0  0  0  0  0  0
    1.7110   -2.0910    0.3660 H   0  0  0  0  0  0  0  0  0  0  0  0
    0.6350   -3.4660    0.7100 H   0  0  0  0  0  0  0  0  0  0  0  0
    3.6570   -3.2880    1.1910 H   0  0  0  0  0  0  0  0  0  0  0  0
    2.6710   -4.6840    1.7170 H   0  0  0  0  0  0  0  0  0  0  0  0
    3.5940   -5.2360   -0.4380 H   0  0  0  0  0  0  0  0  0  0  0  0
    1.8290   -4.9500   -0.5700 H   0  0  0  0  0  0  0  0  0  0  0  0
    2.0340   -2.8300   -1.5000 H   0  0  0  0  0  0  0  0  0  0  0  0
    3.0890   -3.9580   -2.4170 H   0  0  0  0  0  0  0  0  0  0  0  0
    4.9350   -3.2030   -0.9950 H   0  0  0  0  0  0  0  0  0  0  0  0
    3.9240   -1.8570   -0.5490 H   0  0  0  0  0  0  0  0  0  0  0  0
    0.8500    3.3900    3.6510 N   0  0  0  0  0  0  0  0  0  0  0  0
    0.2870    2.1540    3.2770 C   0  0  0  0  0  0  0  0  0  0  0  0
    0.4810    1.1500    4.0090 O   0  0  0  0  0  0  0  0  0  0  0  0
   -0.5150    2.0260    2.0550 C   0  0  0  0  0  0  0  0  0  0  0  0
   -1.0240    0.6380    1.8320 C   0  0  2  0  0  0  0  0  0  0  0  0
    0.1040   -0.2670    1.7210 N   0  0  0  0  0  0  0  0  0  0  0  0
   -1.7950    0.6700    0.5270 C   0  0  0  0  0  0  0  0  0  0  0  0
   -1.3810   -0.0420   -0.4050 O   0  0  0  0  0  0  0  0  0  0  0  0
    0.6690    4.2870    3.1410 H   0  0  0  0  0  0  0  0  0  0  0  0
    1.4910    3.4720    4.4730 H   0  0  0  0  0  0  0  0  0  0  0  0
    0.0400    2.3290    1.1390 H   0  0  0  0  0  0  0  0  0  0  0  0
   -1.4170    2.7020    2.0830 H   0  0  0  0  0  0  0  0  0  0  0  0
   -1.6910    0.2620    2.6200 H   0  0  0  0  0  0  0  0  0  0  0  0
    0.8840   -0.1370    1.0480 H   0  0  0  0  0  0  0  0  0  0  0  0
   -2.0110    2.3520   -2.2640 O   0  0  0  0  0  0  0  0  0  0  0  0
   -3.2840    2.6080   -1.7910 C   0  0  0  0  0  0  0  0  0  0  0  0
   -3.7540    1.5790   -0.8010 C   0  0  2  0  0  0  0  0  0  0  0  0
   -2.9340    1.4690    0.3710 N   0  0  0  0  0  0  0  0  0  0  0  0
   -4.0420    0.2590   -1.4610 C   0  0  0  0  0  0  0  0  0  0  0  0
   -4.6720    0.2360   -2.5520 O   0  0  0  0  0  0  0  0  0  0  0  0
   -3.6570   -0.9410   -0.9350 O   0  0  0  0  0  0  0  0  0  0  0  0
   -2.0390    1.6760   -2.9860 H   0  0  0  0  0  0  0  0  0  0  0  0
   -3.3620    3.6010   -1.2950 H   0  0  0  0  0  0  0  0  0  0  0  0
   -4.0200    2.5900   -2.6330 H   0  0  0  0  0  0  0  0  0  0  0  0
   -4.8060    1.9100   -0.4740 H   0  0  0  0  0  0  0  0  0  0  0  0
   -3.2010    2.0490    1.2260 H   0  0  0  0  0  0  0  0  0  0  0  0
  1 11  1  0  0  0  0
  1 10  1  0  0  0  0
  2  8  1  0  0  0  0
  2 12  1  1  0  0  0
  2  1  1  0  0  0  0
  3  2  1  0  0  0  0
  4  3  1  0  0  0  0
  4 15  1  0  0  0  0
  4 16  1  0  0  0  0
  5  4  1  0  0  0  0
  6  7  1  0  0  0  0
  6  5  1  0  0  0  0
  7 21  1  0  0  0  0
  7 22  1  0  0  0  0
  8  9  2  0  0  0  0
 13  3  1  0  0  0  0
 14  3  1  0  0  0  0
 17  5  1  0  0  0  0
 18  5  1  0  0  0  0
 19  6  1  0  0  0  0
 20  6  1  0  0  0  0
 23 32  1  0  0  0  0
 24 23  1  0  0  0  0
 24 25  2  0  0  0  0
 26 34  1  0  0  0  0
 26 24  1  0  0  0  0
 27 26  1  0  0  0  0
 27 35  1  1  0  0  0
 28 27  1  0  0  0  0
 28  8  1  0  0  0  0
 29 27  1  0  0  0  0
 30 29  2  0  0  0  0
 31 23  1  0  0  0  0
 33 26  1  0  0  0  0
 36 28  1  0  0  0  0
 37 38  1  0  0  0  0
 38 45  1  0  0  0  0
 38 39  1  0  0  0  0
 39 47  1  1  0  0  0
 39 40  1  0  0  0  0
 40 29  1  0  0  0  0
 40 48  1  0  0  0  0
 41 43  1  0  0  0  0
 41 39  1  0  0  0  0
 42 41  2  0  0  0  0
 44 37  1  0  0  0  0
 46 38  1  0  0  0  0
M  END
$$$$
