KNV.pdb
 OpenBabel07022418493D

 53 52  0  0  1  0  0  0  0  0999 V2000
    0.6680    1.5340    5.0250 N   0  0  0  0  0  0  0  0  0  0  0  0
    1.2020    0.6050    3.9990 C   0  0  1  0  0  0  0  0  0  0  0  0
    0.9120   -0.7560    4.5100 C   0  0  0  0  0  0  0  0  0  0  0  0
    1.3320   -1.9110    3.6950 C   0  0  0  0  0  0  0  0  0  0  0  0
    2.7930   -2.0030    3.4150 C   0  0  0  0  0  0  0  0  0  0  0  0
    3.0290   -3.2520    2.5640 C   0  0  0  0  0  0  0  0  0  0  0  0
    4.4530   -3.3980    2.2530 N   0  0  0  0  0  0  0  0  0  0  0  0
    0.4980    0.9440    2.7390 C   0  0  0  0  0  0  0  0  0  0  0  0
   -0.4910    1.7640    2.7410 O   0  0  0  0  0  0  0  0  0  0  0  0
   -0.3730    1.4100    4.9720 H   0  0  0  0  0  0  0  0  0  0  0  0
    0.9750    1.1630    5.9460 H   0  0  0  0  0  0  0  0  0  0  0  0
    2.2720    0.8560    3.9240 H   0  0  0  0  0  0  0  0  0  0  0  0
   -0.1940   -0.8010    4.7240 H   0  0  0  0  0  0  0  0  0  0  0  0
    1.3720   -0.8800    5.5340 H   0  0  0  0  0  0  0  0  0  0  0  0
    0.7770   -1.9640    2.7390 H   0  0  0  0  0  0  0  0  0  0  0  0
    1.0620   -2.8880    4.2110 H   0  0  0  0  0  0  0  0  0  0  0  0
    3.2340   -1.1600    2.8850 H   0  0  0  0  0  0  0  0  0  0  0  0
    3.3910   -2.1810    4.3470 H   0  0  0  0  0  0  0  0  0  0  0  0
    2.4630   -3.2440    1.6340 H   0  0  0  0  0  0  0  0  0  0  0  0
    2.7550   -4.1710    3.1270 H   0  0  0  0  0  0  0  0  0  0  0  0
    4.8170   -2.5300    1.7980 H   0  0  0  0  0  0  0  0  0  0  0  0
    4.9530   -3.5650    3.1600 H   0  0  0  0  0  0  0  0  0  0  0  0
   -0.1710    3.2250   -1.9910 N   0  0  0  0  0  0  0  0  0  0  0  0
    0.5310    2.0020   -1.9100 C   0  0  0  0  0  0  0  0  0  0  0  0
    0.6960    1.3290   -2.9510 O   0  0  0  0  0  0  0  0  0  0  0  0
    1.0550    1.5310   -0.6260 C   0  0  0  0  0  0  0  0  0  0  0  0
    0.0960    0.7970    0.2410 C   0  0  2  0  0  0  0  0  0  0  0  0
    0.8300    0.4250    1.4630 N   0  0  0  0  0  0  0  0  0  0  0  0
   -0.5100   -0.4090   -0.3010 C   0  0  0  0  0  0  0  0  0  0  0  0
   -0.2790   -1.5490    0.2450 O   0  0  0  0  0  0  0  0  0  0  0  0
   -0.7840    3.4560   -2.7990 H   0  0  0  0  0  0  0  0  0  0  0  0
   -0.1050    3.9660   -1.2320 H   0  0  0  0  0  0  0  0  0  0  0  0
    1.3500    2.4580   -0.0550 H   0  0  0  0  0  0  0  0  0  0  0  0
    2.0110    0.9660   -0.7410 H   0  0  0  0  0  0  0  0  0  0  0  0
   -0.7240    1.5130    0.5160 H   0  0  0  0  0  0  0  0  0  0  0  0
    1.6190   -0.2340    1.3790 H   0  0  0  0  0  0  0  0  0  0  0  0
   -4.0230   -3.0640   -2.2780 C   0  0  0  0  0  0  0  0  0  0  0  0
   -3.4560   -1.7540   -1.7800 C   0  0  0  0  0  0  0  0  0  0  0  0
   -4.0730   -0.6540   -2.6370 C   0  0  0  0  0  0  0  0  0  0  0  0
   -1.9410   -1.7320   -1.8930 C   0  0  2  0  0  0  0  0  0  0  0  0
   -1.3820   -0.4980   -1.4270 N   0  0  0  0  0  0  0  0  0  0  0  0
   -1.5650   -2.0410   -3.2880 C   0  0  0  0  0  0  0  0  0  0  0  0
   -1.9390   -3.0720   -3.8950 O   0  0  0  0  0  0  0  0  0  0  0  0
   -0.7580   -1.1660   -3.9930 O   0  0  0  0  0  0  0  0  0  0  0  0
   -3.3010   -3.8830   -2.0910 H   0  0  0  0  0  0  0  0  0  0  0  0
   -4.2150   -3.0470   -3.3730 H   0  0  0  0  0  0  0  0  0  0  0  0
   -5.0060   -3.2700   -1.8030 H   0  0  0  0  0  0  0  0  0  0  0  0
   -3.7870   -1.6070   -0.7330 H   0  0  0  0  0  0  0  0  0  0  0  0
   -5.1670   -0.8040   -2.7410 H   0  0  0  0  0  0  0  0  0  0  0  0
   -3.9270    0.3500   -2.1960 H   0  0  0  0  0  0  0  0  0  0  0  0
   -3.6610   -0.6630   -3.6570 H   0  0  0  0  0  0  0  0  0  0  0  0
   -1.5990   -2.6110   -1.2750 H   0  0  0  0  0  0  0  0  0  0  0  0
   -1.6170    0.3870   -1.9150 H   0  0  0  0  0  0  0  0  0  0  0  0
  1 11  1  0  0  0  0
  2 12  1  6  0  0  0
  2  3  1  0  0  0  0
  2  1  1  0  0  0  0
  3 13  1  0  0  0  0
  3 14  1  0  0  0  0
  4 16  1  0  0  0  0
  4  3  1  0  0  0  0
  5  4  1  0  0  0  0
  5 18  1  0  0  0  0
  6 20  1  0  0  0  0
  6  5  1  0  0  0  0
  7  6  1  0  0  0  0
  7 22  1  0  0  0  0
  8  9  2  0  0  0  0
  8  2  1  0  0  0  0
 10  1  1  0  0  0  0
 15  4  1  0  0  0  0
 17  5  1  0  0  0  0
 19  6  1  0  0  0  0
 21  7  1  0  0  0  0
 23 24  1  0  0  0  0
 23 32  1  0  0  0  0
 24 26  1  0  0  0  0
 25 24  2  0  0  0  0
 26 33  1  0  0  0  0
 26 27  1  0  0  0  0
 27 35  1  1  0  0  0
 27 28  1  0  0  0  0
 28  8  1  0  0  0  0
 29 27  1  0  0  0  0
 29 30  2  0  0  0  0
 31 23  1  0  0  0  0
 34 26  1  0  0  0  0
 36 28  1  0  0  0  0
 37 45  1  0  0  0  0
 37 47  1  0  0  0  0
 37 38  1  0  0  0  0
 38 48  1  0  0  0  0
 39 50  1  0  0  0  0
 39 38  1  0  0  0  0
 40 38  1  0  0  0  0
 40 41  1  0  0  0  0
 40 52  1  1  0  0  0
 41 29  1  0  0  0  0
 42 40  1  0  0  0  0
 43 42  1  0  0  0  0
 44 42  2  0  0  0  0
 46 37  1  0  0  0  0
 49 39  1  0  0  0  0
 51 39  1  0  0  0  0
 53 41  1  0  0  0  0
M  END
$$$$
