KNY.pdb
 OpenBabel07022418493D

 58 58  0  0  1  0  0  0  0  0999 V2000
    1.1680    3.4780    2.8260 N   0  0  0  0  0  0  0  0  0  0  0  0
    1.5500    2.4520    1.8730 C   0  0  1  0  0  0  0  0  0  0  0  0
    2.4630    1.4870    2.5510 C   0  0  0  0  0  0  0  0  0  0  0  0
    2.8770    0.4100    1.5700 C   0  0  0  0  0  0  0  0  0  0  0  0
    3.8020   -0.5590    2.2750 C   0  0  0  0  0  0  0  0  0  0  0  0
    4.1860   -1.6210    1.2400 C   0  0  0  0  0  0  0  0  0  0  0  0
    4.8570   -1.0090    0.1100 N   0  0  0  0  0  0  0  0  0  0  0  0
    0.3320    1.8140    1.3090 C   0  0  0  0  0  0  0  0  0  0  0  0
   -0.1790    2.3620    0.3160 O   0  0  0  0  0  0  0  0  0  0  0  0
    0.2140    3.8550    2.6390 H   0  0  0  0  0  0  0  0  0  0  0  0
    1.8850    4.2390    2.8960 H   0  0  0  0  0  0  0  0  0  0  0  0
    2.1080    2.9980    1.0610 H   0  0  0  0  0  0  0  0  0  0  0  0
    1.9690    1.0540    3.4610 H   0  0  0  0  0  0  0  0  0  0  0  0
    3.4120    1.9810    2.8720 H   0  0  0  0  0  0  0  0  0  0  0  0
    3.3920    0.9320    0.7360 H   0  0  0  0  0  0  0  0  0  0  0  0
    2.0210   -0.1370    1.1470 H   0  0  0  0  0  0  0  0  0  0  0  0
    4.7150   -0.0390    2.6280 H   0  0  0  0  0  0  0  0  0  0  0  0
    3.2180   -1.0250    3.0850 H   0  0  0  0  0  0  0  0  0  0  0  0
    4.9170   -2.3060    1.7140 H   0  0  0  0  0  0  0  0  0  0  0  0
    3.2810   -2.1370    0.8960 H   0  0  0  0  0  0  0  0  0  0  0  0
    4.2790   -1.0690   -0.7700 H   0  0  0  0  0  0  0  0  0  0  0  0
    5.1830   -0.0390    0.3070 H   0  0  0  0  0  0  0  0  0  0  0  0
   -4.0670    1.1780    3.7680 N   0  0  0  0  0  0  0  0  0  0  0  0
   -2.9080    0.6390    3.1620 C   0  0  0  0  0  0  0  0  0  0  0  0
   -1.9990    0.1820    3.8980 O   0  0  0  0  0  0  0  0  0  0  0  0
   -2.7160    0.5890    1.6910 C   0  0  0  0  0  0  0  0  0  0  0  0
   -1.4150   -0.0230    1.3400 C   0  0  2  0  0  0  0  0  0  0  0  0
   -0.2580    0.6370    1.8410 N   0  0  0  0  0  0  0  0  0  0  0  0
   -1.2710   -0.3020   -0.1190 C   0  0  0  0  0  0  0  0  0  0  0  0
   -0.1950    0.0050   -0.6730 O   0  0  0  0  0  0  0  0  0  0  0  0
   -5.0330    0.8730    3.5400 H   0  0  0  0  0  0  0  0  0  0  0  0
   -3.9020    1.9330    4.4890 H   0  0  0  0  0  0  0  0  0  0  0  0
   -2.8780    1.6100    1.3140 H   0  0  0  0  0  0  0  0  0  0  0  0
   -3.5260   -0.0350    1.2510 H   0  0  0  0  0  0  0  0  0  0  0  0
   -1.4210   -1.0590    1.8300 H   0  0  0  0  0  0  0  0  0  0  0  0
    0.2560    0.2630    2.6970 H   0  0  0  0  0  0  0  0  0  0  0  0
    1.5050   -5.7140    0.3720 O   0  0  0  0  0  0  0  0  0  0  0  0
    0.5820   -4.9510   -0.3690 C   0  0  0  0  0  0  0  0  0  0  0  0
   -0.6470   -4.6170    0.1580 C   0  0  0  0  0  0  0  0  0  0  0  0
   -1.5550   -3.8690   -0.5640 C   0  0  0  0  0  0  0  0  0  0  0  0
   -1.2590   -3.4320   -1.8390 C   0  0  0  0  0  0  0  0  0  0  0  0
   -2.2620   -2.6420   -2.5570 C   0  0  0  0  0  0  0  0  0  0  0  0
   -2.1330   -1.1610   -2.3290 C   0  0  2  0  0  0  0  0  0  0  0  0
   -2.2890   -0.8960   -0.9100 N   0  0  0  0  0  0  0  0  0  0  0  0
   -3.1610   -0.4740   -3.1400 C   0  0  0  0  0  0  0  0  0  0  0  0
   -4.0660    0.2520   -2.6810 O   0  0  0  0  0  0  0  0  0  0  0  0
   -0.0210   -3.7830   -2.3370 C   0  0  0  0  0  0  0  0  0  0  0  0
    0.8940   -4.5210   -1.6440 C   0  0  0  0  0  0  0  0  0  0  0  0
   -3.1090   -0.6560   -4.5160 O   0  0  0  0  0  0  0  0  0  0  0  0
    2.4920   -5.4410    0.2670 H   0  0  0  0  0  0  0  0  0  0  0  0
   -0.8570   -4.9740    1.1660 H   0  0  0  0  0  0  0  0  0  0  0  0
   -2.4970   -3.6450   -0.0880 H   0  0  0  0  0  0  0  0  0  0  0  0
   -3.3130   -2.9920   -2.3840 H   0  0  0  0  0  0  0  0  0  0  0  0
   -2.0940   -2.8110   -3.6600 H   0  0  0  0  0  0  0  0  0  0  0  0
   -1.1480   -0.8490   -2.7090 H   0  0  0  0  0  0  0  0  0  0  0  0
   -3.1750   -1.1420   -0.4200 H   0  0  0  0  0  0  0  0  0  0  0  0
    0.2270   -3.4490   -3.3320 H   0  0  0  0  0  0  0  0  0  0  0  0
    1.8560   -4.7780   -2.0660 H   0  0  0  0  0  0  0  0  0  0  0  0
  1 11  1  0  0  0  0
  2 12  1  6  0  0  0
  2  3  1  0  0  0  0
  2  1  1  0  0  0  0
  3 14  1  0  0  0  0
  3 13  1  0  0  0  0
  4  5  1  0  0  0  0
  4  3  1  0  0  0  0
  5 17  1  0  0  0  0
  5 18  1  0  0  0  0
  6 19  1  0  0  0  0
  6  5  1  0  0  0  0
  7 22  1  0  0  0  0
  7  6  1  0  0  0  0
  8 28  1  0  0  0  0
  8  2  1  0  0  0  0
  9  8  2  0  0  0  0
 10  1  1  0  0  0  0
 15  4  1  0  0  0  0
 16  4  1  0  0  0  0
 20  6  1  0  0  0  0
 21  7  1  0  0  0  0
 23 32  1  0  0  0  0
 24 23  1  0  0  0  0
 24 25  2  0  0  0  0
 26 24  1  0  0  0  0
 27 26  1  0  0  0  0
 27 35  1  1  0  0  0
 27 28  1  0  0  0  0
 28 36  1  0  0  0  0
 29 27  1  0  0  0  0
 30 29  2  0  0  0  0
 31 23  1  0  0  0  0
 33 26  1  0  0  0  0
 34 26  1  0  0  0  0
 38 39  1  0  0  0  0
 38 37  1  0  0  0  0
 39 51  1  0  0  0  0
 40 52  1  0  0  0  0
 40 39  2  0  0  0  0
 41 40  1  0  0  0  0
 42 53  1  0  0  0  0
 42 43  1  0  0  0  0
 42 41  1  0  0  0  0
 43 55  1  6  0  0  0
 43 44  1  0  0  0  0
 44 56  1  0  0  0  0
 44 29  1  0  0  0  0
 45 46  1  0  0  0  0
 45 43  1  0  0  0  0
 47 41  2  0  0  0  0
 47 48  1  0  0  0  0
 48 38  2  0  0  0  0
 49 45  2  0  0  0  0
 50 37  1  0  0  0  0
 54 42  1  0  0  0  0
 57 47  1  0  0  0  0
 58 48  1  0  0  0  0
M  END
$$$$
