KPC.pdb
 OpenBabel07022418523D

 48 48  0  0  1  0  0  0  0  0999 V2000
    0.2590   -3.6480    1.7180 N   0  0  0  0  0  0  0  0  0  0  0  0
    0.9470   -2.3630    1.9680 C   0  0  1  0  0  0  0  0  0  0  0  0
    2.3570   -2.5800    1.6140 C   0  0  0  0  0  0  0  0  0  0  0  0
    2.6930   -3.0080    0.2340 C   0  0  0  0  0  0  0  0  0  0  0  0
    2.3520   -2.0970   -0.8810 C   0  0  0  0  0  0  0  0  0  0  0  0
    3.0420   -0.7540   -0.7800 C   0  0  0  0  0  0  0  0  0  0  0  0
    4.4850   -0.8940   -0.7990 N   0  0  0  0  0  0  0  0  0  0  0  0
    0.1970   -1.2550    1.4140 C   0  0  0  0  0  0  0  0  0  0  0  0
   -0.7290   -1.5720    0.5820 O   0  0  0  0  0  0  0  0  0  0  0  0
    0.7710   -4.4150    2.2140 H   0  0  0  0  0  0  0  0  0  0  0  0
    0.3660   -3.8430    0.6910 H   0  0  0  0  0  0  0  0  0  0  0  0
    0.8410   -2.2670    3.1050 H   0  0  0  0  0  0  0  0  0  0  0  0
    3.0390   -1.7330    1.8570 H   0  0  0  0  0  0  0  0  0  0  0  0
    2.7280   -3.4210    2.2910 H   0  0  0  0  0  0  0  0  0  0  0  0
    3.8230   -3.1310    0.2110 H   0  0  0  0  0  0  0  0  0  0  0  0
    2.3380   -4.0590    0.0600 H   0  0  0  0  0  0  0  0  0  0  0  0
    1.2980   -1.9410   -1.0990 H   0  0  0  0  0  0  0  0  0  0  0  0
    2.7620   -2.5790   -1.8300 H   0  0  0  0  0  0  0  0  0  0  0  0
    2.7550   -0.0910   -1.6060 H   0  0  0  0  0  0  0  0  0  0  0  0
    2.7720   -0.2910    0.1800 H   0  0  0  0  0  0  0  0  0  0  0  0
    4.9530   -0.4440   -0.0010 H   0  0  0  0  0  0  0  0  0  0  0  0
    4.8110   -1.8370   -1.0350 H   0  0  0  0  0  0  0  0  0  0  0  0
    0.3520    0.1030    1.6760 N   0  0  0  0  0  0  0  0  0  0  0  0
    1.3380    0.7770    2.5390 C   0  0  0  0  0  0  0  0  0  0  0  0
    1.7660    1.9370    1.6440 C   0  0  0  0  0  0  0  0  0  0  0  0
    0.7310    1.9800    0.4940 C   0  0  0  0  0  0  0  0  0  0  0  0
   -0.3830    1.2310    1.1910 C   0  0  1  0  0  0  0  0  0  0  0  0
   -1.6340    1.1080    0.5240 C   0  0  0  0  0  0  0  0  0  0  0  0
   -1.9540    1.7490   -0.5350 O   0  0  0  0  0  0  0  0  0  0  0  0
    2.1270    0.1530    2.9030 H   0  0  0  0  0  0  0  0  0  0  0  0
    0.7370    1.1440    3.4110 H   0  0  0  0  0  0  0  0  0  0  0  0
    2.7820    1.8440    1.2710 H   0  0  0  0  0  0  0  0  0  0  0  0
    1.5870    2.8680    2.2180 H   0  0  0  0  0  0  0  0  0  0  0  0
    0.4750    3.0060    0.2270 H   0  0  0  0  0  0  0  0  0  0  0  0
    1.1900    1.4240   -0.3390 H   0  0  0  0  0  0  0  0  0  0  0  0
   -0.5480    1.8770    2.1420 H   0  0  0  0  0  0  0  0  0  0  0  0
   -2.6790    0.2590    0.9750 N   0  0  0  0  0  0  0  0  0  0  0  0
   -3.9500    0.1270    0.3320 C   0  0  1  0  0  0  0  0  0  0  0  0
   -4.2790   -1.1550   -0.3130 C   0  0  0  0  0  0  0  0  0  0  0  0
   -3.1360   -1.5700   -1.6380 S   0  0  0  0  0  0  0  0  0  0  0  0
   -4.9950    0.5940    1.2780 C   0  0  0  0  0  0  0  0  0  0  0  0
   -4.7000    1.0140    2.4250 O   0  0  0  0  0  0  0  0  0  0  0  0
   -6.3590    0.5910    0.9440 O   0  0  0  0  0  0  0  0  0  0  0  0
   -2.5840   -0.3230    1.8620 H   0  0  0  0  0  0  0  0  0  0  0  0
   -3.9660    0.9020   -0.5010 H   0  0  0  0  0  0  0  0  0  0  0  0
   -4.4520   -1.9980    0.3890 H   0  0  0  0  0  0  0  0  0  0  0  0
   -5.2870   -1.0070   -0.8070 H   0  0  0  0  0  0  0  0  0  0  0  0
   -3.3800   -0.8500   -2.8060 H   0  0  0  0  0  0  0  0  0  0  0  0
  1  2  1  0  0  0  0
  1 10  1  0  0  0  0
  2 12  1  1  0  0  0
  3 13  1  0  0  0  0
  3  2  1  0  0  0  0
  3 14  1  0  0  0  0
  4  3  1  0  0  0  0
  5  6  1  0  0  0  0
  5  4  1  0  0  0  0
  6 20  1  0  0  0  0
  7  6  1  0  0  0  0
  7 21  1  0  0  0  0
  8 23  1  0  0  0  0
  8  2  1  0  0  0  0
  9  8  2  0  0  0  0
 11  1  1  0  0  0  0
 15  4  1  0  0  0  0
 16  4  1  0  0  0  0
 17  5  1  0  0  0  0
 18  5  1  0  0  0  0
 19  6  1  0  0  0  0
 22  7  1  0  0  0  0
 23 24  1  0  0  0  0
 24 30  1  0  0  0  0
 24 31  1  0  0  0  0
 25 33  1  0  0  0  0
 25 24  1  0  0  0  0
 26 27  1  0  0  0  0
 26 25  1  0  0  0  0
 27 23  1  0  0  0  0
 27 36  1  1  0  0  0
 28 37  1  0  0  0  0
 28 27  1  0  0  0  0
 29 28  2  0  0  0  0
 32 25  1  0  0  0  0
 34 26  1  0  0  0  0
 35 26  1  0  0  0  0
 37 44  1  0  0  0  0
 38 45  1  6  0  0  0
 38 37  1  0  0  0  0
 38 41  1  0  0  0  0
 39 38  1  0  0  0  0
 39 46  1  0  0  0  0
 40 39  1  0  0  0  0
 41 42  1  0  0  0  0
 43 41  2  0  0  0  0
 47 39  1  0  0  0  0
 48 40  1  0  0  0  0
M  END
$$$$
