KPD.pdb
 OpenBabel07022418523D

 50 50  0  0  1  0  0  0  0  0999 V2000
   -0.6220   -3.3120    1.8290 N   0  0  0  0  0  0  0  0  0  0  0  0
    0.4190   -2.2550    1.7750 C   0  0  1  0  0  0  0  0  0  0  0  0
    1.6880   -2.9640    2.2910 C   0  0  0  0  0  0  0  0  0  0  0  0
    2.8170   -1.9990    2.3270 C   0  0  0  0  0  0  0  0  0  0  0  0
    2.6290   -0.8670    3.3040 C   0  0  0  0  0  0  0  0  0  0  0  0
    3.8870    0.0030    3.1700 C   0  0  0  0  0  0  0  0  0  0  0  0
    5.0000   -0.8610    3.5100 N   0  0  0  0  0  0  0  0  0  0  0  0
    0.5990   -1.8340    0.3830 C   0  0  0  0  0  0  0  0  0  0  0  0
    0.8740   -2.7950   -0.4380 O   0  0  0  0  0  0  0  0  0  0  0  0
   -1.0810   -3.3360    2.7510 H   0  0  0  0  0  0  0  0  0  0  0  0
   -0.2300   -4.2130    1.5130 H   0  0  0  0  0  0  0  0  0  0  0  0
    0.1780   -1.4610    2.4390 H   0  0  0  0  0  0  0  0  0  0  0  0
    1.3920   -3.2840    3.3320 H   0  0  0  0  0  0  0  0  0  0  0  0
    1.8610   -3.8450    1.6710 H   0  0  0  0  0  0  0  0  0  0  0  0
    3.7970   -2.5060    2.4840 H   0  0  0  0  0  0  0  0  0  0  0  0
    2.9060   -1.4930    1.3170 H   0  0  0  0  0  0  0  0  0  0  0  0
    2.5820   -1.2850    4.3450 H   0  0  0  0  0  0  0  0  0  0  0  0
    1.7730   -0.2630    3.0520 H   0  0  0  0  0  0  0  0  0  0  0  0
    3.8280    0.9000    3.7930 H   0  0  0  0  0  0  0  0  0  0  0  0
    3.9800    0.3070    2.1120 H   0  0  0  0  0  0  0  0  0  0  0  0
    5.4680   -0.5820    4.3790 H   0  0  0  0  0  0  0  0  0  0  0  0
    5.6100   -1.0320    2.7000 H   0  0  0  0  0  0  0  0  0  0  0  0
    0.5130   -0.5590   -0.1780 N   0  0  0  0  0  0  0  0  0  0  0  0
    0.7630   -0.1950   -1.5940 C   0  0  0  0  0  0  0  0  0  0  0  0
    1.4360    1.1580   -1.4630 C   0  0  0  0  0  0  0  0  0  0  0  0
    0.7720    1.7980   -0.3020 C   0  0  0  0  0  0  0  0  0  0  0  0
    0.1300    0.6670    0.4640 C   0  0  1  0  0  0  0  0  0  0  0  0
   -1.3610    0.8450    0.4380 C   0  0  0  0  0  0  0  0  0  0  0  0
   -1.8960    1.8810    0.9240 O   0  0  0  0  0  0  0  0  0  0  0  0
    1.5030   -0.8830   -2.0480 H   0  0  0  0  0  0  0  0  0  0  0  0
   -0.1690   -0.1330   -2.1620 H   0  0  0  0  0  0  0  0  0  0  0  0
    1.2630    1.7680   -2.3740 H   0  0  0  0  0  0  0  0  0  0  0  0
    2.5270    1.0550   -1.2750 H   0  0  0  0  0  0  0  0  0  0  0  0
    1.4700    2.3590    0.3580 H   0  0  0  0  0  0  0  0  0  0  0  0
   -0.0120    2.5240   -0.6270 H   0  0  0  0  0  0  0  0  0  0  0  0
    0.5020    0.7060    1.4790 H   0  0  0  0  0  0  0  0  0  0  0  0
   -2.1360   -0.1790   -0.1430 N   0  0  0  0  0  0  0  0  0  0  0  0
   -3.5760   -0.0460   -0.1950 C   0  0  1  0  0  0  0  0  0  0  0  0
   -4.1790   -0.3090   -1.5300 C   0  0  0  0  0  0  0  0  0  0  0  0
   -3.7370    0.5510   -2.6230 C   0  0  0  0  0  0  0  0  0  0  0  0
   -4.1420    1.7370   -2.7360 O   0  0  0  0  0  0  0  0  0  0  0  0
   -4.1630   -1.0190    0.7660 C   0  0  0  0  0  0  0  0  0  0  0  0
   -5.4190   -1.1370    0.9140 O   0  0  0  0  0  0  0  0  0  0  0  0
   -2.8480    0.1110   -3.5960 O   0  0  0  0  0  0  0  0  0  0  0  0
   -3.3640   -1.8340    1.5390 O   0  0  0  0  0  0  0  0  0  0  0  0
   -1.6790   -1.0280   -0.5370 H   0  0  0  0  0  0  0  0  0  0  0  0
   -3.9030    0.9520    0.1790 H   0  0  0  0  0  0  0  0  0  0  0  0
   -5.2900   -0.1520   -1.3990 H   0  0  0  0  0  0  0  0  0  0  0  0
   -4.0900   -1.3710   -1.8350 H   0  0  0  0  0  0  0  0  0  0  0  0
   -2.3770    0.7480   -4.2310 H   0  0  0  0  0  0  0  0  0  0  0  0
  1 10  1  0  0  0  0
  2  1  1  0  0  0  0
  2  3  1  0  0  0  0
  2 12  1  1  0  0  0
  3  4  1  0  0  0  0
  3 13  1  0  0  0  0
  4 15  1  0  0  0  0
  4  5  1  0  0  0  0
  5 17  1  0  0  0  0
  6  5  1  0  0  0  0
  6  7  1  0  0  0  0
  6 19  1  0  0  0  0
  7 21  1  0  0  0  0
  8  2  1  0  0  0  0
  9  8  2  0  0  0  0
 11  1  1  0  0  0  0
 14  3  1  0  0  0  0
 16  4  1  0  0  0  0
 18  5  1  0  0  0  0
 20  6  1  0  0  0  0
 22  7  1  0  0  0  0
 23  8  1  0  0  0  0
 23 27  1  0  0  0  0
 24 25  1  0  0  0  0
 24 23  1  0  0  0  0
 25 33  1  0  0  0  0
 25 26  1  0  0  0  0
 26 34  1  0  0  0  0
 26 27  1  0  0  0  0
 27 36  1  1  0  0  0
 28 27  1  0  0  0  0
 28 29  2  0  0  0  0
 30 24  1  0  0  0  0
 31 24  1  0  0  0  0
 32 25  1  0  0  0  0
 35 26  1  0  0  0  0
 37 28  1  0  0  0  0
 38 37  1  0  0  0  0
 38 47  1  1  0  0  0
 38 42  1  0  0  0  0
 39 48  1  0  0  0  0
 39 38  1  0  0  0  0
 40 39  1  0  0  0  0
 41 40  2  0  0  0  0
 42 43  2  0  0  0  0
 42 45  1  0  0  0  0
 44 40  1  0  0  0  0
 46 37  1  0  0  0  0
 49 39  1  0  0  0  0
 50 44  1  0  0  0  0
M  END
$$$$
