KPH.pdb
 OpenBabel07022418523D

 54 55  0  0  1  0  0  0  0  0999 V2000
    2.3590   -0.3840    3.6190 N   0  0  0  0  0  0  0  0  0  0  0  0
    2.0460    0.5120    2.5260 C   0  0  1  0  0  0  0  0  0  0  0  0
    3.0410    0.3380    1.4120 C   0  0  0  0  0  0  0  0  0  0  0  0
    4.4550    0.6140    1.7740 C   0  0  0  0  0  0  0  0  0  0  0  0
    5.0570   -0.2350    2.8340 C   0  0  0  0  0  0  0  0  0  0  0  0
    5.0860   -1.7110    2.4940 C   0  0  0  0  0  0  0  0  0  0  0  0
    5.8790   -1.8980    1.2760 N   0  0  0  0  0  0  0  0  0  0  0  0
    0.6870    0.1340    2.0210 C   0  0  0  0  0  0  0  0  0  0  0  0
    0.1200   -0.8830    2.5020 O   0  0  0  0  0  0  0  0  0  0  0  0
    1.9470    0.0370    4.4830 H   0  0  0  0  0  0  0  0  0  0  0  0
    1.8720   -1.2890    3.4410 H   0  0  0  0  0  0  0  0  0  0  0  0
    2.0170    1.5660    2.8850 H   0  0  0  0  0  0  0  0  0  0  0  0
    2.7800    1.0240    0.5720 H   0  0  0  0  0  0  0  0  0  0  0  0
    2.9290   -0.6860    0.9590 H   0  0  0  0  0  0  0  0  0  0  0  0
    5.0700    0.4950    0.8490 H   0  0  0  0  0  0  0  0  0  0  0  0
    4.5380    1.6720    2.1020 H   0  0  0  0  0  0  0  0  0  0  0  0
    4.6800   -0.1060    3.8470 H   0  0  0  0  0  0  0  0  0  0  0  0
    6.1510    0.0590    2.8860 H   0  0  0  0  0  0  0  0  0  0  0  0
    5.6030   -2.2230    3.3310 H   0  0  0  0  0  0  0  0  0  0  0  0
    4.0910   -2.1630    2.3930 H   0  0  0  0  0  0  0  0  0  0  0  0
    5.3160   -1.6630    0.4280 H   0  0  0  0  0  0  0  0  0  0  0  0
    6.7250   -1.3090    1.3090 H   0  0  0  0  0  0  0  0  0  0  0  0
    0.0390    0.9050    1.0150 N   0  0  0  0  0  0  0  0  0  0  0  0
    0.4900    2.1010    0.3340 C   0  0  0  0  0  0  0  0  0  0  0  0
   -0.8450    2.8350    0.1230 C   0  0  0  0  0  0  0  0  0  0  0  0
   -1.6830    1.6770   -0.4220 C   0  0  0  0  0  0  0  0  0  0  0  0
   -1.2760    0.5650    0.4880 C   0  0  1  0  0  0  0  0  0  0  0  0
   -1.1760   -0.7400   -0.1760 C   0  0  0  0  0  0  0  0  0  0  0  0
   -0.0810   -1.3760   -0.2240 O   0  0  0  0  0  0  0  0  0  0  0  0
    1.1520    2.7130    0.9810 H   0  0  0  0  0  0  0  0  0  0  0  0
    0.9210    1.8720   -0.6620 H   0  0  0  0  0  0  0  0  0  0  0  0
   -1.1840    3.1480    1.1160 H   0  0  0  0  0  0  0  0  0  0  0  0
   -0.7450    3.6500   -0.5940 H   0  0  0  0  0  0  0  0  0  0  0  0
   -1.3320    1.4850   -1.4440 H   0  0  0  0  0  0  0  0  0  0  0  0
   -2.7350    1.9760   -0.3480 H   0  0  0  0  0  0  0  0  0  0  0  0
   -1.9530    0.5480    1.3780 H   0  0  0  0  0  0  0  0  0  0  0  0
   -2.2780   -1.3880   -0.8100 N   0  0  0  0  0  0  0  0  0  0  0  0
   -2.2170   -2.6590   -1.4670 C   0  0  1  0  0  0  0  0  0  0  0  0
   -3.1290   -3.6190   -0.7300 C   0  0  0  0  0  0  0  0  0  0  0  0
   -4.5100   -3.0640   -0.7770 C   0  0  0  0  0  0  0  0  0  0  0  0
   -5.0940   -2.2110    0.1350 C   0  0  0  0  0  0  0  0  0  0  0  0
   -6.3470   -1.9410   -0.2590 N   0  0  0  0  0  0  0  0  0  0  0  0
   -6.5410   -2.6190   -1.4050 C   0  0  0  0  0  0  0  0  0  0  0  0
   -5.4300   -3.3060   -1.7290 N   0  0  0  0  0  0  0  0  0  0  0  0
   -2.6450   -2.6260   -2.8690 C   0  0  0  0  0  0  0  0  0  0  0  0
   -2.6220   -3.7020   -3.5200 O   0  0  0  0  0  0  0  0  0  0  0  0
   -3.0780   -1.4930   -3.5450 O   0  0  0  0  0  0  0  0  0  0  0  0
   -3.1860   -0.8780   -0.7800 H   0  0  0  0  0  0  0  0  0  0  0  0
   -1.2020   -3.1130   -1.4390 H   0  0  0  0  0  0  0  0  0  0  0  0
   -2.8010   -3.7430    0.3120 H   0  0  0  0  0  0  0  0  0  0  0  0
   -3.1180   -4.6110   -1.2540 H   0  0  0  0  0  0  0  0  0  0  0  0
   -4.5990   -1.8400    1.0120 H   0  0  0  0  0  0  0  0  0  0  0  0
   -7.0260   -1.3230    0.2390 H   0  0  0  0  0  0  0  0  0  0  0  0
   -7.4350   -2.6230   -1.9830 H   0  0  0  0  0  0  0  0  0  0  0  0
  1 10  1  0  0  0  0
  2 12  1  1  0  0  0
  2  1  1  0  0  0  0
  3  4  1  0  0  0  0
  3  2  1  0  0  0  0
  4 16  1  0  0  0  0
  4  5  1  0  0  0  0
  5 18  1  0  0  0  0
  5 17  1  0  0  0  0
  6  5  1  0  0  0  0
  6 19  1  0  0  0  0
  7 22  1  0  0  0  0
  7  6  1  0  0  0  0
  8  9  2  0  0  0  0
  8  2  1  0  0  0  0
 11  1  1  0  0  0  0
 13  3  1  0  0  0  0
 14  3  1  0  0  0  0
 15  4  1  0  0  0  0
 20  6  1  0  0  0  0
 21  7  1  0  0  0  0
 23  8  1  0  0  0  0
 24 30  1  0  0  0  0
 24 23  1  0  0  0  0
 25 24  1  0  0  0  0
 25 32  1  0  0  0  0
 26 35  1  0  0  0  0
 26 25  1  0  0  0  0
 26 27  1  0  0  0  0
 27 23  1  0  0  0  0
 27 36  1  1  0  0  0
 28 27  1  0  0  0  0
 29 28  2  0  0  0  0
 31 24  1  0  0  0  0
 33 25  1  0  0  0  0
 34 26  1  0  0  0  0
 37 48  1  0  0  0  0
 37 28  1  0  0  0  0
 38 49  1  1  0  0  0
 38 37  1  0  0  0  0
 38 39  1  0  0  0  0
 39 50  1  0  0  0  0
 40 39  1  0  0  0  0
 40 41  2  0  0  0  0
 41 52  1  0  0  0  0
 42 41  1  0  0  0  0
 42 53  1  0  0  0  0
 43 42  1  0  0  0  0
 44 43  2  0  0  0  0
 44 40  1  0  0  0  0
 45 38  1  0  0  0  0
 46 45  1  0  0  0  0
 47 45  2  0  0  0  0
 51 39  1  0  0  0  0
 54 43  1  0  0  0  0
M  END
$$$$
