KPI.pdb
 OpenBabel07022418523D

 56 56  0  0  1  0  0  0  0  0999 V2000
   -1.4100    2.1780    0.6340 N   0  0  0  0  0  0  0  0  0  0  0  0
   -0.3520    1.2310    1.0470 C   0  0  1  0  0  0  0  0  0  0  0  0
    0.8550    2.0620    1.4690 C   0  0  0  0  0  0  0  0  0  0  0  0
    1.3030    2.9500    0.3280 C   0  0  0  0  0  0  0  0  0  0  0  0
    1.7160    2.2570   -0.9110 C   0  0  0  0  0  0  0  0  0  0  0  0
    2.8770    1.3290   -0.8290 C   0  0  0  0  0  0  0  0  0  0  0  0
    2.7610    0.2230    0.0550 N   0  0  0  0  0  0  0  0  0  0  0  0
   -0.9090    0.4160    2.1510 C   0  0  0  0  0  0  0  0  0  0  0  0
   -2.0080    0.8810    2.6410 O   0  0  0  0  0  0  0  0  0  0  0  0
   -1.3510    2.3300   -0.4090 H   0  0  0  0  0  0  0  0  0  0  0  0
   -1.3920    3.0570    1.1790 H   0  0  0  0  0  0  0  0  0  0  0  0
   -0.1470    0.6150    0.1870 H   0  0  0  0  0  0  0  0  0  0  0  0
    1.6050    1.3650    1.8370 H   0  0  0  0  0  0  0  0  0  0  0  0
    0.5250    2.7110    2.2970 H   0  0  0  0  0  0  0  0  0  0  0  0
    0.4560    3.6600    0.1020 H   0  0  0  0  0  0  0  0  0  0  0  0
    2.1290    3.5750    0.7050 H   0  0  0  0  0  0  0  0  0  0  0  0
    0.9060    1.7070   -1.4470 H   0  0  0  0  0  0  0  0  0  0  0  0
    1.9920    3.0730   -1.6500 H   0  0  0  0  0  0  0  0  0  0  0  0
    3.8330    1.8630   -0.6470 H   0  0  0  0  0  0  0  0  0  0  0  0
    3.0600    0.8660   -1.8620 H   0  0  0  0  0  0  0  0  0  0  0  0
    2.6140   -0.6990   -0.4450 H   0  0  0  0  0  0  0  0  0  0  0  0
    3.4870    0.1520    0.8070 H   0  0  0  0  0  0  0  0  0  0  0  0
   -0.3920   -0.7700    2.7090 N   0  0  0  0  0  0  0  0  0  0  0  0
   -1.1010   -1.3930    3.8650 C   0  0  0  0  0  0  0  0  0  0  0  0
    0.0690   -1.9090    4.6870 C   0  0  0  0  0  0  0  0  0  0  0  0
    0.8920   -2.5410    3.5860 C   0  0  0  0  0  0  0  0  0  0  0  0
    0.7030   -1.6040    2.4370 C   0  0  1  0  0  0  0  0  0  0  0  0
    0.5720   -2.4540    1.1980 C   0  0  0  0  0  0  0  0  0  0  0  0
    1.3940   -3.3880    1.0730 O   0  0  0  0  0  0  0  0  0  0  0  0
   -1.6560   -0.6500    4.4510 H   0  0  0  0  0  0  0  0  0  0  0  0
   -1.6980   -2.2600    3.5400 H   0  0  0  0  0  0  0  0  0  0  0  0
   -0.2520   -2.6210    5.4650 H   0  0  0  0  0  0  0  0  0  0  0  0
    0.6680   -1.0550    5.0940 H   0  0  0  0  0  0  0  0  0  0  0  0
    0.4620   -3.5560    3.3810 H   0  0  0  0  0  0  0  0  0  0  0  0
    1.9640   -2.6140    3.8810 H   0  0  0  0  0  0  0  0  0  0  0  0
    1.6540   -1.0200    2.2960 H   0  0  0  0  0  0  0  0  0  0  0  0
   -3.7360   -2.3740   -1.3020 C   0  0  0  0  0  0  0  0  0  0  0  0
   -2.6440   -1.3820   -1.4590 C   0  0  0  0  0  0  0  0  0  0  0  0
   -1.3360   -1.9300   -1.9660 C   0  0  2  0  0  0  0  0  0  0  0  0
   -1.5650   -2.5120   -3.3220 C   0  0  0  0  0  0  0  0  0  0  0  0
   -0.6760   -2.8810   -0.9920 C   0  0  2  0  0  0  0  0  0  0  0  0
   -0.4020   -2.2160    0.2370 N   0  0  0  0  0  0  0  0  0  0  0  0
    0.4560   -3.5600   -1.6640 C   0  0  0  0  0  0  0  0  0  0  0  0
    0.1180   -4.1600   -2.7610 O   0  0  0  0  0  0  0  0  0  0  0  0
    1.7680   -3.6610   -1.3370 O   0  0  0  0  0  0  0  0  0  0  0  0
   -4.3050   -2.3100   -0.3510 H   0  0  0  0  0  0  0  0  0  0  0  0
   -3.4220   -3.4400   -1.4860 H   0  0  0  0  0  0  0  0  0  0  0  0
   -4.5190   -2.2030   -2.0910 H   0  0  0  0  0  0  0  0  0  0  0  0
   -2.9600   -0.6520   -2.3140 H   0  0  0  0  0  0  0  0  0  0  0  0
   -2.5260   -0.7090   -0.6100 H   0  0  0  0  0  0  0  0  0  0  0  0
   -0.6910   -1.0020   -2.0960 H   0  0  0  0  0  0  0  0  0  0  0  0
   -0.6770   -2.4570   -3.9770 H   0  0  0  0  0  0  0  0  0  0  0  0
   -2.0640   -3.5080   -3.3290 H   0  0  0  0  0  0  0  0  0  0  0  0
   -2.2810   -1.7650   -3.8280 H   0  0  0  0  0  0  0  0  0  0  0  0
   -1.4130   -3.7280   -0.7940 H   0  0  0  0  0  0  0  0  0  0  0  0
   -1.1120   -1.3990    0.4960 H   0  0  0  0  0  0  0  0  0  0  0  0
  1  2  1  0  0  0  0
  1 11  1  0  0  0  0
  2 12  1  6  0  0  0
  2  3  1  0  0  0  0
  2  8  1  0  0  0  0
  3 13  1  0  0  0  0
  3 14  1  0  0  0  0
  4 16  1  0  0  0  0
  4  3  1  0  0  0  0
  5  6  1  0  0  0  0
  5  4  1  0  0  0  0
  6 19  1  0  0  0  0
  6  7  1  0  0  0  0
  7 22  1  0  0  0  0
  8  9  2  0  0  0  0
  8 23  1  0  0  0  0
 10  1  1  0  0  0  0
 15  4  1  0  0  0  0
 17  5  1  0  0  0  0
 18  5  1  0  0  0  0
 20  6  1  0  0  0  0
 21  7  1  0  0  0  0
 23 24  1  0  0  0  0
 24 30  1  0  0  0  0
 24 25  1  0  0  0  0
 25 33  1  0  0  0  0
 25 32  1  0  0  0  0
 26 35  1  0  0  0  0
 26 25  1  0  0  0  0
 27 36  1  6  0  0  0
 27 23  1  0  0  0  0
 27 26  1  0  0  0  0
 28 27  1  0  0  0  0
 29 28  2  0  0  0  0
 31 24  1  0  0  0  0
 34 26  1  0  0  0  0
 37 46  1  0  0  0  0
 38 37  1  0  0  0  0
 38 50  1  0  0  0  0
 39 51  1  6  0  0  0
 39 38  1  0  0  0  0
 39 41  1  0  0  0  0
 40 39  1  0  0  0  0
 41 55  1  1  0  0  0
 41 42  1  0  0  0  0
 42 56  1  0  0  0  0
 42 28  1  0  0  0  0
 43 45  1  0  0  0  0
 43 41  1  0  0  0  0
 44 43  2  0  0  0  0
 47 37  1  0  0  0  0
 48 37  1  0  0  0  0
 49 38  1  0  0  0  0
 52 40  1  0  0  0  0
 53 40  1  0  0  0  0
 54 40  1  0  0  0  0
M  END
$$$$
