KPN.pdb
 OpenBabel07022418523D

 51 51  0  0  1  0  0  0  0  0999 V2000
    0.1820   -1.1640    2.0860 N   0  0  0  0  0  0  0  0  0  0  0  0
    1.4500   -1.4650    1.4410 C   0  0  1  0  0  0  0  0  0  0  0  0
    1.2950   -2.7610    0.7090 C   0  0  0  0  0  0  0  0  0  0  0  0
    2.5120   -3.2390   -0.0090 C   0  0  0  0  0  0  0  0  0  0  0  0
    3.6900   -3.4720    0.9180 C   0  0  0  0  0  0  0  0  0  0  0  0
    4.8890   -3.9460    0.1520 C   0  0  0  0  0  0  0  0  0  0  0  0
    6.0340   -4.1830    0.9790 N   0  0  0  0  0  0  0  0  0  0  0  0
    1.9130   -0.4070    0.5380 C   0  0  0  0  0  0  0  0  0  0  0  0
    3.0410   -0.5690   -0.0560 O   0  0  0  0  0  0  0  0  0  0  0  0
   -0.5340   -1.9070    1.9260 H   0  0  0  0  0  0  0  0  0  0  0  0
    0.2650   -1.0440    3.1180 H   0  0  0  0  0  0  0  0  0  0  0  0
    2.1950   -1.5450    2.2680 H   0  0  0  0  0  0  0  0  0  0  0  0
    0.4900   -2.6540   -0.0470 H   0  0  0  0  0  0  0  0  0  0  0  0
    0.9890   -3.5680    1.4130 H   0  0  0  0  0  0  0  0  0  0  0  0
    2.7790   -2.6720   -0.9180 H   0  0  0  0  0  0  0  0  0  0  0  0
    2.2420   -4.2750   -0.3950 H   0  0  0  0  0  0  0  0  0  0  0  0
    3.9700   -2.5900    1.5110 H   0  0  0  0  0  0  0  0  0  0  0  0
    3.4090   -4.2560    1.6820 H   0  0  0  0  0  0  0  0  0  0  0  0
    5.1680   -3.2260   -0.6260 H   0  0  0  0  0  0  0  0  0  0  0  0
    4.6400   -4.9270   -0.3410 H   0  0  0  0  0  0  0  0  0  0  0  0
    5.8210   -4.1250    1.9990 H   0  0  0  0  0  0  0  0  0  0  0  0
    6.8220   -3.5100    0.7860 H   0  0  0  0  0  0  0  0  0  0  0  0
    1.1980    0.7880    0.2750 N   0  0  0  0  0  0  0  0  0  0  0  0
    1.6930    1.8320   -0.6370 C   0  0  0  0  0  0  0  0  0  0  0  0
    0.4250    2.5790   -0.9700 C   0  0  0  0  0  0  0  0  0  0  0  0
   -0.2140    2.6560    0.4180 C   0  0  0  0  0  0  0  0  0  0  0  0
   -0.0640    1.1710    0.8290 C   0  0  1  0  0  0  0  0  0  0  0  0
   -1.1790    0.3900    0.1960 C   0  0  0  0  0  0  0  0  0  0  0  0
   -0.9000   -0.4000   -0.7400 O   0  0  0  0  0  0  0  0  0  0  0  0
    2.4360    2.4730   -0.1420 H   0  0  0  0  0  0  0  0  0  0  0  0
    2.1350    1.3810   -1.5480 H   0  0  0  0  0  0  0  0  0  0  0  0
    0.6080    3.5770   -1.3900 H   0  0  0  0  0  0  0  0  0  0  0  0
   -0.2060    1.9380   -1.6170 H   0  0  0  0  0  0  0  0  0  0  0  0
    0.4420    3.2270    1.0760 H   0  0  0  0  0  0  0  0  0  0  0  0
   -1.2590    2.9640    0.3910 H   0  0  0  0  0  0  0  0  0  0  0  0
   -0.0670    1.1260    1.9270 H   0  0  0  0  0  0  0  0  0  0  0  0
   -4.8260    0.7440    2.3920 N   0  0  0  0  0  0  0  0  0  0  0  0
   -4.7860   -0.6250    2.1100 C   0  0  0  0  0  0  0  0  0  0  0  0
   -5.3250   -1.4100    2.9510 O   0  0  0  0  0  0  0  0  0  0  0  0
   -4.1770   -1.2570    0.9290 C   0  0  0  0  0  0  0  0  0  0  0  0
   -3.5580   -0.2570   -0.0200 C   0  0  2  0  0  0  0  0  0  0  0  0
   -2.5120    0.5140    0.6150 N   0  0  0  0  0  0  0  0  0  0  0  0
   -4.5550    0.5740   -0.6990 C   0  0  0  0  0  0  0  0  0  0  0  0
   -5.5130    0.0150   -1.2860 O   0  0  0  0  0  0  0  0  0  0  0  0
   -4.5170    1.9580   -0.7410 O   0  0  0  0  0  0  0  0  0  0  0  0
   -5.3930    1.3900    1.8010 H   0  0  0  0  0  0  0  0  0  0  0  0
   -4.3050    1.2000    3.1920 H   0  0  0  0  0  0  0  0  0  0  0  0
   -4.9340   -1.8160    0.3670 H   0  0  0  0  0  0  0  0  0  0  0  0
   -3.3960   -1.9620    1.2450 H   0  0  0  0  0  0  0  0  0  0  0  0
   -3.0710   -0.8750   -0.8100 H   0  0  0  0  0  0  0  0  0  0  0  0
   -2.7050    1.1870    1.4030 H   0  0  0  0  0  0  0  0  0  0  0  0
  1 11  1  0  0  0  0
  2  1  1  0  0  0  0
  2 12  1  1  0  0  0
  3 14  1  0  0  0  0
  3  2  1  0  0  0  0
  4  3  1  0  0  0  0
  4  5  1  0  0  0  0
  5 17  1  0  0  0  0
  5 18  1  0  0  0  0
  6  5  1  0  0  0  0
  6  7  1  0  0  0  0
  7 21  1  0  0  0  0
  8  2  1  0  0  0  0
  9  8  2  0  0  0  0
 10  1  1  0  0  0  0
 13  3  1  0  0  0  0
 15  4  1  0  0  0  0
 16  4  1  0  0  0  0
 19  6  1  0  0  0  0
 20  6  1  0  0  0  0
 22  7  1  0  0  0  0
 23  8  1  0  0  0  0
 23 27  1  0  0  0  0
 24 30  1  0  0  0  0
 24 23  1  0  0  0  0
 25 24  1  0  0  0  0
 25 26  1  0  0  0  0
 26 27  1  0  0  0  0
 26 34  1  0  0  0  0
 27 36  1  1  0  0  0
 28 42  1  0  0  0  0
 28 27  1  0  0  0  0
 29 28  2  0  0  0  0
 31 24  1  0  0  0  0
 32 25  1  0  0  0  0
 33 25  1  0  0  0  0
 35 26  1  0  0  0  0
 37 47  1  0  0  0  0
 38 37  1  0  0  0  0
 38 39  2  0  0  0  0
 40 49  1  0  0  0  0
 40 38  1  0  0  0  0
 41 50  1  6  0  0  0
 41 42  1  0  0  0  0
 41 40  1  0  0  0  0
 42 51  1  0  0  0  0
 43 41  1  0  0  0  0
 44 43  2  0  0  0  0
 45 43  1  0  0  0  0
 46 37  1  0  0  0  0
 48 40  1  0  0  0  0
M  END
$$$$
