KPP.pdb
 OpenBabel07022418523D

 51 52  0  0  1  0  0  0  0  0999 V2000
    1.1780   -2.7970    3.3340 N   0  0  0  0  0  0  0  0  0  0  0  0
    1.3060   -1.5350    2.5870 C   0  0  1  0  0  0  0  0  0  0  0  0
    2.3510   -1.7290    1.4980 C   0  0  0  0  0  0  0  0  0  0  0  0
    3.6900   -2.0870    2.0580 C   0  0  0  0  0  0  0  0  0  0  0  0
    4.6390   -2.2520    0.8710 C   0  0  0  0  0  0  0  0  0  0  0  0
    6.0090   -2.6180    1.4450 C   0  0  0  0  0  0  0  0  0  0  0  0
    5.8080   -3.8640    2.1780 N   0  0  0  0  0  0  0  0  0  0  0  0
   -0.0010   -1.1750    2.0390 C   0  0  0  0  0  0  0  0  0  0  0  0
   -0.8810   -2.0370    1.8800 O   0  0  0  0  0  0  0  0  0  0  0  0
    2.0790   -2.8620    3.8890 H   0  0  0  0  0  0  0  0  0  0  0  0
    0.4350   -2.5990    4.0590 H   0  0  0  0  0  0  0  0  0  0  0  0
    1.6390   -0.7730    3.2990 H   0  0  0  0  0  0  0  0  0  0  0  0
    2.4310   -0.8090    0.9100 H   0  0  0  0  0  0  0  0  0  0  0  0
    2.0270   -2.6030    0.8790 H   0  0  0  0  0  0  0  0  0  0  0  0
    4.0970   -1.3550    2.7750 H   0  0  0  0  0  0  0  0  0  0  0  0
    3.5950   -3.1100    2.5110 H   0  0  0  0  0  0  0  0  0  0  0  0
    4.2740   -3.0350    0.1830 H   0  0  0  0  0  0  0  0  0  0  0  0
    4.7620   -1.3250    0.2980 H   0  0  0  0  0  0  0  0  0  0  0  0
    6.3790   -1.8040    2.0750 H   0  0  0  0  0  0  0  0  0  0  0  0
    6.7460   -2.7640    0.6300 H   0  0  0  0  0  0  0  0  0  0  0  0
    6.7240   -4.3830    2.1030 H   0  0  0  0  0  0  0  0  0  0  0  0
    5.1300   -4.4270    1.6130 H   0  0  0  0  0  0  0  0  0  0  0  0
   -0.2940    0.1800    1.6750 N   0  0  0  0  0  0  0  0  0  0  0  0
    0.6060    1.2850    1.8790 C   0  0  0  0  0  0  0  0  0  0  0  0
    0.2890    2.1480    0.6730 C   0  0  0  0  0  0  0  0  0  0  0  0
   -1.2460    2.0530    0.6190 C   0  0  0  0  0  0  0  0  0  0  0  0
   -1.5030    0.6650    1.0610 C   0  0  1  0  0  0  0  0  0  0  0  0
   -1.9530   -0.1990   -0.0710 C   0  0  0  0  0  0  0  0  0  0  0  0
   -1.1920   -1.0820   -0.4790 O   0  0  0  0  0  0  0  0  0  0  0  0
    0.1740    1.8340    2.7800 H   0  0  0  0  0  0  0  0  0  0  0  0
    1.6490    1.0490    2.0210 H   0  0  0  0  0  0  0  0  0  0  0  0
    0.6190    3.1820    0.8350 H   0  0  0  0  0  0  0  0  0  0  0  0
    0.7540    1.7360   -0.2300 H   0  0  0  0  0  0  0  0  0  0  0  0
   -1.5760    2.2660   -0.4390 H   0  0  0  0  0  0  0  0  0  0  0  0
   -1.6980    2.8320    1.2580 H   0  0  0  0  0  0  0  0  0  0  0  0
   -2.3450    0.7040    1.8090 H   0  0  0  0  0  0  0  0  0  0  0  0
   -3.2500    0.0530   -0.6170 N   0  0  0  0  0  0  0  0  0  0  0  0
   -4.1440    1.0500   -0.1700 C   0  0  0  0  0  0  0  0  0  0  0  0
   -5.4990    0.5500   -0.6830 C   0  0  0  0  0  0  0  0  0  0  0  0
   -5.1120   -0.0780   -2.0250 C   0  0  0  0  0  0  0  0  0  0  0  0
   -3.7890   -0.6970   -1.6940 C   0  0  1  0  0  0  0  0  0  0  0  0
   -2.8840   -0.7260   -2.8790 C   0  0  0  0  0  0  0  0  0  0  0  0
   -1.7930   -0.1330   -2.8590 O   0  0  0  0  0  0  0  0  0  0  0  0
   -3.2750   -1.4210   -3.9980 O   0  0  0  0  0  0  0  0  0  0  0  0
   -3.9500    2.0800   -0.5350 H   0  0  0  0  0  0  0  0  0  0  0  0
   -4.1670    1.0370    0.9600 H   0  0  0  0  0  0  0  0  0  0  0  0
   -6.1500    1.4310   -0.8370 H   0  0  0  0  0  0  0  0  0  0  0  0
   -5.8880   -0.1930    0.0140 H   0  0  0  0  0  0  0  0  0  0  0  0
   -5.8650   -0.8080   -2.3670 H   0  0  0  0  0  0  0  0  0  0  0  0
   -4.9570    0.7440   -2.7610 H   0  0  0  0  0  0  0  0  0  0  0  0
   -4.0010   -1.7580   -1.3570 H   0  0  0  0  0  0  0  0  0  0  0  0
  1 10  1  0  0  0  0
  1 11  1  0  0  0  0
  2 12  1  1  0  0  0
  2  1  1  0  0  0  0
  3  4  1  0  0  0  0
  3  2  1  0  0  0  0
  4 16  1  0  0  0  0
  4 15  1  0  0  0  0
  5  6  1  0  0  0  0
  5  4  1  0  0  0  0
  6 19  1  0  0  0  0
  6  7  1  0  0  0  0
  8  2  1  0  0  0  0
  9  8  2  0  0  0  0
 13  3  1  0  0  0  0
 14  3  1  0  0  0  0
 17  5  1  0  0  0  0
 18  5  1  0  0  0  0
 20  6  1  0  0  0  0
 21  7  1  0  0  0  0
 22  7  1  0  0  0  0
 23 24  1  0  0  0  0
 23  8  1  0  0  0  0
 24 31  1  0  0  0  0
 24 30  1  0  0  0  0
 25 32  1  0  0  0  0
 25 24  1  0  0  0  0
 26 25  1  0  0  0  0
 26 27  1  0  0  0  0
 26 35  1  0  0  0  0
 27 23  1  0  0  0  0
 27 36  1  1  0  0  0
 28 27  1  0  0  0  0
 29 28  2  0  0  0  0
 33 25  1  0  0  0  0
 34 26  1  0  0  0  0
 37 38  1  0  0  0  0
 37 28  1  0  0  0  0
 38 46  1  0  0  0  0
 39 38  1  0  0  0  0
 39 48  1  0  0  0  0
 40 41  1  0  0  0  0
 40 39  1  0  0  0  0
 41 51  1  1  0  0  0
 41 37  1  0  0  0  0
 42 43  1  0  0  0  0
 42 41  1  0  0  0  0
 44 42  2  0  0  0  0
 45 38  1  0  0  0  0
 47 39  1  0  0  0  0
 49 40  1  0  0  0  0
 50 40  1  0  0  0  0
M  END
$$$$
