KPQ.pdb
 OpenBabel07022418523D

 54 54  0  0  1  0  0  0  0  0999 V2000
    0.1670   -1.3510    1.8220 N   0  0  0  0  0  0  0  0  0  0  0  0
    1.5710   -1.0670    1.8090 C   0  0  1  0  0  0  0  0  0  0  0  0
    2.1640   -1.9270    0.7430 C   0  0  0  0  0  0  0  0  0  0  0  0
    3.6250   -1.8420    0.5280 C   0  0  0  0  0  0  0  0  0  0  0  0
    4.3740   -2.2350    1.7790 C   0  0  0  0  0  0  0  0  0  0  0  0
    5.8740   -2.1530    1.5870 C   0  0  0  0  0  0  0  0  0  0  0  0
    6.4640   -2.5590    2.8730 N   0  0  0  0  0  0  0  0  0  0  0  0
    1.8820    0.3540    1.5480 C   0  0  0  0  0  0  0  0  0  0  0  0
    3.1040    0.7550    1.5150 O   0  0  0  0  0  0  0  0  0  0  0  0
   -0.1610   -1.9660    1.0650 H   0  0  0  0  0  0  0  0  0  0  0  0
   -0.2300   -1.5420    2.7530 H   0  0  0  0  0  0  0  0  0  0  0  0
    1.9480   -1.3450    2.8390 H   0  0  0  0  0  0  0  0  0  0  0  0
    1.6300   -1.6510   -0.2150 H   0  0  0  0  0  0  0  0  0  0  0  0
    1.8120   -2.9830    0.9370 H   0  0  0  0  0  0  0  0  0  0  0  0
    3.8800   -2.6430   -0.2440 H   0  0  0  0  0  0  0  0  0  0  0  0
    3.9790   -0.8690    0.1800 H   0  0  0  0  0  0  0  0  0  0  0  0
    4.1670   -3.2950    2.0500 H   0  0  0  0  0  0  0  0  0  0  0  0
    4.1050   -1.5320    2.5790 H   0  0  0  0  0  0  0  0  0  0  0  0
    6.1330   -1.1040    1.4010 H   0  0  0  0  0  0  0  0  0  0  0  0
    6.2290   -2.8360    0.8000 H   0  0  0  0  0  0  0  0  0  0  0  0
    7.4440   -2.2010    2.9030 H   0  0  0  0  0  0  0  0  0  0  0  0
    5.9400   -2.0580    3.6240 H   0  0  0  0  0  0  0  0  0  0  0  0
    0.9400    1.3870    1.3180 N   0  0  0  0  0  0  0  0  0  0  0  0
    1.2070    2.7970    1.0470 C   0  0  0  0  0  0  0  0  0  0  0  0
    0.1370    3.4240    1.9510 C   0  0  0  0  0  0  0  0  0  0  0  0
   -1.0720    2.6460    1.4830 C   0  0  0  0  0  0  0  0  0  0  0  0
   -0.4910    1.2480    1.3120 C   0  0  1  0  0  0  0  0  0  0  0  0
   -0.9970    0.6090    0.0790 C   0  0  0  0  0  0  0  0  0  0  0  0
   -0.1960    0.2940   -0.8280 O   0  0  0  0  0  0  0  0  0  0  0  0
    0.9030    3.0330    0.0090 H   0  0  0  0  0  0  0  0  0  0  0  0
    2.2150    3.1070    1.3160 H   0  0  0  0  0  0  0  0  0  0  0  0
    0.0520    4.5070    1.7840 H   0  0  0  0  0  0  0  0  0  0  0  0
    0.3830    3.1280    2.9730 H   0  0  0  0  0  0  0  0  0  0  0  0
   -1.4750    3.0340    0.5270 H   0  0  0  0  0  0  0  0  0  0  0  0
   -1.8290    2.6870    2.2860 H   0  0  0  0  0  0  0  0  0  0  0  0
   -0.7910    0.7160    2.2500 H   0  0  0  0  0  0  0  0  0  0  0  0
   -5.5350   -4.4890   -1.9410 N   0  0  0  0  0  0  0  0  0  0  0  0
   -4.8440   -3.5870   -1.1130 C   0  0  0  0  0  0  0  0  0  0  0  0
   -4.7220   -3.8260    0.0980 O   0  0  0  0  0  0  0  0  0  0  0  0
   -4.2780   -2.3540   -1.7660 C   0  0  0  0  0  0  0  0  0  0  0  0
   -3.5900   -1.5420   -0.7100 C   0  0  0  0  0  0  0  0  0  0  0  0
   -2.9640   -0.2620   -1.2370 C   0  0  2  0  0  0  0  0  0  0  0  0
   -2.3590    0.3600   -0.0680 N   0  0  0  0  0  0  0  0  0  0  0  0
   -3.9570    0.6810   -1.7660 C   0  0  0  0  0  0  0  0  0  0  0  0
   -4.1510    1.7720   -1.2060 O   0  0  0  0  0  0  0  0  0  0  0  0
   -4.6830    0.3640   -2.8910 O   0  0  0  0  0  0  0  0  0  0  0  0
   -6.4110   -4.9320   -1.5710 H   0  0  0  0  0  0  0  0  0  0  0  0
   -5.1660   -4.7020   -2.9070 H   0  0  0  0  0  0  0  0  0  0  0  0
   -3.5430   -2.6580   -2.5340 H   0  0  0  0  0  0  0  0  0  0  0  0
   -5.1210   -1.8000   -2.1780 H   0  0  0  0  0  0  0  0  0  0  0  0
   -2.7390   -2.1160   -0.2460 H   0  0  0  0  0  0  0  0  0  0  0  0
   -4.2530   -1.2790    0.1300 H   0  0  0  0  0  0  0  0  0  0  0  0
   -2.1910   -0.5140   -2.0010 H   0  0  0  0  0  0  0  0  0  0  0  0
   -3.0100    0.6310    0.7010 H   0  0  0  0  0  0  0  0  0  0  0  0
  1 11  1  0  0  0  0
  2  1  1  0  0  0  0
  2 12  1  1  0  0  0
  3 14  1  0  0  0  0
  3  2  1  0  0  0  0
  4  3  1  0  0  0  0
  4  5  1  0  0  0  0
  5 17  1  0  0  0  0
  5 18  1  0  0  0  0
  6  5  1  0  0  0  0
  6  7  1  0  0  0  0
  7 21  1  0  0  0  0
  7 22  1  0  0  0  0
  8  2  1  0  0  0  0
  9  8  2  0  0  0  0
 10  1  1  0  0  0  0
 13  3  1  0  0  0  0
 15  4  1  0  0  0  0
 16  4  1  0  0  0  0
 19  6  1  0  0  0  0
 20  6  1  0  0  0  0
 23  8  1  0  0  0  0
 24 31  1  0  0  0  0
 24 23  1  0  0  0  0
 24 25  1  0  0  0  0
 25 33  1  0  0  0  0
 26 25  1  0  0  0  0
 26 35  1  0  0  0  0
 27 23  1  0  0  0  0
 27 26  1  0  0  0  0
 27 36  1  1  0  0  0
 28 27  1  0  0  0  0
 29 28  2  0  0  0  0
 30 24  1  0  0  0  0
 32 25  1  0  0  0  0
 34 26  1  0  0  0  0
 37 47  1  0  0  0  0
 37 38  1  0  0  0  0
 38 39  2  0  0  0  0
 40 38  1  0  0  0  0
 40 41  1  0  0  0  0
 41 51  1  0  0  0  0
 41 52  1  0  0  0  0
 42 53  1  6  0  0  0
 42 41  1  0  0  0  0
 42 43  1  0  0  0  0
 43 28  1  0  0  0  0
 43 54  1  0  0  0  0
 44 42  1  0  0  0  0
 44 45  1  0  0  0  0
 46 44  2  0  0  0  0
 48 37  1  0  0  0  0
 49 40  1  0  0  0  0
 50 40  1  0  0  0  0
M  END
$$$$
