KPW.pdb
 OpenBabel07022418523D

 61 63  0  0  1  0  0  0  0  0999 V2000
    0.4850   -2.1280    3.8510 N   0  0  0  0  0  0  0  0  0  0  0  0
    1.1450   -1.2270    2.9570 C   0  0  1  0  0  0  0  0  0  0  0  0
    2.4580   -1.8260    2.4900 C   0  0  0  0  0  0  0  0  0  0  0  0
    2.2760   -3.1180    1.7700 C   0  0  0  0  0  0  0  0  0  0  0  0
    3.6240   -3.6440    1.3320 C   0  0  0  0  0  0  0  0  0  0  0  0
    4.5540   -3.8830    2.4940 C   0  0  0  0  0  0  0  0  0  0  0  0
    4.0100   -4.8390    3.4170 N   0  0  0  0  0  0  0  0  0  0  0  0
    0.2700   -0.8440    1.8590 C   0  0  0  0  0  0  0  0  0  0  0  0
    0.7320   -0.0090    1.0140 O   0  0  0  0  0  0  0  0  0  0  0  0
    1.0690   -2.9790    4.0230 H   0  0  0  0  0  0  0  0  0  0  0  0
    0.2240   -1.6610    4.7530 H   0  0  0  0  0  0  0  0  0  0  0  0
    1.3790   -0.2930    3.5510 H   0  0  0  0  0  0  0  0  0  0  0  0
    2.9270   -1.0930    1.8120 H   0  0  0  0  0  0  0  0  0  0  0  0
    3.0960   -1.9260    3.3920 H   0  0  0  0  0  0  0  0  0  0  0  0
    1.6950   -2.9600    0.8150 H   0  0  0  0  0  0  0  0  0  0  0  0
    1.7640   -3.9050    2.3490 H   0  0  0  0  0  0  0  0  0  0  0  0
    4.0800   -2.9830    0.5670 H   0  0  0  0  0  0  0  0  0  0  0  0
    3.4510   -4.6230    0.8130 H   0  0  0  0  0  0  0  0  0  0  0  0
    4.7900   -2.9600    3.0180 H   0  0  0  0  0  0  0  0  0  0  0  0
    5.5110   -4.3130    2.1140 H   0  0  0  0  0  0  0  0  0  0  0  0
    4.7470   -5.4130    3.8720 H   0  0  0  0  0  0  0  0  0  0  0  0
    3.3140   -5.4690    2.9890 H   0  0  0  0  0  0  0  0  0  0  0  0
   -1.0270   -1.3550    1.7140 N   0  0  0  0  0  0  0  0  0  0  0  0
   -1.6650   -2.3120    2.5850 C   0  0  0  0  0  0  0  0  0  0  0  0
   -3.0060   -2.6580    1.9610 C   0  0  0  0  0  0  0  0  0  0  0  0
   -3.3090   -1.5090    1.0560 C   0  0  0  0  0  0  0  0  0  0  0  0
   -1.9460   -1.0000    0.6580 C   0  0  1  0  0  0  0  0  0  0  0  0
   -2.0960    0.4790    0.4970 C   0  0  0  0  0  0  0  0  0  0  0  0
   -1.5210    1.3050    1.2200 O   0  0  0  0  0  0  0  0  0  0  0  0
   -1.1190   -3.2940    2.6280 H   0  0  0  0  0  0  0  0  0  0  0  0
   -1.8580   -1.9300    3.5990 H   0  0  0  0  0  0  0  0  0  0  0  0
   -2.9840   -3.5900    1.3960 H   0  0  0  0  0  0  0  0  0  0  0  0
   -3.8050   -2.7240    2.7480 H   0  0  0  0  0  0  0  0  0  0  0  0
   -3.9030   -0.7020    1.5580 H   0  0  0  0  0  0  0  0  0  0  0  0
   -3.8180   -1.8410    0.1260 H   0  0  0  0  0  0  0  0  0  0  0  0
   -1.5960   -1.4360   -0.2740 H   0  0  0  0  0  0  0  0  0  0  0  0
   -2.9460    0.9390   -0.5410 N   0  0  0  0  0  0  0  0  0  0  0  0
   -3.1990    2.3090   -0.8320 C   0  0  1  0  0  0  0  0  0  0  0  0
   -2.5590    2.6750   -2.1510 C   0  0  0  0  0  0  0  0  0  0  0  0
   -1.0980    2.4980   -2.1880 C   0  0  0  0  0  0  0  0  0  0  0  0
   -0.1280    3.4920   -1.9780 C   0  0  0  0  0  0  0  0  0  0  0  0
    1.1020    2.9700   -2.0540 N   0  0  0  0  0  0  0  0  0  0  0  0
    0.9800    1.6570   -2.3070 C   0  0  0  0  0  0  0  0  0  0  0  0
    1.9300    0.7040   -2.4780 C   0  0  0  0  0  0  0  0  0  0  0  0
    1.5540   -0.6060   -2.7460 C   0  0  0  0  0  0  0  0  0  0  0  0
    0.2320   -0.9470   -2.8400 C   0  0  0  0  0  0  0  0  0  0  0  0
   -0.7210    0.0260   -2.6650 C   0  0  0  0  0  0  0  0  0  0  0  0
   -0.3750    1.3430   -2.3950 C   0  0  0  0  0  0  0  0  0  0  0  0
   -4.6220    2.6770   -0.7890 C   0  0  0  0  0  0  0  0  0  0  0  0
   -4.9660    3.8600   -1.0280 O   0  0  0  0  0  0  0  0  0  0  0  0
   -5.6260    1.7700   -0.4960 O   0  0  0  0  0  0  0  0  0  0  0  0
   -3.4330    0.2240   -1.1390 H   0  0  0  0  0  0  0  0  0  0  0  0
   -2.6980    2.9780   -0.0590 H   0  0  0  0  0  0  0  0  0  0  0  0
   -2.9710    1.9660   -2.9280 H   0  0  0  0  0  0  0  0  0  0  0  0
   -2.7830    3.7200   -2.4540 H   0  0  0  0  0  0  0  0  0  0  0  0
   -0.3920    4.5240   -1.7860 H   0  0  0  0  0  0  0  0  0  0  0  0
    1.9960    3.4880   -1.9360 H   0  0  0  0  0  0  0  0  0  0  0  0
    2.9690    0.9530   -2.4080 H   0  0  0  0  0  0  0  0  0  0  0  0
    2.3350   -1.3510   -2.8790 H   0  0  0  0  0  0  0  0  0  0  0  0
   -0.0500   -1.9550   -3.0470 H   0  0  0  0  0  0  0  0  0  0  0  0
   -1.7710   -0.2120   -2.7460 H   0  0  0  0  0  0  0  0  0  0  0  0
  1 10  1  0  0  0  0
  1 11  1  0  0  0  0
  2 12  1  1  0  0  0
  2  1  1  0  0  0  0
  3  2  1  0  0  0  0
  3 14  1  0  0  0  0
  4 16  1  0  0  0  0
  4  3  1  0  0  0  0
  5  4  1  0  0  0  0
  5  6  1  0  0  0  0
  6 19  1  0  0  0  0
  6  7  1  0  0  0  0
  7 21  1  0  0  0  0
  8  2  1  0  0  0  0
  9  8  2  0  0  0  0
 13  3  1  0  0  0  0
 15  4  1  0  0  0  0
 17  5  1  0  0  0  0
 18  5  1  0  0  0  0
 20  6  1  0  0  0  0
 22  7  1  0  0  0  0
 23  8  1  0  0  0  0
 23 24  1  0  0  0  0
 24 30  1  0  0  0  0
 24 31  1  0  0  0  0
 25 24  1  0  0  0  0
 25 33  1  0  0  0  0
 26 34  1  0  0  0  0
 26 25  1  0  0  0  0
 27 36  1  6  0  0  0
 27 26  1  0  0  0  0
 27 23  1  0  0  0  0
 28 27  1  0  0  0  0
 28 29  2  0  0  0  0
 32 25  1  0  0  0  0
 35 26  1  0  0  0  0
 37 28  1  0  0  0  0
 38 49  1  0  0  0  0
 38 37  1  0  0  0  0
 38 53  1  1  0  0  0
 39 38  1  0  0  0  0
 40 39  1  0  0  0  0
 40 41  2  0  0  0  0
 41 56  1  0  0  0  0
 42 41  1  0  0  0  0
 42 57  1  0  0  0  0
 43 42  1  0  0  0  0
 44 58  1  0  0  0  0
 44 43  2  0  0  0  0
 45 44  1  0  0  0  0
 46 45  2  0  0  0  0
 46 47  1  0  0  0  0
 47 48  2  0  0  0  0
 48 43  1  0  0  0  0
 48 40  1  0  0  0  0
 49 51  1  0  0  0  0
 50 49  2  0  0  0  0
 52 37  1  0  0  0  0
 54 39  1  0  0  0  0
 55 39  1  0  0  0  0
 59 45  1  0  0  0  0
 60 46  1  0  0  0  0
 61 47  1  0  0  0  0
M  END
$$$$
