KQD.pdb
 OpenBabel07022418503D

 53 52  0  0  1  0  0  0  0  0999 V2000
    1.1960   -3.9110    2.3560 N   0  0  0  0  0  0  0  0  0  0  0  0
    2.0080   -2.8990    1.6760 C   0  0  1  0  0  0  0  0  0  0  0  0
    2.8790   -3.6370    0.7160 C   0  0  0  0  0  0  0  0  0  0  0  0
    3.7780   -2.7400   -0.0610 C   0  0  0  0  0  0  0  0  0  0  0  0
    4.6700   -3.5290   -1.0260 C   0  0  0  0  0  0  0  0  0  0  0  0
    5.5210   -2.4710   -1.7370 C   0  0  0  0  0  0  0  0  0  0  0  0
    4.5910   -1.5890   -2.4190 N   0  0  0  0  0  0  0  0  0  0  0  0
    1.1460   -1.8610    1.0700 C   0  0  0  0  0  0  0  0  0  0  0  0
    1.6980   -0.8830    0.5200 O   0  0  0  0  0  0  0  0  0  0  0  0
    1.8630   -4.6520    2.6520 H   0  0  0  0  0  0  0  0  0  0  0  0
    0.7750   -3.5230    3.2280 H   0  0  0  0  0  0  0  0  0  0  0  0
    2.6560   -2.4380    2.4490 H   0  0  0  0  0  0  0  0  0  0  0  0
    2.2900   -4.3130    0.0480 H   0  0  0  0  0  0  0  0  0  0  0  0
    3.5190   -4.3230    1.3300 H   0  0  0  0  0  0  0  0  0  0  0  0
    3.2240   -2.0380   -0.7330 H   0  0  0  0  0  0  0  0  0  0  0  0
    4.4680   -2.2230    0.6320 H   0  0  0  0  0  0  0  0  0  0  0  0
    4.0540   -4.0100   -1.8150 H   0  0  0  0  0  0  0  0  0  0  0  0
    5.2740   -4.2790   -0.5180 H   0  0  0  0  0  0  0  0  0  0  0  0
    6.2740   -2.9090   -2.3890 H   0  0  0  0  0  0  0  0  0  0  0  0
    5.9760   -1.8660   -0.9030 H   0  0  0  0  0  0  0  0  0  0  0  0
    4.3700   -0.7320   -1.8590 H   0  0  0  0  0  0  0  0  0  0  0  0
    4.9790   -1.2350   -3.3280 H   0  0  0  0  0  0  0  0  0  0  0  0
   -2.6320    1.7380   -2.7400 N   0  0  0  0  0  0  0  0  0  0  0  0
   -1.9440    0.6850   -2.0610 C   0  0  0  0  0  0  0  0  0  0  0  0
   -0.6970    0.8150   -1.9980 O   0  0  0  0  0  0  0  0  0  0  0  0
   -2.6610   -0.4700   -1.4790 C   0  0  0  0  0  0  0  0  0  0  0  0
   -1.7990   -1.4220   -0.7230 C   0  0  0  0  0  0  0  0  0  0  0  0
   -1.0630   -0.8290    0.4480 C   0  0  2  0  0  0  0  0  0  0  0  0
   -0.2680   -1.9180    1.0820 N   0  0  0  0  0  0  0  0  0  0  0  0
   -1.9050   -0.2800    1.5070 C   0  0  0  0  0  0  0  0  0  0  0  0
   -1.9760   -0.9050    2.6270 O   0  0  0  0  0  0  0  0  0  0  0  0
   -2.2570    2.0270   -3.6660 H   0  0  0  0  0  0  0  0  0  0  0  0
   -3.4700    2.2210   -2.3690 H   0  0  0  0  0  0  0  0  0  0  0  0
   -3.4780   -0.0950   -0.8320 H   0  0  0  0  0  0  0  0  0  0  0  0
   -3.1960   -1.0250   -2.3130 H   0  0  0  0  0  0  0  0  0  0  0  0
   -2.4560   -2.2710   -0.4120 H   0  0  0  0  0  0  0  0  0  0  0  0
   -1.0850   -1.8870   -1.4550 H   0  0  0  0  0  0  0  0  0  0  0  0
   -0.3100   -0.1220    0.0550 H   0  0  0  0  0  0  0  0  0  0  0  0
   -0.7610   -2.7280    1.5370 H   0  0  0  0  0  0  0  0  0  0  0  0
   -2.6800    0.8970    1.4690 N   0  0  0  0  0  0  0  0  0  0  0  0
   -3.5000    1.3870    2.5630 C   0  0  1  0  0  0  0  0  0  0  0  0
   -3.2010    2.8140    2.9410 C   0  0  0  0  0  0  0  0  0  0  0  0
   -1.7940    2.9270    3.3570 C   0  0  0  0  0  0  0  0  0  0  0  0
   -1.0570    1.9190    3.3520 O   0  0  0  0  0  0  0  0  0  0  0  0
   -4.9530    1.2500    2.2280 C   0  0  0  0  0  0  0  0  0  0  0  0
   -5.7860    1.6360    3.0860 O   0  0  0  0  0  0  0  0  0  0  0  0
   -1.2240    4.1270    3.7650 O   0  0  0  0  0  0  0  0  0  0  0  0
   -5.4200    0.7310    1.0480 O   0  0  0  0  0  0  0  0  0  0  0  0
   -2.6670    1.4790    0.6180 H   0  0  0  0  0  0  0  0  0  0  0  0
   -3.2500    0.7480    3.4440 H   0  0  0  0  0  0  0  0  0  0  0  0
   -3.4620    3.5140    2.1180 H   0  0  0  0  0  0  0  0  0  0  0  0
   -3.8150    3.0440    3.8450 H   0  0  0  0  0  0  0  0  0  0  0  0
   -0.2630    4.3560    3.4710 H   0  0  0  0  0  0  0  0  0  0  0  0
  1 10  1  0  0  0  0
  1 11  1  0  0  0  0
  2  1  1  0  0  0  0
  2 12  1  1  0  0  0
  3 14  1  0  0  0  0
  3  2  1  0  0  0  0
  4 16  1  0  0  0  0
  4  3  1  0  0  0  0
  5 18  1  0  0  0  0
  5  4  1  0  0  0  0
  6  5  1  0  0  0  0
  6 20  1  0  0  0  0
  7 21  1  0  0  0  0
  7  6  1  0  0  0  0
  8 29  1  0  0  0  0
  8  2  1  0  0  0  0
  9  8  2  0  0  0  0
 13  3  1  0  0  0  0
 15  4  1  0  0  0  0
 17  5  1  0  0  0  0
 19  6  1  0  0  0  0
 22  7  1  0  0  0  0
 23 33  1  0  0  0  0
 23 24  1  0  0  0  0
 24 25  2  0  0  0  0
 24 26  1  0  0  0  0
 26 34  1  0  0  0  0
 26 27  1  0  0  0  0
 27 36  1  0  0  0  0
 27 28  1  0  0  0  0
 28 38  1  6  0  0  0
 28 29  1  0  0  0  0
 28 30  1  0  0  0  0
 29 39  1  0  0  0  0
 30 31  2  0  0  0  0
 32 23  1  0  0  0  0
 35 26  1  0  0  0  0
 37 27  1  0  0  0  0
 40 30  1  0  0  0  0
 40 41  1  0  0  0  0
 41 42  1  0  0  0  0
 41 50  1  1  0  0  0
 42 43  1  0  0  0  0
 42 52  1  0  0  0  0
 43 47  1  0  0  0  0
 44 43  2  0  0  0  0
 45 41  1  0  0  0  0
 45 46  1  0  0  0  0
 48 45  2  0  0  0  0
 49 40  1  0  0  0  0
 51 42  1  0  0  0  0
 53 47  1  0  0  0  0
M  END
$$$$
