KQE.pdb
 OpenBabel07022418503D

 56 55  0  0  1  0  0  0  0  0999 V2000
   -0.3150   -2.2000    4.9290 N   0  0  0  0  0  0  0  0  0  0  0  0
    0.1740   -1.7000    3.6130 C   0  0  1  0  0  0  0  0  0  0  0  0
    0.6780   -2.8960    2.8980 C   0  0  0  0  0  0  0  0  0  0  0  0
    1.2480   -2.6650    1.5360 C   0  0  0  0  0  0  0  0  0  0  0  0
    2.4130   -1.7060    1.6790 C   0  0  0  0  0  0  0  0  0  0  0  0
    2.9830   -1.4740    0.2970 C   0  0  0  0  0  0  0  0  0  0  0  0
    3.4240   -2.7390   -0.2270 N   0  0  0  0  0  0  0  0  0  0  0  0
   -0.9260   -0.9590    3.0370 C   0  0  0  0  0  0  0  0  0  0  0  0
   -2.0680   -0.9980    3.6020 O   0  0  0  0  0  0  0  0  0  0  0  0
   -0.9910   -1.4950    5.3370 H   0  0  0  0  0  0  0  0  0  0  0  0
   -0.8400   -3.0800    4.7430 H   0  0  0  0  0  0  0  0  0  0  0  0
    1.0290   -1.0340    3.8530 H   0  0  0  0  0  0  0  0  0  0  0  0
    1.5380   -3.2960    3.5180 H   0  0  0  0  0  0  0  0  0  0  0  0
   -0.0560   -3.7380    2.9210 H   0  0  0  0  0  0  0  0  0  0  0  0
    0.4860   -2.3530    0.8270 H   0  0  0  0  0  0  0  0  0  0  0  0
    1.7200   -3.6430    1.2170 H   0  0  0  0  0  0  0  0  0  0  0  0
    3.2330   -2.1580    2.2820 H   0  0  0  0  0  0  0  0  0  0  0  0
    2.1540   -0.7450    2.1340 H   0  0  0  0  0  0  0  0  0  0  0  0
    2.1370   -1.0590   -0.3250 H   0  0  0  0  0  0  0  0  0  0  0  0
    3.8010   -0.7300    0.3920 H   0  0  0  0  0  0  0  0  0  0  0  0
    2.9140   -3.0570   -1.0650 H   0  0  0  0  0  0  0  0  0  0  0  0
    3.6140   -3.4520    0.4960 H   0  0  0  0  0  0  0  0  0  0  0  0
    1.4230    2.9900    1.0720 N   0  0  0  0  0  0  0  0  0  0  0  0
    0.2700    2.5930    1.8020 C   0  0  0  0  0  0  0  0  0  0  0  0
    0.3330    2.0050    2.9070 O   0  0  0  0  0  0  0  0  0  0  0  0
   -1.0550    2.8920    1.2330 C   0  0  0  0  0  0  0  0  0  0  0  0
   -2.1350    2.0250    1.7250 C   0  0  0  0  0  0  0  0  0  0  0  0
   -2.0650    0.5610    1.3940 C   0  0  2  0  0  0  0  0  0  0  0  0
   -0.9090   -0.1370    1.8580 N   0  0  0  0  0  0  0  0  0  0  0  0
   -2.4060    0.3040   -0.0260 C   0  0  0  0  0  0  0  0  0  0  0  0
   -3.4420    0.8450   -0.5520 O   0  0  0  0  0  0  0  0  0  0  0  0
    1.7330    2.3250    0.3170 H   0  0  0  0  0  0  0  0  0  0  0  0
    1.9130    3.8690    1.2750 H   0  0  0  0  0  0  0  0  0  0  0  0
   -1.2890    3.9460    1.5850 H   0  0  0  0  0  0  0  0  0  0  0  0
   -1.0230    3.0030    0.1250 H   0  0  0  0  0  0  0  0  0  0  0  0
   -2.2420    2.0890    2.8280 H   0  0  0  0  0  0  0  0  0  0  0  0
   -3.1210    2.3780    1.3140 H   0  0  0  0  0  0  0  0  0  0  0  0
   -2.9820    0.1440    1.9580 H   0  0  0  0  0  0  0  0  0  0  0  0
   -0.0050   -0.0950    1.3540 H   0  0  0  0  0  0  0  0  0  0  0  0
   -1.6600   -0.5200   -0.8960 N   0  0  0  0  0  0  0  0  0  0  0  0
   -2.0040   -0.7660   -2.2810 C   0  0  1  0  0  0  0  0  0  0  0  0
   -1.0330   -0.2470   -3.2730 C   0  0  0  0  0  0  0  0  0  0  0  0
    0.3580   -0.7590   -3.2010 C   0  0  0  0  0  0  0  0  0  0  0  0
    0.5200   -2.2110   -3.3720 C   0  0  0  0  0  0  0  0  0  0  0  0
    0.5010   -2.9640   -2.3730 O   0  0  0  0  0  0  0  0  0  0  0  0
   -2.3750   -2.1530   -2.5760 C   0  0  0  0  0  0  0  0  0  0  0  0
   -2.6420   -2.4590   -3.7590 O   0  0  0  0  0  0  0  0  0  0  0  0
    0.6970   -2.8030   -4.6130 O   0  0  0  0  0  0  0  0  0  0  0  0
   -2.4520   -3.1540   -1.6190 O   0  0  0  0  0  0  0  0  0  0  0  0
   -0.8130   -0.9820   -0.5460 H   0  0  0  0  0  0  0  0  0  0  0  0
   -2.9540   -0.1600   -2.4440 H   0  0  0  0  0  0  0  0  0  0  0  0
   -1.4480   -0.4720   -4.2870 H   0  0  0  0  0  0  0  0  0  0  0  0
   -0.9720    0.8650   -3.1450 H   0  0  0  0  0  0  0  0  0  0  0  0
    0.9450   -0.1880   -3.9830 H   0  0  0  0  0  0  0  0  0  0  0  0
    0.8090   -0.4180   -2.2310 H   0  0  0  0  0  0  0  0  0  0  0  0
    0.2750   -3.7140   -4.8240 H   0  0  0  0  0  0  0  0  0  0  0  0
  1 10  1  0  0  0  0
  2 12  1  1  0  0  0
  2  1  1  0  0  0  0
  3 14  1  0  0  0  0
  3 13  1  0  0  0  0
  3  2  1  0  0  0  0
  4  5  1  0  0  0  0
  4  3  1  0  0  0  0
  5 18  1  0  0  0  0
  5 17  1  0  0  0  0
  6 20  1  0  0  0  0
  6  5  1  0  0  0  0
  7  6  1  0  0  0  0
  7 22  1  0  0  0  0
  8  9  2  0  0  0  0
  8  2  1  0  0  0  0
 11  1  1  0  0  0  0
 15  4  1  0  0  0  0
 16  4  1  0  0  0  0
 19  6  1  0  0  0  0
 21  7  1  0  0  0  0
 23 33  1  0  0  0  0
 23 24  1  0  0  0  0
 24 25  2  0  0  0  0
 26 34  1  0  0  0  0
 26 27  1  0  0  0  0
 26 24  1  0  0  0  0
 27 36  1  0  0  0  0
 28 27  1  0  0  0  0
 28 29  1  0  0  0  0
 28 38  1  1  0  0  0
 29  8  1  0  0  0  0
 30 28  1  0  0  0  0
 31 30  2  0  0  0  0
 32 23  1  0  0  0  0
 35 26  1  0  0  0  0
 37 27  1  0  0  0  0
 39 29  1  0  0  0  0
 40 50  1  0  0  0  0
 40 30  1  0  0  0  0
 41 51  1  6  0  0  0
 41 40  1  0  0  0  0
 42 43  1  0  0  0  0
 42 53  1  0  0  0  0
 42 41  1  0  0  0  0
 43 55  1  0  0  0  0
 44 43  1  0  0  0  0
 44 45  2  0  0  0  0
 46 41  1  0  0  0  0
 46 49  1  0  0  0  0
 47 46  2  0  0  0  0
 48 44  1  0  0  0  0
 52 42  1  0  0  0  0
 54 43  1  0  0  0  0
 56 48  1  0  0  0  0
M  END
$$$$
