KQH.pdb
 OpenBabel07022418503D

 57 57  0  0  1  0  0  0  0  0999 V2000
    2.2180   -0.9700    1.5680 N   0  0  0  0  0  0  0  0  0  0  0  0
    1.9460    0.3340    2.0900 C   0  0  1  0  0  0  0  0  0  0  0  0
    2.9570    1.3880    1.7810 C   0  0  0  0  0  0  0  0  0  0  0  0
    4.3420    1.2120    2.2320 C   0  0  0  0  0  0  0  0  0  0  0  0
    5.0690    0.0440    1.6650 C   0  0  0  0  0  0  0  0  0  0  0  0
    6.5050   -0.0220    2.1980 C   0  0  0  0  0  0  0  0  0  0  0  0
    7.2050    1.1770    1.8340 N   0  0  0  0  0  0  0  0  0  0  0  0
    0.6540    0.8320    1.4960 C   0  0  0  0  0  0  0  0  0  0  0  0
    0.0810    1.8360    2.0570 O   0  0  0  0  0  0  0  0  0  0  0  0
    1.2880   -1.3840    1.2440 H   0  0  0  0  0  0  0  0  0  0  0  0
    2.4640   -1.5670    2.4430 H   0  0  0  0  0  0  0  0  0  0  0  0
    1.7550    0.3190    3.1960 H   0  0  0  0  0  0  0  0  0  0  0  0
    2.9440    1.6100    0.6760 H   0  0  0  0  0  0  0  0  0  0  0  0
    2.5850    2.3660    2.2260 H   0  0  0  0  0  0  0  0  0  0  0  0
    4.4160    1.2600    3.3490 H   0  0  0  0  0  0  0  0  0  0  0  0
    4.9110    2.1350    1.9060 H   0  0  0  0  0  0  0  0  0  0  0  0
    5.1890    0.1380    0.5580 H   0  0  0  0  0  0  0  0  0  0  0  0
    4.5590   -0.8840    1.8940 H   0  0  0  0  0  0  0  0  0  0  0  0
    7.0330   -0.8900    1.8020 H   0  0  0  0  0  0  0  0  0  0  0  0
    6.4190   -0.1430    3.3060 H   0  0  0  0  0  0  0  0  0  0  0  0
    7.2050    1.8910    2.5810 H   0  0  0  0  0  0  0  0  0  0  0  0
    6.8690    1.5520    0.9080 H   0  0  0  0  0  0  0  0  0  0  0  0
   -2.7740    3.1330   -4.3710 N   0  0  0  0  0  0  0  0  0  0  0  0
   -1.8440    2.4890   -3.5150 C   0  0  0  0  0  0  0  0  0  0  0  0
   -0.6810    2.3070   -3.9330 O   0  0  0  0  0  0  0  0  0  0  0  0
   -2.2390    2.0320   -2.1330 C   0  0  0  0  0  0  0  0  0  0  0  0
   -1.0510    1.4060   -1.5110 C   0  0  0  0  0  0  0  0  0  0  0  0
   -1.2480    0.8870   -0.1050 C   0  0  2  0  0  0  0  0  0  0  0  0
    0.0080    0.3060    0.3720 N   0  0  0  0  0  0  0  0  0  0  0  0
   -2.2860   -0.1540    0.0070 C   0  0  0  0  0  0  0  0  0  0  0  0
   -3.4630    0.1210   -0.3160 O   0  0  0  0  0  0  0  0  0  0  0  0
   -3.1240    2.6140   -5.2070 H   0  0  0  0  0  0  0  0  0  0  0  0
   -3.1280    4.0990   -4.2120 H   0  0  0  0  0  0  0  0  0  0  0  0
   -3.1520    1.4120   -2.1860 H   0  0  0  0  0  0  0  0  0  0  0  0
   -2.5490    2.9720   -1.6130 H   0  0  0  0  0  0  0  0  0  0  0  0
   -0.2650    2.2080   -1.4350 H   0  0  0  0  0  0  0  0  0  0  0  0
   -0.6350    0.5750   -2.1160 H   0  0  0  0  0  0  0  0  0  0  0  0
   -1.4950    1.7250    0.5780 H   0  0  0  0  0  0  0  0  0  0  0  0
    0.4040   -0.4980   -0.1620 H   0  0  0  0  0  0  0  0  0  0  0  0
   -1.9800   -1.4380    0.4650 N   0  0  0  0  0  0  0  0  0  0  0  0
   -2.9540   -2.5180    0.6010 C   0  0  1  0  0  0  0  0  0  0  0  0
   -2.5120   -3.7490   -0.1070 C   0  0  0  0  0  0  0  0  0  0  0  0
   -3.5070   -4.8260    0.0030 C   0  0  0  0  0  0  0  0  0  0  0  0
   -3.2780   -6.0790   -0.5850 C   0  0  0  0  0  0  0  0  0  0  0  0
   -4.3260   -6.8830   -0.3450 N   0  0  0  0  0  0  0  0  0  0  0  0
   -5.2200   -6.1610    0.3870 C   0  0  0  0  0  0  0  0  0  0  0  0
   -4.7000   -4.9360    0.5780 N   0  0  0  0  0  0  0  0  0  0  0  0
   -2.9730   -2.8190    2.0720 C   0  0  0  0  0  0  0  0  0  0  0  0
   -3.6890   -3.6780    2.6050 O   0  0  0  0  0  0  0  0  0  0  0  0
   -2.1330   -2.0960    2.9440 O   0  0  0  0  0  0  0  0  0  0  0  0
   -1.0110   -1.6740    0.7330 H   0  0  0  0  0  0  0  0  0  0  0  0
   -3.9730   -2.2220    0.3080 H   0  0  0  0  0  0  0  0  0  0  0  0
   -2.3280   -3.5960   -1.1930 H   0  0  0  0  0  0  0  0  0  0  0  0
   -1.5840   -4.1350    0.4050 H   0  0  0  0  0  0  0  0  0  0  0  0
   -2.4110   -6.3930   -1.1500 H   0  0  0  0  0  0  0  0  0  0  0  0
   -4.4140   -7.8680   -0.6700 H   0  0  0  0  0  0  0  0  0  0  0  0
   -6.1670   -6.5760    0.7200 H   0  0  0  0  0  0  0  0  0  0  0  0
  1  2  1  0  0  0  0
  1 11  1  0  0  0  0
  2 12  1  1  0  0  0
  3  2  1  0  0  0  0
  3 14  1  0  0  0  0
  3  4  1  0  0  0  0
  4 15  1  0  0  0  0
  5 18  1  0  0  0  0
  5  6  1  0  0  0  0
  5  4  1  0  0  0  0
  6 20  1  0  0  0  0
  7  6  1  0  0  0  0
  7 21  1  0  0  0  0
  8  9  2  0  0  0  0
  8  2  1  0  0  0  0
 10  1  1  0  0  0  0
 13  3  1  0  0  0  0
 16  4  1  0  0  0  0
 17  5  1  0  0  0  0
 19  6  1  0  0  0  0
 22  7  1  0  0  0  0
 23 33  1  0  0  0  0
 23 24  1  0  0  0  0
 24 26  1  0  0  0  0
 25 24  2  0  0  0  0
 26 35  1  0  0  0  0
 26 27  1  0  0  0  0
 27 36  1  0  0  0  0
 27 28  1  0  0  0  0
 28 30  1  0  0  0  0
 28 29  1  0  0  0  0
 28 38  1  1  0  0  0
 29  8  1  0  0  0  0
 30 40  1  0  0  0  0
 31 30  2  0  0  0  0
 32 23  1  0  0  0  0
 34 26  1  0  0  0  0
 37 27  1  0  0  0  0
 39 29  1  0  0  0  0
 40 41  1  0  0  0  0
 40 51  1  0  0  0  0
 41 52  1  6  0  0  0
 41 48  1  0  0  0  0
 42 43  1  0  0  0  0
 42 54  1  0  0  0  0
 42 41  1  0  0  0  0
 43 47  1  0  0  0  0
 44 45  1  0  0  0  0
 44 43  2  0  0  0  0
 45 46  1  0  0  0  0
 46 47  2  0  0  0  0
 46 57  1  0  0  0  0
 48 49  2  0  0  0  0
 48 50  1  0  0  0  0
 53 42  1  0  0  0  0
 55 44  1  0  0  0  0
 56 45  1  0  0  0  0
M  END
$$$$
