KQN.pdb
 OpenBabel07022418503D

 54 53  0  0  1  0  0  0  0  0999 V2000
    1.1870   -0.5670    4.9370 N   0  0  0  0  0  0  0  0  0  0  0  0
    1.2530   -0.3620    3.4630 C   0  0  1  0  0  0  0  0  0  0  0  0
    1.9070   -1.5760    2.9410 C   0  0  0  0  0  0  0  0  0  0  0  0
    2.1510   -1.6840    1.4860 C   0  0  0  0  0  0  0  0  0  0  0  0
    3.0240   -0.5770    0.9380 C   0  0  0  0  0  0  0  0  0  0  0  0
    3.2050   -0.7770   -0.5290 C   0  0  0  0  0  0  0  0  0  0  0  0
    1.9950   -0.7610   -1.2860 N   0  0  0  0  0  0  0  0  0  0  0  0
   -0.1120   -0.0710    3.0350 C   0  0  0  0  0  0  0  0  0  0  0  0
   -1.0370   -0.1030    3.9310 O   0  0  0  0  0  0  0  0  0  0  0  0
    2.1100   -0.9870    5.2260 H   0  0  0  0  0  0  0  0  0  0  0  0
    0.4890   -1.3630    5.0470 H   0  0  0  0  0  0  0  0  0  0  0  0
    1.8820    0.5500    3.3560 H   0  0  0  0  0  0  0  0  0  0  0  0
    1.3260   -2.4760    3.2480 H   0  0  0  0  0  0  0  0  0  0  0  0
    2.8910   -1.6760    3.4530 H   0  0  0  0  0  0  0  0  0  0  0  0
    2.6990   -2.6760    1.3470 H   0  0  0  0  0  0  0  0  0  0  0  0
    1.2750   -1.7870    0.8350 H   0  0  0  0  0  0  0  0  0  0  0  0
    2.5840    0.4180    1.1290 H   0  0  0  0  0  0  0  0  0  0  0  0
    4.0040   -0.6600    1.4410 H   0  0  0  0  0  0  0  0  0  0  0  0
    3.6580   -1.8020   -0.6660 H   0  0  0  0  0  0  0  0  0  0  0  0
    3.8930    0.0040   -0.9190 H   0  0  0  0  0  0  0  0  0  0  0  0
    2.0110   -1.3640   -2.1360 H   0  0  0  0  0  0  0  0  0  0  0  0
    1.6230    0.1990   -1.4650 H   0  0  0  0  0  0  0  0  0  0  0  0
    0.8170    3.3470   -0.6120 N   0  0  0  0  0  0  0  0  0  0  0  0
   -0.0560    2.9610    0.4300 C   0  0  0  0  0  0  0  0  0  0  0  0
    0.4080    2.7850    1.5740 O   0  0  0  0  0  0  0  0  0  0  0  0
   -1.4930    2.7730    0.1780 C   0  0  0  0  0  0  0  0  0  0  0  0
   -2.2340    1.9860    1.1850 C   0  0  0  0  0  0  0  0  0  0  0  0
   -1.8790    0.5450    1.3540 C   0  0  2  0  0  0  0  0  0  0  0  0
   -0.5290    0.2540    1.7120 N   0  0  0  0  0  0  0  0  0  0  0  0
   -2.4900   -0.3270    0.3370 C   0  0  0  0  0  0  0  0  0  0  0  0
   -3.6930   -0.0890   -0.0490 O   0  0  0  0  0  0  0  0  0  0  0  0
    1.0030    2.7070   -1.4020 H   0  0  0  0  0  0  0  0  0  0  0  0
    1.3030    4.2770   -0.6280 H   0  0  0  0  0  0  0  0  0  0  0  0
   -1.6960    2.4530   -0.8760 H   0  0  0  0  0  0  0  0  0  0  0  0
   -1.9380    3.8180    0.2070 H   0  0  0  0  0  0  0  0  0  0  0  0
   -2.0390    2.4660    2.1880 H   0  0  0  0  0  0  0  0  0  0  0  0
   -3.3460    2.0690    1.0690 H   0  0  0  0  0  0  0  0  0  0  0  0
   -2.4810    0.2610    2.3130 H   0  0  0  0  0  0  0  0  0  0  0  0
    0.1980    0.2610    0.9700 H   0  0  0  0  0  0  0  0  0  0  0  0
   -0.1420   -3.5670   -1.4880 N   0  0  0  0  0  0  0  0  0  0  0  0
   -0.6570   -2.9430   -2.6350 C   0  0  0  0  0  0  0  0  0  0  0  0
   -0.0080   -2.8870   -3.7290 O   0  0  0  0  0  0  0  0  0  0  0  0
   -1.9830   -2.3250   -2.6220 C   0  0  0  0  0  0  0  0  0  0  0  0
   -2.6210   -2.2340   -1.2930 C   0  0  2  0  0  0  0  0  0  0  0  0
   -1.9000   -1.4470   -0.2990 N   0  0  0  0  0  0  0  0  0  0  0  0
   -2.9490   -3.5700   -0.7140 C   0  0  0  0  0  0  0  0  0  0  0  0
   -3.5340   -4.4620   -1.3360 O   0  0  0  0  0  0  0  0  0  0  0  0
   -2.5840   -3.8550    0.6120 O   0  0  0  0  0  0  0  0  0  0  0  0
   -0.6240   -4.4530   -1.1770 H   0  0  0  0  0  0  0  0  0  0  0  0
    0.6610   -3.1880   -0.9830 H   0  0  0  0  0  0  0  0  0  0  0  0
   -2.7060   -2.8990   -3.2810 H   0  0  0  0  0  0  0  0  0  0  0  0
   -1.9750   -1.3060   -3.1170 H   0  0  0  0  0  0  0  0  0  0  0  0
   -3.6460   -1.7720   -1.4670 H   0  0  0  0  0  0  0  0  0  0  0  0
   -0.9280   -1.6840   -0.0270 H   0  0  0  0  0  0  0  0  0  0  0  0
  1 11  1  0  0  0  0
  1 10  1  0  0  0  0
  2 12  1  6  0  0  0
  2  1  1  0  0  0  0
  3 13  1  0  0  0  0
  3 14  1  0  0  0  0
  3  2  1  0  0  0  0
  4  3  1  0  0  0  0
  5 17  1  0  0  0  0
  5 18  1  0  0  0  0
  5  4  1  0  0  0  0
  6  5  1  0  0  0  0
  7  6  1  0  0  0  0
  8  2  1  0  0  0  0
  8  9  2  0  0  0  0
 15  4  1  0  0  0  0
 16  4  1  0  0  0  0
 19  6  1  0  0  0  0
 20  6  1  0  0  0  0
 21  7  1  0  0  0  0
 22  7  1  0  0  0  0
 23 24  1  0  0  0  0
 24 25  2  0  0  0  0
 26 35  1  0  0  0  0
 26 24  1  0  0  0  0
 26 27  1  0  0  0  0
 27 28  1  0  0  0  0
 27 36  1  0  0  0  0
 28 29  1  0  0  0  0
 28 38  1  1  0  0  0
 29  8  1  0  0  0  0
 30 28  1  0  0  0  0
 31 30  2  0  0  0  0
 32 23  1  0  0  0  0
 33 23  1  0  0  0  0
 34 26  1  0  0  0  0
 37 27  1  0  0  0  0
 39 29  1  0  0  0  0
 40 49  1  0  0  0  0
 40 50  1  0  0  0  0
 41 43  1  0  0  0  0
 41 40  1  0  0  0  0
 42 41  2  0  0  0  0
 43 44  1  0  0  0  0
 44 53  1  6  0  0  0
 44 46  1  0  0  0  0
 44 45  1  0  0  0  0
 45 54  1  0  0  0  0
 45 30  1  0  0  0  0
 46 48  1  0  0  0  0
 47 46  2  0  0  0  0
 51 43  1  0  0  0  0
 52 43  1  0  0  0  0
M  END
$$$$
