KQQ.pdb
 OpenBabel07022418503D

 57 56  0  0  1  0  0  0  0  0999 V2000
   -1.1460   -0.9130    4.9920 N   0  0  0  0  0  0  0  0  0  0  0  0
   -0.1670   -0.8910    3.8440 C   0  0  1  0  0  0  0  0  0  0  0  0
    0.2190   -2.3040    3.6830 C   0  0  0  0  0  0  0  0  0  0  0  0
    1.2140   -2.6560    2.6380 C   0  0  0  0  0  0  0  0  0  0  0  0
    2.5370   -1.9330    2.8340 C   0  0  0  0  0  0  0  0  0  0  0  0
    3.4950   -2.3610    1.7700 C   0  0  0  0  0  0  0  0  0  0  0  0
    3.7620   -3.7760    1.8160 N   0  0  0  0  0  0  0  0  0  0  0  0
   -0.8770   -0.2090    2.7700 C   0  0  0  0  0  0  0  0  0  0  0  0
   -2.1020    0.1100    2.9440 O   0  0  0  0  0  0  0  0  0  0  0  0
   -1.4940    0.0740    5.0130 H   0  0  0  0  0  0  0  0  0  0  0  0
   -1.9560   -1.4840    4.6400 H   0  0  0  0  0  0  0  0  0  0  0  0
    0.6630   -0.2710    4.2740 H   0  0  0  0  0  0  0  0  0  0  0  0
   -0.7070   -2.9250    3.5850 H   0  0  0  0  0  0  0  0  0  0  0  0
    0.6550   -2.6330    4.6720 H   0  0  0  0  0  0  0  0  0  0  0  0
    0.8270   -2.4130    1.6460 H   0  0  0  0  0  0  0  0  0  0  0  0
    1.4990   -3.7560    2.7000 H   0  0  0  0  0  0  0  0  0  0  0  0
    2.9290   -2.1860    3.8210 H   0  0  0  0  0  0  0  0  0  0  0  0
    2.4240   -0.8360    2.7710 H   0  0  0  0  0  0  0  0  0  0  0  0
    3.0700   -2.1090    0.7520 H   0  0  0  0  0  0  0  0  0  0  0  0
    4.4720   -1.8300    1.8550 H   0  0  0  0  0  0  0  0  0  0  0  0
    3.7440   -4.2660    0.9130 H   0  0  0  0  0  0  0  0  0  0  0  0
    3.4500   -4.2730    2.6480 H   0  0  0  0  0  0  0  0  0  0  0  0
    2.7750    2.6540    0.6970 N   0  0  0  0  0  0  0  0  0  0  0  0
    1.4220    2.5850    1.1000 C   0  0  0  0  0  0  0  0  0  0  0  0
    1.1470    2.2810    2.2770 O   0  0  0  0  0  0  0  0  0  0  0  0
    0.3550    2.8730    0.1360 C   0  0  0  0  0  0  0  0  0  0  0  0
   -0.9850    2.3650    0.4700 C   0  0  0  0  0  0  0  0  0  0  0  0
   -1.1800    0.8780    0.5370 C   0  0  2  0  0  0  0  0  0  0  0  0
   -0.3630    0.1800    1.4840 N   0  0  0  0  0  0  0  0  0  0  0  0
   -1.1630    0.2380   -0.7870 C   0  0  0  0  0  0  0  0  0  0  0  0
   -1.8440    0.7860   -1.6800 O   0  0  0  0  0  0  0  0  0  0  0  0
    3.3880    1.8100    0.8240 H   0  0  0  0  0  0  0  0  0  0  0  0
    3.1850    3.5290    0.2710 H   0  0  0  0  0  0  0  0  0  0  0  0
    0.2670    4.0060    0.1230 H   0  0  0  0  0  0  0  0  0  0  0  0
    0.6590    2.6450   -0.9160 H   0  0  0  0  0  0  0  0  0  0  0  0
   -1.7140    2.7490   -0.2730 H   0  0  0  0  0  0  0  0  0  0  0  0
   -1.3080    2.7770    1.4480 H   0  0  0  0  0  0  0  0  0  0  0  0
   -2.2890    0.8040    0.8740 H   0  0  0  0  0  0  0  0  0  0  0  0
    0.6230   -0.0890    1.2900 H   0  0  0  0  0  0  0  0  0  0  0  0
   -5.3110   -1.5170   -2.9720 N   0  0  0  0  0  0  0  0  0  0  0  0
   -3.9780   -1.2790   -3.3680 C   0  0  0  0  0  0  0  0  0  0  0  0
   -3.7770   -0.7130   -4.4650 O   0  0  0  0  0  0  0  0  0  0  0  0
   -2.7960   -1.6660   -2.5510 C   0  0  0  0  0  0  0  0  0  0  0  0
   -1.5090   -1.2700   -3.1890 C   0  0  0  0  0  0  0  0  0  0  0  0
   -0.3610   -1.6390   -2.2630 C   0  0  2  0  0  0  0  0  0  0  0  0
   -0.4330   -0.9180   -1.0410 N   0  0  0  0  0  0  0  0  0  0  0  0
    0.9400   -1.7170   -2.9080 C   0  0  0  0  0  0  0  0  0  0  0  0
    1.0640   -2.3450   -3.9860 O   0  0  0  0  0  0  0  0  0  0  0  0
    2.1150   -1.1280   -2.4050 O   0  0  0  0  0  0  0  0  0  0  0  0
   -6.0460   -1.9030   -3.5970 H   0  0  0  0  0  0  0  0  0  0  0  0
   -5.5880   -1.2910   -1.9840 H   0  0  0  0  0  0  0  0  0  0  0  0
   -2.8120   -2.8210   -2.5900 H   0  0  0  0  0  0  0  0  0  0  0  0
   -2.9790   -1.4260   -1.5110 H   0  0  0  0  0  0  0  0  0  0  0  0
   -1.3260   -1.9450   -4.1070 H   0  0  0  0  0  0  0  0  0  0  0  0
   -1.4160   -0.2630   -3.5750 H   0  0  0  0  0  0  0  0  0  0  0  0
   -0.6810   -2.7330   -2.0020 H   0  0  0  0  0  0  0  0  0  0  0  0
    0.1490   -1.3160   -0.2300 H   0  0  0  0  0  0  0  0  0  0  0  0
  1 10  1  0  0  0  0
  2 12  1  1  0  0  0
  2  1  1  0  0  0  0
  3  2  1  0  0  0  0
  3 14  1  0  0  0  0
  4 16  1  0  0  0  0
  4  5  1  0  0  0  0
  4  3  1  0  0  0  0
  5 17  1  0  0  0  0
  6  7  1  0  0  0  0
  6 20  1  0  0  0  0
  6  5  1  0  0  0  0
  7 22  1  0  0  0  0
  8  9  2  0  0  0  0
  8  2  1  0  0  0  0
 11  1  1  0  0  0  0
 13  3  1  0  0  0  0
 15  4  1  0  0  0  0
 18  5  1  0  0  0  0
 19  6  1  0  0  0  0
 21  7  1  0  0  0  0
 23 32  1  0  0  0  0
 23 24  1  0  0  0  0
 24 25  2  0  0  0  0
 26 27  1  0  0  0  0
 26 24  1  0  0  0  0
 27 28  1  0  0  0  0
 27 37  1  0  0  0  0
 28 38  1  1  0  0  0
 28 29  1  0  0  0  0
 29  8  1  0  0  0  0
 30 28  1  0  0  0  0
 31 30  2  0  0  0  0
 33 23  1  0  0  0  0
 34 26  1  0  0  0  0
 35 26  1  0  0  0  0
 36 27  1  0  0  0  0
 39 29  1  0  0  0  0
 40 51  1  0  0  0  0
 41 40  1  0  0  0  0
 41 43  1  0  0  0  0
 42 41  2  0  0  0  0
 43 53  1  0  0  0  0
 44 43  1  0  0  0  0
 44 45  1  0  0  0  0
 45 56  1  1  0  0  0
 45 46  1  0  0  0  0
 46 30  1  0  0  0  0
 46 57  1  0  0  0  0
 47 49  1  0  0  0  0
 47 45  1  0  0  0  0
 48 47  2  0  0  0  0
 50 40  1  0  0  0  0
 52 43  1  0  0  0  0
 54 44  1  0  0  0  0
 55 44  1  0  0  0  0
M  END
$$$$
