KQR.pdb
 OpenBabel07022418503D

 63 62  0  0  1  0  0  0  0  0999 V2000
    1.4360   -1.6830    3.5780 N   0  0  0  0  0  0  0  0  0  0  0  0
    1.1030   -0.3240    4.0080 C   0  0  1  0  0  0  0  0  0  0  0  0
    2.1810    0.1820    4.8830 C   0  0  0  0  0  0  0  0  0  0  0  0
    3.5320    0.2460    4.2750 C   0  0  0  0  0  0  0  0  0  0  0  0
    3.6640    1.1460    3.0750 C   0  0  0  0  0  0  0  0  0  0  0  0
    5.1160    1.1060    2.5860 C   0  0  0  0  0  0  0  0  0  0  0  0
    5.2630    1.9690    1.4280 N   0  0  0  0  0  0  0  0  0  0  0  0
    0.7310    0.5050    2.8550 C   0  0  0  0  0  0  0  0  0  0  0  0
    0.5300    1.7380    2.9130 O   0  0  0  0  0  0  0  0  0  0  0  0
    0.5880   -2.1850    3.2500 H   0  0  0  0  0  0  0  0  0  0  0  0
    2.1790   -1.5980    2.8710 H   0  0  0  0  0  0  0  0  0  0  0  0
    0.1380   -0.4830    4.6100 H   0  0  0  0  0  0  0  0  0  0  0  0
    2.2150   -0.5140    5.7780 H   0  0  0  0  0  0  0  0  0  0  0  0
    1.9040    1.1690    5.3470 H   0  0  0  0  0  0  0  0  0  0  0  0
    3.8980   -0.7590    3.9480 H   0  0  0  0  0  0  0  0  0  0  0  0
    4.2840    0.5660    5.0420 H   0  0  0  0  0  0  0  0  0  0  0  0
    3.0630    0.8750    2.2140 H   0  0  0  0  0  0  0  0  0  0  0  0
    3.3790    2.1620    3.3870 H   0  0  0  0  0  0  0  0  0  0  0  0
    5.3580    0.0740    2.2720 H   0  0  0  0  0  0  0  0  0  0  0  0
    5.7310    1.4580    3.4290 H   0  0  0  0  0  0  0  0  0  0  0  0
    4.3920    2.4970    1.2990 H   0  0  0  0  0  0  0  0  0  0  0  0
    5.4940    1.4580    0.5680 H   0  0  0  0  0  0  0  0  0  0  0  0
    1.4420    1.6320   -4.3040 N   0  0  0  0  0  0  0  0  0  0  0  0
    1.7000    0.9750   -3.0820 C   0  0  0  0  0  0  0  0  0  0  0  0
    2.7220    0.2690   -2.9780 O   0  0  0  0  0  0  0  0  0  0  0  0
    0.7200    1.1660   -1.9650 C   0  0  0  0  0  0  0  0  0  0  0  0
    1.1340    0.4040   -0.7420 C   0  0  0  0  0  0  0  0  0  0  0  0
    0.2160    0.5980    0.3700 C   0  0  2  0  0  0  0  0  0  0  0  0
    0.5810   -0.0950    1.5950 N   0  0  0  0  0  0  0  0  0  0  0  0
   -1.1530    0.1220    0.0490 C   0  0  0  0  0  0  0  0  0  0  0  0
   -1.8620    0.5380   -0.9020 O   0  0  0  0  0  0  0  0  0  0  0  0
    2.1940    1.8790   -4.9940 H   0  0  0  0  0  0  0  0  0  0  0  0
    0.4690    1.9220   -4.6090 H   0  0  0  0  0  0  0  0  0  0  0  0
   -0.2990    0.9490   -2.3390 H   0  0  0  0  0  0  0  0  0  0  0  0
    0.7210    2.2810   -1.7810 H   0  0  0  0  0  0  0  0  0  0  0  0
    1.1190   -0.6880   -1.0530 H   0  0  0  0  0  0  0  0  0  0  0  0
    2.1900    0.7170   -0.5560 H   0  0  0  0  0  0  0  0  0  0  0  0
    0.1240    1.6720    0.6270 H   0  0  0  0  0  0  0  0  0  0  0  0
    0.7380   -1.1170    1.4760 H   0  0  0  0  0  0  0  0  0  0  0  0
   -5.5930   -3.6700   -4.1220 N   0  0  0  0  0  0  0  0  0  0  0  0
   -4.4220   -3.0200   -3.6660 C   0  0  0  0  0  0  0  0  0  0  0  0
   -3.8790   -2.1390   -4.4290 N   0  0  0  0  0  0  0  0  0  0  0  0
   -3.8880   -3.3540   -2.4000 N   0  0  0  0  0  0  0  0  0  0  0  0
   -2.5720   -2.9490   -2.0170 C   0  0  0  0  0  0  0  0  0  0  0  0
   -2.2030   -3.4110   -0.6250 C   0  0  0  0  0  0  0  0  0  0  0  0
   -3.1150   -2.8790    0.4270 C   0  0  0  0  0  0  0  0  0  0  0  0
   -3.1490   -1.3770    0.5270 C   0  0  2  0  0  0  0  0  0  0  0  0
   -1.8090   -0.9040    0.8390 N   0  0  0  0  0  0  0  0  0  0  0  0
   -4.0570   -1.0610    1.6780 C   0  0  0  0  0  0  0  0  0  0  0  0
   -5.2750   -1.3570    1.6810 O   0  0  0  0  0  0  0  0  0  0  0  0
   -3.5340   -0.4190    2.7800 O   0  0  0  0  0  0  0  0  0  0  0  0
   -5.5740   -4.6760   -4.3650 H   0  0  0  0  0  0  0  0  0  0  0  0
   -6.4880   -3.1510   -4.2200 H   0  0  0  0  0  0  0  0  0  0  0  0
   -4.2440   -1.8750   -5.3550 H   0  0  0  0  0  0  0  0  0  0  0  0
   -4.4720   -3.9030   -1.7440 H   0  0  0  0  0  0  0  0  0  0  0  0
   -2.4830   -1.8520   -2.0690 H   0  0  0  0  0  0  0  0  0  0  0  0
   -1.8590   -3.3490   -2.7700 H   0  0  0  0  0  0  0  0  0  0  0  0
   -1.1360   -3.2360   -0.4010 H   0  0  0  0  0  0  0  0  0  0  0  0
   -2.3300   -4.5230   -0.6290 H   0  0  0  0  0  0  0  0  0  0  0  0
   -4.1460   -3.2790    0.2220 H   0  0  0  0  0  0  0  0  0  0  0  0
   -2.8230   -3.3520    1.3900 H   0  0  0  0  0  0  0  0  0  0  0  0
   -3.4700   -0.8840   -0.3880 H   0  0  0  0  0  0  0  0  0  0  0  0
   -1.2690   -1.2840    1.6420 H   0  0  0  0  0  0  0  0  0  0  0  0
  1  2  1  0  0  0  0
  2 12  1  1  0  0  0
  2  3  1  0  0  0  0
  3 14  1  0  0  0  0
  3 13  1  0  0  0  0
  4  3  1  0  0  0  0
  4 16  1  0  0  0  0
  5 18  1  0  0  0  0
  5  4  1  0  0  0  0
  6  5  1  0  0  0  0
  6 20  1  0  0  0  0
  7  6  1  0  0  0  0
  8  9  2  0  0  0  0
  8  2  1  0  0  0  0
 10  1  1  0  0  0  0
 11  1  1  0  0  0  0
 15  4  1  0  0  0  0
 17  5  1  0  0  0  0
 19  6  1  0  0  0  0
 21  7  1  0  0  0  0
 22  7  1  0  0  0  0
 23 24  1  0  0  0  0
 24 25  2  0  0  0  0
 24 26  1  0  0  0  0
 26 35  1  0  0  0  0
 26 27  1  0  0  0  0
 27 37  1  0  0  0  0
 27 28  1  0  0  0  0
 28 38  1  1  0  0  0
 28 29  1  0  0  0  0
 29  8  1  0  0  0  0
 30 28  1  0  0  0  0
 30 48  1  0  0  0  0
 31 30  2  0  0  0  0
 32 23  1  0  0  0  0
 33 23  1  0  0  0  0
 34 26  1  0  0  0  0
 36 27  1  0  0  0  0
 39 29  1  0  0  0  0
 40 41  1  0  0  0  0
 41 43  1  0  0  0  0
 42 41  2  0  0  0  0
 43 44  1  0  0  0  0
 43 55  1  0  0  0  0
 44 45  1  0  0  0  0
 45 58  1  0  0  0  0
 45 46  1  0  0  0  0
 46 47  1  0  0  0  0
 46 61  1  0  0  0  0
 47 62  1  6  0  0  0
 47 48  1  0  0  0  0
 47 49  1  0  0  0  0
 48 63  1  0  0  0  0
 49 50  2  0  0  0  0
 49 51  1  0  0  0  0
 52 40  1  0  0  0  0
 53 40  1  0  0  0  0
 54 42  1  0  0  0  0
 56 44  1  0  0  0  0
 57 44  1  0  0  0  0
 59 45  1  0  0  0  0
 60 46  1  0  0  0  0
M  END
$$$$
