KQS.pdb
 OpenBabel07022418503D

 51 50  0  0  1  0  0  0  0  0999 V2000
    1.9300   -2.3210    4.3570 N   0  0  0  0  0  0  0  0  0  0  0  0
    1.6850   -1.7260    3.0210 C   0  0  1  0  0  0  0  0  0  0  0  0
    2.0270   -2.7780    2.0590 C   0  0  0  0  0  0  0  0  0  0  0  0
    1.9230   -2.5670    0.6210 C   0  0  0  0  0  0  0  0  0  0  0  0
    2.7420   -1.4790    0.0210 C   0  0  0  0  0  0  0  0  0  0  0  0
    4.2420   -1.7130    0.2530 C   0  0  0  0  0  0  0  0  0  0  0  0
    5.0150   -0.6380   -0.3420 N   0  0  0  0  0  0  0  0  0  0  0  0
    0.2910   -1.2370    3.0160 C   0  0  0  0  0  0  0  0  0  0  0  0
   -0.4360   -1.4610    4.0480 O   0  0  0  0  0  0  0  0  0  0  0  0
    1.0450   -2.7190    4.7440 H   0  0  0  0  0  0  0  0  0  0  0  0
    2.6870   -3.0300    4.3050 H   0  0  0  0  0  0  0  0  0  0  0  0
    2.3340   -0.8290    3.0080 H   0  0  0  0  0  0  0  0  0  0  0  0
    1.4100   -3.6890    2.3200 H   0  0  0  0  0  0  0  0  0  0  0  0
    3.0790   -3.1180    2.2960 H   0  0  0  0  0  0  0  0  0  0  0  0
    0.8670   -2.5240    0.2970 H   0  0  0  0  0  0  0  0  0  0  0  0
    2.2940   -3.5200    0.1250 H   0  0  0  0  0  0  0  0  0  0  0  0
    2.6030   -1.5110   -1.0840 H   0  0  0  0  0  0  0  0  0  0  0  0
    2.5450   -0.4680    0.3540 H   0  0  0  0  0  0  0  0  0  0  0  0
    4.5790   -2.6530   -0.2330 H   0  0  0  0  0  0  0  0  0  0  0  0
    4.4590   -1.8270    1.3380 H   0  0  0  0  0  0  0  0  0  0  0  0
    4.6050    0.2570    0.0610 H   0  0  0  0  0  0  0  0  0  0  0  0
    5.9740   -0.6950    0.0960 H   0  0  0  0  0  0  0  0  0  0  0  0
   -0.4100    4.0470   -0.2780 N   0  0  0  0  0  0  0  0  0  0  0  0
   -0.9840    3.4550    0.8850 C   0  0  0  0  0  0  0  0  0  0  0  0
   -1.4220    4.0960    1.8570 O   0  0  0  0  0  0  0  0  0  0  0  0
   -1.0410    1.9500    0.8930 C   0  0  0  0  0  0  0  0  0  0  0  0
   -1.6610    1.4390    2.1590 C   0  0  0  0  0  0  0  0  0  0  0  0
   -1.6750   -0.0980    2.0590 C   0  0  2  0  0  0  0  0  0  0  0  0
   -0.3000   -0.5230    1.9230 N   0  0  0  0  0  0  0  0  0  0  0  0
   -2.5320   -0.4270    0.9010 C   0  0  0  0  0  0  0  0  0  0  0  0
   -3.7480   -0.1130    0.9520 O   0  0  0  0  0  0  0  0  0  0  0  0
    0.5980    4.0410   -0.4880 H   0  0  0  0  0  0  0  0  0  0  0  0
   -1.0600    4.5060   -0.9400 H   0  0  0  0  0  0  0  0  0  0  0  0
    0.0400    1.6500    0.8040 H   0  0  0  0  0  0  0  0  0  0  0  0
   -1.6000    1.5560    0.0290 H   0  0  0  0  0  0  0  0  0  0  0  0
   -1.0560    1.6610    3.0560 H   0  0  0  0  0  0  0  0  0  0  0  0
   -2.6900    1.8270    2.2270 H   0  0  0  0  0  0  0  0  0  0  0  0
   -2.1210   -0.4930    3.0140 H   0  0  0  0  0  0  0  0  0  0  0  0
    0.2730   -0.3380    1.0770 H   0  0  0  0  0  0  0  0  0  0  0  0
   -2.6120    0.7110   -2.4300 O   0  0  0  0  0  0  0  0  0  0  0  0
   -2.5820   -0.6620   -2.6550 C   0  0  0  0  0  0  0  0  0  0  0  0
   -2.9810   -1.3740   -1.3870 C   0  0  2  0  0  0  0  0  0  0  0  0
   -2.0900   -1.0760   -0.2790 N   0  0  0  0  0  0  0  0  0  0  0  0
   -3.0950   -2.8470   -1.5990 C   0  0  0  0  0  0  0  0  0  0  0  0
   -2.4670   -3.6820   -0.8690 O   0  0  0  0  0  0  0  0  0  0  0  0
   -3.8880   -3.3880   -2.5990 O   0  0  0  0  0  0  0  0  0  0  0  0
   -3.5820    0.9560   -2.3500 H   0  0  0  0  0  0  0  0  0  0  0  0
   -3.3530   -0.8910   -3.4110 H   0  0  0  0  0  0  0  0  0  0  0  0
   -1.5730   -0.9150   -3.0020 H   0  0  0  0  0  0  0  0  0  0  0  0
   -3.9900   -1.0060   -1.1100 H   0  0  0  0  0  0  0  0  0  0  0  0
   -1.0810   -1.3340   -0.3240 H   0  0  0  0  0  0  0  0  0  0  0  0
  1 10  1  0  0  0  0
  2 12  1  6  0  0  0
  2  1  1  0  0  0  0
  3 14  1  0  0  0  0
  3 13  1  0  0  0  0
  3  2  1  0  0  0  0
  4  3  1  0  0  0  0
  5  6  1  0  0  0  0
  5 18  1  0  0  0  0
  5  4  1  0  0  0  0
  6 20  1  0  0  0  0
  7 21  1  0  0  0  0
  7 22  1  0  0  0  0
  7  6  1  0  0  0  0
  8  2  1  0  0  0  0
  8  9  2  0  0  0  0
 11  1  1  0  0  0  0
 15  4  1  0  0  0  0
 16  4  1  0  0  0  0
 17  5  1  0  0  0  0
 19  6  1  0  0  0  0
 23 24  1  0  0  0  0
 24 26  1  0  0  0  0
 24 25  2  0  0  0  0
 26 27  1  0  0  0  0
 27 37  1  0  0  0  0
 27 36  1  0  0  0  0
 28 27  1  0  0  0  0
 28 38  1  1  0  0  0
 29 28  1  0  0  0  0
 29  8  1  0  0  0  0
 30 31  2  0  0  0  0
 30 28  1  0  0  0  0
 32 23  1  0  0  0  0
 33 23  1  0  0  0  0
 34 26  1  0  0  0  0
 35 26  1  0  0  0  0
 39 29  1  0  0  0  0
 40 47  1  0  0  0  0
 41 40  1  0  0  0  0
 41 42  1  0  0  0  0
 42 50  1  1  0  0  0
 42 43  1  0  0  0  0
 43 30  1  0  0  0  0
 44 42  1  0  0  0  0
 44 45  1  0  0  0  0
 46 44  2  0  0  0  0
 48 41  1  0  0  0  0
 49 41  1  0  0  0  0
 51 43  1  0  0  0  0
M  END
$$$$
