KQW.pdb
 OpenBabel07022418503D

 64 65  0  0  1  0  0  0  0  0999 V2000
    3.5170    3.1760    3.1860 N   0  0  0  0  0  0  0  0  0  0  0  0
    3.0750    2.0220    2.3530 C   0  0  1  0  0  0  0  0  0  0  0  0
    2.7140    0.9010    3.2630 C   0  0  0  0  0  0  0  0  0  0  0  0
    2.2510   -0.3610    2.6180 C   0  0  0  0  0  0  0  0  0  0  0  0
    1.9670   -1.4370    3.6330 C   0  0  0  0  0  0  0  0  0  0  0  0
    0.8900   -1.0590    4.6050 C   0  0  0  0  0  0  0  0  0  0  0  0
    0.6770   -2.1630    5.5370 N   0  0  0  0  0  0  0  0  0  0  0  0
    2.0940    2.4900    1.3970 C   0  0  0  0  0  0  0  0  0  0  0  0
    1.5870    3.6540    1.6200 O   0  0  0  0  0  0  0  0  0  0  0  0
    2.8380    3.3350    3.9620 H   0  0  0  0  0  0  0  0  0  0  0  0
    3.5590    3.9690    2.5010 H   0  0  0  0  0  0  0  0  0  0  0  0
    4.0160    1.7300    1.8030 H   0  0  0  0  0  0  0  0  0  0  0  0
    3.6680    0.6310    3.8120 H   0  0  0  0  0  0  0  0  0  0  0  0
    2.0360    1.2260    4.0920 H   0  0  0  0  0  0  0  0  0  0  0  0
    3.0780   -0.7380    1.9690 H   0  0  0  0  0  0  0  0  0  0  0  0
    1.3670   -0.2000    1.9540 H   0  0  0  0  0  0  0  0  0  0  0  0
    2.9000   -1.6460    4.2000 H   0  0  0  0  0  0  0  0  0  0  0  0
    1.7090   -2.3940    3.1170 H   0  0  0  0  0  0  0  0  0  0  0  0
    1.1440   -0.1620    5.1840 H   0  0  0  0  0  0  0  0  0  0  0  0
   -0.0660   -0.8640    4.0810 H   0  0  0  0  0  0  0  0  0  0  0  0
    1.5750   -2.3400    6.0370 H   0  0  0  0  0  0  0  0  0  0  0  0
    0.2700   -3.0020    5.0790 H   0  0  0  0  0  0  0  0  0  0  0  0
    1.8890   -0.3800   -3.6840 N   0  0  0  0  0  0  0  0  0  0  0  0
    1.2850    0.8570   -3.2800 C   0  0  0  0  0  0  0  0  0  0  0  0
    0.0570    0.9520   -3.4520 O   0  0  0  0  0  0  0  0  0  0  0  0
    2.0510    1.9580   -2.7020 C   0  0  0  0  0  0  0  0  0  0  0  0
    1.3000    2.9470   -1.9120 C   0  0  0  0  0  0  0  0  0  0  0  0
    0.6170    2.4580   -0.6610 C   0  0  2  0  0  0  0  0  0  0  0  0
    1.6090    1.8530    0.2340 N   0  0  0  0  0  0  0  0  0  0  0  0
   -0.6070    1.7010   -0.8190 C   0  0  0  0  0  0  0  0  0  0  0  0
   -1.6450    2.1920   -1.4080 O   0  0  0  0  0  0  0  0  0  0  0  0
    1.5900   -1.2350   -3.1730 H   0  0  0  0  0  0  0  0  0  0  0  0
    2.5910   -0.4590   -4.4410 H   0  0  0  0  0  0  0  0  0  0  0  0
    2.9870    1.5990   -2.1880 H   0  0  0  0  0  0  0  0  0  0  0  0
    2.4810    2.5230   -3.5950 H   0  0  0  0  0  0  0  0  0  0  0  0
    1.9110    3.8460   -1.6710 H   0  0  0  0  0  0  0  0  0  0  0  0
    0.4710    3.3410   -2.5670 H   0  0  0  0  0  0  0  0  0  0  0  0
    0.3450    3.4340   -0.1200 H   0  0  0  0  0  0  0  0  0  0  0  0
    1.9800    0.9250    0.0060 H   0  0  0  0  0  0  0  0  0  0  0  0
   -0.8070    0.3960   -0.3660 N   0  0  0  0  0  0  0  0  0  0  0  0
   -2.0210   -0.3880   -0.4960 C   0  0  1  0  0  0  0  0  0  0  0  0
   -1.6870   -1.5360   -1.3880 C   0  0  0  0  0  0  0  0  0  0  0  0
   -2.7500   -2.5040   -1.6590 C   0  0  0  0  0  0  0  0  0  0  0  0
   -3.5740   -2.4820   -2.7610 C   0  0  0  0  0  0  0  0  0  0  0  0
   -4.4320   -3.4830   -2.6690 N   0  0  0  0  0  0  0  0  0  0  0  0
   -4.2020   -4.1840   -1.5210 C   0  0  0  0  0  0  0  0  0  0  0  0
   -4.8230   -5.3080   -0.9940 C   0  0  0  0  0  0  0  0  0  0  0  0
   -4.3950   -5.8580    0.2000 C   0  0  0  0  0  0  0  0  0  0  0  0
   -3.3260   -5.2170    0.8170 C   0  0  0  0  0  0  0  0  0  0  0  0
   -2.7060   -4.1150    0.3170 C   0  0  0  0  0  0  0  0  0  0  0  0
   -3.1430   -3.5710   -0.8820 C   0  0  0  0  0  0  0  0  0  0  0  0
   -2.7320   -0.6380    0.7200 C   0  0  0  0  0  0  0  0  0  0  0  0
   -3.8310   -1.2140    0.7240 O   0  0  0  0  0  0  0  0  0  0  0  0
   -2.2320   -0.2510    1.9440 O   0  0  0  0  0  0  0  0  0  0  0  0
   -0.0340   -0.1100    0.1110 H   0  0  0  0  0  0  0  0  0  0  0  0
   -2.6970    0.2940   -1.1140 H   0  0  0  0  0  0  0  0  0  0  0  0
   -1.2430   -1.1700   -2.3660 H   0  0  0  0  0  0  0  0  0  0  0  0
   -0.8250   -2.1520   -0.9710 H   0  0  0  0  0  0  0  0  0  0  0  0
   -3.5620   -1.7760   -3.6010 H   0  0  0  0  0  0  0  0  0  0  0  0
   -5.1860   -3.7440   -3.3370 H   0  0  0  0  0  0  0  0  0  0  0  0
   -5.6530   -5.7570   -1.5310 H   0  0  0  0  0  0  0  0  0  0  0  0
   -4.8830   -6.7230    0.5910 H   0  0  0  0  0  0  0  0  0  0  0  0
   -2.9850   -5.6370    1.7450 H   0  0  0  0  0  0  0  0  0  0  0  0
   -1.8740   -3.6110    0.7880 H   0  0  0  0  0  0  0  0  0  0  0  0
  1 10  1  0  0  0  0
  2 12  1  6  0  0  0
  2  1  1  0  0  0  0
  2  3  1  0  0  0  0
  3 13  1  0  0  0  0
  3 14  1  0  0  0  0
  4  3  1  0  0  0  0
  4  5  1  0  0  0  0
  5 17  1  0  0  0  0
  5  6  1  0  0  0  0
  6 19  1  0  0  0  0
  6  7  1  0  0  0  0
  7 21  1  0  0  0  0
  8  9  2  0  0  0  0
  8  2  1  0  0  0  0
 11  1  1  0  0  0  0
 15  4  1  0  0  0  0
 16  4  1  0  0  0  0
 18  5  1  0  0  0  0
 20  6  1  0  0  0  0
 22  7  1  0  0  0  0
 23 24  1  0  0  0  0
 23 32  1  0  0  0  0
 24 26  1  0  0  0  0
 25 24  2  0  0  0  0
 26 34  1  0  0  0  0
 26 27  1  0  0  0  0
 27 36  1  0  0  0  0
 27 28  1  0  0  0  0
 28 38  1  1  0  0  0
 28 29  1  0  0  0  0
 29  8  1  0  0  0  0
 30 28  1  0  0  0  0
 30 40  1  0  0  0  0
 31 30  2  0  0  0  0
 33 23  1  0  0  0  0
 35 26  1  0  0  0  0
 37 27  1  0  0  0  0
 39 29  1  0  0  0  0
 40 55  1  0  0  0  0
 41 56  1  6  0  0  0
 41 40  1  0  0  0  0
 41 52  1  0  0  0  0
 42 58  1  0  0  0  0
 42 41  1  0  0  0  0
 43 42  1  0  0  0  0
 43 51  1  0  0  0  0
 44 45  1  0  0  0  0
 44 43  2  0  0  0  0
 45 46  1  0  0  0  0
 46 47  2  0  0  0  0
 46 51  1  0  0  0  0
 47 48  1  0  0  0  0
 48 62  1  0  0  0  0
 48 49  2  0  0  0  0
 49 63  1  0  0  0  0
 50 64  1  0  0  0  0
 50 49  1  0  0  0  0
 51 50  2  0  0  0  0
 52 53  2  0  0  0  0
 52 54  1  0  0  0  0
 57 42  1  0  0  0  0
 59 44  1  0  0  0  0
 60 45  1  0  0  0  0
 61 47  1  0  0  0  0
M  END
$$$$
