KRI.pdb
 OpenBabel07022418493D

 65 64  0  0  1  0  0  0  0  0999 V2000
    4.7060   -0.9670   -0.7750 N   0  0  0  0  0  0  0  0  0  0  0  0
    3.3210   -0.6110   -0.9210 C   0  0  1  0  0  0  0  0  0  0  0  0
    2.5180   -1.6070   -1.6780 C   0  0  0  0  0  0  0  0  0  0  0  0
    2.4970   -2.9820   -1.0600 C   0  0  0  0  0  0  0  0  0  0  0  0
    1.6480   -3.8550   -1.9580 C   0  0  0  0  0  0  0  0  0  0  0  0
    1.5570   -5.2700   -1.4360 C   0  0  0  0  0  0  0  0  0  0  0  0
    0.7460   -6.1080   -2.2910 N   0  0  0  0  0  0  0  0  0  0  0  0
    2.6820   -0.2130    0.3560 C   0  0  0  0  0  0  0  0  0  0  0  0
    3.3280   -0.2420    1.4400 O   0  0  0  0  0  0  0  0  0  0  0  0
    5.0310   -1.7110   -1.4040 H   0  0  0  0  0  0  0  0  0  0  0  0
    5.3410   -0.1450   -0.9000 H   0  0  0  0  0  0  0  0  0  0  0  0
    3.3130    0.3340   -1.5450 H   0  0  0  0  0  0  0  0  0  0  0  0
    2.8280   -1.7210   -2.7280 H   0  0  0  0  0  0  0  0  0  0  0  0
    1.4520   -1.2680   -1.7150 H   0  0  0  0  0  0  0  0  0  0  0  0
    2.0330   -2.9880   -0.0610 H   0  0  0  0  0  0  0  0  0  0  0  0
    3.5400   -3.3840   -1.0380 H   0  0  0  0  0  0  0  0  0  0  0  0
    2.0530   -3.9180   -2.9890 H   0  0  0  0  0  0  0  0  0  0  0  0
    0.6220   -3.4560   -2.0480 H   0  0  0  0  0  0  0  0  0  0  0  0
    1.2210   -5.3040   -0.3930 H   0  0  0  0  0  0  0  0  0  0  0  0
    2.5960   -5.6850   -1.4930 H   0  0  0  0  0  0  0  0  0  0  0  0
    0.3280   -6.8560   -1.6880 H   0  0  0  0  0  0  0  0  0  0  0  0
    1.3330   -6.5630   -3.0440 H   0  0  0  0  0  0  0  0  0  0  0  0
   -1.9140    6.7890    4.8270 N   0  0  0  0  0  0  0  0  0  0  0  0
   -1.6920    6.0400    3.6270 C   0  0  0  0  0  0  0  0  0  0  0  0
   -1.8070    6.6430    2.4970 N   0  0  0  0  0  0  0  0  0  0  0  0
   -1.3510    4.6550    3.6750 N   0  0  0  0  0  0  0  0  0  0  0  0
   -0.6830    4.0740    2.5480 C   0  0  0  0  0  0  0  0  0  0  0  0
   -0.3910    2.5930    2.7590 C   0  0  0  0  0  0  0  0  0  0  0  0
    0.3000    2.0660    1.5510 C   0  0  0  0  0  0  0  0  0  0  0  0
    0.6610    0.6200    1.6280 C   0  0  2  0  0  0  0  0  0  0  0  0
    1.3380    0.2090    0.3890 N   0  0  0  0  0  0  0  0  0  0  0  0
   -0.4730   -0.2880    1.9100 C   0  0  0  0  0  0  0  0  0  0  0  0
   -1.1920   -0.1370    2.9550 O   0  0  0  0  0  0  0  0  0  0  0  0
   -2.7850    7.3560    4.9640 H   0  0  0  0  0  0  0  0  0  0  0  0
   -1.2270    6.8060    5.6150 H   0  0  0  0  0  0  0  0  0  0  0  0
   -2.0560    7.6500    2.4870 H   0  0  0  0  0  0  0  0  0  0  0  0
   -1.6110    4.1390    4.5400 H   0  0  0  0  0  0  0  0  0  0  0  0
   -1.3280    4.2240    1.6580 H   0  0  0  0  0  0  0  0  0  0  0  0
    0.2760    4.6040    2.4090 H   0  0  0  0  0  0  0  0  0  0  0  0
    0.2060    2.4610    3.6610 H   0  0  0  0  0  0  0  0  0  0  0  0
   -1.3990    2.1370    2.9500 H   0  0  0  0  0  0  0  0  0  0  0  0
    1.2730    2.6260    1.4750 H   0  0  0  0  0  0  0  0  0  0  0  0
   -0.2410    2.3150    0.6140 H   0  0  0  0  0  0  0  0  0  0  0  0
    1.3830    0.5020    2.4840 H   0  0  0  0  0  0  0  0  0  0  0  0
    0.7980    0.2320   -0.4990 H   0  0  0  0  0  0  0  0  0  0  0  0
   -3.0250   -3.1450   -2.3200 C   0  0  0  0  0  0  0  0  0  0  0  0
   -2.0800   -2.8510   -1.2000 C   0  0  0  0  0  0  0  0  0  0  0  0
   -2.7910   -2.3810    0.0500 C   0  0  2  0  0  0  0  0  0  0  0  0
   -3.5770   -1.1190   -0.2010 C   0  0  0  0  0  0  0  0  0  0  0  0
   -1.8380   -2.2610    1.1960 C   0  0  2  0  0  0  0  0  0  0  0  0
   -0.7600   -1.3430    0.9990 N   0  0  0  0  0  0  0  0  0  0  0  0
   -1.3460   -3.6480    1.5210 C   0  0  0  0  0  0  0  0  0  0  0  0
   -2.1350   -4.5810    1.7160 O   0  0  0  0  0  0  0  0  0  0  0  0
    0.0200   -3.8460    1.5960 O   0  0  0  0  0  0  0  0  0  0  0  0
   -4.0990   -2.9940   -2.0450 H   0  0  0  0  0  0  0  0  0  0  0  0
   -2.9330   -4.2140   -2.6040 H   0  0  0  0  0  0  0  0  0  0  0  0
   -2.7760   -2.5600   -3.2510 H   0  0  0  0  0  0  0  0  0  0  0  0
   -1.3990   -2.0090   -1.5190 H   0  0  0  0  0  0  0  0  0  0  0  0
   -1.4830   -3.7520   -0.9370 H   0  0  0  0  0  0  0  0  0  0  0  0
   -3.5240   -3.1730    0.3110 H   0  0  0  0  0  0  0  0  0  0  0  0
   -3.8230   -1.0340   -1.2790 H   0  0  0  0  0  0  0  0  0  0  0  0
   -3.0150   -0.2050    0.0670 H   0  0  0  0  0  0  0  0  0  0  0  0
   -4.5510   -1.1120    0.3450 H   0  0  0  0  0  0  0  0  0  0  0  0
   -2.3670   -1.9500    2.1450 H   0  0  0  0  0  0  0  0  0  0  0  0
   -0.1560   -1.4390    0.1640 H   0  0  0  0  0  0  0  0  0  0  0  0
  2 12  1  6  0  0  0
  2  1  1  0  0  0  0
  2  8  1  0  0  0  0
  3  4  1  0  0  0  0
  3  2  1  0  0  0  0
  4 16  1  0  0  0  0
  4 15  1  0  0  0  0
  5  6  1  0  0  0  0
  5  4  1  0  0  0  0
  6 19  1  0  0  0  0
  7 21  1  0  0  0  0
  7  6  1  0  0  0  0
  8 31  1  0  0  0  0
  8  9  2  0  0  0  0
 10  1  1  0  0  0  0
 11  1  1  0  0  0  0
 13  3  1  0  0  0  0
 14  3  1  0  0  0  0
 17  5  1  0  0  0  0
 18  5  1  0  0  0  0
 20  6  1  0  0  0  0
 22  7  1  0  0  0  0
 23 34  1  0  0  0  0
 23 35  1  0  0  0  0
 24 26  1  0  0  0  0
 24 23  1  0  0  0  0
 25 24  2  0  0  0  0
 26 37  1  0  0  0  0
 27 28  1  0  0  0  0
 27 26  1  0  0  0  0
 28 41  1  0  0  0  0
 28 40  1  0  0  0  0
 29 30  1  0  0  0  0
 29 28  1  0  0  0  0
 30 32  1  0  0  0  0
 30 44  1  1  0  0  0
 31 30  1  0  0  0  0
 32 33  2  0  0  0  0
 36 25  1  0  0  0  0
 38 27  1  0  0  0  0
 39 27  1  0  0  0  0
 42 29  1  0  0  0  0
 43 29  1  0  0  0  0
 45 31  1  0  0  0  0
 46 55  1  0  0  0  0
 46 47  1  0  0  0  0
 47 59  1  0  0  0  0
 47 48  1  0  0  0  0
 48 60  1  1  0  0  0
 48 50  1  0  0  0  0
 49 48  1  0  0  0  0
 49 62  1  0  0  0  0
 49 63  1  0  0  0  0
 50 52  1  0  0  0  0
 50 64  1  1  0  0  0
 51 50  1  0  0  0  0
 51 32  1  0  0  0  0
 52 54  2  0  0  0  0
 52 53  1  0  0  0  0
 56 46  1  0  0  0  0
 57 46  1  0  0  0  0
 58 47  1  0  0  0  0
 61 49  1  0  0  0  0
 65 51  1  0  0  0  0
M  END
$$$$
