KRK.pdb
 OpenBabel07022418493D

 67 66  0  0  1  0  0  0  0  0999 V2000
    1.0030    0.6580    4.0820 N   0  0  0  0  0  0  0  0  0  0  0  0
    0.0330    1.6150    3.6650 C   0  0  1  0  0  0  0  0  0  0  0  0
    0.5820    2.9920    3.5080 C   0  0  0  0  0  0  0  0  0  0  0  0
    1.6680    3.1680    2.5070 C   0  0  0  0  0  0  0  0  0  0  0  0
    2.9110    2.3810    2.7350 C   0  0  0  0  0  0  0  0  0  0  0  0
    3.9170    2.7120    1.6190 C   0  0  0  0  0  0  0  0  0  0  0  0
    4.1930    4.1390    1.6830 N   0  0  0  0  0  0  0  0  0  0  0  0
   -0.7420    1.1780    2.4790 C   0  0  0  0  0  0  0  0  0  0  0  0
   -1.6570    1.9270    2.0390 O   0  0  0  0  0  0  0  0  0  0  0  0
    1.5440    1.0020    4.9050 H   0  0  0  0  0  0  0  0  0  0  0  0
    0.6420   -0.3000    4.2070 H   0  0  0  0  0  0  0  0  0  0  0  0
   -0.7280    1.6800    4.5020 H   0  0  0  0  0  0  0  0  0  0  0  0
    0.9880    3.3910    4.4870 H   0  0  0  0  0  0  0  0  0  0  0  0
   -0.2580    3.7090    3.2860 H   0  0  0  0  0  0  0  0  0  0  0  0
    1.2260    2.9650    1.4900 H   0  0  0  0  0  0  0  0  0  0  0  0
    1.9460    4.2510    2.4750 H   0  0  0  0  0  0  0  0  0  0  0  0
    3.3860    2.6830    3.6880 H   0  0  0  0  0  0  0  0  0  0  0  0
    2.7620    1.2860    2.7720 H   0  0  0  0  0  0  0  0  0  0  0  0
    3.5210    2.4670    0.6280 H   0  0  0  0  0  0  0  0  0  0  0  0
    4.8350    2.1460    1.8130 H   0  0  0  0  0  0  0  0  0  0  0  0
    4.8330    4.3610    2.4800 H   0  0  0  0  0  0  0  0  0  0  0  0
    4.6380    4.4480    0.7930 H   0  0  0  0  0  0  0  0  0  0  0  0
   -1.5850    0.5090   -4.3890 N   0  0  0  0  0  0  0  0  0  0  0  0
   -0.5330    1.0090   -3.5880 C   0  0  0  0  0  0  0  0  0  0  0  0
   -0.4300    2.2660   -3.3250 N   0  0  0  0  0  0  0  0  0  0  0  0
    0.4350    0.1020   -3.0620 N   0  0  0  0  0  0  0  0  0  0  0  0
    1.2550    0.5990   -1.9530 C   0  0  0  0  0  0  0  0  0  0  0  0
    0.3070    0.7600   -0.7560 C   0  0  0  0  0  0  0  0  0  0  0  0
   -0.2550   -0.6110   -0.4910 C   0  0  0  0  0  0  0  0  0  0  0  0
   -1.2050   -0.5220    0.6850 C   0  0  2  0  0  0  0  0  0  0  0  0
   -0.4760   -0.0470    1.8420 N   0  0  0  0  0  0  0  0  0  0  0  0
   -1.8490   -1.8380    0.9560 C   0  0  0  0  0  0  0  0  0  0  0  0
   -1.6720   -2.3530    2.0630 O   0  0  0  0  0  0  0  0  0  0  0  0
   -2.1290    1.2090   -4.9750 H   0  0  0  0  0  0  0  0  0  0  0  0
   -1.7990   -0.4960   -4.3900 H   0  0  0  0  0  0  0  0  0  0  0  0
   -1.1430    2.9200   -3.7160 H   0  0  0  0  0  0  0  0  0  0  0  0
    0.5550   -0.8630   -3.4420 H   0  0  0  0  0  0  0  0  0  0  0  0
    2.0300   -0.1510   -1.7380 H   0  0  0  0  0  0  0  0  0  0  0  0
    1.7320    1.5400   -2.2350 H   0  0  0  0  0  0  0  0  0  0  0  0
    0.9770    1.0480    0.0890 H   0  0  0  0  0  0  0  0  0  0  0  0
   -0.4490    1.5240   -0.9600 H   0  0  0  0  0  0  0  0  0  0  0  0
    0.6070   -1.2820   -0.2680 H   0  0  0  0  0  0  0  0  0  0  0  0
   -0.8130   -0.9350   -1.3890 H   0  0  0  0  0  0  0  0  0  0  0  0
   -1.9900    0.2000    0.4110 H   0  0  0  0  0  0  0  0  0  0  0  0
    0.2940   -0.6450    2.2310 H   0  0  0  0  0  0  0  0  0  0  0  0
   -2.6430   -2.4830   -0.0280 N   0  0  0  0  0  0  0  0  0  0  0  0
   -3.3000   -3.7430    0.1110 C   0  0  1  0  0  0  0  0  0  0  0  0
   -2.5010   -4.8240    0.8010 C   0  0  0  0  0  0  0  0  0  0  0  0
   -1.2560   -5.2480    0.1450 C   0  0  0  0  0  0  0  0  0  0  0  0
   -0.1890   -4.2590   -0.1080 C   0  0  0  0  0  0  0  0  0  0  0  0
    1.0060   -4.9750   -0.7820 C   0  0  0  0  0  0  0  0  0  0  0  0
    0.5790   -5.5560   -2.0210 N   0  0  0  0  0  0  0  0  0  0  0  0
   -4.6690   -3.6760    0.6580 C   0  0  0  0  0  0  0  0  0  0  0  0
   -5.1560   -2.5570    0.9570 O   0  0  0  0  0  0  0  0  0  0  0  0
   -5.4650   -4.7870    0.8680 O   0  0  0  0  0  0  0  0  0  0  0  0
   -2.7330   -1.9440   -0.9430 H   0  0  0  0  0  0  0  0  0  0  0  0
   -3.3820   -4.1850   -0.9580 H   0  0  0  0  0  0  0  0  0  0  0  0
   -3.1440   -5.7570    0.9120 H   0  0  0  0  0  0  0  0  0  0  0  0
   -2.2950   -4.5390    1.8510 H   0  0  0  0  0  0  0  0  0  0  0  0
   -0.8460   -6.1680    0.6560 H   0  0  0  0  0  0  0  0  0  0  0  0
   -1.5620   -5.6720   -0.8690 H   0  0  0  0  0  0  0  0  0  0  0  0
    0.2210   -3.8810    0.8410 H   0  0  0  0  0  0  0  0  0  0  0  0
   -0.4560   -3.4770   -0.8500 H   0  0  0  0  0  0  0  0  0  0  0  0
    1.8170   -4.2560   -0.9820 H   0  0  0  0  0  0  0  0  0  0  0  0
    1.4030   -5.7270   -0.0670 H   0  0  0  0  0  0  0  0  0  0  0  0
    1.3200   -5.5560   -2.7620 H   0  0  0  0  0  0  0  0  0  0  0  0
   -0.2160   -4.9820   -2.4060 H   0  0  0  0  0  0  0  0  0  0  0  0
  1 11  1  0  0  0  0
  1 10  1  0  0  0  0
  2  1  1  0  0  0  0
  2 12  1  1  0  0  0
  3  2  1  0  0  0  0
  3 13  1  0  0  0  0
  4  5  1  0  0  0  0
  4  3  1  0  0  0  0
  5 18  1  0  0  0  0
  5 17  1  0  0  0  0
  6  7  1  0  0  0  0
  6 20  1  0  0  0  0
  6  5  1  0  0  0  0
  7 21  1  0  0  0  0
  8  2  1  0  0  0  0
  9  8  2  0  0  0  0
 14  3  1  0  0  0  0
 15  4  1  0  0  0  0
 16  4  1  0  0  0  0
 19  6  1  0  0  0  0
 22  7  1  0  0  0  0
 23 24  1  0  0  0  0
 24 25  2  0  0  0  0
 24 26  1  0  0  0  0
 26 27  1  0  0  0  0
 27 38  1  0  0  0  0
 27 28  1  0  0  0  0
 28 29  1  0  0  0  0
 28 40  1  0  0  0  0
 29 42  1  0  0  0  0
 29 30  1  0  0  0  0
 30 44  1  6  0  0  0
 30 32  1  0  0  0  0
 30 31  1  0  0  0  0
 31 45  1  0  0  0  0
 31  8  1  0  0  0  0
 32 33  2  0  0  0  0
 34 23  1  0  0  0  0
 35 23  1  0  0  0  0
 36 25  1  0  0  0  0
 37 26  1  0  0  0  0
 39 27  1  0  0  0  0
 41 28  1  0  0  0  0
 43 29  1  0  0  0  0
 46 47  1  0  0  0  0
 46 32  1  0  0  0  0
 47 57  1  6  0  0  0
 47 53  1  0  0  0  0
 47 48  1  0  0  0  0
 48 58  1  0  0  0  0
 48 59  1  0  0  0  0
 49 60  1  0  0  0  0
 49 48  1  0  0  0  0
 50 49  1  0  0  0  0
 50 62  1  0  0  0  0
 51 50  1  0  0  0  0
 51 65  1  0  0  0  0
 52 51  1  0  0  0  0
 53 55  2  0  0  0  0
 53 54  1  0  0  0  0
 56 46  1  0  0  0  0
 61 49  1  0  0  0  0
 63 50  1  0  0  0  0
 64 51  1  0  0  0  0
 66 52  1  0  0  0  0
 67 52  1  0  0  0  0
M  END
$$$$
