KRL.pdb
 OpenBabel07022418493D

 65 64  0  0  1  0  0  0  0  0999 V2000
   -0.0730    1.2010    4.2690 N   0  0  0  0  0  0  0  0  0  0  0  0
    0.3210    1.2270    2.8310 C   0  0  1  0  0  0  0  0  0  0  0  0
    1.6080    0.5020    2.7710 C   0  0  0  0  0  0  0  0  0  0  0  0
    2.2680    0.3930    1.4360 C   0  0  0  0  0  0  0  0  0  0  0  0
    3.5990   -0.3630    1.6000 C   0  0  0  0  0  0  0  0  0  0  0  0
    4.3010   -0.4900    0.2790 C   0  0  0  0  0  0  0  0  0  0  0  0
    5.5420   -1.2100    0.5250 N   0  0  0  0  0  0  0  0  0  0  0  0
   -0.8120    0.7280    2.0620 C   0  0  0  0  0  0  0  0  0  0  0  0
   -1.8080    0.2360    2.7110 O   0  0  0  0  0  0  0  0  0  0  0  0
    0.8010    1.2560    4.8340 H   0  0  0  0  0  0  0  0  0  0  0  0
   -0.4870    0.2580    4.4430 H   0  0  0  0  0  0  0  0  0  0  0  0
    0.5360    2.3120    2.6370 H   0  0  0  0  0  0  0  0  0  0  0  0
    1.5820   -0.4890    3.2990 H   0  0  0  0  0  0  0  0  0  0  0  0
    2.3360    1.0940    3.4180 H   0  0  0  0  0  0  0  0  0  0  0  0
    2.5190    1.4430    1.1110 H   0  0  0  0  0  0  0  0  0  0  0  0
    1.6930   -0.0580    0.6330 H   0  0  0  0  0  0  0  0  0  0  0  0
    4.2650    0.1430    2.3090 H   0  0  0  0  0  0  0  0  0  0  0  0
    3.3650   -1.3860    1.9650 H   0  0  0  0  0  0  0  0  0  0  0  0
    4.5130    0.4960   -0.1800 H   0  0  0  0  0  0  0  0  0  0  0  0
    3.7260   -1.0770   -0.4640 H   0  0  0  0  0  0  0  0  0  0  0  0
    6.3860   -0.6550    0.3160 H   0  0  0  0  0  0  0  0  0  0  0  0
    5.5410   -2.1660    0.1360 H   0  0  0  0  0  0  0  0  0  0  0  0
   -2.4890    3.3490    3.0870 N   0  0  0  0  0  0  0  0  0  0  0  0
   -2.8280    3.4060    1.7130 C   0  0  0  0  0  0  0  0  0  0  0  0
   -2.1920    4.2350    0.9650 N   0  0  0  0  0  0  0  0  0  0  0  0
   -3.8400    2.5990    1.1160 N   0  0  0  0  0  0  0  0  0  0  0  0
   -4.1110    2.7730   -0.2870 C   0  0  0  0  0  0  0  0  0  0  0  0
   -3.0210    2.3000   -1.1560 C   0  0  0  0  0  0  0  0  0  0  0  0
   -2.6260    0.8990   -1.1570 C   0  0  0  0  0  0  0  0  0  0  0  0
   -2.1240    0.2250    0.0420 C   0  0  2  0  0  0  0  0  0  0  0  0
   -0.9420    0.7300    0.6560 N   0  0  0  0  0  0  0  0  0  0  0  0
   -2.0200   -1.2410   -0.3220 C   0  0  0  0  0  0  0  0  0  0  0  0
   -2.9740   -1.7620   -0.9500 O   0  0  0  0  0  0  0  0  0  0  0  0
   -3.1360    3.0310    3.8300 H   0  0  0  0  0  0  0  0  0  0  0  0
   -1.5330    3.6440    3.3760 H   0  0  0  0  0  0  0  0  0  0  0  0
   -1.4460    4.8740    1.2710 H   0  0  0  0  0  0  0  0  0  0  0  0
   -4.3430    1.9160    1.7390 H   0  0  0  0  0  0  0  0  0  0  0  0
   -4.2400    3.8940   -0.4110 H   0  0  0  0  0  0  0  0  0  0  0  0
   -5.1210    2.3880   -0.5680 H   0  0  0  0  0  0  0  0  0  0  0  0
   -3.2740    2.5860   -2.2300 H   0  0  0  0  0  0  0  0  0  0  0  0
   -2.0860    2.9180   -0.9820 H   0  0  0  0  0  0  0  0  0  0  0  0
   -3.4990    0.2750   -1.5400 H   0  0  0  0  0  0  0  0  0  0  0  0
   -1.8510    0.7190   -1.9740 H   0  0  0  0  0  0  0  0  0  0  0  0
   -2.9390    0.2340    0.8400 H   0  0  0  0  0  0  0  0  0  0  0  0
   -0.1720    1.1210    0.0630 H   0  0  0  0  0  0  0  0  0  0  0  0
    1.9750   -4.8160   -2.5980 C   0  0  0  0  0  0  0  0  0  0  0  0
    0.7490   -4.9020   -1.6770 C   0  0  0  0  0  0  0  0  0  0  0  0
   -0.3760   -5.4160   -2.5620 C   0  0  0  0  0  0  0  0  0  0  0  0
    0.4450   -3.5110   -1.2170 C   0  0  0  0  0  0  0  0  0  0  0  0
   -0.7430   -3.4130   -0.2960 C   0  0  2  0  0  0  0  0  0  0  0  0
   -0.8800   -1.9800    0.0430 N   0  0  0  0  0  0  0  0  0  0  0  0
   -0.5860   -4.1970    0.9310 C   0  0  0  0  0  0  0  0  0  0  0  0
   -0.4720   -5.4370    0.8730 O   0  0  0  0  0  0  0  0  0  0  0  0
   -0.5620   -3.5820    2.1670 O   0  0  0  0  0  0  0  0  0  0  0  0
    2.0450   -3.8140   -3.0690 H   0  0  0  0  0  0  0  0  0  0  0  0
    1.9650   -5.6060   -3.3660 H   0  0  0  0  0  0  0  0  0  0  0  0
    2.9120   -4.9630   -1.9960 H   0  0  0  0  0  0  0  0  0  0  0  0
    1.0280   -5.5960   -0.8790 H   0  0  0  0  0  0  0  0  0  0  0  0
   -1.1090   -5.9190   -1.8980 H   0  0  0  0  0  0  0  0  0  0  0  0
   -0.8090   -4.5600   -3.1180 H   0  0  0  0  0  0  0  0  0  0  0  0
    0.0370   -6.1510   -3.3040 H   0  0  0  0  0  0  0  0  0  0  0  0
    1.3660   -3.0770   -0.7330 H   0  0  0  0  0  0  0  0  0  0  0  0
    0.3080   -2.8890   -2.1340 H   0  0  0  0  0  0  0  0  0  0  0  0
   -1.6500   -3.6690   -0.8720 H   0  0  0  0  0  0  0  0  0  0  0  0
   -0.1350   -1.4870    0.5690 H   0  0  0  0  0  0  0  0  0  0  0  0
  1 11  1  0  0  0  0
  1 10  1  0  0  0  0
  2 12  1  6  0  0  0
  2  1  1  0  0  0  0
  3  2  1  0  0  0  0
  3 13  1  0  0  0  0
  3 14  1  0  0  0  0
  4  5  1  0  0  0  0
  4  3  1  0  0  0  0
  5 18  1  0  0  0  0
  5 17  1  0  0  0  0
  6  7  1  0  0  0  0
  6  5  1  0  0  0  0
  8  9  2  0  0  0  0
  8  2  1  0  0  0  0
 15  4  1  0  0  0  0
 16  4  1  0  0  0  0
 19  6  1  0  0  0  0
 20  6  1  0  0  0  0
 21  7  1  0  0  0  0
 22  7  1  0  0  0  0
 23 35  1  0  0  0  0
 23 34  1  0  0  0  0
 24 23  1  0  0  0  0
 25 36  1  0  0  0  0
 25 24  2  0  0  0  0
 26 24  1  0  0  0  0
 26 37  1  0  0  0  0
 27 26  1  0  0  0  0
 28 41  1  0  0  0  0
 28 27  1  0  0  0  0
 29 28  1  0  0  0  0
 29 30  1  0  0  0  0
 30 31  1  0  0  0  0
 30 44  1  1  0  0  0
 31  8  1  0  0  0  0
 32 30  1  0  0  0  0
 32 51  1  0  0  0  0
 33 32  2  0  0  0  0
 38 27  1  0  0  0  0
 39 27  1  0  0  0  0
 40 28  1  0  0  0  0
 42 29  1  0  0  0  0
 43 29  1  0  0  0  0
 45 31  1  0  0  0  0
 46 57  1  0  0  0  0
 46 47  1  0  0  0  0
 47 49  1  0  0  0  0
 47 58  1  0  0  0  0
 48 59  1  0  0  0  0
 48 47  1  0  0  0  0
 49 62  1  0  0  0  0
 49 50  1  0  0  0  0
 50 64  1  6  0  0  0
 50 51  1  0  0  0  0
 50 52  1  0  0  0  0
 51 65  1  0  0  0  0
 52 54  1  0  0  0  0
 53 52  2  0  0  0  0
 55 46  1  0  0  0  0
 56 46  1  0  0  0  0
 60 48  1  0  0  0  0
 61 48  1  0  0  0  0
 63 49  1  0  0  0  0
M  END
$$$$
