KRV.pdb
 OpenBabel07022418493D

 62 61  0  0  1  0  0  0  0  0999 V2000
   -0.2000   -2.9770    3.2440 N   0  0  0  0  0  0  0  0  0  0  0  0
   -0.4700   -1.6340    3.7870 C   0  0  1  0  0  0  0  0  0  0  0  0
    0.9350   -1.0790    4.0640 C   0  0  0  0  0  0  0  0  0  0  0  0
    0.8530    0.3230    4.6240 C   0  0  0  0  0  0  0  0  0  0  0  0
    2.2660    0.8660    4.8740 C   0  0  0  0  0  0  0  0  0  0  0  0
    2.1780    2.2580    5.4280 C   0  0  0  0  0  0  0  0  0  0  0  0
    1.4810    3.1320    4.4890 N   0  0  0  0  0  0  0  0  0  0  0  0
   -1.0870   -0.7540    2.7880 C   0  0  0  0  0  0  0  0  0  0  0  0
   -1.7760    0.2570    3.0580 O   0  0  0  0  0  0  0  0  0  0  0  0
   -1.0520   -3.4790    2.9760 H   0  0  0  0  0  0  0  0  0  0  0  0
    0.5530   -3.0000    2.5560 H   0  0  0  0  0  0  0  0  0  0  0  0
   -1.0400   -1.7210    4.7050 H   0  0  0  0  0  0  0  0  0  0  0  0
    1.4340   -1.6990    4.8620 H   0  0  0  0  0  0  0  0  0  0  0  0
    1.5340   -1.1450    3.1510 H   0  0  0  0  0  0  0  0  0  0  0  0
    0.2970    0.3280    5.5970 H   0  0  0  0  0  0  0  0  0  0  0  0
    0.2810    0.9710    3.9310 H   0  0  0  0  0  0  0  0  0  0  0  0
    2.7510    0.2070    5.6300 H   0  0  0  0  0  0  0  0  0  0  0  0
    2.8240    0.8200    3.9200 H   0  0  0  0  0  0  0  0  0  0  0  0
    3.2150    2.6590    5.6360 H   0  0  0  0  0  0  0  0  0  0  0  0
    1.6020    2.2600    6.3710 H   0  0  0  0  0  0  0  0  0  0  0  0
    1.9730    4.0510    4.3920 H   0  0  0  0  0  0  0  0  0  0  0  0
    1.3540    2.6710    3.5550 H   0  0  0  0  0  0  0  0  0  0  0  0
    2.8370    0.3420   -2.0810 N   0  0  0  0  0  0  0  0  0  0  0  0
    2.1540    1.4920   -1.6000 C   0  0  0  0  0  0  0  0  0  0  0  0
    2.4780    1.9790   -0.4400 N   0  0  0  0  0  0  0  0  0  0  0  0
    1.1270    2.1330   -2.3430 N   0  0  0  0  0  0  0  0  0  0  0  0
   -0.0580    2.6610   -1.7650 C   0  0  0  0  0  0  0  0  0  0  0  0
   -1.0380    1.6240   -1.2380 C   0  0  0  0  0  0  0  0  0  0  0  0
   -0.4730    0.7490   -0.1750 C   0  0  0  0  0  0  0  0  0  0  0  0
   -1.4900   -0.2180    0.3880 C   0  0  2  0  0  0  0  0  0  0  0  0
   -0.8950   -1.0480    1.4090 N   0  0  0  0  0  0  0  0  0  0  0  0
   -2.0340   -1.0600   -0.6770 C   0  0  0  0  0  0  0  0  0  0  0  0
   -2.7360   -0.5400   -1.6210 O   0  0  0  0  0  0  0  0  0  0  0  0
    2.3630   -0.5830   -2.1410 H   0  0  0  0  0  0  0  0  0  0  0  0
    3.8530    0.4280   -2.3880 H   0  0  0  0  0  0  0  0  0  0  0  0
    2.0370    2.8040   -0.0210 H   0  0  0  0  0  0  0  0  0  0  0  0
    1.2940    2.1980   -3.3950 H   0  0  0  0  0  0  0  0  0  0  0  0
   -0.6330    3.2360   -2.5380 H   0  0  0  0  0  0  0  0  0  0  0  0
    0.1870    3.3840   -0.9540 H   0  0  0  0  0  0  0  0  0  0  0  0
   -1.2840    1.0250   -2.1760 H   0  0  0  0  0  0  0  0  0  0  0  0
   -1.9710    2.1280   -0.9820 H   0  0  0  0  0  0  0  0  0  0  0  0
    0.3750    0.1710   -0.6420 H   0  0  0  0  0  0  0  0  0  0  0  0
   -0.0030    1.3700    0.6180 H   0  0  0  0  0  0  0  0  0  0  0  0
   -2.2790    0.4010    0.9090 H   0  0  0  0  0  0  0  0  0  0  0  0
   -0.3120   -1.8520    1.1290 H   0  0  0  0  0  0  0  0  0  0  0  0
   -2.0060   -4.4330   -3.9440 C   0  0  0  0  0  0  0  0  0  0  0  0
   -1.3460   -3.6490   -2.8290 C   0  0  0  0  0  0  0  0  0  0  0  0
   -0.6890   -2.4490   -3.4880 C   0  0  0  0  0  0  0  0  0  0  0  0
   -2.4340   -3.2250   -1.8720 C   0  0  2  0  0  0  0  0  0  0  0  0
   -1.8410   -2.4600   -0.7510 N   0  0  0  0  0  0  0  0  0  0  0  0
   -3.0810   -4.4180   -1.3160 C   0  0  0  0  0  0  0  0  0  0  0  0
   -3.0640   -4.6350   -0.0810 O   0  0  0  0  0  0  0  0  0  0  0  0
   -3.7310   -5.3340   -2.1540 O   0  0  0  0  0  0  0  0  0  0  0  0
   -2.0400   -5.5280   -3.7200 H   0  0  0  0  0  0  0  0  0  0  0  0
   -3.0200   -4.0290   -4.1460 H   0  0  0  0  0  0  0  0  0  0  0  0
   -1.3770   -4.2880   -4.8780 H   0  0  0  0  0  0  0  0  0  0  0  0
   -0.5890   -4.2740   -2.3650 H   0  0  0  0  0  0  0  0  0  0  0  0
   -1.4780   -1.8730   -4.0210 H   0  0  0  0  0  0  0  0  0  0  0  0
   -0.1040   -1.8320   -2.8030 H   0  0  0  0  0  0  0  0  0  0  0  0
    0.0100   -2.8480   -4.2570 H   0  0  0  0  0  0  0  0  0  0  0  0
   -3.1010   -2.5600   -2.4570 H   0  0  0  0  0  0  0  0  0  0  0  0
   -1.2900   -2.9630   -0.0280 H   0  0  0  0  0  0  0  0  0  0  0  0
  1  2  1  0  0  0  0
  2  3  1  0  0  0  0
  2 12  1  1  0  0  0
  3  4  1  0  0  0  0
  3 13  1  0  0  0  0
  4  5  1  0  0  0  0
  4 15  1  0  0  0  0
  5  6  1  0  0  0  0
  5 17  1  0  0  0  0
  6 19  1  0  0  0  0
  6 20  1  0  0  0  0
  7  6  1  0  0  0  0
  8  9  2  0  0  0  0
  8  2  1  0  0  0  0
 10  1  1  0  0  0  0
 11  1  1  0  0  0  0
 14  3  1  0  0  0  0
 16  4  1  0  0  0  0
 18  5  1  0  0  0  0
 21  7  1  0  0  0  0
 22  7  1  0  0  0  0
 23 24  1  0  0  0  0
 24 25  2  0  0  0  0
 25 36  1  0  0  0  0
 26 27  1  0  0  0  0
 26 24  1  0  0  0  0
 27 28  1  0  0  0  0
 27 39  1  0  0  0  0
 28 41  1  0  0  0  0
 28 29  1  0  0  0  0
 29 30  1  0  0  0  0
 29 43  1  0  0  0  0
 30 44  1  1  0  0  0
 30 31  1  0  0  0  0
 31  8  1  0  0  0  0
 32 30  1  0  0  0  0
 33 32  2  0  0  0  0
 34 23  1  0  0  0  0
 35 23  1  0  0  0  0
 37 26  1  0  0  0  0
 38 27  1  0  0  0  0
 40 28  1  0  0  0  0
 42 29  1  0  0  0  0
 45 31  1  0  0  0  0
 46 54  1  0  0  0  0
 46 47  1  0  0  0  0
 47 57  1  0  0  0  0
 47 49  1  0  0  0  0
 48 47  1  0  0  0  0
 48 59  1  0  0  0  0
 49 61  1  6  0  0  0
 49 51  1  0  0  0  0
 49 50  1  0  0  0  0
 50 32  1  0  0  0  0
 50 62  1  0  0  0  0
 51 52  1  0  0  0  0
 53 51  2  0  0  0  0
 55 46  1  0  0  0  0
 56 46  1  0  0  0  0
 58 48  1  0  0  0  0
 60 48  1  0  0  0  0
M  END
$$$$
