KRW.pdb
 OpenBabel07022418493D

 70 71  0  0  1  0  0  0  0  0999 V2000
    0.8380   -2.5330    1.6240 N   0  0  0  0  0  0  0  0  0  0  0  0
    1.2570   -1.6550    2.6550 C   0  0  1  0  0  0  0  0  0  0  0  0
    2.6890   -1.8400    3.0490 C   0  0  0  0  0  0  0  0  0  0  0  0
    3.0310   -3.1770    3.5840 C   0  0  0  0  0  0  0  0  0  0  0  0
    2.7910   -4.2900    2.6350 C   0  0  0  0  0  0  0  0  0  0  0  0
    3.2370   -5.6000    3.3020 C   0  0  0  0  0  0  0  0  0  0  0  0
    3.0040   -6.6830    2.3820 N   0  0  0  0  0  0  0  0  0  0  0  0
    0.9720   -0.2230    2.3490 C   0  0  0  0  0  0  0  0  0  0  0  0
    1.3030    0.6640    3.1780 O   0  0  0  0  0  0  0  0  0  0  0  0
   -0.1110   -2.8890    1.7650 H   0  0  0  0  0  0  0  0  0  0  0  0
    1.0630   -2.2340    0.6620 H   0  0  0  0  0  0  0  0  0  0  0  0
    0.6540   -1.8790    3.5750 H   0  0  0  0  0  0  0  0  0  0  0  0
    2.9810   -1.0970    3.8630 H   0  0  0  0  0  0  0  0  0  0  0  0
    3.3860   -1.6380    2.1940 H   0  0  0  0  0  0  0  0  0  0  0  0
    2.4490   -3.3890    4.5400 H   0  0  0  0  0  0  0  0  0  0  0  0
    4.1200   -3.2130    3.9120 H   0  0  0  0  0  0  0  0  0  0  0  0
    3.2680   -4.1260    1.6640 H   0  0  0  0  0  0  0  0  0  0  0  0
    1.6810   -4.4140    2.4660 H   0  0  0  0  0  0  0  0  0  0  0  0
    2.6150   -5.7060    4.2100 H   0  0  0  0  0  0  0  0  0  0  0  0
    4.3060   -5.5230    3.5650 H   0  0  0  0  0  0  0  0  0  0  0  0
    3.8360   -6.8030    1.7530 H   0  0  0  0  0  0  0  0  0  0  0  0
    2.1250   -6.5710    1.8340 H   0  0  0  0  0  0  0  0  0  0  0  0
    1.5720    2.0550   -5.4380 N   0  0  0  0  0  0  0  0  0  0  0  0
    1.9860    2.7920   -4.2870 C   0  0  0  0  0  0  0  0  0  0  0  0
    3.0520    3.5090   -4.3970 N   0  0  0  0  0  0  0  0  0  0  0  0
    1.2680    2.7510   -3.0660 N   0  0  0  0  0  0  0  0  0  0  0  0
    1.6630    3.5740   -1.9670 C   0  0  0  0  0  0  0  0  0  0  0  0
    0.7940    3.4060   -0.7330 C   0  0  0  0  0  0  0  0  0  0  0  0
    0.8820    1.9910   -0.2910 C   0  0  0  0  0  0  0  0  0  0  0  0
    0.0940    1.6300    0.9280 C   0  0  2  0  0  0  0  0  0  0  0  0
    0.3390    0.2080    1.1600 N   0  0  0  0  0  0  0  0  0  0  0  0
   -1.3450    1.9200    0.8560 C   0  0  0  0  0  0  0  0  0  0  0  0
   -1.6930    3.1160    0.6880 O   0  0  0  0  0  0  0  0  0  0  0  0
    1.1420    1.1250   -5.3180 H   0  0  0  0  0  0  0  0  0  0  0  0
    1.6930    2.4350   -6.3980 H   0  0  0  0  0  0  0  0  0  0  0  0
    3.3640    4.0500   -3.5680 H   0  0  0  0  0  0  0  0  0  0  0  0
    0.4560    2.1140   -2.9930 H   0  0  0  0  0  0  0  0  0  0  0  0
    2.7200    3.4170   -1.6810 H   0  0  0  0  0  0  0  0  0  0  0  0
    1.5710    4.6400   -2.2830 H   0  0  0  0  0  0  0  0  0  0  0  0
    1.2310    4.0540    0.0450 H   0  0  0  0  0  0  0  0  0  0  0  0
   -0.2440    3.6840   -1.0090 H   0  0  0  0  0  0  0  0  0  0  0  0
    0.6330    1.3140   -1.1430 H   0  0  0  0  0  0  0  0  0  0  0  0
    1.9540    1.7380   -0.0520 H   0  0  0  0  0  0  0  0  0  0  0  0
    0.4860    2.1930    1.8090 H   0  0  0  0  0  0  0  0  0  0  0  0
    0.0470   -0.4820    0.4470 H   0  0  0  0  0  0  0  0  0  0  0  0
   -2.3090    0.8740    0.9720 N   0  0  0  0  0  0  0  0  0  0  0  0
   -3.6960    1.1960    0.8970 C   0  0  1  0  0  0  0  0  0  0  0  0
   -4.3770    0.6900   -0.3270 C   0  0  0  0  0  0  0  0  0  0  0  0
   -4.3660   -0.7540   -0.5390 C   0  0  0  0  0  0  0  0  0  0  0  0
   -5.3750   -1.6460   -0.2660 C   0  0  0  0  0  0  0  0  0  0  0  0
   -4.9870   -2.8910   -0.5820 N   0  0  0  0  0  0  0  0  0  0  0  0
   -3.7310   -2.8340   -1.0640 C   0  0  0  0  0  0  0  0  0  0  0  0
   -2.9250   -3.8520   -1.5190 C   0  0  0  0  0  0  0  0  0  0  0  0
   -1.6630   -3.5640   -1.9780 C   0  0  0  0  0  0  0  0  0  0  0  0
   -1.2440   -2.2540   -1.9680 C   0  0  0  0  0  0  0  0  0  0  0  0
   -2.0580   -1.2430   -1.5110 C   0  0  0  0  0  0  0  0  0  0  0  0
   -3.3230   -1.5000   -1.0450 C   0  0  0  0  0  0  0  0  0  0  0  0
   -4.4360    0.8490    2.1460 C   0  0  0  0  0  0  0  0  0  0  0  0
   -5.6700    1.0730    2.2430 O   0  0  0  0  0  0  0  0  0  0  0  0
   -3.8340    0.2720    3.2560 O   0  0  0  0  0  0  0  0  0  0  0  0
   -1.9470   -0.1160    1.1190 H   0  0  0  0  0  0  0  0  0  0  0  0
   -3.7750    2.3250    0.8390 H   0  0  0  0  0  0  0  0  0  0  0  0
   -5.4220    1.1170   -0.3730 H   0  0  0  0  0  0  0  0  0  0  0  0
   -3.8800    1.1510   -1.2310 H   0  0  0  0  0  0  0  0  0  0  0  0
   -6.3250   -1.3860    0.1380 H   0  0  0  0  0  0  0  0  0  0  0  0
   -5.5690   -3.7540   -0.4710 H   0  0  0  0  0  0  0  0  0  0  0  0
   -3.3040   -4.8690   -1.5060 H   0  0  0  0  0  0  0  0  0  0  0  0
   -1.0380   -4.3750   -2.3340 H   0  0  0  0  0  0  0  0  0  0  0  0
   -0.2420   -2.0590   -2.3380 H   0  0  0  0  0  0  0  0  0  0  0  0
   -1.7150   -0.2110   -1.5120 H   0  0  0  0  0  0  0  0  0  0  0  0
  1 10  1  0  0  0  0
  1  2  1  0  0  0  0
  2  3  1  0  0  0  0
  2 12  1  1  0  0  0
  3  4  1  0  0  0  0
  3 13  1  0  0  0  0
  4 16  1  0  0  0  0
  4 15  1  0  0  0  0
  5  6  1  0  0  0  0
  5  4  1  0  0  0  0
  6 20  1  0  0  0  0
  6 19  1  0  0  0  0
  7  6  1  0  0  0  0
  8  2  1  0  0  0  0
  8  9  2  0  0  0  0
 11  1  1  0  0  0  0
 14  3  1  0  0  0  0
 17  5  1  0  0  0  0
 18  5  1  0  0  0  0
 21  7  1  0  0  0  0
 22  7  1  0  0  0  0
 23 34  1  0  0  0  0
 23 24  1  0  0  0  0
 24 26  1  0  0  0  0
 25 24  2  0  0  0  0
 25 36  1  0  0  0  0
 26 37  1  0  0  0  0
 26 27  1  0  0  0  0
 27 38  1  0  0  0  0
 27 28  1  0  0  0  0
 28 29  1  0  0  0  0
 28 40  1  0  0  0  0
 29 43  1  0  0  0  0
 29 30  1  0  0  0  0
 30 31  1  0  0  0  0
 30 44  1  1  0  0  0
 31  8  1  0  0  0  0
 32 30  1  0  0  0  0
 32 46  1  0  0  0  0
 33 32  2  0  0  0  0
 35 23  1  0  0  0  0
 39 27  1  0  0  0  0
 41 28  1  0  0  0  0
 42 29  1  0  0  0  0
 45 31  1  0  0  0  0
 46 61  1  0  0  0  0
 47 62  1  6  0  0  0
 47 46  1  0  0  0  0
 47 58  1  0  0  0  0
 48 47  1  0  0  0  0
 49 48  1  0  0  0  0
 49 50  2  0  0  0  0
 50 65  1  0  0  0  0
 51 66  1  0  0  0  0
 51 50  1  0  0  0  0
 52 57  1  0  0  0  0
 52 51  1  0  0  0  0
 53 67  1  0  0  0  0
 53 52  2  0  0  0  0
 54 55  2  0  0  0  0
 54 53  1  0  0  0  0
 55 56  1  0  0  0  0
 56 57  2  0  0  0  0
 57 49  1  0  0  0  0
 58 59  2  0  0  0  0
 58 60  1  0  0  0  0
 63 48  1  0  0  0  0
 64 48  1  0  0  0  0
 68 54  1  0  0  0  0
 69 55  1  0  0  0  0
 70 56  1  0  0  0  0
M  END
$$$$
