KRY.pdb
 OpenBabel07022418493D

 67 67  0  0  1  0  0  0  0  0999 V2000
    2.8650    1.3830    4.1210 N   0  0  0  0  0  0  0  0  0  0  0  0
    2.6020    0.5370    2.9250 C   0  0  1  0  0  0  0  0  0  0  0  0
    2.5560   -0.8650    3.4520 C   0  0  0  0  0  0  0  0  0  0  0  0
    2.3190   -1.9350    2.4520 C   0  0  0  0  0  0  0  0  0  0  0  0
    3.3490   -2.0620    1.3750 C   0  0  0  0  0  0  0  0  0  0  0  0
    2.8920   -3.2030    0.4710 C   0  0  0  0  0  0  0  0  0  0  0  0
    3.8250   -3.4060   -0.6090 N   0  0  0  0  0  0  0  0  0  0  0  0
    1.2920    0.9120    2.3480 C   0  0  0  0  0  0  0  0  0  0  0  0
    0.4740    1.6640    2.9830 O   0  0  0  0  0  0  0  0  0  0  0  0
    1.9450    1.6140    4.5040 H   0  0  0  0  0  0  0  0  0  0  0  0
    3.4520    2.1980    3.8690 H   0  0  0  0  0  0  0  0  0  0  0  0
    3.3930    0.7620    2.2170 H   0  0  0  0  0  0  0  0  0  0  0  0
    3.4420   -1.1080    4.0900 H   0  0  0  0  0  0  0  0  0  0  0  0
    1.6870   -0.8990    4.1680 H   0  0  0  0  0  0  0  0  0  0  0  0
    2.3560   -2.9130    3.0250 H   0  0  0  0  0  0  0  0  0  0  0  0
    1.2850   -1.8990    2.0660 H   0  0  0  0  0  0  0  0  0  0  0  0
    4.3440   -2.3740    1.7950 H   0  0  0  0  0  0  0  0  0  0  0  0
    3.5420   -1.1830    0.7720 H   0  0  0  0  0  0  0  0  0  0  0  0
    2.8770   -4.1630    1.0580 H   0  0  0  0  0  0  0  0  0  0  0  0
    1.8860   -3.0430    0.0720 H   0  0  0  0  0  0  0  0  0  0  0  0
    3.2960   -3.8480   -1.3990 H   0  0  0  0  0  0  0  0  0  0  0  0
    4.6110   -3.9660   -0.2570 H   0  0  0  0  0  0  0  0  0  0  0  0
    1.9200    1.1590   -3.8230 N   0  0  0  0  0  0  0  0  0  0  0  0
    1.3640    2.3390   -3.2690 C   0  0  0  0  0  0  0  0  0  0  0  0
    2.0820    3.1510   -2.5580 N   0  0  0  0  0  0  0  0  0  0  0  0
    0.0030    2.7030   -3.4540 N   0  0  0  0  0  0  0  0  0  0  0  0
   -0.8470    3.2680   -2.4640 C   0  0  0  0  0  0  0  0  0  0  0  0
   -1.2310    2.3120   -1.3970 C   0  0  0  0  0  0  0  0  0  0  0  0
   -0.0610    1.7920   -0.6530 C   0  0  0  0  0  0  0  0  0  0  0  0
   -0.4540    0.8540    0.5220 C   0  0  2  0  0  0  0  0  0  0  0  0
    0.8550    0.4800    1.0840 N   0  0  0  0  0  0  0  0  0  0  0  0
   -1.0540   -0.3480   -0.0660 C   0  0  0  0  0  0  0  0  0  0  0  0
   -0.3100   -1.3790   -0.2030 O   0  0  0  0  0  0  0  0  0  0  0  0
    2.7870    0.7350   -3.4370 H   0  0  0  0  0  0  0  0  0  0  0  0
    1.4360    0.7250   -4.6320 H   0  0  0  0  0  0  0  0  0  0  0  0
    3.0810    2.9370   -2.3880 H   0  0  0  0  0  0  0  0  0  0  0  0
   -0.3760    2.5140   -4.4410 H   0  0  0  0  0  0  0  0  0  0  0  0
   -1.7360    3.7290   -2.9740 H   0  0  0  0  0  0  0  0  0  0  0  0
   -0.2930    4.1200   -1.9940 H   0  0  0  0  0  0  0  0  0  0  0  0
   -1.7130    1.4240   -1.9260 H   0  0  0  0  0  0  0  0  0  0  0  0
   -2.0160    2.7130   -0.7120 H   0  0  0  0  0  0  0  0  0  0  0  0
    0.5860    2.5960   -0.2790 H   0  0  0  0  0  0  0  0  0  0  0  0
    0.5550    1.1830   -1.3690 H   0  0  0  0  0  0  0  0  0  0  0  0
   -1.0690    1.4140    1.2240 H   0  0  0  0  0  0  0  0  0  0  0  0
    1.4410   -0.1200    0.4830 H   0  0  0  0  0  0  0  0  0  0  0  0
   -1.7850   -3.6640    4.9460 O   0  0  0  0  0  0  0  0  0  0  0  0
   -2.3020   -3.3640    3.6810 C   0  0  0  0  0  0  0  0  0  0  0  0
   -2.9160   -2.1650    3.4220 C   0  0  0  0  0  0  0  0  0  0  0  0
   -3.4200   -1.8820    2.1710 C   0  0  0  0  0  0  0  0  0  0  0  0
   -3.3290   -2.7880    1.1380 C   0  0  0  0  0  0  0  0  0  0  0  0
   -3.8850   -2.4220   -0.1690 C   0  0  0  0  0  0  0  0  0  0  0  0
   -2.8880   -1.7310   -1.0740 C   0  0  2  0  0  0  0  0  0  0  0  0
   -2.3940   -0.5020   -0.5030 N   0  0  0  0  0  0  0  0  0  0  0  0
   -3.5970   -1.4410   -2.3330 C   0  0  0  0  0  0  0  0  0  0  0  0
   -3.6950   -0.2360   -2.7060 O   0  0  0  0  0  0  0  0  0  0  0  0
   -2.7150   -3.9950    1.3860 C   0  0  0  0  0  0  0  0  0  0  0  0
   -2.2130   -4.2720    2.6370 C   0  0  0  0  0  0  0  0  0  0  0  0
   -4.1610   -2.4390   -3.1260 O   0  0  0  0  0  0  0  0  0  0  0  0
   -2.4360   -3.9860    5.6650 H   0  0  0  0  0  0  0  0  0  0  0  0
   -2.9890   -1.4430    4.2470 H   0  0  0  0  0  0  0  0  0  0  0  0
   -3.8980   -0.8980    2.0380 H   0  0  0  0  0  0  0  0  0  0  0  0
   -4.7960   -1.8060   -0.0350 H   0  0  0  0  0  0  0  0  0  0  0  0
   -4.1880   -3.3600   -0.6860 H   0  0  0  0  0  0  0  0  0  0  0  0
   -2.0650   -2.4580   -1.2550 H   0  0  0  0  0  0  0  0  0  0  0  0
   -3.0410    0.2990   -0.3930 H   0  0  0  0  0  0  0  0  0  0  0  0
   -2.6400   -4.7210    0.5650 H   0  0  0  0  0  0  0  0  0  0  0  0
   -1.7320   -5.2230    2.8250 H   0  0  0  0  0  0  0  0  0  0  0  0
  1 10  1  0  0  0  0
  2 12  1  6  0  0  0
  2  3  1  0  0  0  0
  2  1  1  0  0  0  0
  3 13  1  0  0  0  0
  3 14  1  0  0  0  0
  4 15  1  0  0  0  0
  4  3  1  0  0  0  0
  5 17  1  0  0  0  0
  5  4  1  0  0  0  0
  6 19  1  0  0  0  0
  6  5  1  0  0  0  0
  7 22  1  0  0  0  0
  7  6  1  0  0  0  0
  8  2  1  0  0  0  0
  8  9  2  0  0  0  0
 11  1  1  0  0  0  0
 16  4  1  0  0  0  0
 18  5  1  0  0  0  0
 20  6  1  0  0  0  0
 21  7  1  0  0  0  0
 23 34  1  0  0  0  0
 23 24  1  0  0  0  0
 24 25  2  0  0  0  0
 25 36  1  0  0  0  0
 26 24  1  0  0  0  0
 26 27  1  0  0  0  0
 27 39  1  0  0  0  0
 27 28  1  0  0  0  0
 28 41  1  0  0  0  0
 28 29  1  0  0  0  0
 29 42  1  0  0  0  0
 29 30  1  0  0  0  0
 30 31  1  0  0  0  0
 30 44  1  1  0  0  0
 31  8  1  0  0  0  0
 32 30  1  0  0  0  0
 33 32  2  0  0  0  0
 35 23  1  0  0  0  0
 37 26  1  0  0  0  0
 38 27  1  0  0  0  0
 40 28  1  0  0  0  0
 43 29  1  0  0  0  0
 45 31  1  0  0  0  0
 46 59  1  0  0  0  0
 47 46  1  0  0  0  0
 48 47  1  0  0  0  0
 48 60  1  0  0  0  0
 49 48  2  0  0  0  0
 50 56  2  0  0  0  0
 50 49  1  0  0  0  0
 51 62  1  0  0  0  0
 51 50  1  0  0  0  0
 52 64  1  6  0  0  0
 52 53  1  0  0  0  0
 52 51  1  0  0  0  0
 53 65  1  0  0  0  0
 53 32  1  0  0  0  0
 54 52  1  0  0  0  0
 55 54  1  0  0  0  0
 56 57  1  0  0  0  0
 57 67  1  0  0  0  0
 57 47  2  0  0  0  0
 58 54  2  0  0  0  0
 61 49  1  0  0  0  0
 63 51  1  0  0  0  0
 66 56  1  0  0  0  0
M  END
$$$$
