KSA.pdb
 OpenBabel07022418523D

 44 43  0  0  1  0  0  0  0  0999 V2000
   -2.0330   -1.4480    2.7970 N   0  0  0  0  0  0  0  0  0  0  0  0
   -0.6460   -1.8980    2.6050 C   0  0  1  0  0  0  0  0  0  0  0  0
   -0.4570   -2.6370    1.3410 C   0  0  0  0  0  0  0  0  0  0  0  0
    0.9510   -3.1050    1.1870 C   0  0  0  0  0  0  0  0  0  0  0  0
    1.1810   -3.8590   -0.1050 C   0  0  0  0  0  0  0  0  0  0  0  0
    0.3130   -5.0860   -0.2090 C   0  0  0  0  0  0  0  0  0  0  0  0
    0.6300   -5.7160   -1.4910 N   0  0  0  0  0  0  0  0  0  0  0  0
    0.2030   -0.7320    2.8380 C   0  0  0  0  0  0  0  0  0  0  0  0
    0.3980   -0.3640    4.0260 O   0  0  0  0  0  0  0  0  0  0  0  0
   -2.1760   -0.5510    2.2870 H   0  0  0  0  0  0  0  0  0  0  0  0
   -2.6470   -2.1800    2.3750 H   0  0  0  0  0  0  0  0  0  0  0  0
   -0.4970   -2.6420    3.4440 H   0  0  0  0  0  0  0  0  0  0  0  0
   -1.1000   -3.5640    1.4140 H   0  0  0  0  0  0  0  0  0  0  0  0
   -0.8340   -2.1180    0.4380 H   0  0  0  0  0  0  0  0  0  0  0  0
    1.2120   -3.8540    1.9980 H   0  0  0  0  0  0  0  0  0  0  0  0
    1.7080   -2.3110    1.2520 H   0  0  0  0  0  0  0  0  0  0  0  0
    1.0320   -3.2090   -0.9800 H   0  0  0  0  0  0  0  0  0  0  0  0
    2.2380   -4.2070   -0.0970 H   0  0  0  0  0  0  0  0  0  0  0  0
   -0.7660   -4.8390   -0.1430 H   0  0  0  0  0  0  0  0  0  0  0  0
    0.5900   -5.8290    0.5680 H   0  0  0  0  0  0  0  0  0  0  0  0
    1.5730   -5.4650   -1.8220 H   0  0  0  0  0  0  0  0  0  0  0  0
   -0.0480   -5.4760   -2.2310 H   0  0  0  0  0  0  0  0  0  0  0  0
    3.9330    1.8700    1.7180 O   0  0  0  0  0  0  0  0  0  0  0  0
    3.0430    0.8280    1.5320 C   0  0  0  0  0  0  0  0  0  0  0  0
    1.6640    1.1680    2.0530 C   0  0  2  0  0  0  0  0  0  0  0  0
    0.8160    0.0090    1.8070 N   0  0  0  0  0  0  0  0  0  0  0  0
    1.1040    2.3360    1.3470 C   0  0  0  0  0  0  0  0  0  0  0  0
    1.6210    3.4800    1.3730 O   0  0  0  0  0  0  0  0  0  0  0  0
    4.1710    2.2730    0.8330 H   0  0  0  0  0  0  0  0  0  0  0  0
    3.3770   -0.1270    1.9860 H   0  0  0  0  0  0  0  0  0  0  0  0
    2.9040    0.6060    0.4340 H   0  0  0  0  0  0  0  0  0  0  0  0
    1.7620    1.3840    3.1310 H   0  0  0  0  0  0  0  0  0  0  0  0
    0.6440   -0.2800    0.8330 H   0  0  0  0  0  0  0  0  0  0  0  0
   -0.5890    2.9860   -1.6180 C   0  0  0  0  0  0  0  0  0  0  0  0
   -0.6630    3.3350   -0.1250 C   0  0  2  0  0  0  0  0  0  0  0  0
   -0.0930    2.2080    0.5760 N   0  0  0  0  0  0  0  0  0  0  0  0
   -2.0830    3.5490    0.1910 C   0  0  0  0  0  0  0  0  0  0  0  0
   -2.6700    4.5050   -0.3690 O   0  0  0  0  0  0  0  0  0  0  0  0
   -2.8180    2.7680    1.0630 O   0  0  0  0  0  0  0  0  0  0  0  0
    0.4400    2.6080   -1.8640 H   0  0  0  0  0  0  0  0  0  0  0  0
   -1.2890    2.1550   -1.8580 H   0  0  0  0  0  0  0  0  0  0  0  0
   -0.7540    3.8790   -2.2270 H   0  0  0  0  0  0  0  0  0  0  0  0
   -0.0900    4.2630   -0.0000 H   0  0  0  0  0  0  0  0  0  0  0  0
   -0.6000    1.2990    0.4900 H   0  0  0  0  0  0  0  0  0  0  0  0
  2  1  1  0  0  0  0
  2  8  1  0  0  0  0
  2 12  1  1  0  0  0
  3 13  1  0  0  0  0
  3  2  1  0  0  0  0
  4 16  1  0  0  0  0
  4  3  1  0  0  0  0
  4 15  1  0  0  0  0
  5 18  1  0  0  0  0
  5  4  1  0  0  0  0
  6 19  1  0  0  0  0
  6  5  1  0  0  0  0
  6 20  1  0  0  0  0
  7  6  1  0  0  0  0
  8  9  2  0  0  0  0
 10  1  1  0  0  0  0
 11  1  1  0  0  0  0
 14  3  1  0  0  0  0
 17  5  1  0  0  0  0
 21  7  1  0  0  0  0
 22  7  1  0  0  0  0
 24 23  1  0  0  0  0
 24 30  1  0  0  0  0
 24 25  1  0  0  0  0
 25 32  1  1  0  0  0
 26 25  1  0  0  0  0
 26  8  1  0  0  0  0
 27 28  2  0  0  0  0
 27 25  1  0  0  0  0
 29 23  1  0  0  0  0
 31 24  1  0  0  0  0
 33 26  1  0  0  0  0
 34 35  1  0  0  0  0
 35 43  1  1  0  0  0
 35 37  1  0  0  0  0
 35 36  1  0  0  0  0
 36 27  1  0  0  0  0
 37 39  1  0  0  0  0
 38 37  2  0  0  0  0
 40 34  1  0  0  0  0
 41 34  1  0  0  0  0
 42 34  1  0  0  0  0
 44 36  1  0  0  0  0
M  END
$$$$
