KSC.pdb
 OpenBabel07022418523D

 45 44  0  0  1  0  0  0  0  0999 V2000
    1.6130   -0.8380   -2.9820 N   0  0  0  0  0  0  0  0  0  0  0  0
    0.4000   -0.7160   -2.2400 C   0  0  1  0  0  0  0  0  0  0  0  0
   -0.0540   -1.9520   -1.5570 C   0  0  0  0  0  0  0  0  0  0  0  0
    0.8400   -2.5540   -0.5540 C   0  0  0  0  0  0  0  0  0  0  0  0
    2.1840   -2.9820   -1.0220 C   0  0  0  0  0  0  0  0  0  0  0  0
    2.9240   -3.5740    0.1880 C   0  0  0  0  0  0  0  0  0  0  0  0
    3.0780   -2.6360    1.2450 N   0  0  0  0  0  0  0  0  0  0  0  0
    0.4660    0.4790   -1.3810 C   0  0  0  0  0  0  0  0  0  0  0  0
    1.5020    1.1880   -1.4080 O   0  0  0  0  0  0  0  0  0  0  0  0
    1.6850   -1.7570   -3.4890 H   0  0  0  0  0  0  0  0  0  0  0  0
    1.8220   -0.0300   -3.5750 H   0  0  0  0  0  0  0  0  0  0  0  0
   -0.4020   -0.4790   -3.0080 H   0  0  0  0  0  0  0  0  0  0  0  0
   -0.2780   -2.7160   -2.3320 H   0  0  0  0  0  0  0  0  0  0  0  0
   -1.0300   -1.7330   -1.0660 H   0  0  0  0  0  0  0  0  0  0  0  0
    0.3360   -3.4600   -0.1340 H   0  0  0  0  0  0  0  0  0  0  0  0
    1.0020   -1.9040    0.3570 H   0  0  0  0  0  0  0  0  0  0  0  0
    2.8080   -2.1520   -1.4070 H   0  0  0  0  0  0  0  0  0  0  0  0
    2.1120   -3.8340   -1.7320 H   0  0  0  0  0  0  0  0  0  0  0  0
    2.4310   -4.5220    0.4720 H   0  0  0  0  0  0  0  0  0  0  0  0
    3.9350   -3.8390   -0.1970 H   0  0  0  0  0  0  0  0  0  0  0  0
    2.9170   -1.6530    1.0130 H   0  0  0  0  0  0  0  0  0  0  0  0
    3.9440   -2.8020    1.8060 H   0  0  0  0  0  0  0  0  0  0  0  0
   -1.5000    4.1000    0.8830 O   0  0  0  0  0  0  0  0  0  0  0  0
   -1.6440    3.0390    0.0000 C   0  0  0  0  0  0  0  0  0  0  0  0
   -0.5500    2.0380    0.3320 C   0  0  2  0  0  0  0  0  0  0  0  0
   -0.5850    0.8860   -0.5120 N   0  0  0  0  0  0  0  0  0  0  0  0
   -0.6800    1.7210    1.7730 C   0  0  0  0  0  0  0  0  0  0  0  0
   -0.6530    2.7230    2.5570 O   0  0  0  0  0  0  0  0  0  0  0  0
   -0.5990    4.4930    0.8530 H   0  0  0  0  0  0  0  0  0  0  0  0
   -1.5070    3.4240   -1.0300 H   0  0  0  0  0  0  0  0  0  0  0  0
   -2.6540    2.6010    0.1530 H   0  0  0  0  0  0  0  0  0  0  0  0
    0.4170    2.5680    0.2070 H   0  0  0  0  0  0  0  0  0  0  0  0
   -1.4510    0.3020   -0.4830 H   0  0  0  0  0  0  0  0  0  0  0  0
   -0.8250    0.4020    2.2790 N   0  0  0  0  0  0  0  0  0  0  0  0
   -0.9420    0.2040    3.6860 C   0  0  1  0  0  0  0  0  0  0  0  0
   -2.2180   -0.5080    4.0780 C   0  0  0  0  0  0  0  0  0  0  0  0
   -2.3030   -0.7270    5.8750 S   0  0  0  0  0  0  0  0  0  0  0  0
    0.1850   -0.6270    4.2050 C   0  0  0  0  0  0  0  0  0  0  0  0
    0.1700   -0.8590    5.4480 O   0  0  0  0  0  0  0  0  0  0  0  0
    1.1880   -1.1230    3.4150 O   0  0  0  0  0  0  0  0  0  0  0  0
   -0.8400   -0.3780    1.5860 H   0  0  0  0  0  0  0  0  0  0  0  0
   -0.8990    1.1660    4.2130 H   0  0  0  0  0  0  0  0  0  0  0  0
   -2.3230   -1.4900    3.6010 H   0  0  0  0  0  0  0  0  0  0  0  0
   -3.1060    0.1140    3.7900 H   0  0  0  0  0  0  0  0  0  0  0  0
   -3.6130   -0.6230    6.3370 H   0  0  0  0  0  0  0  0  0  0  0  0
  1  2  1  0  0  0  0
  2 12  1  6  0  0  0
  2  3  1  0  0  0  0
  2  8  1  0  0  0  0
  3 14  1  0  0  0  0
  3  4  1  0  0  0  0
  4 15  1  0  0  0  0
  4 16  1  0  0  0  0
  5  4  1  0  0  0  0
  5  6  1  0  0  0  0
  6 19  1  0  0  0  0
  6  7  1  0  0  0  0
  7 22  1  0  0  0  0
  8 26  1  0  0  0  0
  9  8  2  0  0  0  0
 10  1  1  0  0  0  0
 11  1  1  0  0  0  0
 13  3  1  0  0  0  0
 17  5  1  0  0  0  0
 18  5  1  0  0  0  0
 20  6  1  0  0  0  0
 21  7  1  0  0  0  0
 24 31  1  0  0  0  0
 24 25  1  0  0  0  0
 24 23  1  0  0  0  0
 25 32  1  6  0  0  0
 25 27  1  0  0  0  0
 26 33  1  0  0  0  0
 26 25  1  0  0  0  0
 27 34  1  0  0  0  0
 27 28  2  0  0  0  0
 29 23  1  0  0  0  0
 30 24  1  0  0  0  0
 34 35  1  0  0  0  0
 35 36  1  0  0  0  0
 35 38  1  0  0  0  0
 35 42  1  1  0  0  0
 36 37  1  0  0  0  0
 37 45  1  0  0  0  0
 38 39  1  0  0  0  0
 40 38  2  0  0  0  0
 41 34  1  0  0  0  0
 43 36  1  0  0  0  0
 44 36  1  0  0  0  0
M  END
$$$$
