KSF.pdb
 OpenBabel07022418523D

 54 54  0  0  1  0  0  0  0  0999 V2000
    1.7190   -1.7760    0.7320 N   0  0  0  0  0  0  0  0  0  0  0  0
    2.1530   -0.4630    1.2440 C   0  0  1  0  0  0  0  0  0  0  0  0
    3.5420   -0.2700    0.7370 C   0  0  0  0  0  0  0  0  0  0  0  0
    4.2020    1.0100    1.1340 C   0  0  0  0  0  0  0  0  0  0  0  0
    4.3070    1.1480    2.6350 C   0  0  0  0  0  0  0  0  0  0  0  0
    5.1010    0.0510    3.2660 C   0  0  0  0  0  0  0  0  0  0  0  0
    6.4440    0.0120    2.7650 N   0  0  0  0  0  0  0  0  0  0  0  0
    1.1920    0.5850    0.8410 C   0  0  0  0  0  0  0  0  0  0  0  0
    1.3000    1.7860    1.1740 O   0  0  0  0  0  0  0  0  0  0  0  0
    2.3070   -2.4830    1.2330 H   0  0  0  0  0  0  0  0  0  0  0  0
    2.0550   -1.7850   -0.2720 H   0  0  0  0  0  0  0  0  0  0  0  0
    2.1880   -0.5850    2.3580 H   0  0  0  0  0  0  0  0  0  0  0  0
    3.5270   -0.3130   -0.3870 H   0  0  0  0  0  0  0  0  0  0  0  0
    4.1660   -1.1410    1.0360 H   0  0  0  0  0  0  0  0  0  0  0  0
    5.2320    1.0470    0.6990 H   0  0  0  0  0  0  0  0  0  0  0  0
    3.5800    1.8520    0.7700 H   0  0  0  0  0  0  0  0  0  0  0  0
    3.2960    1.2280    3.0320 H   0  0  0  0  0  0  0  0  0  0  0  0
    4.8460    2.1220    2.8180 H   0  0  0  0  0  0  0  0  0  0  0  0
    4.5620   -0.9010    3.0860 H   0  0  0  0  0  0  0  0  0  0  0  0
    5.1580    0.2680    4.3560 H   0  0  0  0  0  0  0  0  0  0  0  0
    6.7550   -0.9140    2.4490 H   0  0  0  0  0  0  0  0  0  0  0  0
    6.6500    0.8010    2.1450 H   0  0  0  0  0  0  0  0  0  0  0  0
   -1.3310    0.0220   -2.4580 O   0  0  0  0  0  0  0  0  0  0  0  0
   -1.0100    1.2430   -1.9230 C   0  0  0  0  0  0  0  0  0  0  0  0
   -0.9080    1.1410   -0.4150 C   0  0  2  0  0  0  0  0  0  0  0  0
    0.0840    0.2180    0.0340 N   0  0  0  0  0  0  0  0  0  0  0  0
   -2.2350    0.6970    0.0670 C   0  0  0  0  0  0  0  0  0  0  0  0
   -3.3010    1.3050   -0.2040 O   0  0  0  0  0  0  0  0  0  0  0  0
   -0.6120   -0.4200   -2.9590 H   0  0  0  0  0  0  0  0  0  0  0  0
   -1.8900    1.9260   -2.1150 H   0  0  0  0  0  0  0  0  0  0  0  0
   -0.1480    1.7430   -2.3820 H   0  0  0  0  0  0  0  0  0  0  0  0
   -0.6890    2.1940   -0.0760 H   0  0  0  0  0  0  0  0  0  0  0  0
   -0.0360   -0.7950   -0.2700 H   0  0  0  0  0  0  0  0  0  0  0  0
   -2.3130   -0.4660    0.8730 N   0  0  0  0  0  0  0  0  0  0  0  0
   -3.5580   -0.9830    1.3960 C   0  0  1  0  0  0  0  0  0  0  0  0
   -3.6910   -2.4560    1.0790 C   0  0  0  0  0  0  0  0  0  0  0  0
   -3.6640   -2.6290   -0.3800 C   0  0  0  0  0  0  0  0  0  0  0  0
   -2.5070   -2.8350   -1.1060 C   0  0  0  0  0  0  0  0  0  0  0  0
   -2.5050   -2.9980   -2.4810 C   0  0  0  0  0  0  0  0  0  0  0  0
   -3.6920   -2.9580   -3.1810 C   0  0  0  0  0  0  0  0  0  0  0  0
   -4.8510   -2.7530   -2.4680 C   0  0  0  0  0  0  0  0  0  0  0  0
   -4.8580   -2.5900   -1.1000 C   0  0  0  0  0  0  0  0  0  0  0  0
   -3.5310   -0.9100    2.9030 C   0  0  0  0  0  0  0  0  0  0  0  0
   -4.4990   -1.3010    3.5890 O   0  0  0  0  0  0  0  0  0  0  0  0
   -2.4160   -0.4010    3.5220 O   0  0  0  0  0  0  0  0  0  0  0  0
   -1.4590   -1.0360    1.1500 H   0  0  0  0  0  0  0  0  0  0  0  0
   -4.4110   -0.3960    1.0530 H   0  0  0  0  0  0  0  0  0  0  0  0
   -4.6910   -2.8400    1.4300 H   0  0  0  0  0  0  0  0  0  0  0  0
   -2.9480   -3.0690    1.6100 H   0  0  0  0  0  0  0  0  0  0  0  0
   -1.5830   -2.8660   -0.5580 H   0  0  0  0  0  0  0  0  0  0  0  0
   -1.5940   -3.1590   -3.0420 H   0  0  0  0  0  0  0  0  0  0  0  0
   -3.7210   -3.0840   -4.2630 H   0  0  0  0  0  0  0  0  0  0  0  0
   -5.8040   -2.7190   -3.0110 H   0  0  0  0  0  0  0  0  0  0  0  0
   -5.7890   -2.4290   -0.5590 H   0  0  0  0  0  0  0  0  0  0  0  0
  1 10  1  0  0  0  0
  1  2  1  0  0  0  0
  2 12  1  1  0  0  0
  3 14  1  0  0  0  0
  3  4  1  0  0  0  0
  3  2  1  0  0  0  0
  4  5  1  0  0  0  0
  5 18  1  0  0  0  0
  5 17  1  0  0  0  0
  5  6  1  0  0  0  0
  6 20  1  0  0  0  0
  7  6  1  0  0  0  0
  8  9  2  0  0  0  0
  8  2  1  0  0  0  0
 11  1  1  0  0  0  0
 13  3  1  0  0  0  0
 15  4  1  0  0  0  0
 16  4  1  0  0  0  0
 19  6  1  0  0  0  0
 21  7  1  0  0  0  0
 22  7  1  0  0  0  0
 23 24  1  0  0  0  0
 24 25  1  0  0  0  0
 25 32  1  1  0  0  0
 25 26  1  0  0  0  0
 25 27  1  0  0  0  0
 26  8  1  0  0  0  0
 27 34  1  0  0  0  0
 28 27  2  0  0  0  0
 29 23  1  0  0  0  0
 30 24  1  0  0  0  0
 31 24  1  0  0  0  0
 33 26  1  0  0  0  0
 34 46  1  0  0  0  0
 34 35  1  0  0  0  0
 35 47  1  6  0  0  0
 35 43  1  0  0  0  0
 36 35  1  0  0  0  0
 36 48  1  0  0  0  0
 36 49  1  0  0  0  0
 37 36  1  0  0  0  0
 38 50  1  0  0  0  0
 38 37  2  0  0  0  0
 39 38  1  0  0  0  0
 40 39  2  0  0  0  0
 40 41  1  0  0  0  0
 41 42  2  0  0  0  0
 42 54  1  0  0  0  0
 42 37  1  0  0  0  0
 43 45  2  0  0  0  0
 43 44  1  0  0  0  0
 51 39  1  0  0  0  0
 52 40  1  0  0  0  0
 53 41  1  0  0  0  0
M  END
$$$$
