KSG.pdb
 OpenBabel07022418523D

 41 40  0  0  1  0  0  0  0  0999 V2000
   -3.2530    0.7490    2.6390 N   0  0  0  0  0  0  0  0  0  0  0  0
   -2.0930   -0.2120    2.5160 C   0  0  1  0  0  0  0  0  0  0  0  0
   -2.6480   -1.4840    1.9770 C   0  0  0  0  0  0  0  0  0  0  0  0
   -1.8120   -2.6510    1.7370 C   0  0  0  0  0  0  0  0  0  0  0  0
   -0.7240   -2.6070    0.7390 C   0  0  0  0  0  0  0  0  0  0  0  0
   -1.2200   -2.2720   -0.6610 C   0  0  0  0  0  0  0  0  0  0  0  0
   -0.1160   -2.2410   -1.5860 N   0  0  0  0  0  0  0  0  0  0  0  0
   -1.1040    0.3990    1.6260 C   0  0  0  0  0  0  0  0  0  0  0  0
   -1.4940    1.0170    0.5680 O   0  0  0  0  0  0  0  0  0  0  0  0
   -2.8420    1.5290    3.2130 H   0  0  0  0  0  0  0  0  0  0  0  0
   -3.8910    0.2320    3.3120 H   0  0  0  0  0  0  0  0  0  0  0  0
   -1.7650   -0.3670    3.5560 H   0  0  0  0  0  0  0  0  0  0  0  0
   -3.5270   -1.8190    2.6200 H   0  0  0  0  0  0  0  0  0  0  0  0
   -3.1800   -1.2180    1.0090 H   0  0  0  0  0  0  0  0  0  0  0  0
   -2.4820   -3.5110    1.4600 H   0  0  0  0  0  0  0  0  0  0  0  0
   -1.3070   -2.9300    2.7270 H   0  0  0  0  0  0  0  0  0  0  0  0
   -0.3980   -3.7110    0.6170 H   0  0  0  0  0  0  0  0  0  0  0  0
    0.2030   -2.1190    1.0150 H   0  0  0  0  0  0  0  0  0  0  0  0
   -1.8780   -3.1250   -1.0050 H   0  0  0  0  0  0  0  0  0  0  0  0
   -1.8500   -1.3840   -0.6900 H   0  0  0  0  0  0  0  0  0  0  0  0
    0.2060   -1.2470   -1.7570 H   0  0  0  0  0  0  0  0  0  0  0  0
   -0.3850   -2.5910   -2.5450 H   0  0  0  0  0  0  0  0  0  0  0  0
    2.4240    3.0400    0.5240 O   0  0  0  0  0  0  0  0  0  0  0  0
    1.6010    2.4270    1.4330 C   0  0  0  0  0  0  0  0  0  0  0  0
    1.1790    1.0540    0.8600 C   0  0  2  0  0  0  0  0  0  0  0  0
    0.3050    0.3980    1.8110 N   0  0  0  0  0  0  0  0  0  0  0  0
    2.3760    0.2060    0.6700 C   0  0  0  0  0  0  0  0  0  0  0  0
    2.5860   -0.8820    1.3040 O   0  0  0  0  0  0  0  0  0  0  0  0
    1.9080    3.4190   -0.2300 H   0  0  0  0  0  0  0  0  0  0  0  0
    2.0160    2.3310    2.4350 H   0  0  0  0  0  0  0  0  0  0  0  0
    0.6560    3.0050    1.5110 H   0  0  0  0  0  0  0  0  0  0  0  0
    0.6550    1.3240   -0.0770 H   0  0  0  0  0  0  0  0  0  0  0  0
    0.7050   -0.0770    2.6350 H   0  0  0  0  0  0  0  0  0  0  0  0
    3.4160    0.5410   -0.2550 N   0  0  0  0  0  0  0  0  0  0  0  0
    4.5960   -0.3070   -0.4280 C   0  0  0  0  0  0  0  0  0  0  0  0
    4.1720   -1.6560   -0.8780 C   0  0  0  0  0  0  0  0  0  0  0  0
    2.9690   -1.9610   -1.0660 O   0  0  0  0  0  0  0  0  0  0  0  0
    5.1190   -2.6410   -1.1090 O   0  0  0  0  0  0  0  0  0  0  0  0
    3.3510    1.4050   -0.8310 H   0  0  0  0  0  0  0  0  0  0  0  0
    5.3350    0.1590   -1.0830 H   0  0  0  0  0  0  0  0  0  0  0  0
    5.1000   -0.4050    0.5780 H   0  0  0  0  0  0  0  0  0  0  0  0
  1 10  1  0  0  0  0
  1 11  1  0  0  0  0
  2  1  1  0  0  0  0
  2 12  1  1  0  0  0
  3  2  1  0  0  0  0
  3 13  1  0  0  0  0
  4  3  1  0  0  0  0
  4 16  1  0  0  0  0
  5 18  1  0  0  0  0
  5  4  1  0  0  0  0
  6  5  1  0  0  0  0
  7  6  1  0  0  0  0
  8 26  1  0  0  0  0
  8  2  1  0  0  0  0
  9  8  2  0  0  0  0
 14  3  1  0  0  0  0
 15  4  1  0  0  0  0
 17  5  1  0  0  0  0
 19  6  1  0  0  0  0
 20  6  1  0  0  0  0
 21  7  1  0  0  0  0
 22  7  1  0  0  0  0
 23 24  1  0  0  0  0
 24 31  1  0  0  0  0
 24 30  1  0  0  0  0
 25 32  1  6  0  0  0
 25 24  1  0  0  0  0
 25 26  1  0  0  0  0
 26 33  1  0  0  0  0
 27 25  1  0  0  0  0
 27 28  2  0  0  0  0
 29 23  1  0  0  0  0
 34 27  1  0  0  0  0
 35 34  1  0  0  0  0
 35 41  1  0  0  0  0
 36 35  1  0  0  0  0
 37 36  1  0  0  0  0
 38 36  2  0  0  0  0
 39 34  1  0  0  0  0
 40 35  1  0  0  0  0
M  END
$$$$
