KSH.pdb
 OpenBabel07022418523D

 51 51  0  0  1  0  0  0  0  0999 V2000
    2.5360   -1.7160    4.4530 N   0  0  0  0  0  0  0  0  0  0  0  0
    2.0920   -1.4590    3.0570 C   0  0  1  0  0  0  0  0  0  0  0  0
    2.0160   -2.7960    2.4240 C   0  0  0  0  0  0  0  0  0  0  0  0
    1.6060   -2.8600    1.0010 C   0  0  0  0  0  0  0  0  0  0  0  0
    2.4880   -2.1270    0.0480 C   0  0  0  0  0  0  0  0  0  0  0  0
    3.9090   -2.6530    0.0620 C   0  0  0  0  0  0  0  0  0  0  0  0
    4.6770   -1.8830   -0.8890 N   0  0  0  0  0  0  0  0  0  0  0  0
    0.8690   -0.6830    3.1580 C   0  0  0  0  0  0  0  0  0  0  0  0
    0.3360   -0.5080    4.3090 O   0  0  0  0  0  0  0  0  0  0  0  0
    2.0050   -2.5200    4.8520 H   0  0  0  0  0  0  0  0  0  0  0  0
    2.3380   -0.8750    5.0460 H   0  0  0  0  0  0  0  0  0  0  0  0
    2.8990   -0.8290    2.6240 H   0  0  0  0  0  0  0  0  0  0  0  0
    3.0500   -3.2460    2.5030 H   0  0  0  0  0  0  0  0  0  0  0  0
    1.3920   -3.4820    3.0360 H   0  0  0  0  0  0  0  0  0  0  0  0
    1.5920   -3.9330    0.6280 H   0  0  0  0  0  0  0  0  0  0  0  0
    0.5500   -2.5490    0.9040 H   0  0  0  0  0  0  0  0  0  0  0  0
    2.5070   -1.0430    0.1250 H   0  0  0  0  0  0  0  0  0  0  0  0
    2.1010   -2.3570   -0.9880 H   0  0  0  0  0  0  0  0  0  0  0  0
    3.9270   -3.7160   -0.3070 H   0  0  0  0  0  0  0  0  0  0  0  0
    4.3600   -2.6500    1.0720 H   0  0  0  0  0  0  0  0  0  0  0  0
    4.0350   -1.3860   -1.5450 H   0  0  0  0  0  0  0  0  0  0  0  0
    5.1790   -1.1400   -0.3290 H   0  0  0  0  0  0  0  0  0  0  0  0
   -0.2010    2.3370    0.8980 O   0  0  0  0  0  0  0  0  0  0  0  0
   -0.6640    2.1660    2.2000 C   0  0  0  0  0  0  0  0  0  0  0  0
   -1.0640    0.7020    2.3550 C   0  0  2  0  0  0  0  0  0  0  0  0
    0.1500   -0.0550    2.0930 N   0  0  0  0  0  0  0  0  0  0  0  0
   -2.1800    0.3500    1.4680 C   0  0  0  0  0  0  0  0  0  0  0  0
   -3.2940    0.9420    1.6810 O   0  0  0  0  0  0  0  0  0  0  0  0
    0.7270    2.6540    0.8570 H   0  0  0  0  0  0  0  0  0  0  0  0
    0.2070    2.3130    2.8720 H   0  0  0  0  0  0  0  0  0  0  0  0
   -1.4630    2.8550    2.4760 H   0  0  0  0  0  0  0  0  0  0  0  0
   -1.3630    0.5950    3.4160 H   0  0  0  0  0  0  0  0  0  0  0  0
    0.5390   -0.1690    1.1370 H   0  0  0  0  0  0  0  0  0  0  0  0
   -2.0520   -0.5930    0.4230 N   0  0  0  0  0  0  0  0  0  0  0  0
   -3.1330   -0.9380   -0.4380 C   0  0  1  0  0  0  0  0  0  0  0  0
   -2.8400   -0.7430   -1.9040 C   0  0  0  0  0  0  0  0  0  0  0  0
   -2.5090    0.6340   -2.2660 C   0  0  0  0  0  0  0  0  0  0  0  0
   -1.2710    1.2360   -2.2970 C   0  0  0  0  0  0  0  0  0  0  0  0
   -1.4540    2.5050   -2.6890 N   0  0  0  0  0  0  0  0  0  0  0  0
   -2.7610    2.7140   -2.9020 C   0  0  0  0  0  0  0  0  0  0  0  0
   -3.3890    1.5650   -2.6400 N   0  0  0  0  0  0  0  0  0  0  0  0
   -3.4940   -2.3570   -0.2470 C   0  0  0  0  0  0  0  0  0  0  0  0
   -4.4160   -2.9110   -0.8860 O   0  0  0  0  0  0  0  0  0  0  0  0
   -2.7880   -3.1030    0.6720 O   0  0  0  0  0  0  0  0  0  0  0  0
   -1.1330   -1.0520    0.2690 H   0  0  0  0  0  0  0  0  0  0  0  0
   -4.0300   -0.3420   -0.1260 H   0  0  0  0  0  0  0  0  0  0  0  0
   -3.7630   -1.0950   -2.4500 H   0  0  0  0  0  0  0  0  0  0  0  0
   -2.0250   -1.4040   -2.2600 H   0  0  0  0  0  0  0  0  0  0  0  0
   -0.3050    0.7760   -2.0510 H   0  0  0  0  0  0  0  0  0  0  0  0
   -0.7180    3.2070   -2.8080 H   0  0  0  0  0  0  0  0  0  0  0  0
   -3.2280    3.6640   -3.2330 H   0  0  0  0  0  0  0  0  0  0  0  0
  1 10  1  0  0  0  0
  1 11  1  0  0  0  0
  2 12  1  6  0  0  0
  2  8  1  0  0  0  0
  2  1  1  0  0  0  0
  3 13  1  0  0  0  0
  3 14  1  0  0  0  0
  3  2  1  0  0  0  0
  4  3  1  0  0  0  0
  5  6  1  0  0  0  0
  5 17  1  0  0  0  0
  5  4  1  0  0  0  0
  6 20  1  0  0  0  0
  7 22  1  0  0  0  0
  7  6  1  0  0  0  0
  8  9  2  0  0  0  0
 15  4  1  0  0  0  0
 16  4  1  0  0  0  0
 18  5  1  0  0  0  0
 19  6  1  0  0  0  0
 21  7  1  0  0  0  0
 23 24  1  0  0  0  0
 24 25  1  0  0  0  0
 24 31  1  0  0  0  0
 24 30  1  0  0  0  0
 25 32  1  1  0  0  0
 26 25  1  0  0  0  0
 26  8  1  0  0  0  0
 27 28  2  0  0  0  0
 27 25  1  0  0  0  0
 29 23  1  0  0  0  0
 33 26  1  0  0  0  0
 34 27  1  0  0  0  0
 35 42  1  0  0  0  0
 35 46  1  1  0  0  0
 35 34  1  0  0  0  0
 36 35  1  0  0  0  0
 37 36  1  0  0  0  0
 38 37  2  0  0  0  0
 38 49  1  0  0  0  0
 39 38  1  0  0  0  0
 40 39  1  0  0  0  0
 40 41  2  0  0  0  0
 41 37  1  0  0  0  0
 42 44  1  0  0  0  0
 43 42  2  0  0  0  0
 45 34  1  0  0  0  0
 47 36  1  0  0  0  0
 48 36  1  0  0  0  0
 50 39  1  0  0  0  0
 51 40  1  0  0  0  0
M  END
$$$$
