KSI.pdb
 OpenBabel07022418523D

 53 52  0  0  1  0  0  0  0  0999 V2000
    2.4610   -0.3490    4.5620 N   0  0  0  0  0  0  0  0  0  0  0  0
    2.5140   -0.5410    3.0840 C   0  0  1  0  0  0  0  0  0  0  0  0
    2.4680   -2.0280    2.9250 C   0  0  0  0  0  0  0  0  0  0  0  0
    2.5260   -2.5730    1.5570 C   0  0  0  0  0  0  0  0  0  0  0  0
    3.7850   -2.2340    0.8020 C   0  0  0  0  0  0  0  0  0  0  0  0
    5.0230   -2.7680    1.4920 C   0  0  0  0  0  0  0  0  0  0  0  0
    4.9700   -4.2260    1.6170 N   0  0  0  0  0  0  0  0  0  0  0  0
    1.3820    0.1840    2.4840 C   0  0  0  0  0  0  0  0  0  0  0  0
    0.5260    0.7180    3.2330 O   0  0  0  0  0  0  0  0  0  0  0  0
    1.5600   -0.8010    4.8670 H   0  0  0  0  0  0  0  0  0  0  0  0
    3.2230   -0.9570    4.9890 H   0  0  0  0  0  0  0  0  0  0  0  0
    3.4470   -0.0580    2.7680 H   0  0  0  0  0  0  0  0  0  0  0  0
    3.2910   -2.4490    3.5340 H   0  0  0  0  0  0  0  0  0  0  0  0
    1.5290   -2.3750    3.4240 H   0  0  0  0  0  0  0  0  0  0  0  0
    2.5540   -3.7030    1.6720 H   0  0  0  0  0  0  0  0  0  0  0  0
    1.6650   -2.3950    0.9120 H   0  0  0  0  0  0  0  0  0  0  0  0
    3.7480   -2.7010   -0.2020 H   0  0  0  0  0  0  0  0  0  0  0  0
    3.9600   -1.1560    0.6600 H   0  0  0  0  0  0  0  0  0  0  0  0
    5.2210   -2.2820    2.4490 H   0  0  0  0  0  0  0  0  0  0  0  0
    5.8800   -2.5510    0.8200 H   0  0  0  0  0  0  0  0  0  0  0  0
    4.6970   -4.6810    0.7420 H   0  0  0  0  0  0  0  0  0  0  0  0
    4.4170   -4.5250    2.4480 H   0  0  0  0  0  0  0  0  0  0  0  0
    1.3100    1.9280   -1.2940 O   0  0  0  0  0  0  0  0  0  0  0  0
    0.5010    2.2560   -0.2150 C   0  0  0  0  0  0  0  0  0  0  0  0
    0.0550    1.0470    0.5620 C   0  0  2  0  0  0  0  0  0  0  0  0
    1.1940    0.3200    1.0900 N   0  0  0  0  0  0  0  0  0  0  0  0
   -0.8340    0.1630   -0.2320 C   0  0  0  0  0  0  0  0  0  0  0  0
   -0.5090   -1.0500   -0.3460 O   0  0  0  0  0  0  0  0  0  0  0  0
    2.2800    2.0870   -1.1050 H   0  0  0  0  0  0  0  0  0  0  0  0
    1.1110    2.8770    0.4720 H   0  0  0  0  0  0  0  0  0  0  0  0
   -0.3860    2.8360   -0.4950 H   0  0  0  0  0  0  0  0  0  0  0  0
   -0.5370    1.4090    1.4250 H   0  0  0  0  0  0  0  0  0  0  0  0
    1.8760   -0.0960    0.3880 H   0  0  0  0  0  0  0  0  0  0  0  0
   -4.0120    0.1580    1.2270 C   0  0  0  0  0  0  0  0  0  0  0  0
   -4.5850   -0.7440    0.1650 C   0  0  0  0  0  0  0  0  0  0  0  0
   -4.2940   -0.3080   -1.2290 C   0  0  2  0  0  0  0  0  0  0  0  0
   -4.9660   -1.3430   -2.1490 C   0  0  0  0  0  0  0  0  0  0  0  0
   -2.8590   -0.2750   -1.6260 C   0  0  2  0  0  0  0  0  0  0  0  0
   -2.0130    0.5930   -0.8630 N   0  0  0  0  0  0  0  0  0  0  0  0
   -2.7850    0.1670   -3.0490 C   0  0  0  0  0  0  0  0  0  0  0  0
   -2.0800    1.1490   -3.3920 O   0  0  0  0  0  0  0  0  0  0  0  0
   -3.4870   -0.4800   -4.0520 O   0  0  0  0  0  0  0  0  0  0  0  0
   -4.7460    0.2000    2.0850 H   0  0  0  0  0  0  0  0  0  0  0  0
   -3.9700    1.2000    0.8510 H   0  0  0  0  0  0  0  0  0  0  0  0
   -3.0180   -0.1830    1.6030 H   0  0  0  0  0  0  0  0  0  0  0  0
   -5.7100   -0.6980    0.2780 H   0  0  0  0  0  0  0  0  0  0  0  0
   -4.3490   -1.8140    0.3510 H   0  0  0  0  0  0  0  0  0  0  0  0
   -4.8150    0.6670   -1.3910 H   0  0  0  0  0  0  0  0  0  0  0  0
   -5.6960   -1.9610   -1.5590 H   0  0  0  0  0  0  0  0  0  0  0  0
   -5.5100   -0.8520   -2.9790 H   0  0  0  0  0  0  0  0  0  0  0  0
   -4.2260   -2.0730   -2.5270 H   0  0  0  0  0  0  0  0  0  0  0  0
   -2.4850   -1.3310   -1.6400 H   0  0  0  0  0  0  0  0  0  0  0  0
   -2.2780    1.5920   -0.7720 H   0  0  0  0  0  0  0  0  0  0  0  0
  1 10  1  0  0  0  0
  1 11  1  0  0  0  0
  2 12  1  6  0  0  0
  2  1  1  0  0  0  0
  3  2  1  0  0  0  0
  3 14  1  0  0  0  0
  3 13  1  0  0  0  0
  4 15  1  0  0  0  0
  4  3  1  0  0  0  0
  5  6  1  0  0  0  0
  5  4  1  0  0  0  0
  6  7  1  0  0  0  0
  6 19  1  0  0  0  0
  7 22  1  0  0  0  0
  8  2  1  0  0  0  0
  8  9  2  0  0  0  0
 16  4  1  0  0  0  0
 17  5  1  0  0  0  0
 18  5  1  0  0  0  0
 20  6  1  0  0  0  0
 21  7  1  0  0  0  0
 23 29  1  0  0  0  0
 23 24  1  0  0  0  0
 24 30  1  0  0  0  0
 24 25  1  0  0  0  0
 25 26  1  0  0  0  0
 25 32  1  1  0  0  0
 26  8  1  0  0  0  0
 27 25  1  0  0  0  0
 28 27  2  0  0  0  0
 31 24  1  0  0  0  0
 33 26  1  0  0  0  0
 34 45  1  0  0  0  0
 34 43  1  0  0  0  0
 35 46  1  0  0  0  0
 35 47  1  0  0  0  0
 35 34  1  0  0  0  0
 36 48  1  6  0  0  0
 36 35  1  0  0  0  0
 37 49  1  0  0  0  0
 37 36  1  0  0  0  0
 38 52  1  1  0  0  0
 38 36  1  0  0  0  0
 38 39  1  0  0  0  0
 39 53  1  0  0  0  0
 39 27  1  0  0  0  0
 40 38  1  0  0  0  0
 41 40  1  0  0  0  0
 42 40  2  0  0  0  0
 44 34  1  0  0  0  0
 50 37  1  0  0  0  0
 51 37  1  0  0  0  0
M  END
$$$$
