KSL.pdb
 OpenBabel07022418523D

 53 52  0  0  1  0  0  0  0  0999 V2000
    2.0990   -0.6340    4.6340 N   0  0  0  0  0  0  0  0  0  0  0  0
    2.3620   -0.6690    3.1750 C   0  0  1  0  0  0  0  0  0  0  0  0
    2.2590   -2.1430    2.8290 C   0  0  0  0  0  0  0  0  0  0  0  0
    2.4800   -2.4740    1.4050 C   0  0  0  0  0  0  0  0  0  0  0  0
    2.3490   -3.9590    1.1920 C   0  0  0  0  0  0  0  0  0  0  0  0
    3.3660   -4.6860    2.0140 C   0  0  0  0  0  0  0  0  0  0  0  0
    3.2890   -6.1290    1.8210 N   0  0  0  0  0  0  0  0  0  0  0  0
    1.3590    0.1810    2.5230 C   0  0  0  0  0  0  0  0  0  0  0  0
    0.3710    0.6130    3.1810 O   0  0  0  0  0  0  0  0  0  0  0  0
    1.0570   -0.7650    4.8060 H   0  0  0  0  0  0  0  0  0  0  0  0
    2.5490   -1.4640    5.0900 H   0  0  0  0  0  0  0  0  0  0  0  0
    3.3940   -0.3430    3.0440 H   0  0  0  0  0  0  0  0  0  0  0  0
    3.0930   -2.6140    3.4340 H   0  0  0  0  0  0  0  0  0  0  0  0
    1.3280   -2.5950    3.1830 H   0  0  0  0  0  0  0  0  0  0  0  0
    3.4900   -2.1870    1.0280 H   0  0  0  0  0  0  0  0  0  0  0  0
    1.6780   -2.0210    0.7490 H   0  0  0  0  0  0  0  0  0  0  0  0
    1.3410   -4.2460    1.6160 H   0  0  0  0  0  0  0  0  0  0  0  0
    2.3900   -4.2390    0.1210 H   0  0  0  0  0  0  0  0  0  0  0  0
    3.1830   -4.5570    3.1200 H   0  0  0  0  0  0  0  0  0  0  0  0
    4.3620   -4.2890    1.8070 H   0  0  0  0  0  0  0  0  0  0  0  0
    2.3380   -6.4530    1.6040 H   0  0  0  0  0  0  0  0  0  0  0  0
    3.7870   -6.6450    2.5530 H   0  0  0  0  0  0  0  0  0  0  0  0
    1.4980    3.3750    1.2660 O   0  0  0  0  0  0  0  0  0  0  0  0
    0.9200    2.7450    0.1750 C   0  0  0  0  0  0  0  0  0  0  0  0
    0.3840    1.4010    0.6300 C   0  0  2  0  0  0  0  0  0  0  0  0
    1.4330    0.5600    1.1580 N   0  0  0  0  0  0  0  0  0  0  0  0
   -0.3350    0.7040   -0.4590 C   0  0  0  0  0  0  0  0  0  0  0  0
    0.0300   -0.4560   -0.7760 O   0  0  0  0  0  0  0  0  0  0  0  0
    2.3180    3.8560    0.9780 H   0  0  0  0  0  0  0  0  0  0  0  0
    1.6330    2.6490   -0.6600 H   0  0  0  0  0  0  0  0  0  0  0  0
    0.0870    3.3870   -0.1770 H   0  0  0  0  0  0  0  0  0  0  0  0
   -0.3860    1.6370    1.4000 H   0  0  0  0  0  0  0  0  0  0  0  0
    2.2090    0.2600    0.5490 H   0  0  0  0  0  0  0  0  0  0  0  0
   -5.2440   -0.1570   -0.1820 C   0  0  0  0  0  0  0  0  0  0  0  0
   -3.7640   -0.1050   -0.5500 C   0  0  0  0  0  0  0  0  0  0  0  0
   -3.2460   -1.5210   -0.7070 C   0  0  0  0  0  0  0  0  0  0  0  0
   -3.5740    0.6110   -1.8580 C   0  0  0  0  0  0  0  0  0  0  0  0
   -2.1010    0.6470   -2.1790 C   0  0  2  0  0  0  0  0  0  0  0  0
   -1.4170    1.3490   -1.1220 N   0  0  0  0  0  0  0  0  0  0  0  0
   -1.8850    1.3730   -3.4640 C   0  0  0  0  0  0  0  0  0  0  0  0
   -1.1980    2.4210   -3.5120 O   0  0  0  0  0  0  0  0  0  0  0  0
   -2.4350    0.9210   -4.6550 O   0  0  0  0  0  0  0  0  0  0  0  0
   -5.5840    0.8750    0.0760 H   0  0  0  0  0  0  0  0  0  0  0  0
   -5.8220   -0.5650   -1.0290 H   0  0  0  0  0  0  0  0  0  0  0  0
   -5.3350   -0.8440    0.6810 H   0  0  0  0  0  0  0  0  0  0  0  0
   -3.2360    0.4160    0.2600 H   0  0  0  0  0  0  0  0  0  0  0  0
   -2.3230   -1.6930   -0.1190 H   0  0  0  0  0  0  0  0  0  0  0  0
   -3.0480   -1.7810   -1.7490 H   0  0  0  0  0  0  0  0  0  0  0  0
   -4.0350   -2.2380   -0.3370 H   0  0  0  0  0  0  0  0  0  0  0  0
   -4.1640    0.1460   -2.6790 H   0  0  0  0  0  0  0  0  0  0  0  0
   -3.9380    1.6740   -1.7850 H   0  0  0  0  0  0  0  0  0  0  0  0
   -1.6950   -0.3750   -2.3050 H   0  0  0  0  0  0  0  0  0  0  0  0
   -1.6840    2.2980   -0.8340 H   0  0  0  0  0  0  0  0  0  0  0  0
  1 10  1  0  0  0  0
  1 11  1  0  0  0  0
  2 12  1  6  0  0  0
  2  1  1  0  0  0  0
  3  2  1  0  0  0  0
  3 14  1  0  0  0  0
  3 13  1  0  0  0  0
  4  3  1  0  0  0  0
  5  4  1  0  0  0  0
  5 17  1  0  0  0  0
  5  6  1  0  0  0  0
  6 19  1  0  0  0  0
  7  6  1  0  0  0  0
  7 22  1  0  0  0  0
  8  2  1  0  0  0  0
  8  9  2  0  0  0  0
 15  4  1  0  0  0  0
 16  4  1  0  0  0  0
 18  5  1  0  0  0  0
 20  6  1  0  0  0  0
 21  7  1  0  0  0  0
 24 25  1  0  0  0  0
 24 23  1  0  0  0  0
 25 26  1  0  0  0  0
 25 32  1  1  0  0  0
 26  8  1  0  0  0  0
 27 25  1  0  0  0  0
 28 27  2  0  0  0  0
 29 23  1  0  0  0  0
 30 24  1  0  0  0  0
 31 24  1  0  0  0  0
 33 26  1  0  0  0  0
 34 43  1  0  0  0  0
 34 45  1  0  0  0  0
 35 34  1  0  0  0  0
 35 46  1  0  0  0  0
 36 35  1  0  0  0  0
 36 49  1  0  0  0  0
 36 47  1  0  0  0  0
 37 51  1  0  0  0  0
 37 35  1  0  0  0  0
 38 52  1  6  0  0  0
 38 37  1  0  0  0  0
 38 39  1  0  0  0  0
 39 53  1  0  0  0  0
 39 27  1  0  0  0  0
 40 38  1  0  0  0  0
 41 40  1  0  0  0  0
 42 40  2  0  0  0  0
 44 34  1  0  0  0  0
 48 36  1  0  0  0  0
 50 37  1  0  0  0  0
M  END
$$$$
