KSQ.pdb
 OpenBabel07022418523D

 51 50  0  0  1  0  0  0  0  0999 V2000
    0.3910   -3.2340    1.4260 N   0  0  0  0  0  0  0  0  0  0  0  0
    1.4940   -2.4820    2.1460 C   0  0  1  0  0  0  0  0  0  0  0  0
    2.7070   -3.2080    1.7380 C   0  0  0  0  0  0  0  0  0  0  0  0
    4.0420   -2.8610    2.2040 C   0  0  0  0  0  0  0  0  0  0  0  0
    4.6570   -1.5570    1.9130 C   0  0  0  0  0  0  0  0  0  0  0  0
    6.0870   -1.5810    2.5320 C   0  0  0  0  0  0  0  0  0  0  0  0
    6.6760   -0.3000    2.2400 N   0  0  0  0  0  0  0  0  0  0  0  0
    1.3040   -1.1090    1.6450 C   0  0  0  0  0  0  0  0  0  0  0  0
    1.7200   -0.1510    2.3200 O   0  0  0  0  0  0  0  0  0  0  0  0
   -0.5180   -2.7920    1.7110 H   0  0  0  0  0  0  0  0  0  0  0  0
    0.4360   -4.2230    1.8030 H   0  0  0  0  0  0  0  0  0  0  0  0
    1.2360   -2.6110    3.2060 H   0  0  0  0  0  0  0  0  0  0  0  0
    2.6510   -3.3310    0.6060 H   0  0  0  0  0  0  0  0  0  0  0  0
    2.5280   -4.2980    2.0600 H   0  0  0  0  0  0  0  0  0  0  0  0
    4.1110   -3.0290    3.3310 H   0  0  0  0  0  0  0  0  0  0  0  0
    4.7760   -3.6540    1.8310 H   0  0  0  0  0  0  0  0  0  0  0  0
    4.8610   -1.4740    0.8120 H   0  0  0  0  0  0  0  0  0  0  0  0
    4.2130   -0.6580    2.3090 H   0  0  0  0  0  0  0  0  0  0  0  0
    6.6550   -2.4360    2.1400 H   0  0  0  0  0  0  0  0  0  0  0  0
    5.9030   -1.6450    3.6200 H   0  0  0  0  0  0  0  0  0  0  0  0
    5.9390    0.4250    2.3930 H   0  0  0  0  0  0  0  0  0  0  0  0
    7.4970   -0.1740    2.8460 H   0  0  0  0  0  0  0  0  0  0  0  0
    2.4700    0.5020   -1.3490 O   0  0  0  0  0  0  0  0  0  0  0  0
    1.1200    0.8160   -1.3650 C   0  0  0  0  0  0  0  0  0  0  0  0
    0.5270    0.5720    0.0150 C   0  0  2  0  0  0  0  0  0  0  0  0
    0.6660   -0.8010    0.4210 N   0  0  0  0  0  0  0  0  0  0  0  0
   -0.9340    0.8470   -0.1200 C   0  0  0  0  0  0  0  0  0  0  0  0
   -1.2330    2.0330   -0.4780 O   0  0  0  0  0  0  0  0  0  0  0  0
    2.9660    1.3670   -1.3740 H   0  0  0  0  0  0  0  0  0  0  0  0
    0.9120    1.8550   -1.6410 H   0  0  0  0  0  0  0  0  0  0  0  0
    0.6380    0.1630   -2.1190 H   0  0  0  0  0  0  0  0  0  0  0  0
    0.9680    1.2230    0.7690 H   0  0  0  0  0  0  0  0  0  0  0  0
    0.3020   -1.5460   -0.1780 H   0  0  0  0  0  0  0  0  0  0  0  0
   -6.8100    1.8500   -1.7580 N   0  0  0  0  0  0  0  0  0  0  0  0
   -5.5290    1.2040   -1.7470 C   0  0  0  0  0  0  0  0  0  0  0  0
   -4.5550    1.8910   -2.1120 O   0  0  0  0  0  0  0  0  0  0  0  0
   -5.3830   -0.1820   -1.3340 C   0  0  0  0  0  0  0  0  0  0  0  0
   -3.9530   -0.5610   -1.1250 C   0  0  0  0  0  0  0  0  0  0  0  0
   -3.3290    0.2630   -0.0400 C   0  0  2  0  0  0  0  0  0  0  0  0
   -1.9150   -0.1400    0.1310 N   0  0  0  0  0  0  0  0  0  0  0  0
   -3.9540    0.1030    1.2920 C   0  0  0  0  0  0  0  0  0  0  0  0
   -3.2710   -0.3660    2.2300 O   0  0  0  0  0  0  0  0  0  0  0  0
   -5.2570    0.4380    1.5940 O   0  0  0  0  0  0  0  0  0  0  0  0
   -7.3040    2.0930   -0.8670 H   0  0  0  0  0  0  0  0  0  0  0  0
   -7.2800    2.0940   -2.6480 H   0  0  0  0  0  0  0  0  0  0  0  0
   -5.8860   -0.8920   -2.0620 H   0  0  0  0  0  0  0  0  0  0  0  0
   -5.9500   -0.3710   -0.3810 H   0  0  0  0  0  0  0  0  0  0  0  0
   -3.3400   -0.4180   -2.0620 H   0  0  0  0  0  0  0  0  0  0  0  0
   -3.8830   -1.6330   -0.8450 H   0  0  0  0  0  0  0  0  0  0  0  0
   -3.3170    1.3150   -0.3470 H   0  0  0  0  0  0  0  0  0  0  0  0
   -1.6500   -1.1060    0.4230 H   0  0  0  0  0  0  0  0  0  0  0  0
  1 10  1  0  0  0  0
  1 11  1  0  0  0  0
  1  2  1  0  0  0  0
  2 12  1  1  0  0  0
  3 14  1  0  0  0  0
  3  2  1  0  0  0  0
  3  4  1  0  0  0  0
  4 15  1  0  0  0  0
  5  4  1  0  0  0  0
  5 18  1  0  0  0  0
  5  6  1  0  0  0  0
  6 20  1  0  0  0  0
  7 21  1  0  0  0  0
  7  6  1  0  0  0  0
  7 22  1  0  0  0  0
  8  2  1  0  0  0  0
  8  9  2  0  0  0  0
 13  3  1  0  0  0  0
 16  4  1  0  0  0  0
 17  5  1  0  0  0  0
 19  6  1  0  0  0  0
 24 23  1  0  0  0  0
 24 25  1  0  0  0  0
 25 26  1  0  0  0  0
 25 32  1  1  0  0  0
 26  8  1  0  0  0  0
 27 25  1  0  0  0  0
 27 40  1  0  0  0  0
 28 27  2  0  0  0  0
 29 23  1  0  0  0  0
 30 24  1  0  0  0  0
 31 24  1  0  0  0  0
 33 26  1  0  0  0  0
 34 35  1  0  0  0  0
 34 44  1  0  0  0  0
 35 37  1  0  0  0  0
 36 35  2  0  0  0  0
 37 38  1  0  0  0  0
 37 47  1  0  0  0  0
 38 49  1  0  0  0  0
 38 39  1  0  0  0  0
 39 50  1  6  0  0  0
 39 40  1  0  0  0  0
 39 41  1  0  0  0  0
 40 51  1  0  0  0  0
 41 43  2  0  0  0  0
 41 42  1  0  0  0  0
 45 34  1  0  0  0  0
 46 37  1  0  0  0  0
 48 38  1  0  0  0  0
M  END
$$$$
