KSR.pdb
 OpenBabel07022418523D

 57 56  0  0  1  0  0  0  0  0999 V2000
    1.0130    3.7840    0.0590 N   0  0  0  0  0  0  0  0  0  0  0  0
    0.6410    3.0740    1.2830 C   0  0  1  0  0  0  0  0  0  0  0  0
   -0.2750    3.9480    2.0620 C   0  0  0  0  0  0  0  0  0  0  0  0
   -0.7500    3.3690    3.3490 C   0  0  0  0  0  0  0  0  0  0  0  0
    0.3850    3.0590    4.2790 C   0  0  0  0  0  0  0  0  0  0  0  0
   -0.1210    2.4730    5.5830 C   0  0  0  0  0  0  0  0  0  0  0  0
    1.0010    2.1850    6.4560 N   0  0  0  0  0  0  0  0  0  0  0  0
    0.0160    1.7950    0.8830 C   0  0  0  0  0  0  0  0  0  0  0  0
   -0.4230    1.0150    1.7630 O   0  0  0  0  0  0  0  0  0  0  0  0
    1.4800    4.6720    0.3660 H   0  0  0  0  0  0  0  0  0  0  0  0
    0.1350    3.9840   -0.4530 H   0  0  0  0  0  0  0  0  0  0  0  0
    1.5590    2.8770    1.8820 H   0  0  0  0  0  0  0  0  0  0  0  0
   -1.1320    4.3340    1.4650 H   0  0  0  0  0  0  0  0  0  0  0  0
    0.3120    4.8770    2.3280 H   0  0  0  0  0  0  0  0  0  0  0  0
   -1.4420    2.5150    3.2340 H   0  0  0  0  0  0  0  0  0  0  0  0
   -1.3620    4.1710    3.8580 H   0  0  0  0  0  0  0  0  0  0  0  0
    0.9110    4.0240    4.5300 H   0  0  0  0  0  0  0  0  0  0  0  0
    1.1160    2.4030    3.8050 H   0  0  0  0  0  0  0  0  0  0  0  0
   -0.6120    1.5050    5.3570 H   0  0  0  0  0  0  0  0  0  0  0  0
   -0.7970    3.1500    6.1010 H   0  0  0  0  0  0  0  0  0  0  0  0
    1.1540    1.1570    6.5860 H   0  0  0  0  0  0  0  0  0  0  0  0
    1.8650    2.6750    6.1220 H   0  0  0  0  0  0  0  0  0  0  0  0
   -2.8590    1.1000   -0.9150 O   0  0  0  0  0  0  0  0  0  0  0  0
   -1.9650    0.3240   -1.6510 C   0  0  0  0  0  0  0  0  0  0  0  0
   -0.7270    0.1550   -0.8010 C   0  0  2  0  0  0  0  0  0  0  0  0
   -0.1070    1.4120   -0.4720 N   0  0  0  0  0  0  0  0  0  0  0  0
    0.3140   -0.6670   -1.4880 C   0  0  0  0  0  0  0  0  0  0  0  0
    1.4950   -0.2550   -1.6660 O   0  0  0  0  0  0  0  0  0  0  0  0
   -3.4830    1.5060   -1.5460 H   0  0  0  0  0  0  0  0  0  0  0  0
   -2.3530   -0.6950   -1.8460 H   0  0  0  0  0  0  0  0  0  0  0  0
   -1.7380    0.8050   -2.6130 H   0  0  0  0  0  0  0  0  0  0  0  0
   -1.0600   -0.3170    0.1430 H   0  0  0  0  0  0  0  0  0  0  0  0
    0.2640    2.0670   -1.2260 H   0  0  0  0  0  0  0  0  0  0  0  0
   -0.0110   -5.3170    2.3360 N   0  0  0  0  0  0  0  0  0  0  0  0
   -0.4130   -5.6650    1.0200 C   0  0  0  0  0  0  0  0  0  0  0  0
   -1.6500   -5.5380    0.7110 N   0  0  0  0  0  0  0  0  0  0  0  0
    0.4750   -6.1510    0.0150 N   0  0  0  0  0  0  0  0  0  0  0  0
    0.1290   -6.2120   -1.3680 C   0  0  0  0  0  0  0  0  0  0  0  0
   -0.0270   -4.8820   -2.0430 C   0  0  0  0  0  0  0  0  0  0  0  0
    1.2400   -4.0820   -1.9890 C   0  0  0  0  0  0  0  0  0  0  0  0
    1.1040   -2.7530   -2.6650 C   0  0  2  0  0  0  0  0  0  0  0  0
    0.0450   -1.9810   -1.9960 N   0  0  0  0  0  0  0  0  0  0  0  0
    0.7540   -2.9980   -4.0750 C   0  0  0  0  0  0  0  0  0  0  0  0
    1.5620   -3.6450   -4.7800 O   0  0  0  0  0  0  0  0  0  0  0  0
   -0.4160   -2.5570   -4.6710 O   0  0  0  0  0  0  0  0  0  0  0  0
   -0.6390   -5.5560    3.1320 H   0  0  0  0  0  0  0  0  0  0  0  0
    0.8850   -4.8380    2.4910 H   0  0  0  0  0  0  0  0  0  0  0  0
   -2.3720   -5.1900    1.3860 H   0  0  0  0  0  0  0  0  0  0  0  0
    1.4160   -6.4690    0.3340 H   0  0  0  0  0  0  0  0  0  0  0  0
   -0.8440   -6.7790   -1.4590 H   0  0  0  0  0  0  0  0  0  0  0  0
    0.8670   -6.8330   -1.9000 H   0  0  0  0  0  0  0  0  0  0  0  0
   -0.2530   -5.0760   -3.1090 H   0  0  0  0  0  0  0  0  0  0  0  0
   -0.8950   -4.3800   -1.6100 H   0  0  0  0  0  0  0  0  0  0  0  0
    2.0210   -4.6620   -2.5570 H   0  0  0  0  0  0  0  0  0  0  0  0
    1.6400   -3.9850   -0.9580 H   0  0  0  0  0  0  0  0  0  0  0  0
    2.0470   -2.2090   -2.6260 H   0  0  0  0  0  0  0  0  0  0  0  0
   -0.9060   -2.3500   -1.8730 H   0  0  0  0  0  0  0  0  0  0  0  0
  1 10  1  0  0  0  0
  1  2  1  0  0  0  0
  2 12  1  1  0  0  0
  2  3  1  0  0  0  0
  3 14  1  0  0  0  0
  3  4  1  0  0  0  0
  4 16  1  0  0  0  0
  4  5  1  0  0  0  0
  5 17  1  0  0  0  0
  5  6  1  0  0  0  0
  6 20  1  0  0  0  0
  6  7  1  0  0  0  0
  7 21  1  0  0  0  0
  8  2  1  0  0  0  0
  8  9  2  0  0  0  0
 11  1  1  0  0  0  0
 13  3  1  0  0  0  0
 15  4  1  0  0  0  0
 18  5  1  0  0  0  0
 19  6  1  0  0  0  0
 22  7  1  0  0  0  0
 24 23  1  0  0  0  0
 24 25  1  0  0  0  0
 25 26  1  0  0  0  0
 25 32  1  1  0  0  0
 26  8  1  0  0  0  0
 27 25  1  0  0  0  0
 28 27  2  0  0  0  0
 29 23  1  0  0  0  0
 30 24  1  0  0  0  0
 31 24  1  0  0  0  0
 33 26  1  0  0  0  0
 34 47  1  0  0  0  0
 34 46  1  0  0  0  0
 35 34  1  0  0  0  0
 36 35  2  0  0  0  0
 36 48  1  0  0  0  0
 37 49  1  0  0  0  0
 37 35  1  0  0  0  0
 38 37  1  0  0  0  0
 39 40  1  0  0  0  0
 39 53  1  0  0  0  0
 39 38  1  0  0  0  0
 40 55  1  0  0  0  0
 41 56  1  1  0  0  0
 41 42  1  0  0  0  0
 41 40  1  0  0  0  0
 42 57  1  0  0  0  0
 42 27  1  0  0  0  0
 43 41  1  0  0  0  0
 44 43  2  0  0  0  0
 45 43  1  0  0  0  0
 50 38  1  0  0  0  0
 51 38  1  0  0  0  0
 52 39  1  0  0  0  0
 54 40  1  0  0  0  0
M  END
$$$$
