KSS.pdb
 OpenBabel07022418523D

 45 44  0  0  1  0  0  0  0  0999 V2000
    1.3840   -2.2080   -1.6610 N   0  0  0  0  0  0  0  0  0  0  0  0
    1.5670   -2.7880   -0.3540 C   0  0  1  0  0  0  0  0  0  0  0  0
    3.0050   -3.0770   -0.0230 C   0  0  0  0  0  0  0  0  0  0  0  0
    3.9180   -1.9110   -0.0140 C   0  0  0  0  0  0  0  0  0  0  0  0
    4.0530   -1.1510   -1.2850 C   0  0  0  0  0  0  0  0  0  0  0  0
    5.0540   -0.0160   -1.0040 C   0  0  0  0  0  0  0  0  0  0  0  0
    4.5350    0.8110    0.0440 N   0  0  0  0  0  0  0  0  0  0  0  0
    0.8880   -2.0600    0.7180 C   0  0  0  0  0  0  0  0  0  0  0  0
    0.9940   -2.4990    1.8920 O   0  0  0  0  0  0  0  0  0  0  0  0
    1.7710   -2.8200   -2.4120 H   0  0  0  0  0  0  0  0  0  0  0  0
    0.4150   -2.0040   -1.9020 H   0  0  0  0  0  0  0  0  0  0  0  0
    1.0670   -3.8030   -0.4090 H   0  0  0  0  0  0  0  0  0  0  0  0
    3.3920   -3.9000   -0.6600 H   0  0  0  0  0  0  0  0  0  0  0  0
    2.9910   -3.5080    1.0200 H   0  0  0  0  0  0  0  0  0  0  0  0
    4.9440   -2.3150    0.2340 H   0  0  0  0  0  0  0  0  0  0  0  0
    3.6920   -1.1970    0.8040 H   0  0  0  0  0  0  0  0  0  0  0  0
    3.1150   -0.6240   -1.5560 H   0  0  0  0  0  0  0  0  0  0  0  0
    4.4900   -1.7270   -2.1170 H   0  0  0  0  0  0  0  0  0  0  0  0
    5.2300    0.5280   -1.9550 H   0  0  0  0  0  0  0  0  0  0  0  0
    5.9780   -0.5250   -0.6550 H   0  0  0  0  0  0  0  0  0  0  0  0
    5.1000    0.7090    0.9050 H   0  0  0  0  0  0  0  0  0  0  0  0
    4.5340    1.8060   -0.2670 H   0  0  0  0  0  0  0  0  0  0  0  0
    1.4810    0.9140    1.9930 O   0  0  0  0  0  0  0  0  0  0  0  0
    0.1220    1.1470    1.7160 C   0  0  0  0  0  0  0  0  0  0  0  0
   -0.5360   -0.1980    1.5820 C   0  0  2  0  0  0  0  0  0  0  0  0
    0.1210   -0.8920    0.4940 N   0  0  0  0  0  0  0  0  0  0  0  0
   -1.9680   -0.1390    1.3210 C   0  0  0  0  0  0  0  0  0  0  0  0
   -2.4340   -0.6470    0.2790 O   0  0  0  0  0  0  0  0  0  0  0  0
    1.9750    0.6360    1.1820 H   0  0  0  0  0  0  0  0  0  0  0  0
    0.0810    1.7560    0.8080 H   0  0  0  0  0  0  0  0  0  0  0  0
   -0.2820    1.6580    2.6130 H   0  0  0  0  0  0  0  0  0  0  0  0
   -0.3050   -0.7580    2.5210 H   0  0  0  0  0  0  0  0  0  0  0  0
    0.0640   -0.5680   -0.5000 H   0  0  0  0  0  0  0  0  0  0  0  0
   -4.7280   -1.5450    3.0220 O   0  0  0  0  0  0  0  0  0  0  0  0
   -5.1170   -0.2030    3.0230 C   0  0  0  0  0  0  0  0  0  0  0  0
   -4.3090    0.5480    1.9650 C   0  0  2  0  0  0  0  0  0  0  0  0
   -2.9040    0.4850    2.2130 N   0  0  0  0  0  0  0  0  0  0  0  0
   -4.8500    1.9160    1.8920 C   0  0  0  0  0  0  0  0  0  0  0  0
   -4.1210    2.9460    2.0380 O   0  0  0  0  0  0  0  0  0  0  0  0
   -6.1910    2.0850    1.6570 O   0  0  0  0  0  0  0  0  0  0  0  0
   -4.4790   -1.8430    2.1040 H   0  0  0  0  0  0  0  0  0  0  0  0
   -5.0010    0.2550    4.0080 H   0  0  0  0  0  0  0  0  0  0  0  0
   -6.1750   -0.1850    2.6860 H   0  0  0  0  0  0  0  0  0  0  0  0
   -4.5080    0.0410    0.9950 H   0  0  0  0  0  0  0  0  0  0  0  0
   -2.4610    0.9020    3.0820 H   0  0  0  0  0  0  0  0  0  0  0  0
  1  2  1  0  0  0  0
  2 12  1  6  0  0  0
  2  3  1  0  0  0  0
  2  8  1  0  0  0  0
  3  4  1  0  0  0  0
  3 14  1  0  0  0  0
  4 15  1  0  0  0  0
  4 16  1  0  0  0  0
  5  6  1  0  0  0  0
  5  4  1  0  0  0  0
  6 20  1  0  0  0  0
  6  7  1  0  0  0  0
  7 21  1  0  0  0  0
  8  9  2  0  0  0  0
 10  1  1  0  0  0  0
 11  1  1  0  0  0  0
 13  3  1  0  0  0  0
 17  5  1  0  0  0  0
 18  5  1  0  0  0  0
 19  6  1  0  0  0  0
 22  7  1  0  0  0  0
 24 23  1  0  0  0  0
 24 31  1  0  0  0  0
 25 24  1  0  0  0  0
 25 32  1  1  0  0  0
 26  8  1  0  0  0  0
 26 25  1  0  0  0  0
 27 25  1  0  0  0  0
 27 37  1  0  0  0  0
 28 27  2  0  0  0  0
 29 23  1  0  0  0  0
 30 24  1  0  0  0  0
 33 26  1  0  0  0  0
 34 35  1  0  0  0  0
 35 42  1  0  0  0  0
 36 44  1  6  0  0  0
 36 37  1  0  0  0  0
 36 35  1  0  0  0  0
 37 45  1  0  0  0  0
 38 36  1  0  0  0  0
 38 39  1  0  0  0  0
 40 38  2  0  0  0  0
 41 34  1  0  0  0  0
 43 35  1  0  0  0  0
M  END
$$$$
