KST.pdb
 OpenBabel07022418523D

 48 47  0  0  1  0  0  0  0  0999 V2000
    2.8040   -0.6310    3.0620 N   0  0  0  0  0  0  0  0  0  0  0  0
    3.1890   -0.5050    1.6460 C   0  0  1  0  0  0  0  0  0  0  0  0
    4.1980   -1.5650    1.3090 C   0  0  0  0  0  0  0  0  0  0  0  0
    3.7640   -2.9530    1.5060 C   0  0  0  0  0  0  0  0  0  0  0  0
    2.6530   -3.5160    0.7340 C   0  0  0  0  0  0  0  0  0  0  0  0
    2.8280   -3.5880   -0.7470 C   0  0  0  0  0  0  0  0  0  0  0  0
    3.9880   -4.4290   -1.0500 N   0  0  0  0  0  0  0  0  0  0  0  0
    1.9920   -0.4400    0.8150 C   0  0  0  0  0  0  0  0  0  0  0  0
    1.9930   -0.2780   -0.4310 O   0  0  0  0  0  0  0  0  0  0  0  0
    2.1970    0.1810    3.3120 H   0  0  0  0  0  0  0  0  0  0  0  0
    2.2760   -1.4980    3.2300 H   0  0  0  0  0  0  0  0  0  0  0  0
    3.6880    0.5160    1.5400 H   0  0  0  0  0  0  0  0  0  0  0  0
    5.0560   -1.3770    2.0300 H   0  0  0  0  0  0  0  0  0  0  0  0
    4.6670   -1.3550    0.3210 H   0  0  0  0  0  0  0  0  0  0  0  0
    3.4700   -3.0450    2.6030 H   0  0  0  0  0  0  0  0  0  0  0  0
    4.6520   -3.6630    1.4630 H   0  0  0  0  0  0  0  0  0  0  0  0
    2.5470   -4.6010    1.0630 H   0  0  0  0  0  0  0  0  0  0  0  0
    1.6480   -3.1010    0.9440 H   0  0  0  0  0  0  0  0  0  0  0  0
    1.9480   -4.1790   -1.1430 H   0  0  0  0  0  0  0  0  0  0  0  0
    2.8350   -2.6580   -1.2990 H   0  0  0  0  0  0  0  0  0  0  0  0
    4.8780   -3.9340   -0.8480 H   0  0  0  0  0  0  0  0  0  0  0  0
    4.0000   -4.6840   -2.0710 H   0  0  0  0  0  0  0  0  0  0  0  0
   -1.6150   -2.0730    2.0180 O   0  0  0  0  0  0  0  0  0  0  0  0
   -1.2530   -1.8150    0.6860 C   0  0  0  0  0  0  0  0  0  0  0  0
   -0.5260   -0.4940    0.5650 C   0  0  2  0  0  0  0  0  0  0  0  0
    0.6690   -0.5590    1.3840 N   0  0  0  0  0  0  0  0  0  0  0  0
   -1.4530    0.5670    1.0580 C   0  0  0  0  0  0  0  0  0  0  0  0
   -1.1330    1.2540    2.0640 O   0  0  0  0  0  0  0  0  0  0  0  0
   -1.9640   -1.2830    2.4760 H   0  0  0  0  0  0  0  0  0  0  0  0
   -2.1940   -1.8040    0.0790 H   0  0  0  0  0  0  0  0  0  0  0  0
   -0.6370   -2.6730    0.3520 H   0  0  0  0  0  0  0  0  0  0  0  0
   -0.2550   -0.3500   -0.4870 H   0  0  0  0  0  0  0  0  0  0  0  0
    0.5950   -0.6950    2.4060 H   0  0  0  0  0  0  0  0  0  0  0  0
   -2.5010    3.2710   -0.7520 C   0  0  0  0  0  0  0  0  0  0  0  0
   -3.8530    2.8060   -0.2520 C   0  0  1  0  0  0  0  0  0  0  0  0
   -4.4040    2.0300   -1.2970 O   0  0  0  0  0  0  0  0  0  0  0  0
   -3.6090    1.8610    0.8950 C   0  0  2  0  0  0  0  0  0  0  0  0
   -2.6860    0.8400    0.4430 N   0  0  0  0  0  0  0  0  0  0  0  0
   -4.9290    1.2510    1.2620 C   0  0  0  0  0  0  0  0  0  0  0  0
   -5.8820    1.9510    1.6810 O   0  0  0  0  0  0  0  0  0  0  0  0
   -5.1130   -0.1180    1.1400 O   0  0  0  0  0  0  0  0  0  0  0  0
   -2.6090    4.0470   -1.5550 H   0  0  0  0  0  0  0  0  0  0  0  0
   -1.9860    2.4150   -1.2500 H   0  0  0  0  0  0  0  0  0  0  0  0
   -1.8890    3.6450    0.0780 H   0  0  0  0  0  0  0  0  0  0  0  0
   -4.5080    3.6510    0.0030 H   0  0  0  0  0  0  0  0  0  0  0  0
   -5.1090    1.4250   -0.9600 H   0  0  0  0  0  0  0  0  0  0  0  0
   -3.2030    2.3870    1.7840 H   0  0  0  0  0  0  0  0  0  0  0  0
   -2.9630    0.2780   -0.3920 H   0  0  0  0  0  0  0  0  0  0  0  0
  1 11  1  0  0  0  0
  1 10  1  0  0  0  0
  2 12  1  6  0  0  0
  2  1  1  0  0  0  0
  3  4  1  0  0  0  0
  3  2  1  0  0  0  0
  3 13  1  0  0  0  0
  4 15  1  0  0  0  0
  5 18  1  0  0  0  0
  5 17  1  0  0  0  0
  5  4  1  0  0  0  0
  6  5  1  0  0  0  0
  7 21  1  0  0  0  0
  7  6  1  0  0  0  0
  8 26  1  0  0  0  0
  8  2  1  0  0  0  0
  9  8  2  0  0  0  0
 14  3  1  0  0  0  0
 16  4  1  0  0  0  0
 19  6  1  0  0  0  0
 20  6  1  0  0  0  0
 22  7  1  0  0  0  0
 23 29  1  0  0  0  0
 24 23  1  0  0  0  0
 25 32  1  6  0  0  0
 25 24  1  0  0  0  0
 25 27  1  0  0  0  0
 25 26  1  0  0  0  0
 26 33  1  0  0  0  0
 27 28  2  0  0  0  0
 30 24  1  0  0  0  0
 31 24  1  0  0  0  0
 34 35  1  0  0  0  0
 34 44  1  0  0  0  0
 35 45  1  1  0  0  0
 35 37  1  0  0  0  0
 36 46  1  0  0  0  0
 36 35  1  0  0  0  0
 37 39  1  0  0  0  0
 37 47  1  1  0  0  0
 38 37  1  0  0  0  0
 38 27  1  0  0  0  0
 39 40  1  0  0  0  0
 41 39  2  0  0  0  0
 42 34  1  0  0  0  0
 43 34  1  0  0  0  0
 48 38  1  0  0  0  0
M  END
$$$$
