KSY.pdb
 OpenBabel07022418523D

 55 55  0  0  1  0  0  0  0  0999 V2000
    2.0090   -2.5390    1.1920 N   0  0  0  0  0  0  0  0  0  0  0  0
    2.3330   -1.2370    1.8100 C   0  0  1  0  0  0  0  0  0  0  0  0
    3.8070   -0.9550    1.5820 C   0  0  0  0  0  0  0  0  0  0  0  0
    4.2450    0.3560    2.1770 C   0  0  0  0  0  0  0  0  0  0  0  0
    4.0230    0.4120    3.6660 C   0  0  0  0  0  0  0  0  0  0  0  0
    4.4930    1.7610    4.1690 C   0  0  0  0  0  0  0  0  0  0  0  0
    5.8900    1.9820    3.9030 N   0  0  0  0  0  0  0  0  0  0  0  0
    1.4470   -0.1840    1.2610 C   0  0  0  0  0  0  0  0  0  0  0  0
    1.5450    0.9760    1.7200 O   0  0  0  0  0  0  0  0  0  0  0  0
    1.3360   -3.0690    1.8090 H   0  0  0  0  0  0  0  0  0  0  0  0
    2.8760   -3.0880    1.0530 H   0  0  0  0  0  0  0  0  0  0  0  0
    2.2070   -1.3510    2.9160 H   0  0  0  0  0  0  0  0  0  0  0  0
    4.4130   -1.7930    1.9730 H   0  0  0  0  0  0  0  0  0  0  0  0
    3.9360   -0.8930    0.4720 H   0  0  0  0  0  0  0  0  0  0  0  0
    3.8340    1.2310    1.6720 H   0  0  0  0  0  0  0  0  0  0  0  0
    5.3700    0.4160    2.0390 H   0  0  0  0  0  0  0  0  0  0  0  0
    4.6180   -0.3620    4.1880 H   0  0  0  0  0  0  0  0  0  0  0  0
    2.9780    0.2980    3.9670 H   0  0  0  0  0  0  0  0  0  0  0  0
    3.9290    2.5710    3.6550 H   0  0  0  0  0  0  0  0  0  0  0  0
    4.3040    1.8860    5.2560 H   0  0  0  0  0  0  0  0  0  0  0  0
    6.0030    2.3740    2.9500 H   0  0  0  0  0  0  0  0  0  0  0  0
    6.4860    1.1360    4.0450 H   0  0  0  0  0  0  0  0  0  0  0  0
   -0.2460   -0.2940   -2.5920 O   0  0  0  0  0  0  0  0  0  0  0  0
   -0.0940    0.8070   -1.7860 C   0  0  0  0  0  0  0  0  0  0  0  0
   -0.3770    0.5290   -0.3240 C   0  0  2  0  0  0  0  0  0  0  0  0
    0.4910   -0.4760    0.2220 N   0  0  0  0  0  0  0  0  0  0  0  0
   -1.8130    0.2520   -0.0800 C   0  0  0  0  0  0  0  0  0  0  0  0
   -2.6440    1.0800   -0.5210 O   0  0  0  0  0  0  0  0  0  0  0  0
    0.4690   -0.4150   -3.2670 H   0  0  0  0  0  0  0  0  0  0  0  0
    0.8780    1.3050   -1.8500 H   0  0  0  0  0  0  0  0  0  0  0  0
   -0.8550    1.5730   -2.1050 H   0  0  0  0  0  0  0  0  0  0  0  0
   -0.1530    1.4910    0.2110 H   0  0  0  0  0  0  0  0  0  0  0  0
    0.4830   -1.4710   -0.0960 H   0  0  0  0  0  0  0  0  0  0  0  0
   -2.8900   -2.2350   -5.4290 O   0  0  0  0  0  0  0  0  0  0  0  0
   -3.2210   -2.2530   -4.0740 C   0  0  0  0  0  0  0  0  0  0  0  0
   -4.4450   -1.8010   -3.6090 C   0  0  0  0  0  0  0  0  0  0  0  0
   -4.7260   -1.8380   -2.2580 C   0  0  0  0  0  0  0  0  0  0  0  0
   -3.8270   -2.3140   -1.3170 C   0  0  0  0  0  0  0  0  0  0  0  0
   -4.1520   -2.3450    0.1300 C   0  0  0  0  0  0  0  0  0  0  0  0
   -3.7250   -1.0390    0.7900 C   0  0  2  0  0  0  0  0  0  0  0  0
   -2.2980   -0.8810    0.6160 N   0  0  0  0  0  0  0  0  0  0  0  0
   -4.0420   -1.0650    2.2280 C   0  0  0  0  0  0  0  0  0  0  0  0
   -3.1300   -0.9590    3.0690 O   0  0  0  0  0  0  0  0  0  0  0  0
   -2.5970   -2.7670   -1.7950 C   0  0  0  0  0  0  0  0  0  0  0  0
   -2.3230   -2.7270   -3.1430 C   0  0  0  0  0  0  0  0  0  0  0  0
   -5.3510   -1.2060    2.6330 O   0  0  0  0  0  0  0  0  0  0  0  0
   -2.4630   -1.4130   -5.8430 H   0  0  0  0  0  0  0  0  0  0  0  0
   -5.1770   -1.4200   -4.3240 H   0  0  0  0  0  0  0  0  0  0  0  0
   -5.6900   -1.4810   -1.9070 H   0  0  0  0  0  0  0  0  0  0  0  0
   -5.2310   -2.5230    0.2440 H   0  0  0  0  0  0  0  0  0  0  0  0
   -3.6010   -3.1790    0.6000 H   0  0  0  0  0  0  0  0  0  0  0  0
   -4.2730   -0.1880    0.3200 H   0  0  0  0  0  0  0  0  0  0  0  0
   -1.6390   -1.5740    0.9870 H   0  0  0  0  0  0  0  0  0  0  0  0
   -1.8610   -3.1500   -1.0840 H   0  0  0  0  0  0  0  0  0  0  0  0
   -1.3530   -3.0860   -3.5000 H   0  0  0  0  0  0  0  0  0  0  0  0
  1 10  1  0  0  0  0
  1  2  1  0  0  0  0
  2 12  1  1  0  0  0
  3  2  1  0  0  0  0
  3 13  1  0  0  0  0
  3  4  1  0  0  0  0
  4  5  1  0  0  0  0
  5 18  1  0  0  0  0
  5  6  1  0  0  0  0
  5 17  1  0  0  0  0
  6 20  1  0  0  0  0
  7 22  1  0  0  0  0
  7  6  1  0  0  0  0
  8  9  2  0  0  0  0
  8  2  1  0  0  0  0
 11  1  1  0  0  0  0
 14  3  1  0  0  0  0
 15  4  1  0  0  0  0
 16  4  1  0  0  0  0
 19  6  1  0  0  0  0
 21  7  1  0  0  0  0
 23 24  1  0  0  0  0
 24 25  1  0  0  0  0
 25 27  1  0  0  0  0
 25 32  1  1  0  0  0
 25 26  1  0  0  0  0
 26  8  1  0  0  0  0
 27 41  1  0  0  0  0
 28 27  2  0  0  0  0
 29 23  1  0  0  0  0
 30 24  1  0  0  0  0
 31 24  1  0  0  0  0
 33 26  1  0  0  0  0
 34 35  1  0  0  0  0
 35 36  2  0  0  0  0
 35 45  1  0  0  0  0
 36 37  1  0  0  0  0
 37 49  1  0  0  0  0
 37 38  2  0  0  0  0
 38 39  1  0  0  0  0
 39 50  1  0  0  0  0
 39 51  1  0  0  0  0
 39 40  1  0  0  0  0
 40 52  1  6  0  0  0
 40 42  1  0  0  0  0
 41 40  1  0  0  0  0
 41 53  1  0  0  0  0
 42 46  2  0  0  0  0
 42 43  1  0  0  0  0
 44 38  1  0  0  0  0
 44 54  1  0  0  0  0
 45 44  2  0  0  0  0
 47 34  1  0  0  0  0
 48 36  1  0  0  0  0
 55 45  1  0  0  0  0
M  END
$$$$
