KTF.pdb
 OpenBabel07022418523D

 57 57  0  0  1  0  0  0  0  0999 V2000
   -1.1110    2.4440    4.7640 N   0  0  0  0  0  0  0  0  0  0  0  0
    0.0990    1.7760    4.1260 C   0  0  1  0  0  0  0  0  0  0  0  0
    0.4430    0.7280    5.1360 C   0  0  0  0  0  0  0  0  0  0  0  0
    1.5910   -0.1530    4.9550 C   0  0  0  0  0  0  0  0  0  0  0  0
    1.5870   -1.0580    3.7590 C   0  0  0  0  0  0  0  0  0  0  0  0
    2.8740   -1.9050    3.8410 C   0  0  0  0  0  0  0  0  0  0  0  0
    2.9570   -2.8070    2.7300 N   0  0  0  0  0  0  0  0  0  0  0  0
   -0.4900    1.2260    2.8790 C   0  0  0  0  0  0  0  0  0  0  0  0
   -1.6600    0.7000    2.8960 O   0  0  0  0  0  0  0  0  0  0  0  0
   -1.6350    2.9230    3.9990 H   0  0  0  0  0  0  0  0  0  0  0  0
   -1.7180    1.6790    5.1330 H   0  0  0  0  0  0  0  0  0  0  0  0
    0.8790    2.5210    3.9530 H   0  0  0  0  0  0  0  0  0  0  0  0
   -0.4880    0.0640    5.2840 H   0  0  0  0  0  0  0  0  0  0  0  0
    0.5390    1.1980    6.1700 H   0  0  0  0  0  0  0  0  0  0  0  0
    1.7410   -0.8600    5.8410 H   0  0  0  0  0  0  0  0  0  0  0  0
    2.5290    0.4720    4.9170 H   0  0  0  0  0  0  0  0  0  0  0  0
    1.6400   -0.5030    2.8220 H   0  0  0  0  0  0  0  0  0  0  0  0
    0.7310   -1.7520    3.8000 H   0  0  0  0  0  0  0  0  0  0  0  0
    3.7020   -1.1660    3.7610 H   0  0  0  0  0  0  0  0  0  0  0  0
    2.8630   -2.4490    4.7920 H   0  0  0  0  0  0  0  0  0  0  0  0
    3.4220   -2.3570    1.9000 H   0  0  0  0  0  0  0  0  0  0  0  0
    2.0300   -3.1980    2.4600 H   0  0  0  0  0  0  0  0  0  0  0  0
    0.1320    2.7140   -0.8770 C   0  0  0  0  0  0  0  0  0  0  0  0
   -0.9940    1.8040   -0.4820 C   0  0  1  0  0  0  0  0  0  0  0  0
   -1.6340    1.2700   -1.5830 O   0  0  0  0  0  0  0  0  0  0  0  0
   -0.5470    0.6720    0.4230 C   0  0  2  0  0  0  0  0  0  0  0  0
    0.1340    1.2320    1.6050 N   0  0  0  0  0  0  0  0  0  0  0  0
    0.3840   -0.2510   -0.2600 C   0  0  0  0  0  0  0  0  0  0  0  0
    1.5690   -0.4310    0.1180 O   0  0  0  0  0  0  0  0  0  0  0  0
    1.0830    2.2070   -1.0640 H   0  0  0  0  0  0  0  0  0  0  0  0
    0.2710    3.5530   -0.1390 H   0  0  0  0  0  0  0  0  0  0  0  0
   -0.1630    3.2150   -1.8230 H   0  0  0  0  0  0  0  0  0  0  0  0
   -1.7240    2.4020    0.1020 H   0  0  0  0  0  0  0  0  0  0  0  0
   -2.5980    1.3840   -1.5090 H   0  0  0  0  0  0  0  0  0  0  0  0
   -1.4860    0.1780    0.7300 H   0  0  0  0  0  0  0  0  0  0  0  0
    1.0860    1.6450    1.5370 H   0  0  0  0  0  0  0  0  0  0  0  0
   -0.0320   -0.9890   -1.3960 N   0  0  0  0  0  0  0  0  0  0  0  0
    0.8900   -1.8860   -2.0540 C   0  0  1  0  0  0  0  0  0  0  0  0
    0.2890   -3.2810   -1.9040 C   0  0  0  0  0  0  0  0  0  0  0  0
   -1.0360   -3.3710   -2.5240 C   0  0  0  0  0  0  0  0  0  0  0  0
   -2.1860   -3.0900   -1.8030 C   0  0  0  0  0  0  0  0  0  0  0  0
   -3.4320   -3.1710   -2.3760 C   0  0  0  0  0  0  0  0  0  0  0  0
   -3.5670   -3.5350   -3.6880 C   0  0  0  0  0  0  0  0  0  0  0  0
   -2.4120   -3.8120   -4.3930 C   0  0  0  0  0  0  0  0  0  0  0  0
   -1.1510   -3.7390   -3.8450 C   0  0  0  0  0  0  0  0  0  0  0  0
    1.1030   -1.5440   -3.4670 C   0  0  0  0  0  0  0  0  0  0  0  0
    1.8740   -2.2210   -4.1840 O   0  0  0  0  0  0  0  0  0  0  0  0
    0.4520   -0.4640   -4.0300 O   0  0  0  0  0  0  0  0  0  0  0  0
   -0.9950   -0.9330   -1.8090 H   0  0  0  0  0  0  0  0  0  0  0  0
    1.8550   -1.8490   -1.5220 H   0  0  0  0  0  0  0  0  0  0  0  0
    0.2160   -3.5810   -0.8470 H   0  0  0  0  0  0  0  0  0  0  0  0
    0.9600   -4.0110   -2.3960 H   0  0  0  0  0  0  0  0  0  0  0  0
   -2.1010   -2.7960   -0.7500 H   0  0  0  0  0  0  0  0  0  0  0  0
   -4.3050   -2.9490   -1.8000 H   0  0  0  0  0  0  0  0  0  0  0  0
   -4.5600   -3.5990   -4.1430 H   0  0  0  0  0  0  0  0  0  0  0  0
   -2.4880   -4.1040   -5.4360 H   0  0  0  0  0  0  0  0  0  0  0  0
   -0.2520   -3.9600   -4.4130 H   0  0  0  0  0  0  0  0  0  0  0  0
  1 11  1  0  0  0  0
  2 12  1  6  0  0  0
  2  1  1  0  0  0  0
  2  3  1  0  0  0  0
  3 13  1  0  0  0  0
  3 14  1  0  0  0  0
  4  3  1  0  0  0  0
  4 15  1  0  0  0  0
  5 18  1  0  0  0  0
  5  6  1  0  0  0  0
  5  4  1  0  0  0  0
  6 20  1  0  0  0  0
  7  6  1  0  0  0  0
  8  9  2  0  0  0  0
  8  2  1  0  0  0  0
 10  1  1  0  0  0  0
 16  4  1  0  0  0  0
 17  5  1  0  0  0  0
 19  6  1  0  0  0  0
 21  7  1  0  0  0  0
 22  7  1  0  0  0  0
 23 24  1  0  0  0  0
 23 31  1  0  0  0  0
 24 33  1  1  0  0  0
 24 26  1  0  0  0  0
 25 34  1  0  0  0  0
 25 24  1  0  0  0  0
 26 35  1  1  0  0  0
 26 27  1  0  0  0  0
 27  8  1  0  0  0  0
 28 29  2  0  0  0  0
 28 26  1  0  0  0  0
 30 23  1  0  0  0  0
 32 23  1  0  0  0  0
 36 27  1  0  0  0  0
 37 28  1  0  0  0  0
 38 39  1  0  0  0  0
 38 50  1  1  0  0  0
 38 37  1  0  0  0  0
 39 51  1  0  0  0  0
 40 39  1  0  0  0  0
 40 41  1  0  0  0  0
 41 53  1  0  0  0  0
 42 41  2  0  0  0  0
 42 54  1  0  0  0  0
 43 42  1  0  0  0  0
 44 45  1  0  0  0  0
 44 43  2  0  0  0  0
 45 40  2  0  0  0  0
 46 38  1  0  0  0  0
 47 46  2  0  0  0  0
 48 46  1  0  0  0  0
 49 37  1  0  0  0  0
 52 39  1  0  0  0  0
 55 43  1  0  0  0  0
 56 44  1  0  0  0  0
 57 45  1  0  0  0  0
M  END
$$$$
