KTS.pdb
 OpenBabel07022418523D

 48 47  0  0  1  0  0  0  0  0999 V2000
   -0.6450   -3.4230    0.2550 N   0  0  0  0  0  0  0  0  0  0  0  0
    0.1830   -3.0530    1.4010 C   0  0  1  0  0  0  0  0  0  0  0  0
    1.4210   -3.8700    1.4830 C   0  0  0  0  0  0  0  0  0  0  0  0
    2.3450   -3.8370    0.3340 C   0  0  0  0  0  0  0  0  0  0  0  0
    2.9930   -2.5640   -0.0420 C   0  0  0  0  0  0  0  0  0  0  0  0
    3.9130   -1.9830    0.9960 C   0  0  0  0  0  0  0  0  0  0  0  0
    4.9590   -2.9750    1.2170 N   0  0  0  0  0  0  0  0  0  0  0  0
    0.3850   -1.6090    1.5460 C   0  0  0  0  0  0  0  0  0  0  0  0
    0.9330   -1.1270    2.5580 O   0  0  0  0  0  0  0  0  0  0  0  0
   -1.5560   -2.9150    0.3090 H   0  0  0  0  0  0  0  0  0  0  0  0
   -0.1560   -3.0750   -0.6000 H   0  0  0  0  0  0  0  0  0  0  0  0
   -0.4890   -3.3410    2.2880 H   0  0  0  0  0  0  0  0  0  0  0  0
    1.1080   -4.9520    1.6120 H   0  0  0  0  0  0  0  0  0  0  0  0
    1.9500   -3.6480    2.4370 H   0  0  0  0  0  0  0  0  0  0  0  0
    1.8670   -4.3050   -0.5620 H   0  0  0  0  0  0  0  0  0  0  0  0
    3.1840   -4.5640    0.5760 H   0  0  0  0  0  0  0  0  0  0  0  0
    2.2860   -1.8140   -0.4700 H   0  0  0  0  0  0  0  0  0  0  0  0
    3.6670   -2.8020   -0.9240 H   0  0  0  0  0  0  0  0  0  0  0  0
    4.4540   -1.0810    0.6100 H   0  0  0  0  0  0  0  0  0  0  0  0
    3.4420   -1.6780    1.9270 H   0  0  0  0  0  0  0  0  0  0  0  0
    4.7690   -3.5700    2.0390 H   0  0  0  0  0  0  0  0  0  0  0  0
    5.1300   -3.4960    0.3360 H   0  0  0  0  0  0  0  0  0  0  0  0
    1.1020    2.9030   -0.1980 C   0  0  0  0  0  0  0  0  0  0  0  0
    1.0020    1.4020   -0.3660 C   0  0  1  0  0  0  0  0  0  0  0  0
    2.2800    0.9140   -0.4380 O   0  0  0  0  0  0  0  0  0  0  0  0
    0.1600    0.7620    0.6870 C   0  0  2  0  0  0  0  0  0  0  0  0
   -0.0280   -0.6480    0.5470 N   0  0  0  0  0  0  0  0  0  0  0  0
   -1.1490    1.4800    0.8510 C   0  0  0  0  0  0  0  0  0  0  0  0
   -1.0990    2.7260    0.9870 O   0  0  0  0  0  0  0  0  0  0  0  0
    0.2850    3.4300   -0.7510 H   0  0  0  0  0  0  0  0  0  0  0  0
    1.1770    3.2160    0.8620 H   0  0  0  0  0  0  0  0  0  0  0  0
    2.0520    3.2840   -0.6790 H   0  0  0  0  0  0  0  0  0  0  0  0
    0.5260    1.2030   -1.3690 H   0  0  0  0  0  0  0  0  0  0  0  0
    2.8840    1.2480    0.2790 H   0  0  0  0  0  0  0  0  0  0  0  0
    0.6810    0.9210    1.6760 H   0  0  0  0  0  0  0  0  0  0  0  0
   -0.4860   -1.0840   -0.3010 H   0  0  0  0  0  0  0  0  0  0  0  0
   -5.7190    1.9230   -0.0830 O   0  0  0  0  0  0  0  0  0  0  0  0
   -4.4990    1.2650   -0.2420 C   0  0  0  0  0  0  0  0  0  0  0  0
   -3.6590    1.5110    1.0160 C   0  0  2  0  0  0  0  0  0  0  0  0
   -2.3920    0.8320    0.8590 N   0  0  0  0  0  0  0  0  0  0  0  0
   -4.4090    0.9230    2.1420 C   0  0  0  0  0  0  0  0  0  0  0  0
   -5.5370    1.3580    2.4590 O   0  0  0  0  0  0  0  0  0  0  0  0
   -3.8580   -0.1220    2.8540 O   0  0  0  0  0  0  0  0  0  0  0  0
   -5.8410    2.6360   -0.7830 H   0  0  0  0  0  0  0  0  0  0  0  0
   -3.9820    1.6610   -1.1360 H   0  0  0  0  0  0  0  0  0  0  0  0
   -4.6980    0.1790   -0.2860 H   0  0  0  0  0  0  0  0  0  0  0  0
   -3.5180    2.6060    1.1300 H   0  0  0  0  0  0  0  0  0  0  0  0
   -2.4150   -0.2060    0.7440 H   0  0  0  0  0  0  0  0  0  0  0  0
  1 10  1  0  0  0  0
  1  2  1  0  0  0  0
  2  3  1  0  0  0  0
  2  8  1  0  0  0  0
  2 12  1  1  0  0  0
  3 13  1  0  0  0  0
  3 14  1  0  0  0  0
  4 16  1  0  0  0  0
  4  3  1  0  0  0  0
  5  4  1  0  0  0  0
  5  6  1  0  0  0  0
  6  7  1  0  0  0  0
  6 20  1  0  0  0  0
  7 21  1  0  0  0  0
  8  9  2  0  0  0  0
 11  1  1  0  0  0  0
 15  4  1  0  0  0  0
 17  5  1  0  0  0  0
 18  5  1  0  0  0  0
 19  6  1  0  0  0  0
 22  7  1  0  0  0  0
 23 31  1  0  0  0  0
 24 33  1  6  0  0  0
 24 23  1  0  0  0  0
 24 26  1  0  0  0  0
 25 24  1  0  0  0  0
 25 34  1  0  0  0  0
 26 28  1  0  0  0  0
 26 35  1  1  0  0  0
 27 26  1  0  0  0  0
 27  8  1  0  0  0  0
 28 40  1  0  0  0  0
 28 29  2  0  0  0  0
 30 23  1  0  0  0  0
 32 23  1  0  0  0  0
 36 27  1  0  0  0  0
 38 37  1  0  0  0  0
 38 39  1  0  0  0  0
 39 47  1  1  0  0  0
 39 41  1  0  0  0  0
 40 39  1  0  0  0  0
 41 42  2  0  0  0  0
 41 43  1  0  0  0  0
 44 37  1  0  0  0  0
 45 38  1  0  0  0  0
 46 38  1  0  0  0  0
 48 40  1  0  0  0  0
M  END
$$$$
