KTY.pdb
 OpenBabel07022418523D

 58 58  0  0  1  0  0  0  0  0999 V2000
   -1.4340   -4.4410    2.6980 N   0  0  0  0  0  0  0  0  0  0  0  0
   -1.0990   -3.0940    3.0950 C   0  0  1  0  0  0  0  0  0  0  0  0
    0.3540   -2.9670    3.4250 C   0  0  0  0  0  0  0  0  0  0  0  0
    1.2370   -3.3170    2.2440 C   0  0  0  0  0  0  0  0  0  0  0  0
    2.6840   -3.1430    2.7230 C   0  0  0  0  0  0  0  0  0  0  0  0
    3.6000   -3.4820    1.5720 C   0  0  0  0  0  0  0  0  0  0  0  0
    3.3610   -4.8560    1.1700 N   0  0  0  0  0  0  0  0  0  0  0  0
   -1.5770   -2.1270    2.1100 C   0  0  0  0  0  0  0  0  0  0  0  0
   -2.1850   -2.5600    1.0970 O   0  0  0  0  0  0  0  0  0  0  0  0
   -2.4380   -4.4090    2.3450 H   0  0  0  0  0  0  0  0  0  0  0  0
   -0.8490   -4.8230    1.9450 H   0  0  0  0  0  0  0  0  0  0  0  0
   -1.6610   -2.8910    4.0530 H   0  0  0  0  0  0  0  0  0  0  0  0
    0.5850   -3.7160    4.2160 H   0  0  0  0  0  0  0  0  0  0  0  0
    0.5750   -1.9760    3.8340 H   0  0  0  0  0  0  0  0  0  0  0  0
    1.1420   -4.3850    1.9660 H   0  0  0  0  0  0  0  0  0  0  0  0
    1.0570   -2.6730    1.3630 H   0  0  0  0  0  0  0  0  0  0  0  0
    2.9000   -3.8130    3.5600 H   0  0  0  0  0  0  0  0  0  0  0  0
    2.8840   -2.0930    3.0130 H   0  0  0  0  0  0  0  0  0  0  0  0
    4.6380   -3.3550    1.9380 H   0  0  0  0  0  0  0  0  0  0  0  0
    3.3540   -2.8360    0.7240 H   0  0  0  0  0  0  0  0  0  0  0  0
    4.2050   -5.1600    0.6330 H   0  0  0  0  0  0  0  0  0  0  0  0
    2.5540   -4.8430    0.5070 H   0  0  0  0  0  0  0  0  0  0  0  0
   -2.4790    1.9290    2.8230 C   0  0  0  0  0  0  0  0  0  0  0  0
   -3.0060    1.0640    1.7010 C   0  0  1  0  0  0  0  0  0  0  0  0
   -3.5340    1.9130    0.7380 O   0  0  0  0  0  0  0  0  0  0  0  0
   -1.9330    0.1490    1.1450 C   0  0  2  0  0  0  0  0  0  0  0  0
   -1.4140   -0.7250    2.1920 N   0  0  0  0  0  0  0  0  0  0  0  0
   -0.8450    0.8900    0.4740 C   0  0  0  0  0  0  0  0  0  0  0  0
    0.3710    0.7520    0.8470 O   0  0  0  0  0  0  0  0  0  0  0  0
   -1.6580    2.5840    2.4320 H   0  0  0  0  0  0  0  0  0  0  0  0
   -3.2980    2.6240    3.1030 H   0  0  0  0  0  0  0  0  0  0  0  0
   -2.1860    1.3700    3.7140 H   0  0  0  0  0  0  0  0  0  0  0  0
   -3.8560    0.4840    2.1120 H   0  0  0  0  0  0  0  0  0  0  0  0
   -4.0760    2.5860    1.1940 H   0  0  0  0  0  0  0  0  0  0  0  0
   -2.4180   -0.4910    0.3830 H   0  0  0  0  0  0  0  0  0  0  0  0
   -0.9100   -0.3540    3.0280 H   0  0  0  0  0  0  0  0  0  0  0  0
    1.1380   -3.5240   -2.8980 O   0  0  0  0  0  0  0  0  0  0  0  0
    0.9050   -2.1490   -2.8430 C   0  0  0  0  0  0  0  0  0  0  0  0
   -0.3730   -1.6310   -2.8680 C   0  0  0  0  0  0  0  0  0  0  0  0
   -0.6000   -0.2700   -2.8140 C   0  0  0  0  0  0  0  0  0  0  0  0
    0.4430    0.6320   -2.7320 C   0  0  0  0  0  0  0  0  0  0  0  0
    0.2160    2.1020   -2.6730 C   0  0  0  0  0  0  0  0  0  0  0  0
    0.0910    2.4930   -1.2270 C   0  0  2  0  0  0  0  0  0  0  0  0
   -1.0380    1.7880   -0.6070 N   0  0  0  0  0  0  0  0  0  0  0  0
   -0.0400    3.9550   -1.0470 C   0  0  0  0  0  0  0  0  0  0  0  0
   -1.0210    4.4110   -0.4330 O   0  0  0  0  0  0  0  0  0  0  0  0
    1.7210    0.1120   -2.7070 C   0  0  0  0  0  0  0  0  0  0  0  0
    1.9480   -1.2490   -2.7620 C   0  0  0  0  0  0  0  0  0  0  0  0
    0.9070    4.8280   -1.5470 O   0  0  0  0  0  0  0  0  0  0  0  0
    0.4580   -4.2030   -2.5980 H   0  0  0  0  0  0  0  0  0  0  0  0
   -1.2060   -2.3270   -2.9330 H   0  0  0  0  0  0  0  0  0  0  0  0
   -1.6040    0.1580   -2.8330 H   0  0  0  0  0  0  0  0  0  0  0  0
    1.1470    2.5900   -3.0580 H   0  0  0  0  0  0  0  0  0  0  0  0
   -0.6370    2.4050   -3.2860 H   0  0  0  0  0  0  0  0  0  0  0  0
    1.0170    2.1850   -0.7060 H   0  0  0  0  0  0  0  0  0  0  0  0
   -1.9950    1.9600   -0.9810 H   0  0  0  0  0  0  0  0  0  0  0  0
    2.5510    0.8170   -2.6430 H   0  0  0  0  0  0  0  0  0  0  0  0
    2.9550   -1.6690   -2.7430 H   0  0  0  0  0  0  0  0  0  0  0  0
  1  2  1  0  0  0  0
  2  3  1  0  0  0  0
  2 12  1  1  0  0  0
  3 14  1  0  0  0  0
  3 13  1  0  0  0  0
  4  5  1  0  0  0  0
  4  3  1  0  0  0  0
  5 18  1  0  0  0  0
  5 17  1  0  0  0  0
  6 19  1  0  0  0  0
  6  5  1  0  0  0  0
  7  6  1  0  0  0  0
  8 27  1  0  0  0  0
  8  2  1  0  0  0  0
  9  8  2  0  0  0  0
 10  1  1  0  0  0  0
 11  1  1  0  0  0  0
 15  4  1  0  0  0  0
 16  4  1  0  0  0  0
 20  6  1  0  0  0  0
 21  7  1  0  0  0  0
 22  7  1  0  0  0  0
 23 31  1  0  0  0  0
 23 32  1  0  0  0  0
 24 33  1  1  0  0  0
 24 23  1  0  0  0  0
 25 34  1  0  0  0  0
 25 24  1  0  0  0  0
 26 35  1  6  0  0  0
 26 24  1  0  0  0  0
 26 27  1  0  0  0  0
 27 36  1  0  0  0  0
 28 29  2  0  0  0  0
 28 26  1  0  0  0  0
 30 23  1  0  0  0  0
 37 38  1  0  0  0  0
 37 50  1  0  0  0  0
 38 48  1  0  0  0  0
 39 38  2  0  0  0  0
 39 40  1  0  0  0  0
 40 41  2  0  0  0  0
 41 47  1  0  0  0  0
 41 42  1  0  0  0  0
 42 43  1  0  0  0  0
 43 45  1  0  0  0  0
 43 55  1  1  0  0  0
 43 44  1  0  0  0  0
 44 28  1  0  0  0  0
 45 46  1  0  0  0  0
 47 57  1  0  0  0  0
 48 58  1  0  0  0  0
 48 47  2  0  0  0  0
 49 45  2  0  0  0  0
 51 39  1  0  0  0  0
 52 40  1  0  0  0  0
 53 42  1  0  0  0  0
 54 42  1  0  0  0  0
 56 44  1  0  0  0  0
M  END
$$$$
