KVD.pdb
 OpenBabel07022418533D

 52 51  0  0  1  0  0  0  0  0999 V2000
    0.0400    0.4760    4.5620 N   0  0  0  0  0  0  0  0  0  0  0  0
    0.4740    0.5810    3.2130 C   0  0  1  0  0  0  0  0  0  0  0  0
    1.4540   -0.4700    2.7920 C   0  0  0  0  0  0  0  0  0  0  0  0
    0.9360   -1.8800    2.9060 C   0  0  0  0  0  0  0  0  0  0  0  0
    2.0560   -2.8060    2.4440 C   0  0  0  0  0  0  0  0  0  0  0  0
    1.6670   -4.2550    2.5140 C   0  0  0  0  0  0  0  0  0  0  0  0
    1.3220   -4.6750    3.8540 N   0  0  0  0  0  0  0  0  0  0  0  0
   -0.6720    0.7730    2.3250 C   0  0  0  0  0  0  0  0  0  0  0  0
   -1.8230    0.8150    2.8300 O   0  0  0  0  0  0  0  0  0  0  0  0
   -0.8960    0.0970    4.7160 H   0  0  0  0  0  0  0  0  0  0  0  0
    0.7550    0.2590    5.2590 H   0  0  0  0  0  0  0  0  0  0  0  0
    1.0600    1.5540    3.1610 H   0  0  0  0  0  0  0  0  0  0  0  0
    1.8270   -0.2260    1.7910 H   0  0  0  0  0  0  0  0  0  0  0  0
    2.3260   -0.3940    3.4810 H   0  0  0  0  0  0  0  0  0  0  0  0
    0.0150   -2.0610    2.3530 H   0  0  0  0  0  0  0  0  0  0  0  0
    0.7560   -2.1370    3.9710 H   0  0  0  0  0  0  0  0  0  0  0  0
    2.9480   -2.6230    3.0820 H   0  0  0  0  0  0  0  0  0  0  0  0
    2.3080   -2.5890    1.3800 H   0  0  0  0  0  0  0  0  0  0  0  0
    2.5570   -4.8320    2.1590 H   0  0  0  0  0  0  0  0  0  0  0  0
    0.8700   -4.4540    1.7810 H   0  0  0  0  0  0  0  0  0  0  0  0
    1.5660   -3.9280    4.5110 H   0  0  0  0  0  0  0  0  0  0  0  0
    0.3420   -4.9920    3.8630 H   0  0  0  0  0  0  0  0  0  0  0  0
   -0.6390    2.5700   -1.6150 C   0  0  0  0  0  0  0  0  0  0  0  0
   -1.7480    2.4020   -0.6370 C   0  0  0  0  0  0  0  0  0  0  0  0
   -1.8830    3.5970    0.3030 C   0  0  0  0  0  0  0  0  0  0  0  0
   -1.7270    1.1050    0.1260 C   0  0  2  0  0  0  0  0  0  0  0  0
   -0.5370    0.9170    0.8980 N   0  0  0  0  0  0  0  0  0  0  0  0
   -1.8400   -0.0040   -0.8520 C   0  0  0  0  0  0  0  0  0  0  0  0
   -2.8010   -0.0630   -1.6710 O   0  0  0  0  0  0  0  0  0  0  0  0
   -0.2570    3.6150   -1.5190 H   0  0  0  0  0  0  0  0  0  0  0  0
   -0.9800    2.4610   -2.6780 H   0  0  0  0  0  0  0  0  0  0  0  0
    0.2120    1.9040   -1.3990 H   0  0  0  0  0  0  0  0  0  0  0  0
   -2.7100    2.3970   -1.2290 H   0  0  0  0  0  0  0  0  0  0  0  0
   -1.1400    3.5300    1.1340 H   0  0  0  0  0  0  0  0  0  0  0  0
   -1.7250    4.5070   -0.3020 H   0  0  0  0  0  0  0  0  0  0  0  0
   -2.9220    3.6070    0.6810 H   0  0  0  0  0  0  0  0  0  0  0  0
   -2.6450    1.1090    0.7680 H   0  0  0  0  0  0  0  0  0  0  0  0
    0.4280    0.8730    0.5330 H   0  0  0  0  0  0  0  0  0  0  0  0
   -0.8800   -1.0240   -0.8940 N   0  0  0  0  0  0  0  0  0  0  0  0
   -0.9210   -2.1260   -1.8070 C   0  0  1  0  0  0  0  0  0  0  0  0
    0.3100   -2.2330   -2.6430 C   0  0  0  0  0  0  0  0  0  0  0  0
    0.5550   -1.0310   -3.4800 C   0  0  0  0  0  0  0  0  0  0  0  0
   -0.2490   -0.0920   -3.4210 O   0  0  0  0  0  0  0  0  0  0  0  0
   -1.0890   -3.4160   -1.0800 C   0  0  0  0  0  0  0  0  0  0  0  0
   -1.1380   -4.4840   -1.7340 O   0  0  0  0  0  0  0  0  0  0  0  0
    1.6380   -0.9140   -4.3220 O   0  0  0  0  0  0  0  0  0  0  0  0
   -1.1890   -3.4230    0.2900 O   0  0  0  0  0  0  0  0  0  0  0  0
   -0.0880   -0.9750   -0.2180 H   0  0  0  0  0  0  0  0  0  0  0  0
   -1.7960   -1.9810   -2.4870 H   0  0  0  0  0  0  0  0  0  0  0  0
    1.1980   -2.2930   -1.9470 H   0  0  0  0  0  0  0  0  0  0  0  0
    0.3550   -3.1580   -3.2430 H   0  0  0  0  0  0  0  0  0  0  0  0
    1.5510   -0.4150   -5.2040 H   0  0  0  0  0  0  0  0  0  0  0  0
  1 10  1  0  0  0  0
  1 11  1  0  0  0  0
  2 12  1  6  0  0  0
  2  1  1  0  0  0  0
  3  4  1  0  0  0  0
  3  2  1  0  0  0  0
  3 14  1  0  0  0  0
  4 16  1  0  0  0  0
  5  6  1  0  0  0  0
  5  4  1  0  0  0  0
  5 17  1  0  0  0  0
  6  7  1  0  0  0  0
  7 22  1  0  0  0  0
  7 21  1  0  0  0  0
  8  9  2  0  0  0  0
  8  2  1  0  0  0  0
 13  3  1  0  0  0  0
 15  4  1  0  0  0  0
 18  5  1  0  0  0  0
 19  6  1  0  0  0  0
 20  6  1  0  0  0  0
 23 30  1  0  0  0  0
 23 32  1  0  0  0  0
 23 24  1  0  0  0  0
 24 26  1  0  0  0  0
 24 25  1  0  0  0  0
 25 36  1  0  0  0  0
 25 34  1  0  0  0  0
 26 37  1  1  0  0  0
 26 27  1  0  0  0  0
 27  8  1  0  0  0  0
 28 26  1  0  0  0  0
 29 28  2  0  0  0  0
 31 23  1  0  0  0  0
 33 24  1  0  0  0  0
 35 25  1  0  0  0  0
 38 27  1  0  0  0  0
 39 28  1  0  0  0  0
 39 48  1  0  0  0  0
 40 49  1  6  0  0  0
 40 44  1  0  0  0  0
 40 39  1  0  0  0  0
 41 50  1  0  0  0  0
 41 40  1  0  0  0  0
 42 43  2  0  0  0  0
 42 41  1  0  0  0  0
 44 47  1  0  0  0  0
 45 44  2  0  0  0  0
 46 42  1  0  0  0  0
 51 41  1  0  0  0  0
 52 46  1  0  0  0  0
M  END
$$$$
