KVE.pdb
 OpenBabel07022418533D

 55 54  0  0  1  0  0  0  0  0999 V2000
    0.1020    0.8760    4.6030 N   0  0  0  0  0  0  0  0  0  0  0  0
    0.8150    0.1290    3.5380 C   0  0  1  0  0  0  0  0  0  0  0  0
    0.7310   -1.2960    3.9900 C   0  0  0  0  0  0  0  0  0  0  0  0
    1.3510   -2.3300    3.1600 C   0  0  0  0  0  0  0  0  0  0  0  0
    2.8260   -2.2100    2.9280 C   0  0  0  0  0  0  0  0  0  0  0  0
    3.6110   -2.2540    4.2310 C   0  0  0  0  0  0  0  0  0  0  0  0
    5.0210   -2.1330    3.9100 N   0  0  0  0  0  0  0  0  0  0  0  0
    0.1090    0.4280    2.2970 C   0  0  0  0  0  0  0  0  0  0  0  0
   -0.9600    1.0770    2.3320 O   0  0  0  0  0  0  0  0  0  0  0  0
   -0.8930    0.6330    4.5950 H   0  0  0  0  0  0  0  0  0  0  0  0
    0.5950    0.7870    5.4990 H   0  0  0  0  0  0  0  0  0  0  0  0
    1.8370    0.5230    3.5440 H   0  0  0  0  0  0  0  0  0  0  0  0
    1.2090   -1.3230    5.0150 H   0  0  0  0  0  0  0  0  0  0  0  0
   -0.3430   -1.5050    4.2000 H   0  0  0  0  0  0  0  0  0  0  0  0
    1.2050   -3.3610    3.6030 H   0  0  0  0  0  0  0  0  0  0  0  0
    0.8480   -2.3940    2.1770 H   0  0  0  0  0  0  0  0  0  0  0  0
    3.1290   -1.3510    2.3230 H   0  0  0  0  0  0  0  0  0  0  0  0
    3.1320   -3.1180    2.3530 H   0  0  0  0  0  0  0  0  0  0  0  0
    3.2560   -1.5380    4.9710 H   0  0  0  0  0  0  0  0  0  0  0  0
    3.5150   -3.2720    4.7110 H   0  0  0  0  0  0  0  0  0  0  0  0
    5.5420   -1.5860    4.6300 H   0  0  0  0  0  0  0  0  0  0  0  0
    5.1690   -1.8470    2.9370 H   0  0  0  0  0  0  0  0  0  0  0  0
   -0.1220    1.7770   -2.3160 C   0  0  0  0  0  0  0  0  0  0  0  0
    0.5780    1.3380   -1.0590 C   0  0  0  0  0  0  0  0  0  0  0  0
    0.8350    2.6100   -0.2420 C   0  0  0  0  0  0  0  0  0  0  0  0
   -0.2280    0.3770   -0.2030 C   0  0  2  0  0  0  0  0  0  0  0  0
    0.5440    0.0360    0.9920 N   0  0  0  0  0  0  0  0  0  0  0  0
   -0.4890   -0.8750   -0.9180 C   0  0  0  0  0  0  0  0  0  0  0  0
    0.0880   -1.9240   -0.5840 O   0  0  0  0  0  0  0  0  0  0  0  0
   -0.0010    1.0680   -3.1470 H   0  0  0  0  0  0  0  0  0  0  0  0
   -1.1410    2.1420   -2.1370 H   0  0  0  0  0  0  0  0  0  0  0  0
    0.4430    2.7010   -2.6680 H   0  0  0  0  0  0  0  0  0  0  0  0
    1.5400    0.8880   -1.3830 H   0  0  0  0  0  0  0  0  0  0  0  0
   -0.1240    3.0850    0.0350 H   0  0  0  0  0  0  0  0  0  0  0  0
    1.3670    3.3660   -0.8750 H   0  0  0  0  0  0  0  0  0  0  0  0
    1.5040    2.3970    0.6150 H   0  0  0  0  0  0  0  0  0  0  0  0
   -1.1320    0.9070    0.1500 H   0  0  0  0  0  0  0  0  0  0  0  0
    1.4210   -0.4980    0.8680 H   0  0  0  0  0  0  0  0  0  0  0  0
   -1.4010   -0.9100   -1.9930 N   0  0  0  0  0  0  0  0  0  0  0  0
   -1.6790   -2.1370   -2.7390 C   0  0  1  0  0  0  0  0  0  0  0  0
   -2.9170   -2.8220   -2.2370 C   0  0  0  0  0  0  0  0  0  0  0  0
   -4.1800   -2.0590   -2.3050 C   0  0  0  0  0  0  0  0  0  0  0  0
   -4.2120   -0.8120   -1.5080 C   0  0  0  0  0  0  0  0  0  0  0  0
   -4.5230    0.3210   -1.9670 O   0  0  0  0  0  0  0  0  0  0  0  0
   -1.7730   -1.7730   -4.1660 C   0  0  0  0  0  0  0  0  0  0  0  0
   -1.6340   -0.5800   -4.5960 O   0  0  0  0  0  0  0  0  0  0  0  0
   -3.8840   -0.8430   -0.1540 O   0  0  0  0  0  0  0  0  0  0  0  0
   -2.0220   -2.7420   -5.1240 O   0  0  0  0  0  0  0  0  0  0  0  0
   -1.9100   -0.0640   -2.3010 H   0  0  0  0  0  0  0  0  0  0  0  0
   -0.8410   -2.8640   -2.5300 H   0  0  0  0  0  0  0  0  0  0  0  0
   -3.0500   -3.8100   -2.7450 H   0  0  0  0  0  0  0  0  0  0  0  0
   -2.7340   -3.0730   -1.1600 H   0  0  0  0  0  0  0  0  0  0  0  0
   -4.3880   -1.8000   -3.3820 H   0  0  0  0  0  0  0  0  0  0  0  0
   -5.0610   -2.6920   -1.9800 H   0  0  0  0  0  0  0  0  0  0  0  0
   -3.8240   -0.0160    0.4220 H   0  0  0  0  0  0  0  0  0  0  0  0
  1 11  1  0  0  0  0
  2 12  1  6  0  0  0
  2  3  1  0  0  0  0
  2  1  1  0  0  0  0
  3 14  1  0  0  0  0
  3 13  1  0  0  0  0
  4 15  1  0  0  0  0
  4  3  1  0  0  0  0
  5  4  1  0  0  0  0
  5  6  1  0  0  0  0
  6 20  1  0  0  0  0
  6 19  1  0  0  0  0
  7  6  1  0  0  0  0
  7 21  1  0  0  0  0
  8  9  2  0  0  0  0
  8  2  1  0  0  0  0
 10  1  1  0  0  0  0
 16  4  1  0  0  0  0
 17  5  1  0  0  0  0
 18  5  1  0  0  0  0
 22  7  1  0  0  0  0
 23 31  1  0  0  0  0
 23 24  1  0  0  0  0
 24 25  1  0  0  0  0
 24 26  1  0  0  0  0
 25 34  1  0  0  0  0
 25 36  1  0  0  0  0
 26 37  1  1  0  0  0
 26 27  1  0  0  0  0
 27  8  1  0  0  0  0
 28 29  2  0  0  0  0
 28 26  1  0  0  0  0
 30 23  1  0  0  0  0
 32 23  1  0  0  0  0
 33 24  1  0  0  0  0
 35 25  1  0  0  0  0
 38 27  1  0  0  0  0
 39 28  1  0  0  0  0
 40 50  1  1  0  0  0
 40 41  1  0  0  0  0
 40 39  1  0  0  0  0
 41 52  1  0  0  0  0
 42 41  1  0  0  0  0
 42 54  1  0  0  0  0
 42 43  1  0  0  0  0
 43 47  1  0  0  0  0
 44 43  2  0  0  0  0
 45 40  1  0  0  0  0
 46 45  1  0  0  0  0
 47 55  1  0  0  0  0
 48 45  2  0  0  0  0
 49 39  1  0  0  0  0
 51 41  1  0  0  0  0
 53 42  1  0  0  0  0
M  END
$$$$
