KVK.pdb
 OpenBabel07022418533D

 60 59  0  0  1  0  0  0  0  0999 V2000
   -0.8000   -1.4680    3.9470 N   0  0  0  0  0  0  0  0  0  0  0  0
    0.1910   -0.5080    3.4550 C   0  0  1  0  0  0  0  0  0  0  0  0
    1.3820   -1.2740    2.9810 C   0  0  0  0  0  0  0  0  0  0  0  0
    2.5000   -0.4300    2.4570 C   0  0  0  0  0  0  0  0  0  0  0  0
    2.9880    0.5070    3.5690 C   0  0  0  0  0  0  0  0  0  0  0  0
    4.1240    1.3690    3.0440 C   0  0  0  0  0  0  0  0  0  0  0  0
    4.6230    2.2670    4.0390 N   0  0  0  0  0  0  0  0  0  0  0  0
   -0.4200    0.3620    2.4220 C   0  0  0  0  0  0  0  0  0  0  0  0
   -1.0870    1.3640    2.8510 O   0  0  0  0  0  0  0  0  0  0  0  0
   -0.8970   -2.2700    3.3020 H   0  0  0  0  0  0  0  0  0  0  0  0
   -0.4310   -1.8290    4.8620 H   0  0  0  0  0  0  0  0  0  0  0  0
    0.5020    0.0670    4.3520 H   0  0  0  0  0  0  0  0  0  0  0  0
    1.7900   -1.8030    3.8920 H   0  0  0  0  0  0  0  0  0  0  0  0
    1.1030   -2.0990    2.2920 H   0  0  0  0  0  0  0  0  0  0  0  0
    3.3700   -1.1120    2.2650 H   0  0  0  0  0  0  0  0  0  0  0  0
    2.2910    0.1650    1.5740 H   0  0  0  0  0  0  0  0  0  0  0  0
    3.3830   -0.0770    4.4220 H   0  0  0  0  0  0  0  0  0  0  0  0
    2.1690    1.1930    3.8760 H   0  0  0  0  0  0  0  0  0  0  0  0
    3.7430    1.9670    2.1980 H   0  0  0  0  0  0  0  0  0  0  0  0
    4.9670    0.7540    2.6830 H   0  0  0  0  0  0  0  0  0  0  0  0
    5.0360    3.1360    3.6680 H   0  0  0  0  0  0  0  0  0  0  0  0
    5.1470    1.8140    4.8020 H   0  0  0  0  0  0  0  0  0  0  0  0
    1.0140    0.6280   -1.5860 C   0  0  0  0  0  0  0  0  0  0  0  0
    0.1400    1.6110   -0.8520 C   0  0  0  0  0  0  0  0  0  0  0  0
   -0.5530    2.4460   -1.9080 C   0  0  0  0  0  0  0  0  0  0  0  0
   -0.8590    0.9350    0.0350 C   0  0  2  0  0  0  0  0  0  0  0  0
   -0.2800    0.1080    1.0550 N   0  0  0  0  0  0  0  0  0  0  0  0
   -1.8820    0.2490   -0.7630 C   0  0  0  0  0  0  0  0  0  0  0  0
   -2.4440    0.8730   -1.7090 O   0  0  0  0  0  0  0  0  0  0  0  0
    1.9780    1.0950   -1.9090 H   0  0  0  0  0  0  0  0  0  0  0  0
    1.2010   -0.2970   -1.0050 H   0  0  0  0  0  0  0  0  0  0  0  0
    0.5370    0.2900   -2.5480 H   0  0  0  0  0  0  0  0  0  0  0  0
    0.7760    2.3450   -0.2630 H   0  0  0  0  0  0  0  0  0  0  0  0
    0.1750    3.2620   -2.1950 H   0  0  0  0  0  0  0  0  0  0  0  0
   -1.4410    2.9690   -1.5510 H   0  0  0  0  0  0  0  0  0  0  0  0
   -0.6890    1.8720   -2.8510 H   0  0  0  0  0  0  0  0  0  0  0  0
   -1.4140    1.7590    0.5870 H   0  0  0  0  0  0  0  0  0  0  0  0
    0.2640   -0.7250    0.7430 H   0  0  0  0  0  0  0  0  0  0  0  0
   -2.2530   -1.1200   -0.4830 N   0  0  0  0  0  0  0  0  0  0  0  0
   -3.2590   -1.7190   -1.2980 C   0  0  1  0  0  0  0  0  0  0  0  0
   -2.9810   -3.0730   -1.8290 C   0  0  0  0  0  0  0  0  0  0  0  0
   -1.7990   -3.2490   -2.6980 C   0  0  0  0  0  0  0  0  0  0  0  0
   -0.4690   -2.9520   -2.1130 C   0  0  0  0  0  0  0  0  0  0  0  0
   -0.1070   -3.8020   -0.9250 C   0  0  0  0  0  0  0  0  0  0  0  0
   -0.0790   -5.2220   -1.2750 N   0  0  0  0  0  0  0  0  0  0  0  0
   -4.5330   -1.8490   -0.4830 C   0  0  0  0  0  0  0  0  0  0  0  0
   -4.5560   -1.4520    0.7030 O   0  0  0  0  0  0  0  0  0  0  0  0
   -5.6810   -2.3980   -1.0190 O   0  0  0  0  0  0  0  0  0  0  0  0
   -1.7550   -1.5610    0.2980 H   0  0  0  0  0  0  0  0  0  0  0  0
   -3.5300   -1.0280   -2.1530 H   0  0  0  0  0  0  0  0  0  0  0  0
   -3.8780   -3.3560   -2.4610 H   0  0  0  0  0  0  0  0  0  0  0  0
   -3.0330   -3.7940   -0.9820 H   0  0  0  0  0  0  0  0  0  0  0  0
   -1.8610   -4.2520   -3.1830 H   0  0  0  0  0  0  0  0  0  0  0  0
   -1.9280   -2.5340   -3.5660 H   0  0  0  0  0  0  0  0  0  0  0  0
    0.2910   -3.2110   -2.9070 H   0  0  0  0  0  0  0  0  0  0  0  0
   -0.3440   -1.8810   -1.9310 H   0  0  0  0  0  0  0  0  0  0  0  0
   -0.7410   -3.6830   -0.0480 H   0  0  0  0  0  0  0  0  0  0  0  0
    0.9330   -3.5410   -0.6360 H   0  0  0  0  0  0  0  0  0  0  0  0
    0.7590   -5.3350   -1.9180 H   0  0  0  0  0  0  0  0  0  0  0  0
    0.1420   -5.7200   -0.3670 H   0  0  0  0  0  0  0  0  0  0  0  0
  1 11  1  0  0  0  0
  2  1  1  0  0  0  0
  2 12  1  1  0  0  0
  3  2  1  0  0  0  0
  3 13  1  0  0  0  0
  4  3  1  0  0  0  0
  4  5  1  0  0  0  0
  5 18  1  0  0  0  0
  5 17  1  0  0  0  0
  6  5  1  0  0  0  0
  6  7  1  0  0  0  0
  7 22  1  0  0  0  0
  8  9  2  0  0  0  0
  8  2  1  0  0  0  0
 10  1  1  0  0  0  0
 14  3  1  0  0  0  0
 15  4  1  0  0  0  0
 16  4  1  0  0  0  0
 19  6  1  0  0  0  0
 20  6  1  0  0  0  0
 21  7  1  0  0  0  0
 23 31  1  0  0  0  0
 23 24  1  0  0  0  0
 24 33  1  0  0  0  0
 24 26  1  0  0  0  0
 25 35  1  0  0  0  0
 25 24  1  0  0  0  0
 26 37  1  1  0  0  0
 26 27  1  0  0  0  0
 27  8  1  0  0  0  0
 28 39  1  0  0  0  0
 28 26  1  0  0  0  0
 29 28  2  0  0  0  0
 30 23  1  0  0  0  0
 32 23  1  0  0  0  0
 34 25  1  0  0  0  0
 36 25  1  0  0  0  0
 38 27  1  0  0  0  0
 39 49  1  0  0  0  0
 40 50  1  6  0  0  0
 40 39  1  0  0  0  0
 40 46  1  0  0  0  0
 41 40  1  0  0  0  0
 41 52  1  0  0  0  0
 42 43  1  0  0  0  0
 42 41  1  0  0  0  0
 43 56  1  0  0  0  0
 43 44  1  0  0  0  0
 44 58  1  0  0  0  0
 44 57  1  0  0  0  0
 45 44  1  0  0  0  0
 45 60  1  0  0  0  0
 46 47  1  0  0  0  0
 48 46  2  0  0  0  0
 51 41  1  0  0  0  0
 53 42  1  0  0  0  0
 54 42  1  0  0  0  0
 55 43  1  0  0  0  0
 59 45  1  0  0  0  0
M  END
$$$$
