KVL.pdb
 OpenBabel07022418533D

 58 57  0  0  1  0  0  0  0  0999 V2000
    2.5520   -0.8700    4.7530 N   0  0  0  0  0  0  0  0  0  0  0  0
    2.2620   -0.8620    3.2920 C   0  0  1  0  0  0  0  0  0  0  0  0
    2.3460   -2.2730    2.8760 C   0  0  0  0  0  0  0  0  0  0  0  0
    2.1190   -2.6640    1.4880 C   0  0  0  0  0  0  0  0  0  0  0  0
    2.9820   -2.1010    0.4280 C   0  0  0  0  0  0  0  0  0  0  0  0
    4.4500   -2.4230    0.5950 C   0  0  0  0  0  0  0  0  0  0  0  0
    5.0300   -1.9400    1.8070 N   0  0  0  0  0  0  0  0  0  0  0  0
    0.9510   -0.2010    3.1710 C   0  0  0  0  0  0  0  0  0  0  0  0
    0.2410    0.1030    4.1950 O   0  0  0  0  0  0  0  0  0  0  0  0
    2.3070    0.0830    5.1070 H   0  0  0  0  0  0  0  0  0  0  0  0
    2.0090   -1.6230    5.2190 H   0  0  0  0  0  0  0  0  0  0  0  0
    3.0930   -0.2200    2.8890 H   0  0  0  0  0  0  0  0  0  0  0  0
    1.6010   -2.8350    3.5250 H   0  0  0  0  0  0  0  0  0  0  0  0
    3.3280   -2.6750    3.2660 H   0  0  0  0  0  0  0  0  0  0  0  0
    1.0450   -2.5900    1.2250 H   0  0  0  0  0  0  0  0  0  0  0  0
    2.2920   -3.7900    1.4280 H   0  0  0  0  0  0  0  0  0  0  0  0
    2.6840   -2.6230   -0.5340 H   0  0  0  0  0  0  0  0  0  0  0  0
    2.8130   -1.0280    0.2070 H   0  0  0  0  0  0  0  0  0  0  0  0
    5.0000   -2.0550   -0.3140 H   0  0  0  0  0  0  0  0  0  0  0  0
    4.5200   -3.5480    0.5060 H   0  0  0  0  0  0  0  0  0  0  0  0
    5.3090   -0.9530    1.7090 H   0  0  0  0  0  0  0  0  0  0  0  0
    5.7660   -2.5820    2.1170 H   0  0  0  0  0  0  0  0  0  0  0  0
    0.3020    2.8930    2.4130 C   0  0  0  0  0  0  0  0  0  0  0  0
   -0.6420    2.2640    1.4200 C   0  0  0  0  0  0  0  0  0  0  0  0
   -1.9170    3.0720    1.4000 C   0  0  0  0  0  0  0  0  0  0  0  0
   -0.9520    0.8260    1.8950 C   0  0  2  0  0  0  0  0  0  0  0  0
    0.3360    0.1720    1.9260 N   0  0  0  0  0  0  0  0  0  0  0  0
   -1.8350    0.1970    0.8920 C   0  0  0  0  0  0  0  0  0  0  0  0
   -3.0330    0.6370    0.7770 O   0  0  0  0  0  0  0  0  0  0  0  0
   -0.1990    3.1710    3.3620 H   0  0  0  0  0  0  0  0  0  0  0  0
    0.7920    3.8020    2.0090 H   0  0  0  0  0  0  0  0  0  0  0  0
    1.1520    2.2070    2.6840 H   0  0  0  0  0  0  0  0  0  0  0  0
   -0.1610    2.2050    0.4420 H   0  0  0  0  0  0  0  0  0  0  0  0
   -2.5790    2.6890    2.1840 H   0  0  0  0  0  0  0  0  0  0  0  0
   -1.6490    4.1170    1.6630 H   0  0  0  0  0  0  0  0  0  0  0  0
   -2.3730    3.0080    0.3880 H   0  0  0  0  0  0  0  0  0  0  0  0
   -1.3990    0.9000    2.9080 H   0  0  0  0  0  0  0  0  0  0  0  0
    0.8050   -0.0210    1.0460 H   0  0  0  0  0  0  0  0  0  0  0  0
   -1.7800   -1.4630   -4.7030 C   0  0  0  0  0  0  0  0  0  0  0  0
   -2.5740   -1.7600   -3.4240 C   0  0  0  0  0  0  0  0  0  0  0  0
   -3.9080   -1.0690   -3.5730 C   0  0  0  0  0  0  0  0  0  0  0  0
   -1.7660   -1.2280   -2.2880 C   0  0  0  0  0  0  0  0  0  0  0  0
   -2.4070   -1.4370   -0.9380 C   0  0  2  0  0  0  0  0  0  0  0  0
   -1.4730   -0.8540    0.0410 N   0  0  0  0  0  0  0  0  0  0  0  0
   -2.6320   -2.8550   -0.6120 C   0  0  0  0  0  0  0  0  0  0  0  0
   -3.3900   -3.5770   -1.2960 O   0  0  0  0  0  0  0  0  0  0  0  0
   -1.9970   -3.4210    0.4760 O   0  0  0  0  0  0  0  0  0  0  0  0
   -2.1350   -2.0670   -5.5520 H   0  0  0  0  0  0  0  0  0  0  0  0
   -1.9910   -0.4000   -4.9400 H   0  0  0  0  0  0  0  0  0  0  0  0
   -0.6930   -1.5560   -4.5320 H   0  0  0  0  0  0  0  0  0  0  0  0
   -2.6830   -2.8660   -3.4070 H   0  0  0  0  0  0  0  0  0  0  0  0
   -4.7150   -1.8060   -3.8460 H   0  0  0  0  0  0  0  0  0  0  0  0
   -4.1900   -0.4850   -2.6630 H   0  0  0  0  0  0  0  0  0  0  0  0
   -3.9120   -0.3270   -4.4120 H   0  0  0  0  0  0  0  0  0  0  0  0
   -0.7570   -1.6860   -2.3390 H   0  0  0  0  0  0  0  0  0  0  0  0
   -1.6420   -0.1410   -2.4290 H   0  0  0  0  0  0  0  0  0  0  0  0
   -3.3450   -0.8950   -0.8310 H   0  0  0  0  0  0  0  0  0  0  0  0
   -0.5090   -1.2390    0.0950 H   0  0  0  0  0  0  0  0  0  0  0  0
  1 10  1  0  0  0  0
  1 11  1  0  0  0  0
  2 12  1  6  0  0  0
  2  1  1  0  0  0  0
  3 14  1  0  0  0  0
  3  2  1  0  0  0  0
  3 13  1  0  0  0  0
  4  3  1  0  0  0  0
  5  6  1  0  0  0  0
  5  4  1  0  0  0  0
  6  7  1  0  0  0  0
  7 22  1  0  0  0  0
  8  2  1  0  0  0  0
  8  9  2  0  0  0  0
 15  4  1  0  0  0  0
 16  4  1  0  0  0  0
 17  5  1  0  0  0  0
 18  5  1  0  0  0  0
 19  6  1  0  0  0  0
 20  6  1  0  0  0  0
 21  7  1  0  0  0  0
 23 32  1  0  0  0  0
 23 30  1  0  0  0  0
 24 26  1  0  0  0  0
 24 23  1  0  0  0  0
 25 24  1  0  0  0  0
 25 35  1  0  0  0  0
 25 34  1  0  0  0  0
 26 27  1  0  0  0  0
 26 37  1  1  0  0  0
 27  8  1  0  0  0  0
 28 26  1  0  0  0  0
 29 28  2  0  0  0  0
 31 23  1  0  0  0  0
 33 24  1  0  0  0  0
 36 25  1  0  0  0  0
 38 27  1  0  0  0  0
 39 50  1  0  0  0  0
 39 40  1  0  0  0  0
 40 51  1  0  0  0  0
 40 42  1  0  0  0  0
 41 40  1  0  0  0  0
 41 53  1  0  0  0  0
 42 43  1  0  0  0  0
 43 57  1  1  0  0  0
 43 45  1  0  0  0  0
 43 44  1  0  0  0  0
 44 58  1  0  0  0  0
 44 28  1  0  0  0  0
 45 47  1  0  0  0  0
 46 45  2  0  0  0  0
 48 39  1  0  0  0  0
 49 39  1  0  0  0  0
 52 41  1  0  0  0  0
 54 41  1  0  0  0  0
 55 42  1  0  0  0  0
 56 42  1  0  0  0  0
M  END
$$$$
