KVN.pdb
 OpenBabel07022418533D

 53 52  0  0  1  0  0  0  0  0999 V2000
    0.9510   -2.2770    2.2140 N   0  0  0  0  0  0  0  0  0  0  0  0
    1.7310   -1.3670    1.4210 C   0  0  1  0  0  0  0  0  0  0  0  0
    2.1730   -2.0690    0.1910 C   0  0  0  0  0  0  0  0  0  0  0  0
    3.0000   -1.2750   -0.7600 C   0  0  0  0  0  0  0  0  0  0  0  0
    4.2830   -0.7570   -0.1980 C   0  0  0  0  0  0  0  0  0  0  0  0
    5.2020   -1.8580    0.2830 C   0  0  0  0  0  0  0  0  0  0  0  0
    6.4160   -1.2630    0.8100 N   0  0  0  0  0  0  0  0  0  0  0  0
    0.9130   -0.1470    1.1560 C   0  0  0  0  0  0  0  0  0  0  0  0
    1.3870    0.7950    0.4810 O   0  0  0  0  0  0  0  0  0  0  0  0
    0.1630   -2.7110    1.7150 H   0  0  0  0  0  0  0  0  0  0  0  0
    0.7650   -1.9710    3.1740 H   0  0  0  0  0  0  0  0  0  0  0  0
    2.5930   -1.0390    2.0430 H   0  0  0  0  0  0  0  0  0  0  0  0
    1.2820   -2.4360   -0.3580 H   0  0  0  0  0  0  0  0  0  0  0  0
    2.7470   -2.9650    0.4950 H   0  0  0  0  0  0  0  0  0  0  0  0
    3.2590   -1.9450   -1.6120 H   0  0  0  0  0  0  0  0  0  0  0  0
    2.4560   -0.4190   -1.2070 H   0  0  0  0  0  0  0  0  0  0  0  0
    4.8210   -0.2350   -1.0180 H   0  0  0  0  0  0  0  0  0  0  0  0
    4.1580   -0.0220    0.6120 H   0  0  0  0  0  0  0  0  0  0  0  0
    5.5150   -2.5270   -0.5450 H   0  0  0  0  0  0  0  0  0  0  0  0
    4.7130   -2.5180    1.0350 H   0  0  0  0  0  0  0  0  0  0  0  0
    6.2280   -1.0210    1.8140 H   0  0  0  0  0  0  0  0  0  0  0  0
    6.5630   -0.3290    0.3340 H   0  0  0  0  0  0  0  0  0  0  0  0
    0.3290    2.7570    1.9150 C   0  0  0  0  0  0  0  0  0  0  0  0
   -0.7420    2.2400    0.9850 C   0  0  0  0  0  0  0  0  0  0  0  0
   -1.8170    3.3390    0.9180 C   0  0  0  0  0  0  0  0  0  0  0  0
   -1.3170    0.9850    1.5630 C   0  0  2  0  0  0  0  0  0  0  0  0
   -0.3810   -0.0820    1.6740 N   0  0  0  0  0  0  0  0  0  0  0  0
   -2.5560    0.5130    0.9460 C   0  0  0  0  0  0  0  0  0  0  0  0
   -3.4980    1.3260    0.7800 O   0  0  0  0  0  0  0  0  0  0  0  0
   -0.1400    3.5960    2.5420 H   0  0  0  0  0  0  0  0  0  0  0  0
    1.1630    3.2710    1.4150 H   0  0  0  0  0  0  0  0  0  0  0  0
    0.6420    2.0280    2.6920 H   0  0  0  0  0  0  0  0  0  0  0  0
   -0.3170    2.0970   -0.0110 H   0  0  0  0  0  0  0  0  0  0  0  0
   -2.4620    3.3310    1.7970 H   0  0  0  0  0  0  0  0  0  0  0  0
   -1.2520    4.2920    0.9000 H   0  0  0  0  0  0  0  0  0  0  0  0
   -2.4160    3.2490    0.0080 H   0  0  0  0  0  0  0  0  0  0  0  0
   -1.5750    1.3380    2.6490 H   0  0  0  0  0  0  0  0  0  0  0  0
   -0.7480   -0.9540    2.2480 H   0  0  0  0  0  0  0  0  0  0  0  0
   -2.5910   -3.9470   -2.4650 N   0  0  0  0  0  0  0  0  0  0  0  0
   -2.8870   -3.1860   -1.3140 C   0  0  0  0  0  0  0  0  0  0  0  0
   -2.3780   -3.5690   -0.2290 O   0  0  0  0  0  0  0  0  0  0  0  0
   -3.7610   -1.9910   -1.3990 C   0  0  0  0  0  0  0  0  0  0  0  0
   -3.9500   -1.3120   -0.0850 C   0  0  2  0  0  0  0  0  0  0  0  0
   -2.7310   -0.8320    0.5270 N   0  0  0  0  0  0  0  0  0  0  0  0
   -4.5810   -2.3100    0.8440 C   0  0  0  0  0  0  0  0  0  0  0  0
   -4.0320   -2.5950    1.9520 O   0  0  0  0  0  0  0  0  0  0  0  0
   -5.7620   -2.9550    0.5490 O   0  0  0  0  0  0  0  0  0  0  0  0
   -2.4690   -3.4850   -3.3790 H   0  0  0  0  0  0  0  0  0  0  0  0
   -2.4960   -4.9710   -2.3900 H   0  0  0  0  0  0  0  0  0  0  0  0
   -3.3380   -1.3290   -2.1830 H   0  0  0  0  0  0  0  0  0  0  0  0
   -4.7650   -2.2910   -1.7620 H   0  0  0  0  0  0  0  0  0  0  0  0
   -4.6440   -0.4560   -0.1360 H   0  0  0  0  0  0  0  0  0  0  0  0
   -1.9250   -1.4760    0.6800 H   0  0  0  0  0  0  0  0  0  0  0  0
  1 11  1  0  0  0  0
  2 12  1  1  0  0  0
  2  1  1  0  0  0  0
  3 14  1  0  0  0  0
  3  2  1  0  0  0  0
  4  5  1  0  0  0  0
  4  3  1  0  0  0  0
  5  6  1  0  0  0  0
  5 18  1  0  0  0  0
  6  7  1  0  0  0  0
  6 20  1  0  0  0  0
  7 21  1  0  0  0  0
  8  2  1  0  0  0  0
  8 27  1  0  0  0  0
  9  8  2  0  0  0  0
 10  1  1  0  0  0  0
 13  3  1  0  0  0  0
 15  4  1  0  0  0  0
 16  4  1  0  0  0  0
 17  5  1  0  0  0  0
 19  6  1  0  0  0  0
 22  7  1  0  0  0  0
 23 30  1  0  0  0  0
 23 32  1  0  0  0  0
 24 26  1  0  0  0  0
 24 23  1  0  0  0  0
 25 24  1  0  0  0  0
 25 34  1  0  0  0  0
 26 27  1  0  0  0  0
 26 37  1  1  0  0  0
 27 38  1  0  0  0  0
 28 26  1  0  0  0  0
 29 28  2  0  0  0  0
 31 23  1  0  0  0  0
 33 24  1  0  0  0  0
 35 25  1  0  0  0  0
 36 25  1  0  0  0  0
 39 49  1  0  0  0  0
 39 40  1  0  0  0  0
 40 41  2  0  0  0  0
 42 40  1  0  0  0  0
 42 43  1  0  0  0  0
 43 52  1  6  0  0  0
 43 44  1  0  0  0  0
 43 45  1  0  0  0  0
 44 53  1  0  0  0  0
 44 28  1  0  0  0  0
 45 46  1  0  0  0  0
 47 45  2  0  0  0  0
 48 39  1  0  0  0  0
 50 42  1  0  0  0  0
 51 42  1  0  0  0  0
M  END
$$$$
