KVP.pdb
 OpenBabel07022418533D

 53 53  0  0  1  0  0  0  0  0999 V2000
    2.4000   -2.6860    0.3020 N   0  0  0  0  0  0  0  0  0  0  0  0
    1.8090   -2.3690    1.6030 C   0  0  1  0  0  0  0  0  0  0  0  0
    2.7980   -1.8260    2.5760 C   0  0  0  0  0  0  0  0  0  0  0  0
    3.4410   -0.5730    2.1110 C   0  0  0  0  0  0  0  0  0  0  0  0
    4.4490   -0.0110    3.0720 C   0  0  0  0  0  0  0  0  0  0  0  0
    5.5870   -0.9240    3.3700 C   0  0  0  0  0  0  0  0  0  0  0  0
    6.3220   -1.2500    2.1370 N   0  0  0  0  0  0  0  0  0  0  0  0
    0.6290   -1.5110    1.3570 C   0  0  0  0  0  0  0  0  0  0  0  0
    0.0000   -1.0270    2.3320 O   0  0  0  0  0  0  0  0  0  0  0  0
    1.6800   -3.2670   -0.2120 H   0  0  0  0  0  0  0  0  0  0  0  0
    2.6550   -1.8320   -0.2240 H   0  0  0  0  0  0  0  0  0  0  0  0
    1.4660   -3.4000    1.9660 H   0  0  0  0  0  0  0  0  0  0  0  0
    2.2710   -1.7090    3.5480 H   0  0  0  0  0  0  0  0  0  0  0  0
    3.5510   -2.6340    2.7510 H   0  0  0  0  0  0  0  0  0  0  0  0
    3.9650   -0.7730    1.1540 H   0  0  0  0  0  0  0  0  0  0  0  0
    2.6500    0.1830    1.9170 H   0  0  0  0  0  0  0  0  0  0  0  0
    4.8520    0.9570    2.7210 H   0  0  0  0  0  0  0  0  0  0  0  0
    3.9260    0.2040    4.0300 H   0  0  0  0  0  0  0  0  0  0  0  0
    5.3290   -1.8220    3.9340 H   0  0  0  0  0  0  0  0  0  0  0  0
    6.3150   -0.3520    3.9970 H   0  0  0  0  0  0  0  0  0  0  0  0
    7.3490   -1.3980    2.3620 H   0  0  0  0  0  0  0  0  0  0  0  0
    6.2940   -0.4270    1.4950 H   0  0  0  0  0  0  0  0  0  0  0  0
    0.6010    1.5580   -0.4910 C   0  0  0  0  0  0  0  0  0  0  0  0
   -0.4920    0.7410   -1.1480 C   0  0  0  0  0  0  0  0  0  0  0  0
   -1.5830    1.6860   -1.5210 C   0  0  0  0  0  0  0  0  0  0  0  0
   -0.9810   -0.3820   -0.2420 C   0  0  2  0  0  0  0  0  0  0  0  0
    0.2150   -1.2420    0.0330 N   0  0  0  0  0  0  0  0  0  0  0  0
   -1.9240   -1.2350   -1.0010 C   0  0  0  0  0  0  0  0  0  0  0  0
   -1.3730   -2.2490   -1.6020 O   0  0  0  0  0  0  0  0  0  0  0  0
    0.1790    2.4990   -0.0850 H   0  0  0  0  0  0  0  0  0  0  0  0
    1.1610    0.9790    0.2600 H   0  0  0  0  0  0  0  0  0  0  0  0
    1.3740    1.8890   -1.2450 H   0  0  0  0  0  0  0  0  0  0  0  0
   -0.0860    0.3040   -2.0950 H   0  0  0  0  0  0  0  0  0  0  0  0
   -2.3220    1.2510   -2.2260 H   0  0  0  0  0  0  0  0  0  0  0  0
   -1.1220    2.6070   -1.9850 H   0  0  0  0  0  0  0  0  0  0  0  0
   -2.0290    2.0630   -0.5750 H   0  0  0  0  0  0  0  0  0  0  0  0
   -1.3130   -0.0110    0.7070 H   0  0  0  0  0  0  0  0  0  0  0  0
    0.6790   -1.6000   -0.8290 H   0  0  0  0  0  0  0  0  0  0  0  0
   -3.3120   -1.0750   -1.1360 N   0  0  0  0  0  0  0  0  0  0  0  0
   -4.1130   -1.9610   -2.0010 C   0  0  0  0  0  0  0  0  0  0  0  0
   -5.4000   -2.0510   -1.2150 C   0  0  0  0  0  0  0  0  0  0  0  0
   -5.6160   -0.5600   -0.9170 C   0  0  0  0  0  0  0  0  0  0  0  0
   -4.1960   -0.1650   -0.4900 C   0  0  1  0  0  0  0  0  0  0  0  0
   -4.2000   -0.3470    1.0010 C   0  0  0  0  0  0  0  0  0  0  0  0
   -4.8770    0.4320    1.7150 O   0  0  0  0  0  0  0  0  0  0  0  0
   -3.4890   -1.3400    1.6400 O   0  0  0  0  0  0  0  0  0  0  0  0
   -4.3050   -1.4350   -2.9540 H   0  0  0  0  0  0  0  0  0  0  0  0
   -3.6250   -2.9380   -2.1340 H   0  0  0  0  0  0  0  0  0  0  0  0
   -6.2400   -2.4400   -1.8170 H   0  0  0  0  0  0  0  0  0  0  0  0
   -5.2310   -2.6250   -0.2880 H   0  0  0  0  0  0  0  0  0  0  0  0
   -6.3430   -0.3940   -0.1240 H   0  0  0  0  0  0  0  0  0  0  0  0
   -5.8960   -0.0940   -1.8810 H   0  0  0  0  0  0  0  0  0  0  0  0
   -4.0920    0.8890   -0.6840 H   0  0  0  0  0  0  0  0  0  0  0  0
  1  2  1  0  0  0  0
  2 12  1  1  0  0  0
  2  3  1  0  0  0  0
  3 14  1  0  0  0  0
  3 13  1  0  0  0  0
  4  3  1  0  0  0  0
  4  5  1  0  0  0  0
  5  6  1  0  0  0  0
  5 18  1  0  0  0  0
  6 19  1  0  0  0  0
  6 20  1  0  0  0  0
  7 21  1  0  0  0  0
  7  6  1  0  0  0  0
  8  2  1  0  0  0  0
  8  9  2  0  0  0  0
 10  1  1  0  0  0  0
 11  1  1  0  0  0  0
 15  4  1  0  0  0  0
 16  4  1  0  0  0  0
 17  5  1  0  0  0  0
 22  7  1  0  0  0  0
 23 30  1  0  0  0  0
 23 31  1  0  0  0  0
 24 23  1  0  0  0  0
 24 26  1  0  0  0  0
 25 24  1  0  0  0  0
 25 36  1  0  0  0  0
 26 27  1  0  0  0  0
 26 37  1  1  0  0  0
 27  8  1  0  0  0  0
 28 26  1  0  0  0  0
 29 28  2  0  0  0  0
 32 23  1  0  0  0  0
 33 24  1  0  0  0  0
 34 25  1  0  0  0  0
 35 25  1  0  0  0  0
 38 27  1  0  0  0  0
 39 28  1  0  0  0  0
 39 43  1  0  0  0  0
 40 41  1  0  0  0  0
 40 39  1  0  0  0  0
 41 42  1  0  0  0  0
 41 50  1  0  0  0  0
 42 43  1  0  0  0  0
 42 51  1  0  0  0  0
 43 53  1  6  0  0  0
 43 44  1  0  0  0  0
 44 46  2  0  0  0  0
 44 45  1  0  0  0  0
 47 40  1  0  0  0  0
 48 40  1  0  0  0  0
 49 41  1  0  0  0  0
 52 42  1  0  0  0  0
M  END
$$$$
