KVQ.pdb
 OpenBabel07022418533D

 56 55  0  0  1  0  0  0  0  0999 V2000
   -0.1580    1.3120    4.3710 N   0  0  0  0  0  0  0  0  0  0  0  0
    0.5540    1.5490    3.0930 C   0  0  1  0  0  0  0  0  0  0  0  0
    2.0080    1.3910    3.4550 C   0  0  0  0  0  0  0  0  0  0  0  0
    2.9740    1.5800    2.3430 C   0  0  0  0  0  0  0  0  0  0  0  0
    4.4220    1.4370    2.8170 C   0  0  0  0  0  0  0  0  0  0  0  0
    4.6630    0.0650    3.3990 C   0  0  0  0  0  0  0  0  0  0  0  0
    4.4040   -0.9510    2.3970 N   0  0  0  0  0  0  0  0  0  0  0  0
    0.1000    0.5390    2.0840 C   0  0  0  0  0  0  0  0  0  0  0  0
   -0.6000   -0.4100    2.5310 O   0  0  0  0  0  0  0  0  0  0  0  0
    0.1830    0.3610    4.6800 H   0  0  0  0  0  0  0  0  0  0  0  0
    0.2900    1.9900    5.0410 H   0  0  0  0  0  0  0  0  0  0  0  0
    0.2820    2.5830    2.7990 H   0  0  0  0  0  0  0  0  0  0  0  0
    2.2800    2.1160    4.2670 H   0  0  0  0  0  0  0  0  0  0  0  0
    2.0810    0.3610    3.9160 H   0  0  0  0  0  0  0  0  0  0  0  0
    2.8490    0.7000    1.6440 H   0  0  0  0  0  0  0  0  0  0  0  0
    2.8040    2.5250    1.8190 H   0  0  0  0  0  0  0  0  0  0  0  0
    4.6360    2.1990    3.5680 H   0  0  0  0  0  0  0  0  0  0  0  0
    5.0450    1.5480    1.9010 H   0  0  0  0  0  0  0  0  0  0  0  0
    5.7330    0.0170    3.7420 H   0  0  0  0  0  0  0  0  0  0  0  0
    4.0270   -0.0850    4.2770 H   0  0  0  0  0  0  0  0  0  0  0  0
    4.6280   -1.8940    2.7760 H   0  0  0  0  0  0  0  0  0  0  0  0
    4.8200   -0.7340    1.4860 H   0  0  0  0  0  0  0  0  0  0  0  0
    0.6790   -2.4970   -1.4140 C   0  0  0  0  0  0  0  0  0  0  0  0
    0.9400   -1.4330   -0.3730 C   0  0  0  0  0  0  0  0  0  0  0  0
    1.2980   -2.0920    0.9490 C   0  0  0  0  0  0  0  0  0  0  0  0
    0.0080   -0.3040   -0.3000 C   0  0  2  0  0  0  0  0  0  0  0  0
    0.4210    0.6280    0.7280 N   0  0  0  0  0  0  0  0  0  0  0  0
   -1.4320   -0.5280   -0.2430 C   0  0  0  0  0  0  0  0  0  0  0  0
   -2.1040    0.0480    0.6820 O   0  0  0  0  0  0  0  0  0  0  0  0
    1.6340   -3.1240   -1.5370 H   0  0  0  0  0  0  0  0  0  0  0  0
   -0.1050   -3.1640   -1.0330 H   0  0  0  0  0  0  0  0  0  0  0  0
    0.4770   -2.1280   -2.4120 H   0  0  0  0  0  0  0  0  0  0  0  0
    1.9480   -0.9970   -0.7110 H   0  0  0  0  0  0  0  0  0  0  0  0
    0.4170   -2.5960    1.3290 H   0  0  0  0  0  0  0  0  0  0  0  0
    2.1280   -2.8470    0.7580 H   0  0  0  0  0  0  0  0  0  0  0  0
    1.7410   -1.3990    1.6790 H   0  0  0  0  0  0  0  0  0  0  0  0
    0.1370    0.2740   -1.3020 H   0  0  0  0  0  0  0  0  0  0  0  0
    1.0090    1.4590    0.4380 H   0  0  0  0  0  0  0  0  0  0  0  0
   -3.8610   -3.0030   -5.2490 N   0  0  0  0  0  0  0  0  0  0  0  0
   -4.2280   -2.6550   -3.8970 C   0  0  0  0  0  0  0  0  0  0  0  0
   -4.6780   -3.5860   -3.2200 O   0  0  0  0  0  0  0  0  0  0  0  0
   -4.0340   -1.2880   -3.4910 C   0  0  0  0  0  0  0  0  0  0  0  0
   -4.3380   -0.8610   -2.1160 C   0  0  0  0  0  0  0  0  0  0  0  0
   -3.5940   -1.5040   -0.9960 C   0  0  2  0  0  0  0  0  0  0  0  0
   -2.1510   -1.3340   -1.1380 N   0  0  0  0  0  0  0  0  0  0  0  0
   -4.0060   -2.8580   -0.6260 C   0  0  0  0  0  0  0  0  0  0  0  0
   -5.2450   -3.0240   -0.3620 O   0  0  0  0  0  0  0  0  0  0  0  0
   -3.1980   -3.9710   -0.5310 O   0  0  0  0  0  0  0  0  0  0  0  0
   -4.0570   -2.3420   -6.0270 H   0  0  0  0  0  0  0  0  0  0  0  0
   -3.3990   -3.9030   -5.4900 H   0  0  0  0  0  0  0  0  0  0  0  0
   -4.6940   -0.6410   -4.1690 H   0  0  0  0  0  0  0  0  0  0  0  0
   -3.0010   -0.8940   -3.7640 H   0  0  0  0  0  0  0  0  0  0  0  0
   -5.4290   -0.9730   -1.8840 H   0  0  0  0  0  0  0  0  0  0  0  0
   -4.1390    0.2460   -2.0580 H   0  0  0  0  0  0  0  0  0  0  0  0
   -3.8730   -0.8730   -0.0780 H   0  0  0  0  0  0  0  0  0  0  0  0
   -1.7380   -1.8380   -1.9480 H   0  0  0  0  0  0  0  0  0  0  0  0
  1 10  1  0  0  0  0
  1 11  1  0  0  0  0
  2 12  1  6  0  0  0
  2  3  1  0  0  0  0
  2  1  1  0  0  0  0
  3 14  1  0  0  0  0
  3 13  1  0  0  0  0
  4  5  1  0  0  0  0
  4  3  1  0  0  0  0
  5  6  1  0  0  0  0
  5 17  1  0  0  0  0
  6 19  1  0  0  0  0
  6 20  1  0  0  0  0
  7 21  1  0  0  0  0
  7  6  1  0  0  0  0
  8  9  2  0  0  0  0
  8  2  1  0  0  0  0
 15  4  1  0  0  0  0
 16  4  1  0  0  0  0
 18  5  1  0  0  0  0
 22  7  1  0  0  0  0
 23 31  1  0  0  0  0
 23 24  1  0  0  0  0
 24 26  1  0  0  0  0
 24 25  1  0  0  0  0
 25 34  1  0  0  0  0
 25 36  1  0  0  0  0
 26 37  1  6  0  0  0
 26 28  1  0  0  0  0
 26 27  1  0  0  0  0
 27  8  1  0  0  0  0
 28 29  2  0  0  0  0
 30 23  1  0  0  0  0
 32 23  1  0  0  0  0
 33 24  1  0  0  0  0
 35 25  1  0  0  0  0
 38 27  1  0  0  0  0
 39 40  1  0  0  0  0
 40 42  1  0  0  0  0
 40 41  2  0  0  0  0
 42 43  1  0  0  0  0
 43 54  1  0  0  0  0
 43 53  1  0  0  0  0
 43 44  1  0  0  0  0
 44 46  1  0  0  0  0
 44 55  1  1  0  0  0
 45 44  1  0  0  0  0
 45 28  1  0  0  0  0
 46 48  2  0  0  0  0
 46 47  1  0  0  0  0
 49 39  1  0  0  0  0
 50 39  1  0  0  0  0
 51 42  1  0  0  0  0
 52 42  1  0  0  0  0
 56 45  1  0  0  0  0
M  END
$$$$
