KWE.pdb
 OpenBabel07022418523D

 63 64  0  0  1  0  0  0  0  0999 V2000
    3.1810    1.6740    0.9760 N   0  0  0  0  0  0  0  0  0  0  0  0
    3.3210    0.2970    1.3010 C   0  0  1  0  0  0  0  0  0  0  0  0
    3.7100    0.0140    2.7320 C   0  0  0  0  0  0  0  0  0  0  0  0
    2.7080    0.5400    3.7200 C   0  0  0  0  0  0  0  0  0  0  0  0
    3.1200    0.2480    5.1500 C   0  0  0  0  0  0  0  0  0  0  0  0
    3.2520   -1.2320    5.4000 C   0  0  0  0  0  0  0  0  0  0  0  0
    3.6440   -1.5030    6.7730 N   0  0  0  0  0  0  0  0  0  0  0  0
    2.1310   -0.5420    0.9950 C   0  0  0  0  0  0  0  0  0  0  0  0
    2.2120   -1.7470    1.3460 O   0  0  0  0  0  0  0  0  0  0  0  0
    2.5170    2.1980    1.5880 H   0  0  0  0  0  0  0  0  0  0  0  0
    2.8820    1.7470   -0.0080 H   0  0  0  0  0  0  0  0  0  0  0  0
    4.1530   -0.0970    0.6450 H   0  0  0  0  0  0  0  0  0  0  0  0
    4.7240    0.3920    2.9000 H   0  0  0  0  0  0  0  0  0  0  0  0
    3.7760   -1.1000    2.8700 H   0  0  0  0  0  0  0  0  0  0  0  0
    2.6470    1.6490    3.5760 H   0  0  0  0  0  0  0  0  0  0  0  0
    1.6910    0.1700    3.5530 H   0  0  0  0  0  0  0  0  0  0  0  0
    2.3520    0.6200    5.8550 H   0  0  0  0  0  0  0  0  0  0  0  0
    4.0970    0.7240    5.3880 H   0  0  0  0  0  0  0  0  0  0  0  0
    2.3120   -1.7510    5.1050 H   0  0  0  0  0  0  0  0  0  0  0  0
    4.0720   -1.6920    4.7810 H   0  0  0  0  0  0  0  0  0  0  0  0
    2.8320   -1.4910    7.4230 H   0  0  0  0  0  0  0  0  0  0  0  0
    4.0820   -2.4680    6.8060 H   0  0  0  0  0  0  0  0  0  0  0  0
    0.9750   -0.0880    0.3660 N   0  0  0  0  0  0  0  0  0  0  0  0
   -0.1810   -0.9610    0.0870 C   0  0  1  0  0  0  0  0  0  0  0  0
   -1.3220   -0.5320    0.8980 C   0  0  0  0  0  0  0  0  0  0  0  0
   -1.8130    0.8490    0.7320 C   0  0  0  0  0  0  0  0  0  0  0  0
   -1.4300    1.9760    1.4920 C   0  0  0  0  0  0  0  0  0  0  0  0
   -2.0350    3.0690    1.0430 N   0  0  0  0  0  0  0  0  0  0  0  0
   -2.8270    2.7440   -0.0030 C   0  0  0  0  0  0  0  0  0  0  0  0
   -3.6640    3.4990   -0.8040 C   0  0  0  0  0  0  0  0  0  0  0  0
   -4.3670    2.8760   -1.8010 C   0  0  0  0  0  0  0  0  0  0  0  0
   -4.2450    1.5050   -2.0060 C   0  0  0  0  0  0  0  0  0  0  0  0
   -3.4110    0.8080   -1.1940 C   0  0  0  0  0  0  0  0  0  0  0  0
   -2.6850    1.3690   -0.1900 C   0  0  0  0  0  0  0  0  0  0  0  0
   -0.2540   -1.3880   -1.2740 C   0  0  0  0  0  0  0  0  0  0  0  0
    0.6870   -1.0740   -2.0880 O   0  0  0  0  0  0  0  0  0  0  0  0
    0.9150    0.9130    0.0760 H   0  0  0  0  0  0  0  0  0  0  0  0
    0.1650   -1.9630    0.6180 H   0  0  0  0  0  0  0  0  0  0  0  0
   -1.0430   -0.5990    2.0020 H   0  0  0  0  0  0  0  0  0  0  0  0
   -2.1900   -1.2660    0.8770 H   0  0  0  0  0  0  0  0  0  0  0  0
   -0.7330    1.8820    2.3160 H   0  0  0  0  0  0  0  0  0  0  0  0
   -1.9280    4.0220    1.4210 H   0  0  0  0  0  0  0  0  0  0  0  0
   -3.7450    4.5600   -0.6310 H   0  0  0  0  0  0  0  0  0  0  0  0
   -5.0420    3.4110   -2.4650 H   0  0  0  0  0  0  0  0  0  0  0  0
   -4.7810    0.9750   -2.7780 H   0  0  0  0  0  0  0  0  0  0  0  0
   -3.3010   -0.2650   -1.3240 H   0  0  0  0  0  0  0  0  0  0  0  0
   -1.2930   -2.1550   -1.8300 N   0  0  0  0  0  0  0  0  0  0  0  0
   -1.3160   -2.6210   -3.1940 C   0  0  1  0  0  0  0  0  0  0  0  0
   -1.9640   -3.9630   -3.3560 C   0  0  0  0  0  0  0  0  0  0  0  0
   -1.2840   -5.0490   -2.5950 C   0  0  0  0  0  0  0  0  0  0  0  0
   -1.2460   -4.8410   -1.1390 C   0  0  0  0  0  0  0  0  0  0  0  0
   -0.2170   -4.4540   -0.5190 O   0  0  0  0  0  0  0  0  0  0  0  0
   -1.8820   -1.6310   -4.1530 C   0  0  0  0  0  0  0  0  0  0  0  0
   -2.2230   -0.5080   -3.7880 O   0  0  0  0  0  0  0  0  0  0  0  0
   -2.3810   -5.0660   -0.3440 O   0  0  0  0  0  0  0  0  0  0  0  0
   -2.0330   -1.9730   -5.4890 O   0  0  0  0  0  0  0  0  0  0  0  0
   -2.0890   -2.3910   -1.1920 H   0  0  0  0  0  0  0  0  0  0  0  0
   -0.2290   -2.7220   -3.5510 H   0  0  0  0  0  0  0  0  0  0  0  0
   -2.0260   -4.2140   -4.4580 H   0  0  0  0  0  0  0  0  0  0  0  0
   -3.0420   -3.9250   -3.0090 H   0  0  0  0  0  0  0  0  0  0  0  0
   -0.2160   -5.1790   -2.9540 H   0  0  0  0  0  0  0  0  0  0  0  0
   -1.7570   -6.0420   -2.8200 H   0  0  0  0  0  0  0  0  0  0  0  0
   -2.5380   -4.5170    0.5080 H   0  0  0  0  0  0  0  0  0  0  0  0
  1  2  1  0  0  0  0
  1 10  1  0  0  0  0
  2 12  1  6  0  0  0
  2  3  1  0  0  0  0
  3 14  1  0  0  0  0
  3 13  1  0  0  0  0
  3  4  1  0  0  0  0
  4  5  1  0  0  0  0
  5 18  1  0  0  0  0
  5  6  1  0  0  0  0
  5 17  1  0  0  0  0
  6  7  1  0  0  0  0
  7 22  1  0  0  0  0
  7 21  1  0  0  0  0
  8  2  1  0  0  0  0
  8  9  2  0  0  0  0
 11  1  1  0  0  0  0
 15  4  1  0  0  0  0
 16  4  1  0  0  0  0
 19  6  1  0  0  0  0
 20  6  1  0  0  0  0
 23  8  1  0  0  0  0
 24 23  1  0  0  0  0
 24 38  1  1  0  0  0
 24 25  1  0  0  0  0
 25 39  1  0  0  0  0
 26 25  1  0  0  0  0
 26 27  2  0  0  0  0
 27 41  1  0  0  0  0
 28 42  1  0  0  0  0
 28 27  1  0  0  0  0
 29 28  1  0  0  0  0
 30 43  1  0  0  0  0
 30 29  2  0  0  0  0
 31 30  1  0  0  0  0
 32 31  2  0  0  0  0
 32 33  1  0  0  0  0
 33 34  2  0  0  0  0
 34 29  1  0  0  0  0
 34 26  1  0  0  0  0
 35 24  1  0  0  0  0
 36 35  2  0  0  0  0
 37 23  1  0  0  0  0
 40 25  1  0  0  0  0
 44 31  1  0  0  0  0
 45 32  1  0  0  0  0
 46 33  1  0  0  0  0
 47 35  1  0  0  0  0
 47 57  1  0  0  0  0
 48 58  1  6  0  0  0
 48 47  1  0  0  0  0
 49 48  1  0  0  0  0
 49 60  1  0  0  0  0
 49 50  1  0  0  0  0
 50 51  1  0  0  0  0
 51 52  2  0  0  0  0
 51 55  1  0  0  0  0
 53 54  1  0  0  0  0
 53 48  1  0  0  0  0
 55 63  1  0  0  0  0
 56 53  2  0  0  0  0
 59 49  1  0  0  0  0
 61 50  1  0  0  0  0
 62 50  1  0  0  0  0
M  END
$$$$
