KWL.pdb
 OpenBabel07022418523D

 66 67  0  0  1  0  0  0  0  0999 V2000
    3.3120    1.3490    4.0960 N   0  0  0  0  0  0  0  0  0  0  0  0
    2.8880    0.7610    2.8260 C   0  0  1  0  0  0  0  0  0  0  0  0
    3.0980   -0.7080    2.9480 C   0  0  0  0  0  0  0  0  0  0  0  0
    4.5350   -1.0440    3.2030 C   0  0  0  0  0  0  0  0  0  0  0  0
    5.4550   -0.5870    2.1110 C   0  0  0  0  0  0  0  0  0  0  0  0
    5.1360   -1.2040    0.7920 C   0  0  0  0  0  0  0  0  0  0  0  0
    3.8450   -0.9290    0.2530 N   0  0  0  0  0  0  0  0  0  0  0  0
    1.4860    1.1550    2.5930 C   0  0  0  0  0  0  0  0  0  0  0  0
    0.8820    1.7980    3.4810 O   0  0  0  0  0  0  0  0  0  0  0  0
    2.8000    0.7680    4.8250 H   0  0  0  0  0  0  0  0  0  0  0  0
    2.8370    2.3010    4.1470 H   0  0  0  0  0  0  0  0  0  0  0  0
    3.5510    1.1740    2.0430 H   0  0  0  0  0  0  0  0  0  0  0  0
    2.7020   -1.3420    2.1680 H   0  0  0  0  0  0  0  0  0  0  0  0
    2.5600   -1.0510    3.9090 H   0  0  0  0  0  0  0  0  0  0  0  0
    4.8760   -0.6840    4.2070 H   0  0  0  0  0  0  0  0  0  0  0  0
    4.6850   -2.1620    3.2710 H   0  0  0  0  0  0  0  0  0  0  0  0
    5.4090    0.5260    2.0200 H   0  0  0  0  0  0  0  0  0  0  0  0
    6.5210   -0.8580    2.4100 H   0  0  0  0  0  0  0  0  0  0  0  0
    5.8800   -0.8110    0.0380 H   0  0  0  0  0  0  0  0  0  0  0  0
    5.3290   -2.3170    0.8430 H   0  0  0  0  0  0  0  0  0  0  0  0
    3.3780   -1.7800   -0.1230 H   0  0  0  0  0  0  0  0  0  0  0  0
    3.7600   -0.1000   -0.3360 H   0  0  0  0  0  0  0  0  0  0  0  0
    0.7930    0.8410    1.4140 N   0  0  0  0  0  0  0  0  0  0  0  0
   -0.5890    1.1990    1.1180 C   0  0  1  0  0  0  0  0  0  0  0  0
   -0.5790    2.0740   -0.0950 C   0  0  0  0  0  0  0  0  0  0  0  0
   -1.8610    2.5380   -0.5970 C   0  0  0  0  0  0  0  0  0  0  0  0
   -2.4850    3.7390   -0.2220 C   0  0  0  0  0  0  0  0  0  0  0  0
   -3.6690    3.8450   -0.8440 N   0  0  0  0  0  0  0  0  0  0  0  0
   -3.8820    2.7740   -1.6270 C   0  0  0  0  0  0  0  0  0  0  0  0
   -4.9340    2.4340   -2.4720 C   0  0  0  0  0  0  0  0  0  0  0  0
   -4.8930    1.2600   -3.1960 C   0  0  0  0  0  0  0  0  0  0  0  0
   -3.7840    0.4580   -3.0470 C   0  0  0  0  0  0  0  0  0  0  0  0
   -2.7400    0.7880   -2.2130 C   0  0  0  0  0  0  0  0  0  0  0  0
   -2.7760    1.9680   -1.4810 C   0  0  0  0  0  0  0  0  0  0  0  0
   -1.3680   -0.0290    0.9500 C   0  0  0  0  0  0  0  0  0  0  0  0
   -2.6300   -0.0280    0.7660 O   0  0  0  0  0  0  0  0  0  0  0  0
    1.3180    0.3090    0.6860 H   0  0  0  0  0  0  0  0  0  0  0  0
   -1.0130    1.7880    1.9730 H   0  0  0  0  0  0  0  0  0  0  0  0
    0.0140    2.9960    0.2030 H   0  0  0  0  0  0  0  0  0  0  0  0
   -0.0180    1.5910   -0.9340 H   0  0  0  0  0  0  0  0  0  0  0  0
   -2.0910    4.4940    0.4690 H   0  0  0  0  0  0  0  0  0  0  0  0
   -4.3380    4.6390   -0.7450 H   0  0  0  0  0  0  0  0  0  0  0  0
   -5.8050    3.0600   -2.5910 H   0  0  0  0  0  0  0  0  0  0  0  0
   -5.7060    0.9670   -3.8700 H   0  0  0  0  0  0  0  0  0  0  0  0
   -3.7480   -0.4670   -3.6160 H   0  0  0  0  0  0  0  0  0  0  0  0
   -1.8640    0.1730   -2.0800 H   0  0  0  0  0  0  0  0  0  0  0  0
   -0.5540   -5.3200   -1.6330 C   0  0  0  0  0  0  0  0  0  0  0  0
   -1.4470   -4.6810   -0.5580 C   0  0  0  0  0  0  0  0  0  0  0  0
   -2.8150   -4.5800   -1.1860 C   0  0  0  0  0  0  0  0  0  0  0  0
   -0.8280   -3.3660   -0.2240 C   0  0  0  0  0  0  0  0  0  0  0  0
   -1.5290   -2.5590    0.8180 C   0  0  2  0  0  0  0  0  0  0  0  0
   -0.7540   -1.3340    0.9840 N   0  0  0  0  0  0  0  0  0  0  0  0
   -1.5970   -3.2330    2.1290 C   0  0  0  0  0  0  0  0  0  0  0  0
   -1.0110   -2.6900    3.1070 O   0  0  0  0  0  0  0  0  0  0  0  0
   -2.2470   -4.4170    2.3990 O   0  0  0  0  0  0  0  0  0  0  0  0
   -1.1690   -6.0150   -2.2340 H   0  0  0  0  0  0  0  0  0  0  0  0
    0.3200   -5.8260   -1.1640 H   0  0  0  0  0  0  0  0  0  0  0  0
   -0.1720   -4.5200   -2.2890 H   0  0  0  0  0  0  0  0  0  0  0  0
   -1.4570   -5.3630    0.2890 H   0  0  0  0  0  0  0  0  0  0  0  0
   -2.7560   -4.5690   -2.3050 H   0  0  0  0  0  0  0  0  0  0  0  0
   -3.3630   -5.5250   -0.9430 H   0  0  0  0  0  0  0  0  0  0  0  0
   -3.4260   -3.7530   -0.8350 H   0  0  0  0  0  0  0  0  0  0  0  0
   -0.6720   -2.7290   -1.1130 H   0  0  0  0  0  0  0  0  0  0  0  0
    0.2000   -3.5800    0.1640 H   0  0  0  0  0  0  0  0  0  0  0  0
   -2.5580   -2.2600    0.5690 H   0  0  0  0  0  0  0  0  0  0  0  0
    0.2740   -1.3480    1.1360 H   0  0  0  0  0  0  0  0  0  0  0  0
  1 11  1  0  0  0  0
  1 10  1  0  0  0  0
  2 12  1  6  0  0  0
  2  3  1  0  0  0  0
  2  1  1  0  0  0  0
  3  4  1  0  0  0  0
  3 14  1  0  0  0  0
  4 16  1  0  0  0  0
  4 15  1  0  0  0  0
  5 18  1  0  0  0  0
  5  4  1  0  0  0  0
  6 20  1  0  0  0  0
  6  5  1  0  0  0  0
  7  6  1  0  0  0  0
  8  2  1  0  0  0  0
  8  9  2  0  0  0  0
 13  3  1  0  0  0  0
 17  5  1  0  0  0  0
 19  6  1  0  0  0  0
 21  7  1  0  0  0  0
 22  7  1  0  0  0  0
 23  8  1  0  0  0  0
 24 23  1  0  0  0  0
 24 38  1  1  0  0  0
 25 39  1  0  0  0  0
 25 24  1  0  0  0  0
 26 27  2  0  0  0  0
 26 25  1  0  0  0  0
 27 41  1  0  0  0  0
 28 42  1  0  0  0  0
 28 27  1  0  0  0  0
 29 34  1  0  0  0  0
 29 28  1  0  0  0  0
 30 29  2  0  0  0  0
 31 32  2  0  0  0  0
 31 30  1  0  0  0  0
 32 33  1  0  0  0  0
 33 46  1  0  0  0  0
 33 34  2  0  0  0  0
 34 26  1  0  0  0  0
 35 52  1  0  0  0  0
 35 24  1  0  0  0  0
 36 35  2  0  0  0  0
 37 23  1  0  0  0  0
 40 25  1  0  0  0  0
 43 30  1  0  0  0  0
 44 31  1  0  0  0  0
 45 32  1  0  0  0  0
 47 57  1  0  0  0  0
 47 48  1  0  0  0  0
 48 50  1  0  0  0  0
 48 59  1  0  0  0  0
 49 61  1  0  0  0  0
 49 62  1  0  0  0  0
 49 48  1  0  0  0  0
 50 64  1  0  0  0  0
 50 51  1  0  0  0  0
 51 65  1  6  0  0  0
 51 52  1  0  0  0  0
 51 53  1  0  0  0  0
 52 66  1  0  0  0  0
 53 55  2  0  0  0  0
 53 54  1  0  0  0  0
 56 47  1  0  0  0  0
 58 47  1  0  0  0  0
 60 49  1  0  0  0  0
 63 50  1  0  0  0  0
M  END
$$$$
