KWP.pdb
 OpenBabel07022418523D

 61 63  0  0  1  0  0  0  0  0999 V2000
    1.1090    0.7900    4.7030 N   0  0  0  0  0  0  0  0  0  0  0  0
    1.0450    0.8040    3.2540 C   0  0  1  0  0  0  0  0  0  0  0  0
    1.8190   -0.3620    2.6540 C   0  0  0  0  0  0  0  0  0  0  0  0
    3.2570   -0.3140    3.0420 C   0  0  0  0  0  0  0  0  0  0  0  0
    4.0840   -1.4130    2.4700 C   0  0  0  0  0  0  0  0  0  0  0  0
    3.6970   -2.7990    2.8380 C   0  0  0  0  0  0  0  0  0  0  0  0
    2.3910   -3.2170    2.4460 N   0  0  0  0  0  0  0  0  0  0  0  0
   -0.3700    0.7700    2.8530 C   0  0  0  0  0  0  0  0  0  0  0  0
   -1.2860    0.7360    3.6880 O   0  0  0  0  0  0  0  0  0  0  0  0
    0.3200    1.3720    5.0560 H   0  0  0  0  0  0  0  0  0  0  0  0
    0.8990   -0.1890    5.0060 H   0  0  0  0  0  0  0  0  0  0  0  0
    1.5700    1.7220    2.9160 H   0  0  0  0  0  0  0  0  0  0  0  0
    1.7310   -0.2820    1.5550 H   0  0  0  0  0  0  0  0  0  0  0  0
    1.3170   -1.2760    3.0550 H   0  0  0  0  0  0  0  0  0  0  0  0
    3.3440   -0.3760    4.1500 H   0  0  0  0  0  0  0  0  0  0  0  0
    3.7160    0.6460    2.6950 H   0  0  0  0  0  0  0  0  0  0  0  0
    5.1520   -1.2110    2.7320 H   0  0  0  0  0  0  0  0  0  0  0  0
    4.0710   -1.3430    1.3470 H   0  0  0  0  0  0  0  0  0  0  0  0
    3.7790   -2.8900    3.9460 H   0  0  0  0  0  0  0  0  0  0  0  0
    4.4760   -3.5120    2.4510 H   0  0  0  0  0  0  0  0  0  0  0  0
    2.2840   -4.2440    2.4940 H   0  0  0  0  0  0  0  0  0  0  0  0
    2.1780   -2.8690    1.4830 H   0  0  0  0  0  0  0  0  0  0  0  0
   -0.7030    0.7780    1.4610 N   0  0  0  0  0  0  0  0  0  0  0  0
   -2.0630    0.7480    1.0030 C   0  0  1  0  0  0  0  0  0  0  0  0
   -2.2530    1.9400    0.0850 C   0  0  0  0  0  0  0  0  0  0  0  0
   -1.3360    1.9520   -1.0700 C   0  0  0  0  0  0  0  0  0  0  0  0
   -0.1410    2.6890   -1.1120 C   0  0  0  0  0  0  0  0  0  0  0  0
    0.4750    2.4650   -2.2770 N   0  0  0  0  0  0  0  0  0  0  0  0
   -0.2480    1.6020   -3.0450 C   0  0  0  0  0  0  0  0  0  0  0  0
   -0.0400    1.0780   -4.3050 C   0  0  0  0  0  0  0  0  0  0  0  0
   -0.9550    0.2160   -4.8590 C   0  0  0  0  0  0  0  0  0  0  0  0
   -2.0630   -0.0830   -4.0970 C   0  0  0  0  0  0  0  0  0  0  0  0
   -2.2760    0.4380   -2.8370 C   0  0  0  0  0  0  0  0  0  0  0  0
   -1.3690    1.2970   -2.2750 C   0  0  0  0  0  0  0  0  0  0  0  0
   -2.5350   -0.5150    0.4640 C   0  0  0  0  0  0  0  0  0  0  0  0
   -3.8100   -0.5100    0.1860 O   0  0  0  0  0  0  0  0  0  0  0  0
    0.0790    0.8310    0.8050 H   0  0  0  0  0  0  0  0  0  0  0  0
   -2.6980    0.9790    1.9270 H   0  0  0  0  0  0  0  0  0  0  0  0
   -2.0730    2.8420    0.7090 H   0  0  0  0  0  0  0  0  0  0  0  0
   -3.3010    2.0090   -0.2760 H   0  0  0  0  0  0  0  0  0  0  0  0
    0.1830    3.3240   -0.2980 H   0  0  0  0  0  0  0  0  0  0  0  0
    1.3930    2.8690   -2.6150 H   0  0  0  0  0  0  0  0  0  0  0  0
    0.8410    1.3430   -4.8570 H   0  0  0  0  0  0  0  0  0  0  0  0
   -0.8120   -0.2120   -5.8570 H   0  0  0  0  0  0  0  0  0  0  0  0
   -2.7880   -0.7640   -4.5350 H   0  0  0  0  0  0  0  0  0  0  0  0
   -3.1580    0.1960   -2.2690 H   0  0  0  0  0  0  0  0  0  0  0  0
   -1.8350   -1.7080    0.2090 N   0  0  0  0  0  0  0  0  0  0  0  0
   -0.4480   -2.0280    0.3560 C   0  0  0  0  0  0  0  0  0  0  0  0
   -0.1950   -3.2750   -0.4990 C   0  0  0  0  0  0  0  0  0  0  0  0
   -1.5060   -3.9960   -0.4040 C   0  0  0  0  0  0  0  0  0  0  0  0
   -2.5170   -2.9200   -0.2710 C   0  0  1  0  0  0  0  0  0  0  0  0
   -3.5900   -3.2390    0.6810 C   0  0  0  0  0  0  0  0  0  0  0  0
   -3.7320   -2.5820    1.7270 O   0  0  0  0  0  0  0  0  0  0  0  0
   -4.4550   -4.2810    0.4130 O   0  0  0  0  0  0  0  0  0  0  0  0
   -0.1540   -2.2920    1.3750 H   0  0  0  0  0  0  0  0  0  0  0  0
    0.2430   -1.2540   -0.0490 H   0  0  0  0  0  0  0  0  0  0  0  0
    0.6590   -3.8570   -0.1200 H   0  0  0  0  0  0  0  0  0  0  0  0
   -0.0190   -2.9050   -1.5370 H   0  0  0  0  0  0  0  0  0  0  0  0
   -1.4850   -4.6770    0.4760 H   0  0  0  0  0  0  0  0  0  0  0  0
   -1.6110   -4.5840   -1.3560 H   0  0  0  0  0  0  0  0  0  0  0  0
   -2.9400   -2.6440   -1.2560 H   0  0  0  0  0  0  0  0  0  0  0  0
  1 11  1  0  0  0  0
  1 10  1  0  0  0  0
  2 12  1  6  0  0  0
  2  1  1  0  0  0  0
  3  4  1  0  0  0  0
  3 14  1  0  0  0  0
  3  2  1  0  0  0  0
  4 15  1  0  0  0  0
  5 17  1  0  0  0  0
  5  6  1  0  0  0  0
  5  4  1  0  0  0  0
  6 19  1  0  0  0  0
  7 21  1  0  0  0  0
  7  6  1  0  0  0  0
  8  2  1  0  0  0  0
  8  9  2  0  0  0  0
 13  3  1  0  0  0  0
 16  4  1  0  0  0  0
 18  5  1  0  0  0  0
 20  6  1  0  0  0  0
 22  7  1  0  0  0  0
 23  8  1  0  0  0  0
 24 23  1  0  0  0  0
 24 38  1  1  0  0  0
 25 39  1  0  0  0  0
 25 24  1  0  0  0  0
 26 25  1  0  0  0  0
 27 26  2  0  0  0  0
 27 41  1  0  0  0  0
 28 27  1  0  0  0  0
 29 28  1  0  0  0  0
 29 34  1  0  0  0  0
 30 29  2  0  0  0  0
 31 30  1  0  0  0  0
 31 32  2  0  0  0  0
 32 33  1  0  0  0  0
 33 34  2  0  0  0  0
 33 46  1  0  0  0  0
 34 26  1  0  0  0  0
 35 24  1  0  0  0  0
 36 35  2  0  0  0  0
 37 23  1  0  0  0  0
 40 25  1  0  0  0  0
 42 28  1  0  0  0  0
 43 30  1  0  0  0  0
 44 31  1  0  0  0  0
 45 32  1  0  0  0  0
 47 48  1  0  0  0  0
 47 35  1  0  0  0  0
 48 55  1  0  0  0  0
 49 50  1  0  0  0  0
 49 57  1  0  0  0  0
 49 48  1  0  0  0  0
 50 51  1  0  0  0  0
 50 59  1  0  0  0  0
 51 61  1  6  0  0  0
 51 47  1  0  0  0  0
 51 52  1  0  0  0  0
 52 53  1  0  0  0  0
 54 52  2  0  0  0  0
 56 48  1  0  0  0  0
 58 49  1  0  0  0  0
 60 50  1  0  0  0  0
M  END
$$$$
