KWQ.pdb
 OpenBabel07022418523D

 64 65  0  0  1  0  0  0  0  0999 V2000
    3.6260    3.6700    1.2670 N   0  0  0  0  0  0  0  0  0  0  0  0
    3.0720    2.2760    1.1580 C   0  0  1  0  0  0  0  0  0  0  0  0
    2.9370    1.8450    2.5860 C   0  0  0  0  0  0  0  0  0  0  0  0
    2.4340    0.4520    2.7770 C   0  0  0  0  0  0  0  0  0  0  0  0
    3.3670   -0.5700    2.1370 C   0  0  0  0  0  0  0  0  0  0  0  0
    2.7950   -1.9310    2.3670 C   0  0  0  0  0  0  0  0  0  0  0  0
    1.4810   -2.0370    1.7700 N   0  0  0  0  0  0  0  0  0  0  0  0
    1.8150    2.3640    0.3930 C   0  0  0  0  0  0  0  0  0  0  0  0
    1.3630    3.5580    0.1740 O   0  0  0  0  0  0  0  0  0  0  0  0
    2.9830    4.1420    1.9630 H   0  0  0  0  0  0  0  0  0  0  0  0
    3.5740    4.1250    0.3240 H   0  0  0  0  0  0  0  0  0  0  0  0
    3.8620    1.7020    0.6570 H   0  0  0  0  0  0  0  0  0  0  0  0
    3.9740    1.9290    3.0310 H   0  0  0  0  0  0  0  0  0  0  0  0
    2.3240    2.5890    3.1500 H   0  0  0  0  0  0  0  0  0  0  0  0
    2.4280    0.2070    3.8860 H   0  0  0  0  0  0  0  0  0  0  0  0
    1.4390    0.3040    2.3890 H   0  0  0  0  0  0  0  0  0  0  0  0
    4.3680   -0.5010    2.6350 H   0  0  0  0  0  0  0  0  0  0  0  0
    3.4670   -0.3540    1.0750 H   0  0  0  0  0  0  0  0  0  0  0  0
    2.7210   -2.1160    3.4700 H   0  0  0  0  0  0  0  0  0  0  0  0
    3.4900   -2.7020    1.9320 H   0  0  0  0  0  0  0  0  0  0  0  0
    0.9720   -2.8540    2.1630 H   0  0  0  0  0  0  0  0  0  0  0  0
    1.5510   -2.2080    0.7330 H   0  0  0  0  0  0  0  0  0  0  0  0
    1.1000    1.2540   -0.1040 N   0  0  0  0  0  0  0  0  0  0  0  0
   -0.1230    1.4300   -0.8660 C   0  0  1  0  0  0  0  0  0  0  0  0
    0.1730    0.9900   -2.2920 C   0  0  0  0  0  0  0  0  0  0  0  0
    0.6280   -0.4010   -2.4150 C   0  0  0  0  0  0  0  0  0  0  0  0
    1.9700   -0.8150   -2.4740 C   0  0  0  0  0  0  0  0  0  0  0  0
    2.0180   -2.1420   -2.5440 N   0  0  0  0  0  0  0  0  0  0  0  0
    0.7450   -2.6190   -2.5330 C   0  0  0  0  0  0  0  0  0  0  0  0
    0.2510   -3.9190   -2.5940 C   0  0  0  0  0  0  0  0  0  0  0  0
   -1.1010   -4.1350   -2.5770 C   0  0  0  0  0  0  0  0  0  0  0  0
   -1.9940   -3.0830   -2.5000 C   0  0  0  0  0  0  0  0  0  0  0  0
   -1.4990   -1.8000   -2.4400 C   0  0  0  0  0  0  0  0  0  0  0  0
   -0.1210   -1.5510   -2.4540 C   0  0  0  0  0  0  0  0  0  0  0  0
   -1.3350    0.8790   -0.2790 C   0  0  0  0  0  0  0  0  0  0  0  0
   -2.4520    1.1590   -0.8530 O   0  0  0  0  0  0  0  0  0  0  0  0
    1.4360    0.2930    0.0550 H   0  0  0  0  0  0  0  0  0  0  0  0
   -0.2760    2.5630   -0.9120 H   0  0  0  0  0  0  0  0  0  0  0  0
   -0.7650    1.1040   -2.8570 H   0  0  0  0  0  0  0  0  0  0  0  0
    0.9230    1.6900   -2.6930 H   0  0  0  0  0  0  0  0  0  0  0  0
    2.8060   -0.1310   -2.4620 H   0  0  0  0  0  0  0  0  0  0  0  0
    2.8390   -2.7800   -2.5990 H   0  0  0  0  0  0  0  0  0  0  0  0
    0.9690   -4.7530   -2.6560 H   0  0  0  0  0  0  0  0  0  0  0  0
   -1.4550   -5.1630   -2.6260 H   0  0  0  0  0  0  0  0  0  0  0  0
   -3.0510   -3.3100   -2.4910 H   0  0  0  0  0  0  0  0  0  0  0  0
   -2.1700   -0.9550   -2.3930 H   0  0  0  0  0  0  0  0  0  0  0  0
   -6.5430   -2.3340    1.3530 N   0  0  0  0  0  0  0  0  0  0  0  0
   -5.2120   -2.0750    0.9520 C   0  0  0  0  0  0  0  0  0  0  0  0
   -5.0530   -1.4800   -0.1340 O   0  0  0  0  0  0  0  0  0  0  0  0
   -4.0340   -2.4730    1.7440 C   0  0  0  0  0  0  0  0  0  0  0  0
   -2.7370   -1.9070    1.2800 C   0  0  0  0  0  0  0  0  0  0  0  0
   -2.7350   -0.4030    1.3270 C   0  0  2  0  0  0  0  0  0  0  0  0
   -1.4320    0.0670    0.8590 N   0  0  0  0  0  0  0  0  0  0  0  0
   -3.0390    0.1630    2.6600 C   0  0  0  0  0  0  0  0  0  0  0  0
   -4.1230   -0.0500    3.2370 O   0  0  0  0  0  0  0  0  0  0  0  0
   -2.1040    0.9590    3.3090 O   0  0  0  0  0  0  0  0  0  0  0  0
   -6.9780   -3.2780    1.3310 H   0  0  0  0  0  0  0  0  0  0  0  0
   -7.1230   -1.5420    1.6890 H   0  0  0  0  0  0  0  0  0  0  0  0
   -3.9420   -3.6130    1.7480 H   0  0  0  0  0  0  0  0  0  0  0  0
   -4.2690   -2.2630    2.8180 H   0  0  0  0  0  0  0  0  0  0  0  0
   -1.8600   -2.3410    1.8100 H   0  0  0  0  0  0  0  0  0  0  0  0
   -2.6120   -2.1930    0.1930 H   0  0  0  0  0  0  0  0  0  0  0  0
   -3.5100   -0.0320    0.6370 H   0  0  0  0  0  0  0  0  0  0  0  0
   -0.5900   -0.2130    1.3780 H   0  0  0  0  0  0  0  0  0  0  0  0
  1 10  1  0  0  0  0
  2 12  1  6  0  0  0
  2  1  1  0  0  0  0
  2  3  1  0  0  0  0
  3  4  1  0  0  0  0
  3 13  1  0  0  0  0
  3 14  1  0  0  0  0
  4 15  1  0  0  0  0
  5  6  1  0  0  0  0
  5 17  1  0  0  0  0
  5  4  1  0  0  0  0
  6 19  1  0  0  0  0
  7 21  1  0  0  0  0
  7  6  1  0  0  0  0
  8  2  1  0  0  0  0
  9  8  2  0  0  0  0
 11  1  1  0  0  0  0
 16  4  1  0  0  0  0
 18  5  1  0  0  0  0
 20  6  1  0  0  0  0
 22  7  1  0  0  0  0
 23 37  1  0  0  0  0
 23  8  1  0  0  0  0
 24 38  1  6  0  0  0
 24 35  1  0  0  0  0
 24 23  1  0  0  0  0
 25 24  1  0  0  0  0
 26 25  1  0  0  0  0
 27 41  1  0  0  0  0
 27 26  2  0  0  0  0
 28 29  1  0  0  0  0
 28 27  1  0  0  0  0
 29 34  1  0  0  0  0
 30 31  1  0  0  0  0
 30 29  2  0  0  0  0
 31 32  2  0  0  0  0
 32 45  1  0  0  0  0
 32 33  1  0  0  0  0
 33 46  1  0  0  0  0
 34 33  2  0  0  0  0
 34 26  1  0  0  0  0
 35 53  1  0  0  0  0
 36 35  2  0  0  0  0
 39 25  1  0  0  0  0
 40 25  1  0  0  0  0
 42 28  1  0  0  0  0
 43 30  1  0  0  0  0
 44 31  1  0  0  0  0
 47 58  1  0  0  0  0
 48 47  1  0  0  0  0
 48 50  1  0  0  0  0
 49 48  2  0  0  0  0
 50 59  1  0  0  0  0
 50 60  1  0  0  0  0
 51 52  1  0  0  0  0
 51 50  1  0  0  0  0
 51 61  1  0  0  0  0
 52 63  1  6  0  0  0
 52 54  1  0  0  0  0
 53 52  1  0  0  0  0
 53 64  1  0  0  0  0
 54 55  2  0  0  0  0
 54 56  1  0  0  0  0
 57 47  1  0  0  0  0
 62 51  1  0  0  0  0
M  END
$$$$
