KWR.pdb
 OpenBabel07022418523D

 70 71  0  0  1  0  0  0  0  0999 V2000
    3.0320   -0.1800    1.7150 N   0  0  0  0  0  0  0  0  0  0  0  0
    3.2960    0.7200    0.6520 C   0  0  1  0  0  0  0  0  0  0  0  0
    4.5160    0.4470   -0.1700 C   0  0  0  0  0  0  0  0  0  0  0  0
    5.8230    0.4660    0.5280 C   0  0  0  0  0  0  0  0  0  0  0  0
    5.9060   -0.5600    1.6180 C   0  0  0  0  0  0  0  0  0  0  0  0
    7.2960   -0.5010    2.2540 C   0  0  0  0  0  0  0  0  0  0  0  0
    7.3730   -1.4930    3.3070 N   0  0  0  0  0  0  0  0  0  0  0  0
    2.1190    0.8960   -0.2600 C   0  0  0  0  0  0  0  0  0  0  0  0
    2.2390    1.6790   -1.2480 O   0  0  0  0  0  0  0  0  0  0  0  0
    2.4130    0.2790    2.4170 H   0  0  0  0  0  0  0  0  0  0  0  0
    2.6360   -1.0700    1.3910 H   0  0  0  0  0  0  0  0  0  0  0  0
    3.4460    1.7540    1.0910 H   0  0  0  0  0  0  0  0  0  0  0  0
    4.6060    1.1980   -1.0190 H   0  0  0  0  0  0  0  0  0  0  0  0
    4.4060   -0.5440   -0.6900 H   0  0  0  0  0  0  0  0  0  0  0  0
    6.0870    1.4840    0.9150 H   0  0  0  0  0  0  0  0  0  0  0  0
    6.6620    0.2290   -0.1860 H   0  0  0  0  0  0  0  0  0  0  0  0
    5.1720   -0.2830    2.4070 H   0  0  0  0  0  0  0  0  0  0  0  0
    5.7360   -1.5600    1.2250 H   0  0  0  0  0  0  0  0  0  0  0  0
    7.4290    0.4850    2.7000 H   0  0  0  0  0  0  0  0  0  0  0  0
    8.0730   -0.7260    1.5080 H   0  0  0  0  0  0  0  0  0  0  0  0
    6.4080   -1.7680    3.6490 H   0  0  0  0  0  0  0  0  0  0  0  0
    7.9700   -2.2970    3.0870 H   0  0  0  0  0  0  0  0  0  0  0  0
    0.8770    0.2360   -0.0800 N   0  0  0  0  0  0  0  0  0  0  0  0
   -0.2250    0.4330   -0.9810 C   0  0  1  0  0  0  0  0  0  0  0  0
   -0.5470   -0.7400   -1.8290 C   0  0  0  0  0  0  0  0  0  0  0  0
   -0.9080   -1.9840   -1.1210 C   0  0  0  0  0  0  0  0  0  0  0  0
   -2.1880   -2.4820   -0.8880 C   0  0  0  0  0  0  0  0  0  0  0  0
   -2.0650   -3.6260   -0.2010 N   0  0  0  0  0  0  0  0  0  0  0  0
   -0.7410   -3.8790    0.0160 C   0  0  0  0  0  0  0  0  0  0  0  0
   -0.1210   -4.9210    0.6590 C   0  0  0  0  0  0  0  0  0  0  0  0
    1.2450   -4.9850    0.7550 C   0  0  0  0  0  0  0  0  0  0  0  0
    1.9960   -3.9810    0.1930 C   0  0  0  0  0  0  0  0  0  0  0  0
    1.3910   -2.9270   -0.4560 C   0  0  0  0  0  0  0  0  0  0  0  0
    0.0070   -2.8470   -0.5620 C   0  0  0  0  0  0  0  0  0  0  0  0
   -1.4010    1.0400   -0.3290 C   0  0  0  0  0  0  0  0  0  0  0  0
   -1.4210    1.3060    0.8980 O   0  0  0  0  0  0  0  0  0  0  0  0
    0.8230   -0.4010    0.7630 H   0  0  0  0  0  0  0  0  0  0  0  0
    0.1280    1.2360   -1.7130 H   0  0  0  0  0  0  0  0  0  0  0  0
   -1.3570   -0.4730   -2.5520 H   0  0  0  0  0  0  0  0  0  0  0  0
    0.3430   -0.9300   -2.5190 H   0  0  0  0  0  0  0  0  0  0  0  0
   -3.1320   -2.0610   -1.1870 H   0  0  0  0  0  0  0  0  0  0  0  0
   -2.8590   -4.2300    0.1190 H   0  0  0  0  0  0  0  0  0  0  0  0
   -0.7210   -5.7030    1.0960 H   0  0  0  0  0  0  0  0  0  0  0  0
    1.7410   -5.8220    1.2710 H   0  0  0  0  0  0  0  0  0  0  0  0
    3.0780   -3.9870    0.2420 H   0  0  0  0  0  0  0  0  0  0  0  0
    1.9970   -2.1410   -0.9030 H   0  0  0  0  0  0  0  0  0  0  0  0
   -6.5070   -1.9500   -1.7720 N   0  0  0  0  0  0  0  0  0  0  0  0
   -6.6900   -1.3520   -0.5020 C   0  0  0  0  0  0  0  0  0  0  0  0
   -7.6010   -0.4510   -0.2680 N   0  0  0  0  0  0  0  0  0  0  0  0
   -5.8850   -1.7010    0.6090 N   0  0  0  0  0  0  0  0  0  0  0  0
   -5.3630   -0.7800    1.5740 C   0  0  0  0  0  0  0  0  0  0  0  0
   -4.2810    0.1390    1.0670 C   0  0  0  0  0  0  0  0  0  0  0  0
   -4.7510    0.9920   -0.0600 C   0  0  0  0  0  0  0  0  0  0  0  0
   -3.7230    1.9420   -0.5900 C   0  0  2  0  0  0  0  0  0  0  0  0
   -2.5330    1.3290   -1.1230 N   0  0  0  0  0  0  0  0  0  0  0  0
   -3.4790    3.1180    0.2680 C   0  0  0  0  0  0  0  0  0  0  0  0
   -2.3400    3.5810    0.4120 O   0  0  0  0  0  0  0  0  0  0  0  0
   -4.5430    3.7100    0.9190 O   0  0  0  0  0  0  0  0  0  0  0  0
   -6.1740   -2.9060   -1.9290 H   0  0  0  0  0  0  0  0  0  0  0  0
   -6.7400   -1.3430   -2.6110 H   0  0  0  0  0  0  0  0  0  0  0  0
   -8.1980   -0.1850   -1.0680 H   0  0  0  0  0  0  0  0  0  0  0  0
   -5.6510   -2.7300    0.7250 H   0  0  0  0  0  0  0  0  0  0  0  0
   -6.2400   -0.1860    1.9550 H   0  0  0  0  0  0  0  0  0  0  0  0
   -4.9370   -1.3890    2.4290 H   0  0  0  0  0  0  0  0  0  0  0  0
   -3.8970    0.7620    1.9290 H   0  0  0  0  0  0  0  0  0  0  0  0
   -3.4320   -0.5280    0.7850 H   0  0  0  0  0  0  0  0  0  0  0  0
   -5.6830    1.5120    0.2420 H   0  0  0  0  0  0  0  0  0  0  0  0
   -5.0450    0.3590   -0.9510 H   0  0  0  0  0  0  0  0  0  0  0  0
   -4.2370    2.4240   -1.5110 H   0  0  0  0  0  0  0  0  0  0  0  0
   -2.5060    1.0850   -2.1790 H   0  0  0  0  0  0  0  0  0  0  0  0
  1 10  1  0  0  0  0
  2 12  1  1  0  0  0
  2  1  1  0  0  0  0
  3  4  1  0  0  0  0
  3  2  1  0  0  0  0
  4 15  1  0  0  0  0
  4  5  1  0  0  0  0
  5  6  1  0  0  0  0
  5 17  1  0  0  0  0
  6 19  1  0  0  0  0
  6  7  1  0  0  0  0
  7 21  1  0  0  0  0
  8 23  1  0  0  0  0
  8  2  1  0  0  0  0
  9  8  2  0  0  0  0
 11  1  1  0  0  0  0
 13  3  1  0  0  0  0
 14  3  1  0  0  0  0
 16  4  1  0  0  0  0
 18  5  1  0  0  0  0
 20  6  1  0  0  0  0
 22  7  1  0  0  0  0
 23 37  1  0  0  0  0
 24 38  1  6  0  0  0
 24 35  1  0  0  0  0
 24 23  1  0  0  0  0
 25 26  1  0  0  0  0
 25 24  1  0  0  0  0
 26 27  2  0  0  0  0
 26 34  1  0  0  0  0
 27 28  1  0  0  0  0
 28 29  1  0  0  0  0
 28 42  1  0  0  0  0
 29 30  1  0  0  0  0
 30 31  2  0  0  0  0
 30 43  1  0  0  0  0
 31 44  1  0  0  0  0
 32 45  1  0  0  0  0
 32 31  1  0  0  0  0
 33 32  2  0  0  0  0
 34 33  1  0  0  0  0
 34 29  2  0  0  0  0
 35 36  2  0  0  0  0
 39 25  1  0  0  0  0
 40 25  1  0  0  0  0
 41 27  1  0  0  0  0
 46 33  1  0  0  0  0
 47 48  1  0  0  0  0
 48 49  2  0  0  0  0
 48 50  1  0  0  0  0
 50 62  1  0  0  0  0
 50 51  1  0  0  0  0
 51 63  1  0  0  0  0
 51 64  1  0  0  0  0
 52 51  1  0  0  0  0
 52 65  1  0  0  0  0
 53 67  1  0  0  0  0
 53 52  1  0  0  0  0
 54 69  1  6  0  0  0
 54 53  1  0  0  0  0
 54 56  1  0  0  0  0
 55 54  1  0  0  0  0
 55 35  1  0  0  0  0
 56 57  2  0  0  0  0
 56 58  1  0  0  0  0
 59 47  1  0  0  0  0
 60 47  1  0  0  0  0
 61 49  1  0  0  0  0
 66 52  1  0  0  0  0
 68 53  1  0  0  0  0
 70 55  1  0  0  0  0
M  END
$$$$
