KWS.pdb
 OpenBabel07022418523D

 58 59  0  0  1  0  0  0  0  0999 V2000
    1.2890   -0.3190    4.7860 N   0  0  0  0  0  0  0  0  0  0  0  0
    1.1230   -0.2180    3.3540 C   0  0  1  0  0  0  0  0  0  0  0  0
    1.8720   -1.2910    2.6030 C   0  0  0  0  0  0  0  0  0  0  0  0
    3.3500   -1.2510    2.8520 C   0  0  0  0  0  0  0  0  0  0  0  0
    3.9820    0.0480    2.4460 C   0  0  0  0  0  0  0  0  0  0  0  0
    5.4800   -0.0640    2.7580 C   0  0  0  0  0  0  0  0  0  0  0  0
    6.0740   -1.1610    2.0170 N   0  0  0  0  0  0  0  0  0  0  0  0
   -0.3040   -0.1790    3.0450 C   0  0  0  0  0  0  0  0  0  0  0  0
   -1.1530   -0.2200    4.0030 O   0  0  0  0  0  0  0  0  0  0  0  0
    1.2020   -1.3300    5.0310 H   0  0  0  0  0  0  0  0  0  0  0  0
    0.4710    0.1580    5.2370 H   0  0  0  0  0  0  0  0  0  0  0  0
    1.5740    0.7610    3.0530 H   0  0  0  0  0  0  0  0  0  0  0  0
    1.7210   -1.1580    1.5120 H   0  0  0  0  0  0  0  0  0  0  0  0
    1.5010   -2.3010    2.8510 H   0  0  0  0  0  0  0  0  0  0  0  0
    3.8140   -2.0770    2.2510 H   0  0  0  0  0  0  0  0  0  0  0  0
    3.6270   -1.4490    3.9060 H   0  0  0  0  0  0  0  0  0  0  0  0
    3.8170    0.3290    1.3990 H   0  0  0  0  0  0  0  0  0  0  0  0
    3.6090    0.8700    3.1130 H   0  0  0  0  0  0  0  0  0  0  0  0
    6.0010    0.8690    2.4980 H   0  0  0  0  0  0  0  0  0  0  0  0
    5.6400   -0.2440    3.8370 H   0  0  0  0  0  0  0  0  0  0  0  0
    5.8450   -2.0970    2.4150 H   0  0  0  0  0  0  0  0  0  0  0  0
    5.8690   -1.0990    0.9950 H   0  0  0  0  0  0  0  0  0  0  0  0
   -0.7410   -0.0990    1.6930 N   0  0  0  0  0  0  0  0  0  0  0  0
   -2.1700   -0.0620    1.4050 C   0  0  1  0  0  0  0  0  0  0  0  0
   -2.4750    1.3060    0.8420 C   0  0  0  0  0  0  0  0  0  0  0  0
   -1.6790    1.5740   -0.3800 C   0  0  0  0  0  0  0  0  0  0  0  0
   -0.4710    2.2830   -0.3810 C   0  0  0  0  0  0  0  0  0  0  0  0
   -0.0100    2.3040   -1.6270 N   0  0  0  0  0  0  0  0  0  0  0  0
   -0.8400    1.6500   -2.4640 C   0  0  0  0  0  0  0  0  0  0  0  0
   -0.7740    1.4240   -3.8350 C   0  0  0  0  0  0  0  0  0  0  0  0
   -1.7900    0.7190   -4.4360 C   0  0  0  0  0  0  0  0  0  0  0  0
   -2.8280    0.2680   -3.6560 C   0  0  0  0  0  0  0  0  0  0  0  0
   -2.9090    0.4840   -2.2960 C   0  0  0  0  0  0  0  0  0  0  0  0
   -1.8890    1.1910   -1.6810 C   0  0  0  0  0  0  0  0  0  0  0  0
   -2.6670   -1.1990    0.6520 C   0  0  0  0  0  0  0  0  0  0  0  0
   -3.9050   -1.3090    0.4740 O   0  0  0  0  0  0  0  0  0  0  0  0
   -0.0010   -0.0700    0.9610 H   0  0  0  0  0  0  0  0  0  0  0  0
   -2.6990   -0.0920    2.4060 H   0  0  0  0  0  0  0  0  0  0  0  0
   -3.5630    1.3730    0.6180 H   0  0  0  0  0  0  0  0  0  0  0  0
   -2.2240    2.0430    1.6370 H   0  0  0  0  0  0  0  0  0  0  0  0
   -0.0400    2.7140    0.5120 H   0  0  0  0  0  0  0  0  0  0  0  0
    0.8720    2.7540   -1.9600 H   0  0  0  0  0  0  0  0  0  0  0  0
    0.0470    1.7890   -4.4110 H   0  0  0  0  0  0  0  0  0  0  0  0
   -1.7960    0.5070   -5.5170 H   0  0  0  0  0  0  0  0  0  0  0  0
   -3.6100   -0.2810   -4.1580 H   0  0  0  0  0  0  0  0  0  0  0  0
   -3.7220    0.1450   -1.7000 H   0  0  0  0  0  0  0  0  0  0  0  0
   -0.4490   -3.5770   -2.0370 O   0  0  0  0  0  0  0  0  0  0  0  0
   -1.8350   -3.4290   -2.0550 C   0  0  0  0  0  0  0  0  0  0  0  0
   -2.3820   -3.3390   -0.6580 C   0  0  2  0  0  0  0  0  0  0  0  0
   -1.8500   -2.2200    0.0860 N   0  0  0  0  0  0  0  0  0  0  0  0
   -2.0550   -4.6370    0.0240 C   0  0  0  0  0  0  0  0  0  0  0  0
   -1.4040   -4.6940    1.0980 O   0  0  0  0  0  0  0  0  0  0  0  0
   -2.4790   -5.8310   -0.5370 O   0  0  0  0  0  0  0  0  0  0  0  0
   -0.1890   -4.1420   -2.8240 H   0  0  0  0  0  0  0  0  0  0  0  0
   -2.1590   -2.5960   -2.7100 H   0  0  0  0  0  0  0  0  0  0  0  0
   -2.2520   -4.3640   -2.4990 H   0  0  0  0  0  0  0  0  0  0  0  0
   -3.4940   -3.2970   -0.7280 H   0  0  0  0  0  0  0  0  0  0  0  0
   -0.8210   -2.1670    0.2100 H   0  0  0  0  0  0  0  0  0  0  0  0
  1 10  1  0  0  0  0
  1 11  1  0  0  0  0
  2 12  1  6  0  0  0
  2  1  1  0  0  0  0
  3 14  1  0  0  0  0
  3  4  1  0  0  0  0
  3  2  1  0  0  0  0
  4 16  1  0  0  0  0
  5  6  1  0  0  0  0
  5  4  1  0  0  0  0
  5 18  1  0  0  0  0
  6 20  1  0  0  0  0
  7 21  1  0  0  0  0
  7  6  1  0  0  0  0
  8  2  1  0  0  0  0
  8  9  2  0  0  0  0
 13  3  1  0  0  0  0
 15  4  1  0  0  0  0
 17  5  1  0  0  0  0
 19  6  1  0  0  0  0
 22  7  1  0  0  0  0
 23  8  1  0  0  0  0
 24 23  1  0  0  0  0
 24 38  1  1  0  0  0
 25 24  1  0  0  0  0
 25 40  1  0  0  0  0
 26 25  1  0  0  0  0
 27 26  2  0  0  0  0
 27 41  1  0  0  0  0
 28 27  1  0  0  0  0
 29 34  1  0  0  0  0
 29 28  1  0  0  0  0
 30 29  2  0  0  0  0
 31 30  1  0  0  0  0
 31 32  2  0  0  0  0
 32 33  1  0  0  0  0
 33 46  1  0  0  0  0
 33 34  2  0  0  0  0
 34 26  1  0  0  0  0
 35 24  1  0  0  0  0
 36 35  2  0  0  0  0
 37 23  1  0  0  0  0
 39 25  1  0  0  0  0
 42 28  1  0  0  0  0
 43 30  1  0  0  0  0
 44 31  1  0  0  0  0
 45 32  1  0  0  0  0
 48 47  1  0  0  0  0
 48 49  1  0  0  0  0
 49 57  1  6  0  0  0
 49 51  1  0  0  0  0
 49 50  1  0  0  0  0
 50 58  1  0  0  0  0
 50 35  1  0  0  0  0
 51 52  1  0  0  0  0
 53 51  2  0  0  0  0
 54 47  1  0  0  0  0
 55 48  1  0  0  0  0
 56 48  1  0  0  0  0
M  END
$$$$
