KWT.pdb
 OpenBabel07022418523D

 61 62  0  0  1  0  0  0  0  0999 V2000
    2.7060   -1.7170    2.4760 N   0  0  0  0  0  0  0  0  0  0  0  0
    1.7770   -1.3990    3.5250 C   0  0  1  0  0  0  0  0  0  0  0  0
    2.3950   -0.3720    4.4210 C   0  0  0  0  0  0  0  0  0  0  0  0
    2.7670    0.9090    3.7980 C   0  0  0  0  0  0  0  0  0  0  0  0
    3.7550    0.8910    2.6960 C   0  0  0  0  0  0  0  0  0  0  0  0
    5.1090    0.3470    3.0260 C   0  0  0  0  0  0  0  0  0  0  0  0
    5.9120    0.4210    1.7980 N   0  0  0  0  0  0  0  0  0  0  0  0
    0.4250   -1.0480    3.0570 C   0  0  0  0  0  0  0  0  0  0  0  0
   -0.4740   -0.8470    3.9280 O   0  0  0  0  0  0  0  0  0  0  0  0
    3.4980   -2.3060    2.8360 H   0  0  0  0  0  0  0  0  0  0  0  0
    2.2600   -2.1690    1.6430 H   0  0  0  0  0  0  0  0  0  0  0  0
    1.6720   -2.3380    4.1430 H   0  0  0  0  0  0  0  0  0  0  0  0
    1.6610   -0.1530    5.2370 H   0  0  0  0  0  0  0  0  0  0  0  0
    3.2610   -0.8380    4.9280 H   0  0  0  0  0  0  0  0  0  0  0  0
    3.2080    1.5560    4.6140 H   0  0  0  0  0  0  0  0  0  0  0  0
    1.8790    1.4760    3.4460 H   0  0  0  0  0  0  0  0  0  0  0  0
    3.9240    1.9740    2.4110 H   0  0  0  0  0  0  0  0  0  0  0  0
    3.3900    0.4340    1.7500 H   0  0  0  0  0  0  0  0  0  0  0  0
    5.6560    0.9680    3.7670 H   0  0  0  0  0  0  0  0  0  0  0  0
    5.1560   -0.6800    3.3700 H   0  0  0  0  0  0  0  0  0  0  0  0
    5.4460   -0.0610    0.9990 H   0  0  0  0  0  0  0  0  0  0  0  0
    6.0530    1.4350    1.6070 H   0  0  0  0  0  0  0  0  0  0  0  0
    0.0390   -0.9150    1.7120 N   0  0  0  0  0  0  0  0  0  0  0  0
   -1.3340   -0.5670    1.2790 C   0  0  1  0  0  0  0  0  0  0  0  0
   -1.3430    0.8160    0.7230 C   0  0  0  0  0  0  0  0  0  0  0  0
   -0.4360    1.0690   -0.4050 C   0  0  0  0  0  0  0  0  0  0  0  0
    0.8660    1.6080   -0.2820 C   0  0  0  0  0  0  0  0  0  0  0  0
    1.4150    1.6630   -1.4830 N   0  0  0  0  0  0  0  0  0  0  0  0
    0.5630    1.1920   -2.4260 C   0  0  0  0  0  0  0  0  0  0  0  0
    0.7050    1.0700   -3.8060 C   0  0  0  0  0  0  0  0  0  0  0  0
   -0.3540    0.5610   -4.5220 C   0  0  0  0  0  0  0  0  0  0  0  0
   -1.5000    0.1970   -3.8470 C   0  0  0  0  0  0  0  0  0  0  0  0
   -1.6470    0.3130   -2.4940 C   0  0  0  0  0  0  0  0  0  0  0  0
   -0.5890    0.8250   -1.7460 C   0  0  0  0  0  0  0  0  0  0  0  0
   -1.7610   -1.5810    0.3270 C   0  0  0  0  0  0  0  0  0  0  0  0
   -0.9340   -2.4030   -0.2050 O   0  0  0  0  0  0  0  0  0  0  0  0
    0.7240   -1.0620    0.9520 H   0  0  0  0  0  0  0  0  0  0  0  0
   -1.9920   -0.5350    2.1940 H   0  0  0  0  0  0  0  0  0  0  0  0
   -1.1120    1.5690    1.5150 H   0  0  0  0  0  0  0  0  0  0  0  0
   -2.3930    1.0320    0.3970 H   0  0  0  0  0  0  0  0  0  0  0  0
    1.2660    1.9020    0.6930 H   0  0  0  0  0  0  0  0  0  0  0  0
    2.3880    2.0210   -1.7060 H   0  0  0  0  0  0  0  0  0  0  0  0
    1.6380    1.3800   -4.2580 H   0  0  0  0  0  0  0  0  0  0  0  0
   -0.2580    0.4590   -5.6130 H   0  0  0  0  0  0  0  0  0  0  0  0
   -2.3090   -0.2000   -4.4620 H   0  0  0  0  0  0  0  0  0  0  0  0
   -2.5270    0.0530   -1.9620 H   0  0  0  0  0  0  0  0  0  0  0  0
   -5.3070   -3.6340    0.4740 C   0  0  0  0  0  0  0  0  0  0  0  0
   -4.0550   -4.0130   -0.2800 C   0  0  1  0  0  0  0  0  0  0  0  0
   -4.3590   -4.9720   -1.2650 O   0  0  0  0  0  0  0  0  0  0  0  0
   -3.4780   -2.8170   -1.0500 C   0  0  2  0  0  0  0  0  0  0  0  0
   -3.1290   -1.7750   -0.1040 N   0  0  0  0  0  0  0  0  0  0  0  0
   -4.3830   -2.3960   -2.1160 C   0  0  0  0  0  0  0  0  0  0  0  0
   -4.7200   -3.2370   -3.0170 O   0  0  0  0  0  0  0  0  0  0  0  0
   -4.9310   -1.1360   -2.2520 O   0  0  0  0  0  0  0  0  0  0  0  0
   -5.4430   -2.5350    0.5600 H   0  0  0  0  0  0  0  0  0  0  0  0
   -6.1750   -4.1150   -0.0280 H   0  0  0  0  0  0  0  0  0  0  0  0
   -5.2480   -4.0430    1.5170 H   0  0  0  0  0  0  0  0  0  0  0  0
   -3.3120   -4.3900    0.4190 H   0  0  0  0  0  0  0  0  0  0  0  0
   -3.5050   -5.3920   -1.5360 H   0  0  0  0  0  0  0  0  0  0  0  0
   -2.5340   -3.2010   -1.4870 H   0  0  0  0  0  0  0  0  0  0  0  0
   -3.8650   -1.1300    0.2960 H   0  0  0  0  0  0  0  0  0  0  0  0
  1 10  1  0  0  0  0
  1  2  1  0  0  0  0
  2 12  1  1  0  0  0
  2  3  1  0  0  0  0
  3 14  1  0  0  0  0
  3 13  1  0  0  0  0
  4  3  1  0  0  0  0
  4 15  1  0  0  0  0
  5  6  1  0  0  0  0
  5  4  1  0  0  0  0
  6 20  1  0  0  0  0
  6 19  1  0  0  0  0
  7  6  1  0  0  0  0
  8  2  1  0  0  0  0
  8  9  2  0  0  0  0
 11  1  1  0  0  0  0
 16  4  1  0  0  0  0
 17  5  1  0  0  0  0
 18  5  1  0  0  0  0
 21  7  1  0  0  0  0
 22  7  1  0  0  0  0
 23  8  1  0  0  0  0
 24 23  1  0  0  0  0
 24 38  1  1  0  0  0
 25 24  1  0  0  0  0
 25 39  1  0  0  0  0
 26 27  2  0  0  0  0
 26 25  1  0  0  0  0
 27 41  1  0  0  0  0
 28 27  1  0  0  0  0
 29 34  1  0  0  0  0
 29 28  1  0  0  0  0
 30 29  2  0  0  0  0
 31 32  2  0  0  0  0
 31 30  1  0  0  0  0
 32 33  1  0  0  0  0
 33 46  1  0  0  0  0
 33 34  2  0  0  0  0
 34 26  1  0  0  0  0
 35 24  1  0  0  0  0
 36 35  2  0  0  0  0
 37 23  1  0  0  0  0
 40 25  1  0  0  0  0
 42 28  1  0  0  0  0
 43 30  1  0  0  0  0
 44 31  1  0  0  0  0
 45 32  1  0  0  0  0
 47 55  1  0  0  0  0
 47 57  1  0  0  0  0
 48 58  1  1  0  0  0
 48 47  1  0  0  0  0
 49 48  1  0  0  0  0
 50 60  1  6  0  0  0
 50 48  1  0  0  0  0
 50 51  1  0  0  0  0
 51 61  1  0  0  0  0
 51 35  1  0  0  0  0
 52 50  1  0  0  0  0
 53 52  2  0  0  0  0
 54 52  1  0  0  0  0
 56 47  1  0  0  0  0
 59 49  1  0  0  0  0
M  END
$$$$
