KYF.pdb
 OpenBabel07022418533D

 64 65  0  0  1  0  0  0  0  0999 V2000
    0.3110    2.2420    4.4130 N   0  0  0  0  0  0  0  0  0  0  0  0
    0.9240    1.2600    3.4720 C   0  0  1  0  0  0  0  0  0  0  0  0
    0.5850   -0.0560    4.0220 C   0  0  0  0  0  0  0  0  0  0  0  0
    1.0310   -1.2900    3.3830 C   0  0  0  0  0  0  0  0  0  0  0  0
    2.5100   -1.4680    3.2350 C   0  0  0  0  0  0  0  0  0  0  0  0
    2.8570   -2.7740    2.5610 C   0  0  0  0  0  0  0  0  0  0  0  0
    4.3240   -2.8180    2.4830 N   0  0  0  0  0  0  0  0  0  0  0  0
    0.3730    1.6270    2.1550 C   0  0  0  0  0  0  0  0  0  0  0  0
   -0.3980    2.6480    2.0170 O   0  0  0  0  0  0  0  0  0  0  0  0
   -0.7020    2.0100    4.5270 H   0  0  0  0  0  0  0  0  0  0  0  0
    0.3370    3.1680    3.9060 H   0  0  0  0  0  0  0  0  0  0  0  0
    2.0100    1.5320    3.5590 H   0  0  0  0  0  0  0  0  0  0  0  0
    0.9180   -0.0660    5.1040 H   0  0  0  0  0  0  0  0  0  0  0  0
   -0.5420   -0.1000    4.1160 H   0  0  0  0  0  0  0  0  0  0  0  0
    0.7130   -2.1640    4.0410 H   0  0  0  0  0  0  0  0  0  0  0  0
    0.5390   -1.5210    2.4290 H   0  0  0  0  0  0  0  0  0  0  0  0
    2.9990   -1.5090    4.2450 H   0  0  0  0  0  0  0  0  0  0  0  0
    3.0080   -0.6740    2.6530 H   0  0  0  0  0  0  0  0  0  0  0  0
    2.4660   -3.6520    3.1110 H   0  0  0  0  0  0  0  0  0  0  0  0
    2.4900   -2.8200    1.5190 H   0  0  0  0  0  0  0  0  0  0  0  0
    4.6510   -3.5880    1.8570 H   0  0  0  0  0  0  0  0  0  0  0  0
    4.6200   -1.9240    2.0320 H   0  0  0  0  0  0  0  0  0  0  0  0
   -0.9160    3.4400   -6.3430 O   0  0  0  0  0  0  0  0  0  0  0  0
   -0.4210    2.9530   -5.1380 C   0  0  0  0  0  0  0  0  0  0  0  0
   -0.2670    1.6040   -4.9030 C   0  0  0  0  0  0  0  0  0  0  0  0
    0.2270    1.1430   -3.6960 C   0  0  0  0  0  0  0  0  0  0  0  0
    0.5880    1.9940   -2.6710 C   0  0  0  0  0  0  0  0  0  0  0  0
    1.1160    1.5470   -1.3660 C   0  0  0  0  0  0  0  0  0  0  0  0
    0.0280    1.3900   -0.3440 C   0  0  2  0  0  0  0  0  0  0  0  0
    0.6070    0.9440    0.9300 N   0  0  0  0  0  0  0  0  0  0  0  0
   -1.1020    0.5830   -0.7930 C   0  0  0  0  0  0  0  0  0  0  0  0
   -1.7340    0.8940   -1.8580 O   0  0  0  0  0  0  0  0  0  0  0  0
    0.4240    3.3620   -2.9270 C   0  0  0  0  0  0  0  0  0  0  0  0
   -0.0680    3.8240   -4.1300 C   0  0  0  0  0  0  0  0  0  0  0  0
   -1.8750    3.7550   -6.4270 H   0  0  0  0  0  0  0  0  0  0  0  0
   -0.5460    0.9240   -5.7000 H   0  0  0  0  0  0  0  0  0  0  0  0
    0.3490    0.0800   -3.5100 H   0  0  0  0  0  0  0  0  0  0  0  0
    1.8140    2.3390   -1.0080 H   0  0  0  0  0  0  0  0  0  0  0  0
    1.7380    0.6320   -1.4640 H   0  0  0  0  0  0  0  0  0  0  0  0
   -0.3840    2.4350   -0.1370 H   0  0  0  0  0  0  0  0  0  0  0  0
    1.2040    0.1190    0.9170 H   0  0  0  0  0  0  0  0  0  0  0  0
    0.6990    4.0590   -2.1450 H   0  0  0  0  0  0  0  0  0  0  0  0
   -0.1910    4.8960   -4.3160 H   0  0  0  0  0  0  0  0  0  0  0  0
   -1.5860   -0.5630   -0.1240 N   0  0  0  0  0  0  0  0  0  0  0  0
   -2.7250   -1.3200   -0.6080 C   0  0  1  0  0  0  0  0  0  0  0  0
   -2.4270   -2.7260   -0.9990 C   0  0  0  0  0  0  0  0  0  0  0  0
   -1.8980   -3.5830    0.0670 C   0  0  0  0  0  0  0  0  0  0  0  0
   -2.7540   -4.3060    0.8760 C   0  0  0  0  0  0  0  0  0  0  0  0
   -2.2580   -5.1280    1.8700 C   0  0  0  0  0  0  0  0  0  0  0  0
   -0.9100   -5.2690    2.1020 C   0  0  0  0  0  0  0  0  0  0  0  0
   -0.0460   -4.5520    1.2990 C   0  0  0  0  0  0  0  0  0  0  0  0
   -0.5320   -3.7320    0.3090 C   0  0  0  0  0  0  0  0  0  0  0  0
   -3.8710   -1.2620    0.3080 C   0  0  0  0  0  0  0  0  0  0  0  0
   -4.9300   -1.8460   -0.0220 O   0  0  0  0  0  0  0  0  0  0  0  0
   -3.8590   -0.6000    1.5250 O   0  0  0  0  0  0  0  0  0  0  0  0
   -1.1310   -0.8930    0.7420 H   0  0  0  0  0  0  0  0  0  0  0  0
   -3.0810   -0.7930   -1.5490 H   0  0  0  0  0  0  0  0  0  0  0  0
   -1.6970   -2.7300   -1.8640 H   0  0  0  0  0  0  0  0  0  0  0  0
   -3.3570   -3.1890   -1.3930 H   0  0  0  0  0  0  0  0  0  0  0  0
   -3.8380   -4.2180    0.7140 H   0  0  0  0  0  0  0  0  0  0  0  0
   -2.9540   -5.6870    2.4940 H   0  0  0  0  0  0  0  0  0  0  0  0
   -0.5450   -5.9210    2.8880 H   0  0  0  0  0  0  0  0  0  0  0  0
    1.0030   -4.6970    1.5130 H   0  0  0  0  0  0  0  0  0  0  0  0
    0.1510   -3.1790   -0.3080 H   0  0  0  0  0  0  0  0  0  0  0  0
  1 10  1  0  0  0  0
  2 12  1  6  0  0  0
  2  3  1  0  0  0  0
  2  1  1  0  0  0  0
  3 14  1  0  0  0  0
  3 13  1  0  0  0  0
  4  3  1  0  0  0  0
  4 15  1  0  0  0  0
  5  4  1  0  0  0  0
  5 17  1  0  0  0  0
  6 19  1  0  0  0  0
  6  5  1  0  0  0  0
  7  6  1  0  0  0  0
  8  2  1  0  0  0  0
  9  8  2  0  0  0  0
 11  1  1  0  0  0  0
 16  4  1  0  0  0  0
 18  5  1  0  0  0  0
 20  6  1  0  0  0  0
 21  7  1  0  0  0  0
 22  7  1  0  0  0  0
 23 24  1  0  0  0  0
 24 25  2  0  0  0  0
 24 34  1  0  0  0  0
 25 26  1  0  0  0  0
 26 37  1  0  0  0  0
 26 27  2  0  0  0  0
 27 28  1  0  0  0  0
 28 38  1  0  0  0  0
 28 29  1  0  0  0  0
 29 40  1  1  0  0  0
 29 30  1  0  0  0  0
 30  8  1  0  0  0  0
 31 29  1  0  0  0  0
 31 44  1  0  0  0  0
 32 31  2  0  0  0  0
 33 27  1  0  0  0  0
 33 42  1  0  0  0  0
 34 33  2  0  0  0  0
 35 23  1  0  0  0  0
 36 25  1  0  0  0  0
 39 28  1  0  0  0  0
 41 30  1  0  0  0  0
 43 34  1  0  0  0  0
 44 56  1  0  0  0  0
 45 57  1  6  0  0  0
 45 44  1  0  0  0  0
 45 53  1  0  0  0  0
 46 45  1  0  0  0  0
 46 47  1  0  0  0  0
 47 52  2  0  0  0  0
 47 48  1  0  0  0  0
 48 49  2  0  0  0  0
 49 50  1  0  0  0  0
 49 61  1  0  0  0  0
 50 62  1  0  0  0  0
 51 63  1  0  0  0  0
 51 50  2  0  0  0  0
 52 51  1  0  0  0  0
 53 55  1  0  0  0  0
 54 53  2  0  0  0  0
 58 46  1  0  0  0  0
 59 46  1  0  0  0  0
 60 48  1  0  0  0  0
 64 52  1  0  0  0  0
M  END
$$$$
