KYI.pdb
 OpenBabel07022418533D

 63 63  0  0  1  0  0  0  0  0999 V2000
    0.3580    1.3910    5.4130 N   0  0  0  0  0  0  0  0  0  0  0  0
    0.5280    1.6510    4.0090 C   0  0  1  0  0  0  0  0  0  0  0  0
    1.8880    1.2830    3.5320 C   0  0  0  0  0  0  0  0  0  0  0  0
    2.1730   -0.1930    3.7570 C   0  0  0  0  0  0  0  0  0  0  0  0
    3.5440   -0.4790    3.1740 C   0  0  0  0  0  0  0  0  0  0  0  0
    3.8550   -1.9480    3.3780 C   0  0  0  0  0  0  0  0  0  0  0  0
    3.9190   -2.2870    4.7670 N   0  0  0  0  0  0  0  0  0  0  0  0
   -0.5520    1.0070    3.2120 C   0  0  0  0  0  0  0  0  0  0  0  0
   -1.5400    0.5410    3.8240 O   0  0  0  0  0  0  0  0  0  0  0  0
   -0.1420    0.4820    5.5630 H   0  0  0  0  0  0  0  0  0  0  0  0
   -0.1520    2.2010    5.8230 H   0  0  0  0  0  0  0  0  0  0  0  0
    0.3490    2.7790    3.8610 H   0  0  0  0  0  0  0  0  0  0  0  0
    2.6610    1.8510    4.1420 H   0  0  0  0  0  0  0  0  0  0  0  0
    2.1020    1.6300    2.5140 H   0  0  0  0  0  0  0  0  0  0  0  0
    1.4650   -0.8530    3.2530 H   0  0  0  0  0  0  0  0  0  0  0  0
    2.2040   -0.3100    4.8630 H   0  0  0  0  0  0  0  0  0  0  0  0
    3.5290   -0.1650    2.1270 H   0  0  0  0  0  0  0  0  0  0  0  0
    4.3210    0.1220    3.7130 H   0  0  0  0  0  0  0  0  0  0  0  0
    2.9780   -2.5190    2.9610 H   0  0  0  0  0  0  0  0  0  0  0  0
    4.7660   -2.2690    2.8730 H   0  0  0  0  0  0  0  0  0  0  0  0
    3.0410   -2.6850    5.1730 H   0  0  0  0  0  0  0  0  0  0  0  0
    4.2700   -1.4960    5.3670 H   0  0  0  0  0  0  0  0  0  0  0  0
    1.3110    3.4780   -3.9330 O   0  0  0  0  0  0  0  0  0  0  0  0
    0.4780    2.8880   -2.9870 C   0  0  0  0  0  0  0  0  0  0  0  0
    0.3120    3.5130   -1.7840 C   0  0  0  0  0  0  0  0  0  0  0  0
   -0.5170    2.9280   -0.8300 C   0  0  0  0  0  0  0  0  0  0  0  0
   -1.1840    1.7320   -1.0760 C   0  0  0  0  0  0  0  0  0  0  0  0
   -2.0730    1.1970   -0.0590 C   0  0  0  0  0  0  0  0  0  0  0  0
   -1.5360    0.3140    0.9820 C   0  0  2  0  0  0  0  0  0  0  0  0
   -0.5110    0.8970    1.8170 N   0  0  0  0  0  0  0  0  0  0  0  0
   -1.0950   -1.0330    0.5260 C   0  0  0  0  0  0  0  0  0  0  0  0
   -0.2000   -1.6300    1.1260 O   0  0  0  0  0  0  0  0  0  0  0  0
   -0.9880    1.1530   -2.2840 C   0  0  0  0  0  0  0  0  0  0  0  0
   -0.1530    1.7050   -3.2850 C   0  0  0  0  0  0  0  0  0  0  0  0
    2.0260    2.8590   -4.3250 H   0  0  0  0  0  0  0  0  0  0  0  0
    0.8260    4.4440   -1.5920 H   0  0  0  0  0  0  0  0  0  0  0  0
   -0.6250    3.4510    0.1050 H   0  0  0  0  0  0  0  0  0  0  0  0
   -3.0090    0.7260   -0.4980 H   0  0  0  0  0  0  0  0  0  0  0  0
   -2.5610    2.0740    0.5080 H   0  0  0  0  0  0  0  0  0  0  0  0
   -2.4570    0.1070    1.6800 H   0  0  0  0  0  0  0  0  0  0  0  0
    0.3480    1.2890    1.3310 H   0  0  0  0  0  0  0  0  0  0  0  0
   -1.4560    0.2240   -2.6100 H   0  0  0  0  0  0  0  0  0  0  0  0
   -0.0350    1.1940   -4.2020 H   0  0  0  0  0  0  0  0  0  0  0  0
   -4.1160   -4.0650   -1.5520 C   0  0  0  0  0  0  0  0  0  0  0  0
   -3.4950   -3.0820   -2.4890 C   0  0  0  0  0  0  0  0  0  0  0  0
   -1.9710   -3.1710   -2.4950 C   0  0  2  0  0  0  0  0  0  0  0  0
   -1.5600   -4.5840   -2.9720 C   0  0  0  0  0  0  0  0  0  0  0  0
   -1.3670   -2.9240   -1.1440 C   0  0  2  0  0  0  0  0  0  0  0  0
   -1.6730   -1.6500   -0.5830 N   0  0  0  0  0  0  0  0  0  0  0  0
    0.1520   -2.8530   -1.4690 C   0  0  0  0  0  0  0  0  0  0  0  0
    0.7930   -1.8180   -1.3070 O   0  0  0  0  0  0  0  0  0  0  0  0
    0.7030   -4.0660   -1.9290 O   0  0  0  0  0  0  0  0  0  0  0  0
   -3.7040   -5.1140   -1.6730 H   0  0  0  0  0  0  0  0  0  0  0  0
   -5.1970   -4.1430   -1.8010 H   0  0  0  0  0  0  0  0  0  0  0  0
   -4.0920   -3.6830   -0.5190 H   0  0  0  0  0  0  0  0  0  0  0  0
   -3.8100   -2.0550   -2.2410 H   0  0  0  0  0  0  0  0  0  0  0  0
   -3.8210   -3.3010   -3.5330 H   0  0  0  0  0  0  0  0  0  0  0  0
   -1.5610   -2.4510   -3.2120 H   0  0  0  0  0  0  0  0  0  0  0  0
   -0.7430   -4.5390   -3.7000 H   0  0  0  0  0  0  0  0  0  0  0  0
   -1.2760   -5.2530   -2.1660 H   0  0  0  0  0  0  0  0  0  0  0  0
   -2.4120   -5.0590   -3.5180 H   0  0  0  0  0  0  0  0  0  0  0  0
   -1.4010   -3.7700   -0.4920 H   0  0  0  0  0  0  0  0  0  0  0  0
   -2.4240   -1.0900   -1.0380 H   0  0  0  0  0  0  0  0  0  0  0  0
  1 10  1  0  0  0  0
  1 11  1  0  0  0  0
  2 12  1  6  0  0  0
  2  1  1  0  0  0  0
  3  4  1  0  0  0  0
  3  2  1  0  0  0  0
  3 13  1  0  0  0  0
  4 16  1  0  0  0  0
  5  6  1  0  0  0  0
  5 18  1  0  0  0  0
  5  4  1  0  0  0  0
  6  7  1  0  0  0  0
  7 21  1  0  0  0  0
  7 22  1  0  0  0  0
  8  9  2  0  0  0  0
  8  2  1  0  0  0  0
 14  3  1  0  0  0  0
 15  4  1  0  0  0  0
 17  5  1  0  0  0  0
 19  6  1  0  0  0  0
 20  6  1  0  0  0  0
 23 24  1  0  0  0  0
 24 25  1  0  0  0  0
 25 36  1  0  0  0  0
 25 26  2  0  0  0  0
 26 37  1  0  0  0  0
 27 26  1  0  0  0  0
 27 28  1  0  0  0  0
 28 39  1  0  0  0  0
 28 29  1  0  0  0  0
 29 40  1  1  0  0  0
 29 30  1  0  0  0  0
 30  8  1  0  0  0  0
 31 29  1  0  0  0  0
 31 32  2  0  0  0  0
 33 27  2  0  0  0  0
 34 24  2  0  0  0  0
 34 33  1  0  0  0  0
 35 23  1  0  0  0  0
 38 28  1  0  0  0  0
 41 30  1  0  0  0  0
 42 33  1  0  0  0  0
 43 34  1  0  0  0  0
 44 55  1  0  0  0  0
 45 56  1  0  0  0  0
 45 44  1  0  0  0  0
 46 58  1  6  0  0  0
 46 45  1  0  0  0  0
 46 48  1  0  0  0  0
 47 46  1  0  0  0  0
 47 60  1  0  0  0  0
 48 49  1  0  0  0  0
 48 62  1  1  0  0  0
 49 31  1  0  0  0  0
 50 51  1  0  0  0  0
 50 48  1  0  0  0  0
 52 50  2  0  0  0  0
 53 44  1  0  0  0  0
 54 44  1  0  0  0  0
 57 45  1  0  0  0  0
 59 47  1  0  0  0  0
 61 47  1  0  0  0  0
 63 49  1  0  0  0  0
M  END
$$$$
