KYQ.pdb
 OpenBabel07022418533D

 61 61  0  0  1  0  0  0  0  0999 V2000
    1.5760    2.4400    1.4050 N   0  0  0  0  0  0  0  0  0  0  0  0
    2.2170    1.2570    1.9750 C   0  0  1  0  0  0  0  0  0  0  0  0
    2.6100    1.5930    3.3740 C   0  0  0  0  0  0  0  0  0  0  0  0
    3.2870    0.4720    4.1030 C   0  0  0  0  0  0  0  0  0  0  0  0
    4.5520    0.0600    3.3910 C   0  0  0  0  0  0  0  0  0  0  0  0
    5.2320   -1.0710    4.1290 C   0  0  0  0  0  0  0  0  0  0  0  0
    6.4500   -1.4190    3.3820 N   0  0  0  0  0  0  0  0  0  0  0  0
    1.3690    0.0770    1.8370 C   0  0  0  0  0  0  0  0  0  0  0  0
    1.7260   -1.0440    2.2600 O   0  0  0  0  0  0  0  0  0  0  0  0
    2.2620    3.1060    0.9970 H   0  0  0  0  0  0  0  0  0  0  0  0
    1.0180    2.9510    2.1230 H   0  0  0  0  0  0  0  0  0  0  0  0
    3.1430    1.0940    1.3520 H   0  0  0  0  0  0  0  0  0  0  0  0
    3.3230    2.4470    3.3280 H   0  0  0  0  0  0  0  0  0  0  0  0
    1.7320    1.9490    3.9460 H   0  0  0  0  0  0  0  0  0  0  0  0
    3.6030    0.8850    5.1010 H   0  0  0  0  0  0  0  0  0  0  0  0
    2.6220   -0.3760    4.3250 H   0  0  0  0  0  0  0  0  0  0  0  0
    5.2570    0.9360    3.4610 H   0  0  0  0  0  0  0  0  0  0  0  0
    4.4260   -0.1540    2.3300 H   0  0  0  0  0  0  0  0  0  0  0  0
    5.5880   -0.7550    5.1300 H   0  0  0  0  0  0  0  0  0  0  0  0
    4.5740   -1.9540    4.2650 H   0  0  0  0  0  0  0  0  0  0  0  0
    6.9760   -0.4990    3.2940 H   0  0  0  0  0  0  0  0  0  0  0  0
    6.1960   -1.7700    2.4120 H   0  0  0  0  0  0  0  0  0  0  0  0
   -4.9510    3.9600    0.7700 O   0  0  0  0  0  0  0  0  0  0  0  0
   -4.2230    2.7880    1.0510 C   0  0  0  0  0  0  0  0  0  0  0  0
   -3.2320    2.7970    1.9860 C   0  0  0  0  0  0  0  0  0  0  0  0
   -2.5300    1.6240    2.2420 C   0  0  0  0  0  0  0  0  0  0  0  0
   -2.8060    0.4510    1.5800 C   0  0  0  0  0  0  0  0  0  0  0  0
   -2.0500   -0.7630    1.8750 C   0  0  0  0  0  0  0  0  0  0  0  0
   -0.8080   -0.9370    1.0280 C   0  0  2  0  0  0  0  0  0  0  0  0
    0.1050    0.1850    1.2100 N   0  0  0  0  0  0  0  0  0  0  0  0
   -1.0720   -1.2220   -0.3780 C   0  0  0  0  0  0  0  0  0  0  0  0
   -0.5490   -0.4440   -1.2430 O   0  0  0  0  0  0  0  0  0  0  0  0
   -3.8050    0.4540    0.6420 C   0  0  0  0  0  0  0  0  0  0  0  0
   -4.5130    1.6330    0.3820 C   0  0  0  0  0  0  0  0  0  0  0  0
   -4.7800    4.4220   -0.1120 H   0  0  0  0  0  0  0  0  0  0  0  0
   -3.0160    3.7200    2.5060 H   0  0  0  0  0  0  0  0  0  0  0  0
   -1.7520    1.6660    2.9890 H   0  0  0  0  0  0  0  0  0  0  0  0
   -2.6590   -1.6960    1.7140 H   0  0  0  0  0  0  0  0  0  0  0  0
   -1.7180   -0.8280    2.9400 H   0  0  0  0  0  0  0  0  0  0  0  0
   -0.2700   -1.8210    1.4880 H   0  0  0  0  0  0  0  0  0  0  0  0
   -0.2560    1.1090    0.8300 H   0  0  0  0  0  0  0  0  0  0  0  0
   -4.0980   -0.4100    0.0710 H   0  0  0  0  0  0  0  0  0  0  0  0
   -5.3090    1.6680   -0.3540 H   0  0  0  0  0  0  0  0  0  0  0  0
   -0.5660   -5.6760   -5.8830 N   0  0  0  0  0  0  0  0  0  0  0  0
   -0.6200   -5.1880   -4.5550 C   0  0  0  0  0  0  0  0  0  0  0  0
    0.0290   -5.8220   -3.6850 O   0  0  0  0  0  0  0  0  0  0  0  0
   -1.4250   -3.9600   -4.2080 C   0  0  0  0  0  0  0  0  0  0  0  0
   -1.2660   -3.7250   -2.7400 C   0  0  0  0  0  0  0  0  0  0  0  0
   -2.0490   -2.4780   -2.3310 C   0  0  2  0  0  0  0  0  0  0  0  0
   -1.8520   -2.2820   -0.8770 N   0  0  0  0  0  0  0  0  0  0  0  0
   -3.4970   -2.6050   -2.5510 C   0  0  0  0  0  0  0  0  0  0  0  0
   -4.0110   -2.7050   -3.6900 O   0  0  0  0  0  0  0  0  0  0  0  0
   -4.3780   -2.6210   -1.4840 O   0  0  0  0  0  0  0  0  0  0  0  0
   -1.3970   -5.9410   -6.4520 H   0  0  0  0  0  0  0  0  0  0  0  0
    0.3700   -5.7830   -6.3420 H   0  0  0  0  0  0  0  0  0  0  0  0
   -0.9720   -3.1460   -4.8100 H   0  0  0  0  0  0  0  0  0  0  0  0
   -2.4490   -4.0890   -4.5550 H   0  0  0  0  0  0  0  0  0  0  0  0
   -0.2170   -3.5720   -2.4340 H   0  0  0  0  0  0  0  0  0  0  0  0
   -1.6400   -4.6060   -2.1620 H   0  0  0  0  0  0  0  0  0  0  0  0
   -1.6280   -1.6510   -2.8980 H   0  0  0  0  0  0  0  0  0  0  0  0
   -2.2970   -2.9380   -0.2130 H   0  0  0  0  0  0  0  0  0  0  0  0
  1  2  1  0  0  0  0
  1 11  1  0  0  0  0
  2 12  1  6  0  0  0
  2  3  1  0  0  0  0
  3 14  1  0  0  0  0
  3  4  1  0  0  0  0
  4 16  1  0  0  0  0
  4 15  1  0  0  0  0
  5 17  1  0  0  0  0
  5  4  1  0  0  0  0
  5  6  1  0  0  0  0
  6 20  1  0  0  0  0
  6 19  1  0  0  0  0
  7  6  1  0  0  0  0
  8  2  1  0  0  0  0
  8  9  2  0  0  0  0
 10  1  1  0  0  0  0
 13  3  1  0  0  0  0
 18  5  1  0  0  0  0
 21  7  1  0  0  0  0
 22  7  1  0  0  0  0
 23 24  1  0  0  0  0
 24 25  1  0  0  0  0
 25 26  2  0  0  0  0
 25 36  1  0  0  0  0
 26 37  1  0  0  0  0
 27 28  1  0  0  0  0
 27 26  1  0  0  0  0
 28 39  1  0  0  0  0
 29 30  1  0  0  0  0
 29 40  1  1  0  0  0
 29 28  1  0  0  0  0
 30  8  1  0  0  0  0
 31 29  1  0  0  0  0
 32 31  2  0  0  0  0
 33 27  2  0  0  0  0
 34 33  1  0  0  0  0
 34 24  2  0  0  0  0
 35 23  1  0  0  0  0
 38 28  1  0  0  0  0
 41 30  1  0  0  0  0
 42 33  1  0  0  0  0
 43 34  1  0  0  0  0
 44 45  1  0  0  0  0
 45 47  1  0  0  0  0
 45 46  2  0  0  0  0
 47 48  1  0  0  0  0
 48 58  1  0  0  0  0
 48 49  1  0  0  0  0
 48 59  1  0  0  0  0
 49 60  1  6  0  0  0
 49 50  1  0  0  0  0
 50 31  1  0  0  0  0
 50 61  1  0  0  0  0
 51 49  1  0  0  0  0
 51 53  1  0  0  0  0
 52 51  2  0  0  0  0
 54 44  1  0  0  0  0
 55 44  1  0  0  0  0
 56 47  1  0  0  0  0
 57 47  1  0  0  0  0
M  END
$$$$
