KYR.pdb
 OpenBabel07022418523D

 67 67  0  0  1  0  0  0  0  0999 V2000
    2.9380    0.1020    4.2380 N   0  0  0  0  0  0  0  0  0  0  0  0
    2.8810   -0.5020    2.9200 C   0  0  1  0  0  0  0  0  0  0  0  0
    2.6280   -1.9860    3.0740 C   0  0  0  0  0  0  0  0  0  0  0  0
    3.6880   -2.7010    3.8470 C   0  0  0  0  0  0  0  0  0  0  0  0
    5.0620   -2.6380    3.2840 C   0  0  0  0  0  0  0  0  0  0  0  0
    5.2200   -3.2160    1.9110 C   0  0  0  0  0  0  0  0  0  0  0  0
    4.4110   -2.5540    0.9200 N   0  0  0  0  0  0  0  0  0  0  0  0
    1.7510    0.0910    2.1830 C   0  0  0  0  0  0  0  0  0  0  0  0
    0.9860    0.9400    2.7590 O   0  0  0  0  0  0  0  0  0  0  0  0
    2.0190    0.3320    4.6320 H   0  0  0  0  0  0  0  0  0  0  0  0
    3.6450    0.8700    4.2940 H   0  0  0  0  0  0  0  0  0  0  0  0
    3.8630   -0.2850    2.4520 H   0  0  0  0  0  0  0  0  0  0  0  0
    2.3970   -2.4930    2.1300 H   0  0  0  0  0  0  0  0  0  0  0  0
    1.6870   -2.0900    3.6940 H   0  0  0  0  0  0  0  0  0  0  0  0
    3.3890   -3.7850    3.8560 H   0  0  0  0  0  0  0  0  0  0  0  0
    3.6420   -2.3870    4.9190 H   0  0  0  0  0  0  0  0  0  0  0  0
    5.7250   -3.2290    3.9690 H   0  0  0  0  0  0  0  0  0  0  0  0
    5.4900   -1.6110    3.2670 H   0  0  0  0  0  0  0  0  0  0  0  0
    4.9440   -4.3100    1.8940 H   0  0  0  0  0  0  0  0  0  0  0  0
    6.2830   -3.1880    1.5750 H   0  0  0  0  0  0  0  0  0  0  0  0
    4.9950   -2.0090    0.2480 H   0  0  0  0  0  0  0  0  0  0  0  0
    3.8530   -3.2310    0.3550 H   0  0  0  0  0  0  0  0  0  0  0  0
   -3.1490    4.2070   -3.7850 O   0  0  0  0  0  0  0  0  0  0  0  0
   -2.1700    3.5170   -3.0520 C   0  0  0  0  0  0  0  0  0  0  0  0
   -1.4790    2.4560   -3.6100 C   0  0  0  0  0  0  0  0  0  0  0  0
   -0.5080    1.7350   -2.9520 C   0  0  0  0  0  0  0  0  0  0  0  0
   -0.2010    2.0930   -1.6480 C   0  0  0  0  0  0  0  0  0  0  0  0
    0.8050    1.3870   -0.8550 C   0  0  0  0  0  0  0  0  0  0  0  0
    0.2920    0.4020    0.1220 C   0  0  2  0  0  0  0  0  0  0  0  0
    1.4410   -0.2210    0.8340 N   0  0  0  0  0  0  0  0  0  0  0  0
   -0.5630   -0.6330   -0.4460 C   0  0  0  0  0  0  0  0  0  0  0  0
   -0.1940   -1.8800   -0.4290 O   0  0  0  0  0  0  0  0  0  0  0  0
   -0.8820    3.1540   -1.0730 C   0  0  0  0  0  0  0  0  0  0  0  0
   -1.8500    3.8620   -1.7500 C   0  0  0  0  0  0  0  0  0  0  0  0
   -2.7740    4.8760   -4.4760 H   0  0  0  0  0  0  0  0  0  0  0  0
   -1.7220    2.1720   -4.6400 H   0  0  0  0  0  0  0  0  0  0  0  0
    0.0160    0.9090   -3.4460 H   0  0  0  0  0  0  0  0  0  0  0  0
    1.4390    2.1230   -0.2520 H   0  0  0  0  0  0  0  0  0  0  0  0
    1.5610    0.8670   -1.5050 H   0  0  0  0  0  0  0  0  0  0  0  0
   -0.2280    1.0030    0.9290 H   0  0  0  0  0  0  0  0  0  0  0  0
    2.0470   -0.9110    0.3440 H   0  0  0  0  0  0  0  0  0  0  0  0
   -0.6870    3.4870   -0.0470 H   0  0  0  0  0  0  0  0  0  0  0  0
   -2.3760    4.6910   -1.2880 H   0  0  0  0  0  0  0  0  0  0  0  0
   -1.1220   -2.7160    2.4900 N   0  0  0  0  0  0  0  0  0  0  0  0
   -2.2800   -2.0460    2.0410 C   0  0  0  0  0  0  0  0  0  0  0  0
   -2.4710   -0.8270    2.3610 N   0  0  0  0  0  0  0  0  0  0  0  0
   -3.2120   -2.7540    1.2380 N   0  0  0  0  0  0  0  0  0  0  0  0
   -4.4950   -2.2360    0.9340 C   0  0  0  0  0  0  0  0  0  0  0  0
   -4.5810   -1.0690    0.0250 C   0  0  0  0  0  0  0  0  0  0  0  0
   -4.0870   -1.2330   -1.3540 C   0  0  0  0  0  0  0  0  0  0  0  0
   -2.6450   -1.5400   -1.5700 C   0  0  2  0  0  0  0  0  0  0  0  0
   -1.8370   -0.4660   -1.0500 N   0  0  0  0  0  0  0  0  0  0  0  0
   -2.4720   -1.7580   -3.0440 C   0  0  0  0  0  0  0  0  0  0  0  0
   -1.7140   -1.1180   -3.7850 O   0  0  0  0  0  0  0  0  0  0  0  0
   -3.2280   -2.7700   -3.6410 O   0  0  0  0  0  0  0  0  0  0  0  0
   -1.2440   -3.5490    3.1350 H   0  0  0  0  0  0  0  0  0  0  0  0
   -0.1580   -2.4640    2.2410 H   0  0  0  0  0  0  0  0  0  0  0  0
   -1.8420   -0.2630    2.9340 H   0  0  0  0  0  0  0  0  0  0  0  0
   -2.9070   -3.6920    0.8730 H   0  0  0  0  0  0  0  0  0  0  0  0
   -5.1520   -3.0780    0.5510 H   0  0  0  0  0  0  0  0  0  0  0  0
   -4.9910   -1.9330    1.9040 H   0  0  0  0  0  0  0  0  0  0  0  0
   -4.1580   -0.1850    0.5590 H   0  0  0  0  0  0  0  0  0  0  0  0
   -5.6830   -0.8110   -0.0540 H   0  0  0  0  0  0  0  0  0  0  0  0
   -4.2670   -0.2410   -1.8860 H   0  0  0  0  0  0  0  0  0  0  0  0
   -4.7610   -1.9700   -1.8660 H   0  0  0  0  0  0  0  0  0  0  0  0
   -2.3160   -2.5330   -1.1360 H   0  0  0  0  0  0  0  0  0  0  0  0
   -2.2130    0.5040   -1.1020 H   0  0  0  0  0  0  0  0  0  0  0  0
  1 11  1  0  0  0  0
  1 10  1  0  0  0  0
  2 12  1  6  0  0  0
  2  3  1  0  0  0  0
  2  1  1  0  0  0  0
  3 14  1  0  0  0  0
  3  4  1  0  0  0  0
  4 15  1  0  0  0  0
  4 16  1  0  0  0  0
  5  4  1  0  0  0  0
  5 17  1  0  0  0  0
  6  5  1  0  0  0  0
  7  6  1  0  0  0  0
  8  9  2  0  0  0  0
  8  2  1  0  0  0  0
 13  3  1  0  0  0  0
 18  5  1  0  0  0  0
 19  6  1  0  0  0  0
 20  6  1  0  0  0  0
 21  7  1  0  0  0  0
 22  7  1  0  0  0  0
 23 24  1  0  0  0  0
 24 34  1  0  0  0  0
 25 24  2  0  0  0  0
 25 26  1  0  0  0  0
 26 27  2  0  0  0  0
 27 33  1  0  0  0  0
 27 28  1  0  0  0  0
 28 38  1  0  0  0  0
 28 29  1  0  0  0  0
 29 30  1  0  0  0  0
 29 40  1  1  0  0  0
 30  8  1  0  0  0  0
 31 32  2  0  0  0  0
 31 29  1  0  0  0  0
 33 42  1  0  0  0  0
 34 43  1  0  0  0  0
 34 33  2  0  0  0  0
 35 23  1  0  0  0  0
 36 25  1  0  0  0  0
 37 26  1  0  0  0  0
 39 28  1  0  0  0  0
 41 30  1  0  0  0  0
 44 56  1  0  0  0  0
 45 46  2  0  0  0  0
 45 44  1  0  0  0  0
 46 58  1  0  0  0  0
 47 45  1  0  0  0  0
 48 47  1  0  0  0  0
 48 61  1  0  0  0  0
 49 62  1  0  0  0  0
 49 48  1  0  0  0  0
 50 49  1  0  0  0  0
 51 50  1  0  0  0  0
 51 66  1  1  0  0  0
 51 52  1  0  0  0  0
 52 31  1  0  0  0  0
 53 51  1  0  0  0  0
 54 53  2  0  0  0  0
 55 53  1  0  0  0  0
 57 44  1  0  0  0  0
 59 47  1  0  0  0  0
 60 48  1  0  0  0  0
 63 49  1  0  0  0  0
 64 50  1  0  0  0  0
 65 50  1  0  0  0  0
 67 52  1  0  0  0  0
M  END
$$$$
