KYY.pdb
 OpenBabel07022418533D

 65 66  0  0  1  0  0  0  0  0999 V2000
    2.3410   -1.0280    1.7060 N   0  0  0  0  0  0  0  0  0  0  0  0
    1.6680   -0.4490    2.8280 C   0  0  1  0  0  0  0  0  0  0  0  0
    2.5420    0.1380    3.8560 C   0  0  0  0  0  0  0  0  0  0  0  0
    3.5130    1.1780    3.5580 C   0  0  0  0  0  0  0  0  0  0  0  0
    3.2060    2.4860    3.0040 C   0  0  0  0  0  0  0  0  0  0  0  0
    2.6680    2.6350    1.6310 C   0  0  0  0  0  0  0  0  0  0  0  0
    3.5680    2.0640    0.6270 N   0  0  0  0  0  0  0  0  0  0  0  0
    0.4450    0.2880    2.5950 C   0  0  0  0  0  0  0  0  0  0  0  0
   -0.0660    0.9180    3.5620 O   0  0  0  0  0  0  0  0  0  0  0  0
    2.9850   -1.7690    2.0720 H   0  0  0  0  0  0  0  0  0  0  0  0
    1.6220   -1.4620    1.0770 H   0  0  0  0  0  0  0  0  0  0  0  0
    1.2280   -1.4530    3.3280 H   0  0  0  0  0  0  0  0  0  0  0  0
    3.0530   -0.7630    4.3710 H   0  0  0  0  0  0  0  0  0  0  0  0
    1.8890    0.4950    4.7310 H   0  0  0  0  0  0  0  0  0  0  0  0
    4.3870    0.7180    2.9280 H   0  0  0  0  0  0  0  0  0  0  0  0
    4.0640    1.3820    4.5670 H   0  0  0  0  0  0  0  0  0  0  0  0
    4.1120    3.1830    3.0530 H   0  0  0  0  0  0  0  0  0  0  0  0
    2.4700    3.0540    3.6740 H   0  0  0  0  0  0  0  0  0  0  0  0
    2.6550    3.7820    1.4400 H   0  0  0  0  0  0  0  0  0  0  0  0
    1.6670    2.3300    1.4170 H   0  0  0  0  0  0  0  0  0  0  0  0
    3.2060    1.1700    0.2320 H   0  0  0  0  0  0  0  0  0  0  0  0
    3.6250    2.7250   -0.1720 H   0  0  0  0  0  0  0  0  0  0  0  0
   -0.0960    0.1930   -4.9150 O   0  0  0  0  0  0  0  0  0  0  0  0
   -0.3790    0.6930   -3.6510 C   0  0  0  0  0  0  0  0  0  0  0  0
    0.6190    1.0100   -2.7640 C   0  0  0  0  0  0  0  0  0  0  0  0
    0.3190    1.5000   -1.5280 C   0  0  0  0  0  0  0  0  0  0  0  0
   -0.9870    1.6820   -1.1540 C   0  0  0  0  0  0  0  0  0  0  0  0
   -1.3130    2.2080    0.1770 C   0  0  0  0  0  0  0  0  0  0  0  0
   -1.4880    1.1410    1.2260 C   0  0  2  0  0  0  0  0  0  0  0  0
   -0.2670    0.3800    1.3590 N   0  0  0  0  0  0  0  0  0  0  0  0
   -2.6400    0.2610    0.8910 C   0  0  0  0  0  0  0  0  0  0  0  0
   -3.8030    0.6980    0.7290 O   0  0  0  0  0  0  0  0  0  0  0  0
   -1.9900    1.3710   -2.0260 C   0  0  0  0  0  0  0  0  0  0  0  0
   -1.6830    0.8790   -3.2680 C   0  0  0  0  0  0  0  0  0  0  0  0
    0.8630    0.0570   -5.2190 H   0  0  0  0  0  0  0  0  0  0  0  0
    1.6540    0.8580   -3.0800 H   0  0  0  0  0  0  0  0  0  0  0  0
    1.1530    1.7390   -0.8550 H   0  0  0  0  0  0  0  0  0  0  0  0
   -0.4870    2.8870    0.5280 H   0  0  0  0  0  0  0  0  0  0  0  0
   -2.2330    2.8390    0.1240 H   0  0  0  0  0  0  0  0  0  0  0  0
   -1.7640    1.6420    2.1760 H   0  0  0  0  0  0  0  0  0  0  0  0
    0.1240   -0.1210    0.5490 H   0  0  0  0  0  0  0  0  0  0  0  0
   -3.0500    1.4930   -1.7910 H   0  0  0  0  0  0  0  0  0  0  0  0
   -2.4900    0.6320   -3.9620 H   0  0  0  0  0  0  0  0  0  0  0  0
    1.4820   -5.9980   -0.5690 O   0  0  0  0  0  0  0  0  0  0  0  0
    0.2980   -5.2400   -0.6210 C   0  0  0  0  0  0  0  0  0  0  0  0
   -0.8780   -5.7630   -0.1730 C   0  0  0  0  0  0  0  0  0  0  0  0
   -2.0250   -4.9990   -0.2350 C   0  0  0  0  0  0  0  0  0  0  0  0
   -2.0700   -3.7150   -0.7270 C   0  0  0  0  0  0  0  0  0  0  0  0
   -3.3010   -2.8890   -0.7880 C   0  0  0  0  0  0  0  0  0  0  0  0
   -3.4790   -2.0540    0.4250 C   0  0  2  0  0  0  0  0  0  0  0  0
   -2.4700   -1.1270    0.7390 N   0  0  0  0  0  0  0  0  0  0  0  0
   -3.6740   -2.9590    1.5780 C   0  0  0  0  0  0  0  0  0  0  0  0
   -2.9250   -2.8070    2.5820 O   0  0  0  0  0  0  0  0  0  0  0  0
   -0.8470   -3.2040   -1.1790 C   0  0  0  0  0  0  0  0  0  0  0  0
    0.3040   -3.9550   -1.1240 C   0  0  0  0  0  0  0  0  0  0  0  0
   -4.6470   -3.9570    1.5880 O   0  0  0  0  0  0  0  0  0  0  0  0
    2.1880   -5.8020   -1.2660 H   0  0  0  0  0  0  0  0  0  0  0  0
   -0.8930   -6.7820    0.2280 H   0  0  0  0  0  0  0  0  0  0  0  0
   -2.9350   -5.4640    0.1290 H   0  0  0  0  0  0  0  0  0  0  0  0
   -3.3910   -2.3530   -1.7480 H   0  0  0  0  0  0  0  0  0  0  0  0
   -4.1580   -3.6210   -0.7990 H   0  0  0  0  0  0  0  0  0  0  0  0
   -4.4580   -1.4940    0.3140 H   0  0  0  0  0  0  0  0  0  0  0  0
   -1.4870   -1.5160    0.8730 H   0  0  0  0  0  0  0  0  0  0  0  0
   -0.8290   -2.2140   -1.5700 H   0  0  0  0  0  0  0  0  0  0  0  0
    1.2380   -3.5180   -1.4880 H   0  0  0  0  0  0  0  0  0  0  0  0
  1 10  1  0  0  0  0
  1  2  1  0  0  0  0
  2 12  1  1  0  0  0
  2  3  1  0  0  0  0
  3 13  1  0  0  0  0
  3 14  1  0  0  0  0
  4  3  1  0  0  0  0
  4 16  1  0  0  0  0
  5 17  1  0  0  0  0
  5  4  1  0  0  0  0
  5 18  1  0  0  0  0
  6  5  1  0  0  0  0
  7  6  1  0  0  0  0
  8  2  1  0  0  0  0
  8  9  2  0  0  0  0
 11  1  1  0  0  0  0
 15  4  1  0  0  0  0
 19  6  1  0  0  0  0
 20  6  1  0  0  0  0
 21  7  1  0  0  0  0
 22  7  1  0  0  0  0
 23 24  1  0  0  0  0
 24 34  2  0  0  0  0
 24 25  1  0  0  0  0
 25 26  2  0  0  0  0
 26 27  1  0  0  0  0
 26 37  1  0  0  0  0
 27 28  1  0  0  0  0
 28 38  1  0  0  0  0
 28 29  1  0  0  0  0
 29 30  1  0  0  0  0
 29 40  1  1  0  0  0
 30  8  1  0  0  0  0
 31 29  1  0  0  0  0
 32 31  2  0  0  0  0
 33 42  1  0  0  0  0
 33 27  2  0  0  0  0
 34 33  1  0  0  0  0
 35 23  1  0  0  0  0
 36 25  1  0  0  0  0
 39 28  1  0  0  0  0
 41 30  1  0  0  0  0
 43 34  1  0  0  0  0
 45 44  1  0  0  0  0
 45 46  1  0  0  0  0
 46 58  1  0  0  0  0
 47 46  2  0  0  0  0
 47 59  1  0  0  0  0
 48 47  1  0  0  0  0
 49 48  1  0  0  0  0
 49 50  1  0  0  0  0
 50 62  1  6  0  0  0
 50 51  1  0  0  0  0
 50 52  1  0  0  0  0
 51 63  1  0  0  0  0
 51 31  1  0  0  0  0
 52 56  2  0  0  0  0
 52 53  1  0  0  0  0
 54 55  1  0  0  0  0
 54 48  2  0  0  0  0
 55 45  2  0  0  0  0
 57 44  1  0  0  0  0
 60 49  1  0  0  0  0
 61 49  1  0  0  0  0
 64 54  1  0  0  0  0
 65 55  1  0  0  0  0
M  END
$$$$
