LAC.pdb
 OpenBabel07022418443D

 42 41  0  0  1  0  0  0  0  0999 V2000
    0.2420   -6.1780    1.0820 C   0  0  0  0  0  0  0  0  0  0  0  0
    1.1300   -5.4140    0.1570 C   0  0  0  0  0  0  0  0  0  0  0  0
    0.5100   -5.3690   -1.1980 C   0  0  0  0  0  0  0  0  0  0  0  0
    1.5400   -4.0710    0.6940 C   0  0  0  0  0  0  0  0  0  0  0  0
    0.3720   -3.1660    0.9660 C   0  0  2  0  0  0  0  0  0  0  0  0
   -0.3410   -2.9630   -0.2800 N   0  0  0  0  0  0  0  0  0  0  0  0
    0.9090   -1.8340    1.3730 C   0  0  0  0  0  0  0  0  0  0  0  0
    1.5860   -1.6980    2.4390 O   0  0  0  0  0  0  0  0  0  0  0  0
    0.3030   -5.8190    2.1340 H   0  0  0  0  0  0  0  0  0  0  0  0
    0.5010   -7.2630    1.0590 H   0  0  0  0  0  0  0  0  0  0  0  0
   -0.8070   -6.1060    0.7230 H   0  0  0  0  0  0  0  0  0  0  0  0
    2.0850   -6.0100    0.0580 H   0  0  0  0  0  0  0  0  0  0  0  0
    0.6040   -6.4070   -1.6340 H   0  0  0  0  0  0  0  0  0  0  0  0
   -0.5780   -5.1460   -1.1960 H   0  0  0  0  0  0  0  0  0  0  0  0
    1.0710   -4.7170   -1.8910 H   0  0  0  0  0  0  0  0  0  0  0  0
    2.0910   -4.2220    1.6240 H   0  0  0  0  0  0  0  0  0  0  0  0
    2.2120   -3.5840   -0.0370 H   0  0  0  0  0  0  0  0  0  0  0  0
   -0.3360   -3.5710    1.6920 H   0  0  0  0  0  0  0  0  0  0  0  0
   -1.1580   -2.3180   -0.1710 H   0  0  0  0  0  0  0  0  0  0  0  0
    0.2510   -2.6250   -1.0500 H   0  0  0  0  0  0  0  0  0  0  0  0
    2.1300    1.0770   -0.1790 C   0  0  0  0  0  0  0  0  0  0  0  0
    1.2020    0.6550    0.9650 C   0  0  2  0  0  0  0  0  0  0  0  0
    0.7020   -0.6550    0.6110 N   0  0  0  0  0  0  0  0  0  0  0  0
    0.0390    1.5700    1.0610 C   0  0  0  0  0  0  0  0  0  0  0  0
   -1.1210    1.1430    0.8460 O   0  0  0  0  0  0  0  0  0  0  0  0
    2.8630    0.2520   -0.2990 H   0  0  0  0  0  0  0  0  0  0  0  0
    1.4830    1.1030   -1.0850 H   0  0  0  0  0  0  0  0  0  0  0  0
    2.6040    2.0450    0.0120 H   0  0  0  0  0  0  0  0  0  0  0  0
    1.7760    0.6350    1.9160 H   0  0  0  0  0  0  0  0  0  0  0  0
    0.1490   -0.7450   -0.2670 H   0  0  0  0  0  0  0  0  0  0  0  0
    0.1520    2.9480    1.3920 N   0  0  0  0  0  0  0  0  0  0  0  0
   -0.9550    3.8620    1.4930 C   0  0  1  0  0  0  0  0  0  0  0  0
   -0.9950    4.3130    2.9610 C   0  0  0  0  0  0  0  0  0  0  0  0
    0.5790    5.1250    3.3680 S   0  0  0  0  0  0  0  0  0  0  0  0
   -0.8410    5.0310    0.6250 C   0  0  0  0  0  0  0  0  0  0  0  0
    0.1330    5.2090   -0.1320 O   0  0  0  0  0  0  0  0  0  0  0  0
   -1.8510    5.9760    0.6410 O   0  0  0  0  0  0  0  0  0  0  0  0
    1.1130    3.3080    1.5710 H   0  0  0  0  0  0  0  0  0  0  0  0
   -1.9320    3.3760    1.2830 H   0  0  0  0  0  0  0  0  0  0  0  0
   -1.8350    4.9940    3.1330 H   0  0  0  0  0  0  0  0  0  0  0  0
   -1.0390    3.3760    3.5510 H   0  0  0  0  0  0  0  0  0  0  0  0
    1.1630    4.5650    4.5230 H   0  0  0  0  0  0  0  0  0  0  0  0
  1  9  1  0  0  0  0
  2  4  1  0  0  0  0
  2  1  1  0  0  0  0
  3 14  1  0  0  0  0
  3  2  1  0  0  0  0
  4  5  1  0  0  0  0
  4 16  1  0  0  0  0
  5  7  1  0  0  0  0
  5 18  1  1  0  0  0
  6 19  1  0  0  0  0
  6  5  1  0  0  0  0
  7  8  2  0  0  0  0
 10  1  1  0  0  0  0
 11  1  1  0  0  0  0
 12  2  1  0  0  0  0
 13  3  1  0  0  0  0
 15  3  1  0  0  0  0
 17  4  1  0  0  0  0
 20  6  1  0  0  0  0
 21 28  1  0  0  0  0
 21 22  1  0  0  0  0
 22 24  1  0  0  0  0
 22 29  1  1  0  0  0
 23 22  1  0  0  0  0
 23  7  1  0  0  0  0
 24 31  1  0  0  0  0
 25 24  2  0  0  0  0
 26 21  1  0  0  0  0
 27 21  1  0  0  0  0
 30 23  1  0  0  0  0
 31 32  1  0  0  0  0
 31 38  1  0  0  0  0
 32 39  1  6  0  0  0
 32 33  1  0  0  0  0
 33 40  1  0  0  0  0
 33 34  1  0  0  0  0
 33 41  1  0  0  0  0
 34 42  1  0  0  0  0
 35 37  1  0  0  0  0
 35 32  1  0  0  0  0
 36 35  2  0  0  0  0
M  END
$$$$
