LAD.pdb
 OpenBabel07022418443D

 44 43  0  0  1  0  0  0  0  0999 V2000
    0.0580   -5.4820    1.2300 C   0  0  0  0  0  0  0  0  0  0  0  0
    0.8050   -4.9310    0.0340 C   0  0  0  0  0  0  0  0  0  0  0  0
    2.2300   -4.5960    0.2820 C   0  0  0  0  0  0  0  0  0  0  0  0
    0.0040   -3.9250   -0.7210 C   0  0  0  0  0  0  0  0  0  0  0  0
   -0.4610   -2.7250    0.0390 C   0  0  2  0  0  0  0  0  0  0  0  0
   -1.2120   -1.9060   -0.9410 N   0  0  0  0  0  0  0  0  0  0  0  0
    0.5540   -1.9280    0.7120 C   0  0  0  0  0  0  0  0  0  0  0  0
    1.1450   -2.2890    1.7560 O   0  0  0  0  0  0  0  0  0  0  0  0
   -0.9920   -5.1080    1.2700 H   0  0  0  0  0  0  0  0  0  0  0  0
    0.5470   -5.1030    2.1630 H   0  0  0  0  0  0  0  0  0  0  0  0
    0.0050   -6.5840    1.2560 H   0  0  0  0  0  0  0  0  0  0  0  0
    0.8440   -5.8400   -0.6850 H   0  0  0  0  0  0  0  0  0  0  0  0
    2.5320   -3.6140   -0.1150 H   0  0  0  0  0  0  0  0  0  0  0  0
    2.8930   -5.3990   -0.1590 H   0  0  0  0  0  0  0  0  0  0  0  0
    2.4520   -4.5920    1.3800 H   0  0  0  0  0  0  0  0  0  0  0  0
    0.5640   -3.6210   -1.6380 H   0  0  0  0  0  0  0  0  0  0  0  0
   -0.8850   -4.4860   -1.1410 H   0  0  0  0  0  0  0  0  0  0  0  0
   -1.2330   -3.0020    0.8100 H   0  0  0  0  0  0  0  0  0  0  0  0
   -1.7170   -2.5330   -1.6070 H   0  0  0  0  0  0  0  0  0  0  0  0
   -1.8770   -1.2980   -0.4170 H   0  0  0  0  0  0  0  0  0  0  0  0
    3.1780    0.4020    0.0070 C   0  0  0  0  0  0  0  0  0  0  0  0
    1.9610    0.1540    0.8680 C   0  0  2  0  0  0  0  0  0  0  0  0
    0.9650   -0.6330    0.2130 N   0  0  0  0  0  0  0  0  0  0  0  0
    1.4070    1.4330    1.4100 C   0  0  0  0  0  0  0  0  0  0  0  0
    2.1900    2.2130    2.0070 O   0  0  0  0  0  0  0  0  0  0  0  0
    3.3360    1.4720   -0.1660 H   0  0  0  0  0  0  0  0  0  0  0  0
    2.9990   -0.0710   -0.9730 H   0  0  0  0  0  0  0  0  0  0  0  0
    4.0930   -0.0860    0.4220 H   0  0  0  0  0  0  0  0  0  0  0  0
    2.3110   -0.4140    1.7630 H   0  0  0  0  0  0  0  0  0  0  0  0
    0.4680   -0.3260   -0.6660 H   0  0  0  0  0  0  0  0  0  0  0  0
    0.0380    1.7800    1.2660 N   0  0  0  0  0  0  0  0  0  0  0  0
   -0.4970    3.0370    1.8010 C   0  0  1  0  0  0  0  0  0  0  0  0
   -1.0240    3.8380    0.6660 C   0  0  0  0  0  0  0  0  0  0  0  0
   -1.5680    5.1140    1.1670 C   0  0  0  0  0  0  0  0  0  0  0  0
   -2.7860    5.2310    1.4370 O   0  0  0  0  0  0  0  0  0  0  0  0
   -1.5990    2.7680    2.7570 C   0  0  0  0  0  0  0  0  0  0  0  0
   -2.1950    3.6480    3.3810 O   0  0  0  0  0  0  0  0  0  0  0  0
   -0.7460    6.2160    1.3530 O   0  0  0  0  0  0  0  0  0  0  0  0
   -1.9820    1.4430    2.9590 O   0  0  0  0  0  0  0  0  0  0  0  0
   -0.5630    1.0950    0.7630 H   0  0  0  0  0  0  0  0  0  0  0  0
    0.3440    3.5830    2.2850 H   0  0  0  0  0  0  0  0  0  0  0  0
   -1.8570    3.2700    0.1590 H   0  0  0  0  0  0  0  0  0  0  0  0
   -0.2430    4.0720   -0.1040 H   0  0  0  0  0  0  0  0  0  0  0  0
   -1.1270    7.1190    1.6550 H   0  0  0  0  0  0  0  0  0  0  0  0
  1 11  1  0  0  0  0
  1  9  1  0  0  0  0
  1 10  1  0  0  0  0
  2  3  1  0  0  0  0
  2  1  1  0  0  0  0
  3 15  1  0  0  0  0
  4  2  1  0  0  0  0
  4  5  1  0  0  0  0
  5  7  1  0  0  0  0
  5 18  1  1  0  0  0
  6 20  1  0  0  0  0
  6  5  1  0  0  0  0
  7  8  2  0  0  0  0
 12  2  1  0  0  0  0
 13  3  1  0  0  0  0
 14  3  1  0  0  0  0
 16  4  1  0  0  0  0
 17  4  1  0  0  0  0
 19  6  1  0  0  0  0
 21 28  1  0  0  0  0
 21 22  1  0  0  0  0
 22 24  1  0  0  0  0
 22 29  1  1  0  0  0
 23  7  1  0  0  0  0
 23 22  1  0  0  0  0
 24 25  2  0  0  0  0
 26 21  1  0  0  0  0
 27 21  1  0  0  0  0
 30 23  1  0  0  0  0
 31 24  1  0  0  0  0
 31 32  1  0  0  0  0
 32 41  1  1  0  0  0
 32 36  1  0  0  0  0
 33 34  1  0  0  0  0
 33 32  1  0  0  0  0
 34 38  1  0  0  0  0
 34 35  2  0  0  0  0
 36 39  2  0  0  0  0
 36 37  1  0  0  0  0
 38 44  1  0  0  0  0
 40 31  1  0  0  0  0
 42 33  1  0  0  0  0
 43 33  1  0  0  0  0
M  END
$$$$
