LAF.pdb
 OpenBabel07022418443D

 51 51  0  0  1  0  0  0  0  0999 V2000
    3.0780   -4.6060    0.3520 C   0  0  0  0  0  0  0  0  0  0  0  0
    3.3150   -3.4610    1.3640 C   0  0  0  0  0  0  0  0  0  0  0  0
    1.9650   -3.0210    1.7930 C   0  0  0  0  0  0  0  0  0  0  0  0
    4.1980   -2.4900    0.6930 C   0  0  0  0  0  0  0  0  0  0  0  0
    4.5960   -1.2690    1.4800 C   0  0  2  0  0  0  0  0  0  0  0  0
    5.2760   -1.6620    2.7130 N   0  0  0  0  0  0  0  0  0  0  0  0
    3.4200   -0.4670    1.8110 C   0  0  0  0  0  0  0  0  0  0  0  0
    3.0880   -0.3520    3.0130 O   0  0  0  0  0  0  0  0  0  0  0  0
    2.4480   -4.1930   -0.4570 H   0  0  0  0  0  0  0  0  0  0  0  0
    4.0220   -4.9640   -0.0700 H   0  0  0  0  0  0  0  0  0  0  0  0
    2.5000   -5.3770    0.8920 H   0  0  0  0  0  0  0  0  0  0  0  0
    3.8590   -3.8650    2.2490 H   0  0  0  0  0  0  0  0  0  0  0  0
    1.4790   -2.2610    1.1570 H   0  0  0  0  0  0  0  0  0  0  0  0
    1.2340   -3.9000    1.7320 H   0  0  0  0  0  0  0  0  0  0  0  0
    1.9040   -2.7740    2.8960 H   0  0  0  0  0  0  0  0  0  0  0  0
    5.1810   -2.9880    0.4190 H   0  0  0  0  0  0  0  0  0  0  0  0
    3.8110   -2.1750   -0.3270 H   0  0  0  0  0  0  0  0  0  0  0  0
    5.3380   -0.6590    0.8660 H   0  0  0  0  0  0  0  0  0  0  0  0
    6.3120   -1.7280    2.5720 H   0  0  0  0  0  0  0  0  0  0  0  0
    5.1390   -0.9320    3.4630 H   0  0  0  0  0  0  0  0  0  0  0  0
    1.8000    2.4520    1.0030 C   0  0  0  0  0  0  0  0  0  0  0  0
    1.4810    0.9780    1.2350 C   0  0  2  0  0  0  0  0  0  0  0  0
    2.6280    0.2000    0.8150 N   0  0  0  0  0  0  0  0  0  0  0  0
    0.2610    0.5870    0.4970 C   0  0  0  0  0  0  0  0  0  0  0  0
    0.3460   -0.3100   -0.3760 O   0  0  0  0  0  0  0  0  0  0  0  0
    1.8170    2.6200   -0.0940 H   0  0  0  0  0  0  0  0  0  0  0  0
    2.7580    2.6520    1.5000 H   0  0  0  0  0  0  0  0  0  0  0  0
    0.9980    3.0600    1.4680 H   0  0  0  0  0  0  0  0  0  0  0  0
    1.3490    0.8520    2.3220 H   0  0  0  0  0  0  0  0  0  0  0  0
    2.8810    0.1210   -0.1990 H   0  0  0  0  0  0  0  0  0  0  0  0
   -1.0050    1.1810    0.7300 N   0  0  0  0  0  0  0  0  0  0  0  0
   -2.1910    0.7640   -0.0240 C   0  0  1  0  0  0  0  0  0  0  0  0
   -3.1950    0.1360    0.9030 C   0  0  0  0  0  0  0  0  0  0  0  0
   -4.3790   -0.2800    0.1410 C   0  0  0  0  0  0  0  0  0  0  0  0
   -4.4360   -1.5150   -0.4570 C   0  0  0  0  0  0  0  0  0  0  0  0
   -5.5380   -1.9500   -1.1640 C   0  0  0  0  0  0  0  0  0  0  0  0
   -6.6330   -1.1300   -1.2870 C   0  0  0  0  0  0  0  0  0  0  0  0
   -6.6010    0.1060   -0.7000 C   0  0  0  0  0  0  0  0  0  0  0  0
   -5.4770    0.5380    0.0160 C   0  0  0  0  0  0  0  0  0  0  0  0
   -2.7300    1.8620   -0.8200 C   0  0  0  0  0  0  0  0  0  0  0  0
   -3.7090    1.7870   -1.5950 O   0  0  0  0  0  0  0  0  0  0  0  0
   -2.0990    3.1120   -0.7090 O   0  0  0  0  0  0  0  0  0  0  0  0
   -1.0810    1.9190    1.4470 H   0  0  0  0  0  0  0  0  0  0  0  0
   -1.8720   -0.0440   -0.7410 H   0  0  0  0  0  0  0  0  0  0  0  0
   -2.7490   -0.7980    1.3260 H   0  0  0  0  0  0  0  0  0  0  0  0
   -3.4740    0.8230    1.7360 H   0  0  0  0  0  0  0  0  0  0  0  0
   -3.5840   -2.1990   -0.3820 H   0  0  0  0  0  0  0  0  0  0  0  0
   -5.5550   -2.9250   -1.6230 H   0  0  0  0  0  0  0  0  0  0  0  0
   -7.5290   -1.4450   -1.8440 H   0  0  0  0  0  0  0  0  0  0  0  0
   -7.4520    0.7660   -0.7850 H   0  0  0  0  0  0  0  0  0  0  0  0
   -5.5250    1.5150    0.4470 H   0  0  0  0  0  0  0  0  0  0  0  0
  1 11  1  0  0  0  0
  1  2  1  0  0  0  0
  2  3  1  0  0  0  0
  2 12  1  0  0  0  0
  3 15  1  0  0  0  0
  4  2  1  0  0  0  0
  4  5  1  0  0  0  0
  5 18  1  6  0  0  0
  5  7  1  0  0  0  0
  5  6  1  0  0  0  0
  6 20  1  0  0  0  0
  7  8  2  0  0  0  0
  9  1  1  0  0  0  0
 10  1  1  0  0  0  0
 13  3  1  0  0  0  0
 14  3  1  0  0  0  0
 16  4  1  0  0  0  0
 17  4  1  0  0  0  0
 19  6  1  0  0  0  0
 21 22  1  0  0  0  0
 21 28  1  0  0  0  0
 21 27  1  0  0  0  0
 22 29  1  1  0  0  0
 23 22  1  0  0  0  0
 23  7  1  0  0  0  0
 24 31  1  0  0  0  0
 24 22  1  0  0  0  0
 25 24  2  0  0  0  0
 26 21  1  0  0  0  0
 30 23  1  0  0  0  0
 31 43  1  0  0  0  0
 32 44  1  6  0  0  0
 32 31  1  0  0  0  0
 32 33  1  0  0  0  0
 33 45  1  0  0  0  0
 33 46  1  0  0  0  0
 34 33  1  0  0  0  0
 35 47  1  0  0  0  0
 35 34  2  0  0  0  0
 36 35  1  0  0  0  0
 37 36  2  0  0  0  0
 37 38  1  0  0  0  0
 38 39  2  0  0  0  0
 39 34  1  0  0  0  0
 39 51  1  0  0  0  0
 40 42  1  0  0  0  0
 40 32  1  0  0  0  0
 41 40  2  0  0  0  0
 48 36  1  0  0  0  0
 49 37  1  0  0  0  0
 50 38  1  0  0  0  0
M  END
$$$$
