LAG.pdb
 OpenBabel07022418443D

 38 37  0  0  1  0  0  0  0  0999 V2000
   -0.0060   -2.1120    2.1680 C   0  0  0  0  0  0  0  0  0  0  0  0
   -0.0450   -3.4210    1.4160 C   0  0  0  0  0  0  0  0  0  0  0  0
   -1.4190   -4.0340    1.7290 C   0  0  0  0  0  0  0  0  0  0  0  0
    0.1440   -3.2860   -0.0580 C   0  0  0  0  0  0  0  0  0  0  0  0
    1.4160   -2.6900   -0.5170 C   0  0  2  0  0  0  0  0  0  0  0  0
    2.5720   -3.4470   -0.0790 N   0  0  0  0  0  0  0  0  0  0  0  0
    1.6470   -1.2800   -0.2400 C   0  0  0  0  0  0  0  0  0  0  0  0
    2.7310   -0.9300    0.3110 O   0  0  0  0  0  0  0  0  0  0  0  0
   -0.6410   -1.4050    1.5810 H   0  0  0  0  0  0  0  0  0  0  0  0
   -0.5080   -2.2960    3.1470 H   0  0  0  0  0  0  0  0  0  0  0  0
    0.9830   -1.6690    2.2690 H   0  0  0  0  0  0  0  0  0  0  0  0
    0.7220   -4.1160    1.8710 H   0  0  0  0  0  0  0  0  0  0  0  0
   -1.7190   -4.5950    0.8200 H   0  0  0  0  0  0  0  0  0  0  0  0
   -2.1750   -3.2020    1.8250 H   0  0  0  0  0  0  0  0  0  0  0  0
   -1.3990   -4.6310    2.6420 H   0  0  0  0  0  0  0  0  0  0  0  0
    0.1130   -4.3330   -0.4830 H   0  0  0  0  0  0  0  0  0  0  0  0
   -0.7650   -2.8040   -0.4680 H   0  0  0  0  0  0  0  0  0  0  0  0
    1.4530   -2.7800   -1.6560 H   0  0  0  0  0  0  0  0  0  0  0  0
    3.0820   -2.9650    0.6910 H   0  0  0  0  0  0  0  0  0  0  0  0
    2.3770   -4.4380    0.0860 H   0  0  0  0  0  0  0  0  0  0  0  0
    1.1890    1.8370   -1.5930 C   0  0  0  0  0  0  0  0  0  0  0  0
    1.0530    1.1270   -0.2360 C   0  0  2  0  0  0  0  0  0  0  0  0
    0.7260   -0.2380   -0.5500 N   0  0  0  0  0  0  0  0  0  0  0  0
   -0.0220    1.8170    0.5080 C   0  0  0  0  0  0  0  0  0  0  0  0
   -1.0660    1.1790    0.7740 O   0  0  0  0  0  0  0  0  0  0  0  0
    0.6240    1.2970   -2.3810 H   0  0  0  0  0  0  0  0  0  0  0  0
    2.2510    1.8660   -1.8970 H   0  0  0  0  0  0  0  0  0  0  0  0
    0.8070    2.8600   -1.5510 H   0  0  0  0  0  0  0  0  0  0  0  0
    2.0270    1.2030    0.2620 H   0  0  0  0  0  0  0  0  0  0  0  0
   -0.1640   -0.5350   -1.0030 H   0  0  0  0  0  0  0  0  0  0  0  0
    0.0660    3.1630    0.9350 N   0  0  0  0  0  0  0  0  0  0  0  0
   -1.0350    3.7640    1.6600 C   0  0  0  0  0  0  0  0  0  0  0  0
   -1.3270    3.0540    2.9170 C   0  0  0  0  0  0  0  0  0  0  0  0
   -2.2520    3.4400    3.6710 O   0  0  0  0  0  0  0  0  0  0  0  0
   -0.5950    1.9430    3.3070 O   0  0  0  0  0  0  0  0  0  0  0  0
    0.9120    3.6990    0.7260 H   0  0  0  0  0  0  0  0  0  0  0  0
   -1.9540    3.7640    1.0180 H   0  0  0  0  0  0  0  0  0  0  0  0
   -0.8010    4.8310    1.8380 H   0  0  0  0  0  0  0  0  0  0  0  0
  1 11  1  0  0  0  0
  1 10  1  0  0  0  0
  2  3  1  0  0  0  0
  2 12  1  0  0  0  0
  2  1  1  0  0  0  0
  3 14  1  0  0  0  0
  3 15  1  0  0  0  0
  4  2  1  0  0  0  0
  5 18  1  6  0  0  0
  5  7  1  0  0  0  0
  5  6  1  0  0  0  0
  5  4  1  0  0  0  0
  6 20  1  0  0  0  0
  6 19  1  0  0  0  0
  7  8  2  0  0  0  0
  9  1  1  0  0  0  0
 13  3  1  0  0  0  0
 16  4  1  0  0  0  0
 17  4  1  0  0  0  0
 21 28  1  0  0  0  0
 21 22  1  0  0  0  0
 22 29  1  1  0  0  0
 22 24  1  0  0  0  0
 23  7  1  0  0  0  0
 23 22  1  0  0  0  0
 24 25  2  0  0  0  0
 24 31  1  0  0  0  0
 26 21  1  0  0  0  0
 27 21  1  0  0  0  0
 30 23  1  0  0  0  0
 31 32  1  0  0  0  0
 32 38  1  0  0  0  0
 32 33  1  0  0  0  0
 33 35  2  0  0  0  0
 33 34  1  0  0  0  0
 36 31  1  0  0  0  0
 37 32  1  0  0  0  0
M  END
$$$$
