LAI.pdb
 OpenBabel07022418443D

 50 49  0  0  1  0  0  0  0  0999 V2000
    1.0370   -5.5970    1.5790 C   0  0  0  0  0  0  0  0  0  0  0  0
    2.3430   -5.0210    1.1010 C   0  0  0  0  0  0  0  0  0  0  0  0
    3.1760   -4.6420    2.2730 C   0  0  0  0  0  0  0  0  0  0  0  0
    2.1200   -3.9000    0.1160 C   0  0  0  0  0  0  0  0  0  0  0  0
    1.3400   -2.7610    0.6780 C   0  0  2  0  0  0  0  0  0  0  0  0
    0.0350   -3.2170    1.1060 N   0  0  0  0  0  0  0  0  0  0  0  0
    1.2290   -1.6990   -0.3430 C   0  0  0  0  0  0  0  0  0  0  0  0
    2.2740   -1.1960   -0.8190 O   0  0  0  0  0  0  0  0  0  0  0  0
    0.2870   -5.7030    0.7690 H   0  0  0  0  0  0  0  0  0  0  0  0
    0.6320   -5.0750    2.4680 H   0  0  0  0  0  0  0  0  0  0  0  0
    1.2610   -6.6420    1.9240 H   0  0  0  0  0  0  0  0  0  0  0  0
    2.8820   -5.8280    0.5450 H   0  0  0  0  0  0  0  0  0  0  0  0
    3.0030   -5.4230    3.0690 H   0  0  0  0  0  0  0  0  0  0  0  0
    4.2700   -4.6930    2.0680 H   0  0  0  0  0  0  0  0  0  0  0  0
    2.8920   -3.6790    2.7460 H   0  0  0  0  0  0  0  0  0  0  0  0
    3.0770   -3.5250   -0.2990 H   0  0  0  0  0  0  0  0  0  0  0  0
    1.5850   -4.3610   -0.7600 H   0  0  0  0  0  0  0  0  0  0  0  0
    1.8600   -2.3620    1.5600 H   0  0  0  0  0  0  0  0  0  0  0  0
   -0.5650   -3.5080    0.3040 H   0  0  0  0  0  0  0  0  0  0  0  0
   -0.4310   -2.6020    1.7790 H   0  0  0  0  0  0  0  0  0  0  0  0
   -0.7840   -0.6080   -3.0770 C   0  0  0  0  0  0  0  0  0  0  0  0
   -0.0810   -0.1690   -1.8250 C   0  0  2  0  0  0  0  0  0  0  0  0
   -0.0080   -1.2040   -0.8290 N   0  0  0  0  0  0  0  0  0  0  0  0
   -0.7410    1.0550   -1.2570 C   0  0  0  0  0  0  0  0  0  0  0  0
   -0.9040    2.0800   -1.9640 O   0  0  0  0  0  0  0  0  0  0  0  0
   -0.8800    0.2850   -3.7370 H   0  0  0  0  0  0  0  0  0  0  0  0
   -1.8240   -0.9490   -2.8780 H   0  0  0  0  0  0  0  0  0  0  0  0
   -0.1750   -1.3730   -3.5800 H   0  0  0  0  0  0  0  0  0  0  0  0
    0.9510    0.1290   -2.1030 H   0  0  0  0  0  0  0  0  0  0  0  0
   -0.9040   -1.5920   -0.4630 H   0  0  0  0  0  0  0  0  0  0  0  0
    0.8470    1.3380    2.0700 C   0  0  0  0  0  0  0  0  0  0  0  0
   -0.1710    2.2640    2.6390 C   0  0  0  0  0  0  0  0  0  0  0  0
   -0.9860    3.0150    1.5900 C   0  0  2  0  0  0  0  0  0  0  0  0
   -1.9330    3.8970    2.4280 C   0  0  0  0  0  0  0  0  0  0  0  0
   -1.8330    2.0900    0.8000 C   0  0  2  0  0  0  0  0  0  0  0  0
   -1.1800    1.0600    0.0740 N   0  0  0  0  0  0  0  0  0  0  0  0
   -2.8850    2.8170   -0.0050 C   0  0  0  0  0  0  0  0  0  0  0  0
   -3.1960    2.4440   -1.1600 O   0  0  0  0  0  0  0  0  0  0  0  0
   -3.5680    3.9250    0.4680 O   0  0  0  0  0  0  0  0  0  0  0  0
    1.8660    1.5160    2.5380 H   0  0  0  0  0  0  0  0  0  0  0  0
    0.9930    1.4270    0.9930 H   0  0  0  0  0  0  0  0  0  0  0  0
    0.6540    0.2590    2.3120 H   0  0  0  0  0  0  0  0  0  0  0  0
    0.3200    2.9610    3.3390 H   0  0  0  0  0  0  0  0  0  0  0  0
   -0.8980    1.6790    3.2420 H   0  0  0  0  0  0  0  0  0  0  0  0
   -0.3630    3.6940    1.0170 H   0  0  0  0  0  0  0  0  0  0  0  0
   -2.9060    3.4200    2.5900 H   0  0  0  0  0  0  0  0  0  0  0  0
   -2.0450    4.8420    1.8660 H   0  0  0  0  0  0  0  0  0  0  0  0
   -1.4280    4.1410    3.4080 H   0  0  0  0  0  0  0  0  0  0  0  0
   -2.5020    1.5390    1.5600 H   0  0  0  0  0  0  0  0  0  0  0  0
   -0.9920    0.1480    0.6100 H   0  0  0  0  0  0  0  0  0  0  0  0
  1 11  1  0  0  0  0
  1 10  1  0  0  0  0
  2  1  1  0  0  0  0
  2  3  1  0  0  0  0
  3 15  1  0  0  0  0
  3 13  1  0  0  0  0
  4  5  1  0  0  0  0
  4  2  1  0  0  0  0
  5  6  1  0  0  0  0
  5 18  1  1  0  0  0
  6 20  1  0  0  0  0
  7  5  1  0  0  0  0
  8  7  2  0  0  0  0
  9  1  1  0  0  0  0
 12  2  1  0  0  0  0
 14  3  1  0  0  0  0
 16  4  1  0  0  0  0
 17  4  1  0  0  0  0
 19  6  1  0  0  0  0
 21 27  1  0  0  0  0
 21 22  1  0  0  0  0
 22 29  1  6  0  0  0
 22 24  1  0  0  0  0
 22 23  1  0  0  0  0
 23 30  1  0  0  0  0
 23  7  1  0  0  0  0
 24 36  1  0  0  0  0
 25 24  2  0  0  0  0
 26 21  1  0  0  0  0
 28 21  1  0  0  0  0
 31 42  1  0  0  0  0
 31 40  1  0  0  0  0
 31 32  1  0  0  0  0
 32 44  1  0  0  0  0
 32 43  1  0  0  0  0
 33 45  1  6  0  0  0
 33 34  1  0  0  0  0
 33 32  1  0  0  0  0
 34 46  1  0  0  0  0
 34 48  1  0  0  0  0
 35 49  1  1  0  0  0
 35 33  1  0  0  0  0
 36 50  1  0  0  0  0
 36 35  1  0  0  0  0
 37 39  1  0  0  0  0
 37 35  1  0  0  0  0
 38 37  2  0  0  0  0
 41 31  1  0  0  0  0
 47 34  1  0  0  0  0
M  END
$$$$
