LAM.pdb
 OpenBabel07022418443D

 48 47  0  0  1  0  0  0  0  0999 V2000
    3.3610   -3.9660    1.8660 C   0  0  0  0  0  0  0  0  0  0  0  0
    3.8780   -3.6490    0.4820 C   0  0  0  0  0  0  0  0  0  0  0  0
    5.1070   -2.7760    0.5110 C   0  0  0  0  0  0  0  0  0  0  0  0
    2.8010   -3.1040   -0.4110 C   0  0  0  0  0  0  0  0  0  0  0  0
    2.1750   -1.8260    0.0930 C   0  0  2  0  0  0  0  0  0  0  0  0
    1.5760   -2.0270    1.3760 N   0  0  0  0  0  0  0  0  0  0  0  0
    1.1870   -1.4080   -0.9370 C   0  0  0  0  0  0  0  0  0  0  0  0
    1.6140   -1.2180   -2.1100 O   0  0  0  0  0  0  0  0  0  0  0  0
    2.3210   -4.3360    1.7890 H   0  0  0  0  0  0  0  0  0  0  0  0
    3.4740   -3.0580    2.4830 H   0  0  0  0  0  0  0  0  0  0  0  0
    3.9570   -4.7930    2.3390 H   0  0  0  0  0  0  0  0  0  0  0  0
    4.1830   -4.6270    0.0260 H   0  0  0  0  0  0  0  0  0  0  0  0
    6.0280   -3.4240    0.5390 H   0  0  0  0  0  0  0  0  0  0  0  0
    5.1950   -2.1060   -0.3500 H   0  0  0  0  0  0  0  0  0  0  0  0
    5.1530   -2.2060    1.4850 H   0  0  0  0  0  0  0  0  0  0  0  0
    3.1990   -2.8990   -1.4230 H   0  0  0  0  0  0  0  0  0  0  0  0
    2.0350   -3.9020   -0.5490 H   0  0  0  0  0  0  0  0  0  0  0  0
    2.9850   -1.0780    0.2130 H   0  0  0  0  0  0  0  0  0  0  0  0
    1.5180   -1.1460    1.9130 H   0  0  0  0  0  0  0  0  0  0  0  0
    0.7260   -2.5990    1.3940 H   0  0  0  0  0  0  0  0  0  0  0  0
   -2.2440   -1.8510   -1.8280 C   0  0  0  0  0  0  0  0  0  0  0  0
   -1.1590   -0.8200   -1.6250 C   0  0  2  0  0  0  0  0  0  0  0  0
   -0.1760   -1.2190   -0.6680 N   0  0  0  0  0  0  0  0  0  0  0  0
   -1.8420    0.4580   -1.2220 C   0  0  0  0  0  0  0  0  0  0  0  0
   -2.7310    0.9390   -1.9350 O   0  0  0  0  0  0  0  0  0  0  0  0
   -1.9270   -2.7230   -2.4080 H   0  0  0  0  0  0  0  0  0  0  0  0
   -3.0400   -1.3400   -2.4330 H   0  0  0  0  0  0  0  0  0  0  0  0
   -2.7150   -2.1020   -0.8500 H   0  0  0  0  0  0  0  0  0  0  0  0
   -0.6700   -0.6780   -2.6090 H   0  0  0  0  0  0  0  0  0  0  0  0
   -0.4970   -1.3840    0.3210 H   0  0  0  0  0  0  0  0  0  0  0  0
   -4.1410    0.1690    4.1980 C   0  0  0  0  0  0  0  0  0  0  0  0
   -2.9260    1.5070    4.3590 S   0  0  0  0  0  0  0  0  0  0  0  0
   -1.9210    1.6940    2.8600 C   0  0  0  0  0  0  0  0  0  0  0  0
   -2.8180    2.1720    1.7560 C   0  0  0  0  0  0  0  0  0  0  0  0
   -2.0820    2.3580    0.4450 C   0  0  2  0  0  0  0  0  0  0  0  0
   -1.4870    1.1360   -0.0250 N   0  0  0  0  0  0  0  0  0  0  0  0
   -1.0970    3.4700    0.5300 C   0  0  0  0  0  0  0  0  0  0  0  0
    0.0970    3.2640    0.2040 O   0  0  0  0  0  0  0  0  0  0  0  0
   -1.4100    4.7490    0.9530 O   0  0  0  0  0  0  0  0  0  0  0  0
   -3.6410   -0.6180    3.5600 H   0  0  0  0  0  0  0  0  0  0  0  0
   -4.3330   -0.3310    5.1690 H   0  0  0  0  0  0  0  0  0  0  0  0
   -5.0430    0.4900    3.6680 H   0  0  0  0  0  0  0  0  0  0  0  0
   -1.4730    0.7000    2.6540 H   0  0  0  0  0  0  0  0  0  0  0  0
   -1.1520    2.4440    3.0750 H   0  0  0  0  0  0  0  0  0  0  0  0
   -3.2210    3.1570    2.0420 H   0  0  0  0  0  0  0  0  0  0  0  0
   -3.6550    1.4880    1.5680 H   0  0  0  0  0  0  0  0  0  0  0  0
   -2.8560    2.6540   -0.2940 H   0  0  0  0  0  0  0  0  0  0  0  0
   -0.7170    0.6730    0.5400 H   0  0  0  0  0  0  0  0  0  0  0  0
  1 11  1  0  0  0  0
  1 10  1  0  0  0  0
  2  3  1  0  0  0  0
  2  1  1  0  0  0  0
  3 13  1  0  0  0  0
  3 15  1  0  0  0  0
  4  5  1  0  0  0  0
  4  2  1  0  0  0  0
  5 18  1  1  0  0  0
  5  6  1  0  0  0  0
  6 20  1  0  0  0  0
  6 19  1  0  0  0  0
  7 23  1  0  0  0  0
  7  5  1  0  0  0  0
  8  7  2  0  0  0  0
  9  1  1  0  0  0  0
 12  2  1  0  0  0  0
 14  3  1  0  0  0  0
 16  4  1  0  0  0  0
 17  4  1  0  0  0  0
 21 22  1  0  0  0  0
 21 28  1  0  0  0  0
 22 29  1  6  0  0  0
 22 24  1  0  0  0  0
 22 23  1  0  0  0  0
 23 30  1  0  0  0  0
 24 36  1  0  0  0  0
 25 24  2  0  0  0  0
 26 21  1  0  0  0  0
 27 21  1  0  0  0  0
 31 32  1  0  0  0  0
 31 41  1  0  0  0  0
 33 44  1  0  0  0  0
 33 32  1  0  0  0  0
 34 45  1  0  0  0  0
 34 33  1  0  0  0  0
 35 47  1  6  0  0  0
 35 37  1  0  0  0  0
 35 34  1  0  0  0  0
 36 35  1  0  0  0  0
 36 48  1  0  0  0  0
 37 39  1  0  0  0  0
 38 37  2  0  0  0  0
 40 31  1  0  0  0  0
 42 31  1  0  0  0  0
 43 33  1  0  0  0  0
 46 34  1  0  0  0  0
M  END
$$$$
