LAP.pdb
 OpenBabel07022418443D

 45 45  0  0  1  0  0  0  0  0999 V2000
   -0.8350   -5.0670    0.8370 C   0  0  0  0  0  0  0  0  0  0  0  0
   -0.8030   -4.5080   -0.5680 C   0  0  0  0  0  0  0  0  0  0  0  0
   -0.6810   -5.6180   -1.5610 C   0  0  0  0  0  0  0  0  0  0  0  0
    0.2820   -3.4700   -0.7410 C   0  0  0  0  0  0  0  0  0  0  0  0
    0.0730   -2.2990    0.2090 C   0  0  2  0  0  0  0  0  0  0  0  0
   -1.1560   -1.6290    0.0200 N   0  0  0  0  0  0  0  0  0  0  0  0
    1.1880   -1.3230    0.0990 C   0  0  0  0  0  0  0  0  0  0  0  0
    2.3960   -1.6460    0.2250 O   0  0  0  0  0  0  0  0  0  0  0  0
   -1.5800   -4.5300    1.4360 H   0  0  0  0  0  0  0  0  0  0  0  0
    0.1890   -5.0220    1.2800 H   0  0  0  0  0  0  0  0  0  0  0  0
   -1.1310   -6.1380    0.8260 H   0  0  0  0  0  0  0  0  0  0  0  0
   -1.8000   -4.0150   -0.7470 H   0  0  0  0  0  0  0  0  0  0  0  0
   -1.3660   -5.5380   -2.4220 H   0  0  0  0  0  0  0  0  0  0  0  0
    0.3790   -5.6040   -1.9500 H   0  0  0  0  0  0  0  0  0  0  0  0
   -0.7810   -6.5960   -1.0440 H   0  0  0  0  0  0  0  0  0  0  0  0
    1.2710   -3.9150   -0.5640 H   0  0  0  0  0  0  0  0  0  0  0  0
    0.2300   -3.1150   -1.7830 H   0  0  0  0  0  0  0  0  0  0  0  0
    0.0560   -2.7600    1.2390 H   0  0  0  0  0  0  0  0  0  0  0  0
   -1.9700   -2.0020    0.5160 H   0  0  0  0  0  0  0  0  0  0  0  0
   -1.3120   -1.1750   -0.8730 H   0  0  0  0  0  0  0  0  0  0  0  0
    1.9170    1.6650   -1.6920 C   0  0  0  0  0  0  0  0  0  0  0  0
    1.9160    1.0560   -0.2820 C   0  0  2  0  0  0  0  0  0  0  0  0
    0.9190    0.0650   -0.1630 N   0  0  0  0  0  0  0  0  0  0  0  0
    1.8700    2.1910    0.6540 C   0  0  0  0  0  0  0  0  0  0  0  0
    2.7140    3.1640    0.4750 O   0  0  0  0  0  0  0  0  0  0  0  0
    0.9280    2.1160   -1.9080 H   0  0  0  0  0  0  0  0  0  0  0  0
    2.6500    2.5000   -1.6660 H   0  0  0  0  0  0  0  0  0  0  0  0
    2.2480    0.9480   -2.4420 H   0  0  0  0  0  0  0  0  0  0  0  0
    2.9210    0.5330   -0.2260 H   0  0  0  0  0  0  0  0  0  0  0  0
   -0.0910    0.3590   -0.2910 H   0  0  0  0  0  0  0  0  0  0  0  0
    0.9970    2.3640    1.7570 N   0  0  0  0  0  0  0  0  0  0  0  0
    1.0210    3.5780    2.5900 C   0  0  0  0  0  0  0  0  0  0  0  0
    0.5960    3.1120    3.9470 C   0  0  0  0  0  0  0  0  0  0  0  0
    0.3260    1.6350    3.8330 C   0  0  0  0  0  0  0  0  0  0  0  0
   -0.0220    1.5420    2.3430 C   0  0  1  0  0  0  0  0  0  0  0  0
   -1.3890    2.0310    2.1110 C   0  0  0  0  0  0  0  0  0  0  0  0
   -1.5690    3.0610    1.4200 O   0  0  0  0  0  0  0  0  0  0  0  0
   -2.5030    1.3970    2.6280 O   0  0  0  0  0  0  0  0  0  0  0  0
    2.0390    4.0230    2.5850 H   0  0  0  0  0  0  0  0  0  0  0  0
    0.2680    4.2570    2.1480 H   0  0  0  0  0  0  0  0  0  0  0  0
   -0.3500    3.6240    4.2900 H   0  0  0  0  0  0  0  0  0  0  0  0
    1.3910    3.3510    4.6760 H   0  0  0  0  0  0  0  0  0  0  0  0
   -0.5080    1.2930    4.4610 H   0  0  0  0  0  0  0  0  0  0  0  0
    1.2750    1.1010    4.0260 H   0  0  0  0  0  0  0  0  0  0  0  0
    0.0780    0.4880    2.0080 H   0  0  0  0  0  0  0  0  0  0  0  0
  1 10  1  0  0  0  0
  1  9  1  0  0  0  0
  2  1  1  0  0  0  0
  3 15  1  0  0  0  0
  3  2  1  0  0  0  0
  4  2  1  0  0  0  0
  4 16  1  0  0  0  0
  4  5  1  0  0  0  0
  5 18  1  1  0  0  0
  6  5  1  0  0  0  0
  6 19  1  0  0  0  0
  7  5  1  0  0  0  0
  7  8  2  0  0  0  0
 11  1  1  0  0  0  0
 12  2  1  0  0  0  0
 13  3  1  0  0  0  0
 14  3  1  0  0  0  0
 17  4  1  0  0  0  0
 20  6  1  0  0  0  0
 21 27  1  0  0  0  0
 21 22  1  0  0  0  0
 22 29  1  1  0  0  0
 22 23  1  0  0  0  0
 22 24  1  0  0  0  0
 23  7  1  0  0  0  0
 24 31  1  0  0  0  0
 25 24  2  0  0  0  0
 26 21  1  0  0  0  0
 28 21  1  0  0  0  0
 30 23  1  0  0  0  0
 31 35  1  0  0  0  0
 31 32  1  0  0  0  0
 32 33  1  0  0  0  0
 33 41  1  0  0  0  0
 33 42  1  0  0  0  0
 34 33  1  0  0  0  0
 34 44  1  0  0  0  0
 34 43  1  0  0  0  0
 35 45  1  6  0  0  0
 35 34  1  0  0  0  0
 36 35  1  0  0  0  0
 36 38  1  0  0  0  0
 37 36  2  0  0  0  0
 39 32  1  0  0  0  0
 40 32  1  0  0  0  0
M  END
$$$$
