LAR.pdb
 OpenBabel07022418443D

 54 53  0  0  1  0  0  0  0  0999 V2000
    1.2910   -2.3580    3.9790 C   0  0  0  0  0  0  0  0  0  0  0  0
    2.2180   -1.4020    3.2460 C   0  0  0  0  0  0  0  0  0  0  0  0
    1.5870   -0.0590    3.1090 C   0  0  0  0  0  0  0  0  0  0  0  0
    2.5290   -2.0190    1.9270 C   0  0  0  0  0  0  0  0  0  0  0  0
    3.4480   -1.2510    1.0450 C   0  0  2  0  0  0  0  0  0  0  0  0
    4.7390   -1.0210    1.6920 N   0  0  0  0  0  0  0  0  0  0  0  0
    2.9370   -0.0010    0.4930 C   0  0  0  0  0  0  0  0  0  0  0  0
    3.4940    1.1200    0.7640 O   0  0  0  0  0  0  0  0  0  0  0  0
    0.4590   -1.7700    4.3860 H   0  0  0  0  0  0  0  0  0  0  0  0
    0.8830   -3.1330    3.3110 H   0  0  0  0  0  0  0  0  0  0  0  0
    1.8690   -2.8830    4.7930 H   0  0  0  0  0  0  0  0  0  0  0  0
    3.1610   -1.2660    3.8300 H   0  0  0  0  0  0  0  0  0  0  0  0
    2.3150    0.7890    3.1780 H   0  0  0  0  0  0  0  0  0  0  0  0
    0.9250    0.1020    4.0220 H   0  0  0  0  0  0  0  0  0  0  0  0
    0.9220    0.0300    2.2320 H   0  0  0  0  0  0  0  0  0  0  0  0
    1.5700   -2.2000    1.3820 H   0  0  0  0  0  0  0  0  0  0  0  0
    2.9760   -3.0310    2.1170 H   0  0  0  0  0  0  0  0  0  0  0  0
    3.6960   -1.9010    0.1470 H   0  0  0  0  0  0  0  0  0  0  0  0
    5.3080   -1.8880    1.6030 H   0  0  0  0  0  0  0  0  0  0  0  0
    5.2720   -0.2570    1.2180 H   0  0  0  0  0  0  0  0  0  0  0  0
    1.9720    1.5990   -2.2970 C   0  0  0  0  0  0  0  0  0  0  0  0
    1.3920    1.3600   -0.8700 C   0  0  2  0  0  0  0  0  0  0  0  0
    1.7970    0.0890   -0.3870 N   0  0  0  0  0  0  0  0  0  0  0  0
   -0.0580    1.5910   -0.9880 C   0  0  0  0  0  0  0  0  0  0  0  0
   -0.5070    2.7270   -1.3890 O   0  0  0  0  0  0  0  0  0  0  0  0
    1.7360    2.6540   -2.5120 H   0  0  0  0  0  0  0  0  0  0  0  0
    3.0750    1.5040   -2.1570 H   0  0  0  0  0  0  0  0  0  0  0  0
    1.5390    0.8710   -2.9800 H   0  0  0  0  0  0  0  0  0  0  0  0
    1.8900    2.1980   -0.2960 H   0  0  0  0  0  0  0  0  0  0  0  0
    1.2860   -0.7680   -0.6560 H   0  0  0  0  0  0  0  0  0  0  0  0
   -2.1770   -2.5920    2.2020 N   0  0  0  0  0  0  0  0  0  0  0  0
   -2.2400   -2.5880    0.7800 C   0  0  0  0  0  0  0  0  0  0  0  0
   -1.2480   -2.9840    0.0490 N   0  0  0  0  0  0  0  0  0  0  0  0
   -3.4570   -2.1310    0.2030 N   0  0  0  0  0  0  0  0  0  0  0  0
   -3.6790   -2.1590   -1.1840 C   0  0  0  0  0  0  0  0  0  0  0  0
   -2.9300   -1.2970   -2.1010 C   0  0  0  0  0  0  0  0  0  0  0  0
   -2.9950    0.1640   -2.0120 C   0  0  0  0  0  0  0  0  0  0  0  0
   -2.4750    0.8890   -0.8260 C   0  0  2  0  0  0  0  0  0  0  0  0
   -1.0520    0.6170   -0.6840 N   0  0  0  0  0  0  0  0  0  0  0  0
   -3.2350    0.7930    0.4100 C   0  0  0  0  0  0  0  0  0  0  0  0
   -2.6010    0.5500    1.4940 O   0  0  0  0  0  0  0  0  0  0  0  0
   -4.5870    0.9420    0.5140 O   0  0  0  0  0  0  0  0  0  0  0  0
   -1.3100   -2.3960    2.7350 H   0  0  0  0  0  0  0  0  0  0  0  0
   -3.0420   -2.8010    2.7790 H   0  0  0  0  0  0  0  0  0  0  0  0
   -0.3800   -3.3150    0.5330 H   0  0  0  0  0  0  0  0  0  0  0  0
   -4.2470   -1.7700    0.8280 H   0  0  0  0  0  0  0  0  0  0  0  0
   -3.4880   -3.2420   -1.5190 H   0  0  0  0  0  0  0  0  0  0  0  0
   -4.7880   -2.0050   -1.4260 H   0  0  0  0  0  0  0  0  0  0  0  0
   -3.3000   -1.5640   -3.1540 H   0  0  0  0  0  0  0  0  0  0  0  0
   -1.8660   -1.6860   -2.1500 H   0  0  0  0  0  0  0  0  0  0  0  0
   -4.0550    0.5150   -2.2520 H   0  0  0  0  0  0  0  0  0  0  0  0
   -2.4300    0.6200   -2.9050 H   0  0  0  0  0  0  0  0  0  0  0  0
   -2.5220    2.0010   -1.1390 H   0  0  0  0  0  0  0  0  0  0  0  0
   -0.6810   -0.3000   -0.3540 H   0  0  0  0  0  0  0  0  0  0  0  0
  1  9  1  0  0  0  0
  1 11  1  0  0  0  0
  2 12  1  0  0  0  0
  2  1  1  0  0  0  0
  3 13  1  0  0  0  0
  3  2  1  0  0  0  0
  3 14  1  0  0  0  0
  4 17  1  0  0  0  0
  4  2  1  0  0  0  0
  5 18  1  6  0  0  0
  5  6  1  0  0  0  0
  5  4  1  0  0  0  0
  7  8  2  0  0  0  0
  7  5  1  0  0  0  0
 10  1  1  0  0  0  0
 15  3  1  0  0  0  0
 16  4  1  0  0  0  0
 19  6  1  0  0  0  0
 20  6  1  0  0  0  0
 21 27  1  0  0  0  0
 21 22  1  0  0  0  0
 22 23  1  0  0  0  0
 22 29  1  1  0  0  0
 23  7  1  0  0  0  0
 24 22  1  0  0  0  0
 24 39  1  0  0  0  0
 25 24  2  0  0  0  0
 26 21  1  0  0  0  0
 28 21  1  0  0  0  0
 30 23  1  0  0  0  0
 31 43  1  0  0  0  0
 31 44  1  0  0  0  0
 32 31  1  0  0  0  0
 33 45  1  0  0  0  0
 33 32  2  0  0  0  0
 34 32  1  0  0  0  0
 34 46  1  0  0  0  0
 35 34  1  0  0  0  0
 36 37  1  0  0  0  0
 36 35  1  0  0  0  0
 37 38  1  0  0  0  0
 38 53  1  6  0  0  0
 38 39  1  0  0  0  0
 38 40  1  0  0  0  0
 39 54  1  0  0  0  0
 40 42  2  0  0  0  0
 40 41  1  0  0  0  0
 47 35  1  0  0  0  0
 48 35  1  0  0  0  0
 49 36  1  0  0  0  0
 50 36  1  0  0  0  0
 51 37  1  0  0  0  0
 52 37  1  0  0  0  0
M  END
$$$$
