LAS.pdb
 OpenBabel07022418443D

 42 41  0  0  1  0  0  0  0  0999 V2000
    0.1880   -5.6890    2.5930 C   0  0  0  0  0  0  0  0  0  0  0  0
    0.4330   -5.5970    1.1020 C   0  0  0  0  0  0  0  0  0  0  0  0
   -0.9130   -5.6790    0.4140 C   0  0  0  0  0  0  0  0  0  0  0  0
    1.2010   -4.3490    0.7390 C   0  0  0  0  0  0  0  0  0  0  0  0
    0.4000   -3.1610    1.1790 C   0  0  2  0  0  0  0  0  0  0  0  0
   -0.8910   -3.0600    0.5770 N   0  0  0  0  0  0  0  0  0  0  0  0
    1.1290   -1.8840    1.0080 C   0  0  0  0  0  0  0  0  0  0  0  0
    2.3100   -1.7150    1.4490 O   0  0  0  0  0  0  0  0  0  0  0  0
    1.0020   -5.2610    3.1850 H   0  0  0  0  0  0  0  0  0  0  0  0
    0.1240   -6.7710    2.8770 H   0  0  0  0  0  0  0  0  0  0  0  0
   -0.7870   -5.2420    2.8760 H   0  0  0  0  0  0  0  0  0  0  0  0
    1.0140   -6.4850    0.7450 H   0  0  0  0  0  0  0  0  0  0  0  0
   -1.1890   -6.7720    0.3800 H   0  0  0  0  0  0  0  0  0  0  0  0
   -1.6960   -5.2340    1.0960 H   0  0  0  0  0  0  0  0  0  0  0  0
   -0.9220   -5.2400   -0.5890 H   0  0  0  0  0  0  0  0  0  0  0  0
    2.1340   -4.3630    1.3210 H   0  0  0  0  0  0  0  0  0  0  0  0
    1.3740   -4.3740   -0.3560 H   0  0  0  0  0  0  0  0  0  0  0  0
    0.2120   -3.3190    2.2840 H   0  0  0  0  0  0  0  0  0  0  0  0
   -1.4280   -2.3120    1.0700 H   0  0  0  0  0  0  0  0  0  0  0  0
   -0.8930   -2.8490   -0.4390 H   0  0  0  0  0  0  0  0  0  0  0  0
    1.3520    0.7300   -1.3250 C   0  0  0  0  0  0  0  0  0  0  0  0
    1.2480    0.4860    0.1650 C   0  0  2  0  0  0  0  0  0  0  0  0
    0.5260   -0.7850    0.3360 N   0  0  0  0  0  0  0  0  0  0  0  0
    0.4090    1.6090    0.7130 C   0  0  0  0  0  0  0  0  0  0  0  0
   -0.7230    1.3960    1.2200 O   0  0  0  0  0  0  0  0  0  0  0  0
    2.2190    1.3580   -1.5860 H   0  0  0  0  0  0  0  0  0  0  0  0
    0.4000    1.1860   -1.6570 H   0  0  0  0  0  0  0  0  0  0  0  0
    1.3960   -0.2680   -1.8510 H   0  0  0  0  0  0  0  0  0  0  0  0
    2.2420    0.4470    0.6050 H   0  0  0  0  0  0  0  0  0  0  0  0
   -0.4420   -0.9090   -0.0310 H   0  0  0  0  0  0  0  0  0  0  0  0
   -0.0880    5.7930    2.7390 O   0  0  0  0  0  0  0  0  0  0  0  0
    0.7680    4.7470    2.3610 C   0  0  0  0  0  0  0  0  0  0  0  0
    0.1010    4.0570    1.1890 C   0  0  2  0  0  0  0  0  0  0  0  0
    0.8610    2.9520    0.6810 N   0  0  0  0  0  0  0  0  0  0  0  0
   -0.2120    5.0690    0.1830 C   0  0  0  0  0  0  0  0  0  0  0  0
   -0.8700    6.1040    0.4530 O   0  0  0  0  0  0  0  0  0  0  0  0
    0.2230    4.9000   -1.1220 O   0  0  0  0  0  0  0  0  0  0  0  0
    0.4230    6.5840    3.0410 H   0  0  0  0  0  0  0  0  0  0  0  0
    0.9180    4.0820    3.2260 H   0  0  0  0  0  0  0  0  0  0  0  0
    1.7140    5.2300    2.0370 H   0  0  0  0  0  0  0  0  0  0  0  0
   -0.8630    3.6250    1.5870 H   0  0  0  0  0  0  0  0  0  0  0  0
    1.7970    3.1300    0.2610 H   0  0  0  0  0  0  0  0  0  0  0  0
  1 11  1  0  0  0  0
  1 10  1  0  0  0  0
  1  9  1  0  0  0  0
  2  1  1  0  0  0  0
  3 14  1  0  0  0  0
  3  2  1  0  0  0  0
  4  2  1  0  0  0  0
  4  5  1  0  0  0  0
  4 16  1  0  0  0  0
  5 18  1  1  0  0  0
  6 19  1  0  0  0  0
  6  5  1  0  0  0  0
  7  5  1  0  0  0  0
  7  8  2  0  0  0  0
 12  2  1  0  0  0  0
 13  3  1  0  0  0  0
 15  3  1  0  0  0  0
 17  4  1  0  0  0  0
 20  6  1  0  0  0  0
 21 22  1  0  0  0  0
 22 23  1  0  0  0  0
 22 29  1  1  0  0  0
 22 24  1  0  0  0  0
 23  7  1  0  0  0  0
 24 25  2  0  0  0  0
 26 21  1  0  0  0  0
 27 21  1  0  0  0  0
 28 21  1  0  0  0  0
 30 23  1  0  0  0  0
 31 38  1  0  0  0  0
 32 31  1  0  0  0  0
 32 39  1  0  0  0  0
 33 41  1  1  0  0  0
 33 32  1  0  0  0  0
 34 24  1  0  0  0  0
 34 33  1  0  0  0  0
 35 36  1  0  0  0  0
 35 33  1  0  0  0  0
 37 35  2  0  0  0  0
 40 32  1  0  0  0  0
 42 34  1  0  0  0  0
M  END
$$$$
