LCG.pdb
 OpenBabel07022418453D

 39 38  0  0  1  0  0  0  0  0999 V2000
   -0.3330   -4.5510    2.1240 C   0  0  0  0  0  0  0  0  0  0  0  0
   -0.3760   -4.3720    0.6170 C   0  0  0  0  0  0  0  0  0  0  0  0
   -0.0940   -5.6720   -0.0990 C   0  0  0  0  0  0  0  0  0  0  0  0
    0.6460   -3.2970    0.2440 C   0  0  0  0  0  0  0  0  0  0  0  0
    0.2190   -2.0410    0.9740 C   0  0  2  0  0  0  0  0  0  0  0  0
   -1.0950   -1.6770    0.5490 N   0  0  0  0  0  0  0  0  0  0  0  0
    1.1730   -0.9380    0.8300 C   0  0  0  0  0  0  0  0  0  0  0  0
    2.3830   -0.9940    1.1290 O   0  0  0  0  0  0  0  0  0  0  0  0
    0.6810   -4.2580    2.5120 H   0  0  0  0  0  0  0  0  0  0  0  0
   -0.5180   -5.5920    2.4120 H   0  0  0  0  0  0  0  0  0  0  0  0
   -1.0620   -3.9080    2.6460 H   0  0  0  0  0  0  0  0  0  0  0  0
   -1.3940   -4.0390    0.3270 H   0  0  0  0  0  0  0  0  0  0  0  0
   -0.4940   -5.6710   -1.1230 H   0  0  0  0  0  0  0  0  0  0  0  0
   -0.5750   -6.4930    0.5060 H   0  0  0  0  0  0  0  0  0  0  0  0
    0.9960   -5.8810   -0.1650 H   0  0  0  0  0  0  0  0  0  0  0  0
    0.6100   -3.1200   -0.8340 H   0  0  0  0  0  0  0  0  0  0  0  0
    1.6470   -3.6410    0.5590 H   0  0  0  0  0  0  0  0  0  0  0  0
    0.1510   -2.3330    2.0620 H   0  0  0  0  0  0  0  0  0  0  0  0
   -1.8600   -2.0890    1.1420 H   0  0  0  0  0  0  0  0  0  0  0  0
   -1.3220   -1.9810   -0.4340 H   0  0  0  0  0  0  0  0  0  0  0  0
    0.6930    0.3020    0.3100 N   0  0  0  0  0  0  0  0  0  0  0  0
    1.5670    1.4420    0.1360 C   0  0  1  0  0  0  0  0  0  0  0  0
    1.5410    1.7920   -1.3390 C   0  0  0  0  0  0  0  0  0  0  0  0
    2.6340    3.2320   -1.6100 S   0  0  0  0  0  0  0  0  0  0  0  0
    1.0720    2.5530    0.9680 C   0  0  0  0  0  0  0  0  0  0  0  0
    1.6370    3.6800    1.0190 O   0  0  0  0  0  0  0  0  0  0  0  0
   -0.3260    0.4110    0.0380 H   0  0  0  0  0  0  0  0  0  0  0  0
    2.5790    1.1570    0.4650 H   0  0  0  0  0  0  0  0  0  0  0  0
    1.9630    0.9750   -1.9580 H   0  0  0  0  0  0  0  0  0  0  0  0
    0.5350    2.0160   -1.6980 H   0  0  0  0  0  0  0  0  0  0  0  0
    3.9150    2.9310   -1.1110 H   0  0  0  0  0  0  0  0  0  0  0  0
   -0.0820    2.3950    1.7630 N   0  0  0  0  0  0  0  0  0  0  0  0
   -0.6030    3.4620    2.5960 C   0  0  0  0  0  0  0  0  0  0  0  0
   -0.9380    4.6010    1.7050 C   0  0  0  0  0  0  0  0  0  0  0  0
   -1.4040    5.6520    2.1940 O   0  0  0  0  0  0  0  0  0  0  0  0
   -0.7520    4.5400    0.3420 O   0  0  0  0  0  0  0  0  0  0  0  0
   -0.6110    1.4830    1.7770 H   0  0  0  0  0  0  0  0  0  0  0  0
    0.1800    3.7970    3.3190 H   0  0  0  0  0  0  0  0  0  0  0  0
   -1.5180    3.1540    3.1300 H   0  0  0  0  0  0  0  0  0  0  0  0
  1 10  1  0  0  0  0
  1  9  1  0  0  0  0
  1 11  1  0  0  0  0
  2  1  1  0  0  0  0
  3 14  1  0  0  0  0
  3  2  1  0  0  0  0
  4 17  1  0  0  0  0
  4  2  1  0  0  0  0
  4  5  1  0  0  0  0
  5 18  1  1  0  0  0
  6  5  1  0  0  0  0
  6 19  1  0  0  0  0
  7  5  1  0  0  0  0
  7  8  2  0  0  0  0
 12  2  1  0  0  0  0
 13  3  1  0  0  0  0
 15  3  1  0  0  0  0
 16  4  1  0  0  0  0
 20  6  1  0  0  0  0
 21  7  1  0  0  0  0
 22 21  1  0  0  0  0
 22 28  1  1  0  0  0
 22 25  1  0  0  0  0
 23 22  1  0  0  0  0
 24 23  1  0  0  0  0
 24 31  1  0  0  0  0
 25 26  2  0  0  0  0
 25 32  1  0  0  0  0
 27 21  1  0  0  0  0
 29 23  1  0  0  0  0
 30 23  1  0  0  0  0
 32 37  1  0  0  0  0
 32 33  1  0  0  0  0
 33 39  1  0  0  0  0
 33 38  1  0  0  0  0
 34 35  1  0  0  0  0
 34 33  1  0  0  0  0
 36 34  2  0  0  0  0
M  END
$$$$
