LCI.pdb
 OpenBabel07022418453D

 51 50  0  0  1  0  0  0  0  0999 V2000
   -0.1720   -2.1490    4.2600 C   0  0  0  0  0  0  0  0  0  0  0  0
    1.0180   -1.3000    3.8100 C   0  0  0  0  0  0  0  0  0  0  0  0
    0.5140    0.0540    3.4680 C   0  0  0  0  0  0  0  0  0  0  0  0
    1.6980   -2.0470    2.7100 C   0  0  0  0  0  0  0  0  0  0  0  0
    2.9010   -1.3230    2.1560 C   0  0  2  0  0  0  0  0  0  0  0  0
    3.8640   -1.0970    3.1850 N   0  0  0  0  0  0  0  0  0  0  0  0
    2.5560   -0.1250    1.3560 C   0  0  0  0  0  0  0  0  0  0  0  0
    2.9500    1.0380    1.6440 O   0  0  0  0  0  0  0  0  0  0  0  0
   -0.3510   -1.9670    5.3270 H   0  0  0  0  0  0  0  0  0  0  0  0
   -1.0610   -1.7640    3.7120 H   0  0  0  0  0  0  0  0  0  0  0  0
   -0.0360   -3.2080    3.9880 H   0  0  0  0  0  0  0  0  0  0  0  0
    1.7000   -1.2510    4.6910 H   0  0  0  0  0  0  0  0  0  0  0  0
    1.2060    0.8760    3.7540 H   0  0  0  0  0  0  0  0  0  0  0  0
    0.1650    0.1260    2.4330 H   0  0  0  0  0  0  0  0  0  0  0  0
   -0.4040    0.2490    4.1000 H   0  0  0  0  0  0  0  0  0  0  0  0
    0.9570   -2.3050    1.9500 H   0  0  0  0  0  0  0  0  0  0  0  0
    2.0810   -2.9990    3.1410 H   0  0  0  0  0  0  0  0  0  0  0  0
    3.3850   -2.0310    1.4160 H   0  0  0  0  0  0  0  0  0  0  0  0
    4.2150   -2.0240    3.5040 H   0  0  0  0  0  0  0  0  0  0  0  0
    4.6380   -0.4940    2.8430 H   0  0  0  0  0  0  0  0  0  0  0  0
    1.7320   -0.2310    0.1750 N   0  0  0  0  0  0  0  0  0  0  0  0
    1.3890    0.9310   -0.6130 C   0  0  1  0  0  0  0  0  0  0  0  0
    2.1640    0.9400   -1.9260 C   0  0  0  0  0  0  0  0  0  0  0  0
    1.7560    2.3780   -2.9290 S   0  0  0  0  0  0  0  0  0  0  0  0
   -0.0480    1.0510   -0.8220 C   0  0  0  0  0  0  0  0  0  0  0  0
   -0.6010    1.9750   -1.4740 O   0  0  0  0  0  0  0  0  0  0  0  0
    1.3950   -1.1990   -0.0850 H   0  0  0  0  0  0  0  0  0  0  0  0
    1.7830    1.8280   -0.0640 H   0  0  0  0  0  0  0  0  0  0  0  0
    1.9720    0.0350   -2.5220 H   0  0  0  0  0  0  0  0  0  0  0  0
    3.2540    0.9760   -1.7210 H   0  0  0  0  0  0  0  0  0  0  0  0
    2.1130    3.5780   -2.3240 H   0  0  0  0  0  0  0  0  0  0  0  0
   -1.0840   -2.7680   -1.1890 C   0  0  0  0  0  0  0  0  0  0  0  0
   -2.5010   -2.3350   -1.0700 C   0  0  0  0  0  0  0  0  0  0  0  0
   -2.8040   -0.9230   -1.4230 C   0  0  2  0  0  0  0  0  0  0  0  0
   -2.4280   -0.5700   -2.8390 C   0  0  0  0  0  0  0  0  0  0  0  0
   -2.3490    0.1220   -0.4400 C   0  0  2  0  0  0  0  0  0  0  0  0
   -0.9330    0.0740   -0.2690 N   0  0  0  0  0  0  0  0  0  0  0  0
   -3.1090    0.0890    0.8130 C   0  0  0  0  0  0  0  0  0  0  0  0
   -2.5090    0.0230    1.9070 O   0  0  0  0  0  0  0  0  0  0  0  0
   -4.4900    0.1300    0.8260 O   0  0  0  0  0  0  0  0  0  0  0  0
   -0.4930   -1.9750   -1.6860 H   0  0  0  0  0  0  0  0  0  0  0  0
   -0.6120   -2.9980   -0.2180 H   0  0  0  0  0  0  0  0  0  0  0  0
   -0.9690   -3.7100   -1.7870 H   0  0  0  0  0  0  0  0  0  0  0  0
   -2.8080   -2.5530   -0.0030 H   0  0  0  0  0  0  0  0  0  0  0  0
   -3.1200   -3.0520   -1.6800 H   0  0  0  0  0  0  0  0  0  0  0  0
   -3.9480   -0.8520   -1.4260 H   0  0  0  0  0  0  0  0  0  0  0  0
   -3.1940    0.0770   -3.3360 H   0  0  0  0  0  0  0  0  0  0  0  0
   -2.4650   -1.5480   -3.4040 H   0  0  0  0  0  0  0  0  0  0  0  0
   -1.4140   -0.1830   -2.9490 H   0  0  0  0  0  0  0  0  0  0  0  0
   -2.5670    1.1090   -0.9730 H   0  0  0  0  0  0  0  0  0  0  0  0
   -0.5310   -0.7030    0.2960 H   0  0  0  0  0  0  0  0  0  0  0  0
  1  9  1  0  0  0  0
  2  1  1  0  0  0  0
  2 12  1  0  0  0  0
  3 13  1  0  0  0  0
  3  2  1  0  0  0  0
  3 15  1  0  0  0  0
  4 17  1  0  0  0  0
  4  2  1  0  0  0  0
  5 18  1  6  0  0  0
  5  4  1  0  0  0  0
  5  6  1  0  0  0  0
  6 19  1  0  0  0  0
  7  8  2  0  0  0  0
  7  5  1  0  0  0  0
 10  1  1  0  0  0  0
 11  1  1  0  0  0  0
 14  3  1  0  0  0  0
 16  4  1  0  0  0  0
 20  6  1  0  0  0  0
 21  7  1  0  0  0  0
 22 28  1  1  0  0  0
 22 21  1  0  0  0  0
 23 30  1  0  0  0  0
 23 22  1  0  0  0  0
 24 31  1  0  0  0  0
 24 23  1  0  0  0  0
 25 22  1  0  0  0  0
 25 37  1  0  0  0  0
 26 25  2  0  0  0  0
 27 21  1  0  0  0  0
 29 23  1  0  0  0  0
 32 33  1  0  0  0  0
 32 42  1  0  0  0  0
 33 44  1  0  0  0  0
 34 46  1  1  0  0  0
 34 33  1  0  0  0  0
 34 36  1  0  0  0  0
 35 34  1  0  0  0  0
 36 50  1  6  0  0  0
 36 37  1  0  0  0  0
 36 38  1  0  0  0  0
 37 51  1  0  0  0  0
 38 40  2  0  0  0  0
 38 39  1  0  0  0  0
 41 32  1  0  0  0  0
 43 32  1  0  0  0  0
 45 33  1  0  0  0  0
 47 35  1  0  0  0  0
 48 35  1  0  0  0  0
 49 35  1  0  0  0  0
M  END
$$$$
