LCK.pdb
 OpenBabel07022418453D

 53 52  0  0  1  0  0  0  0  0999 V2000
    0.7440   -4.6610    2.7090 C   0  0  0  0  0  0  0  0  0  0  0  0
    0.9850   -3.9920    1.3730 C   0  0  0  0  0  0  0  0  0  0  0  0
    0.4810   -4.9330    0.3010 C   0  0  0  0  0  0  0  0  0  0  0  0
    2.4530   -3.6740    1.1730 C   0  0  0  0  0  0  0  0  0  0  0  0
    2.9900   -2.7560    2.2180 C   0  0  2  0  0  0  0  0  0  0  0  0
    2.8920   -3.2720    3.5530 N   0  0  0  0  0  0  0  0  0  0  0  0
    2.3850   -1.3950    2.1280 C   0  0  0  0  0  0  0  0  0  0  0  0
    1.8860   -0.8600    3.1330 O   0  0  0  0  0  0  0  0  0  0  0  0
   -0.1460   -5.3150    2.6050 H   0  0  0  0  0  0  0  0  0  0  0  0
    1.5960   -5.3460    2.9590 H   0  0  0  0  0  0  0  0  0  0  0  0
    0.6020   -3.9190    3.5230 H   0  0  0  0  0  0  0  0  0  0  0  0
    0.4330   -3.0300    1.3910 H   0  0  0  0  0  0  0  0  0  0  0  0
    0.4880   -5.9550    0.6800 H   0  0  0  0  0  0  0  0  0  0  0  0
   -0.4930   -4.6100   -0.1150 H   0  0  0  0  0  0  0  0  0  0  0  0
    1.2150   -4.8920   -0.5440 H   0  0  0  0  0  0  0  0  0  0  0  0
    3.0230   -4.6250    1.1880 H   0  0  0  0  0  0  0  0  0  0  0  0
    2.6350   -3.2190    0.1860 H   0  0  0  0  0  0  0  0  0  0  0  0
    4.0780   -2.6140    2.0040 H   0  0  0  0  0  0  0  0  0  0  0  0
    3.0220   -2.4740    4.2160 H   0  0  0  0  0  0  0  0  0  0  0  0
    3.6890   -3.9350    3.7240 H   0  0  0  0  0  0  0  0  0  0  0  0
    2.3420   -0.6470    0.9310 N   0  0  0  0  0  0  0  0  0  0  0  0
    1.7850    0.6460    0.7750 C   0  0  1  0  0  0  0  0  0  0  0  0
    2.7420    1.7130    0.3520 C   0  0  0  0  0  0  0  0  0  0  0  0
    4.0540    1.8630    1.5940 S   0  0  0  0  0  0  0  0  0  0  0  0
    0.6210    0.5720   -0.1410 C   0  0  0  0  0  0  0  0  0  0  0  0
    0.3040   -0.5350   -0.6230 O   0  0  0  0  0  0  0  0  0  0  0  0
    2.7660   -1.0990    0.0720 H   0  0  0  0  0  0  0  0  0  0  0  0
    1.3860    0.9600    1.7840 H   0  0  0  0  0  0  0  0  0  0  0  0
    3.1290    1.6010   -0.6660 H   0  0  0  0  0  0  0  0  0  0  0  0
    2.1790    2.6780    0.3720 H   0  0  0  0  0  0  0  0  0  0  0  0
    3.4160    2.1420    2.8280 H   0  0  0  0  0  0  0  0  0  0  0  0
   -0.1530    1.7000   -0.4990 N   0  0  0  0  0  0  0  0  0  0  0  0
   -1.2890    1.6100   -1.3950 C   0  0  1  0  0  0  0  0  0  0  0  0
   -2.5420    2.1480   -0.7930 C   0  0  0  0  0  0  0  0  0  0  0  0
   -2.9630    1.4280    0.4620 C   0  0  0  0  0  0  0  0  0  0  0  0
   -3.2380   -0.0320    0.2630 C   0  0  0  0  0  0  0  0  0  0  0  0
   -4.3290   -0.3130   -0.7210 C   0  0  0  0  0  0  0  0  0  0  0  0
   -5.5920    0.2770   -0.3150 N   0  0  0  0  0  0  0  0  0  0  0  0
   -0.9950    2.3020   -2.6860 C   0  0  0  0  0  0  0  0  0  0  0  0
    0.0970    2.8640   -2.9070 O   0  0  0  0  0  0  0  0  0  0  0  0
   -1.9670    2.3190   -3.6670 O   0  0  0  0  0  0  0  0  0  0  0  0
    0.1420    2.6150   -0.0770 H   0  0  0  0  0  0  0  0  0  0  0  0
   -1.4390    0.5370   -1.6500 H   0  0  0  0  0  0  0  0  0  0  0  0
   -3.3560    2.2520   -1.5270 H   0  0  0  0  0  0  0  0  0  0  0  0
   -2.3170    3.2060   -0.4640 H   0  0  0  0  0  0  0  0  0  0  0  0
   -3.7530    1.9550    1.0130 H   0  0  0  0  0  0  0  0  0  0  0  0
   -2.0610    1.4760    1.1450 H   0  0  0  0  0  0  0  0  0  0  0  0
   -3.6020   -0.4100    1.2630 H   0  0  0  0  0  0  0  0  0  0  0  0
   -2.3520   -0.6220    0.0080 H   0  0  0  0  0  0  0  0  0  0  0  0
   -4.4920   -1.4150   -0.7280 H   0  0  0  0  0  0  0  0  0  0  0  0
   -4.0580   -0.0400   -1.7560 H   0  0  0  0  0  0  0  0  0  0  0  0
   -6.2050    0.5330   -1.0950 H   0  0  0  0  0  0  0  0  0  0  0  0
   -5.5060    0.9540    0.4480 H   0  0  0  0  0  0  0  0  0  0  0  0
  1 10  1  0  0  0  0
  1 11  1  0  0  0  0
  2 12  1  0  0  0  0
  2  1  1  0  0  0  0
  3 13  1  0  0  0  0
  3  2  1  0  0  0  0
  4 16  1  0  0  0  0
  4  2  1  0  0  0  0
  4  5  1  0  0  0  0
  5 18  1  6  0  0  0
  5  6  1  0  0  0  0
  6 20  1  0  0  0  0
  6 19  1  0  0  0  0
  7  5  1  0  0  0  0
  7  8  2  0  0  0  0
  9  1  1  0  0  0  0
 14  3  1  0  0  0  0
 15  3  1  0  0  0  0
 17  4  1  0  0  0  0
 21  7  1  0  0  0  0
 22 21  1  0  0  0  0
 22 28  1  1  0  0  0
 23 30  1  0  0  0  0
 23 22  1  0  0  0  0
 23 24  1  0  0  0  0
 24 31  1  0  0  0  0
 25 22  1  0  0  0  0
 26 25  2  0  0  0  0
 27 21  1  0  0  0  0
 29 23  1  0  0  0  0
 32 25  1  0  0  0  0
 32 42  1  0  0  0  0
 33 43  1  6  0  0  0
 33 34  1  0  0  0  0
 33 32  1  0  0  0  0
 34 45  1  0  0  0  0
 34 35  1  0  0  0  0
 35 46  1  0  0  0  0
 35 47  1  0  0  0  0
 36 35  1  0  0  0  0
 36 48  1  0  0  0  0
 37 38  1  0  0  0  0
 37 36  1  0  0  0  0
 38 53  1  0  0  0  0
 39 33  1  0  0  0  0
 40 39  1  0  0  0  0
 41 39  2  0  0  0  0
 44 34  1  0  0  0  0
 49 36  1  0  0  0  0
 50 37  1  0  0  0  0
 51 37  1  0  0  0  0
 52 38  1  0  0  0  0
M  END
$$$$
