LCN.pdb
 OpenBabel07022418453D

 46 45  0  0  1  0  0  0  0  0999 V2000
    2.4080   -3.3550   -0.4890 C   0  0  0  0  0  0  0  0  0  0  0  0
    1.9080   -2.1640   -1.3210 C   0  0  0  0  0  0  0  0  0  0  0  0
    2.2650   -0.9240   -0.5790 C   0  0  0  0  0  0  0  0  0  0  0  0
    0.4600   -2.3950   -1.5620 C   0  0  0  0  0  0  0  0  0  0  0  0
   -0.2540   -1.3620   -2.3560 C   0  0  2  0  0  0  0  0  0  0  0  0
    0.3270   -1.2120   -3.6700 N   0  0  0  0  0  0  0  0  0  0  0  0
   -0.4610   -0.0640   -1.7360 C   0  0  0  0  0  0  0  0  0  0  0  0
   -0.0670    0.9640   -2.3420 O   0  0  0  0  0  0  0  0  0  0  0  0
    3.2890   -3.1030    0.0990 H   0  0  0  0  0  0  0  0  0  0  0  0
    1.5730   -3.5640    0.2400 H   0  0  0  0  0  0  0  0  0  0  0  0
    2.4930   -4.2590   -1.1100 H   0  0  0  0  0  0  0  0  0  0  0  0
    2.4600   -2.2640   -2.2930 H   0  0  0  0  0  0  0  0  0  0  0  0
    2.2100    0.0070   -1.1570 H   0  0  0  0  0  0  0  0  0  0  0  0
    3.3550   -1.0280   -0.2960 H   0  0  0  0  0  0  0  0  0  0  0  0
    1.7220   -0.9100    0.3650 H   0  0  0  0  0  0  0  0  0  0  0  0
    0.3760   -3.3590   -2.1300 H   0  0  0  0  0  0  0  0  0  0  0  0
   -0.0310   -2.5860   -0.5900 H   0  0  0  0  0  0  0  0  0  0  0  0
   -1.2900   -1.7840   -2.5520 H   0  0  0  0  0  0  0  0  0  0  0  0
    0.8550   -0.2950   -3.7470 H   0  0  0  0  0  0  0  0  0  0  0  0
    0.9240   -2.0290   -3.9350 H   0  0  0  0  0  0  0  0  0  0  0  0
   -1.0970    0.1300   -0.4610 N   0  0  0  0  0  0  0  0  0  0  0  0
   -1.2800    1.4480    0.1040 C   0  0  1  0  0  0  0  0  0  0  0  0
   -2.7690    1.7700    0.0130 C   0  0  0  0  0  0  0  0  0  0  0  0
   -3.1210    3.3950    0.6900 S   0  0  0  0  0  0  0  0  0  0  0  0
   -0.7870    1.5820    1.4760 C   0  0  0  0  0  0  0  0  0  0  0  0
   -0.8890    2.7170    2.0450 O   0  0  0  0  0  0  0  0  0  0  0  0
   -1.4350   -0.6850    0.0740 H   0  0  0  0  0  0  0  0  0  0  0  0
   -0.7690    2.1990   -0.5530 H   0  0  0  0  0  0  0  0  0  0  0  0
   -3.3240    1.0080    0.6180 H   0  0  0  0  0  0  0  0  0  0  0  0
   -3.0970    1.6610   -1.0390 H   0  0  0  0  0  0  0  0  0  0  0  0
   -2.6980    4.3930   -0.2140 H   0  0  0  0  0  0  0  0  0  0  0  0
   -1.4390   -2.2730    5.1170 N   0  0  0  0  0  0  0  0  0  0  0  0
   -0.6210   -1.4510    4.2930 C   0  0  0  0  0  0  0  0  0  0  0  0
    0.0540   -2.0360    3.4110 O   0  0  0  0  0  0  0  0  0  0  0  0
   -0.6290    0.0060    4.5360 C   0  0  0  0  0  0  0  0  0  0  0  0
    0.2590    0.7820    3.6050 C   0  0  2  0  0  0  0  0  0  0  0  0
   -0.1960    0.5560    2.2560 N   0  0  0  0  0  0  0  0  0  0  0  0
    1.6670    0.4350    3.8190 C   0  0  0  0  0  0  0  0  0  0  0  0
    2.3600   -0.0100    2.8720 O   0  0  0  0  0  0  0  0  0  0  0  0
    2.2820    0.5810    5.0510 O   0  0  0  0  0  0  0  0  0  0  0  0
   -1.1390   -3.2250    5.4300 H   0  0  0  0  0  0  0  0  0  0  0  0
   -2.3830   -1.9600    5.4460 H   0  0  0  0  0  0  0  0  0  0  0  0
   -0.4320    0.2660    5.6110 H   0  0  0  0  0  0  0  0  0  0  0  0
   -1.6810    0.3590    4.3250 H   0  0  0  0  0  0  0  0  0  0  0  0
    0.0580    1.8680    3.8450 H   0  0  0  0  0  0  0  0  0  0  0  0
   -0.1140   -0.3740    1.7910 H   0  0  0  0  0  0  0  0  0  0  0  0
  1  9  1  0  0  0  0
  1 10  1  0  0  0  0
  2  3  1  0  0  0  0
  2  1  1  0  0  0  0
  3 14  1  0  0  0  0
  3 15  1  0  0  0  0
  4  2  1  0  0  0  0
  4 17  1  0  0  0  0
  5 18  1  6  0  0  0
  5  7  1  0  0  0  0
  5  4  1  0  0  0  0
  6  5  1  0  0  0  0
  7 21  1  0  0  0  0
  8  7  2  0  0  0  0
 11  1  1  0  0  0  0
 12  2  1  0  0  0  0
 13  3  1  0  0  0  0
 16  4  1  0  0  0  0
 19  6  1  0  0  0  0
 20  6  1  0  0  0  0
 21 27  1  0  0  0  0
 21 22  1  0  0  0  0
 22 28  1  6  0  0  0
 22 25  1  0  0  0  0
 23 22  1  0  0  0  0
 23 29  1  0  0  0  0
 23 24  1  0  0  0  0
 25 26  2  0  0  0  0
 25 37  1  0  0  0  0
 30 23  1  0  0  0  0
 31 24  1  0  0  0  0
 32 41  1  0  0  0  0
 32 42  1  0  0  0  0
 33 35  1  0  0  0  0
 33 32  1  0  0  0  0
 34 33  2  0  0  0  0
 35 43  1  0  0  0  0
 36 38  1  0  0  0  0
 36 45  1  1  0  0  0
 36 35  1  0  0  0  0
 37 36  1  0  0  0  0
 38 40  1  0  0  0  0
 39 38  2  0  0  0  0
 44 35  1  0  0  0  0
 46 37  1  0  0  0  0
M  END
$$$$
