LCP.pdb
 OpenBabel07022418453D

 46 46  0  0  1  0  0  0  0  0999 V2000
    1.0090   -5.1080   -2.0000 C   0  0  0  0  0  0  0  0  0  0  0  0
    2.1090   -4.4560   -1.1920 C   0  0  0  0  0  0  0  0  0  0  0  0
    1.8470   -4.6270    0.2700 C   0  0  0  0  0  0  0  0  0  0  0  0
    2.5030   -3.1050   -1.6560 C   0  0  0  0  0  0  0  0  0  0  0  0
    1.4860   -2.0410   -1.7070 C   0  0  2  0  0  0  0  0  0  0  0  0
    2.1440   -0.7980   -2.1990 N   0  0  0  0  0  0  0  0  0  0  0  0
    0.8010   -1.6410   -0.4910 C   0  0  0  0  0  0  0  0  0  0  0  0
   -0.0190   -2.4280    0.0490 O   0  0  0  0  0  0  0  0  0  0  0  0
    1.2690   -5.1810   -3.0720 H   0  0  0  0  0  0  0  0  0  0  0  0
    0.0700   -4.5810   -1.8030 H   0  0  0  0  0  0  0  0  0  0  0  0
    0.8890   -6.1500   -1.6370 H   0  0  0  0  0  0  0  0  0  0  0  0
    3.0070   -5.1610   -1.3900 H   0  0  0  0  0  0  0  0  0  0  0  0
    2.4570   -5.4800    0.7220 H   0  0  0  0  0  0  0  0  0  0  0  0
    2.1730   -3.7550    0.8790 H   0  0  0  0  0  0  0  0  0  0  0  0
    0.7970   -4.9530    0.4930 H   0  0  0  0  0  0  0  0  0  0  0  0
    3.4280   -2.8240   -1.0970 H   0  0  0  0  0  0  0  0  0  0  0  0
    2.9010   -3.2500   -2.7110 H   0  0  0  0  0  0  0  0  0  0  0  0
    0.6960   -2.2180   -2.4940 H   0  0  0  0  0  0  0  0  0  0  0  0
    2.6140   -0.9850   -3.0910 H   0  0  0  0  0  0  0  0  0  0  0  0
    1.4440   -0.0460   -2.3110 H   0  0  0  0  0  0  0  0  0  0  0  0
    0.9750   -0.4010    0.1700 N   0  0  0  0  0  0  0  0  0  0  0  0
    0.2700   -0.0210    1.3970 C   0  0  1  0  0  0  0  0  0  0  0  0
    1.3900    0.0320    2.4540 C   0  0  0  0  0  0  0  0  0  0  0  0
    0.7680    0.4870    4.0680 S   0  0  0  0  0  0  0  0  0  0  0  0
   -0.4150    1.2650    1.2490 C   0  0  0  0  0  0  0  0  0  0  0  0
   -0.0300    1.9580    0.2290 O   0  0  0  0  0  0  0  0  0  0  0  0
    1.6460    0.2660   -0.2550 H   0  0  0  0  0  0  0  0  0  0  0  0
   -0.3790   -0.8510    1.6740 H   0  0  0  0  0  0  0  0  0  0  0  0
    1.7740   -1.0220    2.5230 H   0  0  0  0  0  0  0  0  0  0  0  0
    2.2180    0.6790    2.1020 H   0  0  0  0  0  0  0  0  0  0  0  0
    1.6460    1.3640    4.7560 H   0  0  0  0  0  0  0  0  0  0  0  0
   -1.4150    1.8290    2.0490 N   0  0  0  0  0  0  0  0  0  0  0  0
   -2.0980    1.3040    3.1890 C   0  0  0  0  0  0  0  0  0  0  0  0
   -3.5600    1.6440    2.8160 C   0  0  0  0  0  0  0  0  0  0  0  0
   -3.4410    2.9040    1.9970 C   0  0  0  0  0  0  0  0  0  0  0  0
   -1.9580    3.1520    1.8540 C   0  0  1  0  0  0  0  0  0  0  0  0
   -1.5560    4.1150    2.9090 C   0  0  0  0  0  0  0  0  0  0  0  0
   -2.0160    5.2820    2.8340 O   0  0  0  0  0  0  0  0  0  0  0  0
   -0.7140    3.8250    3.9680 O   0  0  0  0  0  0  0  0  0  0  0  0
   -2.0090    0.1980    3.2910 H   0  0  0  0  0  0  0  0  0  0  0  0
   -1.8680    1.8260    4.1190 H   0  0  0  0  0  0  0  0  0  0  0  0
   -3.9150    0.7830    2.2380 H   0  0  0  0  0  0  0  0  0  0  0  0
   -4.1300    1.8410    3.7420 H   0  0  0  0  0  0  0  0  0  0  0  0
   -3.8450    2.7700    0.9740 H   0  0  0  0  0  0  0  0  0  0  0  0
   -3.9400    3.7360    2.5320 H   0  0  0  0  0  0  0  0  0  0  0  0
   -1.7100    3.5480    0.8360 H   0  0  0  0  0  0  0  0  0  0  0  0
  1 10  1  0  0  0  0
  1 11  1  0  0  0  0
  1  2  1  0  0  0  0
  2  3  1  0  0  0  0
  3 15  1  0  0  0  0
  3 13  1  0  0  0  0
  3 14  1  0  0  0  0
  4  2  1  0  0  0  0
  4 16  1  0  0  0  0
  5 18  1  6  0  0  0
  5  4  1  0  0  0  0
  5  7  1  0  0  0  0
  6  5  1  0  0  0  0
  7  8  2  0  0  0  0
  7 21  1  0  0  0  0
  9  1  1  0  0  0  0
 12  2  1  0  0  0  0
 17  4  1  0  0  0  0
 19  6  1  0  0  0  0
 20  6  1  0  0  0  0
 21 22  1  0  0  0  0
 22 28  1  1  0  0  0
 22 23  1  0  0  0  0
 23 29  1  0  0  0  0
 23 24  1  0  0  0  0
 24 31  1  0  0  0  0
 25 22  1  0  0  0  0
 25 32  1  0  0  0  0
 26 25  2  0  0  0  0
 27 21  1  0  0  0  0
 30 23  1  0  0  0  0
 32 33  1  0  0  0  0
 33 40  1  0  0  0  0
 33 41  1  0  0  0  0
 34 33  1  0  0  0  0
 34 43  1  0  0  0  0
 35 45  1  0  0  0  0
 35 34  1  0  0  0  0
 36 46  1  6  0  0  0
 36 35  1  0  0  0  0
 36 32  1  0  0  0  0
 36 37  1  0  0  0  0
 37 39  1  0  0  0  0
 38 37  2  0  0  0  0
 42 34  1  0  0  0  0
 44 35  1  0  0  0  0
M  END
$$$$
