LCQ.pdb
 OpenBabel07022418453D

 49 48  0  0  1  0  0  0  0  0999 V2000
    2.0480   -4.9690    4.1520 C   0  0  0  0  0  0  0  0  0  0  0  0
    2.2420   -3.8210    3.1470 C   0  0  0  0  0  0  0  0  0  0  0  0
    1.5110   -2.6400    3.7940 C   0  0  0  0  0  0  0  0  0  0  0  0
    1.5560   -4.2480    1.8780 C   0  0  0  0  0  0  0  0  0  0  0  0
    1.6540   -3.2490    0.7750 C   0  0  2  0  0  0  0  0  0  0  0  0
    3.0270   -2.9620    0.4090 N   0  0  0  0  0  0  0  0  0  0  0  0
    0.8160   -2.0560    0.9440 C   0  0  0  0  0  0  0  0  0  0  0  0
   -0.3370   -2.1880    1.3830 O   0  0  0  0  0  0  0  0  0  0  0  0
    2.0310   -4.5600    5.1770 H   0  0  0  0  0  0  0  0  0  0  0  0
    1.0520   -5.4000    3.9470 H   0  0  0  0  0  0  0  0  0  0  0  0
    2.8000   -5.7540    3.9900 H   0  0  0  0  0  0  0  0  0  0  0  0
    3.3020   -3.5920    3.0480 H   0  0  0  0  0  0  0  0  0  0  0  0
    1.9660   -2.4420    4.8050 H   0  0  0  0  0  0  0  0  0  0  0  0
    1.6460   -1.7240    3.2220 H   0  0  0  0  0  0  0  0  0  0  0  0
    0.4440   -2.8380    3.9270 H   0  0  0  0  0  0  0  0  0  0  0  0
    0.4820   -4.4410    2.1530 H   0  0  0  0  0  0  0  0  0  0  0  0
    1.9440   -5.2550    1.5510 H   0  0  0  0  0  0  0  0  0  0  0  0
    1.2050   -3.7690   -0.1540 H   0  0  0  0  0  0  0  0  0  0  0  0
    3.0140   -2.6020   -0.5710 H   0  0  0  0  0  0  0  0  0  0  0  0
    3.5710   -3.8340    0.4880 H   0  0  0  0  0  0  0  0  0  0  0  0
    1.2680   -0.7340    0.6190 N   0  0  0  0  0  0  0  0  0  0  0  0
    0.4980    0.4570    0.7530 C   0  0  1  0  0  0  0  0  0  0  0  0
    1.1840    1.5950    1.4490 C   0  0  0  0  0  0  0  0  0  0  0  0
    1.6800    1.2160    3.1340 S   0  0  0  0  0  0  0  0  0  0  0  0
    0.0020    0.9240   -0.6070 C   0  0  0  0  0  0  0  0  0  0  0  0
    0.2730    0.3000   -1.6620 O   0  0  0  0  0  0  0  0  0  0  0  0
    2.2460   -0.6740    0.2580 H   0  0  0  0  0  0  0  0  0  0  0  0
   -0.4600    0.2470    1.3140 H   0  0  0  0  0  0  0  0  0  0  0  0
    2.0980    1.8280    0.8620 H   0  0  0  0  0  0  0  0  0  0  0  0
    0.5200    2.4840    1.4830 H   0  0  0  0  0  0  0  0  0  0  0  0
    0.6060    0.7810    3.9070 H   0  0  0  0  0  0  0  0  0  0  0  0
   -3.2500   -1.0580   -0.6720 N   0  0  0  0  0  0  0  0  0  0  0  0
   -3.1780    0.3730   -0.7190 C   0  0  0  0  0  0  0  0  0  0  0  0
   -3.0230    0.9570    0.3670 O   0  0  0  0  0  0  0  0  0  0  0  0
   -3.2970    1.0230   -2.0330 C   0  0  0  0  0  0  0  0  0  0  0  0
   -2.7290    2.3740   -2.1710 C   0  0  0  0  0  0  0  0  0  0  0  0
   -1.2470    2.5150   -2.0210 C   0  0  2  0  0  0  0  0  0  0  0  0
   -0.7950    2.1000   -0.7280 N   0  0  0  0  0  0  0  0  0  0  0  0
   -0.8250    3.8980   -2.3520 C   0  0  0  0  0  0  0  0  0  0  0  0
   -1.1260    4.4280   -3.4360 O   0  0  0  0  0  0  0  0  0  0  0  0
   -0.0830    4.6090   -1.4390 O   0  0  0  0  0  0  0  0  0  0  0  0
   -4.0360   -1.5260   -1.1390 H   0  0  0  0  0  0  0  0  0  0  0  0
   -2.5160   -1.5730   -0.1750 H   0  0  0  0  0  0  0  0  0  0  0  0
   -2.9790    0.3200   -2.8490 H   0  0  0  0  0  0  0  0  0  0  0  0
   -4.4160    1.1100   -2.2150 H   0  0  0  0  0  0  0  0  0  0  0  0
   -3.0250    2.8820   -3.1240 H   0  0  0  0  0  0  0  0  0  0  0  0
   -3.1720    3.0090   -1.3370 H   0  0  0  0  0  0  0  0  0  0  0  0
   -0.8210    1.8210   -2.8280 H   0  0  0  0  0  0  0  0  0  0  0  0
   -1.0160    2.6500    0.1560 H   0  0  0  0  0  0  0  0  0  0  0  0
  1  9  1  0  0  0  0
  2  3  1  0  0  0  0
  2  1  1  0  0  0  0
  3 15  1  0  0  0  0
  3 13  1  0  0  0  0
  4 16  1  0  0  0  0
  4  2  1  0  0  0  0
  5 18  1  6  0  0  0
  5  7  1  0  0  0  0
  5  4  1  0  0  0  0
  6 20  1  0  0  0  0
  6  5  1  0  0  0  0
  7  8  2  0  0  0  0
 10  1  1  0  0  0  0
 11  1  1  0  0  0  0
 12  2  1  0  0  0  0
 14  3  1  0  0  0  0
 17  4  1  0  0  0  0
 19  6  1  0  0  0  0
 21 22  1  0  0  0  0
 21  7  1  0  0  0  0
 22 28  1  1  0  0  0
 22 23  1  0  0  0  0
 23 30  1  0  0  0  0
 23 24  1  0  0  0  0
 24 31  1  0  0  0  0
 25 22  1  0  0  0  0
 26 25  2  0  0  0  0
 27 21  1  0  0  0  0
 29 23  1  0  0  0  0
 32 43  1  0  0  0  0
 33 32  1  0  0  0  0
 33 34  2  0  0  0  0
 35 33  1  0  0  0  0
 36 35  1  0  0  0  0
 36 37  1  0  0  0  0
 36 47  1  0  0  0  0
 37 48  1  6  0  0  0
 37 38  1  0  0  0  0
 38 25  1  0  0  0  0
 38 49  1  0  0  0  0
 39 37  1  0  0  0  0
 39 41  1  0  0  0  0
 40 39  2  0  0  0  0
 42 32  1  0  0  0  0
 44 35  1  0  0  0  0
 45 35  1  0  0  0  0
 46 36  1  0  0  0  0
M  END
$$$$
