LCR.pdb
 OpenBabel07022418453D

 55 54  0  0  1  0  0  0  0  0999 V2000
    4.3910   -1.9650    4.9480 C   0  0  0  0  0  0  0  0  0  0  0  0
    3.2970   -2.0860    3.8970 C   0  0  0  0  0  0  0  0  0  0  0  0
    2.4550   -3.2700    4.2680 C   0  0  0  0  0  0  0  0  0  0  0  0
    2.5520   -0.7900    3.8800 C   0  0  0  0  0  0  0  0  0  0  0  0
    1.4280   -0.7300    2.8940 C   0  0  2  0  0  0  0  0  0  0  0  0
    0.4140   -1.7200    3.1080 N   0  0  0  0  0  0  0  0  0  0  0  0
    1.8820   -0.6840    1.4820 C   0  0  0  0  0  0  0  0  0  0  0  0
    2.7600    0.1100    1.0680 O   0  0  0  0  0  0  0  0  0  0  0  0
    5.2090   -2.6680    4.7920 H   0  0  0  0  0  0  0  0  0  0  0  0
    4.8390   -0.9360    4.9370 H   0  0  0  0  0  0  0  0  0  0  0  0
    4.0010   -2.1120    5.9690 H   0  0  0  0  0  0  0  0  0  0  0  0
    3.8030   -2.3110    2.9390 H   0  0  0  0  0  0  0  0  0  0  0  0
    1.8230   -3.6490    3.4400 H   0  0  0  0  0  0  0  0  0  0  0  0
    1.8930   -3.1080    5.2090 H   0  0  0  0  0  0  0  0  0  0  0  0
    3.1700   -4.1100    4.5000 H   0  0  0  0  0  0  0  0  0  0  0  0
    2.1940   -0.5340    4.8870 H   0  0  0  0  0  0  0  0  0  0  0  0
    3.2880    0.0030    3.5890 H   0  0  0  0  0  0  0  0  0  0  0  0
    0.9140    0.2640    3.0640 H   0  0  0  0  0  0  0  0  0  0  0  0
   -0.3810   -1.4760    2.4430 H   0  0  0  0  0  0  0  0  0  0  0  0
    0.0080   -1.5680    4.0690 H   0  0  0  0  0  0  0  0  0  0  0  0
    1.3110   -1.5760    0.5030 N   0  0  0  0  0  0  0  0  0  0  0  0
    1.7310   -1.5510   -0.8710 C   0  0  1  0  0  0  0  0  0  0  0  0
    2.2450   -2.8850   -1.3660 C   0  0  0  0  0  0  0  0  0  0  0  0
    1.0210   -4.1900   -1.2680 S   0  0  0  0  0  0  0  0  0  0  0  0
    0.5570   -1.1730   -1.7300 C   0  0  0  0  0  0  0  0  0  0  0  0
    0.7150   -1.0850   -2.9740 O   0  0  0  0  0  0  0  0  0  0  0  0
    0.5770   -2.2640    0.7810 H   0  0  0  0  0  0  0  0  0  0  0  0
    2.5120   -0.7920   -1.0470 H   0  0  0  0  0  0  0  0  0  0  0  0
    3.1900   -3.1750   -0.8610 H   0  0  0  0  0  0  0  0  0  0  0  0
    2.5090   -2.7400   -2.4350 H   0  0  0  0  0  0  0  0  0  0  0  0
    0.2720   -4.0660   -0.1080 H   0  0  0  0  0  0  0  0  0  0  0  0
   -2.8630    3.0270    0.5660 N   0  0  0  0  0  0  0  0  0  0  0  0
   -3.7120    2.0620   -0.0130 C   0  0  0  0  0  0  0  0  0  0  0  0
   -3.8800    0.9150    0.5940 N   0  0  0  0  0  0  0  0  0  0  0  0
   -4.3990    2.2830   -1.2200 N   0  0  0  0  0  0  0  0  0  0  0  0
   -4.3380    1.3860   -2.3320 C   0  0  0  0  0  0  0  0  0  0  0  0
   -3.0440    1.3340   -3.0590 C   0  0  0  0  0  0  0  0  0  0  0  0
   -1.8550    0.8500   -2.3280 C   0  0  0  0  0  0  0  0  0  0  0  0
   -1.9080   -0.5650   -1.8520 C   0  0  2  0  0  0  0  0  0  0  0  0
   -0.6930   -0.9260   -1.1340 N   0  0  0  0  0  0  0  0  0  0  0  0
   -2.1630   -1.5300   -2.9610 C   0  0  0  0  0  0  0  0  0  0  0  0
   -1.3820   -2.4830   -3.1640 O   0  0  0  0  0  0  0  0  0  0  0  0
   -3.2500   -1.4190   -3.7950 O   0  0  0  0  0  0  0  0  0  0  0  0
   -3.2510    3.8480    1.1100 H   0  0  0  0  0  0  0  0  0  0  0  0
   -1.8300    2.9970    0.4990 H   0  0  0  0  0  0  0  0  0  0  0  0
   -3.3990    0.7170    1.4850 H   0  0  0  0  0  0  0  0  0  0  0  0
   -4.9750    3.1820   -1.2690 H   0  0  0  0  0  0  0  0  0  0  0  0
   -5.1130    1.7080   -3.0890 H   0  0  0  0  0  0  0  0  0  0  0  0
   -4.6880    0.3860   -1.9860 H   0  0  0  0  0  0  0  0  0  0  0  0
   -3.1390    0.8030   -4.0320 H   0  0  0  0  0  0  0  0  0  0  0  0
   -2.8120    2.4260   -3.3450 H   0  0  0  0  0  0  0  0  0  0  0  0
   -0.9850    0.9050   -3.0480 H   0  0  0  0  0  0  0  0  0  0  0  0
   -1.5440    1.5490   -1.5000 H   0  0  0  0  0  0  0  0  0  0  0  0
   -2.7570   -0.7650   -1.1450 H   0  0  0  0  0  0  0  0  0  0  0  0
   -0.7470   -1.0080   -0.0830 H   0  0  0  0  0  0  0  0  0  0  0  0
  1 11  1  0  0  0  0
  2  3  1  0  0  0  0
  2  1  1  0  0  0  0
  3 15  1  0  0  0  0
  3 14  1  0  0  0  0
  4  2  1  0  0  0  0
  4 16  1  0  0  0  0
  5 18  1  1  0  0  0
  5  6  1  0  0  0  0
  5  4  1  0  0  0  0
  6 20  1  0  0  0  0
  7  5  1  0  0  0  0
  8  7  2  0  0  0  0
  9  1  1  0  0  0  0
 10  1  1  0  0  0  0
 12  2  1  0  0  0  0
 13  3  1  0  0  0  0
 17  4  1  0  0  0  0
 19  6  1  0  0  0  0
 21 27  1  0  0  0  0
 21  7  1  0  0  0  0
 22 28  1  6  0  0  0
 22 21  1  0  0  0  0
 23 24  1  0  0  0  0
 23 22  1  0  0  0  0
 23 29  1  0  0  0  0
 24 31  1  0  0  0  0
 25 40  1  0  0  0  0
 25 22  1  0  0  0  0
 26 25  2  0  0  0  0
 30 23  1  0  0  0  0
 32 44  1  0  0  0  0
 33 32  1  0  0  0  0
 33 34  2  0  0  0  0
 34 46  1  0  0  0  0
 35 33  1  0  0  0  0
 36 49  1  0  0  0  0
 36 35  1  0  0  0  0
 37 36  1  0  0  0  0
 37 38  1  0  0  0  0
 38 39  1  0  0  0  0
 38 53  1  0  0  0  0
 39 54  1  1  0  0  0
 39 40  1  0  0  0  0
 40 55  1  0  0  0  0
 41 39  1  0  0  0  0
 42 41  1  0  0  0  0
 43 41  2  0  0  0  0
 45 32  1  0  0  0  0
 47 35  1  0  0  0  0
 48 36  1  0  0  0  0
 50 37  1  0  0  0  0
 51 37  1  0  0  0  0
 52 38  1  0  0  0  0
M  END
$$$$
