LCS.pdb
 OpenBabel07022418453D

 43 42  0  0  1  0  0  0  0  0999 V2000
   -1.6160   -4.0860   -0.3960 C   0  0  0  0  0  0  0  0  0  0  0  0
   -0.5050   -4.0980    0.6030 C   0  0  0  0  0  0  0  0  0  0  0  0
   -0.9230   -4.6110    1.9540 C   0  0  0  0  0  0  0  0  0  0  0  0
    0.1060   -2.7090    0.6780 C   0  0  0  0  0  0  0  0  0  0  0  0
    0.6150   -2.4220   -0.7380 C   0  0  2  0  0  0  0  0  0  0  0  0
    1.5870   -3.4580   -1.0290 N   0  0  0  0  0  0  0  0  0  0  0  0
    1.2350   -1.1070   -0.8520 C   0  0  0  0  0  0  0  0  0  0  0  0
    2.4530   -1.0030   -1.1650 O   0  0  0  0  0  0  0  0  0  0  0  0
   -2.0450   -3.0640   -0.5520 H   0  0  0  0  0  0  0  0  0  0  0  0
   -2.3940   -4.8060   -0.0460 H   0  0  0  0  0  0  0  0  0  0  0  0
   -1.2800   -4.4180   -1.4020 H   0  0  0  0  0  0  0  0  0  0  0  0
    0.3200   -4.7620    0.2170 H   0  0  0  0  0  0  0  0  0  0  0  0
   -2.0300   -4.6680    1.9590 H   0  0  0  0  0  0  0  0  0  0  0  0
   -0.5460   -5.6310    2.1080 H   0  0  0  0  0  0  0  0  0  0  0  0
   -0.6260   -3.9130    2.7570 H   0  0  0  0  0  0  0  0  0  0  0  0
   -0.6560   -1.9800    0.9840 H   0  0  0  0  0  0  0  0  0  0  0  0
    0.9470   -2.6760    1.4090 H   0  0  0  0  0  0  0  0  0  0  0  0
   -0.2510   -2.5790   -1.4070 H   0  0  0  0  0  0  0  0  0  0  0  0
    2.4750   -3.0340   -1.3780 H   0  0  0  0  0  0  0  0  0  0  0  0
    1.2100   -4.1880   -1.6870 H   0  0  0  0  0  0  0  0  0  0  0  0
    0.5580    0.1240   -0.6310 N   0  0  0  0  0  0  0  0  0  0  0  0
    1.1340    1.4150   -0.7340 C   0  0  1  0  0  0  0  0  0  0  0  0
    0.4740    2.3330   -1.7120 C   0  0  0  0  0  0  0  0  0  0  0  0
    0.5410    1.6100   -3.3820 S   0  0  0  0  0  0  0  0  0  0  0  0
    1.0990    2.0640    0.6180 C   0  0  0  0  0  0  0  0  0  0  0  0
    1.5700    3.2230    0.7260 O   0  0  0  0  0  0  0  0  0  0  0  0
   -0.4560    0.0440   -0.3710 H   0  0  0  0  0  0  0  0  0  0  0  0
    2.2050    1.3340   -1.0160 H   0  0  0  0  0  0  0  0  0  0  0  0
   -0.5420    2.6430   -1.4300 H   0  0  0  0  0  0  0  0  0  0  0  0
    1.0870    3.2630   -1.7560 H   0  0  0  0  0  0  0  0  0  0  0  0
    1.7740    0.8990   -3.4550 H   0  0  0  0  0  0  0  0  0  0  0  0
    1.7060    2.6060    4.9740 O   0  0  0  0  0  0  0  0  0  0  0  0
    1.8410    2.0400    3.7070 C   0  0  0  0  0  0  0  0  0  0  0  0
    0.4900    1.9830    3.0730 C   0  0  2  0  0  0  0  0  0  0  0  0
    0.5540    1.4040    1.7500 N   0  0  0  0  0  0  0  0  0  0  0  0
   -0.1840    3.3210    3.0670 C   0  0  0  0  0  0  0  0  0  0  0  0
   -0.2810    3.9750    4.1270 O   0  0  0  0  0  0  0  0  0  0  0  0
   -0.6780    3.7830    1.8690 O   0  0  0  0  0  0  0  0  0  0  0  0
    0.8290    2.3550    5.3990 H   0  0  0  0  0  0  0  0  0  0  0  0
    2.5090    2.6900    3.0970 H   0  0  0  0  0  0  0  0  0  0  0  0
    2.2950    1.0490    3.7440 H   0  0  0  0  0  0  0  0  0  0  0  0
   -0.1590    1.2950    3.7060 H   0  0  0  0  0  0  0  0  0  0  0  0
    0.1760    0.4400    1.6270 H   0  0  0  0  0  0  0  0  0  0  0  0
  1 10  1  0  0  0  0
  1  2  1  0  0  0  0
  2  4  1  0  0  0  0
  2  3  1  0  0  0  0
  3 13  1  0  0  0  0
  3 14  1  0  0  0  0
  3 15  1  0  0  0  0
  4 16  1  0  0  0  0
  4 17  1  0  0  0  0
  5 18  1  6  0  0  0
  5  4  1  0  0  0  0
  6  5  1  0  0  0  0
  7  5  1  0  0  0  0
  7 21  1  0  0  0  0
  8  7  2  0  0  0  0
  9  1  1  0  0  0  0
 11  1  1  0  0  0  0
 12  2  1  0  0  0  0
 19  6  1  0  0  0  0
 20  6  1  0  0  0  0
 21 27  1  0  0  0  0
 22 28  1  6  0  0  0
 22 21  1  0  0  0  0
 22 25  1  0  0  0  0
 23 29  1  0  0  0  0
 23 22  1  0  0  0  0
 24 23  1  0  0  0  0
 25 26  2  0  0  0  0
 25 35  1  0  0  0  0
 30 23  1  0  0  0  0
 31 24  1  0  0  0  0
 32 39  1  0  0  0  0
 33 41  1  0  0  0  0
 33 32  1  0  0  0  0
 34 42  1  1  0  0  0
 34 33  1  0  0  0  0
 35 34  1  0  0  0  0
 36 34  1  0  0  0  0
 36 37  1  0  0  0  0
 38 36  2  0  0  0  0
 40 33  1  0  0  0  0
 43 35  1  0  0  0  0
M  END
$$$$
