LCY.pdb
 OpenBabel07022418453D

 53 53  0  0  1  0  0  0  0  0999 V2000
    4.7270   -1.7850    2.5640 C   0  0  0  0  0  0  0  0  0  0  0  0
    3.6650   -1.8880    1.4610 C   0  0  0  0  0  0  0  0  0  0  0  0
    2.4460   -2.4300    2.1060 C   0  0  0  0  0  0  0  0  0  0  0  0
    3.5310   -0.5860    0.7670 C   0  0  0  0  0  0  0  0  0  0  0  0
    3.1240    0.5760    1.5890 C   0  0  2  0  0  0  0  0  0  0  0  0
    4.0610    0.8400    2.6720 N   0  0  0  0  0  0  0  0  0  0  0  0
    1.7350    0.6270    2.0370 C   0  0  0  0  0  0  0  0  0  0  0  0
    1.5080    0.7590    3.2910 O   0  0  0  0  0  0  0  0  0  0  0  0
    5.5640   -1.1270    2.2590 H   0  0  0  0  0  0  0  0  0  0  0  0
    4.3060   -1.3720    3.4970 H   0  0  0  0  0  0  0  0  0  0  0  0
    5.1260   -2.7880    2.8190 H   0  0  0  0  0  0  0  0  0  0  0  0
    4.0530   -2.6320    0.7360 H   0  0  0  0  0  0  0  0  0  0  0  0
    2.3820   -3.5430    2.0290 H   0  0  0  0  0  0  0  0  0  0  0  0
    1.5220   -2.0460    1.6260 H   0  0  0  0  0  0  0  0  0  0  0  0
    2.3410   -2.1970    3.1810 H   0  0  0  0  0  0  0  0  0  0  0  0
    4.5390   -0.3410    0.3310 H   0  0  0  0  0  0  0  0  0  0  0  0
    2.8550   -0.6440   -0.1150 H   0  0  0  0  0  0  0  0  0  0  0  0
    3.2440    1.4830    0.9130 H   0  0  0  0  0  0  0  0  0  0  0  0
    3.6420    1.4330    3.4170 H   0  0  0  0  0  0  0  0  0  0  0  0
    4.9760    1.1950    2.3300 H   0  0  0  0  0  0  0  0  0  0  0  0
    0.5840    0.5470    1.2260 N   0  0  0  0  0  0  0  0  0  0  0  0
   -0.7600    0.6100    1.7550 C   0  0  1  0  0  0  0  0  0  0  0  0
   -1.4000    1.9520    1.4010 C   0  0  0  0  0  0  0  0  0  0  0  0
   -3.0820    1.9380    2.1050 S   0  0  0  0  0  0  0  0  0  0  0  0
   -1.6070   -0.5130    1.2930 C   0  0  0  0  0  0  0  0  0  0  0  0
   -2.8270   -0.6100    1.6740 O   0  0  0  0  0  0  0  0  0  0  0  0
    0.7060    0.4400    0.2130 H   0  0  0  0  0  0  0  0  0  0  0  0
   -0.7630    0.6030    2.8760 H   0  0  0  0  0  0  0  0  0  0  0  0
   -1.4170    2.1410    0.3250 H   0  0  0  0  0  0  0  0  0  0  0  0
   -0.8390    2.7320    1.9480 H   0  0  0  0  0  0  0  0  0  0  0  0
   -3.0780    1.2090    3.3150 H   0  0  0  0  0  0  0  0  0  0  0  0
   -4.2370    2.1950   -3.5510 O   0  0  0  0  0  0  0  0  0  0  0  0
   -3.7310    0.9950   -3.0460 C   0  0  0  0  0  0  0  0  0  0  0  0
   -4.5890   -0.0250   -2.6820 C   0  0  0  0  0  0  0  0  0  0  0  0
   -4.1140   -1.2110   -2.1850 C   0  0  0  0  0  0  0  0  0  0  0  0
   -2.7650   -1.4010   -2.0390 C   0  0  0  0  0  0  0  0  0  0  0  0
   -2.2180   -2.6880   -1.4980 C   0  0  0  0  0  0  0  0  0  0  0  0
   -2.0850   -2.6240    0.0070 C   0  0  2  0  0  0  0  0  0  0  0  0
   -1.1900   -1.5520    0.4220 N   0  0  0  0  0  0  0  0  0  0  0  0
   -1.5700   -3.8990    0.5600 C   0  0  0  0  0  0  0  0  0  0  0  0
   -2.1490   -5.0080    0.3590 O   0  0  0  0  0  0  0  0  0  0  0  0
   -1.8870   -0.4030   -2.3930 C   0  0  0  0  0  0  0  0  0  0  0  0
   -2.3800    0.7800   -2.8910 C   0  0  0  0  0  0  0  0  0  0  0  0
   -0.4210   -3.9410    1.3310 O   0  0  0  0  0  0  0  0  0  0  0  0
   -5.0300    2.6470   -3.1030 H   0  0  0  0  0  0  0  0  0  0  0  0
   -5.6700    0.1300   -2.8000 H   0  0  0  0  0  0  0  0  0  0  0  0
   -4.8000   -2.0200   -1.8970 H   0  0  0  0  0  0  0  0  0  0  0  0
   -2.9750   -3.4660   -1.7230 H   0  0  0  0  0  0  0  0  0  0  0  0
   -1.2510   -2.8560   -1.9980 H   0  0  0  0  0  0  0  0  0  0  0  0
   -3.1020   -2.4880    0.4230 H   0  0  0  0  0  0  0  0  0  0  0  0
   -0.2090   -1.5380    0.0700 H   0  0  0  0  0  0  0  0  0  0  0  0
   -0.7970   -0.5600   -2.2750 H   0  0  0  0  0  0  0  0  0  0  0  0
   -1.6820    1.5730   -3.1720 H   0  0  0  0  0  0  0  0  0  0  0  0
  1 11  1  0  0  0  0
  1 10  1  0  0  0  0
  2  3  1  0  0  0  0
  2  1  1  0  0  0  0
  3 15  1  0  0  0  0
  4  2  1  0  0  0  0
  4  5  1  0  0  0  0
  5 18  1  6  0  0  0
  5  7  1  0  0  0  0
  5  6  1  0  0  0  0
  6 19  1  0  0  0  0
  7  8  2  0  0  0  0
  9  1  1  0  0  0  0
 12  2  1  0  0  0  0
 13  3  1  0  0  0  0
 14  3  1  0  0  0  0
 16  4  1  0  0  0  0
 17  4  1  0  0  0  0
 20  6  1  0  0  0  0
 21 22  1  0  0  0  0
 21  7  1  0  0  0  0
 22 28  1  1  0  0  0
 23 22  1  0  0  0  0
 23 30  1  0  0  0  0
 23 24  1  0  0  0  0
 24 31  1  0  0  0  0
 25 26  2  0  0  0  0
 25 22  1  0  0  0  0
 27 21  1  0  0  0  0
 29 23  1  0  0  0  0
 32 45  1  0  0  0  0
 32 33  1  0  0  0  0
 33 43  2  0  0  0  0
 33 34  1  0  0  0  0
 34 35  2  0  0  0  0
 35 36  1  0  0  0  0
 35 47  1  0  0  0  0
 36 37  1  0  0  0  0
 37 38  1  0  0  0  0
 38 39  1  0  0  0  0
 38 50  1  1  0  0  0
 38 40  1  0  0  0  0
 39 25  1  0  0  0  0
 40 44  1  0  0  0  0
 41 40  2  0  0  0  0
 42 52  1  0  0  0  0
 42 36  2  0  0  0  0
 43 42  1  0  0  0  0
 46 34  1  0  0  0  0
 48 37  1  0  0  0  0
 49 37  1  0  0  0  0
 51 39  1  0  0  0  0
 53 43  1  0  0  0  0
M  END
$$$$
