LDA.pdb
 OpenBabel07022418443D

 44 43  0  0  1  0  0  0  0  0999 V2000
   -1.5910   -1.2260   -1.7960 C   0  0  0  0  0  0  0  0  0  0  0  0
   -0.6230   -2.3550   -1.5810 C   0  0  0  0  0  0  0  0  0  0  0  0
   -0.4780   -2.6510   -0.1330 C   0  0  0  0  0  0  0  0  0  0  0  0
    0.6400   -2.2480   -2.3490 C   0  0  0  0  0  0  0  0  0  0  0  0
    1.4890   -1.0380   -2.1150 C   0  0  2  0  0  0  0  0  0  0  0  0
    2.6700   -1.2260   -3.0050 N   0  0  0  0  0  0  0  0  0  0  0  0
    1.9720   -1.0120   -0.7150 C   0  0  0  0  0  0  0  0  0  0  0  0
    3.0040   -1.6760   -0.3590 O   0  0  0  0  0  0  0  0  0  0  0  0
   -1.6550   -0.9400   -2.8730 H   0  0  0  0  0  0  0  0  0  0  0  0
   -1.4090   -0.3590   -1.1340 H   0  0  0  0  0  0  0  0  0  0  0  0
   -2.6140   -1.6190   -1.5260 H   0  0  0  0  0  0  0  0  0  0  0  0
   -1.1700   -3.2650   -2.0250 H   0  0  0  0  0  0  0  0  0  0  0  0
   -1.0550   -3.5920    0.1150 H   0  0  0  0  0  0  0  0  0  0  0  0
    0.5750   -2.9190    0.1530 H   0  0  0  0  0  0  0  0  0  0  0  0
   -0.9220   -1.8850    0.5240 H   0  0  0  0  0  0  0  0  0  0  0  0
    1.2440   -3.1810   -2.1590 H   0  0  0  0  0  0  0  0  0  0  0  0
    0.4110   -2.2960   -3.4470 H   0  0  0  0  0  0  0  0  0  0  0  0
    1.0140   -0.1110   -2.4450 H   0  0  0  0  0  0  0  0  0  0  0  0
    3.3460   -1.8710   -2.5000 H   0  0  0  0  0  0  0  0  0  0  0  0
    3.0950   -0.2620   -3.0490 H   0  0  0  0  0  0  0  0  0  0  0  0
    1.3440   -0.2530    0.3360 N   0  0  0  0  0  0  0  0  0  0  0  0
    1.9110   -0.3040    1.6620 C   0  0  1  0  0  0  0  0  0  0  0  0
    2.9190    0.8630    1.8240 C   0  0  0  0  0  0  0  0  0  0  0  0
    2.2280    2.1530    1.6330 C   0  0  0  0  0  0  0  0  0  0  0  0
    1.0010    2.2180    1.3770 O   0  0  0  0  0  0  0  0  0  0  0  0
    0.9280   -0.2080    2.7520 C   0  0  0  0  0  0  0  0  0  0  0  0
    1.2950   -0.3470    3.9770 O   0  0  0  0  0  0  0  0  0  0  0  0
    2.9340    3.3390    1.7330 O   0  0  0  0  0  0  0  0  0  0  0  0
    0.5110    0.3100    0.1170 H   0  0  0  0  0  0  0  0  0  0  0  0
    2.5770   -1.1990    1.7840 H   0  0  0  0  0  0  0  0  0  0  0  0
    3.7770    0.7140    1.1380 H   0  0  0  0  0  0  0  0  0  0  0  0
    3.3020    0.7890    2.8590 H   0  0  0  0  0  0  0  0  0  0  0  0
    2.6280    4.2090    1.2980 H   0  0  0  0  0  0  0  0  0  0  0  0
   -2.0090    1.4910    3.8050 C   0  0  0  0  0  0  0  0  0  0  0  0
   -1.3790    0.1240    3.6910 C   0  0  2  0  0  0  0  0  0  0  0  0
   -0.4490    0.0360    2.5830 N   0  0  0  0  0  0  0  0  0  0  0  0
   -2.4020   -0.9480    3.6890 C   0  0  0  0  0  0  0  0  0  0  0  0
   -2.4200   -1.8160    2.8050 O   0  0  0  0  0  0  0  0  0  0  0  0
   -3.3690   -1.0110    4.6760 O   0  0  0  0  0  0  0  0  0  0  0  0
   -1.2560    2.1550    4.2870 H   0  0  0  0  0  0  0  0  0  0  0  0
   -2.3870    1.8890    2.8650 H   0  0  0  0  0  0  0  0  0  0  0  0
   -2.8940    1.3690    4.4840 H   0  0  0  0  0  0  0  0  0  0  0  0
   -0.7860   -0.0240    4.6210 H   0  0  0  0  0  0  0  0  0  0  0  0
   -0.8180    0.1720    1.6180 H   0  0  0  0  0  0  0  0  0  0  0  0
  1  2  1  0  0  0  0
  1 11  1  0  0  0  0
  1 10  1  0  0  0  0
  2  3  1  0  0  0  0
  3 13  1  0  0  0  0
  3 14  1  0  0  0  0
  3 15  1  0  0  0  0
  4 16  1  0  0  0  0
  4  5  1  0  0  0  0
  4  2  1  0  0  0  0
  5 18  1  6  0  0  0
  5  7  1  0  0  0  0
  6 19  1  0  0  0  0
  6  5  1  0  0  0  0
  7  8  2  0  0  0  0
  7 21  1  0  0  0  0
  9  1  1  0  0  0  0
 12  2  1  0  0  0  0
 17  4  1  0  0  0  0
 20  6  1  0  0  0  0
 21 22  1  0  0  0  0
 22 30  1  1  0  0  0
 22 23  1  0  0  0  0
 22 26  1  0  0  0  0
 23 32  1  0  0  0  0
 24 28  1  0  0  0  0
 24 23  1  0  0  0  0
 25 24  2  0  0  0  0
 26 27  2  0  0  0  0
 29 21  1  0  0  0  0
 31 23  1  0  0  0  0
 33 28  1  0  0  0  0
 34 40  1  0  0  0  0
 34 42  1  0  0  0  0
 35 34  1  0  0  0  0
 35 43  1  1  0  0  0
 36 26  1  0  0  0  0
 36 35  1  0  0  0  0
 37 35  1  0  0  0  0
 37 39  1  0  0  0  0
 38 37  2  0  0  0  0
 41 34  1  0  0  0  0
 44 36  1  0  0  0  0
M  END
$$$$
