LDD.pdb
 OpenBabel07022418443D

 47 46  0  0  1  0  0  0  0  0999 V2000
    0.2520   -2.1510    3.5750 C   0  0  0  0  0  0  0  0  0  0  0  0
    0.5040   -2.6290    2.1670 C   0  0  0  0  0  0  0  0  0  0  0  0
    0.1100   -4.1080    2.1020 C   0  0  0  0  0  0  0  0  0  0  0  0
    1.9140   -2.4880    1.7160 C   0  0  0  0  0  0  0  0  0  0  0  0
    2.4190   -1.0930    1.7120 C   0  0  2  0  0  0  0  0  0  0  0  0
    2.3830   -0.5020    3.0050 N   0  0  0  0  0  0  0  0  0  0  0  0
    1.7740   -0.2810    0.6370 C   0  0  0  0  0  0  0  0  0  0  0  0
    1.4330   -0.8520   -0.4230 O   0  0  0  0  0  0  0  0  0  0  0  0
   -0.4470   -2.8760    4.1080 H   0  0  0  0  0  0  0  0  0  0  0  0
    1.2010   -2.1610    4.1560 H   0  0  0  0  0  0  0  0  0  0  0  0
   -0.2320   -1.1730    3.6270 H   0  0  0  0  0  0  0  0  0  0  0  0
   -0.1880   -2.0470    1.5000 H   0  0  0  0  0  0  0  0  0  0  0  0
    1.0150   -4.7140    2.2890 H   0  0  0  0  0  0  0  0  0  0  0  0
   -0.3460   -4.2890    1.1080 H   0  0  0  0  0  0  0  0  0  0  0  0
   -0.6470   -4.3630    2.8730 H   0  0  0  0  0  0  0  0  0  0  0  0
    2.0190   -2.9950    0.7230 H   0  0  0  0  0  0  0  0  0  0  0  0
    2.5550   -3.0880    2.4330 H   0  0  0  0  0  0  0  0  0  0  0  0
    3.5390   -1.1160    1.3940 H   0  0  0  0  0  0  0  0  0  0  0  0
    3.3110   -0.2660    3.4010 H   0  0  0  0  0  0  0  0  0  0  0  0
    1.6570    0.1860    3.1970 H   0  0  0  0  0  0  0  0  0  0  0  0
    1.5430    1.1090    0.7690 N   0  0  0  0  0  0  0  0  0  0  0  0
    0.9630    1.9840   -0.1860 C   0  0  1  0  0  0  0  0  0  0  0  0
    1.9120    2.3250   -1.2920 C   0  0  0  0  0  0  0  0  0  0  0  0
    2.4130    1.2200   -2.0940 C   0  0  0  0  0  0  0  0  0  0  0  0
    1.6840    0.7410   -3.0230 O   0  0  0  0  0  0  0  0  0  0  0  0
   -0.3970    1.6730   -0.6310 C   0  0  0  0  0  0  0  0  0  0  0  0
   -0.9030    2.3320   -1.6130 O   0  0  0  0  0  0  0  0  0  0  0  0
    3.6600    0.6160   -1.9360 O   0  0  0  0  0  0  0  0  0  0  0  0
    1.8620    1.5090    1.7140 H   0  0  0  0  0  0  0  0  0  0  0  0
    0.8270    3.0150    0.3540 H   0  0  0  0  0  0  0  0  0  0  0  0
    1.5170    3.1230   -1.9640 H   0  0  0  0  0  0  0  0  0  0  0  0
    2.8080    2.8040   -0.7960 H   0  0  0  0  0  0  0  0  0  0  0  0
    4.0770    0.1360   -2.7350 H   0  0  0  0  0  0  0  0  0  0  0  0
   -1.2260    0.6890   -0.0570 N   0  0  0  0  0  0  0  0  0  0  0  0
   -2.5520    0.4950   -0.5980 C   0  0  1  0  0  0  0  0  0  0  0  0
   -2.8670   -0.9570   -0.7070 C   0  0  0  0  0  0  0  0  0  0  0  0
   -2.8790   -1.6790    0.5700 C   0  0  0  0  0  0  0  0  0  0  0  0
   -2.7020   -1.0700    1.6710 O   0  0  0  0  0  0  0  0  0  0  0  0
   -3.5700    1.2150    0.2310 C   0  0  0  0  0  0  0  0  0  0  0  0
   -3.1840    1.8590    1.2150 O   0  0  0  0  0  0  0  0  0  0  0  0
   -3.0780   -3.0490    0.6760 O   0  0  0  0  0  0  0  0  0  0  0  0
   -4.8980    1.1640   -0.0870 O   0  0  0  0  0  0  0  0  0  0  0  0
   -0.9380    0.0920    0.7390 H   0  0  0  0  0  0  0  0  0  0  0  0
   -2.6030    0.9680   -1.5890 H   0  0  0  0  0  0  0  0  0  0  0  0
   -2.0390   -1.4190   -1.3230 H   0  0  0  0  0  0  0  0  0  0  0  0
   -3.8470   -1.1260   -1.2250 H   0  0  0  0  0  0  0  0  0  0  0  0
   -3.4160   -3.4290    1.5730 H   0  0  0  0  0  0  0  0  0  0  0  0
  1 11  1  0  0  0  0
  1  9  1  0  0  0  0
  1 10  1  0  0  0  0
  2  1  1  0  0  0  0
  3  2  1  0  0  0  0
  3 13  1  0  0  0  0
  3 15  1  0  0  0  0
  4  2  1  0  0  0  0
  4 17  1  0  0  0  0
  5 18  1  6  0  0  0
  5  4  1  0  0  0  0
  5  6  1  0  0  0  0
  6 20  1  0  0  0  0
  6 19  1  0  0  0  0
  7 21  1  0  0  0  0
  7  5  1  0  0  0  0
  8  7  2  0  0  0  0
 12  2  1  0  0  0  0
 14  3  1  0  0  0  0
 16  4  1  0  0  0  0
 21 29  1  0  0  0  0
 22 30  1  1  0  0  0
 22 21  1  0  0  0  0
 23 32  1  0  0  0  0
 23 22  1  0  0  0  0
 24 28  1  0  0  0  0
 24 23  1  0  0  0  0
 25 24  2  0  0  0  0
 26 22  1  0  0  0  0
 26 34  1  0  0  0  0
 27 26  2  0  0  0  0
 31 23  1  0  0  0  0
 33 28  1  0  0  0  0
 34 43  1  0  0  0  0
 35 44  1  6  0  0  0
 35 34  1  0  0  0  0
 35 39  1  0  0  0  0
 36 35  1  0  0  0  0
 36 37  1  0  0  0  0
 37 41  1  0  0  0  0
 37 38  2  0  0  0  0
 39 40  1  0  0  0  0
 41 47  1  0  0  0  0
 42 39  2  0  0  0  0
 45 36  1  0  0  0  0
 46 36  1  0  0  0  0
M  END
$$$$
