LDF.pdb
 OpenBabel07022418443D

 54 54  0  0  1  0  0  0  0  0999 V2000
    1.2510    2.2870    4.7490 C   0  0  0  0  0  0  0  0  0  0  0  0
    2.0390    1.3510    5.6750 C   0  0  0  0  0  0  0  0  0  0  0  0
    3.4720    1.7430    5.5650 C   0  0  0  0  0  0  0  0  0  0  0  0
    1.7050   -0.0640    5.4750 C   0  0  0  0  0  0  0  0  0  0  0  0
    1.9300   -0.6970    4.1660 C   0  0  2  0  0  0  0  0  0  0  0  0
    3.2990   -0.7090    3.6940 N   0  0  0  0  0  0  0  0  0  0  0  0
    0.9950   -0.2690    3.0800 C   0  0  0  0  0  0  0  0  0  0  0  0
   -0.2150    0.0010    3.2650 O   0  0  0  0  0  0  0  0  0  0  0  0
    1.4810    3.3420    5.0170 H   0  0  0  0  0  0  0  0  0  0  0  0
    0.1460    2.1380    4.8820 H   0  0  0  0  0  0  0  0  0  0  0  0
    1.5380    2.1110    3.7140 H   0  0  0  0  0  0  0  0  0  0  0  0
    1.6980    1.6310    6.7100 H   0  0  0  0  0  0  0  0  0  0  0  0
    3.7530    2.0830    4.5400 H   0  0  0  0  0  0  0  0  0  0  0  0
    3.6020    2.6830    6.1820 H   0  0  0  0  0  0  0  0  0  0  0  0
    4.1880    1.0160    6.0000 H   0  0  0  0  0  0  0  0  0  0  0  0
    0.6090   -0.1850    5.7200 H   0  0  0  0  0  0  0  0  0  0  0  0
    2.1960   -0.7050    6.2700 H   0  0  0  0  0  0  0  0  0  0  0  0
    1.6890   -1.8000    4.3000 H   0  0  0  0  0  0  0  0  0  0  0  0
    3.3720   -1.4640    2.9760 H   0  0  0  0  0  0  0  0  0  0  0  0
    3.8980   -1.0040    4.5060 H   0  0  0  0  0  0  0  0  0  0  0  0
    1.4810   -0.1510    1.7470 N   0  0  0  0  0  0  0  0  0  0  0  0
    0.5940    0.2830    0.6510 C   0  0  1  0  0  0  0  0  0  0  0  0
    1.2160    1.4080   -0.0890 C   0  0  0  0  0  0  0  0  0  0  0  0
    0.4760    1.9860   -1.2110 C   0  0  0  0  0  0  0  0  0  0  0  0
    0.7220    1.8000   -2.4370 O   0  0  0  0  0  0  0  0  0  0  0  0
    0.1820   -0.8430   -0.1670 C   0  0  0  0  0  0  0  0  0  0  0  0
    0.6030   -2.0310    0.0010 O   0  0  0  0  0  0  0  0  0  0  0  0
   -0.6120    2.8290   -0.9220 O   0  0  0  0  0  0  0  0  0  0  0  0
    2.4770   -0.3690    1.5030 H   0  0  0  0  0  0  0  0  0  0  0  0
   -0.3390    0.6600    1.1570 H   0  0  0  0  0  0  0  0  0  0  0  0
    2.2220    1.0920   -0.5170 H   0  0  0  0  0  0  0  0  0  0  0  0
    1.4570    2.2600    0.6000 H   0  0  0  0  0  0  0  0  0  0  0  0
   -1.2630    3.1530   -1.6260 H   0  0  0  0  0  0  0  0  0  0  0  0
   -0.7420   -0.6920   -1.2250 N   0  0  0  0  0  0  0  0  0  0  0  0
   -1.1870   -1.8270   -2.0470 C   0  0  1  0  0  0  0  0  0  0  0  0
   -2.6720   -1.7370   -2.1640 C   0  0  0  0  0  0  0  0  0  0  0  0
   -3.2840   -2.8150   -2.9670 C   0  0  0  0  0  0  0  0  0  0  0  0
   -3.6690   -3.9730   -2.2800 C   0  0  0  0  0  0  0  0  0  0  0  0
   -4.2530   -5.0190   -2.9560 C   0  0  0  0  0  0  0  0  0  0  0  0
   -4.4430   -4.8890   -4.3100 C   0  0  0  0  0  0  0  0  0  0  0  0
   -4.0660   -3.7500   -5.0000 C   0  0  0  0  0  0  0  0  0  0  0  0
   -3.4840   -2.7020   -4.3390 C   0  0  0  0  0  0  0  0  0  0  0  0
   -0.4810   -1.8810   -3.3570 C   0  0  0  0  0  0  0  0  0  0  0  0
   -0.7600   -2.8380   -4.1450 O   0  0  0  0  0  0  0  0  0  0  0  0
    0.4520   -0.9480   -3.7410 O   0  0  0  0  0  0  0  0  0  0  0  0
   -1.1910    0.2140   -1.4930 H   0  0  0  0  0  0  0  0  0  0  0  0
   -0.8940   -2.7650   -1.5320 H   0  0  0  0  0  0  0  0  0  0  0  0
   -3.1560   -1.7490   -1.1670 H   0  0  0  0  0  0  0  0  0  0  0  0
   -2.9880   -0.7680   -2.6510 H   0  0  0  0  0  0  0  0  0  0  0  0
   -3.5200   -4.0600   -1.2150 H   0  0  0  0  0  0  0  0  0  0  0  0
   -4.5690   -5.9380   -2.4580 H   0  0  0  0  0  0  0  0  0  0  0  0
   -4.9080   -5.7210   -4.8540 H   0  0  0  0  0  0  0  0  0  0  0  0
   -4.2180   -3.6510   -6.0670 H   0  0  0  0  0  0  0  0  0  0  0  0
   -3.1700   -1.7720   -4.8210 H   0  0  0  0  0  0  0  0  0  0  0  0
  1 10  1  0  0  0  0
  1  9  1  0  0  0  0
  1  2  1  0  0  0  0
  2 12  1  0  0  0  0
  3  2  1  0  0  0  0
  3 15  1  0  0  0  0
  3 14  1  0  0  0  0
  4  2  1  0  0  0  0
  4 16  1  0  0  0  0
  4 17  1  0  0  0  0
  5 18  1  1  0  0  0
  5  4  1  0  0  0  0
  6  5  1  0  0  0  0
  6 20  1  0  0  0  0
  7  8  2  0  0  0  0
  7  5  1  0  0  0  0
 11  1  1  0  0  0  0
 13  3  1  0  0  0  0
 19  6  1  0  0  0  0
 21  7  1  0  0  0  0
 22 30  1  1  0  0  0
 22 21  1  0  0  0  0
 23 32  1  0  0  0  0
 23 22  1  0  0  0  0
 24 28  1  0  0  0  0
 24 23  1  0  0  0  0
 25 24  2  0  0  0  0
 26 27  2  0  0  0  0
 26 22  1  0  0  0  0
 29 21  1  0  0  0  0
 31 23  1  0  0  0  0
 33 28  1  0  0  0  0
 34 26  1  0  0  0  0
 35 47  1  1  0  0  0
 35 34  1  0  0  0  0
 36 35  1  0  0  0  0
 36 48  1  0  0  0  0
 37 38  1  0  0  0  0
 37 36  1  0  0  0  0
 38 50  1  0  0  0  0
 39 51  1  0  0  0  0
 39 38  2  0  0  0  0
 40 39  1  0  0  0  0
 41 42  1  0  0  0  0
 41 40  2  0  0  0  0
 42 37  2  0  0  0  0
 43 35  1  0  0  0  0
 44 43  2  0  0  0  0
 45 43  1  0  0  0  0
 46 34  1  0  0  0  0
 49 36  1  0  0  0  0
 52 40  1  0  0  0  0
 53 41  1  0  0  0  0
 54 42  1  0  0  0  0
M  END
$$$$
