LDK.pdb
 OpenBabel07022418443D

 55 54  0  0  1  0  0  0  0  0999 V2000
    6.0950   -0.7510    3.1320 C   0  0  0  0  0  0  0  0  0  0  0  0
    4.7640   -1.4480    2.8430 C   0  0  0  0  0  0  0  0  0  0  0  0
    4.5050   -1.2260    1.3700 C   0  0  0  0  0  0  0  0  0  0  0  0
    3.6610   -0.8590    3.6460 C   0  0  0  0  0  0  0  0  0  0  0  0
    2.3080   -1.4520    3.4670 C   0  0  2  0  0  0  0  0  0  0  0  0
    2.2960   -2.8620    3.7990 N   0  0  0  0  0  0  0  0  0  0  0  0
    1.5780   -1.0880    2.2610 C   0  0  0  0  0  0  0  0  0  0  0  0
    1.6470    0.1410    1.9080 O   0  0  0  0  0  0  0  0  0  0  0  0
    6.5640   -0.3650    2.2090 H   0  0  0  0  0  0  0  0  0  0  0  0
    5.9740    0.0710    3.8610 H   0  0  0  0  0  0  0  0  0  0  0  0
    6.8050   -1.5090    3.5530 H   0  0  0  0  0  0  0  0  0  0  0  0
    4.8690   -2.5360    3.0480 H   0  0  0  0  0  0  0  0  0  0  0  0
    5.3180   -1.7370    0.7670 H   0  0  0  0  0  0  0  0  0  0  0  0
    4.5340   -0.1660    1.1050 H   0  0  0  0  0  0  0  0  0  0  0  0
    3.5950   -1.7640    1.1220 H   0  0  0  0  0  0  0  0  0  0  0  0
    3.9340   -1.0120    4.7320 H   0  0  0  0  0  0  0  0  0  0  0  0
    3.6740    0.2430    3.5050 H   0  0  0  0  0  0  0  0  0  0  0  0
    1.6900   -0.9940    4.3260 H   0  0  0  0  0  0  0  0  0  0  0  0
    3.0650   -2.9970    4.5130 H   0  0  0  0  0  0  0  0  0  0  0  0
    2.5540   -3.4660    2.9930 H   0  0  0  0  0  0  0  0  0  0  0  0
    0.8020   -1.9190    1.4350 N   0  0  0  0  0  0  0  0  0  0  0  0
    0.0990   -1.4870    0.2530 C   0  0  1  0  0  0  0  0  0  0  0  0
    0.3790   -2.2420   -0.9900 C   0  0  0  0  0  0  0  0  0  0  0  0
    1.8050   -2.1690   -1.3330 C   0  0  0  0  0  0  0  0  0  0  0  0
    2.5820   -3.1100   -0.9990 O   0  0  0  0  0  0  0  0  0  0  0  0
   -1.3460   -1.4190    0.5810 C   0  0  0  0  0  0  0  0  0  0  0  0
   -1.7170   -1.7130    1.7300 O   0  0  0  0  0  0  0  0  0  0  0  0
    2.3570   -1.0930   -2.0190 O   0  0  0  0  0  0  0  0  0  0  0  0
    0.7250   -2.9240    1.6920 H   0  0  0  0  0  0  0  0  0  0  0  0
    0.4110   -0.4150    0.0960 H   0  0  0  0  0  0  0  0  0  0  0  0
   -0.1670   -1.7040   -1.8200 H   0  0  0  0  0  0  0  0  0  0  0  0
   -0.0370   -3.2690   -1.0050 H   0  0  0  0  0  0  0  0  0  0  0  0
    3.2760   -0.7260   -1.7280 H   0  0  0  0  0  0  0  0  0  0  0  0
   -2.3620   -1.0280   -0.3610 N   0  0  0  0  0  0  0  0  0  0  0  0
   -3.7000   -1.0030    0.0560 C   0  0  1  0  0  0  0  0  0  0  0  0
   -4.4570    0.2280    0.2490 C   0  0  0  0  0  0  0  0  0  0  0  0
   -4.6750    1.1290   -0.8880 C   0  0  0  0  0  0  0  0  0  0  0  0
   -3.4810    1.7520   -1.5030 C   0  0  0  0  0  0  0  0  0  0  0  0
   -3.9030    2.7080   -2.6430 C   0  0  0  0  0  0  0  0  0  0  0  0
   -4.6220    2.0000   -3.6680 N   0  0  0  0  0  0  0  0  0  0  0  0
   -4.5180   -1.8640   -0.8860 C   0  0  0  0  0  0  0  0  0  0  0  0
   -5.7410   -1.9510   -0.6300 O   0  0  0  0  0  0  0  0  0  0  0  0
   -3.8970   -2.5020   -1.9630 O   0  0  0  0  0  0  0  0  0  0  0  0
   -2.0110   -0.8230   -1.3010 H   0  0  0  0  0  0  0  0  0  0  0  0
   -3.8140   -1.6230    1.0430 H   0  0  0  0  0  0  0  0  0  0  0  0
   -5.5080   -0.1060    0.5900 H   0  0  0  0  0  0  0  0  0  0  0  0
   -4.1370    0.8080    1.1760 H   0  0  0  0  0  0  0  0  0  0  0  0
   -5.3680    1.9970   -0.5940 H   0  0  0  0  0  0  0  0  0  0  0  0
   -5.3120    0.6120   -1.6750 H   0  0  0  0  0  0  0  0  0  0  0  0
   -2.9270    2.4070   -0.8020 H   0  0  0  0  0  0  0  0  0  0  0  0
   -2.8170    1.0400   -1.9810 H   0  0  0  0  0  0  0  0  0  0  0  0
   -4.4760    3.5550   -2.2330 H   0  0  0  0  0  0  0  0  0  0  0  0
   -2.9580    3.1030   -3.0590 H   0  0  0  0  0  0  0  0  0  0  0  0
   -3.9970    1.3220   -4.1610 H   0  0  0  0  0  0  0  0  0  0  0  0
   -4.9350    2.7230   -4.3620 H   0  0  0  0  0  0  0  0  0  0  0  0
  1 11  1  0  0  0  0
  1 10  1  0  0  0  0
  2 12  1  0  0  0  0
  2  1  1  0  0  0  0
  2  4  1  0  0  0  0
  3  2  1  0  0  0  0
  4 16  1  0  0  0  0
  5  4  1  0  0  0  0
  5  6  1  0  0  0  0
  5 18  1  1  0  0  0
  6 19  1  0  0  0  0
  7  5  1  0  0  0  0
  8  7  2  0  0  0  0
  9  1  1  0  0  0  0
 13  3  1  0  0  0  0
 14  3  1  0  0  0  0
 15  3  1  0  0  0  0
 17  4  1  0  0  0  0
 20  6  1  0  0  0  0
 21 29  1  0  0  0  0
 21  7  1  0  0  0  0
 22 30  1  6  0  0  0
 22 26  1  0  0  0  0
 22 21  1  0  0  0  0
 23 22  1  0  0  0  0
 24 25  2  0  0  0  0
 24 23  1  0  0  0  0
 26 27  2  0  0  0  0
 28 33  1  0  0  0  0
 28 24  1  0  0  0  0
 31 23  1  0  0  0  0
 32 23  1  0  0  0  0
 34 35  1  0  0  0  0
 34 26  1  0  0  0  0
 35 36  1  0  0  0  0
 35 45  1  1  0  0  0
 36 46  1  0  0  0  0
 36 47  1  0  0  0  0
 37 48  1  0  0  0  0
 37 36  1  0  0  0  0
 38 37  1  0  0  0  0
 38 50  1  0  0  0  0
 39 52  1  0  0  0  0
 39 38  1  0  0  0  0
 40 39  1  0  0  0  0
 41 42  1  0  0  0  0
 41 35  1  0  0  0  0
 43 41  2  0  0  0  0
 44 34  1  0  0  0  0
 49 37  1  0  0  0  0
 51 38  1  0  0  0  0
 53 39  1  0  0  0  0
 54 40  1  0  0  0  0
 55 40  1  0  0  0  0
M  END
$$$$
