LDT.pdb
 OpenBabel07022418443D

 48 47  0  0  1  0  0  0  0  0999 V2000
   -0.4910   -4.5110    0.8480 C   0  0  0  0  0  0  0  0  0  0  0  0
    0.1660   -3.2180    0.3130 C   0  0  0  0  0  0  0  0  0  0  0  0
   -0.3350   -3.0150   -1.0750 C   0  0  0  0  0  0  0  0  0  0  0  0
    1.6250   -3.4330    0.4530 C   0  0  0  0  0  0  0  0  0  0  0  0
    2.5440   -2.3630    0.0080 C   0  0  2  0  0  0  0  0  0  0  0  0
    3.9080   -2.8990    0.2900 N   0  0  0  0  0  0  0  0  0  0  0  0
    2.4690   -1.0690    0.6440 C   0  0  0  0  0  0  0  0  0  0  0  0
    3.2820   -0.7290    1.5320 O   0  0  0  0  0  0  0  0  0  0  0  0
   -1.5210   -4.3340    1.1690 H   0  0  0  0  0  0  0  0  0  0  0  0
   -0.5290   -5.1910   -0.0290 H   0  0  0  0  0  0  0  0  0  0  0  0
    0.1650   -4.9760    1.6030 H   0  0  0  0  0  0  0  0  0  0  0  0
   -0.2090   -2.4410    1.0480 H   0  0  0  0  0  0  0  0  0  0  0  0
   -1.2820   -2.4070   -0.9970 H   0  0  0  0  0  0  0  0  0  0  0  0
    0.3540   -2.4560   -1.7330 H   0  0  0  0  0  0  0  0  0  0  0  0
   -0.6580   -3.9680   -1.5740 H   0  0  0  0  0  0  0  0  0  0  0  0
    1.8090   -3.6800    1.5360 H   0  0  0  0  0  0  0  0  0  0  0  0
    1.8780   -4.3880   -0.0900 H   0  0  0  0  0  0  0  0  0  0  0  0
    2.5210   -2.3160   -1.1160 H   0  0  0  0  0  0  0  0  0  0  0  0
    4.6140   -2.1640    0.1540 H   0  0  0  0  0  0  0  0  0  0  0  0
    3.8470   -3.2570    1.2700 H   0  0  0  0  0  0  0  0  0  0  0  0
    1.4640   -0.1300    0.2720 N   0  0  0  0  0  0  0  0  0  0  0  0
    1.3590    1.1620    0.8610 C   0  0  1  0  0  0  0  0  0  0  0  0
    1.8390    2.2520   -0.1140 C   0  0  0  0  0  0  0  0  0  0  0  0
    1.0530    2.2590   -1.3630 C   0  0  0  0  0  0  0  0  0  0  0  0
   -0.0870    2.7200   -1.5070 O   0  0  0  0  0  0  0  0  0  0  0  0
   -0.0200    1.4860    1.2560 C   0  0  0  0  0  0  0  0  0  0  0  0
   -0.2700    2.5940    1.8350 O   0  0  0  0  0  0  0  0  0  0  0  0
    1.6580    1.6910   -2.4860 O   0  0  0  0  0  0  0  0  0  0  0  0
    0.8070   -0.4270   -0.4650 H   0  0  0  0  0  0  0  0  0  0  0  0
    2.0790    1.2710    1.7240 H   0  0  0  0  0  0  0  0  0  0  0  0
    2.9170    2.1660   -0.3060 H   0  0  0  0  0  0  0  0  0  0  0  0
    1.6860    3.2580    0.3620 H   0  0  0  0  0  0  0  0  0  0  0  0
    1.3980    2.0090   -3.4310 H   0  0  0  0  0  0  0  0  0  0  0  0
   -2.3240   -1.1130    2.8390 C   0  0  0  0  0  0  0  0  0  0  0  0
   -2.7780    0.3420    2.7460 C   0  0  1  0  0  0  0  0  0  0  0  0
   -1.9560    1.0450    3.6520 O   0  0  0  0  0  0  0  0  0  0  0  0
   -2.4860    0.8490    1.3710 C   0  0  2  0  0  0  0  0  0  0  0  0
   -1.1160    0.6350    1.0350 N   0  0  0  0  0  0  0  0  0  0  0  0
   -3.0200    2.1920    1.1410 C   0  0  0  0  0  0  0  0  0  0  0  0
   -4.2050    2.4370    1.5110 O   0  0  0  0  0  0  0  0  0  0  0  0
   -2.3230    3.1960    0.5510 O   0  0  0  0  0  0  0  0  0  0  0  0
   -2.7650   -1.7530    2.0740 H   0  0  0  0  0  0  0  0  0  0  0  0
   -2.4730   -1.4950    3.8840 H   0  0  0  0  0  0  0  0  0  0  0  0
   -1.2080   -1.0650    2.7270 H   0  0  0  0  0  0  0  0  0  0  0  0
   -3.8220    0.4750    3.0580 H   0  0  0  0  0  0  0  0  0  0  0  0
   -2.2380    0.7930    4.5700 H   0  0  0  0  0  0  0  0  0  0  0  0
   -3.1080    0.1960    0.6490 H   0  0  0  0  0  0  0  0  0  0  0  0
   -0.8860   -0.2830    0.5500 H   0  0  0  0  0  0  0  0  0  0  0  0
  1  9  1  0  0  0  0
  1 11  1  0  0  0  0
  2  4  1  0  0  0  0
  2  1  1  0  0  0  0
  2 12  1  0  0  0  0
  3 13  1  0  0  0  0
  3  2  1  0  0  0  0
  4 16  1  0  0  0  0
  5 18  1  6  0  0  0
  5  6  1  0  0  0  0
  5  4  1  0  0  0  0
  5  7  1  0  0  0  0
  6 20  1  0  0  0  0
  7  8  2  0  0  0  0
 10  1  1  0  0  0  0
 14  3  1  0  0  0  0
 15  3  1  0  0  0  0
 17  4  1  0  0  0  0
 19  6  1  0  0  0  0
 21  7  1  0  0  0  0
 21 22  1  0  0  0  0
 22 26  1  0  0  0  0
 22 30  1  1  0  0  0
 23 32  1  0  0  0  0
 23 22  1  0  0  0  0
 24 23  1  0  0  0  0
 25 24  2  0  0  0  0
 26 27  2  0  0  0  0
 28 24  1  0  0  0  0
 29 21  1  0  0  0  0
 31 23  1  0  0  0  0
 33 28  1  0  0  0  0
 34 43  1  0  0  0  0
 35 34  1  0  0  0  0
 35 45  1  1  0  0  0
 35 36  1  0  0  0  0
 36 46  1  0  0  0  0
 37 47  1  6  0  0  0
 37 35  1  0  0  0  0
 38 26  1  0  0  0  0
 38 37  1  0  0  0  0
 39 37  1  0  0  0  0
 39 40  1  0  0  0  0
 41 39  2  0  0  0  0
 42 34  1  0  0  0  0
 44 34  1  0  0  0  0
 48 38  1  0  0  0  0
M  END
$$$$
