LDV.pdb
 OpenBabel07022418453D

 50 49  0  0  1  0  0  0  0  0999 V2000
    1.3260   -4.3400    1.4100 C   0  0  0  0  0  0  0  0  0  0  0  0
    0.4700   -3.2460    0.8100 C   0  0  0  0  0  0  0  0  0  0  0  0
   -0.8100   -3.8810    0.3120 C   0  0  0  0  0  0  0  0  0  0  0  0
    1.1510   -2.5720   -0.3550 C   0  0  0  0  0  0  0  0  0  0  0  0
    2.4550   -1.9240    0.0100 C   0  0  2  0  0  0  0  0  0  0  0  0
    3.3660   -2.9290    0.5270 N   0  0  0  0  0  0  0  0  0  0  0  0
    2.3060   -0.7840    0.9290 C   0  0  0  0  0  0  0  0  0  0  0  0
    2.9080   -0.7640    2.0250 O   0  0  0  0  0  0  0  0  0  0  0  0
    2.0210   -3.9660    2.1890 H   0  0  0  0  0  0  0  0  0  0  0  0
    1.9470   -4.8310    0.6320 H   0  0  0  0  0  0  0  0  0  0  0  0
    0.7120   -5.1500    1.8560 H   0  0  0  0  0  0  0  0  0  0  0  0
    0.2820   -2.5280    1.6480 H   0  0  0  0  0  0  0  0  0  0  0  0
   -1.3050   -3.2980   -0.4630 H   0  0  0  0  0  0  0  0  0  0  0  0
   -1.5420   -4.0410    1.1430 H   0  0  0  0  0  0  0  0  0  0  0  0
   -0.5720   -4.8790   -0.1410 H   0  0  0  0  0  0  0  0  0  0  0  0
    1.3420   -3.3590   -1.1130 H   0  0  0  0  0  0  0  0  0  0  0  0
    0.4500   -1.8560   -0.8300 H   0  0  0  0  0  0  0  0  0  0  0  0
    2.9150   -1.6040   -0.9740 H   0  0  0  0  0  0  0  0  0  0  0  0
    4.0930   -2.5430    1.1450 H   0  0  0  0  0  0  0  0  0  0  0  0
    3.7840   -3.5010   -0.2510 H   0  0  0  0  0  0  0  0  0  0  0  0
    1.4780    0.3070    0.5820 N   0  0  0  0  0  0  0  0  0  0  0  0
    1.2650    1.4790    1.4060 C   0  0  1  0  0  0  0  0  0  0  0  0
    1.6460    2.6970    0.6140 C   0  0  0  0  0  0  0  0  0  0  0  0
    3.0610    2.7090    0.1720 C   0  0  0  0  0  0  0  0  0  0  0  0
    3.5330    3.6670   -0.5070 O   0  0  0  0  0  0  0  0  0  0  0  0
   -0.1780    1.6240    1.7530 C   0  0  0  0  0  0  0  0  0  0  0  0
   -0.5580    2.5860    2.4480 O   0  0  0  0  0  0  0  0  0  0  0  0
    3.9370    1.6870    0.4730 O   0  0  0  0  0  0  0  0  0  0  0  0
    0.9890    0.2600   -0.3350 H   0  0  0  0  0  0  0  0  0  0  0  0
    1.8820    1.4410    2.3290 H   0  0  0  0  0  0  0  0  0  0  0  0
    1.4180    3.6390    1.1870 H   0  0  0  0  0  0  0  0  0  0  0  0
    1.0340    2.7960   -0.3200 H   0  0  0  0  0  0  0  0  0  0  0  0
    4.8040    1.5420   -0.0350 H   0  0  0  0  0  0  0  0  0  0  0  0
   -2.9680    1.8240   -0.6380 C   0  0  0  0  0  0  0  0  0  0  0  0
   -3.2890    0.6730    0.2580 C   0  0  0  0  0  0  0  0  0  0  0  0
   -3.0760   -0.6330   -0.4580 C   0  0  0  0  0  0  0  0  0  0  0  0
   -2.4990    0.7010    1.5490 C   0  0  2  0  0  0  0  0  0  0  0  0
   -1.0820    0.6510    1.2740 N   0  0  0  0  0  0  0  0  0  0  0  0
   -2.8390   -0.4610    2.4050 C   0  0  0  0  0  0  0  0  0  0  0  0
   -4.0350   -0.6470    2.7850 O   0  0  0  0  0  0  0  0  0  0  0  0
   -1.9090   -1.3930    2.8360 O   0  0  0  0  0  0  0  0  0  0  0  0
   -3.7360    1.8640   -1.4410 H   0  0  0  0  0  0  0  0  0  0  0  0
   -2.9790    2.7900   -0.1330 H   0  0  0  0  0  0  0  0  0  0  0  0
   -1.9930    1.7160   -1.1590 H   0  0  0  0  0  0  0  0  0  0  0  0
   -4.3660    0.7460    0.5270 H   0  0  0  0  0  0  0  0  0  0  0  0
   -2.5660   -1.3660    0.2020 H   0  0  0  0  0  0  0  0  0  0  0  0
   -4.0620   -1.0950   -0.7390 H   0  0  0  0  0  0  0  0  0  0  0  0
   -2.5060   -0.5220   -1.3870 H   0  0  0  0  0  0  0  0  0  0  0  0
   -2.7530    1.6120    2.1540 H   0  0  0  0  0  0  0  0  0  0  0  0
   -0.7180   -0.1320    0.7020 H   0  0  0  0  0  0  0  0  0  0  0  0
  1 11  1  0  0  0  0
  1  9  1  0  0  0  0
  2  1  1  0  0  0  0
  2 12  1  0  0  0  0
  3  2  1  0  0  0  0
  3 14  1  0  0  0  0
  4  5  1  0  0  0  0
  4  2  1  0  0  0  0
  5 18  1  6  0  0  0
  5  6  1  0  0  0  0
  5  7  1  0  0  0  0
  6 19  1  0  0  0  0
  7  8  2  0  0  0  0
 10  1  1  0  0  0  0
 13  3  1  0  0  0  0
 15  3  1  0  0  0  0
 16  4  1  0  0  0  0
 17  4  1  0  0  0  0
 20  6  1  0  0  0  0
 21  7  1  0  0  0  0
 21 22  1  0  0  0  0
 22 26  1  0  0  0  0
 22 30  1  1  0  0  0
 23 31  1  0  0  0  0
 23 22  1  0  0  0  0
 24 28  1  0  0  0  0
 24 23  1  0  0  0  0
 25 24  2  0  0  0  0
 26 27  2  0  0  0  0
 29 21  1  0  0  0  0
 32 23  1  0  0  0  0
 33 28  1  0  0  0  0
 34 43  1  0  0  0  0
 34 35  1  0  0  0  0
 35 45  1  0  0  0  0
 35 37  1  0  0  0  0
 36 46  1  0  0  0  0
 36 35  1  0  0  0  0
 37 49  1  1  0  0  0
 37 39  1  0  0  0  0
 38 37  1  0  0  0  0
 38 26  1  0  0  0  0
 39 40  2  0  0  0  0
 39 41  1  0  0  0  0
 42 34  1  0  0  0  0
 44 34  1  0  0  0  0
 47 36  1  0  0  0  0
 48 36  1  0  0  0  0
 50 38  1  0  0  0  0
M  END
$$$$
