LEM.pdb
 OpenBabel07022418453D

 54 53  0  0  1  0  0  0  0  0999 V2000
    0.9890   -3.7620    3.6330 C   0  0  0  0  0  0  0  0  0  0  0  0
   -0.4140   -3.2140    3.4750 C   0  0  0  0  0  0  0  0  0  0  0  0
   -1.1390   -3.1800    4.7920 C   0  0  0  0  0  0  0  0  0  0  0  0
   -0.4610   -1.9420    2.7080 C   0  0  0  0  0  0  0  0  0  0  0  0
    0.3200   -0.8160    3.3140 C   0  0  2  0  0  0  0  0  0  0  0  0
   -0.1020   -0.4430    4.6210 N   0  0  0  0  0  0  0  0  0  0  0  0
    0.3870    0.3690    2.4240 C   0  0  0  0  0  0  0  0  0  0  0  0
    0.0790    1.5050    2.8940 O   0  0  0  0  0  0  0  0  0  0  0  0
    0.8940   -4.8570    3.7870 H   0  0  0  0  0  0  0  0  0  0  0  0
    1.5390   -3.6050    2.6870 H   0  0  0  0  0  0  0  0  0  0  0  0
    1.5040   -3.3540    4.5150 H   0  0  0  0  0  0  0  0  0  0  0  0
   -0.9580   -3.9840    2.8500 H   0  0  0  0  0  0  0  0  0  0  0  0
   -2.2110   -2.9550    4.6020 H   0  0  0  0  0  0  0  0  0  0  0  0
   -0.6860   -2.5530    5.5530 H   0  0  0  0  0  0  0  0  0  0  0  0
   -1.1220   -4.2370    5.1830 H   0  0  0  0  0  0  0  0  0  0  0  0
   -1.5200   -1.6320    2.6240 H   0  0  0  0  0  0  0  0  0  0  0  0
   -0.1120   -2.1550    1.6770 H   0  0  0  0  0  0  0  0  0  0  0  0
    1.3860   -1.1830    3.3960 H   0  0  0  0  0  0  0  0  0  0  0  0
   -0.3300    0.5930    4.6900 H   0  0  0  0  0  0  0  0  0  0  0  0
    0.6590   -0.5750    5.3490 H   0  0  0  0  0  0  0  0  0  0  0  0
    0.7740    0.3070    1.0860 N   0  0  0  0  0  0  0  0  0  0  0  0
    0.8550    1.4530    0.1730 C   0  0  1  0  0  0  0  0  0  0  0  0
    2.1750    1.5560   -0.4730 C   0  0  0  0  0  0  0  0  0  0  0  0
    2.2590    2.7460   -1.3750 C   0  0  0  0  0  0  0  0  0  0  0  0
    2.0060    3.9650   -0.5480 C   0  0  0  0  0  0  0  0  0  0  0  0
    0.8710    4.4280   -0.2960 O   0  0  0  0  0  0  0  0  0  0  0  0
   -0.2080    1.2390   -0.8080 C   0  0  0  0  0  0  0  0  0  0  0  0
   -0.4920    2.0560   -1.6960 O   0  0  0  0  0  0  0  0  0  0  0  0
    3.0890    4.6750    0.0060 O   0  0  0  0  0  0  0  0  0  0  0  0
    1.0360   -0.6060    0.6630 H   0  0  0  0  0  0  0  0  0  0  0  0
    0.5760    2.3790    0.7440 H   0  0  0  0  0  0  0  0  0  0  0  0
    2.3250    0.6570   -1.1420 H   0  0  0  0  0  0  0  0  0  0  0  0
    3.0310    1.6550    0.2310 H   0  0  0  0  0  0  0  0  0  0  0  0
    3.3050    2.8360   -1.8170 H   0  0  0  0  0  0  0  0  0  0  0  0
    1.5210    2.7090   -2.1850 H   0  0  0  0  0  0  0  0  0  0  0  0
    2.9640    5.3670    0.7180 H   0  0  0  0  0  0  0  0  0  0  0  0
    0.0580   -4.2180   -3.0610 C   0  0  0  0  0  0  0  0  0  0  0  0
   -0.1740   -2.8480   -4.2380 S   0  0  0  0  0  0  0  0  0  0  0  0
   -0.4370   -1.3120   -3.3030 C   0  0  0  0  0  0  0  0  0  0  0  0
   -1.7580   -1.4220   -2.5580 C   0  0  0  0  0  0  0  0  0  0  0  0
   -2.0350   -0.1670   -1.7550 C   0  0  2  0  0  0  0  0  0  0  0  0
   -0.9750    0.0520   -0.7770 N   0  0  0  0  0  0  0  0  0  0  0  0
   -3.3020   -0.3400   -1.0100 C   0  0  0  0  0  0  0  0  0  0  0  0
   -3.2870   -0.2800    0.2380 O   0  0  0  0  0  0  0  0  0  0  0  0
   -4.5000   -0.5670   -1.7140 O   0  0  0  0  0  0  0  0  0  0  0  0
    0.5340   -3.8250   -2.1300 H   0  0  0  0  0  0  0  0  0  0  0  0
    0.7230   -5.0030   -3.4900 H   0  0  0  0  0  0  0  0  0  0  0  0
   -0.9340   -4.6300   -2.7680 H   0  0  0  0  0  0  0  0  0  0  0  0
   -0.5270   -0.4450   -3.9880 H   0  0  0  0  0  0  0  0  0  0  0  0
    0.3630   -1.1690   -2.5460 H   0  0  0  0  0  0  0  0  0  0  0  0
   -1.7570   -2.2830   -1.8550 H   0  0  0  0  0  0  0  0  0  0  0  0
   -2.5720   -1.5220   -3.3000 H   0  0  0  0  0  0  0  0  0  0  0  0
   -2.0780    0.7080   -2.4390 H   0  0  0  0  0  0  0  0  0  0  0  0
   -0.8420   -0.7100   -0.0870 H   0  0  0  0  0  0  0  0  0  0  0  0
  1  9  1  0  0  0  0
  1 11  1  0  0  0  0
  2  1  1  0  0  0  0
  2  3  1  0  0  0  0
  3 15  1  0  0  0  0
  3 14  1  0  0  0  0
  4  5  1  0  0  0  0
  4  2  1  0  0  0  0
  5 18  1  1  0  0  0
  5  6  1  0  0  0  0
  6 19  1  0  0  0  0
  6 20  1  0  0  0  0
  7  8  2  0  0  0  0
  7  5  1  0  0  0  0
 10  1  1  0  0  0  0
 12  2  1  0  0  0  0
 13  3  1  0  0  0  0
 16  4  1  0  0  0  0
 17  4  1  0  0  0  0
 21  7  1  0  0  0  0
 22 31  1  1  0  0  0
 22 21  1  0  0  0  0
 23 22  1  0  0  0  0
 23 33  1  0  0  0  0
 24 25  1  0  0  0  0
 24 23  1  0  0  0  0
 25 26  2  0  0  0  0
 25 29  1  0  0  0  0
 27 42  1  0  0  0  0
 27 22  1  0  0  0  0
 28 27  2  0  0  0  0
 29 36  1  0  0  0  0
 30 21  1  0  0  0  0
 32 23  1  0  0  0  0
 34 24  1  0  0  0  0
 35 24  1  0  0  0  0
 37 48  1  0  0  0  0
 37 46  1  0  0  0  0
 38 39  1  0  0  0  0
 38 37  1  0  0  0  0
 39 40  1  0  0  0  0
 39 50  1  0  0  0  0
 40 51  1  0  0  0  0
 40 41  1  0  0  0  0
 41 53  1  6  0  0  0
 41 43  1  0  0  0  0
 41 42  1  0  0  0  0
 42 54  1  0  0  0  0
 43 44  1  0  0  0  0
 45 43  2  0  0  0  0
 47 37  1  0  0  0  0
 49 39  1  0  0  0  0
 52 40  1  0  0  0  0
M  END
$$$$
