LEN.pdb
 OpenBabel07022418453D

 51 50  0  0  1  0  0  0  0  0999 V2000
    1.1590   -4.2040    2.4400 C   0  0  0  0  0  0  0  0  0  0  0  0
    1.4860   -2.7760    2.8190 C   0  0  0  0  0  0  0  0  0  0  0  0
    1.7550   -2.7160    4.2860 C   0  0  0  0  0  0  0  0  0  0  0  0
    2.6040   -2.2220    1.9780 C   0  0  0  0  0  0  0  0  0  0  0  0
    2.9490   -0.7990    2.3400 C   0  0  2  0  0  0  0  0  0  0  0  0
    3.3720   -0.6950    3.7250 N   0  0  0  0  0  0  0  0  0  0  0  0
    1.8390    0.1390    2.0350 C   0  0  0  0  0  0  0  0  0  0  0  0
    1.3800    0.7980    3.0290 O   0  0  0  0  0  0  0  0  0  0  0  0
    0.0590   -4.3670    2.3180 H   0  0  0  0  0  0  0  0  0  0  0  0
    1.6070   -4.4350    1.4590 H   0  0  0  0  0  0  0  0  0  0  0  0
    1.4550   -4.9170    3.2420 H   0  0  0  0  0  0  0  0  0  0  0  0
    0.5790   -2.1730    2.6140 H   0  0  0  0  0  0  0  0  0  0  0  0
    1.4490   -1.7810    4.7790 H   0  0  0  0  0  0  0  0  0  0  0  0
    1.1770   -3.5370    4.7690 H   0  0  0  0  0  0  0  0  0  0  0  0
    2.8340   -2.9570    4.4880 H   0  0  0  0  0  0  0  0  0  0  0  0
    2.4180   -2.2780    0.9030 H   0  0  0  0  0  0  0  0  0  0  0  0
    3.5080   -2.8350    2.1960 H   0  0  0  0  0  0  0  0  0  0  0  0
    3.8120   -0.4960    1.7190 H   0  0  0  0  0  0  0  0  0  0  0  0
    4.3630   -1.0030    3.8390 H   0  0  0  0  0  0  0  0  0  0  0  0
    3.2240    0.2870    4.0880 H   0  0  0  0  0  0  0  0  0  0  0  0
    1.2940    0.3270    0.7510 N   0  0  0  0  0  0  0  0  0  0  0  0
    0.2170    1.2510    0.5240 C   0  0  1  0  0  0  0  0  0  0  0  0
    0.6580    2.3970   -0.3600 C   0  0  0  0  0  0  0  0  0  0  0  0
   -0.3870    3.4080   -0.6550 C   0  0  0  0  0  0  0  0  0  0  0  0
   -0.9590    4.0990    0.5060 C   0  0  0  0  0  0  0  0  0  0  0  0
   -0.5650    3.9040    1.6760 O   0  0  0  0  0  0  0  0  0  0  0  0
   -0.9530    0.6020   -0.0850 C   0  0  0  0  0  0  0  0  0  0  0  0
   -2.0530    1.1620   -0.2610 O   0  0  0  0  0  0  0  0  0  0  0  0
   -1.9870    5.0170    0.3410 O   0  0  0  0  0  0  0  0  0  0  0  0
    1.6800   -0.2080   -0.0300 H   0  0  0  0  0  0  0  0  0  0  0  0
   -0.0880    1.6610    1.5080 H   0  0  0  0  0  0  0  0  0  0  0  0
    1.6120    2.8500    0.0260 H   0  0  0  0  0  0  0  0  0  0  0  0
    0.9580    1.9400   -1.3440 H   0  0  0  0  0  0  0  0  0  0  0  0
   -1.1690    2.9520   -1.3000 H   0  0  0  0  0  0  0  0  0  0  0  0
    0.1230    4.2030   -1.3070 H   0  0  0  0  0  0  0  0  0  0  0  0
   -2.0960    5.8580    0.8950 H   0  0  0  0  0  0  0  0  0  0  0  0
   -4.2150   -1.5460   -3.2980 N   0  0  0  0  0  0  0  0  0  0  0  0
   -3.0010   -2.2600   -3.1470 C   0  0  0  0  0  0  0  0  0  0  0  0
   -2.9570   -3.4750   -3.4740 O   0  0  0  0  0  0  0  0  0  0  0  0
   -1.8120   -1.5640   -2.6070 C   0  0  0  0  0  0  0  0  0  0  0  0
   -1.9810   -1.4180   -1.1160 C   0  0  2  0  0  0  0  0  0  0  0  0
   -0.8510   -0.7430   -0.5110 N   0  0  0  0  0  0  0  0  0  0  0  0
   -2.2080   -2.7510   -0.5250 C   0  0  0  0  0  0  0  0  0  0  0  0
   -1.4280   -3.1510    0.3710 O   0  0  0  0  0  0  0  0  0  0  0  0
   -3.2430   -3.5790   -0.9120 O   0  0  0  0  0  0  0  0  0  0  0  0
   -5.1100   -1.8960   -2.9090 H   0  0  0  0  0  0  0  0  0  0  0  0
   -4.2280   -0.6440   -3.8110 H   0  0  0  0  0  0  0  0  0  0  0  0
   -0.9340   -2.1700   -2.8360 H   0  0  0  0  0  0  0  0  0  0  0  0
   -1.7940   -0.5650   -3.1200 H   0  0  0  0  0  0  0  0  0  0  0  0
   -2.8590   -0.7310   -0.9980 H   0  0  0  0  0  0  0  0  0  0  0  0
    0.0190   -1.3170   -0.4190 H   0  0  0  0  0  0  0  0  0  0  0  0
  1  2  1  0  0  0  0
  1 11  1  0  0  0  0
  2  3  1  0  0  0  0
  3 15  1  0  0  0  0
  3 14  1  0  0  0  0
  3 13  1  0  0  0  0
  4 17  1  0  0  0  0
  4  5  1  0  0  0  0
  4  2  1  0  0  0  0
  5 18  1  6  0  0  0
  5  6  1  0  0  0  0
  6 19  1  0  0  0  0
  6 20  1  0  0  0  0
  7  5  1  0  0  0  0
  7  8  2  0  0  0  0
  9  1  1  0  0  0  0
 10  1  1  0  0  0  0
 12  2  1  0  0  0  0
 16  4  1  0  0  0  0
 21  7  1  0  0  0  0
 22 21  1  0  0  0  0
 22 31  1  1  0  0  0
 23 32  1  0  0  0  0
 23 22  1  0  0  0  0
 24 23  1  0  0  0  0
 24 25  1  0  0  0  0
 25 26  2  0  0  0  0
 27 22  1  0  0  0  0
 28 27  2  0  0  0  0
 29 25  1  0  0  0  0
 29 36  1  0  0  0  0
 30 21  1  0  0  0  0
 33 23  1  0  0  0  0
 34 24  1  0  0  0  0
 35 24  1  0  0  0  0
 37 38  1  0  0  0  0
 37 46  1  0  0  0  0
 38 40  1  0  0  0  0
 39 38  2  0  0  0  0
 40 41  1  0  0  0  0
 41 50  1  1  0  0  0
 41 43  1  0  0  0  0
 41 42  1  0  0  0  0
 42 51  1  0  0  0  0
 42 27  1  0  0  0  0
 43 44  1  0  0  0  0
 45 43  2  0  0  0  0
 47 37  1  0  0  0  0
 48 40  1  0  0  0  0
 49 40  1  0  0  0  0
M  END
$$$$
