LEQ.pdb
 OpenBabel07022418453D

 54 53  0  0  1  0  0  0  0  0999 V2000
   -0.1330   -2.5630    3.8610 C   0  0  0  0  0  0  0  0  0  0  0  0
   -0.0770   -1.1010    3.3380 C   0  0  0  0  0  0  0  0  0  0  0  0
   -1.0300   -0.3500    4.1890 C   0  0  0  0  0  0  0  0  0  0  0  0
    1.3420   -0.7220    3.3680 C   0  0  0  0  0  0  0  0  0  0  0  0
    1.7790    0.6070    2.9330 C   0  0  2  0  0  0  0  0  0  0  0  0
    1.1950    1.6410    3.7270 N   0  0  0  0  0  0  0  0  0  0  0  0
    1.6700    0.9250    1.4920 C   0  0  0  0  0  0  0  0  0  0  0  0
    1.4030    2.1200    1.1590 O   0  0  0  0  0  0  0  0  0  0  0  0
    0.6100   -2.7410    4.6430 H   0  0  0  0  0  0  0  0  0  0  0  0
   -1.1300   -2.7960    4.2840 H   0  0  0  0  0  0  0  0  0  0  0  0
    0.0530   -3.2480    3.0110 H   0  0  0  0  0  0  0  0  0  0  0  0
   -0.4740   -1.1700    2.3260 H   0  0  0  0  0  0  0  0  0  0  0  0
   -2.0020   -0.9370    4.1460 H   0  0  0  0  0  0  0  0  0  0  0  0
   -1.3220    0.6600    3.8490 H   0  0  0  0  0  0  0  0  0  0  0  0
   -0.7980   -0.3090    5.2670 H   0  0  0  0  0  0  0  0  0  0  0  0
    1.7240   -0.9480    4.4290 H   0  0  0  0  0  0  0  0  0  0  0  0
    1.9030   -1.5050    2.7710 H   0  0  0  0  0  0  0  0  0  0  0  0
    2.9100    0.6940    3.1850 H   0  0  0  0  0  0  0  0  0  0  0  0
    0.4570    2.1440    3.2380 H   0  0  0  0  0  0  0  0  0  0  0  0
    0.8490    1.2820    4.6330 H   0  0  0  0  0  0  0  0  0  0  0  0
    1.8440    0.0090    0.4420 N   0  0  0  0  0  0  0  0  0  0  0  0
    1.7490    0.4380   -0.9470 C   0  0  1  0  0  0  0  0  0  0  0  0
    2.8650   -0.0720   -1.7700 C   0  0  0  0  0  0  0  0  0  0  0  0
    2.7950    0.3410   -3.1990 C   0  0  0  0  0  0  0  0  0  0  0  0
    2.8200    1.8030   -3.4060 C   0  0  0  0  0  0  0  0  0  0  0  0
    3.0050    2.6230   -2.4940 O   0  0  0  0  0  0  0  0  0  0  0  0
    0.4510    0.0920   -1.5670 C   0  0  0  0  0  0  0  0  0  0  0  0
    0.1640    0.4530   -2.7600 O   0  0  0  0  0  0  0  0  0  0  0  0
    2.6300    2.3530   -4.6810 O   0  0  0  0  0  0  0  0  0  0  0  0
    2.0440   -0.9950    0.6260 H   0  0  0  0  0  0  0  0  0  0  0  0
    1.7640    1.5740   -0.9680 H   0  0  0  0  0  0  0  0  0  0  0  0
    2.8140   -1.2020   -1.7240 H   0  0  0  0  0  0  0  0  0  0  0  0
    3.8770    0.2280   -1.4060 H   0  0  0  0  0  0  0  0  0  0  0  0
    1.9880   -0.0880   -3.8030 H   0  0  0  0  0  0  0  0  0  0  0  0
    3.7460   -0.0840   -3.7270 H   0  0  0  0  0  0  0  0  0  0  0  0
    2.2220    3.3030   -4.7630 H   0  0  0  0  0  0  0  0  0  0  0  0
   -3.6290   -4.4400    1.4910 N   0  0  0  0  0  0  0  0  0  0  0  0
   -3.1800   -3.9080    0.2480 C   0  0  0  0  0  0  0  0  0  0  0  0
   -3.2360   -4.6650   -0.7730 O   0  0  0  0  0  0  0  0  0  0  0  0
   -2.6560   -2.5310    0.0900 C   0  0  0  0  0  0  0  0  0  0  0  0
   -2.3530   -2.2990   -1.3870 C   0  0  0  0  0  0  0  0  0  0  0  0
   -1.8250   -0.9200   -1.6410 C   0  0  2  0  0  0  0  0  0  0  0  0
   -0.5870   -0.6460   -0.9360 N   0  0  0  0  0  0  0  0  0  0  0  0
   -2.8970    0.0330   -1.1840 C   0  0  0  0  0  0  0  0  0  0  0  0
   -4.0110   -0.0560   -1.7380 O   0  0  0  0  0  0  0  0  0  0  0  0
   -2.7120    0.9800   -0.2030 O   0  0  0  0  0  0  0  0  0  0  0  0
   -3.9200   -3.8660    2.3080 H   0  0  0  0  0  0  0  0  0  0  0  0
   -3.6770   -5.4830    1.6110 H   0  0  0  0  0  0  0  0  0  0  0  0
   -3.3170   -1.7480    0.5140 H   0  0  0  0  0  0  0  0  0  0  0  0
   -1.7140   -2.4980    0.6920 H   0  0  0  0  0  0  0  0  0  0  0  0
   -3.2430   -2.5250   -2.0020 H   0  0  0  0  0  0  0  0  0  0  0  0
   -1.5490   -3.0280   -1.6480 H   0  0  0  0  0  0  0  0  0  0  0  0
   -1.7230   -0.7420   -2.7140 H   0  0  0  0  0  0  0  0  0  0  0  0
   -0.4490   -0.9920    0.0290 H   0  0  0  0  0  0  0  0  0  0  0  0
  1 10  1  0  0  0  0
  1  9  1  0  0  0  0
  2  4  1  0  0  0  0
  2  1  1  0  0  0  0
  2  3  1  0  0  0  0
  3 15  1  0  0  0  0
  4 16  1  0  0  0  0
  5 18  1  1  0  0  0
  5  4  1  0  0  0  0
  5  6  1  0  0  0  0
  6 20  1  0  0  0  0
  7  5  1  0  0  0  0
  8  7  2  0  0  0  0
 11  1  1  0  0  0  0
 12  2  1  0  0  0  0
 13  3  1  0  0  0  0
 14  3  1  0  0  0  0
 17  4  1  0  0  0  0
 19  6  1  0  0  0  0
 21 30  1  0  0  0  0
 21  7  1  0  0  0  0
 22 31  1  6  0  0  0
 22 21  1  0  0  0  0
 23 32  1  0  0  0  0
 23 33  1  0  0  0  0
 23 22  1  0  0  0  0
 24 23  1  0  0  0  0
 25 24  1  0  0  0  0
 25 26  2  0  0  0  0
 27 22  1  0  0  0  0
 27 43  1  0  0  0  0
 28 27  2  0  0  0  0
 29 25  1  0  0  0  0
 34 24  1  0  0  0  0
 35 24  1  0  0  0  0
 36 29  1  0  0  0  0
 37 48  1  0  0  0  0
 37 47  1  0  0  0  0
 38 37  1  0  0  0  0
 39 38  2  0  0  0  0
 40 38  1  0  0  0  0
 40 49  1  0  0  0  0
 40 50  1  0  0  0  0
 41 40  1  0  0  0  0
 42 53  1  6  0  0  0
 42 41  1  0  0  0  0
 42 44  1  0  0  0  0
 42 43  1  0  0  0  0
 43 54  1  0  0  0  0
 44 46  1  0  0  0  0
 45 44  2  0  0  0  0
 51 41  1  0  0  0  0
 52 41  1  0  0  0  0
M  END
$$$$
