LES.pdb
 OpenBabel07022418453D

 48 47  0  0  1  0  0  0  0  0999 V2000
    1.2280   -4.4140    0.2750 C   0  0  0  0  0  0  0  0  0  0  0  0
    1.4550   -3.3330    1.3210 C   0  0  0  0  0  0  0  0  0  0  0  0
    0.1150   -2.9460    1.8780 C   0  0  0  0  0  0  0  0  0  0  0  0
    2.2260   -2.2130    0.7080 C   0  0  0  0  0  0  0  0  0  0  0  0
    2.4930   -1.0760    1.6780 C   0  0  2  0  0  0  0  0  0  0  0  0
    3.2220   -1.5210    2.8170 N   0  0  0  0  0  0  0  0  0  0  0  0
    1.3050   -0.2610    1.9800 C   0  0  0  0  0  0  0  0  0  0  0  0
    0.8900   -0.1450    3.1560 O   0  0  0  0  0  0  0  0  0  0  0  0
    0.7060   -5.3080    0.7120 H   0  0  0  0  0  0  0  0  0  0  0  0
    0.5310   -3.9890   -0.4910 H   0  0  0  0  0  0  0  0  0  0  0  0
    2.1570   -4.7210   -0.2440 H   0  0  0  0  0  0  0  0  0  0  0  0
    2.0820   -3.8210    2.1300 H   0  0  0  0  0  0  0  0  0  0  0  0
    0.2080   -2.7710    2.9900 H   0  0  0  0  0  0  0  0  0  0  0  0
   -0.3750   -2.1040    1.4090 H   0  0  0  0  0  0  0  0  0  0  0  0
   -0.6230   -3.8060    1.8280 H   0  0  0  0  0  0  0  0  0  0  0  0
    1.6790   -1.8130   -0.1430 H   0  0  0  0  0  0  0  0  0  0  0  0
    3.2190   -2.5990    0.4220 H   0  0  0  0  0  0  0  0  0  0  0  0
    3.1830   -0.3880    1.1000 H   0  0  0  0  0  0  0  0  0  0  0  0
    3.9610   -0.8260    3.0590 H   0  0  0  0  0  0  0  0  0  0  0  0
    3.7160   -2.4210    2.5930 H   0  0  0  0  0  0  0  0  0  0  0  0
    0.5860    0.4240    0.9640 N   0  0  0  0  0  0  0  0  0  0  0  0
   -0.5850    1.2150    1.3300 C   0  0  1  0  0  0  0  0  0  0  0  0
   -0.2820    2.6530    0.9200 C   0  0  0  0  0  0  0  0  0  0  0  0
    0.9250    3.1880    1.6180 C   0  0  0  0  0  0  0  0  0  0  0  0
    0.8280    3.2540    3.0830 C   0  0  0  0  0  0  0  0  0  0  0  0
   -0.1710    3.8300    3.6320 O   0  0  0  0  0  0  0  0  0  0  0  0
   -1.7330    0.6910    0.5620 C   0  0  0  0  0  0  0  0  0  0  0  0
   -2.9080    1.1750    0.7260 O   0  0  0  0  0  0  0  0  0  0  0  0
    1.7830    2.7120    3.9470 O   0  0  0  0  0  0  0  0  0  0  0  0
    0.8790    0.3790   -0.0290 H   0  0  0  0  0  0  0  0  0  0  0  0
   -0.8020    1.1730    2.4010 H   0  0  0  0  0  0  0  0  0  0  0  0
   -0.1230    2.7120   -0.1750 H   0  0  0  0  0  0  0  0  0  0  0  0
   -1.1310    3.3340    1.1460 H   0  0  0  0  0  0  0  0  0  0  0  0
    1.0450    4.2560    1.2620 H   0  0  0  0  0  0  0  0  0  0  0  0
    1.8650    2.6820    1.3310 H   0  0  0  0  0  0  0  0  0  0  0  0
    1.7160    2.7570    4.9380 H   0  0  0  0  0  0  0  0  0  0  0  0
   -1.6220   -0.7330   -3.2710 O   0  0  0  0  0  0  0  0  0  0  0  0
   -2.7450   -0.3630   -2.5840 C   0  0  0  0  0  0  0  0  0  0  0  0
   -2.7710   -0.8520   -1.1340 C   0  0  2  0  0  0  0  0  0  0  0  0
   -1.6500   -0.3530   -0.3920 N   0  0  0  0  0  0  0  0  0  0  0  0
   -2.9970   -2.2950   -1.0620 C   0  0  0  0  0  0  0  0  0  0  0  0
   -2.2200   -3.0140   -0.3900 O   0  0  0  0  0  0  0  0  0  0  0  0
   -4.0430   -2.9310   -1.7080 O   0  0  0  0  0  0  0  0  0  0  0  0
   -1.6510   -0.5240   -4.2230 H   0  0  0  0  0  0  0  0  0  0  0  0
   -3.6990   -0.7690   -3.0280 H   0  0  0  0  0  0  0  0  0  0  0  0
   -2.8480    0.7510   -2.5840 H   0  0  0  0  0  0  0  0  0  0  0  0
   -3.6730   -0.3050   -0.7060 H   0  0  0  0  0  0  0  0  0  0  0  0
   -0.7010   -0.7740   -0.5490 H   0  0  0  0  0  0  0  0  0  0  0  0
  1  9  1  0  0  0  0
  1  2  1  0  0  0  0
  2  3  1  0  0  0  0
  2 12  1  0  0  0  0
  3 13  1  0  0  0  0
  4  2  1  0  0  0  0
  4  5  1  0  0  0  0
  5 18  1  6  0  0  0
  5  7  1  0  0  0  0
  5  6  1  0  0  0  0
  6 19  1  0  0  0  0
  7  8  2  0  0  0  0
 10  1  1  0  0  0  0
 11  1  1  0  0  0  0
 14  3  1  0  0  0  0
 15  3  1  0  0  0  0
 16  4  1  0  0  0  0
 17  4  1  0  0  0  0
 20  6  1  0  0  0  0
 21 22  1  0  0  0  0
 21  7  1  0  0  0  0
 22 31  1  1  0  0  0
 23 33  1  0  0  0  0
 23 22  1  0  0  0  0
 23 24  1  0  0  0  0
 24 25  1  0  0  0  0
 25 26  2  0  0  0  0
 25 29  1  0  0  0  0
 27 28  2  0  0  0  0
 27 22  1  0  0  0  0
 29 36  1  0  0  0  0
 30 21  1  0  0  0  0
 32 23  1  0  0  0  0
 34 24  1  0  0  0  0
 35 24  1  0  0  0  0
 37 38  1  0  0  0  0
 38 46  1  0  0  0  0
 38 39  1  0  0  0  0
 39 41  1  0  0  0  0
 39 47  1  1  0  0  0
 39 40  1  0  0  0  0
 40 27  1  0  0  0  0
 41 42  1  0  0  0  0
 43 41  2  0  0  0  0
 44 37  1  0  0  0  0
 45 38  1  0  0  0  0
 48 40  1  0  0  0  0
M  END
$$$$
