LET.pdb
 OpenBabel07022418453D

 51 50  0  0  1  0  0  0  0  0999 V2000
    2.3250   -3.3040   -1.9900 C   0  0  0  0  0  0  0  0  0  0  0  0
    2.7220   -2.6760   -0.6610 C   0  0  0  0  0  0  0  0  0  0  0  0
    1.7260   -3.1430    0.3490 C   0  0  0  0  0  0  0  0  0  0  0  0
    2.8540   -1.2090   -0.8380 C   0  0  0  0  0  0  0  0  0  0  0  0
    3.2470   -0.4320    0.3910 C   0  0  2  0  0  0  0  0  0  0  0  0
    4.5290   -0.9000    0.9100 N   0  0  0  0  0  0  0  0  0  0  0  0
    2.2640   -0.4360    1.4640 C   0  0  0  0  0  0  0  0  0  0  0  0
    2.5830   -0.9530    2.5890 O   0  0  0  0  0  0  0  0  0  0  0  0
    1.5010   -2.7170   -2.4360 H   0  0  0  0  0  0  0  0  0  0  0  0
    3.1590   -3.3360   -2.7030 H   0  0  0  0  0  0  0  0  0  0  0  0
    1.9590   -4.3270   -1.7540 H   0  0  0  0  0  0  0  0  0  0  0  0
    3.7180   -3.0810   -0.3680 H   0  0  0  0  0  0  0  0  0  0  0  0
    1.2970   -4.1500    0.0490 H   0  0  0  0  0  0  0  0  0  0  0  0
    0.8500   -2.4960    0.4680 H   0  0  0  0  0  0  0  0  0  0  0  0
    2.1780   -3.3470    1.3440 H   0  0  0  0  0  0  0  0  0  0  0  0
    3.6390   -0.9870   -1.6110 H   0  0  0  0  0  0  0  0  0  0  0  0
    1.8680   -0.8200   -1.1750 H   0  0  0  0  0  0  0  0  0  0  0  0
    3.4690    0.6060    0.0160 H   0  0  0  0  0  0  0  0  0  0  0  0
    5.3320   -0.5510    0.3580 H   0  0  0  0  0  0  0  0  0  0  0  0
    4.6430   -0.6000    1.9100 H   0  0  0  0  0  0  0  0  0  0  0  0
    0.9550    0.1010    1.3650 N   0  0  0  0  0  0  0  0  0  0  0  0
    0.0760    0.0400    2.4960 C   0  0  1  0  0  0  0  0  0  0  0  0
   -0.0870    1.4020    3.1540 C   0  0  0  0  0  0  0  0  0  0  0  0
   -0.6540    2.4310    2.2290 C   0  0  0  0  0  0  0  0  0  0  0  0
   -0.7620    3.7050    2.9860 C   0  0  0  0  0  0  0  0  0  0  0  0
   -0.4120    3.8080    4.1950 O   0  0  0  0  0  0  0  0  0  0  0  0
   -1.2320   -0.5350    2.1150 C   0  0  0  0  0  0  0  0  0  0  0  0
   -2.1260   -0.6740    2.9890 O   0  0  0  0  0  0  0  0  0  0  0  0
   -1.2600    4.8700    2.4000 O   0  0  0  0  0  0  0  0  0  0  0  0
    0.6850    0.5270    0.4470 H   0  0  0  0  0  0  0  0  0  0  0  0
    0.5620   -0.5670    3.2880 H   0  0  0  0  0  0  0  0  0  0  0  0
    0.9150    1.6980    3.5240 H   0  0  0  0  0  0  0  0  0  0  0  0
   -0.7460    1.2720    4.0110 H   0  0  0  0  0  0  0  0  0  0  0  0
   -1.7050    2.1350    1.9770 H   0  0  0  0  0  0  0  0  0  0  0  0
   -0.0590    2.6260    1.3370 H   0  0  0  0  0  0  0  0  0  0  0  0
   -1.7300    5.5790    2.9760 H   0  0  0  0  0  0  0  0  0  0  0  0
   -2.8200   -0.3670   -1.7670 C   0  0  0  0  0  0  0  0  0  0  0  0
   -3.5880   -0.6290   -0.5130 C   0  0  1  0  0  0  0  0  0  0  0  0
   -4.8180   -1.2400   -0.7610 O   0  0  0  0  0  0  0  0  0  0  0  0
   -2.8450   -1.5000    0.4720 C   0  0  2  0  0  0  0  0  0  0  0  0
   -1.5410   -0.9450    0.7970 N   0  0  0  0  0  0  0  0  0  0  0  0
   -2.7540   -2.8700   -0.0180 C   0  0  0  0  0  0  0  0  0  0  0  0
   -1.6440   -3.4420   -0.1210 O   0  0  0  0  0  0  0  0  0  0  0  0
   -3.8920   -3.5520   -0.3730 O   0  0  0  0  0  0  0  0  0  0  0  0
   -3.3770   -0.6770   -2.6820 H   0  0  0  0  0  0  0  0  0  0  0  0
   -1.8490   -0.8700   -1.7540 H   0  0  0  0  0  0  0  0  0  0  0  0
   -2.6410    0.7350   -1.9010 H   0  0  0  0  0  0  0  0  0  0  0  0
   -3.8270    0.3290    0.0270 H   0  0  0  0  0  0  0  0  0  0  0  0
   -5.1310   -1.5920    0.1170 H   0  0  0  0  0  0  0  0  0  0  0  0
   -3.4580   -1.5170    1.4100 H   0  0  0  0  0  0  0  0  0  0  0  0
   -0.8370   -0.8540    0.0330 H   0  0  0  0  0  0  0  0  0  0  0  0
  1 11  1  0  0  0  0
  1  2  1  0  0  0  0
  2 12  1  0  0  0  0
  2  3  1  0  0  0  0
  3 14  1  0  0  0  0
  3 15  1  0  0  0  0
  4  2  1  0  0  0  0
  4  5  1  0  0  0  0
  5 18  1  6  0  0  0
  5  6  1  0  0  0  0
  5  7  1  0  0  0  0
  6 20  1  0  0  0  0
  7  8  2  0  0  0  0
  9  1  1  0  0  0  0
 10  1  1  0  0  0  0
 13  3  1  0  0  0  0
 16  4  1  0  0  0  0
 17  4  1  0  0  0  0
 19  6  1  0  0  0  0
 21  7  1  0  0  0  0
 21 22  1  0  0  0  0
 22 23  1  0  0  0  0
 22 31  1  1  0  0  0
 23 32  1  0  0  0  0
 23 33  1  0  0  0  0
 24 25  1  0  0  0  0
 24 23  1  0  0  0  0
 25 26  2  0  0  0  0
 27 22  1  0  0  0  0
 27 28  2  0  0  0  0
 29 36  1  0  0  0  0
 29 25  1  0  0  0  0
 30 21  1  0  0  0  0
 34 24  1  0  0  0  0
 35 24  1  0  0  0  0
 37 46  1  0  0  0  0
 37 38  1  0  0  0  0
 38 48  1  1  0  0  0
 38 40  1  0  0  0  0
 39 38  1  0  0  0  0
 39 49  1  0  0  0  0
 40 41  1  0  0  0  0
 40 50  1  1  0  0  0
 41 27  1  0  0  0  0
 42 40  1  0  0  0  0
 43 42  1  0  0  0  0
 44 42  2  0  0  0  0
 45 37  1  0  0  0  0
 47 37  1  0  0  0  0
 51 41  1  0  0  0  0
M  END
$$$$
