LEW.pdb
 OpenBabel07022418453D

 61 62  0  0  1  0  0  0  0  0999 V2000
    2.3260    0.4360    4.1810 C   0  0  0  0  0  0  0  0  0  0  0  0
    3.5990   -0.2260    3.8060 C   0  0  0  0  0  0  0  0  0  0  0  0
    4.6500    0.8630    3.6300 C   0  0  0  0  0  0  0  0  0  0  0  0
    3.5980   -1.1820    2.7080 C   0  0  0  0  0  0  0  0  0  0  0  0
    3.1980   -0.8090    1.3470 C   0  0  2  0  0  0  0  0  0  0  0  0
    3.9400    0.2170    0.6850 N   0  0  0  0  0  0  0  0  0  0  0  0
    1.7190   -0.6720    1.1280 C   0  0  0  0  0  0  0  0  0  0  0  0
    0.8980   -1.4300    1.7030 O   0  0  0  0  0  0  0  0  0  0  0  0
    2.4540    0.8250    5.2390 H   0  0  0  0  0  0  0  0  0  0  0  0
    2.0460    1.3050    3.5970 H   0  0  0  0  0  0  0  0  0  0  0  0
    1.5180   -0.3310    4.2830 H   0  0  0  0  0  0  0  0  0  0  0  0
    3.9410   -0.7760    4.7390 H   0  0  0  0  0  0  0  0  0  0  0  0
    4.7370    1.3590    4.6410 H   0  0  0  0  0  0  0  0  0  0  0  0
    5.6430    0.4380    3.3810 H   0  0  0  0  0  0  0  0  0  0  0  0
    4.2790    1.6130    2.9340 H   0  0  0  0  0  0  0  0  0  0  0  0
    4.6370   -1.6290    2.6420 H   0  0  0  0  0  0  0  0  0  0  0  0
    2.9730   -2.0840    2.9910 H   0  0  0  0  0  0  0  0  0  0  0  0
    3.4440   -1.7330    0.7150 H   0  0  0  0  0  0  0  0  0  0  0  0
    3.6500    0.1960   -0.3370 H   0  0  0  0  0  0  0  0  0  0  0  0
    4.9500   -0.0310    0.7650 H   0  0  0  0  0  0  0  0  0  0  0  0
    1.1700    0.3150    0.2640 N   0  0  0  0  0  0  0  0  0  0  0  0
   -0.2730    0.4020    0.0840 C   0  0  1  0  0  0  0  0  0  0  0  0
   -0.7890    1.7890    0.3430 C   0  0  0  0  0  0  0  0  0  0  0  0
   -0.4790    2.2250    1.7350 C   0  0  0  0  0  0  0  0  0  0  0  0
   -1.0930    1.4040    2.7840 C   0  0  0  0  0  0  0  0  0  0  0  0
   -1.8750    0.4640    2.5370 O   0  0  0  0  0  0  0  0  0  0  0  0
   -0.6340   -0.0450   -1.3090 C   0  0  0  0  0  0  0  0  0  0  0  0
    0.2810   -0.4310   -2.0660 O   0  0  0  0  0  0  0  0  0  0  0  0
   -0.8230    1.6430    4.1510 O   0  0  0  0  0  0  0  0  0  0  0  0
    1.7810    0.9860   -0.2490 H   0  0  0  0  0  0  0  0  0  0  0  0
   -0.7700   -0.3100    0.7600 H   0  0  0  0  0  0  0  0  0  0  0  0
   -1.9050    1.7350    0.2170 H   0  0  0  0  0  0  0  0  0  0  0  0
   -0.3660    2.5110   -0.3980 H   0  0  0  0  0  0  0  0  0  0  0  0
   -0.8250    3.2860    1.9070 H   0  0  0  0  0  0  0  0  0  0  0  0
    0.6260    2.1890    1.9050 H   0  0  0  0  0  0  0  0  0  0  0  0
   -1.4990    1.3080    4.8250 H   0  0  0  0  0  0  0  0  0  0  0  0
   -1.9570   -0.0330   -1.7540 N   0  0  0  0  0  0  0  0  0  0  0  0
   -2.3150   -0.4580   -3.0830 C   0  0  1  0  0  0  0  0  0  0  0  0
   -3.2490   -1.6200   -3.1520 C   0  0  0  0  0  0  0  0  0  0  0  0
   -2.7730   -2.8650   -2.5430 C   0  0  0  0  0  0  0  0  0  0  0  0
   -2.1710   -3.9530   -3.1580 C   0  0  0  0  0  0  0  0  0  0  0  0
   -1.8610   -4.8660   -2.2320 N   0  0  0  0  0  0  0  0  0  0  0  0
   -2.2370   -4.4280   -1.0110 C   0  0  0  0  0  0  0  0  0  0  0  0
   -2.1290   -5.0240    0.2260 C   0  0  0  0  0  0  0  0  0  0  0  0
   -2.6190   -4.3310    1.3150 C   0  0  0  0  0  0  0  0  0  0  0  0
   -3.1930   -3.0900    1.1700 C   0  0  0  0  0  0  0  0  0  0  0  0
   -3.2910   -2.5100   -0.0790 C   0  0  0  0  0  0  0  0  0  0  0  0
   -2.8110   -3.1680   -1.2070 C   0  0  0  0  0  0  0  0  0  0  0  0
   -2.9840    0.6840   -3.7610 C   0  0  0  0  0  0  0  0  0  0  0  0
   -3.3970    0.5730   -4.9420 O   0  0  0  0  0  0  0  0  0  0  0  0
   -3.1670    1.8880   -3.1170 O   0  0  0  0  0  0  0  0  0  0  0  0
   -2.6790    0.3210   -1.0700 H   0  0  0  0  0  0  0  0  0  0  0  0
   -1.3630   -0.6580   -3.6410 H   0  0  0  0  0  0  0  0  0  0  0  0
   -3.5330   -1.8680   -4.2040 H   0  0  0  0  0  0  0  0  0  0  0  0
   -4.2230   -1.3360   -2.6730 H   0  0  0  0  0  0  0  0  0  0  0  0
   -2.0030   -4.0040   -4.2110 H   0  0  0  0  0  0  0  0  0  0  0  0
   -1.3920   -5.8020   -2.3920 H   0  0  0  0  0  0  0  0  0  0  0  0
   -1.6910   -5.9910    0.3990 H   0  0  0  0  0  0  0  0  0  0  0  0
   -2.5590   -4.7520    2.2990 H   0  0  0  0  0  0  0  0  0  0  0  0
   -3.5830   -2.5310    2.0090 H   0  0  0  0  0  0  0  0  0  0  0  0
   -3.7540   -1.5340   -0.2130 H   0  0  0  0  0  0  0  0  0  0  0  0
  1 11  1  0  0  0  0
  1  9  1  0  0  0  0
  2  1  1  0  0  0  0
  2 12  1  0  0  0  0
  3  2  1  0  0  0  0
  3 13  1  0  0  0  0
  4 17  1  0  0  0  0
  4  2  1  0  0  0  0
  5 18  1  6  0  0  0
  5  4  1  0  0  0  0
  6 20  1  0  0  0  0
  6  5  1  0  0  0  0
  7  5  1  0  0  0  0
  7  8  2  0  0  0  0
 10  1  1  0  0  0  0
 14  3  1  0  0  0  0
 15  3  1  0  0  0  0
 16  4  1  0  0  0  0
 19  6  1  0  0  0  0
 21  7  1  0  0  0  0
 22 21  1  0  0  0  0
 22 23  1  0  0  0  0
 22 31  1  1  0  0  0
 23 24  1  0  0  0  0
 24 35  1  0  0  0  0
 24 34  1  0  0  0  0
 24 25  1  0  0  0  0
 25 29  1  0  0  0  0
 26 25  2  0  0  0  0
 27 22  1  0  0  0  0
 28 27  2  0  0  0  0
 29 36  1  0  0  0  0
 30 21  1  0  0  0  0
 32 23  1  0  0  0  0
 33 23  1  0  0  0  0
 37 27  1  0  0  0  0
 37 52  1  0  0  0  0
 38 53  1  6  0  0  0
 38 37  1  0  0  0  0
 39 38  1  0  0  0  0
 39 55  1  0  0  0  0
 39 40  1  0  0  0  0
 40 48  1  0  0  0  0
 41 40  2  0  0  0  0
 41 42  1  0  0  0  0
 42 43  1  0  0  0  0
 43 44  1  0  0  0  0
 44 58  1  0  0  0  0
 44 45  2  0  0  0  0
 45 59  1  0  0  0  0
 46 45  1  0  0  0  0
 46 60  1  0  0  0  0
 47 46  2  0  0  0  0
 48 43  2  0  0  0  0
 48 47  1  0  0  0  0
 49 51  1  0  0  0  0
 49 38  1  0  0  0  0
 50 49  2  0  0  0  0
 54 39  1  0  0  0  0
 56 41  1  0  0  0  0
 57 42  1  0  0  0  0
 61 47  1  0  0  0  0
M  END
$$$$
