LFK.pdb
 OpenBabel07022418473D

 62 62  0  0  1  0  0  0  0  0999 V2000
    4.5580    0.4090    4.2210 C   0  0  0  0  0  0  0  0  0  0  0  0
    3.8880   -0.6100    3.2950 C   0  0  0  0  0  0  0  0  0  0  0  0
    4.1480   -2.0090    3.7500 C   0  0  0  0  0  0  0  0  0  0  0  0
    4.3340   -0.3350    1.9060 C   0  0  0  0  0  0  0  0  0  0  0  0
    3.7620   -1.2710    0.8730 C   0  0  2  0  0  0  0  0  0  0  0  0
    4.3290   -0.8260   -0.4040 N   0  0  0  0  0  0  0  0  0  0  0  0
    2.2900   -1.1190    0.8720 C   0  0  0  0  0  0  0  0  0  0  0  0
    1.6370   -1.5610    1.8420 O   0  0  0  0  0  0  0  0  0  0  0  0
    5.5750    0.6600    3.8930 H   0  0  0  0  0  0  0  0  0  0  0  0
    3.9740    1.3470    4.2860 H   0  0  0  0  0  0  0  0  0  0  0  0
    4.5330   -0.0540    5.2420 H   0  0  0  0  0  0  0  0  0  0  0  0
    2.7980   -0.3780    3.3810 H   0  0  0  0  0  0  0  0  0  0  0  0
    3.5330   -2.1650    4.6810 H   0  0  0  0  0  0  0  0  0  0  0  0
    5.2300   -2.0880    4.0080 H   0  0  0  0  0  0  0  0  0  0  0  0
    3.8010   -2.7560    3.0370 H   0  0  0  0  0  0  0  0  0  0  0  0
    5.4350   -0.2210    1.8060 H   0  0  0  0  0  0  0  0  0  0  0  0
    3.9240    0.6830    1.6320 H   0  0  0  0  0  0  0  0  0  0  0  0
    4.0870   -2.3230    1.0780 H   0  0  0  0  0  0  0  0  0  0  0  0
    4.1940   -1.5070   -1.1580 H   0  0  0  0  0  0  0  0  0  0  0  0
    5.3740   -0.7820   -0.2310 H   0  0  0  0  0  0  0  0  0  0  0  0
    1.5710   -0.4910   -0.1860 N   0  0  0  0  0  0  0  0  0  0  0  0
    0.1360   -0.3370   -0.1990 C   0  0  1  0  0  0  0  0  0  0  0  0
   -0.2810    1.1110   -0.2610 C   0  0  0  0  0  0  0  0  0  0  0  0
    0.2320    1.8650    0.9130 C   0  0  0  0  0  0  0  0  0  0  0  0
   -0.5450    1.9440    2.0500 C   0  0  0  0  0  0  0  0  0  0  0  0
   -0.0900    2.6460    3.1710 C   0  0  0  0  0  0  0  0  0  0  0  0
    1.1400    3.2710    3.1660 C   0  0  0  0  0  0  0  0  0  0  0  0
    1.9270    3.1930    2.0190 C   0  0  0  0  0  0  0  0  0  0  0  0
    1.4620    2.4960    0.9200 C   0  0  0  0  0  0  0  0  0  0  0  0
   -0.4300   -1.1550   -1.2780 C   0  0  0  0  0  0  0  0  0  0  0  0
    0.3440   -1.8400   -1.9880 O   0  0  0  0  0  0  0  0  0  0  0  0
    2.1560   -0.1380   -0.9750 H   0  0  0  0  0  0  0  0  0  0  0  0
   -0.3200   -0.7540    0.7490 H   0  0  0  0  0  0  0  0  0  0  0  0
   -1.3380    1.2590   -0.4540 H   0  0  0  0  0  0  0  0  0  0  0  0
    0.2630    1.5460   -1.1520 H   0  0  0  0  0  0  0  0  0  0  0  0
   -1.5050    1.4460    2.0310 H   0  0  0  0  0  0  0  0  0  0  0  0
   -0.7040    2.7030    4.0560 H   0  0  0  0  0  0  0  0  0  0  0  0
    1.4480    3.8000    4.0530 H   0  0  0  0  0  0  0  0  0  0  0  0
    2.8920    3.6950    2.0410 H   0  0  0  0  0  0  0  0  0  0  0  0
    2.0740    2.4320    0.0220 H   0  0  0  0  0  0  0  0  0  0  0  0
   -1.8130   -1.2300   -1.5860 N   0  0  0  0  0  0  0  0  0  0  0  0
   -2.3400   -2.0480   -2.6560 C   0  0  1  0  0  0  0  0  0  0  0  0
   -3.3040   -3.0970   -2.1260 C   0  0  0  0  0  0  0  0  0  0  0  0
   -4.4770   -2.4310   -1.4220 C   0  0  0  0  0  0  0  0  0  0  0  0
   -5.4480   -3.4500   -0.8870 C   0  0  0  0  0  0  0  0  0  0  0  0
   -6.6120   -2.7990   -0.1910 C   0  0  0  0  0  0  0  0  0  0  0  0
   -7.3340   -1.9290   -1.1310 N   0  0  0  0  0  0  0  0  0  0  0  0
   -2.9790   -1.2240   -3.7130 C   0  0  0  0  0  0  0  0  0  0  0  0
   -2.9810    0.0210   -3.5530 O   0  0  0  0  0  0  0  0  0  0  0  0
   -3.5650   -1.7400   -4.8520 O   0  0  0  0  0  0  0  0  0  0  0  0
   -2.4460   -0.6540   -0.9880 H   0  0  0  0  0  0  0  0  0  0  0  0
   -1.4880   -2.6060   -3.1210 H   0  0  0  0  0  0  0  0  0  0  0  0
   -2.7970   -3.7970   -1.4350 H   0  0  0  0  0  0  0  0  0  0  0  0
   -3.7300   -3.7060   -2.9480 H   0  0  0  0  0  0  0  0  0  0  0  0
   -5.0450   -1.7770   -2.1130 H   0  0  0  0  0  0  0  0  0  0  0  0
   -4.1540   -1.7960   -0.5760 H   0  0  0  0  0  0  0  0  0  0  0  0
   -4.9790   -4.1430   -0.1590 H   0  0  0  0  0  0  0  0  0  0  0  0
   -5.8560   -4.0850   -1.7010 H   0  0  0  0  0  0  0  0  0  0  0  0
   -6.3040   -2.2020    0.6900 H   0  0  0  0  0  0  0  0  0  0  0  0
   -7.3060   -3.5920    0.1220 H   0  0  0  0  0  0  0  0  0  0  0  0
   -7.0260   -0.9510   -0.9530 H   0  0  0  0  0  0  0  0  0  0  0  0
   -7.1090   -2.1740   -2.1160 H   0  0  0  0  0  0  0  0  0  0  0  0
  1 10  1  0  0  0  0
  1 11  1  0  0  0  0
  2 12  1  0  0  0  0
  2  3  1  0  0  0  0
  2  1  1  0  0  0  0
  3 14  1  0  0  0  0
  3 13  1  0  0  0  0
  4  2  1  0  0  0  0
  5 18  1  1  0  0  0
  5  4  1  0  0  0  0
  6 20  1  0  0  0  0
  6  5  1  0  0  0  0
  7  5  1  0  0  0  0
  7  8  2  0  0  0  0
  9  1  1  0  0  0  0
 15  3  1  0  0  0  0
 16  4  1  0  0  0  0
 17  4  1  0  0  0  0
 19  6  1  0  0  0  0
 21  7  1  0  0  0  0
 22 21  1  0  0  0  0
 22 33  1  1  0  0  0
 23 22  1  0  0  0  0
 23 24  1  0  0  0  0
 24 29  2  0  0  0  0
 24 25  1  0  0  0  0
 25 26  2  0  0  0  0
 26 37  1  0  0  0  0
 27 26  1  0  0  0  0
 27 38  1  0  0  0  0
 28 39  1  0  0  0  0
 28 27  2  0  0  0  0
 29 28  1  0  0  0  0
 30 22  1  0  0  0  0
 31 30  2  0  0  0  0
 32 21  1  0  0  0  0
 34 23  1  0  0  0  0
 35 23  1  0  0  0  0
 36 25  1  0  0  0  0
 40 29  1  0  0  0  0
 41 30  1  0  0  0  0
 41 51  1  0  0  0  0
 42 52  1  6  0  0  0
 42 43  1  0  0  0  0
 42 41  1  0  0  0  0
 43 53  1  0  0  0  0
 43 44  1  0  0  0  0
 44 45  1  0  0  0  0
 44 56  1  0  0  0  0
 45 46  1  0  0  0  0
 45 57  1  0  0  0  0
 46 60  1  0  0  0  0
 46 59  1  0  0  0  0
 47 61  1  0  0  0  0
 47 46  1  0  0  0  0
 48 49  1  0  0  0  0
 48 42  1  0  0  0  0
 50 48  2  0  0  0  0
 54 43  1  0  0  0  0
 55 44  1  0  0  0  0
 58 45  1  0  0  0  0
 62 47  1  0  0  0  0
M  END
$$$$
