LFM.pdb
 OpenBabel07022418473D

 58 58  0  0  1  0  0  0  0  0999 V2000
    3.3170    1.6890    0.2690 C   0  0  0  0  0  0  0  0  0  0  0  0
    2.3410    0.9290    1.1880 C   0  0  0  0  0  0  0  0  0  0  0  0
    1.4410    1.9610    1.8130 C   0  0  0  0  0  0  0  0  0  0  0  0
    3.1750    0.2410    2.2000 C   0  0  0  0  0  0  0  0  0  0  0  0
    2.4830   -0.5700    3.2320 C   0  0  2  0  0  0  0  0  0  0  0  0
    3.5720   -1.1120    4.0880 N   0  0  0  0  0  0  0  0  0  0  0  0
    1.6930   -1.7090    2.7770 C   0  0  0  0  0  0  0  0  0  0  0  0
    2.1590   -2.8790    3.0170 O   0  0  0  0  0  0  0  0  0  0  0  0
    3.4010    1.2140   -0.7130 H   0  0  0  0  0  0  0  0  0  0  0  0
    2.9720    2.7340    0.1060 H   0  0  0  0  0  0  0  0  0  0  0  0
    4.3200    1.7640    0.7270 H   0  0  0  0  0  0  0  0  0  0  0  0
    1.7420    0.2780    0.5540 H   0  0  0  0  0  0  0  0  0  0  0  0
    1.1460    1.6970    2.8490 H   0  0  0  0  0  0  0  0  0  0  0  0
    1.9570    2.9600    1.9050 H   0  0  0  0  0  0  0  0  0  0  0  0
    0.5320    2.1360    1.2240 H   0  0  0  0  0  0  0  0  0  0  0  0
    3.7290    1.0510    2.7630 H   0  0  0  0  0  0  0  0  0  0  0  0
    3.9910   -0.3560    1.7390 H   0  0  0  0  0  0  0  0  0  0  0  0
    1.8280    0.0570    3.8770 H   0  0  0  0  0  0  0  0  0  0  0  0
    4.3000   -0.3790    4.2270 H   0  0  0  0  0  0  0  0  0  0  0  0
    3.9360   -1.9270    3.5350 H   0  0  0  0  0  0  0  0  0  0  0  0
    0.4430   -1.6670    2.0920 N   0  0  0  0  0  0  0  0  0  0  0  0
   -0.2200   -2.8760    1.7210 C   0  0  1  0  0  0  0  0  0  0  0  0
   -1.4800   -3.0970    2.5600 C   0  0  0  0  0  0  0  0  0  0  0  0
   -2.4520   -1.9960    2.3990 C   0  0  0  0  0  0  0  0  0  0  0  0
   -2.3590   -0.9140    3.2570 C   0  0  0  0  0  0  0  0  0  0  0  0
   -3.2730    0.1070    3.1010 C   0  0  0  0  0  0  0  0  0  0  0  0
   -4.2550    0.0710    2.1280 C   0  0  0  0  0  0  0  0  0  0  0  0
   -4.3110   -1.0330    1.2880 C   0  0  0  0  0  0  0  0  0  0  0  0
   -3.4130   -2.0610    1.4250 C   0  0  0  0  0  0  0  0  0  0  0  0
   -0.5700   -3.0160    0.3200 C   0  0  0  0  0  0  0  0  0  0  0  0
   -1.1380   -4.1000   -0.0550 O   0  0  0  0  0  0  0  0  0  0  0  0
    0.0570   -0.7050    1.8920 H   0  0  0  0  0  0  0  0  0  0  0  0
    0.4400   -3.7400    1.9940 H   0  0  0  0  0  0  0  0  0  0  0  0
   -1.2340   -3.1750    3.6360 H   0  0  0  0  0  0  0  0  0  0  0  0
   -1.8880   -4.0800    2.2580 H   0  0  0  0  0  0  0  0  0  0  0  0
   -1.6150   -0.8280    4.0350 H   0  0  0  0  0  0  0  0  0  0  0  0
   -3.2220    0.9650    3.7590 H   0  0  0  0  0  0  0  0  0  0  0  0
   -4.9760    0.8860    2.0100 H   0  0  0  0  0  0  0  0  0  0  0  0
   -5.0920   -1.0640    0.5130 H   0  0  0  0  0  0  0  0  0  0  0  0
   -3.4660   -2.9100    0.7730 H   0  0  0  0  0  0  0  0  0  0  0  0
   -0.2370    0.5260   -5.1450 C   0  0  0  0  0  0  0  0  0  0  0  0
    0.0530    0.6090   -3.3790 S   0  0  0  0  0  0  0  0  0  0  0  0
   -1.3610    0.1410   -2.3970 C   0  0  0  0  0  0  0  0  0  0  0  0
   -1.7720   -1.2860   -2.4830 C   0  0  0  0  0  0  0  0  0  0  0  0
   -0.7120   -2.2640   -2.0370 C   0  0  2  0  0  0  0  0  0  0  0  0
   -0.3300   -2.0410   -0.6560 N   0  0  0  0  0  0  0  0  0  0  0  0
    0.4950   -2.2610   -2.8620 C   0  0  0  0  0  0  0  0  0  0  0  0
    0.4220   -2.4530   -4.0830 O   0  0  0  0  0  0  0  0  0  0  0  0
    1.7250   -2.0440   -2.2810 O   0  0  0  0  0  0  0  0  0  0  0  0
    0.7700    0.4150   -5.6430 H   0  0  0  0  0  0  0  0  0  0  0  0
   -0.7450    1.4520   -5.4660 H   0  0  0  0  0  0  0  0  0  0  0  0
   -0.8710   -0.3640   -5.3540 H   0  0  0  0  0  0  0  0  0  0  0  0
   -2.2360    0.7560   -2.7660 H   0  0  0  0  0  0  0  0  0  0  0  0
   -1.2560    0.4540   -1.3280 H   0  0  0  0  0  0  0  0  0  0  0  0
   -2.6390   -1.4250   -1.8050 H   0  0  0  0  0  0  0  0  0  0  0  0
   -2.1400   -1.5340   -3.4990 H   0  0  0  0  0  0  0  0  0  0  0  0
   -1.2120   -3.2740   -2.0800 H   0  0  0  0  0  0  0  0  0  0  0  0
    0.1340   -1.1110   -0.4130 H   0  0  0  0  0  0  0  0  0  0  0  0
  1 11  1  0  0  0  0
  1  2  1  0  0  0  0
  2  3  1  0  0  0  0
  2  4  1  0  0  0  0
  3 14  1  0  0  0  0
  3 13  1  0  0  0  0
  4 16  1  0  0  0  0
  4  5  1  0  0  0  0
  5 18  1  1  0  0  0
  5  6  1  0  0  0  0
  6 19  1  0  0  0  0
  7  8  2  0  0  0  0
  7  5  1  0  0  0  0
  9  1  1  0  0  0  0
 10  1  1  0  0  0  0
 12  2  1  0  0  0  0
 15  3  1  0  0  0  0
 17  4  1  0  0  0  0
 20  6  1  0  0  0  0
 21  7  1  0  0  0  0
 22 33  1  1  0  0  0
 22 21  1  0  0  0  0
 22 23  1  0  0  0  0
 23 34  1  0  0  0  0
 24 23  1  0  0  0  0
 24 25  1  0  0  0  0
 25 36  1  0  0  0  0
 26 25  2  0  0  0  0
 26 37  1  0  0  0  0
 27 26  1  0  0  0  0
 28 29  1  0  0  0  0
 28 27  2  0  0  0  0
 29 24  2  0  0  0  0
 30 22  1  0  0  0  0
 31 30  2  0  0  0  0
 32 21  1  0  0  0  0
 35 23  1  0  0  0  0
 38 27  1  0  0  0  0
 39 28  1  0  0  0  0
 40 29  1  0  0  0  0
 41 42  1  0  0  0  0
 42 43  1  0  0  0  0
 43 54  1  0  0  0  0
 44 43  1  0  0  0  0
 44 45  1  0  0  0  0
 44 55  1  0  0  0  0
 45 57  1  6  0  0  0
 45 46  1  0  0  0  0
 46 58  1  0  0  0  0
 46 30  1  0  0  0  0
 47 49  1  0  0  0  0
 47 45  1  0  0  0  0
 48 47  2  0  0  0  0
 50 41  1  0  0  0  0
 51 41  1  0  0  0  0
 52 41  1  0  0  0  0
 53 43  1  0  0  0  0
 56 44  1  0  0  0  0
M  END
$$$$
