LFR.pdb
 OpenBabel07022418473D

 64 64  0  0  1  0  0  0  0  0999 V2000
    2.6870   -1.2910    5.6270 C   0  0  0  0  0  0  0  0  0  0  0  0
    2.5820   -1.3240    4.0760 C   0  0  0  0  0  0  0  0  0  0  0  0
    1.2550   -0.6910    3.7150 C   0  0  0  0  0  0  0  0  0  0  0  0
    3.7650   -0.6340    3.5220 C   0  0  0  0  0  0  0  0  0  0  0  0
    3.9220   -0.5580    2.0370 C   0  0  2  0  0  0  0  0  0  0  0  0
    5.2090    0.1930    1.8610 N   0  0  0  0  0  0  0  0  0  0  0  0
    2.8420    0.2180    1.4150 C   0  0  0  0  0  0  0  0  0  0  0  0
    2.9140    1.4910    1.4820 O   0  0  0  0  0  0  0  0  0  0  0  0
    2.3150   -0.3210    5.9610 H   0  0  0  0  0  0  0  0  0  0  0  0
    2.1190   -2.1610    6.0140 H   0  0  0  0  0  0  0  0  0  0  0  0
    3.7610   -1.3560    5.8970 H   0  0  0  0  0  0  0  0  0  0  0  0
    2.5630   -2.3830    3.7970 H   0  0  0  0  0  0  0  0  0  0  0  0
    0.6490   -0.6420    4.6740 H   0  0  0  0  0  0  0  0  0  0  0  0
    1.3370    0.3400    3.3850 H   0  0  0  0  0  0  0  0  0  0  0  0
    0.6920   -1.3830    3.0800 H   0  0  0  0  0  0  0  0  0  0  0  0
    3.7730    0.4050    3.9840 H   0  0  0  0  0  0  0  0  0  0  0  0
    4.6910   -1.0940    3.9980 H   0  0  0  0  0  0  0  0  0  0  0  0
    4.1310   -1.5300    1.5650 H   0  0  0  0  0  0  0  0  0  0  0  0
    5.9580   -0.3530    2.3600 H   0  0  0  0  0  0  0  0  0  0  0  0
    5.4780    0.1260    0.8360 H   0  0  0  0  0  0  0  0  0  0  0  0
    1.7080   -0.3190    0.7220 N   0  0  0  0  0  0  0  0  0  0  0  0
    0.7110    0.5620    0.1340 C   0  0  1  0  0  0  0  0  0  0  0  0
    1.1520    0.8690   -1.3190 C   0  0  0  0  0  0  0  0  0  0  0  0
    0.2010    1.7890   -1.9890 C   0  0  0  0  0  0  0  0  0  0  0  0
    0.3660    3.1780   -1.8550 C   0  0  0  0  0  0  0  0  0  0  0  0
   -0.4830    4.0620   -2.4740 C   0  0  0  0  0  0  0  0  0  0  0  0
   -1.5380    3.6470   -3.2570 C   0  0  0  0  0  0  0  0  0  0  0  0
   -1.7070    2.2760   -3.3940 C   0  0  0  0  0  0  0  0  0  0  0  0
   -0.8550    1.3830   -2.7730 C   0  0  0  0  0  0  0  0  0  0  0  0
   -0.6650    0.0390    0.1930 C   0  0  0  0  0  0  0  0  0  0  0  0
   -1.6440    0.7420   -0.2320 O   0  0  0  0  0  0  0  0  0  0  0  0
    1.6360   -1.3380    0.6590 H   0  0  0  0  0  0  0  0  0  0  0  0
    0.7380    1.5610    0.6080 H   0  0  0  0  0  0  0  0  0  0  0  0
    2.1230    1.4120   -1.2020 H   0  0  0  0  0  0  0  0  0  0  0  0
    1.3510   -0.0500   -1.8700 H   0  0  0  0  0  0  0  0  0  0  0  0
    1.1870    3.4970   -1.2460 H   0  0  0  0  0  0  0  0  0  0  0  0
   -0.3560    5.1480   -2.3700 H   0  0  0  0  0  0  0  0  0  0  0  0
   -2.1950    4.3600   -3.7350 H   0  0  0  0  0  0  0  0  0  0  0  0
   -2.5370    1.9720   -4.0110 H   0  0  0  0  0  0  0  0  0  0  0  0
   -0.9980    0.3040   -2.8920 H   0  0  0  0  0  0  0  0  0  0  0  0
   -3.6770   -0.3890   -2.8210 N   0  0  0  0  0  0  0  0  0  0  0  0
   -3.8250   -1.7060   -2.3480 C   0  0  0  0  0  0  0  0  0  0  0  0
   -4.8790   -2.0450   -1.6890 N   0  0  0  0  0  0  0  0  0  0  0  0
   -2.8270   -2.6650   -2.6050 N   0  0  0  0  0  0  0  0  0  0  0  0
   -2.6020   -3.8310   -1.8790 C   0  0  0  0  0  0  0  0  0  0  0  0
   -1.9800   -3.8930   -0.5500 C   0  0  0  0  0  0  0  0  0  0  0  0
   -2.4570   -3.1880    0.6250 C   0  0  0  0  0  0  0  0  0  0  0  0
   -2.3710   -1.7180    0.7590 C   0  0  2  0  0  0  0  0  0  0  0  0
   -1.0090   -1.2270    0.7020 N   0  0  0  0  0  0  0  0  0  0  0  0
   -2.8170   -1.4590    2.2110 C   0  0  0  0  0  0  0  0  0  0  0  0
   -1.9910   -0.9160    2.9580 O   0  0  0  0  0  0  0  0  0  0  0  0
   -4.0740   -1.8250    2.6190 O   0  0  0  0  0  0  0  0  0  0  0  0
   -3.9380    0.4600   -2.3020 H   0  0  0  0  0  0  0  0  0  0  0  0
   -3.2640   -0.2720   -3.7870 H   0  0  0  0  0  0  0  0  0  0  0  0
   -5.6490   -1.3770   -1.4820 H   0  0  0  0  0  0  0  0  0  0  0  0
   -2.2000   -2.4520   -3.4390 H   0  0  0  0  0  0  0  0  0  0  0  0
   -2.0350   -4.6090   -2.5140 H   0  0  0  0  0  0  0  0  0  0  0  0
   -3.6200   -4.3910   -1.7700 H   0  0  0  0  0  0  0  0  0  0  0  0
   -2.0330   -5.0230   -0.2700 H   0  0  0  0  0  0  0  0  0  0  0  0
   -0.8260   -3.8160   -0.6460 H   0  0  0  0  0  0  0  0  0  0  0  0
   -2.0130   -3.7080    1.5450 H   0  0  0  0  0  0  0  0  0  0  0  0
   -3.5680   -3.4570    0.7450 H   0  0  0  0  0  0  0  0  0  0  0  0
   -3.0760   -1.1390    0.1660 H   0  0  0  0  0  0  0  0  0  0  0  0
   -0.2780   -1.8580    1.0430 H   0  0  0  0  0  0  0  0  0  0  0  0
  1 11  1  0  0  0  0
  1  9  1  0  0  0  0
  1 10  1  0  0  0  0
  2  1  1  0  0  0  0
  3  2  1  0  0  0  0
  3 13  1  0  0  0  0
  4 16  1  0  0  0  0
  4 17  1  0  0  0  0
  4  2  1  0  0  0  0
  5 18  1  6  0  0  0
  5  4  1  0  0  0  0
  6  5  1  0  0  0  0
  6 19  1  0  0  0  0
  7  8  2  0  0  0  0
  7  5  1  0  0  0  0
 12  2  1  0  0  0  0
 14  3  1  0  0  0  0
 15  3  1  0  0  0  0
 20  6  1  0  0  0  0
 21  7  1  0  0  0  0
 22 30  1  0  0  0  0
 22 33  1  1  0  0  0
 22 21  1  0  0  0  0
 23 34  1  0  0  0  0
 23 22  1  0  0  0  0
 24 25  1  0  0  0  0
 24 23  1  0  0  0  0
 25 36  1  0  0  0  0
 26 37  1  0  0  0  0
 26 25  2  0  0  0  0
 27 26  1  0  0  0  0
 28 27  2  0  0  0  0
 28 29  1  0  0  0  0
 29 24  2  0  0  0  0
 30 49  1  0  0  0  0
 31 30  2  0  0  0  0
 32 21  1  0  0  0  0
 35 23  1  0  0  0  0
 38 27  1  0  0  0  0
 39 28  1  0  0  0  0
 40 29  1  0  0  0  0
 41 42  1  0  0  0  0
 41 53  1  0  0  0  0
 42 43  2  0  0  0  0
 43 55  1  0  0  0  0
 44 42  1  0  0  0  0
 44 45  1  0  0  0  0
 45 58  1  0  0  0  0
 45 46  1  0  0  0  0
 46 59  1  0  0  0  0
 46 47  1  0  0  0  0
 47 62  1  0  0  0  0
 47 48  1  0  0  0  0
 47 61  1  0  0  0  0
 48 63  1  6  0  0  0
 48 50  1  0  0  0  0
 49 48  1  0  0  0  0
 49 64  1  0  0  0  0
 50 52  2  0  0  0  0
 50 51  1  0  0  0  0
 54 41  1  0  0  0  0
 56 44  1  0  0  0  0
 57 45  1  0  0  0  0
 60 46  1  0  0  0  0
M  END
$$$$
