LFY.pdb
 OpenBabel07022418473D

 62 63  0  0  1  0  0  0  0  0999 V2000
    4.3550   -0.3510    5.0260 C   0  0  0  0  0  0  0  0  0  0  0  0
    4.6430    0.4130    3.7760 C   0  0  0  0  0  0  0  0  0  0  0  0
    5.1870    1.7690    4.1150 C   0  0  0  0  0  0  0  0  0  0  0  0
    3.3830    0.6040    2.9360 C   0  0  0  0  0  0  0  0  0  0  0  0
    2.8340   -0.7560    2.5610 C   0  0  2  0  0  0  0  0  0  0  0  0
    3.7990   -1.4950    1.8040 N   0  0  0  0  0  0  0  0  0  0  0  0
    1.5380   -0.6080    1.8670 C   0  0  0  0  0  0  0  0  0  0  0  0
    0.6340    0.0320    2.4680 O   0  0  0  0  0  0  0  0  0  0  0  0
    5.2570   -0.2960    5.6740 H   0  0  0  0  0  0  0  0  0  0  0  0
    3.5230    0.1660    5.5530 H   0  0  0  0  0  0  0  0  0  0  0  0
    4.1530   -1.4250    4.8620 H   0  0  0  0  0  0  0  0  0  0  0  0
    5.3570   -0.2010    3.1680 H   0  0  0  0  0  0  0  0  0  0  0  0
    5.6490    1.6930    5.1320 H   0  0  0  0  0  0  0  0  0  0  0  0
    5.9350    2.0620    3.3440 H   0  0  0  0  0  0  0  0  0  0  0  0
    4.3390    2.4840    4.1280 H   0  0  0  0  0  0  0  0  0  0  0  0
    2.6190    1.1550    3.5210 H   0  0  0  0  0  0  0  0  0  0  0  0
    3.6050    1.1510    2.0100 H   0  0  0  0  0  0  0  0  0  0  0  0
    2.6350   -1.3040    3.5050 H   0  0  0  0  0  0  0  0  0  0  0  0
    4.1330   -1.0340    0.9540 H   0  0  0  0  0  0  0  0  0  0  0  0
    3.6250   -2.5030    1.7470 H   0  0  0  0  0  0  0  0  0  0  0  0
    1.2480   -1.1260    0.5970 N   0  0  0  0  0  0  0  0  0  0  0  0
   -0.0350   -0.9650   -0.0600 C   0  0  1  0  0  0  0  0  0  0  0  0
    0.0890   -0.1050   -1.3030 C   0  0  0  0  0  0  0  0  0  0  0  0
    0.6000    1.2460   -0.9560 C   0  0  0  0  0  0  0  0  0  0  0  0
    1.9430    1.5610   -0.9290 C   0  0  0  0  0  0  0  0  0  0  0  0
    2.3680    2.8480   -0.5950 C   0  0  0  0  0  0  0  0  0  0  0  0
    1.4680    3.8450   -0.2840 C   0  0  0  0  0  0  0  0  0  0  0  0
    0.1270    3.5290   -0.3120 C   0  0  0  0  0  0  0  0  0  0  0  0
   -0.2930    2.2500   -0.6430 C   0  0  0  0  0  0  0  0  0  0  0  0
   -0.6060   -2.2870   -0.3460 C   0  0  0  0  0  0  0  0  0  0  0  0
    0.0260   -3.3480   -0.0190 O   0  0  0  0  0  0  0  0  0  0  0  0
    1.9980   -1.6590    0.0950 H   0  0  0  0  0  0  0  0  0  0  0  0
   -0.6740   -0.3720    0.6500 H   0  0  0  0  0  0  0  0  0  0  0  0
    0.8460   -0.5740   -1.9960 H   0  0  0  0  0  0  0  0  0  0  0  0
   -0.8500   -0.0620   -1.8740 H   0  0  0  0  0  0  0  0  0  0  0  0
    2.6440    0.7710   -1.1750 H   0  0  0  0  0  0  0  0  0  0  0  0
    3.4450    3.0640   -0.5830 H   0  0  0  0  0  0  0  0  0  0  0  0
    1.8260    4.8420   -0.0270 H   0  0  0  0  0  0  0  0  0  0  0  0
   -0.5710    4.3170   -0.0660 H   0  0  0  0  0  0  0  0  0  0  0  0
   -1.3590    1.9950   -0.6660 H   0  0  0  0  0  0  0  0  0  0  0  0
   -7.4900    0.0340   -1.7850 O   0  0  0  0  0  0  0  0  0  0  0  0
   -6.5590   -0.9580   -1.4720 C   0  0  0  0  0  0  0  0  0  0  0  0
   -5.6410   -0.6880   -0.4740 C   0  0  0  0  0  0  0  0  0  0  0  0
   -4.7250   -1.6560   -0.1610 C   0  0  0  0  0  0  0  0  0  0  0  0
   -4.6750   -2.8820   -0.7920 C   0  0  0  0  0  0  0  0  0  0  0  0
   -3.6810   -3.9200   -0.4460 C   0  0  0  0  0  0  0  0  0  0  0  0
   -2.4100   -3.8030   -1.2630 C   0  0  2  0  0  0  0  0  0  0  0  0
   -1.8540   -2.4910   -0.9830 N   0  0  0  0  0  0  0  0  0  0  0  0
   -2.6500   -4.0140   -2.7000 C   0  0  0  0  0  0  0  0  0  0  0  0
   -2.3750   -3.1080   -3.5080 O   0  0  0  0  0  0  0  0  0  0  0  0
   -5.6090   -3.1100   -1.7810 C   0  0  0  0  0  0  0  0  0  0  0  0
   -6.5440   -2.1600   -2.1220 C   0  0  0  0  0  0  0  0  0  0  0  0
   -3.1750   -5.1980   -3.1580 O   0  0  0  0  0  0  0  0  0  0  0  0
   -8.3840   -0.2250   -2.1930 H   0  0  0  0  0  0  0  0  0  0  0  0
   -5.6740    0.2720    0.0250 H   0  0  0  0  0  0  0  0  0  0  0  0
   -4.0050   -1.4500    0.6180 H   0  0  0  0  0  0  0  0  0  0  0  0
   -3.3910   -3.7990    0.6180 H   0  0  0  0  0  0  0  0  0  0  0  0
   -4.1160   -4.9510   -0.5250 H   0  0  0  0  0  0  0  0  0  0  0  0
   -1.7410   -4.6170   -0.9170 H   0  0  0  0  0  0  0  0  0  0  0  0
   -2.4010   -1.6500   -1.2660 H   0  0  0  0  0  0  0  0  0  0  0  0
   -5.6150   -4.0540   -2.3070 H   0  0  0  0  0  0  0  0  0  0  0  0
   -7.2880   -2.3300   -2.9040 H   0  0  0  0  0  0  0  0  0  0  0  0
  1 10  1  0  0  0  0
  1  9  1  0  0  0  0
  2  3  1  0  0  0  0
  2  1  1  0  0  0  0
  3 15  1  0  0  0  0
  3 13  1  0  0  0  0
  4 16  1  0  0  0  0
  4  2  1  0  0  0  0
  5  4  1  0  0  0  0
  5 18  1  1  0  0  0
  6  5  1  0  0  0  0
  7  8  2  0  0  0  0
  7  5  1  0  0  0  0
 11  1  1  0  0  0  0
 12  2  1  0  0  0  0
 14  3  1  0  0  0  0
 17  4  1  0  0  0  0
 19  6  1  0  0  0  0
 20  6  1  0  0  0  0
 21  7  1  0  0  0  0
 22 21  1  0  0  0  0
 22 33  1  1  0  0  0
 23 24  1  0  0  0  0
 23 22  1  0  0  0  0
 24 25  2  0  0  0  0
 24 29  1  0  0  0  0
 25 26  1  0  0  0  0
 26 37  1  0  0  0  0
 26 27  2  0  0  0  0
 27 38  1  0  0  0  0
 28 27  1  0  0  0  0
 28 39  1  0  0  0  0
 29 28  2  0  0  0  0
 30 22  1  0  0  0  0
 30 31  2  0  0  0  0
 32 21  1  0  0  0  0
 34 23  1  0  0  0  0
 35 23  1  0  0  0  0
 36 25  1  0  0  0  0
 40 29  1  0  0  0  0
 41 42  1  0  0  0  0
 42 43  1  0  0  0  0
 43 44  2  0  0  0  0
 43 55  1  0  0  0  0
 44 56  1  0  0  0  0
 45 46  1  0  0  0  0
 45 44  1  0  0  0  0
 46 57  1  0  0  0  0
 47 48  1  0  0  0  0
 47 59  1  1  0  0  0
 47 46  1  0  0  0  0
 48 30  1  0  0  0  0
 49 47  1  0  0  0  0
 50 49  2  0  0  0  0
 51 45  2  0  0  0  0
 52 51  1  0  0  0  0
 52 42  2  0  0  0  0
 53 49  1  0  0  0  0
 54 41  1  0  0  0  0
 58 46  1  0  0  0  0
 60 48  1  0  0  0  0
 61 51  1  0  0  0  0
 62 52  1  0  0  0  0
M  END
$$$$
