LGD.pdb
 OpenBabel07022418453D

 41 40  0  0  1  0  0  0  0  0999 V2000
    1.2330   -5.6580    1.5960 C   0  0  0  0  0  0  0  0  0  0  0  0
    0.2450   -4.5650    1.2160 C   0  0  0  0  0  0  0  0  0  0  0  0
   -0.5410   -5.0590    0.0390 C   0  0  0  0  0  0  0  0  0  0  0  0
    1.0310   -3.3490    0.8590 C   0  0  0  0  0  0  0  0  0  0  0  0
    0.2030   -2.1700    0.4560 C   0  0  2  0  0  0  0  0  0  0  0  0
   -0.6250   -2.4380   -0.7040 N   0  0  0  0  0  0  0  0  0  0  0  0
    1.1410   -1.0340    0.1970 C   0  0  0  0  0  0  0  0  0  0  0  0
    1.9150   -0.7020    1.1290 O   0  0  0  0  0  0  0  0  0  0  0  0
    1.3930   -5.7260    2.6800 H   0  0  0  0  0  0  0  0  0  0  0  0
    2.2020   -5.5270    1.0810 H   0  0  0  0  0  0  0  0  0  0  0  0
    0.8380   -6.6480    1.2710 H   0  0  0  0  0  0  0  0  0  0  0  0
   -0.3990   -4.3160    2.0880 H   0  0  0  0  0  0  0  0  0  0  0  0
   -1.5180   -4.5300   -0.0030 H   0  0  0  0  0  0  0  0  0  0  0  0
    0.0400   -4.9590   -0.8880 H   0  0  0  0  0  0  0  0  0  0  0  0
   -0.8140   -6.1500    0.1450 H   0  0  0  0  0  0  0  0  0  0  0  0
    1.6580   -3.0530    1.7120 H   0  0  0  0  0  0  0  0  0  0  0  0
    1.7520   -3.5720    0.0200 H   0  0  0  0  0  0  0  0  0  0  0  0
   -0.4870   -1.9420    1.2950 H   0  0  0  0  0  0  0  0  0  0  0  0
   -1.1370   -1.5580   -0.9350 H   0  0  0  0  0  0  0  0  0  0  0  0
    0.0100   -2.6410   -1.5080 H   0  0  0  0  0  0  0  0  0  0  0  0
    1.1940   -0.3320   -1.0240 N   0  0  0  0  0  0  0  0  0  0  0  0
    2.0710    0.7660   -1.3030 C   0  0  0  0  0  0  0  0  0  0  0  0
    1.8010    1.9090   -0.4360 C   0  0  0  0  0  0  0  0  0  0  0  0
    2.5800    2.9180   -0.5940 O   0  0  0  0  0  0  0  0  0  0  0  0
    0.5130   -0.6800   -1.7650 H   0  0  0  0  0  0  0  0  0  0  0  0
    3.1220    0.4250   -1.1210 H   0  0  0  0  0  0  0  0  0  0  0  0
    2.0530    1.0490   -2.3890 H   0  0  0  0  0  0  0  0  0  0  0  0
    0.7820    2.0200    0.5420 N   0  0  0  0  0  0  0  0  0  0  0  0
    0.6680    3.2290    1.3120 C   0  0  1  0  0  0  0  0  0  0  0  0
   -0.6380    3.9490    1.0720 C   0  0  0  0  0  0  0  0  0  0  0  0
   -1.8120    3.1400    1.4180 C   0  0  0  0  0  0  0  0  0  0  0  0
   -2.9480    3.6550    1.2520 O   0  0  0  0  0  0  0  0  0  0  0  0
    0.9080    2.9310    2.7240 C   0  0  0  0  0  0  0  0  0  0  0  0
    1.1640    1.7540    3.0750 O   0  0  0  0  0  0  0  0  0  0  0  0
   -1.7670    1.8470    1.9160 O   0  0  0  0  0  0  0  0  0  0  0  0
    0.8690    3.8960    3.7290 O   0  0  0  0  0  0  0  0  0  0  0  0
    0.1360    1.2060    0.6540 H   0  0  0  0  0  0  0  0  0  0  0  0
    1.4600    3.9310    0.9870 H   0  0  0  0  0  0  0  0  0  0  0  0
   -0.6340    4.8470    1.7240 H   0  0  0  0  0  0  0  0  0  0  0  0
   -0.6300    4.3050    0.0320 H   0  0  0  0  0  0  0  0  0  0  0  0
   -2.6300    1.2890    1.9360 H   0  0  0  0  0  0  0  0  0  0  0  0
  1  9  1  0  0  0  0
  2  1  1  0  0  0  0
  2 12  1  0  0  0  0
  3 15  1  0  0  0  0
  3  2  1  0  0  0  0
  4  2  1  0  0  0  0
  4 16  1  0  0  0  0
  5  4  1  0  0  0  0
  5 18  1  1  0  0  0
  6  5  1  0  0  0  0
  7  5  1  0  0  0  0
  7  8  2  0  0  0  0
 10  1  1  0  0  0  0
 11  1  1  0  0  0  0
 13  3  1  0  0  0  0
 14  3  1  0  0  0  0
 17  4  1  0  0  0  0
 19  6  1  0  0  0  0
 20  6  1  0  0  0  0
 21  7  1  0  0  0  0
 22 26  1  0  0  0  0
 22 21  1  0  0  0  0
 22 23  1  0  0  0  0
 23 28  1  0  0  0  0
 24 23  2  0  0  0  0
 25 21  1  0  0  0  0
 27 22  1  0  0  0  0
 28 37  1  0  0  0  0
 28 29  1  0  0  0  0
 29 38  1  6  0  0  0
 29 33  1  0  0  0  0
 30 29  1  0  0  0  0
 30 31  1  0  0  0  0
 30 39  1  0  0  0  0
 31 35  1  0  0  0  0
 32 31  2  0  0  0  0
 33 34  2  0  0  0  0
 33 36  1  0  0  0  0
 35 41  1  0  0  0  0
 40 30  1  0  0  0  0
M  END
$$$$
