LGI.pdb
 OpenBabel07022418453D

 47 46  0  0  1  0  0  0  0  0999 V2000
   -0.3870   -5.6910    1.2680 C   0  0  0  0  0  0  0  0  0  0  0  0
   -0.0650   -5.1710   -0.0950 C   0  0  0  0  0  0  0  0  0  0  0  0
    0.8040   -6.1930   -0.8000 C   0  0  0  0  0  0  0  0  0  0  0  0
    0.6290   -3.8050   -0.0260 C   0  0  0  0  0  0  0  0  0  0  0  0
    0.9420   -3.3040   -1.4170 C   0  0  2  0  0  0  0  0  0  0  0  0
    1.8140   -4.2010   -2.1350 N   0  0  0  0  0  0  0  0  0  0  0  0
    1.5190   -1.9470   -1.2970 C   0  0  0  0  0  0  0  0  0  0  0  0
    2.6350   -1.6240   -1.7680 O   0  0  0  0  0  0  0  0  0  0  0  0
   -1.4340   -5.4040    1.5700 H   0  0  0  0  0  0  0  0  0  0  0  0
   -0.3830   -6.8080    1.3090 H   0  0  0  0  0  0  0  0  0  0  0  0
    0.2860   -5.3200    2.0600 H   0  0  0  0  0  0  0  0  0  0  0  0
   -1.0120   -5.0160   -0.6360 H   0  0  0  0  0  0  0  0  0  0  0  0
    0.6040   -7.2040   -0.3390 H   0  0  0  0  0  0  0  0  0  0  0  0
    1.8690   -5.9880   -0.5680 H   0  0  0  0  0  0  0  0  0  0  0  0
    0.6070   -6.2350   -1.8940 H   0  0  0  0  0  0  0  0  0  0  0  0
   -0.0600   -3.1150    0.4760 H   0  0  0  0  0  0  0  0  0  0  0  0
    1.5800   -3.9350    0.5380 H   0  0  0  0  0  0  0  0  0  0  0  0
   -0.0340   -3.2970   -1.9690 H   0  0  0  0  0  0  0  0  0  0  0  0
    2.8040   -3.8620   -1.9430 H   0  0  0  0  0  0  0  0  0  0  0  0
    1.6160   -4.0740   -3.1550 H   0  0  0  0  0  0  0  0  0  0  0  0
    0.8120   -0.8890   -0.6130 N   0  0  0  0  0  0  0  0  0  0  0  0
    1.4040    0.4000   -0.5220 C   0  0  0  0  0  0  0  0  0  0  0  0
    0.6350    1.4430    0.1890 C   0  0  0  0  0  0  0  0  0  0  0  0
    1.1330    2.6140    0.2940 O   0  0  0  0  0  0  0  0  0  0  0  0
   -0.1040   -1.1330   -0.2190 H   0  0  0  0  0  0  0  0  0  0  0  0
    2.3660    0.2980    0.0810 H   0  0  0  0  0  0  0  0  0  0  0  0
    1.7590    0.7800   -1.5170 H   0  0  0  0  0  0  0  0  0  0  0  0
    1.0060    3.9680    3.7580 C   0  0  0  0  0  0  0  0  0  0  0  0
    0.2430    2.8570    3.1080 C   0  0  0  0  0  0  0  0  0  0  0  0
   -0.7660    3.3290    2.0920 C   0  0  2  0  0  0  0  0  0  0  0  0
   -1.8140    4.2220    2.7480 C   0  0  0  0  0  0  0  0  0  0  0  0
   -1.4590    2.1440    1.4960 C   0  0  2  0  0  0  0  0  0  0  0  0
   -0.6220    1.2200    0.7600 N   0  0  0  0  0  0  0  0  0  0  0  0
   -2.7590    2.3670    0.8890 C   0  0  0  0  0  0  0  0  0  0  0  0
   -3.6600    3.1110    1.3560 O   0  0  0  0  0  0  0  0  0  0  0  0
   -3.1490    1.7480   -0.3260 O   0  0  0  0  0  0  0  0  0  0  0  0
    2.0690    3.8800    3.3820 H   0  0  0  0  0  0  0  0  0  0  0  0
    1.0910    3.8610    4.8540 H   0  0  0  0  0  0  0  0  0  0  0  0
    0.6900    4.9830    3.4360 H   0  0  0  0  0  0  0  0  0  0  0  0
    0.8680    2.0460    2.7500 H   0  0  0  0  0  0  0  0  0  0  0  0
   -0.3300    2.3680    3.9860 H   0  0  0  0  0  0  0  0  0  0  0  0
   -0.2700    3.9960    1.3370 H   0  0  0  0  0  0  0  0  0  0  0  0
   -1.3430    4.8870    3.5110 H   0  0  0  0  0  0  0  0  0  0  0  0
   -2.3390    4.8730    2.0260 H   0  0  0  0  0  0  0  0  0  0  0  0
   -2.5790    3.6570    3.3100 H   0  0  0  0  0  0  0  0  0  0  0  0
   -1.6620    1.5290    2.4720 H   0  0  0  0  0  0  0  0  0  0  0  0
   -1.0180    0.2300    0.6340 H   0  0  0  0  0  0  0  0  0  0  0  0
  1 10  1  0  0  0  0
  1  9  1  0  0  0  0
  1 11  1  0  0  0  0
  2  4  1  0  0  0  0
  2  1  1  0  0  0  0
  3 14  1  0  0  0  0
  3 13  1  0  0  0  0
  3  2  1  0  0  0  0
  4 16  1  0  0  0  0
  4 17  1  0  0  0  0
  5 18  1  6  0  0  0
  5  7  1  0  0  0  0
  5  4  1  0  0  0  0
  6 19  1  0  0  0  0
  6  5  1  0  0  0  0
  7 21  1  0  0  0  0
  8  7  2  0  0  0  0
 12  2  1  0  0  0  0
 15  3  1  0  0  0  0
 20  6  1  0  0  0  0
 21 22  1  0  0  0  0
 21 25  1  0  0  0  0
 22 26  1  0  0  0  0
 22 23  1  0  0  0  0
 23 24  2  0  0  0  0
 23 33  1  0  0  0  0
 27 22  1  0  0  0  0
 28 38  1  0  0  0  0
 29 28  1  0  0  0  0
 29 41  1  0  0  0  0
 30 42  1  6  0  0  0
 30 31  1  0  0  0  0
 30 29  1  0  0  0  0
 31 45  1  0  0  0  0
 31 43  1  0  0  0  0
 32 30  1  0  0  0  0
 32 46  1  1  0  0  0
 33 32  1  0  0  0  0
 34 35  1  0  0  0  0
 34 32  1  0  0  0  0
 36 34  2  0  0  0  0
 37 28  1  0  0  0  0
 39 28  1  0  0  0  0
 40 29  1  0  0  0  0
 44 31  1  0  0  0  0
 47 33  1  0  0  0  0
M  END
$$$$
