LGL.pdb
 OpenBabel07022418453D

 47 46  0  0  1  0  0  0  0  0999 V2000
    0.8150   -5.8960    2.5390 C   0  0  0  0  0  0  0  0  0  0  0  0
    0.0720   -5.0180    1.5830 C   0  0  0  0  0  0  0  0  0  0  0  0
   -0.1760   -5.7930    0.3250 C   0  0  0  0  0  0  0  0  0  0  0  0
    0.7610   -3.6930    1.3610 C   0  0  0  0  0  0  0  0  0  0  0  0
    0.0120   -2.8180    0.4030 C   0  0  2  0  0  0  0  0  0  0  0  0
   -0.1380   -3.4190   -0.9020 N   0  0  0  0  0  0  0  0  0  0  0  0
    0.7140   -1.5030    0.3160 C   0  0  0  0  0  0  0  0  0  0  0  0
    0.9290   -0.8510    1.3670 O   0  0  0  0  0  0  0  0  0  0  0  0
    0.0800   -6.4770    3.1320 H   0  0  0  0  0  0  0  0  0  0  0  0
    1.4690   -6.6480    2.0280 H   0  0  0  0  0  0  0  0  0  0  0  0
    1.4070   -5.2870    3.2660 H   0  0  0  0  0  0  0  0  0  0  0  0
   -0.9210   -4.7660    2.0590 H   0  0  0  0  0  0  0  0  0  0  0  0
   -1.1150   -5.4640   -0.1840 H   0  0  0  0  0  0  0  0  0  0  0  0
    0.7060   -5.7170   -0.3280 H   0  0  0  0  0  0  0  0  0  0  0  0
   -0.3200   -6.8630    0.5890 H   0  0  0  0  0  0  0  0  0  0  0  0
    0.8440   -3.2040    2.3450 H   0  0  0  0  0  0  0  0  0  0  0  0
    1.7820   -3.8710    0.9550 H   0  0  0  0  0  0  0  0  0  0  0  0
   -1.0230   -2.6900    0.8100 H   0  0  0  0  0  0  0  0  0  0  0  0
   -0.6920   -2.7300   -1.4800 H   0  0  0  0  0  0  0  0  0  0  0  0
    0.8140   -3.5310   -1.3060 H   0  0  0  0  0  0  0  0  0  0  0  0
    1.1450   -0.9640   -0.9210 N   0  0  0  0  0  0  0  0  0  0  0  0
    1.8070    0.2870   -1.0980 C   0  0  0  0  0  0  0  0  0  0  0  0
    0.9350    1.4200   -0.7290 C   0  0  0  0  0  0  0  0  0  0  0  0
    1.4360    2.5940   -0.8180 O   0  0  0  0  0  0  0  0  0  0  0  0
    0.9510   -1.5530   -1.7720 H   0  0  0  0  0  0  0  0  0  0  0  0
    2.7090    0.3450   -0.4240 H   0  0  0  0  0  0  0  0  0  0  0  0
    2.1190    0.4100   -2.1630 H   0  0  0  0  0  0  0  0  0  0  0  0
   -1.0920    2.9000    3.1160 C   0  0  0  0  0  0  0  0  0  0  0  0
   -0.1000    3.4630    2.0730 C   0  0  0  0  0  0  0  0  0  0  0  0
    1.1840    2.7840    2.2690 C   0  0  0  0  0  0  0  0  0  0  0  0
   -0.7230    3.5770    0.7520 C   0  0  0  0  0  0  0  0  0  0  0  0
   -1.2700    2.3830    0.0770 C   0  0  2  0  0  0  0  0  0  0  0  0
   -0.4040    1.3210   -0.2930 N   0  0  0  0  0  0  0  0  0  0  0  0
   -2.2010    2.7950   -0.9960 C   0  0  0  0  0  0  0  0  0  0  0  0
   -3.0430    3.7160   -0.8610 O   0  0  0  0  0  0  0  0  0  0  0  0
   -2.1910    2.1610   -2.2500 O   0  0  0  0  0  0  0  0  0  0  0  0
   -2.0240    3.4990    3.1270 H   0  0  0  0  0  0  0  0  0  0  0  0
   -0.6130    2.9530    4.1270 H   0  0  0  0  0  0  0  0  0  0  0  0
   -1.2400    1.8470    2.8470 H   0  0  0  0  0  0  0  0  0  0  0  0
    0.0570    4.5320    2.4770 H   0  0  0  0  0  0  0  0  0  0  0  0
    2.0520    3.2890    1.7460 H   0  0  0  0  0  0  0  0  0  0  0  0
    1.2250    1.7070    2.1240 H   0  0  0  0  0  0  0  0  0  0  0  0
    1.4650    2.9290    3.3630 H   0  0  0  0  0  0  0  0  0  0  0  0
   -0.0430    4.1690    0.0600 H   0  0  0  0  0  0  0  0  0  0  0  0
   -1.6000    4.2960    0.8670 H   0  0  0  0  0  0  0  0  0  0  0  0
   -1.9490    1.9190    0.9010 H   0  0  0  0  0  0  0  0  0  0  0  0
   -0.7760    0.3130   -0.2760 H   0  0  0  0  0  0  0  0  0  0  0  0
  1  9  1  0  0  0  0
  1 11  1  0  0  0  0
  2 12  1  0  0  0  0
  2  1  1  0  0  0  0
  3 15  1  0  0  0  0
  3  2  1  0  0  0  0
  4  2  1  0  0  0  0
  4 16  1  0  0  0  0
  5 18  1  1  0  0  0
  5  4  1  0  0  0  0
  6  5  1  0  0  0  0
  7  5  1  0  0  0  0
  7  8  2  0  0  0  0
 10  1  1  0  0  0  0
 13  3  1  0  0  0  0
 14  3  1  0  0  0  0
 17  4  1  0  0  0  0
 19  6  1  0  0  0  0
 20  6  1  0  0  0  0
 21  7  1  0  0  0  0
 22 21  1  0  0  0  0
 22 23  1  0  0  0  0
 22 26  1  0  0  0  0
 23 33  1  0  0  0  0
 24 23  2  0  0  0  0
 25 21  1  0  0  0  0
 27 22  1  0  0  0  0
 28 37  1  0  0  0  0
 28 38  1  0  0  0  0
 29 30  1  0  0  0  0
 29 40  1  0  0  0  0
 29 28  1  0  0  0  0
 30 43  1  0  0  0  0
 31 45  1  0  0  0  0
 31 29  1  0  0  0  0
 32 31  1  0  0  0  0
 32 46  1  1  0  0  0
 33 47  1  0  0  0  0
 33 32  1  0  0  0  0
 34 35  1  0  0  0  0
 34 32  1  0  0  0  0
 36 34  2  0  0  0  0
 39 28  1  0  0  0  0
 41 30  1  0  0  0  0
 42 30  1  0  0  0  0
 44 31  1  0  0  0  0
M  END
$$$$
