LGM.pdb
 OpenBabel07022418453D

 45 44  0  0  1  0  0  0  0  0999 V2000
   -2.1840   -4.2160    2.0420 C   0  0  0  0  0  0  0  0  0  0  0  0
   -1.2580   -4.8290    1.0150 C   0  0  0  0  0  0  0  0  0  0  0  0
   -0.6070   -6.0780    1.6140 C   0  0  0  0  0  0  0  0  0  0  0  0
   -0.1270   -3.8580    0.7110 C   0  0  0  0  0  0  0  0  0  0  0  0
   -0.6680   -2.5680    0.1690 C   0  0  2  0  0  0  0  0  0  0  0  0
   -1.3980   -2.8260   -1.0410 N   0  0  0  0  0  0  0  0  0  0  0  0
    0.4790   -1.6350   -0.0680 C   0  0  0  0  0  0  0  0  0  0  0  0
    1.2390   -1.2920    0.8710 O   0  0  0  0  0  0  0  0  0  0  0  0
   -3.0150   -3.6530    1.5600 H   0  0  0  0  0  0  0  0  0  0  0  0
   -2.5800   -4.9960    2.7070 H   0  0  0  0  0  0  0  0  0  0  0  0
   -1.6000   -3.5080    2.6890 H   0  0  0  0  0  0  0  0  0  0  0  0
   -1.8240   -5.0700    0.0930 H   0  0  0  0  0  0  0  0  0  0  0  0
   -1.1920   -6.9600    1.3260 H   0  0  0  0  0  0  0  0  0  0  0  0
    0.4400   -6.1650    1.2600 H   0  0  0  0  0  0  0  0  0  0  0  0
   -0.5970   -5.9950    2.7210 H   0  0  0  0  0  0  0  0  0  0  0  0
    0.4110   -3.6530    1.6610 H   0  0  0  0  0  0  0  0  0  0  0  0
    0.5780   -4.2890   -0.0210 H   0  0  0  0  0  0  0  0  0  0  0  0
   -1.3670   -2.1300    0.9150 H   0  0  0  0  0  0  0  0  0  0  0  0
   -0.8560   -3.3450   -1.7390 H   0  0  0  0  0  0  0  0  0  0  0  0
   -1.7910   -1.9390   -1.4060 H   0  0  0  0  0  0  0  0  0  0  0  0
    0.7230   -1.1210   -1.3740 N   0  0  0  0  0  0  0  0  0  0  0  0
    1.7830   -0.2170   -1.7080 C   0  0  0  0  0  0  0  0  0  0  0  0
    1.6300    1.1080   -1.0090 C   0  0  0  0  0  0  0  0  0  0  0  0
    2.6050    1.9080   -1.2470 O   0  0  0  0  0  0  0  0  0  0  0  0
    0.0520   -1.4540   -2.1290 H   0  0  0  0  0  0  0  0  0  0  0  0
    2.7500   -0.6980   -1.3990 H   0  0  0  0  0  0  0  0  0  0  0  0
    1.8010   -0.0670   -2.7960 H   0  0  0  0  0  0  0  0  0  0  0  0
    1.2930    3.4880    4.3500 C   0  0  0  0  0  0  0  0  0  0  0  0
    1.4850    2.0410    3.3190 S   0  0  0  0  0  0  0  0  0  0  0  0
    2.4040    2.3860    1.7900 C   0  0  0  0  0  0  0  0  0  0  0  0
    1.6260    3.3160    0.8850 C   0  0  0  0  0  0  0  0  0  0  0  0
    0.3330    2.6260    0.5180 C   0  0  2  0  0  0  0  0  0  0  0  0
    0.5430    1.4140   -0.1990 N   0  0  0  0  0  0  0  0  0  0  0  0
   -0.7100    3.5030   -0.0020 C   0  0  0  0  0  0  0  0  0  0  0  0
   -1.0460    4.5950    0.4740 O   0  0  0  0  0  0  0  0  0  0  0  0
   -1.3990    3.0670   -1.1520 O   0  0  0  0  0  0  0  0  0  0  0  0
    1.7000    3.2650    5.3750 H   0  0  0  0  0  0  0  0  0  0  0  0
    1.7990    4.3900    3.9680 H   0  0  0  0  0  0  0  0  0  0  0  0
    0.2160    3.7350    4.5140 H   0  0  0  0  0  0  0  0  0  0  0  0
    2.4870    1.4080    1.2850 H   0  0  0  0  0  0  0  0  0  0  0  0
    3.4250    2.7430    1.9880 H   0  0  0  0  0  0  0  0  0  0  0  0
    2.2580    3.6080    0.0430 H   0  0  0  0  0  0  0  0  0  0  0  0
    1.4010    4.2730    1.4510 H   0  0  0  0  0  0  0  0  0  0  0  0
   -0.0300    2.3080    1.5890 H   0  0  0  0  0  0  0  0  0  0  0  0
   -0.2510    0.6720   -0.1090 H   0  0  0  0  0  0  0  0  0  0  0  0
  1 11  1  0  0  0  0
  1 10  1  0  0  0  0
  2  3  1  0  0  0  0
  2  1  1  0  0  0  0
  3 15  1  0  0  0  0
  4  2  1  0  0  0  0
  4 16  1  0  0  0  0
  5  4  1  0  0  0  0
  5 18  1  1  0  0  0
  6  5  1  0  0  0  0
  7  5  1  0  0  0  0
  7  8  2  0  0  0  0
  9  1  1  0  0  0  0
 12  2  1  0  0  0  0
 13  3  1  0  0  0  0
 14  3  1  0  0  0  0
 17  4  1  0  0  0  0
 19  6  1  0  0  0  0
 20  6  1  0  0  0  0
 21  7  1  0  0  0  0
 22 26  1  0  0  0  0
 22 21  1  0  0  0  0
 22 23  1  0  0  0  0
 23 33  1  0  0  0  0
 24 23  2  0  0  0  0
 25 21  1  0  0  0  0
 27 22  1  0  0  0  0
 28 39  1  0  0  0  0
 28 37  1  0  0  0  0
 29 28  1  0  0  0  0
 30 41  1  0  0  0  0
 30 29  1  0  0  0  0
 31 43  1  0  0  0  0
 31 30  1  0  0  0  0
 32 31  1  0  0  0  0
 32 44  1  1  0  0  0
 33 45  1  0  0  0  0
 33 32  1  0  0  0  0
 34 35  1  0  0  0  0
 34 32  1  0  0  0  0
 36 34  2  0  0  0  0
 38 28  1  0  0  0  0
 40 30  1  0  0  0  0
 42 31  1  0  0  0  0
M  END
$$$$
