LGT.pdb
 OpenBabel07022418453D

 42 41  0  0  1  0  0  0  0  0999 V2000
   -1.4910   -4.4410   -0.6030 C   0  0  0  0  0  0  0  0  0  0  0  0
   -0.5330   -4.1030   -1.7040 C   0  0  0  0  0  0  0  0  0  0  0  0
   -1.3030   -3.4840   -2.8440 C   0  0  0  0  0  0  0  0  0  0  0  0
    0.6130   -3.2500   -1.2300 C   0  0  0  0  0  0  0  0  0  0  0  0
    0.1540   -1.9420   -0.6560 C   0  0  2  0  0  0  0  0  0  0  0  0
   -0.5620   -1.2030   -1.6540 N   0  0  0  0  0  0  0  0  0  0  0  0
    1.2410   -1.1690   -0.0340 C   0  0  0  0  0  0  0  0  0  0  0  0
    1.4220    0.0120   -0.4210 O   0  0  0  0  0  0  0  0  0  0  0  0
   -0.9980   -4.4050    0.3860 H   0  0  0  0  0  0  0  0  0  0  0  0
   -1.8440   -5.4800   -0.7600 H   0  0  0  0  0  0  0  0  0  0  0  0
   -2.3560   -3.7430   -0.5860 H   0  0  0  0  0  0  0  0  0  0  0  0
   -0.0840   -5.0580   -2.0880 H   0  0  0  0  0  0  0  0  0  0  0  0
   -2.0950   -2.8530   -2.4180 H   0  0  0  0  0  0  0  0  0  0  0  0
   -1.7530   -4.3250   -3.4150 H   0  0  0  0  0  0  0  0  0  0  0  0
   -0.6210   -2.9210   -3.4790 H   0  0  0  0  0  0  0  0  0  0  0  0
    1.1920   -3.8580   -0.5060 H   0  0  0  0  0  0  0  0  0  0  0  0
    1.2880   -3.0910   -2.1040 H   0  0  0  0  0  0  0  0  0  0  0  0
   -0.5680   -2.1960    0.1730 H   0  0  0  0  0  0  0  0  0  0  0  0
   -1.3280   -0.6190   -1.2880 H   0  0  0  0  0  0  0  0  0  0  0  0
    0.1160   -0.6620   -2.2390 H   0  0  0  0  0  0  0  0  0  0  0  0
    2.0950   -1.6770    0.9750 N   0  0  0  0  0  0  0  0  0  0  0  0
    3.1190   -0.8320    1.5230 C   0  0  0  0  0  0  0  0  0  0  0  0
    2.6240    0.3630    2.2300 C   0  0  0  0  0  0  0  0  0  0  0  0
    3.4470    1.2150    2.7240 O   0  0  0  0  0  0  0  0  0  0  0  0
    1.9660   -2.6540    1.3010 H   0  0  0  0  0  0  0  0  0  0  0  0
    3.8310   -1.4160    2.1500 H   0  0  0  0  0  0  0  0  0  0  0  0
    3.7250   -0.4730    0.6390 H   0  0  0  0  0  0  0  0  0  0  0  0
   -0.0870    4.1380    3.0110 C   0  0  0  0  0  0  0  0  0  0  0  0
    0.1030    2.8470    2.2280 C   0  0  1  0  0  0  0  0  0  0  0  0
    1.0160    3.1730    1.1990 O   0  0  0  0  0  0  0  0  0  0  0  0
    0.8470    1.8900    3.1420 C   0  0  2  0  0  0  0  0  0  0  0  0
    1.2650    0.6960    2.4420 N   0  0  0  0  0  0  0  0  0  0  0  0
    0.1120    1.6060    4.3910 C   0  0  0  0  0  0  0  0  0  0  0  0
   -0.1420    0.4660    4.8280 O   0  0  0  0  0  0  0  0  0  0  0  0
   -0.3370    2.6790    5.1480 O   0  0  0  0  0  0  0  0  0  0  0  0
    0.7250    4.2270    3.7600 H   0  0  0  0  0  0  0  0  0  0  0  0
    0.0380    5.0290    2.3400 H   0  0  0  0  0  0  0  0  0  0  0  0
   -1.0570    4.1890    3.5200 H   0  0  0  0  0  0  0  0  0  0  0  0
   -0.8250    2.4380    1.8380 H   0  0  0  0  0  0  0  0  0  0  0  0
    1.8430    3.4460    1.6650 H   0  0  0  0  0  0  0  0  0  0  0  0
    1.7720    2.4240    3.4410 H   0  0  0  0  0  0  0  0  0  0  0  0
    0.5300    0.0250    2.0790 H   0  0  0  0  0  0  0  0  0  0  0  0
  1 11  1  0  0  0  0
  1  9  1  0  0  0  0
  2  4  1  0  0  0  0
  2  1  1  0  0  0  0
  3 13  1  0  0  0  0
  3  2  1  0  0  0  0
  4  5  1  0  0  0  0
  4 16  1  0  0  0  0
  5  7  1  0  0  0  0
  5 18  1  1  0  0  0
  6 19  1  0  0  0  0
  6  5  1  0  0  0  0
  7 21  1  0  0  0  0
  8  7  2  0  0  0  0
 10  1  1  0  0  0  0
 12  2  1  0  0  0  0
 14  3  1  0  0  0  0
 15  3  1  0  0  0  0
 17  4  1  0  0  0  0
 20  6  1  0  0  0  0
 21 25  1  0  0  0  0
 21 22  1  0  0  0  0
 22 26  1  0  0  0  0
 22 23  1  0  0  0  0
 23 32  1  0  0  0  0
 23 24  2  0  0  0  0
 27 22  1  0  0  0  0
 28 38  1  0  0  0  0
 28 36  1  0  0  0  0
 29 39  1  6  0  0  0
 29 28  1  0  0  0  0
 29 31  1  0  0  0  0
 30 40  1  0  0  0  0
 30 29  1  0  0  0  0
 31 41  1  1  0  0  0
 31 33  1  0  0  0  0
 32 31  1  0  0  0  0
 33 34  2  0  0  0  0
 33 35  1  0  0  0  0
 37 28  1  0  0  0  0
 42 32  1  0  0  0  0
M  END
$$$$
