LGW.pdb
 OpenBabel07022418453D

 52 53  0  0  1  0  0  0  0  0999 V2000
    3.9470   -3.4620    3.9200 C   0  0  0  0  0  0  0  0  0  0  0  0
    2.9840   -2.3760    3.4370 C   0  0  0  0  0  0  0  0  0  0  0  0
    1.6560   -2.6750    4.0560 C   0  0  0  0  0  0  0  0  0  0  0  0
    3.5790   -1.0650    3.7950 C   0  0  0  0  0  0  0  0  0  0  0  0
    2.8050    0.1450    3.4180 C   0  0  2  0  0  0  0  0  0  0  0  0
    1.4970    0.2340    3.9950 N   0  0  0  0  0  0  0  0  0  0  0  0
    2.7440    0.3870    1.9510 C   0  0  0  0  0  0  0  0  0  0  0  0
    3.7760    0.3620    1.2300 O   0  0  0  0  0  0  0  0  0  0  0  0
    4.7620   -3.5320    3.1730 H   0  0  0  0  0  0  0  0  0  0  0  0
    4.3450   -3.1710    4.9210 H   0  0  0  0  0  0  0  0  0  0  0  0
    3.4640   -4.4450    3.9990 H   0  0  0  0  0  0  0  0  0  0  0  0
    2.8960   -2.5330    2.3430 H   0  0  0  0  0  0  0  0  0  0  0  0
    1.4530   -3.7590    3.8760 H   0  0  0  0  0  0  0  0  0  0  0  0
    1.6410   -2.5510    5.1540 H   0  0  0  0  0  0  0  0  0  0  0  0
    0.8070   -2.1430    3.5590 H   0  0  0  0  0  0  0  0  0  0  0  0
    3.7860   -1.0460    4.8850 H   0  0  0  0  0  0  0  0  0  0  0  0
    4.5740   -1.0000    3.3040 H   0  0  0  0  0  0  0  0  0  0  0  0
    3.3810    1.0270    3.8330 H   0  0  0  0  0  0  0  0  0  0  0  0
    1.4970   -0.0450    5.0000 H   0  0  0  0  0  0  0  0  0  0  0  0
    1.1410    1.2170    3.9700 H   0  0  0  0  0  0  0  0  0  0  0  0
    1.5090    0.6580    1.3040 N   0  0  0  0  0  0  0  0  0  0  0  0
    1.4790    0.8880   -0.1070 C   0  0  0  0  0  0  0  0  0  0  0  0
    0.1630    1.1580   -0.6890 C   0  0  0  0  0  0  0  0  0  0  0  0
    0.1460    1.3640   -1.9550 O   0  0  0  0  0  0  0  0  0  0  0  0
    0.6580    0.6840    1.8680 H   0  0  0  0  0  0  0  0  0  0  0  0
    1.8670   -0.0790   -0.5670 H   0  0  0  0  0  0  0  0  0  0  0  0
    2.2430    1.6560   -0.4190 H   0  0  0  0  0  0  0  0  0  0  0  0
   -1.0560    1.2070    0.0190 N   0  0  0  0  0  0  0  0  0  0  0  0
   -2.3250    1.4880   -0.6750 C   0  0  1  0  0  0  0  0  0  0  0  0
   -3.3180    0.3720   -0.4220 C   0  0  0  0  0  0  0  0  0  0  0  0
   -2.8020   -0.9330   -0.9130 C   0  0  0  0  0  0  0  0  0  0  0  0
   -2.2780   -1.9970   -0.2100 C   0  0  0  0  0  0  0  0  0  0  0  0
   -1.9350   -2.9770   -1.0650 N   0  0  0  0  0  0  0  0  0  0  0  0
   -2.2340   -2.5540   -2.3180 C   0  0  0  0  0  0  0  0  0  0  0  0
   -2.0940   -3.1480   -3.5760 C   0  0  0  0  0  0  0  0  0  0  0  0
   -2.4790   -2.5010   -4.7310 C   0  0  0  0  0  0  0  0  0  0  0  0
   -3.0190   -1.2340   -4.6610 C   0  0  0  0  0  0  0  0  0  0  0  0
   -3.1600   -0.6430   -3.4240 C   0  0  0  0  0  0  0  0  0  0  0  0
   -2.7730   -1.2870   -2.2440 C   0  0  0  0  0  0  0  0  0  0  0  0
   -2.9140    2.7420   -0.1400 C   0  0  0  0  0  0  0  0  0  0  0  0
   -2.3670    3.4240    0.7700 O   0  0  0  0  0  0  0  0  0  0  0  0
   -4.1180    3.2320   -0.6280 O   0  0  0  0  0  0  0  0  0  0  0  0
   -1.0590    1.0420    1.0400 H   0  0  0  0  0  0  0  0  0  0  0  0
   -2.1020    1.6370   -1.7290 H   0  0  0  0  0  0  0  0  0  0  0  0
   -3.4430    0.2800    0.6760 H   0  0  0  0  0  0  0  0  0  0  0  0
   -4.2930    0.6420   -0.8510 H   0  0  0  0  0  0  0  0  0  0  0  0
   -2.1630   -2.0290    0.8840 H   0  0  0  0  0  0  0  0  0  0  0  0
   -1.5140   -3.9060   -0.8510 H   0  0  0  0  0  0  0  0  0  0  0  0
   -1.6700   -4.1330   -3.5900 H   0  0  0  0  0  0  0  0  0  0  0  0
   -2.3610   -2.9840   -5.7090 H   0  0  0  0  0  0  0  0  0  0  0  0
   -3.3420   -0.6700   -5.5240 H   0  0  0  0  0  0  0  0  0  0  0  0
   -3.5760    0.3500   -3.2940 H   0  0  0  0  0  0  0  0  0  0  0  0
  1 11  1  0  0  0  0
  1 10  1  0  0  0  0
  2  4  1  0  0  0  0
  2  1  1  0  0  0  0
  2  3  1  0  0  0  0
  3 14  1  0  0  0  0
  4 16  1  0  0  0  0
  5  4  1  0  0  0  0
  5 18  1  1  0  0  0
  5  6  1  0  0  0  0
  6 19  1  0  0  0  0
  7  5  1  0  0  0  0
  8  7  2  0  0  0  0
  9  1  1  0  0  0  0
 12  2  1  0  0  0  0
 13  3  1  0  0  0  0
 15  3  1  0  0  0  0
 17  4  1  0  0  0  0
 20  6  1  0  0  0  0
 21 25  1  0  0  0  0
 21  7  1  0  0  0  0
 22 21  1  0  0  0  0
 23 22  1  0  0  0  0
 23 28  1  0  0  0  0
 24 23  2  0  0  0  0
 26 22  1  0  0  0  0
 27 22  1  0  0  0  0
 28 43  1  0  0  0  0
 29 44  1  6  0  0  0
 29 30  1  0  0  0  0
 29 40  1  0  0  0  0
 29 28  1  0  0  0  0
 30 45  1  0  0  0  0
 31 30  1  0  0  0  0
 31 32  2  0  0  0  0
 32 47  1  0  0  0  0
 33 48  1  0  0  0  0
 33 32  1  0  0  0  0
 34 39  1  0  0  0  0
 34 33  1  0  0  0  0
 35 34  2  0  0  0  0
 36 37  2  0  0  0  0
 36 35  1  0  0  0  0
 37 38  1  0  0  0  0
 38 52  1  0  0  0  0
 38 39  2  0  0  0  0
 39 31  1  0  0  0  0
 40 41  1  0  0  0  0
 42 40  2  0  0  0  0
 46 30  1  0  0  0  0
 49 35  1  0  0  0  0
 50 36  1  0  0  0  0
 51 37  1  0  0  0  0
M  END
$$$$
