LHF.pdb
 OpenBabel07022418463D

 58 59  0  0  1  0  0  0  0  0999 V2000
    0.9250   -0.7540    3.8730 C   0  0  0  0  0  0  0  0  0  0  0  0
    2.3460   -1.0260    4.2560 C   0  0  0  0  0  0  0  0  0  0  0  0
    2.7000   -2.4470    3.8570 C   0  0  0  0  0  0  0  0  0  0  0  0
    3.3280   -0.0270    3.8180 C   0  0  0  0  0  0  0  0  0  0  0  0
    3.5010    0.2190    2.3430 C   0  0  2  0  0  0  0  0  0  0  0  0
    4.5770    1.2840    2.2770 N   0  0  0  0  0  0  0  0  0  0  0  0
    2.2830    0.7810    1.7390 C   0  0  0  0  0  0  0  0  0  0  0  0
    2.0320    2.0230    1.9190 O   0  0  0  0  0  0  0  0  0  0  0  0
    0.7650    0.3220    3.6440 H   0  0  0  0  0  0  0  0  0  0  0  0
    0.5430   -1.4360    3.1080 H   0  0  0  0  0  0  0  0  0  0  0  0
    0.2260   -0.9230    4.7600 H   0  0  0  0  0  0  0  0  0  0  0  0
    2.3750   -1.0540    5.3900 H   0  0  0  0  0  0  0  0  0  0  0  0
    3.7290   -2.6960    4.1410 H   0  0  0  0  0  0  0  0  0  0  0  0
    2.4480   -2.6050    2.8070 H   0  0  0  0  0  0  0  0  0  0  0  0
    2.0320   -3.1190    4.4570 H   0  0  0  0  0  0  0  0  0  0  0  0
    3.0560    0.9470    4.3430 H   0  0  0  0  0  0  0  0  0  0  0  0
    4.3480   -0.2390    4.2790 H   0  0  0  0  0  0  0  0  0  0  0  0
    3.9480   -0.6260    1.8110 H   0  0  0  0  0  0  0  0  0  0  0  0
    5.4270    0.7660    2.6010 H   0  0  0  0  0  0  0  0  0  0  0  0
    4.7320    1.5230    1.2710 H   0  0  0  0  0  0  0  0  0  0  0  0
    1.3250    0.0880    0.9450 N   0  0  0  0  0  0  0  0  0  0  0  0
    0.1660    0.7630    0.3920 C   0  0  1  0  0  0  0  0  0  0  0  0
    0.5360    1.2860   -1.0090 C   0  0  0  0  0  0  0  0  0  0  0  0
   -0.6320    1.9700   -1.5740 C   0  0  0  0  0  0  0  0  0  0  0  0
   -1.6190    1.4510   -2.3790 C   0  0  0  0  0  0  0  0  0  0  0  0
   -2.5050    2.4070   -2.7130 N   0  0  0  0  0  0  0  0  0  0  0  0
   -2.0850    3.5400   -2.1210 C   0  0  0  0  0  0  0  0  0  0  0  0
   -0.9560    3.2790   -1.4350 N   0  0  0  0  0  0  0  0  0  0  0  0
   -1.0070   -0.0640    0.3880 C   0  0  0  0  0  0  0  0  0  0  0  0
   -2.1220    0.5060    0.0680 O   0  0  0  0  0  0  0  0  0  0  0  0
    1.4820   -0.9110    0.7640 H   0  0  0  0  0  0  0  0  0  0  0  0
   -0.0350    1.7290    0.9460 H   0  0  0  0  0  0  0  0  0  0  0  0
    1.3740    1.9960   -0.8290 H   0  0  0  0  0  0  0  0  0  0  0  0
    0.9280    0.4810   -1.6420 H   0  0  0  0  0  0  0  0  0  0  0  0
   -1.7200    0.4330   -2.7250 H   0  0  0  0  0  0  0  0  0  0  0  0
   -3.3600    2.3350   -3.3070 H   0  0  0  0  0  0  0  0  0  0  0  0
   -2.5690    4.5070   -2.1820 H   0  0  0  0  0  0  0  0  0  0  0  0
   -1.0430   -1.4320    0.6970 N   0  0  0  0  0  0  0  0  0  0  0  0
   -2.2960   -2.2030    0.6550 C   0  0  1  0  0  0  0  0  0  0  0  0
   -2.1700   -3.3970   -0.2380 C   0  0  0  0  0  0  0  0  0  0  0  0
   -1.8440   -3.0490   -1.6370 C   0  0  0  0  0  0  0  0  0  0  0  0
   -2.7820   -2.8050   -2.6020 C   0  0  0  0  0  0  0  0  0  0  0  0
   -2.4420   -2.4830   -3.8950 C   0  0  0  0  0  0  0  0  0  0  0  0
   -1.1290   -2.4000   -4.2480 C   0  0  0  0  0  0  0  0  0  0  0  0
   -0.1580   -2.6400   -3.3000 C   0  0  0  0  0  0  0  0  0  0  0  0
   -0.5090   -2.9620   -2.0040 C   0  0  0  0  0  0  0  0  0  0  0  0
   -2.6490   -2.6580    2.0130 C   0  0  0  0  0  0  0  0  0  0  0  0
   -1.9750   -2.4050    3.0320 O   0  0  0  0  0  0  0  0  0  0  0  0
   -3.8030   -3.4210    2.2070 O   0  0  0  0  0  0  0  0  0  0  0  0
   -0.1860   -1.9320    0.9530 H   0  0  0  0  0  0  0  0  0  0  0  0
   -3.1320   -1.5340    0.3040 H   0  0  0  0  0  0  0  0  0  0  0  0
   -1.4550   -4.1110    0.1920 H   0  0  0  0  0  0  0  0  0  0  0  0
   -3.1580   -3.9010   -0.2530 H   0  0  0  0  0  0  0  0  0  0  0  0
   -3.8350   -2.8700   -2.3250 H   0  0  0  0  0  0  0  0  0  0  0  0
   -3.2150   -2.3000   -4.6180 H   0  0  0  0  0  0  0  0  0  0  0  0
   -0.8800   -2.1430   -5.2820 H   0  0  0  0  0  0  0  0  0  0  0  0
    0.8710   -2.5590   -3.6370 H   0  0  0  0  0  0  0  0  0  0  0  0
    0.3000   -3.1370   -1.3140 H   0  0  0  0  0  0  0  0  0  0  0  0
  1  2  1  0  0  0  0
  1 11  1  0  0  0  0
  2 12  1  0  0  0  0
  3 13  1  0  0  0  0
  3  2  1  0  0  0  0
  3 15  1  0  0  0  0
  4  2  1  0  0  0  0
  4 17  1  0  0  0  0
  4 16  1  0  0  0  0
  5 18  1  6  0  0  0
  5  4  1  0  0  0  0
  6  5  1  0  0  0  0
  6 19  1  0  0  0  0
  7  8  2  0  0  0  0
  7  5  1  0  0  0  0
  9  1  1  0  0  0  0
 10  1  1  0  0  0  0
 14  3  1  0  0  0  0
 20  6  1  0  0  0  0
 21  7  1  0  0  0  0
 22 21  1  0  0  0  0
 22 32  1  1  0  0  0
 23 33  1  0  0  0  0
 23 22  1  0  0  0  0
 24 28  1  0  0  0  0
 24 23  1  0  0  0  0
 25 24  2  0  0  0  0
 26 25  1  0  0  0  0
 26 27  1  0  0  0  0
 27 28  2  0  0  0  0
 29 22  1  0  0  0  0
 29 38  1  0  0  0  0
 30 29  2  0  0  0  0
 31 21  1  0  0  0  0
 34 23  1  0  0  0  0
 35 25  1  0  0  0  0
 36 26  1  0  0  0  0
 37 27  1  0  0  0  0
 38 50  1  0  0  0  0
 39 51  1  6  0  0  0
 39 38  1  0  0  0  0
 39 47  1  0  0  0  0
 40 52  1  0  0  0  0
 40 39  1  0  0  0  0
 41 40  1  0  0  0  0
 42 54  1  0  0  0  0
 42 41  2  0  0  0  0
 43 42  1  0  0  0  0
 44 43  2  0  0  0  0
 44 45  1  0  0  0  0
 45 46  2  0  0  0  0
 46 41  1  0  0  0  0
 46 58  1  0  0  0  0
 47 49  2  0  0  0  0
 47 48  1  0  0  0  0
 53 40  1  0  0  0  0
 55 43  1  0  0  0  0
 56 44  1  0  0  0  0
 57 45  1  0  0  0  0
M  END
$$$$
