LHM.pdb
 OpenBabel07022418463D

 55 55  0  0  1  0  0  0  0  0999 V2000
    1.7650   -4.1670    4.0570 C   0  0  0  0  0  0  0  0  0  0  0  0
    2.1450   -3.7200    2.6400 C   0  0  0  0  0  0  0  0  0  0  0  0
    0.9110   -3.5210    1.8630 C   0  0  0  0  0  0  0  0  0  0  0  0
    3.1050   -2.6130    2.7160 C   0  0  0  0  0  0  0  0  0  0  0  0
    2.6720   -1.3760    3.4130 C   0  0  2  0  0  0  0  0  0  0  0  0
    2.3150   -1.5920    4.7990 N   0  0  0  0  0  0  0  0  0  0  0  0
    1.6540   -0.5770    2.6930 C   0  0  0  0  0  0  0  0  0  0  0  0
    0.5930   -0.1620    3.2700 O   0  0  0  0  0  0  0  0  0  0  0  0
    2.6290   -4.0040    4.7210 H   0  0  0  0  0  0  0  0  0  0  0  0
    0.8800   -3.5620    4.3370 H   0  0  0  0  0  0  0  0  0  0  0  0
    1.5060   -5.2410    4.0830 H   0  0  0  0  0  0  0  0  0  0  0  0
    2.6850   -4.6110    2.2080 H   0  0  0  0  0  0  0  0  0  0  0  0
    0.1480   -4.3050    2.1510 H   0  0  0  0  0  0  0  0  0  0  0  0
    1.0600   -3.7030    0.7570 H   0  0  0  0  0  0  0  0  0  0  0  0
    0.4020   -2.5670    1.9570 H   0  0  0  0  0  0  0  0  0  0  0  0
    4.0280   -2.9800    3.2370 H   0  0  0  0  0  0  0  0  0  0  0  0
    3.4700   -2.3110    1.6990 H   0  0  0  0  0  0  0  0  0  0  0  0
    3.5850   -0.7040    3.4570 H   0  0  0  0  0  0  0  0  0  0  0  0
    1.8960   -0.6840    5.1350 H   0  0  0  0  0  0  0  0  0  0  0  0
    3.1910   -1.7280    5.3310 H   0  0  0  0  0  0  0  0  0  0  0  0
    1.8000   -0.2290    1.3280 N   0  0  0  0  0  0  0  0  0  0  0  0
    0.7660    0.5770    0.6190 C   0  0  1  0  0  0  0  0  0  0  0  0
    1.3650    1.8780    0.2110 C   0  0  0  0  0  0  0  0  0  0  0  0
    0.4930    2.8100   -0.5080 C   0  0  0  0  0  0  0  0  0  0  0  0
    0.2810    3.0280   -1.8530 C   0  0  0  0  0  0  0  0  0  0  0  0
   -0.5950    4.0230   -2.0520 N   0  0  0  0  0  0  0  0  0  0  0  0
   -0.9570    4.4570   -0.8330 C   0  0  0  0  0  0  0  0  0  0  0  0
   -0.3090    3.7350    0.0990 N   0  0  0  0  0  0  0  0  0  0  0  0
    0.2720   -0.2930   -0.4580 C   0  0  0  0  0  0  0  0  0  0  0  0
    0.8510   -1.3990   -0.7260 O   0  0  0  0  0  0  0  0  0  0  0  0
    2.6500   -0.5470    0.8180 H   0  0  0  0  0  0  0  0  0  0  0  0
   -0.0510    0.8020    1.3520 H   0  0  0  0  0  0  0  0  0  0  0  0
    2.2550    1.6980   -0.4590 H   0  0  0  0  0  0  0  0  0  0  0  0
    1.8150    2.3570    1.1300 H   0  0  0  0  0  0  0  0  0  0  0  0
    0.7750    2.4570   -2.6260 H   0  0  0  0  0  0  0  0  0  0  0  0
   -0.9150    4.3700   -3.0030 H   0  0  0  0  0  0  0  0  0  0  0  0
   -1.6600    5.2600   -0.6680 H   0  0  0  0  0  0  0  0  0  0  0  0
   -5.1410   -2.0920    0.3640 C   0  0  0  0  0  0  0  0  0  0  0  0
   -5.2350   -1.3200   -1.2530 S   0  0  0  0  0  0  0  0  0  0  0  0
   -3.6830   -0.5140   -1.7350 C   0  0  0  0  0  0  0  0  0  0  0  0
   -2.6150   -1.5680   -1.9220 C   0  0  0  0  0  0  0  0  0  0  0  0
   -1.2880   -0.9370   -2.3280 C   0  0  2  0  0  0  0  0  0  0  0  0
   -0.8650   -0.0170   -1.2880 N   0  0  0  0  0  0  0  0  0  0  0  0
   -1.3720   -0.3220   -3.6640 C   0  0  0  0  0  0  0  0  0  0  0  0
   -1.1060    0.8860   -3.8290 O   0  0  0  0  0  0  0  0  0  0  0  0
   -1.7460   -1.0400   -4.7900 O   0  0  0  0  0  0  0  0  0  0  0  0
   -5.7500   -1.5260    1.1170 H   0  0  0  0  0  0  0  0  0  0  0  0
   -5.6250   -3.1000    0.2870 H   0  0  0  0  0  0  0  0  0  0  0  0
   -4.1020   -2.2410    0.7210 H   0  0  0  0  0  0  0  0  0  0  0  0
   -3.8970    0.0240   -2.6920 H   0  0  0  0  0  0  0  0  0  0  0  0
   -3.4270    0.1930   -0.9180 H   0  0  0  0  0  0  0  0  0  0  0  0
   -2.4960   -2.0890   -0.9510 H   0  0  0  0  0  0  0  0  0  0  0  0
   -2.9580   -2.3070   -2.6570 H   0  0  0  0  0  0  0  0  0  0  0  0
   -0.5870   -1.8050   -2.4060 H   0  0  0  0  0  0  0  0  0  0  0  0
   -1.3690    0.8660   -1.0940 H   0  0  0  0  0  0  0  0  0  0  0  0
  1 11  1  0  0  0  0
  1 10  1  0  0  0  0
  1  9  1  0  0  0  0
  2  4  1  0  0  0  0
  2  1  1  0  0  0  0
  3 15  1  0  0  0  0
  3 13  1  0  0  0  0
  3  2  1  0  0  0  0
  4 16  1  0  0  0  0
  4  5  1  0  0  0  0
  5 18  1  1  0  0  0
  5  6  1  0  0  0  0
  6 19  1  0  0  0  0
  6 20  1  0  0  0  0
  7  8  2  0  0  0  0
  7  5  1  0  0  0  0
 12  2  1  0  0  0  0
 14  3  1  0  0  0  0
 17  4  1  0  0  0  0
 21  7  1  0  0  0  0
 22 21  1  0  0  0  0
 22 32  1  1  0  0  0
 23 22  1  0  0  0  0
 23 34  1  0  0  0  0
 24 28  1  0  0  0  0
 24 23  1  0  0  0  0
 25 24  2  0  0  0  0
 26 25  1  0  0  0  0
 26 27  1  0  0  0  0
 27 37  1  0  0  0  0
 27 28  2  0  0  0  0
 29 22  1  0  0  0  0
 30 29  2  0  0  0  0
 31 21  1  0  0  0  0
 33 23  1  0  0  0  0
 35 25  1  0  0  0  0
 36 26  1  0  0  0  0
 38 49  1  0  0  0  0
 38 47  1  0  0  0  0
 39 38  1  0  0  0  0
 40 39  1  0  0  0  0
 40 51  1  0  0  0  0
 41 40  1  0  0  0  0
 41 52  1  0  0  0  0
 42 54  1  6  0  0  0
 42 41  1  0  0  0  0
 42 43  1  0  0  0  0
 43 55  1  0  0  0  0
 43 29  1  0  0  0  0
 44 42  1  0  0  0  0
 45 44  1  0  0  0  0
 46 44  2  0  0  0  0
 48 38  1  0  0  0  0
 50 40  1  0  0  0  0
 53 41  1  0  0  0  0
M  END
$$$$
