LHN.pdb
 OpenBabel07022418453D

 52 52  0  0  1  0  0  0  0  0999 V2000
    0.1840   -3.3890    4.1770 C   0  0  0  0  0  0  0  0  0  0  0  0
   -0.0650   -1.9050    3.8900 C   0  0  0  0  0  0  0  0  0  0  0  0
   -0.7530   -1.3320    5.0900 C   0  0  0  0  0  0  0  0  0  0  0  0
    1.2830   -1.2970    3.6200 C   0  0  0  0  0  0  0  0  0  0  0  0
    1.2070    0.1800    3.3150 C   0  0  2  0  0  0  0  0  0  0  0  0
    0.6400    0.9400    4.3890 N   0  0  0  0  0  0  0  0  0  0  0  0
    0.4750    0.4660    2.0740 C   0  0  0  0  0  0  0  0  0  0  0  0
   -0.4800    1.2710    2.0850 O   0  0  0  0  0  0  0  0  0  0  0  0
    0.9790   -3.7880    3.5070 H   0  0  0  0  0  0  0  0  0  0  0  0
    0.6120   -3.4200    5.2040 H   0  0  0  0  0  0  0  0  0  0  0  0
   -0.7370   -3.9750    4.1680 H   0  0  0  0  0  0  0  0  0  0  0  0
   -0.7010   -1.8420    2.9680 H   0  0  0  0  0  0  0  0  0  0  0  0
   -1.4530   -0.5100    4.8620 H   0  0  0  0  0  0  0  0  0  0  0  0
   -1.3900   -2.1450    5.5410 H   0  0  0  0  0  0  0  0  0  0  0  0
   -0.0250   -1.0370    5.8580 H   0  0  0  0  0  0  0  0  0  0  0  0
    1.8980   -1.4140    4.5210 H   0  0  0  0  0  0  0  0  0  0  0  0
    1.7050   -1.7930    2.7320 H   0  0  0  0  0  0  0  0  0  0  0  0
    2.2830    0.5170    3.2330 H   0  0  0  0  0  0  0  0  0  0  0  0
    0.2150    1.8060    3.9880 H   0  0  0  0  0  0  0  0  0  0  0  0
    1.3570    1.1090    5.1060 H   0  0  0  0  0  0  0  0  0  0  0  0
    0.8710   -0.1830    0.8780 N   0  0  0  0  0  0  0  0  0  0  0  0
    0.2050    0.0440   -0.3870 C   0  0  1  0  0  0  0  0  0  0  0  0
    1.1480    0.5490   -1.4370 C   0  0  0  0  0  0  0  0  0  0  0  0
    1.7630    1.8320   -1.0280 C   0  0  0  0  0  0  0  0  0  0  0  0
    2.6780    2.5650   -1.7670 C   0  0  0  0  0  0  0  0  0  0  0  0
    3.0160    3.6760   -1.0780 N   0  0  0  0  0  0  0  0  0  0  0  0
    2.3320    3.6520    0.0760 C   0  0  0  0  0  0  0  0  0  0  0  0
    1.5860    2.5470    0.0970 N   0  0  0  0  0  0  0  0  0  0  0  0
   -0.4190   -1.2550   -0.7880 C   0  0  0  0  0  0  0  0  0  0  0  0
   -0.3200   -2.2900   -0.0790 O   0  0  0  0  0  0  0  0  0  0  0  0
    1.6800   -0.8700    0.8530 H   0  0  0  0  0  0  0  0  0  0  0  0
   -0.5780    0.8180   -0.2080 H   0  0  0  0  0  0  0  0  0  0  0  0
    1.9770   -0.2000   -1.5330 H   0  0  0  0  0  0  0  0  0  0  0  0
    0.6640    0.6750   -2.4060 H   0  0  0  0  0  0  0  0  0  0  0  0
    3.0340    2.2560   -2.7370 H   0  0  0  0  0  0  0  0  0  0  0  0
    3.6980    4.4130   -1.4100 H   0  0  0  0  0  0  0  0  0  0  0  0
    2.3810    4.3990    0.8470 H   0  0  0  0  0  0  0  0  0  0  0  0
   -3.3790   -1.6500   -0.2630 N   0  0  0  0  0  0  0  0  0  0  0  0
   -3.9890   -1.8550   -1.5180 C   0  0  0  0  0  0  0  0  0  0  0  0
   -5.2040   -1.6210   -1.6530 O   0  0  0  0  0  0  0  0  0  0  0  0
   -3.2480   -2.3410   -2.7020 C   0  0  0  0  0  0  0  0  0  0  0  0
   -1.7840   -2.5960   -2.4410 C   0  0  2  0  0  0  0  0  0  0  0  0
   -1.1610   -1.3630   -2.0120 N   0  0  0  0  0  0  0  0  0  0  0  0
   -1.1410   -3.1120   -3.6920 C   0  0  0  0  0  0  0  0  0  0  0  0
   -1.5930   -4.1800   -4.1670 O   0  0  0  0  0  0  0  0  0  0  0  0
   -0.0980   -2.4890   -4.3380 O   0  0  0  0  0  0  0  0  0  0  0  0
   -3.1180   -2.4770    0.3160 H   0  0  0  0  0  0  0  0  0  0  0  0
   -3.1730   -0.7110    0.1240 H   0  0  0  0  0  0  0  0  0  0  0  0
   -3.7560   -3.2550   -3.1060 H   0  0  0  0  0  0  0  0  0  0  0  0
   -3.3820   -1.5460   -3.4920 H   0  0  0  0  0  0  0  0  0  0  0  0
   -1.6880   -3.4000   -1.6980 H   0  0  0  0  0  0  0  0  0  0  0  0
   -1.2280   -0.4930   -2.5830 H   0  0  0  0  0  0  0  0  0  0  0  0
  1 10  1  0  0  0  0
  2  1  1  0  0  0  0
  2  3  1  0  0  0  0
  3 14  1  0  0  0  0
  3 15  1  0  0  0  0
  4  2  1  0  0  0  0
  4 16  1  0  0  0  0
  5 18  1  6  0  0  0
  5  4  1  0  0  0  0
  5  6  1  0  0  0  0
  6 20  1  0  0  0  0
  7  8  2  0  0  0  0
  7  5  1  0  0  0  0
  9  1  1  0  0  0  0
 11  1  1  0  0  0  0
 12  2  1  0  0  0  0
 13  3  1  0  0  0  0
 17  4  1  0  0  0  0
 19  6  1  0  0  0  0
 21  7  1  0  0  0  0
 22 32  1  1  0  0  0
 22 21  1  0  0  0  0
 23 24  1  0  0  0  0
 23 22  1  0  0  0  0
 24 28  1  0  0  0  0
 25 26  1  0  0  0  0
 25 24  2  0  0  0  0
 26 27  1  0  0  0  0
 27 28  2  0  0  0  0
 27 37  1  0  0  0  0
 29 22  1  0  0  0  0
 29 30  2  0  0  0  0
 31 21  1  0  0  0  0
 33 23  1  0  0  0  0
 34 23  1  0  0  0  0
 35 25  1  0  0  0  0
 36 26  1  0  0  0  0
 38 48  1  0  0  0  0
 38 47  1  0  0  0  0
 39 38  1  0  0  0  0
 40 39  2  0  0  0  0
 41 42  1  0  0  0  0
 41 39  1  0  0  0  0
 42 43  1  0  0  0  0
 42 51  1  1  0  0  0
 43 29  1  0  0  0  0
 44 42  1  0  0  0  0
 45 44  1  0  0  0  0
 46 44  2  0  0  0  0
 49 41  1  0  0  0  0
 50 41  1  0  0  0  0
 52 43  1  0  0  0  0
M  END
$$$$
