LHR.pdb
 OpenBabel07022418453D

 61 61  0  0  1  0  0  0  0  0999 V2000
    0.6260    1.2570    5.5050 C   0  0  0  0  0  0  0  0  0  0  0  0
    1.8380    0.3850    5.5590 C   0  0  0  0  0  0  0  0  0  0  0  0
    1.5930   -0.7490    6.5660 C   0  0  0  0  0  0  0  0  0  0  0  0
    2.3820   -0.1180    4.2900 C   0  0  0  0  0  0  0  0  0  0  0  0
    1.6070   -0.9870    3.3980 C   0  0  2  0  0  0  0  0  0  0  0  0
    2.5350   -1.2930    2.2520 N   0  0  0  0  0  0  0  0  0  0  0  0
    0.3860   -0.5060    2.7850 C   0  0  0  0  0  0  0  0  0  0  0  0
   -0.7070   -0.3210    3.3960 O   0  0  0  0  0  0  0  0  0  0  0  0
   -0.3210    0.7380    5.7770 H   0  0  0  0  0  0  0  0  0  0  0  0
    0.7790    2.0850    6.2810 H   0  0  0  0  0  0  0  0  0  0  0  0
    0.5060    1.7500    4.5350 H   0  0  0  0  0  0  0  0  0  0  0  0
    2.6490    0.9970    6.0870 H   0  0  0  0  0  0  0  0  0  0  0  0
    2.5690   -1.1020    6.9040 H   0  0  0  0  0  0  0  0  0  0  0  0
    0.9250   -1.5140    6.1630 H   0  0  0  0  0  0  0  0  0  0  0  0
    1.0880   -0.2710    7.4300 H   0  0  0  0  0  0  0  0  0  0  0  0
    2.8250    0.7780    3.7550 H   0  0  0  0  0  0  0  0  0  0  0  0
    3.3350   -0.7030    4.5470 H   0  0  0  0  0  0  0  0  0  0  0  0
    1.5070   -1.9870    3.8820 H   0  0  0  0  0  0  0  0  0  0  0  0
    3.4300   -1.5690    2.7230 H   0  0  0  0  0  0  0  0  0  0  0  0
    2.1780   -2.1650    1.7710 H   0  0  0  0  0  0  0  0  0  0  0  0
    0.3540   -0.2030    1.3780 N   0  0  0  0  0  0  0  0  0  0  0  0
   -0.8320    0.2720    0.7240 C   0  0  1  0  0  0  0  0  0  0  0  0
   -0.4670    1.4270   -0.1710 C   0  0  0  0  0  0  0  0  0  0  0  0
    0.1250    2.5310    0.6080 C   0  0  0  0  0  0  0  0  0  0  0  0
    0.5780    3.7570    0.1120 C   0  0  0  0  0  0  0  0  0  0  0  0
    1.0410    4.4760    1.1450 N   0  0  0  0  0  0  0  0  0  0  0  0
    0.8950    3.7480    2.2700 C   0  0  0  0  0  0  0  0  0  0  0  0
    0.3410    2.5830    1.9140 N   0  0  0  0  0  0  0  0  0  0  0  0
   -1.4490   -0.7650   -0.1500 C   0  0  0  0  0  0  0  0  0  0  0  0
   -2.4820   -0.4320   -0.7710 O   0  0  0  0  0  0  0  0  0  0  0  0
    1.2050   -0.3210    0.7880 H   0  0  0  0  0  0  0  0  0  0  0  0
   -1.5560    0.5300    1.5160 H   0  0  0  0  0  0  0  0  0  0  0  0
    0.1810    1.1130   -1.0130 H   0  0  0  0  0  0  0  0  0  0  0  0
   -1.3860    1.8580   -0.6710 H   0  0  0  0  0  0  0  0  0  0  0  0
    0.5590    4.0640   -0.9090 H   0  0  0  0  0  0  0  0  0  0  0  0
    1.4460    5.4230    1.1320 H   0  0  0  0  0  0  0  0  0  0  0  0
    1.1650    4.0280    3.2780 H   0  0  0  0  0  0  0  0  0  0  0  0
   -3.9050   -2.6290   -6.0990 N   0  0  0  0  0  0  0  0  0  0  0  0
   -2.6280   -2.0630   -5.7460 C   0  0  0  0  0  0  0  0  0  0  0  0
   -2.2920   -0.9210   -6.2640 N   0  0  0  0  0  0  0  0  0  0  0  0
   -1.7470   -2.7200   -4.8580 N   0  0  0  0  0  0  0  0  0  0  0  0
   -0.8770   -1.9620   -4.0170 C   0  0  0  0  0  0  0  0  0  0  0  0
   -0.0010   -2.7740   -3.1330 C   0  0  0  0  0  0  0  0  0  0  0  0
   -0.6910   -3.6660   -2.1780 C   0  0  0  0  0  0  0  0  0  0  0  0
   -1.6060   -3.0370   -1.1910 C   0  0  2  0  0  0  0  0  0  0  0  0
   -0.9540   -2.0760   -0.3210 N   0  0  0  0  0  0  0  0  0  0  0  0
   -2.1470   -4.1210   -0.3400 C   0  0  0  0  0  0  0  0  0  0  0  0
   -2.7560   -5.0660   -0.8810 O   0  0  0  0  0  0  0  0  0  0  0  0
   -1.9920   -4.1060    1.0230 O   0  0  0  0  0  0  0  0  0  0  0  0
   -3.9320   -3.1670   -6.9900 H   0  0  0  0  0  0  0  0  0  0  0  0
   -4.7550   -2.5340   -5.5420 H   0  0  0  0  0  0  0  0  0  0  0  0
   -2.9300   -0.4440   -6.9080 H   0  0  0  0  0  0  0  0  0  0  0  0
   -1.7430   -3.7510   -4.8260 H   0  0  0  0  0  0  0  0  0  0  0  0
   -0.1870   -1.3930   -4.7100 H   0  0  0  0  0  0  0  0  0  0  0  0
   -1.4140   -1.1420   -3.4620 H   0  0  0  0  0  0  0  0  0  0  0  0
    0.5990   -3.4470   -3.8160 H   0  0  0  0  0  0  0  0  0  0  0  0
    0.7480   -2.1170   -2.6600 H   0  0  0  0  0  0  0  0  0  0  0  0
    0.0980   -4.2220   -1.5990 H   0  0  0  0  0  0  0  0  0  0  0  0
   -1.2590   -4.4590   -2.7090 H   0  0  0  0  0  0  0  0  0  0  0  0
   -2.4820   -2.5770   -1.7110 H   0  0  0  0  0  0  0  0  0  0  0  0
   -0.0950   -2.3700    0.1910 H   0  0  0  0  0  0  0  0  0  0  0  0
  1  2  1  0  0  0  0
  1  9  1  0  0  0  0
  1 10  1  0  0  0  0
  2 12  1  0  0  0  0
  2  3  1  0  0  0  0
  3 13  1  0  0  0  0
  3 15  1  0  0  0  0
  4 17  1  0  0  0  0
  4  2  1  0  0  0  0
  5 18  1  1  0  0  0
  5  4  1  0  0  0  0
  6 19  1  0  0  0  0
  6  5  1  0  0  0  0
  7  8  2  0  0  0  0
  7  5  1  0  0  0  0
 11  1  1  0  0  0  0
 14  3  1  0  0  0  0
 16  4  1  0  0  0  0
 20  6  1  0  0  0  0
 21  7  1  0  0  0  0
 22 21  1  0  0  0  0
 22 32  1  1  0  0  0
 23 24  1  0  0  0  0
 23 22  1  0  0  0  0
 24 28  1  0  0  0  0
 25 24  2  0  0  0  0
 25 26  1  0  0  0  0
 26 27  1  0  0  0  0
 27 37  1  0  0  0  0
 28 27  2  0  0  0  0
 29 22  1  0  0  0  0
 30 29  2  0  0  0  0
 31 21  1  0  0  0  0
 33 23  1  0  0  0  0
 34 23  1  0  0  0  0
 35 25  1  0  0  0  0
 36 26  1  0  0  0  0
 38 39  1  0  0  0  0
 38 51  1  0  0  0  0
 39 41  1  0  0  0  0
 40 39  2  0  0  0  0
 41 53  1  0  0  0  0
 41 42  1  0  0  0  0
 42 55  1  0  0  0  0
 42 43  1  0  0  0  0
 43 57  1  0  0  0  0
 43 44  1  0  0  0  0
 44 58  1  0  0  0  0
 44 45  1  0  0  0  0
 45 60  1  6  0  0  0
 45 47  1  0  0  0  0
 45 46  1  0  0  0  0
 46 29  1  0  0  0  0
 46 61  1  0  0  0  0
 47 49  1  0  0  0  0
 48 47  2  0  0  0  0
 50 38  1  0  0  0  0
 52 40  1  0  0  0  0
 54 42  1  0  0  0  0
 56 43  1  0  0  0  0
 59 44  1  0  0  0  0
M  END
$$$$
