LHY.pdb
 OpenBabel07022418463D

 59 60  0  0  1  0  0  0  0  0999 V2000
    2.5840   -1.5040    2.9490 C   0  0  0  0  0  0  0  0  0  0  0  0
    3.8760   -0.7590    3.0430 C   0  0  0  0  0  0  0  0  0  0  0  0
    4.9680   -1.7100    2.5300 C   0  0  0  0  0  0  0  0  0  0  0  0
    3.9740    0.4800    2.2340 C   0  0  0  0  0  0  0  0  0  0  0  0
    2.9790    1.5500    2.5330 C   0  0  2  0  0  0  0  0  0  0  0  0
    3.0190    2.0270    3.8800 N   0  0  0  0  0  0  0  0  0  0  0  0
    1.6040    1.2120    2.1020 C   0  0  0  0  0  0  0  0  0  0  0  0
    0.6160    1.2650    2.9090 O   0  0  0  0  0  0  0  0  0  0  0  0
    2.1810   -1.5610    1.9390 H   0  0  0  0  0  0  0  0  0  0  0  0
    2.7050   -2.5780    3.2770 H   0  0  0  0  0  0  0  0  0  0  0  0
    1.8080   -1.0930    3.6450 H   0  0  0  0  0  0  0  0  0  0  0  0
    4.1090   -0.6170    4.1190 H   0  0  0  0  0  0  0  0  0  0  0  0
    4.8380   -1.8980    1.4550 H   0  0  0  0  0  0  0  0  0  0  0  0
    5.9750   -1.2330    2.6520 H   0  0  0  0  0  0  0  0  0  0  0  0
    4.9190   -2.6460    3.1210 H   0  0  0  0  0  0  0  0  0  0  0  0
    5.0190    0.8450    2.2750 H   0  0  0  0  0  0  0  0  0  0  0  0
    3.8340    0.1710    1.1550 H   0  0  0  0  0  0  0  0  0  0  0  0
    3.2770    2.4300    1.8800 H   0  0  0  0  0  0  0  0  0  0  0  0
    2.6770    3.0140    3.8830 H   0  0  0  0  0  0  0  0  0  0  0  0
    3.9580    2.0170    4.2870 H   0  0  0  0  0  0  0  0  0  0  0  0
    1.2960    0.8130    0.7740 N   0  0  0  0  0  0  0  0  0  0  0  0
   -0.0740    0.4990    0.4200 C   0  0  1  0  0  0  0  0  0  0  0  0
   -0.5290    1.6340   -0.4850 C   0  0  0  0  0  0  0  0  0  0  0  0
    0.3120    1.7500   -1.7040 C   0  0  0  0  0  0  0  0  0  0  0  0
    0.1270    1.1430   -2.9100 C   0  0  0  0  0  0  0  0  0  0  0  0
    1.1380    1.5480   -3.7080 N   0  0  0  0  0  0  0  0  0  0  0  0
    1.9250    2.3850   -3.0110 C   0  0  0  0  0  0  0  0  0  0  0  0
    1.4350    2.5260   -1.7670 N   0  0  0  0  0  0  0  0  0  0  0  0
   -0.0810   -0.8100   -0.2700 C   0  0  0  0  0  0  0  0  0  0  0  0
    0.9970   -1.4550   -0.5190 O   0  0  0  0  0  0  0  0  0  0  0  0
    2.0350    0.7410    0.0480 H   0  0  0  0  0  0  0  0  0  0  0  0
   -0.7480    0.5490    1.3010 H   0  0  0  0  0  0  0  0  0  0  0  0
   -0.4270    2.5790    0.0820 H   0  0  0  0  0  0  0  0  0  0  0  0
   -1.6020    1.5460   -0.7550 H   0  0  0  0  0  0  0  0  0  0  0  0
   -0.6770    0.4820   -3.1340 H   0  0  0  0  0  0  0  0  0  0  0  0
    1.2580    1.2450   -4.6950 H   0  0  0  0  0  0  0  0  0  0  0  0
    2.8170    2.8520   -3.4370 H   0  0  0  0  0  0  0  0  0  0  0  0
   -7.1590   -2.3440    1.5530 O   0  0  0  0  0  0  0  0  0  0  0  0
   -5.9030   -2.6850    1.0550 C   0  0  0  0  0  0  0  0  0  0  0  0
   -5.7700   -3.4030   -0.1320 C   0  0  0  0  0  0  0  0  0  0  0  0
   -4.5230   -3.7310   -0.6110 C   0  0  0  0  0  0  0  0  0  0  0  0
   -3.3630   -3.3790    0.0360 C   0  0  0  0  0  0  0  0  0  0  0  0
   -2.0150   -3.7010   -0.4280 C   0  0  0  0  0  0  0  0  0  0  0  0
   -1.4250   -2.6390   -1.3370 C   0  0  2  0  0  0  0  0  0  0  0  0
   -1.3340   -1.3610   -0.6610 N   0  0  0  0  0  0  0  0  0  0  0  0
   -2.0970   -2.5800   -2.6370 C   0  0  0  0  0  0  0  0  0  0  0  0
   -2.2080   -3.6420   -3.2990 O   0  0  0  0  0  0  0  0  0  0  0  0
   -3.4980   -2.6640    1.2170 C   0  0  0  0  0  0  0  0  0  0  0  0
   -4.7460   -2.3290    1.7060 C   0  0  0  0  0  0  0  0  0  0  0  0
   -2.6270   -1.4310   -3.1970 O   0  0  0  0  0  0  0  0  0  0  0  0
   -7.6340   -3.0650    2.0940 H   0  0  0  0  0  0  0  0  0  0  0  0
   -6.6880   -3.6750   -0.6330 H   0  0  0  0  0  0  0  0  0  0  0  0
   -4.4490   -4.2830   -1.5240 H   0  0  0  0  0  0  0  0  0  0  0  0
   -1.3460   -3.8050    0.4340 H   0  0  0  0  0  0  0  0  0  0  0  0
   -2.0040   -4.6460   -0.9950 H   0  0  0  0  0  0  0  0  0  0  0  0
   -0.3710   -2.9800   -1.5100 H   0  0  0  0  0  0  0  0  0  0  0  0
   -2.1950   -0.8130   -0.4460 H   0  0  0  0  0  0  0  0  0  0  0  0
   -2.6450   -2.3410    1.7980 H   0  0  0  0  0  0  0  0  0  0  0  0
   -4.8590   -1.7650    2.6370 H   0  0  0  0  0  0  0  0  0  0  0  0
  1  2  1  0  0  0  0
  1 10  1  0  0  0  0
  1 11  1  0  0  0  0
  2 12  1  0  0  0  0
  3 14  1  0  0  0  0
  3  2  1  0  0  0  0
  3 15  1  0  0  0  0
  4 16  1  0  0  0  0
  4  5  1  0  0  0  0
  4  2  1  0  0  0  0
  5 18  1  6  0  0  0
  5  6  1  0  0  0  0
  6 19  1  0  0  0  0
  6 20  1  0  0  0  0
  7  5  1  0  0  0  0
  7  8  2  0  0  0  0
  9  1  1  0  0  0  0
 13  3  1  0  0  0  0
 17  4  1  0  0  0  0
 21  7  1  0  0  0  0
 22 21  1  0  0  0  0
 22 32  1  1  0  0  0
 23 33  1  0  0  0  0
 23 22  1  0  0  0  0
 24 23  1  0  0  0  0
 25 24  2  0  0  0  0
 26 27  1  0  0  0  0
 26 25  1  0  0  0  0
 27 28  2  0  0  0  0
 28 24  1  0  0  0  0
 29 22  1  0  0  0  0
 30 29  2  0  0  0  0
 31 21  1  0  0  0  0
 34 23  1  0  0  0  0
 35 25  1  0  0  0  0
 36 26  1  0  0  0  0
 37 27  1  0  0  0  0
 38 51  1  0  0  0  0
 39 38  1  0  0  0  0
 39 49  1  0  0  0  0
 40 39  2  0  0  0  0
 41 40  1  0  0  0  0
 41 42  2  0  0  0  0
 42 48  1  0  0  0  0
 43 42  1  0  0  0  0
 43 54  1  0  0  0  0
 44 56  1  6  0  0  0
 44 45  1  0  0  0  0
 44 43  1  0  0  0  0
 45 57  1  0  0  0  0
 45 29  1  0  0  0  0
 46 44  1  0  0  0  0
 47 46  2  0  0  0  0
 48 49  2  0  0  0  0
 48 58  1  0  0  0  0
 49 59  1  0  0  0  0
 50 46  1  0  0  0  0
 52 40  1  0  0  0  0
 53 41  1  0  0  0  0
 55 43  1  0  0  0  0
M  END
$$$$
