LIF.pdb
 OpenBabel07022418463D

 60 60  0  0  1  0  0  0  0  0999 V2000
    1.8280   -0.9520    4.4860 C   0  0  0  0  0  0  0  0  0  0  0  0
    0.8600    0.1210    3.9820 C   0  0  0  0  0  0  0  0  0  0  0  0
    0.0500    0.5660    5.1560 C   0  0  0  0  0  0  0  0  0  0  0  0
    1.6930    1.1940    3.3600 C   0  0  0  0  0  0  0  0  0  0  0  0
    0.8970    2.3420    2.8050 C   0  0  2  0  0  0  0  0  0  0  0  0
    0.1080    3.0010    3.8290 N   0  0  0  0  0  0  0  0  0  0  0  0
    0.1100    2.0000    1.6210 C   0  0  0  0  0  0  0  0  0  0  0  0
   -1.1130    2.2360    1.4780 O   0  0  0  0  0  0  0  0  0  0  0  0
    2.4160   -0.4770    5.2980 H   0  0  0  0  0  0  0  0  0  0  0  0
    2.5410   -1.2620    3.7020 H   0  0  0  0  0  0  0  0  0  0  0  0
    1.2860   -1.8050    4.9370 H   0  0  0  0  0  0  0  0  0  0  0  0
    0.1970   -0.3970    3.2610 H   0  0  0  0  0  0  0  0  0  0  0  0
   -0.8870    1.1090    4.8740 H   0  0  0  0  0  0  0  0  0  0  0  0
   -0.3230   -0.3720    5.6650 H   0  0  0  0  0  0  0  0  0  0  0  0
    0.6430    1.0930    5.9140 H   0  0  0  0  0  0  0  0  0  0  0  0
    2.3290    0.7620    2.5920 H   0  0  0  0  0  0  0  0  0  0  0  0
    2.3530    1.6080    4.1510 H   0  0  0  0  0  0  0  0  0  0  0  0
    1.6600    3.1090    2.4770 H   0  0  0  0  0  0  0  0  0  0  0  0
    0.7500    3.1500    4.6510 H   0  0  0  0  0  0  0  0  0  0  0  0
   -0.1660    3.9580    3.5110 H   0  0  0  0  0  0  0  0  0  0  0  0
    1.9870    3.3900   -0.9720 C   0  0  0  0  0  0  0  0  0  0  0  0
    1.0580    2.8550   -2.0140 C   0  0  0  0  0  0  0  0  0  0  0  0
    0.7200    1.4040   -1.8960 C   0  0  2  0  0  0  0  0  0  0  0  0
   -0.2090    1.0750   -3.0960 C   0  0  0  0  0  0  0  0  0  0  0  0
   -0.0360    1.0000   -0.6720 C   0  0  2  0  0  0  0  0  0  0  0  0
    0.7590    1.3480    0.5310 N   0  0  0  0  0  0  0  0  0  0  0  0
   -0.0690   -0.5080   -0.6150 C   0  0  0  0  0  0  0  0  0  0  0  0
    0.7030   -1.1590    0.1640 O   0  0  0  0  0  0  0  0  0  0  0  0
    2.5490    4.2970   -1.3600 H   0  0  0  0  0  0  0  0  0  0  0  0
    2.8070    2.6520   -0.8140 H   0  0  0  0  0  0  0  0  0  0  0  0
    1.5050    3.7540   -0.0570 H   0  0  0  0  0  0  0  0  0  0  0  0
    0.1530    3.4930   -2.1500 H   0  0  0  0  0  0  0  0  0  0  0  0
    1.6050    2.9700   -2.9990 H   0  0  0  0  0  0  0  0  0  0  0  0
    1.6270    0.7990   -2.0150 H   0  0  0  0  0  0  0  0  0  0  0  0
   -1.2560    1.2860   -2.8630 H   0  0  0  0  0  0  0  0  0  0  0  0
    0.1050    1.7640   -3.9320 H   0  0  0  0  0  0  0  0  0  0  0  0
   -0.0560    0.0650   -3.4610 H   0  0  0  0  0  0  0  0  0  0  0  0
   -1.0450    1.3940   -0.5830 H   0  0  0  0  0  0  0  0  0  0  0  0
    1.7680    1.0960    0.5570 H   0  0  0  0  0  0  0  0  0  0  0  0
   -0.9500   -1.2590   -1.4080 N   0  0  0  0  0  0  0  0  0  0  0  0
   -0.9460   -2.7210   -1.3220 C   0  0  1  0  0  0  0  0  0  0  0  0
   -2.2430   -3.2130   -0.7290 C   0  0  0  0  0  0  0  0  0  0  0  0
   -2.2420   -4.6640   -0.6410 C   0  0  0  0  0  0  0  0  0  0  0  0
   -2.7370   -5.4810   -1.6240 C   0  0  0  0  0  0  0  0  0  0  0  0
   -2.7350   -6.8700   -1.5360 C   0  0  0  0  0  0  0  0  0  0  0  0
   -2.2090   -7.4530   -0.4060 C   0  0  0  0  0  0  0  0  0  0  0  0
   -1.7000   -6.6480    0.6060 C   0  0  0  0  0  0  0  0  0  0  0  0
   -1.7200   -5.2750    0.4820 C   0  0  0  0  0  0  0  0  0  0  0  0
   -0.5820   -3.3370   -2.6050 C   0  0  0  0  0  0  0  0  0  0  0  0
   -0.3590   -2.6400   -3.6560 O   0  0  0  0  0  0  0  0  0  0  0  0
   -0.4420   -4.6980   -2.8180 O   0  0  0  0  0  0  0  0  0  0  0  0
   -1.6630   -0.8410   -2.0780 H   0  0  0  0  0  0  0  0  0  0  0  0
   -0.1640   -2.9950   -0.5900 H   0  0  0  0  0  0  0  0  0  0  0  0
   -3.1290   -2.7870   -1.2410 H   0  0  0  0  0  0  0  0  0  0  0  0
   -2.2750   -2.7940    0.3200 H   0  0  0  0  0  0  0  0  0  0  0  0
   -3.1550   -5.0440   -2.5200 H   0  0  0  0  0  0  0  0  0  0  0  0
   -3.1330   -7.4910   -2.3280 H   0  0  0  0  0  0  0  0  0  0  0  0
   -2.2020   -8.5160   -0.3270 H   0  0  0  0  0  0  0  0  0  0  0  0
   -1.2890   -7.1340    1.4910 H   0  0  0  0  0  0  0  0  0  0  0  0
   -1.3160   -4.6460    1.2870 H   0  0  0  0  0  0  0  0  0  0  0  0
  1 11  1  0  0  0  0
  1  9  1  0  0  0  0
  2  1  1  0  0  0  0
  2  3  1  0  0  0  0
  3 14  1  0  0  0  0
  3 15  1  0  0  0  0
  4  2  1  0  0  0  0
  4 17  1  0  0  0  0
  5 18  1  6  0  0  0
  5  4  1  0  0  0  0
  5  6  1  0  0  0  0
  6 19  1  0  0  0  0
  7  5  1  0  0  0  0
  8  7  2  0  0  0  0
 10  1  1  0  0  0  0
 12  2  1  0  0  0  0
 13  3  1  0  0  0  0
 16  4  1  0  0  0  0
 20  6  1  0  0  0  0
 21 30  1  0  0  0  0
 21 31  1  0  0  0  0
 22 23  1  0  0  0  0
 22 21  1  0  0  0  0
 23 34  1  6  0  0  0
 23 25  1  0  0  0  0
 24 35  1  0  0  0  0
 24 23  1  0  0  0  0
 25 27  1  0  0  0  0
 25 38  1  1  0  0  0
 25 26  1  0  0  0  0
 26 39  1  0  0  0  0
 26  7  1  0  0  0  0
 27 28  2  0  0  0  0
 29 21  1  0  0  0  0
 32 22  1  0  0  0  0
 33 22  1  0  0  0  0
 36 24  1  0  0  0  0
 37 24  1  0  0  0  0
 40 41  1  0  0  0  0
 40 27  1  0  0  0  0
 41 42  1  0  0  0  0
 41 53  1  1  0  0  0
 42 43  1  0  0  0  0
 42 55  1  0  0  0  0
 43 48  1  0  0  0  0
 44 45  1  0  0  0  0
 44 43  2  0  0  0  0
 45 46  2  0  0  0  0
 46 58  1  0  0  0  0
 46 47  1  0  0  0  0
 47 59  1  0  0  0  0
 48 47  2  0  0  0  0
 48 60  1  0  0  0  0
 49 41  1  0  0  0  0
 50 49  2  0  0  0  0
 51 49  1  0  0  0  0
 52 40  1  0  0  0  0
 54 42  1  0  0  0  0
 56 44  1  0  0  0  0
 57 45  1  0  0  0  0
M  END
$$$$
