LIH.pdb
 OpenBabel07022418463D

 57 57  0  0  1  0  0  0  0  0999 V2000
   -0.4240   -2.1050    5.0600 C   0  0  0  0  0  0  0  0  0  0  0  0
   -0.7970   -0.8440    4.2930 C   0  0  0  0  0  0  0  0  0  0  0  0
   -2.0040   -0.2320    4.9080 C   0  0  0  0  0  0  0  0  0  0  0  0
    0.4110    0.0330    4.2650 C   0  0  0  0  0  0  0  0  0  0  0  0
    0.2120    1.3320    3.5380 C   0  0  2  0  0  0  0  0  0  0  0  0
   -0.8140    2.1630    4.0840 N   0  0  0  0  0  0  0  0  0  0  0  0
    0.0590    1.1370    2.0690 C   0  0  0  0  0  0  0  0  0  0  0  0
   -0.8630    1.6610    1.4020 O   0  0  0  0  0  0  0  0  0  0  0  0
    0.1250   -2.7610    4.3310 H   0  0  0  0  0  0  0  0  0  0  0  0
    0.2490   -1.7880    5.8850 H   0  0  0  0  0  0  0  0  0  0  0  0
   -1.3470   -2.5880    5.4410 H   0  0  0  0  0  0  0  0  0  0  0  0
   -1.0650   -1.1750    3.2640 H   0  0  0  0  0  0  0  0  0  0  0  0
   -2.6830   -1.0410    5.2650 H   0  0  0  0  0  0  0  0  0  0  0  0
   -2.6100    0.3220    4.1390 H   0  0  0  0  0  0  0  0  0  0  0  0
   -1.7940    0.4080    5.7860 H   0  0  0  0  0  0  0  0  0  0  0  0
    0.7690    0.2690    5.2850 H   0  0  0  0  0  0  0  0  0  0  0  0
    1.2220   -0.5290    3.7570 H   0  0  0  0  0  0  0  0  0  0  0  0
    1.1830    1.9010    3.6570 H   0  0  0  0  0  0  0  0  0  0  0  0
   -0.4650    2.9650    4.6540 H   0  0  0  0  0  0  0  0  0  0  0  0
   -1.4640    2.5550    3.3650 H   0  0  0  0  0  0  0  0  0  0  0  0
    3.1540    2.0520    0.7790 C   0  0  0  0  0  0  0  0  0  0  0  0
    2.7020    1.7430   -0.6180 C   0  0  0  0  0  0  0  0  0  0  0  0
    2.0950    0.3940   -0.8110 C   0  0  2  0  0  0  0  0  0  0  0  0
    1.7540    0.3050   -2.3170 C   0  0  0  0  0  0  0  0  0  0  0  0
    0.7930    0.1660   -0.0740 C   0  0  2  0  0  0  0  0  0  0  0  0
    0.9870    0.3270    1.3720 N   0  0  0  0  0  0  0  0  0  0  0  0
    0.4330   -1.2790   -0.2240 C   0  0  0  0  0  0  0  0  0  0  0  0
    0.6240   -2.0630    0.7660 O   0  0  0  0  0  0  0  0  0  0  0  0
    3.5970    1.1810    1.2860 H   0  0  0  0  0  0  0  0  0  0  0  0
    2.3750    2.5810    1.3460 H   0  0  0  0  0  0  0  0  0  0  0  0
    4.0100    2.8120    0.7440 H   0  0  0  0  0  0  0  0  0  0  0  0
    2.0710    2.5630   -1.0420 H   0  0  0  0  0  0  0  0  0  0  0  0
    3.6360    1.7760   -1.2560 H   0  0  0  0  0  0  0  0  0  0  0  0
    2.8350   -0.3840   -0.5430 H   0  0  0  0  0  0  0  0  0  0  0  0
    0.7890    0.7880   -2.5070 H   0  0  0  0  0  0  0  0  0  0  0  0
    2.5170    0.9540   -2.8630 H   0  0  0  0  0  0  0  0  0  0  0  0
    1.8780   -0.7230   -2.6910 H   0  0  0  0  0  0  0  0  0  0  0  0
   -0.0370    0.7470   -0.4750 H   0  0  0  0  0  0  0  0  0  0  0  0
    1.7860   -0.1740    1.8020 H   0  0  0  0  0  0  0  0  0  0  0  0
   -0.1180   -1.8390   -1.4040 N   0  0  0  0  0  0  0  0  0  0  0  0
   -0.4390   -3.2710   -1.4740 C   0  0  1  0  0  0  0  0  0  0  0  0
   -1.9150   -3.4800   -1.7040 C   0  0  0  0  0  0  0  0  0  0  0  0
   -2.3850   -2.8750   -2.9580 C   0  0  0  0  0  0  0  0  0  0  0  0
   -2.8550   -1.5950   -3.1070 C   0  0  0  0  0  0  0  0  0  0  0  0
   -3.1900   -1.3940   -4.3950 N   0  0  0  0  0  0  0  0  0  0  0  0
   -2.9220   -2.5440   -5.0150 C   0  0  0  0  0  0  0  0  0  0  0  0
   -2.4330   -3.4560   -4.1630 N   0  0  0  0  0  0  0  0  0  0  0  0
    0.3910   -3.9430   -2.4990 C   0  0  0  0  0  0  0  0  0  0  0  0
    1.2460   -3.3590   -3.2110 O   0  0  0  0  0  0  0  0  0  0  0  0
    0.2130   -5.3030   -2.6870 O   0  0  0  0  0  0  0  0  0  0  0  0
   -0.3110   -1.2180   -2.2100 H   0  0  0  0  0  0  0  0  0  0  0  0
   -0.1870   -3.7110   -0.4930 H   0  0  0  0  0  0  0  0  0  0  0  0
   -2.4330   -3.0700   -0.8040 H   0  0  0  0  0  0  0  0  0  0  0  0
   -2.0810   -4.5840   -1.6980 H   0  0  0  0  0  0  0  0  0  0  0  0
   -2.9410   -0.8590   -2.2920 H   0  0  0  0  0  0  0  0  0  0  0  0
   -3.5790   -0.4910   -4.7810 H   0  0  0  0  0  0  0  0  0  0  0  0
   -3.1000   -2.6720   -6.0870 H   0  0  0  0  0  0  0  0  0  0  0  0
  1 11  1  0  0  0  0
  1 10  1  0  0  0  0
  2  3  1  0  0  0  0
  2  1  1  0  0  0  0
  3 13  1  0  0  0  0
  3 15  1  0  0  0  0
  4  2  1  0  0  0  0
  4 16  1  0  0  0  0
  5 18  1  1  0  0  0
  5  6  1  0  0  0  0
  5  4  1  0  0  0  0
  6 19  1  0  0  0  0
  7  5  1  0  0  0  0
  8  7  2  0  0  0  0
  9  1  1  0  0  0  0
 12  2  1  0  0  0  0
 14  3  1  0  0  0  0
 17  4  1  0  0  0  0
 20  6  1  0  0  0  0
 21 29  1  0  0  0  0
 21 30  1  0  0  0  0
 22 21  1  0  0  0  0
 23 22  1  0  0  0  0
 23 34  1  1  0  0  0
 23 25  1  0  0  0  0
 24 23  1  0  0  0  0
 25 38  1  6  0  0  0
 25 26  1  0  0  0  0
 26 39  1  0  0  0  0
 26  7  1  0  0  0  0
 27 25  1  0  0  0  0
 27 28  2  0  0  0  0
 31 21  1  0  0  0  0
 32 22  1  0  0  0  0
 33 22  1  0  0  0  0
 35 24  1  0  0  0  0
 36 24  1  0  0  0  0
 37 24  1  0  0  0  0
 40 27  1  0  0  0  0
 41 40  1  0  0  0  0
 41 52  1  1  0  0  0
 42 54  1  0  0  0  0
 42 41  1  0  0  0  0
 42 53  1  0  0  0  0
 43 42  1  0  0  0  0
 44 43  2  0  0  0  0
 44 55  1  0  0  0  0
 45 44  1  0  0  0  0
 46 45  1  0  0  0  0
 46 47  2  0  0  0  0
 47 43  1  0  0  0  0
 48 41  1  0  0  0  0
 49 48  2  0  0  0  0
 50 48  1  0  0  0  0
 51 40  1  0  0  0  0
 56 45  1  0  0  0  0
 57 46  1  0  0  0  0
M  END
$$$$
