LIN.pdb
 OpenBabel07022418463D

 54 53  0  0  1  0  0  0  0  0999 V2000
    1.6540   -4.4970    0.0060 C   0  0  0  0  0  0  0  0  0  0  0  0
    1.7110   -3.5330    1.2140 C   0  0  0  0  0  0  0  0  0  0  0  0
    0.2890   -3.3190    1.6160 C   0  0  0  0  0  0  0  0  0  0  0  0
    2.4880   -2.3170    0.8750 C   0  0  0  0  0  0  0  0  0  0  0  0
    2.6250   -1.3080    1.9760 C   0  0  2  0  0  0  0  0  0  0  0  0
    3.2630   -2.0090    3.0900 N   0  0  0  0  0  0  0  0  0  0  0  0
    1.3570   -0.7090    2.3520 C   0  0  0  0  0  0  0  0  0  0  0  0
    0.8290   -0.9070    3.4760 O   0  0  0  0  0  0  0  0  0  0  0  0
    0.9530   -4.1100   -0.7450 H   0  0  0  0  0  0  0  0  0  0  0  0
    2.6770   -4.6650   -0.3950 H   0  0  0  0  0  0  0  0  0  0  0  0
    1.2750   -5.4540    0.4220 H   0  0  0  0  0  0  0  0  0  0  0  0
    2.2740   -4.1450    1.9810 H   0  0  0  0  0  0  0  0  0  0  0  0
   -0.3740   -4.1690    1.2360 H   0  0  0  0  0  0  0  0  0  0  0  0
   -0.1950   -2.4230    1.2210 H   0  0  0  0  0  0  0  0  0  0  0  0
    0.1620   -3.4150    2.7360 H   0  0  0  0  0  0  0  0  0  0  0  0
    2.0790   -1.8240   -0.0630 H   0  0  0  0  0  0  0  0  0  0  0  0
    3.5080   -2.6710    0.5230 H   0  0  0  0  0  0  0  0  0  0  0  0
    3.3330   -0.4980    1.6120 H   0  0  0  0  0  0  0  0  0  0  0  0
    4.0810   -2.5430    2.7550 H   0  0  0  0  0  0  0  0  0  0  0  0
    3.4600   -1.3320    3.8450 H   0  0  0  0  0  0  0  0  0  0  0  0
   -0.9080    2.9280   -0.3290 C   0  0  0  0  0  0  0  0  0  0  0  0
   -0.0760    3.0140    0.9000 C   0  0  0  0  0  0  0  0  0  0  0  0
   -0.5310    2.2400    2.0830 C   0  0  2  0  0  0  0  0  0  0  0  0
    0.5070    2.5260    3.1890 C   0  0  0  0  0  0  0  0  0  0  0  0
   -0.6580    0.7490    1.8780 C   0  0  2  0  0  0  0  0  0  0  0  0
    0.6040    0.1590    1.4810 N   0  0  0  0  0  0  0  0  0  0  0  0
   -1.7730    0.4410    0.9570 C   0  0  0  0  0  0  0  0  0  0  0  0
   -2.9420    0.8640    1.1500 O   0  0  0  0  0  0  0  0  0  0  0  0
   -1.9920    3.0310   -0.1750 H   0  0  0  0  0  0  0  0  0  0  0  0
   -0.6320    3.8460   -0.9450 H   0  0  0  0  0  0  0  0  0  0  0  0
   -0.6220    2.0860   -1.0100 H   0  0  0  0  0  0  0  0  0  0  0  0
   -0.0500    4.1060    1.1980 H   0  0  0  0  0  0  0  0  0  0  0  0
    0.9810    2.8020    0.6190 H   0  0  0  0  0  0  0  0  0  0  0  0
   -1.4810    2.6660    2.4710 H   0  0  0  0  0  0  0  0  0  0  0  0
    0.1670    1.9570    4.0930 H   0  0  0  0  0  0  0  0  0  0  0  0
    0.5000    3.5800    3.4660 H   0  0  0  0  0  0  0  0  0  0  0  0
    1.4870    2.1200    2.8920 H   0  0  0  0  0  0  0  0  0  0  0  0
   -0.9200    0.3650    2.9310 H   0  0  0  0  0  0  0  0  0  0  0  0
    0.9950    0.3570    0.5410 H   0  0  0  0  0  0  0  0  0  0  0  0
   -0.4330   -1.6000   -2.6760 N   0  0  0  0  0  0  0  0  0  0  0  0
   -1.3560   -0.6810   -3.1890 C   0  0  0  0  0  0  0  0  0  0  0  0
   -1.1580   -0.2690   -4.3800 O   0  0  0  0  0  0  0  0  0  0  0  0
   -2.5310   -0.1420   -2.4970 C   0  0  0  0  0  0  0  0  0  0  0  0
   -2.7150   -0.6540   -1.1130 C   0  0  2  0  0  0  0  0  0  0  0  0
   -1.6160   -0.3650   -0.2300 N   0  0  0  0  0  0  0  0  0  0  0  0
   -3.0370   -2.1080   -1.1290 C   0  0  0  0  0  0  0  0  0  0  0  0
   -2.3850   -2.9190   -0.4300 O   0  0  0  0  0  0  0  0  0  0  0  0
   -4.0800   -2.5350   -1.9400 O   0  0  0  0  0  0  0  0  0  0  0  0
    0.5250   -1.2700   -2.4200 H   0  0  0  0  0  0  0  0  0  0  0  0
   -0.6320   -2.6110   -2.5250 H   0  0  0  0  0  0  0  0  0  0  0  0
   -3.4300   -0.4440   -3.0880 H   0  0  0  0  0  0  0  0  0  0  0  0
   -2.5430    0.9760   -2.5090 H   0  0  0  0  0  0  0  0  0  0  0  0
   -3.6210   -0.1520   -0.6890 H   0  0  0  0  0  0  0  0  0  0  0  0
   -0.6390   -0.7190   -0.3960 H   0  0  0  0  0  0  0  0  0  0  0  0
  1 11  1  0  0  0  0
  1  2  1  0  0  0  0
  2  3  1  0  0  0  0
  2 12  1  0  0  0  0
  3 15  1  0  0  0  0
  4  2  1  0  0  0  0
  4  5  1  0  0  0  0
  5 18  1  6  0  0  0
  5  7  1  0  0  0  0
  5  6  1  0  0  0  0
  6 20  1  0  0  0  0
  7  8  2  0  0  0  0
  9  1  1  0  0  0  0
 10  1  1  0  0  0  0
 13  3  1  0  0  0  0
 14  3  1  0  0  0  0
 16  4  1  0  0  0  0
 17  4  1  0  0  0  0
 19  6  1  0  0  0  0
 21 29  1  0  0  0  0
 21 22  1  0  0  0  0
 22 32  1  0  0  0  0
 22 23  1  0  0  0  0
 23 34  1  1  0  0  0
 23 24  1  0  0  0  0
 24 36  1  0  0  0  0
 24 35  1  0  0  0  0
 25 23  1  0  0  0  0
 25 38  1  1  0  0  0
 26 25  1  0  0  0  0
 26  7  1  0  0  0  0
 27 28  2  0  0  0  0
 27 25  1  0  0  0  0
 30 21  1  0  0  0  0
 31 21  1  0  0  0  0
 33 22  1  0  0  0  0
 37 24  1  0  0  0  0
 39 26  1  0  0  0  0
 40 50  1  0  0  0  0
 40 49  1  0  0  0  0
 41 40  1  0  0  0  0
 41 43  1  0  0  0  0
 42 41  2  0  0  0  0
 43 44  1  0  0  0  0
 44 53  1  1  0  0  0
 44 45  1  0  0  0  0
 45 27  1  0  0  0  0
 46 44  1  0  0  0  0
 46 47  1  0  0  0  0
 48 46  2  0  0  0  0
 51 43  1  0  0  0  0
 52 43  1  0  0  0  0
 54 45  1  0  0  0  0
M  END
$$$$
