LKD.pdb
 OpenBabel07022418463D

 55 54  0  0  1  0  0  0  0  0999 V2000
    2.0000   -1.2500    4.7370 C   0  0  0  0  0  0  0  0  0  0  0  0
    0.9120   -2.0720    4.0800 C   0  0  0  0  0  0  0  0  0  0  0  0
    0.5590   -3.1720    5.0860 C   0  0  0  0  0  0  0  0  0  0  0  0
   -0.2830   -1.2700    3.7180 C   0  0  0  0  0  0  0  0  0  0  0  0
   -0.0670   -0.1340    2.7860 C   0  0  2  0  0  0  0  0  0  0  0  0
   -1.3850    0.4810    2.5740 N   0  0  0  0  0  0  0  0  0  0  0  0
    0.5490   -0.4880    1.4860 C   0  0  0  0  0  0  0  0  0  0  0  0
    1.6420   -1.0980    1.4140 O   0  0  0  0  0  0  0  0  0  0  0  0
    2.9440   -1.7960    4.6660 H   0  0  0  0  0  0  0  0  0  0  0  0
    2.0360   -0.2280    4.3070 H   0  0  0  0  0  0  0  0  0  0  0  0
    1.7310   -1.1300    5.8000 H   0  0  0  0  0  0  0  0  0  0  0  0
    1.3540   -2.5540    3.1680 H   0  0  0  0  0  0  0  0  0  0  0  0
   -0.4710   -3.5650    4.9290 H   0  0  0  0  0  0  0  0  0  0  0  0
    0.6190   -2.8290    6.1210 H   0  0  0  0  0  0  0  0  0  0  0  0
    1.2380   -4.0380    4.8720 H   0  0  0  0  0  0  0  0  0  0  0  0
   -0.6710   -0.8120    4.6750 H   0  0  0  0  0  0  0  0  0  0  0  0
   -1.1470   -1.9200    3.4020 H   0  0  0  0  0  0  0  0  0  0  0  0
    0.5660    0.6290    3.2620 H   0  0  0  0  0  0  0  0  0  0  0  0
   -1.6250    1.0030    3.4640 H   0  0  0  0  0  0  0  0  0  0  0  0
   -2.0880   -0.2860    2.5090 H   0  0  0  0  0  0  0  0  0  0  0  0
   -0.1160   -0.1280    0.2890 N   0  0  0  0  0  0  0  0  0  0  0  0
    0.2630   -0.3300   -1.0570 C   0  0  1  0  0  0  0  0  0  0  0  0
    1.6430   -0.7510   -1.4000 C   0  0  0  0  0  0  0  0  0  0  0  0
    2.7560    0.1890   -1.0840 C   0  0  0  0  0  0  0  0  0  0  0  0
    2.6600    1.5310   -1.7870 C   0  0  0  0  0  0  0  0  0  0  0  0
    3.8470    2.4090   -1.3660 C   0  0  0  0  0  0  0  0  0  0  0  0
    3.8800    2.6220    0.0580 N   0  0  0  0  0  0  0  0  0  0  0  0
   -0.8020   -0.8640   -1.9330 C   0  0  0  0  0  0  0  0  0  0  0  0
   -0.4790   -1.1940   -3.1220 O   0  0  0  0  0  0  0  0  0  0  0  0
   -1.0590    0.3840    0.4180 H   0  0  0  0  0  0  0  0  0  0  0  0
    0.3110    0.8030   -1.4600 H   0  0  0  0  0  0  0  0  0  0  0  0
    1.9110   -1.7490   -0.9750 H   0  0  0  0  0  0  0  0  0  0  0  0
    1.6780   -0.8930   -2.5280 H   0  0  0  0  0  0  0  0  0  0  0  0
    3.0160    0.3500   -0.0380 H   0  0  0  0  0  0  0  0  0  0  0  0
    3.6970   -0.3310   -1.5010 H   0  0  0  0  0  0  0  0  0  0  0  0
    1.7260    2.0560   -1.6990 H   0  0  0  0  0  0  0  0  0  0  0  0
    2.8340    1.3530   -2.8890 H   0  0  0  0  0  0  0  0  0  0  0  0
    4.7690    1.9180   -1.6710 H   0  0  0  0  0  0  0  0  0  0  0  0
    3.6780    3.4170   -1.8270 H   0  0  0  0  0  0  0  0  0  0  0  0
    4.2840    3.5450    0.3260 H   0  0  0  0  0  0  0  0  0  0  0  0
    2.9550    2.4350    0.5190 H   0  0  0  0  0  0  0  0  0  0  0  0
   -2.1530   -1.0320   -1.5630 N   0  0  0  0  0  0  0  0  0  0  0  0
   -3.1680   -1.5560   -2.4610 C   0  0  1  0  0  0  0  0  0  0  0  0
   -4.2400   -2.3400   -1.7960 C   0  0  0  0  0  0  0  0  0  0  0  0
   -3.7970   -3.5430   -1.0620 C   0  0  0  0  0  0  0  0  0  0  0  0
   -2.6060   -3.8910   -1.0410 O   0  0  0  0  0  0  0  0  0  0  0  0
   -3.8110   -0.4160   -3.2160 C   0  0  0  0  0  0  0  0  0  0  0  0
   -3.4030    0.7280   -3.0180 O   0  0  0  0  0  0  0  0  0  0  0  0
   -4.7340   -4.3280   -0.3650 O   0  0  0  0  0  0  0  0  0  0  0  0
   -4.8190   -0.7130   -4.0870 O   0  0  0  0  0  0  0  0  0  0  0  0
   -2.4160   -0.7550   -0.5800 H   0  0  0  0  0  0  0  0  0  0  0  0
   -2.6680   -2.1450   -3.2290 H   0  0  0  0  0  0  0  0  0  0  0  0
   -5.0980   -2.5270   -2.4760 H   0  0  0  0  0  0  0  0  0  0  0  0
   -4.6790   -1.6600   -1.0050 H   0  0  0  0  0  0  0  0  0  0  0  0
   -4.4870   -4.7920    0.4950 H   0  0  0  0  0  0  0  0  0  0  0  0
  1 11  1  0  0  0  0
  2  1  1  0  0  0  0
  2  3  1  0  0  0  0
  3 14  1  0  0  0  0
  4  2  1  0  0  0  0
  4 16  1  0  0  0  0
  5 18  1  1  0  0  0
  5  4  1  0  0  0  0
  6  5  1  0  0  0  0
  6 19  1  0  0  0  0
  7  5  1  0  0  0  0
  8  7  2  0  0  0  0
  9  1  1  0  0  0  0
 10  1  1  0  0  0  0
 12  2  1  0  0  0  0
 13  3  1  0  0  0  0
 15  3  1  0  0  0  0
 17  4  1  0  0  0  0
 20  6  1  0  0  0  0
 21 30  1  0  0  0  0
 21  7  1  0  0  0  0
 22 31  1  6  0  0  0
 22 21  1  0  0  0  0
 23 24  1  0  0  0  0
 23 22  1  0  0  0  0
 23 32  1  0  0  0  0
 24 34  1  0  0  0  0
 25 36  1  0  0  0  0
 25 26  1  0  0  0  0
 25 24  1  0  0  0  0
 26 27  1  0  0  0  0
 27 40  1  0  0  0  0
 27 41  1  0  0  0  0
 28 42  1  0  0  0  0
 28 22  1  0  0  0  0
 29 28  2  0  0  0  0
 33 23  1  0  0  0  0
 35 24  1  0  0  0  0
 37 25  1  0  0  0  0
 38 26  1  0  0  0  0
 39 26  1  0  0  0  0
 42 51  1  0  0  0  0
 43 52  1  6  0  0  0
 43 44  1  0  0  0  0
 43 42  1  0  0  0  0
 44 45  1  0  0  0  0
 44 54  1  0  0  0  0
 45 46  2  0  0  0  0
 45 49  1  0  0  0  0
 47 48  1  0  0  0  0
 47 43  1  0  0  0  0
 49 55  1  0  0  0  0
 50 47  2  0  0  0  0
 53 44  1  0  0  0  0
M  END
$$$$
