LKF.pdb
 OpenBabel07022418463D

 62 62  0  0  1  0  0  0  0  0999 V2000
    1.8440    3.6310    4.9210 C   0  0  0  0  0  0  0  0  0  0  0  0
    1.7480    2.2220    4.3260 C   0  0  0  0  0  0  0  0  0  0  0  0
    2.1590    1.2200    5.3840 C   0  0  0  0  0  0  0  0  0  0  0  0
    2.6530    2.1580    3.1250 C   0  0  0  0  0  0  0  0  0  0  0  0
    2.6740    0.8410    2.4280 C   0  0  2  0  0  0  0  0  0  0  0  0
    3.6020    0.9760    1.3000 N   0  0  0  0  0  0  0  0  0  0  0  0
    1.3700    0.4610    1.8440 C   0  0  0  0  0  0  0  0  0  0  0  0
    0.4130    0.2740    2.6510 O   0  0  0  0  0  0  0  0  0  0  0  0
    2.3970    4.3030    4.2300 H   0  0  0  0  0  0  0  0  0  0  0  0
    0.8510    4.0830    5.0870 H   0  0  0  0  0  0  0  0  0  0  0  0
    2.3500    3.6080    5.9070 H   0  0  0  0  0  0  0  0  0  0  0  0
    0.6890    2.0610    4.1130 H   0  0  0  0  0  0  0  0  0  0  0  0
    3.2090    0.9180    5.2590 H   0  0  0  0  0  0  0  0  0  0  0  0
    1.9630    1.6030    6.4190 H   0  0  0  0  0  0  0  0  0  0  0  0
    1.5550    0.2820    5.2970 H   0  0  0  0  0  0  0  0  0  0  0  0
    3.6910    2.3460    3.5070 H   0  0  0  0  0  0  0  0  0  0  0  0
    2.4520    2.9450    2.3930 H   0  0  0  0  0  0  0  0  0  0  0  0
    3.0870    0.0150    3.0600 H   0  0  0  0  0  0  0  0  0  0  0  0
    4.4730    0.4180    1.4420 H   0  0  0  0  0  0  0  0  0  0  0  0
    3.8890    1.9500    1.1400 H   0  0  0  0  0  0  0  0  0  0  0  0
    1.1490    0.3010    0.4670 N   0  0  0  0  0  0  0  0  0  0  0  0
   -0.1240   -0.0670   -0.0800 C   0  0  1  0  0  0  0  0  0  0  0  0
   -0.6550    0.9030   -1.0790 C   0  0  0  0  0  0  0  0  0  0  0  0
   -0.8530    2.2780   -0.5110 C   0  0  0  0  0  0  0  0  0  0  0  0
   -1.8250    2.3330    0.6300 C   0  0  0  0  0  0  0  0  0  0  0  0
   -1.9780    3.7440    1.1550 C   0  0  0  0  0  0  0  0  0  0  0  0
   -2.9020    3.8190    2.2450 N   0  0  0  0  0  0  0  0  0  0  0  0
    0.0300   -1.3930   -0.7690 C   0  0  0  0  0  0  0  0  0  0  0  0
    1.1350   -1.9950   -0.8060 O   0  0  0  0  0  0  0  0  0  0  0  0
    1.9910    0.4700   -0.1610 H   0  0  0  0  0  0  0  0  0  0  0  0
   -0.8420   -0.1440    0.7610 H   0  0  0  0  0  0  0  0  0  0  0  0
   -1.6420    0.5480   -1.4410 H   0  0  0  0  0  0  0  0  0  0  0  0
    0.0790    0.9990   -1.9080 H   0  0  0  0  0  0  0  0  0  0  0  0
    0.1710    2.6350   -0.1980 H   0  0  0  0  0  0  0  0  0  0  0  0
   -1.1650    2.9310   -1.3550 H   0  0  0  0  0  0  0  0  0  0  0  0
   -2.8300    2.0650    0.1950 H   0  0  0  0  0  0  0  0  0  0  0  0
   -1.6350    1.6070    1.4160 H   0  0  0  0  0  0  0  0  0  0  0  0
   -2.3980    4.3710    0.3220 H   0  0  0  0  0  0  0  0  0  0  0  0
   -0.9730    4.1340    1.4620 H   0  0  0  0  0  0  0  0  0  0  0  0
   -3.7870    4.3190    2.0060 H   0  0  0  0  0  0  0  0  0  0  0  0
   -2.4820    4.3090    3.0620 H   0  0  0  0  0  0  0  0  0  0  0  0
   -1.0610   -2.0300   -1.4110 N   0  0  0  0  0  0  0  0  0  0  0  0
   -0.9300   -3.3190   -2.0850 C   0  0  1  0  0  0  0  0  0  0  0  0
   -1.8710   -4.2580   -1.3840 C   0  0  0  0  0  0  0  0  0  0  0  0
   -1.9000   -5.6210   -1.9060 C   0  0  0  0  0  0  0  0  0  0  0  0
   -1.0780   -6.6450   -1.4720 C   0  0  0  0  0  0  0  0  0  0  0  0
   -1.1370   -7.9230   -1.9880 C   0  0  0  0  0  0  0  0  0  0  0  0
   -2.0530   -8.2190   -2.9880 C   0  0  0  0  0  0  0  0  0  0  0  0
   -2.8850   -7.2170   -3.4390 C   0  0  0  0  0  0  0  0  0  0  0  0
   -2.8020   -5.9420   -2.9000 C   0  0  0  0  0  0  0  0  0  0  0  0
   -1.2010   -3.1890   -3.5290 C   0  0  0  0  0  0  0  0  0  0  0  0
   -1.5010   -2.0820   -4.0070 O   0  0  0  0  0  0  0  0  0  0  0  0
   -1.1200   -4.2940   -4.3390 O   0  0  0  0  0  0  0  0  0  0  0  0
   -2.0080   -1.5930   -1.4220 H   0  0  0  0  0  0  0  0  0  0  0  0
    0.1330   -3.6150   -1.9780 H   0  0  0  0  0  0  0  0  0  0  0  0
   -2.8940   -3.8270   -1.4720 H   0  0  0  0  0  0  0  0  0  0  0  0
   -1.6400   -4.2730   -0.3010 H   0  0  0  0  0  0  0  0  0  0  0  0
   -0.3700   -6.4320   -0.7050 H   0  0  0  0  0  0  0  0  0  0  0  0
   -0.4860   -8.7310   -1.6440 H   0  0  0  0  0  0  0  0  0  0  0  0
   -2.0880   -9.2210   -3.3820 H   0  0  0  0  0  0  0  0  0  0  0  0
   -3.5900   -7.4820   -4.2220 H   0  0  0  0  0  0  0  0  0  0  0  0
   -3.4910   -5.2160   -3.3100 H   0  0  0  0  0  0  0  0  0  0  0  0
  1 10  1  0  0  0  0
  1 11  1  0  0  0  0
  2  1  1  0  0  0  0
  2  3  1  0  0  0  0
  3 14  1  0  0  0  0
  4 16  1  0  0  0  0
  4  2  1  0  0  0  0
  5 18  1  1  0  0  0
  5  4  1  0  0  0  0
  6 19  1  0  0  0  0
  6  5  1  0  0  0  0
  7  5  1  0  0  0  0
  7  8  2  0  0  0  0
  9  1  1  0  0  0  0
 12  2  1  0  0  0  0
 13  3  1  0  0  0  0
 15  3  1  0  0  0  0
 17  4  1  0  0  0  0
 20  6  1  0  0  0  0
 21  7  1  0  0  0  0
 22 21  1  0  0  0  0
 22 31  1  1  0  0  0
 23 24  1  0  0  0  0
 23 22  1  0  0  0  0
 24 34  1  0  0  0  0
 24 25  1  0  0  0  0
 25 26  1  0  0  0  0
 25 37  1  0  0  0  0
 26 39  1  0  0  0  0
 26 27  1  0  0  0  0
 27 41  1  0  0  0  0
 28 22  1  0  0  0  0
 29 28  2  0  0  0  0
 30 21  1  0  0  0  0
 32 23  1  0  0  0  0
 33 23  1  0  0  0  0
 35 24  1  0  0  0  0
 36 25  1  0  0  0  0
 38 26  1  0  0  0  0
 40 27  1  0  0  0  0
 42 28  1  0  0  0  0
 43 55  1  1  0  0  0
 43 42  1  0  0  0  0
 43 44  1  0  0  0  0
 44 57  1  0  0  0  0
 45 46  1  0  0  0  0
 45 44  1  0  0  0  0
 46 58  1  0  0  0  0
 47 59  1  0  0  0  0
 47 46  2  0  0  0  0
 48 47  1  0  0  0  0
 49 48  2  0  0  0  0
 49 50  1  0  0  0  0
 50 45  2  0  0  0  0
 51 43  1  0  0  0  0
 52 51  1  0  0  0  0
 53 51  2  0  0  0  0
 54 42  1  0  0  0  0
 56 44  1  0  0  0  0
 60 48  1  0  0  0  0
 61 49  1  0  0  0  0
 62 50  1  0  0  0  0
M  END
$$$$
