LKI.pdb
 OpenBabel07022418463D

 61 60  0  0  1  0  0  0  0  0999 V2000
    4.8310   -2.3070    3.8130 C   0  0  0  0  0  0  0  0  0  0  0  0
    3.9990   -1.4080    2.8900 C   0  0  0  0  0  0  0  0  0  0  0  0
    4.1160   -0.0040    3.4340 C   0  0  0  0  0  0  0  0  0  0  0  0
    4.5880   -1.5190    1.4990 C   0  0  0  0  0  0  0  0  0  0  0  0
    3.8550   -0.6800    0.4990 C   0  0  2  0  0  0  0  0  0  0  0  0
    3.9070    0.6960    0.8850 N   0  0  0  0  0  0  0  0  0  0  0  0
    2.4770   -1.1770    0.3030 C   0  0  0  0  0  0  0  0  0  0  0  0
    2.3330   -2.3830   -0.0410 O   0  0  0  0  0  0  0  0  0  0  0  0
    4.2730   -3.2120    4.1070 H   0  0  0  0  0  0  0  0  0  0  0  0
    5.7500   -2.6580    3.2930 H   0  0  0  0  0  0  0  0  0  0  0  0
    5.1640   -1.7690    4.7150 H   0  0  0  0  0  0  0  0  0  0  0  0
    2.9690   -1.7560    2.9630 H   0  0  0  0  0  0  0  0  0  0  0  0
    3.2260    0.6120    3.1630 H   0  0  0  0  0  0  0  0  0  0  0  0
    4.2000   -0.0920    4.5530 H   0  0  0  0  0  0  0  0  0  0  0  0
    5.0690    0.4460    3.0860 H   0  0  0  0  0  0  0  0  0  0  0  0
    5.6310   -1.1320    1.5620 H   0  0  0  0  0  0  0  0  0  0  0  0
    4.6750   -2.5830    1.2050 H   0  0  0  0  0  0  0  0  0  0  0  0
    4.3770   -0.8050   -0.4830 H   0  0  0  0  0  0  0  0  0  0  0  0
    3.2690    1.2230    0.2190 H   0  0  0  0  0  0  0  0  0  0  0  0
    4.9030    1.0290    0.7640 H   0  0  0  0  0  0  0  0  0  0  0  0
    1.3110   -0.4030    0.4720 N   0  0  0  0  0  0  0  0  0  0  0  0
    0.0180   -0.9850    0.2550 C   0  0  1  0  0  0  0  0  0  0  0  0
   -0.7850   -0.9910    1.5400 C   0  0  0  0  0  0  0  0  0  0  0  0
   -1.0050    0.3900    2.0920 C   0  0  0  0  0  0  0  0  0  0  0  0
   -1.8160    0.2360    3.3680 C   0  0  0  0  0  0  0  0  0  0  0  0
   -2.0990    1.5700    4.0140 C   0  0  0  0  0  0  0  0  0  0  0  0
   -2.8420    2.4530    3.1570 N   0  0  0  0  0  0  0  0  0  0  0  0
   -0.7570   -0.3170   -0.8060 C   0  0  0  0  0  0  0  0  0  0  0  0
   -0.3250    0.6750   -1.4610 O   0  0  0  0  0  0  0  0  0  0  0  0
    1.4040    0.5950    0.7560 H   0  0  0  0  0  0  0  0  0  0  0  0
    0.1250   -2.0570   -0.0420 H   0  0  0  0  0  0  0  0  0  0  0  0
   -0.1970   -1.5770    2.2820 H   0  0  0  0  0  0  0  0  0  0  0  0
   -1.7550   -1.4730    1.4070 H   0  0  0  0  0  0  0  0  0  0  0  0
   -0.0360    0.8770    2.3680 H   0  0  0  0  0  0  0  0  0  0  0  0
   -1.6030    1.0050    1.3900 H   0  0  0  0  0  0  0  0  0  0  0  0
   -1.2820   -0.3880    4.1130 H   0  0  0  0  0  0  0  0  0  0  0  0
   -2.7770   -0.2660    3.1650 H   0  0  0  0  0  0  0  0  0  0  0  0
   -1.1540    2.0410    4.3910 H   0  0  0  0  0  0  0  0  0  0  0  0
   -2.7060    1.3630    4.9190 H   0  0  0  0  0  0  0  0  0  0  0  0
   -3.2550    1.9660    2.3530 H   0  0  0  0  0  0  0  0  0  0  0  0
   -2.3660    3.3420    2.9480 H   0  0  0  0  0  0  0  0  0  0  0  0
   -3.9750   -3.4270   -3.9320 C   0  0  0  0  0  0  0  0  0  0  0  0
   -3.7310   -2.5440   -2.7250 C   0  0  0  0  0  0  0  0  0  0  0  0
   -3.1150   -1.2600   -3.2360 C   0  0  2  0  0  0  0  0  0  0  0  0
   -1.8320   -1.6050   -3.9270 C   0  0  0  0  0  0  0  0  0  0  0  0
   -2.9120   -0.2510   -2.1170 C   0  0  2  0  0  0  0  0  0  0  0  0
   -2.0450   -0.7920   -1.1190 N   0  0  0  0  0  0  0  0  0  0  0  0
   -4.1800    0.2630   -1.5930 C   0  0  0  0  0  0  0  0  0  0  0  0
   -5.0400    0.7680   -2.3600 O   0  0  0  0  0  0  0  0  0  0  0  0
   -4.5030    0.2220   -0.2420 O   0  0  0  0  0  0  0  0  0  0  0  0
   -3.1640   -4.1900   -4.0380 H   0  0  0  0  0  0  0  0  0  0  0  0
   -4.1060   -2.8350   -4.8590 H   0  0  0  0  0  0  0  0  0  0  0  0
   -4.9010   -4.0030   -3.7470 H   0  0  0  0  0  0  0  0  0  0  0  0
   -3.0370   -3.1120   -2.0630 H   0  0  0  0  0  0  0  0  0  0  0  0
   -4.7060   -2.3480   -2.2300 H   0  0  0  0  0  0  0  0  0  0  0  0
   -3.8110   -0.8630   -4.0060 H   0  0  0  0  0  0  0  0  0  0  0  0
   -2.0000   -2.5730   -4.4760 H   0  0  0  0  0  0  0  0  0  0  0  0
   -1.0780   -1.8380   -3.1490 H   0  0  0  0  0  0  0  0  0  0  0  0
   -1.4960   -0.8840   -4.6700 H   0  0  0  0  0  0  0  0  0  0  0  0
   -2.3720    0.6120   -2.5900 H   0  0  0  0  0  0  0  0  0  0  0  0
   -2.4170   -1.6260   -0.5730 H   0  0  0  0  0  0  0  0  0  0  0  0
  1  9  1  0  0  0  0
  1 11  1  0  0  0  0
  2 12  1  0  0  0  0
  2  3  1  0  0  0  0
  2  1  1  0  0  0  0
  3 14  1  0  0  0  0
  4 16  1  0  0  0  0
  4  2  1  0  0  0  0
  5 18  1  6  0  0  0
  5  6  1  0  0  0  0
  5  4  1  0  0  0  0
  7 21  1  0  0  0  0
  7  5  1  0  0  0  0
  8  7  2  0  0  0  0
 10  1  1  0  0  0  0
 13  3  1  0  0  0  0
 15  3  1  0  0  0  0
 17  4  1  0  0  0  0
 19  6  1  0  0  0  0
 20  6  1  0  0  0  0
 21 30  1  0  0  0  0
 22 31  1  6  0  0  0
 22 21  1  0  0  0  0
 22 23  1  0  0  0  0
 23 24  1  0  0  0  0
 23 32  1  0  0  0  0
 24 34  1  0  0  0  0
 24 25  1  0  0  0  0
 25 26  1  0  0  0  0
 25 36  1  0  0  0  0
 26 38  1  0  0  0  0
 26 39  1  0  0  0  0
 27 26  1  0  0  0  0
 28 22  1  0  0  0  0
 29 28  2  0  0  0  0
 33 23  1  0  0  0  0
 35 24  1  0  0  0  0
 37 25  1  0  0  0  0
 40 27  1  0  0  0  0
 41 27  1  0  0  0  0
 42 53  1  0  0  0  0
 42 43  1  0  0  0  0
 43 55  1  0  0  0  0
 43 54  1  0  0  0  0
 44 56  1  6  0  0  0
 44 43  1  0  0  0  0
 44 46  1  0  0  0  0
 45 44  1  0  0  0  0
 45 58  1  0  0  0  0
 46 60  1  6  0  0  0
 46 48  1  0  0  0  0
 46 47  1  0  0  0  0
 47 28  1  0  0  0  0
 47 61  1  0  0  0  0
 48 50  1  0  0  0  0
 49 48  2  0  0  0  0
 51 42  1  0  0  0  0
 52 42  1  0  0  0  0
 57 45  1  0  0  0  0
 59 45  1  0  0  0  0
M  END
$$$$
