LKM.pdb
 OpenBabel07022418463D

 59 58  0  0  1  0  0  0  0  0999 V2000
    4.4620   -0.9910    5.0610 C   0  0  0  0  0  0  0  0  0  0  0  0
    3.4410   -0.4720    4.0410 C   0  0  0  0  0  0  0  0  0  0  0  0
    2.6650    0.6100    4.7580 C   0  0  0  0  0  0  0  0  0  0  0  0
    4.2280    0.0510    2.8770 C   0  0  0  0  0  0  0  0  0  0  0  0
    3.3830    0.6040    1.7680 C   0  0  2  0  0  0  0  0  0  0  0  0
    2.5940    1.6940    2.2750 N   0  0  0  0  0  0  0  0  0  0  0  0
    2.5770   -0.4150    1.0890 C   0  0  0  0  0  0  0  0  0  0  0  0
    3.1870   -1.4100    0.5990 O   0  0  0  0  0  0  0  0  0  0  0  0
    5.0000   -1.8510    4.6070 H   0  0  0  0  0  0  0  0  0  0  0  0
    5.1390   -0.1760    5.3680 H   0  0  0  0  0  0  0  0  0  0  0  0
    3.9210   -1.3700    5.9620 H   0  0  0  0  0  0  0  0  0  0  0  0
    2.7560   -1.2830    3.8070 H   0  0  0  0  0  0  0  0  0  0  0  0
    3.2790    1.5320    4.8350 H   0  0  0  0  0  0  0  0  0  0  0  0
    2.4990    0.2440    5.7920 H   0  0  0  0  0  0  0  0  0  0  0  0
    1.6960    0.7560    4.2650 H   0  0  0  0  0  0  0  0  0  0  0  0
    4.8570    0.8980    3.2650 H   0  0  0  0  0  0  0  0  0  0  0  0
    4.9480   -0.7230    2.5440 H   0  0  0  0  0  0  0  0  0  0  0  0
    4.0980    1.0170    1.0050 H   0  0  0  0  0  0  0  0  0  0  0  0
    1.8870    2.0360    1.5860 H   0  0  0  0  0  0  0  0  0  0  0  0
    3.2000    2.4720    2.6300 H   0  0  0  0  0  0  0  0  0  0  0  0
    1.1670   -0.3760    0.9370 N   0  0  0  0  0  0  0  0  0  0  0  0
    0.5060   -1.4400    0.2490 C   0  0  1  0  0  0  0  0  0  0  0  0
   -0.4850   -2.1750    1.1290 C   0  0  0  0  0  0  0  0  0  0  0  0
   -1.5740   -1.2590    1.6500 C   0  0  0  0  0  0  0  0  0  0  0  0
   -2.4890   -2.1030    2.5060 C   0  0  0  0  0  0  0  0  0  0  0  0
   -3.6280   -1.2980    3.0890 C   0  0  0  0  0  0  0  0  0  0  0  0
   -4.4570   -0.6990    2.0940 N   0  0  0  0  0  0  0  0  0  0  0  0
   -0.1920   -0.9540   -0.9940 C   0  0  0  0  0  0  0  0  0  0  0  0
   -0.1650    0.2550   -1.3410 O   0  0  0  0  0  0  0  0  0  0  0  0
    0.6470    0.4410    1.3370 H   0  0  0  0  0  0  0  0  0  0  0  0
    1.2380   -2.1930   -0.0920 H   0  0  0  0  0  0  0  0  0  0  0  0
    0.0500   -2.6110    1.9720 H   0  0  0  0  0  0  0  0  0  0  0  0
   -0.9240   -2.9760    0.5010 H   0  0  0  0  0  0  0  0  0  0  0  0
   -1.1360   -0.4020    2.1960 H   0  0  0  0  0  0  0  0  0  0  0  0
   -2.1800   -0.8280    0.8290 H   0  0  0  0  0  0  0  0  0  0  0  0
   -2.8740   -2.9150    1.8540 H   0  0  0  0  0  0  0  0  0  0  0  0
   -1.8740   -2.5830    3.2800 H   0  0  0  0  0  0  0  0  0  0  0  0
   -4.2170   -2.0130    3.7200 H   0  0  0  0  0  0  0  0  0  0  0  0
   -3.2050   -0.5310    3.7660 H   0  0  0  0  0  0  0  0  0  0  0  0
   -4.2540   -1.0000    1.1210 H   0  0  0  0  0  0  0  0  0  0  0  0
   -4.4360    0.3440    2.2060 H   0  0  0  0  0  0  0  0  0  0  0  0
   -2.2210    1.2410   -4.9510 C   0  0  0  0  0  0  0  0  0  0  0  0
   -1.4860   -0.0090   -5.9680 S   0  0  0  0  0  0  0  0  0  0  0  0
   -1.7360   -1.7050   -5.5080 C   0  0  0  0  0  0  0  0  0  0  0  0
   -1.0850   -2.1500   -4.2350 C   0  0  0  0  0  0  0  0  0  0  0  0
   -1.6080   -1.4040   -3.0530 C   0  0  2  0  0  0  0  0  0  0  0  0
   -0.9130   -1.8440   -1.8290 N   0  0  0  0  0  0  0  0  0  0  0  0
   -3.0200   -1.7740   -2.8250 C   0  0  0  0  0  0  0  0  0  0  0  0
   -3.3430   -2.3520   -1.7630 O   0  0  0  0  0  0  0  0  0  0  0  0
   -4.0300   -1.5220   -3.7190 O   0  0  0  0  0  0  0  0  0  0  0  0
   -1.4810    1.7680   -4.2770 H   0  0  0  0  0  0  0  0  0  0  0  0
   -3.1240    0.9090   -4.4090 H   0  0  0  0  0  0  0  0  0  0  0  0
   -2.6080    2.1180   -5.5760 H   0  0  0  0  0  0  0  0  0  0  0  0
   -2.8320   -1.9710   -5.5590 H   0  0  0  0  0  0  0  0  0  0  0  0
   -1.3200   -2.3480   -6.3650 H   0  0  0  0  0  0  0  0  0  0  0  0
   -1.1790   -3.2480   -4.0830 H   0  0  0  0  0  0  0  0  0  0  0  0
    0.0150   -1.8850   -4.2980 H   0  0  0  0  0  0  0  0  0  0  0  0
   -1.4920   -0.3370   -3.2150 H   0  0  0  0  0  0  0  0  0  0  0  0
   -0.9540   -2.8490   -1.5700 H   0  0  0  0  0  0  0  0  0  0  0  0
  1 10  1  0  0  0  0
  1 11  1  0  0  0  0
  2  3  1  0  0  0  0
  2  1  1  0  0  0  0
  3 13  1  0  0  0  0
  3 14  1  0  0  0  0
  4 16  1  0  0  0  0
  4  2  1  0  0  0  0
  5 18  1  6  0  0  0
  5  6  1  0  0  0  0
  5  4  1  0  0  0  0
  6 20  1  0  0  0  0
  7  5  1  0  0  0  0
  8  7  2  0  0  0  0
  9  1  1  0  0  0  0
 12  2  1  0  0  0  0
 15  3  1  0  0  0  0
 17  4  1  0  0  0  0
 19  6  1  0  0  0  0
 21  7  1  0  0  0  0
 21 30  1  0  0  0  0
 22 31  1  6  0  0  0
 22 21  1  0  0  0  0
 22 23  1  0  0  0  0
 23 24  1  0  0  0  0
 23 32  1  0  0  0  0
 24 34  1  0  0  0  0
 24 25  1  0  0  0  0
 25 26  1  0  0  0  0
 25 37  1  0  0  0  0
 26 38  1  0  0  0  0
 26 39  1  0  0  0  0
 27 41  1  0  0  0  0
 27 26  1  0  0  0  0
 28 22  1  0  0  0  0
 29 28  2  0  0  0  0
 33 23  1  0  0  0  0
 35 24  1  0  0  0  0
 36 25  1  0  0  0  0
 40 27  1  0  0  0  0
 42 52  1  0  0  0  0
 42 51  1  0  0  0  0
 43 44  1  0  0  0  0
 43 42  1  0  0  0  0
 44 45  1  0  0  0  0
 45 56  1  0  0  0  0
 45 46  1  0  0  0  0
 46 58  1  6  0  0  0
 46 48  1  0  0  0  0
 46 47  1  0  0  0  0
 47 59  1  0  0  0  0
 47 28  1  0  0  0  0
 48 49  1  0  0  0  0
 50 48  2  0  0  0  0
 53 42  1  0  0  0  0
 54 44  1  0  0  0  0
 55 44  1  0  0  0  0
 57 45  1  0  0  0  0
M  END
$$$$
