LKQ.pdb
 OpenBabel07022418463D

 59 58  0  0  1  0  0  0  0  0999 V2000
    3.2260   -1.5920    4.4440 C   0  0  0  0  0  0  0  0  0  0  0  0
    2.5790   -1.9350    3.1050 C   0  0  0  0  0  0  0  0  0  0  0  0
    2.7030   -3.4390    2.9450 C   0  0  0  0  0  0  0  0  0  0  0  0
    3.2690   -1.2270    1.9600 C   0  0  0  0  0  0  0  0  0  0  0  0
    3.2020    0.2700    2.1340 C   0  0  2  0  0  0  0  0  0  0  0  0
    3.8490    0.6530    3.3750 N   0  0  0  0  0  0  0  0  0  0  0  0
    1.7660    0.6830    2.1450 C   0  0  0  0  0  0  0  0  0  0  0  0
    1.2410    1.1540    3.1950 O   0  0  0  0  0  0  0  0  0  0  0  0
    4.3160   -1.4680    4.3140 H   0  0  0  0  0  0  0  0  0  0  0  0
    2.7350   -0.7450    4.9220 H   0  0  0  0  0  0  0  0  0  0  0  0
    3.0980   -2.4680    5.1480 H   0  0  0  0  0  0  0  0  0  0  0  0
    1.5150   -1.6490    3.1030 H   0  0  0  0  0  0  0  0  0  0  0  0
    2.8950   -3.7260    1.8990 H   0  0  0  0  0  0  0  0  0  0  0  0
    3.5300   -3.8530    3.5910 H   0  0  0  0  0  0  0  0  0  0  0  0
    1.7850   -3.9540    3.3120 H   0  0  0  0  0  0  0  0  0  0  0  0
    4.3600   -1.5040    1.9800 H   0  0  0  0  0  0  0  0  0  0  0  0
    2.8280   -1.5290    1.0080 H   0  0  0  0  0  0  0  0  0  0  0  0
    3.7160    0.7480    1.2810 H   0  0  0  0  0  0  0  0  0  0  0  0
    3.3780    1.5000    3.7690 H   0  0  0  0  0  0  0  0  0  0  0  0
    4.8640    0.8110    3.2110 H   0  0  0  0  0  0  0  0  0  0  0  0
    0.9740    0.5600    0.9930 N   0  0  0  0  0  0  0  0  0  0  0  0
   -0.4740    0.9890    1.0270 C   0  0  1  0  0  0  0  0  0  0  0  0
   -0.5240    2.2170    0.2430 C   0  0  0  0  0  0  0  0  0  0  0  0
   -1.6910    3.0210   -0.0790 C   0  0  0  0  0  0  0  0  0  0  0  0
   -2.7170    2.6920   -1.0590 C   0  0  0  0  0  0  0  0  0  0  0  0
   -3.5400    1.4740   -1.0010 C   0  0  0  0  0  0  0  0  0  0  0  0
   -4.5110    1.5500   -2.1460 N   0  0  0  0  0  0  0  0  0  0  0  0
   -1.2540   -0.1790    0.8250 C   0  0  0  0  0  0  0  0  0  0  0  0
   -2.4560   -0.2420    1.2330 O   0  0  0  0  0  0  0  0  0  0  0  0
    1.3560    0.1900    0.1120 H   0  0  0  0  0  0  0  0  0  0  0  0
   -0.6540    1.3090    2.1270 H   0  0  0  0  0  0  0  0  0  0  0  0
    0.0810    2.0440   -0.7610 H   0  0  0  0  0  0  0  0  0  0  0  0
    0.2250    2.9660    0.7380 H   0  0  0  0  0  0  0  0  0  0  0  0
   -1.3650    4.1120   -0.3420 H   0  0  0  0  0  0  0  0  0  0  0  0
   -2.2410    3.2990    0.9310 H   0  0  0  0  0  0  0  0  0  0  0  0
   -2.1780    2.7010   -2.0930 H   0  0  0  0  0  0  0  0  0  0  0  0
   -3.4070    3.6080   -1.2270 H   0  0  0  0  0  0  0  0  0  0  0  0
   -4.1580    1.3830   -0.1000 H   0  0  0  0  0  0  0  0  0  0  0  0
   -2.9570    0.5420   -1.2480 H   0  0  0  0  0  0  0  0  0  0  0  0
   -4.9930    0.6130   -2.1670 H   0  0  0  0  0  0  0  0  0  0  0  0
   -5.2360    2.2630   -1.9420 H   0  0  0  0  0  0  0  0  0  0  0  0
   -0.6120   -3.3490   -4.9020 N   0  0  0  0  0  0  0  0  0  0  0  0
   -1.4390   -3.1080   -3.7590 C   0  0  0  0  0  0  0  0  0  0  0  0
   -2.6870   -3.0580   -3.9980 O   0  0  0  0  0  0  0  0  0  0  0  0
   -0.8780   -2.9290   -2.3870 C   0  0  0  0  0  0  0  0  0  0  0  0
   -2.0200   -2.7290   -1.4630 C   0  0  0  0  0  0  0  0  0  0  0  0
   -1.6510   -2.5290   -0.0170 C   0  0  2  0  0  0  0  0  0  0  0  0
   -0.8090   -1.3630    0.1690 N   0  0  0  0  0  0  0  0  0  0  0  0
   -1.1190   -3.7380    0.6240 C   0  0  0  0  0  0  0  0  0  0  0  0
   -0.0410   -3.7770    1.2730 O   0  0  0  0  0  0  0  0  0  0  0  0
   -1.7920   -4.9660    0.5560 O   0  0  0  0  0  0  0  0  0  0  0  0
    0.0080   -2.5620   -5.2060 H   0  0  0  0  0  0  0  0  0  0  0  0
   -0.6010   -4.2450   -5.4250 H   0  0  0  0  0  0  0  0  0  0  0  0
   -0.3180   -3.8590   -2.1440 H   0  0  0  0  0  0  0  0  0  0  0  0
   -0.1760   -2.0780   -2.4530 H   0  0  0  0  0  0  0  0  0  0  0  0
   -2.5730   -1.8170   -1.7860 H   0  0  0  0  0  0  0  0  0  0  0  0
   -2.7230   -3.5770   -1.5870 H   0  0  0  0  0  0  0  0  0  0  0  0
   -2.6110   -2.2840    0.4860 H   0  0  0  0  0  0  0  0  0  0  0  0
    0.1690   -1.3690   -0.1850 H   0  0  0  0  0  0  0  0  0  0  0  0
  1 10  1  0  0  0  0
  1 11  1  0  0  0  0
  2  1  1  0  0  0  0
  3  2  1  0  0  0  0
  3 15  1  0  0  0  0
  3 14  1  0  0  0  0
  4 16  1  0  0  0  0
  4  5  1  0  0  0  0
  4  2  1  0  0  0  0
  5 18  1  6  0  0  0
  5  7  1  0  0  0  0
  5  6  1  0  0  0  0
  6 19  1  0  0  0  0
  7  8  2  0  0  0  0
  9  1  1  0  0  0  0
 12  2  1  0  0  0  0
 13  3  1  0  0  0  0
 17  4  1  0  0  0  0
 20  6  1  0  0  0  0
 21 22  1  0  0  0  0
 21  7  1  0  0  0  0
 22 31  1  1  0  0  0
 23 33  1  0  0  0  0
 23 22  1  0  0  0  0
 24 23  1  0  0  0  0
 24 35  1  0  0  0  0
 25 26  1  0  0  0  0
 25 24  1  0  0  0  0
 26 38  1  0  0  0  0
 27 41  1  0  0  0  0
 27 26  1  0  0  0  0
 28 22  1  0  0  0  0
 28 29  2  0  0  0  0
 30 21  1  0  0  0  0
 32 23  1  0  0  0  0
 34 24  1  0  0  0  0
 36 25  1  0  0  0  0
 37 25  1  0  0  0  0
 39 26  1  0  0  0  0
 40 27  1  0  0  0  0
 42 43  1  0  0  0  0
 43 45  1  0  0  0  0
 44 43  2  0  0  0  0
 45 54  1  0  0  0  0
 45 46  1  0  0  0  0
 46 47  1  0  0  0  0
 47 48  1  0  0  0  0
 47 58  1  1  0  0  0
 47 49  1  0  0  0  0
 48 28  1  0  0  0  0
 49 50  1  0  0  0  0
 51 49  2  0  0  0  0
 52 42  1  0  0  0  0
 53 42  1  0  0  0  0
 55 45  1  0  0  0  0
 56 46  1  0  0  0  0
 57 46  1  0  0  0  0
 59 48  1  0  0  0  0
M  END
$$$$
