LKS.pdb
 OpenBabel07022418463D

 53 52  0  0  1  0  0  0  0  0999 V2000
    1.7370   -5.4500    1.0580 C   0  0  0  0  0  0  0  0  0  0  0  0
    1.8050   -4.2150    1.9720 C   0  0  0  0  0  0  0  0  0  0  0  0
    0.3970   -3.7260    2.1580 C   0  0  0  0  0  0  0  0  0  0  0  0
    2.6840   -3.1730    1.3760 C   0  0  0  0  0  0  0  0  0  0  0  0
    2.8460   -1.9130    2.1490 C   0  0  2  0  0  0  0  0  0  0  0  0
    3.3830   -2.2690    3.4580 N   0  0  0  0  0  0  0  0  0  0  0  0
    1.6520   -1.0480    2.2220 C   0  0  0  0  0  0  0  0  0  0  0  0
    1.0180   -0.8720    3.3200 O   0  0  0  0  0  0  0  0  0  0  0  0
    2.4980   -6.2020    1.3480 H   0  0  0  0  0  0  0  0  0  0  0  0
    0.7490   -5.9430    1.1370 H   0  0  0  0  0  0  0  0  0  0  0  0
    1.9870   -5.1590    0.0100 H   0  0  0  0  0  0  0  0  0  0  0  0
    2.2050   -4.6180    2.9320 H   0  0  0  0  0  0  0  0  0  0  0  0
    0.1880   -3.4710    3.2350 H   0  0  0  0  0  0  0  0  0  0  0  0
    0.1990   -2.8880    1.4750 H   0  0  0  0  0  0  0  0  0  0  0  0
   -0.3410   -4.5230    1.8420 H   0  0  0  0  0  0  0  0  0  0  0  0
    2.4090   -2.9760    0.3050 H   0  0  0  0  0  0  0  0  0  0  0  0
    3.7140   -3.6310    1.3010 H   0  0  0  0  0  0  0  0  0  0  0  0
    3.6390   -1.3160    1.6240 H   0  0  0  0  0  0  0  0  0  0  0  0
    3.7400   -1.3880    3.8760 H   0  0  0  0  0  0  0  0  0  0  0  0
    4.1320   -2.9720    3.2730 H   0  0  0  0  0  0  0  0  0  0  0  0
    1.1300   -0.3540    1.0970 N   0  0  0  0  0  0  0  0  0  0  0  0
   -0.0870    0.5120    1.2310 C   0  0  1  0  0  0  0  0  0  0  0  0
    0.3560    1.9150    1.1280 C   0  0  0  0  0  0  0  0  0  0  0  0
   -0.5490    3.0630    1.1910 C   0  0  0  0  0  0  0  0  0  0  0  0
   -1.5270    3.3220    0.1130 C   0  0  0  0  0  0  0  0  0  0  0  0
   -2.3710    4.5680    0.3960 C   0  0  0  0  0  0  0  0  0  0  0  0
   -3.2980    4.7470   -0.7060 N   0  0  0  0  0  0  0  0  0  0  0  0
   -1.0910   -0.0380    0.3470 C   0  0  0  0  0  0  0  0  0  0  0  0
   -2.3380    0.2340    0.4850 O   0  0  0  0  0  0  0  0  0  0  0  0
    1.5750   -0.4240    0.1820 H   0  0  0  0  0  0  0  0  0  0  0  0
   -0.4550    0.3820    2.2980 H   0  0  0  0  0  0  0  0  0  0  0  0
    1.1960    2.1230    1.8860 H   0  0  0  0  0  0  0  0  0  0  0  0
    0.9350    1.9810    0.1310 H   0  0  0  0  0  0  0  0  0  0  0  0
    0.1100    3.9900    1.3580 H   0  0  0  0  0  0  0  0  0  0  0  0
   -1.0880    3.0270    2.2110 H   0  0  0  0  0  0  0  0  0  0  0  0
   -2.1240    2.5340   -0.2560 H   0  0  0  0  0  0  0  0  0  0  0  0
   -0.8960    3.6630   -0.7880 H   0  0  0  0  0  0  0  0  0  0  0  0
   -1.6660    5.4020    0.5020 H   0  0  0  0  0  0  0  0  0  0  0  0
   -2.9550    4.4790    1.3130 H   0  0  0  0  0  0  0  0  0  0  0  0
   -3.7780    3.8060   -0.8290 H   0  0  0  0  0  0  0  0  0  0  0  0
   -4.0770    5.3700   -0.3370 H   0  0  0  0  0  0  0  0  0  0  0  0
   -2.8290   -1.4290   -3.7460 O   0  0  0  0  0  0  0  0  0  0  0  0
   -1.7820   -0.8690   -3.0090 C   0  0  0  0  0  0  0  0  0  0  0  0
   -1.8750   -1.4280   -1.6030 C   0  0  2  0  0  0  0  0  0  0  0  0
   -0.8370   -0.9150   -0.7480 N   0  0  0  0  0  0  0  0  0  0  0  0
   -1.8240   -2.8990   -1.6020 C   0  0  0  0  0  0  0  0  0  0  0  0
   -2.6630   -3.5910   -2.2810 O   0  0  0  0  0  0  0  0  0  0  0  0
   -0.8970   -3.6380   -0.8930 O   0  0  0  0  0  0  0  0  0  0  0  0
   -2.5340   -1.4800   -4.6880 H   0  0  0  0  0  0  0  0  0  0  0  0
   -1.8600    0.2150   -2.9420 H   0  0  0  0  0  0  0  0  0  0  0  0
   -0.8390   -1.2320   -3.4620 H   0  0  0  0  0  0  0  0  0  0  0  0
   -2.8510   -1.0850   -1.2060 H   0  0  0  0  0  0  0  0  0  0  0  0
    0.1390   -1.1960   -0.9360 H   0  0  0  0  0  0  0  0  0  0  0  0
  1 10  1  0  0  0  0
  1  9  1  0  0  0  0
  1  2  1  0  0  0  0
  2  3  1  0  0  0  0
  2 12  1  0  0  0  0
  3 13  1  0  0  0  0
  4  2  1  0  0  0  0
  4  5  1  0  0  0  0
  5 18  1  6  0  0  0
  5  7  1  0  0  0  0
  5  6  1  0  0  0  0
  6 19  1  0  0  0  0
  7  8  2  0  0  0  0
 11  1  1  0  0  0  0
 14  3  1  0  0  0  0
 15  3  1  0  0  0  0
 16  4  1  0  0  0  0
 17  4  1  0  0  0  0
 20  6  1  0  0  0  0
 21 22  1  0  0  0  0
 21  7  1  0  0  0  0
 22 31  1  1  0  0  0
 23 24  1  0  0  0  0
 23 22  1  0  0  0  0
 23 32  1  0  0  0  0
 24 34  1  0  0  0  0
 24 35  1  0  0  0  0
 25 26  1  0  0  0  0
 25 24  1  0  0  0  0
 26 38  1  0  0  0  0
 26 39  1  0  0  0  0
 27 41  1  0  0  0  0
 27 26  1  0  0  0  0
 28 29  2  0  0  0  0
 28 22  1  0  0  0  0
 30 21  1  0  0  0  0
 33 23  1  0  0  0  0
 36 25  1  0  0  0  0
 37 25  1  0  0  0  0
 40 27  1  0  0  0  0
 42 43  1  0  0  0  0
 43 50  1  0  0  0  0
 43 44  1  0  0  0  0
 44 46  1  0  0  0  0
 44 52  1  1  0  0  0
 44 45  1  0  0  0  0
 45 28  1  0  0  0  0
 46 48  1  0  0  0  0
 47 46  2  0  0  0  0
 49 42  1  0  0  0  0
 51 43  1  0  0  0  0
 53 45  1  0  0  0  0
M  END
$$$$
