LKW.pdb
 OpenBabel07022418463D

 66 67  0  0  1  0  0  0  0  0999 V2000
    1.0730    0.8570    4.4830 C   0  0  0  0  0  0  0  0  0  0  0  0
    2.2430    0.3670    3.6670 C   0  0  0  0  0  0  0  0  0  0  0  0
    2.7910   -0.8690    4.4030 C   0  0  0  0  0  0  0  0  0  0  0  0
    1.9020   -0.1050    2.3050 C   0  0  0  0  0  0  0  0  0  0  0  0
    1.2820    0.8460    1.3570 C   0  0  2  0  0  0  0  0  0  0  0  0
    0.0400    1.4220    1.7200 N   0  0  0  0  0  0  0  0  0  0  0  0
    1.2350    0.1690    0.0080 C   0  0  0  0  0  0  0  0  0  0  0  0
    2.3090   -0.3070   -0.4800 O   0  0  0  0  0  0  0  0  0  0  0  0
    1.1580    0.4350    5.5280 H   0  0  0  0  0  0  0  0  0  0  0  0
    1.1510    1.9590    4.5850 H   0  0  0  0  0  0  0  0  0  0  0  0
    0.0980    0.5490    4.1120 H   0  0  0  0  0  0  0  0  0  0  0  0
    3.0950    1.0850    3.6940 H   0  0  0  0  0  0  0  0  0  0  0  0
    1.9500   -1.5980    4.4230 H   0  0  0  0  0  0  0  0  0  0  0  0
    3.5690   -1.3310    3.7570 H   0  0  0  0  0  0  0  0  0  0  0  0
    3.1420   -0.6190    5.4020 H   0  0  0  0  0  0  0  0  0  0  0  0
    2.7950   -0.5940    1.8340 H   0  0  0  0  0  0  0  0  0  0  0  0
    1.1870   -0.9710    2.4410 H   0  0  0  0  0  0  0  0  0  0  0  0
    2.0080    1.7000    1.1880 H   0  0  0  0  0  0  0  0  0  0  0  0
   -0.2950    1.9700    0.8650 H   0  0  0  0  0  0  0  0  0  0  0  0
    0.2120    2.1880    2.4180 H   0  0  0  0  0  0  0  0  0  0  0  0
    0.0500    0.0330   -0.7550 N   0  0  0  0  0  0  0  0  0  0  0  0
   -0.0760   -0.5810   -2.0380 C   0  0  1  0  0  0  0  0  0  0  0  0
    1.0370   -0.4100   -2.9870 C   0  0  0  0  0  0  0  0  0  0  0  0
    1.5030    0.8920   -3.4360 C   0  0  0  0  0  0  0  0  0  0  0  0
    0.6820    1.8610   -4.1640 C   0  0  0  0  0  0  0  0  0  0  0  0
   -0.5030    2.4230   -3.4640 C   0  0  0  0  0  0  0  0  0  0  0  0
   -1.1890    3.4180   -4.3150 N   0  0  0  0  0  0  0  0  0  0  0  0
   -0.1980   -2.1130   -1.8590 C   0  0  0  0  0  0  0  0  0  0  0  0
   -0.2280   -2.8110   -2.8820 O   0  0  0  0  0  0  0  0  0  0  0  0
   -0.8180    0.4420   -0.2810 H   0  0  0  0  0  0  0  0  0  0  0  0
   -1.0420   -0.3380   -2.4880 H   0  0  0  0  0  0  0  0  0  0  0  0
    1.9470   -0.9970   -2.6410 H   0  0  0  0  0  0  0  0  0  0  0  0
    0.7470   -1.0290   -3.9210 H   0  0  0  0  0  0  0  0  0  0  0  0
    2.0100    1.4150   -2.5360 H   0  0  0  0  0  0  0  0  0  0  0  0
    2.4590    0.6770   -4.0590 H   0  0  0  0  0  0  0  0  0  0  0  0
    1.3600    2.7620   -4.3730 H   0  0  0  0  0  0  0  0  0  0  0  0
    0.4320    1.5370   -5.2140 H   0  0  0  0  0  0  0  0  0  0  0  0
   -1.2580    1.6790   -3.1840 H   0  0  0  0  0  0  0  0  0  0  0  0
   -0.2480    2.9710   -2.5360 H   0  0  0  0  0  0  0  0  0  0  0  0
   -1.8040    2.9650   -4.9950 H   0  0  0  0  0  0  0  0  0  0  0  0
   -1.7250    4.0740   -3.7220 H   0  0  0  0  0  0  0  0  0  0  0  0
   -0.2690   -2.6420   -0.5650 N   0  0  0  0  0  0  0  0  0  0  0  0
   -0.3640   -3.9520   -0.0660 C   0  0  1  0  0  0  0  0  0  0  0  0
   -1.5320   -4.2240    0.8250 C   0  0  0  0  0  0  0  0  0  0  0  0
   -1.6460   -3.4150    2.0400 C   0  0  0  0  0  0  0  0  0  0  0  0
   -1.2410   -3.7520    3.3400 C   0  0  0  0  0  0  0  0  0  0  0  0
   -1.5220   -2.7190    4.1510 N   0  0  0  0  0  0  0  0  0  0  0  0
   -2.0850   -1.7300    3.4610 C   0  0  0  0  0  0  0  0  0  0  0  0
   -2.5590   -0.4870    3.8080 C   0  0  0  0  0  0  0  0  0  0  0  0
   -3.1260    0.3910    2.9070 C   0  0  0  0  0  0  0  0  0  0  0  0
   -3.2060   -0.0360    1.5950 C   0  0  0  0  0  0  0  0  0  0  0  0
   -2.7380   -1.2700    1.2370 C   0  0  0  0  0  0  0  0  0  0  0  0
   -2.1690   -2.1500    2.1400 C   0  0  0  0  0  0  0  0  0  0  0  0
   -0.1550   -5.0640   -1.0220 C   0  0  0  0  0  0  0  0  0  0  0  0
   -0.4100   -6.2390   -0.5470 O   0  0  0  0  0  0  0  0  0  0  0  0
    0.2640   -4.9930   -2.3030 O   0  0  0  0  0  0  0  0  0  0  0  0
   -0.2140   -1.8820    0.2250 H   0  0  0  0  0  0  0  0  0  0  0  0
    0.6150   -4.0590    0.5940 H   0  0  0  0  0  0  0  0  0  0  0  0
   -1.5500   -5.3170    1.1230 H   0  0  0  0  0  0  0  0  0  0  0  0
   -2.4450   -4.0870    0.1790 H   0  0  0  0  0  0  0  0  0  0  0  0
   -0.7810   -4.6770    3.6420 H   0  0  0  0  0  0  0  0  0  0  0  0
   -1.3210   -2.7020    5.1890 H   0  0  0  0  0  0  0  0  0  0  0  0
   -2.4860   -0.1650    4.8580 H   0  0  0  0  0  0  0  0  0  0  0  0
   -3.4950    1.3620    3.1760 H   0  0  0  0  0  0  0  0  0  0  0  0
   -3.6310    0.5870    0.8330 H   0  0  0  0  0  0  0  0  0  0  0  0
   -2.8070   -1.5860    0.2160 H   0  0  0  0  0  0  0  0  0  0  0  0
  1 10  1  0  0  0  0
  1  9  1  0  0  0  0
  2 12  1  0  0  0  0
  2  3  1  0  0  0  0
  2  1  1  0  0  0  0
  3 13  1  0  0  0  0
  3 15  1  0  0  0  0
  4 17  1  0  0  0  0
  4  2  1  0  0  0  0
  5 18  1  6  0  0  0
  5  6  1  0  0  0  0
  5  4  1  0  0  0  0
  6 20  1  0  0  0  0
  7  5  1  0  0  0  0
  8  7  2  0  0  0  0
 11  1  1  0  0  0  0
 14  3  1  0  0  0  0
 16  4  1  0  0  0  0
 19  6  1  0  0  0  0
 21 30  1  0  0  0  0
 21  7  1  0  0  0  0
 22 31  1  6  0  0  0
 22 28  1  0  0  0  0
 22 21  1  0  0  0  0
 23 32  1  0  0  0  0
 23 22  1  0  0  0  0
 24 23  1  0  0  0  0
 24 34  1  0  0  0  0
 25 26  1  0  0  0  0
 25 24  1  0  0  0  0
 26 38  1  0  0  0  0
 26 39  1  0  0  0  0
 27 41  1  0  0  0  0
 27 26  1  0  0  0  0
 28 42  1  0  0  0  0
 29 28  2  0  0  0  0
 33 23  1  0  0  0  0
 35 24  1  0  0  0  0
 36 25  1  0  0  0  0
 37 25  1  0  0  0  0
 40 27  1  0  0  0  0
 42 43  1  0  0  0  0
 42 57  1  0  0  0  0
 43 58  1  1  0  0  0
 43 44  1  0  0  0  0
 44 59  1  0  0  0  0
 44 45  1  0  0  0  0
 45 53  1  0  0  0  0
 45 46  2  0  0  0  0
 46 61  1  0  0  0  0
 46 47  1  0  0  0  0
 47 62  1  0  0  0  0
 48 49  1  0  0  0  0
 48 47  1  0  0  0  0
 49 63  1  0  0  0  0
 50 64  1  0  0  0  0
 50 49  2  0  0  0  0
 51 50  1  0  0  0  0
 52 51  2  0  0  0  0
 52 53  1  0  0  0  0
 53 48  2  0  0  0  0
 54 55  1  0  0  0  0
 54 43  1  0  0  0  0
 56 54  2  0  0  0  0
 60 44  1  0  0  0  0
 65 51  1  0  0  0  0
 66 52  1  0  0  0  0
M  END
$$$$
