LKY.pdb
 OpenBabel07022418463D

 63 63  0  0  1  0  0  0  0  0999 V2000
    5.5880   -1.4170    0.1310 C   0  0  0  0  0  0  0  0  0  0  0  0
    5.0660   -0.2440   -0.6490 C   0  0  0  0  0  0  0  0  0  0  0  0
    4.8880   -0.6120   -2.0910 C   0  0  0  0  0  0  0  0  0  0  0  0
    3.8280    0.3440   -0.0190 C   0  0  0  0  0  0  0  0  0  0  0  0
    2.6890   -0.6160    0.0840 C   0  0  2  0  0  0  0  0  0  0  0  0
    2.2840   -1.0950   -1.1910 N   0  0  0  0  0  0  0  0  0  0  0  0
    1.6170    0.0100    0.8940 C   0  0  0  0  0  0  0  0  0  0  0  0
    1.9590    0.4330    2.0300 O   0  0  0  0  0  0  0  0  0  0  0  0
    6.6930   -1.4240    0.0380 H   0  0  0  0  0  0  0  0  0  0  0  0
    5.2290   -2.3870   -0.2460 H   0  0  0  0  0  0  0  0  0  0  0  0
    5.3550   -1.2890    1.2080 H   0  0  0  0  0  0  0  0  0  0  0  0
    5.8480    0.5690   -0.5720 H   0  0  0  0  0  0  0  0  0  0  0  0
    4.5950   -1.6910   -2.1970 H   0  0  0  0  0  0  0  0  0  0  0  0
    4.1290   -0.0210   -2.6240 H   0  0  0  0  0  0  0  0  0  0  0  0
    5.8530   -0.4230   -2.6280 H   0  0  0  0  0  0  0  0  0  0  0  0
    4.1350    0.6970    1.0000 H   0  0  0  0  0  0  0  0  0  0  0  0
    3.5590    1.2700   -0.5730 H   0  0  0  0  0  0  0  0  0  0  0  0
    3.0780   -1.5070    0.6600 H   0  0  0  0  0  0  0  0  0  0  0  0
    1.7400   -0.4350   -1.7680 H   0  0  0  0  0  0  0  0  0  0  0  0
    2.0070   -2.0800   -1.2430 H   0  0  0  0  0  0  0  0  0  0  0  0
    0.2880    0.1580    0.4970 N   0  0  0  0  0  0  0  0  0  0  0  0
   -0.6950    0.8020    1.3970 C   0  0  1  0  0  0  0  0  0  0  0  0
   -1.1640    2.0920    0.8060 C   0  0  0  0  0  0  0  0  0  0  0  0
   -2.1550    2.7950    1.6710 C   0  0  0  0  0  0  0  0  0  0  0  0
   -1.6100    3.1170    3.0460 C   0  0  0  0  0  0  0  0  0  0  0  0
   -2.7040    3.8290    3.8320 C   0  0  0  0  0  0  0  0  0  0  0  0
   -3.0350    5.0280    3.1090 N   0  0  0  0  0  0  0  0  0  0  0  0
   -1.7650   -0.1630    1.7310 C   0  0  0  0  0  0  0  0  0  0  0  0
   -2.6650    0.1670    2.5240 O   0  0  0  0  0  0  0  0  0  0  0  0
   -0.0090   -0.1870   -0.4390 H   0  0  0  0  0  0  0  0  0  0  0  0
   -0.1300    1.0640    2.3170 H   0  0  0  0  0  0  0  0  0  0  0  0
   -0.2490    2.7210    0.6510 H   0  0  0  0  0  0  0  0  0  0  0  0
   -1.6050    1.9740   -0.2060 H   0  0  0  0  0  0  0  0  0  0  0  0
   -2.4380    3.7940    1.2380 H   0  0  0  0  0  0  0  0  0  0  0  0
   -3.0870    2.2320    1.7200 H   0  0  0  0  0  0  0  0  0  0  0  0
   -0.7700    3.8480    2.9800 H   0  0  0  0  0  0  0  0  0  0  0  0
   -1.2100    2.2430    3.5810 H   0  0  0  0  0  0  0  0  0  0  0  0
   -2.3340    4.1400    4.8330 H   0  0  0  0  0  0  0  0  0  0  0  0
   -3.6000    3.2080    3.9640 H   0  0  0  0  0  0  0  0  0  0  0  0
   -3.8880    4.8820    2.5420 H   0  0  0  0  0  0  0  0  0  0  0  0
   -3.0640    5.8770    3.7180 H   0  0  0  0  0  0  0  0  0  0  0  0
   -0.6200   -5.0250   -3.9000 O   0  0  0  0  0  0  0  0  0  0  0  0
   -1.3670   -4.4310   -2.8850 C   0  0  0  0  0  0  0  0  0  0  0  0
   -1.9200   -5.2670   -1.9490 C   0  0  0  0  0  0  0  0  0  0  0  0
   -2.6730   -4.7200   -0.9180 C   0  0  0  0  0  0  0  0  0  0  0  0
   -2.8790   -3.3680   -0.8090 C   0  0  0  0  0  0  0  0  0  0  0  0
   -3.6820   -2.7690    0.2860 C   0  0  0  0  0  0  0  0  0  0  0  0
   -2.8440   -2.4250    1.4900 C   0  0  2  0  0  0  0  0  0  0  0  0
   -1.7950   -1.4630    1.1700 N   0  0  0  0  0  0  0  0  0  0  0  0
   -2.2720   -3.6000    2.1490 C   0  0  0  0  0  0  0  0  0  0  0  0
   -3.0290   -4.5380    2.4970 O   0  0  0  0  0  0  0  0  0  0  0  0
   -2.3090   -2.5550   -1.7670 C   0  0  0  0  0  0  0  0  0  0  0  0
   -1.5540   -3.0640   -2.8070 C   0  0  0  0  0  0  0  0  0  0  0  0
   -0.9200   -3.7350    2.4130 O   0  0  0  0  0  0  0  0  0  0  0  0
   -0.9800   -5.0020   -4.8620 H   0  0  0  0  0  0  0  0  0  0  0  0
   -1.8120   -6.3370   -1.9520 H   0  0  0  0  0  0  0  0  0  0  0  0
   -3.1100   -5.3620   -0.1800 H   0  0  0  0  0  0  0  0  0  0  0  0
   -4.4190   -3.5290    0.6130 H   0  0  0  0  0  0  0  0  0  0  0  0
   -4.2470   -1.8730   -0.0390 H   0  0  0  0  0  0  0  0  0  0  0  0
   -3.5360   -1.9160    2.2120 H   0  0  0  0  0  0  0  0  0  0  0  0
   -1.0530   -1.7680    0.5030 H   0  0  0  0  0  0  0  0  0  0  0  0
   -2.4450   -1.4780   -1.7220 H   0  0  0  0  0  0  0  0  0  0  0  0
   -1.1220   -2.4120   -3.5390 H   0  0  0  0  0  0  0  0  0  0  0  0
  1 11  1  0  0  0  0
  2 12  1  0  0  0  0
  2  4  1  0  0  0  0
  2  1  1  0  0  0  0
  3  2  1  0  0  0  0
  4  5  1  0  0  0  0
  4 16  1  0  0  0  0
  5 18  1  1  0  0  0
  5  7  1  0  0  0  0
  6  5  1  0  0  0  0
  7  8  2  0  0  0  0
  9  1  1  0  0  0  0
 10  1  1  0  0  0  0
 13  3  1  0  0  0  0
 14  3  1  0  0  0  0
 15  3  1  0  0  0  0
 17  4  1  0  0  0  0
 19  6  1  0  0  0  0
 20  6  1  0  0  0  0
 21  7  1  0  0  0  0
 21 22  1  0  0  0  0
 22 28  1  0  0  0  0
 22 31  1  1  0  0  0
 23 22  1  0  0  0  0
 23 24  1  0  0  0  0
 24 35  1  0  0  0  0
 24 25  1  0  0  0  0
 25 37  1  0  0  0  0
 25 26  1  0  0  0  0
 26 39  1  0  0  0  0
 26 38  1  0  0  0  0
 27 41  1  0  0  0  0
 27 26  1  0  0  0  0
 28 29  2  0  0  0  0
 30 21  1  0  0  0  0
 32 23  1  0  0  0  0
 33 23  1  0  0  0  0
 34 24  1  0  0  0  0
 36 25  1  0  0  0  0
 40 27  1  0  0  0  0
 42 43  1  0  0  0  0
 43 53  2  0  0  0  0
 43 44  1  0  0  0  0
 44 45  2  0  0  0  0
 45 46  1  0  0  0  0
 45 57  1  0  0  0  0
 46 47  1  0  0  0  0
 47 58  1  0  0  0  0
 47 48  1  0  0  0  0
 48 50  1  0  0  0  0
 48 60  1  1  0  0  0
 49 48  1  0  0  0  0
 49 28  1  0  0  0  0
 50 54  2  0  0  0  0
 50 51  1  0  0  0  0
 52 62  1  0  0  0  0
 52 46  2  0  0  0  0
 53 52  1  0  0  0  0
 55 42  1  0  0  0  0
 56 44  1  0  0  0  0
 59 47  1  0  0  0  0
 61 49  1  0  0  0  0
 63 53  1  0  0  0  0
M  END
$$$$
