LLA.pdb
 OpenBabel07022418463D

 50 49  0  0  1  0  0  0  0  0999 V2000
    0.9840   -5.7140    1.6450 C   0  0  0  0  0  0  0  0  0  0  0  0
    2.0090   -4.6330    1.4030 C   0  0  0  0  0  0  0  0  0  0  0  0
    2.2070   -3.6930    2.5480 C   0  0  0  0  0  0  0  0  0  0  0  0
    1.9330   -3.9840    0.0900 C   0  0  0  0  0  0  0  0  0  0  0  0
    0.7190   -3.2930   -0.3540 C   0  0  2  0  0  0  0  0  0  0  0  0
    1.0410   -2.7880   -1.7190 N   0  0  0  0  0  0  0  0  0  0  0  0
    0.2330   -2.1470    0.4150 C   0  0  0  0  0  0  0  0  0  0  0  0
   -0.1570   -2.2970    1.5880 O   0  0  0  0  0  0  0  0  0  0  0  0
    0.0040   -5.4800    1.1820 H   0  0  0  0  0  0  0  0  0  0  0  0
    0.8760   -5.8660    2.7480 H   0  0  0  0  0  0  0  0  0  0  0  0
    1.2880   -6.7000    1.2340 H   0  0  0  0  0  0  0  0  0  0  0  0
    2.9960   -5.2340    1.3630 H   0  0  0  0  0  0  0  0  0  0  0  0
    3.0950   -3.9850    3.1870 H   0  0  0  0  0  0  0  0  0  0  0  0
    2.4370   -2.6510    2.2540 H   0  0  0  0  0  0  0  0  0  0  0  0
    1.3530   -3.7830    3.2600 H   0  0  0  0  0  0  0  0  0  0  0  0
    2.7830   -3.2450    0.0240 H   0  0  0  0  0  0  0  0  0  0  0  0
    2.1930   -4.7380   -0.6940 H   0  0  0  0  0  0  0  0  0  0  0  0
   -0.1570   -3.9500   -0.5410 H   0  0  0  0  0  0  0  0  0  0  0  0
    1.3850   -3.5970   -2.2840 H   0  0  0  0  0  0  0  0  0  0  0  0
    0.1590   -2.4660   -2.1900 H   0  0  0  0  0  0  0  0  0  0  0  0
    2.7380    0.2200    0.3980 C   0  0  0  0  0  0  0  0  0  0  0  0
    1.9510    1.2390    1.1690 C   0  0  0  0  0  0  0  0  0  0  0  0
    2.7190    2.5640    1.2380 C   0  0  0  0  0  0  0  0  0  0  0  0
    0.5690    1.4820    0.6620 C   0  0  0  0  0  0  0  0  0  0  0  0
   -0.3180    0.2940    0.6960 C   0  0  2  0  0  0  0  0  0  0  0  0
    0.1670   -0.7970   -0.1020 N   0  0  0  0  0  0  0  0  0  0  0  0
   -1.7070    0.6590    0.1930 C   0  0  0  0  0  0  0  0  0  0  0  0
   -2.1520   -0.0120   -0.7630 O   0  0  0  0  0  0  0  0  0  0  0  0
    3.8330    0.5160    0.5180 H   0  0  0  0  0  0  0  0  0  0  0  0
    2.5810    0.2800   -0.7130 H   0  0  0  0  0  0  0  0  0  0  0  0
    2.6840   -0.7880    0.7980 H   0  0  0  0  0  0  0  0  0  0  0  0
    1.9160    0.8370    2.2330 H   0  0  0  0  0  0  0  0  0  0  0  0
    2.2930    3.2170    2.0270 H   0  0  0  0  0  0  0  0  0  0  0  0
    2.5520    3.0550    0.2410 H   0  0  0  0  0  0  0  0  0  0  0  0
    3.7960    2.3470    1.3860 H   0  0  0  0  0  0  0  0  0  0  0  0
    0.1580    2.3330    1.2640 H   0  0  0  0  0  0  0  0  0  0  0  0
    0.6930    1.8880   -0.3890 H   0  0  0  0  0  0  0  0  0  0  0  0
   -0.4300   -0.0220    1.7800 H   0  0  0  0  0  0  0  0  0  0  0  0
    0.4790   -0.6830   -1.0750 H   0  0  0  0  0  0  0  0  0  0  0  0
   -4.8460    1.7990    1.3110 C   0  0  0  0  0  0  0  0  0  0  0  0
   -3.7660    2.0070    0.2630 C   0  0  2  0  0  0  0  0  0  0  0  0
   -2.4650    1.6900    0.7580 N   0  0  0  0  0  0  0  0  0  0  0  0
   -3.8650    3.3890   -0.2670 C   0  0  0  0  0  0  0  0  0  0  0  0
   -2.8970    4.1770   -0.2700 O   0  0  0  0  0  0  0  0  0  0  0  0
   -5.0780    3.8170   -0.7770 O   0  0  0  0  0  0  0  0  0  0  0  0
   -4.4010    1.9950    2.3250 H   0  0  0  0  0  0  0  0  0  0  0  0
   -5.2240    0.7600    1.3020 H   0  0  0  0  0  0  0  0  0  0  0  0
   -5.6960    2.4950    1.1680 H   0  0  0  0  0  0  0  0  0  0  0  0
   -4.0070    1.3250   -0.5770 H   0  0  0  0  0  0  0  0  0  0  0  0
   -2.0530    2.2310    1.5620 H   0  0  0  0  0  0  0  0  0  0  0  0
  1 10  1  0  0  0  0
  2  1  1  0  0  0  0
  2  3  1  0  0  0  0
  3 13  1  0  0  0  0
  3 15  1  0  0  0  0
  4  2  1  0  0  0  0
  5 18  1  6  0  0  0
  5  4  1  0  0  0  0
  5  7  1  0  0  0  0
  6  5  1  0  0  0  0
  7  8  2  0  0  0  0
  9  1  1  0  0  0  0
 11  1  1  0  0  0  0
 12  2  1  0  0  0  0
 14  3  1  0  0  0  0
 16  4  1  0  0  0  0
 17  4  1  0  0  0  0
 19  6  1  0  0  0  0
 20  6  1  0  0  0  0
 21 29  1  0  0  0  0
 21 31  1  0  0  0  0
 21 22  1  0  0  0  0
 22 23  1  0  0  0  0
 22 32  1  0  0  0  0
 23 35  1  0  0  0  0
 23 33  1  0  0  0  0
 24 25  1  0  0  0  0
 24 22  1  0  0  0  0
 24 36  1  0  0  0  0
 25 38  1  1  0  0  0
 26  7  1  0  0  0  0
 26 25  1  0  0  0  0
 27 25  1  0  0  0  0
 27 42  1  0  0  0  0
 28 27  2  0  0  0  0
 30 21  1  0  0  0  0
 34 23  1  0  0  0  0
 37 24  1  0  0  0  0
 39 26  1  0  0  0  0
 40 46  1  0  0  0  0
 41 49  1  6  0  0  0
 41 42  1  0  0  0  0
 41 40  1  0  0  0  0
 42 50  1  0  0  0  0
 43 41  1  0  0  0  0
 44 43  1  0  0  0  0
 45 43  2  0  0  0  0
 47 40  1  0  0  0  0
 48 40  1  0  0  0  0
M  END
$$$$
