LLE.pdb
 OpenBabel07022418463D

 56 55  0  0  1  0  0  0  0  0999 V2000
    2.4660   -1.3360    4.7700 C   0  0  0  0  0  0  0  0  0  0  0  0
    1.4950   -2.4430    4.5490 C   0  0  0  0  0  0  0  0  0  0  0  0
    0.1220   -1.8750    4.3370 C   0  0  0  0  0  0  0  0  0  0  0  0
    1.8890   -3.4670    3.5510 C   0  0  0  0  0  0  0  0  0  0  0  0
    2.1330   -2.9970    2.1650 C   0  0  2  0  0  0  0  0  0  0  0  0
    3.1980   -2.0390    2.1600 N   0  0  0  0  0  0  0  0  0  0  0  0
    0.9510   -2.5010    1.4380 C   0  0  0  0  0  0  0  0  0  0  0  0
   -0.1100   -3.1620    1.4570 O   0  0  0  0  0  0  0  0  0  0  0  0
    2.2400   -0.9000    5.7880 H   0  0  0  0  0  0  0  0  0  0  0  0
    3.5210   -1.6390    4.8160 H   0  0  0  0  0  0  0  0  0  0  0  0
    2.2690   -0.5020    4.0590 H   0  0  0  0  0  0  0  0  0  0  0  0
    1.4280   -2.9930    5.5420 H   0  0  0  0  0  0  0  0  0  0  0  0
   -0.6520   -2.6670    4.2590 H   0  0  0  0  0  0  0  0  0  0  0  0
    0.1280   -1.1780    3.5030 H   0  0  0  0  0  0  0  0  0  0  0  0
   -0.1420   -1.2950    5.2580 H   0  0  0  0  0  0  0  0  0  0  0  0
    1.1670   -4.3090    3.6200 H   0  0  0  0  0  0  0  0  0  0  0  0
    2.8630   -3.9150    3.9060 H   0  0  0  0  0  0  0  0  0  0  0  0
    2.4900   -3.9060    1.5890 H   0  0  0  0  0  0  0  0  0  0  0  0
    4.0230   -2.5020    2.6320 H   0  0  0  0  0  0  0  0  0  0  0  0
    3.5400   -1.8000    1.2040 H   0  0  0  0  0  0  0  0  0  0  0  0
    1.0740    1.5470    1.6270 C   0  0  0  0  0  0  0  0  0  0  0  0
   -0.1740    1.5820    0.7930 C   0  0  0  0  0  0  0  0  0  0  0  0
   -1.1450    2.5630    1.4820 C   0  0  0  0  0  0  0  0  0  0  0  0
   -0.9110    0.3110    0.6510 C   0  0  0  0  0  0  0  0  0  0  0  0
   -0.2340   -0.8500    0.0110 C   0  0  2  0  0  0  0  0  0  0  0  0
    0.9250   -1.2790    0.6860 N   0  0  0  0  0  0  0  0  0  0  0  0
   -0.0350   -0.6550   -1.4540 C   0  0  0  0  0  0  0  0  0  0  0  0
    1.0620   -0.8290   -2.0370 O   0  0  0  0  0  0  0  0  0  0  0  0
    1.0160    0.6750    2.3060 H   0  0  0  0  0  0  0  0  0  0  0  0
    1.0660    2.4460    2.3070 H   0  0  0  0  0  0  0  0  0  0  0  0
    2.0110    1.5440    1.0240 H   0  0  0  0  0  0  0  0  0  0  0  0
    0.0290    2.0800   -0.2010 H   0  0  0  0  0  0  0  0  0  0  0  0
   -0.9520    2.4670    2.5680 H   0  0  0  0  0  0  0  0  0  0  0  0
   -2.1950    2.2630    1.3190 H   0  0  0  0  0  0  0  0  0  0  0  0
   -0.9400    3.6050    1.1670 H   0  0  0  0  0  0  0  0  0  0  0  0
   -1.8880    0.5380    0.1280 H   0  0  0  0  0  0  0  0  0  0  0  0
   -1.2310    0.0060    1.6950 H   0  0  0  0  0  0  0  0  0  0  0  0
   -0.9990   -1.6960    0.0940 H   0  0  0  0  0  0  0  0  0  0  0  0
    1.8110   -0.7440    0.6490 H   0  0  0  0  0  0  0  0  0  0  0  0
   -1.1300   -0.2470   -2.2740 N   0  0  0  0  0  0  0  0  0  0  0  0
   -1.0470   -0.0310   -3.6840 C   0  0  1  0  0  0  0  0  0  0  0  0
   -1.6590   -1.1720   -4.4520 C   0  0  0  0  0  0  0  0  0  0  0  0
   -3.0950   -1.4390   -4.2000 C   0  0  0  0  0  0  0  0  0  0  0  0
   -3.4470   -1.8000   -2.8120 C   0  0  0  0  0  0  0  0  0  0  0  0
   -4.4400   -1.2470   -2.2820 O   0  0  0  0  0  0  0  0  0  0  0  0
   -1.5190    1.2780   -4.1200 C   0  0  0  0  0  0  0  0  0  0  0  0
   -1.9540    2.1040   -3.2900 O   0  0  0  0  0  0  0  0  0  0  0  0
   -2.7360   -2.7200   -2.0630 O   0  0  0  0  0  0  0  0  0  0  0  0
   -1.4950    1.6260   -5.4510 O   0  0  0  0  0  0  0  0  0  0  0  0
   -2.0330   -0.0920   -1.7960 H   0  0  0  0  0  0  0  0  0  0  0  0
    0.0660   -0.1050   -3.9240 H   0  0  0  0  0  0  0  0  0  0  0  0
   -1.5340   -0.9740   -5.5550 H   0  0  0  0  0  0  0  0  0  0  0  0
   -1.1100   -2.1280   -4.2900 H   0  0  0  0  0  0  0  0  0  0  0  0
   -3.7500   -0.6220   -4.5910 H   0  0  0  0  0  0  0  0  0  0  0  0
   -3.3840   -2.3420   -4.8180 H   0  0  0  0  0  0  0  0  0  0  0  0
   -3.1580   -3.2900   -1.3340 H   0  0  0  0  0  0  0  0  0  0  0  0
  1 10  1  0  0  0  0
  1  9  1  0  0  0  0
  2  1  1  0  0  0  0
  2 12  1  0  0  0  0
  3  2  1  0  0  0  0
  3 15  1  0  0  0  0
  4 16  1  0  0  0  0
  4 17  1  0  0  0  0
  4  2  1  0  0  0  0
  5 18  1  6  0  0  0
  5  4  1  0  0  0  0
  6  5  1  0  0  0  0
  6 19  1  0  0  0  0
  7  8  2  0  0  0  0
  7  5  1  0  0  0  0
 11  1  1  0  0  0  0
 13  3  1  0  0  0  0
 14  3  1  0  0  0  0
 20  6  1  0  0  0  0
 21 29  1  0  0  0  0
 21 30  1  0  0  0  0
 22 23  1  0  0  0  0
 22 21  1  0  0  0  0
 23 33  1  0  0  0  0
 24 22  1  0  0  0  0
 24 37  1  0  0  0  0
 25 38  1  1  0  0  0
 25 24  1  0  0  0  0
 25 26  1  0  0  0  0
 26  7  1  0  0  0  0
 27 25  1  0  0  0  0
 28 27  2  0  0  0  0
 31 21  1  0  0  0  0
 32 22  1  0  0  0  0
 34 23  1  0  0  0  0
 35 23  1  0  0  0  0
 36 24  1  0  0  0  0
 39 26  1  0  0  0  0
 40 50  1  0  0  0  0
 40 27  1  0  0  0  0
 41 51  1  6  0  0  0
 41 40  1  0  0  0  0
 42 53  1  0  0  0  0
 42 43  1  0  0  0  0
 42 41  1  0  0  0  0
 43 44  1  0  0  0  0
 44 45  2  0  0  0  0
 44 48  1  0  0  0  0
 46 41  1  0  0  0  0
 46 47  1  0  0  0  0
 48 56  1  0  0  0  0
 49 46  2  0  0  0  0
 52 42  1  0  0  0  0
 54 43  1  0  0  0  0
 55 43  1  0  0  0  0
M  END
$$$$
