LLK.pdb
 OpenBabel07022418463D

 61 60  0  0  1  0  0  0  0  0999 V2000
    2.8400   -2.8790    3.4810 C   0  0  0  0  0  0  0  0  0  0  0  0
    3.4320   -1.5020    3.2690 C   0  0  0  0  0  0  0  0  0  0  0  0
    3.7920   -1.2870    1.8370 C   0  0  0  0  0  0  0  0  0  0  0  0
    2.5750   -0.4870    3.8950 C   0  0  0  0  0  0  0  0  0  0  0  0
    1.1780   -0.3730    3.4240 C   0  0  2  0  0  0  0  0  0  0  0  0
    0.3750   -1.5410    3.5750 N   0  0  0  0  0  0  0  0  0  0  0  0
    1.1800    0.1790    2.0470 C   0  0  0  0  0  0  0  0  0  0  0  0
    1.8800    1.2160    1.8630 O   0  0  0  0  0  0  0  0  0  0  0  0
    3.6660   -3.6050    3.4340 H   0  0  0  0  0  0  0  0  0  0  0  0
    2.4720   -2.8920    4.5480 H   0  0  0  0  0  0  0  0  0  0  0  0
    2.0250   -3.1020    2.7790 H   0  0  0  0  0  0  0  0  0  0  0  0
    4.4090   -1.5160    3.8360 H   0  0  0  0  0  0  0  0  0  0  0  0
    4.1780   -0.2730    1.6260 H   0  0  0  0  0  0  0  0  0  0  0  0
    4.6570   -1.9790    1.6120 H   0  0  0  0  0  0  0  0  0  0  0  0
    3.0200   -1.5230    1.1130 H   0  0  0  0  0  0  0  0  0  0  0  0
    3.0530    0.5250    3.7830 H   0  0  0  0  0  0  0  0  0  0  0  0
    2.5620   -0.6670    4.9970 H   0  0  0  0  0  0  0  0  0  0  0  0
    0.6850    0.4270    4.0560 H   0  0  0  0  0  0  0  0  0  0  0  0
    0.2230   -1.6930    4.6040 H   0  0  0  0  0  0  0  0  0  0  0  0
   -0.5740   -1.3280    3.1810 H   0  0  0  0  0  0  0  0  0  0  0  0
    1.6960   -1.4960   -3.5340 C   0  0  0  0  0  0  0  0  0  0  0  0
    1.1950   -0.2730   -2.7420 C   0  0  0  0  0  0  0  0  0  0  0  0
    2.2130    0.8070   -2.9360 C   0  0  0  0  0  0  0  0  0  0  0  0
    1.0370   -0.7230   -1.3380 C   0  0  0  0  0  0  0  0  0  0  0  0
    0.5660    0.2890   -0.3530 C   0  0  2  0  0  0  0  0  0  0  0  0
    0.4830   -0.3500    0.9640 N   0  0  0  0  0  0  0  0  0  0  0  0
   -0.7730    0.7830   -0.7500 C   0  0  0  0  0  0  0  0  0  0  0  0
   -0.9630    1.4070   -1.8160 O   0  0  0  0  0  0  0  0  0  0  0  0
    2.7920   -1.4110   -3.7160 H   0  0  0  0  0  0  0  0  0  0  0  0
    1.1200   -1.5760   -4.4670 H   0  0  0  0  0  0  0  0  0  0  0  0
    1.5320   -2.4360   -2.9710 H   0  0  0  0  0  0  0  0  0  0  0  0
    0.2380    0.0530   -3.1930 H   0  0  0  0  0  0  0  0  0  0  0  0
    2.1660    1.4760   -2.0600 H   0  0  0  0  0  0  0  0  0  0  0  0
    3.2170    0.3360   -3.0190 H   0  0  0  0  0  0  0  0  0  0  0  0
    1.9850    1.3460   -3.8650 H   0  0  0  0  0  0  0  0  0  0  0  0
    1.9660   -1.2440   -1.0330 H   0  0  0  0  0  0  0  0  0  0  0  0
    0.2570   -1.5410   -1.3500 H   0  0  0  0  0  0  0  0  0  0  0  0
    1.2270    1.1570   -0.2480 H   0  0  0  0  0  0  0  0  0  0  0  0
   -0.0970   -1.2110    1.1210 H   0  0  0  0  0  0  0  0  0  0  0  0
   -1.9460    0.5680    0.0810 N   0  0  0  0  0  0  0  0  0  0  0  0
   -3.2370    1.0580   -0.3270 C   0  0  1  0  0  0  0  0  0  0  0  0
   -4.3250    0.0740   -0.2100 C   0  0  0  0  0  0  0  0  0  0  0  0
   -4.2310   -1.1900   -0.9830 C   0  0  0  0  0  0  0  0  0  0  0  0
   -3.1040   -2.1010   -0.6430 C   0  0  0  0  0  0  0  0  0  0  0  0
   -3.1950   -2.5440    0.8060 C   0  0  0  0  0  0  0  0  0  0  0  0
   -2.0840   -3.4130    1.0970 N   0  0  0  0  0  0  0  0  0  0  0  0
   -3.5590    2.3390    0.3850 C   0  0  0  0  0  0  0  0  0  0  0  0
   -2.7810    2.8600    1.2040 O   0  0  0  0  0  0  0  0  0  0  0  0
   -4.7630    2.9430    0.1080 O   0  0  0  0  0  0  0  0  0  0  0  0
   -1.7510    0.0570    0.9500 H   0  0  0  0  0  0  0  0  0  0  0  0
   -3.1410    1.3740   -1.4100 H   0  0  0  0  0  0  0  0  0  0  0  0
   -4.5560   -0.1370    0.8870 H   0  0  0  0  0  0  0  0  0  0  0  0
   -5.2660    0.5940   -0.5970 H   0  0  0  0  0  0  0  0  0  0  0  0
   -5.2190   -1.7240   -0.9970 H   0  0  0  0  0  0  0  0  0  0  0  0
   -4.0710   -0.8920   -2.0640 H   0  0  0  0  0  0  0  0  0  0  0  0
   -3.2170   -3.0200   -1.2810 H   0  0  0  0  0  0  0  0  0  0  0  0
   -2.1420   -1.6350   -0.8760 H   0  0  0  0  0  0  0  0  0  0  0  0
   -4.1150   -3.1800    0.9480 H   0  0  0  0  0  0  0  0  0  0  0  0
   -3.2430   -1.6900    1.4840 H   0  0  0  0  0  0  0  0  0  0  0  0
   -2.1500   -4.3090    0.5970 H   0  0  0  0  0  0  0  0  0  0  0  0
   -1.9890   -3.5580    2.1240 H   0  0  0  0  0  0  0  0  0  0  0  0
  1 10  1  0  0  0  0
  2  1  1  0  0  0  0
  2 12  1  0  0  0  0
  2  4  1  0  0  0  0
  3  2  1  0  0  0  0
  4 17  1  0  0  0  0
  5  6  1  0  0  0  0
  5  4  1  0  0  0  0
  5 18  1  1  0  0  0
  6 19  1  0  0  0  0
  7  5  1  0  0  0  0
  8  7  2  0  0  0  0
  9  1  1  0  0  0  0
 11  1  1  0  0  0  0
 13  3  1  0  0  0  0
 14  3  1  0  0  0  0
 15  3  1  0  0  0  0
 16  4  1  0  0  0  0
 20  6  1  0  0  0  0
 21 31  1  0  0  0  0
 21 22  1  0  0  0  0
 22 24  1  0  0  0  0
 23 22  1  0  0  0  0
 23 33  1  0  0  0  0
 24 36  1  0  0  0  0
 24 25  1  0  0  0  0
 25 38  1  1  0  0  0
 25 26  1  0  0  0  0
 26 39  1  0  0  0  0
 26  7  1  0  0  0  0
 27 25  1  0  0  0  0
 27 40  1  0  0  0  0
 28 27  2  0  0  0  0
 29 21  1  0  0  0  0
 30 21  1  0  0  0  0
 32 22  1  0  0  0  0
 34 23  1  0  0  0  0
 35 23  1  0  0  0  0
 37 24  1  0  0  0  0
 40 50  1  0  0  0  0
 41 51  1  6  0  0  0
 41 42  1  0  0  0  0
 41 40  1  0  0  0  0
 41 47  1  0  0  0  0
 42 52  1  0  0  0  0
 43 44  1  0  0  0  0
 43 42  1  0  0  0  0
 44 45  1  0  0  0  0
 45 58  1  0  0  0  0
 45 46  1  0  0  0  0
 45 59  1  0  0  0  0
 46 61  1  0  0  0  0
 47 48  1  0  0  0  0
 49 47  2  0  0  0  0
 53 42  1  0  0  0  0
 54 43  1  0  0  0  0
 55 43  1  0  0  0  0
 56 44  1  0  0  0  0
 57 44  1  0  0  0  0
 60 46  1  0  0  0  0
M  END
$$$$
