LLL.pdb
 OpenBabel07022418463D

 59 58  0  0  1  0  0  0  0  0999 V2000
    3.8380   -4.1650    2.3560 C   0  0  0  0  0  0  0  0  0  0  0  0
    2.8240   -3.2650    3.0890 C   0  0  0  0  0  0  0  0  0  0  0  0
    1.5290   -3.4690    2.3780 C   0  0  0  0  0  0  0  0  0  0  0  0
    3.3910   -1.9010    3.0600 C   0  0  0  0  0  0  0  0  0  0  0  0
    2.6300   -0.8090    3.7000 C   0  0  2  0  0  0  0  0  0  0  0  0
    2.3820   -0.9990    5.1080 N   0  0  0  0  0  0  0  0  0  0  0  0
    1.4140   -0.3580    2.9780 C   0  0  0  0  0  0  0  0  0  0  0  0
    0.3090   -0.1840    3.5980 O   0  0  0  0  0  0  0  0  0  0  0  0
    3.5290   -4.2860    1.2860 H   0  0  0  0  0  0  0  0  0  0  0  0
    4.8420   -3.6990    2.3420 H   0  0  0  0  0  0  0  0  0  0  0  0
    3.9420   -5.1400    2.8500 H   0  0  0  0  0  0  0  0  0  0  0  0
    2.7320   -3.7070    4.1010 H   0  0  0  0  0  0  0  0  0  0  0  0
    1.6890   -3.6370    1.2940 H   0  0  0  0  0  0  0  0  0  0  0  0
    1.0510   -4.4320    2.7340 H   0  0  0  0  0  0  0  0  0  0  0  0
    0.7820   -2.6960    2.6170 H   0  0  0  0  0  0  0  0  0  0  0  0
    3.5380   -1.6220    1.9860 H   0  0  0  0  0  0  0  0  0  0  0  0
    4.4140   -1.9450    3.4880 H   0  0  0  0  0  0  0  0  0  0  0  0
    3.3140    0.1010    3.6610 H   0  0  0  0  0  0  0  0  0  0  0  0
    2.3170   -1.9920    5.3950 H   0  0  0  0  0  0  0  0  0  0  0  0
    3.1020   -0.5510    5.7210 H   0  0  0  0  0  0  0  0  0  0  0  0
    1.2280    3.5320   -0.9330 C   0  0  0  0  0  0  0  0  0  0  0  0
    1.3140    2.0360   -0.5630 C   0  0  0  0  0  0  0  0  0  0  0  0
    0.9420    1.3340   -1.8740 C   0  0  0  0  0  0  0  0  0  0  0  0
    0.2550    1.7430    0.4370 C   0  0  0  0  0  0  0  0  0  0  0  0
    0.1710    0.3460    0.9440 C   0  0  2  0  0  0  0  0  0  0  0  0
    1.3890   -0.0950    1.5910 N   0  0  0  0  0  0  0  0  0  0  0  0
   -0.3100   -0.6580   -0.0350 C   0  0  0  0  0  0  0  0  0  0  0  0
    0.3880   -1.7240   -0.1750 O   0  0  0  0  0  0  0  0  0  0  0  0
    0.3950    3.6970   -1.6510 H   0  0  0  0  0  0  0  0  0  0  0  0
    0.9680    4.0860   -0.0170 H   0  0  0  0  0  0  0  0  0  0  0  0
    2.1690    3.8960   -1.3470 H   0  0  0  0  0  0  0  0  0  0  0  0
    2.3190    1.7440   -0.2690 H   0  0  0  0  0  0  0  0  0  0  0  0
    1.1770    0.2750   -1.8320 H   0  0  0  0  0  0  0  0  0  0  0  0
    1.5410    1.7840   -2.7200 H   0  0  0  0  0  0  0  0  0  0  0  0
   -0.1130    1.5510   -2.0820 H   0  0  0  0  0  0  0  0  0  0  0  0
    0.4000    2.4050    1.3380 H   0  0  0  0  0  0  0  0  0  0  0  0
   -0.7680    2.0190    0.0700 H   0  0  0  0  0  0  0  0  0  0  0  0
   -0.6530    0.3910    1.7370 H   0  0  0  0  0  0  0  0  0  0  0  0
    2.2540   -0.2170    1.0220 H   0  0  0  0  0  0  0  0  0  0  0  0
   -4.3010   -0.5140    0.1280 C   0  0  0  0  0  0  0  0  0  0  0  0
   -4.3740   -1.5340   -0.9670 C   0  0  0  0  0  0  0  0  0  0  0  0
   -5.0430   -0.8760   -2.1540 C   0  0  0  0  0  0  0  0  0  0  0  0
   -3.1320   -2.2500   -1.2910 C   0  0  0  0  0  0  0  0  0  0  0  0
   -1.9540   -1.4830   -1.7570 C   0  0  2  0  0  0  0  0  0  0  0  0
   -1.4880   -0.5150   -0.8190 N   0  0  0  0  0  0  0  0  0  0  0  0
   -2.1260   -0.9900   -3.1370 C   0  0  0  0  0  0  0  0  0  0  0  0
   -1.9220    0.1460   -3.5660 O   0  0  0  0  0  0  0  0  0  0  0  0
   -2.5780   -1.9440   -4.0680 O   0  0  0  0  0  0  0  0  0  0  0  0
   -4.3510    0.4910   -0.2970 H   0  0  0  0  0  0  0  0  0  0  0  0
   -3.4800   -0.6860    0.8540 H   0  0  0  0  0  0  0  0  0  0  0  0
   -5.2340   -0.5910    0.7710 H   0  0  0  0  0  0  0  0  0  0  0  0
   -5.1220   -2.3190   -0.6320 H   0  0  0  0  0  0  0  0  0  0  0  0
   -6.0710   -0.6050   -1.8240 H   0  0  0  0  0  0  0  0  0  0  0  0
   -5.1440   -1.5320   -3.0180 H   0  0  0  0  0  0  0  0  0  0  0  0
   -4.5190    0.0700   -2.3510 H   0  0  0  0  0  0  0  0  0  0  0  0
   -2.8360   -2.8410   -0.3750 H   0  0  0  0  0  0  0  0  0  0  0  0
   -3.3710   -3.0530   -2.0430 H   0  0  0  0  0  0  0  0  0  0  0  0
   -1.1140   -2.2530   -1.8210 H   0  0  0  0  0  0  0  0  0  0  0  0
   -2.0260    0.3650   -0.6930 H   0  0  0  0  0  0  0  0  0  0  0  0
  1 11  1  0  0  0  0
  1  2  1  0  0  0  0
  2 12  1  0  0  0  0
  3 15  1  0  0  0  0
  3 14  1  0  0  0  0
  3  2  1  0  0  0  0
  4  2  1  0  0  0  0
  4 17  1  0  0  0  0
  4  5  1  0  0  0  0
  5 18  1  6  0  0  0
  5  6  1  0  0  0  0
  6 19  1  0  0  0  0
  6 20  1  0  0  0  0
  7  8  2  0  0  0  0
  7  5  1  0  0  0  0
  9  1  1  0  0  0  0
 10  1  1  0  0  0  0
 13  3  1  0  0  0  0
 16  4  1  0  0  0  0
 21 22  1  0  0  0  0
 21 30  1  0  0  0  0
 22 32  1  0  0  0  0
 22 24  1  0  0  0  0
 23 33  1  0  0  0  0
 23 22  1  0  0  0  0
 24 25  1  0  0  0  0
 24 36  1  0  0  0  0
 25 26  1  0  0  0  0
 25 38  1  1  0  0  0
 26  7  1  0  0  0  0
 27 25  1  0  0  0  0
 28 27  2  0  0  0  0
 29 21  1  0  0  0  0
 31 21  1  0  0  0  0
 34 23  1  0  0  0  0
 35 23  1  0  0  0  0
 37 24  1  0  0  0  0
 39 26  1  0  0  0  0
 40 51  1  0  0  0  0
 40 50  1  0  0  0  0
 41 52  1  0  0  0  0
 41 40  1  0  0  0  0
 42 53  1  0  0  0  0
 42 41  1  0  0  0  0
 43 41  1  0  0  0  0
 43 56  1  0  0  0  0
 44 58  1  6  0  0  0
 44 43  1  0  0  0  0
 44 45  1  0  0  0  0
 45 59  1  0  0  0  0
 45 27  1  0  0  0  0
 46 44  1  0  0  0  0
 47 46  1  0  0  0  0
 48 46  2  0  0  0  0
 49 40  1  0  0  0  0
 54 42  1  0  0  0  0
 55 42  1  0  0  0  0
 57 43  1  0  0  0  0
M  END
$$$$
