LLQ.pdb
 OpenBabel07022418463D

 57 56  0  0  1  0  0  0  0  0999 V2000
    3.2430   -2.3300    4.4220 C   0  0  0  0  0  0  0  0  0  0  0  0
    3.2270   -2.2020    2.9010 C   0  0  0  0  0  0  0  0  0  0  0  0
    1.9550   -2.7720    2.3950 C   0  0  0  0  0  0  0  0  0  0  0  0
    3.6110   -0.8550    2.4350 C   0  0  0  0  0  0  0  0  0  0  0  0
    2.7770    0.2840    2.8840 C   0  0  2  0  0  0  0  0  0  0  0  0
    2.7070    0.4650    4.3010 N   0  0  0  0  0  0  0  0  0  0  0  0
    1.4400    0.3330    2.2290 C   0  0  0  0  0  0  0  0  0  0  0  0
    0.3690    0.4910    2.8730 O   0  0  0  0  0  0  0  0  0  0  0  0
    3.2880   -3.3930    4.7330 H   0  0  0  0  0  0  0  0  0  0  0  0
    4.1750   -1.8610    4.8280 H   0  0  0  0  0  0  0  0  0  0  0  0
    2.3300   -1.9000    4.8540 H   0  0  0  0  0  0  0  0  0  0  0  0
    4.0500   -2.9040    2.5630 H   0  0  0  0  0  0  0  0  0  0  0  0
    2.1230   -3.3170    1.4210 H   0  0  0  0  0  0  0  0  0  0  0  0
    1.6720   -3.6110    3.1010 H   0  0  0  0  0  0  0  0  0  0  0  0
    1.0930   -2.1110    2.3780 H   0  0  0  0  0  0  0  0  0  0  0  0
    3.6780   -0.8280    1.3310 H   0  0  0  0  0  0  0  0  0  0  0  0
    4.6600   -0.6640    2.7920 H   0  0  0  0  0  0  0  0  0  0  0  0
    3.2990    1.2160    2.4960 H   0  0  0  0  0  0  0  0  0  0  0  0
    3.5310    0.8490    4.7460 H   0  0  0  0  0  0  0  0  0  0  0  0
    1.7920    0.7920    4.6540 H   0  0  0  0  0  0  0  0  0  0  0  0
    1.3260    3.0360    0.3160 C   0  0  0  0  0  0  0  0  0  0  0  0
   -0.0310    2.7430   -0.2640 C   0  0  0  0  0  0  0  0  0  0  0  0
   -0.2310    3.7280   -1.4260 C   0  0  0  0  0  0  0  0  0  0  0  0
   -0.1910    1.3660   -0.7910 C   0  0  0  0  0  0  0  0  0  0  0  0
   -0.0110    0.2530    0.2060 C   0  0  2  0  0  0  0  0  0  0  0  0
    1.2890    0.2020    0.8220 N   0  0  0  0  0  0  0  0  0  0  0  0
   -0.1830   -1.0680   -0.5060 C   0  0  0  0  0  0  0  0  0  0  0  0
    0.7040   -1.9580   -0.4960 O   0  0  0  0  0  0  0  0  0  0  0  0
    1.2890    3.0780    1.4330 H   0  0  0  0  0  0  0  0  0  0  0  0
    1.6570    4.0900    0.0410 H   0  0  0  0  0  0  0  0  0  0  0  0
    2.0950    2.3880   -0.0980 H   0  0  0  0  0  0  0  0  0  0  0  0
   -0.8310    2.9890    0.4740 H   0  0  0  0  0  0  0  0  0  0  0  0
    0.7390    3.9350   -1.9040 H   0  0  0  0  0  0  0  0  0  0  0  0
   -0.6370    4.6850   -1.0540 H   0  0  0  0  0  0  0  0  0  0  0  0
   -0.8990    3.2640   -2.1950 H   0  0  0  0  0  0  0  0  0  0  0  0
   -1.2070    1.3010   -1.2830 H   0  0  0  0  0  0  0  0  0  0  0  0
    0.5090    1.2250   -1.6710 H   0  0  0  0  0  0  0  0  0  0  0  0
   -0.8240    0.3880    0.9550 H   0  0  0  0  0  0  0  0  0  0  0  0
    2.1230    0.0580    0.2210 H   0  0  0  0  0  0  0  0  0  0  0  0
   -6.4280   -2.6910   -0.7930 N   0  0  0  0  0  0  0  0  0  0  0  0
   -5.1280   -3.2690   -0.8060 C   0  0  0  0  0  0  0  0  0  0  0  0
   -4.9280   -4.4040   -0.3030 O   0  0  0  0  0  0  0  0  0  0  0  0
   -3.9860   -2.5450   -1.4120 C   0  0  0  0  0  0  0  0  0  0  0  0
   -2.7280   -3.3600   -1.3020 C   0  0  0  0  0  0  0  0  0  0  0  0
   -1.5680   -2.6180   -1.9210 C   0  0  2  0  0  0  0  0  0  0  0  0
   -1.3800   -1.3630   -1.2310 N   0  0  0  0  0  0  0  0  0  0  0  0
   -1.7490   -2.4270   -3.3840 C   0  0  0  0  0  0  0  0  0  0  0  0
   -1.7310   -1.2810   -3.9160 O   0  0  0  0  0  0  0  0  0  0  0  0
   -1.9450   -3.5040   -4.2350 O   0  0  0  0  0  0  0  0  0  0  0  0
   -6.5370   -1.6590   -0.6850 H   0  0  0  0  0  0  0  0  0  0  0  0
   -7.2800   -3.2500   -0.8870 H   0  0  0  0  0  0  0  0  0  0  0  0
   -4.1620   -2.3440   -2.4880 H   0  0  0  0  0  0  0  0  0  0  0  0
   -3.8350   -1.6100   -0.8310 H   0  0  0  0  0  0  0  0  0  0  0  0
   -2.4980   -3.4690   -0.2200 H   0  0  0  0  0  0  0  0  0  0  0  0
   -2.8340   -4.3780   -1.7050 H   0  0  0  0  0  0  0  0  0  0  0  0
   -0.6680   -3.2270   -1.7740 H   0  0  0  0  0  0  0  0  0  0  0  0
   -2.1080   -0.5980   -1.2240 H   0  0  0  0  0  0  0  0  0  0  0  0
  1  9  1  0  0  0  0
  1 10  1  0  0  0  0
  1 11  1  0  0  0  0
  2  1  1  0  0  0  0
  3  2  1  0  0  0  0
  3 14  1  0  0  0  0
  4 17  1  0  0  0  0
  4  5  1  0  0  0  0
  4  2  1  0  0  0  0
  5 18  1  6  0  0  0
  5  6  1  0  0  0  0
  6 20  1  0  0  0  0
  6 19  1  0  0  0  0
  7  8  2  0  0  0  0
  7  5  1  0  0  0  0
 12  2  1  0  0  0  0
 13  3  1  0  0  0  0
 15  3  1  0  0  0  0
 16  4  1  0  0  0  0
 21 29  1  0  0  0  0
 22 21  1  0  0  0  0
 22 32  1  0  0  0  0
 23 34  1  0  0  0  0
 23 22  1  0  0  0  0
 24 22  1  0  0  0  0
 24 25  1  0  0  0  0
 25 26  1  0  0  0  0
 25 38  1  1  0  0  0
 26  7  1  0  0  0  0
 27 28  2  0  0  0  0
 27 25  1  0  0  0  0
 30 21  1  0  0  0  0
 31 21  1  0  0  0  0
 33 23  1  0  0  0  0
 35 23  1  0  0  0  0
 36 24  1  0  0  0  0
 37 24  1  0  0  0  0
 39 26  1  0  0  0  0
 40 50  1  0  0  0  0
 41 40  1  0  0  0  0
 41 42  2  0  0  0  0
 43 44  1  0  0  0  0
 43 53  1  0  0  0  0
 43 41  1  0  0  0  0
 44 54  1  0  0  0  0
 45 56  1  1  0  0  0
 45 44  1  0  0  0  0
 45 46  1  0  0  0  0
 46 57  1  0  0  0  0
 46 27  1  0  0  0  0
 47 45  1  0  0  0  0
 48 47  1  0  0  0  0
 49 47  2  0  0  0  0
 51 40  1  0  0  0  0
 52 43  1  0  0  0  0
 55 44  1  0  0  0  0
M  END
$$$$
