LLS.pdb
 OpenBabel07022418463D

 51 50  0  0  1  0  0  0  0  0999 V2000
    0.0390   -4.8110    0.4050 C   0  0  0  0  0  0  0  0  0  0  0  0
    0.8960   -3.8460    1.2260 C   0  0  0  0  0  0  0  0  0  0  0  0
    0.0110   -3.2020    2.2180 C   0  0  0  0  0  0  0  0  0  0  0  0
    1.6100   -2.9720    0.2650 C   0  0  0  0  0  0  0  0  0  0  0  0
    2.5050   -1.9420    0.8800 C   0  0  2  0  0  0  0  0  0  0  0  0
    3.5410   -2.4930    1.6990 N   0  0  0  0  0  0  0  0  0  0  0  0
    1.7000   -0.8850    1.5220 C   0  0  0  0  0  0  0  0  0  0  0  0
    1.7790   -0.5730    2.7260 O   0  0  0  0  0  0  0  0  0  0  0  0
   -0.4490   -5.5620    1.0470 H   0  0  0  0  0  0  0  0  0  0  0  0
   -0.7280   -4.1940   -0.1080 H   0  0  0  0  0  0  0  0  0  0  0  0
    0.6810   -5.2460   -0.3860 H   0  0  0  0  0  0  0  0  0  0  0  0
    1.6230   -4.5350    1.7550 H   0  0  0  0  0  0  0  0  0  0  0  0
   -0.7920   -3.9480    2.4990 H   0  0  0  0  0  0  0  0  0  0  0  0
   -0.5280   -2.3200    1.8680 H   0  0  0  0  0  0  0  0  0  0  0  0
    0.4930   -2.9590    3.1860 H   0  0  0  0  0  0  0  0  0  0  0  0
    0.8880   -2.4960   -0.4240 H   0  0  0  0  0  0  0  0  0  0  0  0
    2.2290   -3.6500   -0.3890 H   0  0  0  0  0  0  0  0  0  0  0  0
    3.0300   -1.4350    0.0150 H   0  0  0  0  0  0  0  0  0  0  0  0
    4.0110   -1.6770    2.1870 H   0  0  0  0  0  0  0  0  0  0  0  0
    4.2500   -2.9380    1.1110 H   0  0  0  0  0  0  0  0  0  0  0  0
    2.0760    2.8920    2.0220 C   0  0  0  0  0  0  0  0  0  0  0  0
    1.6700    2.6190    0.6130 C   0  0  0  0  0  0  0  0  0  0  0  0
    1.9490    3.8740   -0.2050 C   0  0  0  0  0  0  0  0  0  0  0  0
    0.2550    2.1860    0.4310 C   0  0  0  0  0  0  0  0  0  0  0  0
   -0.0770    0.8820    1.1730 C   0  0  2  0  0  0  0  0  0  0  0  0
    0.7650   -0.1710    0.6860 N   0  0  0  0  0  0  0  0  0  0  0  0
   -1.4890    0.5730    0.8320 C   0  0  0  0  0  0  0  0  0  0  0  0
   -2.4350    1.3610    1.1770 O   0  0  0  0  0  0  0  0  0  0  0  0
    3.1890    2.7550    2.0940 H   0  0  0  0  0  0  0  0  0  0  0  0
    1.6270    2.1560    2.7070 H   0  0  0  0  0  0  0  0  0  0  0  0
    1.7950    3.9230    2.3520 H   0  0  0  0  0  0  0  0  0  0  0  0
    2.3820    1.8500    0.2050 H   0  0  0  0  0  0  0  0  0  0  0  0
    1.5920    4.7820    0.3160 H   0  0  0  0  0  0  0  0  0  0  0  0
    3.0480    3.9520   -0.3740 H   0  0  0  0  0  0  0  0  0  0  0  0
    1.4240    3.7630   -1.1630 H   0  0  0  0  0  0  0  0  0  0  0  0
   -0.4040    2.9930    0.8360 H   0  0  0  0  0  0  0  0  0  0  0  0
    0.0060    2.1020   -0.6420 H   0  0  0  0  0  0  0  0  0  0  0  0
    0.0060    1.0540    2.2520 H   0  0  0  0  0  0  0  0  0  0  0  0
    0.6910   -0.4250   -0.3230 H   0  0  0  0  0  0  0  0  0  0  0  0
   -3.1490    0.4380   -2.2250 O   0  0  0  0  0  0  0  0  0  0  0  0
   -3.4990   -0.8080   -1.6820 C   0  0  0  0  0  0  0  0  0  0  0  0
   -3.2430   -0.8280   -0.1860 C   0  0  2  0  0  0  0  0  0  0  0  0
   -1.8590   -0.5900    0.1170 N   0  0  0  0  0  0  0  0  0  0  0  0
   -3.7630   -2.1160    0.3190 C   0  0  0  0  0  0  0  0  0  0  0  0
   -3.0320   -2.9020    0.9470 O   0  0  0  0  0  0  0  0  0  0  0  0
   -5.0860   -2.4200    0.0730 O   0  0  0  0  0  0  0  0  0  0  0  0
   -3.7840    1.0920   -1.8040 H   0  0  0  0  0  0  0  0  0  0  0  0
   -3.0000   -1.6220   -2.2170 H   0  0  0  0  0  0  0  0  0  0  0  0
   -4.5950   -0.9310   -1.8250 H   0  0  0  0  0  0  0  0  0  0  0  0
   -3.8860   -0.0050    0.2270 H   0  0  0  0  0  0  0  0  0  0  0  0
   -1.1540   -1.2790   -0.1960 H   0  0  0  0  0  0  0  0  0  0  0  0
  1  9  1  0  0  0  0
  1  2  1  0  0  0  0
  2 12  1  0  0  0  0
  2  3  1  0  0  0  0
  3 13  1  0  0  0  0
  3 15  1  0  0  0  0
  4  5  1  0  0  0  0
  4  2  1  0  0  0  0
  5 18  1  6  0  0  0
  5  7  1  0  0  0  0
  5  6  1  0  0  0  0
  6 19  1  0  0  0  0
  7  8  2  0  0  0  0
 10  1  1  0  0  0  0
 11  1  1  0  0  0  0
 14  3  1  0  0  0  0
 16  4  1  0  0  0  0
 17  4  1  0  0  0  0
 20  6  1  0  0  0  0
 21 29  1  0  0  0  0
 21 31  1  0  0  0  0
 21 30  1  0  0  0  0
 22 21  1  0  0  0  0
 23 33  1  0  0  0  0
 23 22  1  0  0  0  0
 24 22  1  0  0  0  0
 24 36  1  0  0  0  0
 24 25  1  0  0  0  0
 25 38  1  1  0  0  0
 26 25  1  0  0  0  0
 26  7  1  0  0  0  0
 27 25  1  0  0  0  0
 27 28  2  0  0  0  0
 32 22  1  0  0  0  0
 34 23  1  0  0  0  0
 35 23  1  0  0  0  0
 37 24  1  0  0  0  0
 39 26  1  0  0  0  0
 40 47  1  0  0  0  0
 40 41  1  0  0  0  0
 41 42  1  0  0  0  0
 42 43  1  0  0  0  0
 42 50  1  1  0  0  0
 42 44  1  0  0  0  0
 43 27  1  0  0  0  0
 44 45  1  0  0  0  0
 46 44  2  0  0  0  0
 48 41  1  0  0  0  0
 49 41  1  0  0  0  0
 51 43  1  0  0  0  0
M  END
$$$$
