LLV.pdb
 OpenBabel07022418463D

 56 55  0  0  1  0  0  0  0  0999 V2000
    1.9450   -1.2070    5.8410 C   0  0  0  0  0  0  0  0  0  0  0  0
    2.3370   -1.7000    4.4860 C   0  0  0  0  0  0  0  0  0  0  0  0
    2.3530   -3.2140    4.5170 C   0  0  0  0  0  0  0  0  0  0  0  0
    1.3980   -1.2550    3.3890 C   0  0  0  0  0  0  0  0  0  0  0  0
    1.3320    0.2530    3.2840 C   0  0  2  0  0  0  0  0  0  0  0  0
    0.8690    0.8540    4.4960 N   0  0  0  0  0  0  0  0  0  0  0  0
    0.4440    0.5880    2.1360 C   0  0  0  0  0  0  0  0  0  0  0  0
   -0.5550    1.3200    2.3490 O   0  0  0  0  0  0  0  0  0  0  0  0
    2.3200   -1.9320    6.5950 H   0  0  0  0  0  0  0  0  0  0  0  0
    0.8440   -1.1970    5.9180 H   0  0  0  0  0  0  0  0  0  0  0  0
    2.3210   -0.1900    6.0810 H   0  0  0  0  0  0  0  0  0  0  0  0
    3.3800   -1.3820    4.2310 H   0  0  0  0  0  0  0  0  0  0  0  0
    2.2900   -3.6330    3.4880 H   0  0  0  0  0  0  0  0  0  0  0  0
    1.5110   -3.5950    5.1220 H   0  0  0  0  0  0  0  0  0  0  0  0
    3.2920   -3.6020    4.9850 H   0  0  0  0  0  0  0  0  0  0  0  0
    0.3870   -1.6830    3.5990 H   0  0  0  0  0  0  0  0  0  0  0  0
    1.7490   -1.6920    2.4480 H   0  0  0  0  0  0  0  0  0  0  0  0
    2.3730    0.6080    3.1000 H   0  0  0  0  0  0  0  0  0  0  0  0
   -0.1530    0.9840    4.5140 H   0  0  0  0  0  0  0  0  0  0  0  0
    1.2980    1.8160    4.5780 H   0  0  0  0  0  0  0  0  0  0  0  0
    1.4940   -0.5670   -2.7810 C   0  0  0  0  0  0  0  0  0  0  0  0
    1.6550    0.7220   -2.0540 C   0  0  0  0  0  0  0  0  0  0  0  0
    2.9000    0.7450   -1.1740 C   0  0  0  0  0  0  0  0  0  0  0  0
    0.4590    1.2500   -1.3520 C   0  0  0  0  0  0  0  0  0  0  0  0
   -0.1580    0.4270   -0.2850 C   0  0  2  0  0  0  0  0  0  0  0  0
    0.6890    0.1090    0.8180 N   0  0  0  0  0  0  0  0  0  0  0  0
   -0.8850   -0.7750   -0.7250 C   0  0  0  0  0  0  0  0  0  0  0  0
   -0.6790   -1.8790   -0.1220 O   0  0  0  0  0  0  0  0  0  0  0  0
    0.8900   -1.3370   -2.3130 H   0  0  0  0  0  0  0  0  0  0  0  0
    2.5270   -0.9220   -3.0470 H   0  0  0  0  0  0  0  0  0  0  0  0
    1.0240   -0.3670   -3.7890 H   0  0  0  0  0  0  0  0  0  0  0  0
    1.8800    1.4940   -2.8570 H   0  0  0  0  0  0  0  0  0  0  0  0
    3.7720    1.2130   -1.6790 H   0  0  0  0  0  0  0  0  0  0  0  0
    3.2410   -0.3060   -0.9440 H   0  0  0  0  0  0  0  0  0  0  0  0
    2.7400    1.3350   -0.2450 H   0  0  0  0  0  0  0  0  0  0  0  0
    0.7250    2.2580   -0.9670 H   0  0  0  0  0  0  0  0  0  0  0  0
   -0.3210    1.4580   -2.1430 H   0  0  0  0  0  0  0  0  0  0  0  0
   -0.9840    1.0860    0.1400 H   0  0  0  0  0  0  0  0  0  0  0  0
    1.5510   -0.4970    0.7470 H   0  0  0  0  0  0  0  0  0  0  0  0
   -4.2220   -1.6330   -0.4580 C   0  0  0  0  0  0  0  0  0  0  0  0
   -4.0000   -1.8580   -1.9360 C   0  0  0  0  0  0  0  0  0  0  0  0
   -4.6100   -0.7890   -2.7860 C   0  0  0  0  0  0  0  0  0  0  0  0
   -2.5080   -1.9970   -2.1900 C   0  0  2  0  0  0  0  0  0  0  0  0
   -1.8070   -0.8020   -1.7790 N   0  0  0  0  0  0  0  0  0  0  0  0
   -2.2270   -2.3260   -3.5900 C   0  0  0  0  0  0  0  0  0  0  0  0
   -2.7520   -3.3360   -4.1090 O   0  0  0  0  0  0  0  0  0  0  0  0
   -1.3930   -1.5390   -4.3440 O   0  0  0  0  0  0  0  0  0  0  0  0
   -4.0080   -0.5740   -0.1710 H   0  0  0  0  0  0  0  0  0  0  0  0
   -5.3130   -1.7780   -0.2680 H   0  0  0  0  0  0  0  0  0  0  0  0
   -3.6060   -2.3470    0.0960 H   0  0  0  0  0  0  0  0  0  0  0  0
   -4.4680   -2.8240   -2.2160 H   0  0  0  0  0  0  0  0  0  0  0  0
   -4.3500   -1.0090   -3.8400 H   0  0  0  0  0  0  0  0  0  0  0  0
   -5.7120   -0.8670   -2.7060 H   0  0  0  0  0  0  0  0  0  0  0  0
   -4.2550    0.2320   -2.4940 H   0  0  0  0  0  0  0  0  0  0  0  0
   -2.1440   -2.8270   -1.5190 H   0  0  0  0  0  0  0  0  0  0  0  0
   -1.9910    0.0820   -2.2860 H   0  0  0  0  0  0  0  0  0  0  0  0
  1 10  1  0  0  0  0
  1 11  1  0  0  0  0
  1  9  1  0  0  0  0
  2  3  1  0  0  0  0
  2  1  1  0  0  0  0
  3 15  1  0  0  0  0
  3 14  1  0  0  0  0
  4 16  1  0  0  0  0
  4  2  1  0  0  0  0
  5 18  1  6  0  0  0
  5  4  1  0  0  0  0
  5  6  1  0  0  0  0
  6 19  1  0  0  0  0
  6 20  1  0  0  0  0
  7  8  2  0  0  0  0
  7  5  1  0  0  0  0
 12  2  1  0  0  0  0
 13  3  1  0  0  0  0
 17  4  1  0  0  0  0
 21 29  1  0  0  0  0
 21 22  1  0  0  0  0
 22 24  1  0  0  0  0
 22 23  1  0  0  0  0
 23 34  1  0  0  0  0
 23 35  1  0  0  0  0
 24 36  1  0  0  0  0
 24 25  1  0  0  0  0
 25 38  1  1  0  0  0
 25 26  1  0  0  0  0
 26  7  1  0  0  0  0
 27 25  1  0  0  0  0
 27 28  2  0  0  0  0
 30 21  1  0  0  0  0
 31 21  1  0  0  0  0
 32 22  1  0  0  0  0
 33 23  1  0  0  0  0
 37 24  1  0  0  0  0
 39 26  1  0  0  0  0
 40 49  1  0  0  0  0
 40 48  1  0  0  0  0
 40 50  1  0  0  0  0
 41 40  1  0  0  0  0
 42 53  1  0  0  0  0
 42 54  1  0  0  0  0
 42 41  1  0  0  0  0
 43 41  1  0  0  0  0
 43 44  1  0  0  0  0
 43 55  1  1  0  0  0
 44 27  1  0  0  0  0
 45 43  1  0  0  0  0
 46 45  1  0  0  0  0
 47 45  2  0  0  0  0
 51 41  1  0  0  0  0
 52 42  1  0  0  0  0
 56 44  1  0  0  0  0
M  END
$$$$
