LLY.pdb
 OpenBabel07022418463D

 61 61  0  0  1  0  0  0  0  0999 V2000
    1.2260   -0.9810    4.7030 C   0  0  0  0  0  0  0  0  0  0  0  0
    1.9930   -0.6910    3.3990 C   0  0  0  0  0  0  0  0  0  0  0  0
    2.5780   -2.0080    2.9500 C   0  0  0  0  0  0  0  0  0  0  0  0
    2.9970    0.3810    3.6010 C   0  0  0  0  0  0  0  0  0  0  0  0
    3.7410    0.6710    2.3240 C   0  0  2  0  0  0  0  0  0  0  0  0
    4.7370    1.7430    2.6090 N   0  0  0  0  0  0  0  0  0  0  0  0
    2.7830    1.1860    1.3100 C   0  0  0  0  0  0  0  0  0  0  0  0
    2.6670    2.4570    1.2050 O   0  0  0  0  0  0  0  0  0  0  0  0
    1.9200   -1.1000    5.5520 H   0  0  0  0  0  0  0  0  0  0  0  0
    0.4590   -0.2030    4.8540 H   0  0  0  0  0  0  0  0  0  0  0  0
    0.7410   -1.9770    4.5350 H   0  0  0  0  0  0  0  0  0  0  0  0
    1.2380   -0.3440    2.6930 H   0  0  0  0  0  0  0  0  0  0  0  0
    3.0120   -2.5900    3.7900 H   0  0  0  0  0  0  0  0  0  0  0  0
    3.2890   -1.9330    2.1190 H   0  0  0  0  0  0  0  0  0  0  0  0
    1.7180   -2.6190    2.5690 H   0  0  0  0  0  0  0  0  0  0  0  0
    3.6810    0.1490    4.4450 H   0  0  0  0  0  0  0  0  0  0  0  0
    2.4190    1.3210    3.8460 H   0  0  0  0  0  0  0  0  0  0  0  0
    4.3240   -0.1920    1.9970 H   0  0  0  0  0  0  0  0  0  0  0  0
    5.6420    1.2950    2.8870 H   0  0  0  0  0  0  0  0  0  0  0  0
    4.9020    2.1810    1.6690 H   0  0  0  0  0  0  0  0  0  0  0  0
    0.8290    3.0100   -2.8510 C   0  0  0  0  0  0  0  0  0  0  0  0
    1.1040    1.5140   -3.0050 C   0  0  0  0  0  0  0  0  0  0  0  0
   -0.0820    0.8470   -3.5680 C   0  0  0  0  0  0  0  0  0  0  0  0
    1.7740    0.9320   -1.8340 C   0  0  0  0  0  0  0  0  0  0  0  0
    1.1030    1.0370   -0.4940 C   0  0  2  0  0  0  0  0  0  0  0  0
    2.0080    0.3640    0.4630 N   0  0  0  0  0  0  0  0  0  0  0  0
   -0.2390    0.4790   -0.4030 C   0  0  0  0  0  0  0  0  0  0  0  0
   -1.2320    1.0380   -0.9810 O   0  0  0  0  0  0  0  0  0  0  0  0
   -0.1930    3.1550   -2.3960 H   0  0  0  0  0  0  0  0  0  0  0  0
    1.5610    3.4250   -2.1390 H   0  0  0  0  0  0  0  0  0  0  0  0
    0.8670    3.5140   -3.8240 H   0  0  0  0  0  0  0  0  0  0  0  0
    1.8950    1.5080   -3.8560 H   0  0  0  0  0  0  0  0  0  0  0  0
   -0.9940    1.4860   -3.6080 H   0  0  0  0  0  0  0  0  0  0  0  0
   -0.2690   -0.1770   -3.1700 H   0  0  0  0  0  0  0  0  0  0  0  0
    0.1120    0.6410   -4.6730 H   0  0  0  0  0  0  0  0  0  0  0  0
    2.1060   -0.1290   -2.0100 H   0  0  0  0  0  0  0  0  0  0  0  0
    2.7590    1.4790   -1.7080 H   0  0  0  0  0  0  0  0  0  0  0  0
    1.0840    2.1020   -0.2250 H   0  0  0  0  0  0  0  0  0  0  0  0
    2.0670   -0.6760    0.4890 H   0  0  0  0  0  0  0  0  0  0  0  0
   -7.1200   -4.9220   -0.5700 O   0  0  0  0  0  0  0  0  0  0  0  0
   -5.8520   -4.3450   -0.4950 C   0  0  0  0  0  0  0  0  0  0  0  0
   -5.4110   -3.4830   -1.4680 C   0  0  0  0  0  0  0  0  0  0  0  0
   -4.1730   -2.8880   -1.4410 C   0  0  0  0  0  0  0  0  0  0  0  0
   -3.2990   -3.1500   -0.3910 C   0  0  0  0  0  0  0  0  0  0  0  0
   -1.9670   -2.5280   -0.3450 C   0  0  0  0  0  0  0  0  0  0  0  0
   -1.9460   -1.1850    0.3490 C   0  0  2  0  0  0  0  0  0  0  0  0
   -0.5600   -0.7040    0.3140 N   0  0  0  0  0  0  0  0  0  0  0  0
   -2.4390   -1.2640    1.7310 C   0  0  0  0  0  0  0  0  0  0  0  0
   -1.6610   -0.9490    2.6690 O   0  0  0  0  0  0  0  0  0  0  0  0
   -3.7510   -4.0220    0.5900 C   0  0  0  0  0  0  0  0  0  0  0  0
   -4.9910   -4.6080    0.5480 C   0  0  0  0  0  0  0  0  0  0  0  0
   -3.7080   -1.6630    2.0620 O   0  0  0  0  0  0  0  0  0  0  0  0
   -7.7110   -4.8600    0.2550 H   0  0  0  0  0  0  0  0  0  0  0  0
   -6.0960   -3.2770   -2.2910 H   0  0  0  0  0  0  0  0  0  0  0  0
   -3.8660   -2.2080   -2.2390 H   0  0  0  0  0  0  0  0  0  0  0  0
   -1.3050   -3.2340    0.2260 H   0  0  0  0  0  0  0  0  0  0  0  0
   -1.5520   -2.4050   -1.3710 H   0  0  0  0  0  0  0  0  0  0  0  0
   -2.6040   -0.5140   -0.2310 H   0  0  0  0  0  0  0  0  0  0  0  0
    0.1670   -1.2530    0.8170 H   0  0  0  0  0  0  0  0  0  0  0  0
   -3.0730   -4.2410    1.4200 H   0  0  0  0  0  0  0  0  0  0  0  0
   -5.3230   -5.2900    1.3310 H   0  0  0  0  0  0  0  0  0  0  0  0
  1 10  1  0  0  0  0
  1  9  1  0  0  0  0
  2  4  1  0  0  0  0
  2  1  1  0  0  0  0
  3  2  1  0  0  0  0
  3 13  1  0  0  0  0
  4 17  1  0  0  0  0
  4 16  1  0  0  0  0
  5 18  1  6  0  0  0
  5  6  1  0  0  0  0
  5  4  1  0  0  0  0
  6 19  1  0  0  0  0
  7  5  1  0  0  0  0
  8  7  2  0  0  0  0
 11  1  1  0  0  0  0
 12  2  1  0  0  0  0
 14  3  1  0  0  0  0
 15  3  1  0  0  0  0
 20  6  1  0  0  0  0
 21 29  1  0  0  0  0
 21 30  1  0  0  0  0
 22 21  1  0  0  0  0
 22 24  1  0  0  0  0
 23 34  1  0  0  0  0
 23 22  1  0  0  0  0
 24 37  1  0  0  0  0
 24 25  1  0  0  0  0
 25 27  1  0  0  0  0
 25 38  1  1  0  0  0
 25 26  1  0  0  0  0
 26 39  1  0  0  0  0
 26  7  1  0  0  0  0
 27 47  1  0  0  0  0
 28 27  2  0  0  0  0
 31 21  1  0  0  0  0
 32 22  1  0  0  0  0
 33 23  1  0  0  0  0
 35 23  1  0  0  0  0
 36 24  1  0  0  0  0
 40 41  1  0  0  0  0
 40 53  1  0  0  0  0
 41 51  1  0  0  0  0
 42 43  1  0  0  0  0
 42 41  2  0  0  0  0
 43 44  2  0  0  0  0
 44 45  1  0  0  0  0
 44 50  1  0  0  0  0
 45 56  1  0  0  0  0
 45 46  1  0  0  0  0
 46 58  1  6  0  0  0
 46 48  1  0  0  0  0
 47 46  1  0  0  0  0
 47 59  1  0  0  0  0
 48 52  2  0  0  0  0
 48 49  1  0  0  0  0
 50 60  1  0  0  0  0
 51 50  2  0  0  0  0
 51 61  1  0  0  0  0
 54 42  1  0  0  0  0
 55 43  1  0  0  0  0
 57 45  1  0  0  0  0
M  END
$$$$
