LMA.pdb
 OpenBabel07022418463D

 48 47  0  0  1  0  0  0  0  0999 V2000
    0.5970   -5.1130    0.3520 C   0  0  0  0  0  0  0  0  0  0  0  0
    1.3850   -4.6760    1.5430 C   0  0  0  0  0  0  0  0  0  0  0  0
    0.7610   -5.2480    2.7810 C   0  0  0  0  0  0  0  0  0  0  0  0
    1.5970   -3.1900    1.6090 C   0  0  0  0  0  0  0  0  0  0  0  0
    0.2800   -2.4270    1.6750 C   0  0  2  0  0  0  0  0  0  0  0  0
   -0.4520   -2.7540    0.4850 N   0  0  0  0  0  0  0  0  0  0  0  0
    0.6310   -0.9920    1.7770 C   0  0  0  0  0  0  0  0  0  0  0  0
    1.2660   -0.6190    2.7820 O   0  0  0  0  0  0  0  0  0  0  0  0
    0.8250   -4.5620   -0.5760 H   0  0  0  0  0  0  0  0  0  0  0  0
    0.8930   -6.1810    0.1390 H   0  0  0  0  0  0  0  0  0  0  0  0
   -0.5060   -5.1740    0.5540 H   0  0  0  0  0  0  0  0  0  0  0  0
    2.4030   -5.1310    1.4460 H   0  0  0  0  0  0  0  0  0  0  0  0
    0.5020   -6.3130    2.5460 H   0  0  0  0  0  0  0  0  0  0  0  0
    1.4710   -5.2830    3.6320 H   0  0  0  0  0  0  0  0  0  0  0  0
   -0.1560   -4.7160    3.0650 H   0  0  0  0  0  0  0  0  0  0  0  0
    2.2190   -2.9680    2.4930 H   0  0  0  0  0  0  0  0  0  0  0  0
    2.1850   -2.8960    0.7160 H   0  0  0  0  0  0  0  0  0  0  0  0
   -0.2760   -2.7440    2.5600 H   0  0  0  0  0  0  0  0  0  0  0  0
   -0.0910   -2.3520   -0.3820 H   0  0  0  0  0  0  0  0  0  0  0  0
   -1.4840   -2.7280    0.6030 H   0  0  0  0  0  0  0  0  0  0  0  0
    3.2110    1.3820   -3.1780 C   0  0  0  0  0  0  0  0  0  0  0  0
    3.8740    1.7490   -1.5390 S   0  0  0  0  0  0  0  0  0  0  0  0
    2.7900    1.1560   -0.2290 C   0  0  0  0  0  0  0  0  0  0  0  0
    1.4540    1.9100   -0.2130 C   0  0  0  0  0  0  0  0  0  0  0  0
    0.6210    1.3670    0.8900 C   0  0  2  0  0  0  0  0  0  0  0  0
    0.3010   -0.0130    0.8240 N   0  0  0  0  0  0  0  0  0  0  0  0
   -0.6490    2.1380    0.9670 C   0  0  0  0  0  0  0  0  0  0  0  0
   -0.6350    3.3940    1.0320 O   0  0  0  0  0  0  0  0  0  0  0  0
    4.0110    1.5730   -3.9310 H   0  0  0  0  0  0  0  0  0  0  0  0
    2.3640    2.0330   -3.4160 H   0  0  0  0  0  0  0  0  0  0  0  0
    2.9640    0.2880   -3.2640 H   0  0  0  0  0  0  0  0  0  0  0  0
    3.2880    1.3680    0.7420 H   0  0  0  0  0  0  0  0  0  0  0  0
    2.6320    0.0590   -0.2630 H   0  0  0  0  0  0  0  0  0  0  0  0
    0.9860    1.9340   -1.1940 H   0  0  0  0  0  0  0  0  0  0  0  0
    1.7280    2.9570    0.0420 H   0  0  0  0  0  0  0  0  0  0  0  0
    1.1890    1.5350    1.8500 H   0  0  0  0  0  0  0  0  0  0  0  0
   -0.2400   -0.3490   -0.0260 H   0  0  0  0  0  0  0  0  0  0  0  0
   -4.0320    2.0370   -0.1560 C   0  0  0  0  0  0  0  0  0  0  0  0
   -3.1730    2.2260    1.0440 C   0  0  2  0  0  0  0  0  0  0  0  0
   -1.9180    1.5060    0.9700 N   0  0  0  0  0  0  0  0  0  0  0  0
   -3.9130    1.9420    2.2820 C   0  0  0  0  0  0  0  0  0  0  0  0
   -5.0170    2.4930    2.4880 O   0  0  0  0  0  0  0  0  0  0  0  0
   -3.4560    1.0750    3.2750 O   0  0  0  0  0  0  0  0  0  0  0  0
   -3.7300    1.1400   -0.7580 H   0  0  0  0  0  0  0  0  0  0  0  0
   -5.0690    1.8320    0.1820 H   0  0  0  0  0  0  0  0  0  0  0  0
   -4.0920    2.9490   -0.7930 H   0  0  0  0  0  0  0  0  0  0  0  0
   -2.8950    3.3200    1.0880 H   0  0  0  0  0  0  0  0  0  0  0  0
   -1.9650    0.4760    0.9170 H   0  0  0  0  0  0  0  0  0  0  0  0
  1 11  1  0  0  0  0
  1  2  1  0  0  0  0
  2  4  1  0  0  0  0
  2  3  1  0  0  0  0
  3 15  1  0  0  0  0
  3 14  1  0  0  0  0
  4  5  1  0  0  0  0
  4 16  1  0  0  0  0
  5  7  1  0  0  0  0
  5 18  1  1  0  0  0
  6 20  1  0  0  0  0
  6  5  1  0  0  0  0
  7  8  2  0  0  0  0
  9  1  1  0  0  0  0
 10  1  1  0  0  0  0
 12  2  1  0  0  0  0
 13  3  1  0  0  0  0
 17  4  1  0  0  0  0
 19  6  1  0  0  0  0
 21 22  1  0  0  0  0
 22 23  1  0  0  0  0
 23 24  1  0  0  0  0
 23 32  1  0  0  0  0
 24 35  1  0  0  0  0
 24 25  1  0  0  0  0
 25 27  1  0  0  0  0
 25 36  1  1  0  0  0
 26 25  1  0  0  0  0
 26  7  1  0  0  0  0
 27 40  1  0  0  0  0
 27 28  2  0  0  0  0
 29 21  1  0  0  0  0
 30 21  1  0  0  0  0
 31 21  1  0  0  0  0
 33 23  1  0  0  0  0
 34 24  1  0  0  0  0
 37 26  1  0  0  0  0
 38 45  1  0  0  0  0
 38 39  1  0  0  0  0
 39 47  1  1  0  0  0
 39 41  1  0  0  0  0
 40 39  1  0  0  0  0
 41 42  2  0  0  0  0
 41 43  1  0  0  0  0
 44 38  1  0  0  0  0
 46 38  1  0  0  0  0
 48 40  1  0  0  0  0
M  END
$$$$
