LMK.pdb
 OpenBabel07022418473D

 59 58  0  0  1  0  0  0  0  0999 V2000
    2.3040    0.0560    6.2330 C   0  0  0  0  0  0  0  0  0  0  0  0
    3.2490    0.1260    5.0570 C   0  0  0  0  0  0  0  0  0  0  0  0
    3.9650   -1.1680    4.8710 C   0  0  0  0  0  0  0  0  0  0  0  0
    2.6580    0.7320    3.8400 C   0  0  0  0  0  0  0  0  0  0  0  0
    1.4520    0.0630    3.2600 C   0  0  2  0  0  0  0  0  0  0  0  0
    1.6640   -1.2850    2.8620 N   0  0  0  0  0  0  0  0  0  0  0  0
    0.8410    0.8600    2.1700 C   0  0  0  0  0  0  0  0  0  0  0  0
    0.4720    2.0540    2.2690 O   0  0  0  0  0  0  0  0  0  0  0  0
    2.7200   -0.7550    6.9040 H   0  0  0  0  0  0  0  0  0  0  0  0
    2.3410    0.9790    6.8410 H   0  0  0  0  0  0  0  0  0  0  0  0
    1.2870   -0.2660    5.9910 H   0  0  0  0  0  0  0  0  0  0  0  0
    4.0320    0.8830    5.3980 H   0  0  0  0  0  0  0  0  0  0  0  0
    4.9930   -1.0820    5.3360 H   0  0  0  0  0  0  0  0  0  0  0  0
    4.1810   -1.4090    3.8090 H   0  0  0  0  0  0  0  0  0  0  0  0
    3.4860   -2.0080    5.4270 H   0  0  0  0  0  0  0  0  0  0  0  0
    3.4710    0.8000    3.0710 H   0  0  0  0  0  0  0  0  0  0  0  0
    2.4410    1.8130    4.0860 H   0  0  0  0  0  0  0  0  0  0  0  0
    0.6740    0.0480    4.0800 H   0  0  0  0  0  0  0  0  0  0  0  0
    0.8320   -1.7310    2.4130 H   0  0  0  0  0  0  0  0  0  0  0  0
    1.8560   -1.9140    3.7000 H   0  0  0  0  0  0  0  0  0  0  0  0
    4.0750   -0.2070   -0.7650 C   0  0  0  0  0  0  0  0  0  0  0  0
    2.5250   -1.0790   -1.2110 S   0  0  0  0  0  0  0  0  0  0  0  0
    1.4520    0.0060   -2.1130 C   0  0  0  0  0  0  0  0  0  0  0  0
    0.8910    1.1800   -1.3990 C   0  0  0  0  0  0  0  0  0  0  0  0
    0.0500    0.9660   -0.2170 C   0  0  2  0  0  0  0  0  0  0  0  0
    0.6350    0.2780    0.9010 N   0  0  0  0  0  0  0  0  0  0  0  0
   -1.2190    0.2220   -0.5580 C   0  0  0  0  0  0  0  0  0  0  0  0
   -1.5450   -0.8080    0.0860 O   0  0  0  0  0  0  0  0  0  0  0  0
    4.8460   -0.9080   -0.4340 H   0  0  0  0  0  0  0  0  0  0  0  0
    3.8270    0.4400    0.1210 H   0  0  0  0  0  0  0  0  0  0  0  0
    4.3900    0.4760   -1.5620 H   0  0  0  0  0  0  0  0  0  0  0  0
    2.0490    0.4320   -2.9760 H   0  0  0  0  0  0  0  0  0  0  0  0
    0.6720   -0.6080   -2.6280 H   0  0  0  0  0  0  0  0  0  0  0  0
    0.2680    1.7310   -2.1520 H   0  0  0  0  0  0  0  0  0  0  0  0
    1.6820    1.9420   -1.1340 H   0  0  0  0  0  0  0  0  0  0  0  0
   -0.2260    1.9720    0.1720 H   0  0  0  0  0  0  0  0  0  0  0  0
    0.9010   -0.7200    0.6880 H   0  0  0  0  0  0  0  0  0  0  0  0
   -2.0730    0.6460   -1.5920 N   0  0  0  0  0  0  0  0  0  0  0  0
   -3.2890    0.0430   -2.0460 C   0  0  1  0  0  0  0  0  0  0  0  0
   -3.4090   -1.4480   -1.7520 C   0  0  0  0  0  0  0  0  0  0  0  0
   -2.3570   -2.2250   -2.4550 C   0  0  0  0  0  0  0  0  0  0  0  0
   -2.3940   -3.6990   -2.1890 C   0  0  0  0  0  0  0  0  0  0  0  0
   -3.6990   -4.3390   -2.6060 C   0  0  0  0  0  0  0  0  0  0  0  0
   -3.6280   -5.7650   -2.3080 N   0  0  0  0  0  0  0  0  0  0  0  0
   -4.5230    0.7400   -1.6910 C   0  0  0  0  0  0  0  0  0  0  0  0
   -4.5500    1.8150   -1.0220 O   0  0  0  0  0  0  0  0  0  0  0  0
   -5.7350    0.2260   -2.0920 O   0  0  0  0  0  0  0  0  0  0  0  0
   -1.7490    1.5370   -2.0870 H   0  0  0  0  0  0  0  0  0  0  0  0
   -3.1980    0.0200   -3.1880 H   0  0  0  0  0  0  0  0  0  0  0  0
   -4.3890   -1.7380   -2.2410 H   0  0  0  0  0  0  0  0  0  0  0  0
   -3.5470   -1.6850   -0.6960 H   0  0  0  0  0  0  0  0  0  0  0  0
   -2.4890   -2.1070   -3.5910 H   0  0  0  0  0  0  0  0  0  0  0  0
   -1.3540   -1.8440   -2.2640 H   0  0  0  0  0  0  0  0  0  0  0  0
   -1.5850   -4.1670   -2.7960 H   0  0  0  0  0  0  0  0  0  0  0  0
   -2.1620   -3.9330   -1.1310 H   0  0  0  0  0  0  0  0  0  0  0  0
   -4.5760   -3.8570   -2.1540 H   0  0  0  0  0  0  0  0  0  0  0  0
   -3.8210   -4.2600   -3.7070 H   0  0  0  0  0  0  0  0  0  0  0  0
   -4.3900   -6.1060   -1.7050 H   0  0  0  0  0  0  0  0  0  0  0  0
   -2.7120   -6.0440   -1.9410 H   0  0  0  0  0  0  0  0  0  0  0  0
  1 10  1  0  0  0  0
  1  9  1  0  0  0  0
  2 12  1  0  0  0  0
  2  1  1  0  0  0  0
  3  2  1  0  0  0  0
  3 13  1  0  0  0  0
  3 15  1  0  0  0  0
  4 17  1  0  0  0  0
  4  2  1  0  0  0  0
  5  4  1  0  0  0  0
  5 18  1  1  0  0  0
  6  5  1  0  0  0  0
  6 20  1  0  0  0  0
  7  8  2  0  0  0  0
  7  5  1  0  0  0  0
 11  1  1  0  0  0  0
 14  3  1  0  0  0  0
 16  4  1  0  0  0  0
 19  6  1  0  0  0  0
 21 29  1  0  0  0  0
 21 30  1  0  0  0  0
 22 21  1  0  0  0  0
 23 24  1  0  0  0  0
 23 22  1  0  0  0  0
 24 35  1  0  0  0  0
 24 25  1  0  0  0  0
 25 36  1  1  0  0  0
 25 26  1  0  0  0  0
 26  7  1  0  0  0  0
 27 25  1  0  0  0  0
 27 28  2  0  0  0  0
 31 21  1  0  0  0  0
 32 23  1  0  0  0  0
 33 23  1  0  0  0  0
 34 24  1  0  0  0  0
 37 26  1  0  0  0  0
 38 27  1  0  0  0  0
 39 49  1  6  0  0  0
 39 40  1  0  0  0  0
 39 45  1  0  0  0  0
 39 38  1  0  0  0  0
 40 51  1  0  0  0  0
 41 53  1  0  0  0  0
 41 42  1  0  0  0  0
 41 40  1  0  0  0  0
 42 55  1  0  0  0  0
 43 44  1  0  0  0  0
 43 42  1  0  0  0  0
 43 56  1  0  0  0  0
 44 59  1  0  0  0  0
 44 58  1  0  0  0  0
 45 46  1  0  0  0  0
 47 45  2  0  0  0  0
 48 38  1  0  0  0  0
 50 40  1  0  0  0  0
 52 41  1  0  0  0  0
 54 42  1  0  0  0  0
 57 43  1  0  0  0  0
M  END
$$$$
