LMP.pdb
 OpenBabel07022418473D

 52 52  0  0  1  0  0  0  0  0999 V2000
    0.4390   -4.7480    1.0500 C   0  0  0  0  0  0  0  0  0  0  0  0
    0.4200   -3.6130    2.0900 C   0  0  0  0  0  0  0  0  0  0  0  0
   -0.9800   -3.1390    2.1850 C   0  0  0  0  0  0  0  0  0  0  0  0
    1.4500   -2.6370    1.6550 C   0  0  0  0  0  0  0  0  0  0  0  0
    1.6370   -1.4280    2.4980 C   0  0  2  0  0  0  0  0  0  0  0  0
    1.9980   -1.8040    3.8720 N   0  0  0  0  0  0  0  0  0  0  0  0
    0.6260   -0.3900    2.4310 C   0  0  0  0  0  0  0  0  0  0  0  0
    0.0110   -0.0720    3.4810 O   0  0  0  0  0  0  0  0  0  0  0  0
   -0.1440   -5.5710    1.4610 H   0  0  0  0  0  0  0  0  0  0  0  0
    1.4630   -4.9770    0.7540 H   0  0  0  0  0  0  0  0  0  0  0  0
   -0.1090   -4.3490    0.1530 H   0  0  0  0  0  0  0  0  0  0  0  0
    0.7760   -4.1070    3.0260 H   0  0  0  0  0  0  0  0  0  0  0  0
   -1.3980   -3.5490    3.1540 H   0  0  0  0  0  0  0  0  0  0  0  0
   -1.1440   -2.0710    2.0940 H   0  0  0  0  0  0  0  0  0  0  0  0
   -1.6570   -3.6160    1.4120 H   0  0  0  0  0  0  0  0  0  0  0  0
    1.3580   -2.3260    0.5900 H   0  0  0  0  0  0  0  0  0  0  0  0
    2.4410   -3.1920    1.6900 H   0  0  0  0  0  0  0  0  0  0  0  0
    2.6010   -0.9470    2.1170 H   0  0  0  0  0  0  0  0  0  0  0  0
    2.5290   -1.0430    4.3140 H   0  0  0  0  0  0  0  0  0  0  0  0
    2.6680   -2.6170    3.7660 H   0  0  0  0  0  0  0  0  0  0  0  0
    3.3560    2.3330    1.1310 C   0  0  0  0  0  0  0  0  0  0  0  0
    2.1020    2.1270   -0.1530 S   0  0  0  0  0  0  0  0  0  0  0  0
    0.6400    3.1050    0.1390 C   0  0  0  0  0  0  0  0  0  0  0  0
   -0.1730    2.7400    1.3230 C   0  0  0  0  0  0  0  0  0  0  0  0
   -0.7470    1.3280    1.3000 C   0  0  2  0  0  0  0  0  0  0  0  0
    0.2660    0.3240    1.2310 N   0  0  0  0  0  0  0  0  0  0  0  0
   -1.7820    1.1720    0.2950 C   0  0  0  0  0  0  0  0  0  0  0  0
   -2.6870    2.1230    0.3000 O   0  0  0  0  0  0  0  0  0  0  0  0
    4.3290    2.0180    0.7050 H   0  0  0  0  0  0  0  0  0  0  0  0
    3.1730    1.6730    2.0080 H   0  0  0  0  0  0  0  0  0  0  0  0
    3.4780    3.4000    1.4390 H   0  0  0  0  0  0  0  0  0  0  0  0
    0.9560    4.1830    0.1740 H   0  0  0  0  0  0  0  0  0  0  0  0
    0.0010    3.0350   -0.7920 H   0  0  0  0  0  0  0  0  0  0  0  0
    0.3820    2.8950    2.2650 H   0  0  0  0  0  0  0  0  0  0  0  0
   -1.0480    3.4170    1.3620 H   0  0  0  0  0  0  0  0  0  0  0  0
   -1.2760    1.2670    2.3150 H   0  0  0  0  0  0  0  0  0  0  0  0
    0.7750    0.0870    0.3550 H   0  0  0  0  0  0  0  0  0  0  0  0
   -1.9740    0.1770   -0.6800 N   0  0  0  0  0  0  0  0  0  0  0  0
   -3.0960    0.2490   -1.6420 C   0  0  0  0  0  0  0  0  0  0  0  0
   -3.2310   -1.0960   -2.2640 C   0  0  0  0  0  0  0  0  0  0  0  0
   -2.4490   -1.9850   -1.3230 C   0  0  0  0  0  0  0  0  0  0  0  0
   -1.2750   -1.0320   -1.0090 C   0  0  1  0  0  0  0  0  0  0  0  0
   -0.3900   -0.8950   -2.1790 C   0  0  0  0  0  0  0  0  0  0  0  0
   -0.2870    0.1720   -2.7880 O   0  0  0  0  0  0  0  0  0  0  0  0
    0.3370   -1.9990   -2.5910 O   0  0  0  0  0  0  0  0  0  0  0  0
   -2.9060    1.0020   -2.4140 H   0  0  0  0  0  0  0  0  0  0  0  0
   -3.9890    0.5120   -1.0110 H   0  0  0  0  0  0  0  0  0  0  0  0
   -2.8770   -1.1660   -3.3030 H   0  0  0  0  0  0  0  0  0  0  0  0
   -4.3070   -1.4120   -2.1710 H   0  0  0  0  0  0  0  0  0  0  0  0
   -2.9900   -2.2570   -0.4220 H   0  0  0  0  0  0  0  0  0  0  0  0
   -2.0540   -2.8330   -1.9140 H   0  0  0  0  0  0  0  0  0  0  0  0
   -0.7370   -1.5050   -0.1620 H   0  0  0  0  0  0  0  0  0  0  0  0
  1  9  1  0  0  0  0
  1  2  1  0  0  0  0
  2  3  1  0  0  0  0
  2 12  1  0  0  0  0
  3 13  1  0  0  0  0
  4 17  1  0  0  0  0
  4  2  1  0  0  0  0
  4  5  1  0  0  0  0
  5 18  1  6  0  0  0
  5  6  1  0  0  0  0
  6 19  1  0  0  0  0
  7  5  1  0  0  0  0
  7  8  2  0  0  0  0
 10  1  1  0  0  0  0
 11  1  1  0  0  0  0
 14  3  1  0  0  0  0
 15  3  1  0  0  0  0
 16  4  1  0  0  0  0
 20  6  1  0  0  0  0
 21 31  1  0  0  0  0
 21 30  1  0  0  0  0
 22 23  1  0  0  0  0
 22 21  1  0  0  0  0
 23 32  1  0  0  0  0
 23 24  1  0  0  0  0
 24 35  1  0  0  0  0
 24 34  1  0  0  0  0
 25 24  1  0  0  0  0
 25 36  1  1  0  0  0
 26 25  1  0  0  0  0
 26  7  1  0  0  0  0
 27 28  2  0  0  0  0
 27 25  1  0  0  0  0
 29 21  1  0  0  0  0
 33 23  1  0  0  0  0
 37 26  1  0  0  0  0
 38 27  1  0  0  0  0
 39 47  1  0  0  0  0
 39 38  1  0  0  0  0
 40 49  1  0  0  0  0
 40 39  1  0  0  0  0
 40 41  1  0  0  0  0
 41 42  1  0  0  0  0
 41 50  1  0  0  0  0
 42 38  1  0  0  0  0
 42 52  1  1  0  0  0
 43 42  1  0  0  0  0
 44 43  2  0  0  0  0
 45 43  1  0  0  0  0
 46 39  1  0  0  0  0
 48 40  1  0  0  0  0
 51 41  1  0  0  0  0
M  END
$$$$
