LMS.pdb
 OpenBabel07022418473D

 49 48  0  0  1  0  0  0  0  0999 V2000
   -2.1990   -2.4950    4.0340 C   0  0  0  0  0  0  0  0  0  0  0  0
   -0.7860   -1.9470    4.2790 C   0  0  0  0  0  0  0  0  0  0  0  0
   -0.9020   -1.0110    5.4620 C   0  0  0  0  0  0  0  0  0  0  0  0
   -0.4180   -1.1660    3.0540 C   0  0  0  0  0  0  0  0  0  0  0  0
    0.9520   -0.5510    3.1210 C   0  0  2  0  0  0  0  0  0  0  0  0
    1.0480    0.3520    4.2300 N   0  0  0  0  0  0  0  0  0  0  0  0
    1.1520    0.2360    1.8660 C   0  0  0  0  0  0  0  0  0  0  0  0
    1.3800    1.4770    1.8850 O   0  0  0  0  0  0  0  0  0  0  0  0
   -2.4950   -3.2270    4.7930 H   0  0  0  0  0  0  0  0  0  0  0  0
   -2.8980   -1.6230    4.0250 H   0  0  0  0  0  0  0  0  0  0  0  0
   -2.2080   -2.9070    2.9970 H   0  0  0  0  0  0  0  0  0  0  0  0
   -0.1310   -2.7970    4.4620 H   0  0  0  0  0  0  0  0  0  0  0  0
   -1.6270   -1.4590    6.1900 H   0  0  0  0  0  0  0  0  0  0  0  0
   -1.2700   -0.0260    5.1660 H   0  0  0  0  0  0  0  0  0  0  0  0
    0.0530   -0.8740    6.0090 H   0  0  0  0  0  0  0  0  0  0  0  0
   -1.1990   -0.4430    2.8200 H   0  0  0  0  0  0  0  0  0  0  0  0
   -0.4200   -1.9080    2.2010 H   0  0  0  0  0  0  0  0  0  0  0  0
    1.7510   -1.3110    3.1450 H   0  0  0  0  0  0  0  0  0  0  0  0
    0.5010    1.2140    4.1240 H   0  0  0  0  0  0  0  0  0  0  0  0
    2.0290    0.5160    4.5580 H   0  0  0  0  0  0  0  0  0  0  0  0
    5.6920    0.1030   -2.8220 C   0  0  0  0  0  0  0  0  0  0  0  0
    4.1090   -0.0490   -3.6460 S   0  0  0  0  0  0  0  0  0  0  0  0
    2.7340    0.6160   -2.6940 C   0  0  0  0  0  0  0  0  0  0  0  0
    2.4460   -0.1310   -1.4460 C   0  0  0  0  0  0  0  0  0  0  0  0
    1.2980    0.4410   -0.6450 C   0  0  2  0  0  0  0  0  0  0  0  0
    1.0960   -0.3660    0.5780 N   0  0  0  0  0  0  0  0  0  0  0  0
   -0.0040    0.3750   -1.3570 C   0  0  0  0  0  0  0  0  0  0  0  0
   -0.2200    0.9850   -2.4520 O   0  0  0  0  0  0  0  0  0  0  0  0
    6.3550   -0.7790   -3.0170 H   0  0  0  0  0  0  0  0  0  0  0  0
    6.2350    0.9630   -3.3150 H   0  0  0  0  0  0  0  0  0  0  0  0
    5.6310    0.3580   -1.7630 H   0  0  0  0  0  0  0  0  0  0  0  0
    3.0010    1.6710   -2.4160 H   0  0  0  0  0  0  0  0  0  0  0  0
    1.8540    0.6830   -3.3580 H   0  0  0  0  0  0  0  0  0  0  0  0
    3.3260   -0.2970   -0.8020 H   0  0  0  0  0  0  0  0  0  0  0  0
    2.1300   -1.1740   -1.7510 H   0  0  0  0  0  0  0  0  0  0  0  0
    1.4900    1.4760   -0.3230 H   0  0  0  0  0  0  0  0  0  0  0  0
    0.9080   -1.3930    0.5070 H   0  0  0  0  0  0  0  0  0  0  0  0
   -1.5070   -2.2090   -2.8360 O   0  0  0  0  0  0  0  0  0  0  0  0
   -2.5990   -1.8670   -2.0090 C   0  0  0  0  0  0  0  0  0  0  0  0
   -2.3920   -0.4230   -1.5950 C   0  0  2  0  0  0  0  0  0  0  0  0
   -1.1260   -0.3720   -0.8820 N   0  0  0  0  0  0  0  0  0  0  0  0
   -3.5150    0.0180   -0.7140 C   0  0  0  0  0  0  0  0  0  0  0  0
   -3.3430    0.3720    0.4700 O   0  0  0  0  0  0  0  0  0  0  0  0
   -4.7930    0.0290   -1.2440 O   0  0  0  0  0  0  0  0  0  0  0  0
   -1.1700   -3.0950   -2.5560 H   0  0  0  0  0  0  0  0  0  0  0  0
   -3.5040   -1.9800   -2.6680 H   0  0  0  0  0  0  0  0  0  0  0  0
   -2.6320   -2.5420   -1.1450 H   0  0  0  0  0  0  0  0  0  0  0  0
   -2.3750    0.1760   -2.5150 H   0  0  0  0  0  0  0  0  0  0  0  0
   -1.0030   -0.8910    0.0110 H   0  0  0  0  0  0  0  0  0  0  0  0
  1  2  1  0  0  0  0
  1  9  1  0  0  0  0
  2 12  1  0  0  0  0
  2  3  1  0  0  0  0
  3 15  1  0  0  0  0
  3 13  1  0  0  0  0
  4  5  1  0  0  0  0
  4  2  1  0  0  0  0
  5 18  1  1  0  0  0
  5  6  1  0  0  0  0
  6 20  1  0  0  0  0
  7  8  2  0  0  0  0
  7  5  1  0  0  0  0
 10  1  1  0  0  0  0
 11  1  1  0  0  0  0
 14  3  1  0  0  0  0
 16  4  1  0  0  0  0
 17  4  1  0  0  0  0
 19  6  1  0  0  0  0
 21 31  1  0  0  0  0
 22 21  1  0  0  0  0
 22 23  1  0  0  0  0
 23 32  1  0  0  0  0
 23 24  1  0  0  0  0
 24 34  1  0  0  0  0
 24 25  1  0  0  0  0
 25 36  1  1  0  0  0
 25 26  1  0  0  0  0
 26  7  1  0  0  0  0
 27 41  1  0  0  0  0
 27 25  1  0  0  0  0
 28 27  2  0  0  0  0
 29 21  1  0  0  0  0
 30 21  1  0  0  0  0
 33 23  1  0  0  0  0
 35 24  1  0  0  0  0
 37 26  1  0  0  0  0
 38 45  1  0  0  0  0
 38 39  1  0  0  0  0
 39 40  1  0  0  0  0
 39 47  1  0  0  0  0
 40 48  1  6  0  0  0
 40 41  1  0  0  0  0
 40 42  1  0  0  0  0
 41 49  1  0  0  0  0
 42 43  1  0  0  0  0
 44 42  2  0  0  0  0
 46 39  1  0  0  0  0
M  END
$$$$
