LMT.pdb
 OpenBabel07022418473D

 52 51  0  0  1  0  0  0  0  0999 V2000
    1.7340   -3.8080    4.4180 C   0  0  0  0  0  0  0  0  0  0  0  0
    1.5970   -2.2980    4.1160 C   0  0  0  0  0  0  0  0  0  0  0  0
    0.2370   -2.1620    3.4860 C   0  0  0  0  0  0  0  0  0  0  0  0
    2.7400   -1.9650    3.2160 C   0  0  0  0  0  0  0  0  0  0  0  0
    2.8610   -0.5540    2.7780 C   0  0  2  0  0  0  0  0  0  0  0  0
    2.9980    0.3450    3.9260 N   0  0  0  0  0  0  0  0  0  0  0  0
    1.8300   -0.0330    1.8820 C   0  0  0  0  0  0  0  0  0  0  0  0
    1.1930    1.0440    2.1770 O   0  0  0  0  0  0  0  0  0  0  0  0
    1.0270   -4.1190    5.2050 H   0  0  0  0  0  0  0  0  0  0  0  0
    1.4030   -4.3060    3.4750 H   0  0  0  0  0  0  0  0  0  0  0  0
    2.7790   -4.0650    4.6180 H   0  0  0  0  0  0  0  0  0  0  0  0
    1.6910   -1.7910    5.0910 H   0  0  0  0  0  0  0  0  0  0  0  0
   -0.5740   -2.5140    4.1920 H   0  0  0  0  0  0  0  0  0  0  0  0
   -0.0420   -1.1610    3.1690 H   0  0  0  0  0  0  0  0  0  0  0  0
    0.2180   -2.9350    2.6670 H   0  0  0  0  0  0  0  0  0  0  0  0
    3.6760   -2.2030    3.8030 H   0  0  0  0  0  0  0  0  0  0  0  0
    2.7650   -2.6790    2.3490 H   0  0  0  0  0  0  0  0  0  0  0  0
    3.8550   -0.4840    2.2240 H   0  0  0  0  0  0  0  0  0  0  0  0
    2.8310    1.3040    3.5760 H   0  0  0  0  0  0  0  0  0  0  0  0
    3.9460    0.2380    4.3680 H   0  0  0  0  0  0  0  0  0  0  0  0
    0.3790    3.8310   -1.7650 C   0  0  0  0  0  0  0  0  0  0  0  0
    1.6000    2.9300   -0.7950 S   0  0  0  0  0  0  0  0  0  0  0  0
    2.0510    1.3510   -1.5170 C   0  0  0  0  0  0  0  0  0  0  0  0
    0.9670    0.3460   -1.5460 C   0  0  0  0  0  0  0  0  0  0  0  0
    0.4280   -0.0510   -0.1880 C   0  0  2  0  0  0  0  0  0  0  0  0
    1.4470   -0.6280    0.6540 N   0  0  0  0  0  0  0  0  0  0  0  0
   -0.6800   -1.0310   -0.3250 C   0  0  0  0  0  0  0  0  0  0  0  0
   -0.7150   -2.1530    0.2330 O   0  0  0  0  0  0  0  0  0  0  0  0
   -0.3710    4.2360   -1.0280 H   0  0  0  0  0  0  0  0  0  0  0  0
   -0.1130    3.2470   -2.5460 H   0  0  0  0  0  0  0  0  0  0  0  0
    0.8800    4.7170   -2.2050 H   0  0  0  0  0  0  0  0  0  0  0  0
    2.4000    1.5120   -2.5550 H   0  0  0  0  0  0  0  0  0  0  0  0
    2.9570    0.9830   -0.9660 H   0  0  0  0  0  0  0  0  0  0  0  0
    0.1570    0.7240   -2.2000 H   0  0  0  0  0  0  0  0  0  0  0  0
    1.3620   -0.5730   -2.0260 H   0  0  0  0  0  0  0  0  0  0  0  0
    0.0060    0.8880    0.2650 H   0  0  0  0  0  0  0  0  0  0  0  0
    1.9160   -1.5060    0.3510 H   0  0  0  0  0  0  0  0  0  0  0  0
   -4.3900   -0.4900    0.3630 C   0  0  0  0  0  0  0  0  0  0  0  0
   -4.2650   -0.9720   -1.0710 C   0  0  1  0  0  0  0  0  0  0  0  0
   -4.5020    0.1200   -1.9160 O   0  0  0  0  0  0  0  0  0  0  0  0
   -2.9400   -1.6110   -1.3350 C   0  0  2  0  0  0  0  0  0  0  0  0
   -1.8280   -0.7330   -1.1460 N   0  0  0  0  0  0  0  0  0  0  0  0
   -2.9510   -2.1910   -2.7260 C   0  0  0  0  0  0  0  0  0  0  0  0
   -2.0220   -1.8590   -3.4870 O   0  0  0  0  0  0  0  0  0  0  0  0
   -3.9530   -3.0490   -3.1200 O   0  0  0  0  0  0  0  0  0  0  0  0
   -4.9490   -1.2560    0.9270 H   0  0  0  0  0  0  0  0  0  0  0  0
   -4.9760    0.4710    0.4100 H   0  0  0  0  0  0  0  0  0  0  0  0
   -3.4020   -0.3850    0.8580 H   0  0  0  0  0  0  0  0  0  0  0  0
   -5.0890   -1.6900   -1.2510 H   0  0  0  0  0  0  0  0  0  0  0  0
   -4.1780   -0.0470   -2.8360 H   0  0  0  0  0  0  0  0  0  0  0  0
   -2.8190   -2.4940   -0.6780 H   0  0  0  0  0  0  0  0  0  0  0  0
   -1.8140    0.2100   -1.6270 H   0  0  0  0  0  0  0  0  0  0  0  0
  1 11  1  0  0  0  0
  1  9  1  0  0  0  0
  2  1  1  0  0  0  0
  2 12  1  0  0  0  0
  3  2  1  0  0  0  0
  3 13  1  0  0  0  0
  4 16  1  0  0  0  0
  4  2  1  0  0  0  0
  5 18  1  6  0  0  0
  5  4  1  0  0  0  0
  5  6  1  0  0  0  0
  6 20  1  0  0  0  0
  7  8  2  0  0  0  0
  7  5  1  0  0  0  0
 10  1  1  0  0  0  0
 14  3  1  0  0  0  0
 15  3  1  0  0  0  0
 17  4  1  0  0  0  0
 19  6  1  0  0  0  0
 21 29  1  0  0  0  0
 21 22  1  0  0  0  0
 23 33  1  0  0  0  0
 23 22  1  0  0  0  0
 24 23  1  0  0  0  0
 24 25  1  0  0  0  0
 25 36  1  1  0  0  0
 25 26  1  0  0  0  0
 26  7  1  0  0  0  0
 27 25  1  0  0  0  0
 27 28  2  0  0  0  0
 30 21  1  0  0  0  0
 31 21  1  0  0  0  0
 32 23  1  0  0  0  0
 34 24  1  0  0  0  0
 35 24  1  0  0  0  0
 37 26  1  0  0  0  0
 38 47  1  0  0  0  0
 38 48  1  0  0  0  0
 38 46  1  0  0  0  0
 39 49  1  6  0  0  0
 39 38  1  0  0  0  0
 40 39  1  0  0  0  0
 41 42  1  0  0  0  0
 41 39  1  0  0  0  0
 41 51  1  1  0  0  0
 42 27  1  0  0  0  0
 43 41  1  0  0  0  0
 44 43  2  0  0  0  0
 45 43  1  0  0  0  0
 50 40  1  0  0  0  0
 52 42  1  0  0  0  0
M  END
$$$$
