LMV.pdb
 OpenBabel07022418473D

 54 53  0  0  1  0  0  0  0  0999 V2000
    2.2190   -5.0270    1.8480 C   0  0  0  0  0  0  0  0  0  0  0  0
    2.2390   -3.5760    2.3850 C   0  0  0  0  0  0  0  0  0  0  0  0
    0.7950   -3.1380    2.2910 C   0  0  0  0  0  0  0  0  0  0  0  0
    3.1770   -2.8130    1.5190 C   0  0  0  0  0  0  0  0  0  0  0  0
    3.3840   -1.3790    1.8470 C   0  0  2  0  0  0  0  0  0  0  0  0
    3.9060   -1.1850    3.1960 N   0  0  0  0  0  0  0  0  0  0  0  0
    2.2560   -0.4780    1.6400 C   0  0  0  0  0  0  0  0  0  0  0  0
    1.8920    0.3060    2.5780 O   0  0  0  0  0  0  0  0  0  0  0  0
    1.6220   -5.6780    2.5260 H   0  0  0  0  0  0  0  0  0  0  0  0
    3.2400   -5.3930    1.6720 H   0  0  0  0  0  0  0  0  0  0  0  0
    1.6390   -4.9670    0.8980 H   0  0  0  0  0  0  0  0  0  0  0  0
    2.5470   -3.5970    3.4350 H   0  0  0  0  0  0  0  0  0  0  0  0
    0.2740   -3.7000    3.1250 H   0  0  0  0  0  0  0  0  0  0  0  0
    0.6260   -2.0900    2.4990 H   0  0  0  0  0  0  0  0  0  0  0  0
    0.3560   -3.5240    1.3440 H   0  0  0  0  0  0  0  0  0  0  0  0
    4.1950   -3.2970    1.5440 H   0  0  0  0  0  0  0  0  0  0  0  0
    2.8450   -2.8530    0.4470 H   0  0  0  0  0  0  0  0  0  0  0  0
    4.2280   -1.0330    1.1570 H   0  0  0  0  0  0  0  0  0  0  0  0
    3.1460   -1.1180    3.9010 H   0  0  0  0  0  0  0  0  0  0  0  0
    4.6420   -1.8750    3.4430 H   0  0  0  0  0  0  0  0  0  0  0  0
    0.5300    4.5910    1.1460 C   0  0  0  0  0  0  0  0  0  0  0  0
    1.7960    3.3170    1.1210 S   0  0  0  0  0  0  0  0  0  0  0  0
    1.8600    2.4230   -0.4310 C   0  0  0  0  0  0  0  0  0  0  0  0
    0.6470    1.5970   -0.7150 C   0  0  0  0  0  0  0  0  0  0  0  0
    0.4030    0.5390    0.3360 C   0  0  2  0  0  0  0  0  0  0  0  0
    1.4960   -0.3840    0.4510 N   0  0  0  0  0  0  0  0  0  0  0  0
   -0.8460   -0.2230    0.0620 C   0  0  0  0  0  0  0  0  0  0  0  0
   -0.7670   -1.4590   -0.0370 O   0  0  0  0  0  0  0  0  0  0  0  0
   -0.4990    4.1840    0.9640 H   0  0  0  0  0  0  0  0  0  0  0  0
    0.7330    5.4290    0.4590 H   0  0  0  0  0  0  0  0  0  0  0  0
    0.4950    5.0190    2.1720 H   0  0  0  0  0  0  0  0  0  0  0  0
    1.9980    3.1200   -1.2850 H   0  0  0  0  0  0  0  0  0  0  0  0
    2.7340    1.7280   -0.3840 H   0  0  0  0  0  0  0  0  0  0  0  0
   -0.2360    2.2800   -0.7190 H   0  0  0  0  0  0  0  0  0  0  0  0
    0.7340    1.1910   -1.7340 H   0  0  0  0  0  0  0  0  0  0  0  0
    0.2390    1.0940    1.2850 H   0  0  0  0  0  0  0  0  0  0  0  0
    1.7360   -0.9930   -0.3490 H   0  0  0  0  0  0  0  0  0  0  0  0
   -5.1980   -0.7290   -1.8930 C   0  0  0  0  0  0  0  0  0  0  0  0
   -3.8390   -0.0990   -1.7360 C   0  0  0  0  0  0  0  0  0  0  0  0
   -2.8860   -0.7380   -2.7220 C   0  0  0  0  0  0  0  0  0  0  0  0
   -3.3760   -0.1800   -0.3320 C   0  0  2  0  0  0  0  0  0  0  0  0
   -2.1020    0.4040   -0.0870 N   0  0  0  0  0  0  0  0  0  0  0  0
   -3.6270   -1.4850    0.3480 C   0  0  0  0  0  0  0  0  0  0  0  0
   -4.6460   -2.1900    0.1270 O   0  0  0  0  0  0  0  0  0  0  0  0
   -2.7440   -1.9970    1.2780 O   0  0  0  0  0  0  0  0  0  0  0  0
   -5.1730   -1.8190   -2.0710 H   0  0  0  0  0  0  0  0  0  0  0  0
   -5.7200   -0.3110   -2.7940 H   0  0  0  0  0  0  0  0  0  0  0  0
   -5.8170   -0.5610   -0.9800 H   0  0  0  0  0  0  0  0  0  0  0  0
   -3.9650    0.9700   -2.0260 H   0  0  0  0  0  0  0  0  0  0  0  0
   -1.9610   -0.1670   -2.8040 H   0  0  0  0  0  0  0  0  0  0  0  0
   -2.7530   -1.8110   -2.4870 H   0  0  0  0  0  0  0  0  0  0  0  0
   -3.3930   -0.6990   -3.7160 H   0  0  0  0  0  0  0  0  0  0  0  0
   -4.1010    0.4970    0.2750 H   0  0  0  0  0  0  0  0  0  0  0  0
   -2.0320    1.4770    0.0050 H   0  0  0  0  0  0  0  0  0  0  0  0
  1  2  1  0  0  0  0
  1  9  1  0  0  0  0
  2 12  1  0  0  0  0
  3  2  1  0  0  0  0
  3 14  1  0  0  0  0
  3 13  1  0  0  0  0
  4 16  1  0  0  0  0
  4  5  1  0  0  0  0
  4  2  1  0  0  0  0
  5 18  1  6  0  0  0
  5  6  1  0  0  0  0
  6 20  1  0  0  0  0
  6 19  1  0  0  0  0
  7  5  1  0  0  0  0
  7  8  2  0  0  0  0
 10  1  1  0  0  0  0
 11  1  1  0  0  0  0
 15  3  1  0  0  0  0
 17  4  1  0  0  0  0
 21 31  1  0  0  0  0
 22 21  1  0  0  0  0
 23 33  1  0  0  0  0
 23 22  1  0  0  0  0
 24 23  1  0  0  0  0
 24 25  1  0  0  0  0
 25 26  1  0  0  0  0
 25 36  1  1  0  0  0
 26  7  1  0  0  0  0
 27 25  1  0  0  0  0
 28 27  2  0  0  0  0
 29 21  1  0  0  0  0
 30 21  1  0  0  0  0
 32 23  1  0  0  0  0
 34 24  1  0  0  0  0
 35 24  1  0  0  0  0
 37 26  1  0  0  0  0
 38 39  1  0  0  0  0
 38 48  1  0  0  0  0
 39 41  1  0  0  0  0
 40 51  1  0  0  0  0
 40 39  1  0  0  0  0
 41 42  1  0  0  0  0
 41 53  1  1  0  0  0
 41 43  1  0  0  0  0
 42 54  1  0  0  0  0
 42 27  1  0  0  0  0
 43 45  1  0  0  0  0
 44 43  2  0  0  0  0
 46 38  1  0  0  0  0
 47 38  1  0  0  0  0
 49 39  1  0  0  0  0
 50 40  1  0  0  0  0
 52 40  1  0  0  0  0
M  END
$$$$
