LMY.pdb
 OpenBabel07022418473D

 59 59  0  0  1  0  0  0  0  0999 V2000
    2.1250   -1.5900    3.8840 C   0  0  0  0  0  0  0  0  0  0  0  0
    2.0230   -1.4590    2.3900 C   0  0  0  0  0  0  0  0  0  0  0  0
    2.8320   -2.5550    1.7230 C   0  0  0  0  0  0  0  0  0  0  0  0
    2.5490   -0.1440    1.8840 C   0  0  0  0  0  0  0  0  0  0  0  0
    1.8030    1.0390    2.4630 C   0  0  2  0  0  0  0  0  0  0  0  0
    1.8850    1.1000    3.8900 N   0  0  0  0  0  0  0  0  0  0  0  0
    0.4260    1.1400    1.9470 C   0  0  0  0  0  0  0  0  0  0  0  0
   -0.5320    1.2640    2.7350 O   0  0  0  0  0  0  0  0  0  0  0  0
    2.2010   -2.6540    4.1660 H   0  0  0  0  0  0  0  0  0  0  0  0
    1.2010   -1.1890    4.3930 H   0  0  0  0  0  0  0  0  0  0  0  0
    2.9780   -1.0340    4.3090 H   0  0  0  0  0  0  0  0  0  0  0  0
    0.9650   -1.6300    2.1150 H   0  0  0  0  0  0  0  0  0  0  0  0
    3.8700   -2.6080    2.1130 H   0  0  0  0  0  0  0  0  0  0  0  0
    2.7820   -2.4580    0.6240 H   0  0  0  0  0  0  0  0  0  0  0  0
    2.2910   -3.5150    1.9630 H   0  0  0  0  0  0  0  0  0  0  0  0
    3.6150   -0.0610    2.1680 H   0  0  0  0  0  0  0  0  0  0  0  0
    2.4870   -0.1370    0.7870 H   0  0  0  0  0  0  0  0  0  0  0  0
    2.3470    1.9510    2.0730 H   0  0  0  0  0  0  0  0  0  0  0  0
    2.7890    1.5400    4.1700 H   0  0  0  0  0  0  0  0  0  0  0  0
    1.0740    1.5970    4.3180 H   0  0  0  0  0  0  0  0  0  0  0  0
    0.8580    3.6070   -4.4360 C   0  0  0  0  0  0  0  0  0  0  0  0
   -0.4150    3.7930   -3.1550 S   0  0  0  0  0  0  0  0  0  0  0  0
   -0.2610    2.3460   -2.0340 C   0  0  0  0  0  0  0  0  0  0  0  0
   -1.2700    2.4030   -0.9370 C   0  0  0  0  0  0  0  0  0  0  0  0
   -1.0960    1.1840   -0.0560 C   0  0  2  0  0  0  0  0  0  0  0  0
    0.2080    1.0940    0.5500 N   0  0  0  0  0  0  0  0  0  0  0  0
   -1.4450   -0.0650   -0.7820 C   0  0  0  0  0  0  0  0  0  0  0  0
   -2.5490   -0.1360   -1.3600 O   0  0  0  0  0  0  0  0  0  0  0  0
    1.3790    2.6280   -4.3710 H   0  0  0  0  0  0  0  0  0  0  0  0
    1.6480    4.3870   -4.2970 H   0  0  0  0  0  0  0  0  0  0  0  0
    0.4190    3.6500   -5.4590 H   0  0  0  0  0  0  0  0  0  0  0  0
    0.7580    2.3220   -1.5900 H   0  0  0  0  0  0  0  0  0  0  0  0
   -0.4790    1.4620   -2.6680 H   0  0  0  0  0  0  0  0  0  0  0  0
   -1.0750    3.3060   -0.2960 H   0  0  0  0  0  0  0  0  0  0  0  0
   -2.2670    2.4350   -1.3860 H   0  0  0  0  0  0  0  0  0  0  0  0
   -1.8510    1.2540    0.7860 H   0  0  0  0  0  0  0  0  0  0  0  0
    1.0360    0.9840   -0.1110 H   0  0  0  0  0  0  0  0  0  0  0  0
   -2.6900   -4.4080    4.1520 O   0  0  0  0  0  0  0  0  0  0  0  0
   -2.5860   -4.0350    2.8040 C   0  0  0  0  0  0  0  0  0  0  0  0
   -3.0580   -2.8390    2.3650 C   0  0  0  0  0  0  0  0  0  0  0  0
   -2.9570   -2.4640    1.0330 C   0  0  0  0  0  0  0  0  0  0  0  0
   -2.3810   -3.2930    0.1420 C   0  0  0  0  0  0  0  0  0  0  0  0
   -2.2000   -3.0140   -1.2740 C   0  0  0  0  0  0  0  0  0  0  0  0
   -0.8160   -2.4180   -1.5040 C   0  0  2  0  0  0  0  0  0  0  0  0
   -0.5740   -1.1840   -0.8480 N   0  0  0  0  0  0  0  0  0  0  0  0
   -0.4330   -2.4630   -2.9300 C   0  0  0  0  0  0  0  0  0  0  0  0
   -0.5830   -3.4810   -3.6480 O   0  0  0  0  0  0  0  0  0  0  0  0
   -1.8960   -4.5260    0.6020 C   0  0  0  0  0  0  0  0  0  0  0  0
   -1.9970   -4.8950    1.9240 C   0  0  0  0  0  0  0  0  0  0  0  0
    0.1220   -1.3400   -3.5310 O   0  0  0  0  0  0  0  0  0  0  0  0
   -2.3200   -3.7460    4.8330 H   0  0  0  0  0  0  0  0  0  0  0  0
   -3.5240   -2.1670    3.0850 H   0  0  0  0  0  0  0  0  0  0  0  0
   -3.3620   -1.5160    0.7760 H   0  0  0  0  0  0  0  0  0  0  0  0
   -2.2060   -3.9740   -1.8400 H   0  0  0  0  0  0  0  0  0  0  0  0
   -3.0020   -2.3910   -1.7200 H   0  0  0  0  0  0  0  0  0  0  0  0
   -0.1550   -3.1950   -0.9640 H   0  0  0  0  0  0  0  0  0  0  0  0
    0.3510   -1.0480   -0.3440 H   0  0  0  0  0  0  0  0  0  0  0  0
   -1.4240   -5.2280   -0.0780 H   0  0  0  0  0  0  0  0  0  0  0  0
   -1.6100   -5.8550    2.2340 H   0  0  0  0  0  0  0  0  0  0  0  0
  1  9  1  0  0  0  0
  1 11  1  0  0  0  0
  1 10  1  0  0  0  0
  2  1  1  0  0  0  0
  3 15  1  0  0  0  0
  3 13  1  0  0  0  0
  3  2  1  0  0  0  0
  4 16  1  0  0  0  0
  4  2  1  0  0  0  0
  4  5  1  0  0  0  0
  5 18  1  6  0  0  0
  5  6  1  0  0  0  0
  6 19  1  0  0  0  0
  6 20  1  0  0  0  0
  7  5  1  0  0  0  0
  7  8  2  0  0  0  0
 12  2  1  0  0  0  0
 14  3  1  0  0  0  0
 17  4  1  0  0  0  0
 21 29  1  0  0  0  0
 21 30  1  0  0  0  0
 21 22  1  0  0  0  0
 22 23  1  0  0  0  0
 23 32  1  0  0  0  0
 23 24  1  0  0  0  0
 24 34  1  0  0  0  0
 24 25  1  0  0  0  0
 25 26  1  0  0  0  0
 25 36  1  1  0  0  0
 26  7  1  0  0  0  0
 27 25  1  0  0  0  0
 28 27  2  0  0  0  0
 31 21  1  0  0  0  0
 33 23  1  0  0  0  0
 35 24  1  0  0  0  0
 37 26  1  0  0  0  0
 38 51  1  0  0  0  0
 39 38  1  0  0  0  0
 40 39  1  0  0  0  0
 40 52  1  0  0  0  0
 41 40  2  0  0  0  0
 42 48  2  0  0  0  0
 42 41  1  0  0  0  0
 43 42  1  0  0  0  0
 44 43  1  0  0  0  0
 44 56  1  1  0  0  0
 44 45  1  0  0  0  0
 45 27  1  0  0  0  0
 45 57  1  0  0  0  0
 46 44  1  0  0  0  0
 47 46  2  0  0  0  0
 48 49  1  0  0  0  0
 49 59  1  0  0  0  0
 49 39  2  0  0  0  0
 50 46  1  0  0  0  0
 53 41  1  0  0  0  0
 54 43  1  0  0  0  0
 55 43  1  0  0  0  0
 58 48  1  0  0  0  0
M  END
$$$$
