LND.pdb
 OpenBabel07022418443D

 48 47  0  0  1  0  0  0  0  0999 V2000
    1.2950   -4.8360    3.1290 C   0  0  0  0  0  0  0  0  0  0  0  0
    1.5820   -3.3340    3.3800 C   0  0  0  0  0  0  0  0  0  0  0  0
    0.2760   -2.6470    3.2630 C   0  0  0  0  0  0  0  0  0  0  0  0
    2.6640   -2.9530    2.4450 C   0  0  0  0  0  0  0  0  0  0  0  0
    3.1530   -1.5450    2.4860 C   0  0  2  0  0  0  0  0  0  0  0  0
    3.6510   -1.2360    3.8150 N   0  0  0  0  0  0  0  0  0  0  0  0
    2.2450   -0.5440    1.9280 C   0  0  0  0  0  0  0  0  0  0  0  0
    1.9270    0.4980    2.5940 O   0  0  0  0  0  0  0  0  0  0  0  0
    0.6420   -4.9010    2.2260 H   0  0  0  0  0  0  0  0  0  0  0  0
    2.2290   -5.3940    3.0180 H   0  0  0  0  0  0  0  0  0  0  0  0
    0.6850   -5.1970    3.9800 H   0  0  0  0  0  0  0  0  0  0  0  0
    1.9130   -3.2530    4.4390 H   0  0  0  0  0  0  0  0  0  0  0  0
   -0.4360   -3.2470    2.6170 H   0  0  0  0  0  0  0  0  0  0  0  0
    0.2920   -1.6560    2.8090 H   0  0  0  0  0  0  0  0  0  0  0  0
   -0.2710   -2.5700    4.2330 H   0  0  0  0  0  0  0  0  0  0  0  0
    3.5670   -3.5910    2.7100 H   0  0  0  0  0  0  0  0  0  0  0  0
    2.4550   -3.2710    1.3860 H   0  0  0  0  0  0  0  0  0  0  0  0
    4.0830   -1.5280    1.8110 H   0  0  0  0  0  0  0  0  0  0  0  0
    3.9960   -2.1260    4.2200 H   0  0  0  0  0  0  0  0  0  0  0  0
    4.3340   -0.4630    3.8300 H   0  0  0  0  0  0  0  0  0  0  0  0
    0.5950    3.2470   -1.4760 N   0  0  0  0  0  0  0  0  0  0  0  0
    0.6960    1.8890   -1.8830 C   0  0  0  0  0  0  0  0  0  0  0  0
    0.0860    1.5570   -2.9430 O   0  0  0  0  0  0  0  0  0  0  0  0
    1.4480    0.8810   -1.1570 C   0  0  0  0  0  0  0  0  0  0  0  0
    0.7880    0.2660    0.0340 C   0  0  2  0  0  0  0  0  0  0  0  0
    1.7120   -0.7360    0.6250 N   0  0  0  0  0  0  0  0  0  0  0  0
   -0.5010   -0.4030   -0.2330 C   0  0  0  0  0  0  0  0  0  0  0  0
   -0.6440   -1.6460   -0.0640 O   0  0  0  0  0  0  0  0  0  0  0  0
    0.2740    4.0110   -2.0910 H   0  0  0  0  0  0  0  0  0  0  0  0
    0.8570    3.4930   -0.5070 H   0  0  0  0  0  0  0  0  0  0  0  0
    2.4240    1.3590   -0.8520 H   0  0  0  0  0  0  0  0  0  0  0  0
    1.7840    0.0360   -1.8230 H   0  0  0  0  0  0  0  0  0  0  0  0
    0.6780    1.0590    0.8040 H   0  0  0  0  0  0  0  0  0  0  0  0
    1.9880   -1.5960    0.0980 H   0  0  0  0  0  0  0  0  0  0  0  0
   -1.6220    0.3040   -0.6800 N   0  0  0  0  0  0  0  0  0  0  0  0
   -2.9070   -0.2780   -0.9570 C   0  0  1  0  0  0  0  0  0  0  0  0
   -3.8660    0.2660    0.1030 C   0  0  0  0  0  0  0  0  0  0  0  0
   -3.9460    1.7460    0.0360 C   0  0  0  0  0  0  0  0  0  0  0  0
   -3.0560    2.4840    0.5320 O   0  0  0  0  0  0  0  0  0  0  0  0
   -3.4540   -0.0800   -2.2790 C   0  0  0  0  0  0  0  0  0  0  0  0
   -4.5730   -0.5770   -2.5580 O   0  0  0  0  0  0  0  0  0  0  0  0
   -5.0010    2.3700   -0.5740 O   0  0  0  0  0  0  0  0  0  0  0  0
   -2.8260    0.6290   -3.2820 O   0  0  0  0  0  0  0  0  0  0  0  0
   -1.5480    1.3330   -0.8230 H   0  0  0  0  0  0  0  0  0  0  0  0
   -2.8090   -1.3760   -0.7600 H   0  0  0  0  0  0  0  0  0  0  0  0
   -4.8730   -0.2000   -0.0240 H   0  0  0  0  0  0  0  0  0  0  0  0
   -3.4600   -0.0290    1.1030 H   0  0  0  0  0  0  0  0  0  0  0  0
   -4.9150    3.1860   -1.1680 H   0  0  0  0  0  0  0  0  0  0  0  0
  1  2  1  0  0  0  0
  1 11  1  0  0  0  0
  2 12  1  0  0  0  0
  3  2  1  0  0  0  0
  3 15  1  0  0  0  0
  4  5  1  0  0  0  0
  4 16  1  0  0  0  0
  4  2  1  0  0  0  0
  5 18  1  6  0  0  0
  5  6  1  0  0  0  0
  6 20  1  0  0  0  0
  6 19  1  0  0  0  0
  7  5  1  0  0  0  0
  7  8  2  0  0  0  0
  9  1  1  0  0  0  0
 10  1  1  0  0  0  0
 13  3  1  0  0  0  0
 14  3  1  0  0  0  0
 17  4  1  0  0  0  0
 21 30  1  0  0  0  0
 22 21  1  0  0  0  0
 22 24  1  0  0  0  0
 23 22  2  0  0  0  0
 24 31  1  0  0  0  0
 24 25  1  0  0  0  0
 25 26  1  0  0  0  0
 25 33  1  1  0  0  0
 26  7  1  0  0  0  0
 27 28  2  0  0  0  0
 27 25  1  0  0  0  0
 29 21  1  0  0  0  0
 32 24  1  0  0  0  0
 34 26  1  0  0  0  0
 35 27  1  0  0  0  0
 36 45  1  1  0  0  0
 36 35  1  0  0  0  0
 36 37  1  0  0  0  0
 37 47  1  0  0  0  0
 38 37  1  0  0  0  0
 38 39  2  0  0  0  0
 40 36  1  0  0  0  0
 41 40  1  0  0  0  0
 42 38  1  0  0  0  0
 43 40  2  0  0  0  0
 44 35  1  0  0  0  0
 46 37  1  0  0  0  0
 48 42  1  0  0  0  0
M  END
$$$$
