LNG.pdb
 OpenBabel07022418443D

 42 41  0  0  1  0  0  0  0  0999 V2000
    0.8460   -3.9710    4.4000 C   0  0  0  0  0  0  0  0  0  0  0  0
   -0.3250   -3.5430    3.5760 C   0  0  0  0  0  0  0  0  0  0  0  0
   -1.0070   -4.7440    2.9250 C   0  0  0  0  0  0  0  0  0  0  0  0
    0.1050   -2.6350    2.4540 C   0  0  0  0  0  0  0  0  0  0  0  0
    0.7800   -1.3760    2.9470 C   0  0  2  0  0  0  0  0  0  0  0  0
   -0.1500   -0.6670    3.7770 N   0  0  0  0  0  0  0  0  0  0  0  0
    1.1070   -0.5980    1.6930 C   0  0  0  0  0  0  0  0  0  0  0  0
    1.9260   -1.1320    0.8980 O   0  0  0  0  0  0  0  0  0  0  0  0
    0.7690   -3.4380    5.3850 H   0  0  0  0  0  0  0  0  0  0  0  0
    0.8130   -5.0640    4.5390 H   0  0  0  0  0  0  0  0  0  0  0  0
    1.8000   -3.7140    3.9170 H   0  0  0  0  0  0  0  0  0  0  0  0
   -1.0800   -2.9910    4.1740 H   0  0  0  0  0  0  0  0  0  0  0  0
   -1.9660   -4.4190    2.4820 H   0  0  0  0  0  0  0  0  0  0  0  0
   -0.3860   -5.1630    2.1130 H   0  0  0  0  0  0  0  0  0  0  0  0
   -1.1180   -5.5310    3.6910 H   0  0  0  0  0  0  0  0  0  0  0  0
    0.8810   -3.1900    1.8610 H   0  0  0  0  0  0  0  0  0  0  0  0
   -0.7390   -2.3520    1.8220 H   0  0  0  0  0  0  0  0  0  0  0  0
    1.7330   -1.5570    3.4440 H   0  0  0  0  0  0  0  0  0  0  0  0
    0.1950    0.2580    4.1010 H   0  0  0  0  0  0  0  0  0  0  0  0
   -1.0400   -0.4970    3.2600 H   0  0  0  0  0  0  0  0  0  0  0  0
    2.4980    3.8500   -0.9920 N   0  0  0  0  0  0  0  0  0  0  0  0
    2.6880    2.4510   -0.9970 C   0  0  0  0  0  0  0  0  0  0  0  0
    3.1910    1.8500   -1.9990 O   0  0  0  0  0  0  0  0  0  0  0  0
    2.2860    1.7040    0.1950 C   0  0  0  0  0  0  0  0  0  0  0  0
    0.8110    1.4160    0.2610 C   0  0  2  0  0  0  0  0  0  0  0  0
    0.4980    0.6610    1.4670 N   0  0  0  0  0  0  0  0  0  0  0  0
    0.2380    0.7900   -0.9350 C   0  0  0  0  0  0  0  0  0  0  0  0
   -0.2890   -0.3720   -0.8530 O   0  0  0  0  0  0  0  0  0  0  0  0
    2.1410    4.3220   -1.8330 H   0  0  0  0  0  0  0  0  0  0  0  0
    2.7220    4.3910   -0.1450 H   0  0  0  0  0  0  0  0  0  0  0  0
    2.5070    2.3240    1.1180 H   0  0  0  0  0  0  0  0  0  0  0  0
    2.9400    0.8310    0.2880 H   0  0  0  0  0  0  0  0  0  0  0  0
    0.3250    2.4210    0.3910 H   0  0  0  0  0  0  0  0  0  0  0  0
   -0.1660    1.0020    2.1920 H   0  0  0  0  0  0  0  0  0  0  0  0
    0.2130    1.3790   -2.2130 N   0  0  0  0  0  0  0  0  0  0  0  0
   -0.3680    0.6970   -3.3610 C   0  0  0  0  0  0  0  0  0  0  0  0
   -1.7980    0.3800   -3.1570 C   0  0  0  0  0  0  0  0  0  0  0  0
   -2.3940   -0.2070   -4.0950 O   0  0  0  0  0  0  0  0  0  0  0  0
   -2.5140    0.6800   -2.0200 O   0  0  0  0  0  0  0  0  0  0  0  0
    0.6000    2.3300   -2.3580 H   0  0  0  0  0  0  0  0  0  0  0  0
    0.1910   -0.2390   -3.5480 H   0  0  0  0  0  0  0  0  0  0  0  0
   -0.3050    1.3210   -4.2730 H   0  0  0  0  0  0  0  0  0  0  0  0
  1 10  1  0  0  0  0
  1  9  1  0  0  0  0
  2 12  1  0  0  0  0
  2  1  1  0  0  0  0
  3  2  1  0  0  0  0
  3 15  1  0  0  0  0
  4  5  1  0  0  0  0
  4  2  1  0  0  0  0
  5 18  1  1  0  0  0
  5  6  1  0  0  0  0
  6 19  1  0  0  0  0
  7  5  1  0  0  0  0
  8  7  2  0  0  0  0
 11  1  1  0  0  0  0
 13  3  1  0  0  0  0
 14  3  1  0  0  0  0
 16  4  1  0  0  0  0
 17  4  1  0  0  0  0
 20  6  1  0  0  0  0
 21 30  1  0  0  0  0
 22 21  1  0  0  0  0
 22 24  1  0  0  0  0
 23 22  2  0  0  0  0
 24 25  1  0  0  0  0
 24 32  1  0  0  0  0
 24 31  1  0  0  0  0
 25 33  1  1  0  0  0
 25 26  1  0  0  0  0
 26  7  1  0  0  0  0
 26 34  1  0  0  0  0
 27 28  2  0  0  0  0
 27 25  1  0  0  0  0
 29 21  1  0  0  0  0
 35 27  1  0  0  0  0
 36 37  1  0  0  0  0
 36 35  1  0  0  0  0
 37 39  1  0  0  0  0
 38 37  2  0  0  0  0
 40 35  1  0  0  0  0
 41 36  1  0  0  0  0
 42 36  1  0  0  0  0
M  END
$$$$
