LNI.pdb
 OpenBabel07022418443D

 54 53  0  0  1  0  0  0  0  0999 V2000
   -0.8220   -3.7110    3.4180 C   0  0  0  0  0  0  0  0  0  0  0  0
    0.3060   -2.6750    3.5290 C   0  0  0  0  0  0  0  0  0  0  0  0
   -0.3610   -1.3350    3.3940 C   0  0  0  0  0  0  0  0  0  0  0  0
    1.3090   -2.9990    2.4840 C   0  0  0  0  0  0  0  0  0  0  0  0
    2.5040   -2.0950    2.4250 C   0  0  2  0  0  0  0  0  0  0  0  0
    3.2140   -2.1040    3.6850 N   0  0  0  0  0  0  0  0  0  0  0  0
    2.2210   -0.7140    1.9930 C   0  0  0  0  0  0  0  0  0  0  0  0
    2.4940    0.2280    2.7980 O   0  0  0  0  0  0  0  0  0  0  0  0
   -1.4890   -3.3650    2.6040 H   0  0  0  0  0  0  0  0  0  0  0  0
   -0.4310   -4.7050    3.1750 H   0  0  0  0  0  0  0  0  0  0  0  0
   -1.4090   -3.6710    4.3480 H   0  0  0  0  0  0  0  0  0  0  0  0
    0.6910   -2.7780    4.5670 H   0  0  0  0  0  0  0  0  0  0  0  0
    0.1730   -0.5760    4.0030 H   0  0  0  0  0  0  0  0  0  0  0  0
   -1.4120   -1.3720    3.8130 H   0  0  0  0  0  0  0  0  0  0  0  0
   -0.4660   -0.9700    2.3760 H   0  0  0  0  0  0  0  0  0  0  0  0
    1.7010   -4.0220    2.6920 H   0  0  0  0  0  0  0  0  0  0  0  0
    0.7810   -3.0810    1.5130 H   0  0  0  0  0  0  0  0  0  0  0  0
    3.2550   -2.5000    1.6800 H   0  0  0  0  0  0  0  0  0  0  0  0
    3.6210   -3.0550    3.8070 H   0  0  0  0  0  0  0  0  0  0  0  0
    4.0150   -1.4390    3.5990 H   0  0  0  0  0  0  0  0  0  0  0  0
    2.7370    3.9300   -0.0500 N   0  0  0  0  0  0  0  0  0  0  0  0
    2.1880    2.9060   -0.9080 C   0  0  0  0  0  0  0  0  0  0  0  0
    1.5050    3.3470   -1.8700 O   0  0  0  0  0  0  0  0  0  0  0  0
    2.4430    1.4810   -0.6270 C   0  0  0  0  0  0  0  0  0  0  0  0
    1.4370    1.0090    0.4200 C   0  0  2  0  0  0  0  0  0  0  0  0
    1.6640   -0.3950    0.7230 N   0  0  0  0  0  0  0  0  0  0  0  0
    0.0740    1.2210   -0.1300 C   0  0  0  0  0  0  0  0  0  0  0  0
   -0.3570    2.3680   -0.4140 O   0  0  0  0  0  0  0  0  0  0  0  0
    2.1980    4.7940    0.1810 H   0  0  0  0  0  0  0  0  0  0  0  0
    3.6880    3.8430    0.3690 H   0  0  0  0  0  0  0  0  0  0  0  0
    2.3430    0.9030   -1.5670 H   0  0  0  0  0  0  0  0  0  0  0  0
    3.4400    1.3980   -0.1670 H   0  0  0  0  0  0  0  0  0  0  0  0
    1.6640    1.6220    1.3110 H   0  0  0  0  0  0  0  0  0  0  0  0
    1.4370   -1.1590    0.0510 H   0  0  0  0  0  0  0  0  0  0  0  0
   -2.7880   -2.6380   -1.3730 C   0  0  0  0  0  0  0  0  0  0  0  0
   -2.0950   -1.7610   -2.3530 C   0  0  0  0  0  0  0  0  0  0  0  0
   -2.3480   -0.2980   -2.2620 C   0  0  2  0  0  0  0  0  0  0  0  0
   -1.5630    0.4200   -3.3420 C   0  0  0  0  0  0  0  0  0  0  0  0
   -2.1760    0.3330   -0.9200 C   0  0  2  0  0  0  0  0  0  0  0  0
   -0.8470    0.1530   -0.3790 N   0  0  0  0  0  0  0  0  0  0  0  0
   -3.1950   -0.0970    0.0380 C   0  0  0  0  0  0  0  0  0  0  0  0
   -2.8640   -0.5750    1.1400 O   0  0  0  0  0  0  0  0  0  0  0  0
   -4.5430    0.0170   -0.2470 O   0  0  0  0  0  0  0  0  0  0  0  0
   -3.8410   -2.3850   -1.2010 H   0  0  0  0  0  0  0  0  0  0  0  0
   -2.8270   -3.7160   -1.7430 H   0  0  0  0  0  0  0  0  0  0  0  0
   -2.2830   -2.7270   -0.3880 H   0  0  0  0  0  0  0  0  0  0  0  0
   -1.0000   -1.9960   -2.4320 H   0  0  0  0  0  0  0  0  0  0  0  0
   -2.4840   -2.0710   -3.3760 H   0  0  0  0  0  0  0  0  0  0  0  0
   -3.4370   -0.1510   -2.5320 H   0  0  0  0  0  0  0  0  0  0  0  0
   -0.8640    1.1680   -2.9340 H   0  0  0  0  0  0  0  0  0  0  0  0
   -0.9710   -0.3110   -3.9310 H   0  0  0  0  0  0  0  0  0  0  0  0
   -2.2170    0.9370   -4.0740 H   0  0  0  0  0  0  0  0  0  0  0  0
   -2.2420    1.4800   -1.0580 H   0  0  0  0  0  0  0  0  0  0  0  0
   -0.5520   -0.8100   -0.1630 H   0  0  0  0  0  0  0  0  0  0  0  0
  1  2  1  0  0  0  0
  1 11  1  0  0  0  0
  2 12  1  0  0  0  0
  3  2  1  0  0  0  0
  3 14  1  0  0  0  0
  3 13  1  0  0  0  0
  4 16  1  0  0  0  0
  4  2  1  0  0  0  0
  5 18  1  6  0  0  0
  5  4  1  0  0  0  0
  5  6  1  0  0  0  0
  6 19  1  0  0  0  0
  7  5  1  0  0  0  0
  7  8  2  0  0  0  0
  9  1  1  0  0  0  0
 10  1  1  0  0  0  0
 15  3  1  0  0  0  0
 17  4  1  0  0  0  0
 20  6  1  0  0  0  0
 21 29  1  0  0  0  0
 21 30  1  0  0  0  0
 22 24  1  0  0  0  0
 22 21  1  0  0  0  0
 23 22  2  0  0  0  0
 24 32  1  0  0  0  0
 24 25  1  0  0  0  0
 25 26  1  0  0  0  0
 25 33  1  1  0  0  0
 26  7  1  0  0  0  0
 27 25  1  0  0  0  0
 28 27  2  0  0  0  0
 31 24  1  0  0  0  0
 34 26  1  0  0  0  0
 35 44  1  0  0  0  0
 35 46  1  0  0  0  0
 36 37  1  0  0  0  0
 36 35  1  0  0  0  0
 37 49  1  6  0  0  0
 37 39  1  0  0  0  0
 38 50  1  0  0  0  0
 38 37  1  0  0  0  0
 39 53  1  6  0  0  0
 39 40  1  0  0  0  0
 39 41  1  0  0  0  0
 40 54  1  0  0  0  0
 40 27  1  0  0  0  0
 41 42  1  0  0  0  0
 43 41  2  0  0  0  0
 45 35  1  0  0  0  0
 47 36  1  0  0  0  0
 48 36  1  0  0  0  0
 51 38  1  0  0  0  0
 52 38  1  0  0  0  0
M  END
$$$$
