LNK.pdb
 OpenBabel07022418443D

 56 55  0  0  1  0  0  0  0  0999 V2000
    4.1990   -2.5380   -0.9350 C   0  0  0  0  0  0  0  0  0  0  0  0
    4.5560   -1.3660   -0.0580 C   0  0  0  0  0  0  0  0  0  0  0  0
    4.5270   -0.1380   -0.9340 C   0  0  0  0  0  0  0  0  0  0  0  0
    3.8400   -1.2530    1.2060 C   0  0  0  0  0  0  0  0  0  0  0  0
    2.3880   -1.1110    1.2780 C   0  0  2  0  0  0  0  0  0  0  0  0
    1.5690   -2.1310    0.6890 N   0  0  0  0  0  0  0  0  0  0  0  0
    1.8010    0.2180    1.0220 C   0  0  0  0  0  0  0  0  0  0  0  0
    2.3210    1.2990    1.4110 O   0  0  0  0  0  0  0  0  0  0  0  0
    4.9760   -2.5570   -1.7390 H   0  0  0  0  0  0  0  0  0  0  0  0
    4.3050   -3.5090   -0.4110 H   0  0  0  0  0  0  0  0  0  0  0  0
    3.2360   -2.4240   -1.4690 H   0  0  0  0  0  0  0  0  0  0  0  0
    5.6560   -1.5120    0.1770 H   0  0  0  0  0  0  0  0  0  0  0  0
    5.5070   -0.0010   -1.4780 H   0  0  0  0  0  0  0  0  0  0  0  0
    4.3930    0.7450   -0.3130 H   0  0  0  0  0  0  0  0  0  0  0  0
    3.7910   -0.2540   -1.7660 H   0  0  0  0  0  0  0  0  0  0  0  0
    4.2620   -0.3390    1.7300 H   0  0  0  0  0  0  0  0  0  0  0  0
    4.1750   -2.0790    1.9080 H   0  0  0  0  0  0  0  0  0  0  0  0
    2.1330   -1.2620    2.4130 H   0  0  0  0  0  0  0  0  0  0  0  0
    0.6270   -2.1640    1.1270 H   0  0  0  0  0  0  0  0  0  0  0  0
    1.9930   -3.0880    0.8230 H   0  0  0  0  0  0  0  0  0  0  0  0
    0.8760    2.2490   -3.5980 N   0  0  0  0  0  0  0  0  0  0  0  0
    0.9550    2.0120   -2.2070 C   0  0  0  0  0  0  0  0  0  0  0  0
    2.0970    1.8460   -1.6790 O   0  0  0  0  0  0  0  0  0  0  0  0
   -0.2680    1.9630   -1.4000 C   0  0  0  0  0  0  0  0  0  0  0  0
   -0.0460    1.6460    0.0560 C   0  0  2  0  0  0  0  0  0  0  0  0
    0.5660    0.3580    0.3000 N   0  0  0  0  0  0  0  0  0  0  0  0
   -1.4100    1.6450    0.6830 C   0  0  0  0  0  0  0  0  0  0  0  0
   -2.1480    2.6620    0.6120 O   0  0  0  0  0  0  0  0  0  0  0  0
    1.7600    2.4710   -4.1140 H   0  0  0  0  0  0  0  0  0  0  0  0
   -0.0200    2.2150   -4.1380 H   0  0  0  0  0  0  0  0  0  0  0  0
   -0.7080    3.0010   -1.4180 H   0  0  0  0  0  0  0  0  0  0  0  0
   -1.0620    1.3260   -1.8560 H   0  0  0  0  0  0  0  0  0  0  0  0
    0.5700    2.4750    0.4770 H   0  0  0  0  0  0  0  0  0  0  0  0
    0.1260   -0.5360   -0.0500 H   0  0  0  0  0  0  0  0  0  0  0  0
   -1.8720    0.5110    1.3520 N   0  0  0  0  0  0  0  0  0  0  0  0
   -3.1630    0.3970    1.9910 C   0  0  1  0  0  0  0  0  0  0  0  0
   -4.0560   -0.5980    1.2820 C   0  0  0  0  0  0  0  0  0  0  0  0
   -3.4500   -2.0000    1.2540 C   0  0  0  0  0  0  0  0  0  0  0  0
   -4.4480   -2.8610    0.5210 C   0  0  0  0  0  0  0  0  0  0  0  0
   -3.9950   -4.2980    0.3900 C   0  0  0  0  0  0  0  0  0  0  0  0
   -2.7620   -4.4280   -0.3280 N   0  0  0  0  0  0  0  0  0  0  0  0
   -3.0090   -0.0450    3.3870 C   0  0  0  0  0  0  0  0  0  0  0  0
   -4.0120   -0.2020    4.1040 O   0  0  0  0  0  0  0  0  0  0  0  0
   -1.7610   -0.2840    3.8940 O   0  0  0  0  0  0  0  0  0  0  0  0
   -1.2600   -0.3310    1.4120 H   0  0  0  0  0  0  0  0  0  0  0  0
   -3.6690    1.3810    1.8840 H   0  0  0  0  0  0  0  0  0  0  0  0
   -4.3520   -0.2660    0.2810 H   0  0  0  0  0  0  0  0  0  0  0  0
   -4.9870   -0.6840    1.8810 H   0  0  0  0  0  0  0  0  0  0  0  0
   -2.4820   -1.9250    0.7590 H   0  0  0  0  0  0  0  0  0  0  0  0
   -3.3230   -2.3940    2.2770 H   0  0  0  0  0  0  0  0  0  0  0  0
   -5.3750   -2.8660    1.1380 H   0  0  0  0  0  0  0  0  0  0  0  0
   -4.7310   -2.4250   -0.4560 H   0  0  0  0  0  0  0  0  0  0  0  0
   -3.9390   -4.7910    1.3770 H   0  0  0  0  0  0  0  0  0  0  0  0
   -4.7990   -4.8270   -0.1700 H   0  0  0  0  0  0  0  0  0  0  0  0
   -2.3500   -3.5450   -0.6610 H   0  0  0  0  0  0  0  0  0  0  0  0
   -2.1210   -5.1480    0.0050 H   0  0  0  0  0  0  0  0  0  0  0  0
  1 10  1  0  0  0  0
  1  2  1  0  0  0  0
  2 12  1  0  0  0  0
  2  4  1  0  0  0  0
  3 14  1  0  0  0  0
  3  2  1  0  0  0  0
  4  5  1  0  0  0  0
  4 16  1  0  0  0  0
  4 17  1  0  0  0  0
  5 18  1  1  0  0  0
  6 20  1  0  0  0  0
  6 19  1  0  0  0  0
  6  5  1  0  0  0  0
  7  5  1  0  0  0  0
  7  8  2  0  0  0  0
  9  1  1  0  0  0  0
 11  1  1  0  0  0  0
 13  3  1  0  0  0  0
 15  3  1  0  0  0  0
 21 22  1  0  0  0  0
 22 23  2  0  0  0  0
 22 24  1  0  0  0  0
 24 25  1  0  0  0  0
 25 26  1  0  0  0  0
 25 33  1  1  0  0  0
 25 27  1  0  0  0  0
 26  7  1  0  0  0  0
 27 35  1  0  0  0  0
 28 27  2  0  0  0  0
 29 21  1  0  0  0  0
 30 21  1  0  0  0  0
 31 24  1  0  0  0  0
 32 24  1  0  0  0  0
 34 26  1  0  0  0  0
 35 45  1  0  0  0  0
 35 36  1  0  0  0  0
 36 46  1  6  0  0  0
 36 42  1  0  0  0  0
 37 48  1  0  0  0  0
 37 36  1  0  0  0  0
 38 37  1  0  0  0  0
 38 50  1  0  0  0  0
 39 51  1  0  0  0  0
 39 38  1  0  0  0  0
 40 39  1  0  0  0  0
 40 53  1  0  0  0  0
 41 56  1  0  0  0  0
 41 40  1  0  0  0  0
 42 44  2  0  0  0  0
 42 43  1  0  0  0  0
 47 37  1  0  0  0  0
 49 38  1  0  0  0  0
 52 39  1  0  0  0  0
 54 40  1  0  0  0  0
 55 41  1  0  0  0  0
M  END
$$$$
