LNY.pdb
 OpenBabel07022418443D

 56 56  0  0  1  0  0  0  0  0999 V2000
    0.5990   -1.9120    4.7780 C   0  0  0  0  0  0  0  0  0  0  0  0
    1.2950   -0.5930    4.5310 C   0  0  0  0  0  0  0  0  0  0  0  0
    1.1330    0.3250    5.7020 C   0  0  0  0  0  0  0  0  0  0  0  0
    0.8760    0.0190    3.2150 C   0  0  0  0  0  0  0  0  0  0  0  0
    1.6020    1.3470    3.0050 C   0  0  2  0  0  0  0  0  0  0  0  0
    1.2850    2.2800    4.0690 N   0  0  0  0  0  0  0  0  0  0  0  0
    1.2560    1.9670    1.7250 C   0  0  0  0  0  0  0  0  0  0  0  0
    0.7440    3.1000    1.6680 O   0  0  0  0  0  0  0  0  0  0  0  0
    0.3990   -2.4550    3.8160 H   0  0  0  0  0  0  0  0  0  0  0  0
   -0.3620   -1.8100    5.3080 H   0  0  0  0  0  0  0  0  0  0  0  0
    1.2900   -2.5700    5.3440 H   0  0  0  0  0  0  0  0  0  0  0  0
    2.3970   -0.8240    4.4560 H   0  0  0  0  0  0  0  0  0  0  0  0
    1.0950   -0.3400    6.6160 H   0  0  0  0  0  0  0  0  0  0  0  0
    0.2190    0.9280    5.7020 H   0  0  0  0  0  0  0  0  0  0  0  0
    2.0540    0.9460    5.8770 H   0  0  0  0  0  0  0  0  0  0  0  0
   -0.2040    0.2760    3.2510 H   0  0  0  0  0  0  0  0  0  0  0  0
    1.1090   -0.6760    2.3990 H   0  0  0  0  0  0  0  0  0  0  0  0
    2.6860    1.1030    3.1100 H   0  0  0  0  0  0  0  0  0  0  0  0
    2.0960    2.9580    4.1140 H   0  0  0  0  0  0  0  0  0  0  0  0
    0.4520    2.8810    3.8480 H   0  0  0  0  0  0  0  0  0  0  0  0
    3.9770    0.7820   -3.0300 N   0  0  0  0  0  0  0  0  0  0  0  0
    2.8820    0.8300   -2.1300 C   0  0  0  0  0  0  0  0  0  0  0  0
    2.5020   -0.2680   -1.6480 O   0  0  0  0  0  0  0  0  0  0  0  0
    2.2190    2.1380   -1.7780 C   0  0  0  0  0  0  0  0  0  0  0  0
    1.1440    1.9130   -0.8030 C   0  0  2  0  0  0  0  0  0  0  0  0
    1.4660    1.3500    0.4510 N   0  0  0  0  0  0  0  0  0  0  0  0
    0.0670    1.0830   -1.4060 C   0  0  0  0  0  0  0  0  0  0  0  0
   -0.3930    1.3910   -2.5300 O   0  0  0  0  0  0  0  0  0  0  0  0
    4.6880    0.0380   -2.9030 H   0  0  0  0  0  0  0  0  0  0  0  0
    4.0810    1.4570   -3.7920 H   0  0  0  0  0  0  0  0  0  0  0  0
    2.9550    2.9100   -1.5330 H   0  0  0  0  0  0  0  0  0  0  0  0
    1.7570    2.4710   -2.7370 H   0  0  0  0  0  0  0  0  0  0  0  0
    0.6570    2.9160   -0.5950 H   0  0  0  0  0  0  0  0  0  0  0  0
    1.8950    0.4010    0.4780 H   0  0  0  0  0  0  0  0  0  0  0  0
   -4.7290   -6.0840   -3.4540 O   0  0  0  0  0  0  0  0  0  0  0  0
   -3.8470   -5.1730   -2.9200 C   0  0  0  0  0  0  0  0  0  0  0  0
   -3.0410   -4.4490   -3.7770 C   0  0  0  0  0  0  0  0  0  0  0  0
   -2.1390   -3.5240   -3.3240 C   0  0  0  0  0  0  0  0  0  0  0  0
   -1.9960   -3.2740   -1.9540 C   0  0  0  0  0  0  0  0  0  0  0  0
   -1.0410   -2.3130   -1.4150 C   0  0  0  0  0  0  0  0  0  0  0  0
   -1.5250   -0.8970   -1.3150 C   0  0  2  0  0  0  0  0  0  0  0  0
   -0.4640   -0.0550   -0.7510 N   0  0  0  0  0  0  0  0  0  0  0  0
   -2.6840   -0.8500   -0.3960 C   0  0  0  0  0  0  0  0  0  0  0  0
   -2.6320   -0.1960    0.6890 O   0  0  0  0  0  0  0  0  0  0  0  0
   -2.8070   -4.0060   -1.1150 C   0  0  0  0  0  0  0  0  0  0  0  0
   -3.7250   -4.9460   -1.5760 C   0  0  0  0  0  0  0  0  0  0  0  0
   -3.8870   -1.4970   -0.6390 O   0  0  0  0  0  0  0  0  0  0  0  0
   -4.4530   -7.0150   -3.7330 H   0  0  0  0  0  0  0  0  0  0  0  0
   -3.1350   -4.6250   -4.8380 H   0  0  0  0  0  0  0  0  0  0  0  0
   -1.5080   -2.9550   -3.9760 H   0  0  0  0  0  0  0  0  0  0  0  0
   -0.6540   -2.6940   -0.4370 H   0  0  0  0  0  0  0  0  0  0  0  0
   -0.1580   -2.3020   -2.0880 H   0  0  0  0  0  0  0  0  0  0  0  0
   -1.7930   -0.4650   -2.2900 H   0  0  0  0  0  0  0  0  0  0  0  0
   -0.0590   -0.2940    0.2010 H   0  0  0  0  0  0  0  0  0  0  0  0
   -2.7690   -3.8920   -0.0370 H   0  0  0  0  0  0  0  0  0  0  0  0
   -4.3520   -5.5090   -0.8840 H   0  0  0  0  0  0  0  0  0  0  0  0
  1 10  1  0  0  0  0
  1 11  1  0  0  0  0
  2  1  1  0  0  0  0
  2  3  1  0  0  0  0
  3 15  1  0  0  0  0
  3 13  1  0  0  0  0
  4 16  1  0  0  0  0
  4  2  1  0  0  0  0
  5 18  1  1  0  0  0
  5  4  1  0  0  0  0
  5  6  1  0  0  0  0
  6 19  1  0  0  0  0
  7  5  1  0  0  0  0
  8  7  2  0  0  0  0
  9  1  1  0  0  0  0
 12  2  1  0  0  0  0
 14  3  1  0  0  0  0
 17  4  1  0  0  0  0
 20  6  1  0  0  0  0
 21 29  1  0  0  0  0
 21 22  1  0  0  0  0
 22 24  1  0  0  0  0
 22 23  2  0  0  0  0
 24 31  1  0  0  0  0
 24 25  1  0  0  0  0
 25 33  1  1  0  0  0
 25 26  1  0  0  0  0
 26 34  1  0  0  0  0
 26  7  1  0  0  0  0
 27 25  1  0  0  0  0
 27 42  1  0  0  0  0
 28 27  2  0  0  0  0
 30 21  1  0  0  0  0
 32 24  1  0  0  0  0
 35 36  1  0  0  0  0
 36 46  1  0  0  0  0
 37 38  1  0  0  0  0
 37 36  2  0  0  0  0
 38 39  2  0  0  0  0
 39 40  1  0  0  0  0
 39 45  1  0  0  0  0
 40 41  1  0  0  0  0
 40 51  1  0  0  0  0
 41 53  1  6  0  0  0
 41 42  1  0  0  0  0
 41 43  1  0  0  0  0
 42 54  1  0  0  0  0
 43 44  1  0  0  0  0
 45 55  1  0  0  0  0
 46 45  2  0  0  0  0
 46 56  1  0  0  0  0
 47 43  2  0  0  0  0
 48 35  1  0  0  0  0
 49 37  1  0  0  0  0
 50 38  1  0  0  0  0
 52 40  1  0  0  0  0
M  END
$$$$
