LPA.pdb
 OpenBabel07022418473D

 45 45  0  0  1  0  0  0  0  0999 V2000
   -0.7720   -3.3960    0.6830 C   0  0  0  0  0  0  0  0  0  0  0  0
    0.3940   -3.8830   -0.1490 C   0  0  0  0  0  0  0  0  0  0  0  0
    1.0700   -5.0890    0.4490 C   0  0  0  0  0  0  0  0  0  0  0  0
    1.3950   -2.7360   -0.3590 C   0  0  0  0  0  0  0  0  0  0  0  0
    0.5720   -1.6570   -1.0890 C   0  0  2  0  0  0  0  0  0  0  0  0
    0.0990   -2.2570   -2.3440 N   0  0  0  0  0  0  0  0  0  0  0  0
    1.3340   -0.4320   -1.3410 C   0  0  0  0  0  0  0  0  0  0  0  0
    1.7540   -0.2960   -2.5610 O   0  0  0  0  0  0  0  0  0  0  0  0
   -1.6110   -3.0350    0.0430 H   0  0  0  0  0  0  0  0  0  0  0  0
   -1.1700   -4.2480    1.2770 H   0  0  0  0  0  0  0  0  0  0  0  0
   -0.5010   -2.5690    1.3490 H   0  0  0  0  0  0  0  0  0  0  0  0
   -0.0330   -4.2120   -1.1280 H   0  0  0  0  0  0  0  0  0  0  0  0
    0.8740   -6.0200   -0.1330 H   0  0  0  0  0  0  0  0  0  0  0  0
    2.1770   -4.9180    0.4730 H   0  0  0  0  0  0  0  0  0  0  0  0
    0.6950   -5.2440    1.4680 H   0  0  0  0  0  0  0  0  0  0  0  0
    1.6210   -2.3570    0.6390 H   0  0  0  0  0  0  0  0  0  0  0  0
    2.2540   -3.0570   -0.9440 H   0  0  0  0  0  0  0  0  0  0  0  0
   -0.3070   -1.4810   -0.4620 H   0  0  0  0  0  0  0  0  0  0  0  0
    0.8800   -2.7030   -2.8630 H   0  0  0  0  0  0  0  0  0  0  0  0
   -0.4320   -1.5690   -2.8970 H   0  0  0  0  0  0  0  0  0  0  0  0
    1.6260    0.5630   -0.3910 N   0  0  0  0  0  0  0  0  0  0  0  0
    2.4310    1.7640   -0.7020 C   0  0  0  0  0  0  0  0  0  0  0  0
    3.1620    1.9680    0.6130 C   0  0  0  0  0  0  0  0  0  0  0  0
    2.0230    1.8130    1.5880 C   0  0  0  0  0  0  0  0  0  0  0  0
    1.2370    0.6700    0.9700 C   0  0  1  0  0  0  0  0  0  0  0  0
   -0.2280    0.9540    1.0240 C   0  0  0  0  0  0  0  0  0  0  0  0
   -0.9490    1.1220    0.0060 O   0  0  0  0  0  0  0  0  0  0  0  0
    1.7770    2.6460   -0.8530 H   0  0  0  0  0  0  0  0  0  0  0  0
    3.1270    1.5740   -1.5290 H   0  0  0  0  0  0  0  0  0  0  0  0
    3.8360    1.1040    0.7450 H   0  0  0  0  0  0  0  0  0  0  0  0
    3.6660    2.9400    0.6780 H   0  0  0  0  0  0  0  0  0  0  0  0
    1.4000    2.7330    1.6590 H   0  0  0  0  0  0  0  0  0  0  0  0
    2.4030    1.5170    2.5850 H   0  0  0  0  0  0  0  0  0  0  0  0
    1.5260   -0.2310    1.5220 H   0  0  0  0  0  0  0  0  0  0  0  0
   -2.9620    0.0700    2.9760 C   0  0  0  0  0  0  0  0  0  0  0  0
   -2.3350    1.3310    2.3660 C   0  0  2  0  0  0  0  0  0  0  0  0
   -0.9150    1.0560    2.2770 N   0  0  0  0  0  0  0  0  0  0  0  0
   -2.6460    2.5010    3.1800 C   0  0  0  0  0  0  0  0  0  0  0  0
   -3.8320    2.8630    3.3480 O   0  0  0  0  0  0  0  0  0  0  0  0
   -1.6420    3.2280    3.7770 O   0  0  0  0  0  0  0  0  0  0  0  0
   -2.3940   -0.8010    2.5800 H   0  0  0  0  0  0  0  0  0  0  0  0
   -4.0420    0.0120    2.7500 H   0  0  0  0  0  0  0  0  0  0  0  0
   -2.7570    0.1110    4.0690 H   0  0  0  0  0  0  0  0  0  0  0  0
   -2.8090    1.4490    1.3810 H   0  0  0  0  0  0  0  0  0  0  0  0
   -0.3830    0.9280    3.1640 H   0  0  0  0  0  0  0  0  0  0  0  0
  1 10  1  0  0  0  0
  1 11  1  0  0  0  0
  2  3  1  0  0  0  0
  2  1  1  0  0  0  0
  3 14  1  0  0  0  0
  3 15  1  0  0  0  0
  4  2  1  0  0  0  0
  4 16  1  0  0  0  0
  5 18  1  1  0  0  0
  5  4  1  0  0  0  0
  6  5  1  0  0  0  0
  7  5  1  0  0  0  0
  7 21  1  0  0  0  0
  8  7  2  0  0  0  0
  9  1  1  0  0  0  0
 12  2  1  0  0  0  0
 13  3  1  0  0  0  0
 17  4  1  0  0  0  0
 19  6  1  0  0  0  0
 20  6  1  0  0  0  0
 21 25  1  0  0  0  0
 22 21  1  0  0  0  0
 22 23  1  0  0  0  0
 23 31  1  0  0  0  0
 23 30  1  0  0  0  0
 23 24  1  0  0  0  0
 24 32  1  0  0  0  0
 24 33  1  0  0  0  0
 25 26  1  0  0  0  0
 25 34  1  1  0  0  0
 25 24  1  0  0  0  0
 26 37  1  0  0  0  0
 27 26  2  0  0  0  0
 28 22  1  0  0  0  0
 29 22  1  0  0  0  0
 35 43  1  0  0  0  0
 36 44  1  6  0  0  0
 36 35  1  0  0  0  0
 36 38  1  0  0  0  0
 37 36  1  0  0  0  0
 37 45  1  0  0  0  0
 38 39  2  0  0  0  0
 38 40  1  0  0  0  0
 41 35  1  0  0  0  0
 42 35  1  0  0  0  0
M  END
$$$$
