LPC.pdb
 OpenBabel07022418473D

 46 46  0  0  1  0  0  0  0  0999 V2000
    1.7240   -5.0580    0.5220 C   0  0  0  0  0  0  0  0  0  0  0  0
    2.0360   -4.3970    1.8140 C   0  0  0  0  0  0  0  0  0  0  0  0
    1.0150   -4.9340    2.8310 C   0  0  0  0  0  0  0  0  0  0  0  0
    2.0910   -2.9190    1.8260 C   0  0  0  0  0  0  0  0  0  0  0  0
    0.8290   -2.1860    1.4550 C   0  0  2  0  0  0  0  0  0  0  0  0
    0.3870   -2.5120    0.1180 N   0  0  0  0  0  0  0  0  0  0  0  0
    0.9690   -0.7430    1.7150 C   0  0  0  0  0  0  0  0  0  0  0  0
    1.0020   -0.4220    2.9550 O   0  0  0  0  0  0  0  0  0  0  0  0
    1.9010   -4.4320   -0.3800 H   0  0  0  0  0  0  0  0  0  0  0  0
    2.4590   -5.9170    0.3820 H   0  0  0  0  0  0  0  0  0  0  0  0
    0.7370   -5.5600    0.5190 H   0  0  0  0  0  0  0  0  0  0  0  0
    3.0350   -4.7760    2.1870 H   0  0  0  0  0  0  0  0  0  0  0  0
    1.1560   -4.3360    3.7410 H   0  0  0  0  0  0  0  0  0  0  0  0
    1.2510   -6.0050    3.0880 H   0  0  0  0  0  0  0  0  0  0  0  0
   -0.0100   -4.8700    2.4390 H   0  0  0  0  0  0  0  0  0  0  0  0
    2.3620   -2.5770    2.8540 H   0  0  0  0  0  0  0  0  0  0  0  0
    2.9060   -2.5770    1.1230 H   0  0  0  0  0  0  0  0  0  0  0  0
   -0.0010   -2.5410    2.1420 H   0  0  0  0  0  0  0  0  0  0  0  0
   -0.3680   -1.7900   -0.1280 H   0  0  0  0  0  0  0  0  0  0  0  0
   -0.1610   -3.4320    0.1280 H   0  0  0  0  0  0  0  0  0  0  0  0
    1.0690    0.2920    0.7890 N   0  0  0  0  0  0  0  0  0  0  0  0
    1.0950    0.1850   -0.6540 C   0  0  0  0  0  0  0  0  0  0  0  0
    1.9990    1.3450   -1.1160 C   0  0  0  0  0  0  0  0  0  0  0  0
    2.2530    2.1610    0.1270 C   0  0  0  0  0  0  0  0  0  0  0  0
    1.1650    1.7270    1.0380 C   0  0  1  0  0  0  0  0  0  0  0  0
   -0.1010    2.4410    0.9370 C   0  0  0  0  0  0  0  0  0  0  0  0
   -0.0700    3.7090    1.0680 O   0  0  0  0  0  0  0  0  0  0  0  0
    1.6220   -0.7880   -0.8860 H   0  0  0  0  0  0  0  0  0  0  0  0
    0.1120    0.2640   -1.1400 H   0  0  0  0  0  0  0  0  0  0  0  0
    1.4680    1.9080   -1.9100 H   0  0  0  0  0  0  0  0  0  0  0  0
    2.9480    0.9080   -1.4620 H   0  0  0  0  0  0  0  0  0  0  0  0
    2.1640    3.2330   -0.1820 H   0  0  0  0  0  0  0  0  0  0  0  0
    3.2770    1.9640    0.5510 H   0  0  0  0  0  0  0  0  0  0  0  0
    1.5710    1.8050    2.0830 H   0  0  0  0  0  0  0  0  0  0  0  0
   -1.3680    1.8530    0.7070 N   0  0  0  0  0  0  0  0  0  0  0  0
   -2.5310    2.6840    0.6310 C   0  0  1  0  0  0  0  0  0  0  0  0
   -3.1860    2.6380   -0.7340 C   0  0  0  0  0  0  0  0  0  0  0  0
   -3.7230    0.9910   -1.2010 S   0  0  0  0  0  0  0  0  0  0  0  0
   -3.4580    2.3510    1.7150 C   0  0  0  0  0  0  0  0  0  0  0  0
   -3.1460    1.4440    2.5240 O   0  0  0  0  0  0  0  0  0  0  0  0
   -4.6820    2.9780    1.9170 O   0  0  0  0  0  0  0  0  0  0  0  0
   -1.4140    0.7970    0.6000 H   0  0  0  0  0  0  0  0  0  0  0  0
   -2.2380    3.7470    0.7770 H   0  0  0  0  0  0  0  0  0  0  0  0
   -2.4810    3.0990   -1.4440 H   0  0  0  0  0  0  0  0  0  0  0  0
   -4.0700    3.3010   -0.6830 H   0  0  0  0  0  0  0  0  0  0  0  0
   -3.8080    0.2030   -0.0370 H   0  0  0  0  0  0  0  0  0  0  0  0
  1  2  1  0  0  0  0
  2  4  1  0  0  0  0
  2 12  1  0  0  0  0
  2  3  1  0  0  0  0
  3 14  1  0  0  0  0
  3 13  1  0  0  0  0
  4 16  1  0  0  0  0
  5  7  1  0  0  0  0
  5  4  1  0  0  0  0
  5 18  1  1  0  0  0
  6 20  1  0  0  0  0
  6  5  1  0  0  0  0
  7  8  2  0  0  0  0
  9  1  1  0  0  0  0
 10  1  1  0  0  0  0
 11  1  1  0  0  0  0
 15  3  1  0  0  0  0
 17  4  1  0  0  0  0
 19  6  1  0  0  0  0
 21 25  1  0  0  0  0
 21  7  1  0  0  0  0
 22 21  1  0  0  0  0
 23 22  1  0  0  0  0
 23 24  1  0  0  0  0
 24 33  1  0  0  0  0
 24 25  1  0  0  0  0
 25 34  1  1  0  0  0
 26 25  1  0  0  0  0
 26 27  2  0  0  0  0
 28 22  1  0  0  0  0
 29 22  1  0  0  0  0
 30 23  1  0  0  0  0
 31 23  1  0  0  0  0
 32 24  1  0  0  0  0
 35 26  1  0  0  0  0
 36 35  1  0  0  0  0
 36 43  1  1  0  0  0
 36 39  1  0  0  0  0
 37 45  1  0  0  0  0
 37 36  1  0  0  0  0
 38 37  1  0  0  0  0
 38 46  1  0  0  0  0
 39 41  2  0  0  0  0
 39 40  1  0  0  0  0
 42 35  1  0  0  0  0
 44 37  1  0  0  0  0
M  END
$$$$
