LPF.pdb
 OpenBabel07022418473D

 55 56  0  0  1  0  0  0  0  0999 V2000
    2.2180   -1.6500    5.3830 C   0  0  0  0  0  0  0  0  0  0  0  0
    2.4880   -1.9540    3.9300 C   0  0  0  0  0  0  0  0  0  0  0  0
    1.2410   -2.4110    3.2100 C   0  0  0  0  0  0  0  0  0  0  0  0
    3.3070   -0.9480    3.2440 C   0  0  0  0  0  0  0  0  0  0  0  0
    2.8500    0.4490    3.1330 C   0  0  2  0  0  0  0  0  0  0  0  0
    2.6200    1.1350    4.3620 N   0  0  0  0  0  0  0  0  0  0  0  0
    1.7250    0.6510    2.1890 C   0  0  0  0  0  0  0  0  0  0  0  0
    0.6110    1.0910    2.6240 O   0  0  0  0  0  0  0  0  0  0  0  0
    3.2020   -1.4790    5.8850 H   0  0  0  0  0  0  0  0  0  0  0  0
    1.4560   -0.9030    5.5770 H   0  0  0  0  0  0  0  0  0  0  0  0
    1.7980   -2.6130    5.8120 H   0  0  0  0  0  0  0  0  0  0  0  0
    3.1330   -2.9010    3.9740 H   0  0  0  0  0  0  0  0  0  0  0  0
    0.7230   -3.1370    3.9050 H   0  0  0  0  0  0  0  0  0  0  0  0
    1.5250   -3.0310    2.3350 H   0  0  0  0  0  0  0  0  0  0  0  0
    0.5800   -1.6210    2.8720 H   0  0  0  0  0  0  0  0  0  0  0  0
    3.5550   -1.3050    2.1970 H   0  0  0  0  0  0  0  0  0  0  0  0
    4.3320   -0.9630    3.7400 H   0  0  0  0  0  0  0  0  0  0  0  0
    3.7110    1.0220    2.6420 H   0  0  0  0  0  0  0  0  0  0  0  0
    3.1110    0.7530    5.1510 H   0  0  0  0  0  0  0  0  0  0  0  0
    1.6070    1.2020    4.5380 H   0  0  0  0  0  0  0  0  0  0  0  0
    1.8300    0.3820    0.8080 N   0  0  0  0  0  0  0  0  0  0  0  0
    2.9590   -0.1100    0.0280 C   0  0  0  0  0  0  0  0  0  0  0  0
    2.7640    0.5050   -1.3500 C   0  0  0  0  0  0  0  0  0  0  0  0
    1.4090    1.1480   -1.3660 C   0  0  0  0  0  0  0  0  0  0  0  0
    0.7140    0.5980   -0.1310 C   0  0  1  0  0  0  0  0  0  0  0  0
    0.0750   -0.6930   -0.3810 C   0  0  0  0  0  0  0  0  0  0  0  0
    0.5430   -1.7320    0.1330 O   0  0  0  0  0  0  0  0  0  0  0  0
    2.9800   -1.1900   -0.1080 H   0  0  0  0  0  0  0  0  0  0  0  0
    3.9190    0.2410    0.4620 H   0  0  0  0  0  0  0  0  0  0  0  0
    3.5850    1.2600   -1.5230 H   0  0  0  0  0  0  0  0  0  0  0  0
    2.7900   -0.2620   -2.1510 H   0  0  0  0  0  0  0  0  0  0  0  0
    0.8400    0.9920   -2.2820 H   0  0  0  0  0  0  0  0  0  0  0  0
    1.5380    2.2410   -1.2230 H   0  0  0  0  0  0  0  0  0  0  0  0
    0.0490    1.3430    0.2980 H   0  0  0  0  0  0  0  0  0  0  0  0
   -1.0780   -0.8610   -1.1950 N   0  0  0  0  0  0  0  0  0  0  0  0
   -1.7290   -2.0930   -1.4640 C   0  0  1  0  0  0  0  0  0  0  0  0
   -3.1590   -2.1600   -1.0050 C   0  0  0  0  0  0  0  0  0  0  0  0
   -4.0240   -1.1520   -1.6170 C   0  0  0  0  0  0  0  0  0  0  0  0
   -4.1430    0.0770   -0.9610 C   0  0  0  0  0  0  0  0  0  0  0  0
   -4.9300    1.0750   -1.4640 C   0  0  0  0  0  0  0  0  0  0  0  0
   -5.6310    0.8890   -2.6420 C   0  0  0  0  0  0  0  0  0  0  0  0
   -5.5310   -0.3060   -3.3040 C   0  0  0  0  0  0  0  0  0  0  0  0
   -4.7310   -1.3010   -2.7790 C   0  0  0  0  0  0  0  0  0  0  0  0
   -1.6980   -2.4610   -2.9070 C   0  0  0  0  0  0  0  0  0  0  0  0
   -1.1610   -1.7680   -3.7930 O   0  0  0  0  0  0  0  0  0  0  0  0
   -2.3100   -3.6530   -3.2800 O   0  0  0  0  0  0  0  0  0  0  0  0
   -1.4730    0.0130   -1.6280 H   0  0  0  0  0  0  0  0  0  0  0  0
   -1.1840   -2.9110   -0.9300 H   0  0  0  0  0  0  0  0  0  0  0  0
   -3.5470   -3.1660   -1.3170 H   0  0  0  0  0  0  0  0  0  0  0  0
   -3.2410   -2.1610    0.1120 H   0  0  0  0  0  0  0  0  0  0  0  0
   -3.5950    0.2410   -0.0280 H   0  0  0  0  0  0  0  0  0  0  0  0
   -5.0150    2.0250   -0.9450 H   0  0  0  0  0  0  0  0  0  0  0  0
   -6.2550    1.6820   -3.0390 H   0  0  0  0  0  0  0  0  0  0  0  0
   -6.0600   -0.4980   -4.2280 H   0  0  0  0  0  0  0  0  0  0  0  0
   -4.6620   -2.2240   -3.3020 H   0  0  0  0  0  0  0  0  0  0  0  0
  1 10  1  0  0  0  0
  1 11  1  0  0  0  0
  1  9  1  0  0  0  0
  2 12  1  0  0  0  0
  2  1  1  0  0  0  0
  3 13  1  0  0  0  0
  3  2  1  0  0  0  0
  4 17  1  0  0  0  0
  4  2  1  0  0  0  0
  5 18  1  6  0  0  0
  5  4  1  0  0  0  0
  5  6  1  0  0  0  0
  6 20  1  0  0  0  0
  6 19  1  0  0  0  0
  7  8  2  0  0  0  0
  7  5  1  0  0  0  0
 14  3  1  0  0  0  0
 15  3  1  0  0  0  0
 16  4  1  0  0  0  0
 21  7  1  0  0  0  0
 22 29  1  0  0  0  0
 22 21  1  0  0  0  0
 23 22  1  0  0  0  0
 24 23  1  0  0  0  0
 24 33  1  0  0  0  0
 24 25  1  0  0  0  0
 25 34  1  1  0  0  0
 25 21  1  0  0  0  0
 26 25  1  0  0  0  0
 26 27  2  0  0  0  0
 28 22  1  0  0  0  0
 30 23  1  0  0  0  0
 31 23  1  0  0  0  0
 32 24  1  0  0  0  0
 35 26  1  0  0  0  0
 36 35  1  0  0  0  0
 36 37  1  0  0  0  0
 36 48  1  1  0  0  0
 37 50  1  0  0  0  0
 38 37  1  0  0  0  0
 38 39  1  0  0  0  0
 39 51  1  0  0  0  0
 40 39  2  0  0  0  0
 40 52  1  0  0  0  0
 41 40  1  0  0  0  0
 42 43  1  0  0  0  0
 42 41  2  0  0  0  0
 43 38  2  0  0  0  0
 44 36  1  0  0  0  0
 45 44  2  0  0  0  0
 46 44  1  0  0  0  0
 47 35  1  0  0  0  0
 49 37  1  0  0  0  0
 53 41  1  0  0  0  0
 54 42  1  0  0  0  0
 55 43  1  0  0  0  0
M  END
$$$$
