LPP.pdb
 OpenBabel07022418473D

 49 50  0  0  1  0  0  0  0  0999 V2000
   -1.2440   -4.3300    0.9700 C   0  0  0  0  0  0  0  0  0  0  0  0
    0.0370   -3.6890    1.4640 C   0  0  0  0  0  0  0  0  0  0  0  0
   -0.2810   -2.7750    2.5700 C   0  0  0  0  0  0  0  0  0  0  0  0
    0.8560   -3.2130    0.3260 C   0  0  0  0  0  0  0  0  0  0  0  0
    2.1460   -2.5370    0.7010 C   0  0  2  0  0  0  0  0  0  0  0  0
    2.9030   -3.4770    1.4780 N   0  0  0  0  0  0  0  0  0  0  0  0
    2.0460   -1.1820    1.2110 C   0  0  0  0  0  0  0  0  0  0  0  0
    2.1480   -0.9780    2.4410 O   0  0  0  0  0  0  0  0  0  0  0  0
   -1.6960   -5.0090    1.7110 H   0  0  0  0  0  0  0  0  0  0  0  0
   -2.0130   -3.5520    0.7450 H   0  0  0  0  0  0  0  0  0  0  0  0
   -1.0980   -4.8830    0.0150 H   0  0  0  0  0  0  0  0  0  0  0  0
    0.5860   -4.5740    1.9540 H   0  0  0  0  0  0  0  0  0  0  0  0
    0.4020   -2.8460    3.4460 H   0  0  0  0  0  0  0  0  0  0  0  0
   -1.2750   -3.0950    3.0130 H   0  0  0  0  0  0  0  0  0  0  0  0
   -0.4500   -1.7610    2.2300 H   0  0  0  0  0  0  0  0  0  0  0  0
    0.2210   -2.6150   -0.3590 H   0  0  0  0  0  0  0  0  0  0  0  0
    1.1500   -4.1160   -0.2700 H   0  0  0  0  0  0  0  0  0  0  0  0
    2.7150   -2.4540   -0.2790 H   0  0  0  0  0  0  0  0  0  0  0  0
    2.6970   -3.4730    2.4860 H   0  0  0  0  0  0  0  0  0  0  0  0
    3.9240   -3.4590    1.2620 H   0  0  0  0  0  0  0  0  0  0  0  0
    1.8380   -0.0250    0.3840 N   0  0  0  0  0  0  0  0  0  0  0  0
    1.7230   -0.0440   -1.0620 C   0  0  0  0  0  0  0  0  0  0  0  0
    1.9470    1.3660   -1.5300 C   0  0  0  0  0  0  0  0  0  0  0  0
    2.4590    2.1340   -0.3250 C   0  0  0  0  0  0  0  0  0  0  0  0
    1.7540    1.3420    0.7820 C   0  0  1  0  0  0  0  0  0  0  0  0
    0.4650    1.9560    1.0110 C   0  0  0  0  0  0  0  0  0  0  0  0
    0.5670    3.1610    1.5290 O   0  0  0  0  0  0  0  0  0  0  0  0
    2.5510   -0.6340   -1.5260 H   0  0  0  0  0  0  0  0  0  0  0  0
    0.8070   -0.5190   -1.3630 H   0  0  0  0  0  0  0  0  0  0  0  0
    1.0460    1.8280   -1.9780 H   0  0  0  0  0  0  0  0  0  0  0  0
    2.7440    1.4620   -2.3080 H   0  0  0  0  0  0  0  0  0  0  0  0
    3.5370    2.0100   -0.1850 H   0  0  0  0  0  0  0  0  0  0  0  0
    2.0870    3.1580   -0.3250 H   0  0  0  0  0  0  0  0  0  0  0  0
    2.4230    1.4380    1.6910 H   0  0  0  0  0  0  0  0  0  0  0  0
   -0.8360    1.5310    0.7930 N   0  0  0  0  0  0  0  0  0  0  0  0
   -2.0200    2.3570    1.1260 C   0  0  0  0  0  0  0  0  0  0  0  0
   -2.7810    1.3470    1.9870 C   0  0  0  0  0  0  0  0  0  0  0  0
   -2.6760    0.1180    1.1310 C   0  0  0  0  0  0  0  0  0  0  0  0
   -1.4350    0.3420    0.2450 C   0  0  1  0  0  0  0  0  0  0  0  0
   -1.8600    0.5340   -1.1670 C   0  0  0  0  0  0  0  0  0  0  0  0
   -2.3850   -0.4210   -1.7730 O   0  0  0  0  0  0  0  0  0  0  0  0
   -1.6890    1.7360   -1.8170 O   0  0  0  0  0  0  0  0  0  0  0  0
   -1.7520    3.2600    1.6700 H   0  0  0  0  0  0  0  0  0  0  0  0
   -2.5830    2.4930    0.2030 H   0  0  0  0  0  0  0  0  0  0  0  0
   -3.8020    1.6630    2.2000 H   0  0  0  0  0  0  0  0  0  0  0  0
   -2.1500    1.2260    2.9120 H   0  0  0  0  0  0  0  0  0  0  0  0
   -3.5860    0.0210    0.4850 H   0  0  0  0  0  0  0  0  0  0  0  0
   -2.5560   -0.7580    1.7900 H   0  0  0  0  0  0  0  0  0  0  0  0
   -0.8380   -0.5590    0.2760 H   0  0  0  0  0  0  0  0  0  0  0  0
  1  2  1  0  0  0  0
  1  9  1  0  0  0  0
  2 12  1  0  0  0  0
  2  3  1  0  0  0  0
  3 14  1  0  0  0  0
  3 13  1  0  0  0  0
  4  5  1  0  0  0  0
  4  2  1  0  0  0  0
  5 18  1  6  0  0  0
  5  7  1  0  0  0  0
  5  6  1  0  0  0  0
  6 19  1  0  0  0  0
  7  8  2  0  0  0  0
 10  1  1  0  0  0  0
 11  1  1  0  0  0  0
 15  3  1  0  0  0  0
 16  4  1  0  0  0  0
 17  4  1  0  0  0  0
 20  6  1  0  0  0  0
 21 25  1  0  0  0  0
 21  7  1  0  0  0  0
 22 21  1  0  0  0  0
 23 22  1  0  0  0  0
 23 24  1  0  0  0  0
 24 32  1  0  0  0  0
 24 25  1  0  0  0  0
 25 26  1  0  0  0  0
 25 34  1  1  0  0  0
 26 27  2  0  0  0  0
 28 22  1  0  0  0  0
 29 22  1  0  0  0  0
 30 23  1  0  0  0  0
 31 23  1  0  0  0  0
 33 24  1  0  0  0  0
 35 26  1  0  0  0  0
 35 36  1  0  0  0  0
 36 43  1  0  0  0  0
 36 37  1  0  0  0  0
 37 45  1  0  0  0  0
 37 46  1  0  0  0  0
 38 48  1  0  0  0  0
 38 37  1  0  0  0  0
 39 49  1  1  0  0  0
 39 35  1  0  0  0  0
 39 38  1  0  0  0  0
 40 39  1  0  0  0  0
 41 40  1  0  0  0  0
 42 40  2  0  0  0  0
 44 36  1  0  0  0  0
 47 38  1  0  0  0  0
M  END
$$$$
