LPQ.pdb
 OpenBabel07022418473D

 52 52  0  0  1  0  0  0  0  0999 V2000
    2.6100   -3.9520    0.2070 C   0  0  0  0  0  0  0  0  0  0  0  0
    1.9840   -2.9750    1.2080 C   0  0  0  0  0  0  0  0  0  0  0  0
    0.6670   -2.5750    0.6280 C   0  0  0  0  0  0  0  0  0  0  0  0
    2.9710   -1.8260    1.3510 C   0  0  0  0  0  0  0  0  0  0  0  0
    2.5480   -0.7630    2.3040 C   0  0  2  0  0  0  0  0  0  0  0  0
    2.3980   -1.4710    3.6000 N   0  0  0  0  0  0  0  0  0  0  0  0
    1.3410   -0.0100    1.9810 C   0  0  0  0  0  0  0  0  0  0  0  0
    0.2920   -0.3110    2.6010 O   0  0  0  0  0  0  0  0  0  0  0  0
    2.1640   -3.8290   -0.7910 H   0  0  0  0  0  0  0  0  0  0  0  0
    3.7030   -3.7790    0.1160 H   0  0  0  0  0  0  0  0  0  0  0  0
    2.4460   -5.0060    0.5170 H   0  0  0  0  0  0  0  0  0  0  0  0
    1.9290   -3.4760    2.1860 H   0  0  0  0  0  0  0  0  0  0  0  0
    0.3630   -3.2440   -0.2360 H   0  0  0  0  0  0  0  0  0  0  0  0
    0.7750   -1.5830    0.1850 H   0  0  0  0  0  0  0  0  0  0  0  0
   -0.1770   -2.6820    1.3490 H   0  0  0  0  0  0  0  0  0  0  0  0
    3.8670   -2.3220    1.8490 H   0  0  0  0  0  0  0  0  0  0  0  0
    3.3460   -1.4800    0.3930 H   0  0  0  0  0  0  0  0  0  0  0  0
    3.4450   -0.1080    2.4630 H   0  0  0  0  0  0  0  0  0  0  0  0
    2.2470   -0.7850    4.3500 H   0  0  0  0  0  0  0  0  0  0  0  0
    3.2980   -1.9840    3.7250 H   0  0  0  0  0  0  0  0  0  0  0  0
    1.2730    1.0270    1.0310 N   0  0  0  0  0  0  0  0  0  0  0  0
    2.4650    1.5010    0.2980 C   0  0  0  0  0  0  0  0  0  0  0  0
    1.9280    1.8810   -1.0630 C   0  0  0  0  0  0  0  0  0  0  0  0
    0.4260    1.5650   -0.9840 C   0  0  0  0  0  0  0  0  0  0  0  0
    0.2370    1.8680    0.5290 C   0  0  1  0  0  0  0  0  0  0  0  0
   -1.1250    1.6760    0.8750 C   0  0  0  0  0  0  0  0  0  0  0  0
   -1.8470    2.6600    1.2610 O   0  0  0  0  0  0  0  0  0  0  0  0
    3.2950    0.8160    0.3020 H   0  0  0  0  0  0  0  0  0  0  0  0
    2.7220    2.4800    0.8040 H   0  0  0  0  0  0  0  0  0  0  0  0
    2.3840    1.2890   -1.8870 H   0  0  0  0  0  0  0  0  0  0  0  0
    1.9860    2.9700   -1.2680 H   0  0  0  0  0  0  0  0  0  0  0  0
   -0.1830    2.2020   -1.6090 H   0  0  0  0  0  0  0  0  0  0  0  0
    0.3010    0.4920   -1.1450 H   0  0  0  0  0  0  0  0  0  0  0  0
    0.5320    2.9480    0.6150 H   0  0  0  0  0  0  0  0  0  0  0  0
   -1.9010   -2.2970   -2.0380 N   0  0  0  0  0  0  0  0  0  0  0  0
   -2.6270   -1.1550   -1.6140 C   0  0  0  0  0  0  0  0  0  0  0  0
   -2.1820   -0.0230   -1.9810 O   0  0  0  0  0  0  0  0  0  0  0  0
   -3.8370   -1.1620   -0.8030 C   0  0  0  0  0  0  0  0  0  0  0  0
   -4.0750    0.0080    0.0720 C   0  0  0  0  0  0  0  0  0  0  0  0
   -3.1410    0.2400    1.2060 C   0  0  2  0  0  0  0  0  0  0  0  0
   -1.7880    0.4260    0.8260 N   0  0  0  0  0  0  0  0  0  0  0  0
   -3.3650   -0.8190    2.2120 C   0  0  0  0  0  0  0  0  0  0  0  0
   -2.5290   -1.5470    2.7440 O   0  0  0  0  0  0  0  0  0  0  0  0
   -4.7060   -1.0070    2.6010 O   0  0  0  0  0  0  0  0  0  0  0  0
   -0.8620   -2.2320   -2.0310 H   0  0  0  0  0  0  0  0  0  0  0  0
   -2.3220   -3.1960   -2.3570 H   0  0  0  0  0  0  0  0  0  0  0  0
   -3.9670   -2.1290   -0.2430 H   0  0  0  0  0  0  0  0  0  0  0  0
   -4.7010   -1.1840   -1.5340 H   0  0  0  0  0  0  0  0  0  0  0  0
   -4.0810    0.9210   -0.5990 H   0  0  0  0  0  0  0  0  0  0  0  0
   -5.1420   -0.0420    0.4200 H   0  0  0  0  0  0  0  0  0  0  0  0
   -3.5270    1.1910    1.7050 H   0  0  0  0  0  0  0  0  0  0  0  0
   -1.3040   -0.4590    0.4960 H   0  0  0  0  0  0  0  0  0  0  0  0
  1 11  1  0  0  0  0
  1  2  1  0  0  0  0
  2  4  1  0  0  0  0
  2 12  1  0  0  0  0
  3  2  1  0  0  0  0
  3 15  1  0  0  0  0
  4 16  1  0  0  0  0
  4  5  1  0  0  0  0
  5 18  1  1  0  0  0
  5  6  1  0  0  0  0
  6 20  1  0  0  0  0
  6 19  1  0  0  0  0
  7  5  1  0  0  0  0
  7  8  2  0  0  0  0
  9  1  1  0  0  0  0
 10  1  1  0  0  0  0
 13  3  1  0  0  0  0
 14  3  1  0  0  0  0
 17  4  1  0  0  0  0
 21  7  1  0  0  0  0
 22 28  1  0  0  0  0
 22 29  1  0  0  0  0
 22 21  1  0  0  0  0
 23 24  1  0  0  0  0
 23 22  1  0  0  0  0
 24 25  1  0  0  0  0
 25 34  1  1  0  0  0
 25 26  1  0  0  0  0
 25 21  1  0  0  0  0
 26 27  2  0  0  0  0
 30 23  1  0  0  0  0
 31 23  1  0  0  0  0
 32 24  1  0  0  0  0
 33 24  1  0  0  0  0
 35 45  1  0  0  0  0
 35 36  1  0  0  0  0
 36 38  1  0  0  0  0
 37 36  2  0  0  0  0
 38 47  1  0  0  0  0
 38 39  1  0  0  0  0
 39 50  1  0  0  0  0
 39 40  1  0  0  0  0
 40 51  1  1  0  0  0
 40 42  1  0  0  0  0
 41 26  1  0  0  0  0
 41 40  1  0  0  0  0
 42 44  2  0  0  0  0
 42 43  1  0  0  0  0
 46 35  1  0  0  0  0
 48 38  1  0  0  0  0
 49 39  1  0  0  0  0
 52 41  1  0  0  0  0
M  END
$$$$
