LPT.pdb
 OpenBabel07022418473D

 49 49  0  0  1  0  0  0  0  0999 V2000
    2.8740   -2.5310   -0.4910 C   0  0  0  0  0  0  0  0  0  0  0  0
    3.1180   -1.5240   -1.5790 C   0  0  0  0  0  0  0  0  0  0  0  0
    4.3860   -2.0210   -2.3010 C   0  0  0  0  0  0  0  0  0  0  0  0
    2.0220   -1.5530   -2.5780 C   0  0  0  0  0  0  0  0  0  0  0  0
    0.6420   -1.2640   -2.1290 C   0  0  2  0  0  0  0  0  0  0  0  0
    0.4850    0.0310   -1.5450 N   0  0  0  0  0  0  0  0  0  0  0  0
   -0.0540   -2.3670   -1.4190 C   0  0  0  0  0  0  0  0  0  0  0  0
    0.2430   -3.5730   -1.7770 O   0  0  0  0  0  0  0  0  0  0  0  0
    3.0290   -3.5890   -0.8350 H   0  0  0  0  0  0  0  0  0  0  0  0
    3.6700   -2.4080    0.3110 H   0  0  0  0  0  0  0  0  0  0  0  0
    1.9060   -2.4060    0.0180 H   0  0  0  0  0  0  0  0  0  0  0  0
    3.3610   -0.5190   -1.2010 H   0  0  0  0  0  0  0  0  0  0  0  0
    4.0640   -3.0350   -2.6850 H   0  0  0  0  0  0  0  0  0  0  0  0
    5.2050   -2.2040   -1.5840 H   0  0  0  0  0  0  0  0  0  0  0  0
    4.6530   -1.3720   -3.1400 H   0  0  0  0  0  0  0  0  0  0  0  0
    1.9770   -2.5500   -3.1180 H   0  0  0  0  0  0  0  0  0  0  0  0
    2.2370   -0.8300   -3.4290 H   0  0  0  0  0  0  0  0  0  0  0  0
    0.0370   -1.1810   -3.1160 H   0  0  0  0  0  0  0  0  0  0  0  0
    0.5400    0.7500   -2.3280 H   0  0  0  0  0  0  0  0  0  0  0  0
    1.3920    0.2250   -1.0100 H   0  0  0  0  0  0  0  0  0  0  0  0
   -0.9960   -2.2490   -0.4080 N   0  0  0  0  0  0  0  0  0  0  0  0
   -1.6330   -3.3860    0.2800 C   0  0  0  0  0  0  0  0  0  0  0  0
   -3.0650   -2.9130    0.4440 C   0  0  0  0  0  0  0  0  0  0  0  0
   -2.9050   -1.4540    0.7410 C   0  0  0  0  0  0  0  0  0  0  0  0
   -1.5770   -1.0720    0.1440 C   0  0  1  0  0  0  0  0  0  0  0  0
   -0.8020   -0.4320    1.2320 C   0  0  0  0  0  0  0  0  0  0  0  0
    0.3610   -0.7690    1.4930 O   0  0  0  0  0  0  0  0  0  0  0  0
   -1.2310   -3.5740    1.2710 H   0  0  0  0  0  0  0  0  0  0  0  0
   -1.6150   -4.2890   -0.3220 H   0  0  0  0  0  0  0  0  0  0  0  0
   -3.6260   -3.0370   -0.5110 H   0  0  0  0  0  0  0  0  0  0  0  0
   -3.5310   -3.4810    1.2890 H   0  0  0  0  0  0  0  0  0  0  0  0
   -3.7500   -0.8790    0.2900 H   0  0  0  0  0  0  0  0  0  0  0  0
   -2.9220   -1.3330    1.8570 H   0  0  0  0  0  0  0  0  0  0  0  0
   -1.8100   -0.3190   -0.6670 H   0  0  0  0  0  0  0  0  0  0  0  0
   -0.2890    3.5680    4.1240 C   0  0  0  0  0  0  0  0  0  0  0  0
   -0.8220    2.7670    2.9940 C   0  0  1  0  0  0  0  0  0  0  0  0
   -0.2920    3.2340    1.7700 O   0  0  0  0  0  0  0  0  0  0  0  0
   -0.6880    1.2820    3.1040 C   0  0  2  0  0  0  0  0  0  0  0  0
   -1.3960    0.6090    2.0210 N   0  0  0  0  0  0  0  0  0  0  0  0
   -1.1900    0.8290    4.4180 C   0  0  0  0  0  0  0  0  0  0  0  0
   -2.1960    0.0680    4.5590 O   0  0  0  0  0  0  0  0  0  0  0  0
   -0.5430    1.2400    5.5670 O   0  0  0  0  0  0  0  0  0  0  0  0
   -0.7370    3.4010    5.1090 H   0  0  0  0  0  0  0  0  0  0  0  0
   -0.4430    4.6840    3.9470 H   0  0  0  0  0  0  0  0  0  0  0  0
    0.8240    3.4350    4.1680 H   0  0  0  0  0  0  0  0  0  0  0  0
   -1.9350    2.9610    2.9100 H   0  0  0  0  0  0  0  0  0  0  0  0
    0.5720    3.6570    1.9570 H   0  0  0  0  0  0  0  0  0  0  0  0
    0.3780    1.0030    3.0590 H   0  0  0  0  0  0  0  0  0  0  0  0
   -2.3730    0.8660    1.7830 H   0  0  0  0  0  0  0  0  0  0  0  0
  1 11  1  0  0  0  0
  1 10  1  0  0  0  0
  2 12  1  0  0  0  0
  2  1  1  0  0  0  0
  3 14  1  0  0  0  0
  3  2  1  0  0  0  0
  4  5  1  0  0  0  0
  4  2  1  0  0  0  0
  5 18  1  6  0  0  0
  5  6  1  0  0  0  0
  5  7  1  0  0  0  0
  6 20  1  0  0  0  0
  7 21  1  0  0  0  0
  8  7  2  0  0  0  0
  9  1  1  0  0  0  0
 13  3  1  0  0  0  0
 15  3  1  0  0  0  0
 16  4  1  0  0  0  0
 17  4  1  0  0  0  0
 19  6  1  0  0  0  0
 21 25  1  0  0  0  0
 21 22  1  0  0  0  0
 22 23  1  0  0  0  0
 22 28  1  0  0  0  0
 23 24  1  0  0  0  0
 23 31  1  0  0  0  0
 24 33  1  0  0  0  0
 25 34  1  6  0  0  0
 25 24  1  0  0  0  0
 25 26  1  0  0  0  0
 26 27  2  0  0  0  0
 26 39  1  0  0  0  0
 29 22  1  0  0  0  0
 30 23  1  0  0  0  0
 32 24  1  0  0  0  0
 35 45  1  0  0  0  0
 35 43  1  0  0  0  0
 36 46  1  6  0  0  0
 36 38  1  0  0  0  0
 36 35  1  0  0  0  0
 37 47  1  0  0  0  0
 37 36  1  0  0  0  0
 38 48  1  6  0  0  0
 38 40  1  0  0  0  0
 39 38  1  0  0  0  0
 40 41  2  0  0  0  0
 40 42  1  0  0  0  0
 44 35  1  0  0  0  0
 49 39  1  0  0  0  0
M  END
$$$$
