LPW.pdb
 OpenBabel07022418473D

 59 61  0  0  1  0  0  0  0  0999 V2000
    2.0630    1.1880    5.5250 C   0  0  0  0  0  0  0  0  0  0  0  0
    1.8260    0.2550    4.3740 C   0  0  0  0  0  0  0  0  0  0  0  0
    0.6760   -0.6520    4.6940 C   0  0  0  0  0  0  0  0  0  0  0  0
    1.5690    1.0410    3.1070 C   0  0  0  0  0  0  0  0  0  0  0  0
    1.3240    0.1070    1.9280 C   0  0  2  0  0  0  0  0  0  0  0  0
    2.5490   -0.6860    1.8180 N   0  0  0  0  0  0  0  0  0  0  0  0
    1.1920    0.9510    0.7190 C   0  0  0  0  0  0  0  0  0  0  0  0
    2.2610    1.0470    0.0020 O   0  0  0  0  0  0  0  0  0  0  0  0
    1.1060    1.6920    5.7750 H   0  0  0  0  0  0  0  0  0  0  0  0
    2.4160    0.5630    6.3820 H   0  0  0  0  0  0  0  0  0  0  0  0
    2.8520    1.9290    5.2560 H   0  0  0  0  0  0  0  0  0  0  0  0
    2.7240   -0.3840    4.2360 H   0  0  0  0  0  0  0  0  0  0  0  0
    0.8970   -1.7130    4.4260 H   0  0  0  0  0  0  0  0  0  0  0  0
   -0.2190   -0.3110    4.1270 H   0  0  0  0  0  0  0  0  0  0  0  0
    0.4110   -0.5590    5.7650 H   0  0  0  0  0  0  0  0  0  0  0  0
    0.7850    1.7840    3.2570 H   0  0  0  0  0  0  0  0  0  0  0  0
    2.5120    1.6110    2.8620 H   0  0  0  0  0  0  0  0  0  0  0  0
    0.4390   -0.5120    2.0450 H   0  0  0  0  0  0  0  0  0  0  0  0
    3.3600   -0.2340    2.2920 H   0  0  0  0  0  0  0  0  0  0  0  0
    2.4030   -1.6670    2.0900 H   0  0  0  0  0  0  0  0  0  0  0  0
    0.0090    1.6240    0.3260 N   0  0  0  0  0  0  0  0  0  0  0  0
   -0.0680    2.4600   -0.8560 C   0  0  0  0  0  0  0  0  0  0  0  0
   -1.4760    2.9050   -1.0360 C   0  0  0  0  0  0  0  0  0  0  0  0
   -2.0540    2.7700    0.3570 C   0  0  0  0  0  0  0  0  0  0  0  0
   -1.2630    1.6080    0.9450 C   0  0  1  0  0  0  0  0  0  0  0  0
   -2.0080    0.3370    0.7600 C   0  0  0  0  0  0  0  0  0  0  0  0
   -3.1570    0.2680    1.2640 O   0  0  0  0  0  0  0  0  0  0  0  0
    0.5630    3.3660   -0.6230 H   0  0  0  0  0  0  0  0  0  0  0  0
    0.3610    1.9590   -1.7460 H   0  0  0  0  0  0  0  0  0  0  0  0
   -1.4690    3.9730   -1.3790 H   0  0  0  0  0  0  0  0  0  0  0  0
   -1.9990    2.2540   -1.7640 H   0  0  0  0  0  0  0  0  0  0  0  0
   -3.1320    2.5570    0.2960 H   0  0  0  0  0  0  0  0  0  0  0  0
   -1.8140    3.7010    0.9100 H   0  0  0  0  0  0  0  0  0  0  0  0
   -1.2060    1.8040    2.0270 H   0  0  0  0  0  0  0  0  0  0  0  0
   -1.5170   -0.7820    0.0660 N   0  0  0  0  0  0  0  0  0  0  0  0
   -2.2860   -2.0310   -0.1010 C   0  0  1  0  0  0  0  0  0  0  0  0
   -2.5170   -2.2770   -1.5620 C   0  0  0  0  0  0  0  0  0  0  0  0
   -1.2860   -2.3740   -2.3740 C   0  0  0  0  0  0  0  0  0  0  0  0
   -0.7080   -1.2810   -3.0600 C   0  0  0  0  0  0  0  0  0  0  0  0
    0.3940   -1.7510   -3.6180 N   0  0  0  0  0  0  0  0  0  0  0  0
    0.5640   -3.0560   -3.3430 C   0  0  0  0  0  0  0  0  0  0  0  0
    1.5510   -3.9360   -3.7190 C   0  0  0  0  0  0  0  0  0  0  0  0
    1.4980   -5.2520   -3.3130 C   0  0  0  0  0  0  0  0  0  0  0  0
    0.4350   -5.6650   -2.5240 C   0  0  0  0  0  0  0  0  0  0  0  0
   -0.5640   -4.8120   -2.1330 C   0  0  0  0  0  0  0  0  0  0  0  0
   -0.5020   -3.4850   -2.5440 C   0  0  0  0  0  0  0  0  0  0  0  0
   -1.6990   -3.1670    0.6090 C   0  0  0  0  0  0  0  0  0  0  0  0
   -0.5630   -3.1460    1.1560 O   0  0  0  0  0  0  0  0  0  0  0  0
   -2.4040   -4.3570    0.7180 O   0  0  0  0  0  0  0  0  0  0  0  0
   -0.5690   -0.7460   -0.3560 H   0  0  0  0  0  0  0  0  0  0  0  0
   -3.3030   -1.8730    0.3890 H   0  0  0  0  0  0  0  0  0  0  0  0
   -3.1070   -1.4100   -1.9470 H   0  0  0  0  0  0  0  0  0  0  0  0
   -3.1930   -3.1600   -1.7340 H   0  0  0  0  0  0  0  0  0  0  0  0
   -1.1520   -0.2940   -3.0700 H   0  0  0  0  0  0  0  0  0  0  0  0
    1.0400   -1.1430   -4.2040 H   0  0  0  0  0  0  0  0  0  0  0  0
    2.3680   -3.5860   -4.3340 H   0  0  0  0  0  0  0  0  0  0  0  0
    2.2930   -5.9180   -3.6270 H   0  0  0  0  0  0  0  0  0  0  0  0
    0.3900   -6.7060   -2.2030 H   0  0  0  0  0  0  0  0  0  0  0  0
   -1.3960   -5.1320   -1.5380 H   0  0  0  0  0  0  0  0  0  0  0  0
  1  9  1  0  0  0  0
  1 10  1  0  0  0  0
  2  3  1  0  0  0  0
  2  1  1  0  0  0  0
  3 15  1  0  0  0  0
  4 16  1  0  0  0  0
  4  2  1  0  0  0  0
  5 18  1  1  0  0  0
  5  4  1  0  0  0  0
  6  5  1  0  0  0  0
  6 20  1  0  0  0  0
  6 19  1  0  0  0  0
  7  5  1  0  0  0  0
  8  7  2  0  0  0  0
 11  1  1  0  0  0  0
 12  2  1  0  0  0  0
 13  3  1  0  0  0  0
 14  3  1  0  0  0  0
 17  4  1  0  0  0  0
 21  7  1  0  0  0  0
 21 25  1  0  0  0  0
 22 28  1  0  0  0  0
 22 21  1  0  0  0  0
 23 22  1  0  0  0  0
 23 24  1  0  0  0  0
 24 33  1  0  0  0  0
 24 25  1  0  0  0  0
 25 34  1  1  0  0  0
 26 25  1  0  0  0  0
 26 27  2  0  0  0  0
 29 22  1  0  0  0  0
 30 23  1  0  0  0  0
 31 23  1  0  0  0  0
 32 24  1  0  0  0  0
 35 26  1  0  0  0  0
 36 35  1  0  0  0  0
 36 51  1  1  0  0  0
 36 47  1  0  0  0  0
 37 36  1  0  0  0  0
 38 37  1  0  0  0  0
 39 38  2  0  0  0  0
 40 41  1  0  0  0  0
 40 39  1  0  0  0  0
 41 46  1  0  0  0  0
 42 41  2  0  0  0  0
 42 43  1  0  0  0  0
 43 44  2  0  0  0  0
 44 58  1  0  0  0  0
 44 45  1  0  0  0  0
 45 59  1  0  0  0  0
 46 38  1  0  0  0  0
 46 45  2  0  0  0  0
 47 49  2  0  0  0  0
 47 48  1  0  0  0  0
 50 35  1  0  0  0  0
 52 37  1  0  0  0  0
 53 37  1  0  0  0  0
 54 39  1  0  0  0  0
 55 40  1  0  0  0  0
 56 42  1  0  0  0  0
 57 43  1  0  0  0  0
M  END
$$$$
