LPY.pdb
 OpenBabel07022418473D

 56 57  0  0  1  0  0  0  0  0999 V2000
    1.2010   -3.3340    3.1410 C   0  0  0  0  0  0  0  0  0  0  0  0
    0.9070   -1.8550    3.3970 C   0  0  0  0  0  0  0  0  0  0  0  0
    0.6620   -1.7000    4.8550 C   0  0  0  0  0  0  0  0  0  0  0  0
    2.0120   -1.0460    2.8410 C   0  0  0  0  0  0  0  0  0  0  0  0
    1.8810    0.4350    3.0070 C   0  0  2  0  0  0  0  0  0  0  0  0
    1.8260    0.6900    4.4460 N   0  0  0  0  0  0  0  0  0  0  0  0
    0.7530    1.0740    2.3510 C   0  0  0  0  0  0  0  0  0  0  0  0
   -0.1460    1.5930    3.1090 O   0  0  0  0  0  0  0  0  0  0  0  0
    2.1580   -3.5690    3.6530 H   0  0  0  0  0  0  0  0  0  0  0  0
    1.2060   -3.5530    2.0660 H   0  0  0  0  0  0  0  0  0  0  0  0
    0.4110   -3.9270    3.6460 H   0  0  0  0  0  0  0  0  0  0  0  0
   -0.0160   -1.6430    2.7830 H   0  0  0  0  0  0  0  0  0  0  0  0
   -0.0150   -0.8800    5.1360 H   0  0  0  0  0  0  0  0  0  0  0  0
    1.6360   -1.6720    5.3760 H   0  0  0  0  0  0  0  0  0  0  0  0
    0.1640   -2.6450    5.2180 H   0  0  0  0  0  0  0  0  0  0  0  0
    2.2660   -1.2800    1.8010 H   0  0  0  0  0  0  0  0  0  0  0  0
    2.9510   -1.3190    3.4190 H   0  0  0  0  0  0  0  0  0  0  0  0
    2.8210    0.9040    2.6510 H   0  0  0  0  0  0  0  0  0  0  0  0
    1.1220    1.4140    4.6640 H   0  0  0  0  0  0  0  0  0  0  0  0
    2.7470    0.9410    4.8190 H   0  0  0  0  0  0  0  0  0  0  0  0
    0.5320    1.1910    0.9660 N   0  0  0  0  0  0  0  0  0  0  0  0
    1.3920    0.6880   -0.0820 C   0  0  0  0  0  0  0  0  0  0  0  0
    0.9130    1.3390   -1.3610 C   0  0  0  0  0  0  0  0  0  0  0  0
    0.0810    2.4840   -0.8580 C   0  0  0  0  0  0  0  0  0  0  0  0
   -0.6100    1.8670    0.3290 C   0  0  1  0  0  0  0  0  0  0  0  0
   -1.6230    0.9140   -0.1720 C   0  0  0  0  0  0  0  0  0  0  0  0
   -2.5820    1.3750   -0.8820 O   0  0  0  0  0  0  0  0  0  0  0  0
    2.4400    1.0740    0.0800 H   0  0  0  0  0  0  0  0  0  0  0  0
    1.3900   -0.4180   -0.1750 H   0  0  0  0  0  0  0  0  0  0  0  0
    0.2280    0.6450   -1.8890 H   0  0  0  0  0  0  0  0  0  0  0  0
    1.7550    1.6680   -2.0010 H   0  0  0  0  0  0  0  0  0  0  0  0
    0.6980    3.3630   -0.5810 H   0  0  0  0  0  0  0  0  0  0  0  0
   -0.7160    2.7460   -1.5870 H   0  0  0  0  0  0  0  0  0  0  0  0
   -1.0410    2.6250    1.0120 H   0  0  0  0  0  0  0  0  0  0  0  0
    1.1470   -1.3910   -5.6200 O   0  0  0  0  0  0  0  0  0  0  0  0
    0.3160   -1.6740   -4.5360 C   0  0  0  0  0  0  0  0  0  0  0  0
    0.8470   -1.9140   -3.2860 C   0  0  0  0  0  0  0  0  0  0  0  0
    0.0370   -2.1960   -2.2010 C   0  0  0  0  0  0  0  0  0  0  0  0
   -1.3410   -2.2520   -2.3150 C   0  0  0  0  0  0  0  0  0  0  0  0
   -2.2060   -2.5540   -1.1500 C   0  0  0  0  0  0  0  0  0  0  0  0
   -2.6370   -1.3170   -0.4410 C   0  0  2  0  0  0  0  0  0  0  0  0
   -1.6050   -0.4930    0.0880 N   0  0  0  0  0  0  0  0  0  0  0  0
   -3.6080   -1.6450    0.6690 C   0  0  0  0  0  0  0  0  0  0  0  0
   -3.4130   -1.1990    1.8060 O   0  0  0  0  0  0  0  0  0  0  0  0
   -1.8610   -2.0100   -3.5710 C   0  0  0  0  0  0  0  0  0  0  0  0
   -1.0560   -1.7270   -4.6570 C   0  0  0  0  0  0  0  0  0  0  0  0
   -4.7240   -2.4400    0.4450 O   0  0  0  0  0  0  0  0  0  0  0  0
    1.0980   -1.8930   -6.4960 H   0  0  0  0  0  0  0  0  0  0  0  0
    1.9380   -1.8720   -3.1890 H   0  0  0  0  0  0  0  0  0  0  0  0
    0.4690   -2.3830   -1.2260 H   0  0  0  0  0  0  0  0  0  0  0  0
   -3.0760   -3.1470   -1.5020 H   0  0  0  0  0  0  0  0  0  0  0  0
   -1.5670   -3.1900   -0.4680 H   0  0  0  0  0  0  0  0  0  0  0  0
   -3.2580   -0.7060   -1.1450 H   0  0  0  0  0  0  0  0  0  0  0  0
   -0.8050   -0.8220    0.6720 H   0  0  0  0  0  0  0  0  0  0  0  0
   -2.9550   -2.0530   -3.6650 H   0  0  0  0  0  0  0  0  0  0  0  0
   -1.4800   -1.5400   -5.6330 H   0  0  0  0  0  0  0  0  0  0  0  0
  1  2  1  0  0  0  0
  1 11  1  0  0  0  0
  1  9  1  0  0  0  0
  2  3  1  0  0  0  0
  3 13  1  0  0  0  0
  3 15  1  0  0  0  0
  3 14  1  0  0  0  0
  4  5  1  0  0  0  0
  4  2  1  0  0  0  0
  4 17  1  0  0  0  0
  5 18  1  6  0  0  0
  5  6  1  0  0  0  0
  6 19  1  0  0  0  0
  6 20  1  0  0  0  0
  7  5  1  0  0  0  0
  7  8  2  0  0  0  0
 10  1  1  0  0  0  0
 12  2  1  0  0  0  0
 16  4  1  0  0  0  0
 21  7  1  0  0  0  0
 22 28  1  0  0  0  0
 22 21  1  0  0  0  0
 23 24  1  0  0  0  0
 23 22  1  0  0  0  0
 24 32  1  0  0  0  0
 24 25  1  0  0  0  0
 25 21  1  0  0  0  0
 25 34  1  1  0  0  0
 26 42  1  0  0  0  0
 26 25  1  0  0  0  0
 27 26  2  0  0  0  0
 29 22  1  0  0  0  0
 30 23  1  0  0  0  0
 31 23  1  0  0  0  0
 33 24  1  0  0  0  0
 35 36  1  0  0  0  0
 36 37  1  0  0  0  0
 37 49  1  0  0  0  0
 37 38  2  0  0  0  0
 38 50  1  0  0  0  0
 39 38  1  0  0  0  0
 39 40  1  0  0  0  0
 40 52  1  0  0  0  0
 40 41  1  0  0  0  0
 41 53  1  6  0  0  0
 41 42  1  0  0  0  0
 41 43  1  0  0  0  0
 42 54  1  0  0  0  0
 43 44  1  0  0  0  0
 45 39  2  0  0  0  0
 46 36  2  0  0  0  0
 46 45  1  0  0  0  0
 47 43  2  0  0  0  0
 48 35  1  0  0  0  0
 51 40  1  0  0  0  0
 55 45  1  0  0  0  0
 56 46  1  0  0  0  0
M  END
$$$$
