LQD.pdb
 OpenBabel07022418453D

 51 50  0  0  1  0  0  0  0  0999 V2000
    1.2550   -0.4440    5.7600 C   0  0  0  0  0  0  0  0  0  0  0  0
    0.6280   -0.6750    4.3880 C   0  0  0  0  0  0  0  0  0  0  0  0
   -0.0140   -2.0180    4.3950 C   0  0  0  0  0  0  0  0  0  0  0  0
   -0.2880    0.4710    4.1240 C   0  0  0  0  0  0  0  0  0  0  0  0
   -1.0020    0.4180    2.8070 C   0  0  2  0  0  0  0  0  0  0  0  0
   -1.8310   -0.7620    2.6720 N   0  0  0  0  0  0  0  0  0  0  0  0
   -0.1180    0.6300    1.6510 C   0  0  0  0  0  0  0  0  0  0  0  0
    0.6340    1.6270    1.6420 O   0  0  0  0  0  0  0  0  0  0  0  0
    2.1460   -1.0500    5.9250 H   0  0  0  0  0  0  0  0  0  0  0  0
    1.4960    0.6420    5.8350 H   0  0  0  0  0  0  0  0  0  0  0  0
    0.4510   -0.6180    6.5040 H   0  0  0  0  0  0  0  0  0  0  0  0
    1.4680   -0.6880    3.6600 H   0  0  0  0  0  0  0  0  0  0  0  0
   -0.1060   -2.4640    3.3690 H   0  0  0  0  0  0  0  0  0  0  0  0
    0.5980   -2.7420    4.9790 H   0  0  0  0  0  0  0  0  0  0  0  0
   -1.0290   -2.0440    4.8350 H   0  0  0  0  0  0  0  0  0  0  0  0
    0.3280    1.3960    4.1300 H   0  0  0  0  0  0  0  0  0  0  0  0
   -1.0360    0.5710    4.9180 H   0  0  0  0  0  0  0  0  0  0  0  0
   -1.7260    1.2870    2.8130 H   0  0  0  0  0  0  0  0  0  0  0  0
   -2.5340   -0.7650    3.4620 H   0  0  0  0  0  0  0  0  0  0  0  0
   -2.3080   -0.7930    1.7680 H   0  0  0  0  0  0  0  0  0  0  0  0
    4.7200   -2.4760    1.2930 N   0  0  0  0  0  0  0  0  0  0  0  0
    3.7400   -2.2740    0.3100 C   0  0  0  0  0  0  0  0  0  0  0  0
    3.6990   -2.9910   -0.7250 O   0  0  0  0  0  0  0  0  0  0  0  0
    2.7120   -1.2110    0.4410 C   0  0  0  0  0  0  0  0  0  0  0  0
    1.7980   -1.1680   -0.7670 C   0  0  0  0  0  0  0  0  0  0  0  0
    0.7640   -0.0780   -0.6030 C   0  0  2  0  0  0  0  0  0  0  0  0
   -0.0770   -0.2450    0.5430 N   0  0  0  0  0  0  0  0  0  0  0  0
    0.0370    0.0570   -1.8790 C   0  0  0  0  0  0  0  0  0  0  0  0
    0.7440    0.2260   -2.9120 O   0  0  0  0  0  0  0  0  0  0  0  0
    4.7850   -3.4060    1.7580 H   0  0  0  0  0  0  0  0  0  0  0  0
    5.3860   -1.7250    1.5740 H   0  0  0  0  0  0  0  0  0  0  0  0
    3.2420   -0.2410    0.5230 H   0  0  0  0  0  0  0  0  0  0  0  0
    2.1560   -1.4150    1.3760 H   0  0  0  0  0  0  0  0  0  0  0  0
    1.3810   -2.1440   -1.0200 H   0  0  0  0  0  0  0  0  0  0  0  0
    2.4320   -0.8620   -1.6290 H   0  0  0  0  0  0  0  0  0  0  0  0
    1.3430    0.8610   -0.4660 H   0  0  0  0  0  0  0  0  0  0  0  0
   -0.7080   -1.0830    0.5520 H   0  0  0  0  0  0  0  0  0  0  0  0
   -1.3550    0.0120   -2.0270 N   0  0  0  0  0  0  0  0  0  0  0  0
   -2.0740    0.1450   -3.2800 C   0  0  1  0  0  0  0  0  0  0  0  0
   -2.9030   -1.0450   -3.6260 C   0  0  0  0  0  0  0  0  0  0  0  0
   -2.1690   -2.3020   -3.7740 C   0  0  0  0  0  0  0  0  0  0  0  0
   -2.8190   -3.3310   -4.0830 O   0  0  0  0  0  0  0  0  0  0  0  0
   -2.9820    1.3190   -3.2480 C   0  0  0  0  0  0  0  0  0  0  0  0
   -3.7040    1.6100   -4.2330 O   0  0  0  0  0  0  0  0  0  0  0  0
   -0.8170   -2.3550   -3.5820 O   0  0  0  0  0  0  0  0  0  0  0  0
   -3.0420    2.1090   -2.1270 O   0  0  0  0  0  0  0  0  0  0  0  0
   -1.9390   -0.1300   -1.1650 H   0  0  0  0  0  0  0  0  0  0  0  0
   -1.2690    0.2870   -4.0620 H   0  0  0  0  0  0  0  0  0  0  0  0
   -3.4280   -0.8100   -4.5780 H   0  0  0  0  0  0  0  0  0  0  0  0
   -3.7240   -1.1200   -2.8560 H   0  0  0  0  0  0  0  0  0  0  0  0
   -0.3870   -3.2030   -3.1830 H   0  0  0  0  0  0  0  0  0  0  0  0
  1 10  1  0  0  0  0
  1  9  1  0  0  0  0
  1 11  1  0  0  0  0
  2  3  1  0  0  0  0
  2  1  1  0  0  0  0
  3 15  1  0  0  0  0
  3 14  1  0  0  0  0
  4 16  1  0  0  0  0
  4  2  1  0  0  0  0
  4 17  1  0  0  0  0
  5 18  1  1  0  0  0
  5  4  1  0  0  0  0
  6  5  1  0  0  0  0
  6 19  1  0  0  0  0
  7  5  1  0  0  0  0
  8  7  2  0  0  0  0
 12  2  1  0  0  0  0
 13  3  1  0  0  0  0
 20  6  1  0  0  0  0
 21 31  1  0  0  0  0
 21 30  1  0  0  0  0
 22 24  1  0  0  0  0
 22 21  1  0  0  0  0
 23 22  2  0  0  0  0
 24 32  1  0  0  0  0
 24 33  1  0  0  0  0
 25 26  1  0  0  0  0
 25 24  1  0  0  0  0
 26 36  1  1  0  0  0
 26 27  1  0  0  0  0
 27 37  1  0  0  0  0
 27  7  1  0  0  0  0
 28 26  1  0  0  0  0
 29 28  2  0  0  0  0
 34 25  1  0  0  0  0
 35 25  1  0  0  0  0
 38 28  1  0  0  0  0
 38 47  1  0  0  0  0
 39 48  1  6  0  0  0
 39 43  1  0  0  0  0
 39 38  1  0  0  0  0
 40 39  1  0  0  0  0
 40 50  1  0  0  0  0
 41 40  1  0  0  0  0
 41 45  1  0  0  0  0
 42 41  2  0  0  0  0
 43 46  1  0  0  0  0
 44 43  2  0  0  0  0
 45 51  1  0  0  0  0
 49 40  1  0  0  0  0
M  END
$$$$
