LQE.pdb
 OpenBabel07022418453D

 54 53  0  0  1  0  0  0  0  0999 V2000
    2.3420   -2.5410    4.7240 C   0  0  0  0  0  0  0  0  0  0  0  0
    1.4180   -2.5030    3.5270 C   0  0  0  0  0  0  0  0  0  0  0  0
    0.9170   -3.9310    3.3440 C   0  0  0  0  0  0  0  0  0  0  0  0
    0.2800   -1.5570    3.7970 C   0  0  0  0  0  0  0  0  0  0  0  0
   -0.6840   -1.4640    2.6460 C   0  0  2  0  0  0  0  0  0  0  0  0
   -1.2100   -2.7910    2.4130 N   0  0  0  0  0  0  0  0  0  0  0  0
   -0.0960   -0.9010    1.4100 C   0  0  0  0  0  0  0  0  0  0  0  0
   -0.0030   -1.5810    0.3410 O   0  0  0  0  0  0  0  0  0  0  0  0
    2.9020   -3.5040    4.6800 H   0  0  0  0  0  0  0  0  0  0  0  0
    3.0590   -1.6780    4.7330 H   0  0  0  0  0  0  0  0  0  0  0  0
    1.7400   -2.5530    5.6620 H   0  0  0  0  0  0  0  0  0  0  0  0
    1.9900   -2.2040    2.6460 H   0  0  0  0  0  0  0  0  0  0  0  0
    1.6920   -4.6650    3.6840 H   0  0  0  0  0  0  0  0  0  0  0  0
    0.7420   -4.1410    2.2700 H   0  0  0  0  0  0  0  0  0  0  0  0
    0.0280   -4.1170    3.9490 H   0  0  0  0  0  0  0  0  0  0  0  0
   -0.2860   -1.9400    4.6640 H   0  0  0  0  0  0  0  0  0  0  0  0
    0.7040   -0.5720    4.0960 H   0  0  0  0  0  0  0  0  0  0  0  0
   -1.5190   -0.8150    2.9950 H   0  0  0  0  0  0  0  0  0  0  0  0
   -1.9670   -2.9450    3.1240 H   0  0  0  0  0  0  0  0  0  0  0  0
   -1.6100   -2.9160    1.4660 H   0  0  0  0  0  0  0  0  0  0  0  0
    5.5690   -0.8410    0.4710 N   0  0  0  0  0  0  0  0  0  0  0  0
    4.3560   -0.5410   -0.1860 C   0  0  0  0  0  0  0  0  0  0  0  0
    4.2030   -0.8850   -1.3720 O   0  0  0  0  0  0  0  0  0  0  0  0
    3.2930    0.1730    0.5440 C   0  0  0  0  0  0  0  0  0  0  0  0
    2.1330    0.3630   -0.3720 C   0  0  0  0  0  0  0  0  0  0  0  0
    0.9660    1.0830    0.2530 C   0  0  2  0  0  0  0  0  0  0  0  0
    0.3890    0.4460    1.3850 N   0  0  0  0  0  0  0  0  0  0  0  0
   -0.0130    1.3500   -0.8350 C   0  0  0  0  0  0  0  0  0  0  0  0
    0.3570    1.9040   -1.8960 O   0  0  0  0  0  0  0  0  0  0  0  0
    5.6570   -0.9750    1.5010 H   0  0  0  0  0  0  0  0  0  0  0  0
    6.4670   -0.9440   -0.0770 H   0  0  0  0  0  0  0  0  0  0  0  0
    3.7080    1.1310    0.9300 H   0  0  0  0  0  0  0  0  0  0  0  0
    2.9310   -0.3980    1.4280 H   0  0  0  0  0  0  0  0  0  0  0  0
    1.8030   -0.6030   -0.7580 H   0  0  0  0  0  0  0  0  0  0  0  0
    2.4770    1.0130   -1.2190 H   0  0  0  0  0  0  0  0  0  0  0  0
    1.3440    2.1010    0.5820 H   0  0  0  0  0  0  0  0  0  0  0  0
    0.2960    0.9710    2.2860 H   0  0  0  0  0  0  0  0  0  0  0  0
   -1.3790    1.0070   -0.7490 N   0  0  0  0  0  0  0  0  0  0  0  0
   -2.2850    1.2780   -1.8110 C   0  0  1  0  0  0  0  0  0  0  0  0
   -2.8370    0.0270   -2.4060 C   0  0  0  0  0  0  0  0  0  0  0  0
   -3.7910    0.2050   -3.5230 C   0  0  0  0  0  0  0  0  0  0  0  0
   -4.2640   -1.1360   -4.0310 C   0  0  0  0  0  0  0  0  0  0  0  0
   -3.4950   -1.8260   -4.7770 O   0  0  0  0  0  0  0  0  0  0  0  0
   -3.2550    2.2620   -1.3620 C   0  0  0  0  0  0  0  0  0  0  0  0
   -4.1980    2.7450   -2.0320 O   0  0  0  0  0  0  0  0  0  0  0  0
   -5.4840   -1.6730   -3.7400 O   0  0  0  0  0  0  0  0  0  0  0  0
   -3.1730    2.7490   -0.0630 O   0  0  0  0  0  0  0  0  0  0  0  0
   -1.7550    0.5340    0.1290 H   0  0  0  0  0  0  0  0  0  0  0  0
   -1.6970    1.7710   -2.6430 H   0  0  0  0  0  0  0  0  0  0  0  0
   -3.3560   -0.5680   -1.6070 H   0  0  0  0  0  0  0  0  0  0  0  0
   -1.9650   -0.5540   -2.7970 H   0  0  0  0  0  0  0  0  0  0  0  0
   -3.2900    0.6540   -4.4300 H   0  0  0  0  0  0  0  0  0  0  0  0
   -4.6420    0.8730   -3.3320 H   0  0  0  0  0  0  0  0  0  0  0  0
   -5.6760   -2.6650   -3.8980 H   0  0  0  0  0  0  0  0  0  0  0  0
  1 10  1  0  0  0  0
  1 11  1  0  0  0  0
  2  4  1  0  0  0  0
  2  1  1  0  0  0  0
  3  2  1  0  0  0  0
  3 13  1  0  0  0  0
  3 15  1  0  0  0  0
  4 17  1  0  0  0  0
  4 16  1  0  0  0  0
  5 18  1  1  0  0  0
  5  4  1  0  0  0  0
  6  5  1  0  0  0  0
  6 19  1  0  0  0  0
  7  5  1  0  0  0  0
  8  7  2  0  0  0  0
  9  1  1  0  0  0  0
 12  2  1  0  0  0  0
 14  3  1  0  0  0  0
 20  6  1  0  0  0  0
 21 30  1  0  0  0  0
 22 21  1  0  0  0  0
 22 24  1  0  0  0  0
 23 22  2  0  0  0  0
 24 32  1  0  0  0  0
 24 33  1  0  0  0  0
 25 26  1  0  0  0  0
 25 24  1  0  0  0  0
 26 36  1  1  0  0  0
 26 27  1  0  0  0  0
 27  7  1  0  0  0  0
 27 37  1  0  0  0  0
 28 38  1  0  0  0  0
 28 26  1  0  0  0  0
 29 28  2  0  0  0  0
 31 21  1  0  0  0  0
 34 25  1  0  0  0  0
 35 25  1  0  0  0  0
 38 48  1  0  0  0  0
 39 49  1  6  0  0  0
 39 44  1  0  0  0  0
 39 38  1  0  0  0  0
 40 39  1  0  0  0  0
 40 50  1  0  0  0  0
 41 53  1  0  0  0  0
 41 40  1  0  0  0  0
 42 46  1  0  0  0  0
 42 41  1  0  0  0  0
 43 42  2  0  0  0  0
 44 47  1  0  0  0  0
 45 44  2  0  0  0  0
 51 40  1  0  0  0  0
 52 41  1  0  0  0  0
 54 46  1  0  0  0  0
M  END
$$$$
