LQL.pdb
 OpenBabel07022418453D

 57 56  0  0  1  0  0  0  0  0999 V2000
   -3.4790   -2.0710   -4.5070 C   0  0  0  0  0  0  0  0  0  0  0  0
   -3.6040   -2.6750   -3.1500 C   0  0  0  0  0  0  0  0  0  0  0  0
   -4.8460   -2.1470   -2.4770 C   0  0  0  0  0  0  0  0  0  0  0  0
   -2.4170   -2.3840   -2.2630 C   0  0  0  0  0  0  0  0  0  0  0  0
   -1.1290   -2.9190   -2.8420 C   0  0  2  0  0  0  0  0  0  0  0  0
   -1.2870   -4.3540   -2.9730 N   0  0  0  0  0  0  0  0  0  0  0  0
   -0.0250   -2.6580   -1.8830 C   0  0  0  0  0  0  0  0  0  0  0  0
    0.5590   -3.6020   -1.3110 O   0  0  0  0  0  0  0  0  0  0  0  0
   -4.2500   -1.3090   -4.6480 H   0  0  0  0  0  0  0  0  0  0  0  0
   -3.6510   -2.8540   -5.2700 H   0  0  0  0  0  0  0  0  0  0  0  0
   -2.5060   -1.5610   -4.6620 H   0  0  0  0  0  0  0  0  0  0  0  0
   -3.6780   -3.7850   -3.2140 H   0  0  0  0  0  0  0  0  0  0  0  0
   -4.9600   -2.6070   -1.4550 H   0  0  0  0  0  0  0  0  0  0  0  0
   -5.7540   -2.2890   -3.0850 H   0  0  0  0  0  0  0  0  0  0  0  0
   -4.7000   -1.0550   -2.2900 H   0  0  0  0  0  0  0  0  0  0  0  0
   -2.3190   -1.2830   -2.1950 H   0  0  0  0  0  0  0  0  0  0  0  0
   -2.5490   -2.7770   -1.2550 H   0  0  0  0  0  0  0  0  0  0  0  0
   -0.9090   -2.5170   -3.8430 H   0  0  0  0  0  0  0  0  0  0  0  0
   -1.8740   -4.6200   -3.7750 H   0  0  0  0  0  0  0  0  0  0  0  0
   -1.4970   -4.8330   -2.0850 H   0  0  0  0  0  0  0  0  0  0  0  0
    6.1060    0.8640   -1.3000 N   0  0  0  0  0  0  0  0  0  0  0  0
    4.8330    0.4010   -1.7440 C   0  0  0  0  0  0  0  0  0  0  0  0
    4.5890    0.4460   -2.9730 O   0  0  0  0  0  0  0  0  0  0  0  0
    3.8460   -0.1150   -0.7360 C   0  0  0  0  0  0  0  0  0  0  0  0
    2.6180   -0.4940   -1.4910 C   0  0  0  0  0  0  0  0  0  0  0  0
    1.4970   -1.0490   -0.6360 C   0  0  2  0  0  0  0  0  0  0  0  0
    0.4180   -1.3450   -1.5720 N   0  0  0  0  0  0  0  0  0  0  0  0
    1.0460   -0.1090    0.4190 C   0  0  0  0  0  0  0  0  0  0  0  0
    1.8080    0.2570    1.3440 O   0  0  0  0  0  0  0  0  0  0  0  0
    6.8020    0.1130   -1.0610 H   0  0  0  0  0  0  0  0  0  0  0  0
    6.3730    1.8550   -1.2050 H   0  0  0  0  0  0  0  0  0  0  0  0
    3.7020    0.6180    0.0730 H   0  0  0  0  0  0  0  0  0  0  0  0
    4.3020   -1.0300   -0.3050 H   0  0  0  0  0  0  0  0  0  0  0  0
    2.9120   -1.3370   -2.1740 H   0  0  0  0  0  0  0  0  0  0  0  0
    2.2570    0.3060   -2.1740 H   0  0  0  0  0  0  0  0  0  0  0  0
    1.8890   -1.9740   -0.1740 H   0  0  0  0  0  0  0  0  0  0  0  0
   -0.0630   -0.5530   -2.0440 H   0  0  0  0  0  0  0  0  0  0  0  0
   -1.8060    4.9840    1.4320 C   0  0  0  0  0  0  0  0  0  0  0  0
   -1.4130    3.6200    2.0200 C   0  0  0  0  0  0  0  0  0  0  0  0
   -0.3170    3.8140    3.0210 C   0  0  0  0  0  0  0  0  0  0  0  0
   -1.0490    2.6610    0.9280 C   0  0  0  0  0  0  0  0  0  0  0  0
   -0.6470    1.3450    1.4940 C   0  0  2  0  0  0  0  0  0  0  0  0
   -0.2690    0.4160    0.4200 N   0  0  0  0  0  0  0  0  0  0  0  0
   -1.7990    0.7080    2.1700 C   0  0  0  0  0  0  0  0  0  0  0  0
   -2.3370   -0.3490    1.7180 O   0  0  0  0  0  0  0  0  0  0  0  0
   -2.2990    1.2770    3.3260 O   0  0  0  0  0  0  0  0  0  0  0  0
   -2.1920    5.5660    2.2960 H   0  0  0  0  0  0  0  0  0  0  0  0
   -2.6600    4.8600    0.7350 H   0  0  0  0  0  0  0  0  0  0  0  0
   -0.9610    5.4950    0.9660 H   0  0  0  0  0  0  0  0  0  0  0  0
   -2.3360    3.3230    2.5800 H   0  0  0  0  0  0  0  0  0  0  0  0
   -0.2870    4.8930    3.2950 H   0  0  0  0  0  0  0  0  0  0  0  0
   -0.5080    3.2530    3.9530 H   0  0  0  0  0  0  0  0  0  0  0  0
    0.6910    3.5530    2.5970 H   0  0  0  0  0  0  0  0  0  0  0  0
   -0.2070    3.1360    0.3640 H   0  0  0  0  0  0  0  0  0  0  0  0
   -1.9080    2.5610    0.2240 H   0  0  0  0  0  0  0  0  0  0  0  0
    0.1660    1.4990    2.2050 H   0  0  0  0  0  0  0  0  0  0  0  0
   -0.9880    0.1840   -0.2950 H   0  0  0  0  0  0  0  0  0  0  0  0
  1  2  1  0  0  0  0
  2  3  1  0  0  0  0
  2  4  1  0  0  0  0
  3 15  1  0  0  0  0
  3 13  1  0  0  0  0
  4 16  1  0  0  0  0
  4 17  1  0  0  0  0
  5 18  1  6  0  0  0
  5  4  1  0  0  0  0
  5  7  1  0  0  0  0
  6  5  1  0  0  0  0
  6 20  1  0  0  0  0
  7 27  1  0  0  0  0
  7  8  2  0  0  0  0
  9  1  1  0  0  0  0
 10  1  1  0  0  0  0
 11  1  1  0  0  0  0
 12  2  1  0  0  0  0
 14  3  1  0  0  0  0
 19  6  1  0  0  0  0
 21 31  1  0  0  0  0
 21 30  1  0  0  0  0
 22 21  1  0  0  0  0
 22 24  1  0  0  0  0
 23 22  2  0  0  0  0
 24 33  1  0  0  0  0
 24 32  1  0  0  0  0
 25 24  1  0  0  0  0
 25 26  1  0  0  0  0
 26 36  1  1  0  0  0
 26 28  1  0  0  0  0
 27 26  1  0  0  0  0
 28 43  1  0  0  0  0
 28 29  2  0  0  0  0
 34 25  1  0  0  0  0
 35 25  1  0  0  0  0
 37 27  1  0  0  0  0
 38 39  1  0  0  0  0
 38 47  1  0  0  0  0
 39 50  1  0  0  0  0
 39 40  1  0  0  0  0
 40 51  1  0  0  0  0
 40 52  1  0  0  0  0
 41 42  1  0  0  0  0
 41 39  1  0  0  0  0
 42 44  1  0  0  0  0
 42 56  1  1  0  0  0
 43 42  1  0  0  0  0
 44 46  1  0  0  0  0
 45 44  2  0  0  0  0
 48 38  1  0  0  0  0
 49 38  1  0  0  0  0
 53 40  1  0  0  0  0
 54 41  1  0  0  0  0
 55 41  1  0  0  0  0
 57 43  1  0  0  0  0
M  END
$$$$
