LQM.pdb
 OpenBabel07022418453D

 55 54  0  0  1  0  0  0  0  0999 V2000
   -0.5790   -2.3960    5.3780 C   0  0  0  0  0  0  0  0  0  0  0  0
    0.3660   -2.5060    4.2030 C   0  0  0  0  0  0  0  0  0  0  0  0
   -0.4130   -2.5480    2.9400 C   0  0  0  0  0  0  0  0  0  0  0  0
    1.4380   -1.4740    4.2780 C   0  0  0  0  0  0  0  0  0  0  0  0
    0.9940   -0.0580    4.2810 C   0  0  2  0  0  0  0  0  0  0  0  0
    0.1270    0.2560    5.4030 N   0  0  0  0  0  0  0  0  0  0  0  0
    0.4490    0.4560    3.0280 C   0  0  0  0  0  0  0  0  0  0  0  0
   -0.6240    1.0960    3.0470 O   0  0  0  0  0  0  0  0  0  0  0  0
   -1.0290   -3.4210    5.5050 H   0  0  0  0  0  0  0  0  0  0  0  0
    0.0170   -2.1200    6.2800 H   0  0  0  0  0  0  0  0  0  0  0  0
   -1.3510   -1.6630    5.1290 H   0  0  0  0  0  0  0  0  0  0  0  0
    0.8880   -3.5050    4.2890 H   0  0  0  0  0  0  0  0  0  0  0  0
    0.1410   -3.0690    2.1040 H   0  0  0  0  0  0  0  0  0  0  0  0
   -0.8480   -1.6000    2.6150 H   0  0  0  0  0  0  0  0  0  0  0  0
   -1.2940   -3.2300    3.1270 H   0  0  0  0  0  0  0  0  0  0  0  0
    2.2340   -1.6090    3.5180 H   0  0  0  0  0  0  0  0  0  0  0  0
    1.9670   -1.6440    5.2640 H   0  0  0  0  0  0  0  0  0  0  0  0
    1.9270    0.5540    4.4790 H   0  0  0  0  0  0  0  0  0  0  0  0
    0.7260    0.2510    6.2590 H   0  0  0  0  0  0  0  0  0  0  0  0
   -0.1920    1.2420    5.2700 H   0  0  0  0  0  0  0  0  0  0  0  0
    2.4140    4.0250   -2.8540 N   0  0  0  0  0  0  0  0  0  0  0  0
    2.4770    3.2800   -1.6560 C   0  0  0  0  0  0  0  0  0  0  0  0
    3.4710    3.3620   -0.9030 O   0  0  0  0  0  0  0  0  0  0  0  0
    1.3240    2.3770   -1.2900 C   0  0  0  0  0  0  0  0  0  0  0  0
    1.6110    1.6980    0.0010 C   0  0  0  0  0  0  0  0  0  0  0  0
    0.5240    0.7850    0.5130 C   0  0  2  0  0  0  0  0  0  0  0  0
    1.0880    0.2580    1.7830 N   0  0  0  0  0  0  0  0  0  0  0  0
    0.3070   -0.3540   -0.3950 C   0  0  0  0  0  0  0  0  0  0  0  0
    0.7790   -1.4800   -0.0620 O   0  0  0  0  0  0  0  0  0  0  0  0
    2.3510    5.0600   -2.8600 H   0  0  0  0  0  0  0  0  0  0  0  0
    2.4320    3.5300   -3.7630 H   0  0  0  0  0  0  0  0  0  0  0  0
    1.2170    1.6310   -2.1230 H   0  0  0  0  0  0  0  0  0  0  0  0
    0.4160    2.9660   -1.2240 H   0  0  0  0  0  0  0  0  0  0  0  0
    2.5440    1.0840   -0.1230 H   0  0  0  0  0  0  0  0  0  0  0  0
    1.8340    2.4280    0.8290 H   0  0  0  0  0  0  0  0  0  0  0  0
   -0.4130    1.3250    0.7140 H   0  0  0  0  0  0  0  0  0  0  0  0
    1.9820   -0.2600    1.6700 H   0  0  0  0  0  0  0  0  0  0  0  0
   -4.5590   -4.0560   -1.6130 C   0  0  0  0  0  0  0  0  0  0  0  0
   -4.0820   -3.4760   -3.2620 S   0  0  0  0  0  0  0  0  0  0  0  0
   -2.3230   -3.0150   -3.3090 C   0  0  0  0  0  0  0  0  0  0  0  0
   -2.0290   -1.8330   -2.4600 C   0  0  0  0  0  0  0  0  0  0  0  0
   -0.5660   -1.4710   -2.4760 C   0  0  2  0  0  0  0  0  0  0  0  0
   -0.3880   -0.3020   -1.6120 N   0  0  0  0  0  0  0  0  0  0  0  0
   -0.0200   -1.2450   -3.8090 C   0  0  0  0  0  0  0  0  0  0  0  0
    0.4720   -0.1110   -4.1120 O   0  0  0  0  0  0  0  0  0  0  0  0
    0.0090   -2.2010   -4.8010 O   0  0  0  0  0  0  0  0  0  0  0  0
   -4.2290   -3.3770   -0.8130 H   0  0  0  0  0  0  0  0  0  0  0  0
   -5.6670   -4.0810   -1.5780 H   0  0  0  0  0  0  0  0  0  0  0  0
   -4.2000   -5.0650   -1.3860 H   0  0  0  0  0  0  0  0  0  0  0  0
   -2.1510   -2.7080   -4.3840 H   0  0  0  0  0  0  0  0  0  0  0  0
   -1.6730   -3.8740   -3.1220 H   0  0  0  0  0  0  0  0  0  0  0  0
   -2.5730   -0.9110   -2.8240 H   0  0  0  0  0  0  0  0  0  0  0  0
   -2.3650   -1.9430   -1.4070 H   0  0  0  0  0  0  0  0  0  0  0  0
   -0.0400   -2.3210   -1.9590 H   0  0  0  0  0  0  0  0  0  0  0  0
   -0.8150    0.5710   -1.9320 H   0  0  0  0  0  0  0  0  0  0  0  0
  1  9  1  0  0  0  0
  1 10  1  0  0  0  0
  2  4  1  0  0  0  0
  2 12  1  0  0  0  0
  2  1  1  0  0  0  0
  3 15  1  0  0  0  0
  3  2  1  0  0  0  0
  4  5  1  0  0  0  0
  4 17  1  0  0  0  0
  5 18  1  1  0  0  0
  5  6  1  0  0  0  0
  6 19  1  0  0  0  0
  7  8  2  0  0  0  0
  7  5  1  0  0  0  0
 11  1  1  0  0  0  0
 13  3  1  0  0  0  0
 14  3  1  0  0  0  0
 16  4  1  0  0  0  0
 20  6  1  0  0  0  0
 21 22  1  0  0  0  0
 22 24  1  0  0  0  0
 22 23  2  0  0  0  0
 24 33  1  0  0  0  0
 24 25  1  0  0  0  0
 25 26  1  0  0  0  0
 25 35  1  0  0  0  0
 26 36  1  1  0  0  0
 26 27  1  0  0  0  0
 27  7  1  0  0  0  0
 28 29  2  0  0  0  0
 28 26  1  0  0  0  0
 30 21  1  0  0  0  0
 31 21  1  0  0  0  0
 32 24  1  0  0  0  0
 34 25  1  0  0  0  0
 37 27  1  0  0  0  0
 38 48  1  0  0  0  0
 38 49  1  0  0  0  0
 38 47  1  0  0  0  0
 39 38  1  0  0  0  0
 40 39  1  0  0  0  0
 40 51  1  0  0  0  0
 40 41  1  0  0  0  0
 41 53  1  0  0  0  0
 42 41  1  0  0  0  0
 42 54  1  1  0  0  0
 42 43  1  0  0  0  0
 43 28  1  0  0  0  0
 44 42  1  0  0  0  0
 45 44  1  0  0  0  0
 46 44  2  0  0  0  0
 50 40  1  0  0  0  0
 52 41  1  0  0  0  0
 55 43  1  0  0  0  0
M  END
$$$$
