LQQ.pdb
 OpenBabel07022418453D

 55 54  0  0  1  0  0  0  0  0999 V2000
    1.5670   -2.5700    4.5600 C   0  0  0  0  0  0  0  0  0  0  0  0
    0.9810   -1.1650    4.4320 C   0  0  0  0  0  0  0  0  0  0  0  0
    0.5220   -0.7570    5.8000 C   0  0  0  0  0  0  0  0  0  0  0  0
    2.0600   -0.2860    3.8740 C   0  0  0  0  0  0  0  0  0  0  0  0
    1.6220    1.1420    3.6920 C   0  0  2  0  0  0  0  0  0  0  0  0
    1.2120    1.7580    4.9280 N   0  0  0  0  0  0  0  0  0  0  0  0
    0.6000    1.2990    2.6250 C   0  0  0  0  0  0  0  0  0  0  0  0
   -0.4620    1.9190    2.8960 O   0  0  0  0  0  0  0  0  0  0  0  0
    2.3250   -2.7650    3.7770 H   0  0  0  0  0  0  0  0  0  0  0  0
    1.9810   -2.7590    5.5630 H   0  0  0  0  0  0  0  0  0  0  0  0
    0.7470   -3.3030    4.4020 H   0  0  0  0  0  0  0  0  0  0  0  0
    0.1740   -1.2360    3.6950 H   0  0  0  0  0  0  0  0  0  0  0  0
   -0.4650   -0.2420    5.7230 H   0  0  0  0  0  0  0  0  0  0  0  0
    1.2260   -0.1430    6.3600 H   0  0  0  0  0  0  0  0  0  0  0  0
    0.3130   -1.6640    6.4400 H   0  0  0  0  0  0  0  0  0  0  0  0
    2.3410   -0.6940    2.8820 H   0  0  0  0  0  0  0  0  0  0  0  0
    2.9490   -0.3110    4.5050 H   0  0  0  0  0  0  0  0  0  0  0  0
    2.5270    1.7080    3.3430 H   0  0  0  0  0  0  0  0  0  0  0  0
    0.3580    2.3460    4.8310 H   0  0  0  0  0  0  0  0  0  0  0  0
    1.9780    2.2190    5.4420 H   0  0  0  0  0  0  0  0  0  0  0  0
    3.4890    1.5030   -3.1100 N   0  0  0  0  0  0  0  0  0  0  0  0
    2.3130    1.9270   -2.4420 C   0  0  0  0  0  0  0  0  0  0  0  0
    1.7600    2.9910   -2.7450 O   0  0  0  0  0  0  0  0  0  0  0  0
    1.7620    1.0630   -1.3690 C   0  0  0  0  0  0  0  0  0  0  0  0
    0.5110    1.7150   -0.7990 C   0  0  0  0  0  0  0  0  0  0  0  0
   -0.0990    0.8800    0.3020 C   0  0  2  0  0  0  0  0  0  0  0  0
    0.8790    0.7390    1.3520 N   0  0  0  0  0  0  0  0  0  0  0  0
   -0.5470   -0.4380   -0.2200 C   0  0  0  0  0  0  0  0  0  0  0  0
   -0.0530   -1.4780    0.2810 O   0  0  0  0  0  0  0  0  0  0  0  0
    3.4070    1.0710   -4.0580 H   0  0  0  0  0  0  0  0  0  0  0  0
    4.4530    1.5900   -2.7210 H   0  0  0  0  0  0  0  0  0  0  0  0
    1.5320    0.0800   -1.8420 H   0  0  0  0  0  0  0  0  0  0  0  0
    2.5340    0.9940   -0.5840 H   0  0  0  0  0  0  0  0  0  0  0  0
    0.8200    2.7040   -0.4070 H   0  0  0  0  0  0  0  0  0  0  0  0
   -0.1640    1.8920   -1.6450 H   0  0  0  0  0  0  0  0  0  0  0  0
   -0.9630    1.4420    0.7010 H   0  0  0  0  0  0  0  0  0  0  0  0
    1.7830    0.2200    1.1470 H   0  0  0  0  0  0  0  0  0  0  0  0
   -3.8100   -5.0230   -3.9590 N   0  0  0  0  0  0  0  0  0  0  0  0
   -3.9020   -3.7430   -3.3590 C   0  0  0  0  0  0  0  0  0  0  0  0
   -4.0770   -2.7480   -4.1340 O   0  0  0  0  0  0  0  0  0  0  0  0
   -3.8170   -3.5090   -1.9090 C   0  0  0  0  0  0  0  0  0  0  0  0
   -3.2940   -2.1970   -1.4650 C   0  0  0  0  0  0  0  0  0  0  0  0
   -1.8740   -1.9480   -1.6960 C   0  0  2  0  0  0  0  0  0  0  0  0
   -1.4980   -0.5890   -1.2490 N   0  0  0  0  0  0  0  0  0  0  0  0
   -1.3990   -2.0910   -3.0520 C   0  0  0  0  0  0  0  0  0  0  0  0
   -1.2830   -3.2350   -3.6020 O   0  0  0  0  0  0  0  0  0  0  0  0
   -1.0380   -0.9810   -3.8490 O   0  0  0  0  0  0  0  0  0  0  0  0
   -4.2800   -5.2720   -4.8490 H   0  0  0  0  0  0  0  0  0  0  0  0
   -3.2370   -5.7800   -3.4940 H   0  0  0  0  0  0  0  0  0  0  0  0
   -3.1310   -4.3100   -1.4740 H   0  0  0  0  0  0  0  0  0  0  0  0
   -4.8160   -3.7410   -1.4260 H   0  0  0  0  0  0  0  0  0  0  0  0
   -3.9450   -1.3910   -1.9630 H   0  0  0  0  0  0  0  0  0  0  0  0
   -3.6060   -2.0850   -0.3890 H   0  0  0  0  0  0  0  0  0  0  0  0
   -1.2780   -2.6970   -1.0770 H   0  0  0  0  0  0  0  0  0  0  0  0
   -1.9250    0.2530   -1.6840 H   0  0  0  0  0  0  0  0  0  0  0  0
  1 10  1  0  0  0  0
  2  1  1  0  0  0  0
  2  3  1  0  0  0  0
  3 14  1  0  0  0  0
  3 15  1  0  0  0  0
  4  2  1  0  0  0  0
  4 17  1  0  0  0  0
  5 18  1  6  0  0  0
  5  4  1  0  0  0  0
  5  6  1  0  0  0  0
  6 20  1  0  0  0  0
  7  8  2  0  0  0  0
  7  5  1  0  0  0  0
  9  1  1  0  0  0  0
 11  1  1  0  0  0  0
 12  2  1  0  0  0  0
 13  3  1  0  0  0  0
 16  4  1  0  0  0  0
 19  6  1  0  0  0  0
 21 31  1  0  0  0  0
 21 22  1  0  0  0  0
 22 24  1  0  0  0  0
 23 22  2  0  0  0  0
 24 25  1  0  0  0  0
 24 33  1  0  0  0  0
 25 34  1  0  0  0  0
 25 26  1  0  0  0  0
 26 36  1  1  0  0  0
 26 27  1  0  0  0  0
 27  7  1  0  0  0  0
 28 29  2  0  0  0  0
 28 26  1  0  0  0  0
 30 21  1  0  0  0  0
 32 24  1  0  0  0  0
 35 25  1  0  0  0  0
 37 27  1  0  0  0  0
 38 49  1  0  0  0  0
 38 39  1  0  0  0  0
 39 41  1  0  0  0  0
 40 39  2  0  0  0  0
 41 50  1  0  0  0  0
 41 42  1  0  0  0  0
 41 51  1  0  0  0  0
 42 53  1  0  0  0  0
 43 42  1  0  0  0  0
 43 44  1  0  0  0  0
 43 54  1  1  0  0  0
 44 28  1  0  0  0  0
 45 43  1  0  0  0  0
 46 45  1  0  0  0  0
 47 45  2  0  0  0  0
 48 38  1  0  0  0  0
 52 42  1  0  0  0  0
 55 44  1  0  0  0  0
M  END
$$$$
