LQS.pdb
 OpenBabel07022418453D

 49 48  0  0  1  0  0  0  0  0999 V2000
    2.3170   -4.8630    1.3440 C   0  0  0  0  0  0  0  0  0  0  0  0
    1.9800   -3.7110    2.3040 C   0  0  0  0  0  0  0  0  0  0  0  0
    0.5370   -3.3660    2.0170 C   0  0  0  0  0  0  0  0  0  0  0  0
    2.9370   -2.6080    2.0020 C   0  0  0  0  0  0  0  0  0  0  0  0
    2.7770   -1.3740    2.8410 C   0  0  2  0  0  0  0  0  0  0  0  0
    2.9430   -1.6610    4.2590 N   0  0  0  0  0  0  0  0  0  0  0  0
    1.5630   -0.5870    2.5560 C   0  0  0  0  0  0  0  0  0  0  0  0
    0.7830   -0.3130    3.5290 O   0  0  0  0  0  0  0  0  0  0  0  0
    1.5960   -5.6830    1.4530 H   0  0  0  0  0  0  0  0  0  0  0  0
    2.1800   -4.4420    0.3190 H   0  0  0  0  0  0  0  0  0  0  0  0
    3.3660   -5.1680    1.4470 H   0  0  0  0  0  0  0  0  0  0  0  0
    2.1060   -4.1140    3.3290 H   0  0  0  0  0  0  0  0  0  0  0  0
    0.4320   -2.7930    1.0970 H   0  0  0  0  0  0  0  0  0  0  0  0
    0.1120   -2.8970    2.9240 H   0  0  0  0  0  0  0  0  0  0  0  0
    0.0150   -4.3560    1.8630 H   0  0  0  0  0  0  0  0  0  0  0  0
    2.8410   -2.3030    0.9380 H   0  0  0  0  0  0  0  0  0  0  0  0
    3.9840   -2.9470    2.1190 H   0  0  0  0  0  0  0  0  0  0  0  0
    3.6810   -0.7320    2.5890 H   0  0  0  0  0  0  0  0  0  0  0  0
    3.4890   -0.9150    4.7430 H   0  0  0  0  0  0  0  0  0  0  0  0
    3.4390   -2.5630    4.4280 H   0  0  0  0  0  0  0  0  0  0  0  0
    1.7490    2.3920   -2.7400 N   0  0  0  0  0  0  0  0  0  0  0  0
    0.8100    2.1790   -1.6630 C   0  0  0  0  0  0  0  0  0  0  0  0
   -0.2810    1.7130   -2.0220 O   0  0  0  0  0  0  0  0  0  0  0  0
    1.1280    2.4880   -0.2970 C   0  0  0  0  0  0  0  0  0  0  0  0
    0.2740    2.0930    0.8210 C   0  0  0  0  0  0  0  0  0  0  0  0
    0.0120    0.6520    1.0790 C   0  0  2  0  0  0  0  0  0  0  0  0
    1.2080   -0.1130    1.2770 N   0  0  0  0  0  0  0  0  0  0  0  0
   -0.9450    0.0740    0.1380 C   0  0  0  0  0  0  0  0  0  0  0  0
   -0.6680   -0.9330   -0.5630 O   0  0  0  0  0  0  0  0  0  0  0  0
    2.0590    1.5530   -3.2540 H   0  0  0  0  0  0  0  0  0  0  0  0
    2.1020    3.3170   -2.9980 H   0  0  0  0  0  0  0  0  0  0  0  0
    2.1940    2.1520   -0.1040 H   0  0  0  0  0  0  0  0  0  0  0  0
    1.2070    3.6340   -0.2420 H   0  0  0  0  0  0  0  0  0  0  0  0
   -0.7170    2.6130    0.7860 H   0  0  0  0  0  0  0  0  0  0  0  0
    0.7530    2.5020    1.7640 H   0  0  0  0  0  0  0  0  0  0  0  0
   -0.5320    0.6570    2.1060 H   0  0  0  0  0  0  0  0  0  0  0  0
    1.8290   -0.3230    0.4560 H   0  0  0  0  0  0  0  0  0  0  0  0
   -5.1870   -1.1040   -1.1290 O   0  0  0  0  0  0  0  0  0  0  0  0
   -4.3360   -0.5750   -0.1700 C   0  0  0  0  0  0  0  0  0  0  0  0
   -3.1820    0.0840   -0.9140 C   0  0  2  0  0  0  0  0  0  0  0  0
   -2.2380    0.6670    0.0140 N   0  0  0  0  0  0  0  0  0  0  0  0
   -3.6730    1.1260   -1.8420 C   0  0  0  0  0  0  0  0  0  0  0  0
   -3.2940    2.3060   -1.7610 O   0  0  0  0  0  0  0  0  0  0  0  0
   -4.5830    0.7850   -2.8360 O   0  0  0  0  0  0  0  0  0  0  0  0
   -5.1040   -2.0800   -1.2250 H   0  0  0  0  0  0  0  0  0  0  0  0
   -3.9180   -1.4100    0.4140 H   0  0  0  0  0  0  0  0  0  0  0  0
   -4.8860    0.1440    0.4610 H   0  0  0  0  0  0  0  0  0  0  0  0
   -2.6800   -0.7340   -1.4580 H   0  0  0  0  0  0  0  0  0  0  0  0
   -2.4860    1.5010    0.5860 H   0  0  0  0  0  0  0  0  0  0  0  0
  1 11  1  0  0  0  0
  1  9  1  0  0  0  0
  1  2  1  0  0  0  0
  2 12  1  0  0  0  0
  3  2  1  0  0  0  0
  3 14  1  0  0  0  0
  4 17  1  0  0  0  0
  4  2  1  0  0  0  0
  4  5  1  0  0  0  0
  5 18  1  6  0  0  0
  5  6  1  0  0  0  0
  6 20  1  0  0  0  0
  6 19  1  0  0  0  0
  7  5  1  0  0  0  0
  7  8  2  0  0  0  0
 10  1  1  0  0  0  0
 13  3  1  0  0  0  0
 15  3  1  0  0  0  0
 16  4  1  0  0  0  0
 21 22  1  0  0  0  0
 22 24  1  0  0  0  0
 23 22  2  0  0  0  0
 24 33  1  0  0  0  0
 24 32  1  0  0  0  0
 24 25  1  0  0  0  0
 25 26  1  0  0  0  0
 25 35  1  0  0  0  0
 26 27  1  0  0  0  0
 26 36  1  1  0  0  0
 27  7  1  0  0  0  0
 28 26  1  0  0  0  0
 29 28  2  0  0  0  0
 30 21  1  0  0  0  0
 31 21  1  0  0  0  0
 34 25  1  0  0  0  0
 37 27  1  0  0  0  0
 38 39  1  0  0  0  0
 39 46  1  0  0  0  0
 39 47  1  0  0  0  0
 40 48  1  6  0  0  0
 40 39  1  0  0  0  0
 40 41  1  0  0  0  0
 41 28  1  0  0  0  0
 41 49  1  0  0  0  0
 42 43  1  0  0  0  0
 42 40  1  0  0  0  0
 44 42  2  0  0  0  0
 45 38  1  0  0  0  0
M  END
$$$$
