LQT.pdb
 OpenBabel07022418453D

 52 51  0  0  1  0  0  0  0  0999 V2000
    0.8770   -5.2390    3.9710 C   0  0  0  0  0  0  0  0  0  0  0  0
    1.3260   -3.8180    4.2900 C   0  0  0  0  0  0  0  0  0  0  0  0
    0.7440   -3.4670    5.6390 C   0  0  0  0  0  0  0  0  0  0  0  0
    0.7930   -2.8820    3.2290 C   0  0  0  0  0  0  0  0  0  0  0  0
    1.2330   -1.4720    3.5370 C   0  0  2  0  0  0  0  0  0  0  0  0
    0.7670   -1.0020    4.8000 N   0  0  0  0  0  0  0  0  0  0  0  0
    0.8460   -0.5210    2.4660 C   0  0  0  0  0  0  0  0  0  0  0  0
    0.2040    0.5030    2.7850 O   0  0  0  0  0  0  0  0  0  0  0  0
   -0.1370   -5.1930    3.5260 H   0  0  0  0  0  0  0  0  0  0  0  0
    1.6080   -5.6690    3.2400 H   0  0  0  0  0  0  0  0  0  0  0  0
    0.9330   -5.8080    4.9060 H   0  0  0  0  0  0  0  0  0  0  0  0
    2.4340   -3.7870    4.3550 H   0  0  0  0  0  0  0  0  0  0  0  0
    0.6780   -4.4070    6.2330 H   0  0  0  0  0  0  0  0  0  0  0  0
   -0.2600   -3.0220    5.5210 H   0  0  0  0  0  0  0  0  0  0  0  0
    1.4050   -2.7940    6.2260 H   0  0  0  0  0  0  0  0  0  0  0  0
    1.1860   -3.2330    2.2540 H   0  0  0  0  0  0  0  0  0  0  0  0
   -0.3010   -2.9970    3.1990 H   0  0  0  0  0  0  0  0  0  0  0  0
    2.3540   -1.4860    3.5500 H   0  0  0  0  0  0  0  0  0  0  0  0
    1.4710   -0.3890    5.2630 H   0  0  0  0  0  0  0  0  0  0  0  0
   -0.0640   -0.3650    4.6130 H   0  0  0  0  0  0  0  0  0  0  0  0
    0.4820    4.0970   -1.9510 N   0  0  0  0  0  0  0  0  0  0  0  0
    0.9220    3.0950   -1.0540 C   0  0  0  0  0  0  0  0  0  0  0  0
    0.7340    3.2520    0.1690 O   0  0  0  0  0  0  0  0  0  0  0  0
    1.5900    1.8970   -1.5570 C   0  0  0  0  0  0  0  0  0  0  0  0
    1.9320    0.8550   -0.5650 C   0  0  0  0  0  0  0  0  0  0  0  0
    0.7280    0.2980    0.1450 C   0  0  2  0  0  0  0  0  0  0  0  0
    1.1650   -0.7120    1.1110 N   0  0  0  0  0  0  0  0  0  0  0  0
   -0.2270   -0.4100   -0.7380 C   0  0  0  0  0  0  0  0  0  0  0  0
   -0.3330   -1.6800   -0.6290 O   0  0  0  0  0  0  0  0  0  0  0  0
   -0.1610    3.9020   -2.7680 H   0  0  0  0  0  0  0  0  0  0  0  0
    0.7620    5.1140   -1.8710 H   0  0  0  0  0  0  0  0  0  0  0  0
    1.1520    1.4880   -2.5140 H   0  0  0  0  0  0  0  0  0  0  0  0
    2.6060    2.2830   -1.9440 H   0  0  0  0  0  0  0  0  0  0  0  0
    2.4750    0.0440   -1.1030 H   0  0  0  0  0  0  0  0  0  0  0  0
    2.5650    1.3220    0.2190 H   0  0  0  0  0  0  0  0  0  0  0  0
    0.1940    1.0800    0.6730 H   0  0  0  0  0  0  0  0  0  0  0  0
    1.6860   -1.5210    0.7620 H   0  0  0  0  0  0  0  0  0  0  0  0
   -3.7950   -0.6060   -0.8220 C   0  0  0  0  0  0  0  0  0  0  0  0
   -3.4210   -0.2180   -2.2210 C   0  0  1  0  0  0  0  0  0  0  0  0
   -3.5480    1.1490   -2.4600 O   0  0  0  0  0  0  0  0  0  0  0  0
   -1.9710   -0.5820   -2.5500 C   0  0  2  0  0  0  0  0  0  0  0  0
   -1.0590    0.1690   -1.7110 N   0  0  0  0  0  0  0  0  0  0  0  0
   -1.7540   -0.3700   -3.9770 C   0  0  0  0  0  0  0  0  0  0  0  0
   -2.4750   -0.9590   -4.8140 O   0  0  0  0  0  0  0  0  0  0  0  0
   -0.7670    0.4710   -4.4600 O   0  0  0  0  0  0  0  0  0  0  0  0
   -3.7300    0.3010   -0.1800 H   0  0  0  0  0  0  0  0  0  0  0  0
   -3.1120   -1.3890   -0.3940 H   0  0  0  0  0  0  0  0  0  0  0  0
   -4.8210   -0.9940   -0.7180 H   0  0  0  0  0  0  0  0  0  0  0  0
   -4.1130   -0.7220   -2.9240 H   0  0  0  0  0  0  0  0  0  0  0  0
   -2.9060    1.4130   -3.1870 H   0  0  0  0  0  0  0  0  0  0  0  0
   -1.8640   -1.6500   -2.2630 H   0  0  0  0  0  0  0  0  0  0  0  0
   -1.0440    1.1960   -1.8390 H   0  0  0  0  0  0  0  0  0  0  0  0
  1  2  1  0  0  0  0
  1 11  1  0  0  0  0
  2 12  1  0  0  0  0
  2  3  1  0  0  0  0
  3 15  1  0  0  0  0
  3 13  1  0  0  0  0
  4  5  1  0  0  0  0
  4  2  1  0  0  0  0
  5 18  1  1  0  0  0
  5  6  1  0  0  0  0
  6 19  1  0  0  0  0
  7  8  2  0  0  0  0
  7  5  1  0  0  0  0
  9  1  1  0  0  0  0
 10  1  1  0  0  0  0
 14  3  1  0  0  0  0
 16  4  1  0  0  0  0
 17  4  1  0  0  0  0
 20  6  1  0  0  0  0
 21 31  1  0  0  0  0
 21 22  1  0  0  0  0
 22 23  2  0  0  0  0
 24 22  1  0  0  0  0
 24 25  1  0  0  0  0
 25 26  1  0  0  0  0
 25 35  1  0  0  0  0
 26 36  1  1  0  0  0
 26 27  1  0  0  0  0
 27  7  1  0  0  0  0
 28 29  2  0  0  0  0
 28 26  1  0  0  0  0
 30 21  1  0  0  0  0
 32 24  1  0  0  0  0
 33 24  1  0  0  0  0
 34 25  1  0  0  0  0
 37 27  1  0  0  0  0
 38 48  1  0  0  0  0
 38 47  1  0  0  0  0
 38 46  1  0  0  0  0
 39 49  1  6  0  0  0
 39 38  1  0  0  0  0
 40 39  1  0  0  0  0
 41 51  1  1  0  0  0
 41 39  1  0  0  0  0
 41 42  1  0  0  0  0
 42 28  1  0  0  0  0
 43 41  1  0  0  0  0
 44 43  2  0  0  0  0
 45 43  1  0  0  0  0
 50 40  1  0  0  0  0
 52 42  1  0  0  0  0
M  END
$$$$
