LQW.pdb
 OpenBabel07022418453D

 62 63  0  0  1  0  0  0  0  0999 V2000
    0.8970   -2.6000    2.3930 C   0  0  0  0  0  0  0  0  0  0  0  0
    2.3530   -2.6220    2.5960 C   0  0  0  0  0  0  0  0  0  0  0  0
    2.8960   -3.9420    2.0550 C   0  0  0  0  0  0  0  0  0  0  0  0
    3.1670   -1.5300    2.0020 C   0  0  0  0  0  0  0  0  0  0  0  0
    2.8260   -0.1500    2.4710 C   0  0  2  0  0  0  0  0  0  0  0  0
    2.9810   -0.0240    3.9190 N   0  0  0  0  0  0  0  0  0  0  0  0
    1.5680    0.3980    1.9670 C   0  0  0  0  0  0  0  0  0  0  0  0
    0.6300    0.8150    2.7300 O   0  0  0  0  0  0  0  0  0  0  0  0
    0.5520   -2.1640    1.4360 H   0  0  0  0  0  0  0  0  0  0  0  0
    0.5220   -3.6670    2.3660 H   0  0  0  0  0  0  0  0  0  0  0  0
    0.3060   -2.1240    3.1960 H   0  0  0  0  0  0  0  0  0  0  0  0
    2.5610   -2.6660    3.7060 H   0  0  0  0  0  0  0  0  0  0  0  0
    3.1710   -3.8560    0.9720 H   0  0  0  0  0  0  0  0  0  0  0  0
    2.0910   -4.7350    2.0810 H   0  0  0  0  0  0  0  0  0  0  0  0
    3.7150   -4.3400    2.6720 H   0  0  0  0  0  0  0  0  0  0  0  0
    3.1110   -1.5290    0.8940 H   0  0  0  0  0  0  0  0  0  0  0  0
    4.2330   -1.7150    2.2530 H   0  0  0  0  0  0  0  0  0  0  0  0
    3.6410    0.5210    2.0590 H   0  0  0  0  0  0  0  0  0  0  0  0
    2.9610    1.0040    4.1200 H   0  0  0  0  0  0  0  0  0  0  0  0
    3.9300   -0.3930    4.1450 H   0  0  0  0  0  0  0  0  0  0  0  0
    2.3800    1.9750   -3.8700 N   0  0  0  0  0  0  0  0  0  0  0  0
    1.3340    1.8020   -2.9230 C   0  0  0  0  0  0  0  0  0  0  0  0
    0.4300    1.0210   -3.2310 O   0  0  0  0  0  0  0  0  0  0  0  0
    1.3940    2.5410   -1.6760 C   0  0  0  0  0  0  0  0  0  0  0  0
    0.3580    2.3470   -0.6510 C   0  0  0  0  0  0  0  0  0  0  0  0
    0.1540    1.0130   -0.0520 C   0  0  2  0  0  0  0  0  0  0  0  0
    1.3590    0.4840    0.5730 N   0  0  0  0  0  0  0  0  0  0  0  0
   -0.5060   -0.0170   -0.8380 C   0  0  0  0  0  0  0  0  0  0  0  0
    0.0900   -1.1230   -1.0330 O   0  0  0  0  0  0  0  0  0  0  0  0
    2.8140    1.1950   -4.3620 H   0  0  0  0  0  0  0  0  0  0  0  0
    2.7030    2.9460   -4.0560 H   0  0  0  0  0  0  0  0  0  0  0  0
    2.4430    2.3990   -1.2780 H   0  0  0  0  0  0  0  0  0  0  0  0
    1.4030    3.6730   -1.8730 H   0  0  0  0  0  0  0  0  0  0  0  0
   -0.6190    2.6680   -1.0990 H   0  0  0  0  0  0  0  0  0  0  0  0
    0.5380    3.0870    0.1620 H   0  0  0  0  0  0  0  0  0  0  0  0
   -0.5400    1.1890    0.8460 H   0  0  0  0  0  0  0  0  0  0  0  0
    2.1120    0.1490   -0.0680 H   0  0  0  0  0  0  0  0  0  0  0  0
   -1.8010    0.1150   -1.4170 N   0  0  0  0  0  0  0  0  0  0  0  0
   -2.3360   -0.9810   -2.1630 C   0  0  1  0  0  0  0  0  0  0  0  0
   -3.5520   -1.6370   -1.5580 C   0  0  0  0  0  0  0  0  0  0  0  0
   -3.2930   -2.2070   -0.1980 C   0  0  0  0  0  0  0  0  0  0  0  0
   -3.0290   -3.5280    0.0810 C   0  0  0  0  0  0  0  0  0  0  0  0
   -2.8290   -3.6410    1.3960 N   0  0  0  0  0  0  0  0  0  0  0  0
   -2.9580   -2.4300    1.9670 C   0  0  0  0  0  0  0  0  0  0  0  0
   -2.8510   -2.0320    3.2920 C   0  0  0  0  0  0  0  0  0  0  0  0
   -3.0410   -0.7100    3.6090 C   0  0  0  0  0  0  0  0  0  0  0  0
   -3.3350    0.2170    2.6350 C   0  0  0  0  0  0  0  0  0  0  0  0
   -3.4380   -0.2110    1.3100 C   0  0  0  0  0  0  0  0  0  0  0  0
   -3.2510   -1.5240    0.9740 C   0  0  0  0  0  0  0  0  0  0  0  0
   -2.7120   -0.5120   -3.5210 C   0  0  0  0  0  0  0  0  0  0  0  0
   -3.2020   -1.3720   -4.3260 O   0  0  0  0  0  0  0  0  0  0  0  0
   -2.5640    0.7940   -3.9640 O   0  0  0  0  0  0  0  0  0  0  0  0
   -2.2930    1.0190   -1.2690 H   0  0  0  0  0  0  0  0  0  0  0  0
   -1.5910   -1.8040   -2.3010 H   0  0  0  0  0  0  0  0  0  0  0  0
   -4.4180   -0.9640   -1.4990 H   0  0  0  0  0  0  0  0  0  0  0  0
   -3.8260   -2.4870   -2.2110 H   0  0  0  0  0  0  0  0  0  0  0  0
   -2.9880   -4.3350   -0.6300 H   0  0  0  0  0  0  0  0  0  0  0  0
   -2.6020   -4.5130    1.9560 H   0  0  0  0  0  0  0  0  0  0  0  0
   -2.6220   -2.7180    4.0950 H   0  0  0  0  0  0  0  0  0  0  0  0
   -2.9660   -0.3480    4.6440 H   0  0  0  0  0  0  0  0  0  0  0  0
   -3.4960    1.2670    2.8180 H   0  0  0  0  0  0  0  0  0  0  0  0
   -3.6790    0.5500    0.5820 H   0  0  0  0  0  0  0  0  0  0  0  0
  1  2  1  0  0  0  0
  1 11  1  0  0  0  0
  2 12  1  0  0  0  0
  3 14  1  0  0  0  0
  3  2  1  0  0  0  0
  3 15  1  0  0  0  0
  4 17  1  0  0  0  0
  4  5  1  0  0  0  0
  4  2  1  0  0  0  0
  5 18  1  6  0  0  0
  5  6  1  0  0  0  0
  6 19  1  0  0  0  0
  6 20  1  0  0  0  0
  7  5  1  0  0  0  0
  7  8  2  0  0  0  0
  9  1  1  0  0  0  0
 10  1  1  0  0  0  0
 13  3  1  0  0  0  0
 16  4  1  0  0  0  0
 21 22  1  0  0  0  0
 22 24  1  0  0  0  0
 23 22  2  0  0  0  0
 24 32  1  0  0  0  0
 24 25  1  0  0  0  0
 25 26  1  0  0  0  0
 25 35  1  0  0  0  0
 26 27  1  0  0  0  0
 26 36  1  1  0  0  0
 27  7  1  0  0  0  0
 28 26  1  0  0  0  0
 29 28  2  0  0  0  0
 30 21  1  0  0  0  0
 31 21  1  0  0  0  0
 33 24  1  0  0  0  0
 34 25  1  0  0  0  0
 37 27  1  0  0  0  0
 38 53  1  0  0  0  0
 38 28  1  0  0  0  0
 39 54  1  6  0  0  0
 39 40  1  0  0  0  0
 39 38  1  0  0  0  0
 40 55  1  0  0  0  0
 40 41  1  0  0  0  0
 41 42  2  0  0  0  0
 41 49  1  0  0  0  0
 42 43  1  0  0  0  0
 43 58  1  0  0  0  0
 43 44  1  0  0  0  0
 44 45  1  0  0  0  0
 45 46  2  0  0  0  0
 45 59  1  0  0  0  0
 46 60  1  0  0  0  0
 47 61  1  0  0  0  0
 47 46  1  0  0  0  0
 48 47  2  0  0  0  0
 49 48  1  0  0  0  0
 49 44  2  0  0  0  0
 50 39  1  0  0  0  0
 51 50  2  0  0  0  0
 52 50  1  0  0  0  0
 56 40  1  0  0  0  0
 57 42  1  0  0  0  0
 62 48  1  0  0  0  0
M  END
$$$$
