LQY.pdb
 OpenBabel07022418453D

 59 59  0  0  1  0  0  0  0  0999 V2000
   -1.3140    2.1240    4.4150 C   0  0  0  0  0  0  0  0  0  0  0  0
    0.0630    2.4070    3.8680 C   0  0  0  0  0  0  0  0  0  0  0  0
    0.8340    3.1330    4.9470 C   0  0  0  0  0  0  0  0  0  0  0  0
    0.0160    3.2570    2.6420 C   0  0  0  0  0  0  0  0  0  0  0  0
   -0.7670    2.6180    1.5140 C   0  0  2  0  0  0  0  0  0  0  0  0
   -2.1180    2.4080    1.9900 N   0  0  0  0  0  0  0  0  0  0  0  0
   -0.1890    1.3180    1.1100 C   0  0  0  0  0  0  0  0  0  0  0  0
   -0.8820    0.2890    1.2210 O   0  0  0  0  0  0  0  0  0  0  0  0
   -1.7620    1.1950    4.0060 H   0  0  0  0  0  0  0  0  0  0  0  0
   -1.2440    1.9490    5.5220 H   0  0  0  0  0  0  0  0  0  0  0  0
   -2.0140    2.9730    4.2990 H   0  0  0  0  0  0  0  0  0  0  0  0
    0.5730    1.4360    3.7100 H   0  0  0  0  0  0  0  0  0  0  0  0
    0.4450    4.1640    4.9940 H   0  0  0  0  0  0  0  0  0  0  0  0
    1.9070    3.1220    4.6550 H   0  0  0  0  0  0  0  0  0  0  0  0
    0.6810    2.5940    5.9110 H   0  0  0  0  0  0  0  0  0  0  0  0
    1.0380    3.4490    2.2620 H   0  0  0  0  0  0  0  0  0  0  0  0
   -0.4000    4.2450    2.9230 H   0  0  0  0  0  0  0  0  0  0  0  0
   -0.8200    3.3290    0.6530 H   0  0  0  0  0  0  0  0  0  0  0  0
   -2.5560    1.6940    1.3650 H   0  0  0  0  0  0  0  0  0  0  0  0
   -2.6530    3.3050    1.8170 H   0  0  0  0  0  0  0  0  0  0  0  0
    2.0760   -4.4720    0.2230 N   0  0  0  0  0  0  0  0  0  0  0  0
    1.4920   -3.2620    0.7260 C   0  0  0  0  0  0  0  0  0  0  0  0
    0.2660   -3.1150    0.5830 O   0  0  0  0  0  0  0  0  0  0  0  0
    2.3470   -2.2590    1.3850 C   0  0  0  0  0  0  0  0  0  0  0  0
    1.8290   -0.8660    1.4230 C   0  0  0  0  0  0  0  0  0  0  0  0
    1.6990   -0.0680    0.2020 C   0  0  2  0  0  0  0  0  0  0  0  0
    1.1220    1.2430    0.6070 N   0  0  0  0  0  0  0  0  0  0  0  0
    0.9100   -0.5040   -0.9460 C   0  0  0  0  0  0  0  0  0  0  0  0
   -0.2070    0.0450   -1.2510 O   0  0  0  0  0  0  0  0  0  0  0  0
    2.1820   -5.2520    0.9040 H   0  0  0  0  0  0  0  0  0  0  0  0
    2.3840   -4.5990   -0.7550 H   0  0  0  0  0  0  0  0  0  0  0  0
    3.3940   -2.2800    0.9800 H   0  0  0  0  0  0  0  0  0  0  0  0
    2.4940   -2.6620    2.4400 H   0  0  0  0  0  0  0  0  0  0  0  0
    2.5890   -0.3110    2.0950 H   0  0  0  0  0  0  0  0  0  0  0  0
    0.9010   -0.8030    2.0850 H   0  0  0  0  0  0  0  0  0  0  0  0
    2.7650    0.1830   -0.1420 H   0  0  0  0  0  0  0  0  0  0  0  0
    1.7190    2.1110    0.5080 H   0  0  0  0  0  0  0  0  0  0  0  0
   -3.9200   -5.3220    0.3010 O   0  0  0  0  0  0  0  0  0  0  0  0
   -3.1470   -4.5250   -0.5000 C   0  0  0  0  0  0  0  0  0  0  0  0
   -2.3890   -5.0590   -1.5350 C   0  0  0  0  0  0  0  0  0  0  0  0
   -1.6290   -4.2210   -2.3110 C   0  0  0  0  0  0  0  0  0  0  0  0
   -1.5740   -2.8240   -2.1110 C   0  0  0  0  0  0  0  0  0  0  0  0
   -0.7590   -2.0650   -3.0640 C   0  0  0  0  0  0  0  0  0  0  0  0
    0.7080   -2.0680   -2.8910 C   0  0  2  0  0  0  0  0  0  0  0  0
    1.3620   -1.5470   -1.7730 N   0  0  0  0  0  0  0  0  0  0  0  0
    1.4370   -1.7020   -4.1450 C   0  0  0  0  0  0  0  0  0  0  0  0
    2.4780   -1.0210   -4.0940 O   0  0  0  0  0  0  0  0  0  0  0  0
   -2.3300   -2.3400   -1.0890 C   0  0  0  0  0  0  0  0  0  0  0  0
   -3.1150   -3.1750   -0.2810 C   0  0  0  0  0  0  0  0  0  0  0  0
    0.9620   -2.1160   -5.3760 O   0  0  0  0  0  0  0  0  0  0  0  0
   -3.8180   -6.3300    0.2480 H   0  0  0  0  0  0  0  0  0  0  0  0
   -2.4280   -6.1280   -1.6930 H   0  0  0  0  0  0  0  0  0  0  0  0
   -1.0520   -4.6660   -3.1080 H   0  0  0  0  0  0  0  0  0  0  0  0
   -1.1630   -1.0180   -3.0700 H   0  0  0  0  0  0  0  0  0  0  0  0
   -0.9450   -2.4150   -4.1300 H   0  0  0  0  0  0  0  0  0  0  0  0
    0.9350   -3.2350   -2.8140 H   0  0  0  0  0  0  0  0  0  0  0  0
    2.3390   -1.9940   -1.5630 H   0  0  0  0  0  0  0  0  0  0  0  0
   -2.3590   -1.2840   -0.8840 H   0  0  0  0  0  0  0  0  0  0  0  0
   -3.6930   -2.7530    0.5120 H   0  0  0  0  0  0  0  0  0  0  0  0
  1 10  1  0  0  0  0
  2  1  1  0  0  0  0
  2  3  1  0  0  0  0
  3 13  1  0  0  0  0
  3 15  1  0  0  0  0
  4 17  1  0  0  0  0
  4  2  1  0  0  0  0
  5 18  1  6  0  0  0
  5  6  1  0  0  0  0
  5  4  1  0  0  0  0
  7  8  2  0  0  0  0
  7  5  1  0  0  0  0
  9  1  1  0  0  0  0
 11  1  1  0  0  0  0
 12  2  1  0  0  0  0
 14  3  1  0  0  0  0
 16  4  1  0  0  0  0
 19  6  1  0  0  0  0
 20  6  1  0  0  0  0
 21 22  1  0  0  0  0
 21 30  1  0  0  0  0
 22 24  1  0  0  0  0
 23 22  2  0  0  0  0
 24 25  1  0  0  0  0
 24 33  1  0  0  0  0
 25 35  1  0  0  0  0
 25 34  1  0  0  0  0
 26 36  1  6  0  0  0
 26 27  1  0  0  0  0
 26 25  1  0  0  0  0
 27  7  1  0  0  0  0
 28 26  1  0  0  0  0
 29 28  2  0  0  0  0
 31 21  1  0  0  0  0
 32 24  1  0  0  0  0
 37 27  1  0  0  0  0
 39 49  1  0  0  0  0
 39 38  1  0  0  0  0
 40 39  2  0  0  0  0
 41 42  2  0  0  0  0
 41 40  1  0  0  0  0
 42 48  1  0  0  0  0
 43 44  1  0  0  0  0
 43 42  1  0  0  0  0
 44 56  1  1  0  0  0
 44 45  1  0  0  0  0
 45 57  1  0  0  0  0
 45 28  1  0  0  0  0
 46 47  1  0  0  0  0
 46 44  1  0  0  0  0
 48 58  1  0  0  0  0
 48 49  2  0  0  0  0
 49 59  1  0  0  0  0
 50 46  2  0  0  0  0
 51 38  1  0  0  0  0
 52 40  1  0  0  0  0
 53 41  1  0  0  0  0
 54 43  1  0  0  0  0
 55 43  1  0  0  0  0
M  END
$$$$
