LRC.pdb
 OpenBabel07022418443D

 55 54  0  0  1  0  0  0  0  0999 V2000
    2.1070   -4.5190    3.1920 C   0  0  0  0  0  0  0  0  0  0  0  0
    2.2420   -3.3540    2.2360 C   0  0  0  0  0  0  0  0  0  0  0  0
    1.2430   -3.4480    1.1290 C   0  0  0  0  0  0  0  0  0  0  0  0
    2.3270   -2.0390    2.9210 C   0  0  0  0  0  0  0  0  0  0  0  0
    1.1750   -1.6570    3.7760 C   0  0  2  0  0  0  0  0  0  0  0  0
    0.9250   -2.5900    4.8550 N   0  0  0  0  0  0  0  0  0  0  0  0
   -0.0720   -1.3200    3.0520 C   0  0  0  0  0  0  0  0  0  0  0  0
   -1.1660   -1.8500    3.3730 O   0  0  0  0  0  0  0  0  0  0  0  0
    1.0980   -4.6210    3.6160 H   0  0  0  0  0  0  0  0  0  0  0  0
    2.2990   -5.4380    2.5890 H   0  0  0  0  0  0  0  0  0  0  0  0
    2.8990   -4.4670    3.9580 H   0  0  0  0  0  0  0  0  0  0  0  0
    3.2530   -3.5090    1.7470 H   0  0  0  0  0  0  0  0  0  0  0  0
    1.6340   -2.9190    0.2350 H   0  0  0  0  0  0  0  0  0  0  0  0
    0.2220   -3.1360    1.4010 H   0  0  0  0  0  0  0  0  0  0  0  0
    1.1530   -4.5450    0.8740 H   0  0  0  0  0  0  0  0  0  0  0  0
    2.4270   -1.2570    2.1280 H   0  0  0  0  0  0  0  0  0  0  0  0
    3.2320   -2.0480    3.5620 H   0  0  0  0  0  0  0  0  0  0  0  0
    1.4800   -0.6940    4.2920 H   0  0  0  0  0  0  0  0  0  0  0  0
    1.7780   -2.5610    5.4770 H   0  0  0  0  0  0  0  0  0  0  0  0
    0.1350   -2.1960    5.4130 H   0  0  0  0  0  0  0  0  0  0  0  0
    1.8590    1.3630   -2.6280 N   0  0  0  0  0  0  0  0  0  0  0  0
    0.7790    2.0980   -2.1110 C   0  0  0  0  0  0  0  0  0  0  0  0
    0.1690    2.9480   -2.8750 N   0  0  0  0  0  0  0  0  0  0  0  0
    0.3410    1.9240   -0.7370 N   0  0  0  0  0  0  0  0  0  0  0  0
   -0.6270    2.8290   -0.2100 C   0  0  0  0  0  0  0  0  0  0  0  0
   -1.0630    2.5130    1.1590 C   0  0  0  0  0  0  0  0  0  0  0  0
   -1.8060    1.3040    1.4800 C   0  0  0  0  0  0  0  0  0  0  0  0
   -1.2890   -0.0590    1.2750 C   0  0  2  0  0  0  0  0  0  0  0  0
   -0.0770   -0.3920    1.9790 N   0  0  0  0  0  0  0  0  0  0  0  0
   -1.3600   -0.5900   -0.1100 C   0  0  0  0  0  0  0  0  0  0  0  0
   -0.4010   -1.2500   -0.5780 O   0  0  0  0  0  0  0  0  0  0  0  0
    1.7730    0.3360   -2.7450 H   0  0  0  0  0  0  0  0  0  0  0  0
    2.7550    1.8120   -2.9010 H   0  0  0  0  0  0  0  0  0  0  0  0
    0.4510    3.1080   -3.8640 H   0  0  0  0  0  0  0  0  0  0  0  0
    0.8130    1.1430   -0.2490 H   0  0  0  0  0  0  0  0  0  0  0  0
   -0.1370    3.8590   -0.2600 H   0  0  0  0  0  0  0  0  0  0  0  0
   -1.4990    2.9630   -0.9100 H   0  0  0  0  0  0  0  0  0  0  0  0
   -1.7420    3.3910    1.4730 H   0  0  0  0  0  0  0  0  0  0  0  0
   -0.2000    2.6810    1.9100 H   0  0  0  0  0  0  0  0  0  0  0  0
   -2.1150    1.3920    2.5750 H   0  0  0  0  0  0  0  0  0  0  0  0
   -2.8190    1.3690    0.9710 H   0  0  0  0  0  0  0  0  0  0  0  0
   -2.1340   -0.7180    1.7860 H   0  0  0  0  0  0  0  0  0  0  0  0
    0.8330    0.0290    1.7390 H   0  0  0  0  0  0  0  0  0  0  0  0
   -2.4990   -0.3680   -0.9270 N   0  0  0  0  0  0  0  0  0  0  0  0
   -2.5720   -0.8840   -2.2620 C   0  0  1  0  0  0  0  0  0  0  0  0
   -1.5170   -0.2430   -3.1310 C   0  0  0  0  0  0  0  0  0  0  0  0
   -1.6010   -0.8940   -4.8350 S   0  0  0  0  0  0  0  0  0  0  0  0
   -2.4060   -2.3570   -2.2920 C   0  0  0  0  0  0  0  0  0  0  0  0
   -2.4300   -3.0030   -3.3680 O   0  0  0  0  0  0  0  0  0  0  0  0
   -2.2180   -3.0650   -1.1160 O   0  0  0  0  0  0  0  0  0  0  0  0
   -3.3350    0.1870   -0.5710 H   0  0  0  0  0  0  0  0  0  0  0  0
   -3.5540   -0.5940   -2.7330 H   0  0  0  0  0  0  0  0  0  0  0  0
   -1.6490    0.8600   -3.1680 H   0  0  0  0  0  0  0  0  0  0  0  0
   -0.4930   -0.4330   -2.7550 H   0  0  0  0  0  0  0  0  0  0  0  0
   -2.3730   -0.0060   -5.6410 H   0  0  0  0  0  0  0  0  0  0  0  0
  1  9  1  0  0  0  0
  1 11  1  0  0  0  0
  2  4  1  0  0  0  0
  2  1  1  0  0  0  0
  3 14  1  0  0  0  0
  3  2  1  0  0  0  0
  4 17  1  0  0  0  0
  4  5  1  0  0  0  0
  5 18  1  1  0  0  0
  5  6  1  0  0  0  0
  6 20  1  0  0  0  0
  6 19  1  0  0  0  0
  7  8  2  0  0  0  0
  7  5  1  0  0  0  0
 10  1  1  0  0  0  0
 12  2  1  0  0  0  0
 13  3  1  0  0  0  0
 15  3  1  0  0  0  0
 16  4  1  0  0  0  0
 21 22  1  0  0  0  0
 22 24  1  0  0  0  0
 23 22  2  0  0  0  0
 24 35  1  0  0  0  0
 24 25  1  0  0  0  0
 25 26  1  0  0  0  0
 26 38  1  0  0  0  0
 26 27  1  0  0  0  0
 26 39  1  0  0  0  0
 27 40  1  0  0  0  0
 28 27  1  0  0  0  0
 28 42  1  1  0  0  0
 28 29  1  0  0  0  0
 29  7  1  0  0  0  0
 30 28  1  0  0  0  0
 31 30  2  0  0  0  0
 32 21  1  0  0  0  0
 33 21  1  0  0  0  0
 34 23  1  0  0  0  0
 36 25  1  0  0  0  0
 37 25  1  0  0  0  0
 41 27  1  0  0  0  0
 43 29  1  0  0  0  0
 44 51  1  0  0  0  0
 44 30  1  0  0  0  0
 45 52  1  6  0  0  0
 45 44  1  0  0  0  0
 46 54  1  0  0  0  0
 46 45  1  0  0  0  0
 47 46  1  0  0  0  0
 48 45  1  0  0  0  0
 48 50  1  0  0  0  0
 49 48  2  0  0  0  0
 53 46  1  0  0  0  0
 55 47  1  0  0  0  0
M  END
$$$$
