LRD.pdb
 OpenBabel07022418443D

 57 56  0  0  1  0  0  0  0  0999 V2000
    3.0840   -1.6450    5.3900 C   0  0  0  0  0  0  0  0  0  0  0  0
    3.1230   -1.4170    3.9100 C   0  0  0  0  0  0  0  0  0  0  0  0
    4.0060   -0.2420    3.5340 C   0  0  0  0  0  0  0  0  0  0  0  0
    1.7780   -1.3510    3.2580 C   0  0  0  0  0  0  0  0  0  0  0  0
    0.8690   -0.2870    3.7330 C   0  0  2  0  0  0  0  0  0  0  0  0
    0.5190   -0.3150    5.1050 N   0  0  0  0  0  0  0  0  0  0  0  0
   -0.3800   -0.3350    2.9240 C   0  0  0  0  0  0  0  0  0  0  0  0
   -1.5220   -0.3950    3.4820 O   0  0  0  0  0  0  0  0  0  0  0  0
    2.1630   -2.0910    5.7660 H   0  0  0  0  0  0  0  0  0  0  0  0
    3.9200   -2.3220    5.7350 H   0  0  0  0  0  0  0  0  0  0  0  0
    3.3110   -0.6630    5.8760 H   0  0  0  0  0  0  0  0  0  0  0  0
    3.6290   -2.3140    3.4680 H   0  0  0  0  0  0  0  0  0  0  0  0
    4.4270   -0.3720    2.4950 H   0  0  0  0  0  0  0  0  0  0  0  0
    3.4790    0.7120    3.5310 H   0  0  0  0  0  0  0  0  0  0  0  0
    4.8910   -0.2820    4.2080 H   0  0  0  0  0  0  0  0  0  0  0  0
    1.9510   -1.2150    2.1710 H   0  0  0  0  0  0  0  0  0  0  0  0
    1.3000   -2.3450    3.3780 H   0  0  0  0  0  0  0  0  0  0  0  0
    1.3610    0.7090    3.5270 H   0  0  0  0  0  0  0  0  0  0  0  0
   -0.4650    0.0220    5.2280 H   0  0  0  0  0  0  0  0  0  0  0  0
    1.1030    0.2640    5.7360 H   0  0  0  0  0  0  0  0  0  0  0  0
    1.3910    1.8980   -2.4780 N   0  0  0  0  0  0  0  0  0  0  0  0
    0.2640    2.5870   -1.9720 C   0  0  0  0  0  0  0  0  0  0  0  0
    0.3750    3.3480   -0.9100 N   0  0  0  0  0  0  0  0  0  0  0  0
   -1.0300    2.5220   -2.5380 N   0  0  0  0  0  0  0  0  0  0  0  0
   -2.2690    2.4800   -1.8280 C   0  0  0  0  0  0  0  0  0  0  0  0
   -2.4830    1.1670   -1.1290 C   0  0  0  0  0  0  0  0  0  0  0  0
   -1.4160    0.9140   -0.1520 C   0  0  0  0  0  0  0  0  0  0  0  0
   -1.5690   -0.3640    0.6810 C   0  0  2  0  0  0  0  0  0  0  0  0
   -0.3640   -0.3180    1.5260 N   0  0  0  0  0  0  0  0  0  0  0  0
   -1.4290   -1.5140   -0.2460 C   0  0  0  0  0  0  0  0  0  0  0  0
   -0.3060   -2.1340   -0.3090 O   0  0  0  0  0  0  0  0  0  0  0  0
    2.3050    2.3700   -2.6650 H   0  0  0  0  0  0  0  0  0  0  0  0
    1.3530    0.8760   -2.6870 H   0  0  0  0  0  0  0  0  0  0  0  0
    1.3030    3.4320   -0.4530 H   0  0  0  0  0  0  0  0  0  0  0  0
   -1.0720    2.4980   -3.6020 H   0  0  0  0  0  0  0  0  0  0  0  0
   -3.1390    2.7450   -2.4800 H   0  0  0  0  0  0  0  0  0  0  0  0
   -2.1830    3.2500   -0.9950 H   0  0  0  0  0  0  0  0  0  0  0  0
   -2.5190    0.4090   -1.9550 H   0  0  0  0  0  0  0  0  0  0  0  0
   -3.5070    1.2330   -0.6620 H   0  0  0  0  0  0  0  0  0  0  0  0
   -0.4680    0.7260   -0.7140 H   0  0  0  0  0  0  0  0  0  0  0  0
   -1.3520    1.7390    0.5770 H   0  0  0  0  0  0  0  0  0  0  0  0
   -2.4850   -0.3980    1.2590 H   0  0  0  0  0  0  0  0  0  0  0  0
    0.5540   -0.2690    1.0350 H   0  0  0  0  0  0  0  0  0  0  0  0
   -2.4660   -1.9940   -1.0850 N   0  0  0  0  0  0  0  0  0  0  0  0
   -2.3030   -3.1340   -1.9960 C   0  0  1  0  0  0  0  0  0  0  0  0
   -1.3650   -2.8230   -3.0990 C   0  0  0  0  0  0  0  0  0  0  0  0
   -1.1580   -3.8840   -4.0910 C   0  0  0  0  0  0  0  0  0  0  0  0
   -1.7940   -4.9550   -4.0870 O   0  0  0  0  0  0  0  0  0  0  0  0
   -1.8970   -4.3210   -1.1700 C   0  0  0  0  0  0  0  0  0  0  0  0
   -1.6490   -5.4530   -1.6230 O   0  0  0  0  0  0  0  0  0  0  0  0
   -0.2100   -3.7520   -5.1260 O   0  0  0  0  0  0  0  0  0  0  0  0
   -1.7740   -4.2010    0.2260 O   0  0  0  0  0  0  0  0  0  0  0  0
   -3.3890   -1.5230   -1.0390 H   0  0  0  0  0  0  0  0  0  0  0  0
   -3.2960   -3.3830   -2.4020 H   0  0  0  0  0  0  0  0  0  0  0  0
   -1.7190   -1.9220   -3.6890 H   0  0  0  0  0  0  0  0  0  0  0  0
   -0.3540   -2.5070   -2.7470 H   0  0  0  0  0  0  0  0  0  0  0  0
    0.0170   -4.5550   -5.7170 H   0  0  0  0  0  0  0  0  0  0  0  0
  1 10  1  0  0  0  0
  1  9  1  0  0  0  0
  1 11  1  0  0  0  0
  2  1  1  0  0  0  0
  3  2  1  0  0  0  0
  3 15  1  0  0  0  0
  4 17  1  0  0  0  0
  4  5  1  0  0  0  0
  4  2  1  0  0  0  0
  5 18  1  6  0  0  0
  5  6  1  0  0  0  0
  6 19  1  0  0  0  0
  6 20  1  0  0  0  0
  7  8  2  0  0  0  0
  7  5  1  0  0  0  0
 12  2  1  0  0  0  0
 13  3  1  0  0  0  0
 14  3  1  0  0  0  0
 16  4  1  0  0  0  0
 21 22  1  0  0  0  0
 22 23  2  0  0  0  0
 23 34  1  0  0  0  0
 24 22  1  0  0  0  0
 24 25  1  0  0  0  0
 25 26  1  0  0  0  0
 25 37  1  0  0  0  0
 26 39  1  0  0  0  0
 26 27  1  0  0  0  0
 27 41  1  0  0  0  0
 27 28  1  0  0  0  0
 28 42  1  1  0  0  0
 28 29  1  0  0  0  0
 29  7  1  0  0  0  0
 30 28  1  0  0  0  0
 31 30  2  0  0  0  0
 32 21  1  0  0  0  0
 33 21  1  0  0  0  0
 35 24  1  0  0  0  0
 36 25  1  0  0  0  0
 38 26  1  0  0  0  0
 40 27  1  0  0  0  0
 43 29  1  0  0  0  0
 44 53  1  0  0  0  0
 44 30  1  0  0  0  0
 45 54  1  6  0  0  0
 45 49  1  0  0  0  0
 45 44  1  0  0  0  0
 46 56  1  0  0  0  0
 46 45  1  0  0  0  0
 47 48  2  0  0  0  0
 47 46  1  0  0  0  0
 49 52  1  0  0  0  0
 50 49  2  0  0  0  0
 51 47  1  0  0  0  0
 55 46  1  0  0  0  0
 57 51  1  0  0  0  0
M  END
$$$$
