LRF.pdb
 OpenBabel07022418443D

 64 64  0  0  1  0  0  0  0  0999 V2000
    3.5500   -1.3860    4.7920 C   0  0  0  0  0  0  0  0  0  0  0  0
    3.5800   -1.6200    3.2920 C   0  0  0  0  0  0  0  0  0  0  0  0
    4.5050   -2.8020    3.0590 C   0  0  0  0  0  0  0  0  0  0  0  0
    4.1250   -0.4520    2.5410 C   0  0  0  0  0  0  0  0  0  0  0  0
    3.3310    0.8140    2.7400 C   0  0  2  0  0  0  0  0  0  0  0  0
    3.3550    1.1200    4.1500 N   0  0  0  0  0  0  0  0  0  0  0  0
    1.9600    0.7150    2.2060 C   0  0  0  0  0  0  0  0  0  0  0  0
    0.9950    0.8870    2.9920 O   0  0  0  0  0  0  0  0  0  0  0  0
    4.4410   -0.7770    5.1150 H   0  0  0  0  0  0  0  0  0  0  0  0
    3.6370   -2.3430    5.3570 H   0  0  0  0  0  0  0  0  0  0  0  0
    2.6030   -0.9160    5.1260 H   0  0  0  0  0  0  0  0  0  0  0  0
    2.5540   -1.8790    2.9670 H   0  0  0  0  0  0  0  0  0  0  0  0
    4.8860   -2.8350    2.0120 H   0  0  0  0  0  0  0  0  0  0  0  0
    5.3710   -2.6680    3.7570 H   0  0  0  0  0  0  0  0  0  0  0  0
    4.0130   -3.7650    3.3370 H   0  0  0  0  0  0  0  0  0  0  0  0
    4.0950   -0.7120    1.4580 H   0  0  0  0  0  0  0  0  0  0  0  0
    5.1870   -0.2980    2.7970 H   0  0  0  0  0  0  0  0  0  0  0  0
    3.8250    1.6560    2.2130 H   0  0  0  0  0  0  0  0  0  0  0  0
    4.2930    1.5490    4.4110 H   0  0  0  0  0  0  0  0  0  0  0  0
    2.5720    1.7560    4.4460 H   0  0  0  0  0  0  0  0  0  0  0  0
   -2.5220    1.0530   -4.3130 N   0  0  0  0  0  0  0  0  0  0  0  0
   -1.1170    1.0760   -4.1910 C   0  0  0  0  0  0  0  0  0  0  0  0
   -0.4510    1.9100   -4.9030 N   0  0  0  0  0  0  0  0  0  0  0  0
   -0.4120    0.1940   -3.2920 N   0  0  0  0  0  0  0  0  0  0  0  0
    0.8610    0.5610   -2.7270 C   0  0  0  0  0  0  0  0  0  0  0  0
    0.8020    1.6990   -1.7540 C   0  0  0  0  0  0  0  0  0  0  0  0
   -0.0320    1.4770   -0.5640 C   0  0  0  0  0  0  0  0  0  0  0  0
    0.3130    0.3420    0.3410 C   0  0  2  0  0  0  0  0  0  0  0  0
    1.6660    0.4370    0.8510 N   0  0  0  0  0  0  0  0  0  0  0  0
   -0.0710   -0.9980   -0.0730 C   0  0  0  0  0  0  0  0  0  0  0  0
    0.6600   -1.9990   -0.1690 O   0  0  0  0  0  0  0  0  0  0  0  0
   -2.9900    0.4170   -4.9810 H   0  0  0  0  0  0  0  0  0  0  0  0
   -3.0920    1.6830   -3.7230 H   0  0  0  0  0  0  0  0  0  0  0  0
    0.5810    2.0180   -4.8990 H   0  0  0  0  0  0  0  0  0  0  0  0
   -0.8890   -0.7130   -3.0970 H   0  0  0  0  0  0  0  0  0  0  0  0
    1.5740    0.8680   -3.5530 H   0  0  0  0  0  0  0  0  0  0  0  0
    1.2760   -0.3750   -2.2600 H   0  0  0  0  0  0  0  0  0  0  0  0
    0.3050    2.5400   -2.3390 H   0  0  0  0  0  0  0  0  0  0  0  0
    1.8100    2.1260   -1.5430 H   0  0  0  0  0  0  0  0  0  0  0  0
   -1.0880    1.2850   -0.9210 H   0  0  0  0  0  0  0  0  0  0  0  0
   -0.1290    2.3970    0.0580 H   0  0  0  0  0  0  0  0  0  0  0  0
   -0.3350    0.5360    1.2690 H   0  0  0  0  0  0  0  0  0  0  0  0
    2.4760    0.2960    0.2080 H   0  0  0  0  0  0  0  0  0  0  0  0
   -1.4630   -1.2010   -0.4080 N   0  0  0  0  0  0  0  0  0  0  0  0
   -1.9060   -2.5330   -0.8230 C   0  0  1  0  0  0  0  0  0  0  0  0
   -2.5920   -3.1010    0.4400 C   0  0  0  0  0  0  0  0  0  0  0  0
   -3.7280   -2.2330    0.8300 C   0  0  0  0  0  0  0  0  0  0  0  0
   -4.9780   -2.4950    0.3240 C   0  0  0  0  0  0  0  0  0  0  0  0
   -6.0300   -1.6870    0.6860 C   0  0  0  0  0  0  0  0  0  0  0  0
   -5.8700   -0.6200    1.5430 C   0  0  0  0  0  0  0  0  0  0  0  0
   -4.6150   -0.3560    2.0510 C   0  0  0  0  0  0  0  0  0  0  0  0
   -3.5710   -1.1680    1.6840 C   0  0  0  0  0  0  0  0  0  0  0  0
   -2.9000   -2.4380   -1.9010 C   0  0  0  0  0  0  0  0  0  0  0  0
   -3.3100   -3.5380   -2.3950 O   0  0  0  0  0  0  0  0  0  0  0  0
   -3.4340   -1.2820   -2.4300 O   0  0  0  0  0  0  0  0  0  0  0  0
   -2.1620   -0.4280   -0.3630 H   0  0  0  0  0  0  0  0  0  0  0  0
   -1.0720   -3.1820   -1.1090 H   0  0  0  0  0  0  0  0  0  0  0  0
   -1.8730   -3.1110    1.2860 H   0  0  0  0  0  0  0  0  0  0  0  0
   -2.8760   -4.1270    0.2160 H   0  0  0  0  0  0  0  0  0  0  0  0
   -5.1420   -3.3440   -0.3640 H   0  0  0  0  0  0  0  0  0  0  0  0
   -7.0150   -1.9190    0.2680 H   0  0  0  0  0  0  0  0  0  0  0  0
   -6.7480   -0.0070    1.7980 H   0  0  0  0  0  0  0  0  0  0  0  0
   -4.4810    0.4940    2.7360 H   0  0  0  0  0  0  0  0  0  0  0  0
   -2.5980   -0.9220    2.1100 H   0  0  0  0  0  0  0  0  0  0  0  0
  1  9  1  0  0  0  0
  1 11  1  0  0  0  0
  1 10  1  0  0  0  0
  2  1  1  0  0  0  0
  3  2  1  0  0  0  0
  3 15  1  0  0  0  0
  3 14  1  0  0  0  0
  4  5  1  0  0  0  0
  4 17  1  0  0  0  0
  4  2  1  0  0  0  0
  5 18  1  6  0  0  0
  5  6  1  0  0  0  0
  6 19  1  0  0  0  0
  6 20  1  0  0  0  0
  7  5  1  0  0  0  0
  7  8  2  0  0  0  0
 12  2  1  0  0  0  0
 13  3  1  0  0  0  0
 16  4  1  0  0  0  0
 21 22  1  0  0  0  0
 21 33  1  0  0  0  0
 22 24  1  0  0  0  0
 23 34  1  0  0  0  0
 23 22  2  0  0  0  0
 24 35  1  0  0  0  0
 24 25  1  0  0  0  0
 25 37  1  0  0  0  0
 25 26  1  0  0  0  0
 26 39  1  0  0  0  0
 26 27  1  0  0  0  0
 27 41  1  0  0  0  0
 27 28  1  0  0  0  0
 28 29  1  0  0  0  0
 28 42  1  1  0  0  0
 29  7  1  0  0  0  0
 30 28  1  0  0  0  0
 31 30  2  0  0  0  0
 32 21  1  0  0  0  0
 36 25  1  0  0  0  0
 38 26  1  0  0  0  0
 40 27  1  0  0  0  0
 43 29  1  0  0  0  0
 44 56  1  0  0  0  0
 44 30  1  0  0  0  0
 45 57  1  6  0  0  0
 45 44  1  0  0  0  0
 45 46  1  0  0  0  0
 46 47  1  0  0  0  0
 46 58  1  0  0  0  0
 47 52  1  0  0  0  0
 48 49  1  0  0  0  0
 48 47  2  0  0  0  0
 49 50  2  0  0  0  0
 50 62  1  0  0  0  0
 50 51  1  0  0  0  0
 51 63  1  0  0  0  0
 52 51  2  0  0  0  0
 52 64  1  0  0  0  0
 53 45  1  0  0  0  0
 54 53  1  0  0  0  0
 55 53  2  0  0  0  0
 59 46  1  0  0  0  0
 60 48  1  0  0  0  0
 61 49  1  0  0  0  0
M  END
$$$$
