LRM.pdb
 OpenBabel07022418443D

 61 60  0  0  1  0  0  0  0  0999 V2000
    0.2940   -1.9290    4.0410 C   0  0  0  0  0  0  0  0  0  0  0  0
    1.7130   -1.4110    4.1090 C   0  0  0  0  0  0  0  0  0  0  0  0
    1.9520   -0.9130    5.4980 C   0  0  0  0  0  0  0  0  0  0  0  0
    2.0290   -0.4970    3.0100 C   0  0  0  0  0  0  0  0  0  0  0  0
    1.2260    0.7410    2.8710 C   0  0  2  0  0  0  0  0  0  0  0  0
    1.3160    1.5960    4.0660 N   0  0  0  0  0  0  0  0  0  0  0  0
   -0.1490    0.5930    2.4040 C   0  0  0  0  0  0  0  0  0  0  0  0
   -1.0980    1.0670    3.0480 O   0  0  0  0  0  0  0  0  0  0  0  0
   -0.4300   -1.1970    4.4600 H   0  0  0  0  0  0  0  0  0  0  0  0
    0.1560   -2.8580    4.6310 H   0  0  0  0  0  0  0  0  0  0  0  0
   -0.0360   -2.1760    3.0140 H   0  0  0  0  0  0  0  0  0  0  0  0
    2.3720   -2.3220    3.9900 H   0  0  0  0  0  0  0  0  0  0  0  0
    1.3870   -0.0310    5.7910 H   0  0  0  0  0  0  0  0  0  0  0  0
    1.6560   -1.7170    6.2360 H   0  0  0  0  0  0  0  0  0  0  0  0
    3.0220   -0.7120    5.7180 H   0  0  0  0  0  0  0  0  0  0  0  0
    1.9240   -1.0570    2.0370 H   0  0  0  0  0  0  0  0  0  0  0  0
    3.1070   -0.1930    3.0140 H   0  0  0  0  0  0  0  0  0  0  0  0
    1.7520    1.3590    2.0760 H   0  0  0  0  0  0  0  0  0  0  0  0
    2.2790    1.8880    4.2530 H   0  0  0  0  0  0  0  0  0  0  0  0
    0.6170    2.3540    4.0370 H   0  0  0  0  0  0  0  0  0  0  0  0
    1.6200    2.1800   -2.7460 N   0  0  0  0  0  0  0  0  0  0  0  0
    0.6540    2.9430   -2.0490 C   0  0  0  0  0  0  0  0  0  0  0  0
    1.0280    3.8330   -1.1680 N   0  0  0  0  0  0  0  0  0  0  0  0
   -0.7370    2.7610   -2.2880 N   0  0  0  0  0  0  0  0  0  0  0  0
   -1.7060    3.0440   -1.2630 C   0  0  0  0  0  0  0  0  0  0  0  0
   -1.6280    2.0790   -0.1080 C   0  0  0  0  0  0  0  0  0  0  0  0
   -1.8710    0.6540   -0.5430 C   0  0  0  0  0  0  0  0  0  0  0  0
   -1.7700   -0.2770    0.6810 C   0  0  2  0  0  0  0  0  0  0  0  0
   -0.4310   -0.1000    1.1930 N   0  0  0  0  0  0  0  0  0  0  0  0
   -2.0760   -1.6470    0.2770 C   0  0  0  0  0  0  0  0  0  0  0  0
   -3.2110   -2.0090   -0.1390 O   0  0  0  0  0  0  0  0  0  0  0  0
    2.6030    2.4810   -2.7880 H   0  0  0  0  0  0  0  0  0  0  0  0
    1.3630    1.2980   -3.2340 H   0  0  0  0  0  0  0  0  0  0  0  0
    2.0480    3.9670   -0.9910 H   0  0  0  0  0  0  0  0  0  0  0  0
   -1.0100    2.4160   -3.2330 H   0  0  0  0  0  0  0  0  0  0  0  0
   -1.6180    4.0920   -0.9080 H   0  0  0  0  0  0  0  0  0  0  0  0
   -2.7280    2.9960   -1.7430 H   0  0  0  0  0  0  0  0  0  0  0  0
   -0.6610    2.2140    0.3950 H   0  0  0  0  0  0  0  0  0  0  0  0
   -2.4130    2.4080    0.6260 H   0  0  0  0  0  0  0  0  0  0  0  0
   -2.8760    0.6110   -0.9990 H   0  0  0  0  0  0  0  0  0  0  0  0
   -1.0770    0.4110   -1.2770 H   0  0  0  0  0  0  0  0  0  0  0  0
   -2.5040    0.1350    1.3950 H   0  0  0  0  0  0  0  0  0  0  0  0
    0.3770   -0.4930    0.6640 H   0  0  0  0  0  0  0  0  0  0  0  0
   -0.5680   -2.3370   -5.1280 C   0  0  0  0  0  0  0  0  0  0  0  0
    0.0020   -3.5940   -3.9190 S   0  0  0  0  0  0  0  0  0  0  0  0
   -0.9550   -3.3040   -2.4080 C   0  0  0  0  0  0  0  0  0  0  0  0
   -0.5640   -4.2970   -1.3330 C   0  0  0  0  0  0  0  0  0  0  0  0
   -1.3950   -4.0250   -0.0680 C   0  0  2  0  0  0  0  0  0  0  0  0
   -1.0830   -2.6760    0.3300 N   0  0  0  0  0  0  0  0  0  0  0  0
   -1.0230   -5.0350    0.9200 C   0  0  0  0  0  0  0  0  0  0  0  0
   -0.4760   -4.6990    2.0260 O   0  0  0  0  0  0  0  0  0  0  0  0
   -1.2170   -6.3940    0.7630 O   0  0  0  0  0  0  0  0  0  0  0  0
   -1.6860   -2.2770   -4.9840 H   0  0  0  0  0  0  0  0  0  0  0  0
   -0.3130   -2.6050   -6.1520 H   0  0  0  0  0  0  0  0  0  0  0  0
   -0.2000   -1.3350   -4.8030 H   0  0  0  0  0  0  0  0  0  0  0  0
   -2.0250   -3.4370   -2.6790 H   0  0  0  0  0  0  0  0  0  0  0  0
   -0.7300   -2.2750   -2.0760 H   0  0  0  0  0  0  0  0  0  0  0  0
   -0.6520   -5.3330   -1.6730 H   0  0  0  0  0  0  0  0  0  0  0  0
    0.4950   -4.1120   -1.0610 H   0  0  0  0  0  0  0  0  0  0  0  0
   -2.4770   -4.1470   -0.3230 H   0  0  0  0  0  0  0  0  0  0  0  0
   -0.1040   -2.4830    0.6560 H   0  0  0  0  0  0  0  0  0  0  0  0
  1  2  1  0  0  0  0
  1  9  1  0  0  0  0
  1 10  1  0  0  0  0
  2  3  1  0  0  0  0
  3 15  1  0  0  0  0
  3 13  1  0  0  0  0
  3 14  1  0  0  0  0
  4 17  1  0  0  0  0
  4  2  1  0  0  0  0
  5 18  1  6  0  0  0
  5  4  1  0  0  0  0
  5  6  1  0  0  0  0
  6 19  1  0  0  0  0
  7  5  1  0  0  0  0
  7  8  2  0  0  0  0
 11  1  1  0  0  0  0
 12  2  1  0  0  0  0
 16  4  1  0  0  0  0
 20  6  1  0  0  0  0
 21 22  1  0  0  0  0
 22 23  2  0  0  0  0
 23 34  1  0  0  0  0
 24 22  1  0  0  0  0
 24 25  1  0  0  0  0
 25 36  1  0  0  0  0
 25 26  1  0  0  0  0
 26 38  1  0  0  0  0
 26 39  1  0  0  0  0
 27 26  1  0  0  0  0
 27 28  1  0  0  0  0
 28 29  1  0  0  0  0
 28 42  1  1  0  0  0
 29  7  1  0  0  0  0
 30 49  1  0  0  0  0
 30 28  1  0  0  0  0
 31 30  2  0  0  0  0
 32 21  1  0  0  0  0
 33 21  1  0  0  0  0
 35 24  1  0  0  0  0
 37 25  1  0  0  0  0
 40 27  1  0  0  0  0
 41 27  1  0  0  0  0
 43 29  1  0  0  0  0
 44 53  1  0  0  0  0
 44 55  1  0  0  0  0
 44 45  1  0  0  0  0
 45 46  1  0  0  0  0
 46 57  1  0  0  0  0
 46 47  1  0  0  0  0
 47 59  1  0  0  0  0
 47 48  1  0  0  0  0
 48 60  1  6  0  0  0
 48 49  1  0  0  0  0
 48 50  1  0  0  0  0
 49 61  1  0  0  0  0
 50 51  1  0  0  0  0
 52 50  2  0  0  0  0
 54 44  1  0  0  0  0
 56 46  1  0  0  0  0
 58 47  1  0  0  0  0
M  END
$$$$
