LRQ.pdb
 OpenBabel07022418443D

 61 60  0  0  1  0  0  0  0  0999 V2000
    3.5460    0.6130    3.2560 C   0  0  0  0  0  0  0  0  0  0  0  0
    2.4630    1.6260    3.6250 C   0  0  0  0  0  0  0  0  0  0  0  0
    3.2120    2.8650    4.0910 C   0  0  0  0  0  0  0  0  0  0  0  0
    1.6290    1.1240    4.7960 C   0  0  0  0  0  0  0  0  0  0  0  0
    0.9540   -0.1910    4.4440 C   0  0  2  0  0  0  0  0  0  0  0  0
    1.9270   -1.2010    4.1260 N   0  0  0  0  0  0  0  0  0  0  0  0
    0.0110    0.0440    3.3120 C   0  0  0  0  0  0  0  0  0  0  0  0
   -0.8970    0.8850    3.5080 O   0  0  0  0  0  0  0  0  0  0  0  0
    4.3770    1.1950    2.7750 H   0  0  0  0  0  0  0  0  0  0  0  0
    3.1420   -0.0430    2.4450 H   0  0  0  0  0  0  0  0  0  0  0  0
    3.9310    0.0780    4.1230 H   0  0  0  0  0  0  0  0  0  0  0  0
    1.8450    1.8940    2.7690 H   0  0  0  0  0  0  0  0  0  0  0  0
    4.2320    2.8980    3.6490 H   0  0  0  0  0  0  0  0  0  0  0  0
    2.6370    3.8010    3.8890 H   0  0  0  0  0  0  0  0  0  0  0  0
    3.3460    2.7800    5.1880 H   0  0  0  0  0  0  0  0  0  0  0  0
    2.3220    1.0070    5.6420 H   0  0  0  0  0  0  0  0  0  0  0  0
    0.8510    1.8900    4.9820 H   0  0  0  0  0  0  0  0  0  0  0  0
    0.3560   -0.5260    5.3100 H   0  0  0  0  0  0  0  0  0  0  0  0
    1.4850   -2.0250    3.6720 H   0  0  0  0  0  0  0  0  0  0  0  0
    2.3210   -1.5520    5.0380 H   0  0  0  0  0  0  0  0  0  0  0  0
    1.8130   -1.3130   -3.2460 N   0  0  0  0  0  0  0  0  0  0  0  0
    1.0890   -0.1170   -3.4100 C   0  0  0  0  0  0  0  0  0  0  0  0
    0.3330    0.0480   -4.4700 N   0  0  0  0  0  0  0  0  0  0  0  0
    1.1280    0.9640   -2.4940 N   0  0  0  0  0  0  0  0  0  0  0  0
   -0.0300    1.7230   -2.1280 C   0  0  0  0  0  0  0  0  0  0  0  0
   -0.9620    0.8410   -1.2580 C   0  0  0  0  0  0  0  0  0  0  0  0
   -0.1900    0.4210   -0.0480 C   0  0  0  0  0  0  0  0  0  0  0  0
   -0.8680   -0.3250    1.0180 C   0  0  2  0  0  0  0  0  0  0  0  0
    0.1050   -0.6140    2.0920 N   0  0  0  0  0  0  0  0  0  0  0  0
   -1.6640   -1.5020    0.7860 C   0  0  0  0  0  0  0  0  0  0  0  0
   -1.3970   -2.5470    1.4900 O   0  0  0  0  0  0  0  0  0  0  0  0
    2.2840   -1.7490   -4.0770 H   0  0  0  0  0  0  0  0  0  0  0  0
    1.9220   -1.8200   -2.3290 H   0  0  0  0  0  0  0  0  0  0  0  0
    0.2710   -0.7060   -5.1860 H   0  0  0  0  0  0  0  0  0  0  0  0
    2.0920    1.1800   -2.0810 H   0  0  0  0  0  0  0  0  0  0  0  0
   -0.5610    2.0080   -3.0570 H   0  0  0  0  0  0  0  0  0  0  0  0
    0.2470    2.6390   -1.5860 H   0  0  0  0  0  0  0  0  0  0  0  0
   -1.8470    1.4430   -1.0600 H   0  0  0  0  0  0  0  0  0  0  0  0
   -1.1630   -0.0230   -1.9580 H   0  0  0  0  0  0  0  0  0  0  0  0
    0.7300   -0.0930   -0.4440 H   0  0  0  0  0  0  0  0  0  0  0  0
    0.1570    1.4050    0.4260 H   0  0  0  0  0  0  0  0  0  0  0  0
   -1.6070    0.4310    1.5030 H   0  0  0  0  0  0  0  0  0  0  0  0
    0.8320   -1.3090    1.8880 H   0  0  0  0  0  0  0  0  0  0  0  0
   -1.6180   -2.4200   -4.0600 N   0  0  0  0  0  0  0  0  0  0  0  0
   -1.6260   -2.9690   -2.7250 C   0  0  0  0  0  0  0  0  0  0  0  0
   -0.7110   -2.6520   -1.9590 O   0  0  0  0  0  0  0  0  0  0  0  0
   -2.7110   -3.8710   -2.3610 C   0  0  0  0  0  0  0  0  0  0  0  0
   -2.9980   -4.0240   -0.9090 C   0  0  0  0  0  0  0  0  0  0  0  0
   -3.4850   -2.8130   -0.2340 C   0  0  2  0  0  0  0  0  0  0  0  0
   -2.7290   -1.6240   -0.1410 N   0  0  0  0  0  0  0  0  0  0  0  0
   -4.0040   -3.2610    1.1400 C   0  0  0  0  0  0  0  0  0  0  0  0
   -3.8180   -2.5430    2.1280 O   0  0  0  0  0  0  0  0  0  0  0  0
   -4.6750   -4.4720    1.2290 O   0  0  0  0  0  0  0  0  0  0  0  0
   -0.8810   -2.7490   -4.7240 H   0  0  0  0  0  0  0  0  0  0  0  0
   -2.3220   -1.7190   -4.3500 H   0  0  0  0  0  0  0  0  0  0  0  0
   -3.6650   -3.5850   -2.9160 H   0  0  0  0  0  0  0  0  0  0  0  0
   -2.5080   -4.9030   -2.7600 H   0  0  0  0  0  0  0  0  0  0  0  0
   -2.0450   -4.4160   -0.4470 H   0  0  0  0  0  0  0  0  0  0  0  0
   -3.7530   -4.8760   -0.8410 H   0  0  0  0  0  0  0  0  0  0  0  0
   -4.5220   -2.5050   -0.6990 H   0  0  0  0  0  0  0  0  0  0  0  0
   -2.9790   -0.7940   -0.7770 H   0  0  0  0  0  0  0  0  0  0  0  0
  1  2  1  0  0  0  0
  1 11  1  0  0  0  0
  2  3  1  0  0  0  0
  2  4  1  0  0  0  0
  3 15  1  0  0  0  0
  4 17  1  0  0  0  0
  4 16  1  0  0  0  0
  5  4  1  0  0  0  0
  5 18  1  1  0  0  0
  6  5  1  0  0  0  0
  6 20  1  0  0  0  0
  7  8  2  0  0  0  0
  7  5  1  0  0  0  0
  9  1  1  0  0  0  0
 10  1  1  0  0  0  0
 12  2  1  0  0  0  0
 13  3  1  0  0  0  0
 14  3  1  0  0  0  0
 19  6  1  0  0  0  0
 21 33  1  0  0  0  0
 22 21  1  0  0  0  0
 22 24  1  0  0  0  0
 23 22  2  0  0  0  0
 24 25  1  0  0  0  0
 24 35  1  0  0  0  0
 25 37  1  0  0  0  0
 25 26  1  0  0  0  0
 26 38  1  0  0  0  0
 26 27  1  0  0  0  0
 27 41  1  0  0  0  0
 27 28  1  0  0  0  0
 28 42  1  1  0  0  0
 28 29  1  0  0  0  0
 29  7  1  0  0  0  0
 30 28  1  0  0  0  0
 30 31  2  0  0  0  0
 32 21  1  0  0  0  0
 34 23  1  0  0  0  0
 36 25  1  0  0  0  0
 39 26  1  0  0  0  0
 40 27  1  0  0  0  0
 43 29  1  0  0  0  0
 44 45  1  0  0  0  0
 45 47  1  0  0  0  0
 45 46  2  0  0  0  0
 47 48  1  0  0  0  0
 48 59  1  0  0  0  0
 48 58  1  0  0  0  0
 48 49  1  0  0  0  0
 49 60  1  6  0  0  0
 49 50  1  0  0  0  0
 49 51  1  0  0  0  0
 50 30  1  0  0  0  0
 51 53  2  0  0  0  0
 51 52  1  0  0  0  0
 54 44  1  0  0  0  0
 55 44  1  0  0  0  0
 56 47  1  0  0  0  0
 57 47  1  0  0  0  0
 61 50  1  0  0  0  0
M  END
$$$$
