LRV.pdb
 OpenBabel07022418443D

 60 59  0  0  1  0  0  0  0  0999 V2000
    3.5680   -3.0870    2.6800 C   0  0  0  0  0  0  0  0  0  0  0  0
    2.6260   -2.9070    1.5090 C   0  0  0  0  0  0  0  0  0  0  0  0
    1.2610   -3.3320    1.9450 C   0  0  0  0  0  0  0  0  0  0  0  0
    2.6970   -1.5170    0.9330 C   0  0  0  0  0  0  0  0  0  0  0  0
    2.3360   -0.4380    1.9180 C   0  0  2  0  0  0  0  0  0  0  0  0
    3.2100   -0.4710    3.0480 N   0  0  0  0  0  0  0  0  0  0  0  0
    0.9170   -0.3770    2.2780 C   0  0  0  0  0  0  0  0  0  0  0  0
    0.5300   -0.4810    3.4710 O   0  0  0  0  0  0  0  0  0  0  0  0
    4.5390   -2.6110    2.5320 H   0  0  0  0  0  0  0  0  0  0  0  0
    3.0900   -2.8030    3.6430 H   0  0  0  0  0  0  0  0  0  0  0  0
    3.7550   -4.1900    2.7620 H   0  0  0  0  0  0  0  0  0  0  0  0
    2.9630   -3.6000    0.7110 H   0  0  0  0  0  0  0  0  0  0  0  0
    0.5250   -2.9080    1.2660 H   0  0  0  0  0  0  0  0  0  0  0  0
    1.0460   -3.1410    3.0150 H   0  0  0  0  0  0  0  0  0  0  0  0
    1.1790   -4.4520    1.8270 H   0  0  0  0  0  0  0  0  0  0  0  0
    3.6880   -1.3250    0.5280 H   0  0  0  0  0  0  0  0  0  0  0  0
    1.9500   -1.4700    0.1120 H   0  0  0  0  0  0  0  0  0  0  0  0
    2.5540    0.5320    1.3770 H   0  0  0  0  0  0  0  0  0  0  0  0
    2.8290    0.0070    3.8910 H   0  0  0  0  0  0  0  0  0  0  0  0
    4.1790   -0.1760    2.8010 H   0  0  0  0  0  0  0  0  0  0  0  0
    2.4400    4.1580    1.1300 N   0  0  0  0  0  0  0  0  0  0  0  0
    1.3780    3.6540    0.3500 C   0  0  0  0  0  0  0  0  0  0  0  0
    1.5780    3.5910   -0.9390 N   0  0  0  0  0  0  0  0  0  0  0  0
    0.1420    3.2300    0.9320 N   0  0  0  0  0  0  0  0  0  0  0  0
   -0.8020    2.5820    0.0410 C   0  0  0  0  0  0  0  0  0  0  0  0
   -2.0570    2.1660    0.6930 C   0  0  0  0  0  0  0  0  0  0  0  0
   -2.0410    1.2400    1.8190 C   0  0  0  0  0  0  0  0  0  0  0  0
   -1.4920   -0.1340    1.6630 C   0  0  2  0  0  0  0  0  0  0  0  0
   -0.1080   -0.1920    1.2820 N   0  0  0  0  0  0  0  0  0  0  0  0
   -2.3740   -1.0220    0.8810 C   0  0  0  0  0  0  0  0  0  0  0  0
   -3.5830   -1.0650    1.1390 O   0  0  0  0  0  0  0  0  0  0  0  0
    3.0870    3.5100    1.6040 H   0  0  0  0  0  0  0  0  0  0  0  0
    2.5690    5.1770    1.2250 H   0  0  0  0  0  0  0  0  0  0  0  0
    0.8770    3.2410   -1.6090 H   0  0  0  0  0  0  0  0  0  0  0  0
   -0.0490    3.3880    1.9420 H   0  0  0  0  0  0  0  0  0  0  0  0
   -1.1100    3.4380   -0.6640 H   0  0  0  0  0  0  0  0  0  0  0  0
   -0.2890    1.8950   -0.6120 H   0  0  0  0  0  0  0  0  0  0  0  0
   -2.5530    3.1240    1.0600 H   0  0  0  0  0  0  0  0  0  0  0  0
   -2.7660    1.8450   -0.1270 H   0  0  0  0  0  0  0  0  0  0  0  0
   -3.1150    1.1030    2.1620 H   0  0  0  0  0  0  0  0  0  0  0  0
   -1.5510    1.6830    2.7190 H   0  0  0  0  0  0  0  0  0  0  0  0
   -1.5240   -0.5650    2.7240 H   0  0  0  0  0  0  0  0  0  0  0  0
    0.2570   -0.1260    0.3120 H   0  0  0  0  0  0  0  0  0  0  0  0
   -1.2150   -2.2390   -3.0300 C   0  0  0  0  0  0  0  0  0  0  0  0
   -2.5990   -2.2830   -2.4310 C   0  0  0  0  0  0  0  0  0  0  0  0
   -3.4320   -3.2380   -3.2580 C   0  0  0  0  0  0  0  0  0  0  0  0
   -2.5860   -2.7010   -0.9750 C   0  0  2  0  0  0  0  0  0  0  0  0
   -1.8210   -1.8100   -0.1560 N   0  0  0  0  0  0  0  0  0  0  0  0
   -2.2180   -4.1280   -0.8170 C   0  0  0  0  0  0  0  0  0  0  0  0
   -1.3100   -4.4800   -0.0220 O   0  0  0  0  0  0  0  0  0  0  0  0
   -2.8410   -5.1440   -1.5250 O   0  0  0  0  0  0  0  0  0  0  0  0
   -1.0550   -3.1420   -3.6530 H   0  0  0  0  0  0  0  0  0  0  0  0
   -1.1150   -1.3590   -3.6980 H   0  0  0  0  0  0  0  0  0  0  0  0
   -0.4090   -2.2550   -2.2640 H   0  0  0  0  0  0  0  0  0  0  0  0
   -3.1040   -1.2790   -2.5100 H   0  0  0  0  0  0  0  0  0  0  0  0
   -4.2690   -3.6780   -2.7060 H   0  0  0  0  0  0  0  0  0  0  0  0
   -3.7740   -2.6550   -4.1600 H   0  0  0  0  0  0  0  0  0  0  0  0
   -2.7710   -4.0760   -3.6020 H   0  0  0  0  0  0  0  0  0  0  0  0
   -3.6530   -2.6210   -0.6290 H   0  0  0  0  0  0  0  0  0  0  0  0
   -0.7980   -1.7350   -0.3320 H   0  0  0  0  0  0  0  0  0  0  0  0
  1 11  1  0  0  0  0
  1 10  1  0  0  0  0
  2  3  1  0  0  0  0
  2  1  1  0  0  0  0
  3 14  1  0  0  0  0
  4  2  1  0  0  0  0
  4  5  1  0  0  0  0
  5 18  1  6  0  0  0
  5  7  1  0  0  0  0
  5  6  1  0  0  0  0
  6 19  1  0  0  0  0
  7  8  2  0  0  0  0
  9  1  1  0  0  0  0
 12  2  1  0  0  0  0
 13  3  1  0  0  0  0
 15  3  1  0  0  0  0
 16  4  1  0  0  0  0
 17  4  1  0  0  0  0
 20  6  1  0  0  0  0
 21 33  1  0  0  0  0
 21 32  1  0  0  0  0
 22 24  1  0  0  0  0
 22 21  1  0  0  0  0
 23 22  2  0  0  0  0
 24 35  1  0  0  0  0
 25 26  1  0  0  0  0
 25 24  1  0  0  0  0
 26 38  1  0  0  0  0
 26 27  1  0  0  0  0
 27 40  1  0  0  0  0
 27 41  1  0  0  0  0
 28 27  1  0  0  0  0
 28 42  1  1  0  0  0
 29 28  1  0  0  0  0
 29  7  1  0  0  0  0
 30 31  2  0  0  0  0
 30 28  1  0  0  0  0
 34 23  1  0  0  0  0
 36 25  1  0  0  0  0
 37 25  1  0  0  0  0
 39 26  1  0  0  0  0
 43 29  1  0  0  0  0
 44 45  1  0  0  0  0
 44 54  1  0  0  0  0
 45 47  1  0  0  0  0
 46 56  1  0  0  0  0
 46 45  1  0  0  0  0
 47 49  1  0  0  0  0
 47 59  1  1  0  0  0
 47 48  1  0  0  0  0
 48 30  1  0  0  0  0
 49 50  1  0  0  0  0
 51 49  2  0  0  0  0
 52 44  1  0  0  0  0
 53 44  1  0  0  0  0
 55 45  1  0  0  0  0
 57 46  1  0  0  0  0
 58 46  1  0  0  0  0
 60 48  1  0  0  0  0
M  END
$$$$
