LRW.pdb
 OpenBabel07022418443D

 68 69  0  0  1  0  0  0  0  0999 V2000
    1.9190   -2.0720    2.2800 C   0  0  0  0  0  0  0  0  0  0  0  0
    2.8260   -1.5160    3.2830 C   0  0  0  0  0  0  0  0  0  0  0  0
    4.2120   -1.3580    2.6160 C   0  0  0  0  0  0  0  0  0  0  0  0
    2.5130   -0.3170    4.0360 C   0  0  0  0  0  0  0  0  0  0  0  0
    2.2830    0.9960    3.4130 C   0  0  2  0  0  0  0  0  0  0  0  0
    2.0170    1.9160    4.5820 N   0  0  0  0  0  0  0  0  0  0  0  0
    1.0940    1.0380    2.5380 C   0  0  0  0  0  0  0  0  0  0  0  0
    0.0070    1.4640    3.0620 O   0  0  0  0  0  0  0  0  0  0  0  0
    2.2270   -1.9510    1.2230 H   0  0  0  0  0  0  0  0  0  0  0  0
    0.8530   -1.7940    2.4430 H   0  0  0  0  0  0  0  0  0  0  0  0
    1.8980   -3.2010    2.4010 H   0  0  0  0  0  0  0  0  0  0  0  0
    3.0450   -2.3370    4.0470 H   0  0  0  0  0  0  0  0  0  0  0  0
    4.8340   -0.8330    3.3510 H   0  0  0  0  0  0  0  0  0  0  0  0
    4.1350   -0.8710    1.6350 H   0  0  0  0  0  0  0  0  0  0  0  0
    4.6350   -2.3780    2.4670 H   0  0  0  0  0  0  0  0  0  0  0  0
    3.3180   -0.2060    4.8360 H   0  0  0  0  0  0  0  0  0  0  0  0
    1.5960   -0.5140    4.6890 H   0  0  0  0  0  0  0  0  0  0  0  0
    3.1600    1.4690    2.9440 H   0  0  0  0  0  0  0  0  0  0  0  0
    1.9850    2.8570    4.1340 H   0  0  0  0  0  0  0  0  0  0  0  0
    1.0530    1.7000    4.9130 H   0  0  0  0  0  0  0  0  0  0  0  0
   -1.4950    2.3020   -5.2040 N   0  0  0  0  0  0  0  0  0  0  0  0
   -0.4250    2.1160   -4.2770 C   0  0  0  0  0  0  0  0  0  0  0  0
    0.3050    1.0630   -4.3550 N   0  0  0  0  0  0  0  0  0  0  0  0
   -0.1270    3.0610   -3.2620 N   0  0  0  0  0  0  0  0  0  0  0  0
    1.0720    2.9300   -2.4650 C   0  0  0  0  0  0  0  0  0  0  0  0
    1.0490    1.7460   -1.5300 C   0  0  0  0  0  0  0  0  0  0  0  0
   -0.1110    1.9090   -0.5830 C   0  0  0  0  0  0  0  0  0  0  0  0
   -0.2090    0.7590    0.4030 C   0  0  2  0  0  0  0  0  0  0  0  0
    1.0040    0.6750    1.1890 N   0  0  0  0  0  0  0  0  0  0  0  0
   -0.6590   -0.4810   -0.2100 C   0  0  0  0  0  0  0  0  0  0  0  0
   -0.0740   -1.5950   -0.1930 O   0  0  0  0  0  0  0  0  0  0  0  0
   -1.8950    3.2140   -5.4640 H   0  0  0  0  0  0  0  0  0  0  0  0
   -1.8970    1.4510   -5.6450 H   0  0  0  0  0  0  0  0  0  0  0  0
    0.1670    0.3160   -5.0660 H   0  0  0  0  0  0  0  0  0  0  0  0
   -0.8290    3.8430   -3.1380 H   0  0  0  0  0  0  0  0  0  0  0  0
    1.1670    3.9000   -1.9050 H   0  0  0  0  0  0  0  0  0  0  0  0
    1.9480    2.9100   -3.1470 H   0  0  0  0  0  0  0  0  0  0  0  0
    1.0380    0.8390   -2.1230 H   0  0  0  0  0  0  0  0  0  0  0  0
    2.0090    1.8090   -0.9390 H   0  0  0  0  0  0  0  0  0  0  0  0
   -0.0000    2.8310   -0.0170 H   0  0  0  0  0  0  0  0  0  0  0  0
   -1.0470    1.9100   -1.1770 H   0  0  0  0  0  0  0  0  0  0  0  0
   -1.0070    1.1030    1.1270 H   0  0  0  0  0  0  0  0  0  0  0  0
    1.8570    0.3310    0.7110 H   0  0  0  0  0  0  0  0  0  0  0  0
   -1.9130   -0.5120   -0.9350 N   0  0  0  0  0  0  0  0  0  0  0  0
   -2.3980   -1.7270   -1.5590 C   0  0  1  0  0  0  0  0  0  0  0  0
   -3.6030   -2.2190   -0.7600 C   0  0  0  0  0  0  0  0  0  0  0  0
   -3.1220   -2.4690    0.6120 C   0  0  0  0  0  0  0  0  0  0  0  0
   -3.3160   -1.6910    1.7320 C   0  0  0  0  0  0  0  0  0  0  0  0
   -2.7030   -2.2850    2.7770 N   0  0  0  0  0  0  0  0  0  0  0  0
   -2.1080   -3.4310    2.3910 C   0  0  0  0  0  0  0  0  0  0  0  0
   -1.3700   -4.3740    3.0880 C   0  0  0  0  0  0  0  0  0  0  0  0
   -0.8740   -5.4710    2.4150 C   0  0  0  0  0  0  0  0  0  0  0  0
   -1.1280   -5.6000    1.0590 C   0  0  0  0  0  0  0  0  0  0  0  0
   -1.8710   -4.6480    0.3660 C   0  0  0  0  0  0  0  0  0  0  0  0
   -2.3640   -3.5550    1.0430 C   0  0  0  0  0  0  0  0  0  0  0  0
   -2.7410   -1.4170   -2.9620 C   0  0  0  0  0  0  0  0  0  0  0  0
   -3.1850   -2.3300   -3.7180 O   0  0  0  0  0  0  0  0  0  0  0  0
   -2.6110   -0.1610   -3.5360 O   0  0  0  0  0  0  0  0  0  0  0  0
   -2.4620    0.3690   -0.9980 H   0  0  0  0  0  0  0  0  0  0  0  0
   -1.6300   -2.5240   -1.4890 H   0  0  0  0  0  0  0  0  0  0  0  0
   -3.9220   -3.1750   -1.2270 H   0  0  0  0  0  0  0  0  0  0  0  0
   -4.3530   -1.4330   -0.7830 H   0  0  0  0  0  0  0  0  0  0  0  0
   -3.8820   -0.7600    1.7080 H   0  0  0  0  0  0  0  0  0  0  0  0
   -2.7010   -1.8970    3.7410 H   0  0  0  0  0  0  0  0  0  0  0  0
   -1.1580   -4.2960    4.1450 H   0  0  0  0  0  0  0  0  0  0  0  0
   -0.2850   -6.2500    2.9000 H   0  0  0  0  0  0  0  0  0  0  0  0
   -0.7380   -6.4620    0.5260 H   0  0  0  0  0  0  0  0  0  0  0  0
   -2.0760   -4.7360   -0.6820 H   0  0  0  0  0  0  0  0  0  0  0  0
  1 11  1  0  0  0  0
  1 10  1  0  0  0  0
  1  2  1  0  0  0  0
  2  4  1  0  0  0  0
  2 12  1  0  0  0  0
  3  2  1  0  0  0  0
  3 13  1  0  0  0  0
  4 17  1  0  0  0  0
  4 16  1  0  0  0  0
  5 18  1  6  0  0  0
  5  4  1  0  0  0  0
  5  6  1  0  0  0  0
  6 20  1  0  0  0  0
  7  8  2  0  0  0  0
  7  5  1  0  0  0  0
  9  1  1  0  0  0  0
 14  3  1  0  0  0  0
 15  3  1  0  0  0  0
 19  6  1  0  0  0  0
 21 22  1  0  0  0  0
 22 24  1  0  0  0  0
 23 22  2  0  0  0  0
 24 35  1  0  0  0  0
 24 25  1  0  0  0  0
 25 36  1  0  0  0  0
 25 26  1  0  0  0  0
 26 39  1  0  0  0  0
 26 27  1  0  0  0  0
 27 40  1  0  0  0  0
 27 28  1  0  0  0  0
 28 42  1  1  0  0  0
 28 29  1  0  0  0  0
 29  7  1  0  0  0  0
 30 31  2  0  0  0  0
 30 28  1  0  0  0  0
 32 21  1  0  0  0  0
 33 21  1  0  0  0  0
 34 23  1  0  0  0  0
 37 25  1  0  0  0  0
 38 26  1  0  0  0  0
 41 27  1  0  0  0  0
 43 29  1  0  0  0  0
 44 30  1  0  0  0  0
 45 60  1  1  0  0  0
 45 44  1  0  0  0  0
 45 46  1  0  0  0  0
 46 47  1  0  0  0  0
 47 55  1  0  0  0  0
 47 48  2  0  0  0  0
 48 49  1  0  0  0  0
 49 64  1  0  0  0  0
 50 49  1  0  0  0  0
 50 51  1  0  0  0  0
 51 65  1  0  0  0  0
 52 66  1  0  0  0  0
 52 51  2  0  0  0  0
 53 52  1  0  0  0  0
 54 55  1  0  0  0  0
 54 53  2  0  0  0  0
 55 50  2  0  0  0  0
 56 45  1  0  0  0  0
 57 56  2  0  0  0  0
 58 56  1  0  0  0  0
 59 44  1  0  0  0  0
 61 46  1  0  0  0  0
 62 46  1  0  0  0  0
 63 48  1  0  0  0  0
 67 53  1  0  0  0  0
 68 54  1  0  0  0  0
M  END
$$$$
