LSA.pdb
 OpenBabel07022418473D

 42 41  0  0  1  0  0  0  0  0999 V2000
   -1.0220   -4.8150    1.9800 C   0  0  0  0  0  0  0  0  0  0  0  0
   -0.3860   -4.7960    0.6130 C   0  0  0  0  0  0  0  0  0  0  0  0
   -1.4580   -4.4030   -0.3780 C   0  0  0  0  0  0  0  0  0  0  0  0
    0.8050   -3.8590    0.5620 C   0  0  0  0  0  0  0  0  0  0  0  0
    0.3240   -2.4780    0.9000 C   0  0  2  0  0  0  0  0  0  0  0  0
   -0.6740   -1.9890   -0.0070 N   0  0  0  0  0  0  0  0  0  0  0  0
    1.4450   -1.5180    1.0880 C   0  0  0  0  0  0  0  0  0  0  0  0
    2.3780   -1.8190    1.8520 O   0  0  0  0  0  0  0  0  0  0  0  0
   -0.3630   -4.4030    2.7690 H   0  0  0  0  0  0  0  0  0  0  0  0
   -1.2610   -5.8620    2.2630 H   0  0  0  0  0  0  0  0  0  0  0  0
   -1.9920   -4.2630    1.9910 H   0  0  0  0  0  0  0  0  0  0  0  0
   -0.0190   -5.8020    0.3410 H   0  0  0  0  0  0  0  0  0  0  0  0
   -1.9730   -5.3520   -0.6890 H   0  0  0  0  0  0  0  0  0  0  0  0
   -2.2490   -3.7720    0.0640 H   0  0  0  0  0  0  0  0  0  0  0  0
   -1.0120   -3.9800   -1.2920 H   0  0  0  0  0  0  0  0  0  0  0  0
    1.5140   -4.1920    1.3240 H   0  0  0  0  0  0  0  0  0  0  0  0
    1.2470   -3.9400   -0.4410 H   0  0  0  0  0  0  0  0  0  0  0  0
   -0.1750   -2.5570    1.9100 H   0  0  0  0  0  0  0  0  0  0  0  0
   -1.1380   -1.1480    0.4410 H   0  0  0  0  0  0  0  0  0  0  0  0
   -0.3210   -1.7060   -0.9280 H   0  0  0  0  0  0  0  0  0  0  0  0
    3.6300   -0.2220   -1.3710 O   0  0  0  0  0  0  0  0  0  0  0  0
    3.1310    0.9460   -0.8000 C   0  0  0  0  0  0  0  0  0  0  0  0
    2.5460    0.6920    0.5730 C   0  0  2  0  0  0  0  0  0  0  0  0
    1.4680   -0.2670    0.4130 N   0  0  0  0  0  0  0  0  0  0  0  0
    2.0060    2.0150    1.0500 C   0  0  0  0  0  0  0  0  0  0  0  0
    2.7260    2.9950    1.2610 O   0  0  0  0  0  0  0  0  0  0  0  0
    3.6490   -0.1440   -2.3610 H   0  0  0  0  0  0  0  0  0  0  0  0
    2.4150    1.3800   -1.4980 H   0  0  0  0  0  0  0  0  0  0  0  0
    3.9820    1.6720   -0.7250 H   0  0  0  0  0  0  0  0  0  0  0  0
    3.3220    0.3480    1.2570 H   0  0  0  0  0  0  0  0  0  0  0  0
    0.6620   -0.0650   -0.2160 H   0  0  0  0  0  0  0  0  0  0  0  0
   -0.9550    3.9410    0.7140 C   0  0  0  0  0  0  0  0  0  0  0  0
    0.0360    3.3960    1.7260 C   0  0  2  0  0  0  0  0  0  0  0  0
    0.6110    2.1410    1.2660 N   0  0  0  0  0  0  0  0  0  0  0  0
   -0.6670    3.1670    3.0140 C   0  0  0  0  0  0  0  0  0  0  0  0
   -0.7010    2.0260    3.5400 O   0  0  0  0  0  0  0  0  0  0  0  0
   -1.3080    4.2040    3.6750 O   0  0  0  0  0  0  0  0  0  0  0  0
   -1.7860    4.3880    1.2700 H   0  0  0  0  0  0  0  0  0  0  0  0
   -0.4810    4.7740    0.1190 H   0  0  0  0  0  0  0  0  0  0  0  0
   -1.2830    3.1560   -0.0100 H   0  0  0  0  0  0  0  0  0  0  0  0
    0.8140    4.1720    1.8660 H   0  0  0  0  0  0  0  0  0  0  0  0
   -0.0250    1.3330    1.0980 H   0  0  0  0  0  0  0  0  0  0  0  0
  1 11  1  0  0  0  0
  1 10  1  0  0  0  0
  1  9  1  0  0  0  0
  2  1  1  0  0  0  0
  3 14  1  0  0  0  0
  3  2  1  0  0  0  0
  4  2  1  0  0  0  0
  4  5  1  0  0  0  0
  4 16  1  0  0  0  0
  5  7  1  0  0  0  0
  5 18  1  1  0  0  0
  6 19  1  0  0  0  0
  6  5  1  0  0  0  0
  7  8  2  0  0  0  0
 12  2  1  0  0  0  0
 13  3  1  0  0  0  0
 15  3  1  0  0  0  0
 17  4  1  0  0  0  0
 20  6  1  0  0  0  0
 21 22  1  0  0  0  0
 22 29  1  0  0  0  0
 22 23  1  0  0  0  0
 23 25  1  0  0  0  0
 23 30  1  1  0  0  0
 24 23  1  0  0  0  0
 24  7  1  0  0  0  0
 25 26  2  0  0  0  0
 25 34  1  0  0  0  0
 27 21  1  0  0  0  0
 28 22  1  0  0  0  0
 31 24  1  0  0  0  0
 32 38  1  0  0  0  0
 32 33  1  0  0  0  0
 33 41  1  1  0  0  0
 33 35  1  0  0  0  0
 34 33  1  0  0  0  0
 35 36  2  0  0  0  0
 35 37  1  0  0  0  0
 39 32  1  0  0  0  0
 40 32  1  0  0  0  0
 42 34  1  0  0  0  0
M  END
$$$$
