LSC.pdb
 OpenBabel07022418473D

 43 42  0  0  1  0  0  0  0  0999 V2000
   -1.7200   -3.9570    2.8000 C   0  0  0  0  0  0  0  0  0  0  0  0
   -0.7540   -4.3510    1.7010 C   0  0  0  0  0  0  0  0  0  0  0  0
   -0.4270   -5.8140    1.7470 C   0  0  0  0  0  0  0  0  0  0  0  0
    0.4940   -3.4880    1.7450 C   0  0  0  0  0  0  0  0  0  0  0  0
    0.0420   -2.0390    1.5520 C   0  0  2  0  0  0  0  0  0  0  0  0
   -0.6090   -1.9680    0.2800 N   0  0  0  0  0  0  0  0  0  0  0  0
    1.1750   -1.1080    1.6840 C   0  0  0  0  0  0  0  0  0  0  0  0
    1.8190   -1.0820    2.7520 O   0  0  0  0  0  0  0  0  0  0  0  0
   -2.4060   -3.1410    2.4870 H   0  0  0  0  0  0  0  0  0  0  0  0
   -2.3080   -4.8620    3.1050 H   0  0  0  0  0  0  0  0  0  0  0  0
   -1.1620   -3.6030    3.6910 H   0  0  0  0  0  0  0  0  0  0  0  0
   -1.2610   -4.1080    0.7250 H   0  0  0  0  0  0  0  0  0  0  0  0
   -1.0960   -6.4060    1.1030 H   0  0  0  0  0  0  0  0  0  0  0  0
    0.6190   -5.9730    1.3920 H   0  0  0  0  0  0  0  0  0  0  0  0
   -0.5250   -6.1510    2.8040 H   0  0  0  0  0  0  0  0  0  0  0  0
    1.0270   -3.5880    2.7110 H   0  0  0  0  0  0  0  0  0  0  0  0
    1.1240   -3.7930    0.8780 H   0  0  0  0  0  0  0  0  0  0  0  0
   -0.6610   -1.8090    2.3950 H   0  0  0  0  0  0  0  0  0  0  0  0
   -0.2900   -2.6990   -0.3940 H   0  0  0  0  0  0  0  0  0  0  0  0
   -1.6320   -2.1240    0.4210 H   0  0  0  0  0  0  0  0  0  0  0  0
    2.9680    0.4040   -1.6730 O   0  0  0  0  0  0  0  0  0  0  0  0
    3.5920    0.3180   -0.4320 C   0  0  0  0  0  0  0  0  0  0  0  0
    2.6240    0.6810    0.6690 C   0  0  2  0  0  0  0  0  0  0  0  0
    1.5180   -0.2580    0.6000 N   0  0  0  0  0  0  0  0  0  0  0  0
    2.1050    2.0710    0.4060 C   0  0  0  0  0  0  0  0  0  0  0  0
    2.8810    3.0600    0.4130 O   0  0  0  0  0  0  0  0  0  0  0  0
    3.0300    1.2850   -2.0920 H   0  0  0  0  0  0  0  0  0  0  0  0
    3.8410   -0.7660   -0.2820 H   0  0  0  0  0  0  0  0  0  0  0  0
    4.4940    0.9390   -0.3950 H   0  0  0  0  0  0  0  0  0  0  0  0
    3.1170    0.6240    1.6390 H   0  0  0  0  0  0  0  0  0  0  0  0
    0.9380   -0.3320   -0.2640 H   0  0  0  0  0  0  0  0  0  0  0  0
    0.7330    2.3160    0.1420 N   0  0  0  0  0  0  0  0  0  0  0  0
    0.2840    3.6720   -0.1050 C   0  0  1  0  0  0  0  0  0  0  0  0
   -0.3750    3.6850   -1.4830 C   0  0  0  0  0  0  0  0  0  0  0  0
   -1.7610    2.5190   -1.4120 S   0  0  0  0  0  0  0  0  0  0  0  0
   -0.7930    4.0530    0.8620 C   0  0  0  0  0  0  0  0  0  0  0  0
   -1.1930    3.2440    1.7380 O   0  0  0  0  0  0  0  0  0  0  0  0
   -1.3870    5.3040    0.8310 O   0  0  0  0  0  0  0  0  0  0  0  0
    0.0510    1.5410    0.1240 H   0  0  0  0  0  0  0  0  0  0  0  0
    1.1270    4.3920   -0.0520 H   0  0  0  0  0  0  0  0  0  0  0  0
    0.3940    3.2440   -2.1800 H   0  0  0  0  0  0  0  0  0  0  0  0
   -0.7060    4.6780   -1.7790 H   0  0  0  0  0  0  0  0  0  0  0  0
   -1.3170    1.2050   -1.3680 H   0  0  0  0  0  0  0  0  0  0  0  0
  1 10  1  0  0  0  0
  1 11  1  0  0  0  0
  2  4  1  0  0  0  0
  2  3  1  0  0  0  0
  2  1  1  0  0  0  0
  3 15  1  0  0  0  0
  4 16  1  0  0  0  0
  5  7  1  0  0  0  0
  5  4  1  0  0  0  0
  5 18  1  1  0  0  0
  6 20  1  0  0  0  0
  6  5  1  0  0  0  0
  7  8  2  0  0  0  0
  9  1  1  0  0  0  0
 12  2  1  0  0  0  0
 13  3  1  0  0  0  0
 14  3  1  0  0  0  0
 17  4  1  0  0  0  0
 19  6  1  0  0  0  0
 21 22  1  0  0  0  0
 22 29  1  0  0  0  0
 22 28  1  0  0  0  0
 22 23  1  0  0  0  0
 23 30  1  1  0  0  0
 24 23  1  0  0  0  0
 24  7  1  0  0  0  0
 25 26  2  0  0  0  0
 25 23  1  0  0  0  0
 27 21  1  0  0  0  0
 31 24  1  0  0  0  0
 32 25  1  0  0  0  0
 33 40  1  1  0  0  0
 33 32  1  0  0  0  0
 33 36  1  0  0  0  0
 34 35  1  0  0  0  0
 34 33  1  0  0  0  0
 35 43  1  0  0  0  0
 36 37  1  0  0  0  0
 38 36  2  0  0  0  0
 39 32  1  0  0  0  0
 41 34  1  0  0  0  0
 42 34  1  0  0  0  0
M  END
$$$$
