LSD.pdb
 OpenBabel07022418473D

 45 44  0  0  1  0  0  0  0  0999 V2000
    0.1060   -5.4100   -0.3130 C   0  0  0  0  0  0  0  0  0  0  0  0
    1.1430   -4.8860    0.6670 C   0  0  0  0  0  0  0  0  0  0  0  0
    1.0990   -5.7440    1.8860 C   0  0  0  0  0  0  0  0  0  0  0  0
    0.8510   -3.4470    0.9130 C   0  0  0  0  0  0  0  0  0  0  0  0
    1.8140   -2.7970    1.8770 C   0  0  2  0  0  0  0  0  0  0  0  0
    1.8210   -3.4030    3.1680 N   0  0  0  0  0  0  0  0  0  0  0  0
    1.5390   -1.3450    2.0030 C   0  0  0  0  0  0  0  0  0  0  0  0
    1.3610   -0.8760    3.1520 O   0  0  0  0  0  0  0  0  0  0  0  0
   -0.1820   -6.4650   -0.0830 H   0  0  0  0  0  0  0  0  0  0  0  0
   -0.8280   -4.7990   -0.1930 H   0  0  0  0  0  0  0  0  0  0  0  0
    0.4440   -5.2850   -1.3440 H   0  0  0  0  0  0  0  0  0  0  0  0
    2.1400   -5.0040    0.1930 H   0  0  0  0  0  0  0  0  0  0  0  0
    2.1210   -5.9220    2.3070 H   0  0  0  0  0  0  0  0  0  0  0  0
    0.7290   -6.7590    1.5970 H   0  0  0  0  0  0  0  0  0  0  0  0
    0.4100   -5.3650    2.6680 H   0  0  0  0  0  0  0  0  0  0  0  0
   -0.1960   -3.3210    1.2460 H   0  0  0  0  0  0  0  0  0  0  0  0
    0.9290   -2.9130   -0.0600 H   0  0  0  0  0  0  0  0  0  0  0  0
    2.8500   -2.8750    1.4520 H   0  0  0  0  0  0  0  0  0  0  0  0
    1.6000   -2.6970    3.9310 H   0  0  0  0  0  0  0  0  0  0  0  0
    2.7630   -3.7860    3.4250 H   0  0  0  0  0  0  0  0  0  0  0  0
    2.4580    1.3140   -0.9570 O   0  0  0  0  0  0  0  0  0  0  0  0
    2.3580    1.6460    0.3720 C   0  0  0  0  0  0  0  0  0  0  0  0
    1.2110    0.8930    1.0060 C   0  0  2  0  0  0  0  0  0  0  0  0
    1.4780   -0.5100    0.8660 N   0  0  0  0  0  0  0  0  0  0  0  0
   -0.0730    1.2020    0.2840 C   0  0  0  0  0  0  0  0  0  0  0  0
   -0.7140    0.2980   -0.3060 O   0  0  0  0  0  0  0  0  0  0  0  0
    3.4050    1.4020   -1.2870 H   0  0  0  0  0  0  0  0  0  0  0  0
    2.2460    2.7480    0.4570 H   0  0  0  0  0  0  0  0  0  0  0  0
    3.2830    1.3360    0.8990 H   0  0  0  0  0  0  0  0  0  0  0  0
    1.0750    1.1660    2.0670 H   0  0  0  0  0  0  0  0  0  0  0  0
    1.6270   -0.9170   -0.0660 H   0  0  0  0  0  0  0  0  0  0  0  0
   -0.5980    2.5180    0.2460 N   0  0  0  0  0  0  0  0  0  0  0  0
   -1.8260    2.8870   -0.4270 C   0  0  1  0  0  0  0  0  0  0  0  0
   -2.8010    3.5700    0.5040 C   0  0  0  0  0  0  0  0  0  0  0  0
   -3.1700    2.6980    1.6300 C   0  0  0  0  0  0  0  0  0  0  0  0
   -2.6850    1.5560    1.7150 O   0  0  0  0  0  0  0  0  0  0  0  0
   -1.4830    3.7670   -1.5860 C   0  0  0  0  0  0  0  0  0  0  0  0
   -2.3780    4.2280   -2.3400 O   0  0  0  0  0  0  0  0  0  0  0  0
   -4.0480    3.1270    2.5960 O   0  0  0  0  0  0  0  0  0  0  0  0
   -0.1720    4.1140   -1.8810 O   0  0  0  0  0  0  0  0  0  0  0  0
   -0.0260    3.2480    0.7550 H   0  0  0  0  0  0  0  0  0  0  0  0
   -2.2950    1.9860   -0.8670 H   0  0  0  0  0  0  0  0  0  0  0  0
   -2.3820    4.5190    0.9120 H   0  0  0  0  0  0  0  0  0  0  0  0
   -3.7230    3.8580   -0.0290 H   0  0  0  0  0  0  0  0  0  0  0  0
   -4.4090    2.5040    3.3360 H   0  0  0  0  0  0  0  0  0  0  0  0
  1 10  1  0  0  0  0
  1  9  1  0  0  0  0
  1  2  1  0  0  0  0
  2  4  1  0  0  0  0
  2  3  1  0  0  0  0
  3 13  1  0  0  0  0
  3 15  1  0  0  0  0
  4 16  1  0  0  0  0
  4  5  1  0  0  0  0
  5 18  1  6  0  0  0
  5  7  1  0  0  0  0
  5  6  1  0  0  0  0
  6 20  1  0  0  0  0
  6 19  1  0  0  0  0
  7  8  2  0  0  0  0
 11  1  1  0  0  0  0
 12  2  1  0  0  0  0
 14  3  1  0  0  0  0
 17  4  1  0  0  0  0
 21 22  1  0  0  0  0
 22 28  1  0  0  0  0
 22 29  1  0  0  0  0
 22 23  1  0  0  0  0
 23 30  1  1  0  0  0
 24 23  1  0  0  0  0
 24  7  1  0  0  0  0
 25 23  1  0  0  0  0
 26 25  2  0  0  0  0
 27 21  1  0  0  0  0
 31 24  1  0  0  0  0
 32 25  1  0  0  0  0
 32 41  1  0  0  0  0
 33 42  1  6  0  0  0
 33 32  1  0  0  0  0
 33 34  1  0  0  0  0
 34 43  1  0  0  0  0
 34 35  1  0  0  0  0
 35 36  2  0  0  0  0
 35 39  1  0  0  0  0
 37 33  1  0  0  0  0
 38 37  2  0  0  0  0
 39 45  1  0  0  0  0
 40 37  1  0  0  0  0
 44 34  1  0  0  0  0
M  END
$$$$
