LSL.pdb
 OpenBabel07022418473D

 51 50  0  0  1  0  0  0  0  0999 V2000
    0.3750   -3.4050    1.4850 C   0  0  0  0  0  0  0  0  0  0  0  0
    1.4780   -4.3810    1.1290 C   0  0  0  0  0  0  0  0  0  0  0  0
    1.7550   -5.2240    2.3220 C   0  0  0  0  0  0  0  0  0  0  0  0
    2.5980   -3.7260    0.4650 C   0  0  0  0  0  0  0  0  0  0  0  0
    3.3480   -2.6550    1.1380 C   0  0  2  0  0  0  0  0  0  0  0  0
    3.9730   -3.0800    2.3930 N   0  0  0  0  0  0  0  0  0  0  0  0
    2.7100   -1.3410    1.2600 C   0  0  0  0  0  0  0  0  0  0  0  0
    2.6770   -0.6480    2.3110 O   0  0  0  0  0  0  0  0  0  0  0  0
   -0.3690   -3.9870    2.0970 H   0  0  0  0  0  0  0  0  0  0  0  0
    0.7010   -2.5310    2.0370 H   0  0  0  0  0  0  0  0  0  0  0  0
   -0.1740   -3.0750    0.5700 H   0  0  0  0  0  0  0  0  0  0  0  0
    0.9880   -5.0640    0.3680 H   0  0  0  0  0  0  0  0  0  0  0  0
    2.8220   -5.4340    2.5070 H   0  0  0  0  0  0  0  0  0  0  0  0
    1.3650   -4.7550    3.2520 H   0  0  0  0  0  0  0  0  0  0  0  0
    1.2610   -6.2290    2.2800 H   0  0  0  0  0  0  0  0  0  0  0  0
    2.2370   -3.3190   -0.5170 H   0  0  0  0  0  0  0  0  0  0  0  0
    3.3580   -4.5070    0.1540 H   0  0  0  0  0  0  0  0  0  0  0  0
    4.2480   -2.4680    0.4640 H   0  0  0  0  0  0  0  0  0  0  0  0
    4.2970   -2.2140    2.8670 H   0  0  0  0  0  0  0  0  0  0  0  0
    4.7810   -3.7020    2.2350 H   0  0  0  0  0  0  0  0  0  0  0  0
    2.2910    1.0600   -1.9730 O   0  0  0  0  0  0  0  0  0  0  0  0
    2.2560    1.4970   -0.6590 C   0  0  0  0  0  0  0  0  0  0  0  0
    1.4200    0.5560    0.2230 C   0  0  2  0  0  0  0  0  0  0  0  0
    2.0590   -0.7390    0.1430 N   0  0  0  0  0  0  0  0  0  0  0  0
    0.0450    0.4290   -0.3020 C   0  0  0  0  0  0  0  0  0  0  0  0
   -0.3780   -0.6630   -0.7210 O   0  0  0  0  0  0  0  0  0  0  0  0
    3.1420    1.2620   -2.4360 H   0  0  0  0  0  0  0  0  0  0  0  0
    1.9120    2.5400   -0.5490 H   0  0  0  0  0  0  0  0  0  0  0  0
    3.2890    1.4270   -0.2530 H   0  0  0  0  0  0  0  0  0  0  0  0
    1.4810    0.9950    1.2320 H   0  0  0  0  0  0  0  0  0  0  0  0
    2.0460   -1.2580   -0.7650 H   0  0  0  0  0  0  0  0  0  0  0  0
   -3.4660   -0.2770    1.3500 C   0  0  0  0  0  0  0  0  0  0  0  0
   -3.1710    1.1680    1.4430 C   0  0  0  0  0  0  0  0  0  0  0  0
   -4.2540    1.8090    2.3210 C   0  0  0  0  0  0  0  0  0  0  0  0
   -3.1860    1.9150    0.1490 C   0  0  0  0  0  0  0  0  0  0  0  0
   -2.2070    1.4360   -0.8660 C   0  0  2  0  0  0  0  0  0  0  0  0
   -0.8510    1.5470   -0.3510 N   0  0  0  0  0  0  0  0  0  0  0  0
   -2.3730    2.3000   -2.0840 C   0  0  0  0  0  0  0  0  0  0  0  0
   -1.4330    2.9970   -2.5430 O   0  0  0  0  0  0  0  0  0  0  0  0
   -3.5840    2.3630   -2.7570 O   0  0  0  0  0  0  0  0  0  0  0  0
   -3.1140   -0.7760    0.4280 H   0  0  0  0  0  0  0  0  0  0  0  0
   -4.5580   -0.4960    1.4380 H   0  0  0  0  0  0  0  0  0  0  0  0
   -2.9860   -0.8350    2.2000 H   0  0  0  0  0  0  0  0  0  0  0  0
   -2.2190    1.3410    1.9850 H   0  0  0  0  0  0  0  0  0  0  0  0
   -5.2210    1.4500    1.9170 H   0  0  0  0  0  0  0  0  0  0  0  0
   -4.2090    2.9000    2.1080 H   0  0  0  0  0  0  0  0  0  0  0  0
   -4.1020    1.5760    3.3860 H   0  0  0  0  0  0  0  0  0  0  0  0
   -2.9440    2.9810    0.3780 H   0  0  0  0  0  0  0  0  0  0  0  0
   -4.1940    1.9310   -0.3130 H   0  0  0  0  0  0  0  0  0  0  0  0
   -2.4340    0.4060   -1.1990 H   0  0  0  0  0  0  0  0  0  0  0  0
   -0.4750    2.4510    0.0050 H   0  0  0  0  0  0  0  0  0  0  0  0
  1 10  1  0  0  0  0
  1  9  1  0  0  0  0
  2  1  1  0  0  0  0
  2  3  1  0  0  0  0
  3 13  1  0  0  0  0
  3 14  1  0  0  0  0
  4  2  1  0  0  0  0
  4  5  1  0  0  0  0
  5 18  1  6  0  0  0
  5  7  1  0  0  0  0
  5  6  1  0  0  0  0
  6 19  1  0  0  0  0
  7  8  2  0  0  0  0
 11  1  1  0  0  0  0
 12  2  1  0  0  0  0
 15  3  1  0  0  0  0
 16  4  1  0  0  0  0
 17  4  1  0  0  0  0
 20  6  1  0  0  0  0
 21 22  1  0  0  0  0
 22 28  1  0  0  0  0
 22 29  1  0  0  0  0
 22 23  1  0  0  0  0
 23 30  1  1  0  0  0
 24 23  1  0  0  0  0
 24  7  1  0  0  0  0
 25 23  1  0  0  0  0
 26 25  2  0  0  0  0
 27 21  1  0  0  0  0
 31 24  1  0  0  0  0
 32 42  1  0  0  0  0
 32 33  1  0  0  0  0
 32 43  1  0  0  0  0
 33 44  1  0  0  0  0
 33 34  1  0  0  0  0
 34 47  1  0  0  0  0
 35 48  1  0  0  0  0
 35 33  1  0  0  0  0
 36 50  1  6  0  0  0
 36 37  1  0  0  0  0
 36 35  1  0  0  0  0
 37 25  1  0  0  0  0
 37 51  1  0  0  0  0
 38 36  1  0  0  0  0
 39 38  1  0  0  0  0
 40 38  2  0  0  0  0
 41 32  1  0  0  0  0
 45 34  1  0  0  0  0
 46 34  1  0  0  0  0
 49 35  1  0  0  0  0
M  END
$$$$
