LSP.pdb
 OpenBabel07022418473D

 46 46  0  0  1  0  0  0  0  0999 V2000
    1.6900   -5.4240    1.9640 C   0  0  0  0  0  0  0  0  0  0  0  0
    2.7470   -4.3660    1.8540 C   0  0  0  0  0  0  0  0  0  0  0  0
    3.5880   -4.3230    3.1110 C   0  0  0  0  0  0  0  0  0  0  0  0
    2.1970   -3.0140    1.5090 C   0  0  0  0  0  0  0  0  0  0  0  0
    1.2180   -2.4950    2.5180 C   0  0  2  0  0  0  0  0  0  0  0  0
    0.1100   -3.3860    2.6260 N   0  0  0  0  0  0  0  0  0  0  0  0
    0.8090   -1.1220    2.0730 C   0  0  0  0  0  0  0  0  0  0  0  0
    1.7550   -0.3060    1.9650 O   0  0  0  0  0  0  0  0  0  0  0  0
    0.8830   -5.2450    1.2300 H   0  0  0  0  0  0  0  0  0  0  0  0
    2.2000   -6.4100    1.7530 H   0  0  0  0  0  0  0  0  0  0  0  0
    1.2450   -5.5250    2.9540 H   0  0  0  0  0  0  0  0  0  0  0  0
    3.4330   -4.6620    1.0290 H   0  0  0  0  0  0  0  0  0  0  0  0
    4.2660   -5.2160    3.0560 H   0  0  0  0  0  0  0  0  0  0  0  0
    2.9900   -4.4410    4.0320 H   0  0  0  0  0  0  0  0  0  0  0  0
    4.2100   -3.4290    3.1180 H   0  0  0  0  0  0  0  0  0  0  0  0
    3.0590   -2.3050    1.4940 H   0  0  0  0  0  0  0  0  0  0  0  0
    1.7680   -3.0440    0.4890 H   0  0  0  0  0  0  0  0  0  0  0  0
    1.7020   -2.3770    3.4900 H   0  0  0  0  0  0  0  0  0  0  0  0
   -0.5270   -3.3910    1.8060 H   0  0  0  0  0  0  0  0  0  0  0  0
   -0.3940   -3.3310    3.5370 H   0  0  0  0  0  0  0  0  0  0  0  0
   -0.8810    2.8150    2.1840 O   0  0  0  0  0  0  0  0  0  0  0  0
   -0.4970    1.5230    2.4640 C   0  0  0  0  0  0  0  0  0  0  0  0
   -0.9580    0.5640    1.3660 C   0  0  2  0  0  0  0  0  0  0  0  0
   -0.4980   -0.7620    1.7990 N   0  0  0  0  0  0  0  0  0  0  0  0
   -0.3960    0.9240    0.0680 C   0  0  0  0  0  0  0  0  0  0  0  0
    0.6570    0.2540   -0.3020 O   0  0  0  0  0  0  0  0  0  0  0  0
   -1.7750    3.0520    2.5260 H   0  0  0  0  0  0  0  0  0  0  0  0
    0.5820    1.4330    2.6620 H   0  0  0  0  0  0  0  0  0  0  0  0
   -1.0200    1.2230    3.4060 H   0  0  0  0  0  0  0  0  0  0  0  0
   -2.0400    0.6230    1.3620 H   0  0  0  0  0  0  0  0  0  0  0  0
   -1.2500   -1.4850    1.9030 H   0  0  0  0  0  0  0  0  0  0  0  0
   -0.8400    1.8980   -0.8480 N   0  0  0  0  0  0  0  0  0  0  0  0
   -0.0740    2.1750   -2.0840 C   0  0  0  0  0  0  0  0  0  0  0  0
   -0.4490    3.6130   -2.3990 C   0  0  0  0  0  0  0  0  0  0  0  0
   -1.9070    3.6250   -2.0370 C   0  0  0  0  0  0  0  0  0  0  0  0
   -2.0200    2.7100   -0.8630 C   0  0  1  0  0  0  0  0  0  0  0  0
   -3.2560    1.8640   -0.9740 C   0  0  0  0  0  0  0  0  0  0  0  0
   -4.3620    2.4100   -0.9260 O   0  0  0  0  0  0  0  0  0  0  0  0
   -3.1210    0.5160   -1.1260 O   0  0  0  0  0  0  0  0  0  0  0  0
    0.9930    2.1300   -1.7970 H   0  0  0  0  0  0  0  0  0  0  0  0
   -0.3560    1.4850   -2.8760 H   0  0  0  0  0  0  0  0  0  0  0  0
   -0.2460    3.8840   -3.4350 H   0  0  0  0  0  0  0  0  0  0  0  0
    0.0870    4.2530   -1.6510 H   0  0  0  0  0  0  0  0  0  0  0  0
   -2.1770    4.6730   -1.7970 H   0  0  0  0  0  0  0  0  0  0  0  0
   -2.5050    3.2430   -2.8960 H   0  0  0  0  0  0  0  0  0  0  0  0
   -2.1510    3.3510    0.0380 H   0  0  0  0  0  0  0  0  0  0  0  0
  1 11  1  0  0  0  0
  2  1  1  0  0  0  0
  2  3  1  0  0  0  0
  3 15  1  0  0  0  0
  3 14  1  0  0  0  0
  4  2  1  0  0  0  0
  4  5  1  0  0  0  0
  5  6  1  0  0  0  0
  5 18  1  1  0  0  0
  6 20  1  0  0  0  0
  7  5  1  0  0  0  0
  8  7  2  0  0  0  0
  9  1  1  0  0  0  0
 10  1  1  0  0  0  0
 12  2  1  0  0  0  0
 13  3  1  0  0  0  0
 16  4  1  0  0  0  0
 17  4  1  0  0  0  0
 19  6  1  0  0  0  0
 21 22  1  0  0  0  0
 21 27  1  0  0  0  0
 22 28  1  0  0  0  0
 22 29  1  0  0  0  0
 23 30  1  6  0  0  0
 23 24  1  0  0  0  0
 23 22  1  0  0  0  0
 24 31  1  0  0  0  0
 24  7  1  0  0  0  0
 25 23  1  0  0  0  0
 26 25  2  0  0  0  0
 32 25  1  0  0  0  0
 33 40  1  0  0  0  0
 33 32  1  0  0  0  0
 34 33  1  0  0  0  0
 34 35  1  0  0  0  0
 34 43  1  0  0  0  0
 35 44  1  0  0  0  0
 35 36  1  0  0  0  0
 36 32  1  0  0  0  0
 36 46  1  1  0  0  0
 37 38  1  0  0  0  0
 37 36  1  0  0  0  0
 39 37  2  0  0  0  0
 41 33  1  0  0  0  0
 42 34  1  0  0  0  0
 45 35  1  0  0  0  0
M  END
$$$$
