LSQ.pdb
 OpenBabel07022418473D

 49 48  0  0  1  0  0  0  0  0999 V2000
   -0.0740   -4.8340    1.0500 C   0  0  0  0  0  0  0  0  0  0  0  0
    1.0400   -3.9040    1.5780 C   0  0  0  0  0  0  0  0  0  0  0  0
    0.3220   -2.6670    2.0410 C   0  0  0  0  0  0  0  0  0  0  0  0
    1.9760   -3.7200    0.4440 C   0  0  0  0  0  0  0  0  0  0  0  0
    3.1670   -2.8680    0.6670 C   0  0  2  0  0  0  0  0  0  0  0  0
    4.0180   -3.3760    1.7520 N   0  0  0  0  0  0  0  0  0  0  0  0
    2.9430   -1.4270    0.7660 C   0  0  0  0  0  0  0  0  0  0  0  0
    3.4720   -0.8100    1.7540 O   0  0  0  0  0  0  0  0  0  0  0  0
   -0.9580   -4.7820    1.6990 H   0  0  0  0  0  0  0  0  0  0  0  0
   -0.3700   -4.3850    0.0720 H   0  0  0  0  0  0  0  0  0  0  0  0
    0.3110   -5.8350    0.8600 H   0  0  0  0  0  0  0  0  0  0  0  0
    1.4730   -4.4560    2.4380 H   0  0  0  0  0  0  0  0  0  0  0  0
   -0.1900   -2.8730    3.0290 H   0  0  0  0  0  0  0  0  0  0  0  0
    0.9350   -1.7600    2.0960 H   0  0  0  0  0  0  0  0  0  0  0  0
   -0.5480   -2.4180    1.3620 H   0  0  0  0  0  0  0  0  0  0  0  0
    1.4250   -3.3130   -0.4300 H   0  0  0  0  0  0  0  0  0  0  0  0
    2.3520   -4.7340    0.1510 H   0  0  0  0  0  0  0  0  0  0  0  0
    3.8240   -3.0290   -0.2530 H   0  0  0  0  0  0  0  0  0  0  0  0
    4.8780   -2.7730    1.7340 H   0  0  0  0  0  0  0  0  0  0  0  0
    4.3410   -4.3380    1.4800 H   0  0  0  0  0  0  0  0  0  0  0  0
    3.9760    1.1440   -1.2490 O   0  0  0  0  0  0  0  0  0  0  0  0
    2.6280    1.4140   -1.2600 C   0  0  0  0  0  0  0  0  0  0  0  0
    1.9580    0.7240   -0.0710 C   0  0  2  0  0  0  0  0  0  0  0  0
    2.1710   -0.7000   -0.1790 N   0  0  0  0  0  0  0  0  0  0  0  0
    0.5250    1.1090   -0.1400 C   0  0  0  0  0  0  0  0  0  0  0  0
    0.2730    2.3300   -0.0360 O   0  0  0  0  0  0  0  0  0  0  0  0
    4.3580    1.4850   -0.3990 H   0  0  0  0  0  0  0  0  0  0  0  0
    2.1980    0.9810   -2.1980 H   0  0  0  0  0  0  0  0  0  0  0  0
    2.3890    2.4980   -1.2310 H   0  0  0  0  0  0  0  0  0  0  0  0
    2.4100    1.1680    0.8220 H   0  0  0  0  0  0  0  0  0  0  0  0
    1.7440   -1.2120   -0.9810 H   0  0  0  0  0  0  0  0  0  0  0  0
   -5.1830    2.5480    2.9490 N   0  0  0  0  0  0  0  0  0  0  0  0
   -3.9370    2.0110    2.5470 C   0  0  0  0  0  0  0  0  0  0  0  0
   -3.0340    1.8490    3.3990 O   0  0  0  0  0  0  0  0  0  0  0  0
   -3.6870    1.6380    1.1330 C   0  0  0  0  0  0  0  0  0  0  0  0
   -2.3060    1.1040    0.9930 C   0  0  0  0  0  0  0  0  0  0  0  0
   -1.8990    0.6750   -0.3710 C   0  0  2  0  0  0  0  0  0  0  0  0
   -0.5200    0.1810   -0.3130 N   0  0  0  0  0  0  0  0  0  0  0  0
   -2.0850    1.6540   -1.4380 C   0  0  0  0  0  0  0  0  0  0  0  0
   -3.1940    2.1930   -1.6300 O   0  0  0  0  0  0  0  0  0  0  0  0
   -1.0300    2.0000   -2.2590 O   0  0  0  0  0  0  0  0  0  0  0  0
   -5.4910    2.5600    3.9450 H   0  0  0  0  0  0  0  0  0  0  0  0
   -5.8110    2.9430    2.2240 H   0  0  0  0  0  0  0  0  0  0  0  0
   -3.8860    2.5540    0.5410 H   0  0  0  0  0  0  0  0  0  0  0  0
   -4.4380    0.8570    0.8780 H   0  0  0  0  0  0  0  0  0  0  0  0
   -2.1830    0.2720    1.7310 H   0  0  0  0  0  0  0  0  0  0  0  0
   -1.5730    1.8840    1.3550 H   0  0  0  0  0  0  0  0  0  0  0  0
   -2.5120   -0.2370   -0.6600 H   0  0  0  0  0  0  0  0  0  0  0  0
   -0.2640   -0.8230   -0.3950 H   0  0  0  0  0  0  0  0  0  0  0  0
  1  2  1  0  0  0  0
  1  9  1  0  0  0  0
  2  3  1  0  0  0  0
  2 12  1  0  0  0  0
  3 14  1  0  0  0  0
  3 13  1  0  0  0  0
  4  5  1  0  0  0  0
  4  2  1  0  0  0  0
  5 18  1  6  0  0  0
  5  7  1  0  0  0  0
  5  6  1  0  0  0  0
  7  8  2  0  0  0  0
 10  1  1  0  0  0  0
 11  1  1  0  0  0  0
 15  3  1  0  0  0  0
 16  4  1  0  0  0  0
 17  4  1  0  0  0  0
 19  6  1  0  0  0  0
 20  6  1  0  0  0  0
 21 27  1  0  0  0  0
 22 21  1  0  0  0  0
 22 29  1  0  0  0  0
 22 23  1  0  0  0  0
 23 30  1  1  0  0  0
 24 23  1  0  0  0  0
 24  7  1  0  0  0  0
 25 23  1  0  0  0  0
 25 26  2  0  0  0  0
 28 22  1  0  0  0  0
 31 24  1  0  0  0  0
 32 42  1  0  0  0  0
 33 32  1  0  0  0  0
 33 34  2  0  0  0  0
 35 33  1  0  0  0  0
 36 35  1  0  0  0  0
 36 47  1  0  0  0  0
 36 46  1  0  0  0  0
 37 48  1  6  0  0  0
 37 38  1  0  0  0  0
 37 36  1  0  0  0  0
 38 25  1  0  0  0  0
 39 37  1  0  0  0  0
 40 39  1  0  0  0  0
 41 39  2  0  0  0  0
 43 32  1  0  0  0  0
 44 35  1  0  0  0  0
 45 35  1  0  0  0  0
 49 38  1  0  0  0  0
M  END
$$$$
