LSR.pdb
 OpenBabel07022418473D

 55 54  0  0  1  0  0  0  0  0999 V2000
    3.3180   -2.7850    5.1060 C   0  0  0  0  0  0  0  0  0  0  0  0
    3.4100   -3.9390    4.0960 C   0  0  0  0  0  0  0  0  0  0  0  0
    2.5870   -5.0890    4.5180 C   0  0  0  0  0  0  0  0  0  0  0  0
    3.1850   -3.4000    2.7260 C   0  0  0  0  0  0  0  0  0  0  0  0
    1.8810   -2.7350    2.4870 C   0  0  2  0  0  0  0  0  0  0  0  0
    0.7330   -3.5620    2.6860 N   0  0  0  0  0  0  0  0  0  0  0  0
    1.9000   -2.1060    1.1320 C   0  0  0  0  0  0  0  0  0  0  0  0
    2.8320   -1.2990    0.8240 O   0  0  0  0  0  0  0  0  0  0  0  0
    3.9790   -2.9780    5.9750 H   0  0  0  0  0  0  0  0  0  0  0  0
    3.7160   -1.8880    4.5820 H   0  0  0  0  0  0  0  0  0  0  0  0
    2.2960   -2.6600    5.4710 H   0  0  0  0  0  0  0  0  0  0  0  0
    4.4940   -4.2410    4.1420 H   0  0  0  0  0  0  0  0  0  0  0  0
    3.2310   -5.8940    4.9820 H   0  0  0  0  0  0  0  0  0  0  0  0
    2.0260   -5.6080    3.7310 H   0  0  0  0  0  0  0  0  0  0  0  0
    1.9390   -4.7640    5.3820 H   0  0  0  0  0  0  0  0  0  0  0  0
    3.2610   -4.2770    2.0150 H   0  0  0  0  0  0  0  0  0  0  0  0
    4.0420   -2.7530    2.4590 H   0  0  0  0  0  0  0  0  0  0  0  0
    1.7870   -1.8730    3.2100 H   0  0  0  0  0  0  0  0  0  0  0  0
   -0.1360   -3.0930    2.3130 H   0  0  0  0  0  0  0  0  0  0  0  0
    0.5620   -3.7290    3.7210 H   0  0  0  0  0  0  0  0  0  0  0  0
    0.1180   -3.6330   -2.4180 O   0  0  0  0  0  0  0  0  0  0  0  0
    1.0990   -2.6860   -2.3140 C   0  0  0  0  0  0  0  0  0  0  0  0
    0.9570   -1.7330   -1.1750 C   0  0  2  0  0  0  0  0  0  0  0  0
    0.9460   -2.3300    0.1180 N   0  0  0  0  0  0  0  0  0  0  0  0
   -0.2530   -0.8560   -1.2790 C   0  0  0  0  0  0  0  0  0  0  0  0
   -1.0260   -0.7800   -0.2890 O   0  0  0  0  0  0  0  0  0  0  0  0
   -0.7330   -3.2780   -2.7250 H   0  0  0  0  0  0  0  0  0  0  0  0
    1.0530   -2.0660   -3.2580 H   0  0  0  0  0  0  0  0  0  0  0  0
    2.1130   -3.1040   -2.2910 H   0  0  0  0  0  0  0  0  0  0  0  0
    1.8350   -1.0290   -1.2490 H   0  0  0  0  0  0  0  0  0  0  0  0
    0.1630   -2.9860    0.3210 H   0  0  0  0  0  0  0  0  0  0  0  0
   -2.2840    3.0280    2.2880 N   0  0  0  0  0  0  0  0  0  0  0  0
   -3.0570    3.4120    1.1700 C   0  0  0  0  0  0  0  0  0  0  0  0
   -4.3120    3.7760    1.3120 N   0  0  0  0  0  0  0  0  0  0  0  0
   -2.4670    3.4010   -0.1300 N   0  0  0  0  0  0  0  0  0  0  0  0
   -3.3100    3.0520   -1.2650 C   0  0  0  0  0  0  0  0  0  0  0  0
   -2.5280    3.0950   -2.5600 C   0  0  0  0  0  0  0  0  0  0  0  0
   -1.3760    2.1550   -2.5770 C   0  0  0  0  0  0  0  0  0  0  0  0
   -1.7780    0.7110   -2.3970 C   0  0  2  0  0  0  0  0  0  0  0  0
   -0.5620   -0.1170   -2.4260 N   0  0  0  0  0  0  0  0  0  0  0  0
   -2.7160    0.2320   -3.4120 C   0  0  0  0  0  0  0  0  0  0  0  0
   -2.4070   -0.7470   -4.1340 O   0  0  0  0  0  0  0  0  0  0  0  0
   -3.9610    0.7920   -3.6460 O   0  0  0  0  0  0  0  0  0  0  0  0
   -2.7390    2.8760    3.2040 H   0  0  0  0  0  0  0  0  0  0  0  0
   -1.2650    2.9000    2.1900 H   0  0  0  0  0  0  0  0  0  0  0  0
   -4.7030    3.7660    2.2860 H   0  0  0  0  0  0  0  0  0  0  0  0
   -1.4600    3.6380   -0.2570 H   0  0  0  0  0  0  0  0  0  0  0  0
   -3.8350    2.0930   -1.1310 H   0  0  0  0  0  0  0  0  0  0  0  0
   -4.0850    3.8560   -1.3340 H   0  0  0  0  0  0  0  0  0  0  0  0
   -3.1970    2.9710   -3.4250 H   0  0  0  0  0  0  0  0  0  0  0  0
   -2.1170    4.1410   -2.6530 H   0  0  0  0  0  0  0  0  0  0  0  0
   -0.9210    2.2150   -3.6070 H   0  0  0  0  0  0  0  0  0  0  0  0
   -0.6040    2.4320   -1.8580 H   0  0  0  0  0  0  0  0  0  0  0  0
   -2.2850    0.6370   -1.4130 H   0  0  0  0  0  0  0  0  0  0  0  0
    0.0420   -0.1510   -3.2620 H   0  0  0  0  0  0  0  0  0  0  0  0
  1 11  1  0  0  0  0
  1  9  1  0  0  0  0
  2 12  1  0  0  0  0
  2  3  1  0  0  0  0
  2  1  1  0  0  0  0
  3 13  1  0  0  0  0
  3 15  1  0  0  0  0
  4  2  1  0  0  0  0
  5  6  1  0  0  0  0
  5  4  1  0  0  0  0
  5 18  1  1  0  0  0
  6 20  1  0  0  0  0
  7  5  1  0  0  0  0
  8  7  2  0  0  0  0
 10  1  1  0  0  0  0
 14  3  1  0  0  0  0
 16  4  1  0  0  0  0
 17  4  1  0  0  0  0
 19  6  1  0  0  0  0
 21 22  1  0  0  0  0
 22 29  1  0  0  0  0
 22 23  1  0  0  0  0
 23 30  1  6  0  0  0
 23 24  1  0  0  0  0
 24 31  1  0  0  0  0
 24  7  1  0  0  0  0
 25 23  1  0  0  0  0
 25 26  2  0  0  0  0
 27 21  1  0  0  0  0
 28 22  1  0  0  0  0
 32 44  1  0  0  0  0
 33 34  2  0  0  0  0
 33 32  1  0  0  0  0
 34 46  1  0  0  0  0
 35 33  1  0  0  0  0
 36 48  1  0  0  0  0
 36 35  1  0  0  0  0
 37 36  1  0  0  0  0
 38 37  1  0  0  0  0
 38 39  1  0  0  0  0
 38 53  1  0  0  0  0
 39 54  1  1  0  0  0
 40 39  1  0  0  0  0
 40 25  1  0  0  0  0
 41 39  1  0  0  0  0
 42 41  2  0  0  0  0
 43 41  1  0  0  0  0
 45 32  1  0  0  0  0
 47 35  1  0  0  0  0
 49 36  1  0  0  0  0
 50 37  1  0  0  0  0
 51 37  1  0  0  0  0
 52 38  1  0  0  0  0
 55 40  1  0  0  0  0
M  END
$$$$
