LSY.pdb
 OpenBabel07022418473D

 53 53  0  0  1  0  0  0  0  0999 V2000
   -1.9760   -0.4690    2.8630 C   0  0  0  0  0  0  0  0  0  0  0  0
   -0.8750    0.5970    2.7070 C   0  0  0  0  0  0  0  0  0  0  0  0
   -1.2580    1.7290    3.5730 C   0  0  0  0  0  0  0  0  0  0  0  0
    0.4070   -0.0760    2.9820 C   0  0  0  0  0  0  0  0  0  0  0  0
    1.6520    0.7130    2.9050 C   0  0  2  0  0  0  0  0  0  0  0  0
    1.7420    1.8210    3.7900 N   0  0  0  0  0  0  0  0  0  0  0  0
    2.0740    1.0800    1.5290 C   0  0  0  0  0  0  0  0  0  0  0  0
    2.4430    2.2850    1.3130 O   0  0  0  0  0  0  0  0  0  0  0  0
   -1.6570   -1.4140    2.3630 H   0  0  0  0  0  0  0  0  0  0  0  0
   -2.0510   -0.7400    3.9550 H   0  0  0  0  0  0  0  0  0  0  0  0
   -2.9550   -0.1070    2.5550 H   0  0  0  0  0  0  0  0  0  0  0  0
   -0.9360    0.8910    1.6380 H   0  0  0  0  0  0  0  0  0  0  0  0
   -1.0830    1.4850    4.6540 H   0  0  0  0  0  0  0  0  0  0  0  0
   -2.3830    1.8400    3.5040 H   0  0  0  0  0  0  0  0  0  0  0  0
   -0.8590    2.7140    3.2940 H   0  0  0  0  0  0  0  0  0  0  0  0
    0.4960   -0.9500    2.3020 H   0  0  0  0  0  0  0  0  0  0  0  0
    0.3520   -0.5230    4.0110 H   0  0  0  0  0  0  0  0  0  0  0  0
    2.4690    0.0020    3.2530 H   0  0  0  0  0  0  0  0  0  0  0  0
    1.7630    2.7500    3.3580 H   0  0  0  0  0  0  0  0  0  0  0  0
    2.3060    1.6910    4.6320 H   0  0  0  0  0  0  0  0  0  0  0  0
    4.0950    0.1230   -2.5440 O   0  0  0  0  0  0  0  0  0  0  0  0
    3.7650   -0.2700   -1.2410 C   0  0  0  0  0  0  0  0  0  0  0  0
    2.4860    0.4940   -0.8680 C   0  0  2  0  0  0  0  0  0  0  0  0
    2.0810    0.1460    0.4580 N   0  0  0  0  0  0  0  0  0  0  0  0
    1.4840    0.1420   -1.8850 C   0  0  0  0  0  0  0  0  0  0  0  0
    1.7040    0.3950   -3.0920 O   0  0  0  0  0  0  0  0  0  0  0  0
    4.4210    1.0450   -2.5790 H   0  0  0  0  0  0  0  0  0  0  0  0
    4.6140    0.0340   -0.5990 H   0  0  0  0  0  0  0  0  0  0  0  0
    3.5900   -1.3610   -1.2500 H   0  0  0  0  0  0  0  0  0  0  0  0
    2.7830    1.5740   -0.9410 H   0  0  0  0  0  0  0  0  0  0  0  0
    1.7730   -0.8230    0.6800 H   0  0  0  0  0  0  0  0  0  0  0  0
   -2.3910   -4.7060    2.3600 O   0  0  0  0  0  0  0  0  0  0  0  0
   -2.0130   -4.1260    1.1340 C   0  0  0  0  0  0  0  0  0  0  0  0
   -0.6960   -3.9840    0.7910 C   0  0  0  0  0  0  0  0  0  0  0  0
   -0.3410   -3.4070   -0.4280 C   0  0  0  0  0  0  0  0  0  0  0  0
   -1.3030   -2.9700   -1.3120 C   0  0  0  0  0  0  0  0  0  0  0  0
   -0.9210   -2.3620   -2.5990 C   0  0  0  0  0  0  0  0  0  0  0  0
   -0.7510   -0.8460   -2.4960 C   0  0  2  0  0  0  0  0  0  0  0  0
    0.2700   -0.4770   -1.5450 N   0  0  0  0  0  0  0  0  0  0  0  0
   -2.0080   -0.1770   -2.1670 C   0  0  0  0  0  0  0  0  0  0  0  0
   -2.0650    0.5870   -1.1750 O   0  0  0  0  0  0  0  0  0  0  0  0
   -2.6200   -3.1170   -0.9580 C   0  0  0  0  0  0  0  0  0  0  0  0
   -2.9840   -3.6960    0.2650 C   0  0  0  0  0  0  0  0  0  0  0  0
   -3.1270   -0.3730   -2.9310 O   0  0  0  0  0  0  0  0  0  0  0  0
   -3.1640   -4.2730    2.8760 H   0  0  0  0  0  0  0  0  0  0  0  0
    0.0790   -4.3080    1.4440 H   0  0  0  0  0  0  0  0  0  0  0  0
    0.7150   -3.3230   -0.6390 H   0  0  0  0  0  0  0  0  0  0  0  0
   -1.7250   -2.5040   -3.3770 H   0  0  0  0  0  0  0  0  0  0  0  0
   -0.0090   -2.8160   -3.0380 H   0  0  0  0  0  0  0  0  0  0  0  0
   -0.3520   -0.5220   -3.5030 H   0  0  0  0  0  0  0  0  0  0  0  0
    0.0950   -0.6840   -0.5360 H   0  0  0  0  0  0  0  0  0  0  0  0
   -3.4030   -2.7850   -1.6280 H   0  0  0  0  0  0  0  0  0  0  0  0
   -4.0160   -3.8090    0.5370 H   0  0  0  0  0  0  0  0  0  0  0  0
  1 10  1  0  0  0  0
  2  1  1  0  0  0  0
  2  4  1  0  0  0  0
  2  3  1  0  0  0  0
  3 13  1  0  0  0  0
  4 17  1  0  0  0  0
  5  4  1  0  0  0  0
  5 18  1  1  0  0  0
  5  6  1  0  0  0  0
  6 20  1  0  0  0  0
  7  5  1  0  0  0  0
  8  7  2  0  0  0  0
  9  1  1  0  0  0  0
 11  1  1  0  0  0  0
 12  2  1  0  0  0  0
 14  3  1  0  0  0  0
 15  3  1  0  0  0  0
 16  4  1  0  0  0  0
 19  6  1  0  0  0  0
 21 22  1  0  0  0  0
 22 23  1  0  0  0  0
 22 28  1  0  0  0  0
 23 30  1  6  0  0  0
 23 24  1  0  0  0  0
 24 31  1  0  0  0  0
 24  7  1  0  0  0  0
 25 39  1  0  0  0  0
 25 23  1  0  0  0  0
 26 25  2  0  0  0  0
 27 21  1  0  0  0  0
 29 22  1  0  0  0  0
 32 45  1  0  0  0  0
 33 32  1  0  0  0  0
 34 33  1  0  0  0  0
 34 46  1  0  0  0  0
 35 34  2  0  0  0  0
 36 42  2  0  0  0  0
 36 35  1  0  0  0  0
 37 38  1  0  0  0  0
 37 36  1  0  0  0  0
 38 50  1  6  0  0  0
 38 40  1  0  0  0  0
 38 39  1  0  0  0  0
 39 51  1  0  0  0  0
 40 41  1  0  0  0  0
 42 43  1  0  0  0  0
 43 53  1  0  0  0  0
 43 33  2  0  0  0  0
 44 40  2  0  0  0  0
 47 35  1  0  0  0  0
 48 37  1  0  0  0  0
 49 37  1  0  0  0  0
 52 42  1  0  0  0  0
M  END
$$$$
