LTA.pdb
 OpenBabel07022418473D

 45 44  0  0  1  0  0  0  0  0999 V2000
    0.4140   -4.3340    2.1950 C   0  0  0  0  0  0  0  0  0  0  0  0
    0.5690   -3.1520    1.2260 C   0  0  0  0  0  0  0  0  0  0  0  0
   -0.1120   -3.6440   -0.0540 C   0  0  0  0  0  0  0  0  0  0  0  0
    2.0130   -2.8410    0.9850 C   0  0  0  0  0  0  0  0  0  0  0  0
    2.2850   -1.7150    0.0720 C   0  0  2  0  0  0  0  0  0  0  0  0
    3.6960   -1.4530   -0.1710 N   0  0  0  0  0  0  0  0  0  0  0  0
    1.6520   -0.4200    0.4260 C   0  0  0  0  0  0  0  0  0  0  0  0
    1.4530    0.3880   -0.5000 O   0  0  0  0  0  0  0  0  0  0  0  0
    0.3800   -3.8930    3.2110 H   0  0  0  0  0  0  0  0  0  0  0  0
   -0.5140   -4.8940    1.9950 H   0  0  0  0  0  0  0  0  0  0  0  0
    1.3340   -4.9440    2.0520 H   0  0  0  0  0  0  0  0  0  0  0  0
    0.0070   -2.2880    1.5500 H   0  0  0  0  0  0  0  0  0  0  0  0
   -1.2120   -3.6700    0.0730 H   0  0  0  0  0  0  0  0  0  0  0  0
    0.1140   -3.0280   -0.9210 H   0  0  0  0  0  0  0  0  0  0  0  0
    0.1990   -4.6900   -0.2820 H   0  0  0  0  0  0  0  0  0  0  0  0
    2.5920   -2.7710    1.9460 H   0  0  0  0  0  0  0  0  0  0  0  0
    2.4440   -3.7650    0.4960 H   0  0  0  0  0  0  0  0  0  0  0  0
    1.8710   -1.9980   -0.9400 H   0  0  0  0  0  0  0  0  0  0  0  0
    3.8570   -0.4720   -0.4570 H   0  0  0  0  0  0  0  0  0  0  0  0
    4.1150   -2.1320   -0.8460 H   0  0  0  0  0  0  0  0  0  0  0  0
    2.2480    2.8370    1.0740 C   0  0  0  0  0  0  0  0  0  0  0  0
    1.4850    2.3840    2.2600 C   0  0  1  0  0  0  0  0  0  0  0  0
    0.6570    3.4620    2.6560 O   0  0  0  0  0  0  0  0  0  0  0  0
    0.6450    1.1810    2.1260 C   0  0  2  0  0  0  0  0  0  0  0  0
    1.2610   -0.0330    1.7380 N   0  0  0  0  0  0  0  0  0  0  0  0
   -0.6420    1.4950    1.4190 C   0  0  0  0  0  0  0  0  0  0  0  0
   -1.1840    2.6290    1.5730 O   0  0  0  0  0  0  0  0  0  0  0  0
    2.7110    3.8530    1.2620 H   0  0  0  0  0  0  0  0  0  0  0  0
    1.5870    3.0270    0.1900 H   0  0  0  0  0  0  0  0  0  0  0  0
    3.0700    2.2050    0.7450 H   0  0  0  0  0  0  0  0  0  0  0  0
    2.2210    2.2880    3.1120 H   0  0  0  0  0  0  0  0  0  0  0  0
    0.1290    3.2000    3.4390 H   0  0  0  0  0  0  0  0  0  0  0  0
    0.2480    0.9770    3.1930 H   0  0  0  0  0  0  0  0  0  0  0  0
    1.5000   -0.7770    2.4700 H   0  0  0  0  0  0  0  0  0  0  0  0
   -2.3600    0.7520   -1.6160 C   0  0  0  0  0  0  0  0  0  0  0  0
   -2.5390    0.8850   -0.1110 C   0  0  2  0  0  0  0  0  0  0  0  0
   -1.2950    0.5750    0.5770 N   0  0  0  0  0  0  0  0  0  0  0  0
   -3.5560   -0.1010    0.2990 C   0  0  0  0  0  0  0  0  0  0  0  0
   -3.2890   -1.0170    1.1150 O   0  0  0  0  0  0  0  0  0  0  0  0
   -4.8520   -0.0060   -0.2380 O   0  0  0  0  0  0  0  0  0  0  0  0
   -1.8210   -0.2020   -1.7970 H   0  0  0  0  0  0  0  0  0  0  0  0
   -3.3860    0.6830   -2.0750 H   0  0  0  0  0  0  0  0  0  0  0  0
   -1.8790    1.6250   -2.0620 H   0  0  0  0  0  0  0  0  0  0  0  0
   -2.8770    1.9220    0.1240 H   0  0  0  0  0  0  0  0  0  0  0  0
   -0.9020   -0.3760    0.4360 H   0  0  0  0  0  0  0  0  0  0  0  0
  1  9  1  0  0  0  0
  2 12  1  0  0  0  0
  2  1  1  0  0  0  0
  3 13  1  0  0  0  0
  3  2  1  0  0  0  0
  4  2  1  0  0  0  0
  4 16  1  0  0  0  0
  5 18  1  6  0  0  0
  5  7  1  0  0  0  0
  5  4  1  0  0  0  0
  6  5  1  0  0  0  0
  7 25  1  0  0  0  0
  8  7  2  0  0  0  0
 10  1  1  0  0  0  0
 11  1  1  0  0  0  0
 14  3  1  0  0  0  0
 15  3  1  0  0  0  0
 17  4  1  0  0  0  0
 19  6  1  0  0  0  0
 20  6  1  0  0  0  0
 21 28  1  0  0  0  0
 21 22  1  0  0  0  0
 22 23  1  0  0  0  0
 22 31  1  1  0  0  0
 23 32  1  0  0  0  0
 24 22  1  0  0  0  0
 24 33  1  1  0  0  0
 25 24  1  0  0  0  0
 25 34  1  0  0  0  0
 26 27  2  0  0  0  0
 26 24  1  0  0  0  0
 29 21  1  0  0  0  0
 30 21  1  0  0  0  0
 35 36  1  0  0  0  0
 36 44  1  1  0  0  0
 36 38  1  0  0  0  0
 36 37  1  0  0  0  0
 37 26  1  0  0  0  0
 38 39  1  0  0  0  0
 40 38  2  0  0  0  0
 41 35  1  0  0  0  0
 42 35  1  0  0  0  0
 43 35  1  0  0  0  0
 45 37  1  0  0  0  0
M  END
$$$$
