LTD.pdb
 OpenBabel07022418473D

 48 47  0  0  1  0  0  0  0  0999 V2000
   -0.0890   -4.7630    0.5880 C   0  0  0  0  0  0  0  0  0  0  0  0
    1.0920   -3.8460    0.8820 C   0  0  0  0  0  0  0  0  0  0  0  0
    0.7120   -3.0040    2.0590 C   0  0  0  0  0  0  0  0  0  0  0  0
    1.4770   -3.0390   -0.3020 C   0  0  0  0  0  0  0  0  0  0  0  0
    2.6330   -2.1080   -0.0930 C   0  0  2  0  0  0  0  0  0  0  0  0
    3.8220   -2.8090    0.3250 N   0  0  0  0  0  0  0  0  0  0  0  0
    2.3380   -0.9290    0.7380 C   0  0  0  0  0  0  0  0  0  0  0  0
    2.9690   -0.6470    1.7860 O   0  0  0  0  0  0  0  0  0  0  0  0
   -0.5070   -5.0400    1.6030 H   0  0  0  0  0  0  0  0  0  0  0  0
   -0.8630   -4.1660    0.0660 H   0  0  0  0  0  0  0  0  0  0  0  0
    0.2090   -5.6730    0.0700 H   0  0  0  0  0  0  0  0  0  0  0  0
    1.9320   -4.5070    1.2020 H   0  0  0  0  0  0  0  0  0  0  0  0
    1.6200   -2.8150    2.6740 H   0  0  0  0  0  0  0  0  0  0  0  0
   -0.0420   -3.5920    2.6820 H   0  0  0  0  0  0  0  0  0  0  0  0
    0.1660   -2.0930    1.7680 H   0  0  0  0  0  0  0  0  0  0  0  0
    1.7070   -3.6730   -1.1990 H   0  0  0  0  0  0  0  0  0  0  0  0
    0.5980   -2.4220   -0.6420 H   0  0  0  0  0  0  0  0  0  0  0  0
    2.9110   -1.6790   -1.1240 H   0  0  0  0  0  0  0  0  0  0  0  0
    4.6770   -2.2960    0.0250 H   0  0  0  0  0  0  0  0  0  0  0  0
    3.8660   -3.7600   -0.0960 H   0  0  0  0  0  0  0  0  0  0  0  0
    1.2080    3.6290    1.2630 C   0  0  0  0  0  0  0  0  0  0  0  0
    1.4420    2.3850    0.4040 C   0  0  1  0  0  0  0  0  0  0  0  0
    2.8260    2.2500    0.2620 O   0  0  0  0  0  0  0  0  0  0  0  0
    0.9500    1.1540    1.1510 C   0  0  2  0  0  0  0  0  0  0  0  0
    1.2870   -0.0150    0.3810 N   0  0  0  0  0  0  0  0  0  0  0  0
   -0.5120    1.2570    1.4210 C   0  0  0  0  0  0  0  0  0  0  0  0
   -0.8650    2.2860    2.0870 O   0  0  0  0  0  0  0  0  0  0  0  0
    1.2450    3.2860    2.3350 H   0  0  0  0  0  0  0  0  0  0  0  0
    0.2010    4.0660    1.0270 H   0  0  0  0  0  0  0  0  0  0  0  0
    1.9960    4.3840    1.1450 H   0  0  0  0  0  0  0  0  0  0  0  0
    0.9650    2.4890   -0.5770 H   0  0  0  0  0  0  0  0  0  0  0  0
    3.0480    1.8130   -0.5970 H   0  0  0  0  0  0  0  0  0  0  0  0
    1.5370    1.1360    2.0930 H   0  0  0  0  0  0  0  0  0  0  0  0
    0.7580   -0.2450   -0.4910 H   0  0  0  0  0  0  0  0  0  0  0  0
   -1.4500    0.2900    0.9750 N   0  0  0  0  0  0  0  0  0  0  0  0
   -2.8320    0.4720    1.2710 C   0  0  1  0  0  0  0  0  0  0  0  0
   -3.7210    0.3390    0.0560 C   0  0  0  0  0  0  0  0  0  0  0  0
   -3.4630    1.2890   -1.0160 C   0  0  0  0  0  0  0  0  0  0  0  0
   -3.4770    2.5210   -0.7980 O   0  0  0  0  0  0  0  0  0  0  0  0
   -3.2710   -0.6070    2.2030 C   0  0  0  0  0  0  0  0  0  0  0  0
   -4.4520   -0.6740    2.6160 O   0  0  0  0  0  0  0  0  0  0  0  0
   -3.1900    0.8850   -2.3180 O   0  0  0  0  0  0  0  0  0  0  0  0
   -2.3700   -1.5640    2.6340 O   0  0  0  0  0  0  0  0  0  0  0  0
   -1.0630   -0.5190    0.4440 H   0  0  0  0  0  0  0  0  0  0  0  0
   -3.0080    1.4150    1.7990 H   0  0  0  0  0  0  0  0  0  0  0  0
   -4.7720    0.4970    0.4390 H   0  0  0  0  0  0  0  0  0  0  0  0
   -3.6980   -0.7200   -0.2720 H   0  0  0  0  0  0  0  0  0  0  0  0
   -3.4230    1.4150   -3.1530 H   0  0  0  0  0  0  0  0  0  0  0  0
  1  2  1  0  0  0  0
  1  9  1  0  0  0  0
  2 12  1  0  0  0  0
  2  3  1  0  0  0  0
  3 13  1  0  0  0  0
  3 14  1  0  0  0  0
  4  5  1  0  0  0  0
  4  2  1  0  0  0  0
  5 18  1  6  0  0  0
  5  6  1  0  0  0  0
  5  7  1  0  0  0  0
  7  8  2  0  0  0  0
 10  1  1  0  0  0  0
 11  1  1  0  0  0  0
 15  3  1  0  0  0  0
 16  4  1  0  0  0  0
 17  4  1  0  0  0  0
 19  6  1  0  0  0  0
 20  6  1  0  0  0  0
 21 28  1  0  0  0  0
 22 31  1  6  0  0  0
 22 24  1  0  0  0  0
 22 21  1  0  0  0  0
 23 22  1  0  0  0  0
 24 26  1  0  0  0  0
 24 33  1  1  0  0  0
 25  7  1  0  0  0  0
 25 24  1  0  0  0  0
 26 27  2  0  0  0  0
 29 21  1  0  0  0  0
 30 21  1  0  0  0  0
 32 23  1  0  0  0  0
 34 25  1  0  0  0  0
 35 36  1  0  0  0  0
 35 26  1  0  0  0  0
 36 45  1  1  0  0  0
 36 40  1  0  0  0  0
 37 46  1  0  0  0  0
 37 36  1  0  0  0  0
 38 39  2  0  0  0  0
 38 37  1  0  0  0  0
 40 41  2  0  0  0  0
 40 43  1  0  0  0  0
 42 38  1  0  0  0  0
 44 35  1  0  0  0  0
 47 37  1  0  0  0  0
 48 42  1  0  0  0  0
M  END
$$$$
