LTI.pdb
 OpenBabel07022418473D

 54 53  0  0  1  0  0  0  0  0999 V2000
    2.1850   -4.3670    3.2750 C   0  0  0  0  0  0  0  0  0  0  0  0
    1.8400   -3.9670    1.8510 C   0  0  0  0  0  0  0  0  0  0  0  0
    0.6710   -4.8240    1.4130 C   0  0  0  0  0  0  0  0  0  0  0  0
    1.4060   -2.5420    1.8120 C   0  0  0  0  0  0  0  0  0  0  0  0
    2.4780   -1.5870    2.3080 C   0  0  2  0  0  0  0  0  0  0  0  0
    2.8590   -1.8540    3.6650 N   0  0  0  0  0  0  0  0  0  0  0  0
    1.8950   -0.2220    2.2040 C   0  0  0  0  0  0  0  0  0  0  0  0
    1.8040    0.4980    3.2360 O   0  0  0  0  0  0  0  0  0  0  0  0
    1.5500   -3.8190    4.0010 H   0  0  0  0  0  0  0  0  0  0  0  0
    1.9830   -5.4560    3.4580 H   0  0  0  0  0  0  0  0  0  0  0  0
    3.2750   -4.2320    3.4690 H   0  0  0  0  0  0  0  0  0  0  0  0
    2.7030   -4.1290    1.1680 H   0  0  0  0  0  0  0  0  0  0  0  0
   -0.2580   -4.3020    1.7850 H   0  0  0  0  0  0  0  0  0  0  0  0
    0.5740   -4.7750    0.2900 H   0  0  0  0  0  0  0  0  0  0  0  0
    0.7250   -5.8550    1.7870 H   0  0  0  0  0  0  0  0  0  0  0  0
    0.4830   -2.4470    2.4500 H   0  0  0  0  0  0  0  0  0  0  0  0
    1.0810   -2.2630    0.7910 H   0  0  0  0  0  0  0  0  0  0  0  0
    3.3600   -1.7310    1.6690 H   0  0  0  0  0  0  0  0  0  0  0  0
    2.4040   -1.1500    4.2880 H   0  0  0  0  0  0  0  0  0  0  0  0
    3.8950   -1.7440    3.8040 H   0  0  0  0  0  0  0  0  0  0  0  0
    3.1490    2.4700    0.7410 C   0  0  0  0  0  0  0  0  0  0  0  0
    1.8060    2.4760    0.0270 C   0  0  1  0  0  0  0  0  0  0  0  0
    1.9990    1.9640   -1.2330 O   0  0  0  0  0  0  0  0  0  0  0  0
    0.8550    1.6580    0.8720 C   0  0  2  0  0  0  0  0  0  0  0  0
    1.4260    0.3300    0.9920 N   0  0  0  0  0  0  0  0  0  0  0  0
   -0.5140    1.6390    0.3460 C   0  0  0  0  0  0  0  0  0  0  0  0
   -1.1110    2.7360    0.1990 O   0  0  0  0  0  0  0  0  0  0  0  0
    3.4540    1.4540    1.0460 H   0  0  0  0  0  0  0  0  0  0  0  0
    3.0670    3.0850    1.6740 H   0  0  0  0  0  0  0  0  0  0  0  0
    3.9610    2.8600    0.0780 H   0  0  0  0  0  0  0  0  0  0  0  0
    1.4410    3.5230    0.0040 H   0  0  0  0  0  0  0  0  0  0  0  0
    2.8080    1.3630   -1.2590 H   0  0  0  0  0  0  0  0  0  0  0  0
    0.8750    2.1010    1.8890 H   0  0  0  0  0  0  0  0  0  0  0  0
    1.4990   -0.2600    0.1370 H   0  0  0  0  0  0  0  0  0  0  0  0
   -4.6130    1.2820   -2.5670 C   0  0  0  0  0  0  0  0  0  0  0  0
   -3.9150   -0.0390   -2.5870 C   0  0  0  0  0  0  0  0  0  0  0  0
   -2.5670   -0.0310   -1.9320 C   0  0  2  0  0  0  0  0  0  0  0  0
   -1.9770   -1.4100   -2.0200 C   0  0  0  0  0  0  0  0  0  0  0  0
   -2.5810    0.5090   -0.5320 C   0  0  2  0  0  0  0  0  0  0  0  0
   -1.2270    0.4620   -0.0160 N   0  0  0  0  0  0  0  0  0  0  0  0
   -3.5330   -0.2000    0.3540 C   0  0  0  0  0  0  0  0  0  0  0  0
   -4.7460   -0.3070    0.1430 O   0  0  0  0  0  0  0  0  0  0  0  0
   -3.0210   -0.7850    1.5050 O   0  0  0  0  0  0  0  0  0  0  0  0
   -5.5720    1.2390   -1.9770 H   0  0  0  0  0  0  0  0  0  0  0  0
   -4.9500    1.5920   -3.5990 H   0  0  0  0  0  0  0  0  0  0  0  0
   -4.0330    2.1130   -2.1740 H   0  0  0  0  0  0  0  0  0  0  0  0
   -3.7590   -0.3220   -3.6550 H   0  0  0  0  0  0  0  0  0  0  0  0
   -4.5710   -0.8600   -2.1740 H   0  0  0  0  0  0  0  0  0  0  0  0
   -1.9130    0.6410   -2.5330 H   0  0  0  0  0  0  0  0  0  0  0  0
   -0.9000   -1.3970   -2.2300 H   0  0  0  0  0  0  0  0  0  0  0  0
   -2.1170   -1.9590   -1.0640 H   0  0  0  0  0  0  0  0  0  0  0  0
   -2.4630   -2.0190   -2.8330 H   0  0  0  0  0  0  0  0  0  0  0  0
   -2.8730    1.5780   -0.5640 H   0  0  0  0  0  0  0  0  0  0  0  0
   -0.7450   -0.4590    0.1000 H   0  0  0  0  0  0  0  0  0  0  0  0
  1 10  1  0  0  0  0
  1 11  1  0  0  0  0
  1  9  1  0  0  0  0
  2  1  1  0  0  0  0
  3 13  1  0  0  0  0
  3 15  1  0  0  0  0
  3  2  1  0  0  0  0
  4  2  1  0  0  0  0
  4  5  1  0  0  0  0
  4 16  1  0  0  0  0
  5 18  1  6  0  0  0
  5  6  1  0  0  0  0
  6 20  1  0  0  0  0
  6 19  1  0  0  0  0
  7  5  1  0  0  0  0
  7  8  2  0  0  0  0
 12  2  1  0  0  0  0
 14  3  1  0  0  0  0
 17  4  1  0  0  0  0
 21 28  1  0  0  0  0
 21 29  1  0  0  0  0
 22 31  1  6  0  0  0
 22 21  1  0  0  0  0
 22 24  1  0  0  0  0
 23 22  1  0  0  0  0
 24 25  1  0  0  0  0
 24 33  1  1  0  0  0
 25  7  1  0  0  0  0
 26 24  1  0  0  0  0
 27 26  2  0  0  0  0
 30 21  1  0  0  0  0
 32 23  1  0  0  0  0
 34 25  1  0  0  0  0
 35 46  1  0  0  0  0
 35 44  1  0  0  0  0
 36 35  1  0  0  0  0
 36 48  1  0  0  0  0
 36 37  1  0  0  0  0
 37 49  1  6  0  0  0
 37 39  1  0  0  0  0
 38 37  1  0  0  0  0
 38 51  1  0  0  0  0
 39 53  1  6  0  0  0
 39 40  1  0  0  0  0
 39 41  1  0  0  0  0
 40 54  1  0  0  0  0
 40 26  1  0  0  0  0
 41 43  1  0  0  0  0
 42 41  2  0  0  0  0
 45 35  1  0  0  0  0
 47 36  1  0  0  0  0
 50 38  1  0  0  0  0
 52 38  1  0  0  0  0
M  END
$$$$
