LTM.pdb
 OpenBabel07022418473D

 52 51  0  0  1  0  0  0  0  0999 V2000
    3.3390   -3.8940    4.0020 C   0  0  0  0  0  0  0  0  0  0  0  0
    2.8800   -2.7260    3.1110 C   0  0  0  0  0  0  0  0  0  0  0  0
    2.1000   -1.7970    4.0090 C   0  0  0  0  0  0  0  0  0  0  0  0
    2.0870   -3.3280    2.0180 C   0  0  0  0  0  0  0  0  0  0  0  0
    1.5130   -2.4420    0.9910 C   0  0  2  0  0  0  0  0  0  0  0  0
    2.4240   -1.6510    0.2290 N   0  0  0  0  0  0  0  0  0  0  0  0
    0.3500   -1.6820    1.5190 C   0  0  0  0  0  0  0  0  0  0  0  0
   -0.4280   -2.1890    2.3650 O   0  0  0  0  0  0  0  0  0  0  0  0
    2.4560   -4.1830    4.6180 H   0  0  0  0  0  0  0  0  0  0  0  0
    3.5670   -4.7400    3.3200 H   0  0  0  0  0  0  0  0  0  0  0  0
    4.1590   -3.5950    4.6520 H   0  0  0  0  0  0  0  0  0  0  0  0
    3.7630   -2.2160    2.7030 H   0  0  0  0  0  0  0  0  0  0  0  0
    2.8210   -1.4570    4.8100 H   0  0  0  0  0  0  0  0  0  0  0  0
    1.8040   -0.8720    3.4780 H   0  0  0  0  0  0  0  0  0  0  0  0
    1.2790   -2.2810    4.5310 H   0  0  0  0  0  0  0  0  0  0  0  0
    1.2670   -3.9470    2.4930 H   0  0  0  0  0  0  0  0  0  0  0  0
    2.7440   -4.1240    1.5510 H   0  0  0  0  0  0  0  0  0  0  0  0
    1.0450   -3.1530    0.2120 H   0  0  0  0  0  0  0  0  0  0  0  0
    1.9070   -1.1800   -0.5240 H   0  0  0  0  0  0  0  0  0  0  0  0
    3.1320   -2.2620   -0.1860 H   0  0  0  0  0  0  0  0  0  0  0  0
    0.4350    1.5910    3.1060 C   0  0  0  0  0  0  0  0  0  0  0  0
   -0.6750    1.7020    2.0920 C   0  0  1  0  0  0  0  0  0  0  0  0
   -0.1410    2.4350    1.0160 O   0  0  0  0  0  0  0  0  0  0  0  0
   -1.0870    0.3410    1.6270 C   0  0  2  0  0  0  0  0  0  0  0  0
    0.0580   -0.3520    1.0930 N   0  0  0  0  0  0  0  0  0  0  0  0
   -2.1900    0.4110    0.6160 C   0  0  0  0  0  0  0  0  0  0  0  0
   -3.2360    1.0260    0.9470 O   0  0  0  0  0  0  0  0  0  0  0  0
    1.3960    1.3130    2.5820 H   0  0  0  0  0  0  0  0  0  0  0  0
    0.2240    0.9190    3.9380 H   0  0  0  0  0  0  0  0  0  0  0  0
    0.6320    2.6440    3.4630 H   0  0  0  0  0  0  0  0  0  0  0  0
   -1.5150    2.2620    2.5660 H   0  0  0  0  0  0  0  0  0  0  0  0
    0.7990    2.1130    0.8820 H   0  0  0  0  0  0  0  0  0  0  0  0
   -1.4760   -0.2510    2.5110 H   0  0  0  0  0  0  0  0  0  0  0  0
    0.6500    0.1310    0.4070 H   0  0  0  0  0  0  0  0  0  0  0  0
    0.5530    0.7070   -2.9780 C   0  0  0  0  0  0  0  0  0  0  0  0
   -0.6630    1.8070   -2.2060 S   0  0  0  0  0  0  0  0  0  0  0  0
   -2.2330    1.7050   -3.0910 C   0  0  0  0  0  0  0  0  0  0  0  0
   -2.8790    0.3670   -2.9670 C   0  0  0  0  0  0  0  0  0  0  0  0
   -3.2230   -0.0620   -1.5850 C   0  0  2  0  0  0  0  0  0  0  0  0
   -2.1280   -0.1640   -0.6680 N   0  0  0  0  0  0  0  0  0  0  0  0
   -3.8990   -1.4050   -1.7160 C   0  0  0  0  0  0  0  0  0  0  0  0
   -3.4310   -2.3500   -1.0470 O   0  0  0  0  0  0  0  0  0  0  0  0
   -4.9950   -1.5910   -2.5430 O   0  0  0  0  0  0  0  0  0  0  0  0
    0.2590    0.4400   -4.0340 H   0  0  0  0  0  0  0  0  0  0  0  0
    1.5180    1.2500   -3.0350 H   0  0  0  0  0  0  0  0  0  0  0  0
    0.7210   -0.2090   -2.3930 H   0  0  0  0  0  0  0  0  0  0  0  0
   -2.0940    1.9670   -4.1510 H   0  0  0  0  0  0  0  0  0  0  0  0
   -2.9450    2.4570   -2.6460 H   0  0  0  0  0  0  0  0  0  0  0  0
   -3.8510    0.4230   -3.5320 H   0  0  0  0  0  0  0  0  0  0  0  0
   -2.2970   -0.4390   -3.4890 H   0  0  0  0  0  0  0  0  0  0  0  0
   -4.0400    0.5960   -1.1690 H   0  0  0  0  0  0  0  0  0  0  0  0
   -1.2710   -0.6760   -0.9640 H   0  0  0  0  0  0  0  0  0  0  0  0
  1  9  1  0  0  0  0
  1 11  1  0  0  0  0
  2  1  1  0  0  0  0
  2  3  1  0  0  0  0
  3 15  1  0  0  0  0
  3 13  1  0  0  0  0
  4 16  1  0  0  0  0
  4  2  1  0  0  0  0
  5 18  1  6  0  0  0
  5  7  1  0  0  0  0
  5  4  1  0  0  0  0
  6  5  1  0  0  0  0
  7  8  2  0  0  0  0
 10  1  1  0  0  0  0
 12  2  1  0  0  0  0
 14  3  1  0  0  0  0
 17  4  1  0  0  0  0
 19  6  1  0  0  0  0
 20  6  1  0  0  0  0
 21 30  1  0  0  0  0
 21 29  1  0  0  0  0
 22 31  1  1  0  0  0
 22 21  1  0  0  0  0
 23 22  1  0  0  0  0
 24 22  1  0  0  0  0
 24 33  1  1  0  0  0
 25  7  1  0  0  0  0
 25 24  1  0  0  0  0
 26 27  2  0  0  0  0
 26 24  1  0  0  0  0
 28 21  1  0  0  0  0
 32 23  1  0  0  0  0
 34 25  1  0  0  0  0
 35 46  1  0  0  0  0
 35 36  1  0  0  0  0
 37 38  1  0  0  0  0
 37 48  1  0  0  0  0
 37 36  1  0  0  0  0
 38 39  1  0  0  0  0
 39 51  1  1  0  0  0
 39 40  1  0  0  0  0
 40 26  1  0  0  0  0
 41 39  1  0  0  0  0
 41 42  1  0  0  0  0
 43 41  2  0  0  0  0
 44 35  1  0  0  0  0
 45 35  1  0  0  0  0
 47 37  1  0  0  0  0
 49 38  1  0  0  0  0
 50 38  1  0  0  0  0
 52 40  1  0  0  0  0
M  END
$$$$
