LTQ.pdb
 OpenBabel07022418473D

 52 51  0  0  1  0  0  0  0  0999 V2000
    0.3310   -4.1570    2.1420 C   0  0  0  0  0  0  0  0  0  0  0  0
    1.1430   -2.9390    2.5940 C   0  0  0  0  0  0  0  0  0  0  0  0
    0.2110   -1.9550    3.2180 C   0  0  0  0  0  0  0  0  0  0  0  0
    1.8760   -2.4370    1.4010 C   0  0  0  0  0  0  0  0  0  0  0  0
    2.7360   -1.2320    1.6310 C   0  0  2  0  0  0  0  0  0  0  0  0
    3.7490   -1.4760    2.6450 N   0  0  0  0  0  0  0  0  0  0  0  0
    1.9860    0.0060    1.8120 C   0  0  0  0  0  0  0  0  0  0  0  0
    2.0540    0.7170    2.8310 O   0  0  0  0  0  0  0  0  0  0  0  0
   -0.4360   -3.8750    1.3910 H   0  0  0  0  0  0  0  0  0  0  0  0
    1.0400   -4.8770    1.6610 H   0  0  0  0  0  0  0  0  0  0  0  0
   -0.1470   -4.6390    3.0130 H   0  0  0  0  0  0  0  0  0  0  0  0
    1.8320   -3.3300    3.3910 H   0  0  0  0  0  0  0  0  0  0  0  0
   -0.6270   -2.4940    3.7370 H   0  0  0  0  0  0  0  0  0  0  0  0
    0.7550   -1.3870    4.0070 H   0  0  0  0  0  0  0  0  0  0  0  0
   -0.2040   -1.2850    2.4730 H   0  0  0  0  0  0  0  0  0  0  0  0
    2.4810   -3.2580    0.9690 H   0  0  0  0  0  0  0  0  0  0  0  0
    1.1260   -2.1650    0.6310 H   0  0  0  0  0  0  0  0  0  0  0  0
    3.3260   -1.1030    0.6720 H   0  0  0  0  0  0  0  0  0  0  0  0
    4.4640   -2.1040    2.2420 H   0  0  0  0  0  0  0  0  0  0  0  0
    3.3200   -1.8140    3.5280 H   0  0  0  0  0  0  0  0  0  0  0  0
    0.2320    3.9240   -0.1540 C   0  0  0  0  0  0  0  0  0  0  0  0
    0.9180    2.5840   -0.2060 C   0  0  1  0  0  0  0  0  0  0  0  0
    2.2590    2.7890    0.1640 O   0  0  0  0  0  0  0  0  0  0  0  0
    0.3420    1.6140    0.8100 C   0  0  2  0  0  0  0  0  0  0  0  0
    1.1200    0.4100    0.7250 N   0  0  0  0  0  0  0  0  0  0  0  0
   -1.0710    1.3340    0.5850 C   0  0  0  0  0  0  0  0  0  0  0  0
   -1.9200    2.2850    0.6610 O   0  0  0  0  0  0  0  0  0  0  0  0
   -0.6860    3.9490   -0.7800 H   0  0  0  0  0  0  0  0  0  0  0  0
   -0.0310    4.1760    0.9040 H   0  0  0  0  0  0  0  0  0  0  0  0
    0.9650    4.6890   -0.4800 H   0  0  0  0  0  0  0  0  0  0  0  0
    0.8890    2.2020   -1.2310 H   0  0  0  0  0  0  0  0  0  0  0  0
    2.8710    2.6090   -0.5910 H   0  0  0  0  0  0  0  0  0  0  0  0
    0.5150    2.0790    1.8060 H   0  0  0  0  0  0  0  0  0  0  0  0
    1.0580   -0.1680   -0.1390 H   0  0  0  0  0  0  0  0  0  0  0  0
   -0.1910   -2.3350   -2.6380 N   0  0  0  0  0  0  0  0  0  0  0  0
   -1.0930   -1.2740   -2.3620 C   0  0  0  0  0  0  0  0  0  0  0  0
   -0.6250   -0.1110   -2.2910 O   0  0  0  0  0  0  0  0  0  0  0  0
   -2.5380   -1.4790   -2.1620 C   0  0  0  0  0  0  0  0  0  0  0  0
   -3.2490   -0.4500   -1.3790 C   0  0  0  0  0  0  0  0  0  0  0  0
   -2.8840   -0.2930    0.0610 C   0  0  2  0  0  0  0  0  0  0  0  0
   -1.5210    0.0230    0.2820 N   0  0  0  0  0  0  0  0  0  0  0  0
   -3.3800   -1.4700    0.7970 C   0  0  0  0  0  0  0  0  0  0  0  0
   -4.5910   -1.7840    0.6260 O   0  0  0  0  0  0  0  0  0  0  0  0
   -2.6400   -2.2520    1.6480 O   0  0  0  0  0  0  0  0  0  0  0  0
   -0.0570   -3.0890   -1.9320 H   0  0  0  0  0  0  0  0  0  0  0  0
    0.3560   -2.4040   -3.5250 H   0  0  0  0  0  0  0  0  0  0  0  0
   -2.7340   -2.5220   -1.8100 H   0  0  0  0  0  0  0  0  0  0  0  0
   -2.9970   -1.4710   -3.1990 H   0  0  0  0  0  0  0  0  0  0  0  0
   -3.0280    0.5480   -1.8750 H   0  0  0  0  0  0  0  0  0  0  0  0
   -4.3450   -0.6450   -1.4860 H   0  0  0  0  0  0  0  0  0  0  0  0
   -3.5260    0.5840    0.4450 H   0  0  0  0  0  0  0  0  0  0  0  0
   -0.8140   -0.7350    0.2450 H   0  0  0  0  0  0  0  0  0  0  0  0
  1  2  1  0  0  0  0
  1 11  1  0  0  0  0
  2  3  1  0  0  0  0
  2 12  1  0  0  0  0
  3 13  1  0  0  0  0
  3 14  1  0  0  0  0
  4  5  1  0  0  0  0
  4  2  1  0  0  0  0
  5 18  1  6  0  0  0
  5  7  1  0  0  0  0
  5  6  1  0  0  0  0
  6 20  1  0  0  0  0
  7  8  2  0  0  0  0
  9  1  1  0  0  0  0
 10  1  1  0  0  0  0
 15  3  1  0  0  0  0
 16  4  1  0  0  0  0
 17  4  1  0  0  0  0
 19  6  1  0  0  0  0
 21 29  1  0  0  0  0
 22 31  1  6  0  0  0
 22 21  1  0  0  0  0
 22 23  1  0  0  0  0
 22 24  1  0  0  0  0
 24 33  1  1  0  0  0
 25 24  1  0  0  0  0
 25  7  1  0  0  0  0
 26 27  2  0  0  0  0
 26 24  1  0  0  0  0
 28 21  1  0  0  0  0
 30 21  1  0  0  0  0
 32 23  1  0  0  0  0
 34 25  1  0  0  0  0
 35 36  1  0  0  0  0
 35 45  1  0  0  0  0
 36 37  2  0  0  0  0
 36 38  1  0  0  0  0
 38 47  1  0  0  0  0
 38 39  1  0  0  0  0
 39 40  1  0  0  0  0
 40 41  1  0  0  0  0
 40 51  1  1  0  0  0
 40 42  1  0  0  0  0
 41 26  1  0  0  0  0
 42 44  1  0  0  0  0
 43 42  2  0  0  0  0
 46 35  1  0  0  0  0
 48 38  1  0  0  0  0
 49 39  1  0  0  0  0
 50 39  1  0  0  0  0
 52 41  1  0  0  0  0
M  END
$$$$
