LTS.pdb
 OpenBabel07022418483D

 46 45  0  0  1  0  0  0  0  0999 V2000
   -0.5950   -4.7430   -0.7050 C   0  0  0  0  0  0  0  0  0  0  0  0
    0.3730   -4.8760    0.4250 C   0  0  0  0  0  0  0  0  0  0  0  0
   -0.2940   -5.3670    1.6910 C   0  0  0  0  0  0  0  0  0  0  0  0
    1.0990   -3.5820    0.6240 C   0  0  0  0  0  0  0  0  0  0  0  0
    0.1850   -2.4200    0.9530 C   0  0  2  0  0  0  0  0  0  0  0  0
   -0.7660   -2.1780   -0.0800 N   0  0  0  0  0  0  0  0  0  0  0  0
    1.0460   -1.2510    1.2500 C   0  0  0  0  0  0  0  0  0  0  0  0
    1.9410   -1.3080    2.1320 O   0  0  0  0  0  0  0  0  0  0  0  0
   -0.2070   -4.0400   -1.4510 H   0  0  0  0  0  0  0  0  0  0  0  0
   -0.7280   -5.7480   -1.1580 H   0  0  0  0  0  0  0  0  0  0  0  0
   -1.5840   -4.3950   -0.3390 H   0  0  0  0  0  0  0  0  0  0  0  0
    1.1270   -5.6330    0.1330 H   0  0  0  0  0  0  0  0  0  0  0  0
   -0.3470   -6.4740    1.6450 H   0  0  0  0  0  0  0  0  0  0  0  0
    0.2830   -5.0910    2.5970 H   0  0  0  0  0  0  0  0  0  0  0  0
   -1.3210   -4.9580    1.7100 H   0  0  0  0  0  0  0  0  0  0  0  0
    1.8670   -3.7390    1.3940 H   0  0  0  0  0  0  0  0  0  0  0  0
    1.6190   -3.3270   -0.3240 H   0  0  0  0  0  0  0  0  0  0  0  0
   -0.3960   -2.7370    1.8660 H   0  0  0  0  0  0  0  0  0  0  0  0
   -0.4160   -1.7120   -0.9240 H   0  0  0  0  0  0  0  0  0  0  0  0
   -1.6630   -1.7750    0.2120 H   0  0  0  0  0  0  0  0  0  0  0  0
    3.6360    0.8000   -0.7660 C   0  0  0  0  0  0  0  0  0  0  0  0
    2.5020    1.7180   -0.2920 C   0  0  1  0  0  0  0  0  0  0  0  0
    1.7230    2.1520   -1.3470 O   0  0  0  0  0  0  0  0  0  0  0  0
    1.7460    1.1330    0.8440 C   0  0  2  0  0  0  0  0  0  0  0  0
    0.9490    0.0010    0.5910 N   0  0  0  0  0  0  0  0  0  0  0  0
    0.8600    2.1930    1.4010 C   0  0  0  0  0  0  0  0  0  0  0  0
    1.2870    3.3290    1.7260 O   0  0  0  0  0  0  0  0  0  0  0  0
    4.0520    1.1610   -1.7300 H   0  0  0  0  0  0  0  0  0  0  0  0
    3.1720   -0.1920   -0.9950 H   0  0  0  0  0  0  0  0  0  0  0  0
    4.4550    0.7570   -0.0510 H   0  0  0  0  0  0  0  0  0  0  0  0
    3.0250    2.6260    0.0830 H   0  0  0  0  0  0  0  0  0  0  0  0
    1.9420    1.7320   -2.2110 H   0  0  0  0  0  0  0  0  0  0  0  0
    2.4720    0.8910    1.6480 H   0  0  0  0  0  0  0  0  0  0  0  0
    0.2020    0.0690   -0.1550 H   0  0  0  0  0  0  0  0  0  0  0  0
   -3.3200    2.1330    0.9730 O   0  0  0  0  0  0  0  0  0  0  0  0
   -2.5630    3.2850    1.2030 C   0  0  0  0  0  0  0  0  0  0  0  0
   -1.4170    2.9760    2.1340 C   0  0  2  0  0  0  0  0  0  0  0  0
   -0.5310    1.9670    1.5950 N   0  0  0  0  0  0  0  0  0  0  0  0
   -2.0060    2.5090    3.4250 C   0  0  0  0  0  0  0  0  0  0  0  0
   -1.6820    1.3740    3.8560 O   0  0  0  0  0  0  0  0  0  0  0  0
   -2.8870    3.2780    4.1510 O   0  0  0  0  0  0  0  0  0  0  0  0
   -3.4530    2.0200   -0.0040 H   0  0  0  0  0  0  0  0  0  0  0  0
   -2.1780    3.7160    0.2600 H   0  0  0  0  0  0  0  0  0  0  0  0
   -3.2290    4.0010    1.7250 H   0  0  0  0  0  0  0  0  0  0  0  0
   -0.8600    3.9000    2.3580 H   0  0  0  0  0  0  0  0  0  0  0  0
   -0.9110    1.0310    1.3330 H   0  0  0  0  0  0  0  0  0  0  0  0
  1 11  1  0  0  0  0
  1  2  1  0  0  0  0
  2  4  1  0  0  0  0
  2  3  1  0  0  0  0
  3 15  1  0  0  0  0
  3 14  1  0  0  0  0
  4  5  1  0  0  0  0
  4 16  1  0  0  0  0
  5  7  1  0  0  0  0
  5 18  1  1  0  0  0
  6 20  1  0  0  0  0
  6  5  1  0  0  0  0
  7  8  2  0  0  0  0
  9  1  1  0  0  0  0
 10  1  1  0  0  0  0
 12  2  1  0  0  0  0
 13  3  1  0  0  0  0
 17  4  1  0  0  0  0
 19  6  1  0  0  0  0
 21 22  1  0  0  0  0
 21 30  1  0  0  0  0
 22 31  1  1  0  0  0
 22 24  1  0  0  0  0
 23 22  1  0  0  0  0
 24 26  1  0  0  0  0
 24 33  1  1  0  0  0
 25 24  1  0  0  0  0
 25  7  1  0  0  0  0
 26 38  1  0  0  0  0
 26 27  2  0  0  0  0
 28 21  1  0  0  0  0
 29 21  1  0  0  0  0
 32 23  1  0  0  0  0
 34 25  1  0  0  0  0
 35 36  1  0  0  0  0
 36 44  1  0  0  0  0
 36 37  1  0  0  0  0
 37 45  1  1  0  0  0
 37 39  1  0  0  0  0
 38 37  1  0  0  0  0
 39 40  2  0  0  0  0
 39 41  1  0  0  0  0
 42 35  1  0  0  0  0
 43 36  1  0  0  0  0
 46 38  1  0  0  0  0
M  END
$$$$
