LTV.pdb
 OpenBabel07022418483D

 51 50  0  0  1  0  0  0  0  0999 V2000
    2.4610   -3.2840    3.2340 C   0  0  0  0  0  0  0  0  0  0  0  0
    3.4050   -3.9670    2.2970 C   0  0  0  0  0  0  0  0  0  0  0  0
    4.7410   -3.2750    2.4100 C   0  0  0  0  0  0  0  0  0  0  0  0
    2.9300   -4.1510    0.9110 C   0  0  0  0  0  0  0  0  0  0  0  0
    2.5830   -2.9460    0.1250 C   0  0  2  0  0  0  0  0  0  0  0  0
    3.6820   -2.0310   -0.0240 N   0  0  0  0  0  0  0  0  0  0  0  0
    1.3010   -2.3320    0.4750 C   0  0  0  0  0  0  0  0  0  0  0  0
    0.3120   -3.1180    0.6450 O   0  0  0  0  0  0  0  0  0  0  0  0
    2.7210   -3.5580    4.3010 H   0  0  0  0  0  0  0  0  0  0  0  0
    2.5760   -2.1710    3.2110 H   0  0  0  0  0  0  0  0  0  0  0  0
    1.4360   -3.6320    3.0820 H   0  0  0  0  0  0  0  0  0  0  0  0
    3.5530   -5.0070    2.7230 H   0  0  0  0  0  0  0  0  0  0  0  0
    5.4350   -3.5200    1.5800 H   0  0  0  0  0  0  0  0  0  0  0  0
    5.2300   -3.6710    3.3420 H   0  0  0  0  0  0  0  0  0  0  0  0
    4.6550   -2.1850    2.5950 H   0  0  0  0  0  0  0  0  0  0  0  0
    2.0010   -4.7940    0.9540 H   0  0  0  0  0  0  0  0  0  0  0  0
    3.6370   -4.7690    0.2980 H   0  0  0  0  0  0  0  0  0  0  0  0
    2.4150   -3.3420   -0.9440 H   0  0  0  0  0  0  0  0  0  0  0  0
    3.6430   -1.2330    0.6480 H   0  0  0  0  0  0  0  0  0  0  0  0
    3.8310   -1.7450   -0.9980 H   0  0  0  0  0  0  0  0  0  0  0  0
    0.2410   -0.4940    3.4160 C   0  0  0  0  0  0  0  0  0  0  0  0
   -0.2430    0.3300    2.2460 C   0  0  1  0  0  0  0  0  0  0  0  0
    0.6090    1.4430    2.0880 O   0  0  0  0  0  0  0  0  0  0  0  0
   -0.2790   -0.4890    0.9800 C   0  0  2  0  0  0  0  0  0  0  0  0
    1.0370   -0.9570    0.6440 N   0  0  0  0  0  0  0  0  0  0  0  0
   -0.8110    0.4230   -0.1040 C   0  0  0  0  0  0  0  0  0  0  0  0
   -0.1260    0.6770   -1.1170 O   0  0  0  0  0  0  0  0  0  0  0  0
    1.2870   -0.2140    3.6860 H   0  0  0  0  0  0  0  0  0  0  0  0
    0.1360   -1.5690    3.2460 H   0  0  0  0  0  0  0  0  0  0  0  0
   -0.3740   -0.2230    4.3200 H   0  0  0  0  0  0  0  0  0  0  0  0
   -1.2540    0.7440    2.4900 H   0  0  0  0  0  0  0  0  0  0  0  0
    0.2840    1.9530    1.3130 H   0  0  0  0  0  0  0  0  0  0  0  0
   -0.9970   -1.3230    1.1510 H   0  0  0  0  0  0  0  0  0  0  0  0
    1.8390   -0.3020    0.5140 H   0  0  0  0  0  0  0  0  0  0  0  0
   -4.6080    2.0170   -2.5720 C   0  0  0  0  0  0  0  0  0  0  0  0
   -3.9220    1.2060   -1.5120 C   0  0  0  0  0  0  0  0  0  0  0  0
   -3.6100   -0.1630   -2.0220 C   0  0  0  0  0  0  0  0  0  0  0  0
   -2.6470    1.8970   -1.0180 C   0  0  2  0  0  0  0  0  0  0  0  0
   -2.0890    1.0130   -0.0050 N   0  0  0  0  0  0  0  0  0  0  0  0
   -3.0470    3.1940   -0.4700 C   0  0  0  0  0  0  0  0  0  0  0  0
   -2.8890    3.4300    0.7520 O   0  0  0  0  0  0  0  0  0  0  0  0
   -3.6010    4.1820   -1.2600 O   0  0  0  0  0  0  0  0  0  0  0  0
   -5.2940    2.7880   -2.1540 H   0  0  0  0  0  0  0  0  0  0  0  0
   -3.8990    2.4360   -3.3150 H   0  0  0  0  0  0  0  0  0  0  0  0
   -5.2640    1.3090   -3.1460 H   0  0  0  0  0  0  0  0  0  0  0  0
   -4.5890    1.1350   -0.6250 H   0  0  0  0  0  0  0  0  0  0  0  0
   -4.5250   -0.7910   -1.8920 H   0  0  0  0  0  0  0  0  0  0  0  0
   -3.3180   -0.1350   -3.1030 H   0  0  0  0  0  0  0  0  0  0  0  0
   -2.7820   -0.6460   -1.4860 H   0  0  0  0  0  0  0  0  0  0  0  0
   -1.9420    2.0430   -1.8620 H   0  0  0  0  0  0  0  0  0  0  0  0
   -2.6650    0.8040    0.8390 H   0  0  0  0  0  0  0  0  0  0  0  0
  1  9  1  0  0  0  0
  2  3  1  0  0  0  0
  2 12  1  0  0  0  0
  2  1  1  0  0  0  0
  3 15  1  0  0  0  0
  3 14  1  0  0  0  0
  4 16  1  0  0  0  0
  4  2  1  0  0  0  0
  5 18  1  6  0  0  0
  5  7  1  0  0  0  0
  5  4  1  0  0  0  0
  6  5  1  0  0  0  0
  6 19  1  0  0  0  0
  7 25  1  0  0  0  0
  7  8  2  0  0  0  0
 10  1  1  0  0  0  0
 11  1  1  0  0  0  0
 13  3  1  0  0  0  0
 17  4  1  0  0  0  0
 20  6  1  0  0  0  0
 21 28  1  0  0  0  0
 21 30  1  0  0  0  0
 22 31  1  1  0  0  0
 22 21  1  0  0  0  0
 23 22  1  0  0  0  0
 24 33  1  1  0  0  0
 24 22  1  0  0  0  0
 25 24  1  0  0  0  0
 26 39  1  0  0  0  0
 26 24  1  0  0  0  0
 27 26  2  0  0  0  0
 29 21  1  0  0  0  0
 32 23  1  0  0  0  0
 34 25  1  0  0  0  0
 35 43  1  0  0  0  0
 35 36  1  0  0  0  0
 36 38  1  0  0  0  0
 36 46  1  0  0  0  0
 37 47  1  0  0  0  0
 37 36  1  0  0  0  0
 37 49  1  0  0  0  0
 38 50  1  6  0  0  0
 38 40  1  0  0  0  0
 38 39  1  0  0  0  0
 39 51  1  0  0  0  0
 40 41  1  0  0  0  0
 42 40  2  0  0  0  0
 44 35  1  0  0  0  0
 45 35  1  0  0  0  0
 48 37  1  0  0  0  0
M  END
$$$$
