LVC.pdb
 OpenBabel07022418483D

 48 47  0  0  1  0  0  0  0  0999 V2000
    0.8330   -4.6240    2.0800 C   0  0  0  0  0  0  0  0  0  0  0  0
    1.4330   -4.1550    0.7910 C   0  0  0  0  0  0  0  0  0  0  0  0
    2.4900   -3.1260    1.0700 C   0  0  0  0  0  0  0  0  0  0  0  0
    0.4820   -3.7990   -0.2780 C   0  0  0  0  0  0  0  0  0  0  0  0
   -0.5250   -2.7400   -0.0540 C   0  0  2  0  0  0  0  0  0  0  0  0
   -1.3080   -2.6780   -1.3410 N   0  0  0  0  0  0  0  0  0  0  0  0
   -0.0350   -1.3630    0.1480 C   0  0  0  0  0  0  0  0  0  0  0  0
    0.0040   -0.5520   -0.8230 O   0  0  0  0  0  0  0  0  0  0  0  0
    0.0400   -5.3900    1.9350 H   0  0  0  0  0  0  0  0  0  0  0  0
    1.6490   -5.1690    2.6410 H   0  0  0  0  0  0  0  0  0  0  0  0
    0.5230   -3.8230    2.7750 H   0  0  0  0  0  0  0  0  0  0  0  0
    2.0390   -5.0850    0.4370 H   0  0  0  0  0  0  0  0  0  0  0  0
    3.5280   -3.5500    0.9960 H   0  0  0  0  0  0  0  0  0  0  0  0
    2.4580   -2.3280    0.3140 H   0  0  0  0  0  0  0  0  0  0  0  0
    2.4180   -2.6540    2.0680 H   0  0  0  0  0  0  0  0  0  0  0  0
    1.1000   -3.5930   -1.2140 H   0  0  0  0  0  0  0  0  0  0  0  0
   -0.0440   -4.7650   -0.5770 H   0  0  0  0  0  0  0  0  0  0  0  0
   -1.2930   -2.9850    0.6910 H   0  0  0  0  0  0  0  0  0  0  0  0
   -0.6840   -2.1750   -2.0040 H   0  0  0  0  0  0  0  0  0  0  0  0
   -2.1160   -2.0600   -1.1080 H   0  0  0  0  0  0  0  0  0  0  0  0
    2.5130    0.8060   -0.3170 C   0  0  0  0  0  0  0  0  0  0  0  0
    2.2120    0.8970    1.1310 C   0  0  0  0  0  0  0  0  0  0  0  0
    3.2590    0.1140    1.8870 C   0  0  0  0  0  0  0  0  0  0  0  0
    0.8760    0.5120    1.6070 C   0  0  2  0  0  0  0  0  0  0  0  0
    0.4150   -0.8190    1.3910 N   0  0  0  0  0  0  0  0  0  0  0  0
   -0.1880    1.5410    1.3380 C   0  0  0  0  0  0  0  0  0  0  0  0
    0.0780    2.7760    1.3750 O   0  0  0  0  0  0  0  0  0  0  0  0
    3.5230    1.3200   -0.4420 H   0  0  0  0  0  0  0  0  0  0  0  0
    1.8570    1.4330   -0.9670 H   0  0  0  0  0  0  0  0  0  0  0  0
    2.7030   -0.2080   -0.7160 H   0  0  0  0  0  0  0  0  0  0  0  0
    2.3510    1.9790    1.4180 H   0  0  0  0  0  0  0  0  0  0  0  0
    2.8570   -0.4090    2.7720 H   0  0  0  0  0  0  0  0  0  0  0  0
    3.8290   -0.5710    1.1990 H   0  0  0  0  0  0  0  0  0  0  0  0
    4.0140    0.8240    2.2650 H   0  0  0  0  0  0  0  0  0  0  0  0
    0.9540    0.5960    2.7550 H   0  0  0  0  0  0  0  0  0  0  0  0
    0.3580   -1.5350    2.1850 H   0  0  0  0  0  0  0  0  0  0  0  0
   -1.5330    1.2090    1.0330 N   0  0  0  0  0  0  0  0  0  0  0  0
   -2.5370    2.2310    0.7730 C   0  0  1  0  0  0  0  0  0  0  0  0
   -3.0430    2.0220   -0.6420 C   0  0  0  0  0  0  0  0  0  0  0  0
   -4.2980    3.2240   -1.0970 S   0  0  0  0  0  0  0  0  0  0  0  0
   -3.6900    2.1190    1.6920 C   0  0  0  0  0  0  0  0  0  0  0  0
   -3.7810    1.2540    2.5750 O   0  0  0  0  0  0  0  0  0  0  0  0
   -4.7150    3.0420    1.5400 O   0  0  0  0  0  0  0  0  0  0  0  0
   -1.8060    0.2030    1.0050 H   0  0  0  0  0  0  0  0  0  0  0  0
   -2.1360    3.2430    0.8410 H   0  0  0  0  0  0  0  0  0  0  0  0
   -3.3500    0.9800   -0.8110 H   0  0  0  0  0  0  0  0  0  0  0  0
   -2.1610    2.1940   -1.3240 H   0  0  0  0  0  0  0  0  0  0  0  0
   -5.3450    2.5860   -1.7640 H   0  0  0  0  0  0  0  0  0  0  0  0
  1 10  1  0  0  0  0
  1 11  1  0  0  0  0
  2  3  1  0  0  0  0
  2  1  1  0  0  0  0
  3 15  1  0  0  0  0
  4  5  1  0  0  0  0
  4  2  1  0  0  0  0
  5  7  1  0  0  0  0
  5 18  1  1  0  0  0
  6 20  1  0  0  0  0
  6  5  1  0  0  0  0
  7 25  1  0  0  0  0
  8  7  2  0  0  0  0
  9  1  1  0  0  0  0
 12  2  1  0  0  0  0
 13  3  1  0  0  0  0
 14  3  1  0  0  0  0
 16  4  1  0  0  0  0
 17  4  1  0  0  0  0
 19  6  1  0  0  0  0
 21 22  1  0  0  0  0
 22 31  1  0  0  0  0
 22 24  1  0  0  0  0
 22 23  1  0  0  0  0
 23 34  1  0  0  0  0
 23 32  1  0  0  0  0
 24 35  1  1  0  0  0
 25 24  1  0  0  0  0
 25 36  1  0  0  0  0
 26 27  2  0  0  0  0
 26 24  1  0  0  0  0
 28 21  1  0  0  0  0
 29 21  1  0  0  0  0
 30 21  1  0  0  0  0
 33 23  1  0  0  0  0
 37 26  1  0  0  0  0
 38 45  1  1  0  0  0
 38 37  1  0  0  0  0
 38 41  1  0  0  0  0
 39 38  1  0  0  0  0
 40 39  1  0  0  0  0
 41 42  1  0  0  0  0
 43 41  2  0  0  0  0
 44 37  1  0  0  0  0
 46 39  1  0  0  0  0
 47 39  1  0  0  0  0
 48 40  1  0  0  0  0
M  END
$$$$
