LVD.pdb
 OpenBabel07022418483D

 50 49  0  0  1  0  0  0  0  0999 V2000
    4.2470   -4.0260   -1.5700 C   0  0  0  0  0  0  0  0  0  0  0  0
    3.6240   -2.8350   -0.8080 C   0  0  0  0  0  0  0  0  0  0  0  0
    2.4760   -3.4610   -0.0390 C   0  0  0  0  0  0  0  0  0  0  0  0
    3.1940   -1.8530   -1.8420 C   0  0  0  0  0  0  0  0  0  0  0  0
    2.5670   -0.5910   -1.3550 C   0  0  2  0  0  0  0  0  0  0  0  0
    3.4790    0.1260   -0.4950 N   0  0  0  0  0  0  0  0  0  0  0  0
    1.2590   -0.8470   -0.7350 C   0  0  0  0  0  0  0  0  0  0  0  0
    0.4190   -1.6020   -1.2400 O   0  0  0  0  0  0  0  0  0  0  0  0
    5.1930   -3.7490   -2.0350 H   0  0  0  0  0  0  0  0  0  0  0  0
    3.4600   -4.3230   -2.3080 H   0  0  0  0  0  0  0  0  0  0  0  0
    4.3520   -4.8770   -0.8740 H   0  0  0  0  0  0  0  0  0  0  0  0
    4.3820   -2.4630   -0.1210 H   0  0  0  0  0  0  0  0  0  0  0  0
    2.0430   -2.7360    0.6500 H   0  0  0  0  0  0  0  0  0  0  0  0
    1.7320   -3.9310   -0.6760 H   0  0  0  0  0  0  0  0  0  0  0  0
    2.9150   -4.2960    0.5740 H   0  0  0  0  0  0  0  0  0  0  0  0
    4.0530   -1.5690   -2.5260 H   0  0  0  0  0  0  0  0  0  0  0  0
    2.4490   -2.3130   -2.5530 H   0  0  0  0  0  0  0  0  0  0  0  0
    2.4260    0.0450   -2.2900 H   0  0  0  0  0  0  0  0  0  0  0  0
    3.6760    1.0840   -0.8500 H   0  0  0  0  0  0  0  0  0  0  0  0
    4.3670   -0.4290   -0.3490 H   0  0  0  0  0  0  0  0  0  0  0  0
    0.5310    0.3800    3.3260 C   0  0  0  0  0  0  0  0  0  0  0  0
   -0.1770   -0.7380    2.5930 C   0  0  0  0  0  0  0  0  0  0  0  0
    0.3820   -2.0870    2.8470 C   0  0  0  0  0  0  0  0  0  0  0  0
   -0.3780   -0.4250    1.1360 C   0  0  2  0  0  0  0  0  0  0  0  0
    0.8930   -0.2100    0.5110 N   0  0  0  0  0  0  0  0  0  0  0  0
   -1.2690    0.7710    0.9860 C   0  0  0  0  0  0  0  0  0  0  0  0
   -0.9210    1.8180    0.3840 O   0  0  0  0  0  0  0  0  0  0  0  0
    1.6250    0.3400    3.2110 H   0  0  0  0  0  0  0  0  0  0  0  0
    0.0740    1.3280    3.0210 H   0  0  0  0  0  0  0  0  0  0  0  0
    0.3110    0.2380    4.4070 H   0  0  0  0  0  0  0  0  0  0  0  0
   -1.2180   -0.7490    3.0610 H   0  0  0  0  0  0  0  0  0  0  0  0
    0.0950   -2.7940    2.0500 H   0  0  0  0  0  0  0  0  0  0  0  0
    1.4880   -2.1230    2.9110 H   0  0  0  0  0  0  0  0  0  0  0  0
    0.0280   -2.4450    3.8580 H   0  0  0  0  0  0  0  0  0  0  0  0
   -0.9460   -1.2650    0.6870 H   0  0  0  0  0  0  0  0  0  0  0  0
    1.6390    0.4170    0.9090 H   0  0  0  0  0  0  0  0  0  0  0  0
   -2.5780    0.7540    1.5410 N   0  0  0  0  0  0  0  0  0  0  0  0
   -3.4830    1.8710    1.4310 C   0  0  1  0  0  0  0  0  0  0  0  0
   -4.8010    1.4530    0.7850 C   0  0  0  0  0  0  0  0  0  0  0  0
   -4.5820    0.9150   -0.5780 C   0  0  0  0  0  0  0  0  0  0  0  0
   -3.4460    0.8250   -1.1100 O   0  0  0  0  0  0  0  0  0  0  0  0
   -3.8060    2.3440    2.7980 C   0  0  0  0  0  0  0  0  0  0  0  0
   -4.5860    3.3220    2.9940 O   0  0  0  0  0  0  0  0  0  0  0  0
   -5.7130    0.4970   -1.2740 O   0  0  0  0  0  0  0  0  0  0  0  0
   -3.2500    1.7110    3.8880 O   0  0  0  0  0  0  0  0  0  0  0  0
   -2.9170   -0.1000    2.0550 H   0  0  0  0  0  0  0  0  0  0  0  0
   -3.0420    2.7160    0.8630 H   0  0  0  0  0  0  0  0  0  0  0  0
   -5.4630    2.3310    0.7580 H   0  0  0  0  0  0  0  0  0  0  0  0
   -5.2640    0.6640    1.3900 H   0  0  0  0  0  0  0  0  0  0  0  0
   -5.6570   -0.0610   -2.1080 H   0  0  0  0  0  0  0  0  0  0  0  0
  1 11  1  0  0  0  0
  1  2  1  0  0  0  0
  2 12  1  0  0  0  0
  2  3  1  0  0  0  0
  3 15  1  0  0  0  0
  3 13  1  0  0  0  0
  4  5  1  0  0  0  0
  4  2  1  0  0  0  0
  5 18  1  6  0  0  0
  5  7  1  0  0  0  0
  5  6  1  0  0  0  0
  6 20  1  0  0  0  0
  7 25  1  0  0  0  0
  8  7  2  0  0  0  0
  9  1  1  0  0  0  0
 10  1  1  0  0  0  0
 14  3  1  0  0  0  0
 16  4  1  0  0  0  0
 17  4  1  0  0  0  0
 19  6  1  0  0  0  0
 21 30  1  0  0  0  0
 22 23  1  0  0  0  0
 22 31  1  0  0  0  0
 22 21  1  0  0  0  0
 23 33  1  0  0  0  0
 23 34  1  0  0  0  0
 24 35  1  6  0  0  0
 24 22  1  0  0  0  0
 25 36  1  0  0  0  0
 25 24  1  0  0  0  0
 26 24  1  0  0  0  0
 26 37  1  0  0  0  0
 27 26  2  0  0  0  0
 28 21  1  0  0  0  0
 29 21  1  0  0  0  0
 32 23  1  0  0  0  0
 37 46  1  0  0  0  0
 38 47  1  6  0  0  0
 38 37  1  0  0  0  0
 38 42  1  0  0  0  0
 39 49  1  0  0  0  0
 39 38  1  0  0  0  0
 40 39  1  0  0  0  0
 41 40  2  0  0  0  0
 42 43  2  0  0  0  0
 42 45  1  0  0  0  0
 44 40  1  0  0  0  0
 48 39  1  0  0  0  0
 50 44  1  0  0  0  0
M  END
$$$$
