LVG.pdb
 OpenBabel07022418483D

 44 43  0  0  1  0  0  0  0  0999 V2000
    0.0550   -2.2990    2.4280 C   0  0  0  0  0  0  0  0  0  0  0  0
    0.4950   -3.5190    1.6700 C   0  0  0  0  0  0  0  0  0  0  0  0
   -0.6180   -3.9870    0.7480 C   0  0  0  0  0  0  0  0  0  0  0  0
    1.8090   -3.4360    1.0100 C   0  0  0  0  0  0  0  0  0  0  0  0
    2.0350   -2.4120   -0.0430 C   0  0  2  0  0  0  0  0  0  0  0  0
    3.4670   -2.6470   -0.4350 N   0  0  0  0  0  0  0  0  0  0  0  0
    1.9160   -1.0370    0.4600 C   0  0  0  0  0  0  0  0  0  0  0  0
    2.9060   -0.5250    1.0820 O   0  0  0  0  0  0  0  0  0  0  0  0
    0.9420   -1.6620    2.6510 H   0  0  0  0  0  0  0  0  0  0  0  0
   -0.2840   -2.6320    3.4580 H   0  0  0  0  0  0  0  0  0  0  0  0
   -0.7940   -1.7860    1.9870 H   0  0  0  0  0  0  0  0  0  0  0  0
    0.5760   -4.3600    2.4270 H   0  0  0  0  0  0  0  0  0  0  0  0
   -1.4750   -4.2620    1.4240 H   0  0  0  0  0  0  0  0  0  0  0  0
   -0.9960   -3.1830    0.0970 H   0  0  0  0  0  0  0  0  0  0  0  0
   -0.3070   -4.8970    0.2340 H   0  0  0  0  0  0  0  0  0  0  0  0
    2.5750   -3.2900    1.8310 H   0  0  0  0  0  0  0  0  0  0  0  0
    2.0580   -4.4810    0.6460 H   0  0  0  0  0  0  0  0  0  0  0  0
    1.4820   -2.5970   -0.9780 H   0  0  0  0  0  0  0  0  0  0  0  0
    3.6470   -2.1500   -1.3350 H   0  0  0  0  0  0  0  0  0  0  0  0
    3.4640   -3.6810   -0.6830 H   0  0  0  0  0  0  0  0  0  0  0  0
    2.4700    1.7980   -0.8840 C   0  0  0  0  0  0  0  0  0  0  0  0
    1.1300    2.1310   -0.3000 C   0  0  0  0  0  0  0  0  0  0  0  0
    1.2130    3.5020    0.3320 C   0  0  0  0  0  0  0  0  0  0  0  0
    0.7940    1.1490    0.8580 C   0  0  2  0  0  0  0  0  0  0  0  0
    0.7770   -0.1890    0.3140 N   0  0  0  0  0  0  0  0  0  0  0  0
   -0.5060    1.5600    1.3420 C   0  0  0  0  0  0  0  0  0  0  0  0
   -0.6260    2.6630    1.9590 O   0  0  0  0  0  0  0  0  0  0  0  0
    2.5300    0.7830   -1.3100 H   0  0  0  0  0  0  0  0  0  0  0  0
    2.6820    2.5350   -1.6710 H   0  0  0  0  0  0  0  0  0  0  0  0
    3.2640    1.9260   -0.1120 H   0  0  0  0  0  0  0  0  0  0  0  0
    0.3440    2.1250   -1.0580 H   0  0  0  0  0  0  0  0  0  0  0  0
    1.5090    3.4350    1.4020 H   0  0  0  0  0  0  0  0  0  0  0  0
    0.2420    4.0470    0.2870 H   0  0  0  0  0  0  0  0  0  0  0  0
    2.0240    4.0710   -0.1830 H   0  0  0  0  0  0  0  0  0  0  0  0
    1.6480    1.2670    1.5690 H   0  0  0  0  0  0  0  0  0  0  0  0
   -0.0210   -0.5930   -0.1990 H   0  0  0  0  0  0  0  0  0  0  0  0
   -1.6740    0.7980    1.1670 N   0  0  0  0  0  0  0  0  0  0  0  0
   -2.9710    1.2560    1.6810 C   0  0  0  0  0  0  0  0  0  0  0  0
   -4.0200    0.2620    1.3560 C   0  0  0  0  0  0  0  0  0  0  0  0
   -3.7610   -0.8040    0.7250 O   0  0  0  0  0  0  0  0  0  0  0  0
   -5.3320    0.4680    1.7360 O   0  0  0  0  0  0  0  0  0  0  0  0
   -1.7030   -0.1090    0.6670 H   0  0  0  0  0  0  0  0  0  0  0  0
   -2.8970    1.3980    2.7710 H   0  0  0  0  0  0  0  0  0  0  0  0
   -3.1870    2.1990    1.1360 H   0  0  0  0  0  0  0  0  0  0  0  0
  1  9  1  0  0  0  0
  1 10  1  0  0  0  0
  2 12  1  0  0  0  0
  2  1  1  0  0  0  0
  3 13  1  0  0  0  0
  3  2  1  0  0  0  0
  4  2  1  0  0  0  0
  4 16  1  0  0  0  0
  5 18  1  6  0  0  0
  5  7  1  0  0  0  0
  5  4  1  0  0  0  0
  6  5  1  0  0  0  0
  7  8  2  0  0  0  0
 11  1  1  0  0  0  0
 14  3  1  0  0  0  0
 15  3  1  0  0  0  0
 17  4  1  0  0  0  0
 19  6  1  0  0  0  0
 20  6  1  0  0  0  0
 21 22  1  0  0  0  0
 21 30  1  0  0  0  0
 22 23  1  0  0  0  0
 22 24  1  0  0  0  0
 23 32  1  0  0  0  0
 24 26  1  0  0  0  0
 24 35  1  1  0  0  0
 25  7  1  0  0  0  0
 25 24  1  0  0  0  0
 26 27  2  0  0  0  0
 28 21  1  0  0  0  0
 29 21  1  0  0  0  0
 31 22  1  0  0  0  0
 33 23  1  0  0  0  0
 34 23  1  0  0  0  0
 36 25  1  0  0  0  0
 37 26  1  0  0  0  0
 37 38  1  0  0  0  0
 38 43  1  0  0  0  0
 39 38  1  0  0  0  0
 39 41  1  0  0  0  0
 40 39  2  0  0  0  0
 42 37  1  0  0  0  0
 44 38  1  0  0  0  0
M  END
$$$$
