LVI.pdb
 OpenBabel07022418483D

 56 55  0  0  1  0  0  0  0  0999 V2000
    1.4050   -5.0430    0.6140 C   0  0  0  0  0  0  0  0  0  0  0  0
    1.9860   -3.8370    1.3730 C   0  0  0  0  0  0  0  0  0  0  0  0
    0.8630   -3.2800    2.1860 C   0  0  0  0  0  0  0  0  0  0  0  0
    2.6400   -2.9020    0.4080 C   0  0  0  0  0  0  0  0  0  0  0  0
    3.2620   -1.6810    1.0090 C   0  0  2  0  0  0  0  0  0  0  0  0
    4.2460   -2.1440    1.9790 N   0  0  0  0  0  0  0  0  0  0  0  0
    2.3000   -0.7800    1.6570 C   0  0  0  0  0  0  0  0  0  0  0  0
    2.2400   -0.6010    2.9190 O   0  0  0  0  0  0  0  0  0  0  0  0
    1.0790   -5.7810    1.3660 H   0  0  0  0  0  0  0  0  0  0  0  0
    0.4920   -4.7060    0.0800 H   0  0  0  0  0  0  0  0  0  0  0  0
    2.1740   -5.4620   -0.0500 H   0  0  0  0  0  0  0  0  0  0  0  0
    2.7830   -4.2690    2.0220 H   0  0  0  0  0  0  0  0  0  0  0  0
    0.3970   -2.3720    1.8280 H   0  0  0  0  0  0  0  0  0  0  0  0
    1.2570   -3.1010    3.2320 H   0  0  0  0  0  0  0  0  0  0  0  0
    0.0300   -4.0380    2.3160 H   0  0  0  0  0  0  0  0  0  0  0  0
    1.8810   -2.6420   -0.3790 H   0  0  0  0  0  0  0  0  0  0  0  0
    3.4790   -3.4510   -0.1220 H   0  0  0  0  0  0  0  0  0  0  0  0
    3.7980   -1.1520    0.1630 H   0  0  0  0  0  0  0  0  0  0  0  0
    4.7860   -1.3030    2.2810 H   0  0  0  0  0  0  0  0  0  0  0  0
    4.8840   -2.8220    1.5370 H   0  0  0  0  0  0  0  0  0  0  0  0
   -0.4180    3.1410    1.8660 C   0  0  0  0  0  0  0  0  0  0  0  0
    0.5920    2.2990    1.1150 C   0  0  0  0  0  0  0  0  0  0  0  0
    1.9670    2.8240    1.4660 C   0  0  0  0  0  0  0  0  0  0  0  0
    0.4260    0.8510    1.5460 C   0  0  2  0  0  0  0  0  0  0  0  0
    1.3460   -0.0210    0.8820 N   0  0  0  0  0  0  0  0  0  0  0  0
   -0.9560    0.4740    1.1640 C   0  0  0  0  0  0  0  0  0  0  0  0
   -1.9630    1.0800    1.6180 O   0  0  0  0  0  0  0  0  0  0  0  0
   -0.6360    2.6470    2.8370 H   0  0  0  0  0  0  0  0  0  0  0  0
   -1.3310    3.3260    1.2650 H   0  0  0  0  0  0  0  0  0  0  0  0
    0.0230    4.1440    2.1320 H   0  0  0  0  0  0  0  0  0  0  0  0
    0.3980    2.3420    0.0270 H   0  0  0  0  0  0  0  0  0  0  0  0
    2.3590    2.4170    2.3970 H   0  0  0  0  0  0  0  0  0  0  0  0
    2.6240    2.6020    0.5770 H   0  0  0  0  0  0  0  0  0  0  0  0
    1.9570    3.9300    1.5620 H   0  0  0  0  0  0  0  0  0  0  0  0
    0.4920    0.8030    2.6480 H   0  0  0  0  0  0  0  0  0  0  0  0
    1.3920   -0.1640   -0.1450 H   0  0  0  0  0  0  0  0  0  0  0  0
   -2.5340    1.0600   -3.3820 C   0  0  0  0  0  0  0  0  0  0  0  0
   -2.4130    0.7720   -1.9090 C   0  0  0  0  0  0  0  0  0  0  0  0
   -2.7100   -0.6830   -1.6080 C   0  0  2  0  0  0  0  0  0  0  0  0
   -4.1180   -1.0120   -2.0480 C   0  0  0  0  0  0  0  0  0  0  0  0
   -2.6040   -0.9380   -0.0980 C   0  0  2  0  0  0  0  0  0  0  0  0
   -1.2410   -0.5970    0.2570 N   0  0  0  0  0  0  0  0  0  0  0  0
   -2.8360   -2.3840    0.0880 C   0  0  0  0  0  0  0  0  0  0  0  0
   -1.8960   -3.0990    0.4980 O   0  0  0  0  0  0  0  0  0  0  0  0
   -4.0600   -2.9900   -0.1750 O   0  0  0  0  0  0  0  0  0  0  0  0
   -3.2800    1.8640   -3.5830 H   0  0  0  0  0  0  0  0  0  0  0  0
   -1.5690    1.4390   -3.7980 H   0  0  0  0  0  0  0  0  0  0  0  0
   -2.8560    0.1710   -3.9630 H   0  0  0  0  0  0  0  0  0  0  0  0
   -3.1280    1.4310   -1.3760 H   0  0  0  0  0  0  0  0  0  0  0  0
   -1.3990    1.0260   -1.5400 H   0  0  0  0  0  0  0  0  0  0  0  0
   -1.9870   -1.3230   -2.1350 H   0  0  0  0  0  0  0  0  0  0  0  0
   -4.4680   -0.2210   -2.7580 H   0  0  0  0  0  0  0  0  0  0  0  0
   -4.8310   -1.0270   -1.1840 H   0  0  0  0  0  0  0  0  0  0  0  0
   -4.1780   -2.0310   -2.5120 H   0  0  0  0  0  0  0  0  0  0  0  0
   -3.3410   -0.2940    0.4170 H   0  0  0  0  0  0  0  0  0  0  0  0
   -0.4600   -1.1360   -0.1500 H   0  0  0  0  0  0  0  0  0  0  0  0
  1  9  1  0  0  0  0
  1  2  1  0  0  0  0
  2 12  1  0  0  0  0
  2  3  1  0  0  0  0
  3 15  1  0  0  0  0
  3 14  1  0  0  0  0
  4  5  1  0  0  0  0
  4  2  1  0  0  0  0
  5 18  1  6  0  0  0
  5  7  1  0  0  0  0
  5  6  1  0  0  0  0
  6 19  1  0  0  0  0
  7  8  2  0  0  0  0
 10  1  1  0  0  0  0
 11  1  1  0  0  0  0
 13  3  1  0  0  0  0
 16  4  1  0  0  0  0
 17  4  1  0  0  0  0
 20  6  1  0  0  0  0
 21 30  1  0  0  0  0
 21 28  1  0  0  0  0
 22 23  1  0  0  0  0
 22 24  1  0  0  0  0
 22 21  1  0  0  0  0
 23 34  1  0  0  0  0
 23 32  1  0  0  0  0
 24 35  1  1  0  0  0
 25 24  1  0  0  0  0
 25  7  1  0  0  0  0
 26 24  1  0  0  0  0
 26 27  2  0  0  0  0
 29 21  1  0  0  0  0
 31 22  1  0  0  0  0
 33 23  1  0  0  0  0
 36 25  1  0  0  0  0
 37 38  1  0  0  0  0
 38 39  1  0  0  0  0
 38 50  1  0  0  0  0
 38 49  1  0  0  0  0
 39 51  1  6  0  0  0
 39 41  1  0  0  0  0
 40 39  1  0  0  0  0
 40 53  1  0  0  0  0
 41 43  1  0  0  0  0
 41 42  1  0  0  0  0
 41 55  1  1  0  0  0
 42 26  1  0  0  0  0
 43 44  1  0  0  0  0
 45 43  2  0  0  0  0
 46 37  1  0  0  0  0
 47 37  1  0  0  0  0
 48 37  1  0  0  0  0
 52 40  1  0  0  0  0
 54 40  1  0  0  0  0
 56 42  1  0  0  0  0
M  END
$$$$
