LVL.pdb
 OpenBabel07022418483D

 56 55  0  0  1  0  0  0  0  0999 V2000
    2.5090   -3.8770   -0.2940 C   0  0  0  0  0  0  0  0  0  0  0  0
    2.7950   -3.0190    0.9560 C   0  0  0  0  0  0  0  0  0  0  0  0
    1.5670   -3.1050    1.8110 C   0  0  0  0  0  0  0  0  0  0  0  0
    3.1560   -1.6690    0.4520 C   0  0  0  0  0  0  0  0  0  0  0  0
    3.4920   -0.6390    1.4950 C   0  0  2  0  0  0  0  0  0  0  0  0
    4.5950   -1.0970    2.2960 N   0  0  0  0  0  0  0  0  0  0  0  0
    2.2840   -0.2670    2.2520 C   0  0  0  0  0  0  0  0  0  0  0  0
    2.1330   -0.4550    3.5010 O   0  0  0  0  0  0  0  0  0  0  0  0
    2.1810   -4.8870    0.0370 H   0  0  0  0  0  0  0  0  0  0  0  0
    1.6410   -3.4180   -0.8100 H   0  0  0  0  0  0  0  0  0  0  0  0
    3.3990   -3.9020   -0.9500 H   0  0  0  0  0  0  0  0  0  0  0  0
    3.6580   -3.5290    1.4430 H   0  0  0  0  0  0  0  0  0  0  0  0
    1.8040   -3.0830    2.9140 H   0  0  0  0  0  0  0  0  0  0  0  0
    1.0700   -4.1240    1.7030 H   0  0  0  0  0  0  0  0  0  0  0  0
    0.8480   -2.3530    1.5110 H   0  0  0  0  0  0  0  0  0  0  0  0
    2.3200   -1.3150   -0.1940 H   0  0  0  0  0  0  0  0  0  0  0  0
    4.0380   -1.7110   -0.2500 H   0  0  0  0  0  0  0  0  0  0  0  0
    3.7910    0.2790    0.9140 H   0  0  0  0  0  0  0  0  0  0  0  0
    4.2030   -1.7720    2.9990 H   0  0  0  0  0  0  0  0  0  0  0  0
    5.2520   -1.6100    1.6720 H   0  0  0  0  0  0  0  0  0  0  0  0
   -0.4070    2.7840    0.9500 C   0  0  0  0  0  0  0  0  0  0  0  0
   -0.2570    2.2340    2.3270 C   0  0  0  0  0  0  0  0  0  0  0  0
    0.7900    2.9820    3.0770 C   0  0  0  0  0  0  0  0  0  0  0  0
   -0.0320    0.7310    2.3350 C   0  0  2  0  0  0  0  0  0  0  0  0
    1.1520    0.3590    1.6180 N   0  0  0  0  0  0  0  0  0  0  0  0
   -1.2030    0.1560    1.6290 C   0  0  0  0  0  0  0  0  0  0  0  0
   -2.3380    0.3750    2.1260 O   0  0  0  0  0  0  0  0  0  0  0  0
    0.0380    3.7980    0.9270 H   0  0  0  0  0  0  0  0  0  0  0  0
   -1.4770    2.9190    0.6620 H   0  0  0  0  0  0  0  0  0  0  0  0
    0.1320    2.1830    0.1710 H   0  0  0  0  0  0  0  0  0  0  0  0
   -1.2360    2.3940    2.8640 H   0  0  0  0  0  0  0  0  0  0  0  0
    0.3200    3.9150    3.4770 H   0  0  0  0  0  0  0  0  0  0  0  0
    1.1790    2.4350    3.9640 H   0  0  0  0  0  0  0  0  0  0  0  0
    1.6060    3.3250    2.4030 H   0  0  0  0  0  0  0  0  0  0  0  0
   -0.0240    0.4430    3.3930 H   0  0  0  0  0  0  0  0  0  0  0  0
    1.2450    0.5270    0.5940 H   0  0  0  0  0  0  0  0  0  0  0  0
   -3.7730    0.0480   -3.5780 C   0  0  0  0  0  0  0  0  0  0  0  0
   -3.7210   -0.8900   -2.3250 C   0  0  0  0  0  0  0  0  0  0  0  0
   -3.5950   -2.3140   -2.9070 C   0  0  0  0  0  0  0  0  0  0  0  0
   -2.5690   -0.4850   -1.4890 C   0  0  0  0  0  0  0  0  0  0  0  0
   -2.3880   -1.1560   -0.2010 C   0  0  2  0  0  0  0  0  0  0  0  0
   -1.1510   -0.6140    0.4490 N   0  0  0  0  0  0  0  0  0  0  0  0
   -2.3430   -2.6040   -0.2110 C   0  0  0  0  0  0  0  0  0  0  0  0
   -1.2210   -3.2020   -0.0710 O   0  0  0  0  0  0  0  0  0  0  0  0
   -3.4600   -3.3730   -0.3540 O   0  0  0  0  0  0  0  0  0  0  0  0
   -4.7750   -0.0110   -4.0290 H   0  0  0  0  0  0  0  0  0  0  0  0
   -3.5250    1.0680   -3.2580 H   0  0  0  0  0  0  0  0  0  0  0  0
   -3.0180   -0.3730   -4.2630 H   0  0  0  0  0  0  0  0  0  0  0  0
   -4.6860   -0.8170   -1.8450 H   0  0  0  0  0  0  0  0  0  0  0  0
   -2.6350   -2.7710   -2.7150 H   0  0  0  0  0  0  0  0  0  0  0  0
   -4.4520   -2.9470   -2.6800 H   0  0  0  0  0  0  0  0  0  0  0  0
   -3.6830   -2.1830   -4.0480 H   0  0  0  0  0  0  0  0  0  0  0  0
   -2.6490    0.6440   -1.3820 H   0  0  0  0  0  0  0  0  0  0  0  0
   -1.6530   -0.6370   -2.1780 H   0  0  0  0  0  0  0  0  0  0  0  0
   -3.2150   -0.7960    0.4830 H   0  0  0  0  0  0  0  0  0  0  0  0
   -0.2210   -0.8050    0.0260 H   0  0  0  0  0  0  0  0  0  0  0  0
  1  9  1  0  0  0  0
  1  2  1  0  0  0  0
  2 12  1  0  0  0  0
  2  3  1  0  0  0  0
  3 13  1  0  0  0  0
  4  2  1  0  0  0  0
  4  5  1  0  0  0  0
  5 18  1  6  0  0  0
  5  7  1  0  0  0  0
  5  6  1  0  0  0  0
  6 19  1  0  0  0  0
  7  8  2  0  0  0  0
 10  1  1  0  0  0  0
 11  1  1  0  0  0  0
 14  3  1  0  0  0  0
 15  3  1  0  0  0  0
 16  4  1  0  0  0  0
 17  4  1  0  0  0  0
 20  6  1  0  0  0  0
 21 22  1  0  0  0  0
 22 24  1  0  0  0  0
 22 31  1  0  0  0  0
 22 23  1  0  0  0  0
 23 32  1  0  0  0  0
 23 33  1  0  0  0  0
 24 35  1  1  0  0  0
 25  7  1  0  0  0  0
 25 24  1  0  0  0  0
 26 27  2  0  0  0  0
 26 24  1  0  0  0  0
 28 21  1  0  0  0  0
 29 21  1  0  0  0  0
 30 21  1  0  0  0  0
 34 23  1  0  0  0  0
 36 25  1  0  0  0  0
 37 47  1  0  0  0  0
 37 38  1  0  0  0  0
 38 49  1  0  0  0  0
 38 40  1  0  0  0  0
 39 50  1  0  0  0  0
 39 51  1  0  0  0  0
 39 38  1  0  0  0  0
 40 53  1  0  0  0  0
 40 41  1  0  0  0  0
 41 42  1  0  0  0  0
 41 55  1  1  0  0  0
 42 26  1  0  0  0  0
 43 41  1  0  0  0  0
 43 44  1  0  0  0  0
 45 43  2  0  0  0  0
 46 37  1  0  0  0  0
 48 37  1  0  0  0  0
 52 39  1  0  0  0  0
 54 40  1  0  0  0  0
 56 42  1  0  0  0  0
M  END
$$$$
