LVS.pdb
 OpenBabel07022418483D

 48 47  0  0  1  0  0  0  0  0999 V2000
    0.8550   -4.8920   -0.7380 C   0  0  0  0  0  0  0  0  0  0  0  0
    1.7750   -4.6890    0.4260 C   0  0  0  0  0  0  0  0  0  0  0  0
    1.3300   -5.5280    1.6010 C   0  0  0  0  0  0  0  0  0  0  0  0
    2.0170   -3.2630    0.7880 C   0  0  0  0  0  0  0  0  0  0  0  0
    0.7750   -2.4990    1.1690 C   0  0  2  0  0  0  0  0  0  0  0  0
   -0.1260   -2.5210    0.0350 N   0  0  0  0  0  0  0  0  0  0  0  0
    1.1530   -1.1190    1.5280 C   0  0  0  0  0  0  0  0  0  0  0  0
    1.9400   -0.8370    2.4680 O   0  0  0  0  0  0  0  0  0  0  0  0
    0.9790   -5.9360   -1.1460 H   0  0  0  0  0  0  0  0  0  0  0  0
   -0.2100   -4.8540   -0.3970 H   0  0  0  0  0  0  0  0  0  0  0  0
    1.0350   -4.2070   -1.5720 H   0  0  0  0  0  0  0  0  0  0  0  0
    2.7740   -5.1100    0.1170 H   0  0  0  0  0  0  0  0  0  0  0  0
    1.0130   -6.5170    1.1710 H   0  0  0  0  0  0  0  0  0  0  0  0
    2.2100   -5.7120    2.2280 H   0  0  0  0  0  0  0  0  0  0  0  0
    0.4900   -5.0370    2.1050 H   0  0  0  0  0  0  0  0  0  0  0  0
    2.7530   -3.1980    1.6100 H   0  0  0  0  0  0  0  0  0  0  0  0
    2.4110   -2.7610   -0.1400 H   0  0  0  0  0  0  0  0  0  0  0  0
    0.2320   -3.0170    1.9920 H   0  0  0  0  0  0  0  0  0  0  0  0
    0.2930   -2.0710   -0.7960 H   0  0  0  0  0  0  0  0  0  0  0  0
   -1.0390   -2.0740    0.2650 H   0  0  0  0  0  0  0  0  0  0  0  0
    0.7950    2.0630   -1.3370 C   0  0  0  0  0  0  0  0  0  0  0  0
    1.6040    2.0190   -0.0870 C   0  0  0  0  0  0  0  0  0  0  0  0
    2.9770    1.3810   -0.3010 C   0  0  0  0  0  0  0  0  0  0  0  0
    0.9210    1.3230    1.0610 C   0  0  2  0  0  0  0  0  0  0  0  0
    0.5970   -0.0540    0.7690 N   0  0  0  0  0  0  0  0  0  0  0  0
   -0.3440    2.0360    1.3910 C   0  0  0  0  0  0  0  0  0  0  0  0
   -0.3590    3.2570    1.6870 O   0  0  0  0  0  0  0  0  0  0  0  0
    1.1550    2.9490   -1.9330 H   0  0  0  0  0  0  0  0  0  0  0  0
   -0.2470    2.2810   -1.0790 H   0  0  0  0  0  0  0  0  0  0  0  0
    0.9240    1.1890   -1.9960 H   0  0  0  0  0  0  0  0  0  0  0  0
    1.7990    3.0620    0.2390 H   0  0  0  0  0  0  0  0  0  0  0  0
    2.9150    0.3170   -0.5300 H   0  0  0  0  0  0  0  0  0  0  0  0
    3.5240    1.8820   -1.1230 H   0  0  0  0  0  0  0  0  0  0  0  0
    3.5730    1.5940    0.6330 H   0  0  0  0  0  0  0  0  0  0  0  0
    1.6220    1.3400    1.9160 H   0  0  0  0  0  0  0  0  0  0  0  0
   -0.0650   -0.2280   -0.0240 H   0  0  0  0  0  0  0  0  0  0  0  0
   -4.2030    0.7550    0.1830 O   0  0  0  0  0  0  0  0  0  0  0  0
   -3.8430    2.0260    0.5880 C   0  0  0  0  0  0  0  0  0  0  0  0
   -2.8350    2.0200    1.6980 C   0  0  2  0  0  0  0  0  0  0  0  0
   -1.6060    1.3810    1.3900 N   0  0  0  0  0  0  0  0  0  0  0  0
   -3.4630    1.4670    2.9170 C   0  0  0  0  0  0  0  0  0  0  0  0
   -4.5570    1.9240    3.3260 O   0  0  0  0  0  0  0  0  0  0  0  0
   -2.8790    0.4420    3.6420 O   0  0  0  0  0  0  0  0  0  0  0  0
   -4.2370    0.6330   -0.7840 H   0  0  0  0  0  0  0  0  0  0  0  0
   -4.7660    2.5060    0.9990 H   0  0  0  0  0  0  0  0  0  0  0  0
   -3.5150    2.6730   -0.2470 H   0  0  0  0  0  0  0  0  0  0  0  0
   -2.6070    3.0980    1.9290 H   0  0  0  0  0  0  0  0  0  0  0  0
   -1.6290    0.3650    1.1480 H   0  0  0  0  0  0  0  0  0  0  0  0
  1 10  1  0  0  0  0
  1  2  1  0  0  0  0
  2  4  1  0  0  0  0
  2  3  1  0  0  0  0
  3 15  1  0  0  0  0
  3 14  1  0  0  0  0
  4  5  1  0  0  0  0
  4 16  1  0  0  0  0
  5  7  1  0  0  0  0
  5 18  1  1  0  0  0
  6 20  1  0  0  0  0
  6  5  1  0  0  0  0
  7  8  2  0  0  0  0
  9  1  1  0  0  0  0
 11  1  1  0  0  0  0
 12  2  1  0  0  0  0
 13  3  1  0  0  0  0
 17  4  1  0  0  0  0
 19  6  1  0  0  0  0
 21 29  1  0  0  0  0
 21 22  1  0  0  0  0
 22 31  1  0  0  0  0
 22 24  1  0  0  0  0
 23 22  1  0  0  0  0
 23 34  1  0  0  0  0
 24 26  1  0  0  0  0
 24 35  1  1  0  0  0
 25 24  1  0  0  0  0
 25  7  1  0  0  0  0
 26 27  2  0  0  0  0
 28 21  1  0  0  0  0
 30 21  1  0  0  0  0
 32 23  1  0  0  0  0
 33 23  1  0  0  0  0
 36 25  1  0  0  0  0
 37 38  1  0  0  0  0
 38 45  1  0  0  0  0
 38 39  1  0  0  0  0
 39 47  1  1  0  0  0
 39 41  1  0  0  0  0
 40 26  1  0  0  0  0
 40 39  1  0  0  0  0
 41 42  2  0  0  0  0
 41 43  1  0  0  0  0
 44 37  1  0  0  0  0
 46 38  1  0  0  0  0
 48 40  1  0  0  0  0
M  END
$$$$
