LVT.pdb
 OpenBabel07022418483D

 51 50  0  0  1  0  0  0  0  0999 V2000
    1.3830   -3.7490   -1.1040 C   0  0  0  0  0  0  0  0  0  0  0  0
    2.2120   -4.1130    0.1040 C   0  0  0  0  0  0  0  0  0  0  0  0
    1.7430   -5.3940    0.7250 C   0  0  0  0  0  0  0  0  0  0  0  0
    2.4010   -2.9750    1.0000 C   0  0  0  0  0  0  0  0  0  0  0  0
    1.2890   -2.2770    1.6340 C   0  0  2  0  0  0  0  0  0  0  0  0
    0.4560   -3.1180    2.4870 N   0  0  0  0  0  0  0  0  0  0  0  0
    0.4890   -1.3230    0.8470 C   0  0  0  0  0  0  0  0  0  0  0  0
   -0.7800   -1.2790    0.9150 O   0  0  0  0  0  0  0  0  0  0  0  0
    1.6210   -4.4160   -1.9850 H   0  0  0  0  0  0  0  0  0  0  0  0
    0.2910   -3.9670   -0.9160 H   0  0  0  0  0  0  0  0  0  0  0  0
    1.5720   -2.7310   -1.4630 H   0  0  0  0  0  0  0  0  0  0  0  0
    3.2360   -4.3620   -0.3180 H   0  0  0  0  0  0  0  0  0  0  0  0
    2.5860   -6.0600    1.0420 H   0  0  0  0  0  0  0  0  0  0  0  0
    1.1860   -5.9630   -0.0500 H   0  0  0  0  0  0  0  0  0  0  0  0
    1.0880   -5.2780    1.5900 H   0  0  0  0  0  0  0  0  0  0  0  0
    3.1210   -3.2780    1.8290 H   0  0  0  0  0  0  0  0  0  0  0  0
    3.0210   -2.2100    0.4410 H   0  0  0  0  0  0  0  0  0  0  0  0
    1.7800   -1.6010    2.4210 H   0  0  0  0  0  0  0  0  0  0  0  0
   -0.2510   -2.5210    2.9580 H   0  0  0  0  0  0  0  0  0  0  0  0
    1.0880   -3.4920    3.2380 H   0  0  0  0  0  0  0  0  0  0  0  0
   -0.7980    1.1800   -2.9070 C   0  0  0  0  0  0  0  0  0  0  0  0
   -0.1480    0.0790   -2.0670 C   0  0  0  0  0  0  0  0  0  0  0  0
   -1.1760   -1.0020   -1.9380 C   0  0  0  0  0  0  0  0  0  0  0  0
    0.4620    0.5940   -0.8360 C   0  0  2  0  0  0  0  0  0  0  0  0
    1.0870   -0.3850   -0.0380 N   0  0  0  0  0  0  0  0  0  0  0  0
   -0.3880    1.4910   -0.0120 C   0  0  0  0  0  0  0  0  0  0  0  0
   -1.1640    2.2620   -0.6280 O   0  0  0  0  0  0  0  0  0  0  0  0
   -0.7710    0.8420   -3.9650 H   0  0  0  0  0  0  0  0  0  0  0  0
   -1.8830    1.2510   -2.6390 H   0  0  0  0  0  0  0  0  0  0  0  0
   -0.2630    2.1290   -2.8450 H   0  0  0  0  0  0  0  0  0  0  0  0
    0.6710   -0.3460   -2.7050 H   0  0  0  0  0  0  0  0  0  0  0  0
   -1.5990   -1.1210   -2.9940 H   0  0  0  0  0  0  0  0  0  0  0  0
   -0.8110   -1.9920   -1.6840 H   0  0  0  0  0  0  0  0  0  0  0  0
   -2.0890   -0.6730   -1.3660 H   0  0  0  0  0  0  0  0  0  0  0  0
    1.3140    1.3250   -1.1670 H   0  0  0  0  0  0  0  0  0  0  0  0
    2.1640   -0.4630   -0.0800 H   0  0  0  0  0  0  0  0  0  0  0  0
   -3.2730    1.0820    2.0940 C   0  0  0  0  0  0  0  0  0  0  0  0
   -2.2240    1.6500    3.0010 C   0  0  1  0  0  0  0  0  0  0  0  0
   -1.6860    0.7670    3.8930 O   0  0  0  0  0  0  0  0  0  0  0  0
   -1.2090    2.4030    2.1760 C   0  0  2  0  0  0  0  0  0  0  0  0
   -0.3650    1.5210    1.3790 N   0  0  0  0  0  0  0  0  0  0  0  0
   -0.4000    3.3500    2.9810 C   0  0  0  0  0  0  0  0  0  0  0  0
   -0.9240    4.2020    3.7420 O   0  0  0  0  0  0  0  0  0  0  0  0
    1.0010    3.3610    2.9480 O   0  0  0  0  0  0  0  0  0  0  0  0
   -3.4490    1.7690    1.2410 H   0  0  0  0  0  0  0  0  0  0  0  0
   -3.0320    0.0840    1.6850 H   0  0  0  0  0  0  0  0  0  0  0  0
   -4.2720    1.0190    2.6200 H   0  0  0  0  0  0  0  0  0  0  0  0
   -2.7430    2.4470    3.6130 H   0  0  0  0  0  0  0  0  0  0  0  0
   -2.1580   -0.0860    3.8960 H   0  0  0  0  0  0  0  0  0  0  0  0
   -1.8030    3.0240    1.4700 H   0  0  0  0  0  0  0  0  0  0  0  0
    0.3060    0.8980    1.8820 H   0  0  0  0  0  0  0  0  0  0  0  0
  1 10  1  0  0  0  0
  1  2  1  0  0  0  0
  2  3  1  0  0  0  0
  2  4  1  0  0  0  0
  3 13  1  0  0  0  0
  3 15  1  0  0  0  0
  4  5  1  0  0  0  0
  4 16  1  0  0  0  0
  5 18  1  1  0  0  0
  5  6  1  0  0  0  0
  6 19  1  0  0  0  0
  6 20  1  0  0  0  0
  7  8  2  0  0  0  0
  7  5  1  0  0  0  0
  9  1  1  0  0  0  0
 11  1  1  0  0  0  0
 12  2  1  0  0  0  0
 14  3  1  0  0  0  0
 17  4  1  0  0  0  0
 21 30  1  0  0  0  0
 21 29  1  0  0  0  0
 21 22  1  0  0  0  0
 22 23  1  0  0  0  0
 22 24  1  0  0  0  0
 23 33  1  0  0  0  0
 23 34  1  0  0  0  0
 24 35  1  6  0  0  0
 24 25  1  0  0  0  0
 24 26  1  0  0  0  0
 25  7  1  0  0  0  0
 26 41  1  0  0  0  0
 27 26  2  0  0  0  0
 28 21  1  0  0  0  0
 31 22  1  0  0  0  0
 32 23  1  0  0  0  0
 36 25  1  0  0  0  0
 37 47  1  0  0  0  0
 37 38  1  0  0  0  0
 38 48  1  1  0  0  0
 38 39  1  0  0  0  0
 39 49  1  0  0  0  0
 40 50  1  6  0  0  0
 40 42  1  0  0  0  0
 40 38  1  0  0  0  0
 41 51  1  0  0  0  0
 41 40  1  0  0  0  0
 42 43  1  0  0  0  0
 44 42  2  0  0  0  0
 45 37  1  0  0  0  0
 46 37  1  0  0  0  0
M  END
$$$$
