LVV.pdb
 OpenBabel07022418483D

 53 52  0  0  1  0  0  0  0  0999 V2000
   -1.5590   -3.2880    2.6850 C   0  0  0  0  0  0  0  0  0  0  0  0
   -1.0860   -1.8790    3.0610 C   0  0  0  0  0  0  0  0  0  0  0  0
   -1.6810   -1.4800    4.3540 C   0  0  0  0  0  0  0  0  0  0  0  0
    0.4020   -1.8870    3.0040 C   0  0  0  0  0  0  0  0  0  0  0  0
    1.0590   -0.5960    3.3400 C   0  0  2  0  0  0  0  0  0  0  0  0
    0.7490   -0.1420    4.6800 N   0  0  0  0  0  0  0  0  0  0  0  0
    0.8340    0.4620    2.3270 C   0  0  0  0  0  0  0  0  0  0  0  0
    0.4280    1.5730    2.6910 O   0  0  0  0  0  0  0  0  0  0  0  0
   -0.9650   -4.0170    3.2580 H   0  0  0  0  0  0  0  0  0  0  0  0
   -2.6320   -3.3470    2.8970 H   0  0  0  0  0  0  0  0  0  0  0  0
   -1.3730   -3.4670    1.6060 H   0  0  0  0  0  0  0  0  0  0  0  0
   -1.4860   -1.2170    2.2620 H   0  0  0  0  0  0  0  0  0  0  0  0
   -1.0430   -1.6250    5.2350 H   0  0  0  0  0  0  0  0  0  0  0  0
   -2.0630   -0.4180    4.3560 H   0  0  0  0  0  0  0  0  0  0  0  0
   -2.5960   -2.1050    4.5270 H   0  0  0  0  0  0  0  0  0  0  0  0
    0.7190   -2.1830    1.9830 H   0  0  0  0  0  0  0  0  0  0  0  0
    0.8200   -2.6670    3.6900 H   0  0  0  0  0  0  0  0  0  0  0  0
    2.1710   -0.7870    3.3370 H   0  0  0  0  0  0  0  0  0  0  0  0
    0.7440    0.8770    4.7790 H   0  0  0  0  0  0  0  0  0  0  0  0
    1.3320   -0.6490    5.3780 H   0  0  0  0  0  0  0  0  0  0  0  0
    3.2150    1.8640    0.3450 C   0  0  0  0  0  0  0  0  0  0  0  0
    2.2270    1.3990   -0.6980 C   0  0  0  0  0  0  0  0  0  0  0  0
    2.0940    2.3840   -1.8370 C   0  0  0  0  0  0  0  0  0  0  0  0
    0.8910    1.1530   -0.0320 C   0  0  2  0  0  0  0  0  0  0  0  0
    1.1040    0.1340    0.9720 N   0  0  0  0  0  0  0  0  0  0  0  0
   -0.1440    0.7440   -1.0160 C   0  0  0  0  0  0  0  0  0  0  0  0
   -0.4280    1.5320   -1.9360 O   0  0  0  0  0  0  0  0  0  0  0  0
    3.9430    1.0400    0.6030 H   0  0  0  0  0  0  0  0  0  0  0  0
    2.7270    2.1400    1.2990 H   0  0  0  0  0  0  0  0  0  0  0  0
    3.8510    2.6830   -0.0520 H   0  0  0  0  0  0  0  0  0  0  0  0
    2.6380    0.4630   -1.1430 H   0  0  0  0  0  0  0  0  0  0  0  0
    3.0630    2.8270   -2.1200 H   0  0  0  0  0  0  0  0  0  0  0  0
    1.4100    3.2170   -1.5970 H   0  0  0  0  0  0  0  0  0  0  0  0
    1.7430    1.8220   -2.7460 H   0  0  0  0  0  0  0  0  0  0  0  0
    0.5410    2.1000    0.4120 H   0  0  0  0  0  0  0  0  0  0  0  0
    1.4450   -0.8000    0.6680 H   0  0  0  0  0  0  0  0  0  0  0  0
   -1.0230   -3.3360   -1.7310 C   0  0  0  0  0  0  0  0  0  0  0  0
   -1.3480   -2.1760   -2.6450 C   0  0  0  0  0  0  0  0  0  0  0  0
   -0.2200   -1.8580   -3.5720 C   0  0  0  0  0  0  0  0  0  0  0  0
   -1.8080   -0.9540   -1.8460 C   0  0  2  0  0  0  0  0  0  0  0  0
   -0.8040   -0.5050   -0.9300 N   0  0  0  0  0  0  0  0  0  0  0  0
   -3.1060   -1.2170   -1.2140 C   0  0  0  0  0  0  0  0  0  0  0  0
   -4.1000   -1.6150   -1.8650 O   0  0  0  0  0  0  0  0  0  0  0  0
   -3.2530   -1.0220    0.1490 O   0  0  0  0  0  0  0  0  0  0  0  0
   -1.0530   -4.2740   -2.3190 H   0  0  0  0  0  0  0  0  0  0  0  0
   -0.0170   -3.1450   -1.3170 H   0  0  0  0  0  0  0  0  0  0  0  0
   -1.7530   -3.3270   -0.9060 H   0  0  0  0  0  0  0  0  0  0  0  0
   -2.2350   -2.4390   -3.2900 H   0  0  0  0  0  0  0  0  0  0  0  0
   -0.4320   -2.1650   -4.6270 H   0  0  0  0  0  0  0  0  0  0  0  0
   -0.0460   -0.7740   -3.5800 H   0  0  0  0  0  0  0  0  0  0  0  0
    0.6840   -2.4140   -3.2230 H   0  0  0  0  0  0  0  0  0  0  0  0
   -1.9840   -0.1600   -2.6310 H   0  0  0  0  0  0  0  0  0  0  0  0
   -0.5360   -1.1340   -0.1440 H   0  0  0  0  0  0  0  0  0  0  0  0
  1 10  1  0  0  0  0
  1  2  1  0  0  0  0
  1  9  1  0  0  0  0
  2  3  1  0  0  0  0
  3 14  1  0  0  0  0
  3 15  1  0  0  0  0
  3 13  1  0  0  0  0
  4  2  1  0  0  0  0
  4  5  1  0  0  0  0
  4 17  1  0  0  0  0
  5 18  1  6  0  0  0
  5  6  1  0  0  0  0
  6 19  1  0  0  0  0
  6 20  1  0  0  0  0
  7  8  2  0  0  0  0
  7  5  1  0  0  0  0
 11  1  1  0  0  0  0
 12  2  1  0  0  0  0
 16  4  1  0  0  0  0
 21 28  1  0  0  0  0
 21 29  1  0  0  0  0
 22 24  1  0  0  0  0
 22 21  1  0  0  0  0
 23 33  1  0  0  0  0
 23 22  1  0  0  0  0
 24 35  1  1  0  0  0
 24 25  1  0  0  0  0
 25  7  1  0  0  0  0
 26 41  1  0  0  0  0
 26 24  1  0  0  0  0
 27 26  2  0  0  0  0
 30 21  1  0  0  0  0
 31 22  1  0  0  0  0
 32 23  1  0  0  0  0
 34 23  1  0  0  0  0
 36 25  1  0  0  0  0
 37 46  1  0  0  0  0
 37 47  1  0  0  0  0
 38 40  1  0  0  0  0
 38 37  1  0  0  0  0
 39 51  1  0  0  0  0
 39 38  1  0  0  0  0
 40 52  1  6  0  0  0
 40 42  1  0  0  0  0
 40 41  1  0  0  0  0
 41 53  1  0  0  0  0
 42 44  1  0  0  0  0
 43 42  2  0  0  0  0
 45 37  1  0  0  0  0
 48 38  1  0  0  0  0
 49 39  1  0  0  0  0
 50 39  1  0  0  0  0
M  END
$$$$
