LVY.pdb
 OpenBabel07022418483D

 58 58  0  0  1  0  0  0  0  0999 V2000
    5.1930    3.7650    2.6870 C   0  0  0  0  0  0  0  0  0  0  0  0
    3.6940    3.6480    3.0330 C   0  0  0  0  0  0  0  0  0  0  0  0
    3.6280    3.3700    4.4980 C   0  0  0  0  0  0  0  0  0  0  0  0
    3.1630    2.5800    2.1460 C   0  0  0  0  0  0  0  0  0  0  0  0
    1.7160    2.2570    2.2600 C   0  0  2  0  0  0  0  0  0  0  0  0
    1.2770    1.8080    3.5400 N   0  0  0  0  0  0  0  0  0  0  0  0
    1.4160    1.2810    1.1590 C   0  0  0  0  0  0  0  0  0  0  0  0
    1.6540    1.5740   -0.0410 O   0  0  0  0  0  0  0  0  0  0  0  0
    5.7570    4.2280    3.5210 H   0  0  0  0  0  0  0  0  0  0  0  0
    5.2970    4.2960    1.7270 H   0  0  0  0  0  0  0  0  0  0  0  0
    5.5460    2.7230    2.5320 H   0  0  0  0  0  0  0  0  0  0  0  0
    3.2830    4.6580    2.8260 H   0  0  0  0  0  0  0  0  0  0  0  0
    3.4560    2.3240    4.7730 H   0  0  0  0  0  0  0  0  0  0  0  0
    4.6150    3.6300    4.9880 H   0  0  0  0  0  0  0  0  0  0  0  0
    2.9090    4.0490    5.0460 H   0  0  0  0  0  0  0  0  0  0  0  0
    3.8210    1.6770    2.2860 H   0  0  0  0  0  0  0  0  0  0  0  0
    3.3670    2.9000    1.0920 H   0  0  0  0  0  0  0  0  0  0  0  0
    1.1250    3.1790    2.0020 H   0  0  0  0  0  0  0  0  0  0  0  0
    1.1900    2.6890    4.1400 H   0  0  0  0  0  0  0  0  0  0  0  0
    0.2670    1.4910    3.4550 H   0  0  0  0  0  0  0  0  0  0  0  0
    1.1810   -2.8240    2.1220 C   0  0  0  0  0  0  0  0  0  0  0  0
    1.3910   -2.2180    0.7770 C   0  0  0  0  0  0  0  0  0  0  0  0
    1.2080   -3.2390   -0.3000 C   0  0  0  0  0  0  0  0  0  0  0  0
    0.5290   -1.0020    0.4980 C   0  0  2  0  0  0  0  0  0  0  0  0
    0.8660    0.0360    1.4990 N   0  0  0  0  0  0  0  0  0  0  0  0
   -0.8830   -1.3270    0.7370 C   0  0  0  0  0  0  0  0  0  0  0  0
   -1.4520   -0.8640    1.7570 O   0  0  0  0  0  0  0  0  0  0  0  0
    0.5920   -2.2210    2.8200 H   0  0  0  0  0  0  0  0  0  0  0  0
    0.6640   -3.8210    2.0620 H   0  0  0  0  0  0  0  0  0  0  0  0
    2.1520   -3.0660    2.6460 H   0  0  0  0  0  0  0  0  0  0  0  0
    2.4920   -1.9210    0.7100 H   0  0  0  0  0  0  0  0  0  0  0  0
    0.3620   -3.9050   -0.0500 H   0  0  0  0  0  0  0  0  0  0  0  0
    1.0160   -2.7740   -1.2940 H   0  0  0  0  0  0  0  0  0  0  0  0
    2.1450   -3.8730   -0.3720 H   0  0  0  0  0  0  0  0  0  0  0  0
    0.7800   -0.5910   -0.4730 H   0  0  0  0  0  0  0  0  0  0  0  0
    0.6770   -0.2030    2.4800 H   0  0  0  0  0  0  0  0  0  0  0  0
   -2.9530   -3.5520   -6.1120 O   0  0  0  0  0  0  0  0  0  0  0  0
   -3.2230   -3.1390   -4.8150 C   0  0  0  0  0  0  0  0  0  0  0  0
   -4.1280   -3.7820   -3.9880 C   0  0  0  0  0  0  0  0  0  0  0  0
   -4.4010   -3.3860   -2.7110 C   0  0  0  0  0  0  0  0  0  0  0  0
   -3.7520   -2.2890   -2.2010 C   0  0  0  0  0  0  0  0  0  0  0  0
   -3.9960   -1.8090   -0.8400 C   0  0  0  0  0  0  0  0  0  0  0  0
   -3.0800   -2.4240    0.1950 C   0  0  2  0  0  0  0  0  0  0  0  0
   -1.6820   -2.1330   -0.1010 N   0  0  0  0  0  0  0  0  0  0  0  0
   -3.3120   -3.8680    0.3800 C   0  0  0  0  0  0  0  0  0  0  0  0
   -4.4650   -4.2700    0.6400 O   0  0  0  0  0  0  0  0  0  0  0  0
   -2.8490   -1.6320   -3.0010 C   0  0  0  0  0  0  0  0  0  0  0  0
   -2.5750   -2.0390   -4.2950 C   0  0  0  0  0  0  0  0  0  0  0  0
   -2.2900   -4.7860    0.2720 O   0  0  0  0  0  0  0  0  0  0  0  0
   -2.8970   -4.5210   -6.3200 H   0  0  0  0  0  0  0  0  0  0  0  0
   -4.6180   -4.6470   -4.4370 H   0  0  0  0  0  0  0  0  0  0  0  0
   -5.1270   -3.9590   -2.1480 H   0  0  0  0  0  0  0  0  0  0  0  0
   -5.0380   -2.0200   -0.4910 H   0  0  0  0  0  0  0  0  0  0  0  0
   -3.8800   -0.6940   -0.7370 H   0  0  0  0  0  0  0  0  0  0  0  0
   -3.3210   -1.9150    1.1540 H   0  0  0  0  0  0  0  0  0  0  0  0
   -1.2770   -2.5270   -0.9710 H   0  0  0  0  0  0  0  0  0  0  0  0
   -2.3050   -0.7590   -2.6490 H   0  0  0  0  0  0  0  0  0  0  0  0
   -1.8680   -1.5210   -4.9130 H   0  0  0  0  0  0  0  0  0  0  0  0
  1  2  1  0  0  0  0
  1  9  1  0  0  0  0
  2  3  1  0  0  0  0
  3 13  1  0  0  0  0
  3 14  1  0  0  0  0
  3 15  1  0  0  0  0
  4  5  1  0  0  0  0
  4 16  1  0  0  0  0
  4  2  1  0  0  0  0
  5 18  1  6  0  0  0
  5  6  1  0  0  0  0
  6 19  1  0  0  0  0
  7 25  1  0  0  0  0
  7  5  1  0  0  0  0
  8  7  2  0  0  0  0
 10  1  1  0  0  0  0
 11  1  1  0  0  0  0
 12  2  1  0  0  0  0
 17  4  1  0  0  0  0
 20  6  1  0  0  0  0
 21 30  1  0  0  0  0
 21 28  1  0  0  0  0
 22 21  1  0  0  0  0
 23 32  1  0  0  0  0
 23 22  1  0  0  0  0
 24 35  1  6  0  0  0
 24 26  1  0  0  0  0
 24 22  1  0  0  0  0
 24 25  1  0  0  0  0
 25 36  1  0  0  0  0
 26 27  2  0  0  0  0
 29 21  1  0  0  0  0
 31 22  1  0  0  0  0
 33 23  1  0  0  0  0
 34 23  1  0  0  0  0
 37 38  1  0  0  0  0
 38 48  2  0  0  0  0
 38 39  1  0  0  0  0
 39 40  2  0  0  0  0
 40 41  1  0  0  0  0
 40 52  1  0  0  0  0
 41 42  1  0  0  0  0
 42 54  1  0  0  0  0
 42 53  1  0  0  0  0
 42 43  1  0  0  0  0
 43 45  1  0  0  0  0
 43 55  1  1  0  0  0
 44 43  1  0  0  0  0
 44 26  1  0  0  0  0
 45 46  1  0  0  0  0
 47 57  1  0  0  0  0
 47 41  2  0  0  0  0
 48 47  1  0  0  0  0
 49 45  2  0  0  0  0
 50 37  1  0  0  0  0
 51 39  1  0  0  0  0
 56 44  1  0  0  0  0
 58 48  1  0  0  0  0
M  END
$$$$
