LWA.pdb
 OpenBabel07022418483D

 55 56  0  0  1  0  0  0  0  0999 V2000
    3.4190   -3.1160    2.9460 C   0  0  0  0  0  0  0  0  0  0  0  0
    2.2840   -2.1220    3.0550 C   0  0  0  0  0  0  0  0  0  0  0  0
    1.8730   -2.0540    4.4940 C   0  0  0  0  0  0  0  0  0  0  0  0
    2.7640   -0.7940    2.5240 C   0  0  0  0  0  0  0  0  0  0  0  0
    1.6700    0.2600    2.6010 C   0  0  2  0  0  0  0  0  0  0  0  0
    1.2760    0.4260    3.9690 N   0  0  0  0  0  0  0  0  0  0  0  0
    0.5350   -0.0940    1.7140 C   0  0  0  0  0  0  0  0  0  0  0  0
   -0.6470   -0.2350    2.1380 O   0  0  0  0  0  0  0  0  0  0  0  0
    4.2620   -2.8200    3.6070 H   0  0  0  0  0  0  0  0  0  0  0  0
    3.7670   -3.2480    1.8890 H   0  0  0  0  0  0  0  0  0  0  0  0
    3.0790   -4.1110    3.3030 H   0  0  0  0  0  0  0  0  0  0  0  0
    1.4530   -2.4620    2.4140 H   0  0  0  0  0  0  0  0  0  0  0  0
    0.7900   -1.8310    4.5560 H   0  0  0  0  0  0  0  0  0  0  0  0
    2.0270   -3.0220    5.0390 H   0  0  0  0  0  0  0  0  0  0  0  0
    2.4940   -1.3140    5.0390 H   0  0  0  0  0  0  0  0  0  0  0  0
    3.0940   -0.9410    1.4740 H   0  0  0  0  0  0  0  0  0  0  0  0
    3.6490   -0.4380    3.0850 H   0  0  0  0  0  0  0  0  0  0  0  0
    2.1020    1.2180    2.2460 H   0  0  0  0  0  0  0  0  0  0  0  0
    1.9810    0.9790    4.4950 H   0  0  0  0  0  0  0  0  0  0  0  0
    0.3000    0.7050    4.1180 H   0  0  0  0  0  0  0  0  0  0  0  0
    0.7450   -0.2900    0.3260 N   0  0  0  0  0  0  0  0  0  0  0  0
   -0.3210   -0.6380   -0.5930 C   0  0  1  0  0  0  0  0  0  0  0  0
   -0.5050    0.5020   -1.5360 C   0  0  0  0  0  0  0  0  0  0  0  0
   -0.8670    1.7500   -0.7940 C   0  0  0  0  0  0  0  0  0  0  0  0
   -0.0770    2.8260   -0.4910 C   0  0  0  0  0  0  0  0  0  0  0  0
   -0.7970    3.7330    0.1910 N   0  0  0  0  0  0  0  0  0  0  0  0
   -2.0640    3.2590    0.3420 C   0  0  0  0  0  0  0  0  0  0  0  0
   -3.1900    3.7950    0.9600 C   0  0  0  0  0  0  0  0  0  0  0  0
   -4.3520    3.0440    0.9380 C   0  0  0  0  0  0  0  0  0  0  0  0
   -4.4150    1.8130    0.3310 C   0  0  0  0  0  0  0  0  0  0  0  0
   -3.2930    1.3090   -0.2700 C   0  0  0  0  0  0  0  0  0  0  0  0
   -2.1250    2.0270   -0.2650 C   0  0  0  0  0  0  0  0  0  0  0  0
   -0.0330   -1.9260   -1.1760 C   0  0  0  0  0  0  0  0  0  0  0  0
    1.0210   -2.5290   -0.8440 O   0  0  0  0  0  0  0  0  0  0  0  0
    1.7130   -0.1790   -0.0470 H   0  0  0  0  0  0  0  0  0  0  0  0
   -1.2900   -0.7290   -0.0150 H   0  0  0  0  0  0  0  0  0  0  0  0
    0.4430    0.7400   -2.0660 H   0  0  0  0  0  0  0  0  0  0  0  0
   -1.2680    0.3580   -2.3030 H   0  0  0  0  0  0  0  0  0  0  0  0
    0.9690    2.9190   -0.7670 H   0  0  0  0  0  0  0  0  0  0  0  0
   -0.5010    4.6650    0.5730 H   0  0  0  0  0  0  0  0  0  0  0  0
   -3.1520    4.7650    1.4420 H   0  0  0  0  0  0  0  0  0  0  0  0
   -5.2510    3.4310    1.4110 H   0  0  0  0  0  0  0  0  0  0  0  0
   -5.3460    1.2260    0.3200 H   0  0  0  0  0  0  0  0  0  0  0  0
   -3.2970    0.3330   -0.7660 H   0  0  0  0  0  0  0  0  0  0  0  0
   -1.5280   -4.9070   -2.1900 C   0  0  0  0  0  0  0  0  0  0  0  0
   -0.4810   -3.9080   -2.6610 C   0  0  2  0  0  0  0  0  0  0  0  0
   -0.8430   -2.6130   -2.1220 N   0  0  0  0  0  0  0  0  0  0  0  0
   -0.3510   -3.8760   -4.1350 C   0  0  0  0  0  0  0  0  0  0  0  0
   -0.5500   -2.8080   -4.7650 O   0  0  0  0  0  0  0  0  0  0  0  0
   -0.0120   -4.9920   -4.8800 O   0  0  0  0  0  0  0  0  0  0  0  0
   -1.1530   -5.4740   -1.2920 H   0  0  0  0  0  0  0  0  0  0  0  0
   -1.7300   -5.6220   -2.9900 H   0  0  0  0  0  0  0  0  0  0  0  0
   -2.4670   -4.3970   -1.9070 H   0  0  0  0  0  0  0  0  0  0  0  0
    0.4910   -4.2550   -2.2350 H   0  0  0  0  0  0  0  0  0  0  0  0
   -1.7130   -2.1510   -2.4170 H   0  0  0  0  0  0  0  0  0  0  0  0
  1  2  1  0  0  0  0
  1 11  1  0  0  0  0
  1  9  1  0  0  0  0
  2  3  1  0  0  0  0
  3 13  1  0  0  0  0
  3 14  1  0  0  0  0
  3 15  1  0  0  0  0
  4  5  1  0  0  0  0
  4  2  1  0  0  0  0
  4 17  1  0  0  0  0
  5 18  1  6  0  0  0
  5  6  1  0  0  0  0
  6 20  1  0  0  0  0
  6 19  1  0  0  0  0
  7  8  2  0  0  0  0
  7  5  1  0  0  0  0
 10  1  1  0  0  0  0
 12  2  1  0  0  0  0
 16  4  1  0  0  0  0
 21  7  1  0  0  0  0
 22 36  1  1  0  0  0
 22 21  1  0  0  0  0
 23 24  1  0  0  0  0
 23 22  1  0  0  0  0
 24 25  2  0  0  0  0
 24 32  1  0  0  0  0
 25 26  1  0  0  0  0
 26 27  1  0  0  0  0
 26 40  1  0  0  0  0
 27 28  1  0  0  0  0
 28 41  1  0  0  0  0
 29 28  2  0  0  0  0
 29 42  1  0  0  0  0
 30 29  1  0  0  0  0
 31 32  1  0  0  0  0
 31 30  2  0  0  0  0
 32 27  2  0  0  0  0
 33 34  2  0  0  0  0
 33 22  1  0  0  0  0
 35 21  1  0  0  0  0
 37 23  1  0  0  0  0
 38 23  1  0  0  0  0
 39 25  1  0  0  0  0
 43 30  1  0  0  0  0
 44 31  1  0  0  0  0
 45 53  1  0  0  0  0
 45 51  1  0  0  0  0
 46 54  1  1  0  0  0
 46 45  1  0  0  0  0
 46 47  1  0  0  0  0
 47 33  1  0  0  0  0
 48 46  1  0  0  0  0
 49 48  1  0  0  0  0
 50 48  2  0  0  0  0
 52 45  1  0  0  0  0
 55 47  1  0  0  0  0
M  END
$$$$
