LWC.pdb
 OpenBabel07022418483D

 56 57  0  0  1  0  0  0  0  0999 V2000
    0.7290    0.8690    5.0790 C   0  0  0  0  0  0  0  0  0  0  0  0
    0.7890   -0.3290    4.1380 C   0  0  0  0  0  0  0  0  0  0  0  0
    0.8380   -1.5760    4.9780 C   0  0  0  0  0  0  0  0  0  0  0  0
    1.9960   -0.1510    3.2870 C   0  0  0  0  0  0  0  0  0  0  0  0
    2.2390   -1.2510    2.2830 C   0  0  2  0  0  0  0  0  0  0  0  0
    3.4620   -0.8710    1.5760 N   0  0  0  0  0  0  0  0  0  0  0  0
    1.0930   -1.3230    1.3620 C   0  0  0  0  0  0  0  0  0  0  0  0
   -0.0460   -1.7030    1.7200 O   0  0  0  0  0  0  0  0  0  0  0  0
    0.7960    0.5460    6.1410 H   0  0  0  0  0  0  0  0  0  0  0  0
   -0.2480    1.4040    4.9410 H   0  0  0  0  0  0  0  0  0  0  0  0
    1.5420    1.5870    4.9020 H   0  0  0  0  0  0  0  0  0  0  0  0
   -0.1490   -0.3610    3.5540 H   0  0  0  0  0  0  0  0  0  0  0  0
    1.2320   -2.4580    4.4320 H   0  0  0  0  0  0  0  0  0  0  0  0
    1.4470   -1.3600    5.8970 H   0  0  0  0  0  0  0  0  0  0  0  0
   -0.2150   -1.8420    5.2710 H   0  0  0  0  0  0  0  0  0  0  0  0
    2.8860    0.0180    3.9340 H   0  0  0  0  0  0  0  0  0  0  0  0
    1.8340    0.7880    2.6820 H   0  0  0  0  0  0  0  0  0  0  0  0
    2.4470   -2.1810    2.8140 H   0  0  0  0  0  0  0  0  0  0  0  0
    3.7850   -1.7020    1.0310 H   0  0  0  0  0  0  0  0  0  0  0  0
    4.1830   -0.7040    2.3170 H   0  0  0  0  0  0  0  0  0  0  0  0
    1.1980   -0.9590   -0.0250 N   0  0  0  0  0  0  0  0  0  0  0  0
    0.0650   -1.0310   -0.9210 C   0  0  1  0  0  0  0  0  0  0  0  0
   -0.2720    0.3250   -1.4930 C   0  0  0  0  0  0  0  0  0  0  0  0
   -0.6030    1.2630   -0.3710 C   0  0  0  0  0  0  0  0  0  0  0  0
    0.2140    2.2630    0.1470 C   0  0  0  0  0  0  0  0  0  0  0  0
   -0.4400    2.8820    1.1430 N   0  0  0  0  0  0  0  0  0  0  0  0
   -1.6690    2.3370    1.3180 C   0  0  0  0  0  0  0  0  0  0  0  0
   -2.7120    2.6020    2.1880 C   0  0  0  0  0  0  0  0  0  0  0  0
   -3.8840    1.8790    2.1500 C   0  0  0  0  0  0  0  0  0  0  0  0
   -3.9680    0.8800    1.2060 C   0  0  0  0  0  0  0  0  0  0  0  0
   -2.9340    0.6080    0.3340 C   0  0  0  0  0  0  0  0  0  0  0  0
   -1.7620    1.3320    0.3740 C   0  0  0  0  0  0  0  0  0  0  0  0
    0.3150   -2.0490   -1.9360 C   0  0  0  0  0  0  0  0  0  0  0  0
    1.4030   -2.6810   -1.9100 O   0  0  0  0  0  0  0  0  0  0  0  0
    2.1170   -0.6410   -0.3690 H   0  0  0  0  0  0  0  0  0  0  0  0
   -0.8520   -1.3710   -0.3590 H   0  0  0  0  0  0  0  0  0  0  0  0
    0.6540    0.7070   -1.9680 H   0  0  0  0  0  0  0  0  0  0  0  0
   -1.1370    0.3140   -2.1540 H   0  0  0  0  0  0  0  0  0  0  0  0
    1.2160    2.4800   -0.2230 H   0  0  0  0  0  0  0  0  0  0  0  0
   -0.0920    3.6860    1.7400 H   0  0  0  0  0  0  0  0  0  0  0  0
   -2.6340    3.3880    2.9240 H   0  0  0  0  0  0  0  0  0  0  0  0
   -4.7120    2.0790    2.8290 H   0  0  0  0  0  0  0  0  0  0  0  0
   -4.8930    0.3040    1.1700 H   0  0  0  0  0  0  0  0  0  0  0  0
   -2.9920   -0.1800   -0.4150 H   0  0  0  0  0  0  0  0  0  0  0  0
   -0.6010   -2.3850   -2.9730 N   0  0  0  0  0  0  0  0  0  0  0  0
   -0.2360   -3.4120   -3.9170 C   0  0  1  0  0  0  0  0  0  0  0  0
   -1.1960   -4.5970   -3.8440 C   0  0  0  0  0  0  0  0  0  0  0  0
   -0.6350   -5.8120   -5.0680 S   0  0  0  0  0  0  0  0  0  0  0  0
   -0.2190   -2.9420   -5.3150 C   0  0  0  0  0  0  0  0  0  0  0  0
   -0.4910   -1.7740   -5.6860 O   0  0  0  0  0  0  0  0  0  0  0  0
    0.1230   -3.8610   -6.2960 O   0  0  0  0  0  0  0  0  0  0  0  0
   -1.4890   -1.8640   -2.9890 H   0  0  0  0  0  0  0  0  0  0  0  0
    0.7690   -3.8280   -3.6980 H   0  0  0  0  0  0  0  0  0  0  0  0
   -2.2240   -4.3050   -4.0950 H   0  0  0  0  0  0  0  0  0  0  0  0
   -1.0790   -5.0310   -2.8350 H   0  0  0  0  0  0  0  0  0  0  0  0
   -1.5060   -6.9120   -5.1350 H   0  0  0  0  0  0  0  0  0  0  0  0
  1  9  1  0  0  0  0
  2  3  1  0  0  0  0
  2  1  1  0  0  0  0
  3 15  1  0  0  0  0
  3 14  1  0  0  0  0
  4 16  1  0  0  0  0
  4  2  1  0  0  0  0
  5 18  1  1  0  0  0
  5  4  1  0  0  0  0
  6  5  1  0  0  0  0
  6 20  1  0  0  0  0
  7  8  2  0  0  0  0
  7  5  1  0  0  0  0
 10  1  1  0  0  0  0
 11  1  1  0  0  0  0
 12  2  1  0  0  0  0
 13  3  1  0  0  0  0
 17  4  1  0  0  0  0
 19  6  1  0  0  0  0
 21  7  1  0  0  0  0
 22 36  1  1  0  0  0
 22 21  1  0  0  0  0
 23 22  1  0  0  0  0
 23 24  1  0  0  0  0
 24 25  2  0  0  0  0
 24 32  1  0  0  0  0
 25 26  1  0  0  0  0
 26 27  1  0  0  0  0
 26 40  1  0  0  0  0
 27 28  1  0  0  0  0
 28 41  1  0  0  0  0
 29 28  2  0  0  0  0
 29 42  1  0  0  0  0
 30 29  1  0  0  0  0
 31 32  1  0  0  0  0
 31 30  2  0  0  0  0
 32 27  2  0  0  0  0
 33 34  2  0  0  0  0
 33 22  1  0  0  0  0
 35 21  1  0  0  0  0
 37 23  1  0  0  0  0
 38 23  1  0  0  0  0
 39 25  1  0  0  0  0
 43 30  1  0  0  0  0
 44 31  1  0  0  0  0
 45 33  1  0  0  0  0
 46 47  1  0  0  0  0
 46 53  1  1  0  0  0
 46 45  1  0  0  0  0
 47 55  1  0  0  0  0
 48 47  1  0  0  0  0
 49 46  1  0  0  0  0
 50 49  1  0  0  0  0
 51 49  2  0  0  0  0
 52 45  1  0  0  0  0
 54 47  1  0  0  0  0
 56 48  1  0  0  0  0
M  END
$$$$
