LWK.pdb
 OpenBabel07022418483D

 66 67  0  0  1  0  0  0  0  0999 V2000
    2.9510    4.4120    3.5930 C   0  0  0  0  0  0  0  0  0  0  0  0
    2.7230    3.1420    4.3710 C   0  0  0  0  0  0  0  0  0  0  0  0
    1.8710    3.4950    5.5870 C   0  0  0  0  0  0  0  0  0  0  0  0
    1.9310    2.1620    3.5510 C   0  0  0  0  0  0  0  0  0  0  0  0
    2.5710    1.7410    2.2760 C   0  0  2  0  0  0  0  0  0  0  0  0
    2.8500    2.7720    1.3350 N   0  0  0  0  0  0  0  0  0  0  0  0
    1.6740    0.7140    1.6450 C   0  0  0  0  0  0  0  0  0  0  0  0
    1.2090   -0.2190    2.3690 O   0  0  0  0  0  0  0  0  0  0  0  0
    2.0170    4.7270    3.0730 H   0  0  0  0  0  0  0  0  0  0  0  0
    3.7650    4.3480    2.8490 H   0  0  0  0  0  0  0  0  0  0  0  0
    3.1440    5.2510    4.3280 H   0  0  0  0  0  0  0  0  0  0  0  0
    3.6800    2.7060    4.7360 H   0  0  0  0  0  0  0  0  0  0  0  0
    0.8230    3.5730    5.2320 H   0  0  0  0  0  0  0  0  0  0  0  0
    1.8660    2.6080    6.2810 H   0  0  0  0  0  0  0  0  0  0  0  0
    2.1870    4.4110    6.0860 H   0  0  0  0  0  0  0  0  0  0  0  0
    0.9440    2.6640    3.3420 H   0  0  0  0  0  0  0  0  0  0  0  0
    1.7630    1.2190    4.1490 H   0  0  0  0  0  0  0  0  0  0  0  0
    3.5300    1.2060    2.5080 H   0  0  0  0  0  0  0  0  0  0  0  0
    1.9700    3.1010    0.9050 H   0  0  0  0  0  0  0  0  0  0  0  0
    3.5130    2.5270    0.5990 H   0  0  0  0  0  0  0  0  0  0  0  0
    1.3190    0.7230    0.2880 N   0  0  0  0  0  0  0  0  0  0  0  0
    0.4580   -0.2550   -0.3420 C   0  0  1  0  0  0  0  0  0  0  0  0
   -0.7230    0.3790   -1.0210 C   0  0  0  0  0  0  0  0  0  0  0  0
   -1.5690    1.1360   -0.0610 C   0  0  0  0  0  0  0  0  0  0  0  0
   -1.6760    2.4920    0.1600 C   0  0  0  0  0  0  0  0  0  0  0  0
   -2.5730    2.7200    1.1320 N   0  0  0  0  0  0  0  0  0  0  0  0
   -3.0890    1.5400    1.5880 C   0  0  0  0  0  0  0  0  0  0  0  0
   -4.0240    1.2510    2.5580 C   0  0  0  0  0  0  0  0  0  0  0  0
   -4.3580   -0.0600    2.8060 C   0  0  0  0  0  0  0  0  0  0  0  0
   -3.7340   -1.0550    2.0630 C   0  0  0  0  0  0  0  0  0  0  0  0
   -2.7990   -0.7590    1.0950 C   0  0  0  0  0  0  0  0  0  0  0  0
   -2.4630    0.5600    0.8450 C   0  0  0  0  0  0  0  0  0  0  0  0
    1.2210   -1.1460   -1.2540 C   0  0  0  0  0  0  0  0  0  0  0  0
    2.4700   -1.0460   -1.4400 O   0  0  0  0  0  0  0  0  0  0  0  0
    1.7060    1.5020   -0.3230 H   0  0  0  0  0  0  0  0  0  0  0  0
    0.0620   -0.9010    0.4870 H   0  0  0  0  0  0  0  0  0  0  0  0
   -1.3300   -0.4080   -1.5320 H   0  0  0  0  0  0  0  0  0  0  0  0
   -0.3900    1.1420   -1.7840 H   0  0  0  0  0  0  0  0  0  0  0  0
   -1.1200    3.2490   -0.3730 H   0  0  0  0  0  0  0  0  0  0  0  0
   -2.8940    3.6310    1.5470 H   0  0  0  0  0  0  0  0  0  0  0  0
   -4.5040    2.0250    3.1290 H   0  0  0  0  0  0  0  0  0  0  0  0
   -5.1040   -0.3250    3.5730 H   0  0  0  0  0  0  0  0  0  0  0  0
   -4.0150   -2.0790    2.2810 H   0  0  0  0  0  0  0  0  0  0  0  0
   -2.3090   -1.5170    0.5110 H   0  0  0  0  0  0  0  0  0  0  0  0
    0.5270   -2.1550   -1.9500 N   0  0  0  0  0  0  0  0  0  0  0  0
    1.1360   -3.0850   -2.8550 C   0  0  1  0  0  0  0  0  0  0  0  0
    0.9170   -4.4780   -2.3190 C   0  0  0  0  0  0  0  0  0  0  0  0
   -0.5470   -4.8310   -2.1920 C   0  0  0  0  0  0  0  0  0  0  0  0
   -0.7310   -6.2310   -1.6510 C   0  0  0  0  0  0  0  0  0  0  0  0
   -2.1930   -6.5820   -1.5270 C   0  0  0  0  0  0  0  0  0  0  0  0
   -2.3690   -7.9250   -1.0120 N   0  0  0  0  0  0  0  0  0  0  0  0
    0.6560   -2.9490   -4.2460 C   0  0  0  0  0  0  0  0  0  0  0  0
   -0.1960   -2.1170   -4.6410 O   0  0  0  0  0  0  0  0  0  0  0  0
    1.1840   -3.8070   -5.2000 O   0  0  0  0  0  0  0  0  0  0  0  0
   -0.5020   -2.2430   -1.8050 H   0  0  0  0  0  0  0  0  0  0  0  0
    2.2310   -2.9040   -2.8860 H   0  0  0  0  0  0  0  0  0  0  0  0
    1.3360   -4.4720   -1.2720 H   0  0  0  0  0  0  0  0  0  0  0  0
    1.4820   -5.2470   -2.8570 H   0  0  0  0  0  0  0  0  0  0  0  0
   -1.1030   -4.1540   -1.5410 H   0  0  0  0  0  0  0  0  0  0  0  0
   -0.9820   -4.7630   -3.2140 H   0  0  0  0  0  0  0  0  0  0  0  0
   -0.2430   -6.3790   -0.6820 H   0  0  0  0  0  0  0  0  0  0  0  0
   -0.2760   -6.9470   -2.3780 H   0  0  0  0  0  0  0  0  0  0  0  0
   -2.7070   -5.8240   -0.9190 H   0  0  0  0  0  0  0  0  0  0  0  0
   -2.6660   -6.5690   -2.5310 H   0  0  0  0  0  0  0  0  0  0  0  0
   -1.8000   -8.0890   -0.1590 H   0  0  0  0  0  0  0  0  0  0  0  0
   -3.3770   -8.0320   -0.7630 H   0  0  0  0  0  0  0  0  0  0  0  0
  1 11  1  0  0  0  0
  1  2  1  0  0  0  0
  2 12  1  0  0  0  0
  2  3  1  0  0  0  0
  3 15  1  0  0  0  0
  3 14  1  0  0  0  0
  4 17  1  0  0  0  0
  4  2  1  0  0  0  0
  5 18  1  1  0  0  0
  5  4  1  0  0  0  0
  6  5  1  0  0  0  0
  7  5  1  0  0  0  0
  7  8  2  0  0  0  0
  9  1  1  0  0  0  0
 10  1  1  0  0  0  0
 13  3  1  0  0  0  0
 16  4  1  0  0  0  0
 19  6  1  0  0  0  0
 20  6  1  0  0  0  0
 21  7  1  0  0  0  0
 22 21  1  0  0  0  0
 22 36  1  1  0  0  0
 23 22  1  0  0  0  0
 23 24  1  0  0  0  0
 24 25  2  0  0  0  0
 24 32  1  0  0  0  0
 25 26  1  0  0  0  0
 26 40  1  0  0  0  0
 26 27  1  0  0  0  0
 27 28  1  0  0  0  0
 28 29  2  0  0  0  0
 28 41  1  0  0  0  0
 29 42  1  0  0  0  0
 30 43  1  0  0  0  0
 30 29  1  0  0  0  0
 31 30  2  0  0  0  0
 32 31  1  0  0  0  0
 32 27  2  0  0  0  0
 33 22  1  0  0  0  0
 34 33  2  0  0  0  0
 35 21  1  0  0  0  0
 37 23  1  0  0  0  0
 38 23  1  0  0  0  0
 39 25  1  0  0  0  0
 44 31  1  0  0  0  0
 45 55  1  0  0  0  0
 45 33  1  0  0  0  0
 46 56  1  1  0  0  0
 46 47  1  0  0  0  0
 46 45  1  0  0  0  0
 47 48  1  0  0  0  0
 47 57  1  0  0  0  0
 48 49  1  0  0  0  0
 48 59  1  0  0  0  0
 49 50  1  0  0  0  0
 49 61  1  0  0  0  0
 50 51  1  0  0  0  0
 50 63  1  0  0  0  0
 51 66  1  0  0  0  0
 51 65  1  0  0  0  0
 52 46  1  0  0  0  0
 53 52  1  0  0  0  0
 54 52  2  0  0  0  0
 58 47  1  0  0  0  0
 60 48  1  0  0  0  0
 62 49  1  0  0  0  0
 64 50  1  0  0  0  0
M  END
$$$$
