LWN.pdb
 OpenBabel07022418483D

 59 60  0  0  1  0  0  0  0  0999 V2000
    1.4210   -1.9590    3.2410 C   0  0  0  0  0  0  0  0  0  0  0  0
    2.7390   -1.2850    3.2050 C   0  0  0  0  0  0  0  0  0  0  0  0
    3.3570   -1.3110    4.5870 C   0  0  0  0  0  0  0  0  0  0  0  0
    2.8300    0.0120    2.5370 C   0  0  0  0  0  0  0  0  0  0  0  0
    2.0290    1.1590    2.9830 C   0  0  2  0  0  0  0  0  0  0  0  0
    2.2370    1.5890    4.3470 N   0  0  0  0  0  0  0  0  0  0  0  0
    0.5990    1.1690    2.6030 C   0  0  0  0  0  0  0  0  0  0  0  0
   -0.2330    1.5340    3.4920 O   0  0  0  0  0  0  0  0  0  0  0  0
    0.5490   -1.3190    3.1020 H   0  0  0  0  0  0  0  0  0  0  0  0
    1.3270   -2.7740    2.4620 H   0  0  0  0  0  0  0  0  0  0  0  0
    1.2570   -2.5070    4.2110 H   0  0  0  0  0  0  0  0  0  0  0  0
    3.4210   -1.9870    2.6120 H   0  0  0  0  0  0  0  0  0  0  0  0
    4.3550   -0.7830    4.6060 H   0  0  0  0  0  0  0  0  0  0  0  0
    3.6440   -2.3830    4.8190 H   0  0  0  0  0  0  0  0  0  0  0  0
    2.6890   -0.9380    5.3800 H   0  0  0  0  0  0  0  0  0  0  0  0
    3.9160    0.3400    2.5940 H   0  0  0  0  0  0  0  0  0  0  0  0
    2.6790   -0.0740    1.4180 H   0  0  0  0  0  0  0  0  0  0  0  0
    2.4450    2.0480    2.3860 H   0  0  0  0  0  0  0  0  0  0  0  0
    3.1810    1.2870    4.6460 H   0  0  0  0  0  0  0  0  0  0  0  0
    1.5380    1.1010    4.9430 H   0  0  0  0  0  0  0  0  0  0  0  0
    0.0950    0.8160    1.3490 N   0  0  0  0  0  0  0  0  0  0  0  0
   -1.3190    0.8500    0.9950 C   0  0  1  0  0  0  0  0  0  0  0  0
   -1.5980    1.9390    0.0110 C   0  0  0  0  0  0  0  0  0  0  0  0
   -0.8400    1.8650   -1.2530 C   0  0  0  0  0  0  0  0  0  0  0  0
    0.3540    2.5630   -1.5150 C   0  0  0  0  0  0  0  0  0  0  0  0
    0.7720    2.2270   -2.7310 N   0  0  0  0  0  0  0  0  0  0  0  0
   -0.0840    1.3380   -3.2960 C   0  0  0  0  0  0  0  0  0  0  0  0
   -0.0580    0.7180   -4.5520 C   0  0  0  0  0  0  0  0  0  0  0  0
   -1.0590   -0.1520   -4.9120 C   0  0  0  0  0  0  0  0  0  0  0  0
   -2.0580   -0.3710   -3.9920 C   0  0  0  0  0  0  0  0  0  0  0  0
   -2.0820    0.2380   -2.7610 C   0  0  0  0  0  0  0  0  0  0  0  0
   -1.0820    1.1180   -2.3760 C   0  0  0  0  0  0  0  0  0  0  0  0
   -1.8870   -0.4640    0.6740 C   0  0  0  0  0  0  0  0  0  0  0  0
   -3.1200   -0.6120    0.4410 O   0  0  0  0  0  0  0  0  0  0  0  0
    0.7560    0.5060    0.6070 H   0  0  0  0  0  0  0  0  0  0  0  0
   -1.8870    1.1740    1.9380 H   0  0  0  0  0  0  0  0  0  0  0  0
   -1.3660    2.9060    0.5080 H   0  0  0  0  0  0  0  0  0  0  0  0
   -2.6950    1.8990   -0.2200 H   0  0  0  0  0  0  0  0  0  0  0  0
    0.8030    3.2520   -0.7880 H   0  0  0  0  0  0  0  0  0  0  0  0
    1.6470    2.5870   -3.2150 H   0  0  0  0  0  0  0  0  0  0  0  0
    0.7600    0.9410   -5.2220 H   0  0  0  0  0  0  0  0  0  0  0  0
   -1.0800   -0.6550   -5.8730 H   0  0  0  0  0  0  0  0  0  0  0  0
   -2.8460   -1.0690   -4.3030 H   0  0  0  0  0  0  0  0  0  0  0  0
   -2.8830    0.0590   -2.0680 H   0  0  0  0  0  0  0  0  0  0  0  0
   -2.6890   -4.8340   -2.2470 N   0  0  0  0  0  0  0  0  0  0  0  0
   -1.5890   -4.7360   -1.3660 C   0  0  0  0  0  0  0  0  0  0  0  0
   -1.0790   -5.8000   -0.9320 O   0  0  0  0  0  0  0  0  0  0  0  0
   -1.0460   -3.4460   -0.9590 C   0  0  0  0  0  0  0  0  0  0  0  0
   -1.7060   -2.9200    0.2720 C   0  0  2  0  0  0  0  0  0  0  0  0
   -1.1080   -1.6470    0.6010 N   0  0  0  0  0  0  0  0  0  0  0  0
   -1.7600   -3.8460    1.3970 C   0  0  0  0  0  0  0  0  0  0  0  0
   -1.3070   -3.5230    2.5140 O   0  0  0  0  0  0  0  0  0  0  0  0
   -2.3170   -5.0970    1.2370 O   0  0  0  0  0  0  0  0  0  0  0  0
   -3.3570   -5.6370   -2.1250 H   0  0  0  0  0  0  0  0  0  0  0  0
   -2.8660   -4.1450   -3.0100 H   0  0  0  0  0  0  0  0  0  0  0  0
    0.0420   -3.5340   -0.7510 H   0  0  0  0  0  0  0  0  0  0  0  0
   -1.1830   -2.6750   -1.7620 H   0  0  0  0  0  0  0  0  0  0  0  0
   -2.7850   -2.7040    0.0010 H   0  0  0  0  0  0  0  0  0  0  0  0
   -0.0760   -1.6310    0.7820 H   0  0  0  0  0  0  0  0  0  0  0  0
  1 11  1  0  0  0  0
  2  1  1  0  0  0  0
  2  3  1  0  0  0  0
  3 13  1  0  0  0  0
  3 14  1  0  0  0  0
  3 15  1  0  0  0  0
  4 16  1  0  0  0  0
  4  5  1  0  0  0  0
  4  2  1  0  0  0  0
  5 18  1  6  0  0  0
  5  6  1  0  0  0  0
  6 19  1  0  0  0  0
  6 20  1  0  0  0  0
  7  5  1  0  0  0  0
  7  8  2  0  0  0  0
  9  1  1  0  0  0  0
 10  1  1  0  0  0  0
 12  2  1  0  0  0  0
 17  4  1  0  0  0  0
 21  7  1  0  0  0  0
 22 21  1  0  0  0  0
 22 36  1  1  0  0  0
 23 37  1  0  0  0  0
 23 22  1  0  0  0  0
 24 23  1  0  0  0  0
 25 24  2  0  0  0  0
 25 39  1  0  0  0  0
 26 25  1  0  0  0  0
 27 26  1  0  0  0  0
 27 32  1  0  0  0  0
 28 27  2  0  0  0  0
 29 28  1  0  0  0  0
 29 30  2  0  0  0  0
 30 31  1  0  0  0  0
 31 32  2  0  0  0  0
 31 44  1  0  0  0  0
 32 24  1  0  0  0  0
 33 22  1  0  0  0  0
 34 33  2  0  0  0  0
 35 21  1  0  0  0  0
 38 23  1  0  0  0  0
 40 26  1  0  0  0  0
 41 28  1  0  0  0  0
 42 29  1  0  0  0  0
 43 30  1  0  0  0  0
 45 54  1  0  0  0  0
 45 46  1  0  0  0  0
 46 48  1  0  0  0  0
 46 47  2  0  0  0  0
 48 56  1  0  0  0  0
 48 49  1  0  0  0  0
 49 58  1  6  0  0  0
 49 50  1  0  0  0  0
 49 51  1  0  0  0  0
 50 33  1  0  0  0  0
 50 59  1  0  0  0  0
 51 52  1  0  0  0  0
 53 51  2  0  0  0  0
 55 45  1  0  0  0  0
 57 48  1  0  0  0  0
M  END
$$$$
