LWR.pdb
 OpenBabel07022418483D

 68 69  0  0  1  0  0  0  0  0999 V2000
    3.1700    1.6760    3.7450 C   0  0  0  0  0  0  0  0  0  0  0  0
    2.0100    2.6480    3.6670 C   0  0  0  0  0  0  0  0  0  0  0  0
    1.2040    2.4830    4.9330 C   0  0  0  0  0  0  0  0  0  0  0  0
    1.1710    2.4180    2.4310 C   0  0  0  0  0  0  0  0  0  0  0  0
    1.9900    2.5880    1.1950 C   0  0  2  0  0  0  0  0  0  0  0  0
    2.5100    3.9440    1.1830 N   0  0  0  0  0  0  0  0  0  0  0  0
    1.3280    2.2270   -0.0480 C   0  0  0  0  0  0  0  0  0  0  0  0
    1.2920    3.1090   -0.9690 O   0  0  0  0  0  0  0  0  0  0  0  0
    4.0780    2.0620    3.2180 H   0  0  0  0  0  0  0  0  0  0  0  0
    2.8870    0.6580    3.4150 H   0  0  0  0  0  0  0  0  0  0  0  0
    3.4560    1.5960    4.8150 H   0  0  0  0  0  0  0  0  0  0  0  0
    2.4130    3.6620    3.6630 H   0  0  0  0  0  0  0  0  0  0  0  0
    0.3830    1.7400    4.7880 H   0  0  0  0  0  0  0  0  0  0  0  0
    1.8730    2.1090    5.7360 H   0  0  0  0  0  0  0  0  0  0  0  0
    0.8360    3.4640    5.2580 H   0  0  0  0  0  0  0  0  0  0  0  0
    0.6760    1.4530    2.5310 H   0  0  0  0  0  0  0  0  0  0  0  0
    0.3720    3.2010    2.4470 H   0  0  0  0  0  0  0  0  0  0  0  0
    2.8990    1.9220    1.2870 H   0  0  0  0  0  0  0  0  0  0  0  0
    2.9440    4.1770    0.2500 H   0  0  0  0  0  0  0  0  0  0  0  0
    3.3050    3.9700    1.8590 H   0  0  0  0  0  0  0  0  0  0  0  0
    0.7400    0.9440   -0.2400 N   0  0  0  0  0  0  0  0  0  0  0  0
    0.0810    0.5670   -1.4620 C   0  0  1  0  0  0  0  0  0  0  0  0
    0.7230   -0.4710   -2.2790 C   0  0  0  0  0  0  0  0  0  0  0  0
    0.9590   -1.7860   -1.7190 C   0  0  0  0  0  0  0  0  0  0  0  0
    0.7210   -2.4020   -0.5310 C   0  0  0  0  0  0  0  0  0  0  0  0
    1.1630   -3.6670   -0.5250 N   0  0  0  0  0  0  0  0  0  0  0  0
    1.6980   -3.8930   -1.7210 C   0  0  0  0  0  0  0  0  0  0  0  0
    2.2840   -5.0700   -2.1790 C   0  0  0  0  0  0  0  0  0  0  0  0
    2.7890   -5.1200   -3.4620 C   0  0  0  0  0  0  0  0  0  0  0  0
    2.6880   -3.9890   -4.2360 C   0  0  0  0  0  0  0  0  0  0  0  0
    2.1050   -2.8300   -3.7710 C   0  0  0  0  0  0  0  0  0  0  0  0
    1.5960   -2.7710   -2.4870 C   0  0  0  0  0  0  0  0  0  0  0  0
   -1.4060    0.4610   -1.3330 C   0  0  0  0  0  0  0  0  0  0  0  0
   -2.1340    0.1440   -2.3100 O   0  0  0  0  0  0  0  0  0  0  0  0
    0.8350    0.3110    0.5910 H   0  0  0  0  0  0  0  0  0  0  0  0
    0.1800    1.5200   -2.1170 H   0  0  0  0  0  0  0  0  0  0  0  0
    0.0820   -0.6080   -3.2040 H   0  0  0  0  0  0  0  0  0  0  0  0
    1.7020   -0.1160   -2.7240 H   0  0  0  0  0  0  0  0  0  0  0  0
    0.2420   -1.9500    0.2970 H   0  0  0  0  0  0  0  0  0  0  0  0
    1.0940   -4.3320    0.2780 H   0  0  0  0  0  0  0  0  0  0  0  0
    2.3480   -5.9390   -1.5450 H   0  0  0  0  0  0  0  0  0  0  0  0
    3.2330   -6.0360   -3.7870 H   0  0  0  0  0  0  0  0  0  0  0  0
    3.0690   -3.9900   -5.2390 H   0  0  0  0  0  0  0  0  0  0  0  0
    2.0310   -1.9450   -4.3900 H   0  0  0  0  0  0  0  0  0  0  0  0
   -1.4670   -5.3910    0.0500 N   0  0  0  0  0  0  0  0  0  0  0  0
   -1.9730   -4.4600    0.9970 C   0  0  0  0  0  0  0  0  0  0  0  0
   -1.1610   -3.9030    1.8560 N   0  0  0  0  0  0  0  0  0  0  0  0
   -3.3550   -4.1440    1.0050 N   0  0  0  0  0  0  0  0  0  0  0  0
   -3.8140   -2.8540    1.4480 C   0  0  0  0  0  0  0  0  0  0  0  0
   -3.3960   -1.7660    0.4750 C   0  0  0  0  0  0  0  0  0  0  0  0
   -3.9130   -0.4430    0.9750 C   0  0  0  0  0  0  0  0  0  0  0  0
   -3.5310    0.6360    0.0100 C   0  0  2  0  0  0  0  0  0  0  0  0
   -2.0980    0.7160   -0.1000 N   0  0  0  0  0  0  0  0  0  0  0  0
   -4.1410    1.9390    0.3590 C   0  0  0  0  0  0  0  0  0  0  0  0
   -3.4530    2.9690    0.5260 O   0  0  0  0  0  0  0  0  0  0  0  0
   -5.5070    2.0160    0.5030 O   0  0  0  0  0  0  0  0  0  0  0  0
   -0.6560   -6.0180    0.2950 H   0  0  0  0  0  0  0  0  0  0  0  0
   -1.8490   -5.5120   -0.9170 H   0  0  0  0  0  0  0  0  0  0  0  0
   -1.4740   -3.2220    2.5650 H   0  0  0  0  0  0  0  0  0  0  0  0
   -4.0590   -4.8490    0.6880 H   0  0  0  0  0  0  0  0  0  0  0  0
   -3.4040   -2.6010    2.4300 H   0  0  0  0  0  0  0  0  0  0  0  0
   -4.9380   -2.8010    1.4680 H   0  0  0  0  0  0  0  0  0  0  0  0
   -3.8030   -1.9960   -0.5340 H   0  0  0  0  0  0  0  0  0  0  0  0
   -2.2960   -1.7830    0.3830 H   0  0  0  0  0  0  0  0  0  0  0  0
   -3.3350   -0.2310    1.9230 H   0  0  0  0  0  0  0  0  0  0  0  0
   -5.0010   -0.4690    1.1860 H   0  0  0  0  0  0  0  0  0  0  0  0
   -3.9890    0.3170   -0.9790 H   0  0  0  0  0  0  0  0  0  0  0  0
   -1.4740    0.9610    0.7010 H   0  0  0  0  0  0  0  0  0  0  0  0
  1 11  1  0  0  0  0
  2  1  1  0  0  0  0
  2  3  1  0  0  0  0
  3 15  1  0  0  0  0
  3 14  1  0  0  0  0
  4 17  1  0  0  0  0
  4 16  1  0  0  0  0
  4  2  1  0  0  0  0
  5 18  1  1  0  0  0
  5  4  1  0  0  0  0
  6  5  1  0  0  0  0
  6 20  1  0  0  0  0
  7  5  1  0  0  0  0
  8  7  2  0  0  0  0
  9  1  1  0  0  0  0
 10  1  1  0  0  0  0
 12  2  1  0  0  0  0
 13  3  1  0  0  0  0
 19  6  1  0  0  0  0
 21  7  1  0  0  0  0
 21 35  1  0  0  0  0
 22 36  1  6  0  0  0
 22 33  1  0  0  0  0
 22 21  1  0  0  0  0
 23 24  1  0  0  0  0
 23 22  1  0  0  0  0
 24 25  2  0  0  0  0
 25 26  1  0  0  0  0
 25 39  1  0  0  0  0
 26 40  1  0  0  0  0
 27 26  1  0  0  0  0
 28 27  1  0  0  0  0
 28 41  1  0  0  0  0
 29 28  2  0  0  0  0
 30 31  2  0  0  0  0
 30 29  1  0  0  0  0
 31 32  1  0  0  0  0
 32 27  2  0  0  0  0
 32 24  1  0  0  0  0
 33 53  1  0  0  0  0
 34 33  2  0  0  0  0
 37 23  1  0  0  0  0
 38 23  1  0  0  0  0
 42 29  1  0  0  0  0
 43 30  1  0  0  0  0
 44 31  1  0  0  0  0
 45 57  1  0  0  0  0
 45 46  1  0  0  0  0
 46 48  1  0  0  0  0
 46 47  2  0  0  0  0
 47 59  1  0  0  0  0
 48 49  1  0  0  0  0
 49 62  1  0  0  0  0
 49 61  1  0  0  0  0
 50 51  1  0  0  0  0
 50 49  1  0  0  0  0
 51 66  1  0  0  0  0
 51 65  1  0  0  0  0
 52 67  1  6  0  0  0
 52 54  1  0  0  0  0
 52 51  1  0  0  0  0
 53 52  1  0  0  0  0
 53 68  1  0  0  0  0
 54 56  2  0  0  0  0
 54 55  1  0  0  0  0
 58 45  1  0  0  0  0
 60 48  1  0  0  0  0
 63 50  1  0  0  0  0
 64 50  1  0  0  0  0
M  END
$$$$
