LWT.pdb
 OpenBabel07022418483D

 59 60  0  0  1  0  0  0  0  0999 V2000
    0.5380   -1.4930    3.9580 C   0  0  0  0  0  0  0  0  0  0  0  0
    1.7470   -0.6800    4.2370 C   0  0  0  0  0  0  0  0  0  0  0  0
    2.9580   -1.5910    4.1070 C   0  0  0  0  0  0  0  0  0  0  0  0
    1.9090    0.6100    3.5470 C   0  0  0  0  0  0  0  0  0  0  0  0
    1.9750    0.6590    2.0800 C   0  0  2  0  0  0  0  0  0  0  0  0
    2.1780    2.0970    1.6900 N   0  0  0  0  0  0  0  0  0  0  0  0
    0.8060    0.2680    1.2960 C   0  0  0  0  0  0  0  0  0  0  0  0
    0.9860   -0.2390    0.1780 O   0  0  0  0  0  0  0  0  0  0  0  0
   -0.4340   -0.9780    4.1580 H   0  0  0  0  0  0  0  0  0  0  0  0
    0.5740   -2.0510    3.0160 H   0  0  0  0  0  0  0  0  0  0  0  0
    0.5300   -2.3150    4.7530 H   0  0  0  0  0  0  0  0  0  0  0  0
    1.7090   -0.4500    5.3510 H   0  0  0  0  0  0  0  0  0  0  0  0
    3.9080   -1.0470    4.2400 H   0  0  0  0  0  0  0  0  0  0  0  0
    2.9260   -2.1800    3.1640 H   0  0  0  0  0  0  0  0  0  0  0  0
    2.8840   -2.3310    4.9360 H   0  0  0  0  0  0  0  0  0  0  0  0
    1.1740    1.3290    3.9930 H   0  0  0  0  0  0  0  0  0  0  0  0
    2.8980    1.0400    3.9150 H   0  0  0  0  0  0  0  0  0  0  0  0
    2.8720    0.1480    1.6890 H   0  0  0  0  0  0  0  0  0  0  0  0
    3.1470    2.3400    2.0540 H   0  0  0  0  0  0  0  0  0  0  0  0
    2.1830    2.1640    0.6550 H   0  0  0  0  0  0  0  0  0  0  0  0
   -0.5070    0.4500    1.7630 N   0  0  0  0  0  0  0  0  0  0  0  0
   -1.7180    0.1330    1.1160 C   0  0  1  0  0  0  0  0  0  0  0  0
   -2.1930    1.2790    0.2130 C   0  0  0  0  0  0  0  0  0  0  0  0
   -1.2200    1.6660   -0.8190 C   0  0  0  0  0  0  0  0  0  0  0  0
   -0.3150    2.7450   -0.7010 C   0  0  0  0  0  0  0  0  0  0  0  0
    0.4330    2.7950   -1.7980 N   0  0  0  0  0  0  0  0  0  0  0  0
    0.0640    1.8020   -2.6330 C   0  0  0  0  0  0  0  0  0  0  0  0
    0.5070    1.4160   -3.8900 C   0  0  0  0  0  0  0  0  0  0  0  0
   -0.0310    0.3540   -4.5820 C   0  0  0  0  0  0  0  0  0  0  0  0
   -1.0540   -0.3470   -3.9830 C   0  0  0  0  0  0  0  0  0  0  0  0
   -1.5100    0.0230   -2.7260 C   0  0  0  0  0  0  0  0  0  0  0  0
   -0.9660    1.0960   -2.0280 C   0  0  0  0  0  0  0  0  0  0  0  0
   -2.0150   -1.1620    0.5830 C   0  0  0  0  0  0  0  0  0  0  0  0
   -3.2090   -1.2700    0.0720 O   0  0  0  0  0  0  0  0  0  0  0  0
   -0.5470    0.8990    2.7300 H   0  0  0  0  0  0  0  0  0  0  0  0
   -2.5130    0.2240    1.9940 H   0  0  0  0  0  0  0  0  0  0  0  0
   -2.3810    2.1530    0.8690 H   0  0  0  0  0  0  0  0  0  0  0  0
   -3.1730    0.9810   -0.2060 H   0  0  0  0  0  0  0  0  0  0  0  0
   -0.2730    3.4080    0.1730 H   0  0  0  0  0  0  0  0  0  0  0  0
    1.2050    3.4750   -2.0380 H   0  0  0  0  0  0  0  0  0  0  0  0
    1.3120    1.9840   -4.3380 H   0  0  0  0  0  0  0  0  0  0  0  0
    0.3130    0.0480   -5.5670 H   0  0  0  0  0  0  0  0  0  0  0  0
   -1.5370   -1.1980   -4.4540 H   0  0  0  0  0  0  0  0  0  0  0  0
   -2.3170   -0.5050   -2.2440 H   0  0  0  0  0  0  0  0  0  0  0  0
   -0.7970   -3.3310   -2.3990 C   0  0  0  0  0  0  0  0  0  0  0  0
   -0.9050   -4.1340   -1.1430 C   0  0  1  0  0  0  0  0  0  0  0  0
    0.3680   -4.4740   -0.6820 O   0  0  0  0  0  0  0  0  0  0  0  0
   -1.7630   -3.5480   -0.0770 C   0  0  2  0  0  0  0  0  0  0  0  0
   -1.2450   -2.3400    0.5160 N   0  0  0  0  0  0  0  0  0  0  0  0
   -1.9310   -4.5880    0.9750 C   0  0  0  0  0  0  0  0  0  0  0  0
   -2.3710   -5.7270    0.6910 O   0  0  0  0  0  0  0  0  0  0  0  0
   -1.5950   -4.2770    2.2700 O   0  0  0  0  0  0  0  0  0  0  0  0
   -1.7800   -3.0160   -2.7610 H   0  0  0  0  0  0  0  0  0  0  0  0
   -0.3880   -4.0250   -3.1910 H   0  0  0  0  0  0  0  0  0  0  0  0
   -0.0550   -2.5100   -2.3340 H   0  0  0  0  0  0  0  0  0  0  0  0
   -1.3830   -5.1160   -1.4290 H   0  0  0  0  0  0  0  0  0  0  0  0
    0.7200   -5.2930   -1.1160 H   0  0  0  0  0  0  0  0  0  0  0  0
   -2.7820   -3.3690   -0.4880 H   0  0  0  0  0  0  0  0  0  0  0  0
   -0.2900   -2.3730    0.8980 H   0  0  0  0  0  0  0  0  0  0  0  0
  1  9  1  0  0  0  0
  1  2  1  0  0  0  0
  1 11  1  0  0  0  0
  2 12  1  0  0  0  0
  3  2  1  0  0  0  0
  3 13  1  0  0  0  0
  3 15  1  0  0  0  0
  4 17  1  0  0  0  0
  4 16  1  0  0  0  0
  4  2  1  0  0  0  0
  5 18  1  6  0  0  0
  5  4  1  0  0  0  0
  6 19  1  0  0  0  0
  6  5  1  0  0  0  0
  7 21  1  0  0  0  0
  7  5  1  0  0  0  0
  8  7  2  0  0  0  0
 10  1  1  0  0  0  0
 14  3  1  0  0  0  0
 20  6  1  0  0  0  0
 21 35  1  0  0  0  0
 22 21  1  0  0  0  0
 22 36  1  1  0  0  0
 23 37  1  0  0  0  0
 23 22  1  0  0  0  0
 24 25  2  0  0  0  0
 24 23  1  0  0  0  0
 25 39  1  0  0  0  0
 26 25  1  0  0  0  0
 27 32  1  0  0  0  0
 27 26  1  0  0  0  0
 28 27  2  0  0  0  0
 29 30  2  0  0  0  0
 29 28  1  0  0  0  0
 30 31  1  0  0  0  0
 31 44  1  0  0  0  0
 31 32  2  0  0  0  0
 32 24  1  0  0  0  0
 33 22  1  0  0  0  0
 34 33  2  0  0  0  0
 38 23  1  0  0  0  0
 40 26  1  0  0  0  0
 41 28  1  0  0  0  0
 42 29  1  0  0  0  0
 43 30  1  0  0  0  0
 45 55  1  0  0  0  0
 45 46  1  0  0  0  0
 46 56  1  6  0  0  0
 46 47  1  0  0  0  0
 46 48  1  0  0  0  0
 48 58  1  6  0  0  0
 48 49  1  0  0  0  0
 48 50  1  0  0  0  0
 49 33  1  0  0  0  0
 49 59  1  0  0  0  0
 50 52  1  0  0  0  0
 51 50  2  0  0  0  0
 53 45  1  0  0  0  0
 54 45  1  0  0  0  0
 57 47  1  0  0  0  0
M  END
$$$$
