LYA.pdb
 OpenBabel07022418483D

 52 52  0  0  1  0  0  0  0  0999 V2000
    3.6640   -2.6290    2.3360 C   0  0  0  0  0  0  0  0  0  0  0  0
    2.5280   -1.9260    3.0500 C   0  0  0  0  0  0  0  0  0  0  0  0
    2.5350   -2.3080    4.4900 C   0  0  0  0  0  0  0  0  0  0  0  0
    2.6580   -0.4610    2.7960 C   0  0  0  0  0  0  0  0  0  0  0  0
    1.5950    0.3720    3.4450 C   0  0  2  0  0  0  0  0  0  0  0  0
    1.5850    0.2320    4.8810 N   0  0  0  0  0  0  0  0  0  0  0  0
    0.2320    0.0740    2.9120 C   0  0  0  0  0  0  0  0  0  0  0  0
   -0.7250   -0.2430    3.6650 O   0  0  0  0  0  0  0  0  0  0  0  0
    4.1420   -1.9510    1.5960 H   0  0  0  0  0  0  0  0  0  0  0  0
    3.3360   -3.5340    1.8070 H   0  0  0  0  0  0  0  0  0  0  0  0
    4.4250   -2.9410    3.1090 H   0  0  0  0  0  0  0  0  0  0  0  0
    1.5860   -2.3160    2.5800 H   0  0  0  0  0  0  0  0  0  0  0  0
    1.4850   -2.2570    4.8600 H   0  0  0  0  0  0  0  0  0  0  0  0
    3.2440   -1.7550    5.1090 H   0  0  0  0  0  0  0  0  0  0  0  0
    2.8110   -3.3940    4.5600 H   0  0  0  0  0  0  0  0  0  0  0  0
    2.5940   -0.3010    1.6980 H   0  0  0  0  0  0  0  0  0  0  0  0
    3.6330   -0.1030    3.1360 H   0  0  0  0  0  0  0  0  0  0  0  0
    1.8150    1.4340    3.2100 H   0  0  0  0  0  0  0  0  0  0  0  0
    2.4160    0.6670    5.3230 H   0  0  0  0  0  0  0  0  0  0  0  0
    0.6810    0.5610    5.2830 H   0  0  0  0  0  0  0  0  0  0  0  0
    0.7790    3.1290   -4.1000 O   0  0  0  0  0  0  0  0  0  0  0  0
    0.1020    2.6290   -2.9740 C   0  0  0  0  0  0  0  0  0  0  0  0
    0.3820    3.0760   -1.7190 C   0  0  0  0  0  0  0  0  0  0  0  0
   -0.2910    2.5770   -0.6150 C   0  0  0  0  0  0  0  0  0  0  0  0
   -1.2710    1.6080   -0.7430 C   0  0  0  0  0  0  0  0  0  0  0  0
   -2.0080    1.0520    0.3880 C   0  0  0  0  0  0  0  0  0  0  0  0
   -1.3760   -0.1560    1.0200 C   0  0  2  0  0  0  0  0  0  0  0  0
   -0.0470    0.1360    1.5210 N   0  0  0  0  0  0  0  0  0  0  0  0
   -1.3150   -1.3470    0.1410 C   0  0  0  0  0  0  0  0  0  0  0  0
   -0.2040   -1.9120   -0.0910 O   0  0  0  0  0  0  0  0  0  0  0  0
   -1.5370    1.1710   -2.0220 C   0  0  0  0  0  0  0  0  0  0  0  0
   -0.8710    1.6630   -3.1310 C   0  0  0  0  0  0  0  0  0  0  0  0
    0.2150    3.3600   -4.9110 H   0  0  0  0  0  0  0  0  0  0  0  0
    1.1590    3.8450   -1.6210 H   0  0  0  0  0  0  0  0  0  0  0  0
   -0.0670    2.9320    0.3670 H   0  0  0  0  0  0  0  0  0  0  0  0
   -2.1100    1.8310    1.1570 H   0  0  0  0  0  0  0  0  0  0  0  0
   -3.0360    0.8110    0.0480 H   0  0  0  0  0  0  0  0  0  0  0  0
   -2.0380   -0.4100    1.9010 H   0  0  0  0  0  0  0  0  0  0  0  0
    0.7350    0.3970    0.8830 H   0  0  0  0  0  0  0  0  0  0  0  0
   -2.2930    0.4180   -2.1680 H   0  0  0  0  0  0  0  0  0  0  0  0
   -1.0680    1.3300   -4.1420 H   0  0  0  0  0  0  0  0  0  0  0  0
   -2.9100   -4.3010   -0.5690 C   0  0  0  0  0  0  0  0  0  0  0  0
   -2.2830   -3.1270   -1.3480 C   0  0  2  0  0  0  0  0  0  0  0  0
   -2.4380   -1.9440   -0.4950 N   0  0  0  0  0  0  0  0  0  0  0  0
   -3.0220   -2.9240   -2.5980 C   0  0  0  0  0  0  0  0  0  0  0  0
   -3.6590   -1.8650   -2.7770 O   0  0  0  0  0  0  0  0  0  0  0  0
   -3.0280   -3.8850   -3.5830 O   0  0  0  0  0  0  0  0  0  0  0  0
   -2.5880   -4.3150    0.4720 H   0  0  0  0  0  0  0  0  0  0  0  0
   -4.0070   -4.1530   -0.6780 H   0  0  0  0  0  0  0  0  0  0  0  0
   -2.6690   -5.2670   -1.0510 H   0  0  0  0  0  0  0  0  0  0  0  0
   -1.2280   -3.4070   -1.4580 H   0  0  0  0  0  0  0  0  0  0  0  0
   -3.3690   -1.5210   -0.3400 H   0  0  0  0  0  0  0  0  0  0  0  0
  1  2  1  0  0  0  0
  1 11  1  0  0  0  0
  2  3  1  0  0  0  0
  3 15  1  0  0  0  0
  3 13  1  0  0  0  0
  3 14  1  0  0  0  0
  4  2  1  0  0  0  0
  4 17  1  0  0  0  0
  4  5  1  0  0  0  0
  5 18  1  6  0  0  0
  5  6  1  0  0  0  0
  6 20  1  0  0  0  0
  6 19  1  0  0  0  0
  7  5  1  0  0  0  0
  7  8  2  0  0  0  0
  9  1  1  0  0  0  0
 10  1  1  0  0  0  0
 12  2  1  0  0  0  0
 16  4  1  0  0  0  0
 21 22  1  0  0  0  0
 22 23  1  0  0  0  0
 23 34  1  0  0  0  0
 23 24  2  0  0  0  0
 24 35  1  0  0  0  0
 25 24  1  0  0  0  0
 25 26  1  0  0  0  0
 26 27  1  0  0  0  0
 26 36  1  0  0  0  0
 27 28  1  0  0  0  0
 27 38  1  1  0  0  0
 28  7  1  0  0  0  0
 29 27  1  0  0  0  0
 30 29  2  0  0  0  0
 31 25  2  0  0  0  0
 32 22  2  0  0  0  0
 32 31  1  0  0  0  0
 33 21  1  0  0  0  0
 37 26  1  0  0  0  0
 39 28  1  0  0  0  0
 40 31  1  0  0  0  0
 41 32  1  0  0  0  0
 42 48  1  0  0  0  0
 43 51  1  6  0  0  0
 43 42  1  0  0  0  0
 43 44  1  0  0  0  0
 44 52  1  0  0  0  0
 44 29  1  0  0  0  0
 45 43  1  0  0  0  0
 46 45  1  0  0  0  0
 47 45  2  0  0  0  0
 49 42  1  0  0  0  0
 50 42  1  0  0  0  0
M  END
$$$$
