LYD.pdb
 OpenBabel07022418483D

 55 55  0  0  1  0  0  0  0  0999 V2000
    1.7100    2.6050    2.2460 C   0  0  0  0  0  0  0  0  0  0  0  0
    2.7580    1.7700    2.9690 C   0  0  0  0  0  0  0  0  0  0  0  0
    3.8320    1.3230    2.0190 C   0  0  0  0  0  0  0  0  0  0  0  0
    2.1720    0.6790    3.7830 C   0  0  0  0  0  0  0  0  0  0  0  0
    1.3630   -0.3300    3.0530 C   0  0  2  0  0  0  0  0  0  0  0  0
    2.1140   -1.0290    2.0260 N   0  0  0  0  0  0  0  0  0  0  0  0
    0.0520    0.1330    2.5710 C   0  0  0  0  0  0  0  0  0  0  0  0
   -0.7100    0.7570    3.3490 O   0  0  0  0  0  0  0  0  0  0  0  0
    0.9080    2.9310    2.9120 H   0  0  0  0  0  0  0  0  0  0  0  0
    2.1750    3.5510    1.8500 H   0  0  0  0  0  0  0  0  0  0  0  0
    1.3850    2.0500    1.3510 H   0  0  0  0  0  0  0  0  0  0  0  0
    3.2500    2.4860    3.6870 H   0  0  0  0  0  0  0  0  0  0  0  0
    4.6040    0.7690    2.5700 H   0  0  0  0  0  0  0  0  0  0  0  0
    3.4570    0.7670    1.1520 H   0  0  0  0  0  0  0  0  0  0  0  0
    4.3170    2.2520    1.6140 H   0  0  0  0  0  0  0  0  0  0  0  0
    1.5540    1.1240    4.5830 H   0  0  0  0  0  0  0  0  0  0  0  0
    3.0010    0.1500    4.2940 H   0  0  0  0  0  0  0  0  0  0  0  0
    1.1250   -1.1390    3.8110 H   0  0  0  0  0  0  0  0  0  0  0  0
    3.0610   -1.2360    2.4200 H   0  0  0  0  0  0  0  0  0  0  0  0
    1.6930   -1.9760    1.8200 H   0  0  0  0  0  0  0  0  0  0  0  0
    1.0960   -0.9560   -4.8680 O   0  0  0  0  0  0  0  0  0  0  0  0
    0.4750   -0.3960   -3.7610 C   0  0  0  0  0  0  0  0  0  0  0  0
    1.1570    0.2720   -2.7640 C   0  0  0  0  0  0  0  0  0  0  0  0
    0.4990    0.8150   -1.6790 C   0  0  0  0  0  0  0  0  0  0  0  0
   -0.8800    0.7080   -1.5490 C   0  0  0  0  0  0  0  0  0  0  0  0
   -1.5650    1.2920   -0.3850 C   0  0  0  0  0  0  0  0  0  0  0  0
   -1.6880    0.3560    0.7720 C   0  0  2  0  0  0  0  0  0  0  0  0
   -0.4160   -0.0870    1.2550 N   0  0  0  0  0  0  0  0  0  0  0  0
   -2.5550   -0.7820    0.3810 C   0  0  0  0  0  0  0  0  0  0  0  0
   -3.7110   -0.5690   -0.0610 O   0  0  0  0  0  0  0  0  0  0  0  0
   -1.5380    0.0330   -2.5630 C   0  0  0  0  0  0  0  0  0  0  0  0
   -0.8840   -0.5110   -3.6500 C   0  0  0  0  0  0  0  0  0  0  0  0
    1.8780   -0.4630   -5.2850 H   0  0  0  0  0  0  0  0  0  0  0  0
    2.2290    0.3530   -2.8670 H   0  0  0  0  0  0  0  0  0  0  0  0
    1.0640    1.3320   -0.9150 H   0  0  0  0  0  0  0  0  0  0  0  0
   -0.9480    2.1670   -0.0510 H   0  0  0  0  0  0  0  0  0  0  0  0
   -2.5630    1.7060   -0.6300 H   0  0  0  0  0  0  0  0  0  0  0  0
   -2.2120    0.8960    1.5940 H   0  0  0  0  0  0  0  0  0  0  0  0
    0.2150   -0.6050    0.6070 H   0  0  0  0  0  0  0  0  0  0  0  0
   -2.5970   -0.0840   -2.5260 H   0  0  0  0  0  0  0  0  0  0  0  0
   -1.4610   -1.0330   -4.4190 H   0  0  0  0  0  0  0  0  0  0  0  0
   -2.1460   -2.1440    0.4800 N   0  0  0  0  0  0  0  0  0  0  0  0
   -3.0530   -3.1900    0.0780 C   0  0  1  0  0  0  0  0  0  0  0  0
   -2.4110   -3.9430   -1.0640 C   0  0  0  0  0  0  0  0  0  0  0  0
   -1.1220   -4.5710   -0.7170 C   0  0  0  0  0  0  0  0  0  0  0  0
   -0.4720   -5.1680   -1.6070 O   0  0  0  0  0  0  0  0  0  0  0  0
   -3.3410   -4.1570    1.1400 C   0  0  0  0  0  0  0  0  0  0  0  0
   -2.8410   -4.0690    2.2720 O   0  0  0  0  0  0  0  0  0  0  0  0
   -0.5870   -4.5370    0.5550 O   0  0  0  0  0  0  0  0  0  0  0  0
   -4.2020   -5.2060    0.8650 O   0  0  0  0  0  0  0  0  0  0  0  0
   -1.2090   -2.3340    0.8380 H   0  0  0  0  0  0  0  0  0  0  0  0
   -4.0260   -2.7860   -0.2670 H   0  0  0  0  0  0  0  0  0  0  0  0
   -2.2080   -3.2640   -1.9350 H   0  0  0  0  0  0  0  0  0  0  0  0
   -3.1260   -4.7010   -1.4700 H   0  0  0  0  0  0  0  0  0  0  0  0
    0.3700   -4.8680    0.7490 H   0  0  0  0  0  0  0  0  0  0  0  0
  1  9  1  0  0  0  0
  1  2  1  0  0  0  0
  2 12  1  0  0  0  0
  2  4  1  0  0  0  0
  3 13  1  0  0  0  0
  3  2  1  0  0  0  0
  4 17  1  0  0  0  0
  4 16  1  0  0  0  0
  5  4  1  0  0  0  0
  5 18  1  1  0  0  0
  6 19  1  0  0  0  0
  6  5  1  0  0  0  0
  7  5  1  0  0  0  0
  7  8  2  0  0  0  0
 10  1  1  0  0  0  0
 11  1  1  0  0  0  0
 14  3  1  0  0  0  0
 15  3  1  0  0  0  0
 20  6  1  0  0  0  0
 21 22  1  0  0  0  0
 22 32  2  0  0  0  0
 22 23  1  0  0  0  0
 23 24  2  0  0  0  0
 24 25  1  0  0  0  0
 24 35  1  0  0  0  0
 25 26  1  0  0  0  0
 26 36  1  0  0  0  0
 26 27  1  0  0  0  0
 27 28  1  0  0  0  0
 27 38  1  1  0  0  0
 28  7  1  0  0  0  0
 29 42  1  0  0  0  0
 29 27  1  0  0  0  0
 30 29  2  0  0  0  0
 31 40  1  0  0  0  0
 31 25  2  0  0  0  0
 32 31  1  0  0  0  0
 33 21  1  0  0  0  0
 34 23  1  0  0  0  0
 37 26  1  0  0  0  0
 39 28  1  0  0  0  0
 41 32  1  0  0  0  0
 42 51  1  0  0  0  0
 43 52  1  6  0  0  0
 43 42  1  0  0  0  0
 43 47  1  0  0  0  0
 44 45  1  0  0  0  0
 44 43  1  0  0  0  0
 45 49  1  0  0  0  0
 46 45  2  0  0  0  0
 47 48  1  0  0  0  0
 49 55  1  0  0  0  0
 50 47  2  0  0  0  0
 53 44  1  0  0  0  0
 54 44  1  0  0  0  0
M  END
$$$$
