LYF.pdb
 OpenBabel07022418483D

 62 63  0  0  1  0  0  0  0  0999 V2000
    2.3670    1.2730    4.5720 C   0  0  0  0  0  0  0  0  0  0  0  0
    1.4120    0.1430    4.8060 C   0  0  0  0  0  0  0  0  0  0  0  0
    1.2180    0.0110    6.3100 C   0  0  0  0  0  0  0  0  0  0  0  0
    1.8990   -1.1880    4.3140 C   0  0  0  0  0  0  0  0  0  0  0  0
    2.1600   -1.1630    2.8050 C   0  0  2  0  0  0  0  0  0  0  0  0
    3.1340   -0.1950    2.5390 N   0  0  0  0  0  0  0  0  0  0  0  0
    0.8860   -1.0650    2.1170 C   0  0  0  0  0  0  0  0  0  0  0  0
    0.0220   -1.9570    2.3840 O   0  0  0  0  0  0  0  0  0  0  0  0
    2.1940    1.8090    3.6110 H   0  0  0  0  0  0  0  0  0  0  0  0
    2.1550    2.0350    5.3690 H   0  0  0  0  0  0  0  0  0  0  0  0
    3.4270    0.9390    4.6250 H   0  0  0  0  0  0  0  0  0  0  0  0
    0.4520    0.3720    4.2980 H   0  0  0  0  0  0  0  0  0  0  0  0
    0.9240   -1.0280    6.5240 H   0  0  0  0  0  0  0  0  0  0  0  0
    0.5030    0.7530    6.6910 H   0  0  0  0  0  0  0  0  0  0  0  0
    2.2270    0.2190    6.7590 H   0  0  0  0  0  0  0  0  0  0  0  0
    1.0870   -1.9220    4.5090 H   0  0  0  0  0  0  0  0  0  0  0  0
    2.8060   -1.5280    4.8490 H   0  0  0  0  0  0  0  0  0  0  0  0
    2.5900   -2.1840    2.5840 H   0  0  0  0  0  0  0  0  0  0  0  0
    3.0030    0.4760    1.7900 H   0  0  0  0  0  0  0  0  0  0  0  0
    4.1140   -0.5050    2.7130 H   0  0  0  0  0  0  0  0  0  0  0  0
   -6.8300    1.4440   -1.3620 O   0  0  0  0  0  0  0  0  0  0  0  0
   -5.5470    1.3670   -0.7980 C   0  0  0  0  0  0  0  0  0  0  0  0
   -4.4680    1.9850   -1.3970 C   0  0  0  0  0  0  0  0  0  0  0  0
   -3.2190    1.8960   -0.8270 C   0  0  0  0  0  0  0  0  0  0  0  0
   -2.9550    1.2090    0.3440 C   0  0  0  0  0  0  0  0  0  0  0  0
   -1.6140    1.1170    0.9420 C   0  0  0  0  0  0  0  0  0  0  0  0
   -0.8110   -0.0710    0.5410 C   0  0  2  0  0  0  0  0  0  0  0  0
    0.4960   -0.0870    1.1800 N   0  0  0  0  0  0  0  0  0  0  0  0
   -0.7250   -0.2990   -0.9040 C   0  0  0  0  0  0  0  0  0  0  0  0
   -1.7470   -0.2800   -1.6030 O   0  0  0  0  0  0  0  0  0  0  0  0
   -4.0660    0.5890    0.9380 C   0  0  0  0  0  0  0  0  0  0  0  0
   -5.3120    0.6790    0.3670 C   0  0  0  0  0  0  0  0  0  0  0  0
   -7.0160    0.9100   -2.2200 H   0  0  0  0  0  0  0  0  0  0  0  0
   -4.5690    2.5420   -2.3080 H   0  0  0  0  0  0  0  0  0  0  0  0
   -2.3520    2.3850   -1.2880 H   0  0  0  0  0  0  0  0  0  0  0  0
   -1.0940    2.0810    0.7080 H   0  0  0  0  0  0  0  0  0  0  0  0
   -1.7730    1.1230    2.0580 H   0  0  0  0  0  0  0  0  0  0  0  0
   -1.3550   -0.9680    0.9680 H   0  0  0  0  0  0  0  0  0  0  0  0
    1.1700    0.6500    0.9380 H   0  0  0  0  0  0  0  0  0  0  0  0
   -3.8590    0.0520    1.8520 H   0  0  0  0  0  0  0  0  0  0  0  0
   -6.1390    0.1910    0.8490 H   0  0  0  0  0  0  0  0  0  0  0  0
    0.5260   -0.5480   -1.5390 N   0  0  0  0  0  0  0  0  0  0  0  0
    0.6260   -0.7750   -2.9550 C   0  0  1  0  0  0  0  0  0  0  0  0
   -0.0530   -2.0140   -3.4340 C   0  0  0  0  0  0  0  0  0  0  0  0
    0.4590   -3.2540   -2.8350 C   0  0  0  0  0  0  0  0  0  0  0  0
    1.4860   -3.9280   -3.4490 C   0  0  0  0  0  0  0  0  0  0  0  0
    1.9840   -5.1040   -2.8930 C   0  0  0  0  0  0  0  0  0  0  0  0
    1.4360   -5.5830   -1.7220 C   0  0  0  0  0  0  0  0  0  0  0  0
    0.4040   -4.9030   -1.1080 C   0  0  0  0  0  0  0  0  0  0  0  0
   -0.0650   -3.7500   -1.6780 C   0  0  0  0  0  0  0  0  0  0  0  0
    0.0230    0.3810   -3.7160 C   0  0  0  0  0  0  0  0  0  0  0  0
   -0.0290    0.3880   -4.9710 O   0  0  0  0  0  0  0  0  0  0  0  0
   -0.5020    1.4870   -3.0760 O   0  0  0  0  0  0  0  0  0  0  0  0
    1.3580   -0.5540   -0.9030 H   0  0  0  0  0  0  0  0  0  0  0  0
    1.7170   -0.7430   -3.2110 H   0  0  0  0  0  0  0  0  0  0  0  0
   -1.1660   -1.9530   -3.3450 H   0  0  0  0  0  0  0  0  0  0  0  0
    0.1260   -2.0730   -4.5380 H   0  0  0  0  0  0  0  0  0  0  0  0
    1.9110   -3.5480   -4.3650 H   0  0  0  0  0  0  0  0  0  0  0  0
    2.7820   -5.6590   -3.3390 H   0  0  0  0  0  0  0  0  0  0  0  0
    1.7910   -6.5070   -1.2410 H   0  0  0  0  0  0  0  0  0  0  0  0
   -0.0340   -5.2930   -0.1670 H   0  0  0  0  0  0  0  0  0  0  0  0
   -0.8740   -3.2320   -1.1810 H   0  0  0  0  0  0  0  0  0  0  0  0
  1 11  1  0  0  0  0
  1  2  1  0  0  0  0
  1 10  1  0  0  0  0
  2  3  1  0  0  0  0
  3 13  1  0  0  0  0
  3 14  1  0  0  0  0
  3 15  1  0  0  0  0
  4 16  1  0  0  0  0
  4  2  1  0  0  0  0
  4 17  1  0  0  0  0
  5 18  1  6  0  0  0
  5  4  1  0  0  0  0
  6 20  1  0  0  0  0
  6  5  1  0  0  0  0
  7  8  2  0  0  0  0
  7  5  1  0  0  0  0
  9  1  1  0  0  0  0
 12  2  1  0  0  0  0
 19  6  1  0  0  0  0
 21 22  1  0  0  0  0
 22 32  1  0  0  0  0
 23 24  1  0  0  0  0
 23 22  2  0  0  0  0
 24 25  2  0  0  0  0
 25 31  1  0  0  0  0
 25 26  1  0  0  0  0
 26 37  1  0  0  0  0
 27 26  1  0  0  0  0
 27 38  1  1  0  0  0
 27 28  1  0  0  0  0
 28  7  1  0  0  0  0
 29 27  1  0  0  0  0
 30 29  2  0  0  0  0
 31 40  1  0  0  0  0
 32 41  1  0  0  0  0
 32 31  2  0  0  0  0
 33 21  1  0  0  0  0
 34 23  1  0  0  0  0
 35 24  1  0  0  0  0
 36 26  1  0  0  0  0
 39 28  1  0  0  0  0
 42 29  1  0  0  0  0
 42 54  1  0  0  0  0
 43 55  1  6  0  0  0
 43 42  1  0  0  0  0
 44 56  1  0  0  0  0
 44 43  1  0  0  0  0
 44 45  1  0  0  0  0
 45 50  1  0  0  0  0
 46 47  1  0  0  0  0
 46 45  2  0  0  0  0
 47 48  2  0  0  0  0
 48 60  1  0  0  0  0
 48 49  1  0  0  0  0
 49 61  1  0  0  0  0
 50 62  1  0  0  0  0
 50 49  2  0  0  0  0
 51 53  1  0  0  0  0
 51 43  1  0  0  0  0
 52 51  2  0  0  0  0
 57 44  1  0  0  0  0
 58 46  1  0  0  0  0
 59 47  1  0  0  0  0
M  END
$$$$
