LYG.pdb
 OpenBabel07022418483D

 49 49  0  0  1  0  0  0  0  0999 V2000
    2.3870   -4.3500    0.1990 C   0  0  0  0  0  0  0  0  0  0  0  0
    2.6130   -3.2000    1.1910 C   0  0  0  0  0  0  0  0  0  0  0  0
    1.4540   -3.1870    2.1290 C   0  0  0  0  0  0  0  0  0  0  0  0
    2.8150   -1.9700    0.3810 C   0  0  0  0  0  0  0  0  0  0  0  0
    3.0530   -0.7120    1.1400 C   0  0  2  0  0  0  0  0  0  0  0  0
    4.2200   -0.7750    1.9940 N   0  0  0  0  0  0  0  0  0  0  0  0
    1.9040   -0.1850    1.8870 C   0  0  0  0  0  0  0  0  0  0  0  0
    1.9980    0.0250    3.1450 O   0  0  0  0  0  0  0  0  0  0  0  0
    1.4370   -4.1100   -0.3220 H   0  0  0  0  0  0  0  0  0  0  0  0
    3.1870   -4.4200   -0.5380 H   0  0  0  0  0  0  0  0  0  0  0  0
    2.2190   -5.2830    0.7750 H   0  0  0  0  0  0  0  0  0  0  0  0
    3.5390   -3.3940    1.7810 H   0  0  0  0  0  0  0  0  0  0  0  0
    1.1780   -4.2330    2.4500 H   0  0  0  0  0  0  0  0  0  0  0  0
    0.5830   -2.6130    1.8110 H   0  0  0  0  0  0  0  0  0  0  0  0
    1.8180   -2.7150    3.0890 H   0  0  0  0  0  0  0  0  0  0  0  0
    1.9850   -1.7940   -0.3330 H   0  0  0  0  0  0  0  0  0  0  0  0
    3.7250   -2.1430   -0.2500 H   0  0  0  0  0  0  0  0  0  0  0  0
    3.3060    0.0800    0.3700 H   0  0  0  0  0  0  0  0  0  0  0  0
    4.9560   -1.3970    1.6010 H   0  0  0  0  0  0  0  0  0  0  0  0
    3.9950   -0.9760    2.9880 H   0  0  0  0  0  0  0  0  0  0  0  0
   -1.8150    2.9820   -3.7330 O   0  0  0  0  0  0  0  0  0  0  0  0
   -1.5130    2.7610   -2.3810 C   0  0  0  0  0  0  0  0  0  0  0  0
   -0.1980    2.7220   -1.9610 C   0  0  0  0  0  0  0  0  0  0  0  0
    0.1070    2.5020   -0.6150 C   0  0  0  0  0  0  0  0  0  0  0  0
   -0.9080    2.3230    0.3010 C   0  0  0  0  0  0  0  0  0  0  0  0
   -0.5930    2.0940    1.7000 C   0  0  0  0  0  0  0  0  0  0  0  0
   -0.4270    0.6310    2.0630 C   0  0  2  0  0  0  0  0  0  0  0  0
    0.6490    0.1170    1.2650 N   0  0  0  0  0  0  0  0  0  0  0  0
   -1.6880   -0.1130    1.9570 C   0  0  0  0  0  0  0  0  0  0  0  0
   -2.6420    0.3160    2.6890 O   0  0  0  0  0  0  0  0  0  0  0  0
   -2.2100    2.3650   -0.1350 C   0  0  0  0  0  0  0  0  0  0  0  0
   -2.5320    2.5830   -1.4690 C   0  0  0  0  0  0  0  0  0  0  0  0
   -2.5000    3.7120   -3.9280 H   0  0  0  0  0  0  0  0  0  0  0  0
    0.5700    2.8640   -2.6980 H   0  0  0  0  0  0  0  0  0  0  0  0
    1.1470    2.4780   -0.3290 H   0  0  0  0  0  0  0  0  0  0  0  0
    0.3920    2.5780    1.9180 H   0  0  0  0  0  0  0  0  0  0  0  0
   -1.3110    2.5540    2.4130 H   0  0  0  0  0  0  0  0  0  0  0  0
   -0.1250    0.6370    3.1310 H   0  0  0  0  0  0  0  0  0  0  0  0
    0.5970   -0.0610    0.2460 H   0  0  0  0  0  0  0  0  0  0  0  0
   -2.9860    2.2260    0.5790 H   0  0  0  0  0  0  0  0  0  0  0  0
   -3.5710    2.6080   -1.7640 H   0  0  0  0  0  0  0  0  0  0  0  0
   -1.9230   -1.2330    1.1340 N   0  0  0  0  0  0  0  0  0  0  0  0
   -3.2320   -1.8480    1.1550 C   0  0  0  0  0  0  0  0  0  0  0  0
   -3.3070   -3.0100    0.2330 C   0  0  0  0  0  0  0  0  0  0  0  0
   -4.3550   -3.6730    0.1100 O   0  0  0  0  0  0  0  0  0  0  0  0
   -2.2030   -3.3850   -0.5160 O   0  0  0  0  0  0  0  0  0  0  0  0
   -1.1400   -1.5760    0.5360 H   0  0  0  0  0  0  0  0  0  0  0  0
   -3.5070   -2.2130    2.1690 H   0  0  0  0  0  0  0  0  0  0  0  0
   -4.0280   -1.1360    0.8500 H   0  0  0  0  0  0  0  0  0  0  0  0
  1 11  1  0  0  0  0
  1  2  1  0  0  0  0
  2 12  1  0  0  0  0
  2  3  1  0  0  0  0
  3 13  1  0  0  0  0
  3 15  1  0  0  0  0
  4  5  1  0  0  0  0
  4  2  1  0  0  0  0
  5 18  1  6  0  0  0
  5  7  1  0  0  0  0
  5  6  1  0  0  0  0
  6 20  1  0  0  0  0
  7  8  2  0  0  0  0
  9  1  1  0  0  0  0
 10  1  1  0  0  0  0
 14  3  1  0  0  0  0
 16  4  1  0  0  0  0
 17  4  1  0  0  0  0
 19  6  1  0  0  0  0
 21 22  1  0  0  0  0
 22 23  2  0  0  0  0
 22 32  1  0  0  0  0
 23 24  1  0  0  0  0
 24 35  1  0  0  0  0
 24 25  2  0  0  0  0
 25 26  1  0  0  0  0
 26 36  1  0  0  0  0
 26 27  1  0  0  0  0
 26 37  1  0  0  0  0
 27 38  1  1  0  0  0
 28  7  1  0  0  0  0
 28 27  1  0  0  0  0
 29 27  1  0  0  0  0
 29 30  2  0  0  0  0
 31 25  1  0  0  0  0
 31 40  1  0  0  0  0
 32 31  2  0  0  0  0
 33 21  1  0  0  0  0
 34 23  1  0  0  0  0
 39 28  1  0  0  0  0
 41 32  1  0  0  0  0
 42 43  1  0  0  0  0
 42 29  1  0  0  0  0
 43 48  1  0  0  0  0
 44 43  1  0  0  0  0
 45 44  1  0  0  0  0
 46 44  2  0  0  0  0
 47 42  1  0  0  0  0
 49 43  1  0  0  0  0
M  END
$$$$
