LYN.pdb
 OpenBabel07022418483D

 56 56  0  0  1  0  0  0  0  0999 V2000
    3.6680    0.7200   -0.3070 C   0  0  0  0  0  0  0  0  0  0  0  0
    3.4900    1.4510    0.9980 C   0  0  0  0  0  0  0  0  0  0  0  0
    4.6530    2.4100    1.1520 C   0  0  0  0  0  0  0  0  0  0  0  0
    3.5020    0.5410    2.1900 C   0  0  0  0  0  0  0  0  0  0  0  0
    2.4180   -0.4980    2.1760 C   0  0  2  0  0  0  0  0  0  0  0  0
    2.5400   -1.3500    1.0020 N   0  0  0  0  0  0  0  0  0  0  0  0
    1.0620    0.0700    2.3170 C   0  0  0  0  0  0  0  0  0  0  0  0
    0.7940    0.7990    3.2970 O   0  0  0  0  0  0  0  0  0  0  0  0
    4.3630   -0.1390   -0.2220 H   0  0  0  0  0  0  0  0  0  0  0  0
    2.6680    0.3900   -0.6570 H   0  0  0  0  0  0  0  0  0  0  0  0
    4.0890    1.3650   -1.1060 H   0  0  0  0  0  0  0  0  0  0  0  0
    2.5670    2.0630    0.9820 H   0  0  0  0  0  0  0  0  0  0  0  0
    4.3500    3.3340    1.7080 H   0  0  0  0  0  0  0  0  0  0  0  0
    5.4790    1.9460    1.7330 H   0  0  0  0  0  0  0  0  0  0  0  0
    5.0220    2.7270    0.1570 H   0  0  0  0  0  0  0  0  0  0  0  0
    4.4680    0.0420    2.3140 H   0  0  0  0  0  0  0  0  0  0  0  0
    3.3540    1.1810    3.0870 H   0  0  0  0  0  0  0  0  0  0  0  0
    2.6460   -1.1840    3.0470 H   0  0  0  0  0  0  0  0  0  0  0  0
    3.4500   -1.8780    1.1490 H   0  0  0  0  0  0  0  0  0  0  0  0
    1.8090   -2.0940    0.9900 H   0  0  0  0  0  0  0  0  0  0  0  0
   -1.0470   -0.6930   -4.9420 O   0  0  0  0  0  0  0  0  0  0  0  0
   -1.1730   -0.2030   -3.6370 C   0  0  0  0  0  0  0  0  0  0  0  0
   -0.1290    0.4090   -3.0060 C   0  0  0  0  0  0  0  0  0  0  0  0
   -0.3220    0.8690   -1.7200 C   0  0  0  0  0  0  0  0  0  0  0  0
   -1.5090    0.7430   -1.0400 C   0  0  0  0  0  0  0  0  0  0  0  0
   -1.6230    1.2610    0.3180 C   0  0  0  0  0  0  0  0  0  0  0  0
   -1.2760    0.3020    1.4120 C   0  0  2  0  0  0  0  0  0  0  0  0
    0.0740   -0.1990    1.3650 N   0  0  0  0  0  0  0  0  0  0  0  0
   -2.2360   -0.8110    1.5350 C   0  0  0  0  0  0  0  0  0  0  0  0
   -3.4920   -0.5770    1.5870 O   0  0  0  0  0  0  0  0  0  0  0  0
   -2.5570    0.1260   -1.6780 C   0  0  0  0  0  0  0  0  0  0  0  0
   -2.3770   -0.3370   -2.9610 C   0  0  0  0  0  0  0  0  0  0  0  0
   -0.1580   -0.6080   -5.4040 H   0  0  0  0  0  0  0  0  0  0  0  0
    0.8250    0.5250   -3.5170 H   0  0  0  0  0  0  0  0  0  0  0  0
    0.5570    1.3520   -1.2670 H   0  0  0  0  0  0  0  0  0  0  0  0
   -1.0080    2.1820    0.4920 H   0  0  0  0  0  0  0  0  0  0  0  0
   -2.6760    1.5820    0.4980 H   0  0  0  0  0  0  0  0  0  0  0  0
   -1.3430    0.9010    2.3690 H   0  0  0  0  0  0  0  0  0  0  0  0
    0.2950   -0.8170    0.5260 H   0  0  0  0  0  0  0  0  0  0  0  0
   -3.5160    0.0100   -1.1630 H   0  0  0  0  0  0  0  0  0  0  0  0
   -3.1770   -0.8360   -3.5150 H   0  0  0  0  0  0  0  0  0  0  0  0
   -4.0570   -3.8150   -1.5050 N   0  0  0  0  0  0  0  0  0  0  0  0
   -2.8870   -3.6800   -0.7190 C   0  0  0  0  0  0  0  0  0  0  0  0
   -1.9190   -3.0300   -1.1880 O   0  0  0  0  0  0  0  0  0  0  0  0
   -2.7400   -4.2640    0.6270 C   0  0  0  0  0  0  0  0  0  0  0  0
   -2.8860   -3.2390    1.7220 C   0  0  2  0  0  0  0  0  0  0  0  0
   -1.8820   -2.1840    1.6040 N   0  0  0  0  0  0  0  0  0  0  0  0
   -2.6680   -3.9590    3.0110 C   0  0  0  0  0  0  0  0  0  0  0  0
   -3.3950   -4.9200    3.3720 O   0  0  0  0  0  0  0  0  0  0  0  0
   -1.6350   -3.5690    3.8490 O   0  0  0  0  0  0  0  0  0  0  0  0
   -4.8520   -4.4470   -1.2730 H   0  0  0  0  0  0  0  0  0  0  0  0
   -4.1570   -3.2570   -2.3790 H   0  0  0  0  0  0  0  0  0  0  0  0
   -3.5780   -4.9880    0.7620 H   0  0  0  0  0  0  0  0  0  0  0  0
   -1.8050   -4.8220    0.6740 H   0  0  0  0  0  0  0  0  0  0  0  0
   -3.9010   -2.8480    1.7430 H   0  0  0  0  0  0  0  0  0  0  0  0
   -0.8680   -2.4220    1.5670 H   0  0  0  0  0  0  0  0  0  0  0  0
  1  9  1  0  0  0  0
  1  2  1  0  0  0  0
  2  3  1  0  0  0  0
  2  4  1  0  0  0  0
  3 13  1  0  0  0  0
  3 14  1  0  0  0  0
  4 16  1  0  0  0  0
  4 17  1  0  0  0  0
  5  4  1  0  0  0  0
  5  7  1  0  0  0  0
  5 18  1  1  0  0  0
  6 19  1  0  0  0  0
  6  5  1  0  0  0  0
  7  8  2  0  0  0  0
 10  1  1  0  0  0  0
 11  1  1  0  0  0  0
 12  2  1  0  0  0  0
 15  3  1  0  0  0  0
 20  6  1  0  0  0  0
 21 22  1  0  0  0  0
 22 23  2  0  0  0  0
 22 32  1  0  0  0  0
 23 24  1  0  0  0  0
 24 35  1  0  0  0  0
 24 25  2  0  0  0  0
 25 26  1  0  0  0  0
 26 36  1  0  0  0  0
 26 37  1  0  0  0  0
 26 27  1  0  0  0  0
 27 29  1  0  0  0  0
 27 38  1  1  0  0  0
 28 27  1  0  0  0  0
 28  7  1  0  0  0  0
 29 30  2  0  0  0  0
 29 47  1  0  0  0  0
 31 40  1  0  0  0  0
 31 25  1  0  0  0  0
 32 31  2  0  0  0  0
 33 21  1  0  0  0  0
 34 23  1  0  0  0  0
 39 28  1  0  0  0  0
 41 32  1  0  0  0  0
 42 51  1  0  0  0  0
 42 43  1  0  0  0  0
 43 45  1  0  0  0  0
 44 43  2  0  0  0  0
 45 54  1  0  0  0  0
 45 53  1  0  0  0  0
 45 46  1  0  0  0  0
 46 55  1  6  0  0  0
 46 48  1  0  0  0  0
 47 46  1  0  0  0  0
 48 49  2  0  0  0  0
 48 50  1  0  0  0  0
 52 42  1  0  0  0  0
 56 47  1  0  0  0  0
M  END
$$$$
