LYT.pdb
 OpenBabel07022418483D

 56 56  0  0  1  0  0  0  0  0999 V2000
    4.3640    0.3700    0.4600 C   0  0  0  0  0  0  0  0  0  0  0  0
    3.6310    1.6210    0.9310 C   0  0  0  0  0  0  0  0  0  0  0  0
    4.3040    2.7980    0.2810 C   0  0  0  0  0  0  0  0  0  0  0  0
    2.1670    1.5270    0.5630 C   0  0  0  0  0  0  0  0  0  0  0  0
    1.5120    0.3410    1.1920 C   0  0  2  0  0  0  0  0  0  0  0  0
    2.0970   -0.9190    0.8090 N   0  0  0  0  0  0  0  0  0  0  0  0
    0.0510    0.3630    0.9280 C   0  0  0  0  0  0  0  0  0  0  0  0
   -0.5740    1.4210    1.2240 O   0  0  0  0  0  0  0  0  0  0  0  0
    5.4490    0.6430    0.3130 H   0  0  0  0  0  0  0  0  0  0  0  0
    4.3580   -0.3550    1.2910 H   0  0  0  0  0  0  0  0  0  0  0  0
    3.9350   -0.0500   -0.4560 H   0  0  0  0  0  0  0  0  0  0  0  0
    3.7910    1.7020    2.0130 H   0  0  0  0  0  0  0  0  0  0  0  0
    3.8610    3.0720   -0.6960 H   0  0  0  0  0  0  0  0  0  0  0  0
    4.2570    3.6930    0.9640 H   0  0  0  0  0  0  0  0  0  0  0  0
    5.4100    2.6020    0.1720 H   0  0  0  0  0  0  0  0  0  0  0  0
    2.0720    1.4470   -0.5340 H   0  0  0  0  0  0  0  0  0  0  0  0
    1.6580    2.4330    0.9210 H   0  0  0  0  0  0  0  0  0  0  0  0
    1.6790    0.4330    2.3050 H   0  0  0  0  0  0  0  0  0  0  0  0
    2.0690   -1.6420    1.5350 H   0  0  0  0  0  0  0  0  0  0  0  0
    1.8640   -1.2290   -0.1390 H   0  0  0  0  0  0  0  0  0  0  0  0
   -0.3890    2.8490   -4.8800 O   0  0  0  0  0  0  0  0  0  0  0  0
   -0.8670    1.8770   -4.0040 C   0  0  0  0  0  0  0  0  0  0  0  0
   -0.1250    0.7570   -3.6840 C   0  0  0  0  0  0  0  0  0  0  0  0
   -0.6010   -0.2040   -2.8170 C   0  0  0  0  0  0  0  0  0  0  0  0
   -1.8460   -0.0250   -2.2660 C   0  0  0  0  0  0  0  0  0  0  0  0
   -2.4200   -1.0030   -1.3350 C   0  0  0  0  0  0  0  0  0  0  0  0
   -2.0870   -0.7220    0.1080 C   0  0  2  0  0  0  0  0  0  0  0  0
   -0.6670   -0.7270    0.3710 N   0  0  0  0  0  0  0  0  0  0  0  0
   -2.7790   -1.7860    0.9210 C   0  0  0  0  0  0  0  0  0  0  0  0
   -4.0150   -1.9610    0.8500 O   0  0  0  0  0  0  0  0  0  0  0  0
   -2.5850    1.0960   -2.5880 C   0  0  0  0  0  0  0  0  0  0  0  0
   -2.1210    2.0660   -3.4550 C   0  0  0  0  0  0  0  0  0  0  0  0
    0.3210    2.5300   -5.5490 H   0  0  0  0  0  0  0  0  0  0  0  0
    0.8520    0.6280   -4.1240 H   0  0  0  0  0  0  0  0  0  0  0  0
    0.0220   -1.0760   -2.5920 H   0  0  0  0  0  0  0  0  0  0  0  0
   -3.5290   -0.9890   -1.4180 H   0  0  0  0  0  0  0  0  0  0  0  0
   -2.1010   -2.0090   -1.6580 H   0  0  0  0  0  0  0  0  0  0  0  0
   -2.5560    0.2420    0.3950 H   0  0  0  0  0  0  0  0  0  0  0  0
   -0.1260   -1.5830    0.1380 H   0  0  0  0  0  0  0  0  0  0  0  0
   -3.5740    1.2620   -2.1660 H   0  0  0  0  0  0  0  0  0  0  0  0
   -2.6850    2.9510   -3.7190 H   0  0  0  0  0  0  0  0  0  0  0  0
   -0.6690   -5.1000    2.6630 C   0  0  0  0  0  0  0  0  0  0  0  0
   -2.1330   -5.0340    2.2800 C   0  0  1  0  0  0  0  0  0  0  0  0
   -2.8150   -5.9420    3.0910 O   0  0  0  0  0  0  0  0  0  0  0  0
   -2.6890   -3.6620    2.5920 C   0  0  2  0  0  0  0  0  0  0  0  0
   -2.0470   -2.6320    1.8000 N   0  0  0  0  0  0  0  0  0  0  0  0
   -2.3890   -3.3840    4.0180 C   0  0  0  0  0  0  0  0  0  0  0  0
   -2.8230   -4.1250    4.9420 O   0  0  0  0  0  0  0  0  0  0  0  0
   -1.6160   -2.2960    4.3940 O   0  0  0  0  0  0  0  0  0  0  0  0
   -0.0270   -4.5290    1.9530 H   0  0  0  0  0  0  0  0  0  0  0  0
   -0.2960   -6.1240    2.7090 H   0  0  0  0  0  0  0  0  0  0  0  0
   -0.5530   -4.6240    3.6510 H   0  0  0  0  0  0  0  0  0  0  0  0
   -2.2920   -5.3240    1.2340 H   0  0  0  0  0  0  0  0  0  0  0  0
   -3.7690   -5.6920    3.2020 H   0  0  0  0  0  0  0  0  0  0  0  0
   -3.7800   -3.6610    2.3930 H   0  0  0  0  0  0  0  0  0  0  0  0
   -1.0130   -2.5390    1.9060 H   0  0  0  0  0  0  0  0  0  0  0  0
  1  2  1  0  0  0  0
  1 10  1  0  0  0  0
  2 12  1  0  0  0  0
  3  2  1  0  0  0  0
  3 14  1  0  0  0  0
  4 17  1  0  0  0  0
  4  2  1  0  0  0  0
  4  5  1  0  0  0  0
  5 18  1  1  0  0  0
  6  5  1  0  0  0  0
  6 19  1  0  0  0  0
  7  5  1  0  0  0  0
  7  8  2  0  0  0  0
  9  1  1  0  0  0  0
 11  1  1  0  0  0  0
 13  3  1  0  0  0  0
 15  3  1  0  0  0  0
 16  4  1  0  0  0  0
 20  6  1  0  0  0  0
 21 22  1  0  0  0  0
 22 23  2  0  0  0  0
 22 32  1  0  0  0  0
 23 24  1  0  0  0  0
 24 35  1  0  0  0  0
 24 25  2  0  0  0  0
 25 26  1  0  0  0  0
 26 27  1  0  0  0  0
 27 28  1  0  0  0  0
 27 38  1  1  0  0  0
 27 29  1  0  0  0  0
 28  7  1  0  0  0  0
 29 46  1  0  0  0  0
 30 29  2  0  0  0  0
 31 25  1  0  0  0  0
 31 40  1  0  0  0  0
 32 31  2  0  0  0  0
 33 21  1  0  0  0  0
 34 23  1  0  0  0  0
 36 26  1  0  0  0  0
 37 26  1  0  0  0  0
 39 28  1  0  0  0  0
 41 32  1  0  0  0  0
 42 51  1  0  0  0  0
 42 52  1  0  0  0  0
 43 53  1  6  0  0  0
 43 45  1  0  0  0  0
 43 42  1  0  0  0  0
 43 44  1  0  0  0  0
 44 54  1  0  0  0  0
 45 55  1  6  0  0  0
 45 47  1  0  0  0  0
 46 56  1  0  0  0  0
 46 45  1  0  0  0  0
 47 49  2  0  0  0  0
 47 48  1  0  0  0  0
 50 42  1  0  0  0  0
M  END
$$$$
