MAI.pdb
 OpenBabel07022418533D

 48 47  0  0  1  0  0  0  0  0999 V2000
   -1.3410   -5.6130   -0.8590 C   0  0  0  0  0  0  0  0  0  0  0  0
   -0.0230   -6.2220   -1.9040 S   0  0  0  0  0  0  0  0  0  0  0  0
    0.8500   -4.9660   -2.8270 C   0  0  0  0  0  0  0  0  0  0  0  0
    1.6510   -4.0110   -2.0150 C   0  0  0  0  0  0  0  0  0  0  0  0
    0.8670   -3.2080   -1.0140 C   0  0  2  0  0  0  0  0  0  0  0  0
   -0.1570   -2.3990   -1.6460 N   0  0  0  0  0  0  0  0  0  0  0  0
    1.7760   -2.3630   -0.1970 C   0  0  0  0  0  0  0  0  0  0  0  0
    2.7130   -2.9360    0.4090 O   0  0  0  0  0  0  0  0  0  0  0  0
   -1.7430   -4.6350   -1.1150 H   0  0  0  0  0  0  0  0  0  0  0  0
   -1.0770   -5.7320    0.2270 H   0  0  0  0  0  0  0  0  0  0  0  0
   -2.2070   -6.3280   -0.9880 H   0  0  0  0  0  0  0  0  0  0  0  0
    0.1620   -4.4760   -3.5580 H   0  0  0  0  0  0  0  0  0  0  0  0
    1.5900   -5.5100   -3.4870 H   0  0  0  0  0  0  0  0  0  0  0  0
    2.1070   -3.2600   -2.7170 H   0  0  0  0  0  0  0  0  0  0  0  0
    2.4930   -4.5400   -1.5600 H   0  0  0  0  0  0  0  0  0  0  0  0
    0.3930   -3.9180   -0.3070 H   0  0  0  0  0  0  0  0  0  0  0  0
   -0.9270   -2.2880   -0.9360 H   0  0  0  0  0  0  0  0  0  0  0  0
   -0.5700   -2.9640   -2.4120 H   0  0  0  0  0  0  0  0  0  0  0  0
    3.3440    0.7070   -0.2170 C   0  0  0  0  0  0  0  0  0  0  0  0
    2.5690   -0.1690    0.7510 C   0  0  2  0  0  0  0  0  0  0  0  0
    1.6580   -0.9570   -0.0560 N   0  0  0  0  0  0  0  0  0  0  0  0
    1.8570    0.6360    1.7660 C   0  0  0  0  0  0  0  0  0  0  0  0
    2.5080    1.3790    2.5490 O   0  0  0  0  0  0  0  0  0  0  0  0
    3.9940    0.0300   -0.8090 H   0  0  0  0  0  0  0  0  0  0  0  0
    2.6650    1.1990   -0.9450 H   0  0  0  0  0  0  0  0  0  0  0  0
    3.9860    1.4360    0.3080 H   0  0  0  0  0  0  0  0  0  0  0  0
    3.3090   -0.8710    1.1910 H   0  0  0  0  0  0  0  0  0  0  0  0
    0.8550   -0.5050   -0.5800 H   0  0  0  0  0  0  0  0  0  0  0  0
   -2.7450    4.2920    2.6480 C   0  0  0  0  0  0  0  0  0  0  0  0
   -1.9070    3.1980    3.3120 C   0  0  0  0  0  0  0  0  0  0  0  0
   -1.1690    2.3900    2.2810 C   0  0  2  0  0  0  0  0  0  0  0  0
   -2.2230    1.7470    1.3870 C   0  0  0  0  0  0  0  0  0  0  0  0
   -0.2710    1.3990    2.9010 C   0  0  2  0  0  0  0  0  0  0  0  0
    0.4620    0.6150    1.9070 N   0  0  0  0  0  0  0  0  0  0  0  0
   -0.9140    0.4950    3.8510 C   0  0  0  0  0  0  0  0  0  0  0  0
   -1.5580    0.8300    4.8670 O   0  0  0  0  0  0  0  0  0  0  0  0
   -0.8140   -0.8900    3.6210 O   0  0  0  0  0  0  0  0  0  0  0  0
   -3.8270    4.0680    2.7370 H   0  0  0  0  0  0  0  0  0  0  0  0
   -2.4860    5.3000    3.0330 H   0  0  0  0  0  0  0  0  0  0  0  0
   -2.5040    4.2970    1.5700 H   0  0  0  0  0  0  0  0  0  0  0  0
   -1.1630    3.7130    3.9470 H   0  0  0  0  0  0  0  0  0  0  0  0
   -2.5660    2.5690    3.9480 H   0  0  0  0  0  0  0  0  0  0  0  0
   -0.6020    3.1650    1.6820 H   0  0  0  0  0  0  0  0  0  0  0  0
   -2.3080    2.2890    0.4300 H   0  0  0  0  0  0  0  0  0  0  0  0
   -3.2440    1.8040    1.8590 H   0  0  0  0  0  0  0  0  0  0  0  0
   -2.0480    0.6770    1.2040 H   0  0  0  0  0  0  0  0  0  0  0  0
    0.5280    1.9630    3.4660 H   0  0  0  0  0  0  0  0  0  0  0  0
   -0.1260    0.0190    1.2880 H   0  0  0  0  0  0  0  0  0  0  0  0
  1 10  1  0  0  0  0
  2  1  1  0  0  0  0
  3  4  1  0  0  0  0
  3  2  1  0  0  0  0
  4 15  1  0  0  0  0
  4  5  1  0  0  0  0
  5 16  1  1  0  0  0
  5  7  1  0  0  0  0
  6  5  1  0  0  0  0
  6 17  1  0  0  0  0
  7 21  1  0  0  0  0
  7  8  2  0  0  0  0
  9  1  1  0  0  0  0
 11  1  1  0  0  0  0
 12  3  1  0  0  0  0
 13  3  1  0  0  0  0
 14  4  1  0  0  0  0
 18  6  1  0  0  0  0
 19 26  1  0  0  0  0
 19 20  1  0  0  0  0
 20 27  1  1  0  0  0
 20 22  1  0  0  0  0
 21 20  1  0  0  0  0
 22 34  1  0  0  0  0
 22 23  2  0  0  0  0
 24 19  1  0  0  0  0
 25 19  1  0  0  0  0
 28 21  1  0  0  0  0
 29 38  1  0  0  0  0
 29 39  1  0  0  0  0
 29 30  1  0  0  0  0
 30 41  1  0  0  0  0
 30 42  1  0  0  0  0
 31 43  1  6  0  0  0
 31 33  1  0  0  0  0
 31 30  1  0  0  0  0
 32 45  1  0  0  0  0
 32 31  1  0  0  0  0
 33 47  1  1  0  0  0
 33 35  1  0  0  0  0
 34 33  1  0  0  0  0
 35 36  1  0  0  0  0
 37 35  2  0  0  0  0
 40 29  1  0  0  0  0
 44 32  1  0  0  0  0
 46 32  1  0  0  0  0
 48 34  1  0  0  0  0
M  END
$$$$
