MAM.pdb
 OpenBabel07022418533D

 46 45  0  0  1  0  0  0  0  0999 V2000
    1.5400   -4.2930    0.6920 C   0  0  0  0  0  0  0  0  0  0  0  0
    3.0880   -4.4620   -0.1640 S   0  0  0  0  0  0  0  0  0  0  0  0
    3.4340   -3.3260   -1.4590 C   0  0  0  0  0  0  0  0  0  0  0  0
    3.8210   -1.9280   -1.1330 C   0  0  0  0  0  0  0  0  0  0  0  0
    2.8550   -1.1240   -0.3310 C   0  0  2  0  0  0  0  0  0  0  0  0
    2.5910   -1.6220    0.9650 N   0  0  0  0  0  0  0  0  0  0  0  0
    1.6340   -0.7830   -1.1050 C   0  0  0  0  0  0  0  0  0  0  0  0
    1.7730   -0.3890   -2.2870 O   0  0  0  0  0  0  0  0  0  0  0  0
    0.8390   -3.5450    0.2720 H   0  0  0  0  0  0  0  0  0  0  0  0
    1.6990   -4.0390    1.7640 H   0  0  0  0  0  0  0  0  0  0  0  0
    0.9260   -5.2540    0.6410 H   0  0  0  0  0  0  0  0  0  0  0  0
    2.5890   -3.2700   -2.2230 H   0  0  0  0  0  0  0  0  0  0  0  0
    4.3130   -3.7570   -2.0660 H   0  0  0  0  0  0  0  0  0  0  0  0
    4.1480   -1.3650   -2.0620 H   0  0  0  0  0  0  0  0  0  0  0  0
    4.8200   -2.0220   -0.5830 H   0  0  0  0  0  0  0  0  0  0  0  0
    3.3560   -0.1160   -0.1690 H   0  0  0  0  0  0  0  0  0  0  0  0
    2.4060   -0.9050    1.6960 H   0  0  0  0  0  0  0  0  0  0  0  0
    3.3980   -2.1880    1.3680 H   0  0  0  0  0  0  0  0  0  0  0  0
   -1.7980   -1.7790   -1.2240 C   0  0  0  0  0  0  0  0  0  0  0  0
   -0.8840   -0.5620   -1.2930 C   0  0  2  0  0  0  0  0  0  0  0  0
    0.3320   -0.8810   -0.5730 N   0  0  0  0  0  0  0  0  0  0  0  0
   -1.6320    0.5430   -0.5940 C   0  0  0  0  0  0  0  0  0  0  0  0
   -2.7170    0.9830   -1.0130 O   0  0  0  0  0  0  0  0  0  0  0  0
   -1.8250   -2.1600   -0.1800 H   0  0  0  0  0  0  0  0  0  0  0  0
   -2.8310   -1.5620   -1.5080 H   0  0  0  0  0  0  0  0  0  0  0  0
   -1.4260   -2.5770   -1.9000 H   0  0  0  0  0  0  0  0  0  0  0  0
   -0.6620   -0.2530   -2.3120 H   0  0  0  0  0  0  0  0  0  0  0  0
    0.3020   -1.2180    0.4350 H   0  0  0  0  0  0  0  0  0  0  0  0
   -1.4730    0.0250    5.4880 C   0  0  0  0  0  0  0  0  0  0  0  0
   -3.0920    0.5420    4.8040 S   0  0  0  0  0  0  0  0  0  0  0  0
   -2.9080    0.7220    2.9980 C   0  0  0  0  0  0  0  0  0  0  0  0
   -1.9640    1.8860    2.7820 C   0  0  0  0  0  0  0  0  0  0  0  0
   -1.7020    2.1700    1.3500 C   0  0  2  0  0  0  0  0  0  0  0  0
   -1.1200    1.1330    0.5860 N   0  0  0  0  0  0  0  0  0  0  0  0
   -0.8960    3.4420    1.3020 C   0  0  0  0  0  0  0  0  0  0  0  0
    0.1670    3.5560    0.6540 O   0  0  0  0  0  0  0  0  0  0  0  0
   -1.3420    4.5510    2.0070 O   0  0  0  0  0  0  0  0  0  0  0  0
   -0.9160    0.9860    5.6670 H   0  0  0  0  0  0  0  0  0  0  0  0
   -1.5990   -0.5370    6.4240 H   0  0  0  0  0  0  0  0  0  0  0  0
   -0.9720   -0.5640    4.6930 H   0  0  0  0  0  0  0  0  0  0  0  0
   -3.9000    1.0400    2.6160 H   0  0  0  0  0  0  0  0  0  0  0  0
   -2.5450   -0.2080    2.5210 H   0  0  0  0  0  0  0  0  0  0  0  0
   -2.5240    2.7840    3.1840 H   0  0  0  0  0  0  0  0  0  0  0  0
   -1.0630    1.8250    3.4210 H   0  0  0  0  0  0  0  0  0  0  0  0
   -2.6730    2.4410    0.8780 H   0  0  0  0  0  0  0  0  0  0  0  0
   -0.1890    0.7390    0.9220 H   0  0  0  0  0  0  0  0  0  0  0  0
  1 10  1  0  0  0  0
  2  1  1  0  0  0  0
  3  4  1  0  0  0  0
  3  2  1  0  0  0  0
  4 15  1  0  0  0  0
  4  5  1  0  0  0  0
  5 16  1  1  0  0  0
  5  6  1  0  0  0  0
  6 18  1  0  0  0  0
  6 17  1  0  0  0  0
  7 21  1  0  0  0  0
  7  5  1  0  0  0  0
  8  7  2  0  0  0  0
  9  1  1  0  0  0  0
 11  1  1  0  0  0  0
 12  3  1  0  0  0  0
 13  3  1  0  0  0  0
 14  4  1  0  0  0  0
 19 24  1  0  0  0  0
 20 27  1  6  0  0  0
 20 19  1  0  0  0  0
 20 22  1  0  0  0  0
 20 21  1  0  0  0  0
 21 28  1  0  0  0  0
 22 34  1  0  0  0  0
 23 22  2  0  0  0  0
 25 19  1  0  0  0  0
 26 19  1  0  0  0  0
 29 38  1  0  0  0  0
 29 39  1  0  0  0  0
 30 29  1  0  0  0  0
 31 30  1  0  0  0  0
 32 31  1  0  0  0  0
 32 43  1  0  0  0  0
 32 44  1  0  0  0  0
 33 45  1  6  0  0  0
 33 32  1  0  0  0  0
 34 46  1  0  0  0  0
 34 33  1  0  0  0  0
 35 33  1  0  0  0  0
 35 37  1  0  0  0  0
 36 35  2  0  0  0  0
 40 29  1  0  0  0  0
 41 31  1  0  0  0  0
 42 31  1  0  0  0  0
M  END
$$$$
