MAN.pdb
 OpenBabel07022418533D

 43 42  0  0  1  0  0  0  0  0999 V2000
   -1.1370   -5.0890   -1.0140 C   0  0  0  0  0  0  0  0  0  0  0  0
   -0.2610   -4.8590    0.5210 S   0  0  0  0  0  0  0  0  0  0  0  0
    1.2410   -3.9120    0.4330 C   0  0  0  0  0  0  0  0  0  0  0  0
    1.0690   -2.4550    0.1320 C   0  0  0  0  0  0  0  0  0  0  0  0
    0.4090   -2.2200   -1.1950 C   0  0  2  0  0  0  0  0  0  0  0  0
    1.1870   -2.7920   -2.2770 N   0  0  0  0  0  0  0  0  0  0  0  0
    0.3010   -0.7570   -1.4950 C   0  0  0  0  0  0  0  0  0  0  0  0
    0.8220   -0.2300   -2.5110 O   0  0  0  0  0  0  0  0  0  0  0  0
   -2.0910   -4.4890   -1.0680 H   0  0  0  0  0  0  0  0  0  0  0  0
   -1.4380   -6.1870   -1.0710 H   0  0  0  0  0  0  0  0  0  0  0  0
   -0.5540   -4.9320   -1.9300 H   0  0  0  0  0  0  0  0  0  0  0  0
    2.0070   -4.3840   -0.2560 H   0  0  0  0  0  0  0  0  0  0  0  0
    1.7190   -3.9550    1.4540 H   0  0  0  0  0  0  0  0  0  0  0  0
    0.5000   -1.9590    0.9590 H   0  0  0  0  0  0  0  0  0  0  0  0
    2.0610   -1.9320    0.1090 H   0  0  0  0  0  0  0  0  0  0  0  0
   -0.5750   -2.6840   -1.1830 H   0  0  0  0  0  0  0  0  0  0  0  0
    0.5220   -3.0780   -3.0380 H   0  0  0  0  0  0  0  0  0  0  0  0
    1.8050   -2.0550   -2.7260 H   0  0  0  0  0  0  0  0  0  0  0  0
   -1.9690    1.9880   -0.9900 C   0  0  0  0  0  0  0  0  0  0  0  0
   -0.5340    1.5330   -0.8860 C   0  0  2  0  0  0  0  0  0  0  0  0
   -0.4120    0.1270   -0.6270 N   0  0  0  0  0  0  0  0  0  0  0  0
    0.0880    2.2650    0.2480 C   0  0  0  0  0  0  0  0  0  0  0  0
    0.1220    3.5230    0.2800 O   0  0  0  0  0  0  0  0  0  0  0  0
   -2.6410    1.4440   -0.2950 H   0  0  0  0  0  0  0  0  0  0  0  0
   -2.3380    1.9650   -2.0340 H   0  0  0  0  0  0  0  0  0  0  0  0
   -1.9910    3.0560   -0.6810 H   0  0  0  0  0  0  0  0  0  0  0  0
   -0.0220    1.8410   -1.8200 H   0  0  0  0  0  0  0  0  0  0  0  0
   -0.8580   -0.2660    0.2230 H   0  0  0  0  0  0  0  0  0  0  0  0
   -0.3000    0.2610    5.3170 N   0  0  0  0  0  0  0  0  0  0  0  0
    0.3980    0.6300    4.1550 C   0  0  0  0  0  0  0  0  0  0  0  0
    0.9200   -0.2850    3.4750 O   0  0  0  0  0  0  0  0  0  0  0  0
    0.5280    2.0190    3.7290 C   0  0  0  0  0  0  0  0  0  0  0  0
    1.2860    2.2460    2.4650 C   0  0  2  0  0  0  0  0  0  0  0  0
    0.6730    1.5790    1.3480 N   0  0  0  0  0  0  0  0  0  0  0  0
    2.7270    1.9710    2.5820 C   0  0  0  0  0  0  0  0  0  0  0  0
    3.3840    2.4940    3.5160 O   0  0  0  0  0  0  0  0  0  0  0  0
    3.4170    1.1520    1.7000 O   0  0  0  0  0  0  0  0  0  0  0  0
    0.1330   -0.3790    5.9960 H   0  0  0  0  0  0  0  0  0  0  0  0
   -1.2440    0.6310    5.4900 H   0  0  0  0  0  0  0  0  0  0  0  0
    0.9570    2.5930    4.5890 H   0  0  0  0  0  0  0  0  0  0  0  0
   -0.5050    2.4580    3.6060 H   0  0  0  0  0  0  0  0  0  0  0  0
    1.1970    3.3530    2.2500 H   0  0  0  0  0  0  0  0  0  0  0  0
    0.6490    0.5520    1.3270 H   0  0  0  0  0  0  0  0  0  0  0  0
  1  2  1  0  0  0  0
  3  2  1  0  0  0  0
  3 13  1  0  0  0  0
  4  3  1  0  0  0  0
  4 14  1  0  0  0  0
  5 16  1  1  0  0  0
  5  4  1  0  0  0  0
  6  5  1  0  0  0  0
  7  5  1  0  0  0  0
  7 21  1  0  0  0  0
  8  7  2  0  0  0  0
  9  1  1  0  0  0  0
 10  1  1  0  0  0  0
 11  1  1  0  0  0  0
 12  3  1  0  0  0  0
 15  4  1  0  0  0  0
 17  6  1  0  0  0  0
 18  6  1  0  0  0  0
 19 20  1  0  0  0  0
 19 26  1  0  0  0  0
 19 24  1  0  0  0  0
 20 27  1  6  0  0  0
 20 21  1  0  0  0  0
 20 22  1  0  0  0  0
 21 28  1  0  0  0  0
 22 23  2  0  0  0  0
 22 34  1  0  0  0  0
 25 19  1  0  0  0  0
 29 39  1  0  0  0  0
 29 38  1  0  0  0  0
 30 29  1  0  0  0  0
 31 30  2  0  0  0  0
 32 30  1  0  0  0  0
 32 40  1  0  0  0  0
 33 42  1  6  0  0  0
 33 35  1  0  0  0  0
 33 32  1  0  0  0  0
 34 33  1  0  0  0  0
 35 36  1  0  0  0  0
 37 35  2  0  0  0  0
 41 32  1  0  0  0  0
 43 34  1  0  0  0  0
M  END
$$$$
