MAR.pdb
 OpenBabel07022418533D

 52 51  0  0  1  0  0  0  0  0999 V2000
    2.0500   -4.6360   -0.6190 C   0  0  0  0  0  0  0  0  0  0  0  0
    2.9240   -3.1400   -1.0810 S   0  0  0  0  0  0  0  0  0  0  0  0
    2.4690   -1.7500    0.0360 C   0  0  0  0  0  0  0  0  0  0  0  0
    3.2200   -0.5320   -0.3790 C   0  0  0  0  0  0  0  0  0  0  0  0
    2.9690    0.7090    0.4020 C   0  0  2  0  0  0  0  0  0  0  0  0
    3.2790    0.5980    1.7840 N   0  0  0  0  0  0  0  0  0  0  0  0
    1.7120    1.4260    0.0850 C   0  0  0  0  0  0  0  0  0  0  0  0
    1.4030    2.3890    0.8380 O   0  0  0  0  0  0  0  0  0  0  0  0
    2.1880   -5.3710   -1.4640 H   0  0  0  0  0  0  0  0  0  0  0  0
    2.4830   -5.1100    0.2910 H   0  0  0  0  0  0  0  0  0  0  0  0
    0.9670   -4.5180   -0.5050 H   0  0  0  0  0  0  0  0  0  0  0  0
    1.3800   -1.6830    0.0160 H   0  0  0  0  0  0  0  0  0  0  0  0
    2.8300   -2.0490    1.0580 H   0  0  0  0  0  0  0  0  0  0  0  0
    3.1900   -0.3600   -1.4870 H   0  0  0  0  0  0  0  0  0  0  0  0
    4.3190   -0.7790   -0.2060 H   0  0  0  0  0  0  0  0  0  0  0  0
    3.7690    1.4490   -0.0220 H   0  0  0  0  0  0  0  0  0  0  0  0
    2.5660    0.9370    2.4410 H   0  0  0  0  0  0  0  0  0  0  0  0
    4.2420    0.8890    2.0400 H   0  0  0  0  0  0  0  0  0  0  0  0
   -0.2610    2.0310   -2.8870 C   0  0  0  0  0  0  0  0  0  0  0  0
   -0.2410    1.6890   -1.3960 C   0  0  2  0  0  0  0  0  0  0  0  0
    0.9380    1.0190   -1.0130 N   0  0  0  0  0  0  0  0  0  0  0  0
   -1.5350    1.2410   -0.9430 C   0  0  0  0  0  0  0  0  0  0  0  0
   -2.5480    1.7360   -1.5560 O   0  0  0  0  0  0  0  0  0  0  0  0
   -0.3100    1.1080   -3.4740 H   0  0  0  0  0  0  0  0  0  0  0  0
   -1.1720    2.6530   -3.0460 H   0  0  0  0  0  0  0  0  0  0  0  0
    0.6000    2.6850   -3.1290 H   0  0  0  0  0  0  0  0  0  0  0  0
   -0.1170    2.7540   -0.9210 H   0  0  0  0  0  0  0  0  0  0  0  0
    1.2500    0.1900   -1.5600 H   0  0  0  0  0  0  0  0  0  0  0  0
    1.2060   -3.9340    2.4760 N   0  0  0  0  0  0  0  0  0  0  0  0
    0.5320   -2.6820    2.6670 C   0  0  0  0  0  0  0  0  0  0  0  0
    1.1800   -1.7510    3.2670 N   0  0  0  0  0  0  0  0  0  0  0  0
   -0.8100   -2.5140    2.2050 N   0  0  0  0  0  0  0  0  0  0  0  0
   -1.6470   -1.5420    2.8650 C   0  0  0  0  0  0  0  0  0  0  0  0
   -3.0480   -1.5080    2.4350 C   0  0  0  0  0  0  0  0  0  0  0  0
   -3.4850   -1.2090    1.0820 C   0  0  0  0  0  0  0  0  0  0  0  0
   -3.2530    0.0180    0.3720 C   0  0  2  0  0  0  0  0  0  0  0  0
   -1.8530    0.3390    0.0820 N   0  0  0  0  0  0  0  0  0  0  0  0
   -3.8990    1.2240    0.9970 C   0  0  0  0  0  0  0  0  0  0  0  0
   -3.2260    2.2310    1.1630 O   0  0  0  0  0  0  0  0  0  0  0  0
   -5.2000    1.1920    1.3670 O   0  0  0  0  0  0  0  0  0  0  0  0
    0.7060   -4.8450    2.4040 H   0  0  0  0  0  0  0  0  0  0  0  0
    2.2410   -3.9110    2.4100 H   0  0  0  0  0  0  0  0  0  0  0  0
    0.7940   -0.8160    3.4560 H   0  0  0  0  0  0  0  0  0  0  0  0
   -1.1440   -3.1020    1.4030 H   0  0  0  0  0  0  0  0  0  0  0  0
   -1.6330   -1.8590    3.9630 H   0  0  0  0  0  0  0  0  0  0  0  0
   -1.1060   -0.5790    2.8610 H   0  0  0  0  0  0  0  0  0  0  0  0
   -3.7100   -0.9890    3.2320 H   0  0  0  0  0  0  0  0  0  0  0  0
   -3.4280   -2.5860    2.6230 H   0  0  0  0  0  0  0  0  0  0  0  0
   -3.0950   -2.0880    0.4420 H   0  0  0  0  0  0  0  0  0  0  0  0
   -4.6060   -1.4830    1.0650 H   0  0  0  0  0  0  0  0  0  0  0  0
   -3.7380    0.0230   -0.6340 H   0  0  0  0  0  0  0  0  0  0  0  0
   -1.0820   -0.0880    0.6070 H   0  0  0  0  0  0  0  0  0  0  0  0
  1 11  1  0  0  0  0
  1 10  1  0  0  0  0
  2  1  1  0  0  0  0
  2  3  1  0  0  0  0
  3 13  1  0  0  0  0
  4 15  1  0  0  0  0
  4  3  1  0  0  0  0
  4  5  1  0  0  0  0
  5 16  1  6  0  0  0
  5  6  1  0  0  0  0
  6 18  1  0  0  0  0
  6 17  1  0  0  0  0
  7  5  1  0  0  0  0
  7  8  2  0  0  0  0
  9  1  1  0  0  0  0
 12  3  1  0  0  0  0
 14  4  1  0  0  0  0
 19 20  1  0  0  0  0
 20 21  1  0  0  0  0
 20 22  1  0  0  0  0
 20 27  1  1  0  0  0
 21  7  1  0  0  0  0
 22 37  1  0  0  0  0
 23 22  2  0  0  0  0
 24 19  1  0  0  0  0
 25 19  1  0  0  0  0
 26 19  1  0  0  0  0
 28 21  1  0  0  0  0
 29 30  1  0  0  0  0
 30 31  2  0  0  0  0
 31 43  1  0  0  0  0
 32 30  1  0  0  0  0
 32 33  1  0  0  0  0
 33 45  1  0  0  0  0
 34 48  1  0  0  0  0
 34 33  1  0  0  0  0
 34 47  1  0  0  0  0
 35 34  1  0  0  0  0
 36 51  1  6  0  0  0
 36 38  1  0  0  0  0
 36 35  1  0  0  0  0
 37 36  1  0  0  0  0
 37 52  1  0  0  0  0
 38 39  2  0  0  0  0
 38 40  1  0  0  0  0
 41 29  1  0  0  0  0
 42 29  1  0  0  0  0
 44 32  1  0  0  0  0
 46 33  1  0  0  0  0
 49 35  1  0  0  0  0
 50 35  1  0  0  0  0
M  END
$$$$
