MAV.pdb
 OpenBabel07022418533D

 45 44  0  0  1  0  0  0  0  0999 V2000
    1.5030   -5.6130    1.2340 C   0  0  0  0  0  0  0  0  0  0  0  0
   -0.1530   -5.7130    0.6070 S   0  0  0  0  0  0  0  0  0  0  0  0
   -0.8660   -4.2860   -0.1290 C   0  0  0  0  0  0  0  0  0  0  0  0
   -0.4130   -3.9040   -1.4910 C   0  0  0  0  0  0  0  0  0  0  0  0
    1.0250   -3.5990   -1.6900 C   0  0  2  0  0  0  0  0  0  0  0  0
    1.8450   -4.7220   -1.4030 N   0  0  0  0  0  0  0  0  0  0  0  0
    1.4580   -2.3710   -0.9440 C   0  0  0  0  0  0  0  0  0  0  0  0
    2.4570   -2.3520   -0.1790 O   0  0  0  0  0  0  0  0  0  0  0  0
    2.2500   -6.2830    0.7450 H   0  0  0  0  0  0  0  0  0  0  0  0
    1.5300   -6.0110    2.3200 H   0  0  0  0  0  0  0  0  0  0  0  0
    1.9440   -4.6050    1.2840 H   0  0  0  0  0  0  0  0  0  0  0  0
   -0.5620   -3.3920    0.5350 H   0  0  0  0  0  0  0  0  0  0  0  0
   -1.9970   -4.2640   -0.0540 H   0  0  0  0  0  0  0  0  0  0  0  0
   -0.6210   -4.8090   -2.1590 H   0  0  0  0  0  0  0  0  0  0  0  0
   -1.0680   -3.0790   -1.9120 H   0  0  0  0  0  0  0  0  0  0  0  0
    1.2450   -3.3320   -2.7740 H   0  0  0  0  0  0  0  0  0  0  0  0
    2.7800   -4.3830   -1.0880 H   0  0  0  0  0  0  0  0  0  0  0  0
    1.9130   -5.4170   -2.1780 H   0  0  0  0  0  0  0  0  0  0  0  0
    1.5070    1.1390   -1.3940 C   0  0  0  0  0  0  0  0  0  0  0  0
    1.1080    0.0710   -0.3770 C   0  0  2  0  0  0  0  0  0  0  0  0
    0.7470   -1.1460   -1.0670 N   0  0  0  0  0  0  0  0  0  0  0  0
   -0.0250    0.5000    0.4570 C   0  0  0  0  0  0  0  0  0  0  0  0
   -1.0810   -0.1760    0.4820 O   0  0  0  0  0  0  0  0  0  0  0  0
    2.0000    0.6560   -2.2600 H   0  0  0  0  0  0  0  0  0  0  0  0
    2.2610    1.8140   -0.9350 H   0  0  0  0  0  0  0  0  0  0  0  0
    0.6480    1.7270   -1.7370 H   0  0  0  0  0  0  0  0  0  0  0  0
    2.0190   -0.0930    0.2520 H   0  0  0  0  0  0  0  0  0  0  0  0
   -0.0830   -1.1310   -1.6930 H   0  0  0  0  0  0  0  0  0  0  0  0
   -1.7820    2.6320    4.4260 C   0  0  0  0  0  0  0  0  0  0  0  0
   -0.6590    2.2110    3.5010 C   0  0  0  0  0  0  0  0  0  0  0  0
    0.4510    3.2110    3.5970 C   0  0  0  0  0  0  0  0  0  0  0  0
   -1.1040    2.0910    2.0800 C   0  0  2  0  0  0  0  0  0  0  0  0
    0.0240    1.6860    1.2650 N   0  0  0  0  0  0  0  0  0  0  0  0
   -1.5760    3.4360    1.6190 C   0  0  0  0  0  0  0  0  0  0  0  0
   -2.5510    3.9930    2.1790 O   0  0  0  0  0  0  0  0  0  0  0  0
   -0.9340    4.0750    0.5660 O   0  0  0  0  0  0  0  0  0  0  0  0
   -2.7110    2.1900    4.0640 H   0  0  0  0  0  0  0  0  0  0  0  0
   -1.5440    2.2270    5.4310 H   0  0  0  0  0  0  0  0  0  0  0  0
   -1.8110    3.7340    4.5380 H   0  0  0  0  0  0  0  0  0  0  0  0
   -0.3420    1.1920    3.8330 H   0  0  0  0  0  0  0  0  0  0  0  0
    1.4260    2.7110    3.8560 H   0  0  0  0  0  0  0  0  0  0  0  0
    0.2090    4.0000    4.3120 H   0  0  0  0  0  0  0  0  0  0  0  0
    0.6140    3.7110    2.6000 H   0  0  0  0  0  0  0  0  0  0  0  0
   -1.9220    1.3560    1.9680 H   0  0  0  0  0  0  0  0  0  0  0  0
    0.9120    2.2300    1.2260 H   0  0  0  0  0  0  0  0  0  0  0  0
  1 11  1  0  0  0  0
  1 10  1  0  0  0  0
  2  1  1  0  0  0  0
  3 13  1  0  0  0  0
  3 12  1  0  0  0  0
  3  2  1  0  0  0  0
  4  3  1  0  0  0  0
  5 16  1  6  0  0  0
  5  4  1  0  0  0  0
  5  6  1  0  0  0  0
  5  7  1  0  0  0  0
  6 17  1  0  0  0  0
  7  8  2  0  0  0  0
  9  1  1  0  0  0  0
 14  4  1  0  0  0  0
 15  4  1  0  0  0  0
 18  6  1  0  0  0  0
 19 25  1  0  0  0  0
 19 20  1  0  0  0  0
 20 27  1  1  0  0  0
 20 22  1  0  0  0  0
 21  7  1  0  0  0  0
 21 20  1  0  0  0  0
 22 23  2  0  0  0  0
 22 33  1  0  0  0  0
 24 19  1  0  0  0  0
 26 19  1  0  0  0  0
 28 21  1  0  0  0  0
 29 39  1  0  0  0  0
 29 38  1  0  0  0  0
 30 31  1  0  0  0  0
 30 40  1  0  0  0  0
 30 29  1  0  0  0  0
 31 41  1  0  0  0  0
 31 42  1  0  0  0  0
 32 44  1  6  0  0  0
 32 30  1  0  0  0  0
 33 32  1  0  0  0  0
 34 32  1  0  0  0  0
 34 35  1  0  0  0  0
 36 34  2  0  0  0  0
 37 29  1  0  0  0  0
 43 31  1  0  0  0  0
 45 33  1  0  0  0  0
M  END
$$$$
