MCC.pdb
 OpenBabel07022418543D

 41 40  0  0  1  0  0  0  0  0999 V2000
   -2.5860   -4.0490   -0.2100 C   0  0  0  0  0  0  0  0  0  0  0  0
   -1.4780   -5.1260   -1.0970 S   0  0  0  0  0  0  0  0  0  0  0  0
   -0.1230   -4.3390   -1.9440 C   0  0  0  0  0  0  0  0  0  0  0  0
    0.9280   -3.7290   -1.0640 C   0  0  0  0  0  0  0  0  0  0  0  0
    0.3370   -2.6650   -0.2170 C   0  0  2  0  0  0  0  0  0  0  0  0
   -0.2220   -1.6440   -1.0340 N   0  0  0  0  0  0  0  0  0  0  0  0
    1.3430   -2.0840    0.7400 C   0  0  0  0  0  0  0  0  0  0  0  0
    1.9310   -2.8090    1.5420 O   0  0  0  0  0  0  0  0  0  0  0  0
   -2.5070   -4.1460    0.9140 H   0  0  0  0  0  0  0  0  0  0  0  0
   -2.6150   -3.0030   -0.5430 H   0  0  0  0  0  0  0  0  0  0  0  0
   -3.6430   -4.4250   -0.3990 H   0  0  0  0  0  0  0  0  0  0  0  0
   -0.5120   -3.5000   -2.6050 H   0  0  0  0  0  0  0  0  0  0  0  0
    0.3300   -5.0440   -2.6910 H   0  0  0  0  0  0  0  0  0  0  0  0
    1.7500   -3.3300   -1.7300 H   0  0  0  0  0  0  0  0  0  0  0  0
    1.3920   -4.5530   -0.4530 H   0  0  0  0  0  0  0  0  0  0  0  0
   -0.4330   -3.1050    0.4160 H   0  0  0  0  0  0  0  0  0  0  0  0
   -1.0790   -1.1930   -0.7250 H   0  0  0  0  0  0  0  0  0  0  0  0
    0.0240   -1.6380   -2.0220 H   0  0  0  0  0  0  0  0  0  0  0  0
    1.6010   -0.7070    0.7020 N   0  0  0  0  0  0  0  0  0  0  0  0
    2.5410   -0.0210    1.5600 C   0  0  1  0  0  0  0  0  0  0  0  0
    3.6020    0.5840    0.6550 C   0  0  0  0  0  0  0  0  0  0  0  0
    4.4670   -0.6850   -0.3080 S   0  0  0  0  0  0  0  0  0  0  0  0
    1.9100    1.1140    2.2850 C   0  0  0  0  0  0  0  0  0  0  0  0
    2.5940    1.8190    3.0740 O   0  0  0  0  0  0  0  0  0  0  0  0
    1.0810   -0.1280    0.0030 H   0  0  0  0  0  0  0  0  0  0  0  0
    3.0250   -0.7310    2.2460 H   0  0  0  0  0  0  0  0  0  0  0  0
    3.1570    1.2940   -0.0720 H   0  0  0  0  0  0  0  0  0  0  0  0
    4.3250    1.1890    1.2680 H   0  0  0  0  0  0  0  0  0  0  0  0
    3.7760   -0.9820   -1.4990 H   0  0  0  0  0  0  0  0  0  0  0  0
    0.5350    1.4200    2.1020 N   0  0  0  0  0  0  0  0  0  0  0  0
   -0.1130    2.5380    2.8060 C   0  0  1  0  0  0  0  0  0  0  0  0
   -0.6800    3.5240    1.7950 C   0  0  0  0  0  0  0  0  0  0  0  0
    0.6870    4.1320    0.7910 S   0  0  0  0  0  0  0  0  0  0  0  0
   -1.1870    2.0300    3.6940 C   0  0  0  0  0  0  0  0  0  0  0  0
   -1.8380    2.8600    4.3730 O   0  0  0  0  0  0  0  0  0  0  0  0
   -1.5210    0.6910    3.8240 O   0  0  0  0  0  0  0  0  0  0  0  0
   -0.0020    0.8150    1.4420 H   0  0  0  0  0  0  0  0  0  0  0  0
    0.6740    3.0020    3.4320 H   0  0  0  0  0  0  0  0  0  0  0  0
   -1.4170    2.9930    1.1790 H   0  0  0  0  0  0  0  0  0  0  0  0
   -1.1250    4.3470    2.3950 H   0  0  0  0  0  0  0  0  0  0  0  0
    1.4190    5.1190    1.4610 H   0  0  0  0  0  0  0  0  0  0  0  0
  1  9  1  0  0  0  0
  2  1  1  0  0  0  0
  3  2  1  0  0  0  0
  3  4  1  0  0  0  0
  4 15  1  0  0  0  0
  4  5  1  0  0  0  0
  5 16  1  1  0  0  0
  5  7  1  0  0  0  0
  6 17  1  0  0  0  0
  6  5  1  0  0  0  0
  7  8  2  0  0  0  0
 10  1  1  0  0  0  0
 11  1  1  0  0  0  0
 12  3  1  0  0  0  0
 13  3  1  0  0  0  0
 14  4  1  0  0  0  0
 18  6  1  0  0  0  0
 19  7  1  0  0  0  0
 19 20  1  0  0  0  0
 20 26  1  1  0  0  0
 20 23  1  0  0  0  0
 21 28  1  0  0  0  0
 21 20  1  0  0  0  0
 22 21  1  0  0  0  0
 23 24  2  0  0  0  0
 25 19  1  0  0  0  0
 27 21  1  0  0  0  0
 29 22  1  0  0  0  0
 30 23  1  0  0  0  0
 30 31  1  0  0  0  0
 31 38  1  1  0  0  0
 31 34  1  0  0  0  0
 32 40  1  0  0  0  0
 32 31  1  0  0  0  0
 33 41  1  0  0  0  0
 33 32  1  0  0  0  0
 34 36  2  0  0  0  0
 34 35  1  0  0  0  0
 37 30  1  0  0  0  0
 39 32  1  0  0  0  0
M  END
$$$$
