MCE.pdb
 OpenBabel07022418543D

 46 45  0  0  1  0  0  0  0  0999 V2000
   -0.2140   -5.4910    1.0600 C   0  0  0  0  0  0  0  0  0  0  0  0
    1.1720   -5.9830    0.0480 S   0  0  0  0  0  0  0  0  0  0  0  0
    2.4360   -4.7360   -0.1650 C   0  0  0  0  0  0  0  0  0  0  0  0
    2.0120   -3.5660   -0.9670 C   0  0  0  0  0  0  0  0  0  0  0  0
    0.9220   -2.7220   -0.3980 C   0  0  2  0  0  0  0  0  0  0  0  0
    0.6610   -1.6570   -1.4120 N   0  0  0  0  0  0  0  0  0  0  0  0
    1.4060   -2.0000    0.8210 C   0  0  0  0  0  0  0  0  0  0  0  0
    1.7700   -2.6250    1.8170 O   0  0  0  0  0  0  0  0  0  0  0  0
   -0.4940   -6.3290    1.7700 H   0  0  0  0  0  0  0  0  0  0  0  0
   -1.1020   -5.2430    0.4280 H   0  0  0  0  0  0  0  0  0  0  0  0
    0.0790   -4.6670    1.7280 H   0  0  0  0  0  0  0  0  0  0  0  0
    3.3530   -5.1540   -0.6610 H   0  0  0  0  0  0  0  0  0  0  0  0
    2.8200   -4.4260    0.8490 H   0  0  0  0  0  0  0  0  0  0  0  0
    2.8750   -2.8910   -1.2330 H   0  0  0  0  0  0  0  0  0  0  0  0
    1.6390   -3.9130   -1.9770 H   0  0  0  0  0  0  0  0  0  0  0  0
    0.0320   -3.2970   -0.2080 H   0  0  0  0  0  0  0  0  0  0  0  0
    1.6380   -1.2790   -1.6000 H   0  0  0  0  0  0  0  0  0  0  0  0
    0.3000   -2.1850   -2.2340 H   0  0  0  0  0  0  0  0  0  0  0  0
    1.4620   -0.5750    0.8690 N   0  0  0  0  0  0  0  0  0  0  0  0
    1.9320    0.0820    2.0560 C   0  0  1  0  0  0  0  0  0  0  0  0
    3.1480    0.9440    1.7920 C   0  0  0  0  0  0  0  0  0  0  0  0
    2.7330    2.2210    0.5700 S   0  0  0  0  0  0  0  0  0  0  0  0
    0.8400    0.9910    2.5560 C   0  0  0  0  0  0  0  0  0  0  0  0
    1.0150    1.6870    3.6010 O   0  0  0  0  0  0  0  0  0  0  0  0
    1.1580   -0.0290    0.0350 H   0  0  0  0  0  0  0  0  0  0  0  0
    2.2150   -0.6500    2.8410 H   0  0  0  0  0  0  0  0  0  0  0  0
    4.0200    0.3660    1.4890 H   0  0  0  0  0  0  0  0  0  0  0  0
    3.3980    1.4420    2.7680 H   0  0  0  0  0  0  0  0  0  0  0  0
    3.9160    2.8080    0.0620 H   0  0  0  0  0  0  0  0  0  0  0  0
   -0.4040    1.1050    1.8940 N   0  0  0  0  0  0  0  0  0  0  0  0
   -1.4780    1.9660    2.3400 C   0  0  1  0  0  0  0  0  0  0  0  0
   -1.7330    3.1020    1.4190 C   0  0  0  0  0  0  0  0  0  0  0  0
   -2.0660    2.8170    0.0150 C   0  0  0  0  0  0  0  0  0  0  0  0
   -3.2330    2.0500   -0.3230 C   0  0  0  0  0  0  0  0  0  0  0  0
   -4.0500    1.5850    0.4740 O   0  0  0  0  0  0  0  0  0  0  0  0
   -2.6620    1.2430    2.8390 C   0  0  0  0  0  0  0  0  0  0  0  0
   -2.7360   -0.0090    2.7620 O   0  0  0  0  0  0  0  0  0  0  0  0
   -3.4810    1.7990   -1.6860 O   0  0  0  0  0  0  0  0  0  0  0  0
   -3.7390    1.9160    3.4180 O   0  0  0  0  0  0  0  0  0  0  0  0
   -0.5540    0.5400    1.0390 H   0  0  0  0  0  0  0  0  0  0  0  0
   -1.0650    2.4800    3.2960 H   0  0  0  0  0  0  0  0  0  0  0  0
   -0.8330    3.7810    1.4280 H   0  0  0  0  0  0  0  0  0  0  0  0
   -2.5450    3.7290    1.8920 H   0  0  0  0  0  0  0  0  0  0  0  0
   -1.1360    2.4280   -0.5110 H   0  0  0  0  0  0  0  0  0  0  0  0
   -2.1960    3.8370   -0.4890 H   0  0  0  0  0  0  0  0  0  0  0  0
   -4.1960    1.1440   -1.9650 H   0  0  0  0  0  0  0  0  0  0  0  0
  1 11  1  0  0  0  0
  1  9  1  0  0  0  0
  2  1  1  0  0  0  0
  3  2  1  0  0  0  0
  3 13  1  0  0  0  0
  4  5  1  0  0  0  0
  4  3  1  0  0  0  0
  5 16  1  1  0  0  0
  5  7  1  0  0  0  0
  6  5  1  0  0  0  0
  7 19  1  0  0  0  0
  7  8  2  0  0  0  0
 10  1  1  0  0  0  0
 12  3  1  0  0  0  0
 14  4  1  0  0  0  0
 15  4  1  0  0  0  0
 17  6  1  0  0  0  0
 18  6  1  0  0  0  0
 19 20  1  0  0  0  0
 20 23  1  0  0  0  0
 20 26  1  1  0  0  0
 21 20  1  0  0  0  0
 21 28  1  0  0  0  0
 22 21  1  0  0  0  0
 23 24  2  0  0  0  0
 25 19  1  0  0  0  0
 27 21  1  0  0  0  0
 29 22  1  0  0  0  0
 30 31  1  0  0  0  0
 30 23  1  0  0  0  0
 31 36  1  0  0  0  0
 31 41  1  1  0  0  0
 32 42  1  0  0  0  0
 32 43  1  0  0  0  0
 32 31  1  0  0  0  0
 33 32  1  0  0  0  0
 34 33  1  0  0  0  0
 34 35  2  0  0  0  0
 36 39  1  0  0  0  0
 37 36  2  0  0  0  0
 38 34  1  0  0  0  0
 40 30  1  0  0  0  0
 44 33  1  0  0  0  0
 45 33  1  0  0  0  0
 46 38  1  0  0  0  0
M  END
$$$$
