MCL.pdb
 OpenBabel07022418543D

 49 48  0  0  1  0  0  0  0  0999 V2000
   -0.7470   -3.2070    4.0410 C   0  0  0  0  0  0  0  0  0  0  0  0
   -0.3720   -2.1740    2.6220 S   0  0  0  0  0  0  0  0  0  0  0  0
    1.3580   -1.7220    2.5030 C   0  0  0  0  0  0  0  0  0  0  0  0
    2.2860   -2.8690    2.2280 C   0  0  0  0  0  0  0  0  0  0  0  0
    1.9590   -3.5460    0.9090 C   0  0  2  0  0  0  0  0  0  0  0  0
    2.8850   -4.6390    0.6760 N   0  0  0  0  0  0  0  0  0  0  0  0
    2.0720   -2.6320   -0.2480 C   0  0  0  0  0  0  0  0  0  0  0  0
    3.1830   -2.5800   -0.8810 O   0  0  0  0  0  0  0  0  0  0  0  0
   -1.5650   -2.7830    4.6700 H   0  0  0  0  0  0  0  0  0  0  0  0
    0.1330   -3.2710    4.7010 H   0  0  0  0  0  0  0  0  0  0  0  0
   -0.9720   -4.2140    3.6690 H   0  0  0  0  0  0  0  0  0  0  0  0
    1.6850   -1.2040    3.4360 H   0  0  0  0  0  0  0  0  0  0  0  0
    1.4620   -0.9630    1.6760 H   0  0  0  0  0  0  0  0  0  0  0  0
    2.2290   -3.5990    3.0500 H   0  0  0  0  0  0  0  0  0  0  0  0
    3.3470   -2.4940    2.1840 H   0  0  0  0  0  0  0  0  0  0  0  0
    0.9490   -3.9830    0.9810 H   0  0  0  0  0  0  0  0  0  0  0  0
    3.4590   -4.5420   -0.1590 H   0  0  0  0  0  0  0  0  0  0  0  0
    2.5300   -5.5640    0.9070 H   0  0  0  0  0  0  0  0  0  0  0  0
    1.0490   -1.7920   -0.7410 N   0  0  0  0  0  0  0  0  0  0  0  0
    1.2980   -0.9320   -1.8880 C   0  0  1  0  0  0  0  0  0  0  0  0
    0.5900   -1.4770   -3.1230 C   0  0  0  0  0  0  0  0  0  0  0  0
    1.2590   -3.1370   -3.4340 S   0  0  0  0  0  0  0  0  0  0  0  0
    0.8460    0.4550   -1.6210 C   0  0  0  0  0  0  0  0  0  0  0  0
    1.0970    1.3180   -2.5220 O   0  0  0  0  0  0  0  0  0  0  0  0
    0.1270   -1.8130   -0.2710 H   0  0  0  0  0  0  0  0  0  0  0  0
    2.3790   -0.9310   -2.1240 H   0  0  0  0  0  0  0  0  0  0  0  0
   -0.4970   -1.5740   -2.9860 H   0  0  0  0  0  0  0  0  0  0  0  0
    0.7910   -0.8180   -3.9830 H   0  0  0  0  0  0  0  0  0  0  0  0
    2.6580   -3.0280   -3.5420 H   0  0  0  0  0  0  0  0  0  0  0  0
   -3.9610    1.6330    0.6940 C   0  0  0  0  0  0  0  0  0  0  0  0
   -2.4500    1.4040    0.8650 C   0  0  0  0  0  0  0  0  0  0  0  0
   -2.1550    1.8340    2.2900 C   0  0  0  0  0  0  0  0  0  0  0  0
   -1.7790    2.2740   -0.1510 C   0  0  0  0  0  0  0  0  0  0  0  0
   -0.2860    2.1950   -0.1740 C   0  0  2  0  0  0  0  0  0  0  0  0
    0.1730    0.8360   -0.4600 N   0  0  0  0  0  0  0  0  0  0  0  0
    0.3730    2.7750    1.0150 C   0  0  0  0  0  0  0  0  0  0  0  0
    0.0690    3.9380    1.3690 O   0  0  0  0  0  0  0  0  0  0  0  0
    1.3180    2.0910    1.7630 O   0  0  0  0  0  0  0  0  0  0  0  0
   -4.1530    1.7010   -0.4020 H   0  0  0  0  0  0  0  0  0  0  0  0
   -4.2920    2.5810    1.1280 H   0  0  0  0  0  0  0  0  0  0  0  0
   -4.5350    0.7910    1.0850 H   0  0  0  0  0  0  0  0  0  0  0  0
   -2.2050    0.3450    0.7920 H   0  0  0  0  0  0  0  0  0  0  0  0
   -2.2620    2.9390    2.3890 H   0  0  0  0  0  0  0  0  0  0  0  0
   -1.1740    1.4860    2.6630 H   0  0  0  0  0  0  0  0  0  0  0  0
   -2.9010    1.3310    2.9780 H   0  0  0  0  0  0  0  0  0  0  0  0
   -2.0390    3.3430    0.0900 H   0  0  0  0  0  0  0  0  0  0  0  0
   -2.1720    2.1120   -1.1780 H   0  0  0  0  0  0  0  0  0  0  0  0
    0.0380    2.7910   -1.0810 H   0  0  0  0  0  0  0  0  0  0  0  0
   -0.0380    0.1310    0.2670 H   0  0  0  0  0  0  0  0  0  0  0  0
  1  9  1  0  0  0  0
  1 10  1  0  0  0  0
  2  1  1  0  0  0  0
  3  2  1  0  0  0  0
  3 12  1  0  0  0  0
  4  3  1  0  0  0  0
  4 14  1  0  0  0  0
  5 16  1  1  0  0  0
  5  4  1  0  0  0  0
  6 18  1  0  0  0  0
  6  5  1  0  0  0  0
  7  5  1  0  0  0  0
  8  7  2  0  0  0  0
 11  1  1  0  0  0  0
 13  3  1  0  0  0  0
 15  4  1  0  0  0  0
 17  6  1  0  0  0  0
 19 25  1  0  0  0  0
 19  7  1  0  0  0  0
 20 26  1  6  0  0  0
 20 23  1  0  0  0  0
 20 19  1  0  0  0  0
 21 27  1  0  0  0  0
 21 20  1  0  0  0  0
 22 21  1  0  0  0  0
 23 35  1  0  0  0  0
 24 23  2  0  0  0  0
 28 21  1  0  0  0  0
 29 22  1  0  0  0  0
 30 31  1  0  0  0  0
 30 41  1  0  0  0  0
 30 40  1  0  0  0  0
 31 32  1  0  0  0  0
 32 43  1  0  0  0  0
 32 44  1  0  0  0  0
 32 45  1  0  0  0  0
 33 46  1  0  0  0  0
 33 31  1  0  0  0  0
 34 48  1  6  0  0  0
 34 33  1  0  0  0  0
 34 36  1  0  0  0  0
 35 34  1  0  0  0  0
 35 49  1  0  0  0  0
 36 37  2  0  0  0  0
 36 38  1  0  0  0  0
 39 30  1  0  0  0  0
 42 31  1  0  0  0  0
 47 33  1  0  0  0  0
M  END
$$$$
