MCM.pdb
 OpenBabel07022418543D

 47 46  0  0  1  0  0  0  0  0999 V2000
    1.1400   -4.2610    3.5000 C   0  0  0  0  0  0  0  0  0  0  0  0
    0.8510   -2.5500    2.9490 S   0  0  0  0  0  0  0  0  0  0  0  0
    1.8120   -2.1530    1.4880 C   0  0  0  0  0  0  0  0  0  0  0  0
    1.3570   -2.9700    0.2750 C   0  0  0  0  0  0  0  0  0  0  0  0
    2.1740   -2.6160   -0.9400 C   0  0  2  0  0  0  0  0  0  0  0  0
    3.5690   -2.8980   -0.6760 N   0  0  0  0  0  0  0  0  0  0  0  0
    2.0170   -1.2310   -1.3720 C   0  0  0  0  0  0  0  0  0  0  0  0
    3.0380   -0.4870   -1.4820 O   0  0  0  0  0  0  0  0  0  0  0  0
    0.5060   -4.5230    4.3490 H   0  0  0  0  0  0  0  0  0  0  0  0
    2.2070   -4.3460    3.7830 H   0  0  0  0  0  0  0  0  0  0  0  0
    0.9950   -4.9810    2.6560 H   0  0  0  0  0  0  0  0  0  0  0  0
    2.9150   -2.3230    1.6650 H   0  0  0  0  0  0  0  0  0  0  0  0
    1.7190   -1.0670    1.2890 H   0  0  0  0  0  0  0  0  0  0  0  0
    0.2890   -2.8040    0.1520 H   0  0  0  0  0  0  0  0  0  0  0  0
    1.5110   -4.0350    0.5440 H   0  0  0  0  0  0  0  0  0  0  0  0
    1.8770   -3.3340   -1.7520 H   0  0  0  0  0  0  0  0  0  0  0  0
    3.6610   -3.9340   -0.5530 H   0  0  0  0  0  0  0  0  0  0  0  0
    4.1840   -2.6410   -1.4670 H   0  0  0  0  0  0  0  0  0  0  0  0
    0.7790   -0.6130   -1.6930 N   0  0  0  0  0  0  0  0  0  0  0  0
    0.5850    0.7320   -2.1160 C   0  0  1  0  0  0  0  0  0  0  0  0
   -0.1270    0.9270   -3.3960 C   0  0  0  0  0  0  0  0  0  0  0  0
    0.7060    0.1610   -4.8000 S   0  0  0  0  0  0  0  0  0  0  0  0
   -0.1540    1.4600   -1.0350 C   0  0  0  0  0  0  0  0  0  0  0  0
   -0.4670    2.6830   -1.1900 O   0  0  0  0  0  0  0  0  0  0  0  0
   -0.0770   -1.2130   -1.6070 H   0  0  0  0  0  0  0  0  0  0  0  0
    1.5840    1.2140   -2.1740 H   0  0  0  0  0  0  0  0  0  0  0  0
   -1.2020    0.6410   -3.3500 H   0  0  0  0  0  0  0  0  0  0  0  0
   -0.1380    2.0350   -3.6040 H   0  0  0  0  0  0  0  0  0  0  0  0
    1.8890    0.8370   -5.1090 H   0  0  0  0  0  0  0  0  0  0  0  0
   -2.8940   -0.2930    4.7750 C   0  0  0  0  0  0  0  0  0  0  0  0
   -3.0520    1.3680    4.1260 S   0  0  0  0  0  0  0  0  0  0  0  0
   -3.5360    1.4500    2.4070 C   0  0  0  0  0  0  0  0  0  0  0  0
   -2.5840    0.9330    1.4110 C   0  0  0  0  0  0  0  0  0  0  0  0
   -1.2620    1.5780    1.2420 C   0  0  2  0  0  0  0  0  0  0  0  0
   -0.5250    0.8360    0.1750 N   0  0  0  0  0  0  0  0  0  0  0  0
   -0.4100    1.7560    2.4010 C   0  0  0  0  0  0  0  0  0  0  0  0
    0.7410    1.1910    2.5130 O   0  0  0  0  0  0  0  0  0  0  0  0
   -0.7470    2.5460    3.4790 O   0  0  0  0  0  0  0  0  0  0  0  0
   -3.7740   -0.5370    5.3940 H   0  0  0  0  0  0  0  0  0  0  0  0
   -2.0230   -0.2850    5.4940 H   0  0  0  0  0  0  0  0  0  0  0  0
   -2.6620   -1.0600    4.0100 H   0  0  0  0  0  0  0  0  0  0  0  0
   -4.5450    0.9300    2.3360 H   0  0  0  0  0  0  0  0  0  0  0  0
   -3.8260    2.5300    2.2170 H   0  0  0  0  0  0  0  0  0  0  0  0
   -2.4540   -0.1850    1.6190 H   0  0  0  0  0  0  0  0  0  0  0  0
   -3.1500    0.8920    0.4190 H   0  0  0  0  0  0  0  0  0  0  0  0
   -1.4420    2.6080    0.8110 H   0  0  0  0  0  0  0  0  0  0  0  0
   -0.2740   -0.1590    0.3130 H   0  0  0  0  0  0  0  0  0  0  0  0
  1 10  1  0  0  0  0
  1  9  1  0  0  0  0
  2  1  1  0  0  0  0
  3 12  1  0  0  0  0
  3  2  1  0  0  0  0
  4 15  1  0  0  0  0
  4  3  1  0  0  0  0
  5 16  1  6  0  0  0
  5  6  1  0  0  0  0
  5  4  1  0  0  0  0
  6 17  1  0  0  0  0
  7  5  1  0  0  0  0
  8  7  2  0  0  0  0
 11  1  1  0  0  0  0
 13  3  1  0  0  0  0
 14  4  1  0  0  0  0
 18  6  1  0  0  0  0
 19 25  1  0  0  0  0
 19  7  1  0  0  0  0
 20 26  1  6  0  0  0
 20 19  1  0  0  0  0
 20 23  1  0  0  0  0
 21 27  1  0  0  0  0
 21 20  1  0  0  0  0
 22 21  1  0  0  0  0
 23 35  1  0  0  0  0
 24 23  2  0  0  0  0
 28 21  1  0  0  0  0
 29 22  1  0  0  0  0
 30 39  1  0  0  0  0
 30 40  1  0  0  0  0
 31 30  1  0  0  0  0
 32 31  1  0  0  0  0
 33 44  1  0  0  0  0
 33 32  1  0  0  0  0
 34 46  1  6  0  0  0
 34 33  1  0  0  0  0
 34 36  1  0  0  0  0
 35 47  1  0  0  0  0
 35 34  1  0  0  0  0
 36 37  2  0  0  0  0
 36 38  1  0  0  0  0
 41 30  1  0  0  0  0
 42 32  1  0  0  0  0
 43 32  1  0  0  0  0
 45 33  1  0  0  0  0
M  END
$$$$
