MCY.pdb
 OpenBabel07022418553D

 51 51  0  0  1  0  0  0  0  0999 V2000
    0.9440   -2.0080    4.8590 C   0  0  0  0  0  0  0  0  0  0  0  0
    1.5770   -3.4890    4.0570 S   0  0  0  0  0  0  0  0  0  0  0  0
    1.9720   -3.2970    2.3470 C   0  0  0  0  0  0  0  0  0  0  0  0
    3.1730   -2.5500    1.9550 C   0  0  0  0  0  0  0  0  0  0  0  0
    3.3590   -1.1420    2.3410 C   0  0  2  0  0  0  0  0  0  0  0  0
    3.4200   -0.8590    3.7490 N   0  0  0  0  0  0  0  0  0  0  0  0
    2.4130   -0.2160    1.6410 C   0  0  0  0  0  0  0  0  0  0  0  0
    1.7730    0.6790    2.2650 O   0  0  0  0  0  0  0  0  0  0  0  0
    1.6490   -1.6690    5.6230 H   0  0  0  0  0  0  0  0  0  0  0  0
   -0.0700   -2.2150    5.3240 H   0  0  0  0  0  0  0  0  0  0  0  0
    0.7680   -1.2040    4.1230 H   0  0  0  0  0  0  0  0  0  0  0  0
    2.0960   -4.3420    1.9060 H   0  0  0  0  0  0  0  0  0  0  0  0
    1.0400   -2.9430    1.8120 H   0  0  0  0  0  0  0  0  0  0  0  0
    4.0690   -3.1930    2.2400 H   0  0  0  0  0  0  0  0  0  0  0  0
    3.2250   -2.6180    0.8130 H   0  0  0  0  0  0  0  0  0  0  0  0
    4.3740   -0.8290    1.9360 H   0  0  0  0  0  0  0  0  0  0  0  0
    3.7660   -1.6930    4.2770 H   0  0  0  0  0  0  0  0  0  0  0  0
    4.0640   -0.0600    3.9410 H   0  0  0  0  0  0  0  0  0  0  0  0
    2.1750   -0.2770    0.2520 N   0  0  0  0  0  0  0  0  0  0  0  0
    1.2830    0.5830   -0.4700 C   0  0  1  0  0  0  0  0  0  0  0  0
    1.9430    1.4220   -1.5160 C   0  0  0  0  0  0  0  0  0  0  0  0
    2.7750    0.4730   -2.7900 S   0  0  0  0  0  0  0  0  0  0  0  0
    0.1830   -0.2500   -1.0250 C   0  0  0  0  0  0  0  0  0  0  0  0
    0.1080   -1.4990   -0.8520 O   0  0  0  0  0  0  0  0  0  0  0  0
    2.6810   -1.0050   -0.3250 H   0  0  0  0  0  0  0  0  0  0  0  0
    0.8240    1.2760    0.2680 H   0  0  0  0  0  0  0  0  0  0  0  0
    1.1440    2.0150   -2.0130 H   0  0  0  0  0  0  0  0  0  0  0  0
    2.5950    2.1580   -1.0080 H   0  0  0  0  0  0  0  0  0  0  0  0
    3.5760   -0.5400   -2.2430 H   0  0  0  0  0  0  0  0  0  0  0  0
   -3.1760   -0.6050    3.8070 O   0  0  0  0  0  0  0  0  0  0  0  0
   -3.1970   -0.4460    2.4330 C   0  0  0  0  0  0  0  0  0  0  0  0
   -2.7180    0.7310    1.9040 C   0  0  0  0  0  0  0  0  0  0  0  0
   -2.7280    0.9130    0.5420 C   0  0  0  0  0  0  0  0  0  0  0  0
   -3.2220   -0.0900   -0.2850 C   0  0  0  0  0  0  0  0  0  0  0  0
   -3.2420    0.0850   -1.7610 C   0  0  0  0  0  0  0  0  0  0  0  0
   -1.9580   -0.4180   -2.3620 C   0  0  2  0  0  0  0  0  0  0  0  0
   -0.8580    0.3450   -1.7940 N   0  0  0  0  0  0  0  0  0  0  0  0
   -2.0050   -0.2920   -3.8370 C   0  0  0  0  0  0  0  0  0  0  0  0
   -1.1910    0.3930   -4.5090 O   0  0  0  0  0  0  0  0  0  0  0  0
   -3.6970   -1.2610    0.2710 C   0  0  0  0  0  0  0  0  0  0  0  0
   -3.6840   -1.4390    1.6380 C   0  0  0  0  0  0  0  0  0  0  0  0
   -2.9940   -0.9600   -4.5220 O   0  0  0  0  0  0  0  0  0  0  0  0
   -2.9500    0.1380    4.4550 H   0  0  0  0  0  0  0  0  0  0  0  0
   -2.3280    1.5270    2.5250 H   0  0  0  0  0  0  0  0  0  0  0  0
   -2.3740    1.8000    0.0450 H   0  0  0  0  0  0  0  0  0  0  0  0
   -4.1050   -0.4960   -2.1870 H   0  0  0  0  0  0  0  0  0  0  0  0
   -3.4110    1.1630   -2.0120 H   0  0  0  0  0  0  0  0  0  0  0  0
   -1.8740   -1.4960   -2.1210 H   0  0  0  0  0  0  0  0  0  0  0  0
   -0.7910    1.3770   -1.9320 H   0  0  0  0  0  0  0  0  0  0  0  0
   -4.0850   -2.0530   -0.3650 H   0  0  0  0  0  0  0  0  0  0  0  0
   -4.0450   -2.3320    2.0850 H   0  0  0  0  0  0  0  0  0  0  0  0
  1 10  1  0  0  0  0
  1  9  1  0  0  0  0
  2  1  1  0  0  0  0
  3  2  1  0  0  0  0
  4 14  1  0  0  0  0
  4  5  1  0  0  0  0
  4  3  1  0  0  0  0
  5 16  1  6  0  0  0
  5  6  1  0  0  0  0
  6 18  1  0  0  0  0
  6 17  1  0  0  0  0
  7  8  2  0  0  0  0
  7  5  1  0  0  0  0
 11  1  1  0  0  0  0
 12  3  1  0  0  0  0
 13  3  1  0  0  0  0
 15  4  1  0  0  0  0
 19  7  1  0  0  0  0
 20 19  1  0  0  0  0
 20 26  1  1  0  0  0
 21 28  1  0  0  0  0
 21 20  1  0  0  0  0
 22 29  1  0  0  0  0
 22 21  1  0  0  0  0
 23 24  2  0  0  0  0
 23 20  1  0  0  0  0
 25 19  1  0  0  0  0
 27 21  1  0  0  0  0
 30 43  1  0  0  0  0
 31 30  1  0  0  0  0
 32 31  1  0  0  0  0
 32 44  1  0  0  0  0
 33 32  2  0  0  0  0
 34 40  2  0  0  0  0
 34 33  1  0  0  0  0
 35 34  1  0  0  0  0
 36 48  1  1  0  0  0
 36 37  1  0  0  0  0
 36 35  1  0  0  0  0
 37 23  1  0  0  0  0
 38 36  1  0  0  0  0
 39 38  1  0  0  0  0
 40 41  1  0  0  0  0
 41 51  1  0  0  0  0
 41 31  2  0  0  0  0
 42 38  2  0  0  0  0
 45 33  1  0  0  0  0
 46 35  1  0  0  0  0
 47 35  1  0  0  0  0
 49 37  1  0  0  0  0
 50 40  1  0  0  0  0
M  END
$$$$
