MDA.pdb
 OpenBabel07022418543D

 42 41  0  0  1  0  0  0  0  0999 V2000
    1.4950   -6.4690    2.3490 C   0  0  0  0  0  0  0  0  0  0  0  0
    0.1120   -6.2560    1.2300 S   0  0  0  0  0  0  0  0  0  0  0  0
    0.5570   -5.4910   -0.3230 C   0  0  0  0  0  0  0  0  0  0  0  0
    1.0120   -4.0580   -0.1650 C   0  0  0  0  0  0  0  0  0  0  0  0
   -0.0440   -3.1820    0.4400 C   0  0  2  0  0  0  0  0  0  0  0  0
   -1.2510   -3.1190   -0.3290 N   0  0  0  0  0  0  0  0  0  0  0  0
    0.5500   -1.8450    0.6790 C   0  0  0  0  0  0  0  0  0  0  0  0
    1.6120   -1.7840    1.3440 O   0  0  0  0  0  0  0  0  0  0  0  0
    1.4700   -7.5250    2.7290 H   0  0  0  0  0  0  0  0  0  0  0  0
    2.4800   -6.3450    1.8680 H   0  0  0  0  0  0  0  0  0  0  0  0
    1.3790   -5.8380    3.2680 H   0  0  0  0  0  0  0  0  0  0  0  0
   -0.2310   -5.6080   -1.0690 H   0  0  0  0  0  0  0  0  0  0  0  0
    1.4530   -6.0470   -0.7270 H   0  0  0  0  0  0  0  0  0  0  0  0
    1.2570   -3.6610   -1.1710 H   0  0  0  0  0  0  0  0  0  0  0  0
    1.9190   -4.0130    0.4400 H   0  0  0  0  0  0  0  0  0  0  0  0
   -0.3150   -3.6520    1.4250 H   0  0  0  0  0  0  0  0  0  0  0  0
   -2.0580   -2.9010    0.3260 H   0  0  0  0  0  0  0  0  0  0  0  0
   -1.4790   -4.0180   -0.7750 H   0  0  0  0  0  0  0  0  0  0  0  0
   -0.0050   -0.6350    0.2020 N   0  0  0  0  0  0  0  0  0  0  0  0
    0.6210    0.6390    0.4670 C   0  0  1  0  0  0  0  0  0  0  0  0
    0.9660    1.3700   -0.8130 C   0  0  0  0  0  0  0  0  0  0  0  0
    1.8950    0.5440   -1.5980 C   0  0  0  0  0  0  0  0  0  0  0  0
    1.4770   -0.4720   -2.1900 O   0  0  0  0  0  0  0  0  0  0  0  0
   -0.3100    1.4880    1.2950 C   0  0  0  0  0  0  0  0  0  0  0  0
   -1.4410    1.0720    1.6550 O   0  0  0  0  0  0  0  0  0  0  0  0
    3.2270    0.9050   -1.6730 O   0  0  0  0  0  0  0  0  0  0  0  0
   -0.8870   -0.6950   -0.3500 H   0  0  0  0  0  0  0  0  0  0  0  0
    1.5230    0.4920    1.0570 H   0  0  0  0  0  0  0  0  0  0  0  0
    1.4590    2.3190   -0.5230 H   0  0  0  0  0  0  0  0  0  0  0  0
    0.0560    1.5690   -1.4160 H   0  0  0  0  0  0  0  0  0  0  0  0
    3.9500    0.2910   -2.0380 H   0  0  0  0  0  0  0  0  0  0  0  0
   -0.1780    3.9930    3.8240 C   0  0  0  0  0  0  0  0  0  0  0  0
   -0.7910    3.6570    2.4920 C   0  0  2  0  0  0  0  0  0  0  0  0
    0.0630    2.7960    1.6970 N   0  0  0  0  0  0  0  0  0  0  0  0
   -1.1030    4.9220    1.8140 C   0  0  0  0  0  0  0  0  0  0  0  0
   -1.8360    5.7770    2.3660 O   0  0  0  0  0  0  0  0  0  0  0  0
   -0.6030    5.2100    0.5550 O   0  0  0  0  0  0  0  0  0  0  0  0
    0.5980    3.2570    4.1290 H   0  0  0  0  0  0  0  0  0  0  0  0
   -0.9770    3.9490    4.5920 H   0  0  0  0  0  0  0  0  0  0  0  0
    0.2140    5.0330    3.8580 H   0  0  0  0  0  0  0  0  0  0  0  0
   -1.7190    3.0790    2.6790 H   0  0  0  0  0  0  0  0  0  0  0  0
    1.0020    3.1460    1.4000 H   0  0  0  0  0  0  0  0  0  0  0  0
  1  9  1  0  0  0  0
  1 11  1  0  0  0  0
  2  1  1  0  0  0  0
  3  4  1  0  0  0  0
  3  2  1  0  0  0  0
  4 15  1  0  0  0  0
  4  5  1  0  0  0  0
  5  7  1  0  0  0  0
  5 16  1  1  0  0  0
  6 17  1  0  0  0  0
  6  5  1  0  0  0  0
  7  8  2  0  0  0  0
 10  1  1  0  0  0  0
 12  3  1  0  0  0  0
 13  3  1  0  0  0  0
 14  4  1  0  0  0  0
 18  6  1  0  0  0  0
 19 20  1  0  0  0  0
 19  7  1  0  0  0  0
 20 28  1  1  0  0  0
 20 24  1  0  0  0  0
 21 29  1  0  0  0  0
 21 20  1  0  0  0  0
 22 21  1  0  0  0  0
 23 22  2  0  0  0  0
 24 25  2  0  0  0  0
 24 34  1  0  0  0  0
 26 22  1  0  0  0  0
 27 19  1  0  0  0  0
 30 21  1  0  0  0  0
 31 26  1  0  0  0  0
 32 40  1  0  0  0  0
 32 38  1  0  0  0  0
 32 39  1  0  0  0  0
 33 41  1  1  0  0  0
 33 32  1  0  0  0  0
 34 33  1  0  0  0  0
 35 36  1  0  0  0  0
 35 33  1  0  0  0  0
 37 35  2  0  0  0  0
 42 34  1  0  0  0  0
M  END
$$$$
