MDC.pdb
 OpenBabel07022418543D

 43 42  0  0  1  0  0  0  0  0999 V2000
    3.5430   -6.4310    1.7790 C   0  0  0  0  0  0  0  0  0  0  0  0
    4.2440   -4.8290    1.3700 S   0  0  0  0  0  0  0  0  0  0  0  0
    3.1150   -3.4640    1.8040 C   0  0  0  0  0  0  0  0  0  0  0  0
    1.8900   -3.5090    0.9650 C   0  0  0  0  0  0  0  0  0  0  0  0
    0.8810   -2.4550    1.2240 C   0  0  2  0  0  0  0  0  0  0  0  0
   -0.2700   -2.6350    0.3200 N   0  0  0  0  0  0  0  0  0  0  0  0
    1.4010   -1.0660    1.0560 C   0  0  0  0  0  0  0  0  0  0  0  0
    2.3800   -0.6590    1.7200 O   0  0  0  0  0  0  0  0  0  0  0  0
    2.5980   -6.3880    2.3280 H   0  0  0  0  0  0  0  0  0  0  0  0
    4.2740   -6.9520    2.4500 H   0  0  0  0  0  0  0  0  0  0  0  0
    3.4810   -7.0610    0.8580 H   0  0  0  0  0  0  0  0  0  0  0  0
    3.7010   -2.5450    1.5030 H   0  0  0  0  0  0  0  0  0  0  0  0
    2.9390   -3.5260    2.8790 H   0  0  0  0  0  0  0  0  0  0  0  0
    1.4790   -4.5360    1.0170 H   0  0  0  0  0  0  0  0  0  0  0  0
    2.2210   -3.3990   -0.1090 H   0  0  0  0  0  0  0  0  0  0  0  0
    0.4680   -2.6120    2.2420 H   0  0  0  0  0  0  0  0  0  0  0  0
   -0.6110   -3.6180    0.4150 H   0  0  0  0  0  0  0  0  0  0  0  0
   -1.0340   -2.0260    0.6770 H   0  0  0  0  0  0  0  0  0  0  0  0
    0.8230   -0.1460    0.1490 N   0  0  0  0  0  0  0  0  0  0  0  0
    1.3860    1.1840    0.0420 C   0  0  1  0  0  0  0  0  0  0  0  0
    1.7990    1.5210   -1.3510 C   0  0  0  0  0  0  0  0  0  0  0  0
    0.6950    1.4830   -2.3200 C   0  0  0  0  0  0  0  0  0  0  0  0
   -0.4850    1.2050   -2.0370 O   0  0  0  0  0  0  0  0  0  0  0  0
    0.2890    2.1160    0.4920 C   0  0  0  0  0  0  0  0  0  0  0  0
    0.5700    3.3410    0.4790 O   0  0  0  0  0  0  0  0  0  0  0  0
    0.9620    1.7750   -3.6610 O   0  0  0  0  0  0  0  0  0  0  0  0
    0.0040   -0.4200   -0.4340 H   0  0  0  0  0  0  0  0  0  0  0  0
    2.2670    1.2920    0.7060 H   0  0  0  0  0  0  0  0  0  0  0  0
    2.3080    2.5060   -1.3430 H   0  0  0  0  0  0  0  0  0  0  0  0
    2.5600    0.7870   -1.6810 H   0  0  0  0  0  0  0  0  0  0  0  0
    0.1840    2.0740   -4.2550 H   0  0  0  0  0  0  0  0  0  0  0  0
   -0.9770    1.6930    0.9070 N   0  0  0  0  0  0  0  0  0  0  0  0
   -2.0330    2.5860    1.3420 C   0  0  1  0  0  0  0  0  0  0  0  0
   -3.2210    2.5340    0.4280 C   0  0  0  0  0  0  0  0  0  0  0  0
   -4.4640    3.6870    1.0780 S   0  0  0  0  0  0  0  0  0  0  0  0
   -2.3980    2.3410    2.7580 C   0  0  0  0  0  0  0  0  0  0  0  0
   -3.2930    3.0250    3.2890 O   0  0  0  0  0  0  0  0  0  0  0  0
   -1.7720    1.3650    3.5260 O   0  0  0  0  0  0  0  0  0  0  0  0
   -1.1730    0.6620    0.9040 H   0  0  0  0  0  0  0  0  0  0  0  0
   -1.6280    3.6280    1.2790 H   0  0  0  0  0  0  0  0  0  0  0  0
   -3.6630    1.4990    0.3990 H   0  0  0  0  0  0  0  0  0  0  0  0
   -2.9310    2.8920   -0.5690 H   0  0  0  0  0  0  0  0  0  0  0  0
   -5.4740    2.9470    1.7240 H   0  0  0  0  0  0  0  0  0  0  0  0
  1  9  1  0  0  0  0
  1 10  1  0  0  0  0
  2  1  1  0  0  0  0
  2  3  1  0  0  0  0
  3 13  1  0  0  0  0
  4 14  1  0  0  0  0
  4  5  1  0  0  0  0
  4  3  1  0  0  0  0
  5 16  1  1  0  0  0
  6 17  1  0  0  0  0
  6 18  1  0  0  0  0
  6  5  1  0  0  0  0
  7  5  1  0  0  0  0
  7  8  2  0  0  0  0
 11  1  1  0  0  0  0
 12  3  1  0  0  0  0
 15  4  1  0  0  0  0
 19  7  1  0  0  0  0
 20 19  1  0  0  0  0
 20 24  1  0  0  0  0
 20 28  1  1  0  0  0
 21 29  1  0  0  0  0
 21 20  1  0  0  0  0
 22 23  2  0  0  0  0
 22 21  1  0  0  0  0
 24 32  1  0  0  0  0
 25 24  2  0  0  0  0
 26 22  1  0  0  0  0
 27 19  1  0  0  0  0
 30 21  1  0  0  0  0
 31 26  1  0  0  0  0
 32 33  1  0  0  0  0
 33 40  1  6  0  0  0
 33 36  1  0  0  0  0
 34 35  1  0  0  0  0
 34 33  1  0  0  0  0
 35 43  1  0  0  0  0
 36 37  2  0  0  0  0
 36 38  1  0  0  0  0
 39 32  1  0  0  0  0
 41 34  1  0  0  0  0
 42 34  1  0  0  0  0
M  END
$$$$
