MDE.pdb
 OpenBabel07022418543D

 48 47  0  0  1  0  0  0  0  0999 V2000
    3.3130   -4.0060    1.9140 C   0  0  0  0  0  0  0  0  0  0  0  0
    2.8150   -4.1630    0.1950 S   0  0  0  0  0  0  0  0  0  0  0  0
    1.8140   -2.8440   -0.4030 C   0  0  0  0  0  0  0  0  0  0  0  0
    2.3990   -1.5250   -0.6870 C   0  0  0  0  0  0  0  0  0  0  0  0
    3.0720   -0.7560    0.3750 C   0  0  2  0  0  0  0  0  0  0  0  0
    4.2020   -1.4640    0.8840 N   0  0  0  0  0  0  0  0  0  0  0  0
    2.1710   -0.2580    1.4310 C   0  0  0  0  0  0  0  0  0  0  0  0
    2.4420   -0.4740    2.6260 O   0  0  0  0  0  0  0  0  0  0  0  0
    2.9930   -4.9320    2.4970 H   0  0  0  0  0  0  0  0  0  0  0  0
    4.4000   -3.8890    2.0570 H   0  0  0  0  0  0  0  0  0  0  0  0
    2.7960   -3.1790    2.4370 H   0  0  0  0  0  0  0  0  0  0  0  0
    1.2460   -3.1540   -1.3410 H   0  0  0  0  0  0  0  0  0  0  0  0
    1.0040   -2.6650    0.3750 H   0  0  0  0  0  0  0  0  0  0  0  0
    3.1140   -1.5750   -1.5570 H   0  0  0  0  0  0  0  0  0  0  0  0
    1.5620   -0.8500   -1.0780 H   0  0  0  0  0  0  0  0  0  0  0  0
    3.5090    0.1660   -0.1390 H   0  0  0  0  0  0  0  0  0  0  0  0
    4.8610   -0.8360    1.3920 H   0  0  0  0  0  0  0  0  0  0  0  0
    4.7330   -1.8440    0.0660 H   0  0  0  0  0  0  0  0  0  0  0  0
    1.0140    0.4570    1.0870 N   0  0  0  0  0  0  0  0  0  0  0  0
    0.0660    0.9930    2.0400 C   0  0  1  0  0  0  0  0  0  0  0  0
   -0.1150    2.4810    1.8060 C   0  0  0  0  0  0  0  0  0  0  0  0
    1.1690    3.2040    1.9610 C   0  0  0  0  0  0  0  0  0  0  0  0
    1.2210    4.4680    1.8000 O   0  0  0  0  0  0  0  0  0  0  0  0
   -1.2540    0.3300    1.8120 C   0  0  0  0  0  0  0  0  0  0  0  0
   -2.2470    0.6510    2.5230 O   0  0  0  0  0  0  0  0  0  0  0  0
    2.3700    2.5940    2.2800 O   0  0  0  0  0  0  0  0  0  0  0  0
    0.7810    0.6400    0.0700 H   0  0  0  0  0  0  0  0  0  0  0  0
    0.3500    0.7980    3.0820 H   0  0  0  0  0  0  0  0  0  0  0  0
   -0.8530    2.9140    2.4980 H   0  0  0  0  0  0  0  0  0  0  0  0
   -0.4980    2.6580    0.7770 H   0  0  0  0  0  0  0  0  0  0  0  0
    3.2430    2.8460    1.8170 H   0  0  0  0  0  0  0  0  0  0  0  0
   -1.4560   -0.6610    0.8210 N   0  0  0  0  0  0  0  0  0  0  0  0
   -2.7380   -1.3010    0.5990 C   0  0  1  0  0  0  0  0  0  0  0  0
   -3.0520   -1.1620   -0.8670 C   0  0  0  0  0  0  0  0  0  0  0  0
   -3.1160    0.2900   -1.2220 C   0  0  0  0  0  0  0  0  0  0  0  0
   -4.1940    0.9470   -0.4700 C   0  0  0  0  0  0  0  0  0  0  0  0
   -4.2670    2.2130   -0.5270 O   0  0  0  0  0  0  0  0  0  0  0  0
   -2.6590   -2.7810    0.8520 C   0  0  0  0  0  0  0  0  0  0  0  0
   -1.5420   -3.2290    1.2140 O   0  0  0  0  0  0  0  0  0  0  0  0
   -5.1510    0.3180    0.3020 O   0  0  0  0  0  0  0  0  0  0  0  0
   -3.7390   -3.6080    0.7000 O   0  0  0  0  0  0  0  0  0  0  0  0
   -0.6660   -0.9590    0.2130 H   0  0  0  0  0  0  0  0  0  0  0  0
   -3.4900   -0.8860    1.2620 H   0  0  0  0  0  0  0  0  0  0  0  0
   -4.0910   -1.5810   -0.9950 H   0  0  0  0  0  0  0  0  0  0  0  0
   -2.3210   -1.7280   -1.4800 H   0  0  0  0  0  0  0  0  0  0  0  0
   -2.1070    0.7160   -0.9710 H   0  0  0  0  0  0  0  0  0  0  0  0
   -3.3070    0.3760   -2.3230 H   0  0  0  0  0  0  0  0  0  0  0  0
   -5.5930    0.7210    1.1020 H   0  0  0  0  0  0  0  0  0  0  0  0
  1 10  1  0  0  0  0
  1 11  1  0  0  0  0
  1  9  1  0  0  0  0
  2  1  1  0  0  0  0
  3  2  1  0  0  0  0
  3 13  1  0  0  0  0
  4  3  1  0  0  0  0
  4  5  1  0  0  0  0
  5 16  1  6  0  0  0
  5  6  1  0  0  0  0
  5  7  1  0  0  0  0
  6 17  1  0  0  0  0
  7  8  2  0  0  0  0
 12  3  1  0  0  0  0
 14  4  1  0  0  0  0
 15  4  1  0  0  0  0
 18  6  1  0  0  0  0
 19  7  1  0  0  0  0
 19 20  1  0  0  0  0
 20 28  1  1  0  0  0
 21 22  1  0  0  0  0
 21 20  1  0  0  0  0
 21 29  1  0  0  0  0
 22 26  1  0  0  0  0
 23 22  2  0  0  0  0
 24 20  1  0  0  0  0
 24 25  2  0  0  0  0
 27 19  1  0  0  0  0
 30 21  1  0  0  0  0
 31 26  1  0  0  0  0
 32 24  1  0  0  0  0
 33 32  1  0  0  0  0
 33 38  1  0  0  0  0
 33 43  1  1  0  0  0
 34 33  1  0  0  0  0
 35 46  1  0  0  0  0
 35 34  1  0  0  0  0
 35 36  1  0  0  0  0
 36 40  1  0  0  0  0
 37 36  2  0  0  0  0
 38 39  1  0  0  0  0
 40 48  1  0  0  0  0
 41 38  2  0  0  0  0
 42 32  1  0  0  0  0
 44 34  1  0  0  0  0
 45 34  1  0  0  0  0
 47 35  1  0  0  0  0
M  END
$$$$
