MDL.pdb
 OpenBabel07022418543D

 51 50  0  0  1  0  0  0  0  0999 V2000
    1.2330   -4.8150    0.0990 C   0  0  0  0  0  0  0  0  0  0  0  0
    2.0800   -3.4180   -0.6580 S   0  0  0  0  0  0  0  0  0  0  0  0
    2.5280   -2.2120    0.6120 C   0  0  0  0  0  0  0  0  0  0  0  0
    3.2500   -1.0480   -0.0580 C   0  0  0  0  0  0  0  0  0  0  0  0
    3.6440   -0.0040    0.9820 C   0  0  2  0  0  0  0  0  0  0  0  0
    4.5150   -0.5380    1.9810 N   0  0  0  0  0  0  0  0  0  0  0  0
    2.4080    0.6010    1.5300 C   0  0  0  0  0  0  0  0  0  0  0  0
    2.2600    0.5940    2.7750 O   0  0  0  0  0  0  0  0  0  0  0  0
    0.1720   -4.8110   -0.2700 H   0  0  0  0  0  0  0  0  0  0  0  0
    1.7330   -5.7730   -0.2290 H   0  0  0  0  0  0  0  0  0  0  0  0
    1.2900   -4.7360    1.1840 H   0  0  0  0  0  0  0  0  0  0  0  0
    3.1900   -2.6960    1.3630 H   0  0  0  0  0  0  0  0  0  0  0  0
    1.6590   -1.8250    1.1650 H   0  0  0  0  0  0  0  0  0  0  0  0
    2.5790   -0.5860   -0.8070 H   0  0  0  0  0  0  0  0  0  0  0  0
    4.1210   -1.4320   -0.5940 H   0  0  0  0  0  0  0  0  0  0  0  0
    4.1900    0.7920    0.4260 H   0  0  0  0  0  0  0  0  0  0  0  0
    5.1120   -1.2690    1.5060 H   0  0  0  0  0  0  0  0  0  0  0  0
    5.1130    0.2320    2.3490 H   0  0  0  0  0  0  0  0  0  0  0  0
    1.4040    1.1790    0.7100 N   0  0  0  0  0  0  0  0  0  0  0  0
    0.2000    1.7730    1.1940 C   0  0  1  0  0  0  0  0  0  0  0  0
    0.0980    3.2500    0.9010 C   0  0  0  0  0  0  0  0  0  0  0  0
    0.1230    3.5920   -0.5080 C   0  0  0  0  0  0  0  0  0  0  0  0
   -0.7160    3.0990   -1.3070 O   0  0  0  0  0  0  0  0  0  0  0  0
   -1.0410    1.0430    0.7460 C   0  0  0  0  0  0  0  0  0  0  0  0
   -2.1740    1.4300    1.0750 O   0  0  0  0  0  0  0  0  0  0  0  0
    1.0690    4.4710   -1.0230 O   0  0  0  0  0  0  0  0  0  0  0  0
    1.6290    1.1330   -0.3320 H   0  0  0  0  0  0  0  0  0  0  0  0
    0.2080    1.6890    2.3030 H   0  0  0  0  0  0  0  0  0  0  0  0
   -0.8710    3.5710    1.3870 H   0  0  0  0  0  0  0  0  0  0  0  0
    0.8800    3.8270    1.4320 H   0  0  0  0  0  0  0  0  0  0  0  0
    1.2900    4.5020   -2.0150 H   0  0  0  0  0  0  0  0  0  0  0  0
   -2.4270   -3.7650    1.8850 C   0  0  0  0  0  0  0  0  0  0  0  0
   -2.3330   -2.2680    1.5060 C   0  0  0  0  0  0  0  0  0  0  0  0
   -3.6910   -1.7270    1.8910 C   0  0  0  0  0  0  0  0  0  0  0  0
   -2.0410   -2.2220    0.0640 C   0  0  0  0  0  0  0  0  0  0  0  0
   -1.8860   -0.9010   -0.5890 C   0  0  2  0  0  0  0  0  0  0  0  0
   -0.8200   -0.0930   -0.0600 N   0  0  0  0  0  0  0  0  0  0  0  0
   -3.1030   -0.2130   -1.0190 C   0  0  0  0  0  0  0  0  0  0  0  0
   -4.1380   -0.8660   -1.3320 O   0  0  0  0  0  0  0  0  0  0  0  0
   -3.1870    1.1490   -1.1090 O   0  0  0  0  0  0  0  0  0  0  0  0
   -2.8410   -3.7530    2.9250 H   0  0  0  0  0  0  0  0  0  0  0  0
   -3.1320   -4.3050    1.2460 H   0  0  0  0  0  0  0  0  0  0  0  0
   -1.4220   -4.2210    1.9460 H   0  0  0  0  0  0  0  0  0  0  0  0
   -1.5370   -1.8950    2.1800 H   0  0  0  0  0  0  0  0  0  0  0  0
   -3.8600   -2.0830    2.9510 H   0  0  0  0  0  0  0  0  0  0  0  0
   -4.4610   -2.2310    1.2890 H   0  0  0  0  0  0  0  0  0  0  0  0
   -3.7650   -0.6440    1.9210 H   0  0  0  0  0  0  0  0  0  0  0  0
   -2.8040   -2.8270   -0.4640 H   0  0  0  0  0  0  0  0  0  0  0  0
   -1.0720   -2.7810   -0.1020 H   0  0  0  0  0  0  0  0  0  0  0  0
   -1.4420   -1.1760   -1.6460 H   0  0  0  0  0  0  0  0  0  0  0  0
    0.2070   -0.3770   -0.2910 H   0  0  0  0  0  0  0  0  0  0  0  0
  1 11  1  0  0  0  0
  2  1  1  0  0  0  0
  2  3  1  0  0  0  0
  3 13  1  0  0  0  0
  3 12  1  0  0  0  0
  4  3  1  0  0  0  0
  4  5  1  0  0  0  0
  5 16  1  6  0  0  0
  5  7  1  0  0  0  0
  5  6  1  0  0  0  0
  6 18  1  0  0  0  0
  7  8  2  0  0  0  0
  9  1  1  0  0  0  0
 10  1  1  0  0  0  0
 14  4  1  0  0  0  0
 15  4  1  0  0  0  0
 17  6  1  0  0  0  0
 19 20  1  0  0  0  0
 19  7  1  0  0  0  0
 20 28  1  1  0  0  0
 21 20  1  0  0  0  0
 21 29  1  0  0  0  0
 21 30  1  0  0  0  0
 22 21  1  0  0  0  0
 23 22  2  0  0  0  0
 24 25  2  0  0  0  0
 24 20  1  0  0  0  0
 26 22  1  0  0  0  0
 27 19  1  0  0  0  0
 31 26  1  0  0  0  0
 32 43  1  0  0  0  0
 32 41  1  0  0  0  0
 33 32  1  0  0  0  0
 33 34  1  0  0  0  0
 33 44  1  0  0  0  0
 34 47  1  0  0  0  0
 34 45  1  0  0  0  0
 35 33  1  0  0  0  0
 36 50  1  6  0  0  0
 36 37  1  0  0  0  0
 36 35  1  0  0  0  0
 37 24  1  0  0  0  0
 38 36  1  0  0  0  0
 39 38  2  0  0  0  0
 40 38  1  0  0  0  0
 42 32  1  0  0  0  0
 46 34  1  0  0  0  0
 48 35  1  0  0  0  0
 49 35  1  0  0  0  0
 51 37  1  0  0  0  0
M  END
$$$$
