MDM.pdb
 OpenBabel07022418543D

 49 48  0  0  1  0  0  0  0  0999 V2000
    0.8780   -4.9640    1.8450 C   0  0  0  0  0  0  0  0  0  0  0  0
    1.4810   -4.5790    0.1660 S   0  0  0  0  0  0  0  0  0  0  0  0
    1.8480   -2.8000    0.0640 C   0  0  0  0  0  0  0  0  0  0  0  0
    2.9910   -2.4840    0.9600 C   0  0  0  0  0  0  0  0  0  0  0  0
    3.4320   -1.0660    0.9800 C   0  0  2  0  0  0  0  0  0  0  0  0
    4.5730   -1.0430    1.9450 N   0  0  0  0  0  0  0  0  0  0  0  0
    2.4750   -0.0570    1.3810 C   0  0  0  0  0  0  0  0  0  0  0  0
    2.5400    0.4570    2.5300 O   0  0  0  0  0  0  0  0  0  0  0  0
    1.4620   -4.3120    2.5540 H   0  0  0  0  0  0  0  0  0  0  0  0
    1.1050   -6.0280    2.0620 H   0  0  0  0  0  0  0  0  0  0  0  0
   -0.1880   -4.7780    1.9690 H   0  0  0  0  0  0  0  0  0  0  0  0
    2.0390   -2.5320   -0.9790 H   0  0  0  0  0  0  0  0  0  0  0  0
    0.9520   -2.2880    0.5060 H   0  0  0  0  0  0  0  0  0  0  0  0
    3.8460   -3.1370    0.6300 H   0  0  0  0  0  0  0  0  0  0  0  0
    2.7020   -2.7950    1.9940 H   0  0  0  0  0  0  0  0  0  0  0  0
    3.9080   -0.8390   -0.0060 H   0  0  0  0  0  0  0  0  0  0  0  0
    4.1930   -0.7380    2.8760 H   0  0  0  0  0  0  0  0  0  0  0  0
    5.2980   -0.4100    1.5870 H   0  0  0  0  0  0  0  0  0  0  0  0
    1.4310    0.4240    0.5490 N   0  0  0  0  0  0  0  0  0  0  0  0
    0.5260    1.4400    0.9980 C   0  0  1  0  0  0  0  0  0  0  0  0
    0.9950    2.7720    0.3380 C   0  0  0  0  0  0  0  0  0  0  0  0
    0.9180    2.5420   -1.1220 C   0  0  0  0  0  0  0  0  0  0  0  0
    1.8080    1.9090   -1.6940 O   0  0  0  0  0  0  0  0  0  0  0  0
   -0.8750    1.2000    0.6260 C   0  0  0  0  0  0  0  0  0  0  0  0
   -1.7620    2.0940    0.9150 O   0  0  0  0  0  0  0  0  0  0  0  0
   -0.1580    3.0460   -1.8190 O   0  0  0  0  0  0  0  0  0  0  0  0
    1.3390    0.0310   -0.4000 H   0  0  0  0  0  0  0  0  0  0  0  0
    0.6280    1.6080    2.1180 H   0  0  0  0  0  0  0  0  0  0  0  0
    2.0080    2.9980    0.6660 H   0  0  0  0  0  0  0  0  0  0  0  0
    0.2770    3.5710    0.6670 H   0  0  0  0  0  0  0  0  0  0  0  0
   -0.2870    2.9370   -2.8230 H   0  0  0  0  0  0  0  0  0  0  0  0
   -1.0610   -1.5940    2.4390 C   0  0  0  0  0  0  0  0  0  0  0  0
   -2.3780   -0.4360    2.8460 S   0  0  0  0  0  0  0  0  0  0  0  0
   -3.7560   -0.4690    1.7500 C   0  0  0  0  0  0  0  0  0  0  0  0
   -3.6920    0.1470    0.4070 C   0  0  0  0  0  0  0  0  0  0  0  0
   -2.5960   -0.3060   -0.4560 C   0  0  2  0  0  0  0  0  0  0  0  0
   -1.2690    0.0230   -0.0400 N   0  0  0  0  0  0  0  0  0  0  0  0
   -2.8100   -0.1050   -1.9090 C   0  0  0  0  0  0  0  0  0  0  0  0
   -3.8780   -0.3200   -2.4930 O   0  0  0  0  0  0  0  0  0  0  0  0
   -1.7150    0.3590   -2.6520 O   0  0  0  0  0  0  0  0  0  0  0  0
   -0.9140   -2.3470    3.2610 H   0  0  0  0  0  0  0  0  0  0  0  0
   -1.3250   -2.2140    1.5580 H   0  0  0  0  0  0  0  0  0  0  0  0
   -0.1210   -1.0600    2.2650 H   0  0  0  0  0  0  0  0  0  0  0  0
   -4.6830   -0.0390    2.2610 H   0  0  0  0  0  0  0  0  0  0  0  0
   -4.1010   -1.5760    1.6510 H   0  0  0  0  0  0  0  0  0  0  0  0
   -4.6630   -0.1100   -0.1530 H   0  0  0  0  0  0  0  0  0  0  0  0
   -3.7810    1.2560    0.5530 H   0  0  0  0  0  0  0  0  0  0  0  0
   -2.6490   -1.4730   -0.3350 H   0  0  0  0  0  0  0  0  0  0  0  0
   -0.5030   -0.6560   -0.2440 H   0  0  0  0  0  0  0  0  0  0  0  0
  1 11  1  0  0  0  0
  1 10  1  0  0  0  0
  1  9  1  0  0  0  0
  2  1  1  0  0  0  0
  3  2  1  0  0  0  0
  3 13  1  0  0  0  0
  3  4  1  0  0  0  0
  4  5  1  0  0  0  0
  4 15  1  0  0  0  0
  5 16  1  6  0  0  0
  5  7  1  0  0  0  0
  5  6  1  0  0  0  0
  6 17  1  0  0  0  0
  7  8  2  0  0  0  0
 12  3  1  0  0  0  0
 14  4  1  0  0  0  0
 18  6  1  0  0  0  0
 19 20  1  0  0  0  0
 19  7  1  0  0  0  0
 20 28  1  1  0  0  0
 21 29  1  0  0  0  0
 21 30  1  0  0  0  0
 21 20  1  0  0  0  0
 22 21  1  0  0  0  0
 23 22  2  0  0  0  0
 24 25  2  0  0  0  0
 24 20  1  0  0  0  0
 26 22  1  0  0  0  0
 27 19  1  0  0  0  0
 31 26  1  0  0  0  0
 32 33  1  0  0  0  0
 32 41  1  0  0  0  0
 34 44  1  0  0  0  0
 34 33  1  0  0  0  0
 35 47  1  0  0  0  0
 35 34  1  0  0  0  0
 36 48  1  1  0  0  0
 36 37  1  0  0  0  0
 36 35  1  0  0  0  0
 37 24  1  0  0  0  0
 38 36  1  0  0  0  0
 39 38  1  0  0  0  0
 40 38  2  0  0  0  0
 42 32  1  0  0  0  0
 43 32  1  0  0  0  0
 45 34  1  0  0  0  0
 46 35  1  0  0  0  0
 49 37  1  0  0  0  0
M  END
$$$$
