MDN.pdb
 OpenBabel07022418543D

 46 45  0  0  1  0  0  0  0  0999 V2000
   -0.1870   -4.8880    0.6040 C   0  0  0  0  0  0  0  0  0  0  0  0
    1.3220   -4.5940    1.5350 S   0  0  0  0  0  0  0  0  0  0  0  0
    1.8290   -2.8550    1.5510 C   0  0  0  0  0  0  0  0  0  0  0  0
    2.2130   -2.4510    0.1640 C   0  0  0  0  0  0  0  0  0  0  0  0
    2.6890   -1.0490    0.0150 C   0  0  2  0  0  0  0  0  0  0  0  0
    3.8590   -0.8760    0.8560 N   0  0  0  0  0  0  0  0  0  0  0  0
    1.6900    0.0060    0.2010 C   0  0  0  0  0  0  0  0  0  0  0  0
    0.7350    0.0730   -0.6060 O   0  0  0  0  0  0  0  0  0  0  0  0
   -0.2130   -4.3470   -0.3560 H   0  0  0  0  0  0  0  0  0  0  0  0
   -0.2450   -5.9820    0.3200 H   0  0  0  0  0  0  0  0  0  0  0  0
   -1.1050   -4.7110    1.2270 H   0  0  0  0  0  0  0  0  0  0  0  0
    0.9820   -2.2740    1.9670 H   0  0  0  0  0  0  0  0  0  0  0  0
    2.7350   -2.7860    2.1950 H   0  0  0  0  0  0  0  0  0  0  0  0
    1.4030   -2.7110   -0.5760 H   0  0  0  0  0  0  0  0  0  0  0  0
    3.0700   -3.1080   -0.1420 H   0  0  0  0  0  0  0  0  0  0  0  0
    3.0610   -0.9630   -1.0490 H   0  0  0  0  0  0  0  0  0  0  0  0
    4.7440   -1.1580    0.4210 H   0  0  0  0  0  0  0  0  0  0  0  0
    3.7250   -1.0700    1.8480 H   0  0  0  0  0  0  0  0  0  0  0  0
    1.7570    0.9560    1.2520 N   0  0  0  0  0  0  0  0  0  0  0  0
    0.8760    2.0120    1.5370 C   0  0  1  0  0  0  0  0  0  0  0  0
    1.1210    3.2640    0.7090 C   0  0  0  0  0  0  0  0  0  0  0  0
    0.9890    3.0780   -0.7320 C   0  0  0  0  0  0  0  0  0  0  0  0
   -0.1070    2.9410   -1.3320 O   0  0  0  0  0  0  0  0  0  0  0  0
   -0.5630    1.7330    1.6630 C   0  0  0  0  0  0  0  0  0  0  0  0
   -1.3090    2.7450    1.8020 O   0  0  0  0  0  0  0  0  0  0  0  0
    2.1200    3.0410   -1.5330 O   0  0  0  0  0  0  0  0  0  0  0  0
    2.6160    0.7990    1.8790 H   0  0  0  0  0  0  0  0  0  0  0  0
    1.1460    2.3690    2.6060 H   0  0  0  0  0  0  0  0  0  0  0  0
    2.0810    3.6870    1.0230 H   0  0  0  0  0  0  0  0  0  0  0  0
    0.3360    4.0050    1.0380 H   0  0  0  0  0  0  0  0  0  0  0  0
    2.0690    3.2870   -2.5210 H   0  0  0  0  0  0  0  0  0  0  0  0
   -1.9510   -1.9810    0.2840 N   0  0  0  0  0  0  0  0  0  0  0  0
   -2.7360   -0.9630   -0.2720 C   0  0  0  0  0  0  0  0  0  0  0  0
   -3.0810   -1.1060   -1.4970 O   0  0  0  0  0  0  0  0  0  0  0  0
   -3.2060    0.2440    0.3940 C   0  0  0  0  0  0  0  0  0  0  0  0
   -2.6300    0.3950    1.7770 C   0  0  2  0  0  0  0  0  0  0  0  0
   -1.1680    0.4660    1.6450 N   0  0  0  0  0  0  0  0  0  0  0  0
   -3.0810   -0.6350    2.7020 C   0  0  0  0  0  0  0  0  0  0  0  0
   -4.2900   -0.8770    2.8990 O   0  0  0  0  0  0  0  0  0  0  0  0
   -2.1500   -1.3860    3.4030 O   0  0  0  0  0  0  0  0  0  0  0  0
   -0.9720   -2.0980   -0.0570 H   0  0  0  0  0  0  0  0  0  0  0  0
   -2.2730   -2.6470    1.0190 H   0  0  0  0  0  0  0  0  0  0  0  0
   -3.0210    1.1560   -0.2280 H   0  0  0  0  0  0  0  0  0  0  0  0
   -4.3310    0.2250    0.5000 H   0  0  0  0  0  0  0  0  0  0  0  0
   -2.9880    1.4170    2.1610 H   0  0  0  0  0  0  0  0  0  0  0  0
   -0.6140   -0.4300    1.5680 H   0  0  0  0  0  0  0  0  0  0  0  0
  1 11  1  0  0  0  0
  1  2  1  0  0  0  0
  2  3  1  0  0  0  0
  3 12  1  0  0  0  0
  3 13  1  0  0  0  0
  4  3  1  0  0  0  0
  5 16  1  6  0  0  0
  5  4  1  0  0  0  0
  5  7  1  0  0  0  0
  5  6  1  0  0  0  0
  6 18  1  0  0  0  0
  7 19  1  0  0  0  0
  8  7  2  0  0  0  0
  9  1  1  0  0  0  0
 10  1  1  0  0  0  0
 14  4  1  0  0  0  0
 15  4  1  0  0  0  0
 17  6  1  0  0  0  0
 19 20  1  0  0  0  0
 19 27  1  0  0  0  0
 20 24  1  0  0  0  0
 20 28  1  1  0  0  0
 21 29  1  0  0  0  0
 21 30  1  0  0  0  0
 21 20  1  0  0  0  0
 22 21  1  0  0  0  0
 23 22  2  0  0  0  0
 24 25  2  0  0  0  0
 26 22  1  0  0  0  0
 31 26  1  0  0  0  0
 32 42  1  0  0  0  0
 33 32  1  0  0  0  0
 33 35  1  0  0  0  0
 34 33  2  0  0  0  0
 35 44  1  0  0  0  0
 35 36  1  0  0  0  0
 36 45  1  1  0  0  0
 36 38  1  0  0  0  0
 37 24  1  0  0  0  0
 37 36  1  0  0  0  0
 38 39  2  0  0  0  0
 38 40  1  0  0  0  0
 41 32  1  0  0  0  0
 43 35  1  0  0  0  0
 46 37  1  0  0  0  0
M  END
$$$$
