MDP.pdb
 OpenBabel07022418543D

 46 46  0  0  1  0  0  0  0  0999 V2000
    0.1430   -4.7730    1.4720 C   0  0  0  0  0  0  0  0  0  0  0  0
    1.8860   -5.1360    1.4540 S   0  0  0  0  0  0  0  0  0  0  0  0
    2.9750   -3.7460    1.4800 C   0  0  0  0  0  0  0  0  0  0  0  0
    3.0100   -2.8740    0.2690 C   0  0  0  0  0  0  0  0  0  0  0  0
    1.7090   -2.1930   -0.0060 C   0  0  2  0  0  0  0  0  0  0  0  0
    1.8250   -1.3880   -1.2520 N   0  0  0  0  0  0  0  0  0  0  0  0
    1.4320   -1.2280    1.1110 C   0  0  0  0  0  0  0  0  0  0  0  0
    1.3150   -1.5160    2.3130 O   0  0  0  0  0  0  0  0  0  0  0  0
   -0.0670   -3.7410    1.7840 H   0  0  0  0  0  0  0  0  0  0  0  0
   -0.2390   -4.8730    0.4150 H   0  0  0  0  0  0  0  0  0  0  0  0
   -0.4290   -5.4960    2.1230 H   0  0  0  0  0  0  0  0  0  0  0  0
    4.0590   -4.1110    1.6310 H   0  0  0  0  0  0  0  0  0  0  0  0
    2.8240   -3.1640    2.4340 H   0  0  0  0  0  0  0  0  0  0  0  0
    3.8700   -2.1590    0.2870 H   0  0  0  0  0  0  0  0  0  0  0  0
    3.2130   -3.5270   -0.6380 H   0  0  0  0  0  0  0  0  0  0  0  0
    0.9290   -2.9320   -0.1730 H   0  0  0  0  0  0  0  0  0  0  0  0
    0.9170   -1.4610   -1.7180 H   0  0  0  0  0  0  0  0  0  0  0  0
    2.5310   -1.9010   -1.8240 H   0  0  0  0  0  0  0  0  0  0  0  0
    1.2810    0.1840    0.8320 N   0  0  0  0  0  0  0  0  0  0  0  0
    1.0320    1.1650    1.8350 C   0  0  1  0  0  0  0  0  0  0  0  0
    1.8950    2.3970    1.6700 C   0  0  0  0  0  0  0  0  0  0  0  0
    1.6710    3.0790    0.3820 C   0  0  0  0  0  0  0  0  0  0  0  0
    0.5140    3.4770    0.0040 O   0  0  0  0  0  0  0  0  0  0  0  0
   -0.3800    1.5480    1.9050 C   0  0  0  0  0  0  0  0  0  0  0  0
   -0.6830    2.5160    2.7030 O   0  0  0  0  0  0  0  0  0  0  0  0
    2.7240    3.3240   -0.4990 O   0  0  0  0  0  0  0  0  0  0  0  0
    1.3970    0.4810   -0.1680 H   0  0  0  0  0  0  0  0  0  0  0  0
    1.2890    0.7640    2.8670 H   0  0  0  0  0  0  0  0  0  0  0  0
    1.5570    3.0980    2.4820 H   0  0  0  0  0  0  0  0  0  0  0  0
    2.9580    2.2250    1.8390 H   0  0  0  0  0  0  0  0  0  0  0  0
    2.5850    3.3960   -1.5180 H   0  0  0  0  0  0  0  0  0  0  0  0
   -1.4520    0.9570    1.1870 N   0  0  0  0  0  0  0  0  0  0  0  0
   -1.5240   -0.1020    0.2280 C   0  0  0  0  0  0  0  0  0  0  0  0
   -2.8380    0.0590   -0.5040 C   0  0  0  0  0  0  0  0  0  0  0  0
   -3.3550    1.4320   -0.0340 C   0  0  0  0  0  0  0  0  0  0  0  0
   -2.8570    1.3930    1.3880 C   0  0  1  0  0  0  0  0  0  0  0  0
   -3.5410    0.3400    2.1400 C   0  0  0  0  0  0  0  0  0  0  0  0
   -4.7850    0.4240    2.3910 O   0  0  0  0  0  0  0  0  0  0  0  0
   -2.9020   -0.8000    2.6240 O   0  0  0  0  0  0  0  0  0  0  0  0
   -0.7010   -0.1420   -0.5130 H   0  0  0  0  0  0  0  0  0  0  0  0
   -1.5220   -1.0720    0.8110 H   0  0  0  0  0  0  0  0  0  0  0  0
   -2.6900    0.0470   -1.5860 H   0  0  0  0  0  0  0  0  0  0  0  0
   -3.5620   -0.7230   -0.2000 H   0  0  0  0  0  0  0  0  0  0  0  0
   -2.9200    2.2290   -0.6390 H   0  0  0  0  0  0  0  0  0  0  0  0
   -4.4590    1.4280   -0.0740 H   0  0  0  0  0  0  0  0  0  0  0  0
   -2.8950    2.3850    1.8800 H   0  0  0  0  0  0  0  0  0  0  0  0
  1  9  1  0  0  0  0
  1 11  1  0  0  0  0
  2  1  1  0  0  0  0
  2  3  1  0  0  0  0
  3 12  1  0  0  0  0
  3 13  1  0  0  0  0
  4 14  1  0  0  0  0
  4  3  1  0  0  0  0
  5 16  1  6  0  0  0
  5  4  1  0  0  0  0
  5  7  1  0  0  0  0
  6  5  1  0  0  0  0
  7  8  2  0  0  0  0
 10  1  1  0  0  0  0
 15  4  1  0  0  0  0
 17  6  1  0  0  0  0
 18  6  1  0  0  0  0
 19  7  1  0  0  0  0
 19 20  1  0  0  0  0
 20 24  1  0  0  0  0
 20 28  1  1  0  0  0
 21 20  1  0  0  0  0
 21 30  1  0  0  0  0
 21 29  1  0  0  0  0
 22 21  1  0  0  0  0
 23 22  2  0  0  0  0
 24 25  2  0  0  0  0
 26 22  1  0  0  0  0
 27 19  1  0  0  0  0
 31 26  1  0  0  0  0
 32 36  1  0  0  0  0
 32 24  1  0  0  0  0
 33 41  1  0  0  0  0
 33 32  1  0  0  0  0
 34 43  1  0  0  0  0
 34 35  1  0  0  0  0
 34 33  1  0  0  0  0
 35 36  1  0  0  0  0
 36 46  1  1  0  0  0
 36 37  1  0  0  0  0
 37 38  2  0  0  0  0
 37 39  1  0  0  0  0
 40 33  1  0  0  0  0
 42 34  1  0  0  0  0
 44 35  1  0  0  0  0
 45 35  1  0  0  0  0
M  END
$$$$
