MED.pdb
 OpenBabel07022418543D

 48 47  0  0  1  0  0  0  0  0999 V2000
    2.1430   -4.3920    3.1840 C   0  0  0  0  0  0  0  0  0  0  0  0
    2.9420   -4.7200    1.6310 S   0  0  0  0  0  0  0  0  0  0  0  0
    2.7750   -3.4830    0.3860 C   0  0  0  0  0  0  0  0  0  0  0  0
    3.5020   -2.2150    0.5220 C   0  0  0  0  0  0  0  0  0  0  0  0
    3.2700   -1.3280    1.6750 C   0  0  2  0  0  0  0  0  0  0  0  0
    3.5840   -1.9060    2.9580 N   0  0  0  0  0  0  0  0  0  0  0  0
    1.9070   -0.6930    1.6980 C   0  0  0  0  0  0  0  0  0  0  0  0
    1.2450   -0.6160    2.7700 O   0  0  0  0  0  0  0  0  0  0  0  0
    1.5170   -5.3120    3.4900 H   0  0  0  0  0  0  0  0  0  0  0  0
    2.8900   -4.3270    3.9950 H   0  0  0  0  0  0  0  0  0  0  0  0
    1.4520   -3.5350    3.1940 H   0  0  0  0  0  0  0  0  0  0  0  0
    1.6760   -3.2740    0.1370 H   0  0  0  0  0  0  0  0  0  0  0  0
    3.1360   -3.9550   -0.5970 H   0  0  0  0  0  0  0  0  0  0  0  0
    3.3370   -1.6230   -0.4120 H   0  0  0  0  0  0  0  0  0  0  0  0
    4.6100   -2.4820    0.5560 H   0  0  0  0  0  0  0  0  0  0  0  0
    4.0350   -0.4810    1.5580 H   0  0  0  0  0  0  0  0  0  0  0  0
    3.9370   -1.1710    3.6150 H   0  0  0  0  0  0  0  0  0  0  0  0
    4.4150   -2.5580    2.8300 H   0  0  0  0  0  0  0  0  0  0  0  0
    1.3220   -0.1650    0.5360 N   0  0  0  0  0  0  0  0  0  0  0  0
    0.0080    0.4770    0.4730 C   0  0  1  0  0  0  0  0  0  0  0  0
    0.2190    1.8730   -0.0410 C   0  0  0  0  0  0  0  0  0  0  0  0
    1.1340    2.6630    0.8740 C   0  0  0  0  0  0  0  0  0  0  0  0
    0.5630    2.7870    2.2360 C   0  0  0  0  0  0  0  0  0  0  0  0
   -0.6140    3.2070    2.4590 O   0  0  0  0  0  0  0  0  0  0  0  0
   -0.9430   -0.2910   -0.3450 C   0  0  0  0  0  0  0  0  0  0  0  0
   -0.7480   -1.3970   -0.8980 O   0  0  0  0  0  0  0  0  0  0  0  0
    1.3210    2.4290    3.3650 O   0  0  0  0  0  0  0  0  0  0  0  0
    1.8720   -0.2360   -0.3760 H   0  0  0  0  0  0  0  0  0  0  0  0
   -0.3630    0.5680    1.5380 H   0  0  0  0  0  0  0  0  0  0  0  0
    0.7400    1.8040   -1.0030 H   0  0  0  0  0  0  0  0  0  0  0  0
   -0.7270    2.4450   -0.1120 H   0  0  0  0  0  0  0  0  0  0  0  0
    2.1470    2.2760    0.9520 H   0  0  0  0  0  0  0  0  0  0  0  0
    1.1660    3.6790    0.4560 H   0  0  0  0  0  0  0  0  0  0  0  0
    0.8830    2.4740    4.2870 H   0  0  0  0  0  0  0  0  0  0  0  0
   -2.2390    0.2830   -0.5330 N   0  0  0  0  0  0  0  0  0  0  0  0
   -3.2420   -0.3730   -1.3010 C   0  0  1  0  0  0  0  0  0  0  0  0
   -4.5900   -0.4380   -0.6690 C   0  0  0  0  0  0  0  0  0  0  0  0
   -4.5380   -1.1560    0.6220 C   0  0  0  0  0  0  0  0  0  0  0  0
   -3.4230   -1.5990    1.0150 O   0  0  0  0  0  0  0  0  0  0  0  0
   -3.3870    0.1800   -2.6740 C   0  0  0  0  0  0  0  0  0  0  0  0
   -2.6980    1.1030   -3.1480 O   0  0  0  0  0  0  0  0  0  0  0  0
   -5.6380   -1.3740    1.4320 O   0  0  0  0  0  0  0  0  0  0  0  0
   -4.3640   -0.3810   -3.4680 O   0  0  0  0  0  0  0  0  0  0  0  0
   -2.5070    1.2250   -0.1170 H   0  0  0  0  0  0  0  0  0  0  0  0
   -2.8930   -1.4270   -1.4790 H   0  0  0  0  0  0  0  0  0  0  0  0
   -5.0570    0.5750   -0.5430 H   0  0  0  0  0  0  0  0  0  0  0  0
   -5.3190   -0.9970   -1.3240 H   0  0  0  0  0  0  0  0  0  0  0  0
   -5.5740   -1.8590    2.3440 H   0  0  0  0  0  0  0  0  0  0  0  0
  1 11  1  0  0  0  0
  1  9  1  0  0  0  0
  1 10  1  0  0  0  0
  2  1  1  0  0  0  0
  3  4  1  0  0  0  0
  3  2  1  0  0  0  0
  4 15  1  0  0  0  0
  4  5  1  0  0  0  0
  5 16  1  6  0  0  0
  5  7  1  0  0  0  0
  5  6  1  0  0  0  0
  6 17  1  0  0  0  0
  7  8  2  0  0  0  0
 12  3  1  0  0  0  0
 13  3  1  0  0  0  0
 14  4  1  0  0  0  0
 18  6  1  0  0  0  0
 19  7  1  0  0  0  0
 20 19  1  0  0  0  0
 20 29  1  1  0  0  0
 21 20  1  0  0  0  0
 21 22  1  0  0  0  0
 22 32  1  0  0  0  0
 22 23  1  0  0  0  0
 23 24  2  0  0  0  0
 23 27  1  0  0  0  0
 25 20  1  0  0  0  0
 26 25  2  0  0  0  0
 27 34  1  0  0  0  0
 28 19  1  0  0  0  0
 30 21  1  0  0  0  0
 31 21  1  0  0  0  0
 33 22  1  0  0  0  0
 35 25  1  0  0  0  0
 35 44  1  0  0  0  0
 36 45  1  6  0  0  0
 36 37  1  0  0  0  0
 36 35  1  0  0  0  0
 37 46  1  0  0  0  0
 37 38  1  0  0  0  0
 38 39  2  0  0  0  0
 38 42  1  0  0  0  0
 40 36  1  0  0  0  0
 41 40  1  0  0  0  0
 42 48  1  0  0  0  0
 43 40  2  0  0  0  0
 47 37  1  0  0  0  0
M  END
$$$$
