MEF.pdb
 OpenBabel07022418543D

 55 55  0  0  1  0  0  0  0  0999 V2000
   -1.1550   -2.5400    3.9850 C   0  0  0  0  0  0  0  0  0  0  0  0
    0.1560   -3.6480    3.4660 S   0  0  0  0  0  0  0  0  0  0  0  0
    1.2520   -2.9790    2.2360 C   0  0  0  0  0  0  0  0  0  0  0  0
    2.2450   -1.9690    2.6190 C   0  0  0  0  0  0  0  0  0  0  0  0
    1.8520   -0.6790    3.1950 C   0  0  2  0  0  0  0  0  0  0  0  0
    1.1450   -0.8480    4.4280 N   0  0  0  0  0  0  0  0  0  0  0  0
    1.0670    0.1990    2.2800 C   0  0  0  0  0  0  0  0  0  0  0  0
   -0.0320    0.6960    2.6280 O   0  0  0  0  0  0  0  0  0  0  0  0
   -1.0940   -2.2150    5.0510 H   0  0  0  0  0  0  0  0  0  0  0  0
   -1.2250   -1.6320    3.3580 H   0  0  0  0  0  0  0  0  0  0  0  0
   -2.1760   -3.0410    3.8280 H   0  0  0  0  0  0  0  0  0  0  0  0
    1.7430   -3.8190    1.6240 H   0  0  0  0  0  0  0  0  0  0  0  0
    0.5910   -2.5080    1.4480 H   0  0  0  0  0  0  0  0  0  0  0  0
    3.0210   -2.4600    3.3120 H   0  0  0  0  0  0  0  0  0  0  0  0
    2.8830   -1.7530    1.7110 H   0  0  0  0  0  0  0  0  0  0  0  0
    2.8300   -0.1340    3.4570 H   0  0  0  0  0  0  0  0  0  0  0  0
    1.7220   -1.1970    5.2090 H   0  0  0  0  0  0  0  0  0  0  0  0
    0.7840    0.0990    4.7020 H   0  0  0  0  0  0  0  0  0  0  0  0
    1.5290    0.5130    0.9750 N   0  0  0  0  0  0  0  0  0  0  0  0
    0.7150    1.3830    0.1170 C   0  0  1  0  0  0  0  0  0  0  0  0
    1.5100    2.5550   -0.3410 C   0  0  0  0  0  0  0  0  0  0  0  0
    0.7190    3.4730   -1.2100 C   0  0  0  0  0  0  0  0  0  0  0  0
   -0.4540    4.0600   -0.5370 C   0  0  0  0  0  0  0  0  0  0  0  0
   -0.7110    3.8710    0.6750 O   0  0  0  0  0  0  0  0  0  0  0  0
    0.2210    0.5010   -0.9940 C   0  0  0  0  0  0  0  0  0  0  0  0
   -0.5770    0.9500   -1.8370 O   0  0  0  0  0  0  0  0  0  0  0  0
   -1.3640    4.8760   -1.2260 O   0  0  0  0  0  0  0  0  0  0  0  0
    2.4260    0.1590    0.5950 H   0  0  0  0  0  0  0  0  0  0  0  0
   -0.1900    1.7150    0.6470 H   0  0  0  0  0  0  0  0  0  0  0  0
    1.8140    3.1110    0.5820 H   0  0  0  0  0  0  0  0  0  0  0  0
    2.4230    2.2080   -0.8950 H   0  0  0  0  0  0  0  0  0  0  0  0
    0.3570    2.9420   -2.1180 H   0  0  0  0  0  0  0  0  0  0  0  0
    1.3800    4.3120   -1.6070 H   0  0  0  0  0  0  0  0  0  0  0  0
   -2.3590    4.8170   -0.9810 H   0  0  0  0  0  0  0  0  0  0  0  0
    0.6240   -0.8580   -1.1410 N   0  0  0  0  0  0  0  0  0  0  0  0
    0.1950   -1.7520   -2.1600 C   0  0  1  0  0  0  0  0  0  0  0  0
   -1.3280   -1.8040   -2.3580 C   0  0  0  0  0  0  0  0  0  0  0  0
   -2.0310   -2.2480   -1.1350 C   0  0  0  0  0  0  0  0  0  0  0  0
   -2.5270   -1.3980   -0.1760 C   0  0  0  0  0  0  0  0  0  0  0  0
   -3.1770   -1.8450    0.9720 C   0  0  0  0  0  0  0  0  0  0  0  0
   -3.3460   -3.1950    1.1810 C   0  0  0  0  0  0  0  0  0  0  0  0
   -2.8590   -4.0620    0.2350 C   0  0  0  0  0  0  0  0  0  0  0  0
   -2.2190   -3.6170   -0.8950 C   0  0  0  0  0  0  0  0  0  0  0  0
    0.8720   -1.5820   -3.4570 C   0  0  0  0  0  0  0  0  0  0  0  0
    1.7450   -0.7030   -3.5910 O   0  0  0  0  0  0  0  0  0  0  0  0
    0.5500   -2.3860   -4.5290 O   0  0  0  0  0  0  0  0  0  0  0  0
    1.3130   -1.1790   -0.3920 H   0  0  0  0  0  0  0  0  0  0  0  0
    0.4310   -2.7950   -1.7930 H   0  0  0  0  0  0  0  0  0  0  0  0
   -1.6650   -0.8340   -2.7380 H   0  0  0  0  0  0  0  0  0  0  0  0
   -1.4770   -2.6060   -3.1500 H   0  0  0  0  0  0  0  0  0  0  0  0
   -2.4260   -0.3250   -0.2970 H   0  0  0  0  0  0  0  0  0  0  0  0
   -3.5510   -1.1630    1.7000 H   0  0  0  0  0  0  0  0  0  0  0  0
   -3.8480   -3.5800    2.0680 H   0  0  0  0  0  0  0  0  0  0  0  0
   -2.9910   -5.1270    0.3980 H   0  0  0  0  0  0  0  0  0  0  0  0
   -1.8330   -4.2890   -1.6460 H   0  0  0  0  0  0  0  0  0  0  0  0
  1  9  1  0  0  0  0
  2  1  1  0  0  0  0
  3  4  1  0  0  0  0
  3  2  1  0  0  0  0
  4  5  1  0  0  0  0
  4 14  1  0  0  0  0
  5 16  1  1  0  0  0
  5  6  1  0  0  0  0
  6 18  1  0  0  0  0
  6 17  1  0  0  0  0
  7  8  2  0  0  0  0
  7  5  1  0  0  0  0
 10  1  1  0  0  0  0
 11  1  1  0  0  0  0
 12  3  1  0  0  0  0
 13  3  1  0  0  0  0
 15  4  1  0  0  0  0
 19  7  1  0  0  0  0
 20 29  1  1  0  0  0
 20 19  1  0  0  0  0
 21 20  1  0  0  0  0
 21 30  1  0  0  0  0
 22 23  1  0  0  0  0
 22 21  1  0  0  0  0
 23 24  2  0  0  0  0
 25 20  1  0  0  0  0
 26 25  2  0  0  0  0
 27 34  1  0  0  0  0
 27 23  1  0  0  0  0
 28 19  1  0  0  0  0
 31 21  1  0  0  0  0
 32 22  1  0  0  0  0
 33 22  1  0  0  0  0
 35 25  1  0  0  0  0
 35 47  1  0  0  0  0
 36 48  1  1  0  0  0
 36 35  1  0  0  0  0
 37 36  1  0  0  0  0
 37 38  1  0  0  0  0
 38 43  2  0  0  0  0
 38 39  1  0  0  0  0
 39 40  2  0  0  0  0
 40 41  1  0  0  0  0
 40 52  1  0  0  0  0
 41 53  1  0  0  0  0
 42 54  1  0  0  0  0
 42 41  2  0  0  0  0
 43 42  1  0  0  0  0
 44 36  1  0  0  0  0
 45 44  1  0  0  0  0
 46 44  2  0  0  0  0
 49 37  1  0  0  0  0
 50 37  1  0  0  0  0
 51 39  1  0  0  0  0
 55 43  1  0  0  0  0
M  END
$$$$
