MEH.pdb
 OpenBabel07022418543D

 52 52  0  0  1  0  0  0  0  0999 V2000
   -1.8020   -3.0040    4.5260 C   0  0  0  0  0  0  0  0  0  0  0  0
   -0.0480   -3.3290    4.8900 S   0  0  0  0  0  0  0  0  0  0  0  0
    0.9530   -1.9080    4.3740 C   0  0  0  0  0  0  0  0  0  0  0  0
    0.8990   -1.7770    2.8620 C   0  0  0  0  0  0  0  0  0  0  0  0
    1.7370   -0.5960    2.3980 C   0  0  2  0  0  0  0  0  0  0  0  0
    1.2610    0.6380    2.9650 N   0  0  0  0  0  0  0  0  0  0  0  0
    1.6570   -0.4960    0.9270 C   0  0  0  0  0  0  0  0  0  0  0  0
    1.9660   -1.5010    0.2100 O   0  0  0  0  0  0  0  0  0  0  0  0
   -2.1000   -2.1240    5.1310 H   0  0  0  0  0  0  0  0  0  0  0  0
   -2.3950   -3.9190    4.7680 H   0  0  0  0  0  0  0  0  0  0  0  0
   -1.9260   -2.8030    3.4210 H   0  0  0  0  0  0  0  0  0  0  0  0
    2.0040   -2.1410    4.6960 H   0  0  0  0  0  0  0  0  0  0  0  0
    0.6830   -0.9780    4.8950 H   0  0  0  0  0  0  0  0  0  0  0  0
   -0.1420   -1.6050    2.5290 H   0  0  0  0  0  0  0  0  0  0  0  0
    1.3380   -2.7050    2.4490 H   0  0  0  0  0  0  0  0  0  0  0  0
    2.8150   -0.7760    2.6680 H   0  0  0  0  0  0  0  0  0  0  0  0
    0.2550    0.5110    3.2190 H   0  0  0  0  0  0  0  0  0  0  0  0
    1.8520    0.9930    3.7460 H   0  0  0  0  0  0  0  0  0  0  0  0
    1.2320    0.7280    0.2780 N   0  0  0  0  0  0  0  0  0  0  0  0
    1.1390    0.8430   -1.1230 C   0  0  1  0  0  0  0  0  0  0  0  0
    2.2670    1.2890   -1.9430 C   0  0  0  0  0  0  0  0  0  0  0  0
    2.7880    2.6610   -1.6770 C   0  0  0  0  0  0  0  0  0  0  0  0
    3.3720    2.8130   -0.3450 C   0  0  0  0  0  0  0  0  0  0  0  0
    3.6020    1.9120    0.4910 O   0  0  0  0  0  0  0  0  0  0  0  0
    0.3580   -0.2870   -1.7790 C   0  0  0  0  0  0  0  0  0  0  0  0
    0.5240   -0.4360   -2.9910 O   0  0  0  0  0  0  0  0  0  0  0  0
    3.7390    4.1090    0.1040 O   0  0  0  0  0  0  0  0  0  0  0  0
    0.9910    1.5070    0.9640 H   0  0  0  0  0  0  0  0  0  0  0  0
    0.3240    1.6890   -1.2640 H   0  0  0  0  0  0  0  0  0  0  0  0
    3.1740    0.6060   -1.7810 H   0  0  0  0  0  0  0  0  0  0  0  0
    2.0860    1.1290   -3.0530 H   0  0  0  0  0  0  0  0  0  0  0  0
    1.9200    3.3990   -1.7630 H   0  0  0  0  0  0  0  0  0  0  0  0
    3.5640    2.9550   -2.4410 H   0  0  0  0  0  0  0  0  0  0  0  0
    4.2800    4.2420    0.9430 H   0  0  0  0  0  0  0  0  0  0  0  0
   -0.4930   -1.0890   -1.0240 N   0  0  0  0  0  0  0  0  0  0  0  0
   -1.2840   -2.2010   -1.4220 C   0  0  1  0  0  0  0  0  0  0  0  0
   -2.7450   -1.9770   -1.5490 C   0  0  0  0  0  0  0  0  0  0  0  0
   -3.3360   -1.5500   -0.2860 C   0  0  0  0  0  0  0  0  0  0  0  0
   -4.6520   -1.2350    0.0210 C   0  0  0  0  0  0  0  0  0  0  0  0
   -4.7280   -0.8930    1.3000 N   0  0  0  0  0  0  0  0  0  0  0  0
   -3.4980   -0.9750    1.8430 C   0  0  0  0  0  0  0  0  0  0  0  0
   -2.6730   -1.3740    0.8650 N   0  0  0  0  0  0  0  0  0  0  0  0
   -0.7370   -3.0210   -2.5460 C   0  0  0  0  0  0  0  0  0  0  0  0
    0.3500   -2.8670   -3.0570 O   0  0  0  0  0  0  0  0  0  0  0  0
   -1.5730   -4.0300   -3.0130 O   0  0  0  0  0  0  0  0  0  0  0  0
   -0.5730   -0.7970    0.0140 H   0  0  0  0  0  0  0  0  0  0  0  0
   -1.1500   -2.9570   -0.5480 H   0  0  0  0  0  0  0  0  0  0  0  0
   -3.2000   -2.9850   -1.7890 H   0  0  0  0  0  0  0  0  0  0  0  0
   -3.0310   -1.3470   -2.4150 H   0  0  0  0  0  0  0  0  0  0  0  0
   -5.4580   -1.2690   -0.6700 H   0  0  0  0  0  0  0  0  0  0  0  0
   -5.5510   -0.5960    1.8820 H   0  0  0  0  0  0  0  0  0  0  0  0
   -3.1640   -0.7760    2.8500 H   0  0  0  0  0  0  0  0  0  0  0  0
  1 10  1  0  0  0  0
  1  2  1  0  0  0  0
  1  9  1  0  0  0  0
  3 12  1  0  0  0  0
  3  2  1  0  0  0  0
  3 13  1  0  0  0  0
  4  3  1  0  0  0  0
  5 16  1  1  0  0  0
  5  4  1  0  0  0  0
  5  6  1  0  0  0  0
  6 17  1  0  0  0  0
  6 18  1  0  0  0  0
  7  5  1  0  0  0  0
  8  7  2  0  0  0  0
 11  1  1  0  0  0  0
 14  4  1  0  0  0  0
 15  4  1  0  0  0  0
 19  7  1  0  0  0  0
 19 28  1  0  0  0  0
 20 29  1  6  0  0  0
 20 19  1  0  0  0  0
 21 30  1  0  0  0  0
 21 22  1  0  0  0  0
 21 20  1  0  0  0  0
 22 23  1  0  0  0  0
 23 27  1  0  0  0  0
 23 24  2  0  0  0  0
 25 20  1  0  0  0  0
 25 35  1  0  0  0  0
 26 25  2  0  0  0  0
 27 34  1  0  0  0  0
 31 21  1  0  0  0  0
 32 22  1  0  0  0  0
 33 22  1  0  0  0  0
 35 46  1  0  0  0  0
 36 35  1  0  0  0  0
 36 47  1  1  0  0  0
 37 36  1  0  0  0  0
 37 38  1  0  0  0  0
 38 39  2  0  0  0  0
 38 42  1  0  0  0  0
 39 40  1  0  0  0  0
 40 41  1  0  0  0  0
 40 51  1  0  0  0  0
 41 52  1  0  0  0  0
 42 41  2  0  0  0  0
 43 36  1  0  0  0  0
 44 43  2  0  0  0  0
 45 43  1  0  0  0  0
 48 37  1  0  0  0  0
 49 37  1  0  0  0  0
 50 39  1  0  0  0  0
M  END
$$$$
