MEI.pdb
 OpenBabel07022418543D

 54 53  0  0  1  0  0  0  0  0999 V2000
    1.1050   -3.7680    3.8000 C   0  0  0  0  0  0  0  0  0  0  0  0
    2.4120   -4.4500    2.7750 S   0  0  0  0  0  0  0  0  0  0  0  0
    2.8400   -3.3940    1.4160 C   0  0  0  0  0  0  0  0  0  0  0  0
    3.5980   -2.1630    1.6650 C   0  0  0  0  0  0  0  0  0  0  0  0
    3.0920   -1.1080    2.5520 C   0  0  2  0  0  0  0  0  0  0  0  0
    2.8750   -1.4380    3.9190 N   0  0  0  0  0  0  0  0  0  0  0  0
    1.8870   -0.4040    2.0110 C   0  0  0  0  0  0  0  0  0  0  0  0
    0.9420   -0.1800    2.7970 O   0  0  0  0  0  0  0  0  0  0  0  0
    0.3220   -4.5800    3.8760 H   0  0  0  0  0  0  0  0  0  0  0  0
    1.4440   -3.5570    4.8250 H   0  0  0  0  0  0  0  0  0  0  0  0
    0.6400   -2.8710    3.3640 H   0  0  0  0  0  0  0  0  0  0  0  0
    1.9410   -3.2290    0.7480 H   0  0  0  0  0  0  0  0  0  0  0  0
    3.5030   -4.0240    0.7230 H   0  0  0  0  0  0  0  0  0  0  0  0
    4.6090   -2.4670    2.0600 H   0  0  0  0  0  0  0  0  0  0  0  0
    3.8100   -1.6990    0.6610 H   0  0  0  0  0  0  0  0  0  0  0  0
    3.8920   -0.2930    2.5550 H   0  0  0  0  0  0  0  0  0  0  0  0
    2.8760   -0.6140    4.5580 H   0  0  0  0  0  0  0  0  0  0  0  0
    3.4960   -2.2000    4.2720 H   0  0  0  0  0  0  0  0  0  0  0  0
    1.7600    0.0170    0.6690 N   0  0  0  0  0  0  0  0  0  0  0  0
    0.5590    0.6950    0.2450 C   0  0  1  0  0  0  0  0  0  0  0  0
    0.8150    1.9310   -0.5700 C   0  0  0  0  0  0  0  0  0  0  0  0
    1.6100    2.9450    0.1980 C   0  0  0  0  0  0  0  0  0  0  0  0
    0.9680    3.4370    1.4260 C   0  0  0  0  0  0  0  0  0  0  0  0
    1.0700    2.8630    2.5320 O   0  0  0  0  0  0  0  0  0  0  0  0
   -0.2320   -0.2940   -0.5520 C   0  0  0  0  0  0  0  0  0  0  0  0
    0.1960   -1.4600   -0.7230 O   0  0  0  0  0  0  0  0  0  0  0  0
    0.2080    4.5930    1.3660 O   0  0  0  0  0  0  0  0  0  0  0  0
    2.5380   -0.1680    0.0010 H   0  0  0  0  0  0  0  0  0  0  0  0
   -0.0010    0.9950    1.1570 H   0  0  0  0  0  0  0  0  0  0  0  0
    1.3690    1.7090   -1.5050 H   0  0  0  0  0  0  0  0  0  0  0  0
   -0.2080    2.3410   -0.8240 H   0  0  0  0  0  0  0  0  0  0  0  0
    2.5830    2.4710    0.4970 H   0  0  0  0  0  0  0  0  0  0  0  0
    1.9390    3.7950   -0.4680 H   0  0  0  0  0  0  0  0  0  0  0  0
   -0.1600    5.0600    2.1880 H   0  0  0  0  0  0  0  0  0  0  0  0
   -2.8570   -1.0980    1.1000 C   0  0  0  0  0  0  0  0  0  0  0  0
   -3.6000   -1.8070    0.0360 C   0  0  0  0  0  0  0  0  0  0  0  0
   -3.5940   -1.2170   -1.3240 C   0  0  2  0  0  0  0  0  0  0  0  0
   -4.4280   -2.1400   -2.2130 C   0  0  0  0  0  0  0  0  0  0  0  0
   -2.2640   -0.9230   -1.9210 C   0  0  2  0  0  0  0  0  0  0  0  0
   -1.4820    0.0190   -1.1480 N   0  0  0  0  0  0  0  0  0  0  0  0
   -2.3620   -0.4910   -3.3460 C   0  0  0  0  0  0  0  0  0  0  0  0
   -2.9910   -1.1750   -4.1870 O   0  0  0  0  0  0  0  0  0  0  0  0
   -1.7670    0.6770   -3.8020 O   0  0  0  0  0  0  0  0  0  0  0  0
   -2.6880   -0.0340    0.9670 H   0  0  0  0  0  0  0  0  0  0  0  0
   -3.4630   -1.1750    2.0540 H   0  0  0  0  0  0  0  0  0  0  0  0
   -1.9010   -1.6300    1.3920 H   0  0  0  0  0  0  0  0  0  0  0  0
   -3.2200   -2.8730    0.0190 H   0  0  0  0  0  0  0  0  0  0  0  0
   -4.6810   -1.9450    0.3400 H   0  0  0  0  0  0  0  0  0  0  0  0
   -4.1750   -0.2480   -1.3240 H   0  0  0  0  0  0  0  0  0  0  0  0
   -5.2340   -2.5960   -1.5640 H   0  0  0  0  0  0  0  0  0  0  0  0
   -4.9530   -1.6080   -3.0040 H   0  0  0  0  0  0  0  0  0  0  0  0
   -3.8120   -2.9970   -2.5330 H   0  0  0  0  0  0  0  0  0  0  0  0
   -1.6690   -1.8850   -1.9020 H   0  0  0  0  0  0  0  0  0  0  0  0
   -1.8420    0.9860   -1.0150 H   0  0  0  0  0  0  0  0  0  0  0  0
  1  9  1  0  0  0  0
  1 10  1  0  0  0  0
  2  1  1  0  0  0  0
  3  4  1  0  0  0  0
  3  2  1  0  0  0  0
  4 14  1  0  0  0  0
  4  5  1  0  0  0  0
  5 16  1  1  0  0  0
  5  6  1  0  0  0  0
  6 18  1  0  0  0  0
  6 17  1  0  0  0  0
  7  5  1  0  0  0  0
  7  8  2  0  0  0  0
 11  1  1  0  0  0  0
 12  3  1  0  0  0  0
 13  3  1  0  0  0  0
 15  4  1  0  0  0  0
 19  7  1  0  0  0  0
 20 19  1  0  0  0  0
 20 29  1  1  0  0  0
 21 22  1  0  0  0  0
 21 20  1  0  0  0  0
 22 32  1  0  0  0  0
 22 23  1  0  0  0  0
 23 24  2  0  0  0  0
 25 20  1  0  0  0  0
 26 25  2  0  0  0  0
 27 23  1  0  0  0  0
 27 34  1  0  0  0  0
 28 19  1  0  0  0  0
 30 21  1  0  0  0  0
 31 21  1  0  0  0  0
 33 22  1  0  0  0  0
 35 46  1  0  0  0  0
 35 45  1  0  0  0  0
 36 48  1  0  0  0  0
 36 35  1  0  0  0  0
 37 49  1  1  0  0  0
 37 36  1  0  0  0  0
 38 50  1  0  0  0  0
 38 37  1  0  0  0  0
 39 53  1  1  0  0  0
 39 37  1  0  0  0  0
 39 40  1  0  0  0  0
 40 54  1  0  0  0  0
 40 25  1  0  0  0  0
 41 39  1  0  0  0  0
 42 41  2  0  0  0  0
 43 41  1  0  0  0  0
 44 35  1  0  0  0  0
 47 36  1  0  0  0  0
 51 38  1  0  0  0  0
 52 38  1  0  0  0  0
M  END
$$$$
