MEM.pdb
 OpenBabel07022418543D

 52 51  0  0  1  0  0  0  0  0999 V2000
    2.3670   -4.2340    2.9710 C   0  0  0  0  0  0  0  0  0  0  0  0
    3.4840   -3.8750    1.5620 S   0  0  0  0  0  0  0  0  0  0  0  0
    4.4050   -2.3440    1.9120 C   0  0  0  0  0  0  0  0  0  0  0  0
    3.4620   -1.1590    1.9430 C   0  0  0  0  0  0  0  0  0  0  0  0
    2.8030   -1.0610    0.5750 C   0  0  2  0  0  0  0  0  0  0  0  0
    3.8580   -0.8720   -0.3810 N   0  0  0  0  0  0  0  0  0  0  0  0
    1.8530    0.1130    0.5530 C   0  0  0  0  0  0  0  0  0  0  0  0
    2.1310    1.0760   -0.2170 O   0  0  0  0  0  0  0  0  0  0  0  0
    2.0840   -5.3010    2.8770 H   0  0  0  0  0  0  0  0  0  0  0  0
    2.9940   -4.1610    3.8850 H   0  0  0  0  0  0  0  0  0  0  0  0
    1.5350   -3.5350    2.9480 H   0  0  0  0  0  0  0  0  0  0  0  0
    4.9670   -2.4560    2.8530 H   0  0  0  0  0  0  0  0  0  0  0  0
    5.1380   -2.2340    1.0630 H   0  0  0  0  0  0  0  0  0  0  0  0
    2.7520   -1.3030    2.7560 H   0  0  0  0  0  0  0  0  0  0  0  0
    4.1130   -0.2620    2.1460 H   0  0  0  0  0  0  0  0  0  0  0  0
    2.2770   -2.0030    0.3900 H   0  0  0  0  0  0  0  0  0  0  0  0
    3.7170   -0.1120   -1.0510 H   0  0  0  0  0  0  0  0  0  0  0  0
    4.1690   -1.7820   -0.8120 H   0  0  0  0  0  0  0  0  0  0  0  0
    0.7180    0.0730    1.3820 N   0  0  0  0  0  0  0  0  0  0  0  0
   -0.2570    1.1060    1.4890 C   0  0  1  0  0  0  0  0  0  0  0  0
    0.2700    2.5020    1.1360 C   0  0  0  0  0  0  0  0  0  0  0  0
    1.3510    2.9850    2.0400 C   0  0  0  0  0  0  0  0  0  0  0  0
    0.8850    3.1510    3.4520 C   0  0  0  0  0  0  0  0  0  0  0  0
    1.7660    3.3440    4.3240 O   0  0  0  0  0  0  0  0  0  0  0  0
   -1.5520    0.8570    0.8600 C   0  0  0  0  0  0  0  0  0  0  0  0
   -2.4540    1.7230    0.9330 O   0  0  0  0  0  0  0  0  0  0  0  0
   -0.4320    3.1080    3.8470 O   0  0  0  0  0  0  0  0  0  0  0  0
    0.5810   -0.7960    1.9720 H   0  0  0  0  0  0  0  0  0  0  0  0
   -0.4650    1.2300    2.6210 H   0  0  0  0  0  0  0  0  0  0  0  0
   -0.6260    3.1700    1.3530 H   0  0  0  0  0  0  0  0  0  0  0  0
    0.4580    2.6330    0.0740 H   0  0  0  0  0  0  0  0  0  0  0  0
    2.2640    2.3800    2.0160 H   0  0  0  0  0  0  0  0  0  0  0  0
    1.6030    4.0310    1.6880 H   0  0  0  0  0  0  0  0  0  0  0  0
   -0.7580    3.3480    4.7530 H   0  0  0  0  0  0  0  0  0  0  0  0
   -3.8340   -3.9680   -3.1350 C   0  0  0  0  0  0  0  0  0  0  0  0
   -4.8190   -2.5300   -2.7120 S   0  0  0  0  0  0  0  0  0  0  0  0
   -3.9580   -0.9840   -2.8580 C   0  0  0  0  0  0  0  0  0  0  0  0
   -2.8440   -0.7200   -1.9360 C   0  0  0  0  0  0  0  0  0  0  0  0
   -3.0920   -0.6410   -0.4800 C   0  0  2  0  0  0  0  0  0  0  0  0
   -1.7830   -0.3570    0.1730 N   0  0  0  0  0  0  0  0  0  0  0  0
   -3.6900   -1.7720    0.1970 C   0  0  0  0  0  0  0  0  0  0  0  0
   -3.0060   -2.3700    1.1040 O   0  0  0  0  0  0  0  0  0  0  0  0
   -4.9440   -2.3200    0.0010 O   0  0  0  0  0  0  0  0  0  0  0  0
   -4.5060   -4.6690   -3.7030 H   0  0  0  0  0  0  0  0  0  0  0  0
   -3.0110   -3.7360   -3.8480 H   0  0  0  0  0  0  0  0  0  0  0  0
   -3.5150   -4.4810   -2.2260 H   0  0  0  0  0  0  0  0  0  0  0  0
   -4.7160   -0.1400   -2.8920 H   0  0  0  0  0  0  0  0  0  0  0  0
   -3.5320   -0.9470   -3.9110 H   0  0  0  0  0  0  0  0  0  0  0  0
   -2.0640   -1.5050   -2.1040 H   0  0  0  0  0  0  0  0  0  0  0  0
   -2.3010    0.2380   -2.2150 H   0  0  0  0  0  0  0  0  0  0  0  0
   -3.7280    0.2620   -0.2290 H   0  0  0  0  0  0  0  0  0  0  0  0
   -1.0730   -1.1250    0.0740 H   0  0  0  0  0  0  0  0  0  0  0  0
  1 10  1  0  0  0  0
  2  3  1  0  0  0  0
  2  1  1  0  0  0  0
  3  4  1  0  0  0  0
  3 12  1  0  0  0  0
  4 15  1  0  0  0  0
  4 14  1  0  0  0  0
  5 16  1  6  0  0  0
  5  4  1  0  0  0  0
  6  5  1  0  0  0  0
  7  5  1  0  0  0  0
  7 19  1  0  0  0  0
  8  7  2  0  0  0  0
  9  1  1  0  0  0  0
 11  1  1  0  0  0  0
 13  3  1  0  0  0  0
 17  6  1  0  0  0  0
 18  6  1  0  0  0  0
 19 20  1  0  0  0  0
 19 28  1  0  0  0  0
 20 29  1  1  0  0  0
 21 30  1  0  0  0  0
 21 20  1  0  0  0  0
 21 22  1  0  0  0  0
 22 23  1  0  0  0  0
 23 27  1  0  0  0  0
 23 24  2  0  0  0  0
 25 26  2  0  0  0  0
 25 20  1  0  0  0  0
 27 34  1  0  0  0  0
 31 21  1  0  0  0  0
 32 22  1  0  0  0  0
 33 22  1  0  0  0  0
 35 36  1  0  0  0  0
 35 46  1  0  0  0  0
 37 36  1  0  0  0  0
 37 38  1  0  0  0  0
 38 39  1  0  0  0  0
 39 51  1  1  0  0  0
 39 40  1  0  0  0  0
 39 41  1  0  0  0  0
 40 25  1  0  0  0  0
 41 42  1  0  0  0  0
 43 41  2  0  0  0  0
 44 35  1  0  0  0  0
 45 35  1  0  0  0  0
 47 37  1  0  0  0  0
 48 37  1  0  0  0  0
 49 38  1  0  0  0  0
 50 38  1  0  0  0  0
 52 40  1  0  0  0  0
M  END
$$$$
