MEN.pdb
 OpenBabel07022418543D

 49 48  0  0  1  0  0  0  0  0999 V2000
    0.9780   -3.8460    3.6300 C   0  0  0  0  0  0  0  0  0  0  0  0
    2.0590   -4.7060    2.5090 S   0  0  0  0  0  0  0  0  0  0  0  0
    2.6270   -3.8130    1.0840 C   0  0  0  0  0  0  0  0  0  0  0  0
    3.6460   -2.7660    1.2630 C   0  0  0  0  0  0  0  0  0  0  0  0
    3.3490   -1.5990    2.1390 C   0  0  2  0  0  0  0  0  0  0  0  0
    3.0830   -1.8840    3.5010 N   0  0  0  0  0  0  0  0  0  0  0  0
    2.2540   -0.8220    1.4810 C   0  0  0  0  0  0  0  0  0  0  0  0
    2.4330   -0.5720    0.2680 O   0  0  0  0  0  0  0  0  0  0  0  0
    0.0280   -4.4700    3.8080 H   0  0  0  0  0  0  0  0  0  0  0  0
    1.4370   -3.6630    4.6450 H   0  0  0  0  0  0  0  0  0  0  0  0
    0.5850   -2.9380    3.1640 H   0  0  0  0  0  0  0  0  0  0  0  0
    1.7300   -3.3630    0.5390 H   0  0  0  0  0  0  0  0  0  0  0  0
    3.0390   -4.5340    0.3090 H   0  0  0  0  0  0  0  0  0  0  0  0
    4.6370   -3.2210    1.5770 H   0  0  0  0  0  0  0  0  0  0  0  0
    3.8280   -2.3200    0.2190 H   0  0  0  0  0  0  0  0  0  0  0  0
    4.2380   -0.9020    2.0800 H   0  0  0  0  0  0  0  0  0  0  0  0
    3.1840   -0.9900    4.0440 H   0  0  0  0  0  0  0  0  0  0  0  0
    3.7950   -2.5450    3.8630 H   0  0  0  0  0  0  0  0  0  0  0  0
    1.0820   -0.3730    2.1200 N   0  0  0  0  0  0  0  0  0  0  0  0
    0.0530    0.3810    1.4310 C   0  0  1  0  0  0  0  0  0  0  0  0
    0.5650    1.5960    0.7210 C   0  0  0  0  0  0  0  0  0  0  0  0
    1.2180    2.5820    1.6650 C   0  0  0  0  0  0  0  0  0  0  0  0
    1.7130    3.7770    0.9510 C   0  0  0  0  0  0  0  0  0  0  0  0
    2.4910    3.7360   -0.0320 O   0  0  0  0  0  0  0  0  0  0  0  0
   -0.7050   -0.4640    0.4920 C   0  0  0  0  0  0  0  0  0  0  0  0
   -0.4800   -1.7110    0.3260 O   0  0  0  0  0  0  0  0  0  0  0  0
    1.2880    5.0340    1.3930 O   0  0  0  0  0  0  0  0  0  0  0  0
    0.9670   -0.6020    3.1540 H   0  0  0  0  0  0  0  0  0  0  0  0
   -0.6550    0.7830    2.2330 H   0  0  0  0  0  0  0  0  0  0  0  0
    1.1840    1.3000   -0.1290 H   0  0  0  0  0  0  0  0  0  0  0  0
   -0.3670    2.1220    0.3410 H   0  0  0  0  0  0  0  0  0  0  0  0
    0.5600    2.8320    2.5040 H   0  0  0  0  0  0  0  0  0  0  0  0
    2.0970    2.0190    2.1010 H   0  0  0  0  0  0  0  0  0  0  0  0
    1.2440    5.8130    0.7130 H   0  0  0  0  0  0  0  0  0  0  0  0
   -5.3570   -0.8610   -2.9890 N   0  0  0  0  0  0  0  0  0  0  0  0
   -4.8350   -1.4040   -1.7930 C   0  0  0  0  0  0  0  0  0  0  0  0
   -5.1080   -2.5780   -1.4810 O   0  0  0  0  0  0  0  0  0  0  0  0
   -3.9780   -0.5940   -0.9260 C   0  0  0  0  0  0  0  0  0  0  0  0
   -2.5060   -0.7700   -1.2370 C   0  0  2  0  0  0  0  0  0  0  0  0
   -1.7670    0.0650   -0.3190 N   0  0  0  0  0  0  0  0  0  0  0  0
   -2.2400   -0.3920   -2.6520 C   0  0  0  0  0  0  0  0  0  0  0  0
   -2.7660   -0.9780   -3.6330 O   0  0  0  0  0  0  0  0  0  0  0  0
   -1.3730    0.6530   -2.9390 O   0  0  0  0  0  0  0  0  0  0  0  0
   -5.2300    0.1640   -3.2550 H   0  0  0  0  0  0  0  0  0  0  0  0
   -5.9010   -1.4140   -3.6980 H   0  0  0  0  0  0  0  0  0  0  0  0
   -4.1730    0.5050   -1.0330 H   0  0  0  0  0  0  0  0  0  0  0  0
   -4.1160   -0.8190    0.1610 H   0  0  0  0  0  0  0  0  0  0  0  0
   -2.1480   -1.8060   -1.1130 H   0  0  0  0  0  0  0  0  0  0  0  0
   -2.0280    1.0750   -0.2600 H   0  0  0  0  0  0  0  0  0  0  0  0
  1  9  1  0  0  0  0
  1 10  1  0  0  0  0
  2  1  1  0  0  0  0
  3  4  1  0  0  0  0
  3  2  1  0  0  0  0
  4 14  1  0  0  0  0
  4  5  1  0  0  0  0
  5 16  1  6  0  0  0
  5  6  1  0  0  0  0
  6 18  1  0  0  0  0
  6 17  1  0  0  0  0
  7 19  1  0  0  0  0
  7  5  1  0  0  0  0
  8  7  2  0  0  0  0
 11  1  1  0  0  0  0
 12  3  1  0  0  0  0
 13  3  1  0  0  0  0
 15  4  1  0  0  0  0
 19 28  1  0  0  0  0
 20 19  1  0  0  0  0
 20 29  1  1  0  0  0
 21 20  1  0  0  0  0
 21 22  1  0  0  0  0
 22 33  1  0  0  0  0
 22 32  1  0  0  0  0
 23 27  1  0  0  0  0
 23 22  1  0  0  0  0
 24 23  2  0  0  0  0
 25 20  1  0  0  0  0
 26 25  2  0  0  0  0
 30 21  1  0  0  0  0
 31 21  1  0  0  0  0
 34 27  1  0  0  0  0
 35 36  1  0  0  0  0
 36 37  2  0  0  0  0
 36 38  1  0  0  0  0
 38 47  1  0  0  0  0
 39 48  1  1  0  0  0
 39 38  1  0  0  0  0
 39 40  1  0  0  0  0
 40 49  1  0  0  0  0
 40 25  1  0  0  0  0
 41 39  1  0  0  0  0
 42 41  2  0  0  0  0
 43 41  1  0  0  0  0
 44 35  1  0  0  0  0
 45 35  1  0  0  0  0
 46 38  1  0  0  0  0
M  END
$$$$
