MER.pdb
 OpenBabel07022418543D

 58 57  0  0  1  0  0  0  0  0999 V2000
    2.9010   -3.0140    5.5780 C   0  0  0  0  0  0  0  0  0  0  0  0
    3.7400   -1.7930    4.5700 S   0  0  0  0  0  0  0  0  0  0  0  0
    3.1690   -1.9370    2.8640 C   0  0  0  0  0  0  0  0  0  0  0  0
    3.8030   -0.9600    1.9210 C   0  0  0  0  0  0  0  0  0  0  0  0
    3.5450    0.4750    2.2530 C   0  0  2  0  0  0  0  0  0  0  0  0
    4.0610    0.7810    3.5550 N   0  0  0  0  0  0  0  0  0  0  0  0
    2.0950    0.8090    2.2280 C   0  0  0  0  0  0  0  0  0  0  0  0
    1.5100    1.2460    3.2640 O   0  0  0  0  0  0  0  0  0  0  0  0
    2.6410   -2.6220    6.5970 H   0  0  0  0  0  0  0  0  0  0  0  0
    1.9300   -3.3430    5.1340 H   0  0  0  0  0  0  0  0  0  0  0  0
    3.5020   -3.9310    5.7120 H   0  0  0  0  0  0  0  0  0  0  0  0
    3.4420   -2.9730    2.5290 H   0  0  0  0  0  0  0  0  0  0  0  0
    2.0540   -1.8240    2.8980 H   0  0  0  0  0  0  0  0  0  0  0  0
    4.9130   -1.1290    1.9830 H   0  0  0  0  0  0  0  0  0  0  0  0
    3.4790   -1.1350    0.8710 H   0  0  0  0  0  0  0  0  0  0  0  0
    4.1090    1.0980    1.5160 H   0  0  0  0  0  0  0  0  0  0  0  0
    4.9250    0.2760    3.7980 H   0  0  0  0  0  0  0  0  0  0  0  0
    3.3670    0.6740    4.3100 H   0  0  0  0  0  0  0  0  0  0  0  0
    1.2890    0.6650    1.0730 N   0  0  0  0  0  0  0  0  0  0  0  0
   -0.1480    1.0060    1.0680 C   0  0  1  0  0  0  0  0  0  0  0  0
   -0.4120    2.0700    0.0650 C   0  0  0  0  0  0  0  0  0  0  0  0
   -1.8430    2.4780    0.0150 C   0  0  0  0  0  0  0  0  0  0  0  0
   -2.3330    3.0350    1.3000 C   0  0  0  0  0  0  0  0  0  0  0  0
   -1.6210    3.2340    2.3100 O   0  0  0  0  0  0  0  0  0  0  0  0
   -0.8660   -0.2400    0.7400 C   0  0  0  0  0  0  0  0  0  0  0  0
   -2.1160   -0.3360    0.7090 O   0  0  0  0  0  0  0  0  0  0  0  0
   -3.6960    3.3840    1.4500 O   0  0  0  0  0  0  0  0  0  0  0  0
    1.7010    0.3160    0.1880 H   0  0  0  0  0  0  0  0  0  0  0  0
   -0.4530    1.3550    2.0720 H   0  0  0  0  0  0  0  0  0  0  0  0
    0.2480    2.9640    0.2820 H   0  0  0  0  0  0  0  0  0  0  0  0
   -0.1340    1.7030   -0.9740 H   0  0  0  0  0  0  0  0  0  0  0  0
   -1.9930    3.2760   -0.7930 H   0  0  0  0  0  0  0  0  0  0  0  0
   -2.4700    1.6030   -0.2390 H   0  0  0  0  0  0  0  0  0  0  0  0
   -3.9610    4.1750    2.0370 H   0  0  0  0  0  0  0  0  0  0  0  0
   -3.5350    0.5250   -4.9410 N   0  0  0  0  0  0  0  0  0  0  0  0
   -3.3800   -0.7080   -4.2670 C   0  0  0  0  0  0  0  0  0  0  0  0
   -4.4000   -1.4750   -4.0160 N   0  0  0  0  0  0  0  0  0  0  0  0
   -2.1150   -1.1900   -3.8220 N   0  0  0  0  0  0  0  0  0  0  0  0
   -1.9660   -2.0290   -2.6630 C   0  0  0  0  0  0  0  0  0  0  0  0
   -0.5500   -2.4130   -2.3900 C   0  0  0  0  0  0  0  0  0  0  0  0
   -0.4030   -3.2850   -1.1840 C   0  0  0  0  0  0  0  0  0  0  0  0
   -0.8800   -2.6800    0.0970 C   0  0  2  0  0  0  0  0  0  0  0  0
   -0.1640   -1.4560    0.4270 N   0  0  0  0  0  0  0  0  0  0  0  0
   -0.6870   -3.6940    1.1670 C   0  0  0  0  0  0  0  0  0  0  0  0
   -0.0000   -3.4840    2.1960 O   0  0  0  0  0  0  0  0  0  0  0  0
   -1.2750   -4.9480    1.0640 O   0  0  0  0  0  0  0  0  0  0  0  0
   -4.2380    1.2010   -4.5980 H   0  0  0  0  0  0  0  0  0  0  0  0
   -2.9660    0.7680   -5.7670 H   0  0  0  0  0  0  0  0  0  0  0  0
   -4.3420   -2.3730   -3.5330 H   0  0  0  0  0  0  0  0  0  0  0  0
   -1.2640   -0.9060   -4.3810 H   0  0  0  0  0  0  0  0  0  0  0  0
   -2.3410   -1.4370   -1.7970 H   0  0  0  0  0  0  0  0  0  0  0  0
   -2.5640   -2.9600   -2.7260 H   0  0  0  0  0  0  0  0  0  0  0  0
   -0.1000   -2.9540   -3.2460 H   0  0  0  0  0  0  0  0  0  0  0  0
    0.0620   -1.4750   -2.2900 H   0  0  0  0  0  0  0  0  0  0  0  0
    0.6450   -3.5870   -1.0570 H   0  0  0  0  0  0  0  0  0  0  0  0
   -1.0400   -4.1950   -1.3640 H   0  0  0  0  0  0  0  0  0  0  0  0
   -1.9690   -2.4460    0.1080 H   0  0  0  0  0  0  0  0  0  0  0  0
    0.8570   -1.4920    0.4300 H   0  0  0  0  0  0  0  0  0  0  0  0
  1 11  1  0  0  0  0
  1  9  1  0  0  0  0
  2  1  1  0  0  0  0
  3 13  1  0  0  0  0
  3  2  1  0  0  0  0
  4 14  1  0  0  0  0
  4  5  1  0  0  0  0
  4  3  1  0  0  0  0
  5 16  1  6  0  0  0
  5  6  1  0  0  0  0
  6 17  1  0  0  0  0
  6 18  1  0  0  0  0
  7  5  1  0  0  0  0
  7  8  2  0  0  0  0
 10  1  1  0  0  0  0
 12  3  1  0  0  0  0
 15  4  1  0  0  0  0
 19  7  1  0  0  0  0
 20 19  1  0  0  0  0
 20 29  1  1  0  0  0
 21 30  1  0  0  0  0
 21 20  1  0  0  0  0
 22 21  1  0  0  0  0
 22 23  1  0  0  0  0
 23 27  1  0  0  0  0
 23 24  2  0  0  0  0
 25 20  1  0  0  0  0
 26 25  2  0  0  0  0
 27 34  1  0  0  0  0
 28 19  1  0  0  0  0
 31 21  1  0  0  0  0
 32 22  1  0  0  0  0
 33 22  1  0  0  0  0
 35 47  1  0  0  0  0
 35 36  1  0  0  0  0
 36 37  2  0  0  0  0
 36 38  1  0  0  0  0
 37 49  1  0  0  0  0
 38 39  1  0  0  0  0
 39 40  1  0  0  0  0
 39 51  1  0  0  0  0
 40 54  1  0  0  0  0
 40 41  1  0  0  0  0
 41 55  1  0  0  0  0
 41 42  1  0  0  0  0
 42 57  1  6  0  0  0
 42 43  1  0  0  0  0
 42 44  1  0  0  0  0
 43 58  1  0  0  0  0
 43 25  1  0  0  0  0
 44 45  1  0  0  0  0
 46 44  2  0  0  0  0
 48 35  1  0  0  0  0
 50 38  1  0  0  0  0
 52 39  1  0  0  0  0
 53 40  1  0  0  0  0
 56 41  1  0  0  0  0
M  END
$$$$
