MEV.pdb
 OpenBabel07022418543D

 51 50  0  0  1  0  0  0  0  0999 V2000
    1.2050   -5.7210    1.5230 C   0  0  0  0  0  0  0  0  0  0  0  0
    2.6110   -4.6160    1.2680 S   0  0  0  0  0  0  0  0  0  0  0  0
    2.3970   -3.6770   -0.2600 C   0  0  0  0  0  0  0  0  0  0  0  0
    3.5140   -2.7150   -0.5090 C   0  0  0  0  0  0  0  0  0  0  0  0
    3.6980   -1.6680    0.5460 C   0  0  2  0  0  0  0  0  0  0  0  0
    3.9790   -2.1710    1.8450 N   0  0  0  0  0  0  0  0  0  0  0  0
    2.6040   -0.6410    0.5090 C   0  0  0  0  0  0  0  0  0  0  0  0
    2.2520   -0.1180   -0.5810 O   0  0  0  0  0  0  0  0  0  0  0  0
    0.5280   -5.7910    0.6480 H   0  0  0  0  0  0  0  0  0  0  0  0
    1.5240   -6.7400    1.8850 H   0  0  0  0  0  0  0  0  0  0  0  0
    0.6300   -5.3050    2.4020 H   0  0  0  0  0  0  0  0  0  0  0  0
    1.3910   -3.2210   -0.2680 H   0  0  0  0  0  0  0  0  0  0  0  0
    2.4060   -4.4050   -1.1000 H   0  0  0  0  0  0  0  0  0  0  0  0
    3.3670   -2.2090   -1.4840 H   0  0  0  0  0  0  0  0  0  0  0  0
    4.4540   -3.2920   -0.5770 H   0  0  0  0  0  0  0  0  0  0  0  0
    4.6180   -1.0870    0.2270 H   0  0  0  0  0  0  0  0  0  0  0  0
    3.1200   -2.3950    2.3480 H   0  0  0  0  0  0  0  0  0  0  0  0
    4.6610   -1.5810    2.3640 H   0  0  0  0  0  0  0  0  0  0  0  0
    1.9470   -0.2410    1.6920 N   0  0  0  0  0  0  0  0  0  0  0  0
    0.8630    0.7900    1.5880 C   0  0  1  0  0  0  0  0  0  0  0  0
    1.5610    2.0400    1.2340 C   0  0  0  0  0  0  0  0  0  0  0  0
    0.8070    3.2880    1.0030 C   0  0  0  0  0  0  0  0  0  0  0  0
   -0.0140    3.2220   -0.2130 C   0  0  0  0  0  0  0  0  0  0  0  0
   -0.9070    4.0910   -0.3490 O   0  0  0  0  0  0  0  0  0  0  0  0
   -0.2580    0.2690    0.8480 C   0  0  0  0  0  0  0  0  0  0  0  0
   -0.0960   -0.8070    0.1630 O   0  0  0  0  0  0  0  0  0  0  0  0
    0.1470    2.2730   -1.1980 O   0  0  0  0  0  0  0  0  0  0  0  0
    2.1890   -0.6370    2.6370 H   0  0  0  0  0  0  0  0  0  0  0  0
    0.5600    0.9290    2.7040 H   0  0  0  0  0  0  0  0  0  0  0  0
    2.3510    1.8850    0.4360 H   0  0  0  0  0  0  0  0  0  0  0  0
    2.2380    2.2670    2.1470 H   0  0  0  0  0  0  0  0  0  0  0  0
    0.1970    3.5950    1.8980 H   0  0  0  0  0  0  0  0  0  0  0  0
    1.4950    4.1810    0.8700 H   0  0  0  0  0  0  0  0  0  0  0  0
   -0.1600    2.3840   -2.1490 H   0  0  0  0  0  0  0  0  0  0  0  0
   -3.0120   -1.4450    1.8960 C   0  0  0  0  0  0  0  0  0  0  0  0
   -3.6700   -0.4580    0.9270 C   0  0  0  0  0  0  0  0  0  0  0  0
   -4.7070   -1.2530    0.1710 C   0  0  0  0  0  0  0  0  0  0  0  0
   -2.6090    0.1070   -0.0240 C   0  0  2  0  0  0  0  0  0  0  0  0
   -1.5870    0.7880    0.7690 N   0  0  0  0  0  0  0  0  0  0  0  0
   -3.2850    0.9670   -1.0000 C   0  0  0  0  0  0  0  0  0  0  0  0
   -3.1090    2.1850   -1.1800 O   0  0  0  0  0  0  0  0  0  0  0  0
   -4.2400    0.3290   -1.8240 O   0  0  0  0  0  0  0  0  0  0  0  0
   -2.6890   -2.3420    1.3480 H   0  0  0  0  0  0  0  0  0  0  0  0
   -2.2070   -0.9790    2.4810 H   0  0  0  0  0  0  0  0  0  0  0  0
   -3.8210   -1.7110    2.6300 H   0  0  0  0  0  0  0  0  0  0  0  0
   -4.1330    0.3520    1.5160 H   0  0  0  0  0  0  0  0  0  0  0  0
   -5.0860   -2.0650    0.8440 H   0  0  0  0  0  0  0  0  0  0  0  0
   -5.5270   -0.5670   -0.1280 H   0  0  0  0  0  0  0  0  0  0  0  0
   -4.2040   -1.7110   -0.7030 H   0  0  0  0  0  0  0  0  0  0  0  0
   -2.1780   -0.7600   -0.5500 H   0  0  0  0  0  0  0  0  0  0  0  0
   -1.7920    1.6410    1.2990 H   0  0  0  0  0  0  0  0  0  0  0  0
  1 10  1  0  0  0  0
  1 11  1  0  0  0  0
  2  1  1  0  0  0  0
  3  2  1  0  0  0  0
  4  3  1  0  0  0  0
  4  5  1  0  0  0  0
  5 16  1  6  0  0  0
  5  6  1  0  0  0  0
  6 17  1  0  0  0  0
  6 18  1  0  0  0  0
  7  5  1  0  0  0  0
  7 19  1  0  0  0  0
  8  7  2  0  0  0  0
  9  1  1  0  0  0  0
 12  3  1  0  0  0  0
 13  3  1  0  0  0  0
 14  4  1  0  0  0  0
 15  4  1  0  0  0  0
 19 28  1  0  0  0  0
 20 19  1  0  0  0  0
 20 29  1  1  0  0  0
 21 20  1  0  0  0  0
 21 31  1  0  0  0  0
 22 21  1  0  0  0  0
 22 32  1  0  0  0  0
 23 22  1  0  0  0  0
 24 23  2  0  0  0  0
 25 20  1  0  0  0  0
 26 25  2  0  0  0  0
 27 23  1  0  0  0  0
 30 21  1  0  0  0  0
 33 22  1  0  0  0  0
 34 27  1  0  0  0  0
 35 44  1  0  0  0  0
 35 45  1  0  0  0  0
 36 46  1  0  0  0  0
 36 35  1  0  0  0  0
 37 47  1  0  0  0  0
 37 36  1  0  0  0  0
 38 50  1  6  0  0  0
 38 39  1  0  0  0  0
 38 36  1  0  0  0  0
 39 25  1  0  0  0  0
 39 51  1  0  0  0  0
 40 38  1  0  0  0  0
 41 40  1  0  0  0  0
 42 40  2  0  0  0  0
 43 35  1  0  0  0  0
 48 37  1  0  0  0  0
 49 37  1  0  0  0  0
M  END
$$$$
