MFE.pdb
 OpenBabel07022418563D

 55 55  0  0  1  0  0  0  0  0999 V2000
    2.0960    1.5730    5.7590 C   0  0  0  0  0  0  0  0  0  0  0  0
    2.9780    0.0280    5.4220 S   0  0  0  0  0  0  0  0  0  0  0  0
    2.7650   -0.3550    3.6560 C   0  0  0  0  0  0  0  0  0  0  0  0
    3.4710   -1.6410    3.2890 C   0  0  0  0  0  0  0  0  0  0  0  0
    3.2440   -1.8830    1.8130 C   0  0  2  0  0  0  0  0  0  0  0  0
    3.7880   -0.7810    1.0820 N   0  0  0  0  0  0  0  0  0  0  0  0
    1.7560   -2.0020    1.6130 C   0  0  0  0  0  0  0  0  0  0  0  0
    1.1360   -2.8950    2.2060 O   0  0  0  0  0  0  0  0  0  0  0  0
    2.6050    2.1850    6.5300 H   0  0  0  0  0  0  0  0  0  0  0  0
    1.9750    2.1360    4.8190 H   0  0  0  0  0  0  0  0  0  0  0  0
    1.0660    1.2800    6.0940 H   0  0  0  0  0  0  0  0  0  0  0  0
    1.6960   -0.4410    3.4710 H   0  0  0  0  0  0  0  0  0  0  0  0
    3.1800    0.4940    3.0840 H   0  0  0  0  0  0  0  0  0  0  0  0
    4.5510   -1.6040    3.5230 H   0  0  0  0  0  0  0  0  0  0  0  0
    2.9990   -2.4780    3.8540 H   0  0  0  0  0  0  0  0  0  0  0  0
    3.7480   -2.8070    1.4540 H   0  0  0  0  0  0  0  0  0  0  0  0
    4.6150   -0.3490    1.5060 H   0  0  0  0  0  0  0  0  0  0  0  0
    3.7950   -0.8790    0.0620 H   0  0  0  0  0  0  0  0  0  0  0  0
    1.0470   -1.1240    0.7700 N   0  0  0  0  0  0  0  0  0  0  0  0
   -0.3890   -1.1790    0.5310 C   0  0  1  0  0  0  0  0  0  0  0  0
   -1.0550    0.0380    1.1010 C   0  0  0  0  0  0  0  0  0  0  0  0
   -0.6000    1.3180    0.5710 C   0  0  0  0  0  0  0  0  0  0  0  0
    0.5280    1.9260    1.1280 C   0  0  0  0  0  0  0  0  0  0  0  0
    0.9870    3.1310    0.6810 C   0  0  0  0  0  0  0  0  0  0  0  0
    0.3460    3.7940   -0.3430 C   0  0  0  0  0  0  0  0  0  0  0  0
   -0.7700    3.2270   -0.9180 C   0  0  0  0  0  0  0  0  0  0  0  0
   -1.2210    1.9900   -0.4410 C   0  0  0  0  0  0  0  0  0  0  0  0
   -0.7160   -1.5510   -0.8380 C   0  0  0  0  0  0  0  0  0  0  0  0
    0.1970   -1.7690   -1.7160 O   0  0  0  0  0  0  0  0  0  0  0  0
    1.5680   -0.3810    0.2770 H   0  0  0  0  0  0  0  0  0  0  0  0
   -0.7400   -2.0330    1.1920 H   0  0  0  0  0  0  0  0  0  0  0  0
   -2.1800   -0.0260    0.9970 H   0  0  0  0  0  0  0  0  0  0  0  0
   -0.9170   -0.0220    2.2230 H   0  0  0  0  0  0  0  0  0  0  0  0
    1.0610    1.4460    1.9300 H   0  0  0  0  0  0  0  0  0  0  0  0
    1.8710    3.6250    1.1050 H   0  0  0  0  0  0  0  0  0  0  0  0
    0.7180    4.7670   -0.7030 H   0  0  0  0  0  0  0  0  0  0  0  0
   -1.3070    3.7030   -1.7210 H   0  0  0  0  0  0  0  0  0  0  0  0
   -2.0920    1.5460   -0.8710 H   0  0  0  0  0  0  0  0  0  0  0  0
   -2.0380   -1.7150   -1.3390 N   0  0  0  0  0  0  0  0  0  0  0  0
   -2.3350   -2.1060   -2.6780 C   0  0  1  0  0  0  0  0  0  0  0  0
   -3.3490   -3.1670   -2.8720 C   0  0  0  0  0  0  0  0  0  0  0  0
   -3.0760   -4.4990   -2.2640 C   0  0  0  0  0  0  0  0  0  0  0  0
   -2.9690   -4.3780   -0.7960 C   0  0  0  0  0  0  0  0  0  0  0  0
   -1.8700   -4.4090   -0.2340 O   0  0  0  0  0  0  0  0  0  0  0  0
   -2.6280   -0.9230   -3.5710 C   0  0  0  0  0  0  0  0  0  0  0  0
   -2.6010    0.2260   -3.1340 O   0  0  0  0  0  0  0  0  0  0  0  0
   -4.1300   -4.2240   -0.0120 O   0  0  0  0  0  0  0  0  0  0  0  0
   -2.9250   -1.1820   -4.8880 O   0  0  0  0  0  0  0  0  0  0  0  0
   -2.8590   -1.5380   -0.6880 H   0  0  0  0  0  0  0  0  0  0  0  0
   -1.3510   -2.4800   -3.1110 H   0  0  0  0  0  0  0  0  0  0  0  0
   -4.3690   -2.8660   -2.4920 H   0  0  0  0  0  0  0  0  0  0  0  0
   -3.4340   -3.3450   -3.9890 H   0  0  0  0  0  0  0  0  0  0  0  0
   -3.8750   -5.2170   -2.5650 H   0  0  0  0  0  0  0  0  0  0  0  0
   -2.0940   -4.8500   -2.7080 H   0  0  0  0  0  0  0  0  0  0  0  0
   -4.1100   -3.6700    0.8410 H   0  0  0  0  0  0  0  0  0  0  0  0
  1 11  1  0  0  0  0
  1  9  1  0  0  0  0
  2  1  1  0  0  0  0
  3  2  1  0  0  0  0
  4 14  1  0  0  0  0
  4  3  1  0  0  0  0
  4 15  1  0  0  0  0
  5 16  1  6  0  0  0
  5  4  1  0  0  0  0
  6 17  1  0  0  0  0
  6  5  1  0  0  0  0
  7  5  1  0  0  0  0
  7  8  2  0  0  0  0
 10  1  1  0  0  0  0
 12  3  1  0  0  0  0
 13  3  1  0  0  0  0
 18  6  1  0  0  0  0
 19  7  1  0  0  0  0
 20 19  1  0  0  0  0
 20 21  1  0  0  0  0
 20 31  1  1  0  0  0
 21 33  1  0  0  0  0
 22 21  1  0  0  0  0
 22 23  1  0  0  0  0
 23 34  1  0  0  0  0
 24 35  1  0  0  0  0
 24 23  2  0  0  0  0
 25 24  1  0  0  0  0
 26 27  1  0  0  0  0
 26 25  2  0  0  0  0
 27 22  2  0  0  0  0
 28 20  1  0  0  0  0
 29 28  2  0  0  0  0
 30 19  1  0  0  0  0
 32 21  1  0  0  0  0
 36 25  1  0  0  0  0
 37 26  1  0  0  0  0
 38 27  1  0  0  0  0
 39 28  1  0  0  0  0
 39 49  1  0  0  0  0
 40 50  1  6  0  0  0
 40 39  1  0  0  0  0
 41 40  1  0  0  0  0
 41 51  1  0  0  0  0
 41 42  1  0  0  0  0
 42 43  1  0  0  0  0
 43 44  2  0  0  0  0
 43 47  1  0  0  0  0
 45 46  1  0  0  0  0
 45 40  1  0  0  0  0
 47 55  1  0  0  0  0
 48 45  2  0  0  0  0
 52 41  1  0  0  0  0
 53 42  1  0  0  0  0
 54 42  1  0  0  0  0
M  END
$$$$
