MFI.pdb
 OpenBabel07022418563D

 58 58  0  0  1  0  0  0  0  0999 V2000
    0.3870   -4.4150    5.2040 C   0  0  0  0  0  0  0  0  0  0  0  0
    1.7090   -3.2470    4.7960 S   0  0  0  0  0  0  0  0  0  0  0  0
    0.9410   -1.6290    4.4090 C   0  0  0  0  0  0  0  0  0  0  0  0
    2.0910   -0.6910    4.0750 C   0  0  0  0  0  0  0  0  0  0  0  0
    1.5510    0.7000    3.7330 C   0  0  2  0  0  0  0  0  0  0  0  0
    0.8420    1.1660    4.8880 N   0  0  0  0  0  0  0  0  0  0  0  0
    0.6580    0.6410    2.5430 C   0  0  0  0  0  0  0  0  0  0  0  0
   -0.5560    0.9630    2.5700 O   0  0  0  0  0  0  0  0  0  0  0  0
   -0.0130   -4.0960    6.2060 H   0  0  0  0  0  0  0  0  0  0  0  0
   -0.4380   -4.3460    4.4700 H   0  0  0  0  0  0  0  0  0  0  0  0
    0.7340   -5.4550    5.2120 H   0  0  0  0  0  0  0  0  0  0  0  0
    0.3780   -1.2430    5.2760 H   0  0  0  0  0  0  0  0  0  0  0  0
    0.3300   -1.7810    3.5100 H   0  0  0  0  0  0  0  0  0  0  0  0
    2.6230   -1.0920    3.1850 H   0  0  0  0  0  0  0  0  0  0  0  0
    2.7470   -0.5560    4.9490 H   0  0  0  0  0  0  0  0  0  0  0  0
    2.4440    1.3130    3.4870 H   0  0  0  0  0  0  0  0  0  0  0  0
   -0.1260    0.7710    4.8700 H   0  0  0  0  0  0  0  0  0  0  0  0
    1.2990    0.7630    5.7470 H   0  0  0  0  0  0  0  0  0  0  0  0
    1.1930    0.1950    1.2920 N   0  0  0  0  0  0  0  0  0  0  0  0
    0.3220    0.1380    0.1340 C   0  0  1  0  0  0  0  0  0  0  0  0
    0.7750    1.0860   -0.9560 C   0  0  0  0  0  0  0  0  0  0  0  0
    0.7990    2.4860   -0.5210 C   0  0  0  0  0  0  0  0  0  0  0  0
    1.9890    2.9660    0.0420 C   0  0  0  0  0  0  0  0  0  0  0  0
    2.0560    4.2810    0.4660 C   0  0  0  0  0  0  0  0  0  0  0  0
    0.9470    5.0890    0.3220 C   0  0  0  0  0  0  0  0  0  0  0  0
   -0.2440    4.6120   -0.2410 C   0  0  0  0  0  0  0  0  0  0  0  0
   -0.2960    3.3080   -0.6560 C   0  0  0  0  0  0  0  0  0  0  0  0
    0.2890   -1.2570   -0.3580 C   0  0  0  0  0  0  0  0  0  0  0  0
    0.9640   -2.1220    0.2470 O   0  0  0  0  0  0  0  0  0  0  0  0
    2.2000   -0.0760    1.2550 H   0  0  0  0  0  0  0  0  0  0  0  0
   -0.7180    0.4750    0.4060 H   0  0  0  0  0  0  0  0  0  0  0  0
    1.7390    0.7470   -1.4090 H   0  0  0  0  0  0  0  0  0  0  0  0
    0.0240    1.0020   -1.7750 H   0  0  0  0  0  0  0  0  0  0  0  0
    2.8550    2.3440    0.1580 H   0  0  0  0  0  0  0  0  0  0  0  0
    2.9480    4.7050    0.9080 H   0  0  0  0  0  0  0  0  0  0  0  0
    0.9650    6.1080    0.6380 H   0  0  0  0  0  0  0  0  0  0  0  0
   -1.1080    5.2570   -0.3480 H   0  0  0  0  0  0  0  0  0  0  0  0
   -1.1890    2.9120   -1.0900 H   0  0  0  0  0  0  0  0  0  0  0  0
   -2.7680   -2.7640   -4.0250 C   0  0  0  0  0  0  0  0  0  0  0  0
   -2.9980   -2.9920   -2.5530 C   0  0  0  0  0  0  0  0  0  0  0  0
   -1.8620   -3.6620   -1.8790 C   0  0  2  0  0  0  0  0  0  0  0  0
   -2.1860   -3.8590   -0.3850 C   0  0  0  0  0  0  0  0  0  0  0  0
   -0.5240   -3.0280   -1.9910 C   0  0  2  0  0  0  0  0  0  0  0  0
   -0.4610   -1.6870   -1.4770 N   0  0  0  0  0  0  0  0  0  0  0  0
    0.0540   -3.2320   -3.3150 C   0  0  0  0  0  0  0  0  0  0  0  0
    0.0230   -4.3890   -3.8050 O   0  0  0  0  0  0  0  0  0  0  0  0
    0.6460   -2.2480   -4.0960 O   0  0  0  0  0  0  0  0  0  0  0  0
   -3.7310   -2.4020   -4.5120 H   0  0  0  0  0  0  0  0  0  0  0  0
   -2.4820   -3.6840   -4.5550 H   0  0  0  0  0  0  0  0  0  0  0  0
   -2.0450   -1.9440   -4.1310 H   0  0  0  0  0  0  0  0  0  0  0  0
   -3.3280   -2.0530   -2.0560 H   0  0  0  0  0  0  0  0  0  0  0  0
   -3.8630   -3.7210   -2.5080 H   0  0  0  0  0  0  0  0  0  0  0  0
   -1.8300   -4.7210   -2.2740 H   0  0  0  0  0  0  0  0  0  0  0  0
   -1.4340   -4.5760    0.0020 H   0  0  0  0  0  0  0  0  0  0  0  0
   -2.0390   -2.8660    0.1020 H   0  0  0  0  0  0  0  0  0  0  0  0
   -3.2170   -4.2290   -0.2610 H   0  0  0  0  0  0  0  0  0  0  0  0
    0.1670   -3.6110   -1.2760 H   0  0  0  0  0  0  0  0  0  0  0  0
   -1.0210   -0.9510   -1.9730 H   0  0  0  0  0  0  0  0  0  0  0  0
  1 11  1  0  0  0  0
  1  9  1  0  0  0  0
  2  1  1  0  0  0  0
  3  2  1  0  0  0  0
  3 12  1  0  0  0  0
  4  3  1  0  0  0  0
  4 15  1  0  0  0  0
  5 16  1  6  0  0  0
  5  4  1  0  0  0  0
  5  6  1  0  0  0  0
  6 18  1  0  0  0  0
  7  8  2  0  0  0  0
  7  5  1  0  0  0  0
 10  1  1  0  0  0  0
 13  3  1  0  0  0  0
 14  4  1  0  0  0  0
 17  6  1  0  0  0  0
 19  7  1  0  0  0  0
 20 31  1  1  0  0  0
 20 19  1  0  0  0  0
 21 22  1  0  0  0  0
 21 20  1  0  0  0  0
 22 23  1  0  0  0  0
 23 34  1  0  0  0  0
 23 24  2  0  0  0  0
 24 35  1  0  0  0  0
 25 24  1  0  0  0  0
 25 36  1  0  0  0  0
 26 25  2  0  0  0  0
 27 22  2  0  0  0  0
 27 26  1  0  0  0  0
 28 20  1  0  0  0  0
 28 29  2  0  0  0  0
 30 19  1  0  0  0  0
 32 21  1  0  0  0  0
 33 21  1  0  0  0  0
 37 26  1  0  0  0  0
 38 27  1  0  0  0  0
 39 40  1  0  0  0  0
 40 52  1  0  0  0  0
 40 51  1  0  0  0  0
 40 41  1  0  0  0  0
 41 53  1  6  0  0  0
 41 42  1  0  0  0  0
 42 56  1  0  0  0  0
 42 54  1  0  0  0  0
 42 55  1  0  0  0  0
 43 41  1  0  0  0  0
 43 44  1  0  0  0  0
 43 57  1  1  0  0  0
 44 28  1  0  0  0  0
 45 43  1  0  0  0  0
 46 45  1  0  0  0  0
 47 45  2  0  0  0  0
 48 39  1  0  0  0  0
 49 39  1  0  0  0  0
 50 39  1  0  0  0  0
 58 44  1  0  0  0  0
M  END
$$$$
