MFK.pdb
 OpenBabel07022418563D

 60 60  0  0  1  0  0  0  0  0999 V2000
   -0.2680   -3.6840    4.8370 C   0  0  0  0  0  0  0  0  0  0  0  0
    1.2160   -3.4640    3.8480 S   0  0  0  0  0  0  0  0  0  0  0  0
    1.6530   -1.7030    3.7750 C   0  0  0  0  0  0  0  0  0  0  0  0
    2.8920   -1.4850    2.9530 C   0  0  0  0  0  0  0  0  0  0  0  0
    3.2310   -0.0130    2.9160 C   0  0  2  0  0  0  0  0  0  0  0  0
    3.4420    0.3790    4.3130 N   0  0  0  0  0  0  0  0  0  0  0  0
    2.1100    0.7900    2.3670 C   0  0  0  0  0  0  0  0  0  0  0  0
    1.4930    1.6300    3.1090 O   0  0  0  0  0  0  0  0  0  0  0  0
   -0.0470   -3.6520    5.9210 H   0  0  0  0  0  0  0  0  0  0  0  0
   -1.0440   -2.9100    4.6460 H   0  0  0  0  0  0  0  0  0  0  0  0
   -0.7710   -4.6630    4.6350 H   0  0  0  0  0  0  0  0  0  0  0  0
    0.7910   -1.1670    3.3390 H   0  0  0  0  0  0  0  0  0  0  0  0
    1.8130   -1.2950    4.8150 H   0  0  0  0  0  0  0  0  0  0  0  0
    3.7480   -2.0200    3.3900 H   0  0  0  0  0  0  0  0  0  0  0  0
    2.6570   -1.8370    1.9150 H   0  0  0  0  0  0  0  0  0  0  0  0
    4.1730    0.1630    2.3320 H   0  0  0  0  0  0  0  0  0  0  0  0
    2.5150    0.6220    4.7470 H   0  0  0  0  0  0  0  0  0  0  0  0
    3.8170   -0.4270    4.8710 H   0  0  0  0  0  0  0  0  0  0  0  0
    1.6480    0.7000    1.0370 N   0  0  0  0  0  0  0  0  0  0  0  0
    0.5450    1.5050    0.5180 C   0  0  1  0  0  0  0  0  0  0  0  0
    1.0240    2.4900   -0.5060 C   0  0  0  0  0  0  0  0  0  0  0  0
   -0.0680    3.3180   -1.0540 C   0  0  0  0  0  0  0  0  0  0  0  0
   -0.5070    4.4990   -0.4900 C   0  0  0  0  0  0  0  0  0  0  0  0
   -1.5390    5.2380   -1.0770 C   0  0  0  0  0  0  0  0  0  0  0  0
   -2.1460    4.8050   -2.2380 C   0  0  0  0  0  0  0  0  0  0  0  0
   -1.7100    3.6290   -2.8010 C   0  0  0  0  0  0  0  0  0  0  0  0
   -0.6920    2.9100   -2.2130 C   0  0  0  0  0  0  0  0  0  0  0  0
   -0.5490    0.6240    0.0610 C   0  0  0  0  0  0  0  0  0  0  0  0
   -1.6350    1.1130   -0.4060 O   0  0  0  0  0  0  0  0  0  0  0  0
    2.1230    0.0250    0.4000 H   0  0  0  0  0  0  0  0  0  0  0  0
    0.1790    2.1180    1.3910 H   0  0  0  0  0  0  0  0  0  0  0  0
    1.5800    1.9890   -1.3440 H   0  0  0  0  0  0  0  0  0  0  0  0
    1.7830    3.1810   -0.0580 H   0  0  0  0  0  0  0  0  0  0  0  0
   -0.0420    4.8370    0.4060 H   0  0  0  0  0  0  0  0  0  0  0  0
   -1.8980    6.1650   -0.6520 H   0  0  0  0  0  0  0  0  0  0  0  0
   -2.9600    5.3920   -2.6980 H   0  0  0  0  0  0  0  0  0  0  0  0
   -2.1920    3.2980   -3.7100 H   0  0  0  0  0  0  0  0  0  0  0  0
   -0.3450    1.9690   -2.6680 H   0  0  0  0  0  0  0  0  0  0  0  0
   -0.4530   -0.7920    0.1150 N   0  0  0  0  0  0  0  0  0  0  0  0
   -1.5230   -1.6900   -0.3350 C   0  0  1  0  0  0  0  0  0  0  0  0
   -0.9870   -2.6300   -1.3850 C   0  0  0  0  0  0  0  0  0  0  0  0
   -2.0520   -3.5380   -1.8890 C   0  0  0  0  0  0  0  0  0  0  0  0
   -1.5440   -4.4830   -2.9650 C   0  0  0  0  0  0  0  0  0  0  0  0
   -0.4330   -5.3670   -2.4720 C   0  0  0  0  0  0  0  0  0  0  0  0
   -0.8260   -6.2010   -1.3590 N   0  0  0  0  0  0  0  0  0  0  0  0
   -1.9090   -2.4660    0.8520 C   0  0  0  0  0  0  0  0  0  0  0  0
   -1.2580   -2.3180    1.9170 O   0  0  0  0  0  0  0  0  0  0  0  0
   -2.9530   -3.3600    0.8990 O   0  0  0  0  0  0  0  0  0  0  0  0
    0.4150   -1.2150    0.4900 H   0  0  0  0  0  0  0  0  0  0  0  0
   -2.3710   -1.0970   -0.7330 H   0  0  0  0  0  0  0  0  0  0  0  0
   -0.4660   -2.0790   -2.2050 H   0  0  0  0  0  0  0  0  0  0  0  0
   -0.1520   -3.2460   -0.9280 H   0  0  0  0  0  0  0  0  0  0  0  0
   -2.6390   -4.0790   -1.1400 H   0  0  0  0  0  0  0  0  0  0  0  0
   -2.8030   -2.8810   -2.4250 H   0  0  0  0  0  0  0  0  0  0  0  0
   -1.1740   -3.8810   -3.7930 H   0  0  0  0  0  0  0  0  0  0  0  0
   -2.3780   -5.1010   -3.2930 H   0  0  0  0  0  0  0  0  0  0  0  0
   -0.1730   -6.0520   -3.3060 H   0  0  0  0  0  0  0  0  0  0  0  0
    0.4940   -4.7790   -2.2610 H   0  0  0  0  0  0  0  0  0  0  0  0
   -0.4440   -5.8010   -0.4590 H   0  0  0  0  0  0  0  0  0  0  0  0
   -1.8550   -6.2630   -1.2310 H   0  0  0  0  0  0  0  0  0  0  0  0
  1  9  1  0  0  0  0
  2  1  1  0  0  0  0
  3  2  1  0  0  0  0
  3 13  1  0  0  0  0
  4 14  1  0  0  0  0
  4  3  1  0  0  0  0
  5 16  1  6  0  0  0
  5  4  1  0  0  0  0
  5  6  1  0  0  0  0
  6 17  1  0  0  0  0
  6 18  1  0  0  0  0
  7  5  1  0  0  0  0
  7  8  2  0  0  0  0
 10  1  1  0  0  0  0
 11  1  1  0  0  0  0
 12  3  1  0  0  0  0
 15  4  1  0  0  0  0
 19  7  1  0  0  0  0
 20 19  1  0  0  0  0
 20 31  1  1  0  0  0
 21 33  1  0  0  0  0
 21 20  1  0  0  0  0
 22 21  1  0  0  0  0
 22 23  1  0  0  0  0
 23 34  1  0  0  0  0
 24 35  1  0  0  0  0
 24 23  2  0  0  0  0
 25 24  1  0  0  0  0
 26 25  2  0  0  0  0
 26 27  1  0  0  0  0
 27 22  2  0  0  0  0
 28 39  1  0  0  0  0
 28 20  1  0  0  0  0
 29 28  2  0  0  0  0
 30 19  1  0  0  0  0
 32 21  1  0  0  0  0
 36 25  1  0  0  0  0
 37 26  1  0  0  0  0
 38 27  1  0  0  0  0
 39 49  1  0  0  0  0
 40 50  1  6  0  0  0
 40 39  1  0  0  0  0
 40 46  1  0  0  0  0
 41 52  1  0  0  0  0
 41 40  1  0  0  0  0
 42 41  1  0  0  0  0
 42 53  1  0  0  0  0
 43 44  1  0  0  0  0
 43 42  1  0  0  0  0
 44 58  1  0  0  0  0
 44 45  1  0  0  0  0
 45 60  1  0  0  0  0
 45 59  1  0  0  0  0
 46 48  2  0  0  0  0
 46 47  1  0  0  0  0
 51 41  1  0  0  0  0
 54 42  1  0  0  0  0
 55 43  1  0  0  0  0
 56 43  1  0  0  0  0
 57 44  1  0  0  0  0
M  END
$$$$
