MFL.pdb
 OpenBabel07022418563D

 58 58  0  0  1  0  0  0  0  0999 V2000
   -1.6590   -3.4000    5.2430 C   0  0  0  0  0  0  0  0  0  0  0  0
   -0.4320   -2.2420    5.9030 S   0  0  0  0  0  0  0  0  0  0  0  0
    1.1230   -2.4100    5.0410 C   0  0  0  0  0  0  0  0  0  0  0  0
    1.1200   -2.0160    3.6060 C   0  0  0  0  0  0  0  0  0  0  0  0
    0.7850   -0.5890    3.3050 C   0  0  2  0  0  0  0  0  0  0  0  0
   -0.5020   -0.1530    3.7360 N   0  0  0  0  0  0  0  0  0  0  0  0
    1.0360   -0.2660    1.8690 C   0  0  0  0  0  0  0  0  0  0  0  0
    2.2240   -0.4520    1.4150 O   0  0  0  0  0  0  0  0  0  0  0  0
   -2.4110   -3.6820    5.9870 H   0  0  0  0  0  0  0  0  0  0  0  0
   -1.1480   -4.3050    4.8370 H   0  0  0  0  0  0  0  0  0  0  0  0
   -2.1920   -2.9280    4.3690 H   0  0  0  0  0  0  0  0  0  0  0  0
    1.3890   -3.5100    5.0600 H   0  0  0  0  0  0  0  0  0  0  0  0
    1.9620   -1.9420    5.6190 H   0  0  0  0  0  0  0  0  0  0  0  0
    0.4360   -2.7350    3.0790 H   0  0  0  0  0  0  0  0  0  0  0  0
    2.1360   -2.2890    3.2060 H   0  0  0  0  0  0  0  0  0  0  0  0
    1.5270    0.0250    3.9030 H   0  0  0  0  0  0  0  0  0  0  0  0
   -0.8150    0.7370    3.2710 H   0  0  0  0  0  0  0  0  0  0  0  0
   -0.5460   -0.0410    4.7840 H   0  0  0  0  0  0  0  0  0  0  0  0
    0.0490    0.2300    0.9830 N   0  0  0  0  0  0  0  0  0  0  0  0
    0.2790    0.5540   -0.3830 C   0  0  1  0  0  0  0  0  0  0  0  0
    1.5140    1.3670   -0.6760 C   0  0  0  0  0  0  0  0  0  0  0  0
    1.5010    2.7070   -0.0140 C   0  0  0  0  0  0  0  0  0  0  0  0
    0.8950    3.7860   -0.6750 C   0  0  0  0  0  0  0  0  0  0  0  0
    0.8360    5.0540   -0.1620 C   0  0  0  0  0  0  0  0  0  0  0  0
    1.3950    5.3160    1.0700 C   0  0  0  0  0  0  0  0  0  0  0  0
    1.9940    4.2740    1.7350 C   0  0  0  0  0  0  0  0  0  0  0  0
    2.0510    2.9800    1.2080 C   0  0  0  0  0  0  0  0  0  0  0  0
    0.1390   -0.6450   -1.2300 C   0  0  0  0  0  0  0  0  0  0  0  0
    0.3140   -0.4750   -2.4610 O   0  0  0  0  0  0  0  0  0  0  0  0
   -0.9160    0.3540    1.3620 H   0  0  0  0  0  0  0  0  0  0  0  0
   -0.5640    1.2640   -0.6890 H   0  0  0  0  0  0  0  0  0  0  0  0
    2.4620    0.8810   -0.4750 H   0  0  0  0  0  0  0  0  0  0  0  0
    1.4820    1.5720   -1.7790 H   0  0  0  0  0  0  0  0  0  0  0  0
    0.4480    3.6090   -1.6450 H   0  0  0  0  0  0  0  0  0  0  0  0
    0.3510    5.8760   -0.7130 H   0  0  0  0  0  0  0  0  0  0  0  0
    1.3540    6.3150    1.4840 H   0  0  0  0  0  0  0  0  0  0  0  0
    2.4430    4.4400    2.7050 H   0  0  0  0  0  0  0  0  0  0  0  0
    2.5380    2.1880    1.7620 H   0  0  0  0  0  0  0  0  0  0  0  0
   -2.0940   -2.1330   -4.5630 C   0  0  0  0  0  0  0  0  0  0  0  0
   -1.9520   -2.2210   -3.0370 C   0  0  0  0  0  0  0  0  0  0  0  0
   -3.1480   -3.1130   -2.6200 C   0  0  0  0  0  0  0  0  0  0  0  0
   -0.6750   -2.9420   -2.7650 C   0  0  0  0  0  0  0  0  0  0  0  0
   -0.3620   -3.1020   -1.2870 C   0  0  2  0  0  0  0  0  0  0  0  0
   -0.1760   -1.8730   -0.6070 N   0  0  0  0  0  0  0  0  0  0  0  0
    0.6610   -4.1080   -0.9950 C   0  0  0  0  0  0  0  0  0  0  0  0
    0.5810   -5.2380   -1.5530 O   0  0  0  0  0  0  0  0  0  0  0  0
    1.7290   -3.9020   -0.1340 O   0  0  0  0  0  0  0  0  0  0  0  0
   -1.1950   -1.6700   -4.9790 H   0  0  0  0  0  0  0  0  0  0  0  0
   -2.2120   -3.1960   -4.9110 H   0  0  0  0  0  0  0  0  0  0  0  0
   -3.0190   -1.5560   -4.7510 H   0  0  0  0  0  0  0  0  0  0  0  0
   -2.1110   -1.2670   -2.5550 H   0  0  0  0  0  0  0  0  0  0  0  0
   -2.8780   -4.1550   -2.8550 H   0  0  0  0  0  0  0  0  0  0  0  0
   -3.3400   -3.0200   -1.5340 H   0  0  0  0  0  0  0  0  0  0  0  0
   -4.0180   -2.7400   -3.1730 H   0  0  0  0  0  0  0  0  0  0  0  0
    0.1430   -2.5160   -3.3510 H   0  0  0  0  0  0  0  0  0  0  0  0
   -0.8360   -3.9940   -3.1770 H   0  0  0  0  0  0  0  0  0  0  0  0
   -1.3900   -3.5280   -0.9180 H   0  0  0  0  0  0  0  0  0  0  0  0
   -0.2860   -1.8830    0.4720 H   0  0  0  0  0  0  0  0  0  0  0  0
  1  2  1  0  0  0  0
  1  9  1  0  0  0  0
  3 12  1  0  0  0  0
  3 13  1  0  0  0  0
  3  2  1  0  0  0  0
  4  3  1  0  0  0  0
  5  4  1  0  0  0  0
  5  6  1  0  0  0  0
  5 16  1  1  0  0  0
  6 18  1  0  0  0  0
  7  5  1  0  0  0  0
  8  7  2  0  0  0  0
 10  1  1  0  0  0  0
 11  1  1  0  0  0  0
 14  4  1  0  0  0  0
 15  4  1  0  0  0  0
 17  6  1  0  0  0  0
 19 30  1  0  0  0  0
 19  7  1  0  0  0  0
 20 31  1  6  0  0  0
 20 19  1  0  0  0  0
 21 32  1  0  0  0  0
 21 20  1  0  0  0  0
 21 22  1  0  0  0  0
 22 27  1  0  0  0  0
 23 24  1  0  0  0  0
 23 22  2  0  0  0  0
 24 25  2  0  0  0  0
 25 36  1  0  0  0  0
 25 26  1  0  0  0  0
 26 37  1  0  0  0  0
 27 26  2  0  0  0  0
 27 38  1  0  0  0  0
 28 44  1  0  0  0  0
 28 20  1  0  0  0  0
 29 28  2  0  0  0  0
 33 21  1  0  0  0  0
 34 23  1  0  0  0  0
 35 24  1  0  0  0  0
 39 40  1  0  0  0  0
 40 42  1  0  0  0  0
 40 41  1  0  0  0  0
 40 51  1  0  0  0  0
 41 53  1  0  0  0  0
 42 43  1  0  0  0  0
 43 45  1  0  0  0  0
 43 57  1  1  0  0  0
 43 44  1  0  0  0  0
 44 58  1  0  0  0  0
 45 47  1  0  0  0  0
 46 45  2  0  0  0  0
 48 39  1  0  0  0  0
 49 39  1  0  0  0  0
 50 39  1  0  0  0  0
 52 41  1  0  0  0  0
 54 41  1  0  0  0  0
 55 42  1  0  0  0  0
 56 42  1  0  0  0  0
M  END
$$$$
