MFR.pdb
 OpenBabel07022418563D

 62 62  0  0  1  0  0  0  0  0999 V2000
    3.8090    1.2050    6.7850 C   0  0  0  0  0  0  0  0  0  0  0  0
    3.8420   -0.5800    6.9560 S   0  0  0  0  0  0  0  0  0  0  0  0
    3.1590   -1.4180    5.4830 C   0  0  0  0  0  0  0  0  0  0  0  0
    4.0890   -1.1390    4.3340 C   0  0  0  0  0  0  0  0  0  0  0  0
    3.7000   -1.7650    3.0360 C   0  0  2  0  0  0  0  0  0  0  0  0
    4.7350   -1.3740    2.0710 N   0  0  0  0  0  0  0  0  0  0  0  0
    2.3800   -1.2350    2.6090 C   0  0  0  0  0  0  0  0  0  0  0  0
    1.3440   -1.5300    3.2440 O   0  0  0  0  0  0  0  0  0  0  0  0
    3.1230    1.5150    5.9710 H   0  0  0  0  0  0  0  0  0  0  0  0
    3.4830    1.6470    7.7490 H   0  0  0  0  0  0  0  0  0  0  0  0
    4.8230    1.5640    6.5150 H   0  0  0  0  0  0  0  0  0  0  0  0
    3.2030   -2.5060    5.6950 H   0  0  0  0  0  0  0  0  0  0  0  0
    2.1350   -1.0760    5.3280 H   0  0  0  0  0  0  0  0  0  0  0  0
    5.1200   -1.4540    4.6500 H   0  0  0  0  0  0  0  0  0  0  0  0
    4.1640   -0.0150    4.2430 H   0  0  0  0  0  0  0  0  0  0  0  0
    3.7160   -2.8590    3.1490 H   0  0  0  0  0  0  0  0  0  0  0  0
    4.4870   -1.8490    1.1730 H   0  0  0  0  0  0  0  0  0  0  0  0
    5.6280   -1.8110    2.4030 H   0  0  0  0  0  0  0  0  0  0  0  0
    2.2260   -0.3860    1.4860 N   0  0  0  0  0  0  0  0  0  0  0  0
    0.8630    0.1260    1.0920 C   0  0  1  0  0  0  0  0  0  0  0  0
    0.9110    1.6010    1.1320 C   0  0  0  0  0  0  0  0  0  0  0  0
   -0.3650    2.2390    0.7960 C   0  0  0  0  0  0  0  0  0  0  0  0
   -0.6640    2.7000   -0.4660 C   0  0  0  0  0  0  0  0  0  0  0  0
   -1.8760    3.3260   -0.7550 C   0  0  0  0  0  0  0  0  0  0  0  0
   -2.8270    3.5100    0.2080 C   0  0  0  0  0  0  0  0  0  0  0  0
   -2.5430    3.0530    1.4790 C   0  0  0  0  0  0  0  0  0  0  0  0
   -1.3510    2.4370    1.7670 C   0  0  0  0  0  0  0  0  0  0  0  0
    0.6020   -0.5390   -0.1800 C   0  0  0  0  0  0  0  0  0  0  0  0
    1.5430   -1.1900   -0.7710 O   0  0  0  0  0  0  0  0  0  0  0  0
    3.0650   -0.1240    0.9420 H   0  0  0  0  0  0  0  0  0  0  0  0
    0.1380   -0.2880    1.8350 H   0  0  0  0  0  0  0  0  0  0  0  0
    1.6910    1.9820    0.4180 H   0  0  0  0  0  0  0  0  0  0  0  0
    1.2470    1.9350    2.1520 H   0  0  0  0  0  0  0  0  0  0  0  0
    0.0790    2.5610   -1.2390 H   0  0  0  0  0  0  0  0  0  0  0  0
   -2.0430    3.6630   -1.7710 H   0  0  0  0  0  0  0  0  0  0  0  0
   -3.7670    3.9980   -0.0280 H   0  0  0  0  0  0  0  0  0  0  0  0
   -3.3090    3.2080    2.2290 H   0  0  0  0  0  0  0  0  0  0  0  0
   -1.1540    2.0890    2.7650 H   0  0  0  0  0  0  0  0  0  0  0  0
   -6.3530   -3.2610   -3.1790 N   0  0  0  0  0  0  0  0  0  0  0  0
   -4.9910   -3.6150   -3.1290 C   0  0  0  0  0  0  0  0  0  0  0  0
   -4.6310   -4.6590   -2.4810 N   0  0  0  0  0  0  0  0  0  0  0  0
   -3.9760   -2.8640   -3.7700 N   0  0  0  0  0  0  0  0  0  0  0  0
   -2.6760   -3.3970   -3.9070 C   0  0  0  0  0  0  0  0  0  0  0  0
   -1.8720   -3.5770   -2.6990 C   0  0  0  0  0  0  0  0  0  0  0  0
   -1.5420   -2.5300   -1.7720 C   0  0  0  0  0  0  0  0  0  0  0  0
   -0.7720   -1.2970   -2.1420 C   0  0  2  0  0  0  0  0  0  0  0  0
   -0.6270   -0.5470   -0.8440 N   0  0  0  0  0  0  0  0  0  0  0  0
   -1.4930   -0.3410   -3.0000 C   0  0  0  0  0  0  0  0  0  0  0  0
   -2.0330    0.7040   -2.5370 O   0  0  0  0  0  0  0  0  0  0  0  0
   -1.6280   -0.5100   -4.3730 O   0  0  0  0  0  0  0  0  0  0  0  0
   -7.0750   -3.9960   -3.0620 H   0  0  0  0  0  0  0  0  0  0  0  0
   -6.6860   -2.2850   -3.3290 H   0  0  0  0  0  0  0  0  0  0  0  0
   -5.3620   -5.2240   -2.0040 H   0  0  0  0  0  0  0  0  0  0  0  0
   -4.2050   -1.9190   -4.1350 H   0  0  0  0  0  0  0  0  0  0  0  0
   -2.0990   -2.9680   -4.7330 H   0  0  0  0  0  0  0  0  0  0  0  0
   -2.8460   -4.4800   -4.3020 H   0  0  0  0  0  0  0  0  0  0  0  0
   -0.8810   -4.0340   -3.0710 H   0  0  0  0  0  0  0  0  0  0  0  0
   -2.2460   -4.4740   -2.0750 H   0  0  0  0  0  0  0  0  0  0  0  0
   -0.9410   -2.9710   -0.9000 H   0  0  0  0  0  0  0  0  0  0  0  0
   -2.4450   -2.1240   -1.1880 H   0  0  0  0  0  0  0  0  0  0  0  0
    0.2440   -1.5040   -2.4680 H   0  0  0  0  0  0  0  0  0  0  0  0
   -1.4570   -0.0700   -0.5000 H   0  0  0  0  0  0  0  0  0  0  0  0
  1  2  1  0  0  0  0
  1 10  1  0  0  0  0
  3 12  1  0  0  0  0
  3  2  1  0  0  0  0
  4 14  1  0  0  0  0
  4  3  1  0  0  0  0
  5 16  1  1  0  0  0
  5  4  1  0  0  0  0
  6 18  1  0  0  0  0
  6  5  1  0  0  0  0
  7  5  1  0  0  0  0
  7  8  2  0  0  0  0
  9  1  1  0  0  0  0
 11  1  1  0  0  0  0
 13  3  1  0  0  0  0
 15  4  1  0  0  0  0
 17  6  1  0  0  0  0
 19  7  1  0  0  0  0
 20 21  1  0  0  0  0
 20 19  1  0  0  0  0
 20 31  1  1  0  0  0
 21 33  1  0  0  0  0
 22 21  1  0  0  0  0
 22 27  1  0  0  0  0
 23 22  2  0  0  0  0
 24 23  1  0  0  0  0
 24 25  2  0  0  0  0
 25 26  1  0  0  0  0
 26 27  2  0  0  0  0
 26 37  1  0  0  0  0
 27 38  1  0  0  0  0
 28 20  1  0  0  0  0
 29 28  2  0  0  0  0
 30 19  1  0  0  0  0
 32 21  1  0  0  0  0
 34 23  1  0  0  0  0
 35 24  1  0  0  0  0
 36 25  1  0  0  0  0
 39 40  1  0  0  0  0
 39 51  1  0  0  0  0
 40 41  2  0  0  0  0
 41 53  1  0  0  0  0
 42 40  1  0  0  0  0
 43 42  1  0  0  0  0
 43 44  1  0  0  0  0
 44 58  1  0  0  0  0
 44 45  1  0  0  0  0
 45 60  1  0  0  0  0
 45 59  1  0  0  0  0
 46 61  1  6  0  0  0
 46 45  1  0  0  0  0
 46 47  1  0  0  0  0
 47 62  1  0  0  0  0
 47 28  1  0  0  0  0
 48 49  1  0  0  0  0
 48 46  1  0  0  0  0
 50 48  2  0  0  0  0
 52 39  1  0  0  0  0
 54 42  1  0  0  0  0
 55 43  1  0  0  0  0
 56 43  1  0  0  0  0
 57 44  1  0  0  0  0
M  END
$$$$
