MFT.pdb
 OpenBabel07022418563D

 53 53  0  0  1  0  0  0  0  0999 V2000
    3.7070   -3.1650    4.3760 C   0  0  0  0  0  0  0  0  0  0  0  0
    3.9650   -1.6260    3.4910 S   0  0  0  0  0  0  0  0  0  0  0  0
    3.4670   -1.7640    1.7520 C   0  0  0  0  0  0  0  0  0  0  0  0
    3.7190   -0.4190    1.0840 C   0  0  0  0  0  0  0  0  0  0  0  0
    2.8920    0.6060    1.8040 C   0  0  2  0  0  0  0  0  0  0  0  0
    3.2580    0.6780    3.1950 N   0  0  0  0  0  0  0  0  0  0  0  0
    1.4420    0.2530    1.6610 C   0  0  0  0  0  0  0  0  0  0  0  0
    0.6940    0.0590    2.6390 O   0  0  0  0  0  0  0  0  0  0  0  0
    3.9310   -2.9820    5.4490 H   0  0  0  0  0  0  0  0  0  0  0  0
    2.6640   -3.5340    4.3350 H   0  0  0  0  0  0  0  0  0  0  0  0
    4.4290   -3.9340    3.9860 H   0  0  0  0  0  0  0  0  0  0  0  0
    4.0950   -2.5470    1.2980 H   0  0  0  0  0  0  0  0  0  0  0  0
    2.3850   -1.9760    1.6390 H   0  0  0  0  0  0  0  0  0  0  0  0
    3.4540   -0.4390    0.0100 H   0  0  0  0  0  0  0  0  0  0  0  0
    4.7970   -0.1940    1.2250 H   0  0  0  0  0  0  0  0  0  0  0  0
    3.0570    1.5930    1.3490 H   0  0  0  0  0  0  0  0  0  0  0  0
    4.2410    1.0360    3.2340 H   0  0  0  0  0  0  0  0  0  0  0  0
    2.6710    1.3860    3.6870 H   0  0  0  0  0  0  0  0  0  0  0  0
    0.8890    0.1340    0.3580 N   0  0  0  0  0  0  0  0  0  0  0  0
   -0.5030   -0.2040    0.1730 C   0  0  1  0  0  0  0  0  0  0  0  0
   -1.2660    0.8680   -0.5640 C   0  0  0  0  0  0  0  0  0  0  0  0
   -1.2570    2.1700    0.1300 C   0  0  0  0  0  0  0  0  0  0  0  0
   -0.2730    3.1040   -0.1090 C   0  0  0  0  0  0  0  0  0  0  0  0
   -0.2430    4.3300    0.5290 C   0  0  0  0  0  0  0  0  0  0  0  0
   -1.2130    4.6700    1.4440 C   0  0  0  0  0  0  0  0  0  0  0  0
   -2.2060    3.7500    1.6980 C   0  0  0  0  0  0  0  0  0  0  0  0
   -2.2280    2.5140    1.0490 C   0  0  0  0  0  0  0  0  0  0  0  0
   -0.5690   -1.4360   -0.6580 C   0  0  0  0  0  0  0  0  0  0  0  0
    0.4750   -2.0050   -1.0740 O   0  0  0  0  0  0  0  0  0  0  0  0
    1.5190    0.2980   -0.4560 H   0  0  0  0  0  0  0  0  0  0  0  0
   -1.0010   -0.3370    1.1530 H   0  0  0  0  0  0  0  0  0  0  0  0
   -0.8710    0.9400   -1.6050 H   0  0  0  0  0  0  0  0  0  0  0  0
   -2.3130    0.5100   -0.6610 H   0  0  0  0  0  0  0  0  0  0  0  0
    0.5100    2.9020   -0.8090 H   0  0  0  0  0  0  0  0  0  0  0  0
    0.5470    5.0320    0.3110 H   0  0  0  0  0  0  0  0  0  0  0  0
   -1.2100    5.6360    1.9620 H   0  0  0  0  0  0  0  0  0  0  0  0
   -2.9640    4.0250    2.4180 H   0  0  0  0  0  0  0  0  0  0  0  0
   -3.0200    1.8150    1.2700 H   0  0  0  0  0  0  0  0  0  0  0  0
   -3.9690   -3.9300   -0.6300 C   0  0  0  0  0  0  0  0  0  0  0  0
   -2.5850   -4.3340   -1.0410 C   0  0  1  0  0  0  0  0  0  0  0  0
   -2.6550   -5.4690   -1.8240 O   0  0  0  0  0  0  0  0  0  0  0  0
   -1.8860   -3.2380   -1.8340 C   0  0  2  0  0  0  0  0  0  0  0  0
   -1.8040   -2.0380   -1.0260 N   0  0  0  0  0  0  0  0  0  0  0  0
   -2.6200   -2.9790   -3.1100 C   0  0  0  0  0  0  0  0  0  0  0  0
   -3.0760   -1.8310   -3.3670 O   0  0  0  0  0  0  0  0  0  0  0  0
   -2.8310   -3.9670   -4.0520 O   0  0  0  0  0  0  0  0  0  0  0  0
   -4.6500   -3.8010   -1.4940 H   0  0  0  0  0  0  0  0  0  0  0  0
   -3.9550   -3.0240    0.0230 H   0  0  0  0  0  0  0  0  0  0  0  0
   -4.3790   -4.7440   -0.0020 H   0  0  0  0  0  0  0  0  0  0  0  0
   -2.0100   -4.5430   -0.1200 H   0  0  0  0  0  0  0  0  0  0  0  0
   -2.1770   -6.2080   -1.3840 H   0  0  0  0  0  0  0  0  0  0  0  0
   -0.8810   -3.6070   -2.1140 H   0  0  0  0  0  0  0  0  0  0  0  0
   -2.6700   -1.5860   -0.6940 H   0  0  0  0  0  0  0  0  0  0  0  0
  1  9  1  0  0  0  0
  2  1  1  0  0  0  0
  3  2  1  0  0  0  0
  4 15  1  0  0  0  0
  4  3  1  0  0  0  0
  4  5  1  0  0  0  0
  5 16  1  6  0  0  0
  5  6  1  0  0  0  0
  6 17  1  0  0  0  0
  6 18  1  0  0  0  0
  7  5  1  0  0  0  0
  7  8  2  0  0  0  0
 10  1  1  0  0  0  0
 11  1  1  0  0  0  0
 12  3  1  0  0  0  0
 13  3  1  0  0  0  0
 14  4  1  0  0  0  0
 19  7  1  0  0  0  0
 20 19  1  0  0  0  0
 20 31  1  1  0  0  0
 21 22  1  0  0  0  0
 21 20  1  0  0  0  0
 22 27  1  0  0  0  0
 23 22  2  0  0  0  0
 23 24  1  0  0  0  0
 24 25  2  0  0  0  0
 25 26  1  0  0  0  0
 25 36  1  0  0  0  0
 26 37  1  0  0  0  0
 27 38  1  0  0  0  0
 27 26  2  0  0  0  0
 28 20  1  0  0  0  0
 29 28  2  0  0  0  0
 30 19  1  0  0  0  0
 32 21  1  0  0  0  0
 33 21  1  0  0  0  0
 34 23  1  0  0  0  0
 35 24  1  0  0  0  0
 39 49  1  0  0  0  0
 39 48  1  0  0  0  0
 40 39  1  0  0  0  0
 40 50  1  1  0  0  0
 41 51  1  0  0  0  0
 41 40  1  0  0  0  0
 42 52  1  6  0  0  0
 42 40  1  0  0  0  0
 42 43  1  0  0  0  0
 43 53  1  0  0  0  0
 43 28  1  0  0  0  0
 44 42  1  0  0  0  0
 45 44  1  0  0  0  0
 46 44  2  0  0  0  0
 47 39  1  0  0  0  0
M  END
$$$$
