MFW.pdb
 OpenBabel07022418563D

 63 65  0  0  1  0  0  0  0  0999 V2000
    2.9020   -3.6410    4.5800 C   0  0  0  0  0  0  0  0  0  0  0  0
    2.5940   -2.0650    5.3980 S   0  0  0  0  0  0  0  0  0  0  0  0
    1.0620   -1.3510    4.7620 C   0  0  0  0  0  0  0  0  0  0  0  0
    1.1530   -0.9550    3.3120 C   0  0  0  0  0  0  0  0  0  0  0  0
   -0.1720   -0.3500    2.9320 C   0  0  2  0  0  0  0  0  0  0  0  0
   -1.3020   -1.2110    3.0650 N   0  0  0  0  0  0  0  0  0  0  0  0
   -0.0670    0.3870    1.6610 C   0  0  0  0  0  0  0  0  0  0  0  0
    1.0450    0.9250    1.4170 O   0  0  0  0  0  0  0  0  0  0  0  0
    3.3660   -4.3800    5.2920 H   0  0  0  0  0  0  0  0  0  0  0  0
    1.9340   -4.0960    4.2430 H   0  0  0  0  0  0  0  0  0  0  0  0
    3.5640   -3.4780    3.7230 H   0  0  0  0  0  0  0  0  0  0  0  0
    0.2130   -2.0550    4.8510 H   0  0  0  0  0  0  0  0  0  0  0  0
    0.8040   -0.4380    5.3430 H   0  0  0  0  0  0  0  0  0  0  0  0
    1.3820   -1.7910    2.6510 H   0  0  0  0  0  0  0  0  0  0  0  0
    1.9110   -0.1460    3.1710 H   0  0  0  0  0  0  0  0  0  0  0  0
   -0.3190    0.4930    3.7130 H   0  0  0  0  0  0  0  0  0  0  0  0
   -0.9870   -2.2220    3.1690 H   0  0  0  0  0  0  0  0  0  0  0  0
   -1.8880   -0.9600    3.9170 H   0  0  0  0  0  0  0  0  0  0  0  0
   -1.1220    0.5280    0.7150 N   0  0  0  0  0  0  0  0  0  0  0  0
   -1.0590    1.2530   -0.4850 C   0  0  1  0  0  0  0  0  0  0  0  0
   -0.3200    2.5610   -0.5210 C   0  0  0  0  0  0  0  0  0  0  0  0
   -0.9020    3.6150    0.3520 C   0  0  0  0  0  0  0  0  0  0  0  0
   -0.4220    3.8620    1.6050 C   0  0  0  0  0  0  0  0  0  0  0  0
   -1.0190    4.8630    2.3970 C   0  0  0  0  0  0  0  0  0  0  0  0
   -2.0820    5.6170    1.9580 C   0  0  0  0  0  0  0  0  0  0  0  0
   -2.5410    5.3450    0.6900 C   0  0  0  0  0  0  0  0  0  0  0  0
   -1.9710    4.3760   -0.0900 C   0  0  0  0  0  0  0  0  0  0  0  0
   -1.0060    0.5780   -1.7590 C   0  0  0  0  0  0  0  0  0  0  0  0
   -0.6970    1.2300   -2.8470 O   0  0  0  0  0  0  0  0  0  0  0  0
   -2.0090    0.0080    1.0090 H   0  0  0  0  0  0  0  0  0  0  0  0
   -2.1720    1.7100   -0.5160 H   0  0  0  0  0  0  0  0  0  0  0  0
    0.7510    2.3790   -0.3460 H   0  0  0  0  0  0  0  0  0  0  0  0
   -0.4300    2.9400   -1.5770 H   0  0  0  0  0  0  0  0  0  0  0  0
    0.4270    3.3320    2.0430 H   0  0  0  0  0  0  0  0  0  0  0  0
   -0.6480    5.0670    3.4010 H   0  0  0  0  0  0  0  0  0  0  0  0
   -2.5280    6.3860    2.5780 H   0  0  0  0  0  0  0  0  0  0  0  0
   -3.3960    5.9500    0.3420 H   0  0  0  0  0  0  0  0  0  0  0  0
   -2.3190    4.1580   -1.0910 H   0  0  0  0  0  0  0  0  0  0  0  0
   -1.2900   -0.8110   -1.9100 N   0  0  0  0  0  0  0  0  0  0  0  0
   -1.2340   -1.4250   -3.1990 C   0  0  1  0  0  0  0  0  0  0  0  0
   -0.9150   -2.8490   -3.3260 C   0  0  0  0  0  0  0  0  0  0  0  0
    0.3630   -3.3240   -2.7640 C   0  0  0  0  0  0  0  0  0  0  0  0
    1.5750   -3.4500   -3.4490 C   0  0  0  0  0  0  0  0  0  0  0  0
    2.5440   -3.8880   -2.6110 N   0  0  0  0  0  0  0  0  0  0  0  0
    2.0240   -4.0570   -1.3860 C   0  0  0  0  0  0  0  0  0  0  0  0
    2.5390   -4.4860   -0.1860 C   0  0  0  0  0  0  0  0  0  0  0  0
    1.7490   -4.5840    0.9440 C   0  0  0  0  0  0  0  0  0  0  0  0
    0.4230   -4.2440    0.8540 C   0  0  0  0  0  0  0  0  0  0  0  0
   -0.1190   -3.8070   -0.3500 C   0  0  0  0  0  0  0  0  0  0  0  0
    0.6680   -3.7100   -1.4690 C   0  0  0  0  0  0  0  0  0  0  0  0
   -2.6180   -1.1690   -3.8470 C   0  0  0  0  0  0  0  0  0  0  0  0
   -2.8100   -1.6210   -4.9910 O   0  0  0  0  0  0  0  0  0  0  0  0
   -3.5880   -0.4730   -3.1870 O   0  0  0  0  0  0  0  0  0  0  0  0
   -1.5440   -1.3600   -1.0790 H   0  0  0  0  0  0  0  0  0  0  0  0
   -0.5850   -0.8200   -3.8760 H   0  0  0  0  0  0  0  0  0  0  0  0
   -1.7230   -3.5350   -2.9670 H   0  0  0  0  0  0  0  0  0  0  0  0
   -0.8410   -3.0870   -4.4390 H   0  0  0  0  0  0  0  0  0  0  0  0
    1.6610   -3.2150   -4.5080 H   0  0  0  0  0  0  0  0  0  0  0  0
    3.5270   -4.0510   -2.9140 H   0  0  0  0  0  0  0  0  0  0  0  0
    3.5840   -4.7690   -0.0770 H   0  0  0  0  0  0  0  0  0  0  0  0
    2.1200   -4.9220    1.9090 H   0  0  0  0  0  0  0  0  0  0  0  0
   -0.2620   -4.3010    1.6920 H   0  0  0  0  0  0  0  0  0  0  0  0
   -1.1960   -3.5490   -0.3910 H   0  0  0  0  0  0  0  0  0  0  0  0
  1  9  1  0  0  0  0
  1  2  1  0  0  0  0
  3 12  1  0  0  0  0
  3 13  1  0  0  0  0
  3  2  1  0  0  0  0
  4  3  1  0  0  0  0
  5  6  1  0  0  0  0
  5  4  1  0  0  0  0
  5 16  1  1  0  0  0
  6 17  1  0  0  0  0
  6 18  1  0  0  0  0
  7  5  1  0  0  0  0
  8  7  2  0  0  0  0
 10  1  1  0  0  0  0
 11  1  1  0  0  0  0
 14  4  1  0  0  0  0
 15  4  1  0  0  0  0
 19 30  1  0  0  0  0
 19  7  1  0  0  0  0
 20 31  1  6  0  0  0
 20 19  1  0  0  0  0
 21 20  1  0  0  0  0
 21 32  1  0  0  0  0
 21 22  1  0  0  0  0
 22 23  1  0  0  0  0
 23 34  1  0  0  0  0
 23 24  2  0  0  0  0
 24 35  1  0  0  0  0
 25 24  1  0  0  0  0
 25 36  1  0  0  0  0
 26 25  2  0  0  0  0
 27 22  2  0  0  0  0
 27 26  1  0  0  0  0
 28 20  1  0  0  0  0
 29 28  2  0  0  0  0
 33 21  1  0  0  0  0
 37 26  1  0  0  0  0
 38 27  1  0  0  0  0
 39 28  1  0  0  0  0
 39 54  1  0  0  0  0
 40 55  1  6  0  0  0
 40 39  1  0  0  0  0
 41 40  1  0  0  0  0
 41 56  1  0  0  0  0
 41 42  1  0  0  0  0
 42 50  1  0  0  0  0
 43 42  2  0  0  0  0
 43 44  1  0  0  0  0
 44 45  1  0  0  0  0
 45 46  1  0  0  0  0
 46 60  1  0  0  0  0
 46 47  2  0  0  0  0
 47 61  1  0  0  0  0
 48 47  1  0  0  0  0
 48 62  1  0  0  0  0
 49 48  2  0  0  0  0
 50 45  2  0  0  0  0
 50 49  1  0  0  0  0
 51 40  1  0  0  0  0
 51 53  1  0  0  0  0
 52 51  2  0  0  0  0
 57 41  1  0  0  0  0
 58 43  1  0  0  0  0
 59 44  1  0  0  0  0
 63 49  1  0  0  0  0
M  END
$$$$
