MGC.pdb
 OpenBabel07022418543D

 37 36  0  0  1  0  0  0  0  0999 V2000
   -0.9170   -4.5630    3.8180 C   0  0  0  0  0  0  0  0  0  0  0  0
   -0.5090   -5.3770    2.2710 S   0  0  0  0  0  0  0  0  0  0  0  0
   -1.3400   -4.6550    0.8560 C   0  0  0  0  0  0  0  0  0  0  0  0
   -0.9030   -3.2530    0.5440 C   0  0  0  0  0  0  0  0  0  0  0  0
    0.5790   -3.1700    0.2330 C   0  0  2  0  0  0  0  0  0  0  0  0
    1.4190   -3.6080    1.3060 N   0  0  0  0  0  0  0  0  0  0  0  0
    0.8940   -1.7810   -0.1900 C   0  0  0  0  0  0  0  0  0  0  0  0
    1.8130   -1.1810    0.4090 O   0  0  0  0  0  0  0  0  0  0  0  0
   -1.5470   -3.6610    3.6880 H   0  0  0  0  0  0  0  0  0  0  0  0
    0.0120   -4.2860    4.3510 H   0  0  0  0  0  0  0  0  0  0  0  0
   -1.4750   -5.2930    4.4680 H   0  0  0  0  0  0  0  0  0  0  0  0
   -2.4440   -4.6690    0.9430 H   0  0  0  0  0  0  0  0  0  0  0  0
   -1.0780   -5.2810   -0.0430 H   0  0  0  0  0  0  0  0  0  0  0  0
   -1.1800   -2.5330    1.3400 H   0  0  0  0  0  0  0  0  0  0  0  0
   -1.4400   -2.9280   -0.3710 H   0  0  0  0  0  0  0  0  0  0  0  0
    0.7760   -3.8480   -0.6440 H   0  0  0  0  0  0  0  0  0  0  0  0
    2.3870   -3.6700    0.9370 H   0  0  0  0  0  0  0  0  0  0  0  0
    1.4090   -2.9480    2.1170 H   0  0  0  0  0  0  0  0  0  0  0  0
    0.2120   -1.1090   -1.2280 N   0  0  0  0  0  0  0  0  0  0  0  0
    0.5910    0.2420   -1.5620 C   0  0  0  0  0  0  0  0  0  0  0  0
    0.3820    1.0990   -0.3730 C   0  0  0  0  0  0  0  0  0  0  0  0
   -0.0620    0.6000    0.6750 O   0  0  0  0  0  0  0  0  0  0  0  0
   -0.5520   -1.5940   -1.7390 H   0  0  0  0  0  0  0  0  0  0  0  0
   -0.0950    0.6180   -2.3590 H   0  0  0  0  0  0  0  0  0  0  0  0
    1.6300    0.3050   -1.9500 H   0  0  0  0  0  0  0  0  0  0  0  0
    0.6640    2.4900   -0.3570 N   0  0  0  0  0  0  0  0  0  0  0  0
    0.4810    3.3570    0.7600 C   0  0  1  0  0  0  0  0  0  0  0  0
    1.7900    4.0040    1.1680 C   0  0  0  0  0  0  0  0  0  0  0  0
    3.0150    2.7610    1.6290 S   0  0  0  0  0  0  0  0  0  0  0  0
   -0.4790    4.4540    0.5210 C   0  0  0  0  0  0  0  0  0  0  0  0
   -0.6610    5.2460    1.4990 O   0  0  0  0  0  0  0  0  0  0  0  0
   -1.1800    4.7000   -0.6230 O   0  0  0  0  0  0  0  0  0  0  0  0
    1.0350    2.8930   -1.2440 H   0  0  0  0  0  0  0  0  0  0  0  0
    0.0980    2.8200    1.6700 H   0  0  0  0  0  0  0  0  0  0  0  0
    2.2010    4.6160    0.3220 H   0  0  0  0  0  0  0  0  0  0  0  0
    1.5800    4.6570    2.0490 H   0  0  0  0  0  0  0  0  0  0  0  0
    2.4260    1.5030    1.8440 H   0  0  0  0  0  0  0  0  0  0  0  0
  1 10  1  0  0  0  0
  1 11  1  0  0  0  0
  2  1  1  0  0  0  0
  3 12  1  0  0  0  0
  3  2  1  0  0  0  0
  4  3  1  0  0  0  0
  4 14  1  0  0  0  0
  5 16  1  6  0  0  0
  5  4  1  0  0  0  0
  5  6  1  0  0  0  0
  6 18  1  0  0  0  0
  7  5  1  0  0  0  0
  7  8  2  0  0  0  0
  9  1  1  0  0  0  0
 13  3  1  0  0  0  0
 15  4  1  0  0  0  0
 17  6  1  0  0  0  0
 19  7  1  0  0  0  0
 20 19  1  0  0  0  0
 20 21  1  0  0  0  0
 21 26  1  0  0  0  0
 21 22  2  0  0  0  0
 23 19  1  0  0  0  0
 24 20  1  0  0  0  0
 25 20  1  0  0  0  0
 26 27  1  0  0  0  0
 27 28  1  0  0  0  0
 27 34  1  1  0  0  0
 28 29  1  0  0  0  0
 28 36  1  0  0  0  0
 29 37  1  0  0  0  0
 30 27  1  0  0  0  0
 30 31  1  0  0  0  0
 32 30  2  0  0  0  0
 33 26  1  0  0  0  0
 35 28  1  0  0  0  0
M  END
$$$$
