MGD.pdb
 OpenBabel07022418543D

 39 38  0  0  1  0  0  0  0  0999 V2000
    0.3660   -3.7070    3.1380 C   0  0  0  0  0  0  0  0  0  0  0  0
    1.7370   -4.5330    2.3520 S   0  0  0  0  0  0  0  0  0  0  0  0
    1.6000   -4.7220    0.5790 C   0  0  0  0  0  0  0  0  0  0  0  0
    1.6590   -3.4550   -0.2060 C   0  0  0  0  0  0  0  0  0  0  0  0
    0.5990   -2.4540    0.1030 C   0  0  2  0  0  0  0  0  0  0  0  0
   -0.7310   -2.9190   -0.1150 N   0  0  0  0  0  0  0  0  0  0  0  0
    0.8180   -1.1540   -0.5850 C   0  0  0  0  0  0  0  0  0  0  0  0
    1.9450   -0.6070   -0.5230 O   0  0  0  0  0  0  0  0  0  0  0  0
   -0.5700   -3.6770    2.5730 H   0  0  0  0  0  0  0  0  0  0  0  0
    0.5830   -2.6920    3.5250 H   0  0  0  0  0  0  0  0  0  0  0  0
    0.1250   -4.3000    4.0740 H   0  0  0  0  0  0  0  0  0  0  0  0
    0.7290   -5.3550    0.2740 H   0  0  0  0  0  0  0  0  0  0  0  0
    2.4950   -5.3330    0.2560 H   0  0  0  0  0  0  0  0  0  0  0  0
    1.5990   -3.6720   -1.3030 H   0  0  0  0  0  0  0  0  0  0  0  0
    2.6930   -3.0300   -0.0510 H   0  0  0  0  0  0  0  0  0  0  0  0
    0.7050   -2.2060    1.1990 H   0  0  0  0  0  0  0  0  0  0  0  0
   -1.4180   -2.6290    0.5810 H   0  0  0  0  0  0  0  0  0  0  0  0
   -0.8200   -3.8650   -0.4960 H   0  0  0  0  0  0  0  0  0  0  0  0
   -0.2480   -0.5390   -1.3090 N   0  0  0  0  0  0  0  0  0  0  0  0
   -0.1200    0.7190   -1.9870 C   0  0  0  0  0  0  0  0  0  0  0  0
    0.1530    1.8480   -1.0710 C   0  0  0  0  0  0  0  0  0  0  0  0
    0.3460    3.0240   -1.5670 O   0  0  0  0  0  0  0  0  0  0  0  0
   -1.1570   -1.0940   -1.3050 H   0  0  0  0  0  0  0  0  0  0  0  0
   -1.1270    0.9450   -2.4410 H   0  0  0  0  0  0  0  0  0  0  0  0
    0.6150    0.6720   -2.8210 H   0  0  0  0  0  0  0  0  0  0  0  0
    0.2020    1.6580    0.3270 N   0  0  0  0  0  0  0  0  0  0  0  0
    0.4730    2.7460    1.2450 C   0  0  1  0  0  0  0  0  0  0  0  0
   -0.7220    2.8240    2.1920 C   0  0  0  0  0  0  0  0  0  0  0  0
   -1.9860    3.0840    1.4770 C   0  0  0  0  0  0  0  0  0  0  0  0
   -2.2380    4.2340    1.0400 O   0  0  0  0  0  0  0  0  0  0  0  0
    1.6570    2.3840    2.0640 C   0  0  0  0  0  0  0  0  0  0  0  0
    2.0680    3.2060    2.9400 O   0  0  0  0  0  0  0  0  0  0  0  0
   -2.9470    2.0960    1.2510 O   0  0  0  0  0  0  0  0  0  0  0  0
    2.3650    1.2010    1.9500 O   0  0  0  0  0  0  0  0  0  0  0  0
    0.0230    0.7280    0.7260 H   0  0  0  0  0  0  0  0  0  0  0  0
    0.6210    3.7040    0.7030 H   0  0  0  0  0  0  0  0  0  0  0  0
   -0.7880    1.8550    2.7060 H   0  0  0  0  0  0  0  0  0  0  0  0
   -0.5440    3.5830    2.9880 H   0  0  0  0  0  0  0  0  0  0  0  0
   -3.9360    2.3520    1.2660 H   0  0  0  0  0  0  0  0  0  0  0  0
  1 10  1  0  0  0  0
  1 11  1  0  0  0  0
  2  1  1  0  0  0  0
  3  2  1  0  0  0  0
  4 15  1  0  0  0  0
  4  5  1  0  0  0  0
  4  3  1  0  0  0  0
  5 16  1  1  0  0  0
  6  5  1  0  0  0  0
  6 17  1  0  0  0  0
  7  8  2  0  0  0  0
  7  5  1  0  0  0  0
  9  1  1  0  0  0  0
 12  3  1  0  0  0  0
 13  3  1  0  0  0  0
 14  4  1  0  0  0  0
 18  6  1  0  0  0  0
 19 23  1  0  0  0  0
 19  7  1  0  0  0  0
 20 19  1  0  0  0  0
 20 21  1  0  0  0  0
 21 26  1  0  0  0  0
 22 21  2  0  0  0  0
 24 20  1  0  0  0  0
 25 20  1  0  0  0  0
 26 35  1  0  0  0  0
 26 27  1  0  0  0  0
 27 36  1  6  0  0  0
 27 31  1  0  0  0  0
 27 28  1  0  0  0  0
 28 37  1  0  0  0  0
 28 38  1  0  0  0  0
 29 28  1  0  0  0  0
 30 29  2  0  0  0  0
 31 32  1  0  0  0  0
 33 39  1  0  0  0  0
 33 29  1  0  0  0  0
 34 31  2  0  0  0  0
M  END
$$$$
