MGE.pdb
 OpenBabel07022418543D

 42 41  0  0  1  0  0  0  0  0999 V2000
    0.4620   -6.2660   -2.3800 C   0  0  0  0  0  0  0  0  0  0  0  0
    0.1040   -5.1230   -3.7480 S   0  0  0  0  0  0  0  0  0  0  0  0
   -0.9420   -3.7500   -3.1800 C   0  0  0  0  0  0  0  0  0  0  0  0
   -0.1620   -2.8860   -2.1800 C   0  0  0  0  0  0  0  0  0  0  0  0
   -1.0460   -1.7410   -1.7100 C   0  0  2  0  0  0  0  0  0  0  0  0
   -1.4540   -0.9190   -2.8010 N   0  0  0  0  0  0  0  0  0  0  0  0
   -0.2370   -0.9930   -0.7000 C   0  0  0  0  0  0  0  0  0  0  0  0
    0.1940   -1.5580    0.3360 O   0  0  0  0  0  0  0  0  0  0  0  0
    0.4520   -5.7320   -1.4080 H   0  0  0  0  0  0  0  0  0  0  0  0
    1.5050   -6.6280   -2.5240 H   0  0  0  0  0  0  0  0  0  0  0  0
   -0.2070   -7.1490   -2.3810 H   0  0  0  0  0  0  0  0  0  0  0  0
   -1.8750   -4.1170   -2.7020 H   0  0  0  0  0  0  0  0  0  0  0  0
   -1.2620   -3.1590   -4.0590 H   0  0  0  0  0  0  0  0  0  0  0  0
    0.1320   -3.5470   -1.3670 H   0  0  0  0  0  0  0  0  0  0  0  0
    0.6840   -2.4300   -2.7210 H   0  0  0  0  0  0  0  0  0  0  0  0
   -1.9470   -2.2060   -1.2600 H   0  0  0  0  0  0  0  0  0  0  0  0
   -0.7210   -0.6240   -3.4500 H   0  0  0  0  0  0  0  0  0  0  0  0
   -2.2590   -1.3900   -3.2900 H   0  0  0  0  0  0  0  0  0  0  0  0
    0.0850    0.3820   -0.8580 N   0  0  0  0  0  0  0  0  0  0  0  0
    0.8670    1.1120    0.1190 C   0  0  0  0  0  0  0  0  0  0  0  0
    0.1400    1.0760    1.4040 C   0  0  0  0  0  0  0  0  0  0  0  0
   -0.9610    0.4870    1.5010 O   0  0  0  0  0  0  0  0  0  0  0  0
   -0.2590    0.8660   -1.7060 H   0  0  0  0  0  0  0  0  0  0  0  0
    0.9920    2.1740   -0.2230 H   0  0  0  0  0  0  0  0  0  0  0  0
    1.9010    0.7160    0.1990 H   0  0  0  0  0  0  0  0  0  0  0  0
    0.6670    1.7150    2.5910 N   0  0  0  0  0  0  0  0  0  0  0  0
   -0.0570    1.6720    3.8410 C   0  0  1  0  0  0  0  0  0  0  0  0
    0.6580    0.7700    4.8060 C   0  0  0  0  0  0  0  0  0  0  0  0
    2.0370    1.1470    5.1770 C   0  0  0  0  0  0  0  0  0  0  0  0
    3.0310    1.2080    4.1030 C   0  0  0  0  0  0  0  0  0  0  0  0
    3.7360    2.2510    3.9810 O   0  0  0  0  0  0  0  0  0  0  0  0
   -0.2990    3.0160    4.3990 C   0  0  0  0  0  0  0  0  0  0  0  0
   -0.9280    3.1020    5.4900 O   0  0  0  0  0  0  0  0  0  0  0  0
    3.2550    0.1850    3.1950 O   0  0  0  0  0  0  0  0  0  0  0  0
    0.1070    4.1970    3.8210 O   0  0  0  0  0  0  0  0  0  0  0  0
    1.5660    2.1880    2.4240 H   0  0  0  0  0  0  0  0  0  0  0  0
   -1.0740    1.2400    3.6260 H   0  0  0  0  0  0  0  0  0  0  0  0
    0.0570    0.6580    5.7550 H   0  0  0  0  0  0  0  0  0  0  0  0
    0.7030   -0.2890    4.4080 H   0  0  0  0  0  0  0  0  0  0  0  0
    2.4140    0.3670    5.9150 H   0  0  0  0  0  0  0  0  0  0  0  0
    2.0800    2.1100    5.7620 H   0  0  0  0  0  0  0  0  0  0  0  0
    3.5260    0.4880    2.2480 H   0  0  0  0  0  0  0  0  0  0  0  0
  1  9  1  0  0  0  0
  2  3  1  0  0  0  0
  2  1  1  0  0  0  0
  3 12  1  0  0  0  0
  3  4  1  0  0  0  0
  4  5  1  0  0  0  0
  4 14  1  0  0  0  0
  5 16  1  1  0  0  0
  5  7  1  0  0  0  0
  6  5  1  0  0  0  0
  7  8  2  0  0  0  0
 10  1  1  0  0  0  0
 11  1  1  0  0  0  0
 13  3  1  0  0  0  0
 15  4  1  0  0  0  0
 17  6  1  0  0  0  0
 18  6  1  0  0  0  0
 19  7  1  0  0  0  0
 19 20  1  0  0  0  0
 20 25  1  0  0  0  0
 20 21  1  0  0  0  0
 21 22  2  0  0  0  0
 21 26  1  0  0  0  0
 23 19  1  0  0  0  0
 24 20  1  0  0  0  0
 26 27  1  0  0  0  0
 27 37  1  6  0  0  0
 27 32  1  0  0  0  0
 27 28  1  0  0  0  0
 28 29  1  0  0  0  0
 28 38  1  0  0  0  0
 29 41  1  0  0  0  0
 29 40  1  0  0  0  0
 30 29  1  0  0  0  0
 31 30  2  0  0  0  0
 32 33  1  0  0  0  0
 34 30  1  0  0  0  0
 35 32  2  0  0  0  0
 36 26  1  0  0  0  0
 39 28  1  0  0  0  0
 42 34  1  0  0  0  0
M  END
$$$$
