MGF.pdb
 OpenBabel07022418543D

 46 46  0  0  1  0  0  0  0  0999 V2000
   -2.2390   -4.3030   -0.7680 C   0  0  0  0  0  0  0  0  0  0  0  0
   -1.1300   -4.5760   -2.1250 S   0  0  0  0  0  0  0  0  0  0  0  0
    0.5560   -4.1070   -1.9340 C   0  0  0  0  0  0  0  0  0  0  0  0
    0.9290   -2.6660   -1.9750 C   0  0  0  0  0  0  0  0  0  0  0  0
    0.3000   -1.7720   -0.9830 C   0  0  2  0  0  0  0  0  0  0  0  0
   -1.1310   -1.7020   -1.1110 N   0  0  0  0  0  0  0  0  0  0  0  0
    0.8330   -0.3750   -1.0520 C   0  0  0  0  0  0  0  0  0  0  0  0
    0.0270    0.5900   -1.2010 O   0  0  0  0  0  0  0  0  0  0  0  0
   -2.7770   -5.2640   -0.4830 H   0  0  0  0  0  0  0  0  0  0  0  0
   -3.0460   -3.6080   -1.0540 H   0  0  0  0  0  0  0  0  0  0  0  0
   -1.8010   -3.9680    0.1800 H   0  0  0  0  0  0  0  0  0  0  0  0
    1.2140   -4.6950   -2.6720 H   0  0  0  0  0  0  0  0  0  0  0  0
    0.9970   -4.4990   -0.9440 H   0  0  0  0  0  0  0  0  0  0  0  0
    2.0630   -2.5880   -1.9330 H   0  0  0  0  0  0  0  0  0  0  0  0
    0.6840   -2.3040   -3.0250 H   0  0  0  0  0  0  0  0  0  0  0  0
    0.5180   -2.2040    0.0450 H   0  0  0  0  0  0  0  0  0  0  0  0
   -1.3350   -1.9170   -2.1340 H   0  0  0  0  0  0  0  0  0  0  0  0
   -1.4670   -0.7170   -0.9880 H   0  0  0  0  0  0  0  0  0  0  0  0
    2.2230   -0.0750   -0.9570 N   0  0  0  0  0  0  0  0  0  0  0  0
    2.7420    1.2680   -1.0080 C   0  0  0  0  0  0  0  0  0  0  0  0
    2.2540    2.0420    0.1490 C   0  0  0  0  0  0  0  0  0  0  0  0
    2.5980    3.2590    0.1870 O   0  0  0  0  0  0  0  0  0  0  0  0
    2.8530   -0.9230   -0.8450 H   0  0  0  0  0  0  0  0  0  0  0  0
    3.8650    1.2150   -0.9740 H   0  0  0  0  0  0  0  0  0  0  0  0
    2.4000    1.7060   -1.9750 H   0  0  0  0  0  0  0  0  0  0  0  0
    1.4500    1.5590    1.2090 N   0  0  0  0  0  0  0  0  0  0  0  0
    1.0340    2.3990    2.2780 C   0  0  1  0  0  0  0  0  0  0  0  0
   -0.4120    2.4520    2.5920 C   0  0  0  0  0  0  0  0  0  0  0  0
   -1.0570    1.1990    2.9730 C   0  0  0  0  0  0  0  0  0  0  0  0
   -1.1310    0.7890    4.2790 C   0  0  0  0  0  0  0  0  0  0  0  0
   -1.7510   -0.4150    4.6350 C   0  0  0  0  0  0  0  0  0  0  0  0
   -2.2920   -1.1970    3.6620 C   0  0  0  0  0  0  0  0  0  0  0  0
   -2.2360   -0.8200    2.3570 C   0  0  0  0  0  0  0  0  0  0  0  0
   -1.6200    0.3720    2.0270 C   0  0  0  0  0  0  0  0  0  0  0  0
    1.7760    2.0370    3.5340 C   0  0  0  0  0  0  0  0  0  0  0  0
    1.6180    2.6470    4.6080 O   0  0  0  0  0  0  0  0  0  0  0  0
    2.6640    0.9800    3.4650 O   0  0  0  0  0  0  0  0  0  0  0  0
    1.1810    0.5620    1.1960 H   0  0  0  0  0  0  0  0  0  0  0  0
    1.3710    3.4420    2.0660 H   0  0  0  0  0  0  0  0  0  0  0  0
   -1.0280    2.9490    1.8070 H   0  0  0  0  0  0  0  0  0  0  0  0
   -0.5050    3.1580    3.4750 H   0  0  0  0  0  0  0  0  0  0  0  0
   -0.7280    1.3650    5.0690 H   0  0  0  0  0  0  0  0  0  0  0  0
   -1.8170   -0.7500    5.6600 H   0  0  0  0  0  0  0  0  0  0  0  0
   -2.7760   -2.1380    3.9430 H   0  0  0  0  0  0  0  0  0  0  0  0
   -2.6790   -1.4690    1.6040 H   0  0  0  0  0  0  0  0  0  0  0  0
   -1.5970    0.6420    0.9830 H   0  0  0  0  0  0  0  0  0  0  0  0
  1  9  1  0  0  0  0
  1 11  1  0  0  0  0
  2  3  1  0  0  0  0
  2  1  1  0  0  0  0
  3 13  1  0  0  0  0
  4  3  1  0  0  0  0
  4 14  1  0  0  0  0
  4  5  1  0  0  0  0
  5 16  1  1  0  0  0
  6 18  1  0  0  0  0
  6  5  1  0  0  0  0
  7  5  1  0  0  0  0
  7 19  1  0  0  0  0
  8  7  2  0  0  0  0
 10  1  1  0  0  0  0
 12  3  1  0  0  0  0
 15  4  1  0  0  0  0
 17  6  1  0  0  0  0
 19 23  1  0  0  0  0
 20 24  1  0  0  0  0
 20 19  1  0  0  0  0
 20 21  1  0  0  0  0
 21 22  2  0  0  0  0
 21 26  1  0  0  0  0
 25 20  1  0  0  0  0
 26 27  1  0  0  0  0
 27 39  1  6  0  0  0
 27 28  1  0  0  0  0
 27 35  1  0  0  0  0
 28 29  1  0  0  0  0
 28 41  1  0  0  0  0
 29 30  1  0  0  0  0
 30 31  2  0  0  0  0
 30 42  1  0  0  0  0
 31 43  1  0  0  0  0
 32 44  1  0  0  0  0
 32 31  1  0  0  0  0
 33 32  2  0  0  0  0
 34 33  1  0  0  0  0
 34 29  2  0  0  0  0
 35 36  1  0  0  0  0
 37 35  2  0  0  0  0
 38 26  1  0  0  0  0
 40 28  1  0  0  0  0
 45 33  1  0  0  0  0
 46 34  1  0  0  0  0
M  END
$$$$
