MGI.pdb
 OpenBabel07022418543D

 45 44  0  0  1  0  0  0  0  0999 V2000
    2.2730   -4.3750   -1.0190 C   0  0  0  0  0  0  0  0  0  0  0  0
    1.7760   -4.3650   -2.7160 S   0  0  0  0  0  0  0  0  0  0  0  0
    0.0350   -4.3480   -3.0620 C   0  0  0  0  0  0  0  0  0  0  0  0
   -0.6090   -3.0370   -2.7650 C   0  0  0  0  0  0  0  0  0  0  0  0
   -0.4950   -2.6780   -1.3170 C   0  0  2  0  0  0  0  0  0  0  0  0
   -1.1340   -3.7070   -0.5120 N   0  0  0  0  0  0  0  0  0  0  0  0
   -1.1140   -1.3430   -1.0390 C   0  0  0  0  0  0  0  0  0  0  0  0
   -0.6780   -0.3410   -1.6460 O   0  0  0  0  0  0  0  0  0  0  0  0
    1.4530   -4.6710   -0.3410 H   0  0  0  0  0  0  0  0  0  0  0  0
    2.6970   -3.4060   -0.6300 H   0  0  0  0  0  0  0  0  0  0  0  0
    3.1360   -5.0930   -0.8560 H   0  0  0  0  0  0  0  0  0  0  0  0
   -0.4610   -5.0860   -2.3370 H   0  0  0  0  0  0  0  0  0  0  0  0
   -0.2030   -4.7020   -4.1040 H   0  0  0  0  0  0  0  0  0  0  0  0
   -1.6750   -3.0280   -3.1150 H   0  0  0  0  0  0  0  0  0  0  0  0
   -0.0350   -2.2480   -3.3430 H   0  0  0  0  0  0  0  0  0  0  0  0
    0.5620   -2.6280   -1.0350 H   0  0  0  0  0  0  0  0  0  0  0  0
   -2.1330   -3.8370   -0.7090 H   0  0  0  0  0  0  0  0  0  0  0  0
   -0.9440   -3.4710    0.4860 H   0  0  0  0  0  0  0  0  0  0  0  0
   -2.1650   -1.2240   -0.1110 N   0  0  0  0  0  0  0  0  0  0  0  0
   -2.8120    0.0200    0.2220 C   0  0  0  0  0  0  0  0  0  0  0  0
   -1.9350    1.0260    0.8430 C   0  0  0  0  0  0  0  0  0  0  0  0
   -2.4460    2.1450    1.1150 O   0  0  0  0  0  0  0  0  0  0  0  0
   -2.4700   -2.1300    0.3490 H   0  0  0  0  0  0  0  0  0  0  0  0
   -3.2700    0.4580   -0.6910 H   0  0  0  0  0  0  0  0  0  0  0  0
   -3.6520   -0.2170    0.9370 H   0  0  0  0  0  0  0  0  0  0  0  0
    1.7000    2.5220    5.2240 C   0  0  0  0  0  0  0  0  0  0  0  0
    1.4780    2.6960    3.7390 C   0  0  0  0  0  0  0  0  0  0  0  0
    0.6610    1.5740    3.1540 C   0  0  2  0  0  0  0  0  0  0  0  0
    1.3680    0.2780    3.3590 C   0  0  0  0  0  0  0  0  0  0  0  0
    0.2340    1.9170    1.7800 C   0  0  2  0  0  0  0  0  0  0  0  0
   -0.5710    0.8510    1.1630 N   0  0  0  0  0  0  0  0  0  0  0  0
    1.2900    2.3830    0.8580 C   0  0  0  0  0  0  0  0  0  0  0  0
    1.4530    1.8630   -0.3010 O   0  0  0  0  0  0  0  0  0  0  0  0
    2.1920    3.3980    1.1300 O   0  0  0  0  0  0  0  0  0  0  0  0
    1.5930    3.5130    5.7040 H   0  0  0  0  0  0  0  0  0  0  0  0
    0.9390    1.8550    5.6920 H   0  0  0  0  0  0  0  0  0  0  0  0
    2.7280    2.1740    5.4680 H   0  0  0  0  0  0  0  0  0  0  0  0
    2.5180    2.7190    3.2960 H   0  0  0  0  0  0  0  0  0  0  0  0
    1.0290    3.6880    3.5730 H   0  0  0  0  0  0  0  0  0  0  0  0
   -0.2680    1.5230    3.7780 H   0  0  0  0  0  0  0  0  0  0  0  0
    1.4920    0.1400    4.4550 H   0  0  0  0  0  0  0  0  0  0  0  0
    0.7920   -0.6030    3.0100 H   0  0  0  0  0  0  0  0  0  0  0  0
    2.3850    0.2360    2.9300 H   0  0  0  0  0  0  0  0  0  0  0  0
   -0.4720    2.7720    1.8890 H   0  0  0  0  0  0  0  0  0  0  0  0
   -0.1450   -0.0830    0.9550 H   0  0  0  0  0  0  0  0  0  0  0  0
  1 11  1  0  0  0  0
  1 10  1  0  0  0  0
  1  9  1  0  0  0  0
  2  1  1  0  0  0  0
  3  4  1  0  0  0  0
  3  2  1  0  0  0  0
  3 12  1  0  0  0  0
  4  5  1  0  0  0  0
  5  7  1  0  0  0  0
  5 16  1  1  0  0  0
  5  6  1  0  0  0  0
  6 18  1  0  0  0  0
  7 19  1  0  0  0  0
  8  7  2  0  0  0  0
 13  3  1  0  0  0  0
 14  4  1  0  0  0  0
 15  4  1  0  0  0  0
 17  6  1  0  0  0  0
 19 20  1  0  0  0  0
 19 23  1  0  0  0  0
 20 21  1  0  0  0  0
 20 25  1  0  0  0  0
 21 22  2  0  0  0  0
 21 31  1  0  0  0  0
 24 20  1  0  0  0  0
 26 37  1  0  0  0  0
 26 36  1  0  0  0  0
 26 35  1  0  0  0  0
 27 26  1  0  0  0  0
 28 29  1  0  0  0  0
 28 27  1  0  0  0  0
 28 40  1  1  0  0  0
 29 41  1  0  0  0  0
 30 44  1  1  0  0  0
 30 28  1  0  0  0  0
 31 30  1  0  0  0  0
 32 34  1  0  0  0  0
 32 30  1  0  0  0  0
 33 32  2  0  0  0  0
 38 27  1  0  0  0  0
 39 27  1  0  0  0  0
 42 29  1  0  0  0  0
 43 29  1  0  0  0  0
 45 31  1  0  0  0  0
M  END
$$$$
