MGK.pdb
 OpenBabel07022418543D

 47 46  0  0  1  0  0  0  0  0999 V2000
    1.4070   -4.8620    1.4270 C   0  0  0  0  0  0  0  0  0  0  0  0
    2.9940   -5.0330    0.6240 S   0  0  0  0  0  0  0  0  0  0  0  0
    2.9960   -4.6170   -1.1290 C   0  0  0  0  0  0  0  0  0  0  0  0
    2.7680   -3.1810   -1.4350 C   0  0  0  0  0  0  0  0  0  0  0  0
    1.4710   -2.6040   -0.9690 C   0  0  2  0  0  0  0  0  0  0  0  0
    0.3340   -3.2860   -1.5520 N   0  0  0  0  0  0  0  0  0  0  0  0
    1.4390   -1.1520   -1.2220 C   0  0  0  0  0  0  0  0  0  0  0  0
    2.3700   -0.4450   -0.7740 O   0  0  0  0  0  0  0  0  0  0  0  0
    0.5330   -4.8530    0.7530 H   0  0  0  0  0  0  0  0  0  0  0  0
    1.3830   -3.9890    2.1450 H   0  0  0  0  0  0  0  0  0  0  0  0
    1.2240   -5.7420    2.1230 H   0  0  0  0  0  0  0  0  0  0  0  0
    2.3530   -5.3060   -1.7260 H   0  0  0  0  0  0  0  0  0  0  0  0
    4.0400   -4.8590   -1.4920 H   0  0  0  0  0  0  0  0  0  0  0  0
    2.8610   -2.9710   -2.5310 H   0  0  0  0  0  0  0  0  0  0  0  0
    3.6430   -2.6190   -0.9920 H   0  0  0  0  0  0  0  0  0  0  0  0
    1.4020   -2.7270    0.1300 H   0  0  0  0  0  0  0  0  0  0  0  0
   -0.4650   -3.1820   -0.8910 H   0  0  0  0  0  0  0  0  0  0  0  0
    0.5680   -4.3030   -1.5800 H   0  0  0  0  0  0  0  0  0  0  0  0
    0.3630   -0.6020   -1.9590 N   0  0  0  0  0  0  0  0  0  0  0  0
    0.2230    0.7850   -2.2570 C   0  0  0  0  0  0  0  0  0  0  0  0
    0.0780    1.6900   -1.1160 C   0  0  0  0  0  0  0  0  0  0  0  0
   -0.0110    2.9390   -1.4240 O   0  0  0  0  0  0  0  0  0  0  0  0
   -0.3650   -1.2640   -2.2990 H   0  0  0  0  0  0  0  0  0  0  0  0
    1.1550    1.1030   -2.8090 H   0  0  0  0  0  0  0  0  0  0  0  0
   -0.5910    0.9670   -3.0080 H   0  0  0  0  0  0  0  0  0  0  0  0
    0.0290    1.2870    0.2470 N   0  0  0  0  0  0  0  0  0  0  0  0
   -0.1100    2.2870    1.2440 C   0  0  1  0  0  0  0  0  0  0  0  0
   -1.2880    2.1200    2.1600 C   0  0  0  0  0  0  0  0  0  0  0  0
   -1.3080    0.8700    2.9360 C   0  0  0  0  0  0  0  0  0  0  0  0
   -2.4660    0.7330    3.8690 C   0  0  0  0  0  0  0  0  0  0  0  0
   -3.8250    0.7430    3.2810 C   0  0  0  0  0  0  0  0  0  0  0  0
   -4.1950    1.9490    2.5910 N   0  0  0  0  0  0  0  0  0  0  0  0
    1.1520    2.3470    2.0670 C   0  0  0  0  0  0  0  0  0  0  0  0
    1.2080    3.1810    3.0050 O   0  0  0  0  0  0  0  0  0  0  0  0
    2.2360    1.5420    1.8440 O   0  0  0  0  0  0  0  0  0  0  0  0
    0.0890    0.2580    0.4270 H   0  0  0  0  0  0  0  0  0  0  0  0
   -0.1820    3.2790    0.7640 H   0  0  0  0  0  0  0  0  0  0  0  0
   -2.2170    2.2190    1.5350 H   0  0  0  0  0  0  0  0  0  0  0  0
   -1.3030    2.9840    2.8520 H   0  0  0  0  0  0  0  0  0  0  0  0
   -1.2680   -0.0610    2.3280 H   0  0  0  0  0  0  0  0  0  0  0  0
   -0.3850    0.7790    3.5920 H   0  0  0  0  0  0  0  0  0  0  0  0
   -2.4270    1.6280    4.5750 H   0  0  0  0  0  0  0  0  0  0  0  0
   -2.3360   -0.1260    4.5790 H   0  0  0  0  0  0  0  0  0  0  0  0
   -3.9360   -0.0890    2.5460 H   0  0  0  0  0  0  0  0  0  0  0  0
   -4.5940    0.6290    4.1040 H   0  0  0  0  0  0  0  0  0  0  0  0
   -4.8210    1.7480    1.7950 H   0  0  0  0  0  0  0  0  0  0  0  0
   -4.6420    2.6570    3.2400 H   0  0  0  0  0  0  0  0  0  0  0  0
  1 11  1  0  0  0  0
  1 10  1  0  0  0  0
  2  1  1  0  0  0  0
  3  2  1  0  0  0  0
  4  3  1  0  0  0  0
  4 15  1  0  0  0  0
  4  5  1  0  0  0  0
  5 16  1  1  0  0  0
  6  5  1  0  0  0  0
  6 17  1  0  0  0  0
  7  5  1  0  0  0  0
  7  8  2  0  0  0  0
  9  1  1  0  0  0  0
 12  3  1  0  0  0  0
 13  3  1  0  0  0  0
 14  4  1  0  0  0  0
 18  6  1  0  0  0  0
 19  7  1  0  0  0  0
 20 19  1  0  0  0  0
 20 21  1  0  0  0  0
 21 26  1  0  0  0  0
 22 21  2  0  0  0  0
 23 19  1  0  0  0  0
 24 20  1  0  0  0  0
 25 20  1  0  0  0  0
 26 36  1  0  0  0  0
 26 27  1  0  0  0  0
 27 37  1  6  0  0  0
 27 33  1  0  0  0  0
 27 28  1  0  0  0  0
 28 39  1  0  0  0  0
 28 29  1  0  0  0  0
 29 41  1  0  0  0  0
 29 30  1  0  0  0  0
 30 42  1  0  0  0  0
 30 43  1  0  0  0  0
 31 30  1  0  0  0  0
 31 45  1  0  0  0  0
 32 47  1  0  0  0  0
 32 31  1  0  0  0  0
 33 34  1  0  0  0  0
 35 33  2  0  0  0  0
 38 28  1  0  0  0  0
 40 29  1  0  0  0  0
 44 31  1  0  0  0  0
 46 32  1  0  0  0  0
M  END
$$$$
