MGM.pdb
 OpenBabel07022418543D

 43 42  0  0  1  0  0  0  0  0999 V2000
    0.9860   -4.7140    2.7020 C   0  0  0  0  0  0  0  0  0  0  0  0
    1.5030   -5.6340    1.2730 S   0  0  0  0  0  0  0  0  0  0  0  0
    1.0760   -4.9820   -0.3180 C   0  0  0  0  0  0  0  0  0  0  0  0
    1.7910   -3.7810   -0.8020 C   0  0  0  0  0  0  0  0  0  0  0  0
    1.7260   -2.5290   -0.0270 C   0  0  2  0  0  0  0  0  0  0  0  0
    2.2590   -2.6070    1.2890 N   0  0  0  0  0  0  0  0  0  0  0  0
    0.3530   -1.9520    0.0490 C   0  0  0  0  0  0  0  0  0  0  0  0
   -0.1910   -1.6200    1.1150 O   0  0  0  0  0  0  0  0  0  0  0  0
    0.4370   -5.4540    3.3840 H   0  0  0  0  0  0  0  0  0  0  0  0
    0.2470   -3.9240    2.5450 H   0  0  0  0  0  0  0  0  0  0  0  0
    1.8660   -4.3740    3.3160 H   0  0  0  0  0  0  0  0  0  0  0  0
   -0.0480   -4.8890   -0.4570 H   0  0  0  0  0  0  0  0  0  0  0  0
    1.3150   -5.8050   -1.0770 H   0  0  0  0  0  0  0  0  0  0  0  0
    1.5660   -3.5770   -1.8840 H   0  0  0  0  0  0  0  0  0  0  0  0
    2.8960   -4.0730   -0.8400 H   0  0  0  0  0  0  0  0  0  0  0  0
    2.3530   -1.7670   -0.5840 H   0  0  0  0  0  0  0  0  0  0  0  0
    3.1180   -3.1610    1.3950 H   0  0  0  0  0  0  0  0  0  0  0  0
    2.2820   -1.6580    1.7010 H   0  0  0  0  0  0  0  0  0  0  0  0
   -0.3540   -1.7820   -1.1740 N   0  0  0  0  0  0  0  0  0  0  0  0
   -1.6830   -1.2260   -1.2450 C   0  0  0  0  0  0  0  0  0  0  0  0
   -1.7750    0.1770   -0.7720 C   0  0  0  0  0  0  0  0  0  0  0  0
   -2.9190    0.7510   -0.7590 O   0  0  0  0  0  0  0  0  0  0  0  0
    0.1360   -2.0830   -2.0700 H   0  0  0  0  0  0  0  0  0  0  0  0
   -2.4230   -1.8830   -0.7340 H   0  0  0  0  0  0  0  0  0  0  0  0
   -1.9840   -1.2030   -2.3160 H   0  0  0  0  0  0  0  0  0  0  0  0
    1.4640    3.2500    4.3310 C   0  0  0  0  0  0  0  0  0  0  0  0
   -0.2590    3.6130    4.0130 S   0  0  0  0  0  0  0  0  0  0  0  0
   -0.6760    3.6780    2.2630 C   0  0  0  0  0  0  0  0  0  0  0  0
   -0.5450    2.3510    1.5800 C   0  0  0  0  0  0  0  0  0  0  0  0
   -0.8850    2.3410    0.1260 C   0  0  2  0  0  0  0  0  0  0  0  0
   -0.6900    0.9600   -0.3270 N   0  0  0  0  0  0  0  0  0  0  0  0
   -0.1160    3.2850   -0.7040 C   0  0  0  0  0  0  0  0  0  0  0  0
   -0.1540    4.5210   -0.4940 O   0  0  0  0  0  0  0  0  0  0  0  0
    0.6970    2.8650   -1.7700 O   0  0  0  0  0  0  0  0  0  0  0  0
    1.6010    2.8220    5.3450 H   0  0  0  0  0  0  0  0  0  0  0  0
    2.0610    4.1840    4.2860 H   0  0  0  0  0  0  0  0  0  0  0  0
    1.9080    2.5240    3.6270 H   0  0  0  0  0  0  0  0  0  0  0  0
   -0.0460    4.4770    1.8190 H   0  0  0  0  0  0  0  0  0  0  0  0
   -1.7250    4.0300    2.1850 H   0  0  0  0  0  0  0  0  0  0  0  0
    0.4540    1.8940    1.6980 H   0  0  0  0  0  0  0  0  0  0  0  0
   -1.2990    1.6730    2.0770 H   0  0  0  0  0  0  0  0  0  0  0  0
   -1.9630    2.5620    0.0130 H   0  0  0  0  0  0  0  0  0  0  0  0
    0.2680    0.5720   -0.3260 H   0  0  0  0  0  0  0  0  0  0  0  0
  1 11  1  0  0  0  0
  1  9  1  0  0  0  0
  2  1  1  0  0  0  0
  3  2  1  0  0  0  0
  4  3  1  0  0  0  0
  4  5  1  0  0  0  0
  5 16  1  6  0  0  0
  5  7  1  0  0  0  0
  5  6  1  0  0  0  0
  6 17  1  0  0  0  0
  6 18  1  0  0  0  0
  7  8  2  0  0  0  0
 10  1  1  0  0  0  0
 12  3  1  0  0  0  0
 13  3  1  0  0  0  0
 14  4  1  0  0  0  0
 15  4  1  0  0  0  0
 19  7  1  0  0  0  0
 20 19  1  0  0  0  0
 20 21  1  0  0  0  0
 20 24  1  0  0  0  0
 21 22  2  0  0  0  0
 21 31  1  0  0  0  0
 23 19  1  0  0  0  0
 25 20  1  0  0  0  0
 26 35  1  0  0  0  0
 27 26  1  0  0  0  0
 28 27  1  0  0  0  0
 29 40  1  0  0  0  0
 29 41  1  0  0  0  0
 29 28  1  0  0  0  0
 30 42  1  6  0  0  0
 30 29  1  0  0  0  0
 31 43  1  0  0  0  0
 31 30  1  0  0  0  0
 32 33  1  0  0  0  0
 32 30  1  0  0  0  0
 34 32  2  0  0  0  0
 36 26  1  0  0  0  0
 37 26  1  0  0  0  0
 38 28  1  0  0  0  0
 39 28  1  0  0  0  0
M  END
$$$$
