MGP.pdb
 OpenBabel07022418543D

 40 40  0  0  1  0  0  0  0  0999 V2000
   -2.7270   -2.0410    2.2730 C   0  0  0  0  0  0  0  0  0  0  0  0
   -1.3820   -2.1210    1.0650 S   0  0  0  0  0  0  0  0  0  0  0  0
   -0.6340   -3.7170    0.9560 C   0  0  0  0  0  0  0  0  0  0  0  0
    0.4500   -3.9340   -0.0020 C   0  0  0  0  0  0  0  0  0  0  0  0
    1.7030   -3.1930    0.0670 C   0  0  2  0  0  0  0  0  0  0  0  0
    2.4880   -3.3170    1.2770 N   0  0  0  0  0  0  0  0  0  0  0  0
    1.7270   -1.8080   -0.4460 C   0  0  0  0  0  0  0  0  0  0  0  0
    2.6830   -1.0120   -0.0950 O   0  0  0  0  0  0  0  0  0  0  0  0
   -2.2600   -1.8770    3.2730 H   0  0  0  0  0  0  0  0  0  0  0  0
   -3.2990   -2.9820    2.3410 H   0  0  0  0  0  0  0  0  0  0  0  0
   -3.4110   -1.1960    2.0980 H   0  0  0  0  0  0  0  0  0  0  0  0
   -1.4550   -4.4590    0.7120 H   0  0  0  0  0  0  0  0  0  0  0  0
   -0.3410   -4.0330    2.0040 H   0  0  0  0  0  0  0  0  0  0  0  0
    0.0520   -3.8190   -1.0620 H   0  0  0  0  0  0  0  0  0  0  0  0
    0.6490   -5.0640    0.0140 H   0  0  0  0  0  0  0  0  0  0  0  0
    2.4070   -3.7440   -0.6980 H   0  0  0  0  0  0  0  0  0  0  0  0
    3.2380   -2.6160    1.3070 H   0  0  0  0  0  0  0  0  0  0  0  0
    1.8520   -3.2790    2.1160 H   0  0  0  0  0  0  0  0  0  0  0  0
    0.7760   -1.2290   -1.3240 N   0  0  0  0  0  0  0  0  0  0  0  0
    0.7580    0.0580   -1.8670 C   0  0  0  0  0  0  0  0  0  0  0  0
    0.6940    1.2790   -1.1190 C   0  0  0  0  0  0  0  0  0  0  0  0
    0.7500    2.3220   -1.9560 O   0  0  0  0  0  0  0  0  0  0  0  0
   -0.0250   -1.8830   -1.5920 H   0  0  0  0  0  0  0  0  0  0  0  0
   -0.0230    0.1360   -2.7160 H   0  0  0  0  0  0  0  0  0  0  0  0
    1.7180    0.1340   -2.5090 H   0  0  0  0  0  0  0  0  0  0  0  0
    0.5950    1.6610    0.1970 N   0  0  0  0  0  0  0  0  0  0  0  0
    0.6390    3.1150    0.6100 C   0  0  0  0  0  0  0  0  0  0  0  0
    1.6510    3.0440    1.7130 C   0  0  0  0  0  0  0  0  0  0  0  0
    1.3640    1.7700    2.4110 C   0  0  0  0  0  0  0  0  0  0  0  0
    0.4170    1.0230    1.4820 C   0  0  1  0  0  0  0  0  0  0  0  0
   -0.9900    1.1720    1.9630 C   0  0  0  0  0  0  0  0  0  0  0  0
   -1.8640    1.7070    1.2530 O   0  0  0  0  0  0  0  0  0  0  0  0
   -1.3260    0.7080    3.2200 O   0  0  0  0  0  0  0  0  0  0  0  0
   -0.3250    3.4210    1.0260 H   0  0  0  0  0  0  0  0  0  0  0  0
    1.0260    3.7210   -0.2050 H   0  0  0  0  0  0  0  0  0  0  0  0
    1.5660    3.9040    2.4140 H   0  0  0  0  0  0  0  0  0  0  0  0
    2.6990    3.0420    1.3120 H   0  0  0  0  0  0  0  0  0  0  0  0
    2.3020    1.1980    2.5390 H   0  0  0  0  0  0  0  0  0  0  0  0
    0.9280    1.8860    3.4250 H   0  0  0  0  0  0  0  0  0  0  0  0
    0.7220    0.0010    1.4490 H   0  0  0  0  0  0  0  0  0  0  0  0
  1 10  1  0  0  0  0
  1  9  1  0  0  0  0
  2  1  1  0  0  0  0
  3  2  1  0  0  0  0
  3 13  1  0  0  0  0
  4 15  1  0  0  0  0
  4  5  1  0  0  0  0
  4  3  1  0  0  0  0
  5 16  1  6  0  0  0
  5  6  1  0  0  0  0
  6 17  1  0  0  0  0
  6 18  1  0  0  0  0
  7  8  2  0  0  0  0
  7  5  1  0  0  0  0
 11  1  1  0  0  0  0
 12  3  1  0  0  0  0
 14  4  1  0  0  0  0
 19  7  1  0  0  0  0
 20 19  1  0  0  0  0
 20 21  1  0  0  0  0
 21 26  1  0  0  0  0
 22 21  2  0  0  0  0
 23 19  1  0  0  0  0
 24 20  1  0  0  0  0
 25 20  1  0  0  0  0
 26 27  1  0  0  0  0
 26 30  1  0  0  0  0
 27 34  1  0  0  0  0
 27 28  1  0  0  0  0
 28 29  1  0  0  0  0
 28 36  1  0  0  0  0
 29 38  1  0  0  0  0
 29 39  1  0  0  0  0
 30 40  1  6  0  0  0
 30 31  1  0  0  0  0
 30 29  1  0  0  0  0
 31 33  1  0  0  0  0
 32 31  2  0  0  0  0
 35 27  1  0  0  0  0
 37 28  1  0  0  0  0
M  END
$$$$
