MGR.pdb
 OpenBabel07022418543D

 49 48  0  0  1  0  0  0  0  0999 V2000
   -1.5870   -3.2320    3.6040 C   0  0  0  0  0  0  0  0  0  0  0  0
   -0.2330   -4.4130    3.7080 S   0  0  0  0  0  0  0  0  0  0  0  0
    1.3900   -3.5920    3.5670 C   0  0  0  0  0  0  0  0  0  0  0  0
    1.4710   -3.0380    2.1650 C   0  0  0  0  0  0  0  0  0  0  0  0
    2.7970   -2.3200    1.9220 C   0  0  2  0  0  0  0  0  0  0  0  0
    2.8520   -1.2420    2.8930 N   0  0  0  0  0  0  0  0  0  0  0  0
    2.6730   -1.7350    0.5380 C   0  0  0  0  0  0  0  0  0  0  0  0
    2.6130   -2.5210   -0.4320 O   0  0  0  0  0  0  0  0  0  0  0  0
   -1.8750   -2.8330    4.5810 H   0  0  0  0  0  0  0  0  0  0  0  0
   -2.4790   -3.7780    3.2050 H   0  0  0  0  0  0  0  0  0  0  0  0
   -1.3940   -2.4150    2.8750 H   0  0  0  0  0  0  0  0  0  0  0  0
    2.1640   -4.3330    3.7720 H   0  0  0  0  0  0  0  0  0  0  0  0
    1.4060   -2.7220    4.2560 H   0  0  0  0  0  0  0  0  0  0  0  0
    1.3850   -3.9050    1.4550 H   0  0  0  0  0  0  0  0  0  0  0  0
    0.6410   -2.3490    2.0080 H   0  0  0  0  0  0  0  0  0  0  0  0
    3.6490   -2.9950    1.9980 H   0  0  0  0  0  0  0  0  0  0  0  0
    1.9580   -0.7110    2.8130 H   0  0  0  0  0  0  0  0  0  0  0  0
    3.6620   -0.6110    2.7410 H   0  0  0  0  0  0  0  0  0  0  0  0
    2.6250   -0.3400    0.3240 N   0  0  0  0  0  0  0  0  0  0  0  0
    2.4960    0.2720   -0.9770 C   0  0  0  0  0  0  0  0  0  0  0  0
    1.2170   -0.0810   -1.6210 C   0  0  0  0  0  0  0  0  0  0  0  0
    0.9890    0.3530   -2.8000 O   0  0  0  0  0  0  0  0  0  0  0  0
    2.6880    0.2610    1.1760 H   0  0  0  0  0  0  0  0  0  0  0  0
    2.5090    1.3920   -0.9030 H   0  0  0  0  0  0  0  0  0  0  0  0
    3.3690    0.0040   -1.6120 H   0  0  0  0  0  0  0  0  0  0  0  0
   -1.6650    3.4300    3.0940 N   0  0  0  0  0  0  0  0  0  0  0  0
   -1.2330    3.0110    1.8170 C   0  0  0  0  0  0  0  0  0  0  0  0
   -0.0250    3.3110    1.4260 N   0  0  0  0  0  0  0  0  0  0  0  0
   -2.0350    2.2750    0.9140 N   0  0  0  0  0  0  0  0  0  0  0  0
   -1.4260    1.4730   -0.1520 C   0  0  0  0  0  0  0  0  0  0  0  0
   -2.4550    0.7850   -0.9740 C   0  0  0  0  0  0  0  0  0  0  0  0
   -1.9180   -0.0420   -2.0950 C   0  0  0  0  0  0  0  0  0  0  0  0
   -1.0350   -1.1730   -1.7530 C   0  0  2  0  0  0  0  0  0  0  0  0
    0.1830   -0.8670   -1.0570 N   0  0  0  0  0  0  0  0  0  0  0  0
   -0.7090   -1.8800   -3.0550 C   0  0  0  0  0  0  0  0  0  0  0  0
   -1.6760   -2.2060   -3.7830 O   0  0  0  0  0  0  0  0  0  0  0  0
    0.5710   -2.1580   -3.4370 O   0  0  0  0  0  0  0  0  0  0  0  0
   -1.2350    3.0350    3.9440 H   0  0  0  0  0  0  0  0  0  0  0  0
   -2.4150    4.1350    3.1860 H   0  0  0  0  0  0  0  0  0  0  0  0
    0.6430    3.8470    2.0110 H   0  0  0  0  0  0  0  0  0  0  0  0
   -3.0650    2.3130    1.0190 H   0  0  0  0  0  0  0  0  0  0  0  0
   -0.7500    0.7770    0.3600 H   0  0  0  0  0  0  0  0  0  0  0  0
   -0.8490    2.1710   -0.8150 H   0  0  0  0  0  0  0  0  0  0  0  0
   -3.2450    1.5010   -1.3230 H   0  0  0  0  0  0  0  0  0  0  0  0
   -3.0400    0.0670   -0.3190 H   0  0  0  0  0  0  0  0  0  0  0  0
   -2.7910   -0.4190   -2.7170 H   0  0  0  0  0  0  0  0  0  0  0  0
   -1.3980    0.6770   -2.7920 H   0  0  0  0  0  0  0  0  0  0  0  0
   -1.6010   -1.9450   -1.1880 H   0  0  0  0  0  0  0  0  0  0  0  0
    0.3260   -1.2320   -0.0920 H   0  0  0  0  0  0  0  0  0  0  0  0
  1  2  1  0  0  0  0
  1  9  1  0  0  0  0
  3  2  1  0  0  0  0
  3 12  1  0  0  0  0
  3 13  1  0  0  0  0
  4  3  1  0  0  0  0
  5 16  1  1  0  0  0
  5  4  1  0  0  0  0
  5  6  1  0  0  0  0
  7  5  1  0  0  0  0
  8  7  2  0  0  0  0
 10  1  1  0  0  0  0
 11  1  1  0  0  0  0
 14  4  1  0  0  0  0
 15  4  1  0  0  0  0
 17  6  1  0  0  0  0
 18  6  1  0  0  0  0
 19  7  1  0  0  0  0
 19 23  1  0  0  0  0
 20 24  1  0  0  0  0
 20 19  1  0  0  0  0
 21 34  1  0  0  0  0
 21 20  1  0  0  0  0
 22 21  2  0  0  0  0
 25 20  1  0  0  0  0
 26 39  1  0  0  0  0
 26 38  1  0  0  0  0
 27 26  1  0  0  0  0
 28 27  2  0  0  0  0
 28 40  1  0  0  0  0
 29 41  1  0  0  0  0
 29 27  1  0  0  0  0
 30 42  1  0  0  0  0
 30 29  1  0  0  0  0
 31 45  1  0  0  0  0
 31 30  1  0  0  0  0
 32 33  1  0  0  0  0
 32 31  1  0  0  0  0
 33 48  1  1  0  0  0
 33 34  1  0  0  0  0
 34 49  1  0  0  0  0
 35 33  1  0  0  0  0
 36 35  2  0  0  0  0
 37 35  1  0  0  0  0
 43 30  1  0  0  0  0
 44 31  1  0  0  0  0
 46 32  1  0  0  0  0
 47 32  1  0  0  0  0
M  END
$$$$
