MGY.pdb
 OpenBabel07022418543D

 47 47  0  0  1  0  0  0  0  0999 V2000
   -0.2250   -5.6520    1.5120 C   0  0  0  0  0  0  0  0  0  0  0  0
    0.7460   -6.1080    0.0770 S   0  0  0  0  0  0  0  0  0  0  0  0
    1.4670   -4.6710   -0.7780 C   0  0  0  0  0  0  0  0  0  0  0  0
    2.4680   -4.0530    0.1430 C   0  0  0  0  0  0  0  0  0  0  0  0
    3.1800   -2.8580   -0.3840 C   0  0  2  0  0  0  0  0  0  0  0  0
    4.1010   -2.4130    0.6590 N   0  0  0  0  0  0  0  0  0  0  0  0
    2.3320   -1.7290   -0.7760 C   0  0  0  0  0  0  0  0  0  0  0  0
    1.4760   -1.8820   -1.6730 O   0  0  0  0  0  0  0  0  0  0  0  0
   -1.2140   -6.1880    1.4250 H   0  0  0  0  0  0  0  0  0  0  0  0
    0.2090   -6.0600    2.4720 H   0  0  0  0  0  0  0  0  0  0  0  0
   -0.4730   -4.5880    1.5850 H   0  0  0  0  0  0  0  0  0  0  0  0
    1.9770   -5.0620   -1.6810 H   0  0  0  0  0  0  0  0  0  0  0  0
    0.6610   -3.9720   -1.1000 H   0  0  0  0  0  0  0  0  0  0  0  0
    3.2460   -4.8430    0.3360 H   0  0  0  0  0  0  0  0  0  0  0  0
    2.0420   -3.8120    1.1390 H   0  0  0  0  0  0  0  0  0  0  0  0
    3.8460   -3.1480   -1.2500 H   0  0  0  0  0  0  0  0  0  0  0  0
    4.3800   -3.2310    1.2200 H   0  0  0  0  0  0  0  0  0  0  0  0
    4.9660   -1.9970    0.2410 H   0  0  0  0  0  0  0  0  0  0  0  0
    2.4620   -0.4590   -0.1550 N   0  0  0  0  0  0  0  0  0  0  0  0
    1.6420    0.6800   -0.5160 C   0  0  0  0  0  0  0  0  0  0  0  0
    0.2000    0.4260   -0.3060 C   0  0  0  0  0  0  0  0  0  0  0  0
   -0.1700   -0.6580    0.1310 O   0  0  0  0  0  0  0  0  0  0  0  0
    3.2040   -0.3870    0.6010 H   0  0  0  0  0  0  0  0  0  0  0  0
    2.0010    1.5670    0.0490 H   0  0  0  0  0  0  0  0  0  0  0  0
    1.8510    0.8880   -1.6030 H   0  0  0  0  0  0  0  0  0  0  0  0
   -0.8690    1.9540    5.7700 O   0  0  0  0  0  0  0  0  0  0  0  0
   -1.3230    2.0590    4.4600 C   0  0  0  0  0  0  0  0  0  0  0  0
   -0.6910    2.9010    3.5560 C   0  0  0  0  0  0  0  0  0  0  0  0
   -1.1810    2.9670    2.2670 C   0  0  0  0  0  0  0  0  0  0  0  0
   -2.2680    2.2310    1.8540 C   0  0  0  0  0  0  0  0  0  0  0  0
   -2.7810    2.3160    0.4640 C   0  0  0  0  0  0  0  0  0  0  0  0
   -2.1500    1.3290   -0.4570 C   0  0  2  0  0  0  0  0  0  0  0  0
   -0.7340    1.4300   -0.6080 N   0  0  0  0  0  0  0  0  0  0  0  0
   -2.8150    1.4280   -1.7790 C   0  0  0  0  0  0  0  0  0  0  0  0
   -4.0830    1.3520   -1.7680 O   0  0  0  0  0  0  0  0  0  0  0  0
   -2.8820    1.4000    2.7660 C   0  0  0  0  0  0  0  0  0  0  0  0
   -2.4110    1.3110    4.0770 C   0  0  0  0  0  0  0  0  0  0  0  0
   -2.0970    1.5950   -2.9540 O   0  0  0  0  0  0  0  0  0  0  0  0
   -0.1290    2.5870    6.1040 H   0  0  0  0  0  0  0  0  0  0  0  0
    0.1650    3.4830    3.8730 H   0  0  0  0  0  0  0  0  0  0  0  0
   -0.7250    3.6090    1.5210 H   0  0  0  0  0  0  0  0  0  0  0  0
   -2.7700    3.3600    0.0870 H   0  0  0  0  0  0  0  0  0  0  0  0
   -3.8600    2.0480    0.5180 H   0  0  0  0  0  0  0  0  0  0  0  0
   -2.3830    0.3180   -0.0630 H   0  0  0  0  0  0  0  0  0  0  0  0
   -0.3600    2.3320   -0.9770 H   0  0  0  0  0  0  0  0  0  0  0  0
   -3.7440    0.8150    2.4440 H   0  0  0  0  0  0  0  0  0  0  0  0
   -2.8910    0.6640    4.7880 H   0  0  0  0  0  0  0  0  0  0  0  0
  1 11  1  0  0  0  0
  1 10  1  0  0  0  0
  2  1  1  0  0  0  0
  3  2  1  0  0  0  0
  3  4  1  0  0  0  0
  4 14  1  0  0  0  0
  4 15  1  0  0  0  0
  5 16  1  6  0  0  0
  5  4  1  0  0  0  0
  5  6  1  0  0  0  0
  6 17  1  0  0  0  0
  7  5  1  0  0  0  0
  7 19  1  0  0  0  0
  8  7  2  0  0  0  0
  9  1  1  0  0  0  0
 12  3  1  0  0  0  0
 13  3  1  0  0  0  0
 18  6  1  0  0  0  0
 19 23  1  0  0  0  0
 20 21  1  0  0  0  0
 20 19  1  0  0  0  0
 20 24  1  0  0  0  0
 21 22  2  0  0  0  0
 25 20  1  0  0  0  0
 26 39  1  0  0  0  0
 27 26  1  0  0  0  0
 28 40  1  0  0  0  0
 28 27  2  0  0  0  0
 29 28  1  0  0  0  0
 30 29  2  0  0  0  0
 30 36  1  0  0  0  0
 31 43  1  0  0  0  0
 31 30  1  0  0  0  0
 32 44  1  1  0  0  0
 32 31  1  0  0  0  0
 33 32  1  0  0  0  0
 33 21  1  0  0  0  0
 34 35  1  0  0  0  0
 34 32  1  0  0  0  0
 36 37  2  0  0  0  0
 37 27  1  0  0  0  0
 37 47  1  0  0  0  0
 38 34  2  0  0  0  0
 41 29  1  0  0  0  0
 42 31  1  0  0  0  0
 45 33  1  0  0  0  0
 46 36  1  0  0  0  0
M  END
$$$$
