MHA.pdb
 OpenBabel07022418553D

 46 46  0  0  1  0  0  0  0  0999 V2000
    0.5720   -5.0810    0.9420 C   0  0  0  0  0  0  0  0  0  0  0  0
    2.2760   -4.9760    0.4020 S   0  0  0  0  0  0  0  0  0  0  0  0
    2.9770   -3.3200    0.3830 C   0  0  0  0  0  0  0  0  0  0  0  0
    2.3890   -2.3930   -0.6200 C   0  0  0  0  0  0  0  0  0  0  0  0
    0.9550   -2.0610   -0.4490 C   0  0  2  0  0  0  0  0  0  0  0  0
    0.5370   -1.1740   -1.5420 N   0  0  0  0  0  0  0  0  0  0  0  0
    0.7510   -1.3090    0.8380 C   0  0  0  0  0  0  0  0  0  0  0  0
    1.0690   -1.7310    1.9680 O   0  0  0  0  0  0  0  0  0  0  0  0
    0.4190   -5.9800    1.6060 H   0  0  0  0  0  0  0  0  0  0  0  0
   -0.1260   -5.2110    0.0610 H   0  0  0  0  0  0  0  0  0  0  0  0
    0.1910   -4.2060    1.4960 H   0  0  0  0  0  0  0  0  0  0  0  0
    4.0900   -3.3610    0.1570 H   0  0  0  0  0  0  0  0  0  0  0  0
    2.9370   -2.9540    1.4330 H   0  0  0  0  0  0  0  0  0  0  0  0
    3.0350   -1.4960   -0.7980 H   0  0  0  0  0  0  0  0  0  0  0  0
    2.4580   -2.9420   -1.6130 H   0  0  0  0  0  0  0  0  0  0  0  0
    0.3490   -2.9680   -0.5290 H   0  0  0  0  0  0  0  0  0  0  0  0
   -0.5140   -1.1550   -1.5160 H   0  0  0  0  0  0  0  0  0  0  0  0
    0.8010   -1.6370   -2.4400 H   0  0  0  0  0  0  0  0  0  0  0  0
    0.1490   -0.0030    0.8120 N   0  0  0  0  0  0  0  0  0  0  0  0
   -0.0420    0.7110    2.0550 C   0  0  1  0  0  0  0  0  0  0  0  0
    0.6760    2.0510    2.0450 C   0  0  0  0  0  0  0  0  0  0  0  0
    2.1370    1.9200    1.8540 C   0  0  0  0  0  0  0  0  0  0  0  0
    2.8380    1.9100    0.6740 C   0  0  0  0  0  0  0  0  0  0  0  0
    4.1620    1.7730    0.9230 N   0  0  0  0  0  0  0  0  0  0  0  0
    4.2840    1.6970    2.2570 C   0  0  0  0  0  0  0  0  0  0  0  0
    3.0530    1.7870    2.8250 N   0  0  0  0  0  0  0  0  0  0  0  0
   -1.4740    1.0080    2.1950 C   0  0  0  0  0  0  0  0  0  0  0  0
   -1.8900    1.6250    3.1950 O   0  0  0  0  0  0  0  0  0  0  0  0
   -0.1470    0.4340   -0.0830 H   0  0  0  0  0  0  0  0  0  0  0  0
    0.3550    0.1380    2.9230 H   0  0  0  0  0  0  0  0  0  0  0  0
    0.4370    2.5490    3.0260 H   0  0  0  0  0  0  0  0  0  0  0  0
    0.2640    2.7270    1.2670 H   0  0  0  0  0  0  0  0  0  0  0  0
    2.4140    1.9980   -0.3140 H   0  0  0  0  0  0  0  0  0  0  0  0
    4.9060    1.7350    0.2200 H   0  0  0  0  0  0  0  0  0  0  0  0
    5.2460    1.5810    2.7740 H   0  0  0  0  0  0  0  0  0  0  0  0
   -4.1290    1.8420    0.1730 C   0  0  0  0  0  0  0  0  0  0  0  0
   -3.8110    0.8590    1.2800 C   0  0  2  0  0  0  0  0  0  0  0  0
   -2.3820    0.5990    1.2050 N   0  0  0  0  0  0  0  0  0  0  0  0
   -4.6140   -0.3580    1.2150 C   0  0  0  0  0  0  0  0  0  0  0  0
   -5.8660   -0.2960    1.2680 O   0  0  0  0  0  0  0  0  0  0  0  0
   -3.9760   -1.5830    1.0930 O   0  0  0  0  0  0  0  0  0  0  0  0
   -4.6260    2.7530    0.5580 H   0  0  0  0  0  0  0  0  0  0  0  0
   -3.2210    2.1810   -0.3700 H   0  0  0  0  0  0  0  0  0  0  0  0
   -4.7820    1.3770   -0.6010 H   0  0  0  0  0  0  0  0  0  0  0  0
   -3.9900    1.3920    2.2350 H   0  0  0  0  0  0  0  0  0  0  0  0
   -2.0990    0.0680    0.3270 H   0  0  0  0  0  0  0  0  0  0  0  0
  1 11  1  0  0  0  0
  1  9  1  0  0  0  0
  2  1  1  0  0  0  0
  3  2  1  0  0  0  0
  3 13  1  0  0  0  0
  4  5  1  0  0  0  0
  4  3  1  0  0  0  0
  5 16  1  6  0  0  0
  5  7  1  0  0  0  0
  6 17  1  0  0  0  0
  6  5  1  0  0  0  0
  7  8  2  0  0  0  0
 10  1  1  0  0  0  0
 12  3  1  0  0  0  0
 14  4  1  0  0  0  0
 15  4  1  0  0  0  0
 18  6  1  0  0  0  0
 19  7  1  0  0  0  0
 19 20  1  0  0  0  0
 20 27  1  0  0  0  0
 20 30  1  1  0  0  0
 21 20  1  0  0  0  0
 21 31  1  0  0  0  0
 22 21  1  0  0  0  0
 22 26  1  0  0  0  0
 23 24  1  0  0  0  0
 23 22  2  0  0  0  0
 24 25  1  0  0  0  0
 25 35  1  0  0  0  0
 25 26  2  0  0  0  0
 27 28  2  0  0  0  0
 29 19  1  0  0  0  0
 32 21  1  0  0  0  0
 33 23  1  0  0  0  0
 34 24  1  0  0  0  0
 36 42  1  0  0  0  0
 36 37  1  0  0  0  0
 37 45  1  1  0  0  0
 38 37  1  0  0  0  0
 38 27  1  0  0  0  0
 39 40  1  0  0  0  0
 39 37  1  0  0  0  0
 41 39  2  0  0  0  0
 43 36  1  0  0  0  0
 44 36  1  0  0  0  0
 46 38  1  0  0  0  0
M  END
$$$$
