MHC.pdb
 OpenBabel07022418553D

 47 47  0  0  1  0  0  0  0  0999 V2000
    2.9090   -3.3760   -2.8200 C   0  0  0  0  0  0  0  0  0  0  0  0
    3.4020   -1.6910   -2.8320 S   0  0  0  0  0  0  0  0  0  0  0  0
    2.8270   -0.5810   -1.6090 C   0  0  0  0  0  0  0  0  0  0  0  0
    3.3930   -0.6390   -0.2640 C   0  0  0  0  0  0  0  0  0  0  0  0
    3.2400   -1.8930    0.5070 C   0  0  2  0  0  0  0  0  0  0  0  0
    3.8890   -2.9860   -0.1600 N   0  0  0  0  0  0  0  0  0  0  0  0
    1.7730   -2.1600    0.7430 C   0  0  0  0  0  0  0  0  0  0  0  0
    1.2120   -3.2310    0.4490 O   0  0  0  0  0  0  0  0  0  0  0  0
    2.5370   -3.7360   -3.8390 H   0  0  0  0  0  0  0  0  0  0  0  0
    3.7480   -4.0710   -2.5940 H   0  0  0  0  0  0  0  0  0  0  0  0
    2.1010   -3.5600   -2.0870 H   0  0  0  0  0  0  0  0  0  0  0  0
    1.6750   -0.6520   -1.4700 H   0  0  0  0  0  0  0  0  0  0  0  0
    2.8810    0.5180   -1.9630 H   0  0  0  0  0  0  0  0  0  0  0  0
    4.5210   -0.4330   -0.3150 H   0  0  0  0  0  0  0  0  0  0  0  0
    3.0620    0.2560    0.3770 H   0  0  0  0  0  0  0  0  0  0  0  0
    3.6540   -1.7940    1.5550 H   0  0  0  0  0  0  0  0  0  0  0  0
    4.7350   -2.7180   -0.6730 H   0  0  0  0  0  0  0  0  0  0  0  0
    4.0560   -3.7790    0.4970 H   0  0  0  0  0  0  0  0  0  0  0  0
    0.9820   -1.1390    1.3320 N   0  0  0  0  0  0  0  0  0  0  0  0
   -0.4410   -1.3190    1.5910 C   0  0  1  0  0  0  0  0  0  0  0  0
   -0.7190   -1.2750    3.0710 C   0  0  0  0  0  0  0  0  0  0  0  0
   -0.2940    0.0280    3.6700 C   0  0  0  0  0  0  0  0  0  0  0  0
   -1.0030    1.1960    3.8310 C   0  0  0  0  0  0  0  0  0  0  0  0
   -0.2400    2.1400    4.4210 N   0  0  0  0  0  0  0  0  0  0  0  0
    0.9460    1.5530    4.6250 C   0  0  0  0  0  0  0  0  0  0  0  0
    0.9410    0.2930    4.1860 N   0  0  0  0  0  0  0  0  0  0  0  0
   -1.1740   -0.2590    0.8650 C   0  0  0  0  0  0  0  0  0  0  0  0
   -0.5990    0.6390    0.2050 O   0  0  0  0  0  0  0  0  0  0  0  0
    1.4360   -0.2270    1.5880 H   0  0  0  0  0  0  0  0  0  0  0  0
   -0.7210   -2.3470    1.2410 H   0  0  0  0  0  0  0  0  0  0  0  0
   -1.7990   -1.4240    3.2330 H   0  0  0  0  0  0  0  0  0  0  0  0
   -0.1510   -2.0560    3.5940 H   0  0  0  0  0  0  0  0  0  0  0  0
   -2.0160    1.3150    3.5240 H   0  0  0  0  0  0  0  0  0  0  0  0
   -0.5200    3.1290    4.6680 H   0  0  0  0  0  0  0  0  0  0  0  0
    1.7850    2.0830    5.0980 H   0  0  0  0  0  0  0  0  0  0  0  0
   -2.5940   -0.2480    0.9060 N   0  0  0  0  0  0  0  0  0  0  0  0
   -3.4140    0.7160    0.2470 C   0  0  1  0  0  0  0  0  0  0  0  0
   -4.1730    0.1470   -0.9300 C   0  0  0  0  0  0  0  0  0  0  0  0
   -3.0510   -0.5170   -2.1900 S   0  0  0  0  0  0  0  0  0  0  0  0
   -4.3720    1.4230    1.0970 C   0  0  0  0  0  0  0  0  0  0  0  0
   -4.4590    1.1710    2.3210 O   0  0  0  0  0  0  0  0  0  0  0  0
   -5.2080    2.3920    0.5640 O   0  0  0  0  0  0  0  0  0  0  0  0
   -3.0800   -0.9950    1.4570 H   0  0  0  0  0  0  0  0  0  0  0  0
   -2.7270    1.4860   -0.2140 H   0  0  0  0  0  0  0  0  0  0  0  0
   -4.7160    0.9940   -1.3990 H   0  0  0  0  0  0  0  0  0  0  0  0
   -4.9320   -0.6030   -0.6490 H   0  0  0  0  0  0  0  0  0  0  0  0
   -2.4000    0.5160   -2.8910 H   0  0  0  0  0  0  0  0  0  0  0  0
  1 10  1  0  0  0  0
  1 11  1  0  0  0  0
  2  1  1  0  0  0  0
  2  3  1  0  0  0  0
  3 12  1  0  0  0  0
  3  4  1  0  0  0  0
  4 15  1  0  0  0  0
  4  5  1  0  0  0  0
  5  7  1  0  0  0  0
  5 16  1  1  0  0  0
  6 18  1  0  0  0  0
  6  5  1  0  0  0  0
  7 19  1  0  0  0  0
  8  7  2  0  0  0  0
  9  1  1  0  0  0  0
 13  3  1  0  0  0  0
 14  4  1  0  0  0  0
 17  6  1  0  0  0  0
 19 29  1  0  0  0  0
 19 20  1  0  0  0  0
 20 30  1  6  0  0  0
 20 21  1  0  0  0  0
 21 31  1  0  0  0  0
 21 32  1  0  0  0  0
 21 22  1  0  0  0  0
 22 23  2  0  0  0  0
 22 26  1  0  0  0  0
 23 24  1  0  0  0  0
 24 25  1  0  0  0  0
 24 34  1  0  0  0  0
 25 35  1  0  0  0  0
 26 25  2  0  0  0  0
 27 36  1  0  0  0  0
 27 20  1  0  0  0  0
 28 27  2  0  0  0  0
 33 23  1  0  0  0  0
 36 43  1  0  0  0  0
 37 44  1  6  0  0  0
 37 36  1  0  0  0  0
 37 40  1  0  0  0  0
 38 46  1  0  0  0  0
 38 37  1  0  0  0  0
 39 38  1  0  0  0  0
 40 41  1  0  0  0  0
 42 40  2  0  0  0  0
 45 38  1  0  0  0  0
 47 39  1  0  0  0  0
M  END
$$$$
