MHE.pdb
 OpenBabel07022418553D

 52 52  0  0  1  0  0  0  0  0999 V2000
   -0.8040   -3.6830    4.1850 C   0  0  0  0  0  0  0  0  0  0  0  0
    0.3970   -4.4550    3.0340 S   0  0  0  0  0  0  0  0  0  0  0  0
    1.2660   -3.0450    2.2320 C   0  0  0  0  0  0  0  0  0  0  0  0
    2.0420   -2.3770    3.3100 C   0  0  0  0  0  0  0  0  0  0  0  0
    2.8550   -1.1800    2.8680 C   0  0  2  0  0  0  0  0  0  0  0  0
    3.5060   -0.7250    4.1210 N   0  0  0  0  0  0  0  0  0  0  0  0
    2.0260   -0.0480    2.3900 C   0  0  0  0  0  0  0  0  0  0  0  0
    1.8150    0.9670    3.1410 O   0  0  0  0  0  0  0  0  0  0  0  0
   -0.3110   -3.3190    5.1000 H   0  0  0  0  0  0  0  0  0  0  0  0
   -1.6250   -4.3640    4.3990 H   0  0  0  0  0  0  0  0  0  0  0  0
   -1.2130   -2.7650    3.6780 H   0  0  0  0  0  0  0  0  0  0  0  0
    1.9090   -3.4030    1.4330 H   0  0  0  0  0  0  0  0  0  0  0  0
    0.4420   -2.4200    1.8300 H   0  0  0  0  0  0  0  0  0  0  0  0
    1.4250   -2.0420    4.1660 H   0  0  0  0  0  0  0  0  0  0  0  0
    2.7730   -3.1100    3.7160 H   0  0  0  0  0  0  0  0  0  0  0  0
    3.6750   -1.4430    2.1810 H   0  0  0  0  0  0  0  0  0  0  0  0
    2.6910   -0.4490    4.7430 H   0  0  0  0  0  0  0  0  0  0  0  0
    3.9350   -1.5640    4.6040 H   0  0  0  0  0  0  0  0  0  0  0  0
    1.4410   -0.0510    1.0790 N   0  0  0  0  0  0  0  0  0  0  0  0
    0.6460    1.1270    0.7170 C   0  0  1  0  0  0  0  0  0  0  0  0
    1.5020    1.9910   -0.2400 C   0  0  0  0  0  0  0  0  0  0  0  0
    0.7920    3.2110   -0.6710 C   0  0  0  0  0  0  0  0  0  0  0  0
   -0.0100    3.3610   -1.8000 C   0  0  0  0  0  0  0  0  0  0  0  0
   -0.4710    4.6210   -1.8610 N   0  0  0  0  0  0  0  0  0  0  0  0
    0.0250    5.2650   -0.7940 C   0  0  0  0  0  0  0  0  0  0  0  0
    0.7750    4.4270   -0.0890 N   0  0  0  0  0  0  0  0  0  0  0  0
   -0.6300    0.8020    0.0760 C   0  0  0  0  0  0  0  0  0  0  0  0
   -1.4460    1.7170   -0.1780 O   0  0  0  0  0  0  0  0  0  0  0  0
    1.5780   -0.8470    0.4250 H   0  0  0  0  0  0  0  0  0  0  0  0
    0.4700    1.7800    1.5920 H   0  0  0  0  0  0  0  0  0  0  0  0
    2.4480    2.1960    0.2810 H   0  0  0  0  0  0  0  0  0  0  0  0
    1.7740    1.3810   -1.1460 H   0  0  0  0  0  0  0  0  0  0  0  0
   -0.2170    2.5750   -2.5040 H   0  0  0  0  0  0  0  0  0  0  0  0
   -1.1030    5.0600   -2.5890 H   0  0  0  0  0  0  0  0  0  0  0  0
   -0.1600    6.2990   -0.5540 H   0  0  0  0  0  0  0  0  0  0  0  0
   -0.9970   -0.5150   -0.2800 N   0  0  0  0  0  0  0  0  0  0  0  0
   -2.2690   -0.8370   -0.9170 C   0  0  1  0  0  0  0  0  0  0  0  0
   -2.1440   -1.3620   -2.3010 C   0  0  0  0  0  0  0  0  0  0  0  0
   -1.3580   -2.6070   -2.4920 C   0  0  0  0  0  0  0  0  0  0  0  0
   -1.8930   -3.7720   -1.7650 C   0  0  0  0  0  0  0  0  0  0  0  0
   -1.4570   -4.0720   -0.6300 O   0  0  0  0  0  0  0  0  0  0  0  0
   -3.0910   -1.6880   -0.0410 C   0  0  0  0  0  0  0  0  0  0  0  0
   -4.1990   -2.1340   -0.4280 O   0  0  0  0  0  0  0  0  0  0  0  0
   -2.8890   -4.5300   -2.3640 O   0  0  0  0  0  0  0  0  0  0  0  0
   -2.6790   -2.0330    1.2560 O   0  0  0  0  0  0  0  0  0  0  0  0
   -0.3340   -1.3190   -0.0930 H   0  0  0  0  0  0  0  0  0  0  0  0
   -2.7980    0.1750   -1.0000 H   0  0  0  0  0  0  0  0  0  0  0  0
   -3.1980   -1.5530   -2.6620 H   0  0  0  0  0  0  0  0  0  0  0  0
   -1.7540   -0.5390   -2.9690 H   0  0  0  0  0  0  0  0  0  0  0  0
   -0.2930   -2.4860   -2.1290 H   0  0  0  0  0  0  0  0  0  0  0  0
   -1.2750   -2.8040   -3.5840 H   0  0  0  0  0  0  0  0  0  0  0  0
   -3.1790   -5.4370   -2.0080 H   0  0  0  0  0  0  0  0  0  0  0  0
  1 10  1  0  0  0  0
  1  9  1  0  0  0  0
  2  1  1  0  0  0  0
  3  2  1  0  0  0  0
  3  4  1  0  0  0  0
  4 15  1  0  0  0  0
  4 14  1  0  0  0  0
  5 16  1  6  0  0  0
  5  4  1  0  0  0  0
  5  6  1  0  0  0  0
  6 18  1  0  0  0  0
  6 17  1  0  0  0  0
  7  5  1  0  0  0  0
  7  8  2  0  0  0  0
 11  1  1  0  0  0  0
 12  3  1  0  0  0  0
 13  3  1  0  0  0  0
 19  7  1  0  0  0  0
 20 19  1  0  0  0  0
 20 30  1  1  0  0  0
 21 31  1  0  0  0  0
 21 20  1  0  0  0  0
 22 21  1  0  0  0  0
 22 26  1  0  0  0  0
 23 22  2  0  0  0  0
 24 23  1  0  0  0  0
 24 25  1  0  0  0  0
 25 35  1  0  0  0  0
 25 26  2  0  0  0  0
 27 20  1  0  0  0  0
 28 27  2  0  0  0  0
 29 19  1  0  0  0  0
 32 21  1  0  0  0  0
 33 23  1  0  0  0  0
 34 24  1  0  0  0  0
 36 46  1  0  0  0  0
 36 27  1  0  0  0  0
 37 47  1  6  0  0  0
 37 36  1  0  0  0  0
 37 42  1  0  0  0  0
 38 37  1  0  0  0  0
 39 38  1  0  0  0  0
 39 50  1  0  0  0  0
 39 40  1  0  0  0  0
 40 41  2  0  0  0  0
 42 45  1  0  0  0  0
 43 42  2  0  0  0  0
 44 52  1  0  0  0  0
 44 40  1  0  0  0  0
 48 38  1  0  0  0  0
 49 38  1  0  0  0  0
 51 39  1  0  0  0  0
M  END
$$$$
