MHF.pdb
 OpenBabel07022418553D

 56 57  0  0  1  0  0  0  0  0999 V2000
   -1.0910    1.3060    3.5800 C   0  0  0  0  0  0  0  0  0  0  0  0
   -1.6360    0.1040    4.7810 S   0  0  0  0  0  0  0  0  0  0  0  0
   -0.3280   -0.7190    5.6580 C   0  0  0  0  0  0  0  0  0  0  0  0
    0.5030   -1.6930    4.9280 C   0  0  0  0  0  0  0  0  0  0  0  0
    1.3370   -1.2550    3.7830 C   0  0  2  0  0  0  0  0  0  0  0  0
    2.3190   -0.2530    4.0360 N   0  0  0  0  0  0  0  0  0  0  0  0
    0.6080   -1.0690    2.5270 C   0  0  0  0  0  0  0  0  0  0  0  0
   -0.5240   -1.6170    2.3640 O   0  0  0  0  0  0  0  0  0  0  0  0
   -1.6000    2.2900    3.7640 H   0  0  0  0  0  0  0  0  0  0  0  0
   -0.0240    1.5020    3.6330 H   0  0  0  0  0  0  0  0  0  0  0  0
   -1.3880    0.9760    2.5470 H   0  0  0  0  0  0  0  0  0  0  0  0
    0.3410    0.0180    6.1940 H   0  0  0  0  0  0  0  0  0  0  0  0
   -0.8100   -1.2990    6.5110 H   0  0  0  0  0  0  0  0  0  0  0  0
    1.0860   -2.3450    5.6490 H   0  0  0  0  0  0  0  0  0  0  0  0
   -0.2260   -2.4610    4.4820 H   0  0  0  0  0  0  0  0  0  0  0  0
    2.0170   -2.2180    3.6060 H   0  0  0  0  0  0  0  0  0  0  0  0
    2.5780   -0.1260    5.0450 H   0  0  0  0  0  0  0  0  0  0  0  0
    2.1720    0.6720    3.5960 H   0  0  0  0  0  0  0  0  0  0  0  0
    1.2090   -0.2760    1.5190 N   0  0  0  0  0  0  0  0  0  0  0  0
    0.5250   -0.0700    0.2680 C   0  0  1  0  0  0  0  0  0  0  0  0
    0.7990    1.2570   -0.3690 C   0  0  0  0  0  0  0  0  0  0  0  0
    0.3740    2.3550    0.5230 C   0  0  0  0  0  0  0  0  0  0  0  0
   -0.8830    2.9650    0.5330 C   0  0  0  0  0  0  0  0  0  0  0  0
   -0.8290    3.9080    1.4740 N   0  0  0  0  0  0  0  0  0  0  0  0
    0.3710    3.9390    2.0620 C   0  0  0  0  0  0  0  0  0  0  0  0
    1.0900    2.9720    1.4560 N   0  0  0  0  0  0  0  0  0  0  0  0
    0.9700   -1.1660   -0.6780 C   0  0  0  0  0  0  0  0  0  0  0  0
    1.7350   -2.0270   -0.2690 O   0  0  0  0  0  0  0  0  0  0  0  0
    2.1440    0.1640    1.6600 H   0  0  0  0  0  0  0  0  0  0  0  0
   -0.5840   -0.2160    0.4390 H   0  0  0  0  0  0  0  0  0  0  0  0
    0.2570    1.2980   -1.3320 H   0  0  0  0  0  0  0  0  0  0  0  0
    1.9010    1.2810   -0.5600 H   0  0  0  0  0  0  0  0  0  0  0  0
   -1.7000    2.6900   -0.1090 H   0  0  0  0  0  0  0  0  0  0  0  0
   -1.6370    4.5360    1.7080 H   0  0  0  0  0  0  0  0  0  0  0  0
    0.6690    4.6110    2.8520 H   0  0  0  0  0  0  0  0  0  0  0  0
    0.5140   -1.1930   -2.0010 N   0  0  0  0  0  0  0  0  0  0  0  0
    0.8670   -2.1870   -2.9650 C   0  0  1  0  0  0  0  0  0  0  0  0
   -0.1490   -2.6340   -3.9280 C   0  0  0  0  0  0  0  0  0  0  0  0
   -1.3760   -3.2090   -3.3300 C   0  0  0  0  0  0  0  0  0  0  0  0
   -2.4590   -2.3510   -3.1230 C   0  0  0  0  0  0  0  0  0  0  0  0
   -3.6310   -2.7770   -2.5720 C   0  0  0  0  0  0  0  0  0  0  0  0
   -3.7920   -4.0920   -2.1920 C   0  0  0  0  0  0  0  0  0  0  0  0
   -2.7480   -4.9580   -2.3800 C   0  0  0  0  0  0  0  0  0  0  0  0
   -1.5450   -4.5150   -2.9480 C   0  0  0  0  0  0  0  0  0  0  0  0
    2.0440   -1.6450   -3.7560 C   0  0  0  0  0  0  0  0  0  0  0  0
    2.4520   -0.5090   -3.4430 O   0  0  0  0  0  0  0  0  0  0  0  0
    2.6190   -2.3880   -4.7640 O   0  0  0  0  0  0  0  0  0  0  0  0
   -0.1330   -0.4370   -2.3160 H   0  0  0  0  0  0  0  0  0  0  0  0
    1.3040   -3.0550   -2.4410 H   0  0  0  0  0  0  0  0  0  0  0  0
   -0.3670   -1.9050   -4.7410 H   0  0  0  0  0  0  0  0  0  0  0  0
    0.3100   -3.5020   -4.5000 H   0  0  0  0  0  0  0  0  0  0  0  0
   -2.3670   -1.3220   -3.4070 H   0  0  0  0  0  0  0  0  0  0  0  0
   -4.4930   -2.1270   -2.4010 H   0  0  0  0  0  0  0  0  0  0  0  0
   -4.7500   -4.4230   -1.7440 H   0  0  0  0  0  0  0  0  0  0  0  0
   -2.8340   -5.9930   -2.0930 H   0  0  0  0  0  0  0  0  0  0  0  0
   -0.7080   -5.1910   -3.1020 H   0  0  0  0  0  0  0  0  0  0  0  0
  1 10  1  0  0  0  0
  1  9  1  0  0  0  0
  1  2  1  0  0  0  0
  2  3  1  0  0  0  0
  3 12  1  0  0  0  0
  3 13  1  0  0  0  0
  4 14  1  0  0  0  0
  4  3  1  0  0  0  0
  5 16  1  6  0  0  0
  5  6  1  0  0  0  0
  5  4  1  0  0  0  0
  6 17  1  0  0  0  0
  7  5  1  0  0  0  0
  8  7  2  0  0  0  0
 11  1  1  0  0  0  0
 15  4  1  0  0  0  0
 18  6  1  0  0  0  0
 19 29  1  0  0  0  0
 19  7  1  0  0  0  0
 20 30  1  1  0  0  0
 20 19  1  0  0  0  0
 21 20  1  0  0  0  0
 21 22  1  0  0  0  0
 22 23  2  0  0  0  0
 22 26  1  0  0  0  0
 23 24  1  0  0  0  0
 24 34  1  0  0  0  0
 24 25  1  0  0  0  0
 25 35  1  0  0  0  0
 26 25  2  0  0  0  0
 27 28  2  0  0  0  0
 27 20  1  0  0  0  0
 31 21  1  0  0  0  0
 32 21  1  0  0  0  0
 33 23  1  0  0  0  0
 36 27  1  0  0  0  0
 37 49  1  1  0  0  0
 37 36  1  0  0  0  0
 38 39  1  0  0  0  0
 38 37  1  0  0  0  0
 39 40  2  0  0  0  0
 39 44  1  0  0  0  0
 40 41  1  0  0  0  0
 41 53  1  0  0  0  0
 41 42  2  0  0  0  0
 42 54  1  0  0  0  0
 43 42  1  0  0  0  0
 43 55  1  0  0  0  0
 44 43  2  0  0  0  0
 45 46  1  0  0  0  0
 45 37  1  0  0  0  0
 47 45  2  0  0  0  0
 48 36  1  0  0  0  0
 50 38  1  0  0  0  0
 51 38  1  0  0  0  0
 52 40  1  0  0  0  0
 56 44  1  0  0  0  0
M  END
$$$$
