MHK.pdb
 OpenBabel07022418553D

 57 57  0  0  1  0  0  0  0  0999 V2000
    0.9960   -3.8920    2.3540 C   0  0  0  0  0  0  0  0  0  0  0  0
    2.0200   -2.4440    2.7360 S   0  0  0  0  0  0  0  0  0  0  0  0
    2.6830   -1.7600    1.1920 C   0  0  0  0  0  0  0  0  0  0  0  0
    3.5400   -0.5560    1.4490 C   0  0  0  0  0  0  0  0  0  0  0  0
    2.7900    0.5630    2.1320 C   0  0  2  0  0  0  0  0  0  0  0  0
    2.2620    0.1610    3.4070 N   0  0  0  0  0  0  0  0  0  0  0  0
    1.7460    1.1260    1.2200 C   0  0  0  0  0  0  0  0  0  0  0  0
    2.1560    1.4900    0.1020 O   0  0  0  0  0  0  0  0  0  0  0  0
    0.2410   -4.0520    3.1370 H   0  0  0  0  0  0  0  0  0  0  0  0
    1.6150   -4.8290    2.2920 H   0  0  0  0  0  0  0  0  0  0  0  0
    0.4960   -3.7250    1.3760 H   0  0  0  0  0  0  0  0  0  0  0  0
    3.3500   -2.5500    0.7650 H   0  0  0  0  0  0  0  0  0  0  0  0
    1.8890   -1.4930    0.4770 H   0  0  0  0  0  0  0  0  0  0  0  0
    3.9260   -0.1930    0.4790 H   0  0  0  0  0  0  0  0  0  0  0  0
    4.4020   -0.8240    2.1040 H   0  0  0  0  0  0  0  0  0  0  0  0
    3.5600    1.3660    2.3300 H   0  0  0  0  0  0  0  0  0  0  0  0
    1.7120    0.8900    3.8680 H   0  0  0  0  0  0  0  0  0  0  0  0
    3.0000   -0.2500    3.9980 H   0  0  0  0  0  0  0  0  0  0  0  0
    0.3980    1.2370    1.6020 N   0  0  0  0  0  0  0  0  0  0  0  0
   -0.6340    1.7840    0.7770 C   0  0  1  0  0  0  0  0  0  0  0  0
   -0.1300    2.9290   -0.1260 C   0  0  0  0  0  0  0  0  0  0  0  0
    0.3760    4.0680    0.6350 C   0  0  0  0  0  0  0  0  0  0  0  0
   -0.3640    5.1740    1.0780 C   0  0  0  0  0  0  0  0  0  0  0  0
    0.4610    5.9880    1.7340 N   0  0  0  0  0  0  0  0  0  0  0  0
    1.6970    5.4590    1.7340 C   0  0  0  0  0  0  0  0  0  0  0  0
    1.6120    4.2980    1.0610 N   0  0  0  0  0  0  0  0  0  0  0  0
   -1.4520    0.8080    0.0450 C   0  0  0  0  0  0  0  0  0  0  0  0
   -2.3760    1.2730   -0.6770 O   0  0  0  0  0  0  0  0  0  0  0  0
    0.1480    0.8860    2.5690 H   0  0  0  0  0  0  0  0  0  0  0  0
   -1.3420    2.3800    1.4870 H   0  0  0  0  0  0  0  0  0  0  0  0
    0.4790    2.5800   -0.9530 H   0  0  0  0  0  0  0  0  0  0  0  0
   -1.0930    3.2870   -0.6190 H   0  0  0  0  0  0  0  0  0  0  0  0
   -1.4240    5.2990    0.8920 H   0  0  0  0  0  0  0  0  0  0  0  0
    0.2140    6.9070    2.1900 H   0  0  0  0  0  0  0  0  0  0  0  0
    2.5870    5.8760    2.1820 H   0  0  0  0  0  0  0  0  0  0  0  0
   -1.2640   -0.5930    0.1060 N   0  0  0  0  0  0  0  0  0  0  0  0
   -2.1510   -1.5290   -0.6750 C   0  0  1  0  0  0  0  0  0  0  0  0
   -1.2780   -2.0950   -1.7230 C   0  0  0  0  0  0  0  0  0  0  0  0
   -1.7350   -3.0220   -2.7400 C   0  0  0  0  0  0  0  0  0  0  0  0
   -2.3100   -4.3360   -2.4470 C   0  0  0  0  0  0  0  0  0  0  0  0
   -1.4660   -5.2840   -1.6380 C   0  0  0  0  0  0  0  0  0  0  0  0
   -2.2470   -6.5160   -1.4790 N   0  0  0  0  0  0  0  0  0  0  0  0
   -2.7990   -2.4190    0.2740 C   0  0  0  0  0  0  0  0  0  0  0  0
   -3.6710   -3.2530    0.0280 O   0  0  0  0  0  0  0  0  0  0  0  0
   -2.4360   -2.3730    1.6420 O   0  0  0  0  0  0  0  0  0  0  0  0
   -0.4990   -0.9610    0.7010 H   0  0  0  0  0  0  0  0  0  0  0  0
   -2.8770   -0.8540   -1.1670 H   0  0  0  0  0  0  0  0  0  0  0  0
   -0.2900   -2.4630   -1.3020 H   0  0  0  0  0  0  0  0  0  0  0  0
   -0.9000   -1.1700   -2.2990 H   0  0  0  0  0  0  0  0  0  0  0  0
   -2.4840   -2.5090   -3.4420 H   0  0  0  0  0  0  0  0  0  0  0  0
   -0.8470   -3.2050   -3.4370 H   0  0  0  0  0  0  0  0  0  0  0  0
   -2.3170   -4.8740   -3.4920 H   0  0  0  0  0  0  0  0  0  0  0  0
   -3.3820   -4.3820   -2.2120 H   0  0  0  0  0  0  0  0  0  0  0  0
   -0.5510   -5.5720   -2.1970 H   0  0  0  0  0  0  0  0  0  0  0  0
   -1.1570   -4.8920   -0.6670 H   0  0  0  0  0  0  0  0  0  0  0  0
   -2.8440   -6.5030   -0.6420 H   0  0  0  0  0  0  0  0  0  0  0  0
   -1.6630   -7.3630   -1.5970 H   0  0  0  0  0  0  0  0  0  0  0  0
  1  2  1  0  0  0  0
  1  9  1  0  0  0  0
  3  4  1  0  0  0  0
  3  2  1  0  0  0  0
  4 15  1  0  0  0  0
  4  5  1  0  0  0  0
  5 16  1  1  0  0  0
  5  6  1  0  0  0  0
  6 17  1  0  0  0  0
  6 18  1  0  0  0  0
  7 19  1  0  0  0  0
  7  5  1  0  0  0  0
  8  7  2  0  0  0  0
 10  1  1  0  0  0  0
 11  1  1  0  0  0  0
 12  3  1  0  0  0  0
 13  3  1  0  0  0  0
 14  4  1  0  0  0  0
 19 29  1  0  0  0  0
 20 30  1  1  0  0  0
 20 19  1  0  0  0  0
 21 22  1  0  0  0  0
 21 20  1  0  0  0  0
 22 26  1  0  0  0  0
 22 23  2  0  0  0  0
 23 24  1  0  0  0  0
 24 25  1  0  0  0  0
 24 34  1  0  0  0  0
 25 35  1  0  0  0  0
 26 25  2  0  0  0  0
 27 36  1  0  0  0  0
 27 20  1  0  0  0  0
 28 27  2  0  0  0  0
 31 21  1  0  0  0  0
 32 21  1  0  0  0  0
 33 23  1  0  0  0  0
 36 46  1  0  0  0  0
 37 47  1  6  0  0  0
 37 36  1  0  0  0  0
 37 43  1  0  0  0  0
 38 48  1  0  0  0  0
 38 37  1  0  0  0  0
 39 40  1  0  0  0  0
 39 38  1  0  0  0  0
 40 53  1  0  0  0  0
 40 41  1  0  0  0  0
 41 42  1  0  0  0  0
 41 55  1  0  0  0  0
 42 56  1  0  0  0  0
 43 45  1  0  0  0  0
 44 43  2  0  0  0  0
 49 38  1  0  0  0  0
 50 39  1  0  0  0  0
 51 39  1  0  0  0  0
 52 40  1  0  0  0  0
 54 41  1  0  0  0  0
 57 42  1  0  0  0  0
M  END
$$$$
