MHM.pdb
 OpenBabel07022418553D

 53 53  0  0  1  0  0  0  0  0999 V2000
    1.9420   -2.9880    4.3420 C   0  0  0  0  0  0  0  0  0  0  0  0
    2.7300   -3.4960    2.8180 S   0  0  0  0  0  0  0  0  0  0  0  0
    2.3470   -2.5640    1.3740 C   0  0  0  0  0  0  0  0  0  0  0  0
    2.9120   -1.2130    1.1880 C   0  0  0  0  0  0  0  0  0  0  0  0
    2.5990   -0.1430    2.1730 C   0  0  2  0  0  0  0  0  0  0  0  0
    3.0480   -0.4840    3.4980 N   0  0  0  0  0  0  0  0  0  0  0  0
    1.1680    0.2110    2.1010 C   0  0  0  0  0  0  0  0  0  0  0  0
    0.4810    0.1600    3.1490 O   0  0  0  0  0  0  0  0  0  0  0  0
    1.4400   -3.9120    4.7850 H   0  0  0  0  0  0  0  0  0  0  0  0
    2.7160   -2.6550    5.0900 H   0  0  0  0  0  0  0  0  0  0  0  0
    1.1310   -2.2480    4.2150 H   0  0  0  0  0  0  0  0  0  0  0  0
    2.6420   -3.1630    0.4530 H   0  0  0  0  0  0  0  0  0  0  0  0
    1.2230   -2.4640    1.2570 H   0  0  0  0  0  0  0  0  0  0  0  0
    2.5150   -0.8380    0.1830 H   0  0  0  0  0  0  0  0  0  0  0  0
    4.0440   -1.2830    1.0630 H   0  0  0  0  0  0  0  0  0  0  0  0
    3.2120    0.7950    1.9150 H   0  0  0  0  0  0  0  0  0  0  0  0
    4.0710   -0.2810    3.6180 H   0  0  0  0  0  0  0  0  0  0  0  0
    2.4750   -0.0290    4.2480 H   0  0  0  0  0  0  0  0  0  0  0  0
    0.5000    0.6160    0.9160 N   0  0  0  0  0  0  0  0  0  0  0  0
   -0.8550    0.9780    0.8210 C   0  0  1  0  0  0  0  0  0  0  0  0
   -1.1660    2.3530    0.3850 C   0  0  0  0  0  0  0  0  0  0  0  0
   -0.7030    3.4830    1.1420 C   0  0  0  0  0  0  0  0  0  0  0  0
    0.0140    3.6680    2.2800 C   0  0  0  0  0  0  0  0  0  0  0  0
    0.1560    4.9720    2.5440 N   0  0  0  0  0  0  0  0  0  0  0  0
   -0.4790    5.6160    1.5620 C   0  0  0  0  0  0  0  0  0  0  0  0
   -1.0010    4.7490    0.7110 N   0  0  0  0  0  0  0  0  0  0  0  0
   -1.5730    0.0150   -0.0400 C   0  0  0  0  0  0  0  0  0  0  0  0
   -2.8240    0.1690   -0.2950 O   0  0  0  0  0  0  0  0  0  0  0  0
    1.0990    0.6400    0.0460 H   0  0  0  0  0  0  0  0  0  0  0  0
   -1.3030    0.8450    1.8560 H   0  0  0  0  0  0  0  0  0  0  0  0
   -0.8100    2.4660   -0.6820 H   0  0  0  0  0  0  0  0  0  0  0  0
   -2.2880    2.4330    0.2930 H   0  0  0  0  0  0  0  0  0  0  0  0
    0.4020    2.8780    2.8720 H   0  0  0  0  0  0  0  0  0  0  0  0
    0.6780    5.3820    3.3780 H   0  0  0  0  0  0  0  0  0  0  0  0
   -0.5390    6.7160    1.5060 H   0  0  0  0  0  0  0  0  0  0  0  0
   -3.8830   -4.6520   -3.2780 C   0  0  0  0  0  0  0  0  0  0  0  0
   -2.1310   -4.6260   -3.7730 S   0  0  0  0  0  0  0  0  0  0  0  0
   -1.4060   -3.0320   -3.8520 C   0  0  0  0  0  0  0  0  0  0  0  0
   -0.9100   -2.2940   -2.6960 C   0  0  0  0  0  0  0  0  0  0  0  0
   -1.7110   -2.0330   -1.4950 C   0  0  2  0  0  0  0  0  0  0  0  0
   -0.9290   -1.0870   -0.6080 N   0  0  0  0  0  0  0  0  0  0  0  0
   -1.7610   -3.2580   -0.6110 C   0  0  0  0  0  0  0  0  0  0  0  0
   -2.1780   -4.3610   -0.9550 O   0  0  0  0  0  0  0  0  0  0  0  0
   -1.3110   -3.1860    0.7240 O   0  0  0  0  0  0  0  0  0  0  0  0
   -4.0150   -5.5570   -2.6170 H   0  0  0  0  0  0  0  0  0  0  0  0
   -4.1790   -3.7460   -2.7340 H   0  0  0  0  0  0  0  0  0  0  0  0
   -4.5370   -4.7580   -4.1710 H   0  0  0  0  0  0  0  0  0  0  0  0
   -0.5120   -3.0610   -4.6010 H   0  0  0  0  0  0  0  0  0  0  0  0
   -2.0950   -2.2870   -4.4240 H   0  0  0  0  0  0  0  0  0  0  0  0
   -0.5610   -1.2690   -3.0870 H   0  0  0  0  0  0  0  0  0  0  0  0
    0.0960   -2.7790   -2.3900 H   0  0  0  0  0  0  0  0  0  0  0  0
   -2.7020   -1.6570   -1.6890 H   0  0  0  0  0  0  0  0  0  0  0  0
    0.0680   -1.2650   -0.4380 H   0  0  0  0  0  0  0  0  0  0  0  0
  1  9  1  0  0  0  0
  1 10  1  0  0  0  0
  2  1  1  0  0  0  0
  3  2  1  0  0  0  0
  4  3  1  0  0  0  0
  4  5  1  0  0  0  0
  5 16  1  6  0  0  0
  5  6  1  0  0  0  0
  6 17  1  0  0  0  0
  6 18  1  0  0  0  0
  7  5  1  0  0  0  0
  7  8  2  0  0  0  0
 11  1  1  0  0  0  0
 12  3  1  0  0  0  0
 13  3  1  0  0  0  0
 14  4  1  0  0  0  0
 15  4  1  0  0  0  0
 19  7  1  0  0  0  0
 20 19  1  0  0  0  0
 20 30  1  1  0  0  0
 21 20  1  0  0  0  0
 21 22  1  0  0  0  0
 22 23  2  0  0  0  0
 23 24  1  0  0  0  0
 23 33  1  0  0  0  0
 24 34  1  0  0  0  0
 25 24  1  0  0  0  0
 26 22  1  0  0  0  0
 26 25  2  0  0  0  0
 27 20  1  0  0  0  0
 28 27  2  0  0  0  0
 29 19  1  0  0  0  0
 31 21  1  0  0  0  0
 32 21  1  0  0  0  0
 35 25  1  0  0  0  0
 36 46  1  0  0  0  0
 36 45  1  0  0  0  0
 37 36  1  0  0  0  0
 38 37  1  0  0  0  0
 38 39  1  0  0  0  0
 39 51  1  0  0  0  0
 39 40  1  0  0  0  0
 40 52  1  6  0  0  0
 40 42  1  0  0  0  0
 40 41  1  0  0  0  0
 41 53  1  0  0  0  0
 41 27  1  0  0  0  0
 42 44  1  0  0  0  0
 43 42  2  0  0  0  0
 47 36  1  0  0  0  0
 48 38  1  0  0  0  0
 49 38  1  0  0  0  0
 50 39  1  0  0  0  0
M  END
$$$$
