MHN.pdb
 OpenBabel07022418553D

 50 50  0  0  1  0  0  0  0  0999 V2000
    0.7020   -2.0040    5.0700 C   0  0  0  0  0  0  0  0  0  0  0  0
    1.8010   -3.1300    4.2670 S   0  0  0  0  0  0  0  0  0  0  0  0
    2.2060   -2.8930    2.5710 C   0  0  0  0  0  0  0  0  0  0  0  0
    3.1400   -1.7990    2.2130 C   0  0  0  0  0  0  0  0  0  0  0  0
    2.7480   -0.4000    2.5410 C   0  0  2  0  0  0  0  0  0  0  0  0
    2.5840   -0.2460    3.9590 N   0  0  0  0  0  0  0  0  0  0  0  0
    1.4930    0.0310    1.8580 C   0  0  0  0  0  0  0  0  0  0  0  0
    0.5540    0.5580    2.5240 O   0  0  0  0  0  0  0  0  0  0  0  0
    1.1550   -1.4240    5.9280 H   0  0  0  0  0  0  0  0  0  0  0  0
   -0.1480   -2.5820    5.5970 H   0  0  0  0  0  0  0  0  0  0  0  0
    0.1330   -1.3170    4.4180 H   0  0  0  0  0  0  0  0  0  0  0  0
    2.6450   -3.8650    2.1600 H   0  0  0  0  0  0  0  0  0  0  0  0
    1.2520   -2.7600    1.9610 H   0  0  0  0  0  0  0  0  0  0  0  0
    4.0970   -2.0160    2.7740 H   0  0  0  0  0  0  0  0  0  0  0  0
    3.4780   -1.8970    1.1370 H   0  0  0  0  0  0  0  0  0  0  0  0
    3.6090    0.2530    2.1940 H   0  0  0  0  0  0  0  0  0  0  0  0
    3.3960   -0.5210    4.5120 H   0  0  0  0  0  0  0  0  0  0  0  0
    2.2620    0.7220    4.2040 H   0  0  0  0  0  0  0  0  0  0  0  0
    1.2720   -0.1160    0.4560 N   0  0  0  0  0  0  0  0  0  0  0  0
    0.0280    0.3280   -0.1320 C   0  0  1  0  0  0  0  0  0  0  0  0
    0.2490    1.3420   -1.2370 C   0  0  0  0  0  0  0  0  0  0  0  0
    0.9500    2.5410   -0.7270 C   0  0  0  0  0  0  0  0  0  0  0  0
    2.3010    2.8060   -0.6510 C   0  0  0  0  0  0  0  0  0  0  0  0
    2.4600    4.0440   -0.1140 N   0  0  0  0  0  0  0  0  0  0  0  0
    1.2520    4.5650    0.1500 C   0  0  0  0  0  0  0  0  0  0  0  0
    0.3410    3.6240   -0.2350 N   0  0  0  0  0  0  0  0  0  0  0  0
   -0.6580   -0.8880   -0.6430 C   0  0  0  0  0  0  0  0  0  0  0  0
   -0.1320   -2.0450   -0.5150 O   0  0  0  0  0  0  0  0  0  0  0  0
    2.0430   -0.5510   -0.1010 H   0  0  0  0  0  0  0  0  0  0  0  0
   -0.5610    0.8270    0.6560 H   0  0  0  0  0  0  0  0  0  0  0  0
   -0.6910    1.6670   -1.6810 H   0  0  0  0  0  0  0  0  0  0  0  0
    0.9190    0.8610   -1.9920 H   0  0  0  0  0  0  0  0  0  0  0  0
    3.0590    2.1200   -0.9760 H   0  0  0  0  0  0  0  0  0  0  0  0
    3.3530    4.5440    0.0800 H   0  0  0  0  0  0  0  0  0  0  0  0
    0.9810    5.5180    0.5770 H   0  0  0  0  0  0  0  0  0  0  0  0
   -3.9950   -3.4850    1.1650 N   0  0  0  0  0  0  0  0  0  0  0  0
   -3.5070   -2.3750    0.4290 C   0  0  0  0  0  0  0  0  0  0  0  0
   -2.7850   -1.5060    0.9870 O   0  0  0  0  0  0  0  0  0  0  0  0
   -3.8700   -2.2600   -1.0270 C   0  0  0  0  0  0  0  0  0  0  0  0
   -2.5630   -2.0880   -1.7850 C   0  0  2  0  0  0  0  0  0  0  0  0
   -1.9180   -0.8820   -1.3000 N   0  0  0  0  0  0  0  0  0  0  0  0
   -2.8030   -2.0240   -3.2410 C   0  0  0  0  0  0  0  0  0  0  0  0
   -2.4220   -1.0120   -3.8690 O   0  0  0  0  0  0  0  0  0  0  0  0
   -3.4310   -3.0440   -3.9230 O   0  0  0  0  0  0  0  0  0  0  0  0
   -4.9770   -3.5720    1.4420 H   0  0  0  0  0  0  0  0  0  0  0  0
   -3.2960   -4.2430    1.4240 H   0  0  0  0  0  0  0  0  0  0  0  0
   -4.4900   -3.0840   -1.3630 H   0  0  0  0  0  0  0  0  0  0  0  0
   -4.3890   -1.2650   -1.1300 H   0  0  0  0  0  0  0  0  0  0  0  0
   -1.9460   -2.9930   -1.5560 H   0  0  0  0  0  0  0  0  0  0  0  0
   -2.3580    0.0550   -1.4140 H   0  0  0  0  0  0  0  0  0  0  0  0
  1 10  1  0  0  0  0
  1  9  1  0  0  0  0
  2  1  1  0  0  0  0
  3  2  1  0  0  0  0
  4  5  1  0  0  0  0
  4  3  1  0  0  0  0
  4 14  1  0  0  0  0
  5 16  1  6  0  0  0
  5  6  1  0  0  0  0
  6 18  1  0  0  0  0
  6 17  1  0  0  0  0
  7  8  2  0  0  0  0
  7  5  1  0  0  0  0
 11  1  1  0  0  0  0
 12  3  1  0  0  0  0
 13  3  1  0  0  0  0
 15  4  1  0  0  0  0
 19  7  1  0  0  0  0
 20 19  1  0  0  0  0
 20 30  1  1  0  0  0
 21 22  1  0  0  0  0
 21 20  1  0  0  0  0
 22 23  2  0  0  0  0
 22 26  1  0  0  0  0
 23 24  1  0  0  0  0
 24 34  1  0  0  0  0
 24 25  1  0  0  0  0
 25 35  1  0  0  0  0
 26 25  2  0  0  0  0
 27 28  2  0  0  0  0
 27 20  1  0  0  0  0
 29 19  1  0  0  0  0
 31 21  1  0  0  0  0
 32 21  1  0  0  0  0
 33 23  1  0  0  0  0
 36 46  1  0  0  0  0
 36 45  1  0  0  0  0
 37 38  2  0  0  0  0
 37 36  1  0  0  0  0
 39 37  1  0  0  0  0
 40 49  1  1  0  0  0
 40 41  1  0  0  0  0
 40 39  1  0  0  0  0
 41 27  1  0  0  0  0
 42 40  1  0  0  0  0
 43 42  1  0  0  0  0
 44 42  2  0  0  0  0
 47 39  1  0  0  0  0
 48 39  1  0  0  0  0
 50 41  1  0  0  0  0
M  END
$$$$
