MHP.pdb
 OpenBabel07022418553D

 50 51  0  0  1  0  0  0  0  0999 V2000
    2.0510   -2.8600    4.3100 C   0  0  0  0  0  0  0  0  0  0  0  0
    1.6040   -4.0060    3.0410 S   0  0  0  0  0  0  0  0  0  0  0  0
    0.8640   -3.3480    1.5780 C   0  0  0  0  0  0  0  0  0  0  0  0
    1.6710   -2.6340    0.5820 C   0  0  0  0  0  0  0  0  0  0  0  0
    2.3500   -1.4020    1.0190 C   0  0  2  0  0  0  0  0  0  0  0  0
    3.2930   -1.6130    2.0770 N   0  0  0  0  0  0  0  0  0  0  0  0
    1.3620   -0.3570    1.3670 C   0  0  0  0  0  0  0  0  0  0  0  0
    1.3000    0.2180    2.4700 O   0  0  0  0  0  0  0  0  0  0  0  0
    1.6490   -3.1950    5.3350 H   0  0  0  0  0  0  0  0  0  0  0  0
    3.1570   -2.8470    4.4520 H   0  0  0  0  0  0  0  0  0  0  0  0
    1.6150   -1.8710    4.1680 H   0  0  0  0  0  0  0  0  0  0  0  0
    0.2680   -4.1770    1.0530 H   0  0  0  0  0  0  0  0  0  0  0  0
    0.0450   -2.6180    1.9070 H   0  0  0  0  0  0  0  0  0  0  0  0
    2.4510   -3.3430    0.1110 H   0  0  0  0  0  0  0  0  0  0  0  0
    0.9920   -2.3490   -0.2860 H   0  0  0  0  0  0  0  0  0  0  0  0
    2.9180   -0.9810    0.1230 H   0  0  0  0  0  0  0  0  0  0  0  0
    3.6540   -0.6600    2.3760 H   0  0  0  0  0  0  0  0  0  0  0  0
    4.0890   -2.1950    1.7330 H   0  0  0  0  0  0  0  0  0  0  0  0
    0.3830    0.0610    0.3890 N   0  0  0  0  0  0  0  0  0  0  0  0
   -0.5750    1.0790    0.6910 C   0  0  1  0  0  0  0  0  0  0  0  0
   -0.1180    2.3670   -0.0550 C   0  0  0  0  0  0  0  0  0  0  0  0
    1.2470    2.7030    0.4720 C   0  0  0  0  0  0  0  0  0  0  0  0
    2.4410    2.2520   -0.0500 C   0  0  0  0  0  0  0  0  0  0  0  0
    3.4370    2.7690    0.6920 N   0  0  0  0  0  0  0  0  0  0  0  0
    2.8800    3.5270    1.6580 C   0  0  0  0  0  0  0  0  0  0  0  0
    1.5450    3.4870    1.5240 N   0  0  0  0  0  0  0  0  0  0  0  0
   -1.9640    0.8270    0.3690 C   0  0  0  0  0  0  0  0  0  0  0  0
   -2.7520    1.8310    0.6300 O   0  0  0  0  0  0  0  0  0  0  0  0
    0.4080   -0.3940   -0.5450 H   0  0  0  0  0  0  0  0  0  0  0  0
   -0.4190    1.3650    1.7630 H   0  0  0  0  0  0  0  0  0  0  0  0
   -0.0920    2.1500   -1.1340 H   0  0  0  0  0  0  0  0  0  0  0  0
   -0.8540    3.1390    0.2360 H   0  0  0  0  0  0  0  0  0  0  0  0
    2.5230    1.5870   -0.9220 H   0  0  0  0  0  0  0  0  0  0  0  0
    4.4580    2.5800    0.5060 H   0  0  0  0  0  0  0  0  0  0  0  0
    3.4640    4.0670    2.4060 H   0  0  0  0  0  0  0  0  0  0  0  0
   -2.6050   -0.2970   -0.1690 N   0  0  0  0  0  0  0  0  0  0  0  0
   -4.0550   -0.3360   -0.4510 C   0  0  0  0  0  0  0  0  0  0  0  0
   -4.4290   -1.6670    0.1510 C   0  0  0  0  0  0  0  0  0  0  0  0
   -3.3010   -2.5340   -0.3550 C   0  0  0  0  0  0  0  0  0  0  0  0
   -2.1240   -1.5980   -0.5560 C   0  0  1  0  0  0  0  0  0  0  0  0
   -1.7370   -1.6680   -1.9770 C   0  0  0  0  0  0  0  0  0  0  0  0
   -1.8470   -0.6560   -2.6940 O   0  0  0  0  0  0  0  0  0  0  0  0
   -1.2580   -2.8370   -2.5170 O   0  0  0  0  0  0  0  0  0  0  0  0
   -4.5770    0.5180   -0.0090 H   0  0  0  0  0  0  0  0  0  0  0  0
   -4.2030   -0.4110   -1.5550 H   0  0  0  0  0  0  0  0  0  0  0  0
   -5.4260   -2.0210   -0.1650 H   0  0  0  0  0  0  0  0  0  0  0  0
   -4.4550   -1.6110    1.2660 H   0  0  0  0  0  0  0  0  0  0  0  0
   -3.6160   -3.0020   -1.3020 H   0  0  0  0  0  0  0  0  0  0  0  0
   -3.0290   -3.2710    0.4340 H   0  0  0  0  0  0  0  0  0  0  0  0
   -1.2740   -1.8920    0.0930 H   0  0  0  0  0  0  0  0  0  0  0  0
  1 10  1  0  0  0  0
  1  9  1  0  0  0  0
  2  1  1  0  0  0  0
  3 13  1  0  0  0  0
  3  2  1  0  0  0  0
  4  5  1  0  0  0  0
  4  3  1  0  0  0  0
  5 16  1  6  0  0  0
  5  7  1  0  0  0  0
  5  6  1  0  0  0  0
  6 17  1  0  0  0  0
  7  8  2  0  0  0  0
 11  1  1  0  0  0  0
 12  3  1  0  0  0  0
 14  4  1  0  0  0  0
 15  4  1  0  0  0  0
 18  6  1  0  0  0  0
 19 20  1  0  0  0  0
 19  7  1  0  0  0  0
 20 30  1  1  0  0  0
 21 32  1  0  0  0  0
 21 22  1  0  0  0  0
 21 20  1  0  0  0  0
 22 26  1  0  0  0  0
 23 22  2  0  0  0  0
 23 24  1  0  0  0  0
 24 25  1  0  0  0  0
 25 35  1  0  0  0  0
 26 25  2  0  0  0  0
 27 28  2  0  0  0  0
 27 20  1  0  0  0  0
 29 19  1  0  0  0  0
 31 21  1  0  0  0  0
 33 23  1  0  0  0  0
 34 24  1  0  0  0  0
 36 27  1  0  0  0  0
 37 36  1  0  0  0  0
 37 44  1  0  0  0  0
 37 38  1  0  0  0  0
 38 47  1  0  0  0  0
 39 38  1  0  0  0  0
 39 49  1  0  0  0  0
 40 39  1  0  0  0  0
 40 36  1  0  0  0  0
 40 50  1  1  0  0  0
 41 40  1  0  0  0  0
 42 41  2  0  0  0  0
 43 41  1  0  0  0  0
 45 37  1  0  0  0  0
 46 38  1  0  0  0  0
 48 39  1  0  0  0  0
M  END
$$$$
