MHV.pdb
 OpenBabel07022418553D

 52 52  0  0  1  0  0  0  0  0999 V2000
    2.8390   -4.5280    0.9690 C   0  0  0  0  0  0  0  0  0  0  0  0
    2.3830   -4.3280   -0.7500 S   0  0  0  0  0  0  0  0  0  0  0  0
    1.4310   -2.8850   -1.0720 C   0  0  0  0  0  0  0  0  0  0  0  0
    2.0600   -1.5560   -1.0660 C   0  0  0  0  0  0  0  0  0  0  0  0
    2.7240   -1.0340    0.1380 C   0  0  2  0  0  0  0  0  0  0  0  0
    3.8240   -1.8760    0.5310 N   0  0  0  0  0  0  0  0  0  0  0  0
    1.8020   -0.7570    1.2820 C   0  0  0  0  0  0  0  0  0  0  0  0
    2.0470   -1.2450    2.3940 O   0  0  0  0  0  0  0  0  0  0  0  0
    2.4490   -5.5510    1.2780 H   0  0  0  0  0  0  0  0  0  0  0  0
    3.9450   -4.5020    1.1630 H   0  0  0  0  0  0  0  0  0  0  0  0
    2.3440   -3.8470    1.6770 H   0  0  0  0  0  0  0  0  0  0  0  0
    0.5300   -2.8730   -0.3790 H   0  0  0  0  0  0  0  0  0  0  0  0
    0.9700   -3.0080   -2.1100 H   0  0  0  0  0  0  0  0  0  0  0  0
    2.7340   -1.4490   -1.9700 H   0  0  0  0  0  0  0  0  0  0  0  0
    1.2200   -0.8160   -1.3080 H   0  0  0  0  0  0  0  0  0  0  0  0
    3.2270   -0.0310   -0.1070 H   0  0  0  0  0  0  0  0  0  0  0  0
    4.5670   -1.3360    1.0330 H   0  0  0  0  0  0  0  0  0  0  0  0
    4.2730   -2.3460   -0.2830 H   0  0  0  0  0  0  0  0  0  0  0  0
    0.6440    0.0610    1.1120 N   0  0  0  0  0  0  0  0  0  0  0  0
   -0.2880    0.3710    2.1750 C   0  0  1  0  0  0  0  0  0  0  0  0
   -0.5930    1.8380    2.2600 C   0  0  0  0  0  0  0  0  0  0  0  0
    0.5360    2.7190    2.5230 C   0  0  0  0  0  0  0  0  0  0  0  0
    1.8680    2.5440    2.7410 C   0  0  0  0  0  0  0  0  0  0  0  0
    2.4650    3.7210    2.9430 N   0  0  0  0  0  0  0  0  0  0  0  0
    1.5170    4.6460    2.8550 C   0  0  0  0  0  0  0  0  0  0  0  0
    0.3490    4.0740    2.6040 N   0  0  0  0  0  0  0  0  0  0  0  0
   -1.6190   -0.2710    1.8770 C   0  0  0  0  0  0  0  0  0  0  0  0
   -2.5340   -0.1100    2.7120 O   0  0  0  0  0  0  0  0  0  0  0  0
    0.4980    0.4420    0.1380 H   0  0  0  0  0  0  0  0  0  0  0  0
    0.1160   -0.0680    3.1140 H   0  0  0  0  0  0  0  0  0  0  0  0
   -1.3460    2.0370    3.0800 H   0  0  0  0  0  0  0  0  0  0  0  0
   -1.1510    2.1030    1.3290 H   0  0  0  0  0  0  0  0  0  0  0  0
    2.3620    1.6090    2.7530 H   0  0  0  0  0  0  0  0  0  0  0  0
    3.4970    3.8590    3.1350 H   0  0  0  0  0  0  0  0  0  0  0  0
    1.7050    5.7090    2.9770 H   0  0  0  0  0  0  0  0  0  0  0  0
   -3.9370    0.3990   -0.7680 C   0  0  0  0  0  0  0  0  0  0  0  0
   -3.6880   -1.0750   -0.9030 C   0  0  0  0  0  0  0  0  0  0  0  0
   -2.8360   -1.3920   -2.1000 C   0  0  0  0  0  0  0  0  0  0  0  0
   -3.0970   -1.6590    0.3780 C   0  0  2  0  0  0  0  0  0  0  0  0
   -1.8350   -1.0270    0.7030 N   0  0  0  0  0  0  0  0  0  0  0  0
   -2.9870   -3.1340    0.2800 C   0  0  0  0  0  0  0  0  0  0  0  0
   -1.9250   -3.7820    0.4560 O   0  0  0  0  0  0  0  0  0  0  0  0
   -4.1320   -3.8500   -0.0280 O   0  0  0  0  0  0  0  0  0  0  0  0
   -3.1190    0.9440   -1.3100 H   0  0  0  0  0  0  0  0  0  0  0  0
   -4.8810    0.7390   -1.2350 H   0  0  0  0  0  0  0  0  0  0  0  0
   -3.9620    0.7140    0.2950 H   0  0  0  0  0  0  0  0  0  0  0  0
   -4.6680   -1.5770   -1.0430 H   0  0  0  0  0  0  0  0  0  0  0  0
   -3.4350   -1.6450   -2.9900 H   0  0  0  0  0  0  0  0  0  0  0  0
   -2.0790   -2.1550   -1.9280 H   0  0  0  0  0  0  0  0  0  0  0  0
   -2.2820   -0.4430   -2.3540 H   0  0  0  0  0  0  0  0  0  0  0  0
   -3.8430   -1.4510    1.1730 H   0  0  0  0  0  0  0  0  0  0  0  0
   -1.0310   -1.1190    0.0520 H   0  0  0  0  0  0  0  0  0  0  0  0
  1 10  1  0  0  0  0
  1  9  1  0  0  0  0
  1 11  1  0  0  0  0
  2  1  1  0  0  0  0
  3  4  1  0  0  0  0
  3  2  1  0  0  0  0
  3 12  1  0  0  0  0
  4  5  1  0  0  0  0
  5 16  1  6  0  0  0
  5  6  1  0  0  0  0
  5  7  1  0  0  0  0
  6 17  1  0  0  0  0
  7  8  2  0  0  0  0
 13  3  1  0  0  0  0
 14  4  1  0  0  0  0
 15  4  1  0  0  0  0
 18  6  1  0  0  0  0
 19  7  1  0  0  0  0
 19 20  1  0  0  0  0
 20 21  1  0  0  0  0
 20 30  1  1  0  0  0
 21 22  1  0  0  0  0
 21 31  1  0  0  0  0
 22 26  1  0  0  0  0
 22 23  2  0  0  0  0
 23 33  1  0  0  0  0
 23 24  1  0  0  0  0
 24 34  1  0  0  0  0
 25 24  1  0  0  0  0
 25 35  1  0  0  0  0
 26 25  2  0  0  0  0
 27 20  1  0  0  0  0
 27 28  2  0  0  0  0
 29 19  1  0  0  0  0
 32 21  1  0  0  0  0
 36 46  1  0  0  0  0
 37 36  1  0  0  0  0
 37 39  1  0  0  0  0
 38 49  1  0  0  0  0
 38 37  1  0  0  0  0
 39 40  1  0  0  0  0
 39 51  1  1  0  0  0
 40 27  1  0  0  0  0
 41 39  1  0  0  0  0
 41 42  1  0  0  0  0
 43 41  2  0  0  0  0
 44 36  1  0  0  0  0
 45 36  1  0  0  0  0
 47 37  1  0  0  0  0
 48 38  1  0  0  0  0
 50 38  1  0  0  0  0
 52 40  1  0  0  0  0
M  END
$$$$
