MIA.pdb
 OpenBabel07022418553D

 48 47  0  0  1  0  0  0  0  0999 V2000
    4.5820   -0.7210    4.8860 C   0  0  0  0  0  0  0  0  0  0  0  0
    2.9560   -1.1560    5.5470 S   0  0  0  0  0  0  0  0  0  0  0  0
    1.6650   -0.9090    4.2950 C   0  0  0  0  0  0  0  0  0  0  0  0
    1.5710    0.5680    4.0060 C   0  0  0  0  0  0  0  0  0  0  0  0
    0.5180    0.8810    2.9690 C   0  0  2  0  0  0  0  0  0  0  0  0
   -0.7940    0.4630    3.3720 N   0  0  0  0  0  0  0  0  0  0  0  0
    0.8560    0.3060    1.6430 C   0  0  0  0  0  0  0  0  0  0  0  0
    1.9870    0.5820    1.1380 O   0  0  0  0  0  0  0  0  0  0  0  0
    4.4470   -0.3780    3.8260 H   0  0  0  0  0  0  0  0  0  0  0  0
    5.0520    0.1160    5.4260 H   0  0  0  0  0  0  0  0  0  0  0  0
    5.2540   -1.6070    4.8550 H   0  0  0  0  0  0  0  0  0  0  0  0
    0.7200   -1.3590    4.5950 H   0  0  0  0  0  0  0  0  0  0  0  0
    2.0260   -1.3960    3.3640 H   0  0  0  0  0  0  0  0  0  0  0  0
    2.5490    0.9140    3.6580 H   0  0  0  0  0  0  0  0  0  0  0  0
    1.3210    1.1330    4.9270 H   0  0  0  0  0  0  0  0  0  0  0  0
    0.4980    2.0000    2.8810 H   0  0  0  0  0  0  0  0  0  0  0  0
   -1.5590    0.8920    2.8440 H   0  0  0  0  0  0  0  0  0  0  0  0
   -0.9140    0.5080    4.4100 H   0  0  0  0  0  0  0  0  0  0  0  0
    1.9960   -2.7780   -2.0300 C   0  0  0  0  0  0  0  0  0  0  0  0
    0.7120   -3.2830   -1.4080 C   0  0  0  0  0  0  0  0  0  0  0  0
    0.3390   -2.5700   -0.1520 C   0  0  2  0  0  0  0  0  0  0  0  0
   -0.9570   -3.1190    0.4450 C   0  0  0  0  0  0  0  0  0  0  0  0
    0.2700   -1.0760   -0.3080 C   0  0  2  0  0  0  0  0  0  0  0  0
   -0.0890   -0.5220    1.0000 N   0  0  0  0  0  0  0  0  0  0  0  0
   -0.6670   -0.6000   -1.3450 C   0  0  0  0  0  0  0  0  0  0  0  0
   -0.5540   -0.9280   -2.5430 O   0  0  0  0  0  0  0  0  0  0  0  0
    1.8530   -2.1410   -2.9130 H   0  0  0  0  0  0  0  0  0  0  0  0
    2.5080   -2.1450   -1.2550 H   0  0  0  0  0  0  0  0  0  0  0  0
    2.6540   -3.6230   -2.3380 H   0  0  0  0  0  0  0  0  0  0  0  0
   -0.0920   -3.1480   -2.1620 H   0  0  0  0  0  0  0  0  0  0  0  0
    0.7710   -4.3920   -1.2630 H   0  0  0  0  0  0  0  0  0  0  0  0
    1.1260   -2.7730    0.6040 H   0  0  0  0  0  0  0  0  0  0  0  0
   -1.0050   -4.2220    0.3290 H   0  0  0  0  0  0  0  0  0  0  0  0
   -1.8420   -2.7090   -0.0770 H   0  0  0  0  0  0  0  0  0  0  0  0
   -0.9970   -2.9300    1.5460 H   0  0  0  0  0  0  0  0  0  0  0  0
    1.2740   -0.7060   -0.5510 H   0  0  0  0  0  0  0  0  0  0  0  0
   -1.0290   -0.7820    1.3640 H   0  0  0  0  0  0  0  0  0  0  0  0
   -4.0600    0.1320   -1.7660 C   0  0  0  0  0  0  0  0  0  0  0  0
   -2.6850    0.7370   -2.0470 C   0  0  2  0  0  0  0  0  0  0  0  0
   -1.7730    0.2740   -1.0450 N   0  0  0  0  0  0  0  0  0  0  0  0
   -2.7950    2.1910   -2.1340 C   0  0  0  0  0  0  0  0  0  0  0  0
   -2.1290    2.9290   -1.3720 O   0  0  0  0  0  0  0  0  0  0  0  0
   -3.6330    2.7940   -3.0520 O   0  0  0  0  0  0  0  0  0  0  0  0
   -4.4390    0.6220   -0.8400 H   0  0  0  0  0  0  0  0  0  0  0  0
   -4.7390    0.2540   -2.6180 H   0  0  0  0  0  0  0  0  0  0  0  0
   -3.8590   -0.9450   -1.5280 H   0  0  0  0  0  0  0  0  0  0  0  0
   -2.3550    0.2850   -3.0210 H   0  0  0  0  0  0  0  0  0  0  0  0
   -1.8580    0.5440   -0.0260 H   0  0  0  0  0  0  0  0  0  0  0  0
  1 10  1  0  0  0  0
  1  2  1  0  0  0  0
  3 12  1  0  0  0  0
  3  2  1  0  0  0  0
  4  3  1  0  0  0  0
  4 15  1  0  0  0  0
  5 16  1  6  0  0  0
  5  6  1  0  0  0  0
  5  4  1  0  0  0  0
  6 18  1  0  0  0  0
  7  5  1  0  0  0  0
  8  7  2  0  0  0  0
  9  1  1  0  0  0  0
 11  1  1  0  0  0  0
 13  3  1  0  0  0  0
 14  4  1  0  0  0  0
 17  6  1  0  0  0  0
 19 20  1  0  0  0  0
 19 28  1  0  0  0  0
 20 31  1  0  0  0  0
 20 21  1  0  0  0  0
 21 22  1  0  0  0  0
 21 32  1  1  0  0  0
 22 35  1  0  0  0  0
 23 36  1  6  0  0  0
 23 21  1  0  0  0  0
 23 24  1  0  0  0  0
 24 37  1  0  0  0  0
 24  7  1  0  0  0  0
 25 40  1  0  0  0  0
 25 23  1  0  0  0  0
 26 25  2  0  0  0  0
 27 19  1  0  0  0  0
 29 19  1  0  0  0  0
 30 20  1  0  0  0  0
 33 22  1  0  0  0  0
 34 22  1  0  0  0  0
 38 46  1  0  0  0  0
 38 44  1  0  0  0  0
 39 47  1  6  0  0  0
 39 38  1  0  0  0  0
 39 40  1  0  0  0  0
 40 48  1  0  0  0  0
 41 39  1  0  0  0  0
 41 42  1  0  0  0  0
 43 41  2  0  0  0  0
 45 38  1  0  0  0  0
M  END
$$$$
