MID.pdb
 OpenBabel07022418553D

 51 50  0  0  1  0  0  0  0  0999 V2000
    3.8400   -4.8440    0.1050 C   0  0  0  0  0  0  0  0  0  0  0  0
    4.1750   -3.4770   -1.0620 S   0  0  0  0  0  0  0  0  0  0  0  0
    3.5940   -1.9490   -0.2620 C   0  0  0  0  0  0  0  0  0  0  0  0
    3.8160   -0.7480   -1.1140 C   0  0  0  0  0  0  0  0  0  0  0  0
    3.3230    0.4780   -0.4090 C   0  0  2  0  0  0  0  0  0  0  0  0
    4.0080    0.6340    0.8690 N   0  0  0  0  0  0  0  0  0  0  0  0
    1.8510    0.4310   -0.2590 C   0  0  0  0  0  0  0  0  0  0  0  0
    1.1620    0.4190   -1.3200 O   0  0  0  0  0  0  0  0  0  0  0  0
    2.7410   -4.9900    0.1300 H   0  0  0  0  0  0  0  0  0  0  0  0
    4.3610   -5.7590   -0.1940 H   0  0  0  0  0  0  0  0  0  0  0  0
    4.1530   -4.4880    1.1100 H   0  0  0  0  0  0  0  0  0  0  0  0
    4.1680   -1.8400    0.6870 H   0  0  0  0  0  0  0  0  0  0  0  0
    2.5530   -2.0940   -0.0330 H   0  0  0  0  0  0  0  0  0  0  0  0
    3.2190   -0.8530   -2.0480 H   0  0  0  0  0  0  0  0  0  0  0  0
    4.8830   -0.6570   -1.4140 H   0  0  0  0  0  0  0  0  0  0  0  0
    3.5640    1.3890   -1.0410 H   0  0  0  0  0  0  0  0  0  0  0  0
    4.2050    1.6510    1.0170 H   0  0  0  0  0  0  0  0  0  0  0  0
    4.9590    0.1710    0.8410 H   0  0  0  0  0  0  0  0  0  0  0  0
   -0.4530    2.7980    2.9900 C   0  0  0  0  0  0  0  0  0  0  0  0
   -0.0980    2.8680    1.5440 C   0  0  0  0  0  0  0  0  0  0  0  0
   -0.7170    1.7330    0.7480 C   0  0  2  0  0  0  0  0  0  0  0  0
   -2.2040    1.8640    0.9170 C   0  0  0  0  0  0  0  0  0  0  0  0
   -0.1720    0.3940    1.2040 C   0  0  2  0  0  0  0  0  0  0  0  0
    1.2710    0.4090    1.0170 N   0  0  0  0  0  0  0  0  0  0  0  0
   -0.7380   -0.7710    0.5500 C   0  0  0  0  0  0  0  0  0  0  0  0
   -0.0220   -1.5290   -0.1560 O   0  0  0  0  0  0  0  0  0  0  0  0
    0.4570    2.7760    3.6430 H   0  0  0  0  0  0  0  0  0  0  0  0
   -1.1070    1.9480    3.2510 H   0  0  0  0  0  0  0  0  0  0  0  0
   -1.0400    3.7070    3.3180 H   0  0  0  0  0  0  0  0  0  0  0  0
    1.0080    2.9210    1.3680 H   0  0  0  0  0  0  0  0  0  0  0  0
   -0.5140    3.8080    1.1230 H   0  0  0  0  0  0  0  0  0  0  0  0
   -0.4740    1.8460   -0.3170 H   0  0  0  0  0  0  0  0  0  0  0  0
   -2.4000    2.9880    0.8650 H   0  0  0  0  0  0  0  0  0  0  0  0
   -2.5560    1.5440    1.8980 H   0  0  0  0  0  0  0  0  0  0  0  0
   -2.7830    1.4180    0.0730 H   0  0  0  0  0  0  0  0  0  0  0  0
   -0.4100    0.3080    2.3000 H   0  0  0  0  0  0  0  0  0  0  0  0
    1.8890    0.4020    1.8840 H   0  0  0  0  0  0  0  0  0  0  0  0
   -2.0910   -1.2180    0.5980 N   0  0  0  0  0  0  0  0  0  0  0  0
   -2.5920   -2.3540   -0.0560 C   0  0  1  0  0  0  0  0  0  0  0  0
   -3.1780   -3.4430    0.7630 C   0  0  0  0  0  0  0  0  0  0  0  0
   -4.3410   -3.0510    1.5970 C   0  0  0  0  0  0  0  0  0  0  0  0
   -5.5020   -2.8630    1.1510 O   0  0  0  0  0  0  0  0  0  0  0  0
   -3.5720   -1.9590   -1.0920 C   0  0  0  0  0  0  0  0  0  0  0  0
   -3.8220   -0.7420   -1.2570 O   0  0  0  0  0  0  0  0  0  0  0  0
   -4.1800   -2.8690    2.9680 O   0  0  0  0  0  0  0  0  0  0  0  0
   -4.2440   -2.8620   -1.9090 O   0  0  0  0  0  0  0  0  0  0  0  0
   -2.7520   -0.6610    1.1730 H   0  0  0  0  0  0  0  0  0  0  0  0
   -1.7350   -2.8250   -0.6280 H   0  0  0  0  0  0  0  0  0  0  0  0
   -2.4350   -4.0350    1.3420 H   0  0  0  0  0  0  0  0  0  0  0  0
   -3.5770   -4.1990    0.0190 H   0  0  0  0  0  0  0  0  0  0  0  0
   -4.9230   -3.1000    3.6440 H   0  0  0  0  0  0  0  0  0  0  0  0
  1  9  1  0  0  0  0
  1 11  1  0  0  0  0
  2  3  1  0  0  0  0
  2  1  1  0  0  0  0
  3 13  1  0  0  0  0
  3 12  1  0  0  0  0
  4  5  1  0  0  0  0
  4  3  1  0  0  0  0
  5 16  1  6  0  0  0
  5  7  1  0  0  0  0
  5  6  1  0  0  0  0
  6 17  1  0  0  0  0
  7 24  1  0  0  0  0
  8  7  2  0  0  0  0
 10  1  1  0  0  0  0
 14  4  1  0  0  0  0
 15  4  1  0  0  0  0
 18  6  1  0  0  0  0
 19 28  1  0  0  0  0
 19 29  1  0  0  0  0
 19 27  1  0  0  0  0
 20 19  1  0  0  0  0
 21 32  1  6  0  0  0
 21 22  1  0  0  0  0
 21 23  1  0  0  0  0
 21 20  1  0  0  0  0
 22 34  1  0  0  0  0
 23 36  1  1  0  0  0
 24 23  1  0  0  0  0
 24 37  1  0  0  0  0
 25 38  1  0  0  0  0
 25 23  1  0  0  0  0
 26 25  2  0  0  0  0
 30 20  1  0  0  0  0
 31 20  1  0  0  0  0
 33 22  1  0  0  0  0
 35 22  1  0  0  0  0
 38 47  1  0  0  0  0
 39 48  1  6  0  0  0
 39 38  1  0  0  0  0
 39 40  1  0  0  0  0
 40 49  1  0  0  0  0
 40 41  1  0  0  0  0
 41 45  1  0  0  0  0
 42 41  2  0  0  0  0
 43 39  1  0  0  0  0
 44 43  1  0  0  0  0
 45 51  1  0  0  0  0
 46 43  2  0  0  0  0
 50 40  1  0  0  0  0
M  END
$$$$
