MIE.pdb
 OpenBabel07022418553D

 54 53  0  0  1  0  0  0  0  0999 V2000
    1.8260   -5.2860    1.6020 C   0  0  0  0  0  0  0  0  0  0  0  0
    3.0990   -4.6030    0.5080 S   0  0  0  0  0  0  0  0  0  0  0  0
    2.9810   -2.7700    0.4620 C   0  0  0  0  0  0  0  0  0  0  0  0
    3.3350   -2.2850    1.8150 C   0  0  0  0  0  0  0  0  0  0  0  0
    3.3280   -0.8130    2.0400 C   0  0  2  0  0  0  0  0  0  0  0  0
    3.7230   -0.6480    3.4650 N   0  0  0  0  0  0  0  0  0  0  0  0
    2.0120   -0.1550    1.8450 C   0  0  0  0  0  0  0  0  0  0  0  0
    1.3330    0.2580    2.8520 O   0  0  0  0  0  0  0  0  0  0  0  0
    1.7770   -4.7940    2.5760 H   0  0  0  0  0  0  0  0  0  0  0  0
    2.0760   -6.3530    1.7670 H   0  0  0  0  0  0  0  0  0  0  0  0
    0.8330   -5.2790    1.0860 H   0  0  0  0  0  0  0  0  0  0  0  0
    3.6640   -2.4400   -0.3290 H   0  0  0  0  0  0  0  0  0  0  0  0
    1.9500   -2.5250    0.1430 H   0  0  0  0  0  0  0  0  0  0  0  0
    2.6960   -2.8160    2.5680 H   0  0  0  0  0  0  0  0  0  0  0  0
    4.3780   -2.6390    2.0600 H   0  0  0  0  0  0  0  0  0  0  0  0
    4.0940   -0.2990    1.4610 H   0  0  0  0  0  0  0  0  0  0  0  0
    3.7730    0.3530    3.7170 H   0  0  0  0  0  0  0  0  0  0  0  0
    4.5890   -1.1900    3.6340 H   0  0  0  0  0  0  0  0  0  0  0  0
    0.8540    3.4210    1.7200 C   0  0  0  0  0  0  0  0  0  0  0  0
    1.2890    2.9170    0.3840 C   0  0  0  0  0  0  0  0  0  0  0  0
    0.2910    2.0240   -0.3070 C   0  0  2  0  0  0  0  0  0  0  0  0
   -0.9580    2.8080   -0.4950 C   0  0  0  0  0  0  0  0  0  0  0  0
    0.0810    0.7480    0.4940 C   0  0  2  0  0  0  0  0  0  0  0  0
    1.3950    0.0800    0.5940 N   0  0  0  0  0  0  0  0  0  0  0  0
   -0.7920   -0.2040   -0.2540 C   0  0  0  0  0  0  0  0  0  0  0  0
   -0.3090   -1.2900   -0.7400 O   0  0  0  0  0  0  0  0  0  0  0  0
    0.2760    2.7370    2.3360 H   0  0  0  0  0  0  0  0  0  0  0  0
    0.2140    4.3180    1.5480 H   0  0  0  0  0  0  0  0  0  0  0  0
    1.7640    3.7050    2.2950 H   0  0  0  0  0  0  0  0  0  0  0  0
    1.4350    3.8040   -0.2760 H   0  0  0  0  0  0  0  0  0  0  0  0
    2.2710    2.3990    0.4120 H   0  0  0  0  0  0  0  0  0  0  0  0
    0.7050    1.7900   -1.3130 H   0  0  0  0  0  0  0  0  0  0  0  0
   -1.5360    2.8410    0.4350 H   0  0  0  0  0  0  0  0  0  0  0  0
   -1.4940    2.4600   -1.3900 H   0  0  0  0  0  0  0  0  0  0  0  0
   -0.6710    3.8670   -0.7290 H   0  0  0  0  0  0  0  0  0  0  0  0
   -0.3330    1.0190    1.4590 H   0  0  0  0  0  0  0  0  0  0  0  0
    1.8620   -0.2080   -0.2800 H   0  0  0  0  0  0  0  0  0  0  0  0
   -2.1680   -0.0180   -0.4900 N   0  0  0  0  0  0  0  0  0  0  0  0
   -2.9380   -0.9840   -1.2240 C   0  0  1  0  0  0  0  0  0  0  0  0
   -4.1470   -1.4660   -0.5010 C   0  0  0  0  0  0  0  0  0  0  0  0
   -3.9110   -2.1350    0.8040 C   0  0  0  0  0  0  0  0  0  0  0  0
   -3.0830   -3.3410    0.7540 C   0  0  0  0  0  0  0  0  0  0  0  0
   -2.8590   -3.9090    1.8760 O   0  0  0  0  0  0  0  0  0  0  0  0
   -3.4390   -0.3930   -2.5190 C   0  0  0  0  0  0  0  0  0  0  0  0
   -3.1800    0.7880   -2.8450 O   0  0  0  0  0  0  0  0  0  0  0  0
   -2.5670   -3.8500   -0.4050 O   0  0  0  0  0  0  0  0  0  0  0  0
   -4.2070   -1.1450   -3.3930 O   0  0  0  0  0  0  0  0  0  0  0  0
   -2.6380    0.8260   -0.1220 H   0  0  0  0  0  0  0  0  0  0  0  0
   -2.3040   -1.8420   -1.5470 H   0  0  0  0  0  0  0  0  0  0  0  0
   -4.8190   -0.6060   -0.3330 H   0  0  0  0  0  0  0  0  0  0  0  0
   -4.6620   -2.2060   -1.1680 H   0  0  0  0  0  0  0  0  0  0  0  0
   -4.9230   -2.4570    1.1860 H   0  0  0  0  0  0  0  0  0  0  0  0
   -3.5150   -1.4620    1.5910 H   0  0  0  0  0  0  0  0  0  0  0  0
   -2.1520   -4.7890   -0.3540 H   0  0  0  0  0  0  0  0  0  0  0  0
  1 10  1  0  0  0  0
  1  9  1  0  0  0  0
  2  1  1  0  0  0  0
  3  2  1  0  0  0  0
  3  4  1  0  0  0  0
  4  5  1  0  0  0  0
  4 15  1  0  0  0  0
  4 14  1  0  0  0  0
  5 16  1  6  0  0  0
  5  6  1  0  0  0  0
  6 18  1  0  0  0  0
  6 17  1  0  0  0  0
  7  5  1  0  0  0  0
  7  8  2  0  0  0  0
 11  1  1  0  0  0  0
 12  3  1  0  0  0  0
 13  3  1  0  0  0  0
 19 29  1  0  0  0  0
 19 27  1  0  0  0  0
 20 31  1  0  0  0  0
 20 19  1  0  0  0  0
 21 32  1  6  0  0  0
 21 20  1  0  0  0  0
 21 23  1  0  0  0  0
 22 21  1  0  0  0  0
 22 33  1  0  0  0  0
 23 24  1  0  0  0  0
 23 36  1  1  0  0  0
 24  7  1  0  0  0  0
 25 23  1  0  0  0  0
 26 25  2  0  0  0  0
 28 19  1  0  0  0  0
 30 20  1  0  0  0  0
 34 22  1  0  0  0  0
 35 22  1  0  0  0  0
 37 24  1  0  0  0  0
 38 25  1  0  0  0  0
 38 48  1  0  0  0  0
 39 49  1  6  0  0  0
 39 40  1  0  0  0  0
 39 38  1  0  0  0  0
 40 50  1  0  0  0  0
 40 41  1  0  0  0  0
 41 52  1  0  0  0  0
 41 53  1  0  0  0  0
 42 41  1  0  0  0  0
 42 43  2  0  0  0  0
 44 39  1  0  0  0  0
 45 44  1  0  0  0  0
 46 54  1  0  0  0  0
 46 42  1  0  0  0  0
 47 44  2  0  0  0  0
 51 40  1  0  0  0  0
M  END
$$$$
