MIG.pdb
 OpenBabel07022418553D

 45 44  0  0  1  0  0  0  0  0999 V2000
    4.6540   -2.2400    3.8190 C   0  0  0  0  0  0  0  0  0  0  0  0
    4.9780   -3.4490    2.4960 S   0  0  0  0  0  0  0  0  0  0  0  0
    3.3440   -3.9880    1.8660 C   0  0  0  0  0  0  0  0  0  0  0  0
    2.6620   -2.8150    1.1940 C   0  0  0  0  0  0  0  0  0  0  0  0
    1.3420   -3.2590    0.6870 C   0  0  2  0  0  0  0  0  0  0  0  0
    1.5440   -4.3330   -0.2670 N   0  0  0  0  0  0  0  0  0  0  0  0
    0.5080   -2.1810    0.1180 C   0  0  0  0  0  0  0  0  0  0  0  0
    0.0930   -2.3230   -1.0660 O   0  0  0  0  0  0  0  0  0  0  0  0
    4.6340   -1.2260    3.3560 H   0  0  0  0  0  0  0  0  0  0  0  0
    3.6680   -2.4700    4.2770 H   0  0  0  0  0  0  0  0  0  0  0  0
    5.4600   -2.2560    4.5890 H   0  0  0  0  0  0  0  0  0  0  0  0
    2.7240   -4.3780    2.6920 H   0  0  0  0  0  0  0  0  0  0  0  0
    3.5340   -4.8140    1.1590 H   0  0  0  0  0  0  0  0  0  0  0  0
    3.3250   -2.4680    0.3620 H   0  0  0  0  0  0  0  0  0  0  0  0
    2.6230   -2.0010    1.9370 H   0  0  0  0  0  0  0  0  0  0  0  0
    0.7650   -3.7010    1.5380 H   0  0  0  0  0  0  0  0  0  0  0  0
    0.8350   -4.3570   -1.0200 H   0  0  0  0  0  0  0  0  0  0  0  0
    2.5220   -4.4040   -0.5990 H   0  0  0  0  0  0  0  0  0  0  0  0
   -3.2780   -1.5740   -0.0480 C   0  0  0  0  0  0  0  0  0  0  0  0
   -2.6260   -1.1680    1.2320 C   0  0  0  0  0  0  0  0  0  0  0  0
   -1.8870    0.1430    1.1540 C   0  0  2  0  0  0  0  0  0  0  0  0
   -2.8610    1.2360    0.7730 C   0  0  0  0  0  0  0  0  0  0  0  0
   -0.6960    0.0570    0.2050 C   0  0  2  0  0  0  0  0  0  0  0  0
    0.1430   -1.0120    0.7960 N   0  0  0  0  0  0  0  0  0  0  0  0
    0.0750    1.3320    0.2480 C   0  0  0  0  0  0  0  0  0  0  0  0
    1.2160    1.3790    0.8210 O   0  0  0  0  0  0  0  0  0  0  0  0
   -4.0860   -2.3140    0.2190 H   0  0  0  0  0  0  0  0  0  0  0  0
   -2.6260   -2.0980   -0.7590 H   0  0  0  0  0  0  0  0  0  0  0  0
   -3.8360   -0.7260   -0.5310 H   0  0  0  0  0  0  0  0  0  0  0  0
   -1.9700   -2.0020    1.5560 H   0  0  0  0  0  0  0  0  0  0  0  0
   -3.4130   -1.0700    2.0080 H   0  0  0  0  0  0  0  0  0  0  0  0
   -1.5350    0.3730    2.1810 H   0  0  0  0  0  0  0  0  0  0  0  0
   -3.1330    1.2450   -0.2890 H   0  0  0  0  0  0  0  0  0  0  0  0
   -3.8410    1.0320    1.3060 H   0  0  0  0  0  0  0  0  0  0  0  0
   -2.5520    2.2380    1.1430 H   0  0  0  0  0  0  0  0  0  0  0  0
   -1.0150   -0.1770   -0.8040 H   0  0  0  0  0  0  0  0  0  0  0  0
    0.4580   -0.8560    1.7570 H   0  0  0  0  0  0  0  0  0  0  0  0
   -0.3490    2.5600   -0.3130 N   0  0  0  0  0  0  0  0  0  0  0  0
    0.4680    3.7700   -0.2250 C   0  0  0  0  0  0  0  0  0  0  0  0
   -0.2820    4.8490   -0.9120 C   0  0  0  0  0  0  0  0  0  0  0  0
    0.2320    5.9980   -0.9620 O   0  0  0  0  0  0  0  0  0  0  0  0
   -1.5200    4.6830   -1.5090 O   0  0  0  0  0  0  0  0  0  0  0  0
   -1.2560    2.5880   -0.8020 H   0  0  0  0  0  0  0  0  0  0  0  0
    1.4250    3.6440   -0.7810 H   0  0  0  0  0  0  0  0  0  0  0  0
    0.6400    4.0710    0.8320 H   0  0  0  0  0  0  0  0  0  0  0  0
  1 10  1  0  0  0  0
  1 11  1  0  0  0  0
  2  1  1  0  0  0  0
  3  2  1  0  0  0  0
  3 12  1  0  0  0  0
  4  3  1  0  0  0  0
  4 15  1  0  0  0  0
  5  4  1  0  0  0  0
  5 16  1  1  0  0  0
  6  5  1  0  0  0  0
  7  5  1  0  0  0  0
  7 24  1  0  0  0  0
  8  7  2  0  0  0  0
  9  1  1  0  0  0  0
 13  3  1  0  0  0  0
 14  4  1  0  0  0  0
 17  6  1  0  0  0  0
 18  6  1  0  0  0  0
 19 27  1  0  0  0  0
 19 20  1  0  0  0  0
 20 30  1  0  0  0  0
 20 31  1  0  0  0  0
 21 20  1  0  0  0  0
 21 32  1  1  0  0  0
 22 35  1  0  0  0  0
 22 21  1  0  0  0  0
 22 34  1  0  0  0  0
 23 36  1  6  0  0  0
 23 25  1  0  0  0  0
 23 24  1  0  0  0  0
 23 21  1  0  0  0  0
 24 37  1  0  0  0  0
 25 26  2  0  0  0  0
 28 19  1  0  0  0  0
 29 19  1  0  0  0  0
 33 22  1  0  0  0  0
 38 39  1  0  0  0  0
 38 25  1  0  0  0  0
 39 45  1  0  0  0  0
 40 39  1  0  0  0  0
 41 40  1  0  0  0  0
 42 40  2  0  0  0  0
 43 38  1  0  0  0  0
 44 39  1  0  0  0  0
M  END
$$$$
