MIH.pdb
 OpenBabel07022418553D

 55 55  0  0  1  0  0  0  0  0999 V2000
    1.3160   -4.4410    0.6640 C   0  0  0  0  0  0  0  0  0  0  0  0
    2.0180   -2.8570    1.1800 S   0  0  0  0  0  0  0  0  0  0  0  0
    3.3930   -2.3720    0.0720 C   0  0  0  0  0  0  0  0  0  0  0  0
    4.0280   -1.1360    0.5840 C   0  0  0  0  0  0  0  0  0  0  0  0
    3.1230    0.0860    0.6530 C   0  0  2  0  0  0  0  0  0  0  0  0
    3.9880    1.1500    1.2250 N   0  0  0  0  0  0  0  0  0  0  0  0
    2.0140   -0.1450    1.5690 C   0  0  0  0  0  0  0  0  0  0  0  0
    2.2250   -0.4050    2.7660 O   0  0  0  0  0  0  0  0  0  0  0  0
    1.7770   -5.2950    1.2410 H   0  0  0  0  0  0  0  0  0  0  0  0
    0.2320   -4.4240    0.8920 H   0  0  0  0  0  0  0  0  0  0  0  0
    1.4290   -4.6020   -0.4250 H   0  0  0  0  0  0  0  0  0  0  0  0
    4.1260   -3.2030    0.1310 H   0  0  0  0  0  0  0  0  0  0  0  0
    3.0640   -2.3250   -0.9740 H   0  0  0  0  0  0  0  0  0  0  0  0
    4.4440   -1.3390    1.6150 H   0  0  0  0  0  0  0  0  0  0  0  0
    4.9310   -0.8410   -0.0100 H   0  0  0  0  0  0  0  0  0  0  0  0
    2.7700    0.3690   -0.3400 H   0  0  0  0  0  0  0  0  0  0  0  0
    4.8530    1.2560    0.6790 H   0  0  0  0  0  0  0  0  0  0  0  0
    4.2410    0.9030    2.2030 H   0  0  0  0  0  0  0  0  0  0  0  0
    0.7230    2.6560    2.3070 C   0  0  0  0  0  0  0  0  0  0  0  0
   -0.2830    1.9780    3.1660 C   0  0  0  0  0  0  0  0  0  0  0  0
   -1.1420    0.9560    2.5300 C   0  0  2  0  0  0  0  0  0  0  0  0
   -2.0990    0.4540    3.6370 C   0  0  0  0  0  0  0  0  0  0  0  0
   -0.4170   -0.3230    2.0910 C   0  0  2  0  0  0  0  0  0  0  0  0
    0.6280   -0.0800    1.1520 N   0  0  0  0  0  0  0  0  0  0  0  0
   -1.4860   -1.1160    1.4340 C   0  0  0  0  0  0  0  0  0  0  0  0
   -2.4680   -1.5400    2.1400 O   0  0  0  0  0  0  0  0  0  0  0  0
    0.5510    3.7620    2.3050 H   0  0  0  0  0  0  0  0  0  0  0  0
    1.7370    2.4500    2.7040 H   0  0  0  0  0  0  0  0  0  0  0  0
    0.7130    2.3690    1.2440 H   0  0  0  0  0  0  0  0  0  0  0  0
   -0.9830    2.7730    3.5640 H   0  0  0  0  0  0  0  0  0  0  0  0
    0.2050    1.5970    4.0980 H   0  0  0  0  0  0  0  0  0  0  0  0
   -1.7500    1.3450    1.7310 H   0  0  0  0  0  0  0  0  0  0  0  0
   -3.1260    0.3490    3.2780 H   0  0  0  0  0  0  0  0  0  0  0  0
   -2.1180    1.1900    4.4910 H   0  0  0  0  0  0  0  0  0  0  0  0
   -1.7680   -0.4930    4.0750 H   0  0  0  0  0  0  0  0  0  0  0  0
   -0.0080   -0.7390    3.0090 H   0  0  0  0  0  0  0  0  0  0  0  0
    0.4630    0.1550    0.1560 H   0  0  0  0  0  0  0  0  0  0  0  0
   -1.5710   -1.4750    0.0850 N   0  0  0  0  0  0  0  0  0  0  0  0
   -2.6490   -2.2380   -0.4930 C   0  0  1  0  0  0  0  0  0  0  0  0
   -3.5720   -1.3860   -1.3390 C   0  0  0  0  0  0  0  0  0  0  0  0
   -2.8680   -0.7450   -2.4600 C   0  0  0  0  0  0  0  0  0  0  0  0
   -3.4550    0.0790   -3.3880 C   0  0  0  0  0  0  0  0  0  0  0  0
   -2.5170    0.4880   -4.2730 N   0  0  0  0  0  0  0  0  0  0  0  0
   -1.3680   -0.0910   -3.8770 C   0  0  0  0  0  0  0  0  0  0  0  0
   -1.5790   -0.8360   -2.7810 N   0  0  0  0  0  0  0  0  0  0  0  0
   -2.2410   -3.3920   -1.2950 C   0  0  0  0  0  0  0  0  0  0  0  0
   -3.1090   -4.1290   -1.7990 O   0  0  0  0  0  0  0  0  0  0  0  0
   -0.9150   -3.6700   -1.5000 O   0  0  0  0  0  0  0  0  0  0  0  0
   -0.8130   -1.1800   -0.5580 H   0  0  0  0  0  0  0  0  0  0  0  0
   -3.2820   -2.5970    0.3430 H   0  0  0  0  0  0  0  0  0  0  0  0
   -4.1640   -0.6810   -0.7180 H   0  0  0  0  0  0  0  0  0  0  0  0
   -4.3130   -2.0900   -1.7800 H   0  0  0  0  0  0  0  0  0  0  0  0
   -4.5030    0.3950   -3.4580 H   0  0  0  0  0  0  0  0  0  0  0  0
   -2.6860    1.1230   -5.0870 H   0  0  0  0  0  0  0  0  0  0  0  0
   -0.4330    0.0510   -4.3960 H   0  0  0  0  0  0  0  0  0  0  0  0
  1 10  1  0  0  0  0
  1  2  1  0  0  0  0
  1  9  1  0  0  0  0
  3 12  1  0  0  0  0
  3  4  1  0  0  0  0
  3  2  1  0  0  0  0
  4  5  1  0  0  0  0
  4 14  1  0  0  0  0
  5 16  1  6  0  0  0
  5  6  1  0  0  0  0
  5  7  1  0  0  0  0
  6 18  1  0  0  0  0
  7  8  2  0  0  0  0
 11  1  1  0  0  0  0
 13  3  1  0  0  0  0
 15  4  1  0  0  0  0
 17  6  1  0  0  0  0
 19 28  1  0  0  0  0
 19 20  1  0  0  0  0
 20 30  1  0  0  0  0
 20 31  1  0  0  0  0
 21 32  1  6  0  0  0
 21 20  1  0  0  0  0
 21 22  1  0  0  0  0
 22 35  1  0  0  0  0
 22 34  1  0  0  0  0
 23 21  1  0  0  0  0
 23 36  1  1  0  0  0
 24  7  1  0  0  0  0
 24 23  1  0  0  0  0
 25 23  1  0  0  0  0
 25 26  2  0  0  0  0
 27 19  1  0  0  0  0
 29 19  1  0  0  0  0
 33 22  1  0  0  0  0
 37 24  1  0  0  0  0
 38 25  1  0  0  0  0
 39 38  1  0  0  0  0
 39 50  1  1  0  0  0
 40 51  1  0  0  0  0
 40 39  1  0  0  0  0
 41 40  1  0  0  0  0
 42 41  2  0  0  0  0
 43 44  1  0  0  0  0
 43 42  1  0  0  0  0
 44 45  2  0  0  0  0
 45 41  1  0  0  0  0
 46 39  1  0  0  0  0
 47 46  2  0  0  0  0
 48 46  1  0  0  0  0
 49 38  1  0  0  0  0
 52 40  1  0  0  0  0
 53 42  1  0  0  0  0
 54 43  1  0  0  0  0
 55 44  1  0  0  0  0
M  END
$$$$
