MII.pdb
 OpenBabel07022418553D

 57 56  0  0  1  0  0  0  0  0999 V2000
    1.8600   -4.8290    1.8480 C   0  0  0  0  0  0  0  0  0  0  0  0
    0.6080   -4.2980    3.0820 S   0  0  0  0  0  0  0  0  0  0  0  0
    0.2480   -2.5190    2.8030 C   0  0  0  0  0  0  0  0  0  0  0  0
    1.5300   -1.7870    3.1430 C   0  0  0  0  0  0  0  0  0  0  0  0
    1.4460   -0.3170    2.9490 C   0  0  2  0  0  0  0  0  0  0  0  0
    0.4420    0.3220    3.7330 N   0  0  0  0  0  0  0  0  0  0  0  0
    1.4530    0.0890    1.5150 C   0  0  0  0  0  0  0  0  0  0  0  0
    2.1830   -0.5600    0.7340 O   0  0  0  0  0  0  0  0  0  0  0  0
    2.3590   -3.9510    1.3930 H   0  0  0  0  0  0  0  0  0  0  0  0
    2.6740   -5.4230    2.3310 H   0  0  0  0  0  0  0  0  0  0  0  0
    1.3730   -5.4240    1.0260 H   0  0  0  0  0  0  0  0  0  0  0  0
   -0.5820   -2.2010    3.4540 H   0  0  0  0  0  0  0  0  0  0  0  0
    0.0070   -2.4310    1.7270 H   0  0  0  0  0  0  0  0  0  0  0  0
    1.8290   -2.0070    4.1900 H   0  0  0  0  0  0  0  0  0  0  0  0
    2.3100   -2.2460    2.4960 H   0  0  0  0  0  0  0  0  0  0  0  0
    2.4330    0.0910    3.3430 H   0  0  0  0  0  0  0  0  0  0  0  0
    0.5820    0.0550    4.7300 H   0  0  0  0  0  0  0  0  0  0  0  0
    0.6250    1.3600    3.6800 H   0  0  0  0  0  0  0  0  0  0  0  0
    3.1600    2.6320    1.1630 C   0  0  0  0  0  0  0  0  0  0  0  0
    2.8740    2.8210   -0.2770 C   0  0  0  0  0  0  0  0  0  0  0  0
    2.1370    1.6950   -0.9730 C   0  0  2  0  0  0  0  0  0  0  0  0
    2.0220    2.1880   -2.4120 C   0  0  0  0  0  0  0  0  0  0  0  0
    0.7530    1.4890   -0.4030 C   0  0  2  0  0  0  0  0  0  0  0  0
    0.6900    1.1560    0.9830 N   0  0  0  0  0  0  0  0  0  0  0  0
   -0.1230    0.6480   -1.2380 C   0  0  0  0  0  0  0  0  0  0  0  0
   -0.1000    0.6350   -2.4820 O   0  0  0  0  0  0  0  0  0  0  0  0
    3.8100    1.7590    1.3310 H   0  0  0  0  0  0  0  0  0  0  0  0
    2.3020    2.7270    1.8410 H   0  0  0  0  0  0  0  0  0  0  0  0
    3.8130    3.5240    1.4610 H   0  0  0  0  0  0  0  0  0  0  0  0
    2.3550    3.8030   -0.4480 H   0  0  0  0  0  0  0  0  0  0  0  0
    3.8520    2.9150   -0.8270 H   0  0  0  0  0  0  0  0  0  0  0  0
    2.7130    0.7780   -0.9630 H   0  0  0  0  0  0  0  0  0  0  0  0
    1.0290    2.5600   -2.6850 H   0  0  0  0  0  0  0  0  0  0  0  0
    2.7060    3.0770   -2.5550 H   0  0  0  0  0  0  0  0  0  0  0  0
    2.4150    1.4130   -3.0830 H   0  0  0  0  0  0  0  0  0  0  0  0
    0.3160    2.5490   -0.4820 H   0  0  0  0  0  0  0  0  0  0  0  0
    0.0750    1.6960    1.6650 H   0  0  0  0  0  0  0  0  0  0  0  0
   -3.5050   -4.4430   -0.3830 C   0  0  0  0  0  0  0  0  0  0  0  0
   -3.2010   -3.2430   -1.3060 C   0  0  0  0  0  0  0  0  0  0  0  0
   -2.3200   -2.2850   -0.5520 C   0  0  2  0  0  0  0  0  0  0  0  0
   -3.0650   -1.8290    0.7210 C   0  0  0  0  0  0  0  0  0  0  0  0
   -1.9660   -1.0850   -1.3630 C   0  0  2  0  0  0  0  0  0  0  0  0
   -1.0590   -0.2060   -0.6150 N   0  0  0  0  0  0  0  0  0  0  0  0
   -3.2040   -0.2930   -1.6930 C   0  0  0  0  0  0  0  0  0  0  0  0
   -3.4130    0.8660   -1.2600 O   0  0  0  0  0  0  0  0  0  0  0  0
   -4.1420   -0.8600   -2.5070 O   0  0  0  0  0  0  0  0  0  0  0  0
   -2.7740   -4.4390    0.4320 H   0  0  0  0  0  0  0  0  0  0  0  0
   -3.5160   -5.3690   -0.9870 H   0  0  0  0  0  0  0  0  0  0  0  0
   -4.5180   -4.2800    0.0420 H   0  0  0  0  0  0  0  0  0  0  0  0
   -4.1580   -2.8480   -1.6520 H   0  0  0  0  0  0  0  0  0  0  0  0
   -2.6550   -3.6810   -2.1820 H   0  0  0  0  0  0  0  0  0  0  0  0
   -1.4080   -2.7920   -0.1850 H   0  0  0  0  0  0  0  0  0  0  0  0
   -3.7660   -2.6160    0.9840 H   0  0  0  0  0  0  0  0  0  0  0  0
   -3.6420   -0.9070    0.5080 H   0  0  0  0  0  0  0  0  0  0  0  0
   -2.3510   -1.6260    1.5220 H   0  0  0  0  0  0  0  0  0  0  0  0
   -1.5250   -1.3230   -2.3250 H   0  0  0  0  0  0  0  0  0  0  0  0
   -1.1290   -0.2310    0.4110 H   0  0  0  0  0  0  0  0  0  0  0  0
  1 10  1  0  0  0  0
  1  2  1  0  0  0  0
  3  2  1  0  0  0  0
  3  4  1  0  0  0  0
  3 12  1  0  0  0  0
  4 14  1  0  0  0  0
  5  4  1  0  0  0  0
  5 16  1  1  0  0  0
  5  6  1  0  0  0  0
  6 17  1  0  0  0  0
  7  5  1  0  0  0  0
  8  7  2  0  0  0  0
  9  1  1  0  0  0  0
 11  1  1  0  0  0  0
 13  3  1  0  0  0  0
 15  4  1  0  0  0  0
 18  6  1  0  0  0  0
 19 27  1  0  0  0  0
 19 29  1  0  0  0  0
 19 28  1  0  0  0  0
 20 19  1  0  0  0  0
 21 32  1  1  0  0  0
 21 23  1  0  0  0  0
 21 20  1  0  0  0  0
 22 21  1  0  0  0  0
 23 36  1  6  0  0  0
 23 24  1  0  0  0  0
 24  7  1  0  0  0  0
 24 37  1  0  0  0  0
 25 43  1  0  0  0  0
 25 23  1  0  0  0  0
 26 25  2  0  0  0  0
 30 20  1  0  0  0  0
 31 20  1  0  0  0  0
 33 22  1  0  0  0  0
 34 22  1  0  0  0  0
 35 22  1  0  0  0  0
 38 49  1  0  0  0  0
 38 47  1  0  0  0  0
 39 40  1  0  0  0  0
 39 38  1  0  0  0  0
 40 52  1  1  0  0  0
 40 41  1  0  0  0  0
 41 53  1  0  0  0  0
 41 55  1  0  0  0  0
 42 56  1  6  0  0  0
 42 43  1  0  0  0  0
 42 40  1  0  0  0  0
 43 57  1  0  0  0  0
 44 42  1  0  0  0  0
 44 45  1  0  0  0  0
 46 44  2  0  0  0  0
 48 38  1  0  0  0  0
 50 39  1  0  0  0  0
 51 39  1  0  0  0  0
 54 41  1  0  0  0  0
M  END
$$$$
