MIL.pdb
 OpenBabel07022418553D

 57 56  0  0  1  0  0  0  0  0999 V2000
    1.9480   -3.8660    2.1120 C   0  0  0  0  0  0  0  0  0  0  0  0
    1.8310   -2.3990    3.1730 S   0  0  0  0  0  0  0  0  0  0  0  0
    0.0880   -1.9020    3.2220 C   0  0  0  0  0  0  0  0  0  0  0  0
   -0.1130   -0.7000    4.0730 C   0  0  0  0  0  0  0  0  0  0  0  0
    0.6520    0.5180    3.6280 C   0  0  2  0  0  0  0  0  0  0  0  0
    0.3020    1.5500    4.6310 N   0  0  0  0  0  0  0  0  0  0  0  0
    0.2020    0.9490    2.3010 C   0  0  0  0  0  0  0  0  0  0  0  0
   -0.6130    1.9460    2.2160 O   0  0  0  0  0  0  0  0  0  0  0  0
    1.0140   -4.0380    1.5330 H   0  0  0  0  0  0  0  0  0  0  0  0
    2.7960   -3.8150    1.4100 H   0  0  0  0  0  0  0  0  0  0  0  0
    2.1100   -4.7420    2.7940 H   0  0  0  0  0  0  0  0  0  0  0  0
   -0.4820   -2.7450    3.6900 H   0  0  0  0  0  0  0  0  0  0  0  0
   -0.3500   -1.7510    2.2410 H   0  0  0  0  0  0  0  0  0  0  0  0
   -1.2120   -0.4400    4.0220 H   0  0  0  0  0  0  0  0  0  0  0  0
    0.1420   -0.9810    5.1310 H   0  0  0  0  0  0  0  0  0  0  0  0
    1.7180    0.3120    3.7170 H   0  0  0  0  0  0  0  0  0  0  0  0
    0.2040    1.0820    5.5670 H   0  0  0  0  0  0  0  0  0  0  0  0
    1.1680    2.1600    4.7290 H   0  0  0  0  0  0  0  0  0  0  0  0
    3.2200    0.9170    0.0440 C   0  0  0  0  0  0  0  0  0  0  0  0
    2.4000    1.2600   -1.1670 C   0  0  0  0  0  0  0  0  0  0  0  0
    1.0820    1.8580   -0.8560 C   0  0  2  0  0  0  0  0  0  0  0  0
    1.1960    3.1260   -0.0820 C   0  0  0  0  0  0  0  0  0  0  0  0
    0.0740    0.9210   -0.2040 C   0  0  2  0  0  0  0  0  0  0  0  0
    0.5610    0.4020    1.0410 N   0  0  0  0  0  0  0  0  0  0  0  0
   -0.4290   -0.0560   -1.1770 C   0  0  0  0  0  0  0  0  0  0  0  0
   -0.9020    0.3330   -2.3050 O   0  0  0  0  0  0  0  0  0  0  0  0
    4.2680    1.3300   -0.0480 H   0  0  0  0  0  0  0  0  0  0  0  0
    3.4020   -0.1950    0.1200 H   0  0  0  0  0  0  0  0  0  0  0  0
    2.8350    1.3470    0.9840 H   0  0  0  0  0  0  0  0  0  0  0  0
    2.3930    0.4190   -1.8600 H   0  0  0  0  0  0  0  0  0  0  0  0
    2.9760    2.0670   -1.7150 H   0  0  0  0  0  0  0  0  0  0  0  0
    0.6090    2.1320   -1.8460 H   0  0  0  0  0  0  0  0  0  0  0  0
    1.7210    3.0510    0.8720 H   0  0  0  0  0  0  0  0  0  0  0  0
    0.1490    3.5310    0.0400 H   0  0  0  0  0  0  0  0  0  0  0  0
    1.6920    3.8810   -0.7600 H   0  0  0  0  0  0  0  0  0  0  0  0
   -0.7970    1.6360   -0.0050 H   0  0  0  0  0  0  0  0  0  0  0  0
    1.2040   -0.4050    1.0390 H   0  0  0  0  0  0  0  0  0  0  0  0
   -3.0750   -1.4890    0.1620 C   0  0  0  0  0  0  0  0  0  0  0  0
   -3.2930   -2.3700   -1.0170 C   0  0  0  0  0  0  0  0  0  0  0  0
   -3.2490   -3.8070   -0.5130 C   0  0  0  0  0  0  0  0  0  0  0  0
   -2.4060   -2.1540   -2.1890 C   0  0  0  0  0  0  0  0  0  0  0  0
   -0.9440   -2.3530   -1.9540 C   0  0  2  0  0  0  0  0  0  0  0  0
   -0.4320   -1.4530   -0.9570 N   0  0  0  0  0  0  0  0  0  0  0  0
   -0.1970   -2.1750   -3.2190 C   0  0  0  0  0  0  0  0  0  0  0  0
   -0.5140   -2.8410   -4.2320 O   0  0  0  0  0  0  0  0  0  0  0  0
    0.8470   -1.2870   -3.3080 O   0  0  0  0  0  0  0  0  0  0  0  0
   -3.0560   -0.3970   -0.0960 H   0  0  0  0  0  0  0  0  0  0  0  0
   -3.9780   -1.6450    0.8410 H   0  0  0  0  0  0  0  0  0  0  0  0
   -2.2230   -1.7290    0.8000 H   0  0  0  0  0  0  0  0  0  0  0  0
   -4.3460   -2.1900   -1.3670 H   0  0  0  0  0  0  0  0  0  0  0  0
   -2.5460   -3.8740    0.3560 H   0  0  0  0  0  0  0  0  0  0  0  0
   -2.9850   -4.4840   -1.3280 H   0  0  0  0  0  0  0  0  0  0  0  0
   -4.2430   -4.0670   -0.1220 H   0  0  0  0  0  0  0  0  0  0  0  0
   -2.7390   -2.8500   -3.0140 H   0  0  0  0  0  0  0  0  0  0  0  0
   -2.6190   -1.1160   -2.5620 H   0  0  0  0  0  0  0  0  0  0  0  0
   -0.7580   -3.4080   -1.5690 H   0  0  0  0  0  0  0  0  0  0  0  0
   -0.0290   -1.8360   -0.0400 H   0  0  0  0  0  0  0  0  0  0  0  0
  1 11  1  0  0  0  0
  1  2  1  0  0  0  0
  2  3  1  0  0  0  0
  3 12  1  0  0  0  0
  3  4  1  0  0  0  0
  4 15  1  0  0  0  0
  5 16  1  1  0  0  0
  5  4  1  0  0  0  0
  5  6  1  0  0  0  0
  6 18  1  0  0  0  0
  6 17  1  0  0  0  0
  7  5  1  0  0  0  0
  8  7  2  0  0  0  0
  9  1  1  0  0  0  0
 10  1  1  0  0  0  0
 13  3  1  0  0  0  0
 14  4  1  0  0  0  0
 19 28  1  0  0  0  0
 19 29  1  0  0  0  0
 20 21  1  0  0  0  0
 20 19  1  0  0  0  0
 21 32  1  6  0  0  0
 21 23  1  0  0  0  0
 21 22  1  0  0  0  0
 22 34  1  0  0  0  0
 22 33  1  0  0  0  0
 23 36  1  1  0  0  0
 23 24  1  0  0  0  0
 24  7  1  0  0  0  0
 25 43  1  0  0  0  0
 25 23  1  0  0  0  0
 26 25  2  0  0  0  0
 27 19  1  0  0  0  0
 30 20  1  0  0  0  0
 31 20  1  0  0  0  0
 35 22  1  0  0  0  0
 37 24  1  0  0  0  0
 38 49  1  0  0  0  0
 38 48  1  0  0  0  0
 39 40  1  0  0  0  0
 39 38  1  0  0  0  0
 40 53  1  0  0  0  0
 40 51  1  0  0  0  0
 41 42  1  0  0  0  0
 41 39  1  0  0  0  0
 42 56  1  1  0  0  0
 42 43  1  0  0  0  0
 43 57  1  0  0  0  0
 44 42  1  0  0  0  0
 45 44  2  0  0  0  0
 46 44  1  0  0  0  0
 47 38  1  0  0  0  0
 50 39  1  0  0  0  0
 52 40  1  0  0  0  0
 54 41  1  0  0  0  0
 55 41  1  0  0  0  0
M  END
$$$$
