MIM.pdb
 OpenBabel07022418553D

 55 54  0  0  1  0  0  0  0  0999 V2000
    0.7970   -4.7040    3.3780 C   0  0  0  0  0  0  0  0  0  0  0  0
    0.3150   -3.5190    4.6590 S   0  0  0  0  0  0  0  0  0  0  0  0
   -1.2760   -2.7400    4.2820 C   0  0  0  0  0  0  0  0  0  0  0  0
   -1.1860   -1.8600    3.0460 C   0  0  0  0  0  0  0  0  0  0  0  0
   -0.1610   -0.7940    3.3380 C   0  0  2  0  0  0  0  0  0  0  0  0
   -0.5910   -0.0350    4.4750 N   0  0  0  0  0  0  0  0  0  0  0  0
    0.1800    0.0520    2.1750 C   0  0  0  0  0  0  0  0  0  0  0  0
    0.0620    1.2840    2.2160 O   0  0  0  0  0  0  0  0  0  0  0  0
    0.0530   -5.5470    3.2990 H   0  0  0  0  0  0  0  0  0  0  0  0
    0.9130   -4.2500    2.3840 H   0  0  0  0  0  0  0  0  0  0  0  0
    1.7570   -5.1600    3.6930 H   0  0  0  0  0  0  0  0  0  0  0  0
   -1.5150   -2.0610    5.1270 H   0  0  0  0  0  0  0  0  0  0  0  0
   -2.1080   -3.4690    4.2020 H   0  0  0  0  0  0  0  0  0  0  0  0
   -2.2140   -1.4300    2.9190 H   0  0  0  0  0  0  0  0  0  0  0  0
   -0.9170   -2.4970    2.1770 H   0  0  0  0  0  0  0  0  0  0  0  0
    0.7750   -1.3220    3.6280 H   0  0  0  0  0  0  0  0  0  0  0  0
   -1.5520    0.3280    4.4310 H   0  0  0  0  0  0  0  0  0  0  0  0
   -0.2920   -0.4110    5.3900 H   0  0  0  0  0  0  0  0  0  0  0  0
    4.8030    0.5280    0.0620 C   0  0  0  0  0  0  0  0  0  0  0  0
    3.3690    0.6520    0.4830 C   0  0  0  0  0  0  0  0  0  0  0  0
    2.4440    0.1540   -0.6170 C   0  0  2  0  0  0  0  0  0  0  0  0
    2.7250    1.0260   -1.8230 C   0  0  0  0  0  0  0  0  0  0  0  0
    1.0080    0.2530   -0.1950 C   0  0  2  0  0  0  0  0  0  0  0  0
    0.6610   -0.4840    0.9480 N   0  0  0  0  0  0  0  0  0  0  0  0
    0.1100   -0.0960   -1.3580 C   0  0  0  0  0  0  0  0  0  0  0  0
    0.2490    0.4400   -2.4690 O   0  0  0  0  0  0  0  0  0  0  0  0
    4.8980   -0.2290   -0.7620 H   0  0  0  0  0  0  0  0  0  0  0  0
    5.4760    0.1890    0.8720 H   0  0  0  0  0  0  0  0  0  0  0  0
    5.2110    1.5030   -0.3330 H   0  0  0  0  0  0  0  0  0  0  0  0
    3.1530    0.1630    1.4550 H   0  0  0  0  0  0  0  0  0  0  0  0
    3.1640    1.7330    0.6450 H   0  0  0  0  0  0  0  0  0  0  0  0
    2.7330   -0.8630   -0.9630 H   0  0  0  0  0  0  0  0  0  0  0  0
    3.8260    1.2320   -1.8040 H   0  0  0  0  0  0  0  0  0  0  0  0
    2.5600    0.4860   -2.7790 H   0  0  0  0  0  0  0  0  0  0  0  0
    2.2290    2.0020   -1.7660 H   0  0  0  0  0  0  0  0  0  0  0  0
    0.8130    1.3330    0.0030 H   0  0  0  0  0  0  0  0  0  0  0  0
    0.7500   -1.5380    0.9380 H   0  0  0  0  0  0  0  0  0  0  0  0
   -3.2320    1.1780    0.7390 C   0  0  0  0  0  0  0  0  0  0  0  0
   -2.5050    1.4410   -0.8920 S   0  0  0  0  0  0  0  0  0  0  0  0
   -3.3360    0.5130   -2.1780 C   0  0  0  0  0  0  0  0  0  0  0  0
   -3.1990   -0.9640   -2.0740 C   0  0  0  0  0  0  0  0  0  0  0  0
   -1.8160   -1.5030   -2.1440 C   0  0  2  0  0  0  0  0  0  0  0  0
   -0.9040   -1.0550   -1.1490 N   0  0  0  0  0  0  0  0  0  0  0  0
   -1.2850   -1.6500   -3.5120 C   0  0  0  0  0  0  0  0  0  0  0  0
   -0.0860   -1.5520   -3.7670 O   0  0  0  0  0  0  0  0  0  0  0  0
   -2.1790   -1.9090   -4.5400 O   0  0  0  0  0  0  0  0  0  0  0  0
   -2.6960    0.4520    1.3590 H   0  0  0  0  0  0  0  0  0  0  0  0
   -4.3210    0.9100    0.6580 H   0  0  0  0  0  0  0  0  0  0  0  0
   -3.2240    2.1640    1.2550 H   0  0  0  0  0  0  0  0  0  0  0  0
   -4.4360    0.7500   -2.1270 H   0  0  0  0  0  0  0  0  0  0  0  0
   -2.9690    0.8220   -3.1780 H   0  0  0  0  0  0  0  0  0  0  0  0
   -3.7640   -1.4190   -2.9390 H   0  0  0  0  0  0  0  0  0  0  0  0
   -3.7630   -1.3180   -1.1750 H   0  0  0  0  0  0  0  0  0  0  0  0
   -1.9550   -2.6430   -1.8640 H   0  0  0  0  0  0  0  0  0  0  0  0
   -1.0240   -1.4920   -0.1750 H   0  0  0  0  0  0  0  0  0  0  0  0
  1 11  1  0  0  0  0
  1  2  1  0  0  0  0
  3  2  1  0  0  0  0
  3 12  1  0  0  0  0
  4  5  1  0  0  0  0
  4  3  1  0  0  0  0
  5 16  1  1  0  0  0
  5  6  1  0  0  0  0
  6 18  1  0  0  0  0
  7  8  2  0  0  0  0
  7  5  1  0  0  0  0
  9  1  1  0  0  0  0
 10  1  1  0  0  0  0
 13  3  1  0  0  0  0
 14  4  1  0  0  0  0
 15  4  1  0  0  0  0
 17  6  1  0  0  0  0
 19 20  1  0  0  0  0
 19 28  1  0  0  0  0
 20 31  1  0  0  0  0
 20 30  1  0  0  0  0
 21 32  1  6  0  0  0
 21 23  1  0  0  0  0
 21 20  1  0  0  0  0
 22 33  1  0  0  0  0
 22 35  1  0  0  0  0
 22 21  1  0  0  0  0
 23 36  1  1  0  0  0
 23 24  1  0  0  0  0
 24  7  1  0  0  0  0
 25 43  1  0  0  0  0
 25 23  1  0  0  0  0
 26 25  2  0  0  0  0
 27 19  1  0  0  0  0
 29 19  1  0  0  0  0
 34 22  1  0  0  0  0
 37 24  1  0  0  0  0
 38 49  1  0  0  0  0
 38 47  1  0  0  0  0
 39 38  1  0  0  0  0
 40 50  1  0  0  0  0
 40 41  1  0  0  0  0
 40 39  1  0  0  0  0
 41 53  1  0  0  0  0
 42 41  1  0  0  0  0
 42 54  1  1  0  0  0
 42 43  1  0  0  0  0
 43 55  1  0  0  0  0
 44 42  1  0  0  0  0
 45 44  1  0  0  0  0
 46 44  2  0  0  0  0
 48 38  1  0  0  0  0
 51 40  1  0  0  0  0
 52 41  1  0  0  0  0
M  END
$$$$
