MIN.pdb
 OpenBabel07022418553D

 52 51  0  0  1  0  0  0  0  0999 V2000
    0.9880   -3.6660    4.4230 C   0  0  0  0  0  0  0  0  0  0  0  0
    0.5100   -2.3500    5.5830 S   0  0  0  0  0  0  0  0  0  0  0  0
   -1.0370   -1.6240    5.0700 C   0  0  0  0  0  0  0  0  0  0  0  0
   -0.9640   -0.8790    3.7690 C   0  0  0  0  0  0  0  0  0  0  0  0
    0.0180    0.2710    3.8190 C   0  0  2  0  0  0  0  0  0  0  0  0
   -0.3950    1.2140    4.8610 N   0  0  0  0  0  0  0  0  0  0  0  0
    0.1490    0.9700    2.5380 C   0  0  0  0  0  0  0  0  0  0  0  0
   -0.1350    2.1930    2.4830 O   0  0  0  0  0  0  0  0  0  0  0  0
    0.2690   -3.7650    3.5880 H   0  0  0  0  0  0  0  0  0  0  0  0
    1.9640   -3.3990    3.9470 H   0  0  0  0  0  0  0  0  0  0  0  0
    1.1600   -4.6350    4.9380 H   0  0  0  0  0  0  0  0  0  0  0  0
   -1.4120   -0.9410    5.8600 H   0  0  0  0  0  0  0  0  0  0  0  0
   -1.7910   -2.4340    4.9460 H   0  0  0  0  0  0  0  0  0  0  0  0
   -1.9790   -0.4010    3.6280 H   0  0  0  0  0  0  0  0  0  0  0  0
   -0.8200   -1.5230    2.8940 H   0  0  0  0  0  0  0  0  0  0  0  0
    0.9920   -0.1480    4.1030 H   0  0  0  0  0  0  0  0  0  0  0  0
   -1.3600    1.5380    4.7590 H   0  0  0  0  0  0  0  0  0  0  0  0
   -0.1020    0.8950    5.7870 H   0  0  0  0  0  0  0  0  0  0  0  0
    3.6860    1.9600   -2.0830 C   0  0  0  0  0  0  0  0  0  0  0  0
    2.2030    1.7210   -1.7510 C   0  0  0  0  0  0  0  0  0  0  0  0
    2.1260    1.0240   -0.4130 C   0  0  2  0  0  0  0  0  0  0  0  0
    2.8310   -0.2960   -0.4270 C   0  0  0  0  0  0  0  0  0  0  0  0
    0.7180    1.0020    0.0690 C   0  0  2  0  0  0  0  0  0  0  0  0
    0.5780    0.3440    1.3580 N   0  0  0  0  0  0  0  0  0  0  0  0
   -0.2560    0.4000   -0.8890 C   0  0  0  0  0  0  0  0  0  0  0  0
   -0.4050    0.7780   -2.0770 O   0  0  0  0  0  0  0  0  0  0  0  0
    3.7790    2.5600   -3.0120 H   0  0  0  0  0  0  0  0  0  0  0  0
    4.1900    0.9740   -2.2430 H   0  0  0  0  0  0  0  0  0  0  0  0
    4.1900    2.4350   -1.2180 H   0  0  0  0  0  0  0  0  0  0  0  0
    1.8020    1.1120   -2.5910 H   0  0  0  0  0  0  0  0  0  0  0  0
    1.7090    2.6910   -1.7210 H   0  0  0  0  0  0  0  0  0  0  0  0
    2.7240    1.6960    0.2830 H   0  0  0  0  0  0  0  0  0  0  0  0
    3.9310   -0.1470   -0.2310 H   0  0  0  0  0  0  0  0  0  0  0  0
    2.7950   -0.6740   -1.4900 H   0  0  0  0  0  0  0  0  0  0  0  0
    2.4830   -1.0360    0.2880 H   0  0  0  0  0  0  0  0  0  0  0  0
    0.3940    2.0520    0.2210 H   0  0  0  0  0  0  0  0  0  0  0  0
    0.8160   -0.6690    1.3940 H   0  0  0  0  0  0  0  0  0  0  0  0
   -2.4690   -3.1500   -4.0890 N   0  0  0  0  0  0  0  0  0  0  0  0
   -2.6660   -3.2910   -2.6670 C   0  0  0  0  0  0  0  0  0  0  0  0
   -3.7000   -3.9070   -2.3170 O   0  0  0  0  0  0  0  0  0  0  0  0
   -1.6670   -2.7180   -1.7390 C   0  0  0  0  0  0  0  0  0  0  0  0
   -2.0750   -1.3000   -1.4140 C   0  0  2  0  0  0  0  0  0  0  0  0
   -1.1070   -0.6870   -0.4920 N   0  0  0  0  0  0  0  0  0  0  0  0
   -3.4450   -1.1470   -0.9330 C   0  0  0  0  0  0  0  0  0  0  0  0
   -3.6420   -0.5620    0.1870 O   0  0  0  0  0  0  0  0  0  0  0  0
   -4.5870   -1.5790   -1.5780 O   0  0  0  0  0  0  0  0  0  0  0  0
   -2.5430   -2.1980   -4.5450 H   0  0  0  0  0  0  0  0  0  0  0  0
   -2.2530   -3.9440   -4.7110 H   0  0  0  0  0  0  0  0  0  0  0  0
   -1.5500   -3.3260   -0.8180 H   0  0  0  0  0  0  0  0  0  0  0  0
   -0.7090   -2.6400   -2.3040 H   0  0  0  0  0  0  0  0  0  0  0  0
   -1.9690   -0.7330   -2.3610 H   0  0  0  0  0  0  0  0  0  0  0  0
   -1.0230   -1.0340    0.4730 H   0  0  0  0  0  0  0  0  0  0  0  0
  1 11  1  0  0  0  0
  1  2  1  0  0  0  0
  3  2  1  0  0  0  0
  3 12  1  0  0  0  0
  4  5  1  0  0  0  0
  4  3  1  0  0  0  0
  5 16  1  1  0  0  0
  5  6  1  0  0  0  0
  6 18  1  0  0  0  0
  7  5  1  0  0  0  0
  8  7  2  0  0  0  0
  9  1  1  0  0  0  0
 10  1  1  0  0  0  0
 13  3  1  0  0  0  0
 14  4  1  0  0  0  0
 15  4  1  0  0  0  0
 17  6  1  0  0  0  0
 19 20  1  0  0  0  0
 19 29  1  0  0  0  0
 20 31  1  0  0  0  0
 20 21  1  0  0  0  0
 21 23  1  0  0  0  0
 21 32  1  1  0  0  0
 22 21  1  0  0  0  0
 22 33  1  0  0  0  0
 22 35  1  0  0  0  0
 23 36  1  1  0  0  0
 23 24  1  0  0  0  0
 24 37  1  0  0  0  0
 24  7  1  0  0  0  0
 25 43  1  0  0  0  0
 25 23  1  0  0  0  0
 26 25  2  0  0  0  0
 27 19  1  0  0  0  0
 28 19  1  0  0  0  0
 30 20  1  0  0  0  0
 34 22  1  0  0  0  0
 38 39  1  0  0  0  0
 39 40  2  0  0  0  0
 39 41  1  0  0  0  0
 41 42  1  0  0  0  0
 41 49  1  0  0  0  0
 42 51  1  6  0  0  0
 42 44  1  0  0  0  0
 42 43  1  0  0  0  0
 43 52  1  0  0  0  0
 44 45  1  0  0  0  0
 46 44  2  0  0  0  0
 47 38  1  0  0  0  0
 48 38  1  0  0  0  0
 50 41  1  0  0  0  0
M  END
$$$$
