MIQ.pdb
 OpenBabel07022418553D

 55 54  0  0  1  0  0  0  0  0999 V2000
    4.4950    1.5140    1.2220 C   0  0  0  0  0  0  0  0  0  0  0  0
    2.8050    2.1690    0.9910 S   0  0  0  0  0  0  0  0  0  0  0  0
    2.6350    2.8670   -0.6660 C   0  0  0  0  0  0  0  0  0  0  0  0
    2.6880    1.8700   -1.7680 C   0  0  0  0  0  0  0  0  0  0  0  0
    1.6240    0.8240   -1.7670 C   0  0  2  0  0  0  0  0  0  0  0  0
    0.3300    1.4490   -1.8550 N   0  0  0  0  0  0  0  0  0  0  0  0
    1.7420   -0.0640   -0.5890 C   0  0  0  0  0  0  0  0  0  0  0  0
    2.7800   -0.7120   -0.3290 O   0  0  0  0  0  0  0  0  0  0  0  0
    4.9770    1.4020    0.2200 H   0  0  0  0  0  0  0  0  0  0  0  0
    5.1350    2.2200    1.7870 H   0  0  0  0  0  0  0  0  0  0  0  0
    4.4460    0.5310    1.7430 H   0  0  0  0  0  0  0  0  0  0  0  0
    1.7700    3.5670   -0.7310 H   0  0  0  0  0  0  0  0  0  0  0  0
    3.5310    3.5480   -0.8030 H   0  0  0  0  0  0  0  0  0  0  0  0
    3.7240    1.4200   -1.7510 H   0  0  0  0  0  0  0  0  0  0  0  0
    2.6030    2.4360   -2.7360 H   0  0  0  0  0  0  0  0  0  0  0  0
    1.8190    0.2060   -2.7050 H   0  0  0  0  0  0  0  0  0  0  0  0
   -0.0590    1.2710   -2.8100 H   0  0  0  0  0  0  0  0  0  0  0  0
    0.4010    2.4870   -1.7700 H   0  0  0  0  0  0  0  0  0  0  0  0
    0.6120   -0.3120    5.2340 C   0  0  0  0  0  0  0  0  0  0  0  0
    0.6130   -1.2240    3.9960 C   0  0  0  0  0  0  0  0  0  0  0  0
    0.5220   -0.3470    2.7670 C   0  0  2  0  0  0  0  0  0  0  0  0
   -0.7420    0.4540    2.8030 C   0  0  0  0  0  0  0  0  0  0  0  0
    0.7460   -1.0960    1.4780 C   0  0  2  0  0  0  0  0  0  0  0  0
    0.6510   -0.2370    0.3370 N   0  0  0  0  0  0  0  0  0  0  0  0
   -0.1370   -2.2940    1.3440 C   0  0  0  0  0  0  0  0  0  0  0  0
   -0.2050   -3.1900    2.2180 O   0  0  0  0  0  0  0  0  0  0  0  0
    0.8860   -0.9320    6.0940 H   0  0  0  0  0  0  0  0  0  0  0  0
   -0.3700    0.1870    5.3600 H   0  0  0  0  0  0  0  0  0  0  0  0
    1.3750    0.4620    5.0340 H   0  0  0  0  0  0  0  0  0  0  0  0
    1.5300   -1.8060    4.0340 H   0  0  0  0  0  0  0  0  0  0  0  0
   -0.3130   -1.8640    4.0990 H   0  0  0  0  0  0  0  0  0  0  0  0
    1.3570    0.4080    2.9020 H   0  0  0  0  0  0  0  0  0  0  0  0
   -1.4570   -0.0730    3.5010 H   0  0  0  0  0  0  0  0  0  0  0  0
   -0.5960    1.4600    3.2950 H   0  0  0  0  0  0  0  0  0  0  0  0
   -1.2680    0.5400    1.8530 H   0  0  0  0  0  0  0  0  0  0  0  0
    1.7810   -1.5210    1.5330 H   0  0  0  0  0  0  0  0  0  0  0  0
   -0.2140    0.3030    0.1260 H   0  0  0  0  0  0  0  0  0  0  0  0
   -5.4460   -1.4150   -2.5310 N   0  0  0  0  0  0  0  0  0  0  0  0
   -4.9480   -2.1640   -1.4480 C   0  0  0  0  0  0  0  0  0  0  0  0
   -5.7280   -2.5760   -0.5650 O   0  0  0  0  0  0  0  0  0  0  0  0
   -3.5080   -2.4650   -1.3520 C   0  0  0  0  0  0  0  0  0  0  0  0
   -3.2650   -3.2800   -0.1170 C   0  0  0  0  0  0  0  0  0  0  0  0
   -1.8150   -3.6390    0.0710 C   0  0  2  0  0  0  0  0  0  0  0  0
   -0.9660   -2.4800    0.1880 N   0  0  0  0  0  0  0  0  0  0  0  0
   -1.4330   -4.4820   -1.1090 C   0  0  0  0  0  0  0  0  0  0  0  0
   -2.1120   -5.5230   -1.3040 O   0  0  0  0  0  0  0  0  0  0  0  0
   -0.4130   -4.1960   -1.9690 O   0  0  0  0  0  0  0  0  0  0  0  0
   -5.4160   -1.7830   -3.5010 H   0  0  0  0  0  0  0  0  0  0  0  0
   -5.8520   -0.4770   -2.3630 H   0  0  0  0  0  0  0  0  0  0  0  0
   -2.9710   -1.4920   -1.3400 H   0  0  0  0  0  0  0  0  0  0  0  0
   -3.2350   -3.0630   -2.2460 H   0  0  0  0  0  0  0  0  0  0  0  0
   -3.8120   -4.2480   -0.2610 H   0  0  0  0  0  0  0  0  0  0  0  0
   -3.7100   -2.8000    0.7720 H   0  0  0  0  0  0  0  0  0  0  0  0
   -1.7430   -4.3030    0.9550 H   0  0  0  0  0  0  0  0  0  0  0  0
   -0.9280   -1.7510   -0.5530 H   0  0  0  0  0  0  0  0  0  0  0  0
  1 11  1  0  0  0  0
  1 10  1  0  0  0  0
  2  1  1  0  0  0  0
  3  2  1  0  0  0  0
  4  5  1  0  0  0  0
  4 14  1  0  0  0  0
  4  3  1  0  0  0  0
  5 16  1  6  0  0  0
  5  7  1  0  0  0  0
  6 18  1  0  0  0  0
  6  5  1  0  0  0  0
  7  8  2  0  0  0  0
  7 24  1  0  0  0  0
  9  1  1  0  0  0  0
 12  3  1  0  0  0  0
 13  3  1  0  0  0  0
 15  4  1  0  0  0  0
 17  6  1  0  0  0  0
 19 28  1  0  0  0  0
 19 27  1  0  0  0  0
 20 30  1  0  0  0  0
 20 31  1  0  0  0  0
 20 19  1  0  0  0  0
 21 22  1  0  0  0  0
 21 32  1  1  0  0  0
 21 20  1  0  0  0  0
 22 34  1  0  0  0  0
 22 33  1  0  0  0  0
 23 36  1  1  0  0  0
 23 21  1  0  0  0  0
 24 23  1  0  0  0  0
 25 23  1  0  0  0  0
 25 26  2  0  0  0  0
 29 19  1  0  0  0  0
 35 22  1  0  0  0  0
 37 24  1  0  0  0  0
 38 49  1  0  0  0  0
 38 39  1  0  0  0  0
 39 41  1  0  0  0  0
 39 40  2  0  0  0  0
 41 50  1  0  0  0  0
 41 42  1  0  0  0  0
 42 43  1  0  0  0  0
 42 53  1  0  0  0  0
 43 44  1  0  0  0  0
 43 54  1  1  0  0  0
 44 25  1  0  0  0  0
 45 43  1  0  0  0  0
 46 45  1  0  0  0  0
 47 45  2  0  0  0  0
 48 38  1  0  0  0  0
 51 41  1  0  0  0  0
 52 42  1  0  0  0  0
 55 44  1  0  0  0  0
M  END
$$$$
