MKC.pdb
 OpenBabel07022418563D

 51 50  0  0  1  0  0  0  0  0999 V2000
   -0.3460   -6.2240    3.6370 C   0  0  0  0  0  0  0  0  0  0  0  0
    1.2550   -5.6970    4.2260 S   0  0  0  0  0  0  0  0  0  0  0  0
    1.4100   -4.0420    4.7990 C   0  0  0  0  0  0  0  0  0  0  0  0
    1.4670   -2.9250    3.8270 C   0  0  0  0  0  0  0  0  0  0  0  0
    0.3060   -2.7780    2.9080 C   0  0  2  0  0  0  0  0  0  0  0  0
    0.1030   -3.8810    2.0420 N   0  0  0  0  0  0  0  0  0  0  0  0
    0.3350   -1.4720    2.1790 C   0  0  0  0  0  0  0  0  0  0  0  0
    0.5170   -0.4200    2.8640 O   0  0  0  0  0  0  0  0  0  0  0  0
   -1.1370   -5.4790    3.7990 H   0  0  0  0  0  0  0  0  0  0  0  0
   -0.6390   -7.2050    4.1400 H   0  0  0  0  0  0  0  0  0  0  0  0
   -0.2820   -6.4810    2.5630 H   0  0  0  0  0  0  0  0  0  0  0  0
    2.3580   -3.9740    5.4420 H   0  0  0  0  0  0  0  0  0  0  0  0
    0.6000   -3.8110    5.5890 H   0  0  0  0  0  0  0  0  0  0  0  0
    1.5830   -1.9800    4.4680 H   0  0  0  0  0  0  0  0  0  0  0  0
    2.4020   -3.0040    3.1970 H   0  0  0  0  0  0  0  0  0  0  0  0
   -0.6270   -2.7180    3.5590 H   0  0  0  0  0  0  0  0  0  0  0  0
    0.8880   -4.0860    1.3990 H   0  0  0  0  0  0  0  0  0  0  0  0
   -0.8230   -3.9500    1.6130 H   0  0  0  0  0  0  0  0  0  0  0  0
    0.1630   -1.4590    0.7930 N   0  0  0  0  0  0  0  0  0  0  0  0
    0.1840   -0.1950    0.0360 C   0  0  1  0  0  0  0  0  0  0  0  0
    1.3360   -0.2420   -0.9360 C   0  0  0  0  0  0  0  0  0  0  0  0
    1.4690    1.0070   -1.7200 C   0  0  0  0  0  0  0  0  0  0  0  0
    1.7130    2.2590   -0.9430 C   0  0  0  0  0  0  0  0  0  0  0  0
    2.9650    2.2850   -0.1300 C   0  0  0  0  0  0  0  0  0  0  0  0
    3.0790    1.2940    0.8840 N   0  0  0  0  0  0  0  0  0  0  0  0
   -1.1400   -0.0640   -0.5740 C   0  0  0  0  0  0  0  0  0  0  0  0
   -1.9150   -1.0950   -0.5260 O   0  0  0  0  0  0  0  0  0  0  0  0
    0.0170   -2.3190    0.2480 H   0  0  0  0  0  0  0  0  0  0  0  0
    0.3550    0.6060    0.7550 H   0  0  0  0  0  0  0  0  0  0  0  0
    1.2230   -1.1060   -1.6490 H   0  0  0  0  0  0  0  0  0  0  0  0
    2.2880   -0.4560   -0.4160 H   0  0  0  0  0  0  0  0  0  0  0  0
    2.4100    0.9140   -2.3880 H   0  0  0  0  0  0  0  0  0  0  0  0
    0.6750    1.1950   -2.4710 H   0  0  0  0  0  0  0  0  0  0  0  0
    0.8830    2.5630   -0.2700 H   0  0  0  0  0  0  0  0  0  0  0  0
    1.7630    3.0890   -1.7070 H   0  0  0  0  0  0  0  0  0  0  0  0
    3.8840    2.2140   -0.7650 H   0  0  0  0  0  0  0  0  0  0  0  0
    3.0370    3.2830    0.3770 H   0  0  0  0  0  0  0  0  0  0  0  0
    4.0190    0.9060    1.0240 H   0  0  0  0  0  0  0  0  0  0  0  0
    2.5220    1.4420    1.7320 H   0  0  0  0  0  0  0  0  0  0  0  0
   -1.6660    1.0710   -1.2100 N   0  0  0  0  0  0  0  0  0  0  0  0
   -3.0110    1.0900   -1.7960 C   0  0  1  0  0  0  0  0  0  0  0  0
   -3.8700    2.0550   -1.0130 C   0  0  0  0  0  0  0  0  0  0  0  0
   -3.9320    1.4800    0.6980 S   0  0  0  0  0  0  0  0  0  0  0  0
   -2.9620    1.4010   -3.2330 C   0  0  0  0  0  0  0  0  0  0  0  0
   -4.0050    1.4600   -3.9050 O   0  0  0  0  0  0  0  0  0  0  0  0
   -1.7370    1.6260   -3.8260 O   0  0  0  0  0  0  0  0  0  0  0  0
   -1.1240    1.9420   -1.2690 H   0  0  0  0  0  0  0  0  0  0  0  0
   -3.4800    0.0930   -1.6720 H   0  0  0  0  0  0  0  0  0  0  0  0
   -4.8920    2.0140   -1.4500 H   0  0  0  0  0  0  0  0  0  0  0  0
   -3.5110    3.0930   -1.0980 H   0  0  0  0  0  0  0  0  0  0  0  0
   -5.1300    0.7330    0.8780 H   0  0  0  0  0  0  0  0  0  0  0  0
  1  9  1  0  0  0  0
  1 10  1  0  0  0  0
  1  2  1  0  0  0  0
  2  3  1  0  0  0  0
  3 12  1  0  0  0  0
  3 13  1  0  0  0  0
  4 14  1  0  0  0  0
  4  3  1  0  0  0  0
  5 16  1  1  0  0  0
  5  4  1  0  0  0  0
  6  5  1  0  0  0  0
  7  8  2  0  0  0  0
  7  5  1  0  0  0  0
 11  1  1  0  0  0  0
 15  4  1  0  0  0  0
 17  6  1  0  0  0  0
 18  6  1  0  0  0  0
 19  7  1  0  0  0  0
 20 29  1  1  0  0  0
 20 19  1  0  0  0  0
 21 31  1  0  0  0  0
 21 20  1  0  0  0  0
 22 23  1  0  0  0  0
 22 21  1  0  0  0  0
 23 34  1  0  0  0  0
 23 24  1  0  0  0  0
 24 37  1  0  0  0  0
 24 25  1  0  0  0  0
 25 38  1  0  0  0  0
 25 39  1  0  0  0  0
 26 27  2  0  0  0  0
 26 20  1  0  0  0  0
 28 19  1  0  0  0  0
 30 21  1  0  0  0  0
 32 22  1  0  0  0  0
 33 22  1  0  0  0  0
 35 23  1  0  0  0  0
 36 24  1  0  0  0  0
 40 26  1  0  0  0  0
 41 48  1  1  0  0  0
 41 40  1  0  0  0  0
 41 42  1  0  0  0  0
 42 43  1  0  0  0  0
 43 51  1  0  0  0  0
 44 41  1  0  0  0  0
 45 44  2  0  0  0  0
 46 44  1  0  0  0  0
 47 40  1  0  0  0  0
 49 42  1  0  0  0  0
 50 42  1  0  0  0  0
M  END
$$$$
