MKD.pdb
 OpenBabel07022418553D

 53 52  0  0  1  0  0  0  0  0999 V2000
    2.0060   -4.3080    3.4930 C   0  0  0  0  0  0  0  0  0  0  0  0
    3.3010   -4.3310    2.2800 S   0  0  0  0  0  0  0  0  0  0  0  0
    3.2420   -3.1380    0.9800 C   0  0  0  0  0  0  0  0  0  0  0  0
    3.5440   -1.7290    1.2980 C   0  0  0  0  0  0  0  0  0  0  0  0
    2.7350   -0.9990    2.2880 C   0  0  2  0  0  0  0  0  0  0  0  0
    2.7450   -1.5210    3.6200 N   0  0  0  0  0  0  0  0  0  0  0  0
    1.3330   -0.7380    1.8150 C   0  0  0  0  0  0  0  0  0  0  0  0
    0.3420   -0.9860    2.5540 O   0  0  0  0  0  0  0  0  0  0  0  0
    1.5650   -5.3560    3.6410 H   0  0  0  0  0  0  0  0  0  0  0  0
    2.4020   -4.0710    4.5010 H   0  0  0  0  0  0  0  0  0  0  0  0
    1.1300   -3.6750    3.2700 H   0  0  0  0  0  0  0  0  0  0  0  0
    4.0430   -3.4520    0.2250 H   0  0  0  0  0  0  0  0  0  0  0  0
    2.3090   -3.2370    0.3360 H   0  0  0  0  0  0  0  0  0  0  0  0
    4.6170   -1.6940    1.6370 H   0  0  0  0  0  0  0  0  0  0  0  0
    3.5140   -1.1630    0.3240 H   0  0  0  0  0  0  0  0  0  0  0  0
    3.1890    0.0360    2.3690 H   0  0  0  0  0  0  0  0  0  0  0  0
    2.4700   -0.8290    4.3460 H   0  0  0  0  0  0  0  0  0  0  0  0
    3.7230   -1.8030    3.8530 H   0  0  0  0  0  0  0  0  0  0  0  0
    1.0690   -0.2070    0.5250 N   0  0  0  0  0  0  0  0  0  0  0  0
   -0.2920    0.0590    0.0370 C   0  0  1  0  0  0  0  0  0  0  0  0
   -0.3010    1.4710   -0.4880 C   0  0  0  0  0  0  0  0  0  0  0  0
    0.0590    2.4290    0.6010 C   0  0  0  0  0  0  0  0  0  0  0  0
   -0.9350    2.3390    1.7130 C   0  0  0  0  0  0  0  0  0  0  0  0
   -0.5080    3.3410    2.7770 C   0  0  0  0  0  0  0  0  0  0  0  0
   -1.4260    3.3210    3.9030 N   0  0  0  0  0  0  0  0  0  0  0  0
   -0.6020   -0.8690   -1.1030 C   0  0  0  0  0  0  0  0  0  0  0  0
    0.2760   -1.6930   -1.4680 O   0  0  0  0  0  0  0  0  0  0  0  0
    1.8990   -0.0060   -0.0770 H   0  0  0  0  0  0  0  0  0  0  0  0
   -1.0530   -0.1220    0.7930 H   0  0  0  0  0  0  0  0  0  0  0  0
    0.4760    1.6080   -1.2950 H   0  0  0  0  0  0  0  0  0  0  0  0
   -1.2570    1.7280   -0.9910 H   0  0  0  0  0  0  0  0  0  0  0  0
    0.1370    3.4530    0.1830 H   0  0  0  0  0  0  0  0  0  0  0  0
    1.0930    2.1490    0.9600 H   0  0  0  0  0  0  0  0  0  0  0  0
   -1.9190    2.6940    1.3330 H   0  0  0  0  0  0  0  0  0  0  0  0
   -1.0320    1.3450    2.1670 H   0  0  0  0  0  0  0  0  0  0  0  0
   -0.4860    4.3570    2.3500 H   0  0  0  0  0  0  0  0  0  0  0  0
    0.5210    3.0930    3.1040 H   0  0  0  0  0  0  0  0  0  0  0  0
   -2.3170    3.7570    3.6400 H   0  0  0  0  0  0  0  0  0  0  0  0
   -1.5490    2.3530    4.2700 H   0  0  0  0  0  0  0  0  0  0  0  0
   -1.8540   -0.8310   -1.7640 N   0  0  0  0  0  0  0  0  0  0  0  0
   -2.1990   -1.7070   -2.8650 C   0  0  1  0  0  0  0  0  0  0  0  0
   -3.4570   -2.4830   -2.5590 C   0  0  0  0  0  0  0  0  0  0  0  0
   -3.3030   -3.3120   -1.3610 C   0  0  0  0  0  0  0  0  0  0  0  0
   -2.2350   -3.3220   -0.7130 O   0  0  0  0  0  0  0  0  0  0  0  0
   -2.4630   -0.9510   -4.1100 C   0  0  0  0  0  0  0  0  0  0  0  0
   -2.3890    0.3000   -4.1740 O   0  0  0  0  0  0  0  0  0  0  0  0
   -4.3790   -4.0970   -0.9520 O   0  0  0  0  0  0  0  0  0  0  0  0
   -2.8050   -1.6710   -5.2410 O   0  0  0  0  0  0  0  0  0  0  0  0
   -2.5740   -0.1500   -1.4610 H   0  0  0  0  0  0  0  0  0  0  0  0
   -1.3760   -2.4040   -3.0510 H   0  0  0  0  0  0  0  0  0  0  0  0
   -3.6850   -3.1060   -3.4620 H   0  0  0  0  0  0  0  0  0  0  0  0
   -4.2830   -1.7420   -2.4930 H   0  0  0  0  0  0  0  0  0  0  0  0
   -4.4790   -4.3400    0.0360 H   0  0  0  0  0  0  0  0  0  0  0  0
  1  9  1  0  0  0  0
  1 10  1  0  0  0  0
  2  1  1  0  0  0  0
  3  4  1  0  0  0  0
  3  2  1  0  0  0  0
  4 14  1  0  0  0  0
  4  5  1  0  0  0  0
  5 16  1  1  0  0  0
  5  6  1  0  0  0  0
  6 18  1  0  0  0  0
  6 17  1  0  0  0  0
  7  5  1  0  0  0  0
  7  8  2  0  0  0  0
 11  1  1  0  0  0  0
 12  3  1  0  0  0  0
 13  3  1  0  0  0  0
 15  4  1  0  0  0  0
 19  7  1  0  0  0  0
 20 19  1  0  0  0  0
 20 29  1  1  0  0  0
 21 20  1  0  0  0  0
 21 22  1  0  0  0  0
 22 33  1  0  0  0  0
 22 23  1  0  0  0  0
 23 35  1  0  0  0  0
 23 24  1  0  0  0  0
 24 37  1  0  0  0  0
 24 25  1  0  0  0  0
 25 39  1  0  0  0  0
 26 20  1  0  0  0  0
 27 26  2  0  0  0  0
 28 19  1  0  0  0  0
 30 21  1  0  0  0  0
 31 21  1  0  0  0  0
 32 22  1  0  0  0  0
 34 23  1  0  0  0  0
 36 24  1  0  0  0  0
 38 25  1  0  0  0  0
 40 49  1  0  0  0  0
 40 26  1  0  0  0  0
 41 50  1  6  0  0  0
 41 42  1  0  0  0  0
 41 40  1  0  0  0  0
 42 52  1  0  0  0  0
 42 43  1  0  0  0  0
 43 47  1  0  0  0  0
 43 44  2  0  0  0  0
 45 41  1  0  0  0  0
 46 45  1  0  0  0  0
 47 53  1  0  0  0  0
 48 45  2  0  0  0  0
 51 42  1  0  0  0  0
M  END
$$$$
