MKF.pdb
 OpenBabel07022418563D

 60 60  0  0  1  0  0  0  0  0999 V2000
    2.1090   -2.8930    5.2410 C   0  0  0  0  0  0  0  0  0  0  0  0
    3.0860   -1.5610    4.4420 S   0  0  0  0  0  0  0  0  0  0  0  0
    2.7090   -1.6450    2.6710 C   0  0  0  0  0  0  0  0  0  0  0  0
    3.4280   -0.6170    1.8550 C   0  0  0  0  0  0  0  0  0  0  0  0
    3.1410    0.7950    2.2030 C   0  0  2  0  0  0  0  0  0  0  0  0
    3.4840    1.1280    3.5640 N   0  0  0  0  0  0  0  0  0  0  0  0
    1.7370    1.1790    1.8920 C   0  0  0  0  0  0  0  0  0  0  0  0
    0.9720    1.7030    2.7220 O   0  0  0  0  0  0  0  0  0  0  0  0
    2.4370   -3.0800    6.2620 H   0  0  0  0  0  0  0  0  0  0  0  0
    2.1130   -3.8080    4.6110 H   0  0  0  0  0  0  0  0  0  0  0  0
    1.0480   -2.5330    5.2260 H   0  0  0  0  0  0  0  0  0  0  0  0
    2.9340   -2.6830    2.3520 H   0  0  0  0  0  0  0  0  0  0  0  0
    1.6080   -1.4260    2.5970 H   0  0  0  0  0  0  0  0  0  0  0  0
    4.5300   -0.7820    2.0350 H   0  0  0  0  0  0  0  0  0  0  0  0
    3.2820   -0.7670    0.7770 H   0  0  0  0  0  0  0  0  0  0  0  0
    3.7790    1.4410    1.5480 H   0  0  0  0  0  0  0  0  0  0  0  0
    4.3180    0.5690    3.8300 H   0  0  0  0  0  0  0  0  0  0  0  0
    2.7320    0.9420    4.2570 H   0  0  0  0  0  0  0  0  0  0  0  0
    1.2530    0.9380    0.5910 N   0  0  0  0  0  0  0  0  0  0  0  0
   -0.0930    1.2660    0.1590 C   0  0  1  0  0  0  0  0  0  0  0  0
   -0.0650    2.3410   -0.8960 C   0  0  0  0  0  0  0  0  0  0  0  0
   -1.4100    2.7410   -1.3840 C   0  0  0  0  0  0  0  0  0  0  0  0
   -2.3200    3.2930   -0.3170 C   0  0  0  0  0  0  0  0  0  0  0  0
   -1.7390    4.5310    0.3350 C   0  0  0  0  0  0  0  0  0  0  0  0
   -2.6470    5.0250    1.3520 N   0  0  0  0  0  0  0  0  0  0  0  0
   -0.8460    0.0520   -0.2390 C   0  0  0  0  0  0  0  0  0  0  0  0
   -2.0330    0.1640   -0.6330 O   0  0  0  0  0  0  0  0  0  0  0  0
    1.8830    0.4980   -0.1150 H   0  0  0  0  0  0  0  0  0  0  0  0
   -0.6150    1.6900    1.0390 H   0  0  0  0  0  0  0  0  0  0  0  0
    0.3940    3.2360   -0.4120 H   0  0  0  0  0  0  0  0  0  0  0  0
    0.5240    2.0030   -1.7740 H   0  0  0  0  0  0  0  0  0  0  0  0
   -1.9560    2.0250   -1.9920 H   0  0  0  0  0  0  0  0  0  0  0  0
   -1.2240    3.6230   -2.0790 H   0  0  0  0  0  0  0  0  0  0  0  0
   -2.5940    2.5960    0.4720 H   0  0  0  0  0  0  0  0  0  0  0  0
   -3.2590    3.6040   -0.8250 H   0  0  0  0  0  0  0  0  0  0  0  0
   -0.7990    4.2470    0.8930 H   0  0  0  0  0  0  0  0  0  0  0  0
   -1.5590    5.3480   -0.3680 H   0  0  0  0  0  0  0  0  0  0  0  0
   -2.1750    5.6600    2.0290 H   0  0  0  0  0  0  0  0  0  0  0  0
   -3.1840    4.2600    1.8100 H   0  0  0  0  0  0  0  0  0  0  0  0
   -0.3240   -1.2630   -0.2130 N   0  0  0  0  0  0  0  0  0  0  0  0
   -1.0890   -2.4410   -0.6140 C   0  0  1  0  0  0  0  0  0  0  0  0
   -0.4180   -3.1500   -1.7580 C   0  0  0  0  0  0  0  0  0  0  0  0
   -1.2030   -4.3360   -2.1480 C   0  0  0  0  0  0  0  0  0  0  0  0
   -0.9590   -5.6220   -1.7070 C   0  0  0  0  0  0  0  0  0  0  0  0
   -1.7370   -6.7070   -2.0950 C   0  0  0  0  0  0  0  0  0  0  0  0
   -2.8060   -6.5190   -2.9590 C   0  0  0  0  0  0  0  0  0  0  0  0
   -3.0720   -5.2590   -3.4120 C   0  0  0  0  0  0  0  0  0  0  0  0
   -2.2960   -4.2100   -3.0180 C   0  0  0  0  0  0  0  0  0  0  0  0
   -1.1200   -3.3240    0.5650 C   0  0  0  0  0  0  0  0  0  0  0  0
   -1.7990   -4.3690    0.5280 O   0  0  0  0  0  0  0  0  0  0  0  0
   -0.4230   -3.0540    1.7380 O   0  0  0  0  0  0  0  0  0  0  0  0
    0.6510   -1.3950    0.1060 H   0  0  0  0  0  0  0  0  0  0  0  0
   -2.1100   -2.1610   -0.9460 H   0  0  0  0  0  0  0  0  0  0  0  0
   -0.4080   -2.4710   -2.6500 H   0  0  0  0  0  0  0  0  0  0  0  0
    0.6310   -3.4330   -1.5020 H   0  0  0  0  0  0  0  0  0  0  0  0
   -0.1140   -5.7860   -1.0340 H   0  0  0  0  0  0  0  0  0  0  0  0
   -1.5040   -7.7070   -1.7190 H   0  0  0  0  0  0  0  0  0  0  0  0
   -3.4170   -7.3810   -3.2620 H   0  0  0  0  0  0  0  0  0  0  0  0
   -3.8920   -5.0910   -4.0800 H   0  0  0  0  0  0  0  0  0  0  0  0
   -2.5230   -3.2250   -3.3870 H   0  0  0  0  0  0  0  0  0  0  0  0
  1  9  1  0  0  0  0
  2  1  1  0  0  0  0
  3  2  1  0  0  0  0
  4 14  1  0  0  0  0
  4  5  1  0  0  0  0
  4  3  1  0  0  0  0
  5 16  1  6  0  0  0
  5  6  1  0  0  0  0
  6 17  1  0  0  0  0
  6 18  1  0  0  0  0
  7  5  1  0  0  0  0
  7  8  2  0  0  0  0
 10  1  1  0  0  0  0
 11  1  1  0  0  0  0
 12  3  1  0  0  0  0
 13  3  1  0  0  0  0
 15  4  1  0  0  0  0
 19  7  1  0  0  0  0
 20 19  1  0  0  0  0
 20 29  1  1  0  0  0
 21 30  1  0  0  0  0
 21 20  1  0  0  0  0
 22 21  1  0  0  0  0
 22 23  1  0  0  0  0
 23 24  1  0  0  0  0
 23 34  1  0  0  0  0
 24 36  1  0  0  0  0
 24 25  1  0  0  0  0
 25 39  1  0  0  0  0
 25 38  1  0  0  0  0
 26 40  1  0  0  0  0
 26 20  1  0  0  0  0
 27 26  2  0  0  0  0
 28 19  1  0  0  0  0
 31 21  1  0  0  0  0
 32 22  1  0  0  0  0
 33 22  1  0  0  0  0
 35 23  1  0  0  0  0
 37 24  1  0  0  0  0
 40 52  1  0  0  0  0
 41 53  1  6  0  0  0
 41 40  1  0  0  0  0
 41 49  1  0  0  0  0
 42 55  1  0  0  0  0
 42 41  1  0  0  0  0
 43 42  1  0  0  0  0
 43 44  1  0  0  0  0
 44 56  1  0  0  0  0
 45 57  1  0  0  0  0
 45 44  2  0  0  0  0
 46 45  1  0  0  0  0
 47 48  1  0  0  0  0
 47 46  2  0  0  0  0
 48 43  2  0  0  0  0
 49 51  1  0  0  0  0
 50 49  2  0  0  0  0
 54 42  1  0  0  0  0
 58 46  1  0  0  0  0
 59 47  1  0  0  0  0
 60 48  1  0  0  0  0
M  END
$$$$
