MKH.pdb
 OpenBabel07022418563D

 57 57  0  0  1  0  0  0  0  0999 V2000
    2.8190   -4.7650    3.1160 C   0  0  0  0  0  0  0  0  0  0  0  0
    1.4490   -4.0850    4.1000 S   0  0  0  0  0  0  0  0  0  0  0  0
    0.9860   -2.4100    3.5050 C   0  0  0  0  0  0  0  0  0  0  0  0
    2.1440   -1.5090    3.7730 C   0  0  0  0  0  0  0  0  0  0  0  0
    1.9590   -0.0820    3.3720 C   0  0  2  0  0  0  0  0  0  0  0  0
    0.8620    0.5500    4.0640 N   0  0  0  0  0  0  0  0  0  0  0  0
    1.7360    0.0160    1.8940 C   0  0  0  0  0  0  0  0  0  0  0  0
    2.5590   -0.4910    1.0860 O   0  0  0  0  0  0  0  0  0  0  0  0
    2.5200   -5.6970    2.6250 H   0  0  0  0  0  0  0  0  0  0  0  0
    3.1880   -4.0360    2.4080 H   0  0  0  0  0  0  0  0  0  0  0  0
    3.6410   -5.0290    3.8300 H   0  0  0  0  0  0  0  0  0  0  0  0
    0.0900   -2.1170    4.0850 H   0  0  0  0  0  0  0  0  0  0  0  0
    0.7790   -2.5310    2.4210 H   0  0  0  0  0  0  0  0  0  0  0  0
    2.4330   -1.5930    4.8410 H   0  0  0  0  0  0  0  0  0  0  0  0
    3.0380   -1.8980    3.2030 H   0  0  0  0  0  0  0  0  0  0  0  0
    2.8950    0.4520    3.6580 H   0  0  0  0  0  0  0  0  0  0  0  0
    1.1560    0.9240    5.0000 H   0  0  0  0  0  0  0  0  0  0  0  0
    0.0520   -0.0820    4.1950 H   0  0  0  0  0  0  0  0  0  0  0  0
    0.6000    0.6790    1.4270 N   0  0  0  0  0  0  0  0  0  0  0  0
    0.1980    0.9100    0.0620 C   0  0  1  0  0  0  0  0  0  0  0  0
    1.3950    1.0940   -0.8380 C   0  0  0  0  0  0  0  0  0  0  0  0
    2.3080    2.1930   -0.5610 C   0  0  0  0  0  0  0  0  0  0  0  0
    1.7530    3.5860   -0.6090 C   0  0  0  0  0  0  0  0  0  0  0  0
    1.1830    3.9250   -1.9610 C   0  0  0  0  0  0  0  0  0  0  0  0
    2.2530    3.7970   -2.9380 N   0  0  0  0  0  0  0  0  0  0  0  0
   -0.7270   -0.1100   -0.4530 C   0  0  0  0  0  0  0  0  0  0  0  0
   -1.1040   -0.0440   -1.6360 O   0  0  0  0  0  0  0  0  0  0  0  0
   -0.0840    1.0790    2.1590 H   0  0  0  0  0  0  0  0  0  0  0  0
   -0.3960    1.8760    0.0820 H   0  0  0  0  0  0  0  0  0  0  0  0
    0.9210    1.2380   -1.8760 H   0  0  0  0  0  0  0  0  0  0  0  0
    1.8980    0.1280   -0.9470 H   0  0  0  0  0  0  0  0  0  0  0  0
    2.8160    2.0730    0.4370 H   0  0  0  0  0  0  0  0  0  0  0  0
    3.1450    2.1610   -1.2960 H   0  0  0  0  0  0  0  0  0  0  0  0
    1.0660    3.8240    0.2280 H   0  0  0  0  0  0  0  0  0  0  0  0
    2.6160    4.2840   -0.4700 H   0  0  0  0  0  0  0  0  0  0  0  0
    0.8470    4.9780   -1.9850 H   0  0  0  0  0  0  0  0  0  0  0  0
    0.3160    3.3040   -2.2450 H   0  0  0  0  0  0  0  0  0  0  0  0
    2.0240    3.1930   -3.7340 H   0  0  0  0  0  0  0  0  0  0  0  0
    2.6530    4.7040   -3.2040 H   0  0  0  0  0  0  0  0  0  0  0  0
   -1.1830   -1.1490    0.3760 N   0  0  0  0  0  0  0  0  0  0  0  0
   -2.0930   -2.2060   -0.0690 C   0  0  1  0  0  0  0  0  0  0  0  0
   -3.4490   -1.6820   -0.3810 C   0  0  0  0  0  0  0  0  0  0  0  0
   -4.3320   -2.7860   -0.8200 C   0  0  0  0  0  0  0  0  0  0  0  0
   -4.5760   -3.2310   -2.1020 C   0  0  0  0  0  0  0  0  0  0  0  0
   -5.4720   -4.2590   -2.0710 N   0  0  0  0  0  0  0  0  0  0  0  0
   -5.7870   -4.4560   -0.7780 C   0  0  0  0  0  0  0  0  0  0  0  0
   -5.1090   -3.5800   -0.0210 N   0  0  0  0  0  0  0  0  0  0  0  0
   -1.4680   -2.9320   -1.1700 C   0  0  0  0  0  0  0  0  0  0  0  0
   -1.9660   -3.9180   -1.7540 O   0  0  0  0  0  0  0  0  0  0  0  0
   -0.2130   -2.5190   -1.6340 O   0  0  0  0  0  0  0  0  0  0  0  0
   -0.8400   -1.1460    1.3670 H   0  0  0  0  0  0  0  0  0  0  0  0
   -2.1940   -2.9390    0.7750 H   0  0  0  0  0  0  0  0  0  0  0  0
   -3.8840   -1.1400    0.4850 H   0  0  0  0  0  0  0  0  0  0  0  0
   -3.3580   -0.9720   -1.2330 H   0  0  0  0  0  0  0  0  0  0  0  0
   -4.1250   -2.8170   -2.9980 H   0  0  0  0  0  0  0  0  0  0  0  0
   -5.8230   -4.7710   -2.9110 H   0  0  0  0  0  0  0  0  0  0  0  0
   -6.4810   -5.2110   -0.4550 H   0  0  0  0  0  0  0  0  0  0  0  0
  1 11  1  0  0  0  0
  1  2  1  0  0  0  0
  3  4  1  0  0  0  0
  3 12  1  0  0  0  0
  3  2  1  0  0  0  0
  4 14  1  0  0  0  0
  5 16  1  1  0  0  0
  5  4  1  0  0  0  0
  5  6  1  0  0  0  0
  6 18  1  0  0  0  0
  6 17  1  0  0  0  0
  7  5  1  0  0  0  0
  8  7  2  0  0  0  0
  9  1  1  0  0  0  0
 10  1  1  0  0  0  0
 13  3  1  0  0  0  0
 15  4  1  0  0  0  0
 19  7  1  0  0  0  0
 19 28  1  0  0  0  0
 20 29  1  6  0  0  0
 20 19  1  0  0  0  0
 21 22  1  0  0  0  0
 21 20  1  0  0  0  0
 22 32  1  0  0  0  0
 23 22  1  0  0  0  0
 23 35  1  0  0  0  0
 23 34  1  0  0  0  0
 24 23  1  0  0  0  0
 25 24  1  0  0  0  0
 26 20  1  0  0  0  0
 26 40  1  0  0  0  0
 27 26  2  0  0  0  0
 30 21  1  0  0  0  0
 31 21  1  0  0  0  0
 33 22  1  0  0  0  0
 36 24  1  0  0  0  0
 37 24  1  0  0  0  0
 38 25  1  0  0  0  0
 39 25  1  0  0  0  0
 40 51  1  0  0  0  0
 41 40  1  0  0  0  0
 41 52  1  1  0  0  0
 42 41  1  0  0  0  0
 42 53  1  0  0  0  0
 43 42  1  0  0  0  0
 43 47  1  0  0  0  0
 44 45  1  0  0  0  0
 44 43  2  0  0  0  0
 45 46  1  0  0  0  0
 46 57  1  0  0  0  0
 46 47  2  0  0  0  0
 48 41  1  0  0  0  0
 49 48  2  0  0  0  0
 50 48  1  0  0  0  0
 54 42  1  0  0  0  0
 55 44  1  0  0  0  0
 56 45  1  0  0  0  0
M  END
$$$$
