MKI.pdb
 OpenBabel07022418563D

 59 58  0  0  1  0  0  0  0  0999 V2000
    2.1680   -4.1230    1.3180 C   0  0  0  0  0  0  0  0  0  0  0  0
    3.3840   -3.8620    0.0520 S   0  0  0  0  0  0  0  0  0  0  0  0
    3.3930   -2.2820   -0.7260 C   0  0  0  0  0  0  0  0  0  0  0  0
    3.9180   -1.1450    0.0450 C   0  0  0  0  0  0  0  0  0  0  0  0
    3.2730   -0.7230    1.3090 C   0  0  2  0  0  0  0  0  0  0  0  0
    3.2380   -1.6880    2.3540 N   0  0  0  0  0  0  0  0  0  0  0  0
    1.9630   -0.0310    1.0730 C   0  0  0  0  0  0  0  0  0  0  0  0
    1.9590    0.8440    0.1930 O   0  0  0  0  0  0  0  0  0  0  0  0
    1.5490   -5.0660    1.1000 H   0  0  0  0  0  0  0  0  0  0  0  0
    2.6140   -4.3070    2.3300 H   0  0  0  0  0  0  0  0  0  0  0  0
    1.4030   -3.3300    1.3040 H   0  0  0  0  0  0  0  0  0  0  0  0
    4.0320   -2.3810   -1.6770 H   0  0  0  0  0  0  0  0  0  0  0  0
    2.3680   -1.9940   -1.1440 H   0  0  0  0  0  0  0  0  0  0  0  0
    4.9960   -1.3830    0.2960 H   0  0  0  0  0  0  0  0  0  0  0  0
    4.0280   -0.2120   -0.6010 H   0  0  0  0  0  0  0  0  0  0  0  0
    3.9700    0.1060    1.7180 H   0  0  0  0  0  0  0  0  0  0  0  0
    2.9890   -1.2030    3.2510 H   0  0  0  0  0  0  0  0  0  0  0  0
    4.1950   -2.0950    2.4350 H   0  0  0  0  0  0  0  0  0  0  0  0
    0.7680   -0.3070    1.7750 N   0  0  0  0  0  0  0  0  0  0  0  0
   -0.4880    0.3060    1.6500 C   0  0  1  0  0  0  0  0  0  0  0  0
   -0.5000    1.7040    1.0190 C   0  0  0  0  0  0  0  0  0  0  0  0
    0.2390    2.7180    1.8300 C   0  0  0  0  0  0  0  0  0  0  0  0
    0.2600    4.0410    1.1230 C   0  0  0  0  0  0  0  0  0  0  0  0
   -1.0690    4.6460    0.8440 C   0  0  0  0  0  0  0  0  0  0  0  0
   -1.9410    3.9100   -0.0040 N   0  0  0  0  0  0  0  0  0  0  0  0
   -1.6280   -0.4560    1.1750 C   0  0  0  0  0  0  0  0  0  0  0  0
   -2.8020    0.0590    1.0760 O   0  0  0  0  0  0  0  0  0  0  0  0
    0.8830   -1.1000    2.4930 H   0  0  0  0  0  0  0  0  0  0  0  0
   -0.7400    0.6360    2.7440 H   0  0  0  0  0  0  0  0  0  0  0  0
   -1.6000    1.9780    1.1130 H   0  0  0  0  0  0  0  0  0  0  0  0
   -0.2800    1.7160   -0.0400 H   0  0  0  0  0  0  0  0  0  0  0  0
    1.2540    2.4190    2.0750 H   0  0  0  0  0  0  0  0  0  0  0  0
   -0.3350    2.8510    2.8100 H   0  0  0  0  0  0  0  0  0  0  0  0
    0.7140    3.8180    0.1040 H   0  0  0  0  0  0  0  0  0  0  0  0
    0.9660    4.7600    1.6020 H   0  0  0  0  0  0  0  0  0  0  0  0
   -0.9230    5.6580    0.3610 H   0  0  0  0  0  0  0  0  0  0  0  0
   -1.6480    4.8630    1.7910 H   0  0  0  0  0  0  0  0  0  0  0  0
   -1.8500    4.1080   -1.0110 H   0  0  0  0  0  0  0  0  0  0  0  0
   -2.9310    3.8640    0.2990 H   0  0  0  0  0  0  0  0  0  0  0  0
   -0.2870   -3.0660   -1.6180 C   0  0  0  0  0  0  0  0  0  0  0  0
   -1.6310   -3.7060   -1.6290 C   0  0  0  0  0  0  0  0  0  0  0  0
   -2.7650   -2.8490   -1.1690 C   0  0  2  0  0  0  0  0  0  0  0  0
   -2.8640   -1.6330   -2.0490 C   0  0  0  0  0  0  0  0  0  0  0  0
   -2.7670   -2.5360    0.3070 C   0  0  2  0  0  0  0  0  0  0  0  0
   -1.5980   -1.8390    0.7660 N   0  0  0  0  0  0  0  0  0  0  0  0
   -3.0420   -3.7650    1.0880 C   0  0  0  0  0  0  0  0  0  0  0  0
   -2.3230   -4.1430    2.0440 O   0  0  0  0  0  0  0  0  0  0  0  0
   -4.1400   -4.5410    0.7580 O   0  0  0  0  0  0  0  0  0  0  0  0
    0.2100   -3.2370   -2.6100 H   0  0  0  0  0  0  0  0  0  0  0  0
   -0.3270   -1.9840   -1.4920 H   0  0  0  0  0  0  0  0  0  0  0  0
    0.3520   -3.5940   -0.8690 H   0  0  0  0  0  0  0  0  0  0  0  0
   -1.8750   -3.9790   -2.6980 H   0  0  0  0  0  0  0  0  0  0  0  0
   -1.6190   -4.7040   -1.1140 H   0  0  0  0  0  0  0  0  0  0  0  0
   -3.7000   -3.4510   -1.4300 H   0  0  0  0  0  0  0  0  0  0  0  0
   -2.9490   -2.0250   -3.0990 H   0  0  0  0  0  0  0  0  0  0  0  0
   -3.8150   -1.0850   -1.8730 H   0  0  0  0  0  0  0  0  0  0  0  0
   -1.9960   -0.9730   -2.0390 H   0  0  0  0  0  0  0  0  0  0  0  0
   -3.6730   -1.8600    0.4340 H   0  0  0  0  0  0  0  0  0  0  0  0
   -0.6580   -2.2790    0.8410 H   0  0  0  0  0  0  0  0  0  0  0  0
  1 10  1  0  0  0  0
  2  1  1  0  0  0  0
  3  4  1  0  0  0  0
  3  2  1  0  0  0  0
  4 14  1  0  0  0  0
  4  5  1  0  0  0  0
  5 16  1  1  0  0  0
  5  6  1  0  0  0  0
  6 18  1  0  0  0  0
  6 17  1  0  0  0  0
  7  5  1  0  0  0  0
  7 19  1  0  0  0  0
  8  7  2  0  0  0  0
  9  1  1  0  0  0  0
 11  1  1  0  0  0  0
 12  3  1  0  0  0  0
 13  3  1  0  0  0  0
 15  4  1  0  0  0  0
 19 28  1  0  0  0  0
 20 19  1  0  0  0  0
 20 29  1  1  0  0  0
 21 30  1  0  0  0  0
 21 20  1  0  0  0  0
 21 22  1  0  0  0  0
 22 32  1  0  0  0  0
 22 33  1  0  0  0  0
 23 35  1  0  0  0  0
 23 22  1  0  0  0  0
 24 23  1  0  0  0  0
 24 37  1  0  0  0  0
 25 39  1  0  0  0  0
 25 24  1  0  0  0  0
 26 20  1  0  0  0  0
 27 26  2  0  0  0  0
 31 21  1  0  0  0  0
 34 23  1  0  0  0  0
 36 24  1  0  0  0  0
 38 25  1  0  0  0  0
 40 50  1  0  0  0  0
 40 51  1  0  0  0  0
 41 40  1  0  0  0  0
 41 42  1  0  0  0  0
 41 53  1  0  0  0  0
 42 54  1  6  0  0  0
 42 44  1  0  0  0  0
 43 57  1  0  0  0  0
 43 56  1  0  0  0  0
 43 42  1  0  0  0  0
 44 58  1  1  0  0  0
 44 45  1  0  0  0  0
 44 46  1  0  0  0  0
 45 59  1  0  0  0  0
 45 26  1  0  0  0  0
 46 47  1  0  0  0  0
 48 46  2  0  0  0  0
 49 40  1  0  0  0  0
 52 41  1  0  0  0  0
 55 43  1  0  0  0  0
M  END
$$$$
