MKL.pdb
 OpenBabel07022418563D

 59 58  0  0  1  0  0  0  0  0999 V2000
    1.8490   -4.1890    3.5960 C   0  0  0  0  0  0  0  0  0  0  0  0
    2.1760   -2.9000    2.3800 S   0  0  0  0  0  0  0  0  0  0  0  0
    3.6530   -3.2900    1.4130 C   0  0  0  0  0  0  0  0  0  0  0  0
    3.9040   -2.1930    0.4000 C   0  0  0  0  0  0  0  0  0  0  0  0
    4.1010   -0.8510    1.0880 C   0  0  2  0  0  0  0  0  0  0  0  0
    5.2300   -0.9940    1.9790 N   0  0  0  0  0  0  0  0  0  0  0  0
    2.8860   -0.3300    1.7110 C   0  0  0  0  0  0  0  0  0  0  0  0
    2.8360   -0.2250    2.9650 O   0  0  0  0  0  0  0  0  0  0  0  0
    1.5650   -5.1520    3.1550 H   0  0  0  0  0  0  0  0  0  0  0  0
    2.7920   -4.3540    4.1860 H   0  0  0  0  0  0  0  0  0  0  0  0
    1.1070   -3.8010    4.3150 H   0  0  0  0  0  0  0  0  0  0  0  0
    4.5200   -3.3990    2.1040 H   0  0  0  0  0  0  0  0  0  0  0  0
    3.5470   -4.2760    0.9190 H   0  0  0  0  0  0  0  0  0  0  0  0
    3.1210   -2.1620   -0.3730 H   0  0  0  0  0  0  0  0  0  0  0  0
    4.8650   -2.4290   -0.1060 H   0  0  0  0  0  0  0  0  0  0  0  0
    4.3760   -0.1400    0.2640 H   0  0  0  0  0  0  0  0  0  0  0  0
    5.8430   -0.1280    1.8980 H   0  0  0  0  0  0  0  0  0  0  0  0
    5.8580   -1.7770    1.6370 H   0  0  0  0  0  0  0  0  0  0  0  0
    1.7660    0.0640    0.9820 N   0  0  0  0  0  0  0  0  0  0  0  0
    0.5240    0.5940    1.6490 C   0  0  1  0  0  0  0  0  0  0  0  0
    0.4650    1.9840    1.1190 C   0  0  0  0  0  0  0  0  0  0  0  0
   -0.5260    2.9760    1.5180 C   0  0  0  0  0  0  0  0  0  0  0  0
   -1.9520    2.6770    1.2990 C   0  0  0  0  0  0  0  0  0  0  0  0
   -2.8200    3.9280    1.6690 C   0  0  0  0  0  0  0  0  0  0  0  0
   -4.2040    3.5610    1.4290 N   0  0  0  0  0  0  0  0  0  0  0  0
   -0.5570   -0.3230    1.1370 C   0  0  0  0  0  0  0  0  0  0  0  0
   -1.7090   -0.3600    1.6540 O   0  0  0  0  0  0  0  0  0  0  0  0
    1.7420    0.0360   -0.0360 H   0  0  0  0  0  0  0  0  0  0  0  0
    0.6290    0.5750    2.7300 H   0  0  0  0  0  0  0  0  0  0  0  0
    1.5320    2.3840    1.2530 H   0  0  0  0  0  0  0  0  0  0  0  0
    0.4600    1.8620   -0.0390 H   0  0  0  0  0  0  0  0  0  0  0  0
   -0.3210    3.9490    0.9340 H   0  0  0  0  0  0  0  0  0  0  0  0
   -0.3470    3.2970    2.6140 H   0  0  0  0  0  0  0  0  0  0  0  0
   -2.2870    1.9250    2.0890 H   0  0  0  0  0  0  0  0  0  0  0  0
   -2.2570    2.3080    0.3340 H   0  0  0  0  0  0  0  0  0  0  0  0
   -2.4870    4.7960    1.1040 H   0  0  0  0  0  0  0  0  0  0  0  0
   -2.6300    4.0710    2.7510 H   0  0  0  0  0  0  0  0  0  0  0  0
   -4.3030    2.8240    0.6960 H   0  0  0  0  0  0  0  0  0  0  0  0
   -4.6290    3.1240    2.3010 H   0  0  0  0  0  0  0  0  0  0  0  0
   -2.8560   -3.3780   -2.9430 C   0  0  0  0  0  0  0  0  0  0  0  0
   -3.0440   -1.9770   -2.4610 C   0  0  0  0  0  0  0  0  0  0  0  0
   -3.1090   -1.0920   -3.7280 C   0  0  0  0  0  0  0  0  0  0  0  0
   -1.9380   -1.4600   -1.6640 C   0  0  0  0  0  0  0  0  0  0  0  0
   -1.5200   -2.0620   -0.3840 C   0  0  2  0  0  0  0  0  0  0  0  0
   -0.3840   -1.2090    0.0480 N   0  0  0  0  0  0  0  0  0  0  0  0
   -1.0780   -3.4310   -0.3260 C   0  0  0  0  0  0  0  0  0  0  0  0
    0.1500   -3.6800   -0.1110 O   0  0  0  0  0  0  0  0  0  0  0  0
   -1.8370   -4.5820   -0.4750 O   0  0  0  0  0  0  0  0  0  0  0  0
   -3.5600   -4.1040   -2.4490 H   0  0  0  0  0  0  0  0  0  0  0  0
   -3.2180   -3.4190   -4.0270 H   0  0  0  0  0  0  0  0  0  0  0  0
   -1.8220   -3.7060   -3.0020 H   0  0  0  0  0  0  0  0  0  0  0  0
   -4.0590   -1.8170   -2.0130 H   0  0  0  0  0  0  0  0  0  0  0  0
   -3.5330   -0.1120   -3.5090 H   0  0  0  0  0  0  0  0  0  0  0  0
   -3.6750   -1.6380   -4.5260 H   0  0  0  0  0  0  0  0  0  0  0  0
   -2.0760   -0.9700   -4.0860 H   0  0  0  0  0  0  0  0  0  0  0  0
   -2.1720   -0.3680   -1.4340 H   0  0  0  0  0  0  0  0  0  0  0  0
   -1.0490   -1.3470   -2.3690 H   0  0  0  0  0  0  0  0  0  0  0  0
   -2.3460   -1.9420    0.3780 H   0  0  0  0  0  0  0  0  0  0  0  0
    0.4930   -1.3110   -0.4780 H   0  0  0  0  0  0  0  0  0  0  0  0
  1 10  1  0  0  0  0
  1 11  1  0  0  0  0
  2  1  1  0  0  0  0
  3 12  1  0  0  0  0
  3  2  1  0  0  0  0
  4  5  1  0  0  0  0
  4  3  1  0  0  0  0
  5 16  1  6  0  0  0
  5  7  1  0  0  0  0
  5  6  1  0  0  0  0
  7  8  2  0  0  0  0
  9  1  1  0  0  0  0
 13  3  1  0  0  0  0
 14  4  1  0  0  0  0
 15  4  1  0  0  0  0
 17  6  1  0  0  0  0
 18  6  1  0  0  0  0
 19 20  1  0  0  0  0
 19  7  1  0  0  0  0
 20 29  1  1  0  0  0
 21 30  1  0  0  0  0
 21 22  1  0  0  0  0
 21 20  1  0  0  0  0
 22 33  1  0  0  0  0
 23 22  1  0  0  0  0
 23 24  1  0  0  0  0
 23 34  1  0  0  0  0
 24 37  1  0  0  0  0
 25 24  1  0  0  0  0
 25 39  1  0  0  0  0
 26 20  1  0  0  0  0
 26 27  2  0  0  0  0
 28 19  1  0  0  0  0
 31 21  1  0  0  0  0
 32 22  1  0  0  0  0
 35 23  1  0  0  0  0
 36 24  1  0  0  0  0
 38 25  1  0  0  0  0
 40 41  1  0  0  0  0
 40 49  1  0  0  0  0
 41 52  1  0  0  0  0
 41 43  1  0  0  0  0
 42 53  1  0  0  0  0
 42 41  1  0  0  0  0
 43 56  1  0  0  0  0
 43 44  1  0  0  0  0
 44 46  1  0  0  0  0
 44 45  1  0  0  0  0
 44 58  1  1  0  0  0
 45 26  1  0  0  0  0
 46 47  1  0  0  0  0
 48 46  2  0  0  0  0
 50 40  1  0  0  0  0
 51 40  1  0  0  0  0
 54 42  1  0  0  0  0
 55 42  1  0  0  0  0
 57 43  1  0  0  0  0
 59 45  1  0  0  0  0
M  END
$$$$
