MKQ.pdb
 OpenBabel07022418563D

 57 56  0  0  1  0  0  0  0  0999 V2000
    2.6370   -4.8460    3.8600 C   0  0  0  0  0  0  0  0  0  0  0  0
    2.9600   -3.1040    4.1270 S   0  0  0  0  0  0  0  0  0  0  0  0
    3.3220   -2.2370    2.5770 C   0  0  0  0  0  0  0  0  0  0  0  0
    3.5890   -0.7710    2.8240 C   0  0  0  0  0  0  0  0  0  0  0  0
    2.3660   -0.1050    3.4690 C   0  0  2  0  0  0  0  0  0  0  0  0
    2.1500   -0.8060    4.7140 N   0  0  0  0  0  0  0  0  0  0  0  0
    1.1930   -0.3130    2.5630 C   0  0  0  0  0  0  0  0  0  0  0  0
    0.2390   -1.0230    2.9630 O   0  0  0  0  0  0  0  0  0  0  0  0
    1.9200   -5.2020    4.6460 H   0  0  0  0  0  0  0  0  0  0  0  0
    3.5380   -5.4750    3.8610 H   0  0  0  0  0  0  0  0  0  0  0  0
    2.0720   -4.9740    2.8950 H   0  0  0  0  0  0  0  0  0  0  0  0
    4.2530   -2.6660    2.1540 H   0  0  0  0  0  0  0  0  0  0  0  0
    2.5170   -2.4060    1.8310 H   0  0  0  0  0  0  0  0  0  0  0  0
    4.4400   -0.7240    3.5420 H   0  0  0  0  0  0  0  0  0  0  0  0
    3.8930   -0.2760    1.9050 H   0  0  0  0  0  0  0  0  0  0  0  0
    2.5990    0.9520    3.6150 H   0  0  0  0  0  0  0  0  0  0  0  0
    2.7510   -0.4770    5.4790 H   0  0  0  0  0  0  0  0  0  0  0  0
    1.1460   -0.6880    5.0350 H   0  0  0  0  0  0  0  0  0  0  0  0
    1.1120    0.2520    1.2820 N   0  0  0  0  0  0  0  0  0  0  0  0
    0.0170    0.1000    0.3510 C   0  0  1  0  0  0  0  0  0  0  0  0
   -0.5690    1.4360   -0.0460 C   0  0  0  0  0  0  0  0  0  0  0  0
   -1.1190    2.2270    1.1010 C   0  0  0  0  0  0  0  0  0  0  0  0
   -2.2370    1.5060    1.8180 C   0  0  0  0  0  0  0  0  0  0  0  0
   -2.6940    2.4200    2.9480 C   0  0  0  0  0  0  0  0  0  0  0  0
   -1.5710    2.6610    3.8330 N   0  0  0  0  0  0  0  0  0  0  0  0
    0.4800   -0.5460   -0.9170 C   0  0  0  0  0  0  0  0  0  0  0  0
    1.6850   -0.8800   -1.0670 O   0  0  0  0  0  0  0  0  0  0  0  0
    1.9460    0.8450    0.9890 H   0  0  0  0  0  0  0  0  0  0  0  0
   -0.7870   -0.4930    0.8310 H   0  0  0  0  0  0  0  0  0  0  0  0
    0.1820    2.0610   -0.5960 H   0  0  0  0  0  0  0  0  0  0  0  0
   -1.4030    1.3090   -0.7780 H   0  0  0  0  0  0  0  0  0  0  0  0
   -1.4060    3.2440    0.7900 H   0  0  0  0  0  0  0  0  0  0  0  0
   -0.2830    2.3420    1.8480 H   0  0  0  0  0  0  0  0  0  0  0  0
   -3.0980    1.3280    1.1410 H   0  0  0  0  0  0  0  0  0  0  0  0
   -1.8510    0.5960    2.2760 H   0  0  0  0  0  0  0  0  0  0  0  0
   -3.0140    3.3990    2.5350 H   0  0  0  0  0  0  0  0  0  0  0  0
   -3.5200    1.9530    3.5200 H   0  0  0  0  0  0  0  0  0  0  0  0
   -1.0680    1.7790    4.0740 H   0  0  0  0  0  0  0  0  0  0  0  0
   -1.8450    3.2160    4.6600 H   0  0  0  0  0  0  0  0  0  0  0  0
   -4.3140   -2.5050   -4.0560 N   0  0  0  0  0  0  0  0  0  0  0  0
   -2.8810   -2.3990   -4.1510 C   0  0  0  0  0  0  0  0  0  0  0  0
   -2.4640   -1.7720   -5.1400 O   0  0  0  0  0  0  0  0  0  0  0  0
   -1.9980   -2.9960   -3.1420 C   0  0  0  0  0  0  0  0  0  0  0  0
   -0.5500   -2.8020   -3.2650 C   0  0  0  0  0  0  0  0  0  0  0  0
    0.0150   -1.4360   -3.2420 C   0  0  2  0  0  0  0  0  0  0  0  0
   -0.3840   -0.8130   -1.9960 N   0  0  0  0  0  0  0  0  0  0  0  0
   -0.0630   -0.6120   -4.4230 C   0  0  0  0  0  0  0  0  0  0  0  0
    0.3970   -1.0700   -5.5290 O   0  0  0  0  0  0  0  0  0  0  0  0
   -0.5970    0.6650   -4.5120 O   0  0  0  0  0  0  0  0  0  0  0  0
   -4.8650   -1.6050   -4.0220 H   0  0  0  0  0  0  0  0  0  0  0  0
   -4.8200   -3.3980   -4.0210 H   0  0  0  0  0  0  0  0  0  0  0  0
   -2.3890   -2.8220   -2.0970 H   0  0  0  0  0  0  0  0  0  0  0  0
   -2.1750   -4.1200   -3.2520 H   0  0  0  0  0  0  0  0  0  0  0  0
   -0.2160   -3.3680   -4.1920 H   0  0  0  0  0  0  0  0  0  0  0  0
   -0.0640   -3.4110   -2.4420 H   0  0  0  0  0  0  0  0  0  0  0  0
    1.1440   -1.6160   -3.0730 H   0  0  0  0  0  0  0  0  0  0  0  0
   -1.4080   -0.5530   -1.9220 H   0  0  0  0  0  0  0  0  0  0  0  0
  1 10  1  0  0  0  0
  1  2  1  0  0  0  0
  1  9  1  0  0  0  0
  3  4  1  0  0  0  0
  3  2  1  0  0  0  0
  4  5  1  0  0  0  0
  4 14  1  0  0  0  0
  5 16  1  1  0  0  0
  5  6  1  0  0  0  0
  6 18  1  0  0  0  0
  6 17  1  0  0  0  0
  7  8  2  0  0  0  0
  7  5  1  0  0  0  0
 11  1  1  0  0  0  0
 12  3  1  0  0  0  0
 13  3  1  0  0  0  0
 15  4  1  0  0  0  0
 19  7  1  0  0  0  0
 20 29  1  1  0  0  0
 20 19  1  0  0  0  0
 21 20  1  0  0  0  0
 21 22  1  0  0  0  0
 22 23  1  0  0  0  0
 22 33  1  0  0  0  0
 23 35  1  0  0  0  0
 23 24  1  0  0  0  0
 24 37  1  0  0  0  0
 24 25  1  0  0  0  0
 25 38  1  0  0  0  0
 25 39  1  0  0  0  0
 26 20  1  0  0  0  0
 27 26  2  0  0  0  0
 28 19  1  0  0  0  0
 30 21  1  0  0  0  0
 31 21  1  0  0  0  0
 32 22  1  0  0  0  0
 34 23  1  0  0  0  0
 36 24  1  0  0  0  0
 40 50  1  0  0  0  0
 40 51  1  0  0  0  0
 41 40  1  0  0  0  0
 41 43  1  0  0  0  0
 42 41  2  0  0  0  0
 43 52  1  0  0  0  0
 44 45  1  0  0  0  0
 44 43  1  0  0  0  0
 44 55  1  0  0  0  0
 45 56  1  1  0  0  0
 45 46  1  0  0  0  0
 46 57  1  0  0  0  0
 46 26  1  0  0  0  0
 47 45  1  0  0  0  0
 48 47  2  0  0  0  0
 49 47  1  0  0  0  0
 53 43  1  0  0  0  0
 54 44  1  0  0  0  0
M  END
$$$$
