MKT.pdb
 OpenBabel07022418563D

 54 53  0  0  1  0  0  0  0  0999 V2000
    4.1800   -5.2150    3.2700 C   0  0  0  0  0  0  0  0  0  0  0  0
    5.2220   -3.7350    3.1530 S   0  0  0  0  0  0  0  0  0  0  0  0
    4.2640   -2.3700    2.3670 C   0  0  0  0  0  0  0  0  0  0  0  0
    3.9780   -2.8140    0.9740 C   0  0  0  0  0  0  0  0  0  0  0  0
    3.2020   -1.8900    0.1170 C   0  0  2  0  0  0  0  0  0  0  0  0
    3.8560   -0.6400   -0.0680 N   0  0  0  0  0  0  0  0  0  0  0  0
    1.7620   -1.7490    0.5000 C   0  0  0  0  0  0  0  0  0  0  0  0
    1.1730   -2.6080    1.2170 O   0  0  0  0  0  0  0  0  0  0  0  0
    3.3540   -5.1470    2.5090 H   0  0  0  0  0  0  0  0  0  0  0  0
    4.7340   -6.1500    3.0100 H   0  0  0  0  0  0  0  0  0  0  0  0
    3.7510   -5.3640    4.2700 H   0  0  0  0  0  0  0  0  0  0  0  0
    3.3670   -2.1530    2.9630 H   0  0  0  0  0  0  0  0  0  0  0  0
    4.9810   -1.5130    2.3270 H   0  0  0  0  0  0  0  0  0  0  0  0
    3.5700   -3.8700    0.9420 H   0  0  0  0  0  0  0  0  0  0  0  0
    4.9860   -2.9380    0.4650 H   0  0  0  0  0  0  0  0  0  0  0  0
    3.1670   -2.3820   -0.9180 H   0  0  0  0  0  0  0  0  0  0  0  0
    3.7470   -0.1860   -0.9770 H   0  0  0  0  0  0  0  0  0  0  0  0
    4.8420   -0.7020    0.2130 H   0  0  0  0  0  0  0  0  0  0  0  0
    0.9860   -0.6400    0.0690 N   0  0  0  0  0  0  0  0  0  0  0  0
   -0.3990   -0.4320    0.3980 C   0  0  1  0  0  0  0  0  0  0  0  0
   -0.7350    0.9080    0.9490 C   0  0  0  0  0  0  0  0  0  0  0  0
   -0.0020    1.2240    2.2210 C   0  0  0  0  0  0  0  0  0  0  0  0
   -0.2720    2.5480    2.8220 C   0  0  0  0  0  0  0  0  0  0  0  0
   -1.6530    2.8650    3.2360 C   0  0  0  0  0  0  0  0  0  0  0  0
   -2.6650    2.8660    2.2430 N   0  0  0  0  0  0  0  0  0  0  0  0
   -1.3050   -0.8560   -0.7090 C   0  0  0  0  0  0  0  0  0  0  0  0
   -0.8540   -1.3860   -1.7540 O   0  0  0  0  0  0  0  0  0  0  0  0
    1.5270    0.0460   -0.5470 H   0  0  0  0  0  0  0  0  0  0  0  0
   -0.6250   -1.1900    1.2100 H   0  0  0  0  0  0  0  0  0  0  0  0
   -0.5430    1.7480    0.2600 H   0  0  0  0  0  0  0  0  0  0  0  0
   -1.8310    0.9820    1.1920 H   0  0  0  0  0  0  0  0  0  0  0  0
    1.1160    1.1650    2.0690 H   0  0  0  0  0  0  0  0  0  0  0  0
   -0.1990    0.4480    3.0130 H   0  0  0  0  0  0  0  0  0  0  0  0
    0.3690    2.6280    3.7500 H   0  0  0  0  0  0  0  0  0  0  0  0
    0.1640    3.3360    2.1400 H   0  0  0  0  0  0  0  0  0  0  0  0
   -1.6260    3.9030    3.6840 H   0  0  0  0  0  0  0  0  0  0  0  0
   -2.0220    2.2340    4.0840 H   0  0  0  0  0  0  0  0  0  0  0  0
   -2.8890    3.8210    1.8540 H   0  0  0  0  0  0  0  0  0  0  0  0
   -3.5800    2.4610    2.5510 H   0  0  0  0  0  0  0  0  0  0  0  0
   -3.9380    1.1720   -2.5350 C   0  0  0  0  0  0  0  0  0  0  0  0
   -3.5750   -0.2570   -2.9180 C   0  0  1  0  0  0  0  0  0  0  0  0
   -2.3620   -0.2080   -3.5500 O   0  0  0  0  0  0  0  0  0  0  0  0
   -3.6190   -1.0980   -1.6880 C   0  0  2  0  0  0  0  0  0  0  0  0
   -2.7150   -0.6880   -0.6400 N   0  0  0  0  0  0  0  0  0  0  0  0
   -3.4170   -2.5380   -1.9550 C   0  0  0  0  0  0  0  0  0  0  0  0
   -4.0450   -3.1300   -2.8450 O   0  0  0  0  0  0  0  0  0  0  0  0
   -2.5090   -3.2470   -1.1960 O   0  0  0  0  0  0  0  0  0  0  0  0
   -3.9950    1.3100   -1.4420 H   0  0  0  0  0  0  0  0  0  0  0  0
   -4.9440    1.4590   -2.9450 H   0  0  0  0  0  0  0  0  0  0  0  0
   -3.1790    1.9080   -2.9070 H   0  0  0  0  0  0  0  0  0  0  0  0
   -4.3120   -0.6840   -3.6310 H   0  0  0  0  0  0  0  0  0  0  0  0
   -2.3180   -0.6430   -4.4160 H   0  0  0  0  0  0  0  0  0  0  0  0
   -4.6920   -1.0540   -1.3030 H   0  0  0  0  0  0  0  0  0  0  0  0
   -3.1200   -0.2390    0.2080 H   0  0  0  0  0  0  0  0  0  0  0  0
  1 11  1  0  0  0  0
  2  1  1  0  0  0  0
  3 12  1  0  0  0  0
  3  2  1  0  0  0  0
  4  3  1  0  0  0  0
  5 16  1  6  0  0  0
  5  7  1  0  0  0  0
  5  4  1  0  0  0  0
  6  5  1  0  0  0  0
  6 18  1  0  0  0  0
  7  8  2  0  0  0  0
  9  1  1  0  0  0  0
 10  1  1  0  0  0  0
 13  3  1  0  0  0  0
 14  4  1  0  0  0  0
 15  4  1  0  0  0  0
 17  6  1  0  0  0  0
 19 20  1  0  0  0  0
 19  7  1  0  0  0  0
 20 21  1  0  0  0  0
 20 29  1  1  0  0  0
 21 31  1  0  0  0  0
 21 22  1  0  0  0  0
 22 23  1  0  0  0  0
 22 33  1  0  0  0  0
 23 24  1  0  0  0  0
 23 34  1  0  0  0  0
 24 36  1  0  0  0  0
 24 37  1  0  0  0  0
 25 39  1  0  0  0  0
 25 24  1  0  0  0  0
 26 44  1  0  0  0  0
 26 20  1  0  0  0  0
 27 26  2  0  0  0  0
 28 19  1  0  0  0  0
 30 21  1  0  0  0  0
 32 22  1  0  0  0  0
 35 23  1  0  0  0  0
 38 25  1  0  0  0  0
 40 48  1  0  0  0  0
 41 51  1  6  0  0  0
 41 40  1  0  0  0  0
 41 43  1  0  0  0  0
 42 41  1  0  0  0  0
 43 53  1  1  0  0  0
 43 44  1  0  0  0  0
 44 54  1  0  0  0  0
 45 43  1  0  0  0  0
 45 47  1  0  0  0  0
 46 45  2  0  0  0  0
 49 40  1  0  0  0  0
 50 40  1  0  0  0  0
 52 42  1  0  0  0  0
M  END
$$$$
