MLC.pdb
 OpenBabel07022418553D

 49 48  0  0  1  0  0  0  0  0999 V2000
    2.2210   -6.4460    1.7590 C   0  0  0  0  0  0  0  0  0  0  0  0
    3.3760   -5.6920    0.5860 S   0  0  0  0  0  0  0  0  0  0  0  0
    2.7650   -4.0790    0.0080 C   0  0  0  0  0  0  0  0  0  0  0  0
    1.5100   -4.2390   -0.8150 C   0  0  0  0  0  0  0  0  0  0  0  0
    0.9410   -2.9660   -1.3390 C   0  0  2  0  0  0  0  0  0  0  0  0
    1.8510   -2.2370   -2.2050 N   0  0  0  0  0  0  0  0  0  0  0  0
    0.3080   -2.0990   -0.3190 C   0  0  0  0  0  0  0  0  0  0  0  0
   -0.3900   -2.7030    0.5560 O   0  0  0  0  0  0  0  0  0  0  0  0
    2.7340   -7.2680    2.2990 H   0  0  0  0  0  0  0  0  0  0  0  0
    1.8790   -5.7250    2.5310 H   0  0  0  0  0  0  0  0  0  0  0  0
    1.3570   -6.9050    1.2110 H   0  0  0  0  0  0  0  0  0  0  0  0
    3.5470   -3.6610   -0.6580 H   0  0  0  0  0  0  0  0  0  0  0  0
    2.6260   -3.3790    0.8420 H   0  0  0  0  0  0  0  0  0  0  0  0
    0.7560   -4.8130   -0.2350 H   0  0  0  0  0  0  0  0  0  0  0  0
    1.7090   -4.8870   -1.7180 H   0  0  0  0  0  0  0  0  0  0  0  0
    0.0660   -3.2850   -2.0030 H   0  0  0  0  0  0  0  0  0  0  0  0
    1.3630   -1.4220   -2.6090 H   0  0  0  0  0  0  0  0  0  0  0  0
    2.0310   -2.8880   -3.0270 H   0  0  0  0  0  0  0  0  0  0  0  0
    2.8230    0.0380    1.1930 C   0  0  0  0  0  0  0  0  0  0  0  0
    1.8200    0.6660    2.0990 C   0  0  0  0  0  0  0  0  0  0  0  0
    2.4710    1.9080    2.7100 C   0  0  0  0  0  0  0  0  0  0  0  0
    0.5600    1.0970    1.4380 C   0  0  0  0  0  0  0  0  0  0  0  0
   -0.2380    0.0300    0.7720 C   0  0  2  0  0  0  0  0  0  0  0  0
    0.4370   -0.6820   -0.2760 N   0  0  0  0  0  0  0  0  0  0  0  0
   -1.4110    0.7380    0.1310 C   0  0  0  0  0  0  0  0  0  0  0  0
   -1.5710    0.6080   -1.0930 O   0  0  0  0  0  0  0  0  0  0  0  0
    3.8330    0.1620    1.6800 H   0  0  0  0  0  0  0  0  0  0  0  0
    2.8880    0.6310    0.2500 H   0  0  0  0  0  0  0  0  0  0  0  0
    2.6310   -1.0180    1.0270 H   0  0  0  0  0  0  0  0  0  0  0  0
    1.6240   -0.0110    2.9600 H   0  0  0  0  0  0  0  0  0  0  0  0
    3.4740    1.6100    3.0930 H   0  0  0  0  0  0  0  0  0  0  0  0
    1.8590    2.2970    3.5410 H   0  0  0  0  0  0  0  0  0  0  0  0
    2.5470    2.6900    1.9510 H   0  0  0  0  0  0  0  0  0  0  0  0
   -0.0960    1.5150    2.2580 H   0  0  0  0  0  0  0  0  0  0  0  0
    0.7120    1.9560    0.7500 H   0  0  0  0  0  0  0  0  0  0  0  0
   -0.6410   -0.7020    1.5090 H   0  0  0  0  0  0  0  0  0  0  0  0
    1.0150   -0.2110   -1.0040 H   0  0  0  0  0  0  0  0  0  0  0  0
   -2.2900    1.5200    0.9100 N   0  0  0  0  0  0  0  0  0  0  0  0
   -3.4390    2.2220    0.3170 C   0  0  1  0  0  0  0  0  0  0  0  0
   -4.7050    1.6330    0.8950 C   0  0  0  0  0  0  0  0  0  0  0  0
   -6.1540    2.4610    0.1980 S   0  0  0  0  0  0  0  0  0  0  0  0
   -3.3210    3.6620    0.5640 C   0  0  0  0  0  0  0  0  0  0  0  0
   -4.1760    4.4850    0.1630 O   0  0  0  0  0  0  0  0  0  0  0  0
   -2.2310    4.1750    1.2670 O   0  0  0  0  0  0  0  0  0  0  0  0
   -2.0990    1.5870    1.9360 H   0  0  0  0  0  0  0  0  0  0  0  0
   -3.4400    2.0090   -0.7710 H   0  0  0  0  0  0  0  0  0  0  0  0
   -4.7290    0.5490    0.6120 H   0  0  0  0  0  0  0  0  0  0  0  0
   -4.7080    1.7710    1.9840 H   0  0  0  0  0  0  0  0  0  0  0  0
   -7.1780    1.5060   -0.0610 H   0  0  0  0  0  0  0  0  0  0  0  0
  1  9  1  0  0  0  0
  1 10  1  0  0  0  0
  2  1  1  0  0  0  0
  3  2  1  0  0  0  0
  3 13  1  0  0  0  0
  4 14  1  0  0  0  0
  4  3  1  0  0  0  0
  5 16  1  6  0  0  0
  5  4  1  0  0  0  0
  5  7  1  0  0  0  0
  6  5  1  0  0  0  0
  7 24  1  0  0  0  0
  7  8  2  0  0  0  0
 11  1  1  0  0  0  0
 12  3  1  0  0  0  0
 15  4  1  0  0  0  0
 17  6  1  0  0  0  0
 18  6  1  0  0  0  0
 19 27  1  0  0  0  0
 19 20  1  0  0  0  0
 20 21  1  0  0  0  0
 20 30  1  0  0  0  0
 21 31  1  0  0  0  0
 21 32  1  0  0  0  0
 22 20  1  0  0  0  0
 22 34  1  0  0  0  0
 23 22  1  0  0  0  0
 23 36  1  1  0  0  0
 24 23  1  0  0  0  0
 25 23  1  0  0  0  0
 25 38  1  0  0  0  0
 26 25  2  0  0  0  0
 28 19  1  0  0  0  0
 29 19  1  0  0  0  0
 33 21  1  0  0  0  0
 35 22  1  0  0  0  0
 37 24  1  0  0  0  0
 38 45  1  0  0  0  0
 39 46  1  6  0  0  0
 39 42  1  0  0  0  0
 39 40  1  0  0  0  0
 39 38  1  0  0  0  0
 40 48  1  0  0  0  0
 41 40  1  0  0  0  0
 42 44  1  0  0  0  0
 43 42  2  0  0  0  0
 47 40  1  0  0  0  0
 49 41  1  0  0  0  0
M  END
$$$$
