MLD.pdb
 OpenBabel07022418553D

 51 50  0  0  1  0  0  0  0  0999 V2000
    0.7750   -4.8200    3.0460 C   0  0  0  0  0  0  0  0  0  0  0  0
   -0.1510   -3.6160    4.0090 S   0  0  0  0  0  0  0  0  0  0  0  0
   -0.1170   -1.9700    3.2260 C   0  0  0  0  0  0  0  0  0  0  0  0
    1.2900   -1.4750    3.2710 C   0  0  0  0  0  0  0  0  0  0  0  0
    1.4900   -0.1160    2.6640 C   0  0  2  0  0  0  0  0  0  0  0  0
    0.7230    0.9270    3.3100 N   0  0  0  0  0  0  0  0  0  0  0  0
    1.2230   -0.1270    1.1930 C   0  0  0  0  0  0  0  0  0  0  0  0
    1.6900   -1.0140    0.4420 O   0  0  0  0  0  0  0  0  0  0  0  0
    0.7470   -4.6090    1.9550 H   0  0  0  0  0  0  0  0  0  0  0  0
    1.8530   -4.7700    3.3600 H   0  0  0  0  0  0  0  0  0  0  0  0
    0.4260   -5.8520    3.2440 H   0  0  0  0  0  0  0  0  0  0  0  0
   -0.8190   -1.3270    3.7850 H   0  0  0  0  0  0  0  0  0  0  0  0
   -0.4120   -2.0680    2.1580 H   0  0  0  0  0  0  0  0  0  0  0  0
    1.9120   -2.1900    2.6820 H   0  0  0  0  0  0  0  0  0  0  0  0
    1.6450   -1.4140    4.3230 H   0  0  0  0  0  0  0  0  0  0  0  0
    2.5640    0.1470    2.8610 H   0  0  0  0  0  0  0  0  0  0  0  0
    0.5420    0.7030    4.3200 H   0  0  0  0  0  0  0  0  0  0  0  0
    1.1960    1.8580    3.2420 H   0  0  0  0  0  0  0  0  0  0  0  0
    3.0390    1.9150   -0.4630 C   0  0  0  0  0  0  0  0  0  0  0  0
    2.3200    1.8090   -1.7750 C   0  0  0  0  0  0  0  0  0  0  0  0
    3.3900    1.3290   -2.7810 C   0  0  0  0  0  0  0  0  0  0  0  0
    1.2410    0.7870   -1.7930 C   0  0  0  0  0  0  0  0  0  0  0  0
    0.1200    0.9470   -0.8260 C   0  0  2  0  0  0  0  0  0  0  0  0
    0.4110    0.8870    0.5580 N   0  0  0  0  0  0  0  0  0  0  0  0
   -1.0660    0.1740   -1.1830 C   0  0  0  0  0  0  0  0  0  0  0  0
   -1.3940    0.1080   -2.4210 O   0  0  0  0  0  0  0  0  0  0  0  0
    3.9610    2.5810   -0.5780 H   0  0  0  0  0  0  0  0  0  0  0  0
    3.4640    0.9250   -0.2150 H   0  0  0  0  0  0  0  0  0  0  0  0
    2.4180    2.2760    0.3570 H   0  0  0  0  0  0  0  0  0  0  0  0
    1.9670    2.8150   -2.1270 H   0  0  0  0  0  0  0  0  0  0  0  0
    3.0770    1.5130   -3.8080 H   0  0  0  0  0  0  0  0  0  0  0  0
    4.3700    1.7760   -2.5560 H   0  0  0  0  0  0  0  0  0  0  0  0
    3.5100    0.2190   -2.6570 H   0  0  0  0  0  0  0  0  0  0  0  0
    0.7760    0.8010   -2.8290 H   0  0  0  0  0  0  0  0  0  0  0  0
    1.7380   -0.2050   -1.7350 H   0  0  0  0  0  0  0  0  0  0  0  0
   -0.2220    2.0600   -0.9750 H   0  0  0  0  0  0  0  0  0  0  0  0
    0.0410    1.6060    1.2550 H   0  0  0  0  0  0  0  0  0  0  0  0
   -1.9250   -0.5300   -0.2990 N   0  0  0  0  0  0  0  0  0  0  0  0
   -3.0860   -1.2660   -0.7930 C   0  0  1  0  0  0  0  0  0  0  0  0
   -3.0470   -2.7180   -0.3840 C   0  0  0  0  0  0  0  0  0  0  0  0
   -3.0470   -2.8790    1.0920 C   0  0  0  0  0  0  0  0  0  0  0  0
   -3.1150   -1.9120    1.8870 O   0  0  0  0  0  0  0  0  0  0  0  0
   -4.3470   -0.6510   -0.3170 C   0  0  0  0  0  0  0  0  0  0  0  0
   -5.4460   -1.1450   -0.6420 O   0  0  0  0  0  0  0  0  0  0  0  0
   -2.9660   -4.1720    1.5860 O   0  0  0  0  0  0  0  0  0  0  0  0
   -4.3400    0.4700    0.4860 O   0  0  0  0  0  0  0  0  0  0  0  0
   -1.6830   -0.4940    0.7140 H   0  0  0  0  0  0  0  0  0  0  0  0
   -3.0560   -1.2230   -1.8970 H   0  0  0  0  0  0  0  0  0  0  0  0
   -4.0220   -3.1560   -0.7310 H   0  0  0  0  0  0  0  0  0  0  0  0
   -2.2420   -3.2580   -0.8880 H   0  0  0  0  0  0  0  0  0  0  0  0
   -2.9210   -4.3130    2.5850 H   0  0  0  0  0  0  0  0  0  0  0  0
  1 11  1  0  0  0  0
  1 10  1  0  0  0  0
  1  2  1  0  0  0  0
  3  4  1  0  0  0  0
  3 12  1  0  0  0  0
  3  2  1  0  0  0  0
  4 15  1  0  0  0  0
  5 16  1  1  0  0  0
  5  4  1  0  0  0  0
  5  6  1  0  0  0  0
  6 17  1  0  0  0  0
  7  5  1  0  0  0  0
  8  7  2  0  0  0  0
  9  1  1  0  0  0  0
 13  3  1  0  0  0  0
 14  4  1  0  0  0  0
 18  6  1  0  0  0  0
 19 28  1  0  0  0  0
 19 29  1  0  0  0  0
 20 19  1  0  0  0  0
 21 33  1  0  0  0  0
 21 32  1  0  0  0  0
 21 20  1  0  0  0  0
 22 20  1  0  0  0  0
 22 35  1  0  0  0  0
 22 23  1  0  0  0  0
 23 36  1  6  0  0  0
 23 24  1  0  0  0  0
 24  7  1  0  0  0  0
 24 37  1  0  0  0  0
 25 23  1  0  0  0  0
 25 38  1  0  0  0  0
 26 25  2  0  0  0  0
 27 19  1  0  0  0  0
 30 20  1  0  0  0  0
 31 21  1  0  0  0  0
 34 22  1  0  0  0  0
 38 47  1  0  0  0  0
 39 48  1  6  0  0  0
 39 40  1  0  0  0  0
 39 43  1  0  0  0  0
 39 38  1  0  0  0  0
 40 41  1  0  0  0  0
 41 45  1  0  0  0  0
 41 42  2  0  0  0  0
 43 46  1  0  0  0  0
 44 43  2  0  0  0  0
 45 51  1  0  0  0  0
 49 40  1  0  0  0  0
 50 40  1  0  0  0  0
M  END
$$$$
