MLE.pdb
 OpenBabel07022418553D

 54 53  0  0  1  0  0  0  0  0999 V2000
    3.3720   -3.8390    3.8700 C   0  0  0  0  0  0  0  0  0  0  0  0
    4.2410   -2.6460    2.8630 S   0  0  0  0  0  0  0  0  0  0  0  0
    3.5320   -2.4000    1.2380 C   0  0  0  0  0  0  0  0  0  0  0  0
    2.1600   -1.7670    1.2840 C   0  0  0  0  0  0  0  0  0  0  0  0
    2.2790   -0.4120    1.9650 C   0  0  2  0  0  0  0  0  0  0  0  0
    2.7860   -0.5570    3.3160 N   0  0  0  0  0  0  0  0  0  0  0  0
    1.0070    0.3300    1.9590 C   0  0  0  0  0  0  0  0  0  0  0  0
    0.5130    0.7220    3.0370 O   0  0  0  0  0  0  0  0  0  0  0  0
    3.8710   -4.8470    3.8150 H   0  0  0  0  0  0  0  0  0  0  0  0
    3.4400   -3.5240    4.9530 H   0  0  0  0  0  0  0  0  0  0  0  0
    2.3200   -3.9980    3.5990 H   0  0  0  0  0  0  0  0  0  0  0  0
    4.1940   -1.7140    0.6730 H   0  0  0  0  0  0  0  0  0  0  0  0
    3.4630   -3.3480    0.6500 H   0  0  0  0  0  0  0  0  0  0  0  0
    1.8580   -1.5700    0.2350 H   0  0  0  0  0  0  0  0  0  0  0  0
    1.4010   -2.4110    1.7290 H   0  0  0  0  0  0  0  0  0  0  0  0
    3.0330    0.1620    1.3880 H   0  0  0  0  0  0  0  0  0  0  0  0
    1.9590   -0.4180    3.9590 H   0  0  0  0  0  0  0  0  0  0  0  0
    3.4210    0.2530    3.5210 H   0  0  0  0  0  0  0  0  0  0  0  0
    0.0280    4.1720    1.5010 C   0  0  0  0  0  0  0  0  0  0  0  0
    0.1890    3.5360    0.1450 C   0  0  0  0  0  0  0  0  0  0  0  0
    1.5970    3.0730   -0.1350 C   0  0  0  0  0  0  0  0  0  0  0  0
   -0.8570    2.5250   -0.1690 C   0  0  0  0  0  0  0  0  0  0  0  0
   -0.9520    1.3580    0.7550 C   0  0  2  0  0  0  0  0  0  0  0  0
    0.2980    0.6280    0.7640 N   0  0  0  0  0  0  0  0  0  0  0  0
   -2.0190    0.4560    0.1790 C   0  0  0  0  0  0  0  0  0  0  0  0
   -3.2040    0.8290    0.0530 O   0  0  0  0  0  0  0  0  0  0  0  0
   -0.2190    3.4570    2.2880 H   0  0  0  0  0  0  0  0  0  0  0  0
   -0.7000    5.0180    1.4540 H   0  0  0  0  0  0  0  0  0  0  0  0
    1.0170    4.6400    1.7540 H   0  0  0  0  0  0  0  0  0  0  0  0
    0.0200    4.3850   -0.5890 H   0  0  0  0  0  0  0  0  0  0  0  0
    1.5770    2.3610   -0.9700 H   0  0  0  0  0  0  0  0  0  0  0  0
    2.1270    2.7130    0.7690 H   0  0  0  0  0  0  0  0  0  0  0  0
    2.2190    3.9380   -0.4940 H   0  0  0  0  0  0  0  0  0  0  0  0
   -0.5840    2.1020   -1.1820 H   0  0  0  0  0  0  0  0  0  0  0  0
   -1.8740    2.9880   -0.2240 H   0  0  0  0  0  0  0  0  0  0  0  0
   -1.2620    1.6320    1.7830 H   0  0  0  0  0  0  0  0  0  0  0  0
    0.7230    0.2930   -0.1260 H   0  0  0  0  0  0  0  0  0  0  0  0
   -1.7090   -0.8560   -0.2430 N   0  0  0  0  0  0  0  0  0  0  0  0
   -2.7980   -1.6850   -0.7980 C   0  0  1  0  0  0  0  0  0  0  0  0
   -2.4260   -2.1300   -2.1690 C   0  0  0  0  0  0  0  0  0  0  0  0
   -3.3430   -2.9330   -2.9740 C   0  0  0  0  0  0  0  0  0  0  0  0
   -3.7820   -4.2430   -2.5430 C   0  0  0  0  0  0  0  0  0  0  0  0
   -5.0160   -4.5500   -2.3590 O   0  0  0  0  0  0  0  0  0  0  0  0
   -2.8940   -2.8100    0.1740 C   0  0  0  0  0  0  0  0  0  0  0  0
   -3.7550   -3.7080    0.1640 O   0  0  0  0  0  0  0  0  0  0  0  0
   -2.8950   -5.3110   -2.2850 O   0  0  0  0  0  0  0  0  0  0  0  0
   -1.9620   -2.9510    1.2410 O   0  0  0  0  0  0  0  0  0  0  0  0
   -0.7590   -1.2680   -0.1850 H   0  0  0  0  0  0  0  0  0  0  0  0
   -3.7500   -1.1700   -0.8150 H   0  0  0  0  0  0  0  0  0  0  0  0
   -2.0840   -1.2620   -2.8060 H   0  0  0  0  0  0  0  0  0  0  0  0
   -1.4510   -2.7340   -2.0890 H   0  0  0  0  0  0  0  0  0  0  0  0
   -2.9320   -3.0750   -4.0350 H   0  0  0  0  0  0  0  0  0  0  0  0
   -4.2990   -2.3420   -3.2080 H   0  0  0  0  0  0  0  0  0  0  0  0
   -3.2280   -6.2630   -2.4030 H   0  0  0  0  0  0  0  0  0  0  0  0
  1 10  1  0  0  0  0
  2  1  1  0  0  0  0
  3  4  1  0  0  0  0
  3  2  1  0  0  0  0
  4 15  1  0  0  0  0
  4  5  1  0  0  0  0
  5 16  1  6  0  0  0
  5  6  1  0  0  0  0
  6 18  1  0  0  0  0
  6 17  1  0  0  0  0
  7  5  1  0  0  0  0
  7  8  2  0  0  0  0
  9  1  1  0  0  0  0
 11  1  1  0  0  0  0
 12  3  1  0  0  0  0
 13  3  1  0  0  0  0
 14  4  1  0  0  0  0
 19 29  1  0  0  0  0
 19 27  1  0  0  0  0
 20 19  1  0  0  0  0
 21 20  1  0  0  0  0
 21 32  1  0  0  0  0
 22 20  1  0  0  0  0
 22 23  1  0  0  0  0
 23 24  1  0  0  0  0
 23 36  1  1  0  0  0
 24  7  1  0  0  0  0
 25 23  1  0  0  0  0
 26 25  2  0  0  0  0
 28 19  1  0  0  0  0
 30 20  1  0  0  0  0
 31 21  1  0  0  0  0
 33 21  1  0  0  0  0
 34 22  1  0  0  0  0
 35 22  1  0  0  0  0
 37 24  1  0  0  0  0
 38 48  1  0  0  0  0
 38 25  1  0  0  0  0
 39 49  1  6  0  0  0
 39 38  1  0  0  0  0
 39 44  1  0  0  0  0
 40 51  1  0  0  0  0
 40 39  1  0  0  0  0
 41 42  1  0  0  0  0
 41 40  1  0  0  0  0
 42 43  2  0  0  0  0
 42 46  1  0  0  0  0
 44 47  1  0  0  0  0
 45 44  2  0  0  0  0
 50 40  1  0  0  0  0
 52 41  1  0  0  0  0
 53 41  1  0  0  0  0
 54 46  1  0  0  0  0
M  END
$$$$
