MLF.pdb
 OpenBabel07022418553D

 58 58  0  0  1  0  0  0  0  0999 V2000
    0.9810    0.3870    7.4330 C   0  0  0  0  0  0  0  0  0  0  0  0
    2.6190    0.4610    6.6500 S   0  0  0  0  0  0  0  0  0  0  0  0
    2.4720   -0.4130    5.0380 C   0  0  0  0  0  0  0  0  0  0  0  0
    2.1750   -1.8880    5.2890 C   0  0  0  0  0  0  0  0  0  0  0  0
    2.0570   -2.6300    3.9820 C   0  0  2  0  0  0  0  0  0  0  0  0
    3.3100   -2.5050    3.2740 N   0  0  0  0  0  0  0  0  0  0  0  0
    0.9130   -2.1250    3.1760 C   0  0  0  0  0  0  0  0  0  0  0  0
   -0.2200   -2.1180    3.6670 O   0  0  0  0  0  0  0  0  0  0  0  0
    0.3050    1.1880    7.0800 H   0  0  0  0  0  0  0  0  0  0  0  0
    0.4890   -0.5920    7.1480 H   0  0  0  0  0  0  0  0  0  0  0  0
    1.1410    0.3860    8.5320 H   0  0  0  0  0  0  0  0  0  0  0  0
    3.4420   -0.2770    4.5520 H   0  0  0  0  0  0  0  0  0  0  0  0
    1.6230    0.0910    4.5100 H   0  0  0  0  0  0  0  0  0  0  0  0
    2.9870   -2.2750    5.9260 H   0  0  0  0  0  0  0  0  0  0  0  0
    1.2160   -1.9590    5.8630 H   0  0  0  0  0  0  0  0  0  0  0  0
    1.8870   -3.7100    4.2230 H   0  0  0  0  0  0  0  0  0  0  0  0
    4.1150   -2.6960    3.9200 H   0  0  0  0  0  0  0  0  0  0  0  0
    3.4250   -1.5190    2.9560 H   0  0  0  0  0  0  0  0  0  0  0  0
    2.6740    0.5290    0.4350 C   0  0  0  0  0  0  0  0  0  0  0  0
    1.3230    0.7020   -0.1460 C   0  0  0  0  0  0  0  0  0  0  0  0
    1.1260    2.1980   -0.4540 C   0  0  0  0  0  0  0  0  0  0  0  0
    0.1490    0.2720    0.6410 C   0  0  0  0  0  0  0  0  0  0  0  0
    0.0260   -1.1610    1.0220 C   0  0  2  0  0  0  0  0  0  0  0  0
    1.0740   -1.6480    1.8400 N   0  0  0  0  0  0  0  0  0  0  0  0
   -0.2950   -2.0840   -0.0970 C   0  0  0  0  0  0  0  0  0  0  0  0
    0.1960   -3.2570   -0.1940 O   0  0  0  0  0  0  0  0  0  0  0  0
    2.7580    0.5580    1.5290 H   0  0  0  0  0  0  0  0  0  0  0  0
    3.2980    1.4300    0.0930 H   0  0  0  0  0  0  0  0  0  0  0  0
    3.2700   -0.3170    0.0470 H   0  0  0  0  0  0  0  0  0  0  0  0
    1.3160    0.2000   -1.1510 H   0  0  0  0  0  0  0  0  0  0  0  0
    1.2930    2.7250    0.5200 H   0  0  0  0  0  0  0  0  0  0  0  0
    0.0650    2.3310   -0.7180 H   0  0  0  0  0  0  0  0  0  0  0  0
    1.8320    2.5290   -1.2410 H   0  0  0  0  0  0  0  0  0  0  0  0
   -0.7730    0.5870    0.0900 H   0  0  0  0  0  0  0  0  0  0  0  0
    0.1290    0.8680    1.6070 H   0  0  0  0  0  0  0  0  0  0  0  0
   -0.9410   -1.1990    1.6570 H   0  0  0  0  0  0  0  0  0  0  0  0
    2.0410   -1.6880    1.4650 H   0  0  0  0  0  0  0  0  0  0  0  0
   -1.1840   -1.6790   -1.1240 N   0  0  0  0  0  0  0  0  0  0  0  0
   -1.5260   -2.5880   -2.2230 C   0  0  1  0  0  0  0  0  0  0  0  0
   -2.9120   -2.4260   -2.7350 C   0  0  0  0  0  0  0  0  0  0  0  0
   -3.2320   -1.1300   -3.2970 C   0  0  0  0  0  0  0  0  0  0  0  0
   -3.7200   -0.1010   -2.5500 C   0  0  0  0  0  0  0  0  0  0  0  0
   -4.0070    1.1530   -3.0880 C   0  0  0  0  0  0  0  0  0  0  0  0
   -3.7860    1.3430   -4.4220 C   0  0  0  0  0  0  0  0  0  0  0  0
   -3.2880    0.3090   -5.1990 C   0  0  0  0  0  0  0  0  0  0  0  0
   -3.0150   -0.9150   -4.6450 C   0  0  0  0  0  0  0  0  0  0  0  0
   -0.4910   -2.4970   -3.3040 C   0  0  0  0  0  0  0  0  0  0  0  0
    0.5120   -1.7260   -3.2480 O   0  0  0  0  0  0  0  0  0  0  0  0
   -0.5890   -3.2740   -4.4500 O   0  0  0  0  0  0  0  0  0  0  0  0
   -1.6080   -0.7320   -1.1080 H   0  0  0  0  0  0  0  0  0  0  0  0
   -1.3930   -3.6100   -1.8260 H   0  0  0  0  0  0  0  0  0  0  0  0
   -3.1350   -3.2260   -3.5030 H   0  0  0  0  0  0  0  0  0  0  0  0
   -3.5920   -2.7240   -1.8780 H   0  0  0  0  0  0  0  0  0  0  0  0
   -3.9240   -0.1790   -1.4820 H   0  0  0  0  0  0  0  0  0  0  0  0
   -4.3930    1.9550   -2.4730 H   0  0  0  0  0  0  0  0  0  0  0  0
   -3.9900    2.3080   -4.9090 H   0  0  0  0  0  0  0  0  0  0  0  0
   -3.1090    0.4610   -6.2730 H   0  0  0  0  0  0  0  0  0  0  0  0
   -2.6330   -1.6840   -5.3020 H   0  0  0  0  0  0  0  0  0  0  0  0
  1 11  1  0  0  0  0
  2  1  1  0  0  0  0
  3  4  1  0  0  0  0
  3  2  1  0  0  0  0
  4 15  1  0  0  0  0
  4 14  1  0  0  0  0
  5 16  1  1  0  0  0
  5  4  1  0  0  0  0
  6 17  1  0  0  0  0
  6  5  1  0  0  0  0
  7  8  2  0  0  0  0
  7  5  1  0  0  0  0
  9  1  1  0  0  0  0
 10  1  1  0  0  0  0
 12  3  1  0  0  0  0
 13  3  1  0  0  0  0
 18  6  1  0  0  0  0
 19 27  1  0  0  0  0
 20 19  1  0  0  0  0
 20 22  1  0  0  0  0
 21 20  1  0  0  0  0
 21 31  1  0  0  0  0
 22 23  1  0  0  0  0
 22 35  1  0  0  0  0
 23 36  1  1  0  0  0
 23 24  1  0  0  0  0
 24  7  1  0  0  0  0
 25 23  1  0  0  0  0
 26 25  2  0  0  0  0
 28 19  1  0  0  0  0
 29 19  1  0  0  0  0
 30 20  1  0  0  0  0
 32 21  1  0  0  0  0
 33 21  1  0  0  0  0
 34 22  1  0  0  0  0
 37 24  1  0  0  0  0
 38 50  1  0  0  0  0
 38 25  1  0  0  0  0
 39 51  1  1  0  0  0
 39 38  1  0  0  0  0
 40 39  1  0  0  0  0
 40 53  1  0  0  0  0
 41 40  1  0  0  0  0
 41 42  1  0  0  0  0
 42 54  1  0  0  0  0
 43 42  2  0  0  0  0
 43 55  1  0  0  0  0
 44 43  1  0  0  0  0
 45 46  1  0  0  0  0
 45 44  2  0  0  0  0
 46 41  2  0  0  0  0
 47 48  1  0  0  0  0
 47 39  1  0  0  0  0
 49 47  2  0  0  0  0
 52 40  1  0  0  0  0
 56 44  1  0  0  0  0
 57 45  1  0  0  0  0
 58 46  1  0  0  0  0
M  END
$$$$
