MLH.pdb
 OpenBabel07022418553D

 55 55  0  0  1  0  0  0  0  0999 V2000
    3.4520   -3.2520    2.6900 C   0  0  0  0  0  0  0  0  0  0  0  0
    3.4040   -3.5510    0.9220 S   0  0  0  0  0  0  0  0  0  0  0  0
    2.2020   -2.6360    0.0140 C   0  0  0  0  0  0  0  0  0  0  0  0
    2.4120   -1.1980   -0.2420 C   0  0  0  0  0  0  0  0  0  0  0  0
    2.5570   -0.2600    0.8840 C   0  0  2  0  0  0  0  0  0  0  0  0
    3.6890   -0.5480    1.7070 N   0  0  0  0  0  0  0  0  0  0  0  0
    1.3150   -0.0900    1.7050 C   0  0  0  0  0  0  0  0  0  0  0  0
    1.3150   -0.2370    2.9440 O   0  0  0  0  0  0  0  0  0  0  0  0
    4.4290   -2.8130    2.9760 H   0  0  0  0  0  0  0  0  0  0  0  0
    2.6080   -2.6440    3.0260 H   0  0  0  0  0  0  0  0  0  0  0  0
    3.3840   -4.2580    3.2280 H   0  0  0  0  0  0  0  0  0  0  0  0
    2.0940   -3.1290   -1.0000 H   0  0  0  0  0  0  0  0  0  0  0  0
    1.1590   -2.7560    0.4530 H   0  0  0  0  0  0  0  0  0  0  0  0
    1.5340   -0.8380   -0.8640 H   0  0  0  0  0  0  0  0  0  0  0  0
    3.3000   -1.0330   -0.9230 H   0  0  0  0  0  0  0  0  0  0  0  0
    2.7320    0.7640    0.4490 H   0  0  0  0  0  0  0  0  0  0  0  0
    4.4630   -0.9900    1.1870 H   0  0  0  0  0  0  0  0  0  0  0  0
    3.9780    0.2740    2.2690 H   0  0  0  0  0  0  0  0  0  0  0  0
   -0.6440    2.8980    3.2820 C   0  0  0  0  0  0  0  0  0  0  0  0
   -0.8560    2.9450    1.7950 C   0  0  0  0  0  0  0  0  0  0  0  0
   -1.4780    4.2780    1.4620 C   0  0  0  0  0  0  0  0  0  0  0  0
   -1.7310    1.7970    1.3890 C   0  0  0  0  0  0  0  0  0  0  0  0
   -1.1590    0.4450    1.7120 C   0  0  2  0  0  0  0  0  0  0  0  0
    0.1200    0.2480    1.0290 N   0  0  0  0  0  0  0  0  0  0  0  0
   -2.1200   -0.5910    1.1880 C   0  0  0  0  0  0  0  0  0  0  0  0
   -3.2770   -0.6180    1.6410 O   0  0  0  0  0  0  0  0  0  0  0  0
   -1.6710    2.9780    3.7450 H   0  0  0  0  0  0  0  0  0  0  0  0
   -0.1580    1.9640    3.6200 H   0  0  0  0  0  0  0  0  0  0  0  0
   -0.0410    3.7640    3.6100 H   0  0  0  0  0  0  0  0  0  0  0  0
    0.1480    2.8630    1.3120 H   0  0  0  0  0  0  0  0  0  0  0  0
   -1.4660    4.4150    0.3450 H   0  0  0  0  0  0  0  0  0  0  0  0
   -0.9140    5.0980    1.9150 H   0  0  0  0  0  0  0  0  0  0  0  0
   -2.5400    4.2820    1.7870 H   0  0  0  0  0  0  0  0  0  0  0  0
   -2.7640    1.9020    1.7760 H   0  0  0  0  0  0  0  0  0  0  0  0
   -1.8490    1.8820    0.2680 H   0  0  0  0  0  0  0  0  0  0  0  0
   -1.0280    0.3170    2.8030 H   0  0  0  0  0  0  0  0  0  0  0  0
    0.1520    0.3650   -0.0040 H   0  0  0  0  0  0  0  0  0  0  0  0
   -1.7610   -1.5380    0.1990 N   0  0  0  0  0  0  0  0  0  0  0  0
   -2.6620   -2.5400   -0.3180 C   0  0  1  0  0  0  0  0  0  0  0  0
   -2.9890   -2.3410   -1.7680 C   0  0  0  0  0  0  0  0  0  0  0  0
   -1.7870   -2.3850   -2.6480 C   0  0  0  0  0  0  0  0  0  0  0  0
   -1.0220   -1.2990   -2.9900 C   0  0  0  0  0  0  0  0  0  0  0  0
   -0.0430   -1.7420   -3.7890 N   0  0  0  0  0  0  0  0  0  0  0  0
   -0.1750   -3.0650   -3.9530 C   0  0  0  0  0  0  0  0  0  0  0  0
   -1.2450   -3.4410   -3.2500 N   0  0  0  0  0  0  0  0  0  0  0  0
   -2.2390   -3.9150    0.0200 C   0  0  0  0  0  0  0  0  0  0  0  0
   -1.1860   -4.1690    0.6980 O   0  0  0  0  0  0  0  0  0  0  0  0
   -2.9510   -5.0390   -0.3730 O   0  0  0  0  0  0  0  0  0  0  0  0
   -0.7570   -1.4570   -0.1470 H   0  0  0  0  0  0  0  0  0  0  0  0
   -3.6390   -2.3800    0.2310 H   0  0  0  0  0  0  0  0  0  0  0  0
   -3.4750   -1.3680   -1.8780 H   0  0  0  0  0  0  0  0  0  0  0  0
   -3.7180   -3.1120   -2.0880 H   0  0  0  0  0  0  0  0  0  0  0  0
   -1.1720   -0.2480   -2.6740 H   0  0  0  0  0  0  0  0  0  0  0  0
    0.7270   -1.1560   -4.2320 H   0  0  0  0  0  0  0  0  0  0  0  0
    0.4980   -3.6880   -4.5640 H   0  0  0  0  0  0  0  0  0  0  0  0
  1  9  1  0  0  0  0
  1 10  1  0  0  0  0
  1 11  1  0  0  0  0
  2  1  1  0  0  0  0
  3 13  1  0  0  0  0
  3  2  1  0  0  0  0
  4  3  1  0  0  0  0
  4  5  1  0  0  0  0
  5 16  1  6  0  0  0
  5  7  1  0  0  0  0
  5  6  1  0  0  0  0
  6 18  1  0  0  0  0
  7  8  2  0  0  0  0
 12  3  1  0  0  0  0
 14  4  1  0  0  0  0
 15  4  1  0  0  0  0
 17  6  1  0  0  0  0
 19 29  1  0  0  0  0
 19 28  1  0  0  0  0
 19 27  1  0  0  0  0
 20 19  1  0  0  0  0
 21 33  1  0  0  0  0
 21 20  1  0  0  0  0
 21 32  1  0  0  0  0
 22 23  1  0  0  0  0
 22 34  1  0  0  0  0
 22 20  1  0  0  0  0
 23 36  1  1  0  0  0
 24  7  1  0  0  0  0
 24 23  1  0  0  0  0
 25 26  2  0  0  0  0
 25 23  1  0  0  0  0
 30 20  1  0  0  0  0
 31 21  1  0  0  0  0
 35 22  1  0  0  0  0
 37 24  1  0  0  0  0
 38 25  1  0  0  0  0
 39 46  1  0  0  0  0
 39 38  1  0  0  0  0
 39 50  1  1  0  0  0
 40 39  1  0  0  0  0
 41 40  1  0  0  0  0
 42 53  1  0  0  0  0
 42 41  2  0  0  0  0
 43 42  1  0  0  0  0
 44 43  1  0  0  0  0
 44 45  2  0  0  0  0
 45 41  1  0  0  0  0
 46 47  1  0  0  0  0
 48 46  2  0  0  0  0
 49 38  1  0  0  0  0
 51 40  1  0  0  0  0
 52 40  1  0  0  0  0
 54 43  1  0  0  0  0
 55 44  1  0  0  0  0
M  END
$$$$
