MLI.pdb
 OpenBabel07022418553D

 57 56  0  0  1  0  0  0  0  0999 V2000
    3.8210   -4.7590    1.3990 C   0  0  0  0  0  0  0  0  0  0  0  0
    2.0880   -4.1990    1.3070 S   0  0  0  0  0  0  0  0  0  0  0  0
    1.7800   -2.9200    2.5650 C   0  0  0  0  0  0  0  0  0  0  0  0
    2.6020   -1.7080    2.1950 C   0  0  0  0  0  0  0  0  0  0  0  0
    2.4240   -0.5760    3.1770 C   0  0  2  0  0  0  0  0  0  0  0  0
    2.8440   -1.0510    4.4800 N   0  0  0  0  0  0  0  0  0  0  0  0
    1.0480   -0.0450    3.1850 C   0  0  0  0  0  0  0  0  0  0  0  0
    0.3880   -0.0430    4.2320 O   0  0  0  0  0  0  0  0  0  0  0  0
    4.3480   -4.2660    2.2570 H   0  0  0  0  0  0  0  0  0  0  0  0
    4.3620   -4.5900    0.4460 H   0  0  0  0  0  0  0  0  0  0  0  0
    3.8600   -5.8490    1.6000 H   0  0  0  0  0  0  0  0  0  0  0  0
    2.0980   -3.3300    3.5360 H   0  0  0  0  0  0  0  0  0  0  0  0
    0.6970   -2.7180    2.5910 H   0  0  0  0  0  0  0  0  0  0  0  0
    2.4250   -1.4160    1.1590 H   0  0  0  0  0  0  0  0  0  0  0  0
    3.6720   -2.0250    2.2650 H   0  0  0  0  0  0  0  0  0  0  0  0
    3.1000    0.2430    2.8630 H   0  0  0  0  0  0  0  0  0  0  0  0
    3.2150   -0.2030    4.9880 H   0  0  0  0  0  0  0  0  0  0  0  0
    3.6400   -1.6860    4.3430 H   0  0  0  0  0  0  0  0  0  0  0  0
   -0.2170    4.4330    0.2120 C   0  0  0  0  0  0  0  0  0  0  0  0
   -0.1520    2.8940    0.3510 C   0  0  0  0  0  0  0  0  0  0  0  0
   -0.7350    2.3720   -0.9290 C   0  0  0  0  0  0  0  0  0  0  0  0
   -0.8370    2.4700    1.5980 C   0  0  0  0  0  0  0  0  0  0  0  0
   -0.8530    1.0050    1.8980 C   0  0  2  0  0  0  0  0  0  0  0  0
    0.5000    0.4540    2.0050 N   0  0  0  0  0  0  0  0  0  0  0  0
   -1.6470    0.2550    0.9150 C   0  0  0  0  0  0  0  0  0  0  0  0
   -2.8610    0.5770    0.6770 O   0  0  0  0  0  0  0  0  0  0  0  0
   -0.3500    4.9060    1.2050 H   0  0  0  0  0  0  0  0  0  0  0  0
   -1.1280    4.6920   -0.3770 H   0  0  0  0  0  0  0  0  0  0  0  0
    0.6570    4.8140   -0.3380 H   0  0  0  0  0  0  0  0  0  0  0  0
    0.9240    2.6640    0.4500 H   0  0  0  0  0  0  0  0  0  0  0  0
   -0.3990    3.0180   -1.8080 H   0  0  0  0  0  0  0  0  0  0  0  0
   -0.3150    1.3830   -1.1780 H   0  0  0  0  0  0  0  0  0  0  0  0
   -1.8310    2.4420   -0.9690 H   0  0  0  0  0  0  0  0  0  0  0  0
   -1.9280    2.7600    1.4710 H   0  0  0  0  0  0  0  0  0  0  0  0
   -0.4670    3.0640    2.4690 H   0  0  0  0  0  0  0  0  0  0  0  0
   -1.3450    0.9360    2.9300 H   0  0  0  0  0  0  0  0  0  0  0  0
    1.0780    0.4410    1.1360 H   0  0  0  0  0  0  0  0  0  0  0  0
   -3.7370   -1.7660   -3.1480 C   0  0  0  0  0  0  0  0  0  0  0  0
   -2.2880   -2.2510   -3.1550 C   0  0  0  0  0  0  0  0  0  0  0  0
   -1.4230   -1.5130   -2.1730 C   0  0  2  0  0  0  0  0  0  0  0  0
   -0.0250   -2.0810   -2.2750 C   0  0  0  0  0  0  0  0  0  0  0  0
   -1.9900   -1.5830   -0.8080 C   0  0  2  0  0  0  0  0  0  0  0  0
   -1.1770   -0.8510    0.1660 N   0  0  0  0  0  0  0  0  0  0  0  0
   -2.1850   -2.9820   -0.3550 C   0  0  0  0  0  0  0  0  0  0  0  0
   -2.8430   -3.8650   -0.9080 O   0  0  0  0  0  0  0  0  0  0  0  0
   -1.5520   -3.3610    0.8450 O   0  0  0  0  0  0  0  0  0  0  0  0
   -4.2270   -1.9000   -2.1700 H   0  0  0  0  0  0  0  0  0  0  0  0
   -4.2790   -2.3960   -3.8800 H   0  0  0  0  0  0  0  0  0  0  0  0
   -3.7450   -0.6980   -3.4790 H   0  0  0  0  0  0  0  0  0  0  0  0
   -1.8760   -2.1260   -4.2100 H   0  0  0  0  0  0  0  0  0  0  0  0
   -2.3180   -3.3440   -3.0310 H   0  0  0  0  0  0  0  0  0  0  0  0
   -1.3580   -0.4350   -2.4990 H   0  0  0  0  0  0  0  0  0  0  0  0
   -0.0890   -3.1080   -2.6880 H   0  0  0  0  0  0  0  0  0  0  0  0
    0.5830   -1.4940   -2.9940 H   0  0  0  0  0  0  0  0  0  0  0  0
    0.5150   -2.1340   -1.3320 H   0  0  0  0  0  0  0  0  0  0  0  0
   -2.9790   -1.0850   -0.7980 H   0  0  0  0  0  0  0  0  0  0  0  0
   -0.2000   -1.1660    0.3100 H   0  0  0  0  0  0  0  0  0  0  0  0
  1 11  1  0  0  0  0
  1  9  1  0  0  0  0
  2  1  1  0  0  0  0
  2  3  1  0  0  0  0
  3 13  1  0  0  0  0
  3 12  1  0  0  0  0
  4 15  1  0  0  0  0
  4  3  1  0  0  0  0
  4  5  1  0  0  0  0
  5 16  1  6  0  0  0
  5  7  1  0  0  0  0
  5  6  1  0  0  0  0
  6 17  1  0  0  0  0
  7  8  2  0  0  0  0
 10  1  1  0  0  0  0
 14  4  1  0  0  0  0
 18  6  1  0  0  0  0
 19 20  1  0  0  0  0
 19 27  1  0  0  0  0
 20 30  1  0  0  0  0
 20 22  1  0  0  0  0
 21 20  1  0  0  0  0
 22 23  1  0  0  0  0
 22 35  1  0  0  0  0
 23 24  1  0  0  0  0
 23 36  1  1  0  0  0
 24  7  1  0  0  0  0
 25 23  1  0  0  0  0
 26 25  2  0  0  0  0
 28 19  1  0  0  0  0
 29 19  1  0  0  0  0
 31 21  1  0  0  0  0
 32 21  1  0  0  0  0
 33 21  1  0  0  0  0
 34 22  1  0  0  0  0
 37 24  1  0  0  0  0
 38 47  1  0  0  0  0
 39 38  1  0  0  0  0
 39 51  1  0  0  0  0
 39 40  1  0  0  0  0
 40 52  1  6  0  0  0
 40 42  1  0  0  0  0
 41 40  1  0  0  0  0
 41 55  1  0  0  0  0
 42 56  1  6  0  0  0
 42 44  1  0  0  0  0
 42 43  1  0  0  0  0
 43 57  1  0  0  0  0
 43 25  1  0  0  0  0
 44 46  1  0  0  0  0
 45 44  2  0  0  0  0
 48 38  1  0  0  0  0
 49 38  1  0  0  0  0
 50 39  1  0  0  0  0
 53 41  1  0  0  0  0
 54 41  1  0  0  0  0
M  END
$$$$
