MLL.pdb
 OpenBabel07022418553D

 57 56  0  0  1  0  0  0  0  0999 V2000
    0.2990   -5.5400    3.4480 C   0  0  0  0  0  0  0  0  0  0  0  0
   -0.4710   -4.3880    2.3110 S   0  0  0  0  0  0  0  0  0  0  0  0
   -0.5410   -2.7030    3.0020 C   0  0  0  0  0  0  0  0  0  0  0  0
    0.8750   -2.2090    3.1300 C   0  0  0  0  0  0  0  0  0  0  0  0
    0.9550   -0.8150    3.6950 C   0  0  2  0  0  0  0  0  0  0  0  0
    0.3700   -0.7530    5.0010 N   0  0  0  0  0  0  0  0  0  0  0  0
    0.4550    0.2130    2.7750 C   0  0  0  0  0  0  0  0  0  0  0  0
   -0.3990    1.0290    3.1730 O   0  0  0  0  0  0  0  0  0  0  0  0
    1.0420   -5.0940    4.1180 H   0  0  0  0  0  0  0  0  0  0  0  0
    0.8280   -6.3770    2.9030 H   0  0  0  0  0  0  0  0  0  0  0  0
   -0.4670   -6.0290    4.1140 H   0  0  0  0  0  0  0  0  0  0  0  0
   -1.0310   -2.8030    4.0010 H   0  0  0  0  0  0  0  0  0  0  0  0
   -1.1800   -2.0600    2.3980 H   0  0  0  0  0  0  0  0  0  0  0  0
    1.3930   -2.2910    2.1750 H   0  0  0  0  0  0  0  0  0  0  0  0
    1.3920   -2.8780    3.8530 H   0  0  0  0  0  0  0  0  0  0  0  0
    2.0570   -0.6060    3.8330 H   0  0  0  0  0  0  0  0  0  0  0  0
    0.1020    0.2620    5.1720 H   0  0  0  0  0  0  0  0  0  0  0  0
    1.0370   -0.9900    5.7770 H   0  0  0  0  0  0  0  0  0  0  0  0
    3.6690    2.8110   -0.9980 C   0  0  0  0  0  0  0  0  0  0  0  0
    2.7390    1.6290   -0.6490 C   0  0  0  0  0  0  0  0  0  0  0  0
    2.4120    1.0220   -2.0140 C   0  0  0  0  0  0  0  0  0  0  0  0
    1.5450    2.1970    0.0270 C   0  0  0  0  0  0  0  0  0  0  0  0
    0.4970    1.2600    0.4810 C   0  0  2  0  0  0  0  0  0  0  0  0
    0.9520    0.2610    1.4490 N   0  0  0  0  0  0  0  0  0  0  0  0
   -0.2000    0.5880   -0.6210 C   0  0  0  0  0  0  0  0  0  0  0  0
   -0.6030    1.2860   -1.5870 O   0  0  0  0  0  0  0  0  0  0  0  0
    3.5240    3.6410   -0.2690 H   0  0  0  0  0  0  0  0  0  0  0  0
    3.3990    3.2330   -1.9910 H   0  0  0  0  0  0  0  0  0  0  0  0
    4.7110    2.4650   -1.0610 H   0  0  0  0  0  0  0  0  0  0  0  0
    3.2780    0.8980   -0.0370 H   0  0  0  0  0  0  0  0  0  0  0  0
    1.8780    1.7540   -2.6520 H   0  0  0  0  0  0  0  0  0  0  0  0
    1.8300    0.1130   -1.9570 H   0  0  0  0  0  0  0  0  0  0  0  0
    3.3740    0.8230   -2.5450 H   0  0  0  0  0  0  0  0  0  0  0  0
    1.0620    2.8950   -0.7070 H   0  0  0  0  0  0  0  0  0  0  0  0
    1.8400    2.8880    0.8740 H   0  0  0  0  0  0  0  0  0  0  0  0
   -0.2740    1.9170    1.0190 H   0  0  0  0  0  0  0  0  0  0  0  0
    1.6620   -0.4530    1.1930 H   0  0  0  0  0  0  0  0  0  0  0  0
   -3.3280    0.2870   -0.3770 C   0  0  0  0  0  0  0  0  0  0  0  0
   -3.4350   -0.6390   -1.5170 C   0  0  0  0  0  0  0  0  0  0  0  0
   -4.1380   -1.9170   -1.0550 C   0  0  0  0  0  0  0  0  0  0  0  0
   -2.2610   -0.9570   -2.3440 C   0  0  0  0  0  0  0  0  0  0  0  0
   -1.1110   -1.5720   -1.6110 C   0  0  2  0  0  0  0  0  0  0  0  0
   -0.4370   -0.8390   -0.6240 N   0  0  0  0  0  0  0  0  0  0  0  0
   -0.2280   -2.4350   -2.3800 C   0  0  0  0  0  0  0  0  0  0  0  0
   -0.6030   -3.1560   -3.3470 O   0  0  0  0  0  0  0  0  0  0  0  0
    1.1190   -2.4870   -2.0490 O   0  0  0  0  0  0  0  0  0  0  0  0
   -2.7270   -0.1880    0.4290 H   0  0  0  0  0  0  0  0  0  0  0  0
   -4.3770    0.3370    0.0810 H   0  0  0  0  0  0  0  0  0  0  0  0
   -3.0950    1.3260   -0.5960 H   0  0  0  0  0  0  0  0  0  0  0  0
   -4.2010   -0.1700   -2.2260 H   0  0  0  0  0  0  0  0  0  0  0  0
   -3.6070   -2.2710   -0.1660 H   0  0  0  0  0  0  0  0  0  0  0  0
   -4.1640   -2.6340   -1.8890 H   0  0  0  0  0  0  0  0  0  0  0  0
   -5.1830   -1.6450   -0.7840 H   0  0  0  0  0  0  0  0  0  0  0  0
   -2.5960   -1.7460   -3.0820 H   0  0  0  0  0  0  0  0  0  0  0  0
   -1.9780   -0.0940   -2.9760 H   0  0  0  0  0  0  0  0  0  0  0  0
   -1.7260   -2.3560   -0.9570 H   0  0  0  0  0  0  0  0  0  0  0  0
   -0.0490   -1.3390    0.2040 H   0  0  0  0  0  0  0  0  0  0  0  0
  1 11  1  0  0  0  0
  1  9  1  0  0  0  0
  2  3  1  0  0  0  0
  2  1  1  0  0  0  0
  3  4  1  0  0  0  0
  3 12  1  0  0  0  0
  4  5  1  0  0  0  0
  4 15  1  0  0  0  0
  5 16  1  1  0  0  0
  5  6  1  0  0  0  0
  6 17  1  0  0  0  0
  6 18  1  0  0  0  0
  7  8  2  0  0  0  0
  7  5  1  0  0  0  0
 10  1  1  0  0  0  0
 13  3  1  0  0  0  0
 14  4  1  0  0  0  0
 19 20  1  0  0  0  0
 19 27  1  0  0  0  0
 20 30  1  0  0  0  0
 20 22  1  0  0  0  0
 21 32  1  0  0  0  0
 21 20  1  0  0  0  0
 22 23  1  0  0  0  0
 22 35  1  0  0  0  0
 23 36  1  1  0  0  0
 23 24  1  0  0  0  0
 24  7  1  0  0  0  0
 25 23  1  0  0  0  0
 26 25  2  0  0  0  0
 28 19  1  0  0  0  0
 29 19  1  0  0  0  0
 31 21  1  0  0  0  0
 33 21  1  0  0  0  0
 34 22  1  0  0  0  0
 37 24  1  0  0  0  0
 38 48  1  0  0  0  0
 38 47  1  0  0  0  0
 39 40  1  0  0  0  0
 39 38  1  0  0  0  0
 40 53  1  0  0  0  0
 40 51  1  0  0  0  0
 41 42  1  0  0  0  0
 41 39  1  0  0  0  0
 42 56  1  1  0  0  0
 42 43  1  0  0  0  0
 43 25  1  0  0  0  0
 43 57  1  0  0  0  0
 44 46  1  0  0  0  0
 44 42  1  0  0  0  0
 45 44  2  0  0  0  0
 49 38  1  0  0  0  0
 50 39  1  0  0  0  0
 52 40  1  0  0  0  0
 54 41  1  0  0  0  0
 55 41  1  0  0  0  0
M  END
$$$$
