MLN.pdb
 OpenBabel07022418553D

 52 51  0  0  1  0  0  0  0  0999 V2000
    5.5280   -3.8080    2.7050 C   0  0  0  0  0  0  0  0  0  0  0  0
    4.8730   -3.3980    4.3660 S   0  0  0  0  0  0  0  0  0  0  0  0
    3.0450   -3.2950    4.2480 C   0  0  0  0  0  0  0  0  0  0  0  0
    2.7470   -2.1100    3.3680 C   0  0  0  0  0  0  0  0  0  0  0  0
    1.2780   -1.8850    3.1670 C   0  0  2  0  0  0  0  0  0  0  0  0
    0.6540   -3.0280    2.5490 N   0  0  0  0  0  0  0  0  0  0  0  0
    1.1090   -0.6510    2.3390 C   0  0  0  0  0  0  0  0  0  0  0  0
    1.5550    0.4680    2.7410 O   0  0  0  0  0  0  0  0  0  0  0  0
    4.7450   -3.5810    1.9330 H   0  0  0  0  0  0  0  0  0  0  0  0
    6.4320   -3.2220    2.4780 H   0  0  0  0  0  0  0  0  0  0  0  0
    5.7740   -4.8860    2.7170 H   0  0  0  0  0  0  0  0  0  0  0  0
    2.6730   -3.1870    5.2640 H   0  0  0  0  0  0  0  0  0  0  0  0
    2.7250   -4.2390    3.7730 H   0  0  0  0  0  0  0  0  0  0  0  0
    3.2120   -1.1880    3.7340 H   0  0  0  0  0  0  0  0  0  0  0  0
    3.1790   -2.3160    2.3480 H   0  0  0  0  0  0  0  0  0  0  0  0
    0.8150   -1.7380    4.1630 H   0  0  0  0  0  0  0  0  0  0  0  0
   -0.3600   -2.8850    2.3590 H   0  0  0  0  0  0  0  0  0  0  0  0
    0.8510   -3.9160    3.0520 H   0  0  0  0  0  0  0  0  0  0  0  0
    1.5020    2.7630   -1.3490 C   0  0  0  0  0  0  0  0  0  0  0  0
    0.9300    1.4800   -1.9660 C   0  0  0  0  0  0  0  0  0  0  0  0
    1.8340    1.2360   -3.1940 C   0  0  0  0  0  0  0  0  0  0  0  0
    1.0060    0.3290   -1.0360 C   0  0  0  0  0  0  0  0  0  0  0  0
    0.2740    0.4830    0.2750 C   0  0  2  0  0  0  0  0  0  0  0  0
    0.4420   -0.7230    1.0860 N   0  0  0  0  0  0  0  0  0  0  0  0
   -1.1650    0.6760   -0.0160 C   0  0  0  0  0  0  0  0  0  0  0  0
   -1.5700    1.6650   -0.6700 O   0  0  0  0  0  0  0  0  0  0  0  0
    1.4710    3.5950   -2.0490 H   0  0  0  0  0  0  0  0  0  0  0  0
    2.5380    2.5420   -1.0330 H   0  0  0  0  0  0  0  0  0  0  0  0
    0.8960    3.0410   -0.4470 H   0  0  0  0  0  0  0  0  0  0  0  0
   -0.0640    1.6670   -2.3750 H   0  0  0  0  0  0  0  0  0  0  0  0
    1.3870    1.6970   -4.0990 H   0  0  0  0  0  0  0  0  0  0  0  0
    2.8320    1.6990   -3.0580 H   0  0  0  0  0  0  0  0  0  0  0  0
    2.0100    0.1580   -3.3290 H   0  0  0  0  0  0  0  0  0  0  0  0
    0.6700   -0.5760   -1.5970 H   0  0  0  0  0  0  0  0  0  0  0  0
    2.0820    0.1420   -0.8160 H   0  0  0  0  0  0  0  0  0  0  0  0
    0.7200    1.3210    0.8240 H   0  0  0  0  0  0  0  0  0  0  0  0
    0.0980   -1.6630    0.7990 H   0  0  0  0  0  0  0  0  0  0  0  0
   -5.9250   -0.4150   -2.2850 N   0  0  0  0  0  0  0  0  0  0  0  0
   -5.5540   -1.0200   -1.0580 C   0  0  0  0  0  0  0  0  0  0  0  0
   -6.4860   -1.4010   -0.3060 O   0  0  0  0  0  0  0  0  0  0  0  0
   -4.1210   -1.1690   -0.7310 C   0  0  0  0  0  0  0  0  0  0  0  0
   -3.5880   -0.0500    0.1330 C   0  0  2  0  0  0  0  0  0  0  0  0
   -2.1760   -0.2380    0.4210 N   0  0  0  0  0  0  0  0  0  0  0  0
   -4.3670    0.1400    1.3770 C   0  0  0  0  0  0  0  0  0  0  0  0
   -3.7530    0.0970    2.4930 O   0  0  0  0  0  0  0  0  0  0  0  0
   -5.7270    0.3660    1.4410 O   0  0  0  0  0  0  0  0  0  0  0  0
   -6.4780    0.4600   -2.3190 H   0  0  0  0  0  0  0  0  0  0  0  0
   -5.6400   -0.8540   -3.1810 H   0  0  0  0  0  0  0  0  0  0  0  0
   -3.9990   -2.1640   -0.2110 H   0  0  0  0  0  0  0  0  0  0  0  0
   -3.4950   -1.2620   -1.6440 H   0  0  0  0  0  0  0  0  0  0  0  0
   -3.6850    0.8850   -0.4570 H   0  0  0  0  0  0  0  0  0  0  0  0
   -1.8290   -1.0560    0.9650 H   0  0  0  0  0  0  0  0  0  0  0  0
  1 11  1  0  0  0  0
  1  2  1  0  0  0  0
  3  2  1  0  0  0  0
  3 12  1  0  0  0  0
  4 14  1  0  0  0  0
  4  3  1  0  0  0  0
  5  4  1  0  0  0  0
  5 16  1  1  0  0  0
  6 18  1  0  0  0  0
  6  5  1  0  0  0  0
  7  8  2  0  0  0  0
  7  5  1  0  0  0  0
  9  1  1  0  0  0  0
 10  1  1  0  0  0  0
 13  3  1  0  0  0  0
 15  4  1  0  0  0  0
 17  6  1  0  0  0  0
 19 28  1  0  0  0  0
 19 29  1  0  0  0  0
 20 19  1  0  0  0  0
 20 22  1  0  0  0  0
 21 32  1  0  0  0  0
 21 20  1  0  0  0  0
 22 35  1  0  0  0  0
 22 23  1  0  0  0  0
 23 36  1  1  0  0  0
 23 24  1  0  0  0  0
 24  7  1  0  0  0  0
 25 23  1  0  0  0  0
 25 43  1  0  0  0  0
 26 25  2  0  0  0  0
 27 19  1  0  0  0  0
 30 20  1  0  0  0  0
 31 21  1  0  0  0  0
 33 21  1  0  0  0  0
 34 22  1  0  0  0  0
 37 24  1  0  0  0  0
 38 39  1  0  0  0  0
 39 41  1  0  0  0  0
 39 40  2  0  0  0  0
 41 49  1  0  0  0  0
 41 42  1  0  0  0  0
 42 51  1  6  0  0  0
 42 43  1  0  0  0  0
 42 44  1  0  0  0  0
 43 52  1  0  0  0  0
 44 46  2  0  0  0  0
 44 45  1  0  0  0  0
 47 38  1  0  0  0  0
 48 38  1  0  0  0  0
 50 41  1  0  0  0  0
M  END
$$$$
