MLP.pdb
 OpenBabel07022418553D

 52 52  0  0  1  0  0  0  0  0999 V2000
    1.7360   -6.2520    3.5410 C   0  0  0  0  0  0  0  0  0  0  0  0
    3.1020   -5.0640    3.6210 S   0  0  0  0  0  0  0  0  0  0  0  0
    2.5380   -3.4610    4.2310 C   0  0  0  0  0  0  0  0  0  0  0  0
    1.5910   -2.8360    3.2380 C   0  0  0  0  0  0  0  0  0  0  0  0
    1.0930   -1.4880    3.7090 C   0  0  2  0  0  0  0  0  0  0  0  0
    0.3970   -1.6590    4.9670 N   0  0  0  0  0  0  0  0  0  0  0  0
    0.2110   -0.8310    2.7570 C   0  0  0  0  0  0  0  0  0  0  0  0
   -0.9540   -0.5010    3.0960 O   0  0  0  0  0  0  0  0  0  0  0  0
    0.8290   -5.8560    4.0310 H   0  0  0  0  0  0  0  0  0  0  0  0
    1.5470   -6.5400    2.4780 H   0  0  0  0  0  0  0  0  0  0  0  0
    2.0570   -7.1640    4.1030 H   0  0  0  0  0  0  0  0  0  0  0  0
    3.4280   -2.8260    4.4220 H   0  0  0  0  0  0  0  0  0  0  0  0
    2.0610   -3.6350    5.2150 H   0  0  0  0  0  0  0  0  0  0  0  0
    2.1490   -2.6740    2.2930 H   0  0  0  0  0  0  0  0  0  0  0  0
    0.7550   -3.5100    3.0510 H   0  0  0  0  0  0  0  0  0  0  0  0
    1.9520   -0.7920    3.9130 H   0  0  0  0  0  0  0  0  0  0  0  0
   -0.5860   -2.0080    4.7850 H   0  0  0  0  0  0  0  0  0  0  0  0
    0.2940   -0.7830    5.5040 H   0  0  0  0  0  0  0  0  0  0  0  0
    2.6310    1.3510    0.2090 C   0  0  0  0  0  0  0  0  0  0  0  0
    1.3770    1.7910   -0.4030 C   0  0  0  0  0  0  0  0  0  0  0  0
    1.4980    3.2970   -0.6910 C   0  0  0  0  0  0  0  0  0  0  0  0
    0.0860    1.5600    0.2290 C   0  0  0  0  0  0  0  0  0  0  0  0
   -0.3700    0.1510    0.5070 C   0  0  2  0  0  0  0  0  0  0  0  0
    0.5790   -0.5150    1.4060 N   0  0  0  0  0  0  0  0  0  0  0  0
   -0.6220   -0.6480   -0.6920 C   0  0  0  0  0  0  0  0  0  0  0  0
    0.1880   -1.6100   -0.9150 O   0  0  0  0  0  0  0  0  0  0  0  0
    3.4450    2.1210    0.0230 H   0  0  0  0  0  0  0  0  0  0  0  0
    3.0800    0.4250   -0.1910 H   0  0  0  0  0  0  0  0  0  0  0  0
    2.5790    1.3350    1.3240 H   0  0  0  0  0  0  0  0  0  0  0  0
    1.3380    1.3410   -1.4450 H   0  0  0  0  0  0  0  0  0  0  0  0
    0.9270    3.8770    0.0840 H   0  0  0  0  0  0  0  0  0  0  0  0
    2.5320    3.6350   -0.6500 H   0  0  0  0  0  0  0  0  0  0  0  0
    1.0640    3.5680   -1.6540 H   0  0  0  0  0  0  0  0  0  0  0  0
    0.0690    2.0490    1.2570 H   0  0  0  0  0  0  0  0  0  0  0  0
   -0.7270    2.0730   -0.2960 H   0  0  0  0  0  0  0  0  0  0  0  0
   -1.3110    0.2570    1.0600 H   0  0  0  0  0  0  0  0  0  0  0  0
    1.5410   -0.7970    1.1330 H   0  0  0  0  0  0  0  0  0  0  0  0
   -1.6500   -0.4670   -1.6060 N   0  0  0  0  0  0  0  0  0  0  0  0
   -1.8700   -1.2210   -2.8590 C   0  0  0  0  0  0  0  0  0  0  0  0
   -2.7180   -0.3660   -3.7400 C   0  0  0  0  0  0  0  0  0  0  0  0
   -2.7480    0.9770   -2.9930 C   0  0  0  0  0  0  0  0  0  0  0  0
   -2.7660    0.4330   -1.5560 C   0  0  1  0  0  0  0  0  0  0  0  0
   -4.0390   -0.3210   -1.3350 C   0  0  0  0  0  0  0  0  0  0  0  0
   -3.9810   -1.5500   -1.1900 O   0  0  0  0  0  0  0  0  0  0  0  0
   -5.2200    0.3660   -1.3000 O   0  0  0  0  0  0  0  0  0  0  0  0
   -0.8770   -1.3290   -3.3610 H   0  0  0  0  0  0  0  0  0  0  0  0
   -2.3220   -2.2050   -2.6540 H   0  0  0  0  0  0  0  0  0  0  0  0
   -2.3460   -0.2300   -4.7610 H   0  0  0  0  0  0  0  0  0  0  0  0
   -3.7760   -0.7380   -3.7570 H   0  0  0  0  0  0  0  0  0  0  0  0
   -1.7990    1.4840   -3.1620 H   0  0  0  0  0  0  0  0  0  0  0  0
   -3.6380    1.5620   -3.2270 H   0  0  0  0  0  0  0  0  0  0  0  0
   -2.7320    1.2470   -0.8490 H   0  0  0  0  0  0  0  0  0  0  0  0
  1  2  1  0  0  0  0
  1  9  1  0  0  0  0
  1 11  1  0  0  0  0
  2  3  1  0  0  0  0
  3 12  1  0  0  0  0
  3 13  1  0  0  0  0
  4  5  1  0  0  0  0
  4  3  1  0  0  0  0
  5 16  1  1  0  0  0
  5  6  1  0  0  0  0
  6 18  1  0  0  0  0
  7  8  2  0  0  0  0
  7  5  1  0  0  0  0
 10  1  1  0  0  0  0
 14  4  1  0  0  0  0
 15  4  1  0  0  0  0
 17  6  1  0  0  0  0
 19 29  1  0  0  0  0
 20 19  1  0  0  0  0
 20 22  1  0  0  0  0
 21 32  1  0  0  0  0
 21 20  1  0  0  0  0
 21 31  1  0  0  0  0
 22 23  1  0  0  0  0
 22 34  1  0  0  0  0
 23 36  1  1  0  0  0
 23 24  1  0  0  0  0
 24  7  1  0  0  0  0
 25 23  1  0  0  0  0
 26 25  2  0  0  0  0
 27 19  1  0  0  0  0
 28 19  1  0  0  0  0
 30 20  1  0  0  0  0
 33 21  1  0  0  0  0
 35 22  1  0  0  0  0
 37 24  1  0  0  0  0
 38 42  1  0  0  0  0
 38 25  1  0  0  0  0
 39 47  1  0  0  0  0
 39 38  1  0  0  0  0
 40 41  1  0  0  0  0
 40 39  1  0  0  0  0
 41 42  1  0  0  0  0
 42 43  1  0  0  0  0
 42 52  1  1  0  0  0
 43 45  2  0  0  0  0
 43 44  1  0  0  0  0
 46 39  1  0  0  0  0
 48 40  1  0  0  0  0
 49 40  1  0  0  0  0
 50 41  1  0  0  0  0
 51 41  1  0  0  0  0
M  END
$$$$
