MLS.pdb
 OpenBabel07022418553D

 49 48  0  0  1  0  0  0  0  0999 V2000
    1.8400   -5.1060    3.9780 C   0  0  0  0  0  0  0  0  0  0  0  0
    1.3370   -3.9570    5.2860 S   0  0  0  0  0  0  0  0  0  0  0  0
    0.0540   -2.8000    4.6730 C   0  0  0  0  0  0  0  0  0  0  0  0
    0.7280   -1.9390    3.6230 C   0  0  0  0  0  0  0  0  0  0  0  0
   -0.2430   -0.9310    3.0340 C   0  0  2  0  0  0  0  0  0  0  0  0
   -1.3220   -1.7340    2.4360 N   0  0  0  0  0  0  0  0  0  0  0  0
    0.4790   -0.1710    1.9810 C   0  0  0  0  0  0  0  0  0  0  0  0
    1.4270    0.5880    2.2630 O   0  0  0  0  0  0  0  0  0  0  0  0
    1.7600   -6.1320    4.3870 H   0  0  0  0  0  0  0  0  0  0  0  0
    1.1910   -4.9840    3.0810 H   0  0  0  0  0  0  0  0  0  0  0  0
    2.9170   -4.9720    3.7000 H   0  0  0  0  0  0  0  0  0  0  0  0
   -0.2380   -2.1800    5.5450 H   0  0  0  0  0  0  0  0  0  0  0  0
   -0.8210   -3.3270    4.2900 H   0  0  0  0  0  0  0  0  0  0  0  0
    1.1180   -2.5430    2.7910 H   0  0  0  0  0  0  0  0  0  0  0  0
    1.5550   -1.3740    4.0910 H   0  0  0  0  0  0  0  0  0  0  0  0
   -0.6660   -0.2540    3.8040 H   0  0  0  0  0  0  0  0  0  0  0  0
   -2.0600   -1.9440    3.1540 H   0  0  0  0  0  0  0  0  0  0  0  0
   -0.9270   -2.6380    2.0890 H   0  0  0  0  0  0  0  0  0  0  0  0
    2.8870   -2.2120   -2.2800 C   0  0  0  0  0  0  0  0  0  0  0  0
    2.4030   -1.4030   -1.0650 C   0  0  0  0  0  0  0  0  0  0  0  0
    3.6170   -0.7270   -0.5230 C   0  0  0  0  0  0  0  0  0  0  0  0
    1.3270   -0.4440   -1.5360 C   0  0  0  0  0  0  0  0  0  0  0  0
    0.7490    0.4120   -0.4710 C   0  0  2  0  0  0  0  0  0  0  0  0
    0.1200   -0.2750    0.6090 N   0  0  0  0  0  0  0  0  0  0  0  0
   -0.1830    1.3840   -1.1390 C   0  0  0  0  0  0  0  0  0  0  0  0
    0.2300    2.0620   -2.1140 O   0  0  0  0  0  0  0  0  0  0  0  0
    3.9570   -2.4610   -2.1790 H   0  0  0  0  0  0  0  0  0  0  0  0
    2.7660   -1.5260   -3.1530 H   0  0  0  0  0  0  0  0  0  0  0  0
    2.2390   -3.0850   -2.4240 H   0  0  0  0  0  0  0  0  0  0  0  0
    2.0210   -2.1470   -0.3570 H   0  0  0  0  0  0  0  0  0  0  0  0
    4.0020   -1.3610    0.3310 H   0  0  0  0  0  0  0  0  0  0  0  0
    3.4190    0.2550   -0.0990 H   0  0  0  0  0  0  0  0  0  0  0  0
    4.4760   -0.7260   -1.2400 H   0  0  0  0  0  0  0  0  0  0  0  0
    1.8620    0.2550   -2.2480 H   0  0  0  0  0  0  0  0  0  0  0  0
    0.5820   -0.9590   -2.1690 H   0  0  0  0  0  0  0  0  0  0  0  0
    1.5620    1.0430   -0.0570 H   0  0  0  0  0  0  0  0  0  0  0  0
   -0.6770   -0.9160    0.3900 H   0  0  0  0  0  0  0  0  0  0  0  0
   -4.2330    1.0230   -0.8370 O   0  0  0  0  0  0  0  0  0  0  0  0
   -3.5960    1.6920   -1.8820 C   0  0  0  0  0  0  0  0  0  0  0  0
   -2.4150    2.4680   -1.3170 C   0  0  2  0  0  0  0  0  0  0  0  0
   -1.5080    1.5510   -0.6970 N   0  0  0  0  0  0  0  0  0  0  0  0
   -2.9430    3.4800   -0.4080 C   0  0  0  0  0  0  0  0  0  0  0  0
   -2.5990    3.4980    0.7920 O   0  0  0  0  0  0  0  0  0  0  0  0
   -3.8310    4.4300   -0.8660 O   0  0  0  0  0  0  0  0  0  0  0  0
   -4.0350    0.0480   -0.8330 H   0  0  0  0  0  0  0  0  0  0  0  0
   -4.2880    2.3660   -2.3950 H   0  0  0  0  0  0  0  0  0  0  0  0
   -3.2200    0.9280   -2.5950 H   0  0  0  0  0  0  0  0  0  0  0  0
   -1.8750    2.9660   -2.1640 H   0  0  0  0  0  0  0  0  0  0  0  0
   -1.8670    0.9950    0.1130 H   0  0  0  0  0  0  0  0  0  0  0  0
  1  9  1  0  0  0  0
  1  2  1  0  0  0  0
  3  2  1  0  0  0  0
  3 12  1  0  0  0  0
  4 15  1  0  0  0  0
  4  3  1  0  0  0  0
  5  4  1  0  0  0  0
  5 16  1  1  0  0  0
  6  5  1  0  0  0  0
  6 17  1  0  0  0  0
  7  8  2  0  0  0  0
  7  5  1  0  0  0  0
 10  1  1  0  0  0  0
 11  1  1  0  0  0  0
 13  3  1  0  0  0  0
 14  4  1  0  0  0  0
 18  6  1  0  0  0  0
 19 27  1  0  0  0  0
 19 20  1  0  0  0  0
 20 21  1  0  0  0  0
 20 30  1  0  0  0  0
 21 32  1  0  0  0  0
 21 31  1  0  0  0  0
 22 20  1  0  0  0  0
 22 23  1  0  0  0  0
 23 36  1  1  0  0  0
 23 24  1  0  0  0  0
 24  7  1  0  0  0  0
 25 41  1  0  0  0  0
 25 23  1  0  0  0  0
 26 25  2  0  0  0  0
 28 19  1  0  0  0  0
 29 19  1  0  0  0  0
 33 21  1  0  0  0  0
 34 22  1  0  0  0  0
 35 22  1  0  0  0  0
 37 24  1  0  0  0  0
 38 45  1  0  0  0  0
 39 40  1  0  0  0  0
 39 38  1  0  0  0  0
 40 48  1  6  0  0  0
 40 41  1  0  0  0  0
 40 42  1  0  0  0  0
 41 49  1  0  0  0  0
 42 43  1  0  0  0  0
 44 42  2  0  0  0  0
 46 39  1  0  0  0  0
 47 39  1  0  0  0  0
M  END
$$$$
