MLW.pdb
 OpenBabel07022418553D

 62 63  0  0  1  0  0  0  0  0999 V2000
   -3.7200    1.3100    2.4910 C   0  0  0  0  0  0  0  0  0  0  0  0
   -3.1660    2.0600    4.0470 S   0  0  0  0  0  0  0  0  0  0  0  0
   -2.6590    0.9280    5.2920 C   0  0  0  0  0  0  0  0  0  0  0  0
   -1.3720    0.1960    5.2040 C   0  0  0  0  0  0  0  0  0  0  0  0
   -1.0730   -0.5940    3.9870 C   0  0  2  0  0  0  0  0  0  0  0  0
    0.1760   -1.3880    4.1960 N   0  0  0  0  0  0  0  0  0  0  0  0
   -0.6540    0.3900    2.8970 C   0  0  0  0  0  0  0  0  0  0  0  0
   -0.7170    1.6190    2.9960 O   0  0  0  0  0  0  0  0  0  0  0  0
   -4.7870    1.5230    2.2810 H   0  0  0  0  0  0  0  0  0  0  0  0
   -3.5150    0.2240    2.4960 H   0  0  0  0  0  0  0  0  0  0  0  0
   -3.1260    1.7640    1.6730 H   0  0  0  0  0  0  0  0  0  0  0  0
   -2.5870    1.5420    6.2680 H   0  0  0  0  0  0  0  0  0  0  0  0
   -3.5070    0.2150    5.5810 H   0  0  0  0  0  0  0  0  0  0  0  0
   -1.2980   -0.5440    6.0740 H   0  0  0  0  0  0  0  0  0  0  0  0
   -0.5400    0.9670    5.4030 H   0  0  0  0  0  0  0  0  0  0  0  0
   -1.8550   -1.2600    3.7110 H   0  0  0  0  0  0  0  0  0  0  0  0
    0.2400   -2.0470    3.3980 H   0  0  0  0  0  0  0  0  0  0  0  0
   -0.0410   -1.9850    5.0420 H   0  0  0  0  0  0  0  0  0  0  0  0
    3.8480    1.4730   -0.6360 C   0  0  0  0  0  0  0  0  0  0  0  0
    2.3130    1.5640   -0.6320 C   0  0  0  0  0  0  0  0  0  0  0  0
    1.9460    3.0150   -0.4620 C   0  0  0  0  0  0  0  0  0  0  0  0
    1.8020    0.6960    0.4680 C   0  0  0  0  0  0  0  0  0  0  0  0
    0.2970    0.7320    0.5660 C   0  0  2  0  0  0  0  0  0  0  0  0
   -0.1450   -0.1330    1.6630 N   0  0  0  0  0  0  0  0  0  0  0  0
   -0.4080    0.3250   -0.6450 C   0  0  0  0  0  0  0  0  0  0  0  0
   -0.2040    0.9370   -1.7260 O   0  0  0  0  0  0  0  0  0  0  0  0
    4.1280    0.5240   -0.1520 H   0  0  0  0  0  0  0  0  0  0  0  0
    4.2350    2.3540   -0.0610 H   0  0  0  0  0  0  0  0  0  0  0  0
    4.2120    1.5400   -1.6630 H   0  0  0  0  0  0  0  0  0  0  0  0
    2.0210    1.2510   -1.6500 H   0  0  0  0  0  0  0  0  0  0  0  0
    2.3850    3.4870    0.4380 H   0  0  0  0  0  0  0  0  0  0  0  0
    2.2190    3.6020   -1.3590 H   0  0  0  0  0  0  0  0  0  0  0  0
    0.8430    3.1470   -0.3520 H   0  0  0  0  0  0  0  0  0  0  0  0
    2.2630    1.0970    1.4200 H   0  0  0  0  0  0  0  0  0  0  0  0
    2.1910   -0.3380    0.3970 H   0  0  0  0  0  0  0  0  0  0  0  0
    0.0620    1.7780    0.9120 H   0  0  0  0  0  0  0  0  0  0  0  0
   -0.1060   -1.1760    1.5880 H   0  0  0  0  0  0  0  0  0  0  0  0
   -1.3520   -0.7480   -0.7520 N   0  0  0  0  0  0  0  0  0  0  0  0
   -2.0090   -1.1160   -1.9450 C   0  0  1  0  0  0  0  0  0  0  0  0
   -1.9380   -2.5140   -2.4160 C   0  0  0  0  0  0  0  0  0  0  0  0
   -0.5850   -3.0450   -2.6870 C   0  0  0  0  0  0  0  0  0  0  0  0
    0.0010   -3.1520   -3.9350 C   0  0  0  0  0  0  0  0  0  0  0  0
    1.2530   -3.6620   -3.8020 N   0  0  0  0  0  0  0  0  0  0  0  0
    1.5180   -3.8960   -2.5060 C   0  0  0  0  0  0  0  0  0  0  0  0
    2.5950   -4.3940   -1.8100 C   0  0  0  0  0  0  0  0  0  0  0  0
    2.6060   -4.5390   -0.4260 C   0  0  0  0  0  0  0  0  0  0  0  0
    1.4670   -4.1550    0.2370 C   0  0  0  0  0  0  0  0  0  0  0  0
    0.3810   -3.6560   -0.4380 C   0  0  0  0  0  0  0  0  0  0  0  0
    0.3730   -3.5120   -1.8120 C   0  0  0  0  0  0  0  0  0  0  0  0
   -3.4750   -0.7550   -1.9230 C   0  0  0  0  0  0  0  0  0  0  0  0
   -4.1240   -1.0280   -2.9590 O   0  0  0  0  0  0  0  0  0  0  0  0
   -4.1080   -0.1650   -0.8660 O   0  0  0  0  0  0  0  0  0  0  0  0
   -1.5560   -1.2640    0.1210 H   0  0  0  0  0  0  0  0  0  0  0  0
   -1.6040   -0.4590   -2.7740 H   0  0  0  0  0  0  0  0  0  0  0  0
   -2.5550   -3.2290   -1.8150 H   0  0  0  0  0  0  0  0  0  0  0  0
   -2.4840   -2.5170   -3.4100 H   0  0  0  0  0  0  0  0  0  0  0  0
   -0.4410   -2.8800   -4.8880 H   0  0  0  0  0  0  0  0  0  0  0  0
    1.9400   -3.8570   -4.5750 H   0  0  0  0  0  0  0  0  0  0  0  0
    3.4960   -4.7010   -2.3250 H   0  0  0  0  0  0  0  0  0  0  0  0
    3.4750   -4.9350    0.1050 H   0  0  0  0  0  0  0  0  0  0  0  0
    1.3910   -4.2360    1.3350 H   0  0  0  0  0  0  0  0  0  0  0  0
   -0.5140   -3.3630    0.0920 H   0  0  0  0  0  0  0  0  0  0  0  0
  1 10  1  0  0  0  0
  1  2  1  0  0  0  0
  2  3  1  0  0  0  0
  3 13  1  0  0  0  0
  3 12  1  0  0  0  0
  4  3  1  0  0  0  0
  4 15  1  0  0  0  0
  4 14  1  0  0  0  0
  5 16  1  6  0  0  0
  5  6  1  0  0  0  0
  5  4  1  0  0  0  0
  6 18  1  0  0  0  0
  7  8  2  0  0  0  0
  7  5  1  0  0  0  0
  9  1  1  0  0  0  0
 11  1  1  0  0  0  0
 17  6  1  0  0  0  0
 19 20  1  0  0  0  0
 19 27  1  0  0  0  0
 19 28  1  0  0  0  0
 20 21  1  0  0  0  0
 20 22  1  0  0  0  0
 21 33  1  0  0  0  0
 21 31  1  0  0  0  0
 22 23  1  0  0  0  0
 22 34  1  0  0  0  0
 23 36  1  1  0  0  0
 23 24  1  0  0  0  0
 24  7  1  0  0  0  0
 25 23  1  0  0  0  0
 26 25  2  0  0  0  0
 29 19  1  0  0  0  0
 30 20  1  0  0  0  0
 32 21  1  0  0  0  0
 35 22  1  0  0  0  0
 37 24  1  0  0  0  0
 38 25  1  0  0  0  0
 38 53  1  0  0  0  0
 39 54  1  6  0  0  0
 39 50  1  0  0  0  0
 39 38  1  0  0  0  0
 40 39  1  0  0  0  0
 40 55  1  0  0  0  0
 41 40  1  0  0  0  0
 41 49  1  0  0  0  0
 42 43  1  0  0  0  0
 42 41  2  0  0  0  0
 43 44  1  0  0  0  0
 44 49  2  0  0  0  0
 44 45  1  0  0  0  0
 45 46  2  0  0  0  0
 46 60  1  0  0  0  0
 46 47  1  0  0  0  0
 47 61  1  0  0  0  0
 48 62  1  0  0  0  0
 48 47  2  0  0  0  0
 49 48  1  0  0  0  0
 50 52  1  0  0  0  0
 51 50  2  0  0  0  0
 56 40  1  0  0  0  0
 57 42  1  0  0  0  0
 58 43  1  0  0  0  0
 59 45  1  0  0  0  0
M  END
$$$$
