MMA.pdb
 OpenBabel07022418563D

 46 45  0  0  1  0  0  0  0  0999 V2000
   -0.2940    1.6350    4.8210 C   0  0  0  0  0  0  0  0  0  0  0  0
   -0.5530   -0.0790    5.2490 S   0  0  0  0  0  0  0  0  0  0  0  0
   -0.4050   -1.2400    3.9140 C   0  0  0  0  0  0  0  0  0  0  0  0
    0.9680   -1.5540    3.4590 C   0  0  0  0  0  0  0  0  0  0  0  0
    1.8490   -0.4960    2.9480 C   0  0  2  0  0  0  0  0  0  0  0  0
    2.1280    0.5080    3.9160 N   0  0  0  0  0  0  0  0  0  0  0  0
    1.3960    0.0890    1.6530 C   0  0  0  0  0  0  0  0  0  0  0  0
    1.3590    1.3350    1.5660 O   0  0  0  0  0  0  0  0  0  0  0  0
   -1.2510    2.1840    5.1370 H   0  0  0  0  0  0  0  0  0  0  0  0
    0.5510    2.0950    5.3950 H   0  0  0  0  0  0  0  0  0  0  0  0
   -0.2390    1.7820    3.7310 H   0  0  0  0  0  0  0  0  0  0  0  0
   -0.8860   -2.2230    4.2610 H   0  0  0  0  0  0  0  0  0  0  0  0
   -1.0720   -0.9640    3.0360 H   0  0  0  0  0  0  0  0  0  0  0  0
    1.4980   -1.9820    4.3860 H   0  0  0  0  0  0  0  0  0  0  0  0
    0.9680   -2.4760    2.7910 H   0  0  0  0  0  0  0  0  0  0  0  0
    2.8560   -0.9520    2.6860 H   0  0  0  0  0  0  0  0  0  0  0  0
    2.8710    0.2310    4.5970 H   0  0  0  0  0  0  0  0  0  0  0  0
    2.5110    1.3620    3.4140 H   0  0  0  0  0  0  0  0  0  0  0  0
    2.8640    2.3940   -3.0140 C   0  0  0  0  0  0  0  0  0  0  0  0
    3.1180    1.5670   -1.4540 S   0  0  0  0  0  0  0  0  0  0  0  0
    2.9370   -0.2010   -1.5050 C   0  0  0  0  0  0  0  0  0  0  0  0
    1.5420   -0.6720   -1.8000 C   0  0  0  0  0  0  0  0  0  0  0  0
    0.5720   -0.1670   -0.7250 C   0  0  2  0  0  0  0  0  0  0  0  0
    1.0160   -0.6970    0.5470 N   0  0  0  0  0  0  0  0  0  0  0  0
   -0.8010   -0.6180   -1.0620 C   0  0  0  0  0  0  0  0  0  0  0  0
   -1.3840   -0.2930   -2.1240 O   0  0  0  0  0  0  0  0  0  0  0  0
    3.3800    3.3830   -2.9700 H   0  0  0  0  0  0  0  0  0  0  0  0
    1.8080    2.5930   -3.2690 H   0  0  0  0  0  0  0  0  0  0  0  0
    3.3820    1.8270   -3.8160 H   0  0  0  0  0  0  0  0  0  0  0  0
    3.3510   -0.6560   -0.5830 H   0  0  0  0  0  0  0  0  0  0  0  0
    3.5870   -0.5910   -2.3420 H   0  0  0  0  0  0  0  0  0  0  0  0
    1.2340   -0.3920   -2.8080 H   0  0  0  0  0  0  0  0  0  0  0  0
    1.4880   -1.7780   -1.7420 H   0  0  0  0  0  0  0  0  0  0  0  0
    0.5870    0.9330   -0.6480 H   0  0  0  0  0  0  0  0  0  0  0  0
    1.0770   -1.7490    0.7060 H   0  0  0  0  0  0  0  0  0  0  0  0
   -3.0140   -3.3990   -0.4580 C   0  0  0  0  0  0  0  0  0  0  0  0
   -2.8560   -1.9240   -0.4490 C   0  0  2  0  0  0  0  0  0  0  0  0
   -1.5220   -1.4580   -0.1670 N   0  0  0  0  0  0  0  0  0  0  0  0
   -3.8570   -1.3310    0.4860 C   0  0  0  0  0  0  0  0  0  0  0  0
   -3.4980   -0.5320    1.3800 O   0  0  0  0  0  0  0  0  0  0  0  0
   -5.1890   -1.6550    0.3780 O   0  0  0  0  0  0  0  0  0  0  0  0
   -2.0880   -3.9720   -0.6490 H   0  0  0  0  0  0  0  0  0  0  0  0
   -3.5180   -3.7600    0.4880 H   0  0  0  0  0  0  0  0  0  0  0  0
   -3.7110   -3.6760   -1.2810 H   0  0  0  0  0  0  0  0  0  0  0  0
   -3.1320   -1.5170   -1.4660 H   0  0  0  0  0  0  0  0  0  0  0  0
   -1.0940   -1.7660    0.7400 H   0  0  0  0  0  0  0  0  0  0  0  0
  1  9  1  0  0  0  0
  1  2  1  0  0  0  0
  1 10  1  0  0  0  0
  3 12  1  0  0  0  0
  3  2  1  0  0  0  0
  4  3  1  0  0  0  0
  4 14  1  0  0  0  0
  5 16  1  6  0  0  0
  5  4  1  0  0  0  0
  5  6  1  0  0  0  0
  6 17  1  0  0  0  0
  7  5  1  0  0  0  0
  8  7  2  0  0  0  0
 11  1  1  0  0  0  0
 13  3  1  0  0  0  0
 15  4  1  0  0  0  0
 18  6  1  0  0  0  0
 19 27  1  0  0  0  0
 19 20  1  0  0  0  0
 21 20  1  0  0  0  0
 21 30  1  0  0  0  0
 22 33  1  0  0  0  0
 22 21  1  0  0  0  0
 22 23  1  0  0  0  0
 23 34  1  1  0  0  0
 23 24  1  0  0  0  0
 24 35  1  0  0  0  0
 24  7  1  0  0  0  0
 25 23  1  0  0  0  0
 25 38  1  0  0  0  0
 26 25  2  0  0  0  0
 28 19  1  0  0  0  0
 29 19  1  0  0  0  0
 31 21  1  0  0  0  0
 32 22  1  0  0  0  0
 36 37  1  0  0  0  0
 36 43  1  0  0  0  0
 37 45  1  6  0  0  0
 37 38  1  0  0  0  0
 37 39  1  0  0  0  0
 38 46  1  0  0  0  0
 39 40  1  0  0  0  0
 41 39  2  0  0  0  0
 42 36  1  0  0  0  0
 44 36  1  0  0  0  0
M  END
$$$$
