MMC.pdb
 OpenBabel07022418563D

 47 46  0  0  1  0  0  0  0  0999 V2000
   -2.7530   -1.2290   -2.2760 C   0  0  0  0  0  0  0  0  0  0  0  0
   -1.6040   -2.3810   -3.0740 S   0  0  0  0  0  0  0  0  0  0  0  0
   -0.0850   -2.4540   -2.0840 C   0  0  0  0  0  0  0  0  0  0  0  0
    0.5600   -1.1130   -2.1690 C   0  0  0  0  0  0  0  0  0  0  0  0
    1.8640   -0.9990   -1.4020 C   0  0  2  0  0  0  0  0  0  0  0  0
    2.8350   -1.9750   -1.9210 N   0  0  0  0  0  0  0  0  0  0  0  0
    1.6980   -1.1830    0.0400 C   0  0  0  0  0  0  0  0  0  0  0  0
    2.3080   -2.1280    0.6050 O   0  0  0  0  0  0  0  0  0  0  0  0
   -2.2700   -0.7440   -1.4100 H   0  0  0  0  0  0  0  0  0  0  0  0
   -3.6560   -1.7960   -1.9470 H   0  0  0  0  0  0  0  0  0  0  0  0
   -3.0580   -0.4780   -3.0510 H   0  0  0  0  0  0  0  0  0  0  0  0
    0.5540   -3.2560   -2.5100 H   0  0  0  0  0  0  0  0  0  0  0  0
   -0.4210   -2.6990   -1.0340 H   0  0  0  0  0  0  0  0  0  0  0  0
   -0.1770   -0.3740   -1.7770 H   0  0  0  0  0  0  0  0  0  0  0  0
    0.7410   -0.8730   -3.2160 H   0  0  0  0  0  0  0  0  0  0  0  0
    2.2800    0.0080   -1.6710 H   0  0  0  0  0  0  0  0  0  0  0  0
    2.7220   -1.9380   -2.9710 H   0  0  0  0  0  0  0  0  0  0  0  0
    3.7760   -1.5670   -1.6880 H   0  0  0  0  0  0  0  0  0  0  0  0
    5.6090    1.7990    2.6190 C   0  0  0  0  0  0  0  0  0  0  0  0
    3.9160    1.8100    3.2240 S   0  0  0  0  0  0  0  0  0  0  0  0
    2.9660    0.4800    2.4540 C   0  0  0  0  0  0  0  0  0  0  0  0
    1.5290    0.5030    2.9700 C   0  0  0  0  0  0  0  0  0  0  0  0
    0.7990   -0.6370    2.2820 C   0  0  2  0  0  0  0  0  0  0  0  0
    0.8890   -0.3610    0.8640 N   0  0  0  0  0  0  0  0  0  0  0  0
   -0.6260   -0.6510    2.6970 C   0  0  0  0  0  0  0  0  0  0  0  0
   -0.9700   -0.8610    3.9030 O   0  0  0  0  0  0  0  0  0  0  0  0
    5.6800    2.2010    1.5650 H   0  0  0  0  0  0  0  0  0  0  0  0
    6.2490    2.4880    3.2170 H   0  0  0  0  0  0  0  0  0  0  0  0
    6.0880    0.8220    2.6520 H   0  0  0  0  0  0  0  0  0  0  0  0
    3.4230   -0.5180    2.5730 H   0  0  0  0  0  0  0  0  0  0  0  0
    2.9770    0.6860    1.3430 H   0  0  0  0  0  0  0  0  0  0  0  0
    1.5670    0.2800    4.0430 H   0  0  0  0  0  0  0  0  0  0  0  0
    1.0950    1.4830    2.7210 H   0  0  0  0  0  0  0  0  0  0  0  0
    1.3360   -1.5590    2.5670 H   0  0  0  0  0  0  0  0  0  0  0  0
    0.3630    0.4380    0.4630 H   0  0  0  0  0  0  0  0  0  0  0  0
   -1.7180   -0.4350    1.8080 N   0  0  0  0  0  0  0  0  0  0  0  0
   -3.1040   -0.4490    2.2290 C   0  0  1  0  0  0  0  0  0  0  0  0
   -3.8060    0.8730    2.0500 C   0  0  0  0  0  0  0  0  0  0  0  0
   -5.5260    0.6200    2.6360 S   0  0  0  0  0  0  0  0  0  0  0  0
   -3.8570   -1.5670    1.6410 C   0  0  0  0  0  0  0  0  0  0  0  0
   -5.0780   -1.6880    1.9150 O   0  0  0  0  0  0  0  0  0  0  0  0
   -3.2970   -2.5020    0.7980 O   0  0  0  0  0  0  0  0  0  0  0  0
   -1.5100   -0.2570    0.8030 H   0  0  0  0  0  0  0  0  0  0  0  0
   -3.0820   -0.6300    3.3440 H   0  0  0  0  0  0  0  0  0  0  0  0
   -3.7930    1.2350    1.0130 H   0  0  0  0  0  0  0  0  0  0  0  0
   -3.3620    1.6360    2.7210 H   0  0  0  0  0  0  0  0  0  0  0  0
   -5.4360   -0.2090    3.7780 H   0  0  0  0  0  0  0  0  0  0  0  0
  1 10  1  0  0  0  0
  1  9  1  0  0  0  0
  2  1  1  0  0  0  0
  2  3  1  0  0  0  0
  3 13  1  0  0  0  0
  4  3  1  0  0  0  0
  4 14  1  0  0  0  0
  4  5  1  0  0  0  0
  5 16  1  6  0  0  0
  5  7  1  0  0  0  0
  6 18  1  0  0  0  0
  6  5  1  0  0  0  0
  7  8  2  0  0  0  0
  7 24  1  0  0  0  0
 11  1  1  0  0  0  0
 12  3  1  0  0  0  0
 15  4  1  0  0  0  0
 17  6  1  0  0  0  0
 19 29  1  0  0  0  0
 19 28  1  0  0  0  0
 19 20  1  0  0  0  0
 21 30  1  0  0  0  0
 21 22  1  0  0  0  0
 21 20  1  0  0  0  0
 22 32  1  0  0  0  0
 23 34  1  1  0  0  0
 23 25  1  0  0  0  0
 23 22  1  0  0  0  0
 24 23  1  0  0  0  0
 25 26  2  0  0  0  0
 27 19  1  0  0  0  0
 31 21  1  0  0  0  0
 33 22  1  0  0  0  0
 35 24  1  0  0  0  0
 36 37  1  0  0  0  0
 36 25  1  0  0  0  0
 37 44  1  1  0  0  0
 38 37  1  0  0  0  0
 38 39  1  0  0  0  0
 38 46  1  0  0  0  0
 39 47  1  0  0  0  0
 40 41  1  0  0  0  0
 40 37  1  0  0  0  0
 42 40  2  0  0  0  0
 43 36  1  0  0  0  0
 45 38  1  0  0  0  0
M  END
$$$$
