MME.pdb
 OpenBabel07022418563D

 52 51  0  0  1  0  0  0  0  0999 V2000
    1.1960   -5.0900    3.3080 C   0  0  0  0  0  0  0  0  0  0  0  0
    2.4940   -3.9820    2.6990 S   0  0  0  0  0  0  0  0  0  0  0  0
    1.9910   -2.2520    2.9750 C   0  0  0  0  0  0  0  0  0  0  0  0
    3.0780   -1.3740    2.4530 C   0  0  0  0  0  0  0  0  0  0  0  0
    2.7950    0.0910    2.6180 C   0  0  2  0  0  0  0  0  0  0  0  0
    2.6390    0.3640    4.0330 N   0  0  0  0  0  0  0  0  0  0  0  0
    1.5960    0.5300    1.8840 C   0  0  0  0  0  0  0  0  0  0  0  0
    0.6620    1.1060    2.5020 O   0  0  0  0  0  0  0  0  0  0  0  0
    1.5790   -6.1310    3.1360 H   0  0  0  0  0  0  0  0  0  0  0  0
    1.0470   -4.9470    4.3840 H   0  0  0  0  0  0  0  0  0  0  0  0
    0.2790   -4.9530    2.7010 H   0  0  0  0  0  0  0  0  0  0  0  0
    1.0950   -2.0920    2.3250 H   0  0  0  0  0  0  0  0  0  0  0  0
    1.7530   -2.0760    4.0330 H   0  0  0  0  0  0  0  0  0  0  0  0
    4.0340   -1.6630    2.9280 H   0  0  0  0  0  0  0  0  0  0  0  0
    3.2220   -1.5690    1.3610 H   0  0  0  0  0  0  0  0  0  0  0  0
    3.6760    0.7160    2.2940 H   0  0  0  0  0  0  0  0  0  0  0  0
    3.5360    0.6740    4.4530 H   0  0  0  0  0  0  0  0  0  0  0  0
    1.9390    1.1200    4.2120 H   0  0  0  0  0  0  0  0  0  0  0  0
    0.8170    3.9280    0.9200 C   0  0  0  0  0  0  0  0  0  0  0  0
    0.9240    3.9730   -0.8540 S   0  0  0  0  0  0  0  0  0  0  0  0
    1.5020    2.4940   -1.6520 C   0  0  0  0  0  0  0  0  0  0  0  0
    0.6210    1.3060   -1.5880 C   0  0  0  0  0  0  0  0  0  0  0  0
    0.2840    0.7540   -0.2530 C   0  0  2  0  0  0  0  0  0  0  0  0
    1.4490    0.3280    0.4950 N   0  0  0  0  0  0  0  0  0  0  0  0
   -0.5120   -0.5000   -0.5360 C   0  0  0  0  0  0  0  0  0  0  0  0
   -0.0670   -1.5830   -0.1140 O   0  0  0  0  0  0  0  0  0  0  0  0
   -0.1850    3.6090    1.2360 H   0  0  0  0  0  0  0  0  0  0  0  0
    0.9030    4.9910    1.3080 H   0  0  0  0  0  0  0  0  0  0  0  0
    1.6580    3.4040    1.4160 H   0  0  0  0  0  0  0  0  0  0  0  0
    2.5740    2.2440   -1.3950 H   0  0  0  0  0  0  0  0  0  0  0  0
    1.5870    2.7460   -2.7550 H   0  0  0  0  0  0  0  0  0  0  0  0
    1.1330    0.4880   -2.1600 H   0  0  0  0  0  0  0  0  0  0  0  0
   -0.3000    1.5210   -2.1860 H   0  0  0  0  0  0  0  0  0  0  0  0
   -0.3620    1.4070    0.3700 H   0  0  0  0  0  0  0  0  0  0  0  0
    2.2440   -0.1640   -0.0140 H   0  0  0  0  0  0  0  0  0  0  0  0
   -1.7270   -0.4820   -1.2520 N   0  0  0  0  0  0  0  0  0  0  0  0
   -2.4670   -1.7180   -1.5030 C   0  0  1  0  0  0  0  0  0  0  0  0
   -3.8860   -1.6150   -1.0510 C   0  0  0  0  0  0  0  0  0  0  0  0
   -3.9740   -1.3310    0.4120 C   0  0  0  0  0  0  0  0  0  0  0  0
   -3.3840   -2.3820    1.2590 C   0  0  0  0  0  0  0  0  0  0  0  0
   -3.2740   -2.1910    2.4990 O   0  0  0  0  0  0  0  0  0  0  0  0
   -2.5080   -2.0000   -2.9760 C   0  0  0  0  0  0  0  0  0  0  0  0
   -1.9710   -1.2510   -3.8190 O   0  0  0  0  0  0  0  0  0  0  0  0
   -2.9540   -3.5700    0.7200 O   0  0  0  0  0  0  0  0  0  0  0  0
   -3.1660   -3.1320   -3.4120 O   0  0  0  0  0  0  0  0  0  0  0  0
   -2.1100    0.3980   -1.6090 H   0  0  0  0  0  0  0  0  0  0  0  0
   -1.9540   -2.5690   -1.0540 H   0  0  0  0  0  0  0  0  0  0  0  0
   -4.4360   -0.7830   -1.5750 H   0  0  0  0  0  0  0  0  0  0  0  0
   -4.4620   -2.5340   -1.3110 H   0  0  0  0  0  0  0  0  0  0  0  0
   -5.0630   -1.2440    0.6880 H   0  0  0  0  0  0  0  0  0  0  0  0
   -3.4760   -0.3500    0.6330 H   0  0  0  0  0  0  0  0  0  0  0  0
   -2.9750   -4.4310    1.2560 H   0  0  0  0  0  0  0  0  0  0  0  0
  1 10  1  0  0  0  0
  2  3  1  0  0  0  0
  2  1  1  0  0  0  0
  3 13  1  0  0  0  0
  4  5  1  0  0  0  0
  4 14  1  0  0  0  0
  4  3  1  0  0  0  0
  5 16  1  6  0  0  0
  5  6  1  0  0  0  0
  6 18  1  0  0  0  0
  6 17  1  0  0  0  0
  7  8  2  0  0  0  0
  7  5  1  0  0  0  0
  9  1  1  0  0  0  0
 11  1  1  0  0  0  0
 12  3  1  0  0  0  0
 15  4  1  0  0  0  0
 19 27  1  0  0  0  0
 19 28  1  0  0  0  0
 19 29  1  0  0  0  0
 20 19  1  0  0  0  0
 21 22  1  0  0  0  0
 21 30  1  0  0  0  0
 21 20  1  0  0  0  0
 22 23  1  0  0  0  0
 23 34  1  1  0  0  0
 23 24  1  0  0  0  0
 24  7  1  0  0  0  0
 25 23  1  0  0  0  0
 25 26  2  0  0  0  0
 31 21  1  0  0  0  0
 32 22  1  0  0  0  0
 33 22  1  0  0  0  0
 35 24  1  0  0  0  0
 36 25  1  0  0  0  0
 37 36  1  0  0  0  0
 37 47  1  1  0  0  0
 37 38  1  0  0  0  0
 38 39  1  0  0  0  0
 39 51  1  0  0  0  0
 39 50  1  0  0  0  0
 39 40  1  0  0  0  0
 40 41  2  0  0  0  0
 42 37  1  0  0  0  0
 43 42  2  0  0  0  0
 44 52  1  0  0  0  0
 44 40  1  0  0  0  0
 45 42  1  0  0  0  0
 46 36  1  0  0  0  0
 48 38  1  0  0  0  0
 49 38  1  0  0  0  0
M  END
$$$$
