MMG.pdb
 OpenBabel07022418563D

 43 42  0  0  1  0  0  0  0  0999 V2000
    3.1800   -5.7590    1.4870 C   0  0  0  0  0  0  0  0  0  0  0  0
    2.3640   -5.4380   -0.0880 S   0  0  0  0  0  0  0  0  0  0  0  0
    0.9350   -4.3550    0.1630 C   0  0  0  0  0  0  0  0  0  0  0  0
    1.3960   -2.9720    0.6220 C   0  0  0  0  0  0  0  0  0  0  0  0
    0.2170   -2.0610    0.8380 C   0  0  2  0  0  0  0  0  0  0  0  0
   -0.5470   -1.8870   -0.3660 N   0  0  0  0  0  0  0  0  0  0  0  0
    0.6410   -0.7730    1.4340 C   0  0  0  0  0  0  0  0  0  0  0  0
    1.3320   -0.8490    2.4900 O   0  0  0  0  0  0  0  0  0  0  0  0
    4.2170   -6.0630    1.2960 H   0  0  0  0  0  0  0  0  0  0  0  0
    3.1550   -4.8200    2.0790 H   0  0  0  0  0  0  0  0  0  0  0  0
    2.6190   -6.5120    2.0950 H   0  0  0  0  0  0  0  0  0  0  0  0
    0.3340   -4.7630    0.9960 H   0  0  0  0  0  0  0  0  0  0  0  0
    0.3630   -4.3100   -0.7630 H   0  0  0  0  0  0  0  0  0  0  0  0
    2.0940   -2.5940   -0.1510 H   0  0  0  0  0  0  0  0  0  0  0  0
    1.9770   -3.0740    1.5600 H   0  0  0  0  0  0  0  0  0  0  0  0
   -0.4270   -2.5670    1.6170 H   0  0  0  0  0  0  0  0  0  0  0  0
   -1.4070   -2.4780   -0.3540 H   0  0  0  0  0  0  0  0  0  0  0  0
    0.0310   -2.0170   -1.2270 H   0  0  0  0  0  0  0  0  0  0  0  0
    1.6830    0.6470   -2.3660 C   0  0  0  0  0  0  0  0  0  0  0  0
    2.4730    0.3090   -0.7910 S   0  0  0  0  0  0  0  0  0  0  0  0
    2.8360    1.8300    0.1290 C   0  0  0  0  0  0  0  0  0  0  0  0
    1.5730    2.5380    0.5550 C   0  0  0  0  0  0  0  0  0  0  0  0
    0.7120    1.6870    1.4480 C   0  0  2  0  0  0  0  0  0  0  0  0
    0.2840    0.4680    0.8420 N   0  0  0  0  0  0  0  0  0  0  0  0
   -0.4780    2.4240    1.9460 C   0  0  0  0  0  0  0  0  0  0  0  0
   -0.3510    3.5400    2.5250 O   0  0  0  0  0  0  0  0  0  0  0  0
    2.2180    0.2460   -3.2390 H   0  0  0  0  0  0  0  0  0  0  0  0
    1.4440    1.7430   -2.4870 H   0  0  0  0  0  0  0  0  0  0  0  0
    0.6800    0.1300   -2.3480 H   0  0  0  0  0  0  0  0  0  0  0  0
    3.5500    1.6760    0.9360 H   0  0  0  0  0  0  0  0  0  0  0  0
    3.3420    2.5220   -0.6050 H   0  0  0  0  0  0  0  0  0  0  0  0
    1.8890    3.4600    1.0860 H   0  0  0  0  0  0  0  0  0  0  0  0
    1.0580    2.8710   -0.3640 H   0  0  0  0  0  0  0  0  0  0  0  0
    1.3120    1.4460    2.3470 H   0  0  0  0  0  0  0  0  0  0  0  0
   -0.2910    0.4110   -0.0330 H   0  0  0  0  0  0  0  0  0  0  0  0
   -1.8100    1.9300    1.8060 N   0  0  0  0  0  0  0  0  0  0  0  0
   -2.9640    2.6360    2.2850 C   0  0  0  0  0  0  0  0  0  0  0  0
   -4.1830    1.8460    1.9770 C   0  0  0  0  0  0  0  0  0  0  0  0
   -5.3360    2.2420    2.2920 O   0  0  0  0  0  0  0  0  0  0  0  0
   -4.0900    0.6250    1.3220 O   0  0  0  0  0  0  0  0  0  0  0  0
   -1.9050    1.0140    1.3300 H   0  0  0  0  0  0  0  0  0  0  0  0
   -3.0020    3.6580    1.8090 H   0  0  0  0  0  0  0  0  0  0  0  0
   -2.9410    2.8220    3.3770 H   0  0  0  0  0  0  0  0  0  0  0  0
  1 10  1  0  0  0  0
  1 11  1  0  0  0  0
  2  3  1  0  0  0  0
  2  1  1  0  0  0  0
  3  4  1  0  0  0  0
  3 12  1  0  0  0  0
  4  5  1  0  0  0  0
  4 15  1  0  0  0  0
  5  7  1  0  0  0  0
  5 16  1  1  0  0  0
  6 17  1  0  0  0  0
  6  5  1  0  0  0  0
  7  8  2  0  0  0  0
  9  1  1  0  0  0  0
 13  3  1  0  0  0  0
 14  4  1  0  0  0  0
 18  6  1  0  0  0  0
 19 29  1  0  0  0  0
 19 20  1  0  0  0  0
 20 21  1  0  0  0  0
 21 22  1  0  0  0  0
 21 30  1  0  0  0  0
 22 32  1  0  0  0  0
 22 23  1  0  0  0  0
 23 25  1  0  0  0  0
 23 34  1  1  0  0  0
 24  7  1  0  0  0  0
 24 23  1  0  0  0  0
 25 26  2  0  0  0  0
 27 19  1  0  0  0  0
 28 19  1  0  0  0  0
 31 21  1  0  0  0  0
 33 22  1  0  0  0  0
 35 24  1  0  0  0  0
 36 25  1  0  0  0  0
 36 37  1  0  0  0  0
 37 43  1  0  0  0  0
 38 37  1  0  0  0  0
 38 39  1  0  0  0  0
 40 38  2  0  0  0  0
 41 36  1  0  0  0  0
 42 37  1  0  0  0  0
M  END
$$$$
