MMI.pdb
 OpenBabel07022418563D

 55 54  0  0  1  0  0  0  0  0999 V2000
    2.1660   -3.0790    4.0730 C   0  0  0  0  0  0  0  0  0  0  0  0
    2.2980   -1.2950    4.2810 S   0  0  0  0  0  0  0  0  0  0  0  0
    0.6640   -0.5140    4.2680 C   0  0  0  0  0  0  0  0  0  0  0  0
    0.7200    0.9540    4.4370 C   0  0  0  0  0  0  0  0  0  0  0  0
    1.4820    1.7230    3.3890 C   0  0  2  0  0  0  0  0  0  0  0  0
    1.4410    3.1600    3.7320 N   0  0  0  0  0  0  0  0  0  0  0  0
    0.8270    1.5340    2.0640 C   0  0  0  0  0  0  0  0  0  0  0  0
    0.0970    2.4690    1.5690 O   0  0  0  0  0  0  0  0  0  0  0  0
    1.1420   -3.3650    3.7470 H   0  0  0  0  0  0  0  0  0  0  0  0
    2.9250   -3.4280    3.3280 H   0  0  0  0  0  0  0  0  0  0  0  0
    2.3500   -3.6370    5.0220 H   0  0  0  0  0  0  0  0  0  0  0  0
    0.1030   -0.9320    5.1560 H   0  0  0  0  0  0  0  0  0  0  0  0
    0.0990   -0.8590    3.3940 H   0  0  0  0  0  0  0  0  0  0  0  0
   -0.3190    1.3730    4.4720 H   0  0  0  0  0  0  0  0  0  0  0  0
    1.1580    1.2530    5.4250 H   0  0  0  0  0  0  0  0  0  0  0  0
    2.5310    1.4030    3.4160 H   0  0  0  0  0  0  0  0  0  0  0  0
    1.7710    3.2000    4.7230 H   0  0  0  0  0  0  0  0  0  0  0  0
    2.2010    3.5920    3.1360 H   0  0  0  0  0  0  0  0  0  0  0  0
    4.6570   -0.2560   -1.8650 C   0  0  0  0  0  0  0  0  0  0  0  0
    3.5650    1.1200   -2.2930 S   0  0  0  0  0  0  0  0  0  0  0  0
    2.2780    1.3560   -1.0390 C   0  0  0  0  0  0  0  0  0  0  0  0
    1.3820    0.1410   -1.0720 C   0  0  0  0  0  0  0  0  0  0  0  0
    0.2600    0.2670   -0.0320 C   0  0  2  0  0  0  0  0  0  0  0  0
    0.9310    0.3830    1.2530 N   0  0  0  0  0  0  0  0  0  0  0  0
   -0.5050   -0.9990   -0.1110 C   0  0  0  0  0  0  0  0  0  0  0  0
   -0.4780   -1.7700    0.8800 O   0  0  0  0  0  0  0  0  0  0  0  0
    4.8260   -0.3110   -0.7640 H   0  0  0  0  0  0  0  0  0  0  0  0
    5.6320   -0.0780   -2.3840 H   0  0  0  0  0  0  0  0  0  0  0  0
    4.2700   -1.2250   -2.2380 H   0  0  0  0  0  0  0  0  0  0  0  0
    2.6960    1.5510   -0.0460 H   0  0  0  0  0  0  0  0  0  0  0  0
    1.6800    2.2400   -1.3330 H   0  0  0  0  0  0  0  0  0  0  0  0
    0.9830    0.0160   -2.0900 H   0  0  0  0  0  0  0  0  0  0  0  0
    1.9380   -0.7750   -0.7890 H   0  0  0  0  0  0  0  0  0  0  0  0
   -0.3430    1.1710   -0.2490 H   0  0  0  0  0  0  0  0  0  0  0  0
    1.5160   -0.4190    1.5700 H   0  0  0  0  0  0  0  0  0  0  0  0
   -3.8470   -0.3100   -2.4210 C   0  0  0  0  0  0  0  0  0  0  0  0
   -4.0300   -1.7800   -2.3840 C   0  0  0  0  0  0  0  0  0  0  0  0
   -3.4780   -2.5040   -1.2110 C   0  0  2  0  0  0  0  0  0  0  0  0
   -4.0350   -2.0600    0.1080 C   0  0  0  0  0  0  0  0  0  0  0  0
   -1.9780   -2.6510   -1.2120 C   0  0  2  0  0  0  0  0  0  0  0  0
   -1.2620   -1.3970   -1.2210 N   0  0  0  0  0  0  0  0  0  0  0  0
   -1.5020   -3.5480   -2.2860 C   0  0  0  0  0  0  0  0  0  0  0  0
   -0.5970   -3.1710   -3.0450 O   0  0  0  0  0  0  0  0  0  0  0  0
   -2.0670   -4.7940   -2.4350 O   0  0  0  0  0  0  0  0  0  0  0  0
   -4.8220    0.2040   -2.6750 H   0  0  0  0  0  0  0  0  0  0  0  0
   -3.4040    0.1360   -1.5060 H   0  0  0  0  0  0  0  0  0  0  0  0
   -3.1830   -0.0400   -3.2650 H   0  0  0  0  0  0  0  0  0  0  0  0
   -3.5690   -2.2260   -3.3120 H   0  0  0  0  0  0  0  0  0  0  0  0
   -5.1320   -1.9980   -2.5210 H   0  0  0  0  0  0  0  0  0  0  0  0
   -3.8650   -3.5780   -1.3270 H   0  0  0  0  0  0  0  0  0  0  0  0
   -5.0770   -2.3750    0.2610 H   0  0  0  0  0  0  0  0  0  0  0  0
   -4.0040   -0.9570    0.2560 H   0  0  0  0  0  0  0  0  0  0  0  0
   -3.4240   -2.4950    0.9310 H   0  0  0  0  0  0  0  0  0  0  0  0
   -1.7280   -3.2120   -0.2490 H   0  0  0  0  0  0  0  0  0  0  0  0
   -1.2860   -0.7740   -2.0500 H   0  0  0  0  0  0  0  0  0  0  0  0
  1  2  1  0  0  0  0
  1 11  1  0  0  0  0
  3  2  1  0  0  0  0
  3  4  1  0  0  0  0
  3 12  1  0  0  0  0
  4 14  1  0  0  0  0
  4 15  1  0  0  0  0
  5 16  1  6  0  0  0
  5  6  1  0  0  0  0
  5  4  1  0  0  0  0
  6 17  1  0  0  0  0
  7  5  1  0  0  0  0
  8  7  2  0  0  0  0
  9  1  1  0  0  0  0
 10  1  1  0  0  0  0
 13  3  1  0  0  0  0
 18  6  1  0  0  0  0
 19 27  1  0  0  0  0
 20 19  1  0  0  0  0
 20 21  1  0  0  0  0
 21 30  1  0  0  0  0
 22 21  1  0  0  0  0
 22 33  1  0  0  0  0
 22 23  1  0  0  0  0
 23 34  1  6  0  0  0
 23 24  1  0  0  0  0
 24 35  1  0  0  0  0
 24  7  1  0  0  0  0
 25 23  1  0  0  0  0
 25 26  2  0  0  0  0
 28 19  1  0  0  0  0
 29 19  1  0  0  0  0
 31 21  1  0  0  0  0
 32 22  1  0  0  0  0
 36 37  1  0  0  0  0
 36 46  1  0  0  0  0
 37 38  1  0  0  0  0
 38 50  1  6  0  0  0
 38 39  1  0  0  0  0
 39 52  1  0  0  0  0
 39 51  1  0  0  0  0
 39 53  1  0  0  0  0
 40 38  1  0  0  0  0
 40 54  1  1  0  0  0
 41 40  1  0  0  0  0
 41 25  1  0  0  0  0
 42 40  1  0  0  0  0
 43 42  2  0  0  0  0
 44 42  1  0  0  0  0
 45 36  1  0  0  0  0
 47 36  1  0  0  0  0
 48 37  1  0  0  0  0
 49 37  1  0  0  0  0
 55 41  1  0  0  0  0
M  END
$$$$
