MML.pdb
 OpenBabel07022418563D

 55 54  0  0  1  0  0  0  0  0999 V2000
    5.6830   -1.1590    5.4770 C   0  0  0  0  0  0  0  0  0  0  0  0
    4.6900    0.1220    6.3110 S   0  0  0  0  0  0  0  0  0  0  0  0
    2.9290   -0.0550    5.8810 C   0  0  0  0  0  0  0  0  0  0  0  0
    2.7890    0.2560    4.4230 C   0  0  0  0  0  0  0  0  0  0  0  0
    1.3370    0.1270    3.9550 C   0  0  2  0  0  0  0  0  0  0  0  0
    0.8610   -1.2260    4.1700 N   0  0  0  0  0  0  0  0  0  0  0  0
    1.2870    0.4360    2.4940 C   0  0  0  0  0  0  0  0  0  0  0  0
    1.5990    1.5480    2.0210 O   0  0  0  0  0  0  0  0  0  0  0  0
    5.0660   -2.0460    5.2030 H   0  0  0  0  0  0  0  0  0  0  0  0
    6.2220   -0.7880    4.6000 H   0  0  0  0  0  0  0  0  0  0  0  0
    6.4430   -1.4920    6.2180 H   0  0  0  0  0  0  0  0  0  0  0  0
    2.3370    0.5670    6.5480 H   0  0  0  0  0  0  0  0  0  0  0  0
    2.6680   -1.1180    6.0990 H   0  0  0  0  0  0  0  0  0  0  0  0
    3.3480   -0.5470    3.8650 H   0  0  0  0  0  0  0  0  0  0  0  0
    3.2420    1.2100    4.1290 H   0  0  0  0  0  0  0  0  0  0  0  0
    0.7550    0.8860    4.5140 H   0  0  0  0  0  0  0  0  0  0  0  0
    0.8110   -1.3820    5.2090 H   0  0  0  0  0  0  0  0  0  0  0  0
   -0.1400   -1.2420    3.8390 H   0  0  0  0  0  0  0  0  0  0  0  0
    2.6010   -4.1050   -2.3200 C   0  0  0  0  0  0  0  0  0  0  0  0
    3.1490   -2.4070   -2.6120 S   0  0  0  0  0  0  0  0  0  0  0  0
    1.9030   -1.2140   -1.9910 C   0  0  0  0  0  0  0  0  0  0  0  0
    1.7820   -1.2680   -0.5210 C   0  0  0  0  0  0  0  0  0  0  0  0
    0.8030   -0.2990    0.1100 C   0  0  2  0  0  0  0  0  0  0  0  0
    0.8690   -0.5610    1.5720 N   0  0  0  0  0  0  0  0  0  0  0  0
   -0.5780   -0.6520   -0.2740 C   0  0  0  0  0  0  0  0  0  0  0  0
   -1.3580   -1.2700    0.5410 O   0  0  0  0  0  0  0  0  0  0  0  0
    1.9300   -4.3680   -3.1860 H   0  0  0  0  0  0  0  0  0  0  0  0
    3.4310   -4.8140   -2.3340 H   0  0  0  0  0  0  0  0  0  0  0  0
    1.9940   -4.2080   -1.4130 H   0  0  0  0  0  0  0  0  0  0  0  0
    2.1850   -0.2320   -2.4040 H   0  0  0  0  0  0  0  0  0  0  0  0
    0.9400   -1.5050   -2.4910 H   0  0  0  0  0  0  0  0  0  0  0  0
    1.5130   -2.2890   -0.1390 H   0  0  0  0  0  0  0  0  0  0  0  0
    2.8150   -1.1020   -0.1040 H   0  0  0  0  0  0  0  0  0  0  0  0
    1.0750    0.7470   -0.0950 H   0  0  0  0  0  0  0  0  0  0  0  0
    0.6080   -1.4900    1.9570 H   0  0  0  0  0  0  0  0  0  0  0  0
   -5.4630    1.7210   -2.4670 C   0  0  0  0  0  0  0  0  0  0  0  0
   -4.7590    0.3910   -2.3240 C   0  0  0  0  0  0  0  0  0  0  0  0
   -5.5060   -0.4390   -1.3350 C   0  0  0  0  0  0  0  0  0  0  0  0
   -3.3030    0.5670   -1.9930 C   0  0  0  0  0  0  0  0  0  0  0  0
   -2.5710   -0.7490   -1.8360 C   0  0  2  0  0  0  0  0  0  0  0  0
   -1.1850   -0.3640   -1.5190 N   0  0  0  0  0  0  0  0  0  0  0  0
   -2.5630   -1.5610   -3.0490 C   0  0  0  0  0  0  0  0  0  0  0  0
   -1.4880   -1.8370   -3.6860 O   0  0  0  0  0  0  0  0  0  0  0  0
   -3.7110   -2.0980   -3.6090 O   0  0  0  0  0  0  0  0  0  0  0  0
   -4.7580    2.5750   -2.3620 H   0  0  0  0  0  0  0  0  0  0  0  0
   -6.0260    1.8230   -3.4160 H   0  0  0  0  0  0  0  0  0  0  0  0
   -6.2280    1.8450   -1.6580 H   0  0  0  0  0  0  0  0  0  0  0  0
   -4.8710   -0.1080   -3.3230 H   0  0  0  0  0  0  0  0  0  0  0  0
   -6.5820   -0.1590   -1.4010 H   0  0  0  0  0  0  0  0  0  0  0  0
   -5.2180   -0.2300   -0.2740 H   0  0  0  0  0  0  0  0  0  0  0  0
   -5.4620   -1.5280   -1.5610 H   0  0  0  0  0  0  0  0  0  0  0  0
   -2.8150    1.1240   -2.8110 H   0  0  0  0  0  0  0  0  0  0  0  0
   -3.2420    1.1810   -1.0730 H   0  0  0  0  0  0  0  0  0  0  0  0
   -2.9480   -1.3000   -0.9550 H   0  0  0  0  0  0  0  0  0  0  0  0
   -0.6140    0.1660   -2.2340 H   0  0  0  0  0  0  0  0  0  0  0  0
  1 11  1  0  0  0  0
  1  2  1  0  0  0  0
  3 13  1  0  0  0  0
  3  2  1  0  0  0  0
  3 12  1  0  0  0  0
  4  3  1  0  0  0  0
  5  6  1  0  0  0  0
  5  4  1  0  0  0  0
  5 16  1  1  0  0  0
  6 17  1  0  0  0  0
  7  5  1  0  0  0  0
  8  7  2  0  0  0  0
  9  1  1  0  0  0  0
 10  1  1  0  0  0  0
 14  4  1  0  0  0  0
 15  4  1  0  0  0  0
 18  6  1  0  0  0  0
 19 29  1  0  0  0  0
 20 19  1  0  0  0  0
 20 21  1  0  0  0  0
 21 22  1  0  0  0  0
 22 32  1  0  0  0  0
 22 33  1  0  0  0  0
 22 23  1  0  0  0  0
 23 34  1  6  0  0  0
 23 24  1  0  0  0  0
 24 35  1  0  0  0  0
 24  7  1  0  0  0  0
 25 23  1  0  0  0  0
 25 26  2  0  0  0  0
 27 19  1  0  0  0  0
 28 19  1  0  0  0  0
 30 21  1  0  0  0  0
 31 21  1  0  0  0  0
 36 45  1  0  0  0  0
 36 37  1  0  0  0  0
 36 47  1  0  0  0  0
 37 39  1  0  0  0  0
 37 38  1  0  0  0  0
 38 50  1  0  0  0  0
 39 40  1  0  0  0  0
 39 53  1  0  0  0  0
 40 41  1  0  0  0  0
 40 54  1  1  0  0  0
 41 25  1  0  0  0  0
 42 40  1  0  0  0  0
 43 42  2  0  0  0  0
 44 42  1  0  0  0  0
 46 36  1  0  0  0  0
 48 37  1  0  0  0  0
 49 38  1  0  0  0  0
 51 38  1  0  0  0  0
 52 39  1  0  0  0  0
 55 41  1  0  0  0  0
M  END
$$$$
