MMQ.pdb
 OpenBabel07022418563D

 53 52  0  0  1  0  0  0  0  0999 V2000
   -1.0070   -2.0030    4.8510 C   0  0  0  0  0  0  0  0  0  0  0  0
   -0.5890   -3.3400    3.7470 S   0  0  0  0  0  0  0  0  0  0  0  0
   -0.1070   -2.9250    2.1050 C   0  0  0  0  0  0  0  0  0  0  0  0
    1.2430   -2.3690    1.9330 C   0  0  0  0  0  0  0  0  0  0  0  0
    1.6390   -1.1130    2.6080 C   0  0  2  0  0  0  0  0  0  0  0  0
    1.5820   -1.1780    4.0340 N   0  0  0  0  0  0  0  0  0  0  0  0
    0.9220    0.0880    2.0580 C   0  0  0  0  0  0  0  0  0  0  0  0
    0.3110    0.8210    2.8650 O   0  0  0  0  0  0  0  0  0  0  0  0
   -2.0510   -2.2530    5.2770 H   0  0  0  0  0  0  0  0  0  0  0  0
   -0.3560   -1.9180    5.7370 H   0  0  0  0  0  0  0  0  0  0  0  0
   -1.0920   -1.0360    4.3090 H   0  0  0  0  0  0  0  0  0  0  0  0
   -0.1850   -3.8450    1.4330 H   0  0  0  0  0  0  0  0  0  0  0  0
   -0.8820   -2.2360    1.6030 H   0  0  0  0  0  0  0  0  0  0  0  0
    1.9920   -3.1560    2.2510 H   0  0  0  0  0  0  0  0  0  0  0  0
    1.5000   -2.2350    0.8230 H   0  0  0  0  0  0  0  0  0  0  0  0
    2.7380   -0.9590    2.3610 H   0  0  0  0  0  0  0  0  0  0  0  0
    1.6050   -0.2320    4.4760 H   0  0  0  0  0  0  0  0  0  0  0  0
    2.4350   -1.6790    4.3860 H   0  0  0  0  0  0  0  0  0  0  0  0
    2.0540    3.4890    2.3080 C   0  0  0  0  0  0  0  0  0  0  0  0
    2.5620    3.9340    0.6600 S   0  0  0  0  0  0  0  0  0  0  0  0
    2.5130    2.6160   -0.5310 C   0  0  0  0  0  0  0  0  0  0  0  0
    1.1890    2.1220   -0.9490 C   0  0  0  0  0  0  0  0  0  0  0  0
    0.2860    1.5210    0.0810 C   0  0  2  0  0  0  0  0  0  0  0  0
    0.9480    0.3700    0.6710 N   0  0  0  0  0  0  0  0  0  0  0  0
   -0.9090    1.0280   -0.7370 C   0  0  0  0  0  0  0  0  0  0  0  0
   -1.6540    1.8620   -1.3070 O   0  0  0  0  0  0  0  0  0  0  0  0
    2.4220    2.4930    2.6330 H   0  0  0  0  0  0  0  0  0  0  0  0
    0.9640    3.5860    2.4450 H   0  0  0  0  0  0  0  0  0  0  0  0
    2.5100    4.2120    3.0530 H   0  0  0  0  0  0  0  0  0  0  0  0
    3.1830    1.7550   -0.2410 H   0  0  0  0  0  0  0  0  0  0  0  0
    3.0170    3.0110   -1.4740 H   0  0  0  0  0  0  0  0  0  0  0  0
    0.6580    2.9290   -1.5280 H   0  0  0  0  0  0  0  0  0  0  0  0
    1.3700    1.3080   -1.7290 H   0  0  0  0  0  0  0  0  0  0  0  0
   -0.0530    2.2160    0.8380 H   0  0  0  0  0  0  0  0  0  0  0  0
    1.4780   -0.3060    0.0750 H   0  0  0  0  0  0  0  0  0  0  0  0
   -0.5460   -4.9190   -1.8410 N   0  0  0  0  0  0  0  0  0  0  0  0
   -1.4700   -3.8240   -2.0130 C   0  0  0  0  0  0  0  0  0  0  0  0
   -2.6050   -4.0000   -1.5480 O   0  0  0  0  0  0  0  0  0  0  0  0
   -0.9970   -2.6520   -2.6960 C   0  0  0  0  0  0  0  0  0  0  0  0
   -1.8550   -1.4750   -2.8680 C   0  0  0  0  0  0  0  0  0  0  0  0
   -2.3760   -0.7680   -1.6780 C   0  0  2  0  0  0  0  0  0  0  0  0
   -1.2180   -0.3350   -0.8840 N   0  0  0  0  0  0  0  0  0  0  0  0
   -3.4270   -1.4060   -0.8990 C   0  0  0  0  0  0  0  0  0  0  0  0
   -3.3310   -1.6540    0.3260 O   0  0  0  0  0  0  0  0  0  0  0  0
   -4.6070   -1.7620   -1.5340 O   0  0  0  0  0  0  0  0  0  0  0  0
    0.0820   -5.1470   -2.6340 H   0  0  0  0  0  0  0  0  0  0  0  0
   -0.5310   -5.4450   -0.9420 H   0  0  0  0  0  0  0  0  0  0  0  0
   -0.6230   -2.9390   -3.7370 H   0  0  0  0  0  0  0  0  0  0  0  0
   -0.0090   -2.3700   -2.1960 H   0  0  0  0  0  0  0  0  0  0  0  0
   -2.7050   -1.6910   -3.5890 H   0  0  0  0  0  0  0  0  0  0  0  0
   -1.2530   -0.7120   -3.4530 H   0  0  0  0  0  0  0  0  0  0  0  0
   -2.8780    0.1790   -2.0950 H   0  0  0  0  0  0  0  0  0  0  0  0
   -0.6120   -1.0430   -0.4250 H   0  0  0  0  0  0  0  0  0  0  0  0
  1  9  1  0  0  0  0
  1 10  1  0  0  0  0
  2  1  1  0  0  0  0
  3  2  1  0  0  0  0
  4  3  1  0  0  0  0
  4 14  1  0  0  0  0
  4  5  1  0  0  0  0
  5 16  1  6  0  0  0
  5  6  1  0  0  0  0
  6 18  1  0  0  0  0
  6 17  1  0  0  0  0
  7  5  1  0  0  0  0
  7  8  2  0  0  0  0
 11  1  1  0  0  0  0
 12  3  1  0  0  0  0
 13  3  1  0  0  0  0
 15  4  1  0  0  0  0
 19 28  1  0  0  0  0
 19 27  1  0  0  0  0
 19 29  1  0  0  0  0
 20 19  1  0  0  0  0
 21 30  1  0  0  0  0
 21 20  1  0  0  0  0
 22 21  1  0  0  0  0
 22 23  1  0  0  0  0
 23 24  1  0  0  0  0
 23 34  1  1  0  0  0
 24  7  1  0  0  0  0
 25 23  1  0  0  0  0
 26 25  2  0  0  0  0
 31 21  1  0  0  0  0
 32 22  1  0  0  0  0
 33 22  1  0  0  0  0
 35 24  1  0  0  0  0
 36 47  1  0  0  0  0
 37 36  1  0  0  0  0
 37 38  2  0  0  0  0
 39 49  1  0  0  0  0
 39 37  1  0  0  0  0
 40 39  1  0  0  0  0
 40 41  1  0  0  0  0
 41 52  1  6  0  0  0
 41 43  1  0  0  0  0
 41 42  1  0  0  0  0
 42 25  1  0  0  0  0
 42 53  1  0  0  0  0
 43 44  1  0  0  0  0
 45 43  2  0  0  0  0
 46 36  1  0  0  0  0
 48 39  1  0  0  0  0
 50 40  1  0  0  0  0
 51 40  1  0  0  0  0
M  END
$$$$
