MMT.pdb
 OpenBabel07022418563D

 50 49  0  0  1  0  0  0  0  0999 V2000
    2.0770   -5.5570    4.7960 C   0  0  0  0  0  0  0  0  0  0  0  0
    1.2490   -4.3870    5.9040 S   0  0  0  0  0  0  0  0  0  0  0  0
    0.1780   -3.2550    5.0210 C   0  0  0  0  0  0  0  0  0  0  0  0
    0.9590   -2.3210    4.1140 C   0  0  0  0  0  0  0  0  0  0  0  0
   -0.0030   -1.3860    3.3920 C   0  0  2  0  0  0  0  0  0  0  0  0
   -0.8960   -2.2210    2.6190 N   0  0  0  0  0  0  0  0  0  0  0  0
    0.7670   -0.4930    2.4900 C   0  0  0  0  0  0  0  0  0  0  0  0
    1.6080    0.3190    2.9610 O   0  0  0  0  0  0  0  0  0  0  0  0
    1.3990   -5.9400    4.0100 H   0  0  0  0  0  0  0  0  0  0  0  0
    2.4150   -6.4130    5.4150 H   0  0  0  0  0  0  0  0  0  0  0  0
    3.0050   -5.1150    4.3480 H   0  0  0  0  0  0  0  0  0  0  0  0
   -0.3380   -2.6210    5.7840 H   0  0  0  0  0  0  0  0  0  0  0  0
   -0.6070   -3.7500    4.4210 H   0  0  0  0  0  0  0  0  0  0  0  0
    1.6480   -1.6770    4.6970 H   0  0  0  0  0  0  0  0  0  0  0  0
    1.5560   -2.8990    3.3940 H   0  0  0  0  0  0  0  0  0  0  0  0
   -0.6170   -0.8280    4.1160 H   0  0  0  0  0  0  0  0  0  0  0  0
   -0.2950   -2.8030    1.9800 H   0  0  0  0  0  0  0  0  0  0  0  0
   -1.5360   -1.6660    2.0230 H   0  0  0  0  0  0  0  0  0  0  0  0
    2.7380   -1.4240   -3.8970 C   0  0  0  0  0  0  0  0  0  0  0  0
    3.9510   -0.6050   -2.8380 S   0  0  0  0  0  0  0  0  0  0  0  0
    3.0280    0.5210   -1.7040 C   0  0  0  0  0  0  0  0  0  0  0  0
    2.1910   -0.3300   -0.7890 C   0  0  0  0  0  0  0  0  0  0  0  0
    1.3900    0.4020    0.2270 C   0  0  2  0  0  0  0  0  0  0  0  0
    0.6160   -0.4890    1.0740 N   0  0  0  0  0  0  0  0  0  0  0  0
    0.4540    1.3560   -0.3930 C   0  0  0  0  0  0  0  0  0  0  0  0
    0.8270    2.3000   -1.1550 O   0  0  0  0  0  0  0  0  0  0  0  0
    3.1340   -1.5670   -4.9410 H   0  0  0  0  0  0  0  0  0  0  0  0
    1.7890   -0.8850   -3.9290 H   0  0  0  0  0  0  0  0  0  0  0  0
    2.5520   -2.4520   -3.5200 H   0  0  0  0  0  0  0  0  0  0  0  0
    2.3230    1.1200   -2.3370 H   0  0  0  0  0  0  0  0  0  0  0  0
    3.7780    1.1310   -1.2080 H   0  0  0  0  0  0  0  0  0  0  0  0
    2.7950   -1.1690   -0.3430 H   0  0  0  0  0  0  0  0  0  0  0  0
    1.4930   -0.8910   -1.4870 H   0  0  0  0  0  0  0  0  0  0  0  0
    2.0910    0.9740    0.8790 H   0  0  0  0  0  0  0  0  0  0  0  0
   -0.0720   -1.1560    0.6610 H   0  0  0  0  0  0  0  0  0  0  0  0
   -3.3230    0.0540   -1.1400 C   0  0  0  0  0  0  0  0  0  0  0  0
   -2.7730    1.3330   -1.6610 C   0  0  1  0  0  0  0  0  0  0  0  0
   -3.7750    2.1160   -2.2360 O   0  0  0  0  0  0  0  0  0  0  0  0
   -1.9370    2.1060   -0.6890 C   0  0  2  0  0  0  0  0  0  0  0  0
   -0.9320    1.2340   -0.1400 N   0  0  0  0  0  0  0  0  0  0  0  0
   -2.6960    2.8490    0.3050 C   0  0  0  0  0  0  0  0  0  0  0  0
   -2.4960    2.7380    1.5390 O   0  0  0  0  0  0  0  0  0  0  0  0
   -3.6940    3.7280   -0.0840 O   0  0  0  0  0  0  0  0  0  0  0  0
   -4.1080   -0.2930   -1.8640 H   0  0  0  0  0  0  0  0  0  0  0  0
   -3.6750    0.0750   -0.1080 H   0  0  0  0  0  0  0  0  0  0  0  0
   -2.5280   -0.7490   -1.1900 H   0  0  0  0  0  0  0  0  0  0  0  0
   -2.0890    1.0670   -2.5220 H   0  0  0  0  0  0  0  0  0  0  0  0
   -4.2400    1.5380   -2.8910 H   0  0  0  0  0  0  0  0  0  0  0  0
   -1.3720    2.8610   -1.3140 H   0  0  0  0  0  0  0  0  0  0  0  0
   -1.2500    0.4690    0.4800 H   0  0  0  0  0  0  0  0  0  0  0  0
  1 10  1  0  0  0  0
  1  2  1  0  0  0  0
  3 12  1  0  0  0  0
  3  2  1  0  0  0  0
  4 14  1  0  0  0  0
  4  3  1  0  0  0  0
  5  4  1  0  0  0  0
  5 16  1  1  0  0  0
  6  5  1  0  0  0  0
  7  8  2  0  0  0  0
  7  5  1  0  0  0  0
  9  1  1  0  0  0  0
 11  1  1  0  0  0  0
 13  3  1  0  0  0  0
 15  4  1  0  0  0  0
 17  6  1  0  0  0  0
 18  6  1  0  0  0  0
 19 29  1  0  0  0  0
 19 20  1  0  0  0  0
 20 21  1  0  0  0  0
 21 31  1  0  0  0  0
 21 22  1  0  0  0  0
 22 32  1  0  0  0  0
 22 23  1  0  0  0  0
 23 34  1  1  0  0  0
 23 24  1  0  0  0  0
 24  7  1  0  0  0  0
 25 40  1  0  0  0  0
 25 23  1  0  0  0  0
 26 25  2  0  0  0  0
 27 19  1  0  0  0  0
 28 19  1  0  0  0  0
 30 21  1  0  0  0  0
 33 22  1  0  0  0  0
 35 24  1  0  0  0  0
 36 45  1  0  0  0  0
 37 47  1  6  0  0  0
 37 36  1  0  0  0  0
 37 39  1  0  0  0  0
 38 37  1  0  0  0  0
 39 49  1  6  0  0  0
 39 40  1  0  0  0  0
 39 41  1  0  0  0  0
 40 50  1  0  0  0  0
 41 42  1  0  0  0  0
 43 41  2  0  0  0  0
 44 36  1  0  0  0  0
 46 36  1  0  0  0  0
 48 38  1  0  0  0  0
M  END
$$$$
