MMV.pdb
 OpenBabel07022418563D

 52 51  0  0  1  0  0  0  0  0999 V2000
    0.1840   -5.6340    1.5790 C   0  0  0  0  0  0  0  0  0  0  0  0
    1.3020   -5.4960    3.0210 S   0  0  0  0  0  0  0  0  0  0  0  0
    0.9940   -3.8950    3.8160 C   0  0  0  0  0  0  0  0  0  0  0  0
    1.4310   -2.8170    2.8470 C   0  0  0  0  0  0  0  0  0  0  0  0
    1.2010   -1.4260    3.4400 C   0  0  2  0  0  0  0  0  0  0  0  0
   -0.2090   -1.3290    3.6970 N   0  0  0  0  0  0  0  0  0  0  0  0
    1.6180   -0.4760    2.3420 C   0  0  0  0  0  0  0  0  0  0  0  0
    2.8160   -0.4050    2.0010 O   0  0  0  0  0  0  0  0  0  0  0  0
   -0.8610   -5.4120    1.9000 H   0  0  0  0  0  0  0  0  0  0  0  0
    0.2570   -6.6500    1.1760 H   0  0  0  0  0  0  0  0  0  0  0  0
    0.4530   -4.9290    0.7800 H   0  0  0  0  0  0  0  0  0  0  0  0
    1.6590   -3.8080    4.7140 H   0  0  0  0  0  0  0  0  0  0  0  0
   -0.0600   -3.7660    4.0850 H   0  0  0  0  0  0  0  0  0  0  0  0
    2.4790   -2.9060    2.5570 H   0  0  0  0  0  0  0  0  0  0  0  0
    0.7970   -2.8670    1.9410 H   0  0  0  0  0  0  0  0  0  0  0  0
    1.7470   -1.2610    4.3720 H   0  0  0  0  0  0  0  0  0  0  0  0
   -0.7630   -1.6370    2.8730 H   0  0  0  0  0  0  0  0  0  0  0  0
   -0.5210   -0.3910    4.0140 H   0  0  0  0  0  0  0  0  0  0  0  0
    5.2850    1.1000   -0.7760 C   0  0  0  0  0  0  0  0  0  0  0  0
    4.5330    2.6620   -0.2550 S   0  0  0  0  0  0  0  0  0  0  0  0
    3.0570    2.3160    0.7670 C   0  0  0  0  0  0  0  0  0  0  0  0
    1.9810    1.6650   -0.0440 C   0  0  0  0  0  0  0  0  0  0  0  0
    0.7570    1.2960    0.6880 C   0  0  2  0  0  0  0  0  0  0  0  0
    0.6960    0.3340    1.6870 N   0  0  0  0  0  0  0  0  0  0  0  0
   -0.4030    1.3290   -0.2210 C   0  0  0  0  0  0  0  0  0  0  0  0
   -0.3500    2.2400   -1.1230 O   0  0  0  0  0  0  0  0  0  0  0  0
    6.2750    1.2830   -1.2110 H   0  0  0  0  0  0  0  0  0  0  0  0
    4.6640    0.5850   -1.5440 H   0  0  0  0  0  0  0  0  0  0  0  0
    5.3730    0.4660    0.1270 H   0  0  0  0  0  0  0  0  0  0  0  0
    2.6530    3.3960    0.9590 H   0  0  0  0  0  0  0  0  0  0  0  0
    3.2770    1.9810    1.7530 H   0  0  0  0  0  0  0  0  0  0  0  0
    1.6530    2.4500   -0.7980 H   0  0  0  0  0  0  0  0  0  0  0  0
    2.3750    0.8690   -0.7210 H   0  0  0  0  0  0  0  0  0  0  0  0
    0.6240    2.3040    1.3280 H   0  0  0  0  0  0  0  0  0  0  0  0
   -0.3280    0.1820    2.0550 H   0  0  0  0  0  0  0  0  0  0  0  0
   -3.9980   -0.5260   -2.8330 C   0  0  0  0  0  0  0  0  0  0  0  0
   -2.8090   -0.7100   -1.9030 C   0  0  0  0  0  0  0  0  0  0  0  0
   -3.0810   -1.9130   -1.0450 C   0  0  0  0  0  0  0  0  0  0  0  0
   -2.6240    0.5540   -1.0920 C   0  0  2  0  0  0  0  0  0  0  0  0
   -1.5230    0.4780   -0.1850 N   0  0  0  0  0  0  0  0  0  0  0  0
   -3.8590    0.8660   -0.3450 C   0  0  0  0  0  0  0  0  0  0  0  0
   -3.7980    1.0180    0.8950 O   0  0  0  0  0  0  0  0  0  0  0  0
   -5.0860    0.9970   -0.9670 O   0  0  0  0  0  0  0  0  0  0  0  0
   -3.7970   -1.0080   -3.8320 H   0  0  0  0  0  0  0  0  0  0  0  0
   -4.9030   -1.0550   -2.4490 H   0  0  0  0  0  0  0  0  0  0  0  0
   -4.1880    0.5400   -3.0710 H   0  0  0  0  0  0  0  0  0  0  0  0
   -1.9230   -0.8720   -2.5490 H   0  0  0  0  0  0  0  0  0  0  0  0
   -2.6390   -2.7950   -1.5860 H   0  0  0  0  0  0  0  0  0  0  0  0
   -4.1790   -2.1190   -1.0310 H   0  0  0  0  0  0  0  0  0  0  0  0
   -2.6610   -1.8670   -0.0380 H   0  0  0  0  0  0  0  0  0  0  0  0
   -2.4700    1.3760   -1.8270 H   0  0  0  0  0  0  0  0  0  0  0  0
   -1.5590   -0.2610    0.5470 H   0  0  0  0  0  0  0  0  0  0  0  0
  1  9  1  0  0  0  0
  1  2  1  0  0  0  0
  2  3  1  0  0  0  0
  3 13  1  0  0  0  0
  3 12  1  0  0  0  0
  4  5  1  0  0  0  0
  4  3  1  0  0  0  0
  5  6  1  0  0  0  0
  5 16  1  1  0  0  0
  6 18  1  0  0  0  0
  7  5  1  0  0  0  0
  8  7  2  0  0  0  0
 10  1  1  0  0  0  0
 11  1  1  0  0  0  0
 14  4  1  0  0  0  0
 15  4  1  0  0  0  0
 17  6  1  0  0  0  0
 19 20  1  0  0  0  0
 19 29  1  0  0  0  0
 20 21  1  0  0  0  0
 21 30  1  0  0  0  0
 21 31  1  0  0  0  0
 22 23  1  0  0  0  0
 22 21  1  0  0  0  0
 23 34  1  1  0  0  0
 23 24  1  0  0  0  0
 24 35  1  0  0  0  0
 24  7  1  0  0  0  0
 25 40  1  0  0  0  0
 25 23  1  0  0  0  0
 26 25  2  0  0  0  0
 27 19  1  0  0  0  0
 28 19  1  0  0  0  0
 32 22  1  0  0  0  0
 33 22  1  0  0  0  0
 36 45  1  0  0  0  0
 36 37  1  0  0  0  0
 37 39  1  0  0  0  0
 37 38  1  0  0  0  0
 38 49  1  0  0  0  0
 38 50  1  0  0  0  0
 39 51  1  6  0  0  0
 39 41  1  0  0  0  0
 39 40  1  0  0  0  0
 40 52  1  0  0  0  0
 41 42  1  0  0  0  0
 43 41  2  0  0  0  0
 44 36  1  0  0  0  0
 46 36  1  0  0  0  0
 47 37  1  0  0  0  0
 48 38  1  0  0  0  0
M  END
$$$$
