MMW.pdb
 OpenBabel07022418563D

 60 61  0  0  1  0  0  0  0  0999 V2000
    1.0800    0.3680    6.5660 C   0  0  0  0  0  0  0  0  0  0  0  0
    1.6490   -0.9420    5.4810 S   0  0  0  0  0  0  0  0  0  0  0  0
    2.9780   -0.4170    4.3820 C   0  0  0  0  0  0  0  0  0  0  0  0
    2.5010    0.6220    3.3850 C   0  0  0  0  0  0  0  0  0  0  0  0
    1.3940    0.0020    2.5680 C   0  0  2  0  0  0  0  0  0  0  0  0
    1.8740   -1.1720    1.8600 N   0  0  0  0  0  0  0  0  0  0  0  0
    0.7830    0.9410    1.6030 C   0  0  0  0  0  0  0  0  0  0  0  0
    0.3210    2.0170    2.0620 O   0  0  0  0  0  0  0  0  0  0  0  0
    0.1150    0.7660    6.1960 H   0  0  0  0  0  0  0  0  0  0  0  0
    0.8910   -0.0680    7.5700 H   0  0  0  0  0  0  0  0  0  0  0  0
    1.8300    1.1890    6.6710 H   0  0  0  0  0  0  0  0  0  0  0  0
    3.8420   -0.0640    4.9740 H   0  0  0  0  0  0  0  0  0  0  0  0
    3.3170   -1.3210    3.8290 H   0  0  0  0  0  0  0  0  0  0  0  0
    3.3720    0.8490    2.7370 H   0  0  0  0  0  0  0  0  0  0  0  0
    2.1190    1.5070    3.9140 H   0  0  0  0  0  0  0  0  0  0  0  0
    0.6380   -0.3640    3.3080 H   0  0  0  0  0  0  0  0  0  0  0  0
    1.0250   -1.6210    1.4390 H   0  0  0  0  0  0  0  0  0  0  0  0
    2.5790   -0.9300    1.1350 H   0  0  0  0  0  0  0  0  0  0  0  0
    1.5640    5.1360   -1.3970 C   0  0  0  0  0  0  0  0  0  0  0  0
    0.0340    4.3220   -1.9810 S   0  0  0  0  0  0  0  0  0  0  0  0
    0.4870    2.7790   -2.8540 C   0  0  0  0  0  0  0  0  0  0  0  0
    1.0780    1.8360   -1.8550 C   0  0  0  0  0  0  0  0  0  0  0  0
    0.1280    1.5370   -0.7500 C   0  0  2  0  0  0  0  0  0  0  0  0
    0.7270    0.6300    0.2280 N   0  0  0  0  0  0  0  0  0  0  0  0
   -1.0770    0.8370   -1.2710 C   0  0  0  0  0  0  0  0  0  0  0  0
   -1.8660    1.3880   -2.0800 O   0  0  0  0  0  0  0  0  0  0  0  0
    2.4340    4.4580   -1.5830 H   0  0  0  0  0  0  0  0  0  0  0  0
    1.7370    6.0310   -2.0390 H   0  0  0  0  0  0  0  0  0  0  0  0
    1.4570    5.3700   -0.3350 H   0  0  0  0  0  0  0  0  0  0  0  0
   -0.4170    2.4170   -3.3640 H   0  0  0  0  0  0  0  0  0  0  0  0
    1.2620    3.1040   -3.6090 H   0  0  0  0  0  0  0  0  0  0  0  0
    2.0360    2.2790   -1.5140 H   0  0  0  0  0  0  0  0  0  0  0  0
    1.3110    0.8870   -2.4250 H   0  0  0  0  0  0  0  0  0  0  0  0
   -0.1920    2.4900   -0.2780 H   0  0  0  0  0  0  0  0  0  0  0  0
    1.1200   -0.2540   -0.1160 H   0  0  0  0  0  0  0  0  0  0  0  0
   -1.4070   -0.5130   -0.8780 N   0  0  0  0  0  0  0  0  0  0  0  0
   -2.5840   -1.2120   -1.3830 C   0  0  1  0  0  0  0  0  0  0  0  0
   -2.1680   -2.3680   -2.2610 C   0  0  0  0  0  0  0  0  0  0  0  0
   -1.3040   -3.3590   -1.6180 C   0  0  0  0  0  0  0  0  0  0  0  0
    0.0960   -3.3530   -1.7190 C   0  0  0  0  0  0  0  0  0  0  0  0
    0.5460   -4.3610   -0.9840 N   0  0  0  0  0  0  0  0  0  0  0  0
   -0.4670   -5.0310   -0.4080 C   0  0  0  0  0  0  0  0  0  0  0  0
   -0.4610   -6.1390    0.4230 C   0  0  0  0  0  0  0  0  0  0  0  0
   -1.6790   -6.6140    0.8530 C   0  0  0  0  0  0  0  0  0  0  0  0
   -2.8670   -6.0210    0.4800 C   0  0  0  0  0  0  0  0  0  0  0  0
   -2.8540   -4.9210   -0.3440 C   0  0  0  0  0  0  0  0  0  0  0  0
   -1.6330   -4.4060   -0.8030 C   0  0  0  0  0  0  0  0  0  0  0  0
   -3.5750   -1.5570   -0.3740 C   0  0  0  0  0  0  0  0  0  0  0  0
   -3.4420   -1.4480    0.8700 O   0  0  0  0  0  0  0  0  0  0  0  0
   -4.7960   -2.0530   -0.8250 O   0  0  0  0  0  0  0  0  0  0  0  0
   -0.7510   -0.9600   -0.2060 H   0  0  0  0  0  0  0  0  0  0  0  0
   -3.0890   -0.4420   -2.0530 H   0  0  0  0  0  0  0  0  0  0  0  0
   -1.6400   -1.9320   -3.1340 H   0  0  0  0  0  0  0  0  0  0  0  0
   -3.0950   -2.8300   -2.7020 H   0  0  0  0  0  0  0  0  0  0  0  0
    0.6820   -2.6460   -2.2950 H   0  0  0  0  0  0  0  0  0  0  0  0
    1.5650   -4.6420   -0.8400 H   0  0  0  0  0  0  0  0  0  0  0  0
    0.4830   -6.6170    0.7240 H   0  0  0  0  0  0  0  0  0  0  0  0
   -1.6720   -7.4870    1.5080 H   0  0  0  0  0  0  0  0  0  0  0  0
   -3.8200   -6.4210    0.8380 H   0  0  0  0  0  0  0  0  0  0  0  0
   -3.7620   -4.4400   -0.6680 H   0  0  0  0  0  0  0  0  0  0  0  0
  1 11  1  0  0  0  0
  1 10  1  0  0  0  0
  2  1  1  0  0  0  0
  3 12  1  0  0  0  0
  3  2  1  0  0  0  0
  4 15  1  0  0  0  0
  4  3  1  0  0  0  0
  5 16  1  1  0  0  0
  5  4  1  0  0  0  0
  6  5  1  0  0  0  0
  7  8  2  0  0  0  0
  7  5  1  0  0  0  0
  9  1  1  0  0  0  0
 13  3  1  0  0  0  0
 14  4  1  0  0  0  0
 17  6  1  0  0  0  0
 18  6  1  0  0  0  0
 19 29  1  0  0  0  0
 20 19  1  0  0  0  0
 21 20  1  0  0  0  0
 21 22  1  0  0  0  0
 22 32  1  0  0  0  0
 22 23  1  0  0  0  0
 23 34  1  1  0  0  0
 23 24  1  0  0  0  0
 24  7  1  0  0  0  0
 25 36  1  0  0  0  0
 25 23  1  0  0  0  0
 26 25  2  0  0  0  0
 27 19  1  0  0  0  0
 28 19  1  0  0  0  0
 30 21  1  0  0  0  0
 31 21  1  0  0  0  0
 33 22  1  0  0  0  0
 35 24  1  0  0  0  0
 36 51  1  0  0  0  0
 37 52  1  6  0  0  0
 37 36  1  0  0  0  0
 37 48  1  0  0  0  0
 38 39  1  0  0  0  0
 38 37  1  0  0  0  0
 39 47  1  0  0  0  0
 40 39  2  0  0  0  0
 40 41  1  0  0  0  0
 41 56  1  0  0  0  0
 41 42  1  0  0  0  0
 42 43  1  0  0  0  0
 43 57  1  0  0  0  0
 43 44  2  0  0  0  0
 44 58  1  0  0  0  0
 45 59  1  0  0  0  0
 45 44  1  0  0  0  0
 46 45  2  0  0  0  0
 47 42  2  0  0  0  0
 47 46  1  0  0  0  0
 48 49  1  0  0  0  0
 50 48  2  0  0  0  0
 53 38  1  0  0  0  0
 54 38  1  0  0  0  0
 55 40  1  0  0  0  0
 60 46  1  0  0  0  0
M  END
$$$$
