MNA.pdb
 OpenBabel07022418533D

 43 42  0  0  1  0  0  0  0  0999 V2000
    0.5490   -4.1150    4.0720 C   0  0  0  0  0  0  0  0  0  0  0  0
    1.9230   -3.6830    2.9460 S   0  0  0  0  0  0  0  0  0  0  0  0
    1.1960   -3.0240    1.4230 C   0  0  0  0  0  0  0  0  0  0  0  0
    2.2290   -2.6330    0.4180 C   0  0  0  0  0  0  0  0  0  0  0  0
    3.1560   -1.5660    0.9430 C   0  0  2  0  0  0  0  0  0  0  0  0
    3.8550   -2.0220    2.1280 N   0  0  0  0  0  0  0  0  0  0  0  0
    2.3470   -0.3550    1.2740 C   0  0  0  0  0  0  0  0  0  0  0  0
    2.3300    0.1130    2.4550 O   0  0  0  0  0  0  0  0  0  0  0  0
   -0.4200   -4.1220    3.5220 H   0  0  0  0  0  0  0  0  0  0  0  0
    0.5200   -3.3980    4.8920 H   0  0  0  0  0  0  0  0  0  0  0  0
    0.6820   -5.1370    4.4960 H   0  0  0  0  0  0  0  0  0  0  0  0
    0.6030   -2.1160    1.7200 H   0  0  0  0  0  0  0  0  0  0  0  0
    0.5130   -3.7540    0.9650 H   0  0  0  0  0  0  0  0  0  0  0  0
    2.7620   -3.5320    0.0730 H   0  0  0  0  0  0  0  0  0  0  0  0
    1.6690   -2.1540   -0.4370 H   0  0  0  0  0  0  0  0  0  0  0  0
    3.8760   -1.2560    0.1550 H   0  0  0  0  0  0  0  0  0  0  0  0
    3.4090   -1.5930    2.9890 H   0  0  0  0  0  0  0  0  0  0  0  0
    4.8560   -1.6710    2.1430 H   0  0  0  0  0  0  0  0  0  0  0  0
    0.8150    5.1390   -0.5040 N   0  0  0  0  0  0  0  0  0  0  0  0
    0.5880    3.9290    0.2270 C   0  0  0  0  0  0  0  0  0  0  0  0
   -0.2410    3.9800    1.1450 O   0  0  0  0  0  0  0  0  0  0  0  0
    1.3130    2.7110   -0.1150 C   0  0  0  0  0  0  0  0  0  0  0  0
    0.7730    1.5260    0.6480 C   0  0  2  0  0  0  0  0  0  0  0  0
    1.5700    0.3300    0.3220 N   0  0  0  0  0  0  0  0  0  0  0  0
   -0.6470    1.2560    0.3250 C   0  0  0  0  0  0  0  0  0  0  0  0
   -1.5950    2.0410    0.4550 O   0  0  0  0  0  0  0  0  0  0  0  0
    1.6860    5.2300   -1.0460 H   0  0  0  0  0  0  0  0  0  0  0  0
    0.1290    5.9330   -0.5100 H   0  0  0  0  0  0  0  0  0  0  0  0
    1.3280    2.5100   -1.2170 H   0  0  0  0  0  0  0  0  0  0  0  0
    2.3840    2.8670    0.1930 H   0  0  0  0  0  0  0  0  0  0  0  0
    0.9290    1.7130    1.7170 H   0  0  0  0  0  0  0  0  0  0  0  0
    1.5410   -0.0010   -0.6600 H   0  0  0  0  0  0  0  0  0  0  0  0
   -2.6090   -0.9140   -1.8650 C   0  0  0  0  0  0  0  0  0  0  0  0
   -2.3670   -0.3400   -0.5220 C   0  0  2  0  0  0  0  0  0  0  0  0
   -1.0150   -0.0420   -0.1980 N   0  0  0  0  0  0  0  0  0  0  0  0
   -2.8530   -1.3480    0.4880 C   0  0  0  0  0  0  0  0  0  0  0  0
   -2.1020   -1.7670    1.4030 O   0  0  0  0  0  0  0  0  0  0  0  0
   -4.1380   -1.8470    0.4460 O   0  0  0  0  0  0  0  0  0  0  0  0
   -3.6730   -1.2490   -1.9110 H   0  0  0  0  0  0  0  0  0  0  0  0
   -2.4860   -0.2010   -2.7040 H   0  0  0  0  0  0  0  0  0  0  0  0
   -2.0070   -1.8390   -1.9910 H   0  0  0  0  0  0  0  0  0  0  0  0
   -3.0180    0.5650   -0.3640 H   0  0  0  0  0  0  0  0  0  0  0  0
   -0.3030   -0.7930   -0.3510 H   0  0  0  0  0  0  0  0  0  0  0  0
  1 11  1  0  0  0  0
  1 10  1  0  0  0  0
  2  1  1  0  0  0  0
  3 12  1  0  0  0  0
  3  2  1  0  0  0  0
  4  5  1  0  0  0  0
  4  3  1  0  0  0  0
  5 16  1  6  0  0  0
  5  7  1  0  0  0  0
  5  6  1  0  0  0  0
  6 18  1  0  0  0  0
  6 17  1  0  0  0  0
  7  8  2  0  0  0  0
  9  1  1  0  0  0  0
 13  3  1  0  0  0  0
 14  4  1  0  0  0  0
 15  4  1  0  0  0  0
 19 20  1  0  0  0  0
 20 21  2  0  0  0  0
 22 30  1  0  0  0  0
 22 20  1  0  0  0  0
 22 23  1  0  0  0  0
 23 31  1  1  0  0  0
 24 23  1  0  0  0  0
 24  7  1  0  0  0  0
 25 26  2  0  0  0  0
 25 23  1  0  0  0  0
 27 19  1  0  0  0  0
 28 19  1  0  0  0  0
 29 22  1  0  0  0  0
 32 24  1  0  0  0  0
 33 34  1  0  0  0  0
 34 42  1  1  0  0  0
 34 35  1  0  0  0  0
 34 36  1  0  0  0  0
 35 25  1  0  0  0  0
 36 37  1  0  0  0  0
 38 36  2  0  0  0  0
 39 33  1  0  0  0  0
 40 33  1  0  0  0  0
 41 33  1  0  0  0  0
 43 35  1  0  0  0  0
M  END
$$$$
