MNE.pdb
 OpenBabel07022418533D

 49 48  0  0  1  0  0  0  0  0999 V2000
    4.0670   -2.8990   -1.9800 C   0  0  0  0  0  0  0  0  0  0  0  0
    4.0860   -1.2190   -1.3050 S   0  0  0  0  0  0  0  0  0  0  0  0
    2.4290   -0.5270   -1.2840 C   0  0  0  0  0  0  0  0  0  0  0  0
    2.4090    0.8840   -0.7290 C   0  0  0  0  0  0  0  0  0  0  0  0
    2.9410    0.9140    0.6910 C   0  0  2  0  0  0  0  0  0  0  0  0
    4.3260    0.4250    0.6680 N   0  0  0  0  0  0  0  0  0  0  0  0
    2.1700    0.0090    1.5680 C   0  0  0  0  0  0  0  0  0  0  0  0
    2.7480   -0.9890    2.0670 O   0  0  0  0  0  0  0  0  0  0  0  0
    4.8280   -3.0170   -2.7910 H   0  0  0  0  0  0  0  0  0  0  0  0
    4.3330   -3.6500   -1.1830 H   0  0  0  0  0  0  0  0  0  0  0  0
    3.1020   -3.2000   -2.3980 H   0  0  0  0  0  0  0  0  0  0  0  0
    1.7190   -1.1530   -0.6890 H   0  0  0  0  0  0  0  0  0  0  0  0
    2.0880   -0.4650   -2.3390 H   0  0  0  0  0  0  0  0  0  0  0  0
    1.3640    1.2280   -0.7240 H   0  0  0  0  0  0  0  0  0  0  0  0
    3.0230    1.5050   -1.3860 H   0  0  0  0  0  0  0  0  0  0  0  0
    2.9040    1.9330    1.0730 H   0  0  0  0  0  0  0  0  0  0  0  0
    4.8650    0.9510   -0.0340 H   0  0  0  0  0  0  0  0  0  0  0  0
    4.7330    0.4280    1.6200 H   0  0  0  0  0  0  0  0  0  0  0  0
   -0.6590   -2.3700    4.9090 N   0  0  0  0  0  0  0  0  0  0  0  0
   -0.8950   -0.9820    4.9910 C   0  0  0  0  0  0  0  0  0  0  0  0
   -1.6570   -0.4840    5.8660 O   0  0  0  0  0  0  0  0  0  0  0  0
   -0.2480   -0.0640    4.0500 C   0  0  0  0  0  0  0  0  0  0  0  0
    0.1380   -0.7330    2.7480 C   0  0  2  0  0  0  0  0  0  0  0  0
    0.8020    0.2240    1.8690 N   0  0  0  0  0  0  0  0  0  0  0  0
   -1.0410   -1.3220    2.0600 C   0  0  0  0  0  0  0  0  0  0  0  0
   -1.7760   -2.1830    2.5760 O   0  0  0  0  0  0  0  0  0  0  0  0
    0.2540   -2.7510    4.5850 H   0  0  0  0  0  0  0  0  0  0  0  0
   -1.4190   -3.0300    5.1790 H   0  0  0  0  0  0  0  0  0  0  0  0
    0.6550    0.3440    4.5580 H   0  0  0  0  0  0  0  0  0  0  0  0
   -0.8790    0.8270    3.8130 H   0  0  0  0  0  0  0  0  0  0  0  0
    0.8490   -1.5280    2.9810 H   0  0  0  0  0  0  0  0  0  0  0  0
    0.2940    1.0360    1.4740 H   0  0  0  0  0  0  0  0  0  0  0  0
   -1.4130   -0.9220    0.7240 N   0  0  0  0  0  0  0  0  0  0  0  0
   -2.5090   -1.4310    0.0100 C   0  0  1  0  0  0  0  0  0  0  0  0
   -3.6280   -0.5990   -0.4120 C   0  0  0  0  0  0  0  0  0  0  0  0
   -3.3840    0.5470   -1.3320 C   0  0  0  0  0  0  0  0  0  0  0  0
   -2.4680    1.5930   -0.8400 C   0  0  0  0  0  0  0  0  0  0  0  0
   -1.3260    1.8080   -1.3370 O   0  0  0  0  0  0  0  0  0  0  0  0
   -1.9780   -2.1630   -1.1890 C   0  0  0  0  0  0  0  0  0  0  0  0
   -0.7360   -2.2530   -1.4260 O   0  0  0  0  0  0  0  0  0  0  0  0
   -2.8500    2.4060    0.2270 O   0  0  0  0  0  0  0  0  0  0  0  0
   -2.8040   -2.7860   -2.1090 O   0  0  0  0  0  0  0  0  0  0  0  0
   -0.7960   -0.2140    0.2960 H   0  0  0  0  0  0  0  0  0  0  0  0
   -2.9610   -2.2790    0.6350 H   0  0  0  0  0  0  0  0  0  0  0  0
   -4.3130   -1.3020   -0.9960 H   0  0  0  0  0  0  0  0  0  0  0  0
   -4.3310   -0.2970    0.4200 H   0  0  0  0  0  0  0  0  0  0  0  0
   -2.9920    0.2030   -2.3300 H   0  0  0  0  0  0  0  0  0  0  0  0
   -4.3450    1.1060   -1.5640 H   0  0  0  0  0  0  0  0  0  0  0  0
   -2.1770    2.6220    0.9800 H   0  0  0  0  0  0  0  0  0  0  0  0
  1  2  1  0  0  0  0
  1 10  1  0  0  0  0
  2  3  1  0  0  0  0
  3  4  1  0  0  0  0
  3 12  1  0  0  0  0
  4 14  1  0  0  0  0
  4  5  1  0  0  0  0
  5 16  1  1  0  0  0
  5  7  1  0  0  0  0
  6  5  1  0  0  0  0
  6 18  1  0  0  0  0
  7 24  1  0  0  0  0
  7  8  2  0  0  0  0
  9  1  1  0  0  0  0
 11  1  1  0  0  0  0
 13  3  1  0  0  0  0
 15  4  1  0  0  0  0
 17  6  1  0  0  0  0
 19 20  1  0  0  0  0
 19 28  1  0  0  0  0
 20 21  2  0  0  0  0
 22 29  1  0  0  0  0
 22 20  1  0  0  0  0
 23 31  1  1  0  0  0
 23 22  1  0  0  0  0
 24 23  1  0  0  0  0
 25 26  2  0  0  0  0
 25 23  1  0  0  0  0
 27 19  1  0  0  0  0
 30 22  1  0  0  0  0
 32 24  1  0  0  0  0
 33 25  1  0  0  0  0
 34 44  1  1  0  0  0
 34 33  1  0  0  0  0
 35 34  1  0  0  0  0
 35 46  1  0  0  0  0
 36 37  1  0  0  0  0
 36 35  1  0  0  0  0
 37 41  1  0  0  0  0
 38 37  2  0  0  0  0
 39 34  1  0  0  0  0
 40 39  1  0  0  0  0
 41 49  1  0  0  0  0
 42 39  2  0  0  0  0
 43 33  1  0  0  0  0
 45 35  1  0  0  0  0
 47 36  1  0  0  0  0
 48 36  1  0  0  0  0
M  END
$$$$
