MNH.pdb
 OpenBabel07022418533D

 50 50  0  0  1  0  0  0  0  0999 V2000
    1.8430   -3.3820    4.8630 C   0  0  0  0  0  0  0  0  0  0  0  0
    2.2870   -4.2550    3.3830 S   0  0  0  0  0  0  0  0  0  0  0  0
    2.1150   -3.4220    1.8400 C   0  0  0  0  0  0  0  0  0  0  0  0
    3.0750   -2.3540    1.5120 C   0  0  0  0  0  0  0  0  0  0  0  0
    3.1980   -1.1710    2.3840 C   0  0  2  0  0  0  0  0  0  0  0  0
    3.6140   -1.4450    3.7210 N   0  0  0  0  0  0  0  0  0  0  0  0
    1.9620   -0.3230    2.3450 C   0  0  0  0  0  0  0  0  0  0  0  0
    1.4280    0.0810    3.4010 O   0  0  0  0  0  0  0  0  0  0  0  0
    2.7140   -3.2430    5.5470 H   0  0  0  0  0  0  0  0  0  0  0  0
    1.1020   -4.0080    5.4840 H   0  0  0  0  0  0  0  0  0  0  0  0
    1.3100   -2.4330    4.7440 H   0  0  0  0  0  0  0  0  0  0  0  0
    1.0520   -3.0840    1.6310 H   0  0  0  0  0  0  0  0  0  0  0  0
    2.2520   -4.2160    1.0260 H   0  0  0  0  0  0  0  0  0  0  0  0
    2.9080   -2.0040    0.4570 H   0  0  0  0  0  0  0  0  0  0  0  0
    4.1000   -2.8250    1.4590 H   0  0  0  0  0  0  0  0  0  0  0  0
    4.0270   -0.5340    1.9360 H   0  0  0  0  0  0  0  0  0  0  0  0
    4.4380   -2.0870    3.6680 H   0  0  0  0  0  0  0  0  0  0  0  0
    3.9610   -0.5620    4.1590 H   0  0  0  0  0  0  0  0  0  0  0  0
   -0.8870    3.9440    1.0830 N   0  0  0  0  0  0  0  0  0  0  0  0
   -0.5160    3.0490    0.0360 C   0  0  0  0  0  0  0  0  0  0  0  0
   -1.1300    3.1310   -1.0580 O   0  0  0  0  0  0  0  0  0  0  0  0
    0.5470    2.0730    0.2480 C   0  0  0  0  0  0  0  0  0  0  0  0
    0.1680    0.8600    1.0190 C   0  0  2  0  0  0  0  0  0  0  0  0
    1.3810    0.0300    1.1070 N   0  0  0  0  0  0  0  0  0  0  0  0
   -0.9190    0.0540    0.4230 C   0  0  0  0  0  0  0  0  0  0  0  0
   -0.6520   -1.1150    0.0300 O   0  0  0  0  0  0  0  0  0  0  0  0
   -1.7380    4.5310    1.0190 H   0  0  0  0  0  0  0  0  0  0  0  0
   -0.3000    4.0200    1.9380 H   0  0  0  0  0  0  0  0  0  0  0  0
    0.9510    1.7010   -0.7430 H   0  0  0  0  0  0  0  0  0  0  0  0
    1.4300    2.5370    0.7470 H   0  0  0  0  0  0  0  0  0  0  0  0
   -0.0990    1.1330    2.0770 H   0  0  0  0  0  0  0  0  0  0  0  0
    1.8150   -0.3010    0.2240 H   0  0  0  0  0  0  0  0  0  0  0  0
   -2.2550    0.5080    0.2620 N   0  0  0  0  0  0  0  0  0  0  0  0
   -3.3450   -0.2250   -0.2940 C   0  0  1  0  0  0  0  0  0  0  0  0
   -3.4710   -0.1960   -1.7780 C   0  0  0  0  0  0  0  0  0  0  0  0
   -2.3260   -0.7410   -2.5210 C   0  0  0  0  0  0  0  0  0  0  0  0
   -1.2460   -0.0140   -2.9560 C   0  0  0  0  0  0  0  0  0  0  0  0
   -0.4420   -0.8910   -3.5920 N   0  0  0  0  0  0  0  0  0  0  0  0
   -0.9990   -2.1140   -3.5550 C   0  0  0  0  0  0  0  0  0  0  0  0
   -2.1420   -2.0110   -2.9030 N   0  0  0  0  0  0  0  0  0  0  0  0
   -3.4990   -1.6040    0.2540 C   0  0  0  0  0  0  0  0  0  0  0  0
   -4.3830   -2.3320   -0.2220 O   0  0  0  0  0  0  0  0  0  0  0  0
   -2.6870   -2.0470    1.2530 O   0  0  0  0  0  0  0  0  0  0  0  0
   -2.4040    1.5030    0.6240 H   0  0  0  0  0  0  0  0  0  0  0  0
   -4.2880    0.2870    0.1180 H   0  0  0  0  0  0  0  0  0  0  0  0
   -4.3640   -0.8180   -2.0420 H   0  0  0  0  0  0  0  0  0  0  0  0
   -3.7080    0.8500   -2.0770 H   0  0  0  0  0  0  0  0  0  0  0  0
   -1.0510    1.0610   -2.8280 H   0  0  0  0  0  0  0  0  0  0  0  0
    0.4620   -0.6440   -4.0350 H   0  0  0  0  0  0  0  0  0  0  0  0
   -0.5590   -3.0250   -3.9980 H   0  0  0  0  0  0  0  0  0  0  0  0
  1 10  1  0  0  0  0
  1  9  1  0  0  0  0
  2  1  1  0  0  0  0
  3  2  1  0  0  0  0
  4  3  1  0  0  0  0
  4  5  1  0  0  0  0
  5 16  1  6  0  0  0
  5  6  1  0  0  0  0
  6 18  1  0  0  0  0
  7  5  1  0  0  0  0
  7  8  2  0  0  0  0
 11  1  1  0  0  0  0
 12  3  1  0  0  0  0
 13  3  1  0  0  0  0
 14  4  1  0  0  0  0
 15  4  1  0  0  0  0
 17  6  1  0  0  0  0
 19 28  1  0  0  0  0
 20 22  1  0  0  0  0
 20 19  1  0  0  0  0
 21 20  2  0  0  0  0
 22 30  1  0  0  0  0
 22 23  1  0  0  0  0
 23 24  1  0  0  0  0
 23 31  1  1  0  0  0
 24  7  1  0  0  0  0
 25 23  1  0  0  0  0
 26 25  2  0  0  0  0
 27 19  1  0  0  0  0
 29 22  1  0  0  0  0
 32 24  1  0  0  0  0
 33 25  1  0  0  0  0
 33 44  1  0  0  0  0
 34 45  1  1  0  0  0
 34 41  1  0  0  0  0
 34 33  1  0  0  0  0
 35 34  1  0  0  0  0
 36 35  1  0  0  0  0
 37 48  1  0  0  0  0
 37 36  2  0  0  0  0
 38 39  1  0  0  0  0
 38 37  1  0  0  0  0
 39 40  2  0  0  0  0
 40 36  1  0  0  0  0
 41 43  1  0  0  0  0
 42 41  2  0  0  0  0
 46 35  1  0  0  0  0
 47 35  1  0  0  0  0
 49 38  1  0  0  0  0
 50 39  1  0  0  0  0
M  END
$$$$
