MNI.pdb
 OpenBabel07022418533D

 52 51  0  0  1  0  0  0  0  0999 V2000
    5.1170   -2.8670    6.6860 C   0  0  0  0  0  0  0  0  0  0  0  0
    4.4260   -2.7140    5.0220 S   0  0  0  0  0  0  0  0  0  0  0  0
    2.8650   -3.6260    4.9150 C   0  0  0  0  0  0  0  0  0  0  0  0
    2.2320   -3.5420    3.5600 C   0  0  0  0  0  0  0  0  0  0  0  0
    1.9280   -2.0900    3.2210 C   0  0  2  0  0  0  0  0  0  0  0  0
    1.0220   -1.5580    4.2090 N   0  0  0  0  0  0  0  0  0  0  0  0
    1.3580   -2.0100    1.8490 C   0  0  0  0  0  0  0  0  0  0  0  0
    2.0380   -2.3780    0.8570 O   0  0  0  0  0  0  0  0  0  0  0  0
    4.4300   -3.4780    7.3090 H   0  0  0  0  0  0  0  0  0  0  0  0
    6.1340   -3.3230    6.6570 H   0  0  0  0  0  0  0  0  0  0  0  0
    5.2750   -1.8660    7.1790 H   0  0  0  0  0  0  0  0  0  0  0  0
    2.1930   -3.2590    5.7200 H   0  0  0  0  0  0  0  0  0  0  0  0
    3.0810   -4.6850    5.1820 H   0  0  0  0  0  0  0  0  0  0  0  0
    2.8400   -4.0140    2.7900 H   0  0  0  0  0  0  0  0  0  0  0  0
    1.2280   -4.0490    3.6570 H   0  0  0  0  0  0  0  0  0  0  0  0
    2.8600   -1.5340    3.2540 H   0  0  0  0  0  0  0  0  0  0  0  0
    0.1850   -2.1570    4.3570 H   0  0  0  0  0  0  0  0  0  0  0  0
    1.5060   -1.2840    5.0910 H   0  0  0  0  0  0  0  0  0  0  0  0
   -1.5120   -4.4770    1.7000 N   0  0  0  0  0  0  0  0  0  0  0  0
   -1.2900   -3.7890    0.4760 C   0  0  0  0  0  0  0  0  0  0  0  0
   -0.6860   -4.4740   -0.4210 O   0  0  0  0  0  0  0  0  0  0  0  0
   -1.7110   -2.3940    0.2280 C   0  0  0  0  0  0  0  0  0  0  0  0
   -0.5370   -1.4350    0.2770 C   0  0  2  0  0  0  0  0  0  0  0  0
    0.0490   -1.5270    1.5940 N   0  0  0  0  0  0  0  0  0  0  0  0
   -0.9610   -0.0560   -0.0410 C   0  0  0  0  0  0  0  0  0  0  0  0
   -0.7970    0.8520    0.8030 O   0  0  0  0  0  0  0  0  0  0  0  0
   -0.6650   -4.9160    2.1440 H   0  0  0  0  0  0  0  0  0  0  0  0
   -2.4230   -4.5670    2.1590 H   0  0  0  0  0  0  0  0  0  0  0  0
   -2.2610   -2.2740   -0.7320 H   0  0  0  0  0  0  0  0  0  0  0  0
   -2.4550   -2.1260    1.0250 H   0  0  0  0  0  0  0  0  0  0  0  0
    0.1850   -1.7580   -0.5160 H   0  0  0  0  0  0  0  0  0  0  0  0
   -0.5220   -1.2210    2.4060 H   0  0  0  0  0  0  0  0  0  0  0  0
   -0.8200    4.1900   -4.1950 C   0  0  0  0  0  0  0  0  0  0  0  0
   -1.6520    3.6010   -3.0550 C   0  0  0  0  0  0  0  0  0  0  0  0
   -1.2360    2.1810   -2.7700 C   0  0  2  0  0  0  0  0  0  0  0  0
   -1.4720    1.3690   -4.0220 C   0  0  0  0  0  0  0  0  0  0  0  0
   -1.9660    1.6640   -1.5680 C   0  0  2  0  0  0  0  0  0  0  0  0
   -1.5530    0.2780   -1.2810 N   0  0  0  0  0  0  0  0  0  0  0  0
   -3.4180    1.6610   -1.8340 C   0  0  0  0  0  0  0  0  0  0  0  0
   -3.9930    0.5090   -1.8530 O   0  0  0  0  0  0  0  0  0  0  0  0
   -4.2070    2.7670   -2.0580 O   0  0  0  0  0  0  0  0  0  0  0  0
   -1.0870    3.7510   -5.1710 H   0  0  0  0  0  0  0  0  0  0  0  0
    0.2750    4.1140   -3.9590 H   0  0  0  0  0  0  0  0  0  0  0  0
   -1.0350    5.2870   -4.1910 H   0  0  0  0  0  0  0  0  0  0  0  0
   -1.5540    4.2470   -2.1640 H   0  0  0  0  0  0  0  0  0  0  0  0
   -2.7020    3.6940   -3.4110 H   0  0  0  0  0  0  0  0  0  0  0  0
   -0.1230    2.1960   -2.5950 H   0  0  0  0  0  0  0  0  0  0  0  0
   -1.2650    0.3060   -3.8380 H   0  0  0  0  0  0  0  0  0  0  0  0
   -2.5440    1.4540   -4.3350 H   0  0  0  0  0  0  0  0  0  0  0  0
   -0.7800    1.7750   -4.7980 H   0  0  0  0  0  0  0  0  0  0  0  0
   -1.7620    2.3110   -0.7070 H   0  0  0  0  0  0  0  0  0  0  0  0
   -1.7020   -0.4570   -2.0050 H   0  0  0  0  0  0  0  0  0  0  0  0
  1 11  1  0  0  0  0
  1  9  1  0  0  0  0
  2  1  1  0  0  0  0
  3  2  1  0  0  0  0
  3 13  1  0  0  0  0
  3 12  1  0  0  0  0
  4 15  1  0  0  0  0
  4  3  1  0  0  0  0
  5 16  1  1  0  0  0
  5  4  1  0  0  0  0
  5  6  1  0  0  0  0
  6 17  1  0  0  0  0
  6 18  1  0  0  0  0
  7  5  1  0  0  0  0
  8  7  2  0  0  0  0
 10  1  1  0  0  0  0
 14  4  1  0  0  0  0
 19 27  1  0  0  0  0
 19 28  1  0  0  0  0
 20 19  1  0  0  0  0
 21 20  2  0  0  0  0
 22 23  1  0  0  0  0
 22 20  1  0  0  0  0
 22 30  1  0  0  0  0
 23 31  1  6  0  0  0
 23 24  1  0  0  0  0
 24  7  1  0  0  0  0
 24 32  1  0  0  0  0
 25 23  1  0  0  0  0
 25 26  2  0  0  0  0
 29 22  1  0  0  0  0
 33 44  1  0  0  0  0
 33 43  1  0  0  0  0
 33 34  1  0  0  0  0
 34 35  1  0  0  0  0
 34 45  1  0  0  0  0
 35 47  1  1  0  0  0
 35 37  1  0  0  0  0
 36 48  1  0  0  0  0
 36 35  1  0  0  0  0
 37 38  1  0  0  0  0
 37 51  1  1  0  0  0
 38 25  1  0  0  0  0
 39 37  1  0  0  0  0
 40 39  1  0  0  0  0
 41 39  2  0  0  0  0
 42 33  1  0  0  0  0
 46 34  1  0  0  0  0
 49 36  1  0  0  0  0
 50 36  1  0  0  0  0
 52 38  1  0  0  0  0
M  END
$$$$
