MNQ.pdb
 OpenBabel07022418533D

 50 49  0  0  1  0  0  0  0  0999 V2000
    2.3030   -5.0440    3.1570 C   0  0  0  0  0  0  0  0  0  0  0  0
    3.2440   -4.2030    1.8550 S   0  0  0  0  0  0  0  0  0  0  0  0
    2.1060   -3.4170    0.6850 C   0  0  0  0  0  0  0  0  0  0  0  0
    2.8490   -2.7110   -0.4210 C   0  0  0  0  0  0  0  0  0  0  0  0
    3.7600   -1.6250    0.1170 C   0  0  2  0  0  0  0  0  0  0  0  0
    4.6970   -2.2760    1.0020 N   0  0  0  0  0  0  0  0  0  0  0  0
    3.0180   -0.5850    0.8360 C   0  0  0  0  0  0  0  0  0  0  0  0
    3.2550   -0.3870    2.0530 O   0  0  0  0  0  0  0  0  0  0  0  0
    2.7070   -6.0710    3.3550 H   0  0  0  0  0  0  0  0  0  0  0  0
    2.3390   -4.3950    4.0490 H   0  0  0  0  0  0  0  0  0  0  0  0
    1.2480   -5.1550    2.7930 H   0  0  0  0  0  0  0  0  0  0  0  0
    1.3960   -2.7840    1.2360 H   0  0  0  0  0  0  0  0  0  0  0  0
    1.4950   -4.2370    0.2090 H   0  0  0  0  0  0  0  0  0  0  0  0
    3.4270   -3.4730   -0.9740 H   0  0  0  0  0  0  0  0  0  0  0  0
    2.1530   -2.2290   -1.1340 H   0  0  0  0  0  0  0  0  0  0  0  0
    4.3370   -1.1990   -0.7540 H   0  0  0  0  0  0  0  0  0  0  0  0
    4.5890   -1.8660    1.9520 H   0  0  0  0  0  0  0  0  0  0  0  0
    5.6680   -2.0580    0.6840 H   0  0  0  0  0  0  0  0  0  0  0  0
    1.0680    3.6510    2.7130 N   0  0  0  0  0  0  0  0  0  0  0  0
    0.7300    3.5320    1.3370 C   0  0  0  0  0  0  0  0  0  0  0  0
   -0.2590    4.1720    0.8890 O   0  0  0  0  0  0  0  0  0  0  0  0
    1.5610    2.6420    0.4630 C   0  0  0  0  0  0  0  0  0  0  0  0
    1.3040    1.2310    0.9340 C   0  0  2  0  0  0  0  0  0  0  0  0
    2.0140    0.2310    0.2020 N   0  0  0  0  0  0  0  0  0  0  0  0
   -0.1720    0.9990    0.9230 C   0  0  0  0  0  0  0  0  0  0  0  0
   -0.9710    1.7470    1.5410 O   0  0  0  0  0  0  0  0  0  0  0  0
    2.0080    3.3870    3.1090 H   0  0  0  0  0  0  0  0  0  0  0  0
    0.3780    4.0160    3.4350 H   0  0  0  0  0  0  0  0  0  0  0  0
    2.6010    2.9660    0.5480 H   0  0  0  0  0  0  0  0  0  0  0  0
    1.1500    2.7580   -0.5680 H   0  0  0  0  0  0  0  0  0  0  0  0
    1.6900    1.2150    2.0010 H   0  0  0  0  0  0  0  0  0  0  0  0
    1.8260    0.0570   -0.8230 H   0  0  0  0  0  0  0  0  0  0  0  0
   -6.3400    0.3640   -0.1390 N   0  0  0  0  0  0  0  0  0  0  0  0
   -4.9390    0.5200   -0.4720 C   0  0  0  0  0  0  0  0  0  0  0  0
   -4.3910    1.5620   -0.0920 O   0  0  0  0  0  0  0  0  0  0  0  0
   -4.2200   -0.5140   -1.2270 C   0  0  0  0  0  0  0  0  0  0  0  0
   -2.7480   -0.2780   -1.1770 C   0  0  0  0  0  0  0  0  0  0  0  0
   -2.2200   -0.3250    0.2050 C   0  0  2  0  0  0  0  0  0  0  0  0
   -0.7630   -0.0800    0.2140 N   0  0  0  0  0  0  0  0  0  0  0  0
   -2.4050   -1.6400    0.8210 C   0  0  0  0  0  0  0  0  0  0  0  0
   -1.4170   -2.3620    1.0830 O   0  0  0  0  0  0  0  0  0  0  0  0
   -3.6590   -2.1400    1.1450 O   0  0  0  0  0  0  0  0  0  0  0  0
   -6.6910   -0.4650    0.3720 H   0  0  0  0  0  0  0  0  0  0  0  0
   -7.0050    1.1010   -0.4160 H   0  0  0  0  0  0  0  0  0  0  0  0
   -4.5770   -0.5260   -2.3140 H   0  0  0  0  0  0  0  0  0  0  0  0
   -4.4480   -1.4990   -0.7740 H   0  0  0  0  0  0  0  0  0  0  0  0
   -2.1990   -0.9960   -1.8510 H   0  0  0  0  0  0  0  0  0  0  0  0
   -2.5740    0.7220   -1.6680 H   0  0  0  0  0  0  0  0  0  0  0  0
   -2.7360    0.4160    0.8330 H   0  0  0  0  0  0  0  0  0  0  0  0
   -0.1590   -0.7290   -0.3230 H   0  0  0  0  0  0  0  0  0  0  0  0
  1  9  1  0  0  0  0
  1 10  1  0  0  0  0
  2  1  1  0  0  0  0
  3 12  1  0  0  0  0
  3  2  1  0  0  0  0
  4  5  1  0  0  0  0
  4  3  1  0  0  0  0
  5 16  1  6  0  0  0
  5  7  1  0  0  0  0
  5  6  1  0  0  0  0
  6 17  1  0  0  0  0
  7  8  2  0  0  0  0
 11  1  1  0  0  0  0
 13  3  1  0  0  0  0
 14  4  1  0  0  0  0
 15  4  1  0  0  0  0
 18  6  1  0  0  0  0
 19 27  1  0  0  0  0
 19 28  1  0  0  0  0
 20 19  1  0  0  0  0
 21 20  2  0  0  0  0
 22 29  1  0  0  0  0
 22 23  1  0  0  0  0
 22 20  1  0  0  0  0
 23 31  1  1  0  0  0
 24  7  1  0  0  0  0
 24 23  1  0  0  0  0
 25 23  1  0  0  0  0
 25 26  2  0  0  0  0
 30 22  1  0  0  0  0
 32 24  1  0  0  0  0
 33 43  1  0  0  0  0
 34 33  1  0  0  0  0
 34 35  2  0  0  0  0
 36 37  1  0  0  0  0
 36 46  1  0  0  0  0
 36 34  1  0  0  0  0
 37 38  1  0  0  0  0
 38 39  1  0  0  0  0
 38 40  1  0  0  0  0
 38 49  1  1  0  0  0
 39 25  1  0  0  0  0
 40 41  2  0  0  0  0
 40 42  1  0  0  0  0
 44 33  1  0  0  0  0
 45 36  1  0  0  0  0
 47 37  1  0  0  0  0
 48 37  1  0  0  0  0
 50 39  1  0  0  0  0
M  END
$$$$
