MNR.pdb
 OpenBabel07022418533D

 56 55  0  0  1  0  0  0  0  0999 V2000
    2.4880    1.0300    6.5610 C   0  0  0  0  0  0  0  0  0  0  0  0
    4.1410    0.4250    6.2500 S   0  0  0  0  0  0  0  0  0  0  0  0
    4.9450    1.0440    4.7860 C   0  0  0  0  0  0  0  0  0  0  0  0
    4.4890    0.5680    3.4720 C   0  0  0  0  0  0  0  0  0  0  0  0
    3.0950    0.7490    3.0470 C   0  0  2  0  0  0  0  0  0  0  0  0
    2.0970    0.1180    3.8250 N   0  0  0  0  0  0  0  0  0  0  0  0
    2.9700    0.2550    1.6300 C   0  0  0  0  0  0  0  0  0  0  0  0
    3.6350    0.7530    0.6920 O   0  0  0  0  0  0  0  0  0  0  0  0
    2.1580    1.8630    5.9140 H   0  0  0  0  0  0  0  0  0  0  0  0
    2.4040    1.4490    7.6070 H   0  0  0  0  0  0  0  0  0  0  0  0
    1.7100    0.2320    6.4990 H   0  0  0  0  0  0  0  0  0  0  0  0
    4.9920    2.1630    4.8670 H   0  0  0  0  0  0  0  0  0  0  0  0
    6.0500    0.7600    4.9000 H   0  0  0  0  0  0  0  0  0  0  0  0
    4.8180   -0.5180    3.3360 H   0  0  0  0  0  0  0  0  0  0  0  0
    5.1370    1.0840    2.6870 H   0  0  0  0  0  0  0  0  0  0  0  0
    2.8040    1.8440    2.9800 H   0  0  0  0  0  0  0  0  0  0  0  0
    2.2120   -0.8720    4.0490 H   0  0  0  0  0  0  0  0  0  0  0  0
    1.1520    0.5000    3.7530 H   0  0  0  0  0  0  0  0  0  0  0  0
    2.9980   -2.7390   -2.4940 N   0  0  0  0  0  0  0  0  0  0  0  0
    2.2370   -3.2830   -1.4290 C   0  0  0  0  0  0  0  0  0  0  0  0
    1.4440   -4.2130   -1.7110 O   0  0  0  0  0  0  0  0  0  0  0  0
    2.4240   -2.7290   -0.0800 C   0  0  0  0  0  0  0  0  0  0  0  0
    1.8850   -1.3360   -0.0080 C   0  0  2  0  0  0  0  0  0  0  0  0
    2.0870   -0.7890    1.3420 N   0  0  0  0  0  0  0  0  0  0  0  0
    0.4430   -1.3170   -0.2460 C   0  0  0  0  0  0  0  0  0  0  0  0
   -0.3340   -1.0100    0.7200 O   0  0  0  0  0  0  0  0  0  0  0  0
    3.9350   -2.3460   -2.3250 H   0  0  0  0  0  0  0  0  0  0  0  0
    2.6180   -2.7300   -3.4600 H   0  0  0  0  0  0  0  0  0  0  0  0
    3.5400   -2.7500    0.0980 H   0  0  0  0  0  0  0  0  0  0  0  0
    1.9700   -3.4110    0.6750 H   0  0  0  0  0  0  0  0  0  0  0  0
    2.4000   -0.7420   -0.7780 H   0  0  0  0  0  0  0  0  0  0  0  0
    1.5220   -1.2340    2.0950 H   0  0  0  0  0  0  0  0  0  0  0  0
   -7.6520   -0.3770   -2.6200 N   0  0  0  0  0  0  0  0  0  0  0  0
   -6.5280   -0.6940   -1.8050 C   0  0  0  0  0  0  0  0  0  0  0  0
   -6.3520   -1.9140   -1.4610 N   0  0  0  0  0  0  0  0  0  0  0  0
   -5.6270    0.3360   -1.3900 N   0  0  0  0  0  0  0  0  0  0  0  0
   -4.2300    0.1040   -1.2630 C   0  0  0  0  0  0  0  0  0  0  0  0
   -3.5180   -0.1240   -2.5810 C   0  0  0  0  0  0  0  0  0  0  0  0
   -2.0580   -0.3370   -2.4110 C   0  0  0  0  0  0  0  0  0  0  0  0
   -1.6770   -1.5350   -1.5590 C   0  0  2  0  0  0  0  0  0  0  0  0
   -0.2090   -1.6040   -1.4690 N   0  0  0  0  0  0  0  0  0  0  0  0
   -2.2550   -2.7820   -2.0730 C   0  0  0  0  0  0  0  0  0  0  0  0
   -3.4950   -2.8990   -2.1810 O   0  0  0  0  0  0  0  0  0  0  0  0
   -1.4830   -3.8520   -2.4530 O   0  0  0  0  0  0  0  0  0  0  0  0
   -8.5340   -0.1150   -2.1590 H   0  0  0  0  0  0  0  0  0  0  0  0
   -7.5370   -0.4230   -3.6520 H   0  0  0  0  0  0  0  0  0  0  0  0
   -7.0230   -2.6350   -1.7790 H   0  0  0  0  0  0  0  0  0  0  0  0
   -6.0280    1.2690   -1.1830 H   0  0  0  0  0  0  0  0  0  0  0  0
   -4.0790   -0.7560   -0.5670 H   0  0  0  0  0  0  0  0  0  0  0  0
   -3.7330    0.9620   -0.7670 H   0  0  0  0  0  0  0  0  0  0  0  0
   -3.9500   -0.9010   -3.2070 H   0  0  0  0  0  0  0  0  0  0  0  0
   -3.6720    0.8350   -3.1570 H   0  0  0  0  0  0  0  0  0  0  0  0
   -1.5820   -0.4630   -3.4110 H   0  0  0  0  0  0  0  0  0  0  0  0
   -1.5560    0.5710   -1.9860 H   0  0  0  0  0  0  0  0  0  0  0  0
   -2.1090   -1.3340   -0.5560 H   0  0  0  0  0  0  0  0  0  0  0  0
    0.3080   -1.8520   -2.3080 H   0  0  0  0  0  0  0  0  0  0  0  0
  1 10  1  0  0  0  0
  2  1  1  0  0  0  0
  3 12  1  0  0  0  0
  3 13  1  0  0  0  0
  3  2  1  0  0  0  0
  4  3  1  0  0  0  0
  5 16  1  6  0  0  0
  5  4  1  0  0  0  0
  5  6  1  0  0  0  0
  6 17  1  0  0  0  0
  7  5  1  0  0  0  0
  8  7  2  0  0  0  0
  9  1  1  0  0  0  0
 11  1  1  0  0  0  0
 14  4  1  0  0  0  0
 15  4  1  0  0  0  0
 18  6  1  0  0  0  0
 19 27  1  0  0  0  0
 19 20  1  0  0  0  0
 20 22  1  0  0  0  0
 21 20  2  0  0  0  0
 22 23  1  0  0  0  0
 22 29  1  0  0  0  0
 22 30  1  0  0  0  0
 23 31  1  6  0  0  0
 23 24  1  0  0  0  0
 24  7  1  0  0  0  0
 24 32  1  0  0  0  0
 25 23  1  0  0  0  0
 25 26  2  0  0  0  0
 28 19  1  0  0  0  0
 33 45  1  0  0  0  0
 33 34  1  0  0  0  0
 34 35  2  0  0  0  0
 34 36  1  0  0  0  0
 36 37  1  0  0  0  0
 36 48  1  0  0  0  0
 37 50  1  0  0  0  0
 37 49  1  0  0  0  0
 38 39  1  0  0  0  0
 38 37  1  0  0  0  0
 39 54  1  0  0  0  0
 39 40  1  0  0  0  0
 40 41  1  0  0  0  0
 40 55  1  1  0  0  0
 41 25  1  0  0  0  0
 42 40  1  0  0  0  0
 43 42  1  0  0  0  0
 44 42  2  0  0  0  0
 46 33  1  0  0  0  0
 47 35  1  0  0  0  0
 51 38  1  0  0  0  0
 52 38  1  0  0  0  0
 53 39  1  0  0  0  0
 56 41  1  0  0  0  0
M  END
$$$$
