MNT.pdb
 OpenBabel07022418543D

 47 46  0  0  1  0  0  0  0  0999 V2000
    1.5490   -6.5240   -0.2870 C   0  0  0  0  0  0  0  0  0  0  0  0
    2.9250   -6.2840    0.7890 S   0  0  0  0  0  0  0  0  0  0  0  0
    2.7130   -5.5410    2.3530 C   0  0  0  0  0  0  0  0  0  0  0  0
    2.5270   -4.0700    2.4280 C   0  0  0  0  0  0  0  0  0  0  0  0
    1.3710   -3.5650    1.6840 C   0  0  2  0  0  0  0  0  0  0  0  0
    1.4880   -3.8120    0.2910 N   0  0  0  0  0  0  0  0  0  0  0  0
    1.0370   -2.1350    1.9880 C   0  0  0  0  0  0  0  0  0  0  0  0
    0.9050   -1.8030    3.1900 O   0  0  0  0  0  0  0  0  0  0  0  0
    0.5490   -6.3020    0.0800 H   0  0  0  0  0  0  0  0  0  0  0  0
    1.6820   -5.9910   -1.2670 H   0  0  0  0  0  0  0  0  0  0  0  0
    1.4530   -7.6370   -0.5970 H   0  0  0  0  0  0  0  0  0  0  0  0
    3.5090   -5.8850    3.0970 H   0  0  0  0  0  0  0  0  0  0  0  0
    1.7340   -5.9700    2.7990 H   0  0  0  0  0  0  0  0  0  0  0  0
    2.5680   -3.6990    3.4950 H   0  0  0  0  0  0  0  0  0  0  0  0
    3.4610   -3.5690    1.9790 H   0  0  0  0  0  0  0  0  0  0  0  0
    0.4340   -4.1160    2.0240 H   0  0  0  0  0  0  0  0  0  0  0  0
    2.3670   -3.5270   -0.1540 H   0  0  0  0  0  0  0  0  0  0  0  0
    0.6320   -3.6440   -0.2610 H   0  0  0  0  0  0  0  0  0  0  0  0
    2.8380    1.9900   -1.2490 N   0  0  0  0  0  0  0  0  0  0  0  0
    1.8650    1.1490   -0.6600 C   0  0  0  0  0  0  0  0  0  0  0  0
    1.2350    0.3600   -1.3960 O   0  0  0  0  0  0  0  0  0  0  0  0
    1.6080    1.2040    0.7720 C   0  0  0  0  0  0  0  0  0  0  0  0
    0.5460    0.2310    1.2520 C   0  0  2  0  0  0  0  0  0  0  0  0
    0.8640   -1.1390    0.9980 N   0  0  0  0  0  0  0  0  0  0  0  0
   -0.7650    0.5350    0.6380 C   0  0  0  0  0  0  0  0  0  0  0  0
   -1.3730   -0.3750    0.0310 O   0  0  0  0  0  0  0  0  0  0  0  0
    2.6150    3.0000   -1.3890 H   0  0  0  0  0  0  0  0  0  0  0  0
    3.7660    1.6560   -1.5510 H   0  0  0  0  0  0  0  0  0  0  0  0
    2.5270    1.1360    1.3900 H   0  0  0  0  0  0  0  0  0  0  0  0
    1.1960    2.2310    0.9950 H   0  0  0  0  0  0  0  0  0  0  0  0
    0.4300    0.4560    2.3400 H   0  0  0  0  0  0  0  0  0  0  0  0
    0.9860   -1.4710    0.0130 H   0  0  0  0  0  0  0  0  0  0  0  0
   -3.2580    3.8020    1.7430 C   0  0  0  0  0  0  0  0  0  0  0  0
   -3.6780    2.5180    1.0720 C   0  0  1  0  0  0  0  0  0  0  0  0
   -4.9270    2.7430    0.5020 O   0  0  0  0  0  0  0  0  0  0  0  0
   -2.6830    2.0400    0.0620 C   0  0  2  0  0  0  0  0  0  0  0  0
   -1.3900    1.8150    0.6910 N   0  0  0  0  0  0  0  0  0  0  0  0
   -2.5820    3.0650   -1.0130 C   0  0  0  0  0  0  0  0  0  0  0  0
   -1.4770    3.6120   -1.2720 O   0  0  0  0  0  0  0  0  0  0  0  0
   -3.6790    3.4490   -1.7560 O   0  0  0  0  0  0  0  0  0  0  0  0
   -2.4500    3.6270    2.4990 H   0  0  0  0  0  0  0  0  0  0  0  0
   -4.1390    4.1440    2.3480 H   0  0  0  0  0  0  0  0  0  0  0  0
   -3.0290    4.6080    1.0390 H   0  0  0  0  0  0  0  0  0  0  0  0
   -3.8360    1.7750    1.8900 H   0  0  0  0  0  0  0  0  0  0  0  0
   -5.6260    2.6640    1.2000 H   0  0  0  0  0  0  0  0  0  0  0  0
   -3.0710    1.1210   -0.4150 H   0  0  0  0  0  0  0  0  0  0  0  0
   -0.8770    2.5550    1.1950 H   0  0  0  0  0  0  0  0  0  0  0  0
  1  9  1  0  0  0  0
  1  2  1  0  0  0  0
  2  3  1  0  0  0  0
  3  4  1  0  0  0  0
  3 13  1  0  0  0  0
  3 12  1  0  0  0  0
  4 14  1  0  0  0  0
  5  7  1  0  0  0  0
  5 16  1  1  0  0  0
  5  4  1  0  0  0  0
  6  5  1  0  0  0  0
  7  8  2  0  0  0  0
 10  1  1  0  0  0  0
 11  1  1  0  0  0  0
 15  4  1  0  0  0  0
 17  6  1  0  0  0  0
 18  6  1  0  0  0  0
 19 20  1  0  0  0  0
 20 22  1  0  0  0  0
 21 20  2  0  0  0  0
 22 30  1  0  0  0  0
 22 23  1  0  0  0  0
 22 29  1  0  0  0  0
 23 31  1  1  0  0  0
 24 23  1  0  0  0  0
 24  7  1  0  0  0  0
 25 37  1  0  0  0  0
 25 23  1  0  0  0  0
 26 25  2  0  0  0  0
 27 19  1  0  0  0  0
 28 19  1  0  0  0  0
 32 24  1  0  0  0  0
 33 42  1  0  0  0  0
 33 41  1  0  0  0  0
 34 33  1  0  0  0  0
 34 44  1  1  0  0  0
 35 34  1  0  0  0  0
 35 45  1  0  0  0  0
 36 46  1  6  0  0  0
 36 37  1  0  0  0  0
 36 34  1  0  0  0  0
 37 47  1  0  0  0  0
 38 36  1  0  0  0  0
 39 38  1  0  0  0  0
 40 38  2  0  0  0  0
 43 33  1  0  0  0  0
M  END
$$$$
