MPF.pdb
 OpenBabel07022418563D

 53 54  0  0  1  0  0  0  0  0999 V2000
    2.6770   -3.7050    3.9400 C   0  0  0  0  0  0  0  0  0  0  0  0
    3.2320   -3.9750    2.2720 S   0  0  0  0  0  0  0  0  0  0  0  0
    2.6150   -2.9290    1.0090 C   0  0  0  0  0  0  0  0  0  0  0  0
    3.0830   -1.5340    0.8620 C   0  0  0  0  0  0  0  0  0  0  0  0
    2.8390   -0.5730    1.9590 C   0  0  2  0  0  0  0  0  0  0  0  0
    3.5170   -1.1150    3.1390 N   0  0  0  0  0  0  0  0  0  0  0  0
    1.4450   -0.2060    2.1950 C   0  0  0  0  0  0  0  0  0  0  0  0
    0.7510   -0.7710    3.0620 O   0  0  0  0  0  0  0  0  0  0  0  0
    3.4470   -3.3170    4.6470 H   0  0  0  0  0  0  0  0  0  0  0  0
    2.2620   -4.6820    4.3810 H   0  0  0  0  0  0  0  0  0  0  0  0
    1.8030   -3.0370    3.9980 H   0  0  0  0  0  0  0  0  0  0  0  0
    2.6240   -3.4260   -0.0180 H   0  0  0  0  0  0  0  0  0  0  0  0
    1.4850   -2.8400    1.1790 H   0  0  0  0  0  0  0  0  0  0  0  0
    4.1950   -1.5580    0.6540 H   0  0  0  0  0  0  0  0  0  0  0  0
    2.5870   -1.1430   -0.0740 H   0  0  0  0  0  0  0  0  0  0  0  0
    3.4530    0.3610    1.7110 H   0  0  0  0  0  0  0  0  0  0  0  0
    4.3920   -1.6090    2.8310 H   0  0  0  0  0  0  0  0  0  0  0  0
    3.8270   -0.3520    3.7800 H   0  0  0  0  0  0  0  0  0  0  0  0
    0.7980    0.8380    1.4320 N   0  0  0  0  0  0  0  0  0  0  0  0
    1.4810    1.6090    0.4460 C   0  0  0  0  0  0  0  0  0  0  0  0
    0.3800    2.3970   -0.2570 C   0  0  0  0  0  0  0  0  0  0  0  0
   -0.6780    2.5500    0.8490 C   0  0  0  0  0  0  0  0  0  0  0  0
   -0.5570    1.2540    1.5310 C   0  0  1  0  0  0  0  0  0  0  0  0
   -1.5490    0.2400    1.1400 C   0  0  0  0  0  0  0  0  0  0  0  0
   -2.7720    0.5920    1.2530 O   0  0  0  0  0  0  0  0  0  0  0  0
    2.1070    2.3570    1.0460 H   0  0  0  0  0  0  0  0  0  0  0  0
    2.1130    1.0780   -0.2620 H   0  0  0  0  0  0  0  0  0  0  0  0
    0.0350    1.7900   -1.0920 H   0  0  0  0  0  0  0  0  0  0  0  0
    0.7830    3.3910   -0.5310 H   0  0  0  0  0  0  0  0  0  0  0  0
   -1.6410    2.6960    0.3380 H   0  0  0  0  0  0  0  0  0  0  0  0
   -0.4050    3.4120    1.5070 H   0  0  0  0  0  0  0  0  0  0  0  0
   -0.7460    1.4470    2.6360 H   0  0  0  0  0  0  0  0  0  0  0  0
   -1.2980   -1.0520    0.6630 N   0  0  0  0  0  0  0  0  0  0  0  0
   -2.3370   -1.9770    0.3130 C   0  0  1  0  0  0  0  0  0  0  0  0
   -2.3740   -2.3430   -1.1520 C   0  0  0  0  0  0  0  0  0  0  0  0
   -2.6000   -1.1090   -1.9330 C   0  0  0  0  0  0  0  0  0  0  0  0
   -1.5430   -0.3750   -2.3720 C   0  0  0  0  0  0  0  0  0  0  0  0
   -1.7770    0.7870   -3.1070 C   0  0  0  0  0  0  0  0  0  0  0  0
   -3.0620    1.1990   -3.3940 C   0  0  0  0  0  0  0  0  0  0  0  0
   -4.1360    0.4570   -2.9500 C   0  0  0  0  0  0  0  0  0  0  0  0
   -3.8680   -0.6840   -2.2270 C   0  0  0  0  0  0  0  0  0  0  0  0
   -2.2920   -3.2260    1.0990 C   0  0  0  0  0  0  0  0  0  0  0  0
   -3.1600   -4.1270    0.8760 O   0  0  0  0  0  0  0  0  0  0  0  0
   -1.3600   -3.4920    2.0770 O   0  0  0  0  0  0  0  0  0  0  0  0
   -0.2780   -1.3370    0.5660 H   0  0  0  0  0  0  0  0  0  0  0  0
   -3.3130   -1.4810    0.5310 H   0  0  0  0  0  0  0  0  0  0  0  0
   -3.2490   -3.0470   -1.2610 H   0  0  0  0  0  0  0  0  0  0  0  0
   -1.4370   -2.8470   -1.4920 H   0  0  0  0  0  0  0  0  0  0  0  0
   -0.5470   -0.7070   -2.1430 H   0  0  0  0  0  0  0  0  0  0  0  0
   -0.9370    1.3840   -3.4640 H   0  0  0  0  0  0  0  0  0  0  0  0
   -3.2210    2.1040   -3.9660 H   0  0  0  0  0  0  0  0  0  0  0  0
   -5.1250    0.8140   -3.1940 H   0  0  0  0  0  0  0  0  0  0  0  0
   -4.7140   -1.2590   -1.8830 H   0  0  0  0  0  0  0  0  0  0  0  0
  1 11  1  0  0  0  0
  1 10  1  0  0  0  0
  1  9  1  0  0  0  0
  2  1  1  0  0  0  0
  3 13  1  0  0  0  0
  3  2  1  0  0  0  0
  4  3  1  0  0  0  0
  4  5  1  0  0  0  0
  5 16  1  6  0  0  0
  5  7  1  0  0  0  0
  5  6  1  0  0  0  0
  6 18  1  0  0  0  0
  7  8  2  0  0  0  0
 12  3  1  0  0  0  0
 14  4  1  0  0  0  0
 15  4  1  0  0  0  0
 17  6  1  0  0  0  0
 19 23  1  0  0  0  0
 19  7  1  0  0  0  0
 20 26  1  0  0  0  0
 20 19  1  0  0  0  0
 21 20  1  0  0  0  0
 21 22  1  0  0  0  0
 22 31  1  0  0  0  0
 22 23  1  0  0  0  0
 23 32  1  1  0  0  0
 24 25  2  0  0  0  0
 24 23  1  0  0  0  0
 27 20  1  0  0  0  0
 28 21  1  0  0  0  0
 29 21  1  0  0  0  0
 30 22  1  0  0  0  0
 33 24  1  0  0  0  0
 34 46  1  1  0  0  0
 34 33  1  0  0  0  0
 34 42  1  0  0  0  0
 35 34  1  0  0  0  0
 36 35  1  0  0  0  0
 37 49  1  0  0  0  0
 37 36  2  0  0  0  0
 38 37  1  0  0  0  0
 39 38  2  0  0  0  0
 39 40  1  0  0  0  0
 40 41  2  0  0  0  0
 41 36  1  0  0  0  0
 41 53  1  0  0  0  0
 42 44  1  0  0  0  0
 43 42  2  0  0  0  0
 45 33  1  0  0  0  0
 47 35  1  0  0  0  0
 48 35  1  0  0  0  0
 50 38  1  0  0  0  0
 51 39  1  0  0  0  0
 52 40  1  0  0  0  0
M  END
$$$$
