MPM.pdb
 OpenBabel07022418563D

 50 50  0  0  1  0  0  0  0  0999 V2000
   -3.0100   -1.9270    2.8630 C   0  0  0  0  0  0  0  0  0  0  0  0
   -1.5570   -2.5080    3.7430 S   0  0  0  0  0  0  0  0  0  0  0  0
   -0.0190   -1.7170    3.1630 C   0  0  0  0  0  0  0  0  0  0  0  0
   -0.0540   -0.2560    3.4900 C   0  0  0  0  0  0  0  0  0  0  0  0
    1.1600    0.5080    3.1150 C   0  0  2  0  0  0  0  0  0  0  0  0
    0.8630    1.9070    3.5340 N   0  0  0  0  0  0  0  0  0  0  0  0
    1.5610    0.5270    1.7210 C   0  0  0  0  0  0  0  0  0  0  0  0
    1.2130    1.5550    1.0400 O   0  0  0  0  0  0  0  0  0  0  0  0
   -3.0140   -0.8290    2.7160 H   0  0  0  0  0  0  0  0  0  0  0  0
   -3.8920   -2.1350    3.5280 H   0  0  0  0  0  0  0  0  0  0  0  0
   -3.2050   -2.4920    1.9360 H   0  0  0  0  0  0  0  0  0  0  0  0
   -0.0090   -1.8680    2.0560 H   0  0  0  0  0  0  0  0  0  0  0  0
    0.8150   -2.2120    3.6450 H   0  0  0  0  0  0  0  0  0  0  0  0
   -0.9910    0.1430    3.0490 H   0  0  0  0  0  0  0  0  0  0  0  0
   -0.2400   -0.1910    4.6050 H   0  0  0  0  0  0  0  0  0  0  0  0
    2.0400    0.2190    3.7290 H   0  0  0  0  0  0  0  0  0  0  0  0
    1.3860    2.5710    2.9350 H   0  0  0  0  0  0  0  0  0  0  0  0
    1.1170    2.0460    4.5300 H   0  0  0  0  0  0  0  0  0  0  0  0
    2.2980   -0.4530    1.0190 N   0  0  0  0  0  0  0  0  0  0  0  0
    2.7930   -1.6660    1.6400 C   0  0  0  0  0  0  0  0  0  0  0  0
    4.1070   -1.9100    0.8890 C   0  0  0  0  0  0  0  0  0  0  0  0
    3.6560   -1.5980   -0.5080 C   0  0  0  0  0  0  0  0  0  0  0  0
    2.7090   -0.4470   -0.3330 C   0  0  1  0  0  0  0  0  0  0  0  0
    1.6390   -0.4620   -1.3510 C   0  0  0  0  0  0  0  0  0  0  0  0
    2.0250   -0.4290   -2.5610 O   0  0  0  0  0  0  0  0  0  0  0  0
    3.0620   -1.5160    2.7070 H   0  0  0  0  0  0  0  0  0  0  0  0
    2.1860   -2.5510    1.4650 H   0  0  0  0  0  0  0  0  0  0  0  0
    4.4980   -2.9140    1.0400 H   0  0  0  0  0  0  0  0  0  0  0  0
    4.8380   -1.0990    1.1820 H   0  0  0  0  0  0  0  0  0  0  0  0
    4.5080   -1.3480   -1.1800 H   0  0  0  0  0  0  0  0  0  0  0  0
    3.0760   -2.4640   -0.9030 H   0  0  0  0  0  0  0  0  0  0  0  0
    3.3430    0.4750   -0.5130 H   0  0  0  0  0  0  0  0  0  0  0  0
   -3.0690    0.7820    0.3340 C   0  0  0  0  0  0  0  0  0  0  0  0
   -3.7210   -0.6920   -0.4180 S   0  0  0  0  0  0  0  0  0  0  0  0
   -2.5590   -1.9260   -0.9160 C   0  0  0  0  0  0  0  0  0  0  0  0
   -1.7000   -1.6380   -2.0720 C   0  0  0  0  0  0  0  0  0  0  0  0
   -0.7570   -0.5240   -2.0810 C   0  0  2  0  0  0  0  0  0  0  0  0
    0.2720   -0.5090   -1.0590 N   0  0  0  0  0  0  0  0  0  0  0  0
   -1.3570    0.8070   -2.3120 C   0  0  0  0  0  0  0  0  0  0  0  0
   -0.9270    1.8630   -1.7530 O   0  0  0  0  0  0  0  0  0  0  0  0
   -2.4280    0.9220   -3.1680 O   0  0  0  0  0  0  0  0  0  0  0  0
   -1.9770    0.7400    0.4980 H   0  0  0  0  0  0  0  0  0  0  0  0
   -3.5850    1.0500    1.2950 H   0  0  0  0  0  0  0  0  0  0  0  0
   -3.2540    1.6630   -0.3380 H   0  0  0  0  0  0  0  0  0  0  0  0
   -3.1590   -2.8600   -1.1870 H   0  0  0  0  0  0  0  0  0  0  0  0
   -1.9110   -2.2980   -0.0760 H   0  0  0  0  0  0  0  0  0  0  0  0
   -2.4180   -1.4880   -2.9560 H   0  0  0  0  0  0  0  0  0  0  0  0
   -1.1820   -2.6070   -2.4110 H   0  0  0  0  0  0  0  0  0  0  0  0
   -0.1660   -0.6740   -3.0880 H   0  0  0  0  0  0  0  0  0  0  0  0
   -0.0410   -0.5470   -0.0690 H   0  0  0  0  0  0  0  0  0  0  0  0
  1 10  1  0  0  0  0
  1  2  1  0  0  0  0
  3  4  1  0  0  0  0
  3 13  1  0  0  0  0
  3  2  1  0  0  0  0
  4 15  1  0  0  0  0
  5  4  1  0  0  0  0
  5  6  1  0  0  0  0
  5 16  1  1  0  0  0
  6 18  1  0  0  0  0
  7  5  1  0  0  0  0
  8  7  2  0  0  0  0
  9  1  1  0  0  0  0
 11  1  1  0  0  0  0
 12  3  1  0  0  0  0
 14  4  1  0  0  0  0
 17  6  1  0  0  0  0
 19 20  1  0  0  0  0
 19  7  1  0  0  0  0
 20 26  1  0  0  0  0
 21 28  1  0  0  0  0
 21 29  1  0  0  0  0
 21 20  1  0  0  0  0
 22 23  1  0  0  0  0
 22 21  1  0  0  0  0
 23 32  1  6  0  0  0
 23 19  1  0  0  0  0
 24 38  1  0  0  0  0
 24 23  1  0  0  0  0
 25 24  2  0  0  0  0
 27 20  1  0  0  0  0
 30 22  1  0  0  0  0
 31 22  1  0  0  0  0
 33 42  1  0  0  0  0
 33 43  1  0  0  0  0
 34 33  1  0  0  0  0
 35 34  1  0  0  0  0
 35 46  1  0  0  0  0
 36 35  1  0  0  0  0
 37 49  1  6  0  0  0
 37 36  1  0  0  0  0
 37 38  1  0  0  0  0
 38 50  1  0  0  0  0
 39 37  1  0  0  0  0
 39 40  1  0  0  0  0
 41 39  2  0  0  0  0
 44 33  1  0  0  0  0
 45 35  1  0  0  0  0
 47 36  1  0  0  0  0
 48 36  1  0  0  0  0
M  END
$$$$
