MPV.pdb
 OpenBabel07022418563D

 49 49  0  0  1  0  0  0  0  0999 V2000
    4.5250   -5.2730   -0.1700 C   0  0  0  0  0  0  0  0  0  0  0  0
    4.6580   -3.8170    0.8940 S   0  0  0  0  0  0  0  0  0  0  0  0
    3.7310   -2.4440    0.1520 C   0  0  0  0  0  0  0  0  0  0  0  0
    2.2760   -2.7920    0.1610 C   0  0  0  0  0  0  0  0  0  0  0  0
    1.5250   -1.6260   -0.4660 C   0  0  2  0  0  0  0  0  0  0  0  0
    2.0750   -1.5210   -1.8350 N   0  0  0  0  0  0  0  0  0  0  0  0
    1.7930   -0.3830    0.2790 C   0  0  0  0  0  0  0  0  0  0  0  0
    2.6300    0.4190   -0.2840 O   0  0  0  0  0  0  0  0  0  0  0  0
    4.9050   -6.1720    0.3520 H   0  0  0  0  0  0  0  0  0  0  0  0
    3.4550   -5.3900   -0.4650 H   0  0  0  0  0  0  0  0  0  0  0  0
    5.1260   -5.1150   -1.0740 H   0  0  0  0  0  0  0  0  0  0  0  0
    4.0380   -2.3240   -0.9100 H   0  0  0  0  0  0  0  0  0  0  0  0
    3.8710   -1.5090    0.7180 H   0  0  0  0  0  0  0  0  0  0  0  0
    1.8680   -3.0890    1.1330 H   0  0  0  0  0  0  0  0  0  0  0  0
    2.1450   -3.6540   -0.5540 H   0  0  0  0  0  0  0  0  0  0  0  0
    0.4860   -1.9110   -0.5750 H   0  0  0  0  0  0  0  0  0  0  0  0
    1.9040   -2.4650   -2.2770 H   0  0  0  0  0  0  0  0  0  0  0  0
    1.3850   -0.8820   -2.3330 H   0  0  0  0  0  0  0  0  0  0  0  0
    1.2230   -0.0120    1.5180 N   0  0  0  0  0  0  0  0  0  0  0  0
    1.5270    1.2130    2.2310 C   0  0  0  0  0  0  0  0  0  0  0  0
    1.5150    0.6870    3.6740 C   0  0  0  0  0  0  0  0  0  0  0  0
    0.1910   -0.0630    3.6470 C   0  0  0  0  0  0  0  0  0  0  0  0
    0.2630   -0.7270    2.2770 C   0  0  1  0  0  0  0  0  0  0  0  0
   -1.1160   -0.6310    1.7180 C   0  0  0  0  0  0  0  0  0  0  0  0
   -2.0840   -1.2130    2.2390 O   0  0  0  0  0  0  0  0  0  0  0  0
    0.7100    1.9730    2.1210 H   0  0  0  0  0  0  0  0  0  0  0  0
    2.5190    1.6300    1.9740 H   0  0  0  0  0  0  0  0  0  0  0  0
    2.3130   -0.0480    3.7640 H   0  0  0  0  0  0  0  0  0  0  0  0
    1.5310    1.5060    4.4040 H   0  0  0  0  0  0  0  0  0  0  0  0
   -0.5900    0.7220    3.6170 H   0  0  0  0  0  0  0  0  0  0  0  0
    0.0810   -0.7740    4.4670 H   0  0  0  0  0  0  0  0  0  0  0  0
    0.4510   -1.7830    2.4680 H   0  0  0  0  0  0  0  0  0  0  0  0
   -3.3190    2.1880    1.4340 C   0  0  0  0  0  0  0  0  0  0  0  0
   -3.1930    1.6760    0.0030 C   0  0  0  0  0  0  0  0  0  0  0  0
   -4.6010    1.6260   -0.5600 C   0  0  0  0  0  0  0  0  0  0  0  0
   -2.6560    0.2770   -0.0300 C   0  0  2  0  0  0  0  0  0  0  0  0
   -1.3530    0.1400    0.5600 N   0  0  0  0  0  0  0  0  0  0  0  0
   -2.6880   -0.2390   -1.4020 C   0  0  0  0  0  0  0  0  0  0  0  0
   -3.7490   -0.2100   -2.0750 O   0  0  0  0  0  0  0  0  0  0  0  0
   -1.5600   -0.7720   -2.0020 O   0  0  0  0  0  0  0  0  0  0  0  0
   -3.8940    3.1360    1.4700 H   0  0  0  0  0  0  0  0  0  0  0  0
   -2.3140    2.4340    1.8660 H   0  0  0  0  0  0  0  0  0  0  0  0
   -3.8700    1.4680    2.0690 H   0  0  0  0  0  0  0  0  0  0  0  0
   -2.6450    2.3920   -0.6360 H   0  0  0  0  0  0  0  0  0  0  0  0
   -5.1130    0.6740   -0.3710 H   0  0  0  0  0  0  0  0  0  0  0  0
   -4.6010    1.9190   -1.6430 H   0  0  0  0  0  0  0  0  0  0  0  0
   -5.1950    2.4380   -0.0640 H   0  0  0  0  0  0  0  0  0  0  0  0
   -3.3590   -0.3390    0.5800 H   0  0  0  0  0  0  0  0  0  0  0  0
   -0.5620    0.6390    0.0990 H   0  0  0  0  0  0  0  0  0  0  0  0
  1  9  1  0  0  0  0
  1  2  1  0  0  0  0
  3  4  1  0  0  0  0
  3 13  1  0  0  0  0
  3  2  1  0  0  0  0
  4 14  1  0  0  0  0
  5 16  1  6  0  0  0
  5  4  1  0  0  0  0
  5  7  1  0  0  0  0
  6  5  1  0  0  0  0
  7 19  1  0  0  0  0
  8  7  2  0  0  0  0
 10  1  1  0  0  0  0
 11  1  1  0  0  0  0
 12  3  1  0  0  0  0
 15  4  1  0  0  0  0
 17  6  1  0  0  0  0
 18  6  1  0  0  0  0
 19 20  1  0  0  0  0
 19 23  1  0  0  0  0
 20 21  1  0  0  0  0
 21 28  1  0  0  0  0
 21 29  1  0  0  0  0
 22 21  1  0  0  0  0
 22 31  1  0  0  0  0
 23 32  1  1  0  0  0
 23 22  1  0  0  0  0
 24 25  2  0  0  0  0
 24 23  1  0  0  0  0
 26 20  1  0  0  0  0
 27 20  1  0  0  0  0
 30 22  1  0  0  0  0
 33 41  1  0  0  0  0
 33 42  1  0  0  0  0
 33 43  1  0  0  0  0
 34 33  1  0  0  0  0
 35 45  1  0  0  0  0
 35 47  1  0  0  0  0
 35 34  1  0  0  0  0
 36 34  1  0  0  0  0
 36 37  1  0  0  0  0
 36 48  1  1  0  0  0
 37 24  1  0  0  0  0
 38 36  1  0  0  0  0
 39 38  2  0  0  0  0
 40 38  1  0  0  0  0
 44 34  1  0  0  0  0
 46 35  1  0  0  0  0
 49 37  1  0  0  0  0
M  END
$$$$
