MQC.pdb
 OpenBabel07022418553D

 47 46  0  0  1  0  0  0  0  0999 V2000
   -7.3650   -1.7260    1.7010 C   0  0  0  0  0  0  0  0  0  0  0  0
   -6.0400   -0.6430    2.2430 S   0  0  0  0  0  0  0  0  0  0  0  0
   -4.6900   -0.5490    1.0250 C   0  0  0  0  0  0  0  0  0  0  0  0
   -4.0330   -1.8920    0.9380 C   0  0  0  0  0  0  0  0  0  0  0  0
   -2.8960   -1.9640   -0.0350 C   0  0  2  0  0  0  0  0  0  0  0  0
   -2.3980   -3.3490    0.0310 N   0  0  0  0  0  0  0  0  0  0  0  0
   -1.7680   -1.0590    0.3100 C   0  0  0  0  0  0  0  0  0  0  0  0
   -1.9210    0.1880    0.3110 O   0  0  0  0  0  0  0  0  0  0  0  0
   -8.3370   -1.4590    2.1510 H   0  0  0  0  0  0  0  0  0  0  0  0
   -7.1580   -2.7870    1.9810 H   0  0  0  0  0  0  0  0  0  0  0  0
   -7.4110   -1.7180    0.5880 H   0  0  0  0  0  0  0  0  0  0  0  0
   -3.9470    0.1720    1.4620 H   0  0  0  0  0  0  0  0  0  0  0  0
   -5.1180   -0.1950    0.0900 H   0  0  0  0  0  0  0  0  0  0  0  0
   -3.7010   -2.2210    1.9310 H   0  0  0  0  0  0  0  0  0  0  0  0
   -4.8030   -2.6150    0.5860 H   0  0  0  0  0  0  0  0  0  0  0  0
   -3.2470   -1.8150   -1.0710 H   0  0  0  0  0  0  0  0  0  0  0  0
   -3.1140   -4.0200   -0.3100 H   0  0  0  0  0  0  0  0  0  0  0  0
   -2.2550   -3.5480    1.0460 H   0  0  0  0  0  0  0  0  0  0  0  0
    2.7260    2.4580    3.3250 N   0  0  0  0  0  0  0  0  0  0  0  0
    1.7580    1.4740    2.9320 C   0  0  0  0  0  0  0  0  0  0  0  0
    0.6310    1.8780    2.5940 O   0  0  0  0  0  0  0  0  0  0  0  0
    2.0850    0.0290    2.9290 C   0  0  0  0  0  0  0  0  0  0  0  0
    1.0060   -0.8550    2.4060 C   0  0  0  0  0  0  0  0  0  0  0  0
    0.5940   -0.5930    0.9840 C   0  0  2  0  0  0  0  0  0  0  0  0
   -0.4910   -1.5670    0.6490 N   0  0  0  0  0  0  0  0  0  0  0  0
    1.6710   -0.7970   -0.0090 C   0  0  0  0  0  0  0  0  0  0  0  0
    1.5910   -1.8240   -0.7530 O   0  0  0  0  0  0  0  0  0  0  0  0
    3.1600    2.4520    4.2710 H   0  0  0  0  0  0  0  0  0  0  0  0
    3.0190    3.2090    2.6670 H   0  0  0  0  0  0  0  0  0  0  0  0
    3.0560   -0.1090    2.4110 H   0  0  0  0  0  0  0  0  0  0  0  0
    2.2990   -0.2380    4.0300 H   0  0  0  0  0  0  0  0  0  0  0  0
    1.3410   -1.9050    2.5530 H   0  0  0  0  0  0  0  0  0  0  0  0
    0.1230   -0.7220    3.0940 H   0  0  0  0  0  0  0  0  0  0  0  0
    0.1760    0.4090    0.8940 H   0  0  0  0  0  0  0  0  0  0  0  0
   -0.2860   -2.5900    0.6710 H   0  0  0  0  0  0  0  0  0  0  0  0
    2.7870    0.0480   -0.2170 N   0  0  0  0  0  0  0  0  0  0  0  0
    3.8030   -0.2620   -1.2340 C   0  0  1  0  0  0  0  0  0  0  0  0
    3.6840    0.8330   -2.2950 C   0  0  0  0  0  0  0  0  0  0  0  0
    3.9720    2.4690   -1.6310 S   0  0  0  0  0  0  0  0  0  0  0  0
    5.1580   -0.2660   -0.6250 C   0  0  0  0  0  0  0  0  0  0  0  0
    5.2840   -0.0180    0.6010 O   0  0  0  0  0  0  0  0  0  0  0  0
    6.3060   -0.5310   -1.3450 O   0  0  0  0  0  0  0  0  0  0  0  0
    2.8570    0.9080    0.3590 H   0  0  0  0  0  0  0  0  0  0  0  0
    3.5550   -1.2080   -1.7560 H   0  0  0  0  0  0  0  0  0  0  0  0
    4.3250    0.6050   -3.1710 H   0  0  0  0  0  0  0  0  0  0  0  0
    2.6280    0.7840   -2.6580 H   0  0  0  0  0  0  0  0  0  0  0  0
    5.0930    3.0490   -2.2520 H   0  0  0  0  0  0  0  0  0  0  0  0
  1 10  1  0  0  0  0
  1  9  1  0  0  0  0
  1  2  1  0  0  0  0
  3 12  1  0  0  0  0
  3  2  1  0  0  0  0
  4  3  1  0  0  0  0
  4 14  1  0  0  0  0
  5 16  1  6  0  0  0
  5  6  1  0  0  0  0
  5  7  1  0  0  0  0
  5  4  1  0  0  0  0
  6 18  1  0  0  0  0
  7  8  2  0  0  0  0
  7 25  1  0  0  0  0
 11  1  1  0  0  0  0
 13  3  1  0  0  0  0
 15  4  1  0  0  0  0
 17  6  1  0  0  0  0
 19 28  1  0  0  0  0
 20 19  1  0  0  0  0
 21 20  2  0  0  0  0
 22 20  1  0  0  0  0
 22 31  1  0  0  0  0
 23 32  1  0  0  0  0
 23 22  1  0  0  0  0
 23 33  1  0  0  0  0
 24 34  1  6  0  0  0
 24 23  1  0  0  0  0
 25 35  1  0  0  0  0
 25 24  1  0  0  0  0
 26 24  1  0  0  0  0
 27 26  2  0  0  0  0
 29 19  1  0  0  0  0
 30 22  1  0  0  0  0
 36 26  1  0  0  0  0
 36 43  1  0  0  0  0
 37 44  1  6  0  0  0
 37 40  1  0  0  0  0
 37 36  1  0  0  0  0
 38 39  1  0  0  0  0
 38 37  1  0  0  0  0
 40 41  1  0  0  0  0
 42 40  2  0  0  0  0
 45 38  1  0  0  0  0
 46 38  1  0  0  0  0
 47 39  1  0  0  0  0
M  END
$$$$
