MQG.pdb
 OpenBabel07022418553D

 43 42  0  0  1  0  0  0  0  0999 V2000
   -2.3340   -4.6700    1.8790 C   0  0  0  0  0  0  0  0  0  0  0  0
   -0.6920   -5.3160    2.2860 S   0  0  0  0  0  0  0  0  0  0  0  0
    0.5250   -4.6180    1.1460 C   0  0  0  0  0  0  0  0  0  0  0  0
    0.6620   -3.1120    1.3540 C   0  0  0  0  0  0  0  0  0  0  0  0
    1.6970   -2.5780    0.3770 C   0  0  2  0  0  0  0  0  0  0  0  0
    2.9340   -3.2660    0.6820 N   0  0  0  0  0  0  0  0  0  0  0  0
    1.8700   -1.1040    0.5670 C   0  0  0  0  0  0  0  0  0  0  0  0
    2.9500   -0.6200    0.9530 O   0  0  0  0  0  0  0  0  0  0  0  0
   -2.3230   -4.2160    0.8870 H   0  0  0  0  0  0  0  0  0  0  0  0
   -2.6950   -3.9450    2.6530 H   0  0  0  0  0  0  0  0  0  0  0  0
   -3.0820   -5.4930    1.8830 H   0  0  0  0  0  0  0  0  0  0  0  0
    0.1570   -4.7550    0.1070 H   0  0  0  0  0  0  0  0  0  0  0  0
    1.5170   -5.0790    1.2940 H   0  0  0  0  0  0  0  0  0  0  0  0
    0.9940   -2.9890    2.4020 H   0  0  0  0  0  0  0  0  0  0  0  0
   -0.3070   -2.6100    1.2580 H   0  0  0  0  0  0  0  0  0  0  0  0
    1.4330   -2.7770   -0.6610 H   0  0  0  0  0  0  0  0  0  0  0  0
    3.0130   -3.4910    1.7120 H   0  0  0  0  0  0  0  0  0  0  0  0
    3.0150   -4.1910    0.2000 H   0  0  0  0  0  0  0  0  0  0  0  0
    2.3080    2.3570   -4.2360 N   0  0  0  0  0  0  0  0  0  0  0  0
    1.4980    2.4340   -3.0690 C   0  0  0  0  0  0  0  0  0  0  0  0
    0.5240    3.2590   -3.1320 O   0  0  0  0  0  0  0  0  0  0  0  0
    1.7490    1.6220   -1.8480 C   0  0  0  0  0  0  0  0  0  0  0  0
    0.6860    1.9620   -0.8330 C   0  0  0  0  0  0  0  0  0  0  0  0
    0.8440    1.1960    0.4530 C   0  0  2  0  0  0  0  0  0  0  0  0
    0.7780   -0.2170    0.3020 N   0  0  0  0  0  0  0  0  0  0  0  0
   -0.1050    1.7500    1.4300 C   0  0  0  0  0  0  0  0  0  0  0  0
   -0.1050    2.9930    1.6130 O   0  0  0  0  0  0  0  0  0  0  0  0
    2.3540    1.4770   -4.7940 H   0  0  0  0  0  0  0  0  0  0  0  0
    2.8780    3.1600   -4.5780 H   0  0  0  0  0  0  0  0  0  0  0  0
    2.7510    1.9490   -1.4670 H   0  0  0  0  0  0  0  0  0  0  0  0
    1.8220    0.5490   -2.0560 H   0  0  0  0  0  0  0  0  0  0  0  0
   -0.3250    1.7890   -1.2530 H   0  0  0  0  0  0  0  0  0  0  0  0
    0.7630    3.0460   -0.6150 H   0  0  0  0  0  0  0  0  0  0  0  0
    1.8770    1.4550    0.8270 H   0  0  0  0  0  0  0  0  0  0  0  0
   -0.1090   -0.6960   -0.0230 H   0  0  0  0  0  0  0  0  0  0  0  0
   -1.0230    0.9670    2.1800 N   0  0  0  0  0  0  0  0  0  0  0  0
   -1.9460    1.5300    3.1330 C   0  0  0  0  0  0  0  0  0  0  0  0
   -1.2720    2.2500    4.2270 C   0  0  0  0  0  0  0  0  0  0  0  0
   -0.0290    2.3140    4.2530 O   0  0  0  0  0  0  0  0  0  0  0  0
   -2.0130    2.8490    5.2150 O   0  0  0  0  0  0  0  0  0  0  0  0
   -0.9890   -0.0680    1.9940 H   0  0  0  0  0  0  0  0  0  0  0  0
   -2.6030    0.7130    3.5050 H   0  0  0  0  0  0  0  0  0  0  0  0
   -2.6170    2.2440    2.6150 H   0  0  0  0  0  0  0  0  0  0  0  0
  1 11  1  0  0  0  0
  1  2  1  0  0  0  0
  1 10  1  0  0  0  0
  3 13  1  0  0  0  0
  3  4  1  0  0  0  0
  3  2  1  0  0  0  0
  4 14  1  0  0  0  0
  5 16  1  6  0  0  0
  5  7  1  0  0  0  0
  5  6  1  0  0  0  0
  5  4  1  0  0  0  0
  6 17  1  0  0  0  0
  7  8  2  0  0  0  0
  9  1  1  0  0  0  0
 12  3  1  0  0  0  0
 15  4  1  0  0  0  0
 18  6  1  0  0  0  0
 19 20  1  0  0  0  0
 20 22  1  0  0  0  0
 21 20  2  0  0  0  0
 22 30  1  0  0  0  0
 22 23  1  0  0  0  0
 23 33  1  0  0  0  0
 23 24  1  0  0  0  0
 24 34  1  1  0  0  0
 24 26  1  0  0  0  0
 25 24  1  0  0  0  0
 25  7  1  0  0  0  0
 26 27  2  0  0  0  0
 26 36  1  0  0  0  0
 28 19  1  0  0  0  0
 29 19  1  0  0  0  0
 31 22  1  0  0  0  0
 32 23  1  0  0  0  0
 35 25  1  0  0  0  0
 36 37  1  0  0  0  0
 37 42  1  0  0  0  0
 37 38  1  0  0  0  0
 38 39  2  0  0  0  0
 38 40  1  0  0  0  0
 41 36  1  0  0  0  0
 43 37  1  0  0  0  0
M  END
$$$$
