MQH.pdb
 OpenBabel07022418553D

 53 53  0  0  1  0  0  0  0  0999 V2000
   -5.1630   -0.6640    3.7550 C   0  0  0  0  0  0  0  0  0  0  0  0
   -3.7470   -0.7350    4.8680 S   0  0  0  0  0  0  0  0  0  0  0  0
   -2.3020   -1.4620    4.1270 C   0  0  0  0  0  0  0  0  0  0  0  0
   -1.6750   -0.7100    3.0110 C   0  0  0  0  0  0  0  0  0  0  0  0
   -1.1820    0.6520    3.3590 C   0  0  2  0  0  0  0  0  0  0  0  0
   -2.1840    1.5560    3.8450 N   0  0  0  0  0  0  0  0  0  0  0  0
   -0.4320    1.3030    2.2580 C   0  0  0  0  0  0  0  0  0  0  0  0
   -0.6710    2.5100    2.0210 O   0  0  0  0  0  0  0  0  0  0  0  0
   -4.9930   -1.3070    2.8780 H   0  0  0  0  0  0  0  0  0  0  0  0
   -5.2920    0.4110    3.4550 H   0  0  0  0  0  0  0  0  0  0  0  0
   -6.1180   -0.9620    4.2190 H   0  0  0  0  0  0  0  0  0  0  0  0
   -2.5230   -2.5140    3.8030 H   0  0  0  0  0  0  0  0  0  0  0  0
   -1.5400   -1.6040    4.9540 H   0  0  0  0  0  0  0  0  0  0  0  0
   -2.3570   -0.7260    2.1290 H   0  0  0  0  0  0  0  0  0  0  0  0
   -0.7830   -1.3220    2.6880 H   0  0  0  0  0  0  0  0  0  0  0  0
   -0.4200    0.5620    4.1930 H   0  0  0  0  0  0  0  0  0  0  0  0
   -2.2120    1.5400    4.8840 H   0  0  0  0  0  0  0  0  0  0  0  0
   -2.0150    2.5050    3.4920 H   0  0  0  0  0  0  0  0  0  0  0  0
    3.9250   -2.4980    0.1220 N   0  0  0  0  0  0  0  0  0  0  0  0
    3.3070   -1.1950   -0.1590 C   0  0  0  0  0  0  0  0  0  0  0  0
    2.8270   -1.1480   -1.3000 O   0  0  0  0  0  0  0  0  0  0  0  0
    3.3270   -0.1810    0.8640 C   0  0  0  0  0  0  0  0  0  0  0  0
    2.7280    1.1470    0.6700 C   0  0  0  0  0  0  0  0  0  0  0  0
    1.2670    1.2510    0.4060 C   0  0  2  0  0  0  0  0  0  0  0  0
    0.5280    0.6260    1.4760 N   0  0  0  0  0  0  0  0  0  0  0  0
    0.9010    0.8360   -0.9500 C   0  0  0  0  0  0  0  0  0  0  0  0
    1.4790    1.3180   -1.9880 O   0  0  0  0  0  0  0  0  0  0  0  0
    3.5780   -3.0810    0.8890 H   0  0  0  0  0  0  0  0  0  0  0  0
    4.7130   -2.8230   -0.4630 H   0  0  0  0  0  0  0  0  0  0  0  0
    4.4260   -0.0190    1.1730 H   0  0  0  0  0  0  0  0  0  0  0  0
    2.9160   -0.6860    1.8150 H   0  0  0  0  0  0  0  0  0  0  0  0
    3.0060    1.8220    1.5540 H   0  0  0  0  0  0  0  0  0  0  0  0
    3.2910    1.6940   -0.1690 H   0  0  0  0  0  0  0  0  0  0  0  0
    1.0550    2.3970    0.4870 H   0  0  0  0  0  0  0  0  0  0  0  0
    0.7130   -0.3680    1.6810 H   0  0  0  0  0  0  0  0  0  0  0  0
   -0.1230   -0.1270   -1.2570 N   0  0  0  0  0  0  0  0  0  0  0  0
   -0.4490   -0.5080   -2.6130 C   0  0  1  0  0  0  0  0  0  0  0  0
   -0.7800   -1.9400   -2.7890 C   0  0  0  0  0  0  0  0  0  0  0  0
    0.2910   -2.8580   -2.3950 C   0  0  0  0  0  0  0  0  0  0  0  0
    0.4540   -3.4020   -1.1190 C   0  0  0  0  0  0  0  0  0  0  0  0
    1.5260   -4.2050   -1.1220 N   0  0  0  0  0  0  0  0  0  0  0  0
    2.0420   -4.1820   -2.3580 C   0  0  0  0  0  0  0  0  0  0  0  0
    1.2890   -3.3670   -3.1150 N   0  0  0  0  0  0  0  0  0  0  0  0
   -1.5910    0.3510   -3.1250 C   0  0  0  0  0  0  0  0  0  0  0  0
   -2.0440    1.2060   -2.3550 O   0  0  0  0  0  0  0  0  0  0  0  0
   -2.0850    0.1770   -4.3780 O   0  0  0  0  0  0  0  0  0  0  0  0
   -0.6290   -0.5480   -0.4500 H   0  0  0  0  0  0  0  0  0  0  0  0
    0.3990   -0.2090   -3.2580 H   0  0  0  0  0  0  0  0  0  0  0  0
   -0.9420   -2.0910   -3.9010 H   0  0  0  0  0  0  0  0  0  0  0  0
   -1.7480   -2.1710   -2.2780 H   0  0  0  0  0  0  0  0  0  0  0  0
   -0.2140   -3.1810   -0.2780 H   0  0  0  0  0  0  0  0  0  0  0  0
    1.8950   -4.7550   -0.2900 H   0  0  0  0  0  0  0  0  0  0  0  0
    2.9030   -4.7120   -2.7020 H   0  0  0  0  0  0  0  0  0  0  0  0
  1 11  1  0  0  0  0
  1  2  1  0  0  0  0
  3  2  1  0  0  0  0
  3 13  1  0  0  0  0
  4  5  1  0  0  0  0
  4  3  1  0  0  0  0
  5  6  1  0  0  0  0
  5 16  1  1  0  0  0
  6 17  1  0  0  0  0
  7  5  1  0  0  0  0
  8  7  2  0  0  0  0
  9  1  1  0  0  0  0
 10  1  1  0  0  0  0
 12  3  1  0  0  0  0
 14  4  1  0  0  0  0
 15  4  1  0  0  0  0
 18  6  1  0  0  0  0
 19 28  1  0  0  0  0
 20 19  1  0  0  0  0
 20 22  1  0  0  0  0
 21 20  2  0  0  0  0
 22 30  1  0  0  0  0
 22 31  1  0  0  0  0
 23 22  1  0  0  0  0
 23 32  1  0  0  0  0
 24 34  1  1  0  0  0
 24 23  1  0  0  0  0
 24 25  1  0  0  0  0
 25 35  1  0  0  0  0
 25  7  1  0  0  0  0
 26 24  1  0  0  0  0
 27 26  2  0  0  0  0
 29 19  1  0  0  0  0
 33 23  1  0  0  0  0
 36 26  1  0  0  0  0
 36 47  1  0  0  0  0
 37 48  1  6  0  0  0
 37 36  1  0  0  0  0
 38 37  1  0  0  0  0
 38 39  1  0  0  0  0
 38 50  1  0  0  0  0
 39 40  2  0  0  0  0
 40 51  1  0  0  0  0
 41 40  1  0  0  0  0
 41 52  1  0  0  0  0
 42 41  1  0  0  0  0
 43 39  1  0  0  0  0
 43 42  2  0  0  0  0
 44 37  1  0  0  0  0
 44 45  1  0  0  0  0
 46 44  2  0  0  0  0
 49 38  1  0  0  0  0
 53 42  1  0  0  0  0
M  END
$$$$
