MQI.pdb
 OpenBabel07022418553D

 55 54  0  0  1  0  0  0  0  0999 V2000
    2.7330   -4.5560    3.8690 C   0  0  0  0  0  0  0  0  0  0  0  0
    3.5390   -3.7560    2.4660 S   0  0  0  0  0  0  0  0  0  0  0  0
    2.2420   -3.2800    1.2730 C   0  0  0  0  0  0  0  0  0  0  0  0
    2.9300   -2.6130    0.1060 C   0  0  0  0  0  0  0  0  0  0  0  0
    3.6660   -1.3990    0.6300 C   0  0  2  0  0  0  0  0  0  0  0  0
    4.6410   -1.8260    1.6160 N   0  0  0  0  0  0  0  0  0  0  0  0
    2.6840   -0.4760    1.2630 C   0  0  0  0  0  0  0  0  0  0  0  0
    2.7500   -0.1620    2.4790 O   0  0  0  0  0  0  0  0  0  0  0  0
    3.1790   -5.5750    4.0050 H   0  0  0  0  0  0  0  0  0  0  0  0
    2.9720   -4.0030    4.8120 H   0  0  0  0  0  0  0  0  0  0  0  0
    1.6390   -4.6660    3.7360 H   0  0  0  0  0  0  0  0  0  0  0  0
    1.5950   -2.5080    1.7630 H   0  0  0  0  0  0  0  0  0  0  0  0
    1.6960   -4.1870    1.0100 H   0  0  0  0  0  0  0  0  0  0  0  0
    2.2690   -2.3790   -0.7280 H   0  0  0  0  0  0  0  0  0  0  0  0
    3.6990   -3.3390   -0.2740 H   0  0  0  0  0  0  0  0  0  0  0  0
    4.1530   -0.8710   -0.2140 H   0  0  0  0  0  0  0  0  0  0  0  0
    4.7930   -0.9820    2.2440 H   0  0  0  0  0  0  0  0  0  0  0  0
    5.5520   -1.9770    1.1180 H   0  0  0  0  0  0  0  0  0  0  0  0
   -2.3600    4.0750    0.7880 N   0  0  0  0  0  0  0  0  0  0  0  0
   -1.3340    3.3900    0.1130 C   0  0  0  0  0  0  0  0  0  0  0  0
   -1.6220    2.7310   -0.9170 O   0  0  0  0  0  0  0  0  0  0  0  0
    0.0400    3.4390    0.5850 C   0  0  0  0  0  0  0  0  0  0  0  0
    0.9070    2.2770    0.3270 C   0  0  0  0  0  0  0  0  0  0  0  0
    0.6190    0.9860    0.9920 C   0  0  2  0  0  0  0  0  0  0  0  0
    1.6570    0.0560    0.4770 N   0  0  0  0  0  0  0  0  0  0  0  0
   -0.7000    0.3880    0.8640 C   0  0  0  0  0  0  0  0  0  0  0  0
   -1.7180    0.9180    1.3680 O   0  0  0  0  0  0  0  0  0  0  0  0
   -2.3750    4.1340    1.8190 H   0  0  0  0  0  0  0  0  0  0  0  0
   -3.1140    4.5290    0.2470 H   0  0  0  0  0  0  0  0  0  0  0  0
    0.1060    3.6570    1.6960 H   0  0  0  0  0  0  0  0  0  0  0  0
    0.5700    4.3430    0.1450 H   0  0  0  0  0  0  0  0  0  0  0  0
    0.9920    2.0780   -0.7900 H   0  0  0  0  0  0  0  0  0  0  0  0
    1.9870    2.5190    0.5910 H   0  0  0  0  0  0  0  0  0  0  0  0
    0.9070    1.0860    2.0770 H   0  0  0  0  0  0  0  0  0  0  0  0
    1.5670   -0.1790   -0.5330 H   0  0  0  0  0  0  0  0  0  0  0  0
   -3.8300    0.5070   -1.6950 C   0  0  0  0  0  0  0  0  0  0  0  0
   -2.7240   -0.3990   -2.1980 C   0  0  0  0  0  0  0  0  0  0  0  0
   -2.6330   -1.6690   -1.4040 C   0  0  2  0  0  0  0  0  0  0  0  0
   -3.9220   -2.4260   -1.4850 C   0  0  0  0  0  0  0  0  0  0  0  0
   -2.2230   -1.4610    0.0220 C   0  0  2  0  0  0  0  0  0  0  0  0
   -0.9230   -0.8420    0.1600 N   0  0  0  0  0  0  0  0  0  0  0  0
   -2.1660   -2.7990    0.6670 C   0  0  0  0  0  0  0  0  0  0  0  0
   -3.1620   -3.5820    0.7090 O   0  0  0  0  0  0  0  0  0  0  0  0
   -1.0070   -3.2270    1.2440 O   0  0  0  0  0  0  0  0  0  0  0  0
   -3.8050    1.4290   -2.3020 H   0  0  0  0  0  0  0  0  0  0  0  0
   -3.6910    0.7990   -0.6490 H   0  0  0  0  0  0  0  0  0  0  0  0
   -4.7950    0.0200   -1.8750 H   0  0  0  0  0  0  0  0  0  0  0  0
   -1.7780    0.1600   -2.1990 H   0  0  0  0  0  0  0  0  0  0  0  0
   -2.9900   -0.6770   -3.2380 H   0  0  0  0  0  0  0  0  0  0  0  0
   -1.8190   -2.2730   -1.8760 H   0  0  0  0  0  0  0  0  0  0  0  0
   -4.5010   -2.1400   -2.3890 H   0  0  0  0  0  0  0  0  0  0  0  0
   -3.7860   -3.5320   -1.5400 H   0  0  0  0  0  0  0  0  0  0  0  0
   -4.5520   -2.2260   -0.5870 H   0  0  0  0  0  0  0  0  0  0  0  0
   -3.0090   -0.8260    0.5030 H   0  0  0  0  0  0  0  0  0  0  0  0
   -0.1170   -1.3340   -0.2860 H   0  0  0  0  0  0  0  0  0  0  0  0
  1  9  1  0  0  0  0
  1 10  1  0  0  0  0
  2  1  1  0  0  0  0
  3 12  1  0  0  0  0
  3  2  1  0  0  0  0
  4  5  1  0  0  0  0
  4  3  1  0  0  0  0
  5 16  1  6  0  0  0
  5  7  1  0  0  0  0
  5  6  1  0  0  0  0
  6 17  1  0  0  0  0
  7  8  2  0  0  0  0
 11  1  1  0  0  0  0
 13  3  1  0  0  0  0
 14  4  1  0  0  0  0
 15  4  1  0  0  0  0
 18  6  1  0  0  0  0
 19 28  1  0  0  0  0
 20 22  1  0  0  0  0
 20 19  1  0  0  0  0
 21 20  2  0  0  0  0
 22 30  1  0  0  0  0
 23 22  1  0  0  0  0
 23 33  1  0  0  0  0
 23 24  1  0  0  0  0
 24 34  1  1  0  0  0
 25 24  1  0  0  0  0
 25  7  1  0  0  0  0
 26 24  1  0  0  0  0
 26 27  2  0  0  0  0
 29 19  1  0  0  0  0
 31 22  1  0  0  0  0
 32 23  1  0  0  0  0
 35 25  1  0  0  0  0
 36 46  1  0  0  0  0
 37 36  1  0  0  0  0
 37 38  1  0  0  0  0
 38 50  1  6  0  0  0
 38 40  1  0  0  0  0
 39 38  1  0  0  0  0
 39 53  1  0  0  0  0
 40 41  1  0  0  0  0
 40 54  1  1  0  0  0
 40 42  1  0  0  0  0
 41 26  1  0  0  0  0
 42 43  2  0  0  0  0
 42 44  1  0  0  0  0
 45 36  1  0  0  0  0
 47 36  1  0  0  0  0
 48 37  1  0  0  0  0
 49 37  1  0  0  0  0
 51 39  1  0  0  0  0
 52 39  1  0  0  0  0
 55 41  1  0  0  0  0
M  END
$$$$
