MQL.pdb
 OpenBabel07022418553D

 55 54  0  0  1  0  0  0  0  0999 V2000
    0.4680   -2.7990    5.1850 C   0  0  0  0  0  0  0  0  0  0  0  0
    1.0990   -4.2370    4.2990 S   0  0  0  0  0  0  0  0  0  0  0  0
    1.7430   -3.8460    2.7080 C   0  0  0  0  0  0  0  0  0  0  0  0
    3.0060   -3.1160    2.5700 C   0  0  0  0  0  0  0  0  0  0  0  0
    3.1920   -1.7760    3.1370 C   0  0  2  0  0  0  0  0  0  0  0  0
    3.0740   -1.6140    4.5430 N   0  0  0  0  0  0  0  0  0  0  0  0
    2.3880   -0.7190    2.4600 C   0  0  0  0  0  0  0  0  0  0  0  0
    1.7760    0.0970    3.1690 O   0  0  0  0  0  0  0  0  0  0  0  0
    1.0580   -2.5980    6.0950 H   0  0  0  0  0  0  0  0  0  0  0  0
    0.3660   -1.9560    4.4950 H   0  0  0  0  0  0  0  0  0  0  0  0
   -0.6030   -3.0250    5.5120 H   0  0  0  0  0  0  0  0  0  0  0  0
    0.9270   -3.3830    2.0500 H   0  0  0  0  0  0  0  0  0  0  0  0
    1.8910   -4.8420    2.1630 H   0  0  0  0  0  0  0  0  0  0  0  0
    3.8820   -3.7850    2.8650 H   0  0  0  0  0  0  0  0  0  0  0  0
    3.1910   -3.0140    1.4480 H   0  0  0  0  0  0  0  0  0  0  0  0
    4.2640   -1.4730    2.8930 H   0  0  0  0  0  0  0  0  0  0  0  0
    2.6730   -0.6750    4.7890 H   0  0  0  0  0  0  0  0  0  0  0  0
    3.9720   -1.6870    5.0760 H   0  0  0  0  0  0  0  0  0  0  0  0
    0.3740    3.3150   -2.9110 N   0  0  0  0  0  0  0  0  0  0  0  0
    1.1170    2.2740   -2.3020 C   0  0  0  0  0  0  0  0  0  0  0  0
    1.1060    1.1550   -2.8440 O   0  0  0  0  0  0  0  0  0  0  0  0
    1.8790    2.5180   -1.0720 C   0  0  0  0  0  0  0  0  0  0  0  0
    2.3600    1.3890   -0.2920 C   0  0  0  0  0  0  0  0  0  0  0  0
    1.4790    0.4660    0.4140 C   0  0  2  0  0  0  0  0  0  0  0  0
    2.2740   -0.5800    1.0810 N   0  0  0  0  0  0  0  0  0  0  0  0
    0.3760   -0.2270   -0.2200 C   0  0  0  0  0  0  0  0  0  0  0  0
    0.4700   -1.5040   -0.3780 O   0  0  0  0  0  0  0  0  0  0  0  0
   -0.4820    3.7060   -2.4890 H   0  0  0  0  0  0  0  0  0  0  0  0
    0.6920    3.7140   -3.8220 H   0  0  0  0  0  0  0  0  0  0  0  0
    1.2850    3.2620   -0.4300 H   0  0  0  0  0  0  0  0  0  0  0  0
    2.7900    3.1740   -1.3100 H   0  0  0  0  0  0  0  0  0  0  0  0
    3.0560    0.7430   -0.9360 H   0  0  0  0  0  0  0  0  0  0  0  0
    3.0300    1.8480    0.5270 H   0  0  0  0  0  0  0  0  0  0  0  0
    1.0550    1.0480    1.3100 H   0  0  0  0  0  0  0  0  0  0  0  0
    2.7640   -1.2330    0.4420 H   0  0  0  0  0  0  0  0  0  0  0  0
   -3.8570   -2.9650   -1.0700 C   0  0  0  0  0  0  0  0  0  0  0  0
   -4.1570   -1.5420   -0.6430 C   0  0  0  0  0  0  0  0  0  0  0  0
   -5.2070   -0.9560   -1.4990 C   0  0  0  0  0  0  0  0  0  0  0  0
   -2.9830   -0.7380   -0.2910 C   0  0  0  0  0  0  0  0  0  0  0  0
   -1.8980   -0.5410   -1.3110 C   0  0  2  0  0  0  0  0  0  0  0  0
   -0.8460    0.3070   -0.7020 N   0  0  0  0  0  0  0  0  0  0  0  0
   -2.3450    0.0330   -2.5800 C   0  0  0  0  0  0  0  0  0  0  0  0
   -3.1060   -0.5840   -3.3720 O   0  0  0  0  0  0  0  0  0  0  0  0
   -1.9550    1.2990   -2.9860 O   0  0  0  0  0  0  0  0  0  0  0  0
   -4.8320   -3.4070   -1.3830 H   0  0  0  0  0  0  0  0  0  0  0  0
   -3.5240   -3.5730   -0.1890 H   0  0  0  0  0  0  0  0  0  0  0  0
   -3.1770   -3.0340   -1.9220 H   0  0  0  0  0  0  0  0  0  0  0  0
   -4.6860   -1.7200    0.3850 H   0  0  0  0  0  0  0  0  0  0  0  0
   -6.1980   -0.9950   -0.9350 H   0  0  0  0  0  0  0  0  0  0  0  0
   -5.0500    0.1270   -1.6670 H   0  0  0  0  0  0  0  0  0  0  0  0
   -5.4110   -1.5380   -2.4240 H   0  0  0  0  0  0  0  0  0  0  0  0
   -3.3500    0.3050   -0.0460 H   0  0  0  0  0  0  0  0  0  0  0  0
   -2.4980   -1.1730    0.6110 H   0  0  0  0  0  0  0  0  0  0  0  0
   -1.3850   -1.5350   -1.4810 H   0  0  0  0  0  0  0  0  0  0  0  0
   -1.0030    1.3210   -0.6170 H   0  0  0  0  0  0  0  0  0  0  0  0
  1 11  1  0  0  0  0
  1  9  1  0  0  0  0
  2  1  1  0  0  0  0
  3  2  1  0  0  0  0
  4  3  1  0  0  0  0
  4 14  1  0  0  0  0
  4  5  1  0  0  0  0
  5 16  1  6  0  0  0
  5  6  1  0  0  0  0
  6 17  1  0  0  0  0
  6 18  1  0  0  0  0
  7  5  1  0  0  0  0
  7  8  2  0  0  0  0
 10  1  1  0  0  0  0
 12  3  1  0  0  0  0
 13  3  1  0  0  0  0
 15  4  1  0  0  0  0
 19 28  1  0  0  0  0
 19 20  1  0  0  0  0
 20 22  1  0  0  0  0
 21 20  2  0  0  0  0
 22 30  1  0  0  0  0
 22 23  1  0  0  0  0
 23 24  1  0  0  0  0
 23 33  1  0  0  0  0
 24 25  1  0  0  0  0
 24 34  1  1  0  0  0
 25  7  1  0  0  0  0
 26 24  1  0  0  0  0
 27 26  2  0  0  0  0
 29 19  1  0  0  0  0
 31 22  1  0  0  0  0
 32 23  1  0  0  0  0
 35 25  1  0  0  0  0
 36 37  1  0  0  0  0
 36 46  1  0  0  0  0
 37 39  1  0  0  0  0
 37 48  1  0  0  0  0
 38 49  1  0  0  0  0
 38 37  1  0  0  0  0
 39 52  1  0  0  0  0
 39 53  1  0  0  0  0
 40 54  1  6  0  0  0
 40 41  1  0  0  0  0
 40 39  1  0  0  0  0
 41 55  1  0  0  0  0
 41 26  1  0  0  0  0
 42 40  1  0  0  0  0
 43 42  2  0  0  0  0
 44 42  1  0  0  0  0
 45 36  1  0  0  0  0
 47 36  1  0  0  0  0
 50 38  1  0  0  0  0
 51 38  1  0  0  0  0
M  END
$$$$
