MQN.pdb
 OpenBabel07022418553D

 50 49  0  0  1  0  0  0  0  0999 V2000
    1.7590   -3.6650    4.0910 C   0  0  0  0  0  0  0  0  0  0  0  0
    1.1600   -4.4410    2.6060 S   0  0  0  0  0  0  0  0  0  0  0  0
    0.6720   -3.3880    1.2780 C   0  0  0  0  0  0  0  0  0  0  0  0
    1.6950   -2.6630    0.5040 C   0  0  0  0  0  0  0  0  0  0  0  0
    2.6020   -1.7200    1.1710 C   0  0  2  0  0  0  0  0  0  0  0  0
    3.4340   -2.3160    2.1730 N   0  0  0  0  0  0  0  0  0  0  0  0
    1.9280   -0.4880    1.6700 C   0  0  0  0  0  0  0  0  0  0  0  0
    2.1660   -0.1370    2.8470 O   0  0  0  0  0  0  0  0  0  0  0  0
    1.2080   -4.1370    4.9610 H   0  0  0  0  0  0  0  0  0  0  0  0
    2.8170   -3.8950    4.3030 H   0  0  0  0  0  0  0  0  0  0  0  0
    1.5760   -2.5660    4.1440 H   0  0  0  0  0  0  0  0  0  0  0  0
   -0.1370   -2.6990    1.6600 H   0  0  0  0  0  0  0  0  0  0  0  0
    0.1020   -4.0420    0.5330 H   0  0  0  0  0  0  0  0  0  0  0  0
    1.2040   -2.1580   -0.3760 H   0  0  0  0  0  0  0  0  0  0  0  0
    2.3610   -3.4320   -0.0180 H   0  0  0  0  0  0  0  0  0  0  0  0
    3.3160   -1.3350    0.3770 H   0  0  0  0  0  0  0  0  0  0  0  0
    4.0950   -2.9640    1.6920 H   0  0  0  0  0  0  0  0  0  0  0  0
    3.9480   -1.6080    2.7100 H   0  0  0  0  0  0  0  0  0  0  0  0
    1.6700    2.1270   -2.8790 N   0  0  0  0  0  0  0  0  0  0  0  0
    1.8660    2.1520   -1.4720 C   0  0  0  0  0  0  0  0  0  0  0  0
    2.7970    1.4540   -1.0120 O   0  0  0  0  0  0  0  0  0  0  0  0
    0.9760    2.9880   -0.6590 C   0  0  0  0  0  0  0  0  0  0  0  0
    0.9180    2.7160    0.7870 C   0  0  0  0  0  0  0  0  0  0  0  0
    0.3950    1.4140    1.2560 C   0  0  2  0  0  0  0  0  0  0  0  0
    1.0590    0.2310    0.8190 N   0  0  0  0  0  0  0  0  0  0  0  0
   -1.0850    1.3000    1.1530 C   0  0  0  0  0  0  0  0  0  0  0  0
   -1.8680    2.2110    1.4650 O   0  0  0  0  0  0  0  0  0  0  0  0
    1.3660    3.0070   -3.3390 H   0  0  0  0  0  0  0  0  0  0  0  0
    1.8230    1.2570   -3.4500 H   0  0  0  0  0  0  0  0  0  0  0  0
    1.3350    4.0610   -0.7660 H   0  0  0  0  0  0  0  0  0  0  0  0
   -0.0590    3.0380   -1.1070 H   0  0  0  0  0  0  0  0  0  0  0  0
    1.9450    2.8340    1.2010 H   0  0  0  0  0  0  0  0  0  0  0  0
    0.2860    3.5120    1.2530 H   0  0  0  0  0  0  0  0  0  0  0  0
    0.5690    1.4420    2.3930 H   0  0  0  0  0  0  0  0  0  0  0  0
    0.9040   -0.1450   -0.1380 H   0  0  0  0  0  0  0  0  0  0  0  0
   -2.1130   -2.5750   -0.7550 N   0  0  0  0  0  0  0  0  0  0  0  0
   -2.9710   -1.6660   -1.4080 C   0  0  0  0  0  0  0  0  0  0  0  0
   -3.2940   -1.9700   -2.5990 O   0  0  0  0  0  0  0  0  0  0  0  0
   -3.5100   -0.4300   -0.8370 C   0  0  0  0  0  0  0  0  0  0  0  0
   -3.0670   -0.0950    0.5440 C   0  0  2  0  0  0  0  0  0  0  0  0
   -1.6170    0.0750    0.6680 N   0  0  0  0  0  0  0  0  0  0  0  0
   -3.5010   -1.1620    1.4750 C   0  0  0  0  0  0  0  0  0  0  0  0
   -2.6980   -1.7550    2.2340 O   0  0  0  0  0  0  0  0  0  0  0  0
   -4.8340   -1.5330    1.5260 O   0  0  0  0  0  0  0  0  0  0  0  0
   -1.0820   -2.6000   -1.0020 H   0  0  0  0  0  0  0  0  0  0  0  0
   -2.4260   -3.2550   -0.0210 H   0  0  0  0  0  0  0  0  0  0  0  0
   -4.6280   -0.4030   -0.8620 H   0  0  0  0  0  0  0  0  0  0  0  0
   -3.1580    0.4020   -1.4980 H   0  0  0  0  0  0  0  0  0  0  0  0
   -3.5590    0.8630    0.9010 H   0  0  0  0  0  0  0  0  0  0  0  0
   -0.9660   -0.6940    0.4070 H   0  0  0  0  0  0  0  0  0  0  0  0
  1 11  1  0  0  0  0
  1 10  1  0  0  0  0
  1  9  1  0  0  0  0
  2  1  1  0  0  0  0
  3 12  1  0  0  0  0
  3  2  1  0  0  0  0
  4  5  1  0  0  0  0
  4  3  1  0  0  0  0
  5 16  1  6  0  0  0
  5  7  1  0  0  0  0
  5  6  1  0  0  0  0
  6 18  1  0  0  0  0
  7  8  2  0  0  0  0
 13  3  1  0  0  0  0
 14  4  1  0  0  0  0
 15  4  1  0  0  0  0
 17  6  1  0  0  0  0
 19 20  1  0  0  0  0
 20 21  2  0  0  0  0
 20 22  1  0  0  0  0
 22 23  1  0  0  0  0
 23 32  1  0  0  0  0
 23 33  1  0  0  0  0
 23 24  1  0  0  0  0
 24 34  1  1  0  0  0
 25 24  1  0  0  0  0
 25  7  1  0  0  0  0
 26 24  1  0  0  0  0
 26 27  2  0  0  0  0
 28 19  1  0  0  0  0
 29 19  1  0  0  0  0
 30 22  1  0  0  0  0
 31 22  1  0  0  0  0
 35 25  1  0  0  0  0
 36 46  1  0  0  0  0
 37 39  1  0  0  0  0
 37 36  1  0  0  0  0
 38 37  2  0  0  0  0
 39 40  1  0  0  0  0
 40 41  1  0  0  0  0
 40 49  1  1  0  0  0
 40 42  1  0  0  0  0
 41 26  1  0  0  0  0
 42 44  2  0  0  0  0
 42 43  1  0  0  0  0
 45 36  1  0  0  0  0
 47 39  1  0  0  0  0
 48 39  1  0  0  0  0
 50 41  1  0  0  0  0
M  END
$$$$
