MQQ.pdb
 OpenBabel07022418553D

 53 52  0  0  1  0  0  0  0  0999 V2000
    1.9290   -4.3030    4.5560 C   0  0  0  0  0  0  0  0  0  0  0  0
    3.2170   -4.4540    3.3320 S   0  0  0  0  0  0  0  0  0  0  0  0
    3.2660   -3.2360    2.0600 C   0  0  0  0  0  0  0  0  0  0  0  0
    3.6650   -1.8600    2.3570 C   0  0  0  0  0  0  0  0  0  0  0  0
    2.9340   -1.0320    3.3200 C   0  0  2  0  0  0  0  0  0  0  0  0
    2.8760   -1.4880    4.6720 N   0  0  0  0  0  0  0  0  0  0  0  0
    1.5580   -0.6410    2.8340 C   0  0  0  0  0  0  0  0  0  0  0  0
    0.5570   -0.7710    3.5690 O   0  0  0  0  0  0  0  0  0  0  0  0
    2.3820   -4.0420    5.5330 H   0  0  0  0  0  0  0  0  0  0  0  0
    1.1400   -3.5720    4.3050 H   0  0  0  0  0  0  0  0  0  0  0  0
    1.4340   -5.3100    4.7640 H   0  0  0  0  0  0  0  0  0  0  0  0
    2.2620   -3.2930    1.5130 H   0  0  0  0  0  0  0  0  0  0  0  0
    3.9520   -3.6480    1.2450 H   0  0  0  0  0  0  0  0  0  0  0  0
    3.6940   -1.3040    1.3680 H   0  0  0  0  0  0  0  0  0  0  0  0
    4.7720   -1.8620    2.6370 H   0  0  0  0  0  0  0  0  0  0  0  0
    3.4680   -0.0320    3.3680 H   0  0  0  0  0  0  0  0  0  0  0  0
    3.8560   -1.6480    4.9970 H   0  0  0  0  0  0  0  0  0  0  0  0
    2.4430   -0.7580    5.2530 H   0  0  0  0  0  0  0  0  0  0  0  0
    1.4680    4.3920   -1.6390 N   0  0  0  0  0  0  0  0  0  0  0  0
    0.6830    3.6370   -0.7080 C   0  0  0  0  0  0  0  0  0  0  0  0
   -0.2560    4.2580   -0.1440 O   0  0  0  0  0  0  0  0  0  0  0  0
    0.9790    2.2020   -0.4380 C   0  0  0  0  0  0  0  0  0  0  0  0
    0.0020    1.7010    0.5650 C   0  0  0  0  0  0  0  0  0  0  0  0
    0.1350    0.2840    0.9650 C   0  0  2  0  0  0  0  0  0  0  0  0
    1.3610   -0.1240    1.5580 N   0  0  0  0  0  0  0  0  0  0  0  0
   -0.1710   -0.6660   -0.1260 C   0  0  0  0  0  0  0  0  0  0  0  0
    0.6130   -1.6130   -0.3640 O   0  0  0  0  0  0  0  0  0  0  0  0
    1.6860    3.9550   -2.5660 H   0  0  0  0  0  0  0  0  0  0  0  0
    1.8330    5.3360   -1.4580 H   0  0  0  0  0  0  0  0  0  0  0  0
    0.9170    1.6820   -1.4090 H   0  0  0  0  0  0  0  0  0  0  0  0
    2.0340    2.1530   -0.1150 H   0  0  0  0  0  0  0  0  0  0  0  0
   -1.0120    1.8210    0.1200 H   0  0  0  0  0  0  0  0  0  0  0  0
    0.0080    2.3480    1.4540 H   0  0  0  0  0  0  0  0  0  0  0  0
   -0.6650    0.1090    1.7480 H   0  0  0  0  0  0  0  0  0  0  0  0
    2.2100   -0.0100    0.9340 H   0  0  0  0  0  0  0  0  0  0  0  0
   -6.4890   -1.4750   -0.8400 N   0  0  0  0  0  0  0  0  0  0  0  0
   -5.2520   -2.1260   -1.0670 C   0  0  0  0  0  0  0  0  0  0  0  0
   -5.1940   -3.3670   -0.9480 O   0  0  0  0  0  0  0  0  0  0  0  0
   -4.0130   -1.3870   -1.4450 C   0  0  0  0  0  0  0  0  0  0  0  0
   -2.8490   -2.3070   -1.6300 C   0  0  0  0  0  0  0  0  0  0  0  0
   -1.6110   -1.5270   -2.0170 C   0  0  2  0  0  0  0  0  0  0  0  0
   -1.3250   -0.5940   -0.9580 N   0  0  0  0  0  0  0  0  0  0  0  0
   -1.8430   -0.8940   -3.3140 C   0  0  0  0  0  0  0  0  0  0  0  0
   -2.1030   -1.5920   -4.3250 O   0  0  0  0  0  0  0  0  0  0  0  0
   -1.7860    0.4690   -3.4680 O   0  0  0  0  0  0  0  0  0  0  0  0
   -6.7320   -0.6650   -1.4460 H   0  0  0  0  0  0  0  0  0  0  0  0
   -7.1650   -1.7660   -0.0970 H   0  0  0  0  0  0  0  0  0  0  0  0
   -4.2370   -0.8860   -2.4160 H   0  0  0  0  0  0  0  0  0  0  0  0
   -3.8350   -0.5890   -0.7090 H   0  0  0  0  0  0  0  0  0  0  0  0
   -3.0610   -3.1190   -2.3340 H   0  0  0  0  0  0  0  0  0  0  0  0
   -2.6600   -2.7970   -0.6300 H   0  0  0  0  0  0  0  0  0  0  0  0
   -0.8110   -2.2910   -2.1370 H   0  0  0  0  0  0  0  0  0  0  0  0
   -1.9760    0.1970   -0.7600 H   0  0  0  0  0  0  0  0  0  0  0  0
  1 11  1  0  0  0  0
  1  9  1  0  0  0  0
  2  1  1  0  0  0  0
  3  4  1  0  0  0  0
  3  2  1  0  0  0  0
  4 15  1  0  0  0  0
  4  5  1  0  0  0  0
  5 16  1  1  0  0  0
  5  6  1  0  0  0  0
  6 17  1  0  0  0  0
  6 18  1  0  0  0  0
  7  5  1  0  0  0  0
  7  8  2  0  0  0  0
 10  1  1  0  0  0  0
 12  3  1  0  0  0  0
 13  3  1  0  0  0  0
 14  4  1  0  0  0  0
 19 29  1  0  0  0  0
 19 20  1  0  0  0  0
 20 22  1  0  0  0  0
 20 21  2  0  0  0  0
 22 31  1  0  0  0  0
 22 23  1  0  0  0  0
 23 24  1  0  0  0  0
 23 33  1  0  0  0  0
 24 25  1  0  0  0  0
 24 34  1  1  0  0  0
 25  7  1  0  0  0  0
 26 24  1  0  0  0  0
 27 26  2  0  0  0  0
 28 19  1  0  0  0  0
 30 22  1  0  0  0  0
 32 23  1  0  0  0  0
 35 25  1  0  0  0  0
 36 47  1  0  0  0  0
 37 38  2  0  0  0  0
 37 36  1  0  0  0  0
 39 37  1  0  0  0  0
 39 49  1  0  0  0  0
 40 39  1  0  0  0  0
 40 51  1  0  0  0  0
 41 52  1  6  0  0  0
 41 40  1  0  0  0  0
 41 42  1  0  0  0  0
 42 53  1  0  0  0  0
 42 26  1  0  0  0  0
 43 41  1  0  0  0  0
 44 43  2  0  0  0  0
 45 43  1  0  0  0  0
 46 36  1  0  0  0  0
 48 39  1  0  0  0  0
 50 40  1  0  0  0  0
M  END
$$$$
