MQV.pdb
 OpenBabel07022418553D

 52 51  0  0  1  0  0  0  0  0999 V2000
   -0.6430   -4.0100    3.8340 C   0  0  0  0  0  0  0  0  0  0  0  0
   -0.7590   -2.9500    5.3030 S   0  0  0  0  0  0  0  0  0  0  0  0
   -0.2700   -1.2470    4.8450 C   0  0  0  0  0  0  0  0  0  0  0  0
    1.1990   -1.2920    4.4860 C   0  0  0  0  0  0  0  0  0  0  0  0
    1.7480    0.0460    4.0840 C   0  0  2  0  0  0  0  0  0  0  0  0
    1.6270    1.0370    5.1250 N   0  0  0  0  0  0  0  0  0  0  0  0
    1.1870    0.5490    2.8040 C   0  0  0  0  0  0  0  0  0  0  0  0
    0.6970    1.7050    2.7110 O   0  0  0  0  0  0  0  0  0  0  0  0
   -1.6410   -3.9500    3.3160 H   0  0  0  0  0  0  0  0  0  0  0  0
    0.1590   -3.6420    3.1350 H   0  0  0  0  0  0  0  0  0  0  0  0
   -0.4850   -5.0700    4.0810 H   0  0  0  0  0  0  0  0  0  0  0  0
   -0.4690   -0.6130    5.7080 H   0  0  0  0  0  0  0  0  0  0  0  0
   -0.9030   -0.9010    4.0040 H   0  0  0  0  0  0  0  0  0  0  0  0
    1.4060   -2.0150    3.6790 H   0  0  0  0  0  0  0  0  0  0  0  0
    1.7630   -1.6240    5.3750 H   0  0  0  0  0  0  0  0  0  0  0  0
    2.8590   -0.1170    3.9510 H   0  0  0  0  0  0  0  0  0  0  0  0
    1.7510    0.6470    6.0670 H   0  0  0  0  0  0  0  0  0  0  0  0
    2.3200    1.8100    5.0100 H   0  0  0  0  0  0  0  0  0  0  0  0
    5.1510    1.0230   -1.6630 N   0  0  0  0  0  0  0  0  0  0  0  0
    3.8740    0.4290   -1.6470 C   0  0  0  0  0  0  0  0  0  0  0  0
    3.5210   -0.3390   -2.6070 O   0  0  0  0  0  0  0  0  0  0  0  0
    2.9590    0.7060   -0.5140 C   0  0  0  0  0  0  0  0  0  0  0  0
    1.6690   -0.0520   -0.7290 C   0  0  0  0  0  0  0  0  0  0  0  0
    0.6670    0.1550    0.3690 C   0  0  2  0  0  0  0  0  0  0  0  0
    1.2000   -0.2840    1.6510 N   0  0  0  0  0  0  0  0  0  0  0  0
   -0.5130   -0.6860    0.0640 C   0  0  0  0  0  0  0  0  0  0  0  0
   -0.8720   -1.5630    0.8530 O   0  0  0  0  0  0  0  0  0  0  0  0
    5.8710    0.6980   -2.3320 H   0  0  0  0  0  0  0  0  0  0  0  0
    5.3790    1.7880   -1.0080 H   0  0  0  0  0  0  0  0  0  0  0  0
    2.7900    1.7970   -0.4850 H   0  0  0  0  0  0  0  0  0  0  0  0
    3.4840    0.4330    0.4070 H   0  0  0  0  0  0  0  0  0  0  0  0
    1.2200    0.3450   -1.6650 H   0  0  0  0  0  0  0  0  0  0  0  0
    1.8540   -1.1140   -0.8740 H   0  0  0  0  0  0  0  0  0  0  0  0
    0.2910    1.1970    0.4270 H   0  0  0  0  0  0  0  0  0  0  0  0
    1.6140   -1.2350    1.7680 H   0  0  0  0  0  0  0  0  0  0  0  0
   -4.8230   -1.3620   -1.9480 C   0  0  0  0  0  0  0  0  0  0  0  0
   -3.6700   -0.4800   -1.5980 C   0  0  0  0  0  0  0  0  0  0  0  0
   -3.5910    0.6560   -2.5750 C   0  0  0  0  0  0  0  0  0  0  0  0
   -2.4200   -1.2900   -1.4960 C   0  0  2  0  0  0  0  0  0  0  0  0
   -1.2580   -0.4900   -1.1570 N   0  0  0  0  0  0  0  0  0  0  0  0
   -2.1640   -2.1300   -2.7020 C   0  0  0  0  0  0  0  0  0  0  0  0
   -3.0100   -2.9150   -3.1910 O   0  0  0  0  0  0  0  0  0  0  0  0
   -0.9280   -2.0860   -3.3720 O   0  0  0  0  0  0  0  0  0  0  0  0
   -4.8890   -1.5440   -3.0600 H   0  0  0  0  0  0  0  0  0  0  0  0
   -5.8110   -0.8820   -1.6860 H   0  0  0  0  0  0  0  0  0  0  0  0
   -4.8330   -2.3320   -1.4170 H   0  0  0  0  0  0  0  0  0  0  0  0
   -3.8650   -0.0460   -0.5930 H   0  0  0  0  0  0  0  0  0  0  0  0
   -4.6300    0.8540   -2.9220 H   0  0  0  0  0  0  0  0  0  0  0  0
   -3.0040    0.4270   -3.4820 H   0  0  0  0  0  0  0  0  0  0  0  0
   -3.2630    1.6150   -2.0830 H   0  0  0  0  0  0  0  0  0  0  0  0
   -2.5650   -1.9980   -0.6520 H   0  0  0  0  0  0  0  0  0  0  0  0
   -0.8860    0.2720   -1.7660 H   0  0  0  0  0  0  0  0  0  0  0  0
  1 11  1  0  0  0  0
  1  2  1  0  0  0  0
  3  2  1  0  0  0  0
  3 12  1  0  0  0  0
  4  3  1  0  0  0  0
  4 15  1  0  0  0  0
  5 16  1  6  0  0  0
  5  4  1  0  0  0  0
  5  6  1  0  0  0  0
  6 17  1  0  0  0  0
  7  5  1  0  0  0  0
  8  7  2  0  0  0  0
  9  1  1  0  0  0  0
 10  1  1  0  0  0  0
 13  3  1  0  0  0  0
 14  4  1  0  0  0  0
 18  6  1  0  0  0  0
 19 20  1  0  0  0  0
 19 29  1  0  0  0  0
 20 22  1  0  0  0  0
 21 20  2  0  0  0  0
 22 30  1  0  0  0  0
 22 31  1  0  0  0  0
 23 22  1  0  0  0  0
 23 24  1  0  0  0  0
 24 34  1  1  0  0  0
 24 25  1  0  0  0  0
 25 35  1  0  0  0  0
 25  7  1  0  0  0  0
 26 24  1  0  0  0  0
 26 27  2  0  0  0  0
 28 19  1  0  0  0  0
 32 23  1  0  0  0  0
 33 23  1  0  0  0  0
 36 45  1  0  0  0  0
 36 37  1  0  0  0  0
 36 46  1  0  0  0  0
 37 39  1  0  0  0  0
 37 47  1  0  0  0  0
 38 50  1  0  0  0  0
 38 37  1  0  0  0  0
 39 40  1  0  0  0  0
 39 51  1  1  0  0  0
 40 26  1  0  0  0  0
 41 39  1  0  0  0  0
 42 41  1  0  0  0  0
 43 41  2  0  0  0  0
 44 36  1  0  0  0  0
 48 38  1  0  0  0  0
 49 38  1  0  0  0  0
 52 40  1  0  0  0  0
M  END
$$$$
