MQY.pdb
 OpenBabel07022418553D

 57 57  0  0  1  0  0  0  0  0999 V2000
   -3.6120    0.4860    1.4270 C   0  0  0  0  0  0  0  0  0  0  0  0
   -3.7050    1.4180    2.9690 S   0  0  0  0  0  0  0  0  0  0  0  0
   -3.2420    0.4630    4.4010 C   0  0  0  0  0  0  0  0  0  0  0  0
   -1.8180    0.0410    4.4930 C   0  0  0  0  0  0  0  0  0  0  0  0
   -0.8480    1.1980    4.4820 C   0  0  2  0  0  0  0  0  0  0  0  0
   -1.1080    2.1290    5.5400 N   0  0  0  0  0  0  0  0  0  0  0  0
   -0.5480    1.7690    3.1680 C   0  0  0  0  0  0  0  0  0  0  0  0
   -0.8720    2.9490    2.8950 O   0  0  0  0  0  0  0  0  0  0  0  0
   -4.4590   -0.2260    1.3280 H   0  0  0  0  0  0  0  0  0  0  0  0
   -3.5720    1.1480    0.5500 H   0  0  0  0  0  0  0  0  0  0  0  0
   -2.6550   -0.1010    1.4450 H   0  0  0  0  0  0  0  0  0  0  0  0
   -3.5980    0.9330    5.3580 H   0  0  0  0  0  0  0  0  0  0  0  0
   -3.8420   -0.4970    4.3590 H   0  0  0  0  0  0  0  0  0  0  0  0
   -1.6760   -0.4690    5.4790 H   0  0  0  0  0  0  0  0  0  0  0  0
   -1.4990   -0.6630    3.7220 H   0  0  0  0  0  0  0  0  0  0  0  0
    0.1470    0.7000    4.8010 H   0  0  0  0  0  0  0  0  0  0  0  0
   -0.8330    3.1110    5.3260 H   0  0  0  0  0  0  0  0  0  0  0  0
   -0.7300    1.8530    6.4610 H   0  0  0  0  0  0  0  0  0  0  0  0
    4.6970   -0.0830    0.8770 N   0  0  0  0  0  0  0  0  0  0  0  0
    3.4200    0.4930    0.5280 C   0  0  0  0  0  0  0  0  0  0  0  0
    2.8370   -0.0190   -0.4230 O   0  0  0  0  0  0  0  0  0  0  0  0
    2.9550    1.6020    1.3190 C   0  0  0  0  0  0  0  0  0  0  0  0
    1.7530    2.3440    0.9450 C   0  0  0  0  0  0  0  0  0  0  0  0
    0.4220    1.6210    0.9030 C   0  0  2  0  0  0  0  0  0  0  0  0
    0.1210    1.0240    2.1630 N   0  0  0  0  0  0  0  0  0  0  0  0
    0.2220    0.7650   -0.2410 C   0  0  0  0  0  0  0  0  0  0  0  0
    0.3970    1.1860   -1.4500 O   0  0  0  0  0  0  0  0  0  0  0  0
    4.8520   -0.3440    1.8670 H   0  0  0  0  0  0  0  0  0  0  0  0
    5.4330   -0.2250    0.1310 H   0  0  0  0  0  0  0  0  0  0  0  0
    2.8320    1.2960    2.4150 H   0  0  0  0  0  0  0  0  0  0  0  0
    3.8040    2.3880    1.3670 H   0  0  0  0  0  0  0  0  0  0  0  0
    1.6190    3.2290    1.6270 H   0  0  0  0  0  0  0  0  0  0  0  0
    1.8390    2.8200   -0.0840 H   0  0  0  0  0  0  0  0  0  0  0  0
   -0.3080    2.5240    0.7570 H   0  0  0  0  0  0  0  0  0  0  0  0
    0.4120    0.0300    2.3220 H   0  0  0  0  0  0  0  0  0  0  0  0
    0.5350   -6.2460   -5.5900 O   0  0  0  0  0  0  0  0  0  0  0  0
    0.4950   -5.3740   -4.4880 C   0  0  0  0  0  0  0  0  0  0  0  0
   -0.4530   -5.4900   -3.4930 C   0  0  0  0  0  0  0  0  0  0  0  0
   -0.4520   -4.6170   -2.4340 C   0  0  0  0  0  0  0  0  0  0  0  0
    0.4870   -3.5950   -2.3130 C   0  0  0  0  0  0  0  0  0  0  0  0
    0.5250   -2.6710   -1.1850 C   0  0  0  0  0  0  0  0  0  0  0  0
   -0.3210   -1.4220   -1.3500 C   0  0  2  0  0  0  0  0  0  0  0  0
   -0.1790   -0.6080   -0.1470 N   0  0  0  0  0  0  0  0  0  0  0  0
   -1.7260   -1.7050   -1.6970 C   0  0  0  0  0  0  0  0  0  0  0  0
   -2.7030   -1.3670   -1.0120 O   0  0  0  0  0  0  0  0  0  0  0  0
    1.4450   -3.4700   -3.3120 C   0  0  0  0  0  0  0  0  0  0  0  0
    1.4180   -4.3630   -4.3650 C   0  0  0  0  0  0  0  0  0  0  0  0
   -1.9970   -2.4010   -2.8750 O   0  0  0  0  0  0  0  0  0  0  0  0
    1.1430   -6.0140   -6.3560 H   0  0  0  0  0  0  0  0  0  0  0  0
   -1.1800   -6.2880   -3.5870 H   0  0  0  0  0  0  0  0  0  0  0  0
   -1.1970   -4.6970   -1.6420 H   0  0  0  0  0  0  0  0  0  0  0  0
    1.5840   -2.3550   -1.0270 H   0  0  0  0  0  0  0  0  0  0  0  0
    0.2340   -3.1920   -0.2460 H   0  0  0  0  0  0  0  0  0  0  0  0
    0.1290   -0.8330   -2.1940 H   0  0  0  0  0  0  0  0  0  0  0  0
   -0.3780   -1.0670    0.7630 H   0  0  0  0  0  0  0  0  0  0  0  0
    2.2050   -2.6720   -3.2520 H   0  0  0  0  0  0  0  0  0  0  0  0
    2.1710   -4.2880   -5.1710 H   0  0  0  0  0  0  0  0  0  0  0  0
  1 11  1  0  0  0  0
  1  2  1  0  0  0  0
  2  3  1  0  0  0  0
  3  4  1  0  0  0  0
  3 12  1  0  0  0  0
  4 14  1  0  0  0  0
  5  4  1  0  0  0  0
  5 16  1  1  0  0  0
  5  6  1  0  0  0  0
  6 18  1  0  0  0  0
  7  5  1  0  0  0  0
  8  7  2  0  0  0  0
  9  1  1  0  0  0  0
 10  1  1  0  0  0  0
 13  3  1  0  0  0  0
 15  4  1  0  0  0  0
 17  6  1  0  0  0  0
 19 28  1  0  0  0  0
 20 19  1  0  0  0  0
 20 22  1  0  0  0  0
 21 20  2  0  0  0  0
 22 31  1  0  0  0  0
 22 30  1  0  0  0  0
 23 22  1  0  0  0  0
 23 32  1  0  0  0  0
 24 34  1  6  0  0  0
 24 23  1  0  0  0  0
 24 25  1  0  0  0  0
 25 35  1  0  0  0  0
 25  7  1  0  0  0  0
 26 43  1  0  0  0  0
 26 24  1  0  0  0  0
 27 26  2  0  0  0  0
 29 19  1  0  0  0  0
 33 23  1  0  0  0  0
 36 37  1  0  0  0  0
 37 47  2  0  0  0  0
 37 38  1  0  0  0  0
 38 39  2  0  0  0  0
 39 40  1  0  0  0  0
 39 51  1  0  0  0  0
 40 41  1  0  0  0  0
 41 52  1  0  0  0  0
 41 53  1  0  0  0  0
 42 54  1  6  0  0  0
 42 41  1  0  0  0  0
 42 43  1  0  0  0  0
 43 55  1  0  0  0  0
 44 42  1  0  0  0  0
 44 45  1  0  0  0  0
 46 56  1  0  0  0  0
 46 40  2  0  0  0  0
 47 46  1  0  0  0  0
 48 44  2  0  0  0  0
 49 36  1  0  0  0  0
 50 38  1  0  0  0  0
 57 47  1  0  0  0  0
M  END
$$$$
