MRC.pdb
 OpenBabel07022418533D

 53 52  0  0  1  0  0  0  0  0999 V2000
    2.6270   -4.8500    1.8270 C   0  0  0  0  0  0  0  0  0  0  0  0
    2.8300   -4.4930    0.0950 S   0  0  0  0  0  0  0  0  0  0  0  0
    2.0090   -3.1120   -0.6050 C   0  0  0  0  0  0  0  0  0  0  0  0
    2.4870   -1.7300   -0.3710 C   0  0  0  0  0  0  0  0  0  0  0  0
    2.4890   -1.2920    1.0390 C   0  0  2  0  0  0  0  0  0  0  0  0
    3.3560   -2.1090    1.8380 N   0  0  0  0  0  0  0  0  0  0  0  0
    1.1470   -1.2270    1.6570 C   0  0  0  0  0  0  0  0  0  0  0  0
    0.9590   -1.7620    2.7650 O   0  0  0  0  0  0  0  0  0  0  0  0
    2.2860   -5.9310    1.9770 H   0  0  0  0  0  0  0  0  0  0  0  0
    3.5350   -4.6940    2.4600 H   0  0  0  0  0  0  0  0  0  0  0  0
    1.7970   -4.2750    2.2600 H   0  0  0  0  0  0  0  0  0  0  0  0
    0.9380   -3.1110   -0.1570 H   0  0  0  0  0  0  0  0  0  0  0  0
    1.8180   -3.2680   -1.7280 H   0  0  0  0  0  0  0  0  0  0  0  0
    3.5580   -1.5930   -0.7540 H   0  0  0  0  0  0  0  0  0  0  0  0
    1.8270   -1.0500   -0.9930 H   0  0  0  0  0  0  0  0  0  0  0  0
    2.9660   -0.2570    1.0520 H   0  0  0  0  0  0  0  0  0  0  0  0
    3.5330   -1.7250    2.7870 H   0  0  0  0  0  0  0  0  0  0  0  0
    4.2720   -2.1950    1.3170 H   0  0  0  0  0  0  0  0  0  0  0  0
    2.7670    3.3280    2.2020 N   0  0  0  0  0  0  0  0  0  0  0  0
    1.6060    3.3730    1.4160 C   0  0  0  0  0  0  0  0  0  0  0  0
    1.6190    3.9420    0.2510 N   0  0  0  0  0  0  0  0  0  0  0  0
    0.3860    2.8010    1.8680 N   0  0  0  0  0  0  0  0  0  0  0  0
   -0.6830    2.5250    0.9130 C   0  0  0  0  0  0  0  0  0  0  0  0
   -1.8500    1.9300    1.6260 C   0  0  0  0  0  0  0  0  0  0  0  0
   -1.6510    0.6910    2.3840 C   0  0  0  0  0  0  0  0  0  0  0  0
   -1.2180   -0.5560    1.7000 C   0  0  2  0  0  0  0  0  0  0  0  0
    0.0300   -0.5640    1.0280 N   0  0  0  0  0  0  0  0  0  0  0  0
   -2.3500   -1.0150    0.8500 C   0  0  0  0  0  0  0  0  0  0  0  0
   -3.5000   -1.0570    1.3110 O   0  0  0  0  0  0  0  0  0  0  0  0
    3.7160    3.2460    1.7520 H   0  0  0  0  0  0  0  0  0  0  0  0
    2.7350    3.3740    3.2470 H   0  0  0  0  0  0  0  0  0  0  0  0
    2.4580    4.3870   -0.1660 H   0  0  0  0  0  0  0  0  0  0  0  0
    0.2560    2.5830    2.8650 H   0  0  0  0  0  0  0  0  0  0  0  0
   -1.0240    3.5750    0.5690 H   0  0  0  0  0  0  0  0  0  0  0  0
   -0.3440    1.9860    0.0350 H   0  0  0  0  0  0  0  0  0  0  0  0
   -2.1960    2.7370    2.3570 H   0  0  0  0  0  0  0  0  0  0  0  0
   -2.7400    1.8340    0.9430 H   0  0  0  0  0  0  0  0  0  0  0  0
   -1.0280    0.8930    3.3100 H   0  0  0  0  0  0  0  0  0  0  0  0
   -2.6730    0.4340    2.8390 H   0  0  0  0  0  0  0  0  0  0  0  0
   -1.1890   -1.3390    2.5400 H   0  0  0  0  0  0  0  0  0  0  0  0
    0.2340   -0.1540    0.0930 H   0  0  0  0  0  0  0  0  0  0  0  0
   -2.1220   -1.4080   -0.4900 N   0  0  0  0  0  0  0  0  0  0  0  0
   -3.1600   -1.8560   -1.3530 C   0  0  1  0  0  0  0  0  0  0  0  0
   -3.3030   -1.0300   -2.6130 C   0  0  0  0  0  0  0  0  0  0  0  0
   -4.6710   -1.7590   -3.5700 S   0  0  0  0  0  0  0  0  0  0  0  0
   -2.8630   -3.2400   -1.7810 C   0  0  0  0  0  0  0  0  0  0  0  0
   -1.8210   -3.7910   -1.3640 O   0  0  0  0  0  0  0  0  0  0  0  0
   -3.6850   -3.9670   -2.6280 O   0  0  0  0  0  0  0  0  0  0  0  0
   -1.1400   -1.3590   -0.8410 H   0  0  0  0  0  0  0  0  0  0  0  0
   -4.1700   -1.8540   -0.8460 H   0  0  0  0  0  0  0  0  0  0  0  0
   -2.3400   -1.0940   -3.1550 H   0  0  0  0  0  0  0  0  0  0  0  0
   -3.5890    0.0170   -2.4120 H   0  0  0  0  0  0  0  0  0  0  0  0
   -5.7880   -1.7970   -2.6840 H   0  0  0  0  0  0  0  0  0  0  0  0
  1  9  1  0  0  0  0
  1 11  1  0  0  0  0
  1 10  1  0  0  0  0
  2  1  1  0  0  0  0
  3  4  1  0  0  0  0
  3 12  1  0  0  0  0
  3  2  1  0  0  0  0
  4  5  1  0  0  0  0
  5 16  1  1  0  0  0
  5  7  1  0  0  0  0
  5  6  1  0  0  0  0
  6 17  1  0  0  0  0
  7  8  2  0  0  0  0
 13  3  1  0  0  0  0
 14  4  1  0  0  0  0
 15  4  1  0  0  0  0
 18  6  1  0  0  0  0
 19 31  1  0  0  0  0
 20 22  1  0  0  0  0
 20 19  1  0  0  0  0
 21 20  2  0  0  0  0
 22 33  1  0  0  0  0
 23 24  1  0  0  0  0
 23 22  1  0  0  0  0
 24 36  1  0  0  0  0
 24 25  1  0  0  0  0
 25 39  1  0  0  0  0
 25 38  1  0  0  0  0
 26 25  1  0  0  0  0
 26 40  1  1  0  0  0
 27  7  1  0  0  0  0
 27 26  1  0  0  0  0
 28 29  2  0  0  0  0
 28 26  1  0  0  0  0
 30 19  1  0  0  0  0
 32 21  1  0  0  0  0
 34 23  1  0  0  0  0
 35 23  1  0  0  0  0
 37 24  1  0  0  0  0
 41 27  1  0  0  0  0
 42 28  1  0  0  0  0
 43 50  1  1  0  0  0
 43 42  1  0  0  0  0
 44 52  1  0  0  0  0
 44 43  1  0  0  0  0
 45 53  1  0  0  0  0
 45 44  1  0  0  0  0
 46 47  1  0  0  0  0
 46 43  1  0  0  0  0
 48 46  2  0  0  0  0
 49 42  1  0  0  0  0
 51 44  1  0  0  0  0
M  END
$$$$
