MRN.pdb
 OpenBabel07022418533D

 56 55  0  0  1  0  0  0  0  0999 V2000
   -5.3270    3.3380   -2.2910 C   0  0  0  0  0  0  0  0  0  0  0  0
   -5.1490    2.2410   -0.8710 S   0  0  0  0  0  0  0  0  0  0  0  0
   -3.6140    2.5580    0.0500 C   0  0  0  0  0  0  0  0  0  0  0  0
   -3.5640    1.5980    1.1950 C   0  0  0  0  0  0  0  0  0  0  0  0
   -2.3070    1.7850    2.0330 C   0  0  2  0  0  0  0  0  0  0  0  0
   -2.3420    3.1530    2.5370 N   0  0  0  0  0  0  0  0  0  0  0  0
   -1.0880    1.6240    1.2030 C   0  0  0  0  0  0  0  0  0  0  0  0
   -0.2900    2.5650    1.0410 O   0  0  0  0  0  0  0  0  0  0  0  0
   -4.9870    4.3610   -2.1140 H   0  0  0  0  0  0  0  0  0  0  0  0
   -6.4160    3.3180   -2.5790 H   0  0  0  0  0  0  0  0  0  0  0  0
   -4.7940    2.8500   -3.1460 H   0  0  0  0  0  0  0  0  0  0  0  0
   -2.7150    2.4050   -0.6110 H   0  0  0  0  0  0  0  0  0  0  0  0
   -3.6220    3.6140    0.3820 H   0  0  0  0  0  0  0  0  0  0  0  0
   -4.4170    1.8520    1.8760 H   0  0  0  0  0  0  0  0  0  0  0  0
   -3.7010    0.5730    0.8590 H   0  0  0  0  0  0  0  0  0  0  0  0
   -2.3090    1.0750    2.8810 H   0  0  0  0  0  0  0  0  0  0  0  0
   -1.7480    3.7710    1.9510 H   0  0  0  0  0  0  0  0  0  0  0  0
   -3.3200    3.4970    2.6480 H   0  0  0  0  0  0  0  0  0  0  0  0
    2.7600   -3.4070    4.7660 N   0  0  0  0  0  0  0  0  0  0  0  0
    2.5740   -3.6350    3.3560 C   0  0  0  0  0  0  0  0  0  0  0  0
    3.1850   -4.6300    2.8410 N   0  0  0  0  0  0  0  0  0  0  0  0
    1.7540   -2.7970    2.5710 N   0  0  0  0  0  0  0  0  0  0  0  0
    1.3430   -3.1970    1.2610 C   0  0  0  0  0  0  0  0  0  0  0  0
    0.4720   -2.1730    0.5780 C   0  0  0  0  0  0  0  0  0  0  0  0
    1.2190   -0.8610    0.4320 C   0  0  0  0  0  0  0  0  0  0  0  0
    0.3690    0.1720   -0.2490 C   0  0  2  0  0  0  0  0  0  0  0  0
   -0.8200    0.3690    0.5760 N   0  0  0  0  0  0  0  0  0  0  0  0
    0.0060   -0.1570   -1.6230 C   0  0  0  0  0  0  0  0  0  0  0  0
   -1.2110   -0.2360   -1.9250 O   0  0  0  0  0  0  0  0  0  0  0  0
    2.6420   -4.1990    5.4190 H   0  0  0  0  0  0  0  0  0  0  0  0
    3.0050   -2.4640    5.1090 H   0  0  0  0  0  0  0  0  0  0  0  0
    3.0800   -4.8290    1.8350 H   0  0  0  0  0  0  0  0  0  0  0  0
    1.4490   -1.8860    2.9520 H   0  0  0  0  0  0  0  0  0  0  0  0
    2.2340   -3.3400    0.5860 H   0  0  0  0  0  0  0  0  0  0  0  0
    0.8150   -4.1630    1.3500 H   0  0  0  0  0  0  0  0  0  0  0  0
   -0.4410   -2.0540    1.1990 H   0  0  0  0  0  0  0  0  0  0  0  0
    0.1510   -2.5840   -0.3890 H   0  0  0  0  0  0  0  0  0  0  0  0
    1.4030   -0.4840    1.4720 H   0  0  0  0  0  0  0  0  0  0  0  0
    2.1930   -1.0230   -0.0180 H   0  0  0  0  0  0  0  0  0  0  0  0
    0.9280    1.1300   -0.2590 H   0  0  0  0  0  0  0  0  0  0  0  0
   -1.5190   -0.3870    0.7420 H   0  0  0  0  0  0  0  0  0  0  0  0
   -0.0490    2.0960   -3.6510 N   0  0  0  0  0  0  0  0  0  0  0  0
    0.8460    1.6770   -4.6660 C   0  0  0  0  0  0  0  0  0  0  0  0
    1.3550    2.5510   -5.4070 O   0  0  0  0  0  0  0  0  0  0  0  0
    1.2260    0.2760   -4.9180 C   0  0  0  0  0  0  0  0  0  0  0  0
    0.5700   -0.7150   -3.9900 C   0  0  2  0  0  0  0  0  0  0  0  0
    0.9530   -0.3930   -2.6370 N   0  0  0  0  0  0  0  0  0  0  0  0
    1.0170   -2.0560   -4.4080 C   0  0  0  0  0  0  0  0  0  0  0  0
    0.7360   -2.4370   -5.5660 O   0  0  0  0  0  0  0  0  0  0  0  0
    1.7260   -2.9160   -3.5970 O   0  0  0  0  0  0  0  0  0  0  0  0
    0.2610    2.6340   -2.8010 H   0  0  0  0  0  0  0  0  0  0  0  0
   -1.0760    1.8770   -3.7130 H   0  0  0  0  0  0  0  0  0  0  0  0
    2.3490    0.2380   -4.8180 H   0  0  0  0  0  0  0  0  0  0  0  0
    0.9990    0.0450   -5.9930 H   0  0  0  0  0  0  0  0  0  0  0  0
   -0.5200   -0.6580   -4.1110 H   0  0  0  0  0  0  0  0  0  0  0  0
    1.9790   -0.3430   -2.4440 H   0  0  0  0  0  0  0  0  0  0  0  0
  1  9  1  0  0  0  0
  1  2  1  0  0  0  0
  2  3  1  0  0  0  0
  3 13  1  0  0  0  0
  3  4  1  0  0  0  0
  4 14  1  0  0  0  0
  4  5  1  0  0  0  0
  5  6  1  0  0  0  0
  5 16  1  1  0  0  0
  6 18  1  0  0  0  0
  7  5  1  0  0  0  0
  8  7  2  0  0  0  0
 10  1  1  0  0  0  0
 11  1  1  0  0  0  0
 12  3  1  0  0  0  0
 15  4  1  0  0  0  0
 17  6  1  0  0  0  0
 19 31  1  0  0  0  0
 19 30  1  0  0  0  0
 20 19  1  0  0  0  0
 21 20  2  0  0  0  0
 22 33  1  0  0  0  0
 22 20  1  0  0  0  0
 23 35  1  0  0  0  0
 23 22  1  0  0  0  0
 24 36  1  0  0  0  0
 24 23  1  0  0  0  0
 25 24  1  0  0  0  0
 25 38  1  0  0  0  0
 26 40  1  6  0  0  0
 26 25  1  0  0  0  0
 26 27  1  0  0  0  0
 27 41  1  0  0  0  0
 27  7  1  0  0  0  0
 28 26  1  0  0  0  0
 29 28  2  0  0  0  0
 32 21  1  0  0  0  0
 34 23  1  0  0  0  0
 37 24  1  0  0  0  0
 39 25  1  0  0  0  0
 42 51  1  0  0  0  0
 43 42  1  0  0  0  0
 44 43  2  0  0  0  0
 45 53  1  0  0  0  0
 45 43  1  0  0  0  0
 45 46  1  0  0  0  0
 46 55  1  6  0  0  0
 46 47  1  0  0  0  0
 47 56  1  0  0  0  0
 47 28  1  0  0  0  0
 48 46  1  0  0  0  0
 48 50  1  0  0  0  0
 49 48  2  0  0  0  0
 52 42  1  0  0  0  0
 54 45  1  0  0  0  0
M  END
$$$$
