MRP.pdb
 OpenBabel07022418533D

 56 56  0  0  1  0  0  0  0  0999 V2000
    1.9620   -5.5780    3.2510 C   0  0  0  0  0  0  0  0  0  0  0  0
    3.3610   -4.5180    2.9630 S   0  0  0  0  0  0  0  0  0  0  0  0
    3.0550   -2.8970    2.3580 C   0  0  0  0  0  0  0  0  0  0  0  0
    2.4530   -1.8750    3.2220 C   0  0  0  0  0  0  0  0  0  0  0  0
    1.1250   -2.0760    3.8220 C   0  0  2  0  0  0  0  0  0  0  0  0
    1.0050   -3.1980    4.7090 N   0  0  0  0  0  0  0  0  0  0  0  0
    0.0050   -2.0220    2.8400 C   0  0  0  0  0  0  0  0  0  0  0  0
   -0.8600   -2.9060    2.8860 O   0  0  0  0  0  0  0  0  0  0  0  0
    1.8440   -5.7670    4.3290 H   0  0  0  0  0  0  0  0  0  0  0  0
    0.9880   -5.1950    2.8540 H   0  0  0  0  0  0  0  0  0  0  0  0
    2.1370   -6.6200    2.8040 H   0  0  0  0  0  0  0  0  0  0  0  0
    2.4970   -2.9940    1.3610 H   0  0  0  0  0  0  0  0  0  0  0  0
    4.0550   -2.4830    1.9880 H   0  0  0  0  0  0  0  0  0  0  0  0
    3.1700   -1.6710    4.0860 H   0  0  0  0  0  0  0  0  0  0  0  0
    2.4480   -0.8600    2.7110 H   0  0  0  0  0  0  0  0  0  0  0  0
    0.9430   -1.1710    4.4910 H   0  0  0  0  0  0  0  0  0  0  0  0
    1.7420   -3.0720    5.4560 H   0  0  0  0  0  0  0  0  0  0  0  0
    0.0890   -3.0950    5.2340 H   0  0  0  0  0  0  0  0  0  0  0  0
    1.6100    5.0470   -1.2460 N   0  0  0  0  0  0  0  0  0  0  0  0
    0.8720    3.8460   -1.3040 C   0  0  0  0  0  0  0  0  0  0  0  0
    0.8700    3.1750   -2.4060 N   0  0  0  0  0  0  0  0  0  0  0  0
    0.1370    3.3660   -0.1870 N   0  0  0  0  0  0  0  0  0  0  0  0
   -0.4850    2.0330   -0.2800 C   0  0  0  0  0  0  0  0  0  0  0  0
   -1.2010    1.6970    0.9610 C   0  0  0  0  0  0  0  0  0  0  0  0
   -1.8840    0.3950    1.0350 C   0  0  0  0  0  0  0  0  0  0  0  0
   -1.0920   -0.8320    0.8890 C   0  0  2  0  0  0  0  0  0  0  0  0
   -0.0600   -1.0070    1.9030 N   0  0  0  0  0  0  0  0  0  0  0  0
   -0.4750   -1.0450   -0.4280 C   0  0  0  0  0  0  0  0  0  0  0  0
    0.8040   -1.3100   -0.4090 O   0  0  0  0  0  0  0  0  0  0  0  0
    1.2340    5.9530   -1.5700 H   0  0  0  0  0  0  0  0  0  0  0  0
    2.5790    5.0020   -0.8540 H   0  0  0  0  0  0  0  0  0  0  0  0
    0.3600    2.2820   -2.5500 H   0  0  0  0  0  0  0  0  0  0  0  0
    0.0300    3.9250    0.6830 H   0  0  0  0  0  0  0  0  0  0  0  0
   -1.1940    2.1370   -1.1560 H   0  0  0  0  0  0  0  0  0  0  0  0
    0.3060    1.3700   -0.6090 H   0  0  0  0  0  0  0  0  0  0  0  0
   -1.8790    2.5500    1.2110 H   0  0  0  0  0  0  0  0  0  0  0  0
   -0.4390    1.7220    1.7990 H   0  0  0  0  0  0  0  0  0  0  0  0
   -2.7230    0.3660    0.3340 H   0  0  0  0  0  0  0  0  0  0  0  0
   -2.4470    0.2860    2.0360 H   0  0  0  0  0  0  0  0  0  0  0  0
   -1.7720   -1.6900    1.0670 H   0  0  0  0  0  0  0  0  0  0  0  0
    0.6770   -0.2810    1.8880 H   0  0  0  0  0  0  0  0  0  0  0  0
   -1.0500   -1.0090   -1.7210 N   0  0  0  0  0  0  0  0  0  0  0  0
   -0.2450   -1.2300   -2.8910 C   0  0  0  0  0  0  0  0  0  0  0  0
   -1.2100   -1.8840   -3.8470 C   0  0  0  0  0  0  0  0  0  0  0  0
   -2.4030   -0.9290   -3.6290 C   0  0  0  0  0  0  0  0  0  0  0  0
   -2.3830   -0.7640   -2.0850 C   0  0  1  0  0  0  0  0  0  0  0  0
   -3.3880   -1.7230   -1.5320 C   0  0  0  0  0  0  0  0  0  0  0  0
   -4.6030   -1.4340   -1.6180 O   0  0  0  0  0  0  0  0  0  0  0  0
   -2.9810   -2.8900   -0.9510 O   0  0  0  0  0  0  0  0  0  0  0  0
    0.0410   -0.2570   -3.3770 H   0  0  0  0  0  0  0  0  0  0  0  0
    0.6490   -1.8500   -2.6950 H   0  0  0  0  0  0  0  0  0  0  0  0
   -1.4800   -2.9090   -3.5090 H   0  0  0  0  0  0  0  0  0  0  0  0
   -0.8800   -1.8800   -4.8880 H   0  0  0  0  0  0  0  0  0  0  0  0
   -2.1510    0.0040   -4.1350 H   0  0  0  0  0  0  0  0  0  0  0  0
   -3.3390   -1.3920   -3.9590 H   0  0  0  0  0  0  0  0  0  0  0  0
   -2.7390    0.2990   -1.9030 H   0  0  0  0  0  0  0  0  0  0  0  0
  1  9  1  0  0  0  0
  2  1  1  0  0  0  0
  3  2  1  0  0  0  0
  3  4  1  0  0  0  0
  4  5  1  0  0  0  0
  4 14  1  0  0  0  0
  5 16  1  1  0  0  0
  5  6  1  0  0  0  0
  6 18  1  0  0  0  0
  6 17  1  0  0  0  0
  7  8  2  0  0  0  0
  7  5  1  0  0  0  0
 10  1  1  0  0  0  0
 11  1  1  0  0  0  0
 12  3  1  0  0  0  0
 13  3  1  0  0  0  0
 15  4  1  0  0  0  0
 19 31  1  0  0  0  0
 20 19  1  0  0  0  0
 20 22  1  0  0  0  0
 21 20  2  0  0  0  0
 22 33  1  0  0  0  0
 23 22  1  0  0  0  0
 23 24  1  0  0  0  0
 24 25  1  0  0  0  0
 24 36  1  0  0  0  0
 24 37  1  0  0  0  0
 25 39  1  0  0  0  0
 26 25  1  0  0  0  0
 26 40  1  1  0  0  0
 26 27  1  0  0  0  0
 27  7  1  0  0  0  0
 28 29  2  0  0  0  0
 28 26  1  0  0  0  0
 30 19  1  0  0  0  0
 32 21  1  0  0  0  0
 34 23  1  0  0  0  0
 35 23  1  0  0  0  0
 38 25  1  0  0  0  0
 41 27  1  0  0  0  0
 42 28  1  0  0  0  0
 43 51  1  0  0  0  0
 43 42  1  0  0  0  0
 44 45  1  0  0  0  0
 44 52  1  0  0  0  0
 44 43  1  0  0  0  0
 45 46  1  0  0  0  0
 46 56  1  1  0  0  0
 46 42  1  0  0  0  0
 46 47  1  0  0  0  0
 47 49  1  0  0  0  0
 48 47  2  0  0  0  0
 50 43  1  0  0  0  0
 53 44  1  0  0  0  0
 54 45  1  0  0  0  0
 55 45  1  0  0  0  0
M  END
$$$$
