MRR.pdb
 OpenBabel07022418533D

 65 64  0  0  1  0  0  0  0  0999 V2000
    1.0130   -2.8280    3.6060 C   0  0  0  0  0  0  0  0  0  0  0  0
    0.3310   -1.8320    4.9610 S   0  0  0  0  0  0  0  0  0  0  0  0
    1.6200   -1.1330    5.9790 C   0  0  0  0  0  0  0  0  0  0  0  0
    2.4530   -0.0770    5.3210 C   0  0  0  0  0  0  0  0  0  0  0  0
    1.6200    1.1210    4.8900 C   0  0  2  0  0  0  0  0  0  0  0  0
    0.9490    1.7010    6.0440 N   0  0  0  0  0  0  0  0  0  0  0  0
    0.6310    0.8120    3.8530 C   0  0  0  0  0  0  0  0  0  0  0  0
   -0.6190    0.7620    4.0990 O   0  0  0  0  0  0  0  0  0  0  0  0
    1.1780   -3.8750    4.0020 H   0  0  0  0  0  0  0  0  0  0  0  0
    1.9940   -2.4310    3.3070 H   0  0  0  0  0  0  0  0  0  0  0  0
    0.3030   -2.8580    2.7660 H   0  0  0  0  0  0  0  0  0  0  0  0
    1.1230   -0.6840    6.8800 H   0  0  0  0  0  0  0  0  0  0  0  0
    2.3200   -1.9190    6.3510 H   0  0  0  0  0  0  0  0  0  0  0  0
    3.2310    0.2870    6.0170 H   0  0  0  0  0  0  0  0  0  0  0  0
    2.9460   -0.4610    4.4100 H   0  0  0  0  0  0  0  0  0  0  0  0
    2.3560    1.8720    4.4830 H   0  0  0  0  0  0  0  0  0  0  0  0
    0.9760    2.7300    5.9290 H   0  0  0  0  0  0  0  0  0  0  0  0
    1.5080    1.4090    6.8850 H   0  0  0  0  0  0  0  0  0  0  0  0
    2.0950    2.2820   -2.7960 N   0  0  0  0  0  0  0  0  0  0  0  0
    0.6690    2.4220   -2.7180 C   0  0  0  0  0  0  0  0  0  0  0  0
   -0.1050    1.8980   -3.6120 N   0  0  0  0  0  0  0  0  0  0  0  0
    0.0960    3.1440   -1.6450 N   0  0  0  0  0  0  0  0  0  0  0  0
   -1.2080    2.8110   -1.1360 C   0  0  0  0  0  0  0  0  0  0  0  0
   -1.1520    1.4540   -0.4490 C   0  0  0  0  0  0  0  0  0  0  0  0
   -0.1650    1.5410    0.6680 C   0  0  0  0  0  0  0  0  0  0  0  0
   -0.0400    0.2450    1.4720 C   0  0  2  0  0  0  0  0  0  0  0  0
    0.9790    0.5500    2.4950 N   0  0  0  0  0  0  0  0  0  0  0  0
    0.4540   -0.8840    0.6750 C   0  0  0  0  0  0  0  0  0  0  0  0
    1.6640   -1.2610    0.8510 O   0  0  0  0  0  0  0  0  0  0  0  0
    2.4750    1.3300   -2.9290 H   0  0  0  0  0  0  0  0  0  0  0  0
    2.7350    3.1120   -2.7210 H   0  0  0  0  0  0  0  0  0  0  0  0
    0.2390    1.3560   -4.4250 H   0  0  0  0  0  0  0  0  0  0  0  0
    0.6720    3.9330   -1.2440 H   0  0  0  0  0  0  0  0  0  0  0  0
   -1.9200    2.7260   -1.9860 H   0  0  0  0  0  0  0  0  0  0  0  0
   -1.5320    3.6030   -0.4510 H   0  0  0  0  0  0  0  0  0  0  0  0
   -2.1510    1.2120   -0.0890 H   0  0  0  0  0  0  0  0  0  0  0  0
   -0.7390    0.7550   -1.2120 H   0  0  0  0  0  0  0  0  0  0  0  0
    0.8260    1.8980    0.3280 H   0  0  0  0  0  0  0  0  0  0  0  0
   -0.5490    2.3010    1.3890 H   0  0  0  0  0  0  0  0  0  0  0  0
   -1.0070    0.0450    1.9600 H   0  0  0  0  0  0  0  0  0  0  0  0
    1.9760    0.5710    2.2040 H   0  0  0  0  0  0  0  0  0  0  0  0
   -3.0510   -0.7170   -2.9030 N   0  0  0  0  0  0  0  0  0  0  0  0
   -3.1940   -2.0310   -2.3940 C   0  0  0  0  0  0  0  0  0  0  0  0
   -4.0490   -2.2470   -1.4630 N   0  0  0  0  0  0  0  0  0  0  0  0
   -2.3840   -3.1000   -2.9210 N   0  0  0  0  0  0  0  0  0  0  0  0
   -2.3380   -4.3600   -2.2500 C   0  0  0  0  0  0  0  0  0  0  0  0
   -1.6840   -4.3730   -0.9420 C   0  0  0  0  0  0  0  0  0  0  0  0
   -0.2800   -4.0480   -0.7470 C   0  0  0  0  0  0  0  0  0  0  0  0
    0.2930   -2.7280   -1.0420 C   0  0  2  0  0  0  0  0  0  0  0  0
   -0.2840   -1.6170   -0.2860 N   0  0  0  0  0  0  0  0  0  0  0  0
    0.4880   -2.3970   -2.4700 C   0  0  0  0  0  0  0  0  0  0  0  0
    0.9780   -3.2890   -3.1980 O   0  0  0  0  0  0  0  0  0  0  0  0
    0.1660   -1.1840   -3.0340 O   0  0  0  0  0  0  0  0  0  0  0  0
   -3.3160    0.1100   -2.3150 H   0  0  0  0  0  0  0  0  0  0  0  0
   -2.6860   -0.5320   -3.8570 H   0  0  0  0  0  0  0  0  0  0  0  0
   -4.6150   -1.4550   -1.1050 H   0  0  0  0  0  0  0  0  0  0  0  0
   -1.8830   -2.8770   -3.8090 H   0  0  0  0  0  0  0  0  0  0  0  0
   -3.4400   -4.6420   -2.1030 H   0  0  0  0  0  0  0  0  0  0  0  0
   -1.9990   -5.1850   -2.9370 H   0  0  0  0  0  0  0  0  0  0  0  0
   -2.3220   -3.8020   -0.1900 H   0  0  0  0  0  0  0  0  0  0  0  0
   -1.8140   -5.4430   -0.5360 H   0  0  0  0  0  0  0  0  0  0  0  0
    0.4120   -4.8070   -1.2240 H   0  0  0  0  0  0  0  0  0  0  0  0
   -0.0610   -4.2340    0.3670 H   0  0  0  0  0  0  0  0  0  0  0  0
    1.3940   -2.8370   -0.6750 H   0  0  0  0  0  0  0  0  0  0  0  0
   -1.2680   -1.3700   -0.4500 H   0  0  0  0  0  0  0  0  0  0  0  0
  1  9  1  0  0  0  0
  1  2  1  0  0  0  0
  2  3  1  0  0  0  0
  3 13  1  0  0  0  0
  3 12  1  0  0  0  0
  4  3  1  0  0  0  0
  4 14  1  0  0  0  0
  5 16  1  6  0  0  0
  5  4  1  0  0  0  0
  5  6  1  0  0  0  0
  6 18  1  0  0  0  0
  7  8  2  0  0  0  0
  7  5  1  0  0  0  0
 10  1  1  0  0  0  0
 11  1  1  0  0  0  0
 15  4  1  0  0  0  0
 17  6  1  0  0  0  0
 19 31  1  0  0  0  0
 19 20  1  0  0  0  0
 20 22  1  0  0  0  0
 21 20  2  0  0  0  0
 22 33  1  0  0  0  0
 22 23  1  0  0  0  0
 23 35  1  0  0  0  0
 23 24  1  0  0  0  0
 24 36  1  0  0  0  0
 24 25  1  0  0  0  0
 25 39  1  0  0  0  0
 25 26  1  0  0  0  0
 26 40  1  1  0  0  0
 26 27  1  0  0  0  0
 27  7  1  0  0  0  0
 28 29  2  0  0  0  0
 28 26  1  0  0  0  0
 30 19  1  0  0  0  0
 32 21  1  0  0  0  0
 34 23  1  0  0  0  0
 37 24  1  0  0  0  0
 38 25  1  0  0  0  0
 41 27  1  0  0  0  0
 42 43  1  0  0  0  0
 42 54  1  0  0  0  0
 43 44  2  0  0  0  0
 44 56  1  0  0  0  0
 45 43  1  0  0  0  0
 45 46  1  0  0  0  0
 46 58  1  0  0  0  0
 46 47  1  0  0  0  0
 47 48  1  0  0  0  0
 47 61  1  0  0  0  0
 47 60  1  0  0  0  0
 48 63  1  0  0  0  0
 49 48  1  0  0  0  0
 49 64  1  1  0  0  0
 49 50  1  0  0  0  0
 50 28  1  0  0  0  0
 51 49  1  0  0  0  0
 52 51  2  0  0  0  0
 53 51  1  0  0  0  0
 55 42  1  0  0  0  0
 57 45  1  0  0  0  0
 59 46  1  0  0  0  0
 62 48  1  0  0  0  0
 65 50  1  0  0  0  0
M  END
$$$$
