MRV.pdb
 OpenBabel07022418533D

 58 57  0  0  1  0  0  0  0  0999 V2000
   -2.5590   -4.4560    4.0130 C   0  0  0  0  0  0  0  0  0  0  0  0
   -1.4780   -5.6530    3.2360 S   0  0  0  0  0  0  0  0  0  0  0  0
   -0.2720   -4.9070    2.1880 C   0  0  0  0  0  0  0  0  0  0  0  0
    0.8510   -4.1610    2.7640 C   0  0  0  0  0  0  0  0  0  0  0  0
    0.6330   -2.9920    3.6230 C   0  0  2  0  0  0  0  0  0  0  0  0
   -0.0800   -3.1820    4.8390 N   0  0  0  0  0  0  0  0  0  0  0  0
    0.0600   -1.8150    2.8860 C   0  0  0  0  0  0  0  0  0  0  0  0
   -0.8910   -1.1770    3.3970 O   0  0  0  0  0  0  0  0  0  0  0  0
   -3.6550   -4.7350    3.8170 H   0  0  0  0  0  0  0  0  0  0  0  0
   -2.4770   -4.4510    5.1140 H   0  0  0  0  0  0  0  0  0  0  0  0
   -2.4890   -3.4380    3.5950 H   0  0  0  0  0  0  0  0  0  0  0  0
   -0.7790   -4.2810    1.3750 H   0  0  0  0  0  0  0  0  0  0  0  0
    0.1760   -5.7440    1.5490 H   0  0  0  0  0  0  0  0  0  0  0  0
    1.5270   -3.8630    1.9160 H   0  0  0  0  0  0  0  0  0  0  0  0
    1.5080   -4.8860    3.3550 H   0  0  0  0  0  0  0  0  0  0  0  0
    1.6620   -2.6250    3.9380 H   0  0  0  0  0  0  0  0  0  0  0  0
    0.4090   -3.9080    5.4150 H   0  0  0  0  0  0  0  0  0  0  0  0
   -0.0640   -2.2880    5.3720 H   0  0  0  0  0  0  0  0  0  0  0  0
    5.3350    3.3340    1.8400 N   0  0  0  0  0  0  0  0  0  0  0  0
    4.8660    2.6590    0.7040 C   0  0  0  0  0  0  0  0  0  0  0  0
    5.3880    2.9220   -0.4690 N   0  0  0  0  0  0  0  0  0  0  0  0
    3.8310    1.6890    0.8000 N   0  0  0  0  0  0  0  0  0  0  0  0
    3.2480    1.2230   -0.4220 C   0  0  0  0  0  0  0  0  0  0  0  0
    2.1490    0.1820   -0.1570 C   0  0  0  0  0  0  0  0  0  0  0  0
    1.0560    0.7800    0.6810 C   0  0  0  0  0  0  0  0  0  0  0  0
   -0.0190   -0.2480    0.9280 C   0  0  2  0  0  0  0  0  0  0  0  0
    0.5440   -1.3830    1.6240 N   0  0  0  0  0  0  0  0  0  0  0  0
   -0.6420   -0.6790   -0.3400 C   0  0  0  0  0  0  0  0  0  0  0  0
   -0.6710   -1.8750   -0.7340 O   0  0  0  0  0  0  0  0  0  0  0  0
    4.7470    4.1420    2.2010 H   0  0  0  0  0  0  0  0  0  0  0  0
    6.2190    3.0450    2.2970 H   0  0  0  0  0  0  0  0  0  0  0  0
    6.1480    3.6260   -0.5720 H   0  0  0  0  0  0  0  0  0  0  0  0
    3.4910    1.3140    1.7140 H   0  0  0  0  0  0  0  0  0  0  0  0
    4.0320    0.6800   -0.9970 H   0  0  0  0  0  0  0  0  0  0  0  0
    2.8350    2.0180   -1.0570 H   0  0  0  0  0  0  0  0  0  0  0  0
    1.7370   -0.0480   -1.1760 H   0  0  0  0  0  0  0  0  0  0  0  0
    2.6060   -0.7190    0.2610 H   0  0  0  0  0  0  0  0  0  0  0  0
    0.6720    1.6630    0.1290 H   0  0  0  0  0  0  0  0  0  0  0  0
    1.4610    1.1680    1.6350 H   0  0  0  0  0  0  0  0  0  0  0  0
   -0.8580    0.1870    1.5390 H   0  0  0  0  0  0  0  0  0  0  0  0
    1.3190   -1.9210    1.2240 H   0  0  0  0  0  0  0  0  0  0  0  0
   -4.1120   -0.1240   -3.5710 C   0  0  0  0  0  0  0  0  0  0  0  0
   -3.3390    0.2500   -2.3270 C   0  0  0  0  0  0  0  0  0  0  0  0
   -4.0040   -0.4150   -1.1580 C   0  0  0  0  0  0  0  0  0  0  0  0
   -1.8840   -0.1340   -2.4590 C   0  0  2  0  0  0  0  0  0  0  0  0
   -1.2560    0.2810   -1.1940 N   0  0  0  0  0  0  0  0  0  0  0  0
   -1.2560    0.5730   -3.5780 C   0  0  0  0  0  0  0  0  0  0  0  0
   -0.3240    1.4030   -3.4060 O   0  0  0  0  0  0  0  0  0  0  0  0
   -1.6710    0.3510   -4.8830 O   0  0  0  0  0  0  0  0  0  0  0  0
   -3.9380    0.5950   -4.3970 H   0  0  0  0  0  0  0  0  0  0  0  0
   -5.1950   -0.1200   -3.2840 H   0  0  0  0  0  0  0  0  0  0  0  0
   -3.8530   -1.1700   -3.8440 H   0  0  0  0  0  0  0  0  0  0  0  0
   -3.4170    1.3710   -2.2450 H   0  0  0  0  0  0  0  0  0  0  0  0
   -4.6790   -1.2180   -1.4900 H   0  0  0  0  0  0  0  0  0  0  0  0
   -4.6410    0.3450   -0.6560 H   0  0  0  0  0  0  0  0  0  0  0  0
   -3.2830   -0.7590   -0.3880 H   0  0  0  0  0  0  0  0  0  0  0  0
   -1.8150   -1.2160   -2.6030 H   0  0  0  0  0  0  0  0  0  0  0  0
   -1.2660    1.2780   -0.9340 H   0  0  0  0  0  0  0  0  0  0  0  0
  1 10  1  0  0  0  0
  2  1  1  0  0  0  0
  3  4  1  0  0  0  0
  3  2  1  0  0  0  0
  4 15  1  0  0  0  0
  4  5  1  0  0  0  0
  5 16  1  1  0  0  0
  5  6  1  0  0  0  0
  6 18  1  0  0  0  0
  6 17  1  0  0  0  0
  7  8  2  0  0  0  0
  7  5  1  0  0  0  0
  9  1  1  0  0  0  0
 11  1  1  0  0  0  0
 12  3  1  0  0  0  0
 13  3  1  0  0  0  0
 14  4  1  0  0  0  0
 19 30  1  0  0  0  0
 19 31  1  0  0  0  0
 20 22  1  0  0  0  0
 20 19  1  0  0  0  0
 21 20  2  0  0  0  0
 22 33  1  0  0  0  0
 23 24  1  0  0  0  0
 23 22  1  0  0  0  0
 24 37  1  0  0  0  0
 24 25  1  0  0  0  0
 25 26  1  0  0  0  0
 25 39  1  0  0  0  0
 26 40  1  1  0  0  0
 26 27  1  0  0  0  0
 27  7  1  0  0  0  0
 28 26  1  0  0  0  0
 29 28  2  0  0  0  0
 32 21  1  0  0  0  0
 34 23  1  0  0  0  0
 35 23  1  0  0  0  0
 36 24  1  0  0  0  0
 38 25  1  0  0  0  0
 41 27  1  0  0  0  0
 42 51  1  0  0  0  0
 42 43  1  0  0  0  0
 43 53  1  0  0  0  0
 43 44  1  0  0  0  0
 44 55  1  0  0  0  0
 44 56  1  0  0  0  0
 45 57  1  6  0  0  0
 45 43  1  0  0  0  0
 45 46  1  0  0  0  0
 46 58  1  0  0  0  0
 46 28  1  0  0  0  0
 47 48  1  0  0  0  0
 47 45  1  0  0  0  0
 49 47  2  0  0  0  0
 50 42  1  0  0  0  0
 52 42  1  0  0  0  0
 54 44  1  0  0  0  0
M  END
$$$$
