MRW.pdb
 OpenBabel07022418533D

 66 67  0  0  1  0  0  0  0  0999 V2000
    5.3320    3.1440    5.7850 C   0  0  0  0  0  0  0  0  0  0  0  0
    3.8940    4.1640    5.5820 S   0  0  0  0  0  0  0  0  0  0  0  0
    2.3360    3.3610    5.4590 C   0  0  0  0  0  0  0  0  0  0  0  0
    2.0170    2.7090    4.1670 C   0  0  0  0  0  0  0  0  0  0  0  0
    2.9160    1.6570    3.6680 C   0  0  2  0  0  0  0  0  0  0  0  0
    4.2330    2.1690    3.4140 N   0  0  0  0  0  0  0  0  0  0  0  0
    2.4010    0.9870    2.4320 C   0  0  0  0  0  0  0  0  0  0  0  0
    3.1290    0.9650    1.4380 O   0  0  0  0  0  0  0  0  0  0  0  0
    5.9160    3.4160    6.7250 H   0  0  0  0  0  0  0  0  0  0  0  0
    6.0790    3.3160    4.9830 H   0  0  0  0  0  0  0  0  0  0  0  0
    5.0790    2.0830    5.9510 H   0  0  0  0  0  0  0  0  0  0  0  0
    2.1280    2.6600    6.3340 H   0  0  0  0  0  0  0  0  0  0  0  0
    1.5210    4.1540    5.6150 H   0  0  0  0  0  0  0  0  0  0  0  0
    0.9280    2.3660    4.1830 H   0  0  0  0  0  0  0  0  0  0  0  0
    1.9390    3.5740    3.4110 H   0  0  0  0  0  0  0  0  0  0  0  0
    3.0550    0.8770    4.4790 H   0  0  0  0  0  0  0  0  0  0  0  0
    4.8740    1.4870    2.9620 H   0  0  0  0  0  0  0  0  0  0  0  0
    4.1980    3.0850    2.8980 H   0  0  0  0  0  0  0  0  0  0  0  0
   -1.1830   -0.0500   -3.9420 N   0  0  0  0  0  0  0  0  0  0  0  0
   -0.3340    0.9190   -3.3460 C   0  0  0  0  0  0  0  0  0  0  0  0
   -0.8110    2.1050   -3.1870 N   0  0  0  0  0  0  0  0  0  0  0  0
    0.9970    0.6260   -2.9290 N   0  0  0  0  0  0  0  0  0  0  0  0
    1.6810    1.4430   -1.9470 C   0  0  0  0  0  0  0  0  0  0  0  0
    1.0330    1.2940   -0.5610 C   0  0  0  0  0  0  0  0  0  0  0  0
    1.0750   -0.1140   -0.0870 C   0  0  0  0  0  0  0  0  0  0  0  0
    0.4800   -0.2610    1.2940 C   0  0  2  0  0  0  0  0  0  0  0  0
    1.1350    0.3880    2.3620 N   0  0  0  0  0  0  0  0  0  0  0  0
   -0.0480   -1.5980    1.5870 C   0  0  0  0  0  0  0  0  0  0  0  0
    0.1480   -2.0980    2.7510 O   0  0  0  0  0  0  0  0  0  0  0  0
   -1.9660   -0.4510   -3.3840 H   0  0  0  0  0  0  0  0  0  0  0  0
   -1.0760   -0.3980   -4.9220 H   0  0  0  0  0  0  0  0  0  0  0  0
   -0.2880    2.9000   -2.7630 H   0  0  0  0  0  0  0  0  0  0  0  0
    1.4400   -0.2110   -3.3760 H   0  0  0  0  0  0  0  0  0  0  0  0
    1.6440    2.5050   -2.2140 H   0  0  0  0  0  0  0  0  0  0  0  0
    2.7190    1.0490   -1.8560 H   0  0  0  0  0  0  0  0  0  0  0  0
   -0.0750    1.5290   -0.8040 H   0  0  0  0  0  0  0  0  0  0  0  0
    1.3670    2.0970    0.0520 H   0  0  0  0  0  0  0  0  0  0  0  0
    0.4230   -0.6970   -0.7670 H   0  0  0  0  0  0  0  0  0  0  0  0
    2.0750   -0.5880   -0.1670 H   0  0  0  0  0  0  0  0  0  0  0  0
   -0.4690    0.4160    1.1350 H   0  0  0  0  0  0  0  0  0  0  0  0
    0.5760    0.4360    3.2760 H   0  0  0  0  0  0  0  0  0  0  0  0
   -0.7730   -2.4140    0.6850 N   0  0  0  0  0  0  0  0  0  0  0  0
   -1.2830   -3.7360    1.0020 C   0  0  1  0  0  0  0  0  0  0  0  0
   -2.7730   -3.7640    1.0460 C   0  0  0  0  0  0  0  0  0  0  0  0
   -3.4720   -3.3540   -0.1710 C   0  0  0  0  0  0  0  0  0  0  0  0
   -3.9880   -2.0600   -0.3400 C   0  0  0  0  0  0  0  0  0  0  0  0
   -4.5430   -1.9740   -1.5480 N   0  0  0  0  0  0  0  0  0  0  0  0
   -4.4210   -3.1520   -2.1930 C   0  0  0  0  0  0  0  0  0  0  0  0
   -4.8410   -3.5430   -3.4470 C   0  0  0  0  0  0  0  0  0  0  0  0
   -4.5670   -4.8350   -3.8130 C   0  0  0  0  0  0  0  0  0  0  0  0
   -3.9100   -5.7240   -2.9980 C   0  0  0  0  0  0  0  0  0  0  0  0
   -3.5000   -5.3210   -1.7570 C   0  0  0  0  0  0  0  0  0  0  0  0
   -3.7560   -4.0140   -1.3410 C   0  0  0  0  0  0  0  0  0  0  0  0
   -0.6900   -4.8300    0.2640 C   0  0  0  0  0  0  0  0  0  0  0  0
   -0.9940   -6.0070    0.5800 O   0  0  0  0  0  0  0  0  0  0  0  0
    0.2060   -4.6730   -0.7880 O   0  0  0  0  0  0  0  0  0  0  0  0
   -0.9560   -2.0380   -0.2700 H   0  0  0  0  0  0  0  0  0  0  0  0
   -0.9580   -3.8870    2.0880 H   0  0  0  0  0  0  0  0  0  0  0  0
   -3.1650   -3.2170    1.9580 H   0  0  0  0  0  0  0  0  0  0  0  0
   -3.1050   -4.8280    1.2510 H   0  0  0  0  0  0  0  0  0  0  0  0
   -3.9480   -1.2580    0.3840 H   0  0  0  0  0  0  0  0  0  0  0  0
   -5.0060   -1.1010   -1.9280 H   0  0  0  0  0  0  0  0  0  0  0  0
   -5.3680   -2.8550   -4.1180 H   0  0  0  0  0  0  0  0  0  0  0  0
   -4.8910   -5.1670   -4.8040 H   0  0  0  0  0  0  0  0  0  0  0  0
   -3.7180   -6.7600   -3.3510 H   0  0  0  0  0  0  0  0  0  0  0  0
   -3.0000   -5.9870   -1.0990 H   0  0  0  0  0  0  0  0  0  0  0  0
  1 11  1  0  0  0  0
  1  9  1  0  0  0  0
  2  1  1  0  0  0  0
  3  2  1  0  0  0  0
  3 13  1  0  0  0  0
  3 12  1  0  0  0  0
  4 14  1  0  0  0  0
  4  3  1  0  0  0  0
  5  4  1  0  0  0  0
  5 16  1  1  0  0  0
  6  5  1  0  0  0  0
  7  5  1  0  0  0  0
  8  7  2  0  0  0  0
 10  1  1  0  0  0  0
 15  4  1  0  0  0  0
 17  6  1  0  0  0  0
 18  6  1  0  0  0  0
 19 30  1  0  0  0  0
 19 20  1  0  0  0  0
 20 21  2  0  0  0  0
 20 22  1  0  0  0  0
 21 32  1  0  0  0  0
 22 23  1  0  0  0  0
 23 35  1  0  0  0  0
 23 24  1  0  0  0  0
 24 25  1  0  0  0  0
 24 37  1  0  0  0  0
 25 26  1  0  0  0  0
 26 40  1  6  0  0  0
 26 28  1  0  0  0  0
 26 27  1  0  0  0  0
 27  7  1  0  0  0  0
 27 41  1  0  0  0  0
 28 29  2  0  0  0  0
 31 19  1  0  0  0  0
 33 22  1  0  0  0  0
 34 23  1  0  0  0  0
 36 24  1  0  0  0  0
 38 25  1  0  0  0  0
 39 25  1  0  0  0  0
 42 43  1  0  0  0  0
 42 28  1  0  0  0  0
 43 44  1  0  0  0  0
 43 58  1  1  0  0  0
 44 60  1  0  0  0  0
 44 59  1  0  0  0  0
 45 44  1  0  0  0  0
 46 45  2  0  0  0  0
 46 61  1  0  0  0  0
 47 46  1  0  0  0  0
 48 47  1  0  0  0  0
 48 53  1  0  0  0  0
 49 48  2  0  0  0  0
 50 49  1  0  0  0  0
 50 51  2  0  0  0  0
 51 52  1  0  0  0  0
 52 53  2  0  0  0  0
 52 66  1  0  0  0  0
 53 45  1  0  0  0  0
 54 55  1  0  0  0  0
 54 43  1  0  0  0  0
 56 54  2  0  0  0  0
 57 42  1  0  0  0  0
 62 47  1  0  0  0  0
 63 49  1  0  0  0  0
 64 50  1  0  0  0  0
 65 51  1  0  0  0  0
M  END
$$$$
