MRY.pdb
 OpenBabel07022418533D

 63 63  0  0  1  0  0  0  0  0999 V2000
    6.0110    3.3670    0.8880 C   0  0  0  0  0  0  0  0  0  0  0  0
    6.9940    1.8290    0.7420 S   0  0  0  0  0  0  0  0  0  0  0  0
    5.8570    0.4170    0.5260 C   0  0  0  0  0  0  0  0  0  0  0  0
    5.1600    0.5560   -0.7950 C   0  0  0  0  0  0  0  0  0  0  0  0
    4.2050   -0.5810   -1.0670 C   0  0  2  0  0  0  0  0  0  0  0  0
    3.6210   -0.3090   -2.3600 N   0  0  0  0  0  0  0  0  0  0  0  0
    3.1960   -0.7020   -0.0050 C   0  0  0  0  0  0  0  0  0  0  0  0
    3.5050   -1.0610    1.1550 O   0  0  0  0  0  0  0  0  0  0  0  0
    5.3940    3.5310   -0.0010 H   0  0  0  0  0  0  0  0  0  0  0  0
    5.3990    3.3530    1.8180 H   0  0  0  0  0  0  0  0  0  0  0  0
    6.7240    4.2040    0.9870 H   0  0  0  0  0  0  0  0  0  0  0  0
    6.4550   -0.4980    0.5870 H   0  0  0  0  0  0  0  0  0  0  0  0
    5.1250    0.5290    1.3780 H   0  0  0  0  0  0  0  0  0  0  0  0
    5.9040    0.6460   -1.6100 H   0  0  0  0  0  0  0  0  0  0  0  0
    4.5580    1.4910   -0.8010 H   0  0  0  0  0  0  0  0  0  0  0  0
    4.7330   -1.5600   -1.1440 H   0  0  0  0  0  0  0  0  0  0  0  0
    3.4090   -1.1240   -2.9350 H   0  0  0  0  0  0  0  0  0  0  0  0
    3.0260    0.5140   -2.4240 H   0  0  0  0  0  0  0  0  0  0  0  0
   -1.6570    4.3640   -2.8600 N   0  0  0  0  0  0  0  0  0  0  0  0
   -0.9260    4.0240   -1.7050 C   0  0  0  0  0  0  0  0  0  0  0  0
    0.3590    4.1670   -1.6960 N   0  0  0  0  0  0  0  0  0  0  0  0
   -1.6110    3.5280   -0.5680 N   0  0  0  0  0  0  0  0  0  0  0  0
   -0.9180    2.8170    0.4780 C   0  0  0  0  0  0  0  0  0  0  0  0
   -0.4080    1.4580    0.0160 C   0  0  0  0  0  0  0  0  0  0  0  0
    0.2980    0.8120    1.1880 C   0  0  0  0  0  0  0  0  0  0  0  0
    0.8550   -0.5550    0.8620 C   0  0  2  0  0  0  0  0  0  0  0  0
    1.7960   -0.4210   -0.2100 N   0  0  0  0  0  0  0  0  0  0  0  0
   -0.2510   -1.5110    0.5320 C   0  0  0  0  0  0  0  0  0  0  0  0
   -0.3070   -2.1080   -0.5870 O   0  0  0  0  0  0  0  0  0  0  0  0
   -2.5120    4.9740   -2.8380 H   0  0  0  0  0  0  0  0  0  0  0  0
   -1.3480    4.0040   -3.7770 H   0  0  0  0  0  0  0  0  0  0  0  0
    0.9130    3.9160   -0.8420 H   0  0  0  0  0  0  0  0  0  0  0  0
   -2.6570    3.6910   -0.4970 H   0  0  0  0  0  0  0  0  0  0  0  0
   -0.1060    3.4540    0.8590 H   0  0  0  0  0  0  0  0  0  0  0  0
   -1.6230    2.6720    1.3410 H   0  0  0  0  0  0  0  0  0  0  0  0
    0.2330    1.6150   -0.8470 H   0  0  0  0  0  0  0  0  0  0  0  0
   -1.2800    0.8470   -0.2770 H   0  0  0  0  0  0  0  0  0  0  0  0
    1.1080    1.4340    1.5660 H   0  0  0  0  0  0  0  0  0  0  0  0
   -0.4680    0.6890    1.9820 H   0  0  0  0  0  0  0  0  0  0  0  0
    1.3670   -0.9180    1.7510 H   0  0  0  0  0  0  0  0  0  0  0  0
    1.5450   -0.1230   -1.1780 H   0  0  0  0  0  0  0  0  0  0  0  0
   -6.6940   -7.4500    1.0570 O   0  0  0  0  0  0  0  0  0  0  0  0
   -5.6400   -6.5630    1.3160 C   0  0  0  0  0  0  0  0  0  0  0  0
   -4.4310   -6.6640    0.6730 C   0  0  0  0  0  0  0  0  0  0  0  0
   -3.3980   -5.7900    0.9290 C   0  0  0  0  0  0  0  0  0  0  0  0
   -3.5350   -4.7540    1.8630 C   0  0  0  0  0  0  0  0  0  0  0  0
   -2.4180   -3.8370    2.1590 C   0  0  0  0  0  0  0  0  0  0  0  0
   -2.3900   -2.7240    1.1670 C   0  0  2  0  0  0  0  0  0  0  0  0
   -1.2870   -1.7970    1.4460 N   0  0  0  0  0  0  0  0  0  0  0  0
   -3.6480   -1.9600    1.2310 C   0  0  0  0  0  0  0  0  0  0  0  0
   -4.7650   -2.4360    0.9710 O   0  0  0  0  0  0  0  0  0  0  0  0
   -4.7580   -4.6760    2.4950 C   0  0  0  0  0  0  0  0  0  0  0  0
   -5.8020   -5.5540    2.2400 C   0  0  0  0  0  0  0  0  0  0  0  0
   -3.5890   -0.6040    1.6100 O   0  0  0  0  0  0  0  0  0  0  0  0
   -7.6490   -7.1390    1.3020 H   0  0  0  0  0  0  0  0  0  0  0  0
   -4.3070   -7.4560   -0.0500 H   0  0  0  0  0  0  0  0  0  0  0  0
   -2.4380   -5.8360    0.4460 H   0  0  0  0  0  0  0  0  0  0  0  0
   -2.5850   -3.4270    3.1790 H   0  0  0  0  0  0  0  0  0  0  0  0
   -1.4710   -4.4230    2.1840 H   0  0  0  0  0  0  0  0  0  0  0  0
   -2.2720   -3.1540    0.1420 H   0  0  0  0  0  0  0  0  0  0  0  0
   -1.2890   -1.3370    2.3730 H   0  0  0  0  0  0  0  0  0  0  0  0
   -4.9330   -3.9060    3.2340 H   0  0  0  0  0  0  0  0  0  0  0  0
   -6.7510   -5.4740    2.7460 H   0  0  0  0  0  0  0  0  0  0  0  0
  1 11  1  0  0  0  0
  1 10  1  0  0  0  0
  2  1  1  0  0  0  0
  3 12  1  0  0  0  0
  3  2  1  0  0  0  0
  3 13  1  0  0  0  0
  4  3  1  0  0  0  0
  5 16  1  6  0  0  0
  5  4  1  0  0  0  0
  5  7  1  0  0  0  0
  6  5  1  0  0  0  0
  7  8  2  0  0  0  0
  9  1  1  0  0  0  0
 14  4  1  0  0  0  0
 15  4  1  0  0  0  0
 17  6  1  0  0  0  0
 18  6  1  0  0  0  0
 19 30  1  0  0  0  0
 19 20  1  0  0  0  0
 20 21  2  0  0  0  0
 20 22  1  0  0  0  0
 21 32  1  0  0  0  0
 22 33  1  0  0  0  0
 22 23  1  0  0  0  0
 23 34  1  0  0  0  0
 23 35  1  0  0  0  0
 24 23  1  0  0  0  0
 24 25  1  0  0  0  0
 25 38  1  0  0  0  0
 25 39  1  0  0  0  0
 26 25  1  0  0  0  0
 26 40  1  1  0  0  0
 27  7  1  0  0  0  0
 27 26  1  0  0  0  0
 28 26  1  0  0  0  0
 28 49  1  0  0  0  0
 29 28  2  0  0  0  0
 31 19  1  0  0  0  0
 36 24  1  0  0  0  0
 37 24  1  0  0  0  0
 41 27  1  0  0  0  0
 42 55  1  0  0  0  0
 42 43  1  0  0  0  0
 43 53  1  0  0  0  0
 44 45  1  0  0  0  0
 44 43  2  0  0  0  0
 45 46  2  0  0  0  0
 46 47  1  0  0  0  0
 46 52  1  0  0  0  0
 47 59  1  0  0  0  0
 47 58  1  0  0  0  0
 48 60  1  6  0  0  0
 48 50  1  0  0  0  0
 48 49  1  0  0  0  0
 48 47  1  0  0  0  0
 49 61  1  0  0  0  0
 50 54  1  0  0  0  0
 51 50  2  0  0  0  0
 52 62  1  0  0  0  0
 53 52  2  0  0  0  0
 53 63  1  0  0  0  0
 56 44  1  0  0  0  0
 57 45  1  0  0  0  0
M  END
$$$$
