MSA.pdb
 OpenBabel07022418563D

 40 39  0  0  1  0  0  0  0  0999 V2000
    0.0450   -5.0890    3.1760 C   0  0  0  0  0  0  0  0  0  0  0  0
    0.6140   -5.3290    1.4660 S   0  0  0  0  0  0  0  0  0  0  0  0
   -0.2020   -4.1400    0.3710 C   0  0  0  0  0  0  0  0  0  0  0  0
    0.2090   -2.7210    0.6640 C   0  0  0  0  0  0  0  0  0  0  0  0
    1.7020   -2.5250    0.4920 C   0  0  2  0  0  0  0  0  0  0  0  0
    2.3800   -3.4110    1.4070 N   0  0  0  0  0  0  0  0  0  0  0  0
    2.0950   -1.1190    0.7010 C   0  0  0  0  0  0  0  0  0  0  0  0
    2.9220   -0.8520    1.5990 O   0  0  0  0  0  0  0  0  0  0  0  0
    0.8070   -4.4670    3.6840 H   0  0  0  0  0  0  0  0  0  0  0  0
   -0.0670   -6.0470    3.7160 H   0  0  0  0  0  0  0  0  0  0  0  0
   -0.9280   -4.5640    3.1510 H   0  0  0  0  0  0  0  0  0  0  0  0
    0.0400   -4.3720   -0.6770 H   0  0  0  0  0  0  0  0  0  0  0  0
   -1.3040   -4.1920    0.5650 H   0  0  0  0  0  0  0  0  0  0  0  0
   -0.1270   -2.4170    1.6720 H   0  0  0  0  0  0  0  0  0  0  0  0
   -0.2980   -2.0690   -0.0670 H   0  0  0  0  0  0  0  0  0  0  0  0
    2.0110   -2.7890   -0.5430 H   0  0  0  0  0  0  0  0  0  0  0  0
    2.2740   -3.0770    2.3880 H   0  0  0  0  0  0  0  0  0  0  0  0
    3.3920   -3.5410    1.1470 H   0  0  0  0  0  0  0  0  0  0  0  0
    1.9420    1.8290   -2.1820 O   0  0  0  0  0  0  0  0  0  0  0  0
    2.7120    1.8180   -1.0340 C   0  0  0  0  0  0  0  0  0  0  0  0
    1.9840    1.2810    0.1670 C   0  0  2  0  0  0  0  0  0  0  0  0
    1.5630   -0.0820   -0.0820 N   0  0  0  0  0  0  0  0  0  0  0  0
    0.8330    2.1370    0.5690 C   0  0  0  0  0  0  0  0  0  0  0  0
    1.0400    3.3520    0.8240 O   0  0  0  0  0  0  0  0  0  0  0  0
    2.5120    1.6680   -2.9870 H   0  0  0  0  0  0  0  0  0  0  0  0
    3.5980    1.1730   -1.2070 H   0  0  0  0  0  0  0  0  0  0  0  0
    3.0940    2.8460   -0.8690 H   0  0  0  0  0  0  0  0  0  0  0  0
    2.7110    1.2630    1.0000 H   0  0  0  0  0  0  0  0  0  0  0  0
    0.8580   -0.2590   -0.8560 H   0  0  0  0  0  0  0  0  0  0  0  0
   -2.6580    2.5950   -0.0130 C   0  0  0  0  0  0  0  0  0  0  0  0
   -1.6130    2.4980    1.0730 C   0  0  2  0  0  0  0  0  0  0  0  0
   -0.4940    1.6650    0.6830 N   0  0  0  0  0  0  0  0  0  0  0  0
   -2.2070    1.9840    2.3190 C   0  0  0  0  0  0  0  0  0  0  0  0
   -3.1890    2.5530    2.8370 O   0  0  0  0  0  0  0  0  0  0  0  0
   -1.6810    0.8660    2.9240 O   0  0  0  0  0  0  0  0  0  0  0  0
   -2.4710    3.5040   -0.6410 H   0  0  0  0  0  0  0  0  0  0  0  0
   -3.6340    2.7750    0.4840 H   0  0  0  0  0  0  0  0  0  0  0  0
   -2.7410    1.7070   -0.6390 H   0  0  0  0  0  0  0  0  0  0  0  0
   -1.2860    3.5510    1.2770 H   0  0  0  0  0  0  0  0  0  0  0  0
   -0.6560    0.6560    0.4700 H   0  0  0  0  0  0  0  0  0  0  0  0
  1  9  1  0  0  0  0
  1 10  1  0  0  0  0
  2  1  1  0  0  0  0
  3 13  1  0  0  0  0
  3  4  1  0  0  0  0
  3  2  1  0  0  0  0
  4 14  1  0  0  0  0
  5 16  1  6  0  0  0
  5  4  1  0  0  0  0
  5  7  1  0  0  0  0
  5  6  1  0  0  0  0
  6 17  1  0  0  0  0
  7  8  2  0  0  0  0
 11  1  1  0  0  0  0
 12  3  1  0  0  0  0
 15  4  1  0  0  0  0
 18  6  1  0  0  0  0
 19 20  1  0  0  0  0
 20 27  1  0  0  0  0
 20 21  1  0  0  0  0
 21 23  1  0  0  0  0
 21 28  1  1  0  0  0
 22 21  1  0  0  0  0
 22  7  1  0  0  0  0
 23 32  1  0  0  0  0
 23 24  2  0  0  0  0
 25 19  1  0  0  0  0
 26 20  1  0  0  0  0
 29 22  1  0  0  0  0
 30 37  1  0  0  0  0
 30 31  1  0  0  0  0
 31 39  1  1  0  0  0
 31 33  1  0  0  0  0
 32 31  1  0  0  0  0
 33 34  2  0  0  0  0
 33 35  1  0  0  0  0
 36 30  1  0  0  0  0
 38 30  1  0  0  0  0
 40 32  1  0  0  0  0
M  END
$$$$
