MSC.pdb
 OpenBabel07022418563D

 41 40  0  0  1  0  0  0  0  0999 V2000
    0.4060   -5.2810   -0.6110 C   0  0  0  0  0  0  0  0  0  0  0  0
    1.8400   -5.2270   -1.6950 S   0  0  0  0  0  0  0  0  0  0  0  0
    2.0070   -3.6810   -2.5530 C   0  0  0  0  0  0  0  0  0  0  0  0
    2.3750   -2.4920   -1.7170 C   0  0  0  0  0  0  0  0  0  0  0  0
    1.4280   -2.1090   -0.6510 C   0  0  2  0  0  0  0  0  0  0  0  0
    0.1190   -1.7800   -1.2190 N   0  0  0  0  0  0  0  0  0  0  0  0
    1.9130   -0.9810    0.1920 C   0  0  0  0  0  0  0  0  0  0  0  0
    3.0300   -1.1250    0.7490 O   0  0  0  0  0  0  0  0  0  0  0  0
   -0.1120   -6.2830   -0.6680 H   0  0  0  0  0  0  0  0  0  0  0  0
   -0.2980   -4.4830   -0.8720 H   0  0  0  0  0  0  0  0  0  0  0  0
    0.6550   -5.1740    0.4710 H   0  0  0  0  0  0  0  0  0  0  0  0
    1.0900   -3.4770   -3.1730 H   0  0  0  0  0  0  0  0  0  0  0  0
    2.8110   -3.7890   -3.3500 H   0  0  0  0  0  0  0  0  0  0  0  0
    2.6140   -1.6720   -2.4300 H   0  0  0  0  0  0  0  0  0  0  0  0
    3.3890   -2.7490   -1.2750 H   0  0  0  0  0  0  0  0  0  0  0  0
    1.2670   -2.9500    0.0440 H   0  0  0  0  0  0  0  0  0  0  0  0
    0.1410   -0.9100   -1.7840 H   0  0  0  0  0  0  0  0  0  0  0  0
   -0.5760   -1.6440   -0.4340 H   0  0  0  0  0  0  0  0  0  0  0  0
    2.8950    2.1420   -0.5980 O   0  0  0  0  0  0  0  0  0  0  0  0
    1.9410    2.5200    0.3490 C   0  0  0  0  0  0  0  0  0  0  0  0
    1.6990    1.3120    1.2290 C   0  0  2  0  0  0  0  0  0  0  0  0
    1.2150    0.2230    0.4060 N   0  0  0  0  0  0  0  0  0  0  0  0
    0.7010    1.5930    2.2900 C   0  0  0  0  0  0  0  0  0  0  0  0
    0.9450    2.5150    3.1070 O   0  0  0  0  0  0  0  0  0  0  0  0
    2.5930    2.2580   -1.5160 H   0  0  0  0  0  0  0  0  0  0  0  0
    1.0330    2.9260   -0.1000 H   0  0  0  0  0  0  0  0  0  0  0  0
    2.4050    3.3250    0.9510 H   0  0  0  0  0  0  0  0  0  0  0  0
    2.6840    1.0200    1.6400 H   0  0  0  0  0  0  0  0  0  0  0  0
    0.2980    0.3450   -0.0490 H   0  0  0  0  0  0  0  0  0  0  0  0
   -0.5150    0.8880    2.4420 N   0  0  0  0  0  0  0  0  0  0  0  0
   -1.4910    1.1380    3.4520 C   0  0  1  0  0  0  0  0  0  0  0  0
   -2.8450    1.5280    2.8550 C   0  0  0  0  0  0  0  0  0  0  0  0
   -2.6760    3.0300    1.8610 S   0  0  0  0  0  0  0  0  0  0  0  0
   -1.6380   -0.0670    4.3000 C   0  0  0  0  0  0  0  0  0  0  0  0
   -2.4410   -0.0630    5.2420 O   0  0  0  0  0  0  0  0  0  0  0  0
   -0.8830   -1.1760    4.0340 O   0  0  0  0  0  0  0  0  0  0  0  0
   -0.7010    0.1240    1.7530 H   0  0  0  0  0  0  0  0  0  0  0  0
   -1.2190    1.9690    4.1380 H   0  0  0  0  0  0  0  0  0  0  0  0
   -3.2950    0.6890    2.2980 H   0  0  0  0  0  0  0  0  0  0  0  0
   -3.5340    1.7540    3.6950 H   0  0  0  0  0  0  0  0  0  0  0  0
   -2.3980    4.1030    2.7590 H   0  0  0  0  0  0  0  0  0  0  0  0
  1 11  1  0  0  0  0
  2  1  1  0  0  0  0
  3  4  1  0  0  0  0
  3  2  1  0  0  0  0
  4 15  1  0  0  0  0
  4  5  1  0  0  0  0
  5 16  1  1  0  0  0
  5  7  1  0  0  0  0
  6  5  1  0  0  0  0
  6 18  1  0  0  0  0
  7 22  1  0  0  0  0
  7  8  2  0  0  0  0
  9  1  1  0  0  0  0
 10  1  1  0  0  0  0
 12  3  1  0  0  0  0
 13  3  1  0  0  0  0
 14  4  1  0  0  0  0
 17  6  1  0  0  0  0
 19 20  1  0  0  0  0
 20 27  1  0  0  0  0
 20 21  1  0  0  0  0
 21 28  1  1  0  0  0
 21 23  1  0  0  0  0
 22 21  1  0  0  0  0
 23 30  1  0  0  0  0
 23 24  2  0  0  0  0
 25 19  1  0  0  0  0
 26 20  1  0  0  0  0
 29 22  1  0  0  0  0
 30 31  1  0  0  0  0
 31 38  1  1  0  0  0
 31 34  1  0  0  0  0
 32 31  1  0  0  0  0
 32 40  1  0  0  0  0
 33 41  1  0  0  0  0
 33 32  1  0  0  0  0
 34 35  1  0  0  0  0
 36 34  2  0  0  0  0
 37 30  1  0  0  0  0
 39 32  1  0  0  0  0
M  END
$$$$
