MSD.pdb
 OpenBabel07022418563D

 43 42  0  0  1  0  0  0  0  0999 V2000
   -0.1590   -3.7510   -1.6920 C   0  0  0  0  0  0  0  0  0  0  0  0
    1.2510   -4.6830   -1.0380 S   0  0  0  0  0  0  0  0  0  0  0  0
    2.3700   -3.5060   -0.2370 C   0  0  0  0  0  0  0  0  0  0  0  0
    2.9490   -2.5680   -1.3050 C   0  0  0  0  0  0  0  0  0  0  0  0
    3.9060   -1.5900   -0.6200 C   0  0  2  0  0  0  0  0  0  0  0  0
    4.9650   -2.3550    0.0280 N   0  0  0  0  0  0  0  0  0  0  0  0
    3.1210   -0.8260    0.3770 C   0  0  0  0  0  0  0  0  0  0  0  0
    3.4020   -0.9520    1.5990 O   0  0  0  0  0  0  0  0  0  0  0  0
    0.0700   -3.4370   -2.7410 H   0  0  0  0  0  0  0  0  0  0  0  0
   -0.3790   -2.8580   -1.0760 H   0  0  0  0  0  0  0  0  0  0  0  0
   -1.0870   -4.3590   -1.7090 H   0  0  0  0  0  0  0  0  0  0  0  0
    3.2300   -4.0070    0.2510 H   0  0  0  0  0  0  0  0  0  0  0  0
    1.7690   -2.9210    0.4840 H   0  0  0  0  0  0  0  0  0  0  0  0
    2.0880   -1.9770   -1.6920 H   0  0  0  0  0  0  0  0  0  0  0  0
    3.4270   -3.1140   -2.1280 H   0  0  0  0  0  0  0  0  0  0  0  0
    4.3240   -0.9570   -1.4300 H   0  0  0  0  0  0  0  0  0  0  0  0
    5.8700   -1.8720   -0.1330 H   0  0  0  0  0  0  0  0  0  0  0  0
    5.0470   -3.2770   -0.4870 H   0  0  0  0  0  0  0  0  0  0  0  0
    0.9160    3.0850    1.7270 O   0  0  0  0  0  0  0  0  0  0  0  0
    1.6040    2.2870    0.8340 C   0  0  0  0  0  0  0  0  0  0  0  0
    1.3040    0.7980    1.0400 C   0  0  2  0  0  0  0  0  0  0  0  0
    2.0710    0.0450    0.0580 N   0  0  0  0  0  0  0  0  0  0  0  0
   -0.1280    0.5200    0.8050 C   0  0  0  0  0  0  0  0  0  0  0  0
   -0.4800   -0.2400   -0.1230 O   0  0  0  0  0  0  0  0  0  0  0  0
    1.1890    2.9140    2.6700 H   0  0  0  0  0  0  0  0  0  0  0  0
    1.3610    2.6240   -0.1940 H   0  0  0  0  0  0  0  0  0  0  0  0
    2.7170    2.3880    1.0140 H   0  0  0  0  0  0  0  0  0  0  0  0
    1.6030    0.5630    2.0790 H   0  0  0  0  0  0  0  0  0  0  0  0
    1.8040    0.1720   -0.9320 H   0  0  0  0  0  0  0  0  0  0  0  0
   -1.1810    1.0800    1.5960 N   0  0  0  0  0  0  0  0  0  0  0  0
   -2.5830    0.7690    1.3220 C   0  0  1  0  0  0  0  0  0  0  0  0
   -3.0790   -0.0630    2.5130 C   0  0  0  0  0  0  0  0  0  0  0  0
   -2.9890    0.6570    3.7890 C   0  0  0  0  0  0  0  0  0  0  0  0
   -3.5180    1.8150    3.9090 O   0  0  0  0  0  0  0  0  0  0  0  0
   -3.3810    1.9760    1.0990 C   0  0  0  0  0  0  0  0  0  0  0  0
   -2.7990    3.1200    1.1360 O   0  0  0  0  0  0  0  0  0  0  0  0
   -2.3260    0.0950    4.8870 O   0  0  0  0  0  0  0  0  0  0  0  0
   -4.7420    2.0030    0.8450 O   0  0  0  0  0  0  0  0  0  0  0  0
   -0.8970    1.7110    2.3670 H   0  0  0  0  0  0  0  0  0  0  0  0
   -2.6710    0.0910    0.4440 H   0  0  0  0  0  0  0  0  0  0  0  0
   -2.5240   -1.0230    2.5180 H   0  0  0  0  0  0  0  0  0  0  0  0
   -4.1570   -0.3390    2.3000 H   0  0  0  0  0  0  0  0  0  0  0  0
   -2.6090    0.4090    5.8310 H   0  0  0  0  0  0  0  0  0  0  0  0
  1 10  1  0  0  0  0
  1  2  1  0  0  0  0
  2  3  1  0  0  0  0
  3 12  1  0  0  0  0
  3 13  1  0  0  0  0
  4  5  1  0  0  0  0
  4  3  1  0  0  0  0
  5 16  1  6  0  0  0
  5  6  1  0  0  0  0
  5  7  1  0  0  0  0
  7  8  2  0  0  0  0
  9  1  1  0  0  0  0
 11  1  1  0  0  0  0
 14  4  1  0  0  0  0
 15  4  1  0  0  0  0
 17  6  1  0  0  0  0
 18  6  1  0  0  0  0
 19 25  1  0  0  0  0
 20 27  1  0  0  0  0
 20 21  1  0  0  0  0
 20 19  1  0  0  0  0
 21 28  1  1  0  0  0
 22  7  1  0  0  0  0
 22 21  1  0  0  0  0
 23 21  1  0  0  0  0
 23 30  1  0  0  0  0
 24 23  2  0  0  0  0
 26 20  1  0  0  0  0
 29 22  1  0  0  0  0
 30 39  1  0  0  0  0
 31 40  1  6  0  0  0
 31 30  1  0  0  0  0
 31 32  1  0  0  0  0
 32 41  1  0  0  0  0
 32 33  1  0  0  0  0
 33 34  2  0  0  0  0
 33 37  1  0  0  0  0
 35 36  1  0  0  0  0
 35 31  1  0  0  0  0
 37 43  1  0  0  0  0
 38 35  2  0  0  0  0
 42 32  1  0  0  0  0
M  END
$$$$
