MSE.pdb
 OpenBabel07022418563D

 46 45  0  0  1  0  0  0  0  0999 V2000
   -1.3560   -3.1060    1.0400 C   0  0  0  0  0  0  0  0  0  0  0  0
   -0.3510   -4.4400    1.6330 S   0  0  0  0  0  0  0  0  0  0  0  0
    1.4090   -4.2720    1.4650 C   0  0  0  0  0  0  0  0  0  0  0  0
    1.9480   -4.2750    0.0750 C   0  0  0  0  0  0  0  0  0  0  0  0
    1.4360   -3.1050   -0.7230 C   0  0  2  0  0  0  0  0  0  0  0  0
    2.0070   -3.1940   -2.1040 N   0  0  0  0  0  0  0  0  0  0  0  0
    1.9720   -1.8180   -0.2200 C   0  0  0  0  0  0  0  0  0  0  0  0
    3.1690   -1.8500    0.2260 O   0  0  0  0  0  0  0  0  0  0  0  0
   -2.2350   -2.8790    1.6880 H   0  0  0  0  0  0  0  0  0  0  0  0
   -1.8190   -3.4140    0.0560 H   0  0  0  0  0  0  0  0  0  0  0  0
   -0.8500   -2.1620    0.8710 H   0  0  0  0  0  0  0  0  0  0  0  0
    1.8750   -5.1490    2.0150 H   0  0  0  0  0  0  0  0  0  0  0  0
    1.8240   -3.3860    2.0180 H   0  0  0  0  0  0  0  0  0  0  0  0
    3.0440   -4.3890    0.0390 H   0  0  0  0  0  0  0  0  0  0  0  0
    1.5170   -5.1960   -0.4230 H   0  0  0  0  0  0  0  0  0  0  0  0
    0.3740   -3.1800   -0.8500 H   0  0  0  0  0  0  0  0  0  0  0  0
    3.0400   -3.1950   -1.9520 H   0  0  0  0  0  0  0  0  0  0  0  0
    1.7680   -2.2370   -2.5050 H   0  0  0  0  0  0  0  0  0  0  0  0
    2.8660    2.7010   -0.2070 O   0  0  0  0  0  0  0  0  0  0  0  0
    2.2970    1.5730   -0.8210 C   0  0  0  0  0  0  0  0  0  0  0  0
    1.9260    0.6330    0.3200 C   0  0  2  0  0  0  0  0  0  0  0  0
    1.3230   -0.5780   -0.1810 N   0  0  0  0  0  0  0  0  0  0  0  0
    1.0780    1.3300    1.3000 C   0  0  0  0  0  0  0  0  0  0  0  0
    1.5230    2.3750    1.8940 O   0  0  0  0  0  0  0  0  0  0  0  0
    3.6310    2.4530    0.3730 H   0  0  0  0  0  0  0  0  0  0  0  0
    1.4330    1.9270   -1.3920 H   0  0  0  0  0  0  0  0  0  0  0  0
    3.0830    1.0960   -1.4050 H   0  0  0  0  0  0  0  0  0  0  0  0
    2.8860    0.3710    0.7960 H   0  0  0  0  0  0  0  0  0  0  0  0
    0.3480   -0.5250   -0.5350 H   0  0  0  0  0  0  0  0  0  0  0  0
   -0.2380    0.9610    1.6790 N   0  0  0  0  0  0  0  0  0  0  0  0
   -1.0160    1.6870    2.6510 C   0  0  1  0  0  0  0  0  0  0  0  0
   -2.1290    2.5040    2.1100 C   0  0  0  0  0  0  0  0  0  0  0  0
   -3.2090    1.8260    1.3650 C   0  0  0  0  0  0  0  0  0  0  0  0
   -2.8500    1.0870    0.1650 C   0  0  0  0  0  0  0  0  0  0  0  0
   -3.0340   -0.1640    0.1290 O   0  0  0  0  0  0  0  0  0  0  0  0
   -1.4530    0.7940    3.7720 C   0  0  0  0  0  0  0  0  0  0  0  0
   -1.1540   -0.4360    3.8100 O   0  0  0  0  0  0  0  0  0  0  0  0
   -2.3090    1.6780   -0.9630 O   0  0  0  0  0  0  0  0  0  0  0  0
   -2.2130    1.2840    4.8260 O   0  0  0  0  0  0  0  0  0  0  0  0
   -0.6350    0.1240    1.2260 H   0  0  0  0  0  0  0  0  0  0  0  0
   -0.2990    2.4370    3.1230 H   0  0  0  0  0  0  0  0  0  0  0  0
   -2.6340    3.0470    2.9710 H   0  0  0  0  0  0  0  0  0  0  0  0
   -1.7110    3.3400    1.4960 H   0  0  0  0  0  0  0  0  0  0  0  0
   -3.9290    2.6330    1.0370 H   0  0  0  0  0  0  0  0  0  0  0  0
   -3.8370    1.1850    2.0330 H   0  0  0  0  0  0  0  0  0  0  0  0
   -1.5330    1.2200   -1.4640 H   0  0  0  0  0  0  0  0  0  0  0  0
  1  2  1  0  0  0  0
  1  9  1  0  0  0  0
  3  2  1  0  0  0  0
  3 12  1  0  0  0  0
  3 13  1  0  0  0  0
  4  3  1  0  0  0  0
  5 16  1  6  0  0  0
  5  7  1  0  0  0  0
  5  4  1  0  0  0  0
  6 17  1  0  0  0  0
  6  5  1  0  0  0  0
  7 22  1  0  0  0  0
  7  8  2  0  0  0  0
 10  1  1  0  0  0  0
 11  1  1  0  0  0  0
 14  4  1  0  0  0  0
 15  4  1  0  0  0  0
 18  6  1  0  0  0  0
 19 25  1  0  0  0  0
 20 19  1  0  0  0  0
 20 21  1  0  0  0  0
 21 28  1  1  0  0  0
 21 23  1  0  0  0  0
 22 21  1  0  0  0  0
 23 30  1  0  0  0  0
 23 24  2  0  0  0  0
 26 20  1  0  0  0  0
 27 20  1  0  0  0  0
 29 22  1  0  0  0  0
 30 31  1  0  0  0  0
 31 41  1  1  0  0  0
 31 36  1  0  0  0  0
 32 31  1  0  0  0  0
 32 42  1  0  0  0  0
 33 45  1  0  0  0  0
 33 32  1  0  0  0  0
 34 33  1  0  0  0  0
 35 34  2  0  0  0  0
 36 37  2  0  0  0  0
 36 39  1  0  0  0  0
 38 34  1  0  0  0  0
 40 30  1  0  0  0  0
 43 32  1  0  0  0  0
 44 33  1  0  0  0  0
 46 38  1  0  0  0  0
M  END
$$$$
