MSH.pdb
 OpenBabel07022418563D

 47 47  0  0  1  0  0  0  0  0999 V2000
    1.1430   -3.8310    4.0810 C   0  0  0  0  0  0  0  0  0  0  0  0
    1.3300   -2.3170    5.0320 S   0  0  0  0  0  0  0  0  0  0  0  0
    0.1700   -1.0400    4.5520 C   0  0  0  0  0  0  0  0  0  0  0  0
    0.3810   -0.5120    3.1660 C   0  0  0  0  0  0  0  0  0  0  0  0
    1.7600    0.1000    2.9940 C   0  0  2  0  0  0  0  0  0  0  0  0
    1.8320    1.1840    3.9620 N   0  0  0  0  0  0  0  0  0  0  0  0
    1.9130    0.6870    1.6320 C   0  0  0  0  0  0  0  0  0  0  0  0
    2.0600    1.9230    1.4510 O   0  0  0  0  0  0  0  0  0  0  0  0
    0.5550   -3.6960    3.1600 H   0  0  0  0  0  0  0  0  0  0  0  0
    2.1580   -4.1820    3.8010 H   0  0  0  0  0  0  0  0  0  0  0  0
    0.6220   -4.6170    4.6940 H   0  0  0  0  0  0  0  0  0  0  0  0
    0.1900   -0.2060    5.2850 H   0  0  0  0  0  0  0  0  0  0  0  0
   -0.8510   -1.4780    4.5840 H   0  0  0  0  0  0  0  0  0  0  0  0
   -0.4180    0.2310    2.9710 H   0  0  0  0  0  0  0  0  0  0  0  0
    0.2700   -1.3150    2.4310 H   0  0  0  0  0  0  0  0  0  0  0  0
    2.5610   -0.6180    3.2340 H   0  0  0  0  0  0  0  0  0  0  0  0
    2.4000    1.9450    3.5260 H   0  0  0  0  0  0  0  0  0  0  0  0
    0.8790    1.5710    4.1420 H   0  0  0  0  0  0  0  0  0  0  0  0
    3.0490   -1.5240   -1.7260 O   0  0  0  0  0  0  0  0  0  0  0  0
    3.2290   -0.1720   -1.5520 C   0  0  0  0  0  0  0  0  0  0  0  0
    2.0460    0.4510   -0.8170 C   0  0  2  0  0  0  0  0  0  0  0  0
    1.8960   -0.1570    0.4830 N   0  0  0  0  0  0  0  0  0  0  0  0
    0.8510    0.1540   -1.6380 C   0  0  0  0  0  0  0  0  0  0  0  0
    0.7470    0.5680   -2.8100 O   0  0  0  0  0  0  0  0  0  0  0  0
    3.9670   -1.9310   -1.8090 H   0  0  0  0  0  0  0  0  0  0  0  0
    3.3720    0.2840   -2.5370 H   0  0  0  0  0  0  0  0  0  0  0  0
    4.1570   -0.0140   -0.9460 H   0  0  0  0  0  0  0  0  0  0  0  0
    2.2070    1.5540   -0.7180 H   0  0  0  0  0  0  0  0  0  0  0  0
    1.7830   -1.1970    0.5580 H   0  0  0  0  0  0  0  0  0  0  0  0
   -0.1970   -0.6180   -1.0810 N   0  0  0  0  0  0  0  0  0  0  0  0
   -1.4050   -0.9960   -1.7500 C   0  0  1  0  0  0  0  0  0  0  0  0
   -2.4660    0.0540   -1.7630 C   0  0  0  0  0  0  0  0  0  0  0  0
   -2.8900    0.4460   -0.3970 C   0  0  0  0  0  0  0  0  0  0  0  0
   -3.9230   -0.1710    0.2940 C   0  0  0  0  0  0  0  0  0  0  0  0
   -4.0650    0.4120    1.5090 N   0  0  0  0  0  0  0  0  0  0  0  0
   -3.1450    1.3710    1.5820 C   0  0  0  0  0  0  0  0  0  0  0  0
   -2.4290    1.3970    0.4270 N   0  0  0  0  0  0  0  0  0  0  0  0
   -1.1250   -1.5850   -3.0840 C   0  0  0  0  0  0  0  0  0  0  0  0
    0.0510   -1.7690   -3.4480 O   0  0  0  0  0  0  0  0  0  0  0  0
   -2.1410   -1.9440   -3.9560 O   0  0  0  0  0  0  0  0  0  0  0  0
   -0.1090   -0.9600   -0.0690 H   0  0  0  0  0  0  0  0  0  0  0  0
   -1.8650   -1.8800   -1.1720 H   0  0  0  0  0  0  0  0  0  0  0  0
   -3.3460   -0.3440   -2.3030 H   0  0  0  0  0  0  0  0  0  0  0  0
   -2.1520    0.9830   -2.2860 H   0  0  0  0  0  0  0  0  0  0  0  0
   -4.5260   -0.9900   -0.0740 H   0  0  0  0  0  0  0  0  0  0  0  0
   -4.7920    0.0990    2.2020 H   0  0  0  0  0  0  0  0  0  0  0  0
   -3.0120    2.0180    2.4480 H   0  0  0  0  0  0  0  0  0  0  0  0
  1 11  1  0  0  0  0
  1  2  1  0  0  0  0
  3 13  1  0  0  0  0
  3  2  1  0  0  0  0
  3 12  1  0  0  0  0
  4  3  1  0  0  0  0
  5  4  1  0  0  0  0
  5 16  1  1  0  0  0
  5  6  1  0  0  0  0
  6 18  1  0  0  0  0
  7  5  1  0  0  0  0
  8  7  2  0  0  0  0
  9  1  1  0  0  0  0
 10  1  1  0  0  0  0
 14  4  1  0  0  0  0
 15  4  1  0  0  0  0
 17  6  1  0  0  0  0
 19 20  1  0  0  0  0
 20 27  1  0  0  0  0
 20 21  1  0  0  0  0
 21 28  1  1  0  0  0
 21 22  1  0  0  0  0
 22 29  1  0  0  0  0
 22  7  1  0  0  0  0
 23 30  1  0  0  0  0
 23 21  1  0  0  0  0
 24 23  2  0  0  0  0
 25 19  1  0  0  0  0
 26 20  1  0  0  0  0
 30 41  1  0  0  0  0
 31 42  1  1  0  0  0
 31 30  1  0  0  0  0
 32 31  1  0  0  0  0
 32 33  1  0  0  0  0
 33 34  2  0  0  0  0
 33 37  1  0  0  0  0
 34 35  1  0  0  0  0
 35 36  1  0  0  0  0
 35 46  1  0  0  0  0
 36 47  1  0  0  0  0
 37 36  2  0  0  0  0
 38 31  1  0  0  0  0
 39 38  1  0  0  0  0
 40 38  2  0  0  0  0
 43 32  1  0  0  0  0
 44 32  1  0  0  0  0
 45 34  1  0  0  0  0
M  END
$$$$
