MSK.pdb
 OpenBabel07022418563D

 51 50  0  0  1  0  0  0  0  0999 V2000
    1.9130   -2.5920    7.1120 C   0  0  0  0  0  0  0  0  0  0  0  0
    1.3710   -0.8480    7.1310 S   0  0  0  0  0  0  0  0  0  0  0  0
    0.3550   -0.4850    5.6840 C   0  0  0  0  0  0  0  0  0  0  0  0
    1.2430   -0.5990    4.4600 C   0  0  0  0  0  0  0  0  0  0  0  0
    0.4920   -0.3160    3.1790 C   0  0  2  0  0  0  0  0  0  0  0  0
   -0.6020   -1.2120    2.9620 N   0  0  0  0  0  0  0  0  0  0  0  0
    1.4610   -0.2680    2.0830 C   0  0  0  0  0  0  0  0  0  0  0  0
    2.4500    0.5110    2.2160 O   0  0  0  0  0  0  0  0  0  0  0  0
    1.0240   -3.2390    6.8870 H   0  0  0  0  0  0  0  0  0  0  0  0
    2.2310   -2.8410    8.1560 H   0  0  0  0  0  0  0  0  0  0  0  0
    2.7430   -2.7470    6.3990 H   0  0  0  0  0  0  0  0  0  0  0  0
    0.0720    0.5980    5.7630 H   0  0  0  0  0  0  0  0  0  0  0  0
   -0.5410   -1.1020    5.6150 H   0  0  0  0  0  0  0  0  0  0  0  0
    2.0930    0.1090    4.5110 H   0  0  0  0  0  0  0  0  0  0  0  0
    1.6510   -1.6210    4.3740 H   0  0  0  0  0  0  0  0  0  0  0  0
    0.0550    0.7130    3.2920 H   0  0  0  0  0  0  0  0  0  0  0  0
   -0.3380   -2.1990    2.8490 H   0  0  0  0  0  0  0  0  0  0  0  0
   -1.4410   -1.0140    3.5090 H   0  0  0  0  0  0  0  0  0  0  0  0
    3.9330   -2.0230   -1.4890 O   0  0  0  0  0  0  0  0  0  0  0  0
    3.0270   -2.2770   -0.4340 C   0  0  0  0  0  0  0  0  0  0  0  0
    2.3290   -0.9660   -0.1640 C   0  0  2  0  0  0  0  0  0  0  0  0
    1.3650   -1.0370    0.8830 N   0  0  0  0  0  0  0  0  0  0  0  0
    1.7140   -0.5450   -1.4700 C   0  0  0  0  0  0  0  0  0  0  0  0
    2.4270   -0.4300   -2.5060 O   0  0  0  0  0  0  0  0  0  0  0  0
    4.6640   -1.4450   -1.2140 H   0  0  0  0  0  0  0  0  0  0  0  0
    2.3200   -3.0310   -0.8380 H   0  0  0  0  0  0  0  0  0  0  0  0
    3.6290   -2.6270    0.4120 H   0  0  0  0  0  0  0  0  0  0  0  0
    3.1170   -0.2400    0.1210 H   0  0  0  0  0  0  0  0  0  0  0  0
    0.5230   -1.6680    0.8260 H   0  0  0  0  0  0  0  0  0  0  0  0
    0.3240   -0.2690   -1.5620 N   0  0  0  0  0  0  0  0  0  0  0  0
   -0.3260    0.1380   -2.7830 C   0  0  1  0  0  0  0  0  0  0  0  0
   -1.2460   -0.8400   -3.3840 C   0  0  0  0  0  0  0  0  0  0  0  0
   -2.4080   -1.3690   -2.6520 C   0  0  0  0  0  0  0  0  0  0  0  0
   -3.5160   -0.5540   -2.1860 C   0  0  0  0  0  0  0  0  0  0  0  0
   -3.3870    0.5130   -1.1960 C   0  0  0  0  0  0  0  0  0  0  0  0
   -2.8520    0.1350    0.0840 N   0  0  0  0  0  0  0  0  0  0  0  0
   -0.7120    1.5610   -2.8320 C   0  0  0  0  0  0  0  0  0  0  0  0
   -0.4730    2.3620   -1.8990 O   0  0  0  0  0  0  0  0  0  0  0  0
   -1.3650    2.0110   -3.9660 O   0  0  0  0  0  0  0  0  0  0  0  0
   -0.2330   -0.3810   -0.6620 H   0  0  0  0  0  0  0  0  0  0  0  0
    0.5770    0.1400   -3.5520 H   0  0  0  0  0  0  0  0  0  0  0  0
   -0.5890   -1.7070   -3.7710 H   0  0  0  0  0  0  0  0  0  0  0  0
   -1.5720   -0.3810   -4.3830 H   0  0  0  0  0  0  0  0  0  0  0  0
   -2.0470   -2.1040   -1.8430 H   0  0  0  0  0  0  0  0  0  0  0  0
   -2.8800   -2.1430   -3.3780 H   0  0  0  0  0  0  0  0  0  0  0  0
   -3.9550   -0.0470   -3.1270 H   0  0  0  0  0  0  0  0  0  0  0  0
   -4.4240   -1.2200   -1.9130 H   0  0  0  0  0  0  0  0  0  0  0  0
   -4.4990    0.7740   -0.9170 H   0  0  0  0  0  0  0  0  0  0  0  0
   -3.0210    1.4960   -1.4880 H   0  0  0  0  0  0  0  0  0  0  0  0
   -2.1480    0.7630    0.4680 H   0  0  0  0  0  0  0  0  0  0  0  0
   -3.5110   -0.3050    0.7230 H   0  0  0  0  0  0  0  0  0  0  0  0
  1  2  1  0  0  0  0
  1 10  1  0  0  0  0
  3 12  1  0  0  0  0
  3  2  1  0  0  0  0
  4 14  1  0  0  0  0
  4  3  1  0  0  0  0
  5 16  1  1  0  0  0
  5  4  1  0  0  0  0
  6  5  1  0  0  0  0
  6 18  1  0  0  0  0
  7  8  2  0  0  0  0
  7  5  1  0  0  0  0
  9  1  1  0  0  0  0
 11  1  1  0  0  0  0
 13  3  1  0  0  0  0
 15  4  1  0  0  0  0
 17  6  1  0  0  0  0
 19 25  1  0  0  0  0
 19 20  1  0  0  0  0
 20 21  1  0  0  0  0
 20 27  1  0  0  0  0
 21 28  1  1  0  0  0
 21 22  1  0  0  0  0
 22  7  1  0  0  0  0
 23 21  1  0  0  0  0
 24 23  2  0  0  0  0
 26 20  1  0  0  0  0
 29 22  1  0  0  0  0
 30 23  1  0  0  0  0
 30 40  1  0  0  0  0
 31 41  1  6  0  0  0
 31 30  1  0  0  0  0
 32 31  1  0  0  0  0
 32 33  1  0  0  0  0
 33 34  1  0  0  0  0
 33 44  1  0  0  0  0
 34 47  1  0  0  0  0
 34 35  1  0  0  0  0
 35 48  1  0  0  0  0
 35 36  1  0  0  0  0
 36 50  1  0  0  0  0
 36 51  1  0  0  0  0
 37 31  1  0  0  0  0
 37 38  1  0  0  0  0
 39 37  2  0  0  0  0
 42 32  1  0  0  0  0
 43 32  1  0  0  0  0
 45 33  1  0  0  0  0
 46 34  1  0  0  0  0
 49 35  1  0  0  0  0
M  END
$$$$
