MSR.pdb
 OpenBabel07022418563D

 53 52  0  0  1  0  0  0  0  0999 V2000
    1.6770   -5.9910    1.9810 C   0  0  0  0  0  0  0  0  0  0  0  0
    2.7630   -5.1640    0.8250 S   0  0  0  0  0  0  0  0  0  0  0  0
    2.5470   -3.4080    0.7180 C   0  0  0  0  0  0  0  0  0  0  0  0
    3.0190   -2.5530    1.8120 C   0  0  0  0  0  0  0  0  0  0  0  0
    2.5180   -2.7140    3.1830 C   0  0  2  0  0  0  0  0  0  0  0  0
    2.8020   -3.9840    3.7570 N   0  0  0  0  0  0  0  0  0  0  0  0
    1.0740   -2.3890    3.3410 C   0  0  0  0  0  0  0  0  0  0  0  0
    0.2610   -3.1380    3.9100 O   0  0  0  0  0  0  0  0  0  0  0  0
    1.1030   -6.8300    1.4620 H   0  0  0  0  0  0  0  0  0  0  0  0
    2.2710   -6.4580    2.7810 H   0  0  0  0  0  0  0  0  0  0  0  0
    0.8960   -5.3660    2.4300 H   0  0  0  0  0  0  0  0  0  0  0  0
    3.1380   -3.0740   -0.2070 H   0  0  0  0  0  0  0  0  0  0  0  0
    1.4930   -3.1580    0.3900 H   0  0  0  0  0  0  0  0  0  0  0  0
    2.9560   -1.4850    1.4610 H   0  0  0  0  0  0  0  0  0  0  0  0
    4.1510   -2.7070    1.8720 H   0  0  0  0  0  0  0  0  0  0  0  0
    3.0770   -1.9570    3.8190 H   0  0  0  0  0  0  0  0  0  0  0  0
    2.4750   -3.9790    4.7490 H   0  0  0  0  0  0  0  0  0  0  0  0
    3.8280   -4.1420    3.7550 H   0  0  0  0  0  0  0  0  0  0  0  0
    0.0060    1.5370    3.1000 O   0  0  0  0  0  0  0  0  0  0  0  0
   -0.7740    0.5580    3.7270 C   0  0  0  0  0  0  0  0  0  0  0  0
   -0.7770   -0.7280    2.9050 C   0  0  2  0  0  0  0  0  0  0  0  0
    0.6050   -1.1600    2.8140 N   0  0  0  0  0  0  0  0  0  0  0  0
   -1.3430   -0.4490    1.5600 C   0  0  0  0  0  0  0  0  0  0  0  0
   -2.5040   -0.0540    1.3660 O   0  0  0  0  0  0  0  0  0  0  0  0
    0.3580    2.1990    3.7330 H   0  0  0  0  0  0  0  0  0  0  0  0
   -0.3150    0.3910    4.7220 H   0  0  0  0  0  0  0  0  0  0  0  0
   -1.7920    0.9630    3.8480 H   0  0  0  0  0  0  0  0  0  0  0  0
   -1.4030   -1.4510    3.4290 H   0  0  0  0  0  0  0  0  0  0  0  0
    1.2930   -0.5230    2.3290 H   0  0  0  0  0  0  0  0  0  0  0  0
   -3.2330    4.8060   -1.7170 N   0  0  0  0  0  0  0  0  0  0  0  0
   -3.1850    3.5740   -2.4130 C   0  0  0  0  0  0  0  0  0  0  0  0
   -4.2230    3.1570   -3.0440 N   0  0  0  0  0  0  0  0  0  0  0  0
   -2.0150    2.8140   -2.4130 N   0  0  0  0  0  0  0  0  0  0  0  0
   -1.8430    1.5960   -3.2020 C   0  0  0  0  0  0  0  0  0  0  0  0
   -0.4850    1.0050   -2.9950 C   0  0  0  0  0  0  0  0  0  0  0  0
   -0.1540    0.6180   -1.6160 C   0  0  0  0  0  0  0  0  0  0  0  0
   -1.0030   -0.3870   -0.9410 C   0  0  2  0  0  0  0  0  0  0  0  0
   -0.5190   -0.6420    0.4280 N   0  0  0  0  0  0  0  0  0  0  0  0
   -1.0980   -1.6520   -1.7000 C   0  0  0  0  0  0  0  0  0  0  0  0
   -1.5170   -1.6410   -2.8800 O   0  0  0  0  0  0  0  0  0  0  0  0
   -0.7450   -2.8860   -1.1760 O   0  0  0  0  0  0  0  0  0  0  0  0
   -2.3780    5.4320   -1.7430 H   0  0  0  0  0  0  0  0  0  0  0  0
   -4.0480    5.1440   -1.1810 H   0  0  0  0  0  0  0  0  0  0  0  0
   -5.1160    3.7270   -3.0490 H   0  0  0  0  0  0  0  0  0  0  0  0
   -1.2180    3.1210   -1.8270 H   0  0  0  0  0  0  0  0  0  0  0  0
   -2.6710    0.8920   -3.0860 H   0  0  0  0  0  0  0  0  0  0  0  0
   -1.8830    1.9440   -4.2740 H   0  0  0  0  0  0  0  0  0  0  0  0
   -0.3580    0.1640   -3.7040 H   0  0  0  0  0  0  0  0  0  0  0  0
    0.2390    1.7860   -3.3850 H   0  0  0  0  0  0  0  0  0  0  0  0
   -0.1870    1.5560   -0.9830 H   0  0  0  0  0  0  0  0  0  0  0  0
    0.9270    0.3100   -1.5480 H   0  0  0  0  0  0  0  0  0  0  0  0
   -2.0360   -0.0240   -0.8130 H   0  0  0  0  0  0  0  0  0  0  0  0
    0.4790   -0.9760    0.4960 H   0  0  0  0  0  0  0  0  0  0  0  0
  1 11  1  0  0  0  0
  1 10  1  0  0  0  0
  2  1  1  0  0  0  0
  3  2  1  0  0  0  0
  3  4  1  0  0  0  0
  4 15  1  0  0  0  0
  4  5  1  0  0  0  0
  5  7  1  0  0  0  0
  5  6  1  0  0  0  0
  5 16  1  1  0  0  0
  6 17  1  0  0  0  0
  7  8  2  0  0  0  0
  9  1  1  0  0  0  0
 12  3  1  0  0  0  0
 13  3  1  0  0  0  0
 14  4  1  0  0  0  0
 18  6  1  0  0  0  0
 19 20  1  0  0  0  0
 19 25  1  0  0  0  0
 20 27  1  0  0  0  0
 20 26  1  0  0  0  0
 21 28  1  1  0  0  0
 21 20  1  0  0  0  0
 22 21  1  0  0  0  0
 22  7  1  0  0  0  0
 23 21  1  0  0  0  0
 24 23  2  0  0  0  0
 29 22  1  0  0  0  0
 30 43  1  0  0  0  0
 31 30  1  0  0  0  0
 32 31  2  0  0  0  0
 33 31  1  0  0  0  0
 33 45  1  0  0  0  0
 34 46  1  0  0  0  0
 34 35  1  0  0  0  0
 34 33  1  0  0  0  0
 35 36  1  0  0  0  0
 36 51  1  0  0  0  0
 36 50  1  0  0  0  0
 36 37  1  0  0  0  0
 37 52  1  1  0  0  0
 37 38  1  0  0  0  0
 38 53  1  0  0  0  0
 38 23  1  0  0  0  0
 39 41  1  0  0  0  0
 39 37  1  0  0  0  0
 40 39  2  0  0  0  0
 42 30  1  0  0  0  0
 44 32  1  0  0  0  0
 47 34  1  0  0  0  0
 48 35  1  0  0  0  0
 49 35  1  0  0  0  0
M  END
$$$$
