MSS.pdb
 OpenBabel07022418563D

 41 40  0  0  1  0  0  0  0  0999 V2000
    3.7720   -4.4770    0.4220 C   0  0  0  0  0  0  0  0  0  0  0  0
    2.6030   -4.2080   -0.9220 S   0  0  0  0  0  0  0  0  0  0  0  0
    0.9320   -4.1090   -0.2620 C   0  0  0  0  0  0  0  0  0  0  0  0
    0.6490   -2.9190    0.5600 C   0  0  0  0  0  0  0  0  0  0  0  0
    1.4120   -2.7040    1.8020 C   0  0  2  0  0  0  0  0  0  0  0  0
    1.2730   -3.7470    2.7870 N   0  0  0  0  0  0  0  0  0  0  0  0
    0.9700   -1.4230    2.4600 C   0  0  0  0  0  0  0  0  0  0  0  0
    0.5620   -1.4220    3.6440 O   0  0  0  0  0  0  0  0  0  0  0  0
    3.3140   -4.8800    1.3380 H   0  0  0  0  0  0  0  0  0  0  0  0
    4.3730   -3.5430    0.5920 H   0  0  0  0  0  0  0  0  0  0  0  0
    4.5530   -5.1950    0.0210 H   0  0  0  0  0  0  0  0  0  0  0  0
    0.2550   -4.0300   -1.1710 H   0  0  0  0  0  0  0  0  0  0  0  0
    0.6070   -5.0710    0.2000 H   0  0  0  0  0  0  0  0  0  0  0  0
    0.8520   -2.0200   -0.1010 H   0  0  0  0  0  0  0  0  0  0  0  0
   -0.4460   -2.8630    0.7530 H   0  0  0  0  0  0  0  0  0  0  0  0
    2.4880   -2.5660    1.6180 H   0  0  0  0  0  0  0  0  0  0  0  0
    0.8810   -3.4480    3.6830 H   0  0  0  0  0  0  0  0  0  0  0  0
    0.9850   -4.6550    2.4220 H   0  0  0  0  0  0  0  0  0  0  0  0
    1.5790    3.1830    2.9510 O   0  0  0  0  0  0  0  0  0  0  0  0
    1.8530    1.9410    2.3970 C   0  0  0  0  0  0  0  0  0  0  0  0
    0.5960    1.0790    2.3220 C   0  0  2  0  0  0  0  0  0  0  0  0
    1.0140   -0.1870    1.7270 N   0  0  0  0  0  0  0  0  0  0  0  0
   -0.4060    1.7540    1.4710 C   0  0  0  0  0  0  0  0  0  0  0  0
   -0.8650    2.8640    1.8620 O   0  0  0  0  0  0  0  0  0  0  0  0
    1.7450    3.8620    2.2400 H   0  0  0  0  0  0  0  0  0  0  0  0
    2.2560    2.0200    1.3720 H   0  0  0  0  0  0  0  0  0  0  0  0
    2.6230    1.4430    3.0190 H   0  0  0  0  0  0  0  0  0  0  0  0
    0.2540    0.9370    3.3600 H   0  0  0  0  0  0  0  0  0  0  0  0
    1.3600   -0.2450    0.7510 H   0  0  0  0  0  0  0  0  0  0  0  0
   -0.1880    3.1040   -1.6680 O   0  0  0  0  0  0  0  0  0  0  0  0
   -1.2320    2.2100   -1.9270 C   0  0  0  0  0  0  0  0  0  0  0  0
   -1.8040    1.8030   -0.5870 C   0  0  2  0  0  0  0  0  0  0  0  0
   -0.8360    1.1680    0.2520 N   0  0  0  0  0  0  0  0  0  0  0  0
   -3.0530    1.0280   -0.7300 C   0  0  0  0  0  0  0  0  0  0  0  0
   -3.9730    1.4870   -1.4380 O   0  0  0  0  0  0  0  0  0  0  0  0
   -3.2370   -0.1870   -0.1060 O   0  0  0  0  0  0  0  0  0  0  0  0
   -0.5060    3.9850   -1.3990 H   0  0  0  0  0  0  0  0  0  0  0  0
   -0.9120    1.3660   -2.5360 H   0  0  0  0  0  0  0  0  0  0  0  0
   -1.9980    2.7690   -2.4930 H   0  0  0  0  0  0  0  0  0  0  0  0
   -2.1070    2.7720   -0.0930 H   0  0  0  0  0  0  0  0  0  0  0  0
   -0.4560    0.2360   -0.0870 H   0  0  0  0  0  0  0  0  0  0  0  0
  1 10  1  0  0  0  0
  1  9  1  0  0  0  0
  2  3  1  0  0  0  0
  2  1  1  0  0  0  0
  3 13  1  0  0  0  0
  3  4  1  0  0  0  0
  4 15  1  0  0  0  0
  4  5  1  0  0  0  0
  5 16  1  6  0  0  0
  5  7  1  0  0  0  0
  5  6  1  0  0  0  0
  6 17  1  0  0  0  0
  7  8  2  0  0  0  0
 11  1  1  0  0  0  0
 12  3  1  0  0  0  0
 14  4  1  0  0  0  0
 18  6  1  0  0  0  0
 20 19  1  0  0  0  0
 20 27  1  0  0  0  0
 21 20  1  0  0  0  0
 21 28  1  1  0  0  0
 22 21  1  0  0  0  0
 22  7  1  0  0  0  0
 23 24  2  0  0  0  0
 23 21  1  0  0  0  0
 25 19  1  0  0  0  0
 26 20  1  0  0  0  0
 29 22  1  0  0  0  0
 30 37  1  0  0  0  0
 31 30  1  0  0  0  0
 31 32  1  0  0  0  0
 32 40  1  1  0  0  0
 32 33  1  0  0  0  0
 33 23  1  0  0  0  0
 34 32  1  0  0  0  0
 34 36  1  0  0  0  0
 35 34  2  0  0  0  0
 38 31  1  0  0  0  0
 39 31  1  0  0  0  0
 41 33  1  0  0  0  0
M  END
$$$$
