MSV.pdb
 OpenBabel07022418573D

 46 45  0  0  1  0  0  0  0  0999 V2000
    3.9560   -1.5830    3.3380 C   0  0  0  0  0  0  0  0  0  0  0  0
    5.1040   -2.3780    2.2040 S   0  0  0  0  0  0  0  0  0  0  0  0
    4.3560   -3.4640    1.0100 C   0  0  0  0  0  0  0  0  0  0  0  0
    3.5270   -2.8080   -0.0550 C   0  0  0  0  0  0  0  0  0  0  0  0
    2.3620   -2.0360    0.4790 C   0  0  2  0  0  0  0  0  0  0  0  0
    1.5030   -2.9140    1.2180 N   0  0  0  0  0  0  0  0  0  0  0  0
    1.6490   -1.2820   -0.5820 C   0  0  0  0  0  0  0  0  0  0  0  0
    2.3480   -0.5850   -1.3590 O   0  0  0  0  0  0  0  0  0  0  0  0
    2.9580   -2.0440    3.3850 H   0  0  0  0  0  0  0  0  0  0  0  0
    4.3740   -1.6160    4.3960 H   0  0  0  0  0  0  0  0  0  0  0  0
    3.8690   -0.4860    3.1040 H   0  0  0  0  0  0  0  0  0  0  0  0
    5.1590   -4.0660    0.4910 H   0  0  0  0  0  0  0  0  0  0  0  0
    3.7620   -4.2430    1.5660 H   0  0  0  0  0  0  0  0  0  0  0  0
    4.2320   -2.1100   -0.6000 H   0  0  0  0  0  0  0  0  0  0  0  0
    3.1390   -3.5660   -0.7700 H   0  0  0  0  0  0  0  0  0  0  0  0
    2.7490   -1.2620    1.1680 H   0  0  0  0  0  0  0  0  0  0  0  0
    0.9270   -2.3840    1.9140 H   0  0  0  0  0  0  0  0  0  0  0  0
    0.8720   -3.4830    0.6540 H   0  0  0  0  0  0  0  0  0  0  0  0
   -2.2400   -2.1610   -1.6700 O   0  0  0  0  0  0  0  0  0  0  0  0
   -1.3290   -1.5520   -2.5500 C   0  0  0  0  0  0  0  0  0  0  0  0
   -0.4640   -0.5910   -1.7740 C   0  0  2  0  0  0  0  0  0  0  0  0
    0.2540   -1.3150   -0.7470 N   0  0  0  0  0  0  0  0  0  0  0  0
   -1.2640    0.5050   -1.1360 C   0  0  0  0  0  0  0  0  0  0  0  0
   -1.9750    1.2360   -1.8310 O   0  0  0  0  0  0  0  0  0  0  0  0
   -3.0930   -2.3770   -2.1310 H   0  0  0  0  0  0  0  0  0  0  0  0
   -0.6650   -2.3750   -2.8910 H   0  0  0  0  0  0  0  0  0  0  0  0
   -1.8250   -1.0570   -3.3880 H   0  0  0  0  0  0  0  0  0  0  0  0
    0.2390   -0.1160   -2.4960 H   0  0  0  0  0  0  0  0  0  0  0  0
   -0.2610   -1.9270   -0.0460 H   0  0  0  0  0  0  0  0  0  0  0  0
   -3.6010    2.4080    2.6020 C   0  0  0  0  0  0  0  0  0  0  0  0
   -2.9120    1.2260    1.9560 C   0  0  0  0  0  0  0  0  0  0  0  0
   -2.3260    0.3940    3.0600 C   0  0  0  0  0  0  0  0  0  0  0  0
   -1.9280    1.7340    0.9650 C   0  0  2  0  0  0  0  0  0  0  0  0
   -1.1980    0.7010    0.2690 N   0  0  0  0  0  0  0  0  0  0  0  0
   -1.0090    2.7700    1.5150 C   0  0  0  0  0  0  0  0  0  0  0  0
    0.2580    2.6940    1.3670 O   0  0  0  0  0  0  0  0  0  0  0  0
   -1.4290    3.8860    2.2210 O   0  0  0  0  0  0  0  0  0  0  0  0
   -4.5780    2.1210    3.0460 H   0  0  0  0  0  0  0  0  0  0  0  0
   -3.6600    3.2850    1.9510 H   0  0  0  0  0  0  0  0  0  0  0  0
   -2.9750    2.7060    3.4930 H   0  0  0  0  0  0  0  0  0  0  0  0
   -3.6910    0.6550    1.4190 H   0  0  0  0  0  0  0  0  0  0  0  0
   -2.1360   -0.6620    2.7420 H   0  0  0  0  0  0  0  0  0  0  0  0
   -1.4410    0.8630    3.5080 H   0  0  0  0  0  0  0  0  0  0  0  0
   -3.0800    0.3040    3.8760 H   0  0  0  0  0  0  0  0  0  0  0  0
   -2.5240    2.2560    0.1840 H   0  0  0  0  0  0  0  0  0  0  0  0
   -0.5660    0.0310    0.7960 H   0  0  0  0  0  0  0  0  0  0  0  0
  1  9  1  0  0  0  0
  1 10  1  0  0  0  0
  2  1  1  0  0  0  0
  3 13  1  0  0  0  0
  3  2  1  0  0  0  0
  4  5  1  0  0  0  0
  4  3  1  0  0  0  0
  5 16  1  1  0  0  0
  5  6  1  0  0  0  0
  6 17  1  0  0  0  0
  7  5  1  0  0  0  0
  8  7  2  0  0  0  0
 11  1  1  0  0  0  0
 12  3  1  0  0  0  0
 14  4  1  0  0  0  0
 15  4  1  0  0  0  0
 18  6  1  0  0  0  0
 20 21  1  0  0  0  0
 20 19  1  0  0  0  0
 21 28  1  6  0  0  0
 21 23  1  0  0  0  0
 21 22  1  0  0  0  0
 22  7  1  0  0  0  0
 22 29  1  0  0  0  0
 23 34  1  0  0  0  0
 24 23  2  0  0  0  0
 25 19  1  0  0  0  0
 26 20  1  0  0  0  0
 27 20  1  0  0  0  0
 30 38  1  0  0  0  0
 30 40  1  0  0  0  0
 31 30  1  0  0  0  0
 31 32  1  0  0  0  0
 32 43  1  0  0  0  0
 32 44  1  0  0  0  0
 33 45  1  6  0  0  0
 33 35  1  0  0  0  0
 33 31  1  0  0  0  0
 34 46  1  0  0  0  0
 34 33  1  0  0  0  0
 35 37  1  0  0  0  0
 36 35  2  0  0  0  0
 39 30  1  0  0  0  0
 41 31  1  0  0  0  0
 42 32  1  0  0  0  0
M  END
$$$$
