MTA.pdb
 OpenBabel07022418573D

 43 42  0  0  1  0  0  0  0  0999 V2000
   -1.1710   -4.8580   -0.4080 C   0  0  0  0  0  0  0  0  0  0  0  0
   -1.2810   -4.4890   -2.1600 S   0  0  0  0  0  0  0  0  0  0  0  0
   -1.6600   -2.8030   -2.5840 C   0  0  0  0  0  0  0  0  0  0  0  0
   -0.5520   -1.8540   -2.3000 C   0  0  0  0  0  0  0  0  0  0  0  0
   -0.2120   -1.8120   -0.8420 C   0  0  2  0  0  0  0  0  0  0  0  0
   -1.4070   -1.3890   -0.1310 N   0  0  0  0  0  0  0  0  0  0  0  0
    0.8900   -0.7910   -0.6170 C   0  0  0  0  0  0  0  0  0  0  0  0
    2.0060   -0.9420   -1.1480 O   0  0  0  0  0  0  0  0  0  0  0  0
   -1.6980   -4.1120    0.2070 H   0  0  0  0  0  0  0  0  0  0  0  0
   -1.7450   -5.8220   -0.2630 H   0  0  0  0  0  0  0  0  0  0  0  0
   -0.1280   -5.0510   -0.0610 H   0  0  0  0  0  0  0  0  0  0  0  0
   -2.5580   -2.5040   -1.9690 H   0  0  0  0  0  0  0  0  0  0  0  0
   -1.9900   -2.7330   -3.6700 H   0  0  0  0  0  0  0  0  0  0  0  0
   -0.7830   -0.8070   -2.6450 H   0  0  0  0  0  0  0  0  0  0  0  0
    0.3830   -2.1790   -2.8310 H   0  0  0  0  0  0  0  0  0  0  0  0
    0.1300   -2.7640   -0.4210 H   0  0  0  0  0  0  0  0  0  0  0  0
   -1.3020   -1.3930    0.8890 H   0  0  0  0  0  0  0  0  0  0  0  0
   -1.7390   -0.4720   -0.5000 H   0  0  0  0  0  0  0  0  0  0  0  0
    0.8240    2.3670   -1.5930 C   0  0  0  0  0  0  0  0  0  0  0  0
    1.0820    2.6500   -0.1060 C   0  0  1  0  0  0  0  0  0  0  0  0
   -0.1550    3.0010    0.4300 O   0  0  0  0  0  0  0  0  0  0  0  0
    1.6050    1.3620    0.4800 C   0  0  2  0  0  0  0  0  0  0  0  0
    0.6590    0.3280    0.1870 N   0  0  0  0  0  0  0  0  0  0  0  0
    1.9120    1.4710    1.9250 C   0  0  0  0  0  0  0  0  0  0  0  0
    2.7170    2.3220    2.3800 O   0  0  0  0  0  0  0  0  0  0  0  0
    0.3100    3.2320   -2.0100 H   0  0  0  0  0  0  0  0  0  0  0  0
    0.1600    1.4850   -1.6890 H   0  0  0  0  0  0  0  0  0  0  0  0
    1.8070    2.1500   -2.0880 H   0  0  0  0  0  0  0  0  0  0  0  0
    1.8430    3.4240    0.0260 H   0  0  0  0  0  0  0  0  0  0  0  0
   -0.8370    2.4510   -0.0300 H   0  0  0  0  0  0  0  0  0  0  0  0
    2.5430    1.1090   -0.0610 H   0  0  0  0  0  0  0  0  0  0  0  0
   -0.3000    0.4300    0.6250 H   0  0  0  0  0  0  0  0  0  0  0  0
    0.3400    0.8420    5.1230 C   0  0  0  0  0  0  0  0  0  0  0  0
    1.5720    0.6750    4.2970 C   0  0  2  0  0  0  0  0  0  0  0  0
    1.3030    0.6050    2.8760 N   0  0  0  0  0  0  0  0  0  0  0  0
    2.2190   -0.6070    4.6840 C   0  0  0  0  0  0  0  0  0  0  0  0
    2.5660   -0.8330    5.8830 O   0  0  0  0  0  0  0  0  0  0  0  0
    2.4780   -1.6200    3.7700 O   0  0  0  0  0  0  0  0  0  0  0  0
   -0.4440    0.1160    4.7600 H   0  0  0  0  0  0  0  0  0  0  0  0
   -0.0820    1.8490    5.1290 H   0  0  0  0  0  0  0  0  0  0  0  0
    0.5870    0.5240    6.1610 H   0  0  0  0  0  0  0  0  0  0  0  0
    2.2910    1.4720    4.5550 H   0  0  0  0  0  0  0  0  0  0  0  0
    0.6290   -0.1150    2.5390 H   0  0  0  0  0  0  0  0  0  0  0  0
  1 10  1  0  0  0  0
  1 11  1  0  0  0  0
  1  9  1  0  0  0  0
  2  1  1  0  0  0  0
  3  4  1  0  0  0  0
  3  2  1  0  0  0  0
  3 12  1  0  0  0  0
  4  5  1  0  0  0  0
  5  7  1  0  0  0  0
  5 16  1  1  0  0  0
  5  6  1  0  0  0  0
  6 17  1  0  0  0  0
  7 23  1  0  0  0  0
  8  7  2  0  0  0  0
 13  3  1  0  0  0  0
 14  4  1  0  0  0  0
 15  4  1  0  0  0  0
 18  6  1  0  0  0  0
 19 20  1  0  0  0  0
 20 29  1  1  0  0  0
 20 21  1  0  0  0  0
 20 22  1  0  0  0  0
 22 31  1  6  0  0  0
 22 24  1  0  0  0  0
 23 22  1  0  0  0  0
 23 32  1  0  0  0  0
 24 25  2  0  0  0  0
 24 35  1  0  0  0  0
 26 19  1  0  0  0  0
 27 19  1  0  0  0  0
 28 19  1  0  0  0  0
 30 21  1  0  0  0  0
 33 40  1  0  0  0  0
 33 41  1  0  0  0  0
 34 42  1  1  0  0  0
 34 36  1  0  0  0  0
 34 33  1  0  0  0  0
 35 34  1  0  0  0  0
 36 37  1  0  0  0  0
 38 36  2  0  0  0  0
 39 33  1  0  0  0  0
 43 35  1  0  0  0  0
M  END
$$$$
