MTD.pdb
 OpenBabel07022418573D

 46 45  0  0  1  0  0  0  0  0999 V2000
   -1.1870   -5.3340    0.9060 C   0  0  0  0  0  0  0  0  0  0  0  0
    0.3990   -5.7800    0.2480 S   0  0  0  0  0  0  0  0  0  0  0  0
    1.8390   -5.1830    1.0710 C   0  0  0  0  0  0  0  0  0  0  0  0
    2.2020   -3.7430    0.9450 C   0  0  0  0  0  0  0  0  0  0  0  0
    1.2190   -2.7380    1.4040 C   0  0  2  0  0  0  0  0  0  0  0  0
   -0.0250   -2.7500    0.7100 N   0  0  0  0  0  0  0  0  0  0  0  0
    1.7550   -1.3420    1.3230 C   0  0  0  0  0  0  0  0  0  0  0  0
    2.8090   -1.0980    1.9150 O   0  0  0  0  0  0  0  0  0  0  0  0
   -1.1830   -4.8740    1.9220 H   0  0  0  0  0  0  0  0  0  0  0  0
   -1.7770   -6.2920    1.0300 H   0  0  0  0  0  0  0  0  0  0  0  0
   -1.7910   -4.7370    0.1930 H   0  0  0  0  0  0  0  0  0  0  0  0
    2.7260   -5.7570    0.6210 H   0  0  0  0  0  0  0  0  0  0  0  0
    1.9050   -5.5260    2.1540 H   0  0  0  0  0  0  0  0  0  0  0  0
    3.1820   -3.5210    1.4710 H   0  0  0  0  0  0  0  0  0  0  0  0
    2.4710   -3.5400   -0.1410 H   0  0  0  0  0  0  0  0  0  0  0  0
    0.9830   -2.9860    2.4810 H   0  0  0  0  0  0  0  0  0  0  0  0
    0.0130   -2.6560   -0.3060 H   0  0  0  0  0  0  0  0  0  0  0  0
   -0.8140   -2.3270    1.1980 H   0  0  0  0  0  0  0  0  0  0  0  0
    3.1620    0.6330   -1.3070 C   0  0  0  0  0  0  0  0  0  0  0  0
    1.9060    1.3890   -0.9420 C   0  0  1  0  0  0  0  0  0  0  0  0
    0.8970    1.2410   -1.8650 O   0  0  0  0  0  0  0  0  0  0  0  0
    1.5100    1.0190    0.4650 C   0  0  2  0  0  0  0  0  0  0  0  0
    1.0860   -0.3470    0.6030 N   0  0  0  0  0  0  0  0  0  0  0  0
    0.4880    1.9680    1.0080 C   0  0  0  0  0  0  0  0  0  0  0  0
    0.6530    3.2110    0.9960 O   0  0  0  0  0  0  0  0  0  0  0  0
    3.8190    1.1860   -2.0100 H   0  0  0  0  0  0  0  0  0  0  0  0
    2.8880   -0.3150   -1.8550 H   0  0  0  0  0  0  0  0  0  0  0  0
    3.7860    0.4050   -0.4170 H   0  0  0  0  0  0  0  0  0  0  0  0
    2.1710    2.4690   -0.9290 H   0  0  0  0  0  0  0  0  0  0  0  0
    0.2660    2.0060   -1.8270 H   0  0  0  0  0  0  0  0  0  0  0  0
    2.4190    1.1450    1.0880 H   0  0  0  0  0  0  0  0  0  0  0  0
    0.1910   -0.6290    0.1200 H   0  0  0  0  0  0  0  0  0  0  0  0
   -0.7390    1.4570    1.5710 N   0  0  0  0  0  0  0  0  0  0  0  0
   -1.6940    2.3920    2.0790 C   0  0  1  0  0  0  0  0  0  0  0  0
   -3.0320    2.3060    1.3800 C   0  0  0  0  0  0  0  0  0  0  0  0
   -2.9540    2.5670   -0.0520 C   0  0  0  0  0  0  0  0  0  0  0  0
   -2.8630    3.7430   -0.4700 O   0  0  0  0  0  0  0  0  0  0  0  0
   -1.9740    2.1690    3.5350 C   0  0  0  0  0  0  0  0  0  0  0  0
   -1.3640    1.2370    4.1230 O   0  0  0  0  0  0  0  0  0  0  0  0
   -2.9780    1.5510   -0.9870 O   0  0  0  0  0  0  0  0  0  0  0  0
   -2.8570    2.9280    4.2500 O   0  0  0  0  0  0  0  0  0  0  0  0
   -0.8300    0.4360    1.5610 H   0  0  0  0  0  0  0  0  0  0  0  0
   -1.3510    3.4420    1.9860 H   0  0  0  0  0  0  0  0  0  0  0  0
   -3.4420    1.2920    1.6240 H   0  0  0  0  0  0  0  0  0  0  0  0
   -3.7090    3.0230    1.9160 H   0  0  0  0  0  0  0  0  0  0  0  0
   -2.5360    1.6040   -1.9020 H   0  0  0  0  0  0  0  0  0  0  0  0
  1 10  1  0  0  0  0
  1  9  1  0  0  0  0
  2  1  1  0  0  0  0
  2  3  1  0  0  0  0
  3 13  1  0  0  0  0
  4  3  1  0  0  0  0
  4  5  1  0  0  0  0
  4 14  1  0  0  0  0
  5 16  1  1  0  0  0
  6 18  1  0  0  0  0
  6  5  1  0  0  0  0
  7  5  1  0  0  0  0
  7  8  2  0  0  0  0
 11  1  1  0  0  0  0
 12  3  1  0  0  0  0
 15  4  1  0  0  0  0
 17  6  1  0  0  0  0
 19 20  1  0  0  0  0
 19 28  1  0  0  0  0
 20 29  1  1  0  0  0
 20 22  1  0  0  0  0
 21 30  1  0  0  0  0
 21 20  1  0  0  0  0
 22 23  1  0  0  0  0
 22 24  1  0  0  0  0
 22 31  1  1  0  0  0
 23  7  1  0  0  0  0
 24 33  1  0  0  0  0
 25 24  2  0  0  0  0
 26 19  1  0  0  0  0
 27 19  1  0  0  0  0
 32 23  1  0  0  0  0
 33 34  1  0  0  0  0
 34 43  1  6  0  0  0
 34 38  1  0  0  0  0
 35 44  1  0  0  0  0
 35 45  1  0  0  0  0
 35 34  1  0  0  0  0
 36 35  1  0  0  0  0
 37 36  2  0  0  0  0
 38 39  2  0  0  0  0
 38 41  1  0  0  0  0
 40 36  1  0  0  0  0
 42 33  1  0  0  0  0
 46 40  1  0  0  0  0
M  END
$$$$
