MTE.pdb
 OpenBabel07022418573D

 49 48  0  0  1  0  0  0  0  0999 V2000
    2.1870   -3.5020    4.9330 C   0  0  0  0  0  0  0  0  0  0  0  0
    2.8290   -3.7550    3.2550 S   0  0  0  0  0  0  0  0  0  0  0  0
    1.6960   -2.9690    2.0340 C   0  0  0  0  0  0  0  0  0  0  0  0
    2.2820   -3.2040    0.6940 C   0  0  0  0  0  0  0  0  0  0  0  0
    1.5910   -2.6750   -0.4750 C   0  0  2  0  0  0  0  0  0  0  0  0
    2.2800   -3.0250   -1.7010 N   0  0  0  0  0  0  0  0  0  0  0  0
    1.3180   -1.2300   -0.5330 C   0  0  0  0  0  0  0  0  0  0  0  0
    0.4340   -0.8620   -1.3370 O   0  0  0  0  0  0  0  0  0  0  0  0
    1.0870   -3.3070    4.8710 H   0  0  0  0  0  0  0  0  0  0  0  0
    2.3280   -4.4450    5.4790 H   0  0  0  0  0  0  0  0  0  0  0  0
    2.7460   -2.7100    5.4260 H   0  0  0  0  0  0  0  0  0  0  0  0
    0.7190   -3.4870    2.1920 H   0  0  0  0  0  0  0  0  0  0  0  0
    1.5560   -1.9520    2.3690 H   0  0  0  0  0  0  0  0  0  0  0  0
    3.3370   -2.8030    0.7220 H   0  0  0  0  0  0  0  0  0  0  0  0
    2.4310   -4.3120    0.5880 H   0  0  0  0  0  0  0  0  0  0  0  0
    0.5890   -3.1960   -0.5520 H   0  0  0  0  0  0  0  0  0  0  0  0
    2.4850   -4.0410   -1.7440 H   0  0  0  0  0  0  0  0  0  0  0  0
    1.7380   -2.6810   -2.4970 H   0  0  0  0  0  0  0  0  0  0  0  0
    3.6620    1.4680   -1.2040 C   0  0  0  0  0  0  0  0  0  0  0  0
    2.1490    1.7050   -1.1090 C   0  0  1  0  0  0  0  0  0  0  0  0
    1.5800    1.1930   -2.2420 O   0  0  0  0  0  0  0  0  0  0  0  0
    1.7090    1.1180    0.1910 C   0  0  2  0  0  0  0  0  0  0  0  0
    1.9970   -0.2810    0.2580 N   0  0  0  0  0  0  0  0  0  0  0  0
    0.2830    1.4330    0.4790 C   0  0  0  0  0  0  0  0  0  0  0  0
   -0.1300    2.6300    0.2870 O   0  0  0  0  0  0  0  0  0  0  0  0
    3.8440    0.4960   -1.7180 H   0  0  0  0  0  0  0  0  0  0  0  0
    4.1680    2.2910   -1.7160 H   0  0  0  0  0  0  0  0  0  0  0  0
    4.0880    1.3860   -0.1850 H   0  0  0  0  0  0  0  0  0  0  0  0
    2.0720    2.8390   -1.0930 H   0  0  0  0  0  0  0  0  0  0  0  0
    2.2380    1.1330   -3.0060 H   0  0  0  0  0  0  0  0  0  0  0  0
    2.3530    1.6770    0.9710 H   0  0  0  0  0  0  0  0  0  0  0  0
    2.7760   -0.6050    0.9340 H   0  0  0  0  0  0  0  0  0  0  0  0
   -0.6710    0.5280    0.9530 N   0  0  0  0  0  0  0  0  0  0  0  0
   -2.0730    0.9580    1.2000 C   0  0  1  0  0  0  0  0  0  0  0  0
   -2.9460    0.1670    0.2630 C   0  0  0  0  0  0  0  0  0  0  0  0
   -4.4030    0.5220    0.4130 C   0  0  0  0  0  0  0  0  0  0  0  0
   -5.2430   -0.2700   -0.5410 C   0  0  0  0  0  0  0  0  0  0  0  0
   -5.4800   -1.4650   -0.2570 O   0  0  0  0  0  0  0  0  0  0  0  0
   -2.3930    0.8160    2.6200 C   0  0  0  0  0  0  0  0  0  0  0  0
   -1.5590    0.3260    3.4560 O   0  0  0  0  0  0  0  0  0  0  0  0
   -5.7630    0.2510   -1.7080 O   0  0  0  0  0  0  0  0  0  0  0  0
   -3.6080    1.2060    3.1280 O   0  0  0  0  0  0  0  0  0  0  0  0
   -0.4080   -0.4560    1.1520 H   0  0  0  0  0  0  0  0  0  0  0  0
   -2.1840    2.0270    0.9380 H   0  0  0  0  0  0  0  0  0  0  0  0
   -2.8680   -0.9300    0.5030 H   0  0  0  0  0  0  0  0  0  0  0  0
   -2.6130    0.2680   -0.7880 H   0  0  0  0  0  0  0  0  0  0  0  0
   -4.7940    0.3340    1.4300 H   0  0  0  0  0  0  0  0  0  0  0  0
   -4.5830    1.5980    0.1930 H   0  0  0  0  0  0  0  0  0  0  0  0
   -6.1760   -0.3380   -2.4440 H   0  0  0  0  0  0  0  0  0  0  0  0
  1 11  1  0  0  0  0
  1 10  1  0  0  0  0
  2  1  1  0  0  0  0
  3 12  1  0  0  0  0
  3 13  1  0  0  0  0
  3  2  1  0  0  0  0
  4 14  1  0  0  0  0
  4  3  1  0  0  0  0
  5 16  1  6  0  0  0
  5  4  1  0  0  0  0
  6  5  1  0  0  0  0
  7  5  1  0  0  0  0
  7 23  1  0  0  0  0
  8  7  2  0  0  0  0
  9  1  1  0  0  0  0
 15  4  1  0  0  0  0
 17  6  1  0  0  0  0
 18  6  1  0  0  0  0
 19 20  1  0  0  0  0
 19 28  1  0  0  0  0
 20 29  1  1  0  0  0
 20 22  1  0  0  0  0
 21 20  1  0  0  0  0
 22 23  1  0  0  0  0
 22 24  1  0  0  0  0
 22 31  1  1  0  0  0
 23 32  1  0  0  0  0
 24 33  1  0  0  0  0
 25 24  2  0  0  0  0
 26 19  1  0  0  0  0
 27 19  1  0  0  0  0
 30 21  1  0  0  0  0
 33 43  1  0  0  0  0
 33 34  1  0  0  0  0
 34 44  1  6  0  0  0
 34 39  1  0  0  0  0
 35 36  1  0  0  0  0
 35 45  1  0  0  0  0
 35 34  1  0  0  0  0
 36 47  1  0  0  0  0
 37 38  2  0  0  0  0
 37 36  1  0  0  0  0
 39 42  2  0  0  0  0
 39 40  1  0  0  0  0
 41 37  1  0  0  0  0
 46 35  1  0  0  0  0
 48 36  1  0  0  0  0
 49 41  1  0  0  0  0
M  END
$$$$
