MTF.pdb
 OpenBabel07022418573D

 53 53  0  0  1  0  0  0  0  0999 V2000
    3.1520   -4.2040    2.9680 C   0  0  0  0  0  0  0  0  0  0  0  0
    3.2100   -4.4190    1.2060 S   0  0  0  0  0  0  0  0  0  0  0  0
    2.4110   -3.2270    0.1890 C   0  0  0  0  0  0  0  0  0  0  0  0
    3.0220   -1.9000    0.0320 C   0  0  0  0  0  0  0  0  0  0  0  0
    3.2580   -1.0250    1.1880 C   0  0  2  0  0  0  0  0  0  0  0  0
    4.1650   -1.6380    2.1220 N   0  0  0  0  0  0  0  0  0  0  0  0
    2.0310   -0.5600    1.8750 C   0  0  0  0  0  0  0  0  0  0  0  0
    1.9470   -0.7290    3.1160 O   0  0  0  0  0  0  0  0  0  0  0  0
    4.1800   -4.0470    3.3590 H   0  0  0  0  0  0  0  0  0  0  0  0
    2.5170   -3.3960    3.3510 H   0  0  0  0  0  0  0  0  0  0  0  0
    2.8080   -5.1500    3.4960 H   0  0  0  0  0  0  0  0  0  0  0  0
    2.3660   -3.6710   -0.8690 H   0  0  0  0  0  0  0  0  0  0  0  0
    1.3020   -3.1220    0.4100 H   0  0  0  0  0  0  0  0  0  0  0  0
    4.0570   -2.0840   -0.4270 H   0  0  0  0  0  0  0  0  0  0  0  0
    2.5140   -1.3540   -0.8270 H   0  0  0  0  0  0  0  0  0  0  0  0
    3.8120   -0.1100    0.7940 H   0  0  0  0  0  0  0  0  0  0  0  0
    5.0800   -1.8750    1.7270 H   0  0  0  0  0  0  0  0  0  0  0  0
    4.2830   -1.0230    2.9750 H   0  0  0  0  0  0  0  0  0  0  0  0
    0.6940    2.7080    2.5220 C   0  0  0  0  0  0  0  0  0  0  0  0
   -0.4410    1.9890    1.8190 C   0  0  1  0  0  0  0  0  0  0  0  0
   -0.6010    2.4010    0.5190 O   0  0  0  0  0  0  0  0  0  0  0  0
   -0.2240    0.4950    1.9390 C   0  0  2  0  0  0  0  0  0  0  0  0
    0.9510    0.0590    1.2260 N   0  0  0  0  0  0  0  0  0  0  0  0
   -1.4570   -0.2340    1.4940 C   0  0  0  0  0  0  0  0  0  0  0  0
   -2.5230    0.1030    2.0820 O   0  0  0  0  0  0  0  0  0  0  0  0
    0.5130    2.6040    3.6130 H   0  0  0  0  0  0  0  0  0  0  0  0
    1.6890    2.3090    2.2380 H   0  0  0  0  0  0  0  0  0  0  0  0
    0.6190    3.7790    2.2240 H   0  0  0  0  0  0  0  0  0  0  0  0
   -1.3640    2.2270    2.3980 H   0  0  0  0  0  0  0  0  0  0  0  0
    0.1360    2.9950    0.2350 H   0  0  0  0  0  0  0  0  0  0  0  0
   -0.0850    0.2430    3.0110 H   0  0  0  0  0  0  0  0  0  0  0  0
    1.0010    0.2110    0.1890 H   0  0  0  0  0  0  0  0  0  0  0  0
   -1.4140   -1.2320    0.4810 N   0  0  0  0  0  0  0  0  0  0  0  0
   -2.6440   -1.8950    0.1030 C   0  0  1  0  0  0  0  0  0  0  0  0
   -2.9050   -1.7750   -1.3840 C   0  0  0  0  0  0  0  0  0  0  0  0
   -3.0220   -0.3820   -1.8260 C   0  0  0  0  0  0  0  0  0  0  0  0
   -1.8870    0.2820   -2.2330 C   0  0  0  0  0  0  0  0  0  0  0  0
   -1.9410    1.5920   -2.6570 C   0  0  0  0  0  0  0  0  0  0  0  0
   -3.1320    2.2790   -2.6880 C   0  0  0  0  0  0  0  0  0  0  0  0
   -4.2510    1.5860   -2.2750 C   0  0  0  0  0  0  0  0  0  0  0  0
   -4.2260    0.2780   -1.8460 C   0  0  0  0  0  0  0  0  0  0  0  0
   -2.5160   -3.3360    0.4010 C   0  0  0  0  0  0  0  0  0  0  0  0
   -3.4410   -4.1540    0.1730 O   0  0  0  0  0  0  0  0  0  0  0  0
   -1.3430   -3.8140    0.9500 O   0  0  0  0  0  0  0  0  0  0  0  0
   -0.4930   -1.4510    0.0460 H   0  0  0  0  0  0  0  0  0  0  0  0
   -3.5050   -1.5190    0.6880 H   0  0  0  0  0  0  0  0  0  0  0  0
   -3.8450   -2.3270   -1.5890 H   0  0  0  0  0  0  0  0  0  0  0  0
   -2.0990   -2.3440   -1.8900 H   0  0  0  0  0  0  0  0  0  0  0  0
   -0.9040   -0.2210   -2.2280 H   0  0  0  0  0  0  0  0  0  0  0  0
   -1.0100    2.0820   -2.9730 H   0  0  0  0  0  0  0  0  0  0  0  0
   -3.1730    3.3200   -3.0260 H   0  0  0  0  0  0  0  0  0  0  0  0
   -5.1910    2.1480   -2.3060 H   0  0  0  0  0  0  0  0  0  0  0  0
   -5.1550   -0.2070   -1.5320 H   0  0  0  0  0  0  0  0  0  0  0  0
  1 10  1  0  0  0  0
  1  9  1  0  0  0  0
  1 11  1  0  0  0  0
  2  1  1  0  0  0  0
  3 13  1  0  0  0  0
  3  2  1  0  0  0  0
  4  3  1  0  0  0  0
  4  5  1  0  0  0  0
  5 16  1  6  0  0  0
  5  7  1  0  0  0  0
  5  6  1  0  0  0  0
  6 18  1  0  0  0  0
  7  8  2  0  0  0  0
 12  3  1  0  0  0  0
 14  4  1  0  0  0  0
 15  4  1  0  0  0  0
 17  6  1  0  0  0  0
 19 26  1  0  0  0  0
 20 22  1  0  0  0  0
 20 29  1  1  0  0  0
 20 19  1  0  0  0  0
 21 20  1  0  0  0  0
 22 31  1  1  0  0  0
 23  7  1  0  0  0  0
 23 22  1  0  0  0  0
 24 22  1  0  0  0  0
 24 25  2  0  0  0  0
 27 19  1  0  0  0  0
 28 19  1  0  0  0  0
 30 21  1  0  0  0  0
 32 23  1  0  0  0  0
 33 24  1  0  0  0  0
 34 42  1  0  0  0  0
 34 33  1  0  0  0  0
 34 46  1  1  0  0  0
 35 34  1  0  0  0  0
 36 35  1  0  0  0  0
 37 49  1  0  0  0  0
 37 36  2  0  0  0  0
 38 37  1  0  0  0  0
 39 38  2  0  0  0  0
 39 40  1  0  0  0  0
 40 41  2  0  0  0  0
 41 36  1  0  0  0  0
 41 53  1  0  0  0  0
 42 44  1  0  0  0  0
 43 42  2  0  0  0  0
 45 33  1  0  0  0  0
 47 35  1  0  0  0  0
 48 35  1  0  0  0  0
 50 38  1  0  0  0  0
 51 39  1  0  0  0  0
 52 40  1  0  0  0  0
M  END
$$$$
