MTI.pdb
 OpenBabel07022418573D

 52 51  0  0  1  0  0  0  0  0999 V2000
    1.2210   -5.9400    1.1460 C   0  0  0  0  0  0  0  0  0  0  0  0
    2.6980   -5.6670    2.1330 S   0  0  0  0  0  0  0  0  0  0  0  0
    2.5360   -4.5580    3.5010 C   0  0  0  0  0  0  0  0  0  0  0  0
    2.4310   -3.1000    3.2170 C   0  0  0  0  0  0  0  0  0  0  0  0
    1.3150   -2.6190    2.3710 C   0  0  2  0  0  0  0  0  0  0  0  0
    1.3640   -3.1620    1.0680 N   0  0  0  0  0  0  0  0  0  0  0  0
    1.1550   -1.1450    2.4040 C   0  0  0  0  0  0  0  0  0  0  0  0
    1.1120   -0.5930    3.5360 O   0  0  0  0  0  0  0  0  0  0  0  0
    0.2810   -5.5890    1.6110 H   0  0  0  0  0  0  0  0  0  0  0  0
    1.0830   -7.0770    1.1180 H   0  0  0  0  0  0  0  0  0  0  0  0
    1.3330   -5.6890    0.0740 H   0  0  0  0  0  0  0  0  0  0  0  0
    3.4540   -4.6990    4.1520 H   0  0  0  0  0  0  0  0  0  0  0  0
    1.6840   -4.8990    4.1740 H   0  0  0  0  0  0  0  0  0  0  0  0
    2.4740   -2.5630    4.2070 H   0  0  0  0  0  0  0  0  0  0  0  0
    3.4430   -2.8170    2.7580 H   0  0  0  0  0  0  0  0  0  0  0  0
    0.3600   -3.0130    2.8450 H   0  0  0  0  0  0  0  0  0  0  0  0
    2.2460   -3.0520    0.5480 H   0  0  0  0  0  0  0  0  0  0  0  0
    0.5080   -3.0690    0.5050 H   0  0  0  0  0  0  0  0  0  0  0  0
    3.2930    1.3360    1.5990 C   0  0  0  0  0  0  0  0  0  0  0  0
    2.0880    1.7800    0.7490 C   0  0  1  0  0  0  0  0  0  0  0  0
    2.4270    1.5280   -0.5410 O   0  0  0  0  0  0  0  0  0  0  0  0
    0.8950    1.1140    1.3000 C   0  0  2  0  0  0  0  0  0  0  0  0
    1.0500   -0.3330    1.2420 N   0  0  0  0  0  0  0  0  0  0  0  0
   -0.4100    1.4530    0.8050 C   0  0  0  0  0  0  0  0  0  0  0  0
   -0.7530    2.6620    0.7670 O   0  0  0  0  0  0  0  0  0  0  0  0
    3.0050    1.2190    2.6570 H   0  0  0  0  0  0  0  0  0  0  0  0
    3.6170    0.3690    1.1490 H   0  0  0  0  0  0  0  0  0  0  0  0
    4.1070    2.0500    1.4310 H   0  0  0  0  0  0  0  0  0  0  0  0
    2.0440    2.8830    0.8860 H   0  0  0  0  0  0  0  0  0  0  0  0
    2.2720    2.2730   -1.1780 H   0  0  0  0  0  0  0  0  0  0  0  0
    0.8960    1.3450    2.4110 H   0  0  0  0  0  0  0  0  0  0  0  0
    1.0930   -0.8540    0.3370 H   0  0  0  0  0  0  0  0  0  0  0  0
   -2.1110    2.3680   -2.7730 C   0  0  0  0  0  0  0  0  0  0  0  0
   -1.8880    0.9160   -2.5310 C   0  0  0  0  0  0  0  0  0  0  0  0
   -2.8350    0.2780   -1.5840 C   0  0  2  0  0  0  0  0  0  0  0  0
   -4.2710    0.3550   -2.0160 C   0  0  0  0  0  0  0  0  0  0  0  0
   -2.6620    0.7650   -0.1520 C   0  0  2  0  0  0  0  0  0  0  0  0
   -1.3430    0.4960    0.3540 N   0  0  0  0  0  0  0  0  0  0  0  0
   -3.6890    0.1430    0.7400 C   0  0  0  0  0  0  0  0  0  0  0  0
   -4.9190    0.2430    0.5090 O   0  0  0  0  0  0  0  0  0  0  0  0
   -3.3080   -0.5760    1.8710 O   0  0  0  0  0  0  0  0  0  0  0  0
   -1.6660    3.0360   -2.0050 H   0  0  0  0  0  0  0  0  0  0  0  0
   -1.5690    2.6310   -3.7290 H   0  0  0  0  0  0  0  0  0  0  0  0
   -3.1740    2.6500   -2.8950 H   0  0  0  0  0  0  0  0  0  0  0  0
   -0.8620    0.7860   -2.1360 H   0  0  0  0  0  0  0  0  0  0  0  0
   -1.9290    0.3510   -3.4890 H   0  0  0  0  0  0  0  0  0  0  0  0
   -2.5740   -0.8200   -1.5470 H   0  0  0  0  0  0  0  0  0  0  0  0
   -4.7810    1.2640   -1.5850 H   0  0  0  0  0  0  0  0  0  0  0  0
   -4.8800   -0.5140   -1.6990 H   0  0  0  0  0  0  0  0  0  0  0  0
   -4.3860    0.4220   -3.1170 H   0  0  0  0  0  0  0  0  0  0  0  0
   -2.9020    1.8510   -0.1660 H   0  0  0  0  0  0  0  0  0  0  0  0
   -1.0200   -0.4890    0.4020 H   0  0  0  0  0  0  0  0  0  0  0  0
  1  9  1  0  0  0  0
  1  2  1  0  0  0  0
  2  3  1  0  0  0  0
  3 12  1  0  0  0  0
  3 13  1  0  0  0  0
  4  3  1  0  0  0  0
  4 14  1  0  0  0  0
  5  7  1  0  0  0  0
  5 16  1  1  0  0  0
  5  4  1  0  0  0  0
  6  5  1  0  0  0  0
  7  8  2  0  0  0  0
 10  1  1  0  0  0  0
 11  1  1  0  0  0  0
 15  4  1  0  0  0  0
 17  6  1  0  0  0  0
 18  6  1  0  0  0  0
 19 26  1  0  0  0  0
 20 29  1  1  0  0  0
 20 22  1  0  0  0  0
 20 19  1  0  0  0  0
 21 20  1  0  0  0  0
 22 31  1  1  0  0  0
 23 22  1  0  0  0  0
 23  7  1  0  0  0  0
 24 22  1  0  0  0  0
 25 24  2  0  0  0  0
 27 19  1  0  0  0  0
 28 19  1  0  0  0  0
 30 21  1  0  0  0  0
 32 23  1  0  0  0  0
 33 34  1  0  0  0  0
 33 42  1  0  0  0  0
 34 45  1  0  0  0  0
 34 35  1  0  0  0  0
 35 47  1  1  0  0  0
 35 37  1  0  0  0  0
 36 49  1  0  0  0  0
 36 48  1  0  0  0  0
 36 35  1  0  0  0  0
 37 51  1  1  0  0  0
 37 38  1  0  0  0  0
 37 39  1  0  0  0  0
 38 52  1  0  0  0  0
 38 24  1  0  0  0  0
 39 41  1  0  0  0  0
 40 39  2  0  0  0  0
 43 33  1  0  0  0  0
 44 33  1  0  0  0  0
 46 34  1  0  0  0  0
 50 36  1  0  0  0  0
M  END
$$$$
