MTM.pdb
 OpenBabel07022418573D

 50 49  0  0  1  0  0  0  0  0999 V2000
   -0.8830   -5.5750    2.1000 C   0  0  0  0  0  0  0  0  0  0  0  0
    0.7540   -5.7930    2.7410 S   0  0  0  0  0  0  0  0  0  0  0  0
    1.3480   -4.7120    3.9800 C   0  0  0  0  0  0  0  0  0  0  0  0
    1.7840   -3.3320    3.6560 C   0  0  0  0  0  0  0  0  0  0  0  0
    0.7300   -2.4970    3.0170 C   0  0  2  0  0  0  0  0  0  0  0  0
    0.3610   -3.0790    1.7510 N   0  0  0  0  0  0  0  0  0  0  0  0
    1.1670   -1.0870    2.8080 C   0  0  0  0  0  0  0  0  0  0  0  0
    1.5130   -0.4340    3.8380 O   0  0  0  0  0  0  0  0  0  0  0  0
   -1.5050   -4.7900    2.5820 H   0  0  0  0  0  0  0  0  0  0  0  0
   -1.4770   -6.5490    2.1320 H   0  0  0  0  0  0  0  0  0  0  0  0
   -0.8440   -5.3520    1.0160 H   0  0  0  0  0  0  0  0  0  0  0  0
    2.2360   -5.2100    4.5200 H   0  0  0  0  0  0  0  0  0  0  0  0
    0.5980   -4.6890    4.8610 H   0  0  0  0  0  0  0  0  0  0  0  0
    2.2280   -2.8160    4.5640 H   0  0  0  0  0  0  0  0  0  0  0  0
    2.6760   -3.3850    2.9410 H   0  0  0  0  0  0  0  0  0  0  0  0
   -0.1980   -2.5290    3.6520 H   0  0  0  0  0  0  0  0  0  0  0  0
    1.1400   -3.1830    1.0940 H   0  0  0  0  0  0  0  0  0  0  0  0
   -0.4370   -2.5880    1.2820 H   0  0  0  0  0  0  0  0  0  0  0  0
    4.0290    0.3180    0.9020 C   0  0  0  0  0  0  0  0  0  0  0  0
    2.7840    0.9200    0.3430 C   0  0  1  0  0  0  0  0  0  0  0  0
    2.5040    0.3840   -0.9000 O   0  0  0  0  0  0  0  0  0  0  0  0
    1.6010    0.8250    1.2850 C   0  0  2  0  0  0  0  0  0  0  0  0
    1.1860   -0.5270    1.5110 N   0  0  0  0  0  0  0  0  0  0  0  0
    0.5040    1.6540    0.6950 C   0  0  0  0  0  0  0  0  0  0  0  0
    0.6640    2.8690    0.4340 O   0  0  0  0  0  0  0  0  0  0  0  0
    4.4030    0.9560    1.7440 H   0  0  0  0  0  0  0  0  0  0  0  0
    4.8130    0.4020    0.1030 H   0  0  0  0  0  0  0  0  0  0  0  0
    3.9630   -0.7380    1.1580 H   0  0  0  0  0  0  0  0  0  0  0  0
    2.9760    2.0100    0.1880 H   0  0  0  0  0  0  0  0  0  0  0  0
    3.1800    0.7210   -1.5420 H   0  0  0  0  0  0  0  0  0  0  0  0
    1.8500    1.2880    2.2620 H   0  0  0  0  0  0  0  0  0  0  0  0
    0.8910   -1.1120    0.7100 H   0  0  0  0  0  0  0  0  0  0  0  0
   -3.0620    1.6020   -4.6830 C   0  0  0  0  0  0  0  0  0  0  0  0
   -1.7420    0.5190   -4.0480 S   0  0  0  0  0  0  0  0  0  0  0  0
   -1.1710    1.2230   -2.4800 C   0  0  0  0  0  0  0  0  0  0  0  0
   -2.2900    1.1350   -1.4660 C   0  0  0  0  0  0  0  0  0  0  0  0
   -1.8710    1.7110   -0.1300 C   0  0  2  0  0  0  0  0  0  0  0  0
   -0.7440    1.0280    0.4320 N   0  0  0  0  0  0  0  0  0  0  0  0
   -3.0630    1.7110    0.7450 C   0  0  0  0  0  0  0  0  0  0  0  0
   -4.1030    2.2830    0.3450 O   0  0  0  0  0  0  0  0  0  0  0  0
   -3.0740    1.1050    1.9860 O   0  0  0  0  0  0  0  0  0  0  0  0
   -3.7420    0.9930   -5.3110 H   0  0  0  0  0  0  0  0  0  0  0  0
   -2.6520    2.3890   -5.3640 H   0  0  0  0  0  0  0  0  0  0  0  0
   -3.6370    2.0780   -3.8650 H   0  0  0  0  0  0  0  0  0  0  0  0
   -0.8530    2.2510   -2.6600 H   0  0  0  0  0  0  0  0  0  0  0  0
   -0.3410    0.5860   -2.1150 H   0  0  0  0  0  0  0  0  0  0  0  0
   -3.1600    1.7150   -1.8310 H   0  0  0  0  0  0  0  0  0  0  0  0
   -2.6220    0.0850   -1.3520 H   0  0  0  0  0  0  0  0  0  0  0  0
   -1.5580    2.7780   -0.2760 H   0  0  0  0  0  0  0  0  0  0  0  0
   -0.8420    0.0140    0.6630 H   0  0  0  0  0  0  0  0  0  0  0  0
  1 10  1  0  0  0  0
  1  9  1  0  0  0  0
  1  2  1  0  0  0  0
  2  3  1  0  0  0  0
  3 12  1  0  0  0  0
  3 13  1  0  0  0  0
  4  3  1  0  0  0  0
  4 14  1  0  0  0  0
  5 16  1  1  0  0  0
  5  4  1  0  0  0  0
  6  5  1  0  0  0  0
  7  5  1  0  0  0  0
  7  8  2  0  0  0  0
 11  1  1  0  0  0  0
 15  4  1  0  0  0  0
 17  6  1  0  0  0  0
 18  6  1  0  0  0  0
 19 28  1  0  0  0  0
 19 26  1  0  0  0  0
 20 29  1  6  0  0  0
 20 19  1  0  0  0  0
 20 22  1  0  0  0  0
 21 20  1  0  0  0  0
 22 23  1  0  0  0  0
 22 31  1  1  0  0  0
 23  7  1  0  0  0  0
 24 22  1  0  0  0  0
 25 24  2  0  0  0  0
 27 19  1  0  0  0  0
 30 21  1  0  0  0  0
 32 23  1  0  0  0  0
 33 34  1  0  0  0  0
 33 44  1  0  0  0  0
 34 35  1  0  0  0  0
 35 46  1  0  0  0  0
 35 36  1  0  0  0  0
 36 48  1  0  0  0  0
 36 37  1  0  0  0  0
 37 49  1  6  0  0  0
 37 38  1  0  0  0  0
 37 39  1  0  0  0  0
 38 50  1  0  0  0  0
 38 24  1  0  0  0  0
 39 41  1  0  0  0  0
 40 39  2  0  0  0  0
 42 33  1  0  0  0  0
 43 33  1  0  0  0  0
 45 35  1  0  0  0  0
 47 36  1  0  0  0  0
M  END
$$$$
