MTW.pdb
 OpenBabel07022418573D

 57 58  0  0  1  0  0  0  0  0999 V2000
   -0.4960   -0.2200    4.4520 C   0  0  0  0  0  0  0  0  0  0  0  0
    0.3280    1.3210    4.8690 S   0  0  0  0  0  0  0  0  0  0  0  0
    2.1060    1.2090    4.8250 C   0  0  0  0  0  0  0  0  0  0  0  0
    2.7080    0.9970    3.4760 C   0  0  0  0  0  0  0  0  0  0  0  0
    2.3430    2.1060    2.5040 C   0  0  2  0  0  0  0  0  0  0  0  0
    2.7450    3.3850    2.9710 N   0  0  0  0  0  0  0  0  0  0  0  0
    0.9350    2.0150    2.0680 C   0  0  0  0  0  0  0  0  0  0  0  0
    0.0220    2.7860    2.4530 O   0  0  0  0  0  0  0  0  0  0  0  0
   -0.0210   -1.0790    4.9720 H   0  0  0  0  0  0  0  0  0  0  0  0
   -1.5560   -0.2250    4.7940 H   0  0  0  0  0  0  0  0  0  0  0  0
   -0.5270   -0.4100    3.3650 H   0  0  0  0  0  0  0  0  0  0  0  0
    2.6180    2.0480    5.3450 H   0  0  0  0  0  0  0  0  0  0  0  0
    2.3970    0.3020    5.4360 H   0  0  0  0  0  0  0  0  0  0  0  0
    3.7920    0.8910    3.5700 H   0  0  0  0  0  0  0  0  0  0  0  0
    2.2980    0.0630    3.0480 H   0  0  0  0  0  0  0  0  0  0  0  0
    2.9530    1.8890    1.5790 H   0  0  0  0  0  0  0  0  0  0  0  0
    2.1580    3.7920    3.7220 H   0  0  0  0  0  0  0  0  0  0  0  0
    3.7140    3.2980    3.3520 H   0  0  0  0  0  0  0  0  0  0  0  0
   -0.1600    1.1770   -1.7520 C   0  0  0  0  0  0  0  0  0  0  0  0
   -1.0360    1.5710   -0.6330 C   0  0  1  0  0  0  0  0  0  0  0  0
   -2.3690    1.3540   -0.9580 O   0  0  0  0  0  0  0  0  0  0  0  0
   -0.7760    0.8570    0.6880 C   0  0  2  0  0  0  0  0  0  0  0  0
    0.5520    0.9870    1.1350 N   0  0  0  0  0  0  0  0  0  0  0  0
   -1.2010   -0.5430    0.5670 C   0  0  0  0  0  0  0  0  0  0  0  0
   -2.3820   -0.8460    0.1850 O   0  0  0  0  0  0  0  0  0  0  0  0
    0.7570    0.6310   -1.4650 H   0  0  0  0  0  0  0  0  0  0  0  0
    0.2290    2.0870   -2.3010 H   0  0  0  0  0  0  0  0  0  0  0  0
   -0.6670    0.5700   -2.5350 H   0  0  0  0  0  0  0  0  0  0  0  0
   -0.9390    2.6810   -0.4490 H   0  0  0  0  0  0  0  0  0  0  0  0
   -2.7580    2.1030   -1.4570 H   0  0  0  0  0  0  0  0  0  0  0  0
   -1.4780    1.3950    1.4000 H   0  0  0  0  0  0  0  0  0  0  0  0
    1.2990    0.3590    0.8060 H   0  0  0  0  0  0  0  0  0  0  0  0
   -0.3440   -1.6190    0.8590 N   0  0  0  0  0  0  0  0  0  0  0  0
   -0.7880   -3.0170    0.7250 C   0  0  1  0  0  0  0  0  0  0  0  0
    0.1480   -3.6760   -0.2610 C   0  0  0  0  0  0  0  0  0  0  0  0
    0.0980   -3.0060   -1.5780 C   0  0  0  0  0  0  0  0  0  0  0  0
    1.0080   -2.1530   -2.1670 C   0  0  0  0  0  0  0  0  0  0  0  0
    0.5610   -1.7860   -3.3800 N   0  0  0  0  0  0  0  0  0  0  0  0
   -0.6380   -2.3660   -3.6430 C   0  0  0  0  0  0  0  0  0  0  0  0
   -1.5020   -2.3220   -4.7160 C   0  0  0  0  0  0  0  0  0  0  0  0
   -2.6760   -3.0330   -4.7020 C   0  0  0  0  0  0  0  0  0  0  0  0
   -2.9790   -3.7940   -3.5920 C   0  0  0  0  0  0  0  0  0  0  0  0
   -2.1080   -3.8300   -2.5270 C   0  0  0  0  0  0  0  0  0  0  0  0
   -0.9190   -3.1250   -2.5130 C   0  0  0  0  0  0  0  0  0  0  0  0
   -0.6310   -3.7410    1.9960 C   0  0  0  0  0  0  0  0  0  0  0  0
   -0.9710   -4.9380    2.0860 O   0  0  0  0  0  0  0  0  0  0  0  0
   -0.1090   -3.1060    3.0920 O   0  0  0  0  0  0  0  0  0  0  0  0
    0.6320   -1.4740    1.1820 H   0  0  0  0  0  0  0  0  0  0  0  0
   -1.8330   -3.0630    0.3850 H   0  0  0  0  0  0  0  0  0  0  0  0
    1.1860   -3.7170    0.1260 H   0  0  0  0  0  0  0  0  0  0  0  0
   -0.1380   -4.7560   -0.4270 H   0  0  0  0  0  0  0  0  0  0  0  0
    1.9440   -1.8470   -1.6780 H   0  0  0  0  0  0  0  0  0  0  0  0
    1.0590   -1.1480   -4.0310 H   0  0  0  0  0  0  0  0  0  0  0  0
   -1.2770   -1.7310   -5.5890 H   0  0  0  0  0  0  0  0  0  0  0  0
   -3.3760   -3.0030   -5.5590 H   0  0  0  0  0  0  0  0  0  0  0  0
   -3.9030   -4.3480   -3.5900 H   0  0  0  0  0  0  0  0  0  0  0  0
   -2.3130   -4.4210   -1.6280 H   0  0  0  0  0  0  0  0  0  0  0  0
  1 10  1  0  0  0  0
  1  2  1  0  0  0  0
  1  9  1  0  0  0  0
  3  2  1  0  0  0  0
  3 12  1  0  0  0  0
  3 13  1  0  0  0  0
  4 14  1  0  0  0  0
  4  3  1  0  0  0  0
  5 16  1  6  0  0  0
  5  6  1  0  0  0  0
  5  4  1  0  0  0  0
  6 18  1  0  0  0  0
  6 17  1  0  0  0  0
  7  8  2  0  0  0  0
  7  5  1  0  0  0  0
 11  1  1  0  0  0  0
 15  4  1  0  0  0  0
 19 26  1  0  0  0  0
 19 20  1  0  0  0  0
 20 29  1  1  0  0  0
 20 22  1  0  0  0  0
 21 20  1  0  0  0  0
 22 23  1  0  0  0  0
 22 31  1  1  0  0  0
 23  7  1  0  0  0  0
 24 22  1  0  0  0  0
 24 33  1  0  0  0  0
 25 24  2  0  0  0  0
 27 19  1  0  0  0  0
 28 19  1  0  0  0  0
 30 21  1  0  0  0  0
 32 23  1  0  0  0  0
 33 48  1  0  0  0  0
 34 49  1  6  0  0  0
 34 33  1  0  0  0  0
 34 45  1  0  0  0  0
 35 50  1  0  0  0  0
 35 34  1  0  0  0  0
 36 35  1  0  0  0  0
 37 52  1  0  0  0  0
 37 36  2  0  0  0  0
 38 37  1  0  0  0  0
 39 38  1  0  0  0  0
 39 44  1  0  0  0  0
 40 41  1  0  0  0  0
 40 39  2  0  0  0  0
 41 42  2  0  0  0  0
 42 56  1  0  0  0  0
 42 43  1  0  0  0  0
 43 44  2  0  0  0  0
 43 57  1  0  0  0  0
 44 36  1  0  0  0  0
 45 46  2  0  0  0  0
 45 47  1  0  0  0  0
 51 35  1  0  0  0  0
 53 38  1  0  0  0  0
 54 40  1  0  0  0  0
 55 41  1  0  0  0  0
M  END
$$$$
