MVE.pdb
 OpenBabel07022418573D

 51 50  0  0  1  0  0  0  0  0999 V2000
    2.0430   -3.7140    5.9340 C   0  0  0  0  0  0  0  0  0  0  0  0
    3.2280   -3.9240    4.5580 S   0  0  0  0  0  0  0  0  0  0  0  0
    2.4760   -3.1370    3.0810 C   0  0  0  0  0  0  0  0  0  0  0  0
    1.2290   -3.9020    2.6690 C   0  0  0  0  0  0  0  0  0  0  0  0
    0.5720   -3.2930    1.4580 C   0  0  2  0  0  0  0  0  0  0  0  0
    1.4550   -3.2990    0.3210 N   0  0  0  0  0  0  0  0  0  0  0  0
    0.1730   -1.9100    1.8420 C   0  0  0  0  0  0  0  0  0  0  0  0
   -0.4600   -1.7930    2.9320 O   0  0  0  0  0  0  0  0  0  0  0  0
    1.1550   -3.1170    5.6200 H   0  0  0  0  0  0  0  0  0  0  0  0
    1.6300   -4.6930    6.2570 H   0  0  0  0  0  0  0  0  0  0  0  0
    2.5360   -3.1760    6.7550 H   0  0  0  0  0  0  0  0  0  0  0  0
    2.2090   -2.1110    3.4200 H   0  0  0  0  0  0  0  0  0  0  0  0
    3.2340   -3.1730    2.2900 H   0  0  0  0  0  0  0  0  0  0  0  0
    0.5060   -3.7990    3.5250 H   0  0  0  0  0  0  0  0  0  0  0  0
    1.4300   -4.9750    2.5530 H   0  0  0  0  0  0  0  0  0  0  0  0
   -0.3310   -3.8540    1.1930 H   0  0  0  0  0  0  0  0  0  0  0  0
    1.0150   -3.2050   -0.5910 H   0  0  0  0  0  0  0  0  0  0  0  0
    2.3740   -2.8810    0.4730 H   0  0  0  0  0  0  0  0  0  0  0  0
    2.3340    1.2110    2.2760 C   0  0  0  0  0  0  0  0  0  0  0  0
    1.2090    1.5590    1.3610 C   0  0  0  0  0  0  0  0  0  0  0  0
    1.6590    1.8440   -0.0590 C   0  0  0  0  0  0  0  0  0  0  0  0
    0.0950    0.5590    1.4270 C   0  0  2  0  0  0  0  0  0  0  0  0
    0.4550   -0.7730    1.0810 N   0  0  0  0  0  0  0  0  0  0  0  0
   -1.0710    1.0630    0.6370 C   0  0  0  0  0  0  0  0  0  0  0  0
   -1.4540    2.2300    0.8440 O   0  0  0  0  0  0  0  0  0  0  0  0
    3.3120    1.4260    1.7650 H   0  0  0  0  0  0  0  0  0  0  0  0
    2.2250    1.7440    3.2230 H   0  0  0  0  0  0  0  0  0  0  0  0
    2.2530    0.1160    2.5240 H   0  0  0  0  0  0  0  0  0  0  0  0
    0.7630    2.5340    1.7160 H   0  0  0  0  0  0  0  0  0  0  0  0
    0.7880    2.0730   -0.6800 H   0  0  0  0  0  0  0  0  0  0  0  0
    2.2560    2.7860    0.0000 H   0  0  0  0  0  0  0  0  0  0  0  0
    2.3300    1.0800   -0.4680 H   0  0  0  0  0  0  0  0  0  0  0  0
   -0.2960    0.5740    2.4910 H   0  0  0  0  0  0  0  0  0  0  0  0
    0.9790   -0.9210    0.1740 H   0  0  0  0  0  0  0  0  0  0  0  0
   -1.7180    0.2270   -0.3180 N   0  0  0  0  0  0  0  0  0  0  0  0
   -2.8540    0.6890   -1.0980 C   0  0  1  0  0  0  0  0  0  0  0  0
   -2.7120    0.4400   -2.5570 C   0  0  0  0  0  0  0  0  0  0  0  0
   -1.5390    1.0780   -3.2220 C   0  0  0  0  0  0  0  0  0  0  0  0
   -1.5750    0.7090   -4.6640 C   0  0  0  0  0  0  0  0  0  0  0  0
   -2.4930   -0.0270   -5.1320 O   0  0  0  0  0  0  0  0  0  0  0  0
   -4.1050    0.0000   -0.6480 C   0  0  0  0  0  0  0  0  0  0  0  0
   -5.2050    0.2700   -1.1880 O   0  0  0  0  0  0  0  0  0  0  0  0
   -0.6190    1.1410   -5.5780 O   0  0  0  0  0  0  0  0  0  0  0  0
   -4.0880   -0.9480    0.3690 O   0  0  0  0  0  0  0  0  0  0  0  0
   -1.3050   -0.7410   -0.4090 H   0  0  0  0  0  0  0  0  0  0  0  0
   -2.9940    1.7560   -0.8920 H   0  0  0  0  0  0  0  0  0  0  0  0
   -2.7130   -0.6810   -2.7020 H   0  0  0  0  0  0  0  0  0  0  0  0
   -3.6280    0.7680   -3.1300 H   0  0  0  0  0  0  0  0  0  0  0  0
   -1.6420    2.1700   -3.1830 H   0  0  0  0  0  0  0  0  0  0  0  0
   -0.5630    0.7520   -2.8120 H   0  0  0  0  0  0  0  0  0  0  0  0
   -0.3120    0.5690   -6.3660 H   0  0  0  0  0  0  0  0  0  0  0  0
  1 10  1  0  0  0  0
  1 11  1  0  0  0  0
  2  1  1  0  0  0  0
  3 12  1  0  0  0  0
  3  2  1  0  0  0  0
  4  3  1  0  0  0  0
  4 14  1  0  0  0  0
  5 16  1  6  0  0  0
  5  7  1  0  0  0  0
  5  4  1  0  0  0  0
  6 18  1  0  0  0  0
  6  5  1  0  0  0  0
  7  8  2  0  0  0  0
  9  1  1  0  0  0  0
 13  3  1  0  0  0  0
 15  4  1  0  0  0  0
 17  6  1  0  0  0  0
 19 28  1  0  0  0  0
 19 27  1  0  0  0  0
 20 22  1  0  0  0  0
 20 29  1  0  0  0  0
 20 19  1  0  0  0  0
 21 31  1  0  0  0  0
 21 20  1  0  0  0  0
 22 33  1  1  0  0  0
 23 22  1  0  0  0  0
 23  7  1  0  0  0  0
 24 25  2  0  0  0  0
 24 22  1  0  0  0  0
 26 19  1  0  0  0  0
 30 21  1  0  0  0  0
 32 21  1  0  0  0  0
 34 23  1  0  0  0  0
 35 24  1  0  0  0  0
 36 46  1  1  0  0  0
 36 41  1  0  0  0  0
 36 35  1  0  0  0  0
 37 36  1  0  0  0  0
 38 49  1  0  0  0  0
 38 50  1  0  0  0  0
 38 37  1  0  0  0  0
 39 38  1  0  0  0  0
 40 39  2  0  0  0  0
 41 44  1  0  0  0  0
 42 41  2  0  0  0  0
 43 39  1  0  0  0  0
 45 35  1  0  0  0  0
 47 37  1  0  0  0  0
 48 37  1  0  0  0  0
 51 43  1  0  0  0  0
M  END
$$$$
