MVF.pdb
 OpenBabel07022418573D

 55 55  0  0  1  0  0  0  0  0999 V2000
    6.5650   -1.0680    2.6760 C   0  0  0  0  0  0  0  0  0  0  0  0
    6.4630   -2.1720    1.2800 S   0  0  0  0  0  0  0  0  0  0  0  0
    5.1360   -3.3490    1.3110 C   0  0  0  0  0  0  0  0  0  0  0  0
    3.7600   -2.7740    1.1480 C   0  0  0  0  0  0  0  0  0  0  0  0
    3.4460   -1.8260    2.2430 C   0  0  2  0  0  0  0  0  0  0  0  0
    3.5300   -2.5770    3.4950 N   0  0  0  0  0  0  0  0  0  0  0  0
    2.0490   -1.2980    2.1580 C   0  0  0  0  0  0  0  0  0  0  0  0
    1.2560   -1.5580    3.0820 O   0  0  0  0  0  0  0  0  0  0  0  0
    7.6660   -0.9970    2.9470 H   0  0  0  0  0  0  0  0  0  0  0  0
    6.2940   -0.0080    2.4220 H   0  0  0  0  0  0  0  0  0  0  0  0
    6.0640   -1.4630    3.5620 H   0  0  0  0  0  0  0  0  0  0  0  0
    5.2190   -3.9450    2.2580 H   0  0  0  0  0  0  0  0  0  0  0  0
    5.3490   -4.1220    0.5100 H   0  0  0  0  0  0  0  0  0  0  0  0
    3.7410   -2.3030    0.1340 H   0  0  0  0  0  0  0  0  0  0  0  0
    3.0650   -3.6560    1.1410 H   0  0  0  0  0  0  0  0  0  0  0  0
    4.1650   -0.9960    2.2140 H   0  0  0  0  0  0  0  0  0  0  0  0
    3.3010   -1.9200    4.2610 H   0  0  0  0  0  0  0  0  0  0  0  0
    2.9290   -3.4130    3.4380 H   0  0  0  0  0  0  0  0  0  0  0  0
   -1.1120    2.1030    0.9670 C   0  0  0  0  0  0  0  0  0  0  0  0
    0.2690    1.5200    1.0280 C   0  0  0  0  0  0  0  0  0  0  0  0
    1.0720    2.0820   -0.1230 C   0  0  0  0  0  0  0  0  0  0  0  0
    0.2130    0.0020    0.9960 C   0  0  2  0  0  0  0  0  0  0  0  0
    1.5980   -0.5180    1.0740 N   0  0  0  0  0  0  0  0  0  0  0  0
   -0.3110   -0.5120   -0.2920 C   0  0  0  0  0  0  0  0  0  0  0  0
    0.4660   -1.1430   -1.0900 O   0  0  0  0  0  0  0  0  0  0  0  0
   -1.8630    1.5820    1.5690 H   0  0  0  0  0  0  0  0  0  0  0  0
   -1.0410    3.1320    1.4230 H   0  0  0  0  0  0  0  0  0  0  0  0
   -1.4580    2.2740   -0.0720 H   0  0  0  0  0  0  0  0  0  0  0  0
    0.7330    1.8670    1.9740 H   0  0  0  0  0  0  0  0  0  0  0  0
    1.6240    1.3360   -0.6910 H   0  0  0  0  0  0  0  0  0  0  0  0
    1.7550    2.8890    0.2450 H   0  0  0  0  0  0  0  0  0  0  0  0
    0.3950    2.6120   -0.8550 H   0  0  0  0  0  0  0  0  0  0  0  0
   -0.3690   -0.3100    1.8810 H   0  0  0  0  0  0  0  0  0  0  0  0
    2.2770   -0.3140    0.3150 H   0  0  0  0  0  0  0  0  0  0  0  0
   -1.6310   -0.3820   -0.7630 N   0  0  0  0  0  0  0  0  0  0  0  0
   -2.0730   -0.9130   -2.0470 C   0  0  1  0  0  0  0  0  0  0  0  0
   -3.0690   -2.0020   -1.7080 C   0  0  0  0  0  0  0  0  0  0  0  0
   -4.2340   -1.4610   -0.9280 C   0  0  0  0  0  0  0  0  0  0  0  0
   -5.3280   -1.0240   -1.6360 C   0  0  0  0  0  0  0  0  0  0  0  0
   -6.4010   -0.5220   -0.9400 C   0  0  0  0  0  0  0  0  0  0  0  0
   -6.4160   -0.4440    0.4330 C   0  0  0  0  0  0  0  0  0  0  0  0
   -5.3000   -0.8920    1.1060 C   0  0  0  0  0  0  0  0  0  0  0  0
   -4.2060   -1.4010    0.4460 C   0  0  0  0  0  0  0  0  0  0  0  0
   -2.7100    0.1130   -2.8810 C   0  0  0  0  0  0  0  0  0  0  0  0
   -2.8500    1.3040   -2.4900 O   0  0  0  0  0  0  0  0  0  0  0  0
   -3.1760   -0.2140   -4.1360 O   0  0  0  0  0  0  0  0  0  0  0  0
   -2.3380    0.0980   -0.1870 H   0  0  0  0  0  0  0  0  0  0  0  0
   -1.2320   -1.4290   -2.5720 H   0  0  0  0  0  0  0  0  0  0  0  0
   -3.4840   -2.4880   -2.6000 H   0  0  0  0  0  0  0  0  0  0  0  0
   -2.5710   -2.7230   -1.0200 H   0  0  0  0  0  0  0  0  0  0  0  0
   -5.3690   -1.0660   -2.7360 H   0  0  0  0  0  0  0  0  0  0  0  0
   -7.2960   -0.1620   -1.4540 H   0  0  0  0  0  0  0  0  0  0  0  0
   -7.2730   -0.0440    0.9830 H   0  0  0  0  0  0  0  0  0  0  0  0
   -5.3450   -0.8160    2.1910 H   0  0  0  0  0  0  0  0  0  0  0  0
   -3.3520   -1.7420    1.0070 H   0  0  0  0  0  0  0  0  0  0  0  0
  1  9  1  0  0  0  0
  1 11  1  0  0  0  0
  2  3  1  0  0  0  0
  2  1  1  0  0  0  0
  3 12  1  0  0  0  0
  4  3  1  0  0  0  0
  4  5  1  0  0  0  0
  5 16  1  1  0  0  0
  5  6  1  0  0  0  0
  6 17  1  0  0  0  0
  7  5  1  0  0  0  0
  7  8  2  0  0  0  0
 10  1  1  0  0  0  0
 13  3  1  0  0  0  0
 14  4  1  0  0  0  0
 15  4  1  0  0  0  0
 18  6  1  0  0  0  0
 19 20  1  0  0  0  0
 19 27  1  0  0  0  0
 19 26  1  0  0  0  0
 20 29  1  0  0  0  0
 21 31  1  0  0  0  0
 21 20  1  0  0  0  0
 22 20  1  0  0  0  0
 22 23  1  0  0  0  0
 22 33  1  1  0  0  0
 23  7  1  0  0  0  0
 24 22  1  0  0  0  0
 25 24  2  0  0  0  0
 28 19  1  0  0  0  0
 30 21  1  0  0  0  0
 32 21  1  0  0  0  0
 34 23  1  0  0  0  0
 35 24  1  0  0  0  0
 35 47  1  0  0  0  0
 36 48  1  6  0  0  0
 36 37  1  0  0  0  0
 36 35  1  0  0  0  0
 37 50  1  0  0  0  0
 37 38  1  0  0  0  0
 38 43  1  0  0  0  0
 39 40  1  0  0  0  0
 39 38  2  0  0  0  0
 40 41  2  0  0  0  0
 41 53  1  0  0  0  0
 41 42  1  0  0  0  0
 42 54  1  0  0  0  0
 43 55  1  0  0  0  0
 43 42  2  0  0  0  0
 44 45  1  0  0  0  0
 44 36  1  0  0  0  0
 46 44  2  0  0  0  0
 49 37  1  0  0  0  0
 51 39  1  0  0  0  0
 52 40  1  0  0  0  0
M  END
$$$$
