MVG.pdb
 OpenBabel07022418573D

 42 41  0  0  1  0  0  0  0  0999 V2000
   -0.5400   -1.2920    5.6840 C   0  0  0  0  0  0  0  0  0  0  0  0
   -0.5610   -2.9400    4.9800 S   0  0  0  0  0  0  0  0  0  0  0  0
   -1.2690   -3.0680    3.3560 C   0  0  0  0  0  0  0  0  0  0  0  0
   -0.4850   -2.4670    2.2270 C   0  0  0  0  0  0  0  0  0  0  0  0
   -0.2890   -0.9980    2.3990 C   0  0  2  0  0  0  0  0  0  0  0  0
   -1.6070   -0.3920    2.4490 N   0  0  0  0  0  0  0  0  0  0  0  0
    0.5000   -0.4190    1.2530 C   0  0  0  0  0  0  0  0  0  0  0  0
    1.6520   -0.8450    1.0860 O   0  0  0  0  0  0  0  0  0  0  0  0
    0.4970   -0.8620    5.6670 H   0  0  0  0  0  0  0  0  0  0  0  0
   -0.8350   -1.3830    6.7840 H   0  0  0  0  0  0  0  0  0  0  0  0
   -1.2410   -0.5970    5.1820 H   0  0  0  0  0  0  0  0  0  0  0  0
   -1.4820   -4.1500    3.0760 H   0  0  0  0  0  0  0  0  0  0  0  0
   -2.3000   -2.5840    3.3960 H   0  0  0  0  0  0  0  0  0  0  0  0
   -1.0140   -2.6490    1.2580 H   0  0  0  0  0  0  0  0  0  0  0  0
    0.4990   -3.0090    2.1040 H   0  0  0  0  0  0  0  0  0  0  0  0
    0.2200   -0.8080    3.3510 H   0  0  0  0  0  0  0  0  0  0  0  0
   -1.5900    0.6250    2.6050 H   0  0  0  0  0  0  0  0  0  0  0  0
   -2.1100   -0.6330    1.5570 H   0  0  0  0  0  0  0  0  0  0  0  0
    0.9890    3.3570    0.3360 C   0  0  0  0  0  0  0  0  0  0  0  0
    1.6680    2.1960   -0.3960 C   0  0  0  0  0  0  0  0  0  0  0  0
    2.8390    1.7800    0.4170 C   0  0  0  0  0  0  0  0  0  0  0  0
    0.6610    1.1570   -0.7170 C   0  0  2  0  0  0  0  0  0  0  0  0
   -0.0320    0.5680    0.3950 N   0  0  0  0  0  0  0  0  0  0  0  0
    1.0980    0.1640   -1.7460 C   0  0  0  0  0  0  0  0  0  0  0  0
    1.8340    0.5180   -2.7210 O   0  0  0  0  0  0  0  0  0  0  0  0
    0.6030    2.9360    1.2970 H   0  0  0  0  0  0  0  0  0  0  0  0
    1.7210    4.1320    0.5700 H   0  0  0  0  0  0  0  0  0  0  0  0
    0.1710    3.7890   -0.2530 H   0  0  0  0  0  0  0  0  0  0  0  0
    2.0630    2.5780   -1.3750 H   0  0  0  0  0  0  0  0  0  0  0  0
    3.5750    2.6420    0.3720 H   0  0  0  0  0  0  0  0  0  0  0  0
    3.4140    0.9330   -0.0090 H   0  0  0  0  0  0  0  0  0  0  0  0
    2.6210    1.6770    1.5000 H   0  0  0  0  0  0  0  0  0  0  0  0
   -0.1610    1.7290   -1.2870 H   0  0  0  0  0  0  0  0  0  0  0  0
   -1.0340    0.8530    0.6510 H   0  0  0  0  0  0  0  0  0  0  0  0
    0.7450   -1.2110   -1.7340 N   0  0  0  0  0  0  0  0  0  0  0  0
    1.2110   -2.1130   -2.7630 C   0  0  0  0  0  0  0  0  0  0  0  0
    0.6750   -3.4640   -2.4700 C   0  0  0  0  0  0  0  0  0  0  0  0
    0.9460   -4.4290   -3.2320 O   0  0  0  0  0  0  0  0  0  0  0  0
   -0.1320   -3.7440   -1.3750 O   0  0  0  0  0  0  0  0  0  0  0  0
    0.1320   -1.5790   -0.9820 H   0  0  0  0  0  0  0  0  0  0  0  0
    2.3200   -2.1110   -2.8500 H   0  0  0  0  0  0  0  0  0  0  0  0
    0.8410   -1.7900   -3.7800 H   0  0  0  0  0  0  0  0  0  0  0  0
  1 10  1  0  0  0  0
  2  1  1  0  0  0  0
  3 13  1  0  0  0  0
  3  2  1  0  0  0  0
  4  5  1  0  0  0  0
  4  3  1  0  0  0  0
  5  6  1  0  0  0  0
  5 16  1  1  0  0  0
  6 17  1  0  0  0  0
  7  5  1  0  0  0  0
  8  7  2  0  0  0  0
  9  1  1  0  0  0  0
 11  1  1  0  0  0  0
 12  3  1  0  0  0  0
 14  4  1  0  0  0  0
 15  4  1  0  0  0  0
 18  6  1  0  0  0  0
 19 27  1  0  0  0  0
 19 26  1  0  0  0  0
 20 19  1  0  0  0  0
 20 21  1  0  0  0  0
 21 32  1  0  0  0  0
 22 33  1  6  0  0  0
 22 20  1  0  0  0  0
 22 23  1  0  0  0  0
 23 34  1  0  0  0  0
 23  7  1  0  0  0  0
 24 35  1  0  0  0  0
 24 22  1  0  0  0  0
 25 24  2  0  0  0  0
 28 19  1  0  0  0  0
 29 20  1  0  0  0  0
 30 21  1  0  0  0  0
 31 21  1  0  0  0  0
 35 40  1  0  0  0  0
 36 37  1  0  0  0  0
 36 35  1  0  0  0  0
 37 39  1  0  0  0  0
 38 37  2  0  0  0  0
 41 36  1  0  0  0  0
 42 36  1  0  0  0  0
M  END
$$$$
