MVQ.pdb
 OpenBabel07022418573D

 52 51  0  0  1  0  0  0  0  0999 V2000
   -1.3000   -2.4850    5.3680 C   0  0  0  0  0  0  0  0  0  0  0  0
    0.2220   -3.3680    5.1650 S   0  0  0  0  0  0  0  0  0  0  0  0
    1.3470   -2.8450    3.9200 C   0  0  0  0  0  0  0  0  0  0  0  0
    2.1070   -1.6110    4.1980 C   0  0  0  0  0  0  0  0  0  0  0  0
    1.4010   -0.3320    4.4340 C   0  0  2  0  0  0  0  0  0  0  0  0
    0.5550   -0.3940    5.5820 N   0  0  0  0  0  0  0  0  0  0  0  0
    0.6760    0.1080    3.2120 C   0  0  0  0  0  0  0  0  0  0  0  0
   -0.5090    0.4310    3.3110 O   0  0  0  0  0  0  0  0  0  0  0  0
   -1.5200   -1.7830    4.5500 H   0  0  0  0  0  0  0  0  0  0  0  0
   -2.1320   -3.2790    5.3690 H   0  0  0  0  0  0  0  0  0  0  0  0
   -1.3980   -2.0600    6.3910 H   0  0  0  0  0  0  0  0  0  0  0  0
    0.8850   -2.8180    2.8830 H   0  0  0  0  0  0  0  0  0  0  0  0
    2.1280   -3.6670    3.7910 H   0  0  0  0  0  0  0  0  0  0  0  0
    2.9660   -1.4850    3.4650 H   0  0  0  0  0  0  0  0  0  0  0  0
    2.6920   -1.8270    5.1650 H   0  0  0  0  0  0  0  0  0  0  0  0
    2.1840    0.4470    4.6460 H   0  0  0  0  0  0  0  0  0  0  0  0
   -0.0910    0.4190    5.6240 H   0  0  0  0  0  0  0  0  0  0  0  0
    1.1630   -0.3260    6.4430 H   0  0  0  0  0  0  0  0  0  0  0  0
    1.1630    2.9690    1.2720 C   0  0  0  0  0  0  0  0  0  0  0  0
    1.1730    1.8510    0.2200 C   0  0  0  0  0  0  0  0  0  0  0  0
    2.5810    1.6470   -0.2440 C   0  0  0  0  0  0  0  0  0  0  0  0
    0.5420    0.6080    0.7850 C   0  0  2  0  0  0  0  0  0  0  0  0
    1.2680    0.1810    1.9270 N   0  0  0  0  0  0  0  0  0  0  0  0
    0.3610   -0.3960   -0.2640 C   0  0  0  0  0  0  0  0  0  0  0  0
    0.8020   -1.5700   -0.2060 O   0  0  0  0  0  0  0  0  0  0  0  0
    1.3990    3.9390    0.8080 H   0  0  0  0  0  0  0  0  0  0  0  0
    0.1780    2.9350    1.7620 H   0  0  0  0  0  0  0  0  0  0  0  0
    1.9130    2.6710    2.0460 H   0  0  0  0  0  0  0  0  0  0  0  0
    0.6020    2.2710   -0.6320 H   0  0  0  0  0  0  0  0  0  0  0  0
    2.6120    1.7110   -1.3490 H   0  0  0  0  0  0  0  0  0  0  0  0
    3.2910    2.3920    0.1620 H   0  0  0  0  0  0  0  0  0  0  0  0
    2.8730    0.6040   -0.0020 H   0  0  0  0  0  0  0  0  0  0  0  0
   -0.4930    0.8890    1.1240 H   0  0  0  0  0  0  0  0  0  0  0  0
    2.2690   -0.0870    1.8100 H   0  0  0  0  0  0  0  0  0  0  0  0
   -4.6610   -3.4220   -4.1140 N   0  0  0  0  0  0  0  0  0  0  0  0
   -3.9660   -2.5170   -3.2850 C   0  0  0  0  0  0  0  0  0  0  0  0
   -4.5860   -1.8880   -2.4020 O   0  0  0  0  0  0  0  0  0  0  0  0
   -2.5030   -2.3200   -3.4710 C   0  0  0  0  0  0  0  0  0  0  0  0
   -2.0340   -1.3300   -2.4720 C   0  0  0  0  0  0  0  0  0  0  0  0
   -0.5550   -1.0240   -2.5010 C   0  0  2  0  0  0  0  0  0  0  0  0
   -0.3590   -0.0400   -1.4340 N   0  0  0  0  0  0  0  0  0  0  0  0
   -0.1560   -0.5200   -3.8010 C   0  0  0  0  0  0  0  0  0  0  0  0
    0.2480    0.6580   -3.9270 O   0  0  0  0  0  0  0  0  0  0  0  0
   -0.2010   -1.3010   -4.9300 O   0  0  0  0  0  0  0  0  0  0  0  0
   -4.2150   -3.7550   -4.9840 H   0  0  0  0  0  0  0  0  0  0  0  0
   -5.6280   -3.7750   -3.8710 H   0  0  0  0  0  0  0  0  0  0  0  0
   -1.9330   -3.2570   -3.3500 H   0  0  0  0  0  0  0  0  0  0  0  0
   -2.3400   -1.9500   -4.5080 H   0  0  0  0  0  0  0  0  0  0  0  0
   -2.6370   -0.3800   -2.5940 H   0  0  0  0  0  0  0  0  0  0  0  0
   -2.3410   -1.7020   -1.4540 H   0  0  0  0  0  0  0  0  0  0  0  0
   -0.0460   -1.9840   -2.2100 H   0  0  0  0  0  0  0  0  0  0  0  0
   -0.7760    0.9100   -1.5960 H   0  0  0  0  0  0  0  0  0  0  0  0
  1 10  1  0  0  0  0
  1 11  1  0  0  0  0
  2  1  1  0  0  0  0
  3  4  1  0  0  0  0
  3  2  1  0  0  0  0
  4  5  1  0  0  0  0
  4 15  1  0  0  0  0
  5 16  1  1  0  0  0
  5  6  1  0  0  0  0
  6 17  1  0  0  0  0
  6 18  1  0  0  0  0
  7  8  2  0  0  0  0
  7  5  1  0  0  0  0
  9  1  1  0  0  0  0
 12  3  1  0  0  0  0
 13  3  1  0  0  0  0
 14  4  1  0  0  0  0
 19 27  1  0  0  0  0
 19 28  1  0  0  0  0
 20 22  1  0  0  0  0
 20 19  1  0  0  0  0
 21 32  1  0  0  0  0
 21 31  1  0  0  0  0
 21 20  1  0  0  0  0
 22 33  1  1  0  0  0
 22 23  1  0  0  0  0
 23  7  1  0  0  0  0
 24 25  2  0  0  0  0
 24 22  1  0  0  0  0
 26 19  1  0  0  0  0
 29 20  1  0  0  0  0
 30 21  1  0  0  0  0
 34 23  1  0  0  0  0
 35 46  1  0  0  0  0
 35 36  1  0  0  0  0
 36 37  2  0  0  0  0
 38 47  1  0  0  0  0
 38 36  1  0  0  0  0
 38 39  1  0  0  0  0
 39 50  1  0  0  0  0
 40 39  1  0  0  0  0
 40 51  1  1  0  0  0
 40 41  1  0  0  0  0
 41 24  1  0  0  0  0
 42 40  1  0  0  0  0
 43 42  1  0  0  0  0
 44 42  2  0  0  0  0
 45 35  1  0  0  0  0
 48 38  1  0  0  0  0
 49 39  1  0  0  0  0
 52 41  1  0  0  0  0
M  END
$$$$
