MVT.pdb
 OpenBabel07022418573D

 49 48  0  0  1  0  0  0  0  0999 V2000
    3.1270   -6.1920    1.2730 C   0  0  0  0  0  0  0  0  0  0  0  0
    3.9060   -4.9920    0.1960 S   0  0  0  0  0  0  0  0  0  0  0  0
    2.8470   -3.5530   -0.1120 C   0  0  0  0  0  0  0  0  0  0  0  0
    1.6290   -3.9620   -0.8970 C   0  0  0  0  0  0  0  0  0  0  0  0
    0.7510   -2.7540   -1.1470 C   0  0  2  0  0  0  0  0  0  0  0  0
    1.4050   -1.7220   -1.8840 N   0  0  0  0  0  0  0  0  0  0  0  0
    0.2890   -2.2800    0.2070 C   0  0  0  0  0  0  0  0  0  0  0  0
   -0.2780   -3.1290    0.9420 O   0  0  0  0  0  0  0  0  0  0  0  0
    2.1980   -5.7880    1.7690 H   0  0  0  0  0  0  0  0  0  0  0  0
    3.8260   -6.5600    2.0580 H   0  0  0  0  0  0  0  0  0  0  0  0
    2.7930   -7.0800    0.6870 H   0  0  0  0  0  0  0  0  0  0  0  0
    3.3960   -2.7840   -0.6850 H   0  0  0  0  0  0  0  0  0  0  0  0
    2.5640   -3.1170    0.8640 H   0  0  0  0  0  0  0  0  0  0  0  0
    1.0860   -4.7340   -0.3240 H   0  0  0  0  0  0  0  0  0  0  0  0
    1.9510   -4.4440   -1.8430 H   0  0  0  0  0  0  0  0  0  0  0  0
   -0.1230   -3.1260   -1.7440 H   0  0  0  0  0  0  0  0  0  0  0  0
    0.6810   -1.0890   -2.2920 H   0  0  0  0  0  0  0  0  0  0  0  0
    1.9110   -2.1610   -2.6790 H   0  0  0  0  0  0  0  0  0  0  0  0
    1.8890    1.1090    2.3280 C   0  0  0  0  0  0  0  0  0  0  0  0
    1.1330   -0.0690    2.8280 C   0  0  0  0  0  0  0  0  0  0  0  0
    0.5450    0.2650    4.1790 C   0  0  0  0  0  0  0  0  0  0  0  0
    0.0250   -0.5430    1.9290 C   0  0  2  0  0  0  0  0  0  0  0  0
    0.4840   -0.9410    0.6290 N   0  0  0  0  0  0  0  0  0  0  0  0
   -1.0320    0.5140    1.8380 C   0  0  0  0  0  0  0  0  0  0  0  0
   -1.5360    0.9790    2.8830 O   0  0  0  0  0  0  0  0  0  0  0  0
    1.3620    2.0620    2.5610 H   0  0  0  0  0  0  0  0  0  0  0  0
    2.8530    1.1540    2.9110 H   0  0  0  0  0  0  0  0  0  0  0  0
    2.1850    1.0480    1.2670 H   0  0  0  0  0  0  0  0  0  0  0  0
    1.8200   -0.9490    3.0140 H   0  0  0  0  0  0  0  0  0  0  0  0
    1.3240    0.1220    4.9860 H   0  0  0  0  0  0  0  0  0  0  0  0
   -0.3680   -0.3150    4.4190 H   0  0  0  0  0  0  0  0  0  0  0  0
    0.3490    1.3560    4.1950 H   0  0  0  0  0  0  0  0  0  0  0  0
   -0.4150   -1.4340    2.4190 H   0  0  0  0  0  0  0  0  0  0  0  0
    0.9630   -0.3120   -0.0510 H   0  0  0  0  0  0  0  0  0  0  0  0
   -1.6520    3.0020   -1.6850 C   0  0  0  0  0  0  0  0  0  0  0  0
   -2.0220    3.2730   -0.2540 C   0  0  1  0  0  0  0  0  0  0  0  0
   -3.1400    4.1410   -0.2950 O   0  0  0  0  0  0  0  0  0  0  0  0
   -2.5020    2.0280    0.4550 C   0  0  2  0  0  0  0  0  0  0  0  0
   -1.4910    1.0160    0.5970 N   0  0  0  0  0  0  0  0  0  0  0  0
   -3.6710    1.4760   -0.2500 C   0  0  0  0  0  0  0  0  0  0  0  0
   -4.6600    2.1970   -0.4730 O   0  0  0  0  0  0  0  0  0  0  0  0
   -3.6730    0.1660   -0.6630 O   0  0  0  0  0  0  0  0  0  0  0  0
   -0.8330    3.6270   -2.0670 H   0  0  0  0  0  0  0  0  0  0  0  0
   -1.4510    1.9170   -1.7980 H   0  0  0  0  0  0  0  0  0  0  0  0
   -2.5230    3.1970   -2.3770 H   0  0  0  0  0  0  0  0  0  0  0  0
   -1.2490    3.8280    0.3130 H   0  0  0  0  0  0  0  0  0  0  0  0
   -3.3980    4.2980    0.6560 H   0  0  0  0  0  0  0  0  0  0  0  0
   -2.8000    2.3320    1.4900 H   0  0  0  0  0  0  0  0  0  0  0  0
   -1.0680    0.6250   -0.2730 H   0  0  0  0  0  0  0  0  0  0  0  0
  1  9  1  0  0  0  0
  1 10  1  0  0  0  0
  2  1  1  0  0  0  0
  3  2  1  0  0  0  0
  3 13  1  0  0  0  0
  4 14  1  0  0  0  0
  4  3  1  0  0  0  0
  5 16  1  6  0  0  0
  5  4  1  0  0  0  0
  5  7  1  0  0  0  0
  6  5  1  0  0  0  0
  7 23  1  0  0  0  0
  7  8  2  0  0  0  0
 11  1  1  0  0  0  0
 12  3  1  0  0  0  0
 15  4  1  0  0  0  0
 17  6  1  0  0  0  0
 18  6  1  0  0  0  0
 19 26  1  0  0  0  0
 19 20  1  0  0  0  0
 19 27  1  0  0  0  0
 20 29  1  0  0  0  0
 20 21  1  0  0  0  0
 21 32  1  0  0  0  0
 21 31  1  0  0  0  0
 21 30  1  0  0  0  0
 22 33  1  1  0  0  0
 22 20  1  0  0  0  0
 23 22  1  0  0  0  0
 24 22  1  0  0  0  0
 24 25  2  0  0  0  0
 28 19  1  0  0  0  0
 34 23  1  0  0  0  0
 35 36  1  0  0  0  0
 36 46  1  1  0  0  0
 36 38  1  0  0  0  0
 37 36  1  0  0  0  0
 37 47  1  0  0  0  0
 38 39  1  0  0  0  0
 38 48  1  1  0  0  0
 39 24  1  0  0  0  0
 40 38  1  0  0  0  0
 41 40  1  0  0  0  0
 42 40  2  0  0  0  0
 43 35  1  0  0  0  0
 44 35  1  0  0  0  0
 45 35  1  0  0  0  0
 49 39  1  0  0  0  0
M  END
$$$$
