MVV.pdb
 OpenBabel07022418573D

 51 50  0  0  1  0  0  0  0  0999 V2000
   -0.9350   -4.9720    2.3960 C   0  0  0  0  0  0  0  0  0  0  0  0
    0.7690   -4.7520    2.9130 S   0  0  0  0  0  0  0  0  0  0  0  0
    1.5330   -3.3050    2.0920 C   0  0  0  0  0  0  0  0  0  0  0  0
    1.6200   -3.6160    0.6360 C   0  0  0  0  0  0  0  0  0  0  0  0
    2.2250   -2.5510   -0.2150 C   0  0  2  0  0  0  0  0  0  0  0  0
    3.5750   -2.3010    0.2540 N   0  0  0  0  0  0  0  0  0  0  0  0
    1.4240   -1.3340   -0.3970 C   0  0  0  0  0  0  0  0  0  0  0  0
    0.2310   -1.4170   -0.7770 O   0  0  0  0  0  0  0  0  0  0  0  0
   -1.3560   -4.0520    1.9600 H   0  0  0  0  0  0  0  0  0  0  0  0
   -1.5740   -5.2180    3.2800 H   0  0  0  0  0  0  0  0  0  0  0  0
   -1.0570   -5.8270    1.6850 H   0  0  0  0  0  0  0  0  0  0  0  0
    2.5810   -3.2550    2.4850 H   0  0  0  0  0  0  0  0  0  0  0  0
    0.9270   -2.4500    2.3760 H   0  0  0  0  0  0  0  0  0  0  0  0
    0.6610   -3.9830    0.2080 H   0  0  0  0  0  0  0  0  0  0  0  0
    2.3120   -4.5070    0.5470 H   0  0  0  0  0  0  0  0  0  0  0  0
    2.3620   -3.0150   -1.2340 H   0  0  0  0  0  0  0  0  0  0  0  0
    3.9710   -3.2290    0.5280 H   0  0  0  0  0  0  0  0  0  0  0  0
    4.1360   -1.9600   -0.5470 H   0  0  0  0  0  0  0  0  0  0  0  0
    2.6700    2.0050   -2.2480 C   0  0  0  0  0  0  0  0  0  0  0  0
    1.2840    1.7780   -1.6690 C   0  0  0  0  0  0  0  0  0  0  0  0
    0.4760    0.9900   -2.6430 C   0  0  0  0  0  0  0  0  0  0  0  0
    1.3440    1.2060   -0.2810 C   0  0  2  0  0  0  0  0  0  0  0  0
    1.9960   -0.0390   -0.1460 N   0  0  0  0  0  0  0  0  0  0  0  0
    0.0460    1.3570    0.4240 C   0  0  0  0  0  0  0  0  0  0  0  0
   -0.6200    2.4050    0.1400 O   0  0  0  0  0  0  0  0  0  0  0  0
    3.4670    1.7920   -1.5260 H   0  0  0  0  0  0  0  0  0  0  0  0
    2.8090    3.0250   -2.6610 H   0  0  0  0  0  0  0  0  0  0  0  0
    2.8300    1.3130   -3.1250 H   0  0  0  0  0  0  0  0  0  0  0  0
    0.8320    2.8150   -1.6200 H   0  0  0  0  0  0  0  0  0  0  0  0
   -0.5300    0.7240   -2.2840 H   0  0  0  0  0  0  0  0  0  0  0  0
    0.3810    1.5720   -3.6100 H   0  0  0  0  0  0  0  0  0  0  0  0
    0.9780    0.0520   -2.9560 H   0  0  0  0  0  0  0  0  0  0  0  0
    2.0010    1.9500    0.3260 H   0  0  0  0  0  0  0  0  0  0  0  0
    3.0160   -0.0550    0.1700 H   0  0  0  0  0  0  0  0  0  0  0  0
   -4.1270    0.0540    2.2620 C   0  0  0  0  0  0  0  0  0  0  0  0
   -2.8180   -0.3020    1.6230 C   0  0  0  0  0  0  0  0  0  0  0  0
   -3.0020   -0.2950    0.1240 C   0  0  0  0  0  0  0  0  0  0  0  0
   -1.7840    0.7620    1.9510 C   0  0  2  0  0  0  0  0  0  0  0  0
   -0.5040    0.4680    1.3620 N   0  0  0  0  0  0  0  0  0  0  0  0
   -1.6410    0.9430    3.4190 C   0  0  0  0  0  0  0  0  0  0  0  0
   -0.5290    0.8370    3.9940 O   0  0  0  0  0  0  0  0  0  0  0  0
   -2.7410    1.2400    4.2110 O   0  0  0  0  0  0  0  0  0  0  0  0
   -4.2340   -0.3050    3.3020 H   0  0  0  0  0  0  0  0  0  0  0  0
   -4.2430    1.1560    2.2140 H   0  0  0  0  0  0  0  0  0  0  0  0
   -4.9360   -0.3950    1.6200 H   0  0  0  0  0  0  0  0  0  0  0  0
   -2.4150   -1.2710    1.9720 H   0  0  0  0  0  0  0  0  0  0  0  0
   -4.0810   -0.4070   -0.1080 H   0  0  0  0  0  0  0  0  0  0  0  0
   -2.6630    0.6410   -0.3550 H   0  0  0  0  0  0  0  0  0  0  0  0
   -2.4700   -1.1380   -0.3730 H   0  0  0  0  0  0  0  0  0  0  0  0
   -2.1670    1.7060    1.5240 H   0  0  0  0  0  0  0  0  0  0  0  0
    0.0240   -0.3920    1.6400 H   0  0  0  0  0  0  0  0  0  0  0  0
  1  2  1  0  0  0  0
  1 10  1  0  0  0  0
  3 13  1  0  0  0  0
  3 12  1  0  0  0  0
  3  2  1  0  0  0  0
  4  3  1  0  0  0  0
  5 16  1  6  0  0  0
  5  6  1  0  0  0  0
  5  4  1  0  0  0  0
  6 17  1  0  0  0  0
  7  5  1  0  0  0  0
  7 23  1  0  0  0  0
  8  7  2  0  0  0  0
  9  1  1  0  0  0  0
 11  1  1  0  0  0  0
 14  4  1  0  0  0  0
 15  4  1  0  0  0  0
 18  6  1  0  0  0  0
 19 20  1  0  0  0  0
 19 26  1  0  0  0  0
 20 29  1  0  0  0  0
 20 22  1  0  0  0  0
 21 30  1  0  0  0  0
 21 20  1  0  0  0  0
 22 23  1  0  0  0  0
 22 33  1  1  0  0  0
 22 24  1  0  0  0  0
 23 34  1  0  0  0  0
 24 39  1  0  0  0  0
 25 24  2  0  0  0  0
 27 19  1  0  0  0  0
 28 19  1  0  0  0  0
 31 21  1  0  0  0  0
 32 21  1  0  0  0  0
 35 43  1  0  0  0  0
 36 38  1  0  0  0  0
 36 46  1  0  0  0  0
 36 35  1  0  0  0  0
 37 36  1  0  0  0  0
 38 50  1  6  0  0  0
 38 40  1  0  0  0  0
 39 51  1  0  0  0  0
 39 38  1  0  0  0  0
 40 41  2  0  0  0  0
 40 42  1  0  0  0  0
 44 35  1  0  0  0  0
 45 35  1  0  0  0  0
 47 37  1  0  0  0  0
 48 37  1  0  0  0  0
 49 37  1  0  0  0  0
M  END
$$$$
