MVW.pdb
 OpenBabel07022418573D

 59 60  0  0  1  0  0  0  0  0999 V2000
   -1.9560    0.3500    5.4570 C   0  0  0  0  0  0  0  0  0  0  0  0
   -1.5560   -1.1060    6.4020 S   0  0  0  0  0  0  0  0  0  0  0  0
    0.1680   -1.3720    6.7380 C   0  0  0  0  0  0  0  0  0  0  0  0
    1.0540   -1.7090    5.6140 C   0  0  0  0  0  0  0  0  0  0  0  0
    1.2430   -0.7890    4.4900 C   0  0  2  0  0  0  0  0  0  0  0  0
    1.7690    0.5200    4.7940 N   0  0  0  0  0  0  0  0  0  0  0  0
    0.2030   -0.7580    3.4400 C   0  0  0  0  0  0  0  0  0  0  0  0
   -0.5610   -1.7360    3.3020 O   0  0  0  0  0  0  0  0  0  0  0  0
   -2.7510    0.9820    5.9660 H   0  0  0  0  0  0  0  0  0  0  0  0
   -2.3410    0.0840    4.4470 H   0  0  0  0  0  0  0  0  0  0  0  0
   -1.0580    0.9810    5.3470 H   0  0  0  0  0  0  0  0  0  0  0  0
    0.5710   -0.5510    7.3980 H   0  0  0  0  0  0  0  0  0  0  0  0
    0.2130   -2.2670    7.4440 H   0  0  0  0  0  0  0  0  0  0  0  0
    0.6820   -2.6980    5.1930 H   0  0  0  0  0  0  0  0  0  0  0  0
    2.0650   -1.9350    6.0490 H   0  0  0  0  0  0  0  0  0  0  0  0
    2.1440   -1.2640    3.9050 H   0  0  0  0  0  0  0  0  0  0  0  0
    2.5100    0.8510    4.1410 H   0  0  0  0  0  0  0  0  0  0  0  0
    2.1460    0.6020    5.7510 H   0  0  0  0  0  0  0  0  0  0  0  0
   -0.6040    2.7800    0.9000 C   0  0  0  0  0  0  0  0  0  0  0  0
   -1.5780    1.7050    1.3290 C   0  0  0  0  0  0  0  0  0  0  0  0
   -2.3460    2.2300    2.5090 C   0  0  0  0  0  0  0  0  0  0  0  0
   -0.9290    0.3910    1.5710 C   0  0  2  0  0  0  0  0  0  0  0  0
    0.0800    0.3720    2.5920 N   0  0  0  0  0  0  0  0  0  0  0  0
   -0.2090   -0.0680    0.3070 C   0  0  0  0  0  0  0  0  0  0  0  0
    1.0010   -0.3540    0.3150 O   0  0  0  0  0  0  0  0  0  0  0  0
   -0.0630    2.5300   -0.0140 H   0  0  0  0  0  0  0  0  0  0  0  0
   -1.2420    3.6780    0.6510 H   0  0  0  0  0  0  0  0  0  0  0  0
    0.0340    3.1090    1.7440 H   0  0  0  0  0  0  0  0  0  0  0  0
   -2.3090    1.6160    0.4780 H   0  0  0  0  0  0  0  0  0  0  0  0
   -3.1530    1.5160    2.7370 H   0  0  0  0  0  0  0  0  0  0  0  0
   -2.8440    3.1900    2.2470 H   0  0  0  0  0  0  0  0  0  0  0  0
   -1.7120    2.3330    3.4020 H   0  0  0  0  0  0  0  0  0  0  0  0
   -1.6890   -0.3820    1.8290 H   0  0  0  0  0  0  0  0  0  0  0  0
    0.7470    1.1580    2.7550 H   0  0  0  0  0  0  0  0  0  0  0  0
   -0.9230   -0.1760   -0.9110 N   0  0  0  0  0  0  0  0  0  0  0  0
   -0.3490   -0.6000   -2.1740 C   0  0  1  0  0  0  0  0  0  0  0  0
   -1.0300   -1.9360   -2.4940 C   0  0  0  0  0  0  0  0  0  0  0  0
   -0.5560   -2.5200   -3.7620 C   0  0  0  0  0  0  0  0  0  0  0  0
   -1.1560   -2.5480   -5.0010 C   0  0  0  0  0  0  0  0  0  0  0  0
   -0.3550   -3.1810   -5.8480 N   0  0  0  0  0  0  0  0  0  0  0  0
    0.7810   -3.5910   -5.2300 C   0  0  0  0  0  0  0  0  0  0  0  0
    1.9010   -4.2750   -5.6580 C   0  0  0  0  0  0  0  0  0  0  0  0
    2.9190   -4.5560   -4.7740 C   0  0  0  0  0  0  0  0  0  0  0  0
    2.7750   -4.1340   -3.4690 C   0  0  0  0  0  0  0  0  0  0  0  0
    1.6700   -3.4530   -3.0270 C   0  0  0  0  0  0  0  0  0  0  0  0
    0.6580   -3.1770   -3.9210 C   0  0  0  0  0  0  0  0  0  0  0  0
   -0.5460    0.3770   -3.2400 C   0  0  0  0  0  0  0  0  0  0  0  0
   -1.1590    1.4420   -3.0120 O   0  0  0  0  0  0  0  0  0  0  0  0
   -0.0620    0.1400   -4.5070 O   0  0  0  0  0  0  0  0  0  0  0  0
   -1.9320    0.0640   -0.9030 H   0  0  0  0  0  0  0  0  0  0  0  0
    0.7160   -0.8270   -2.0050 H   0  0  0  0  0  0  0  0  0  0  0  0
   -2.1050   -1.7520   -2.5220 H   0  0  0  0  0  0  0  0  0  0  0  0
   -0.7870   -2.5910   -1.6220 H   0  0  0  0  0  0  0  0  0  0  0  0
   -2.1430   -2.0980   -5.1860 H   0  0  0  0  0  0  0  0  0  0  0  0
   -0.5230   -3.3660   -6.8600 H   0  0  0  0  0  0  0  0  0  0  0  0
    1.9870   -4.5920   -6.6810 H   0  0  0  0  0  0  0  0  0  0  0  0
    3.8200   -5.0980   -5.0850 H   0  0  0  0  0  0  0  0  0  0  0  0
    3.5590   -4.3350   -2.7290 H   0  0  0  0  0  0  0  0  0  0  0  0
    1.5530   -3.1180   -1.9990 H   0  0  0  0  0  0  0  0  0  0  0  0
  1  9  1  0  0  0  0
  1  2  1  0  0  0  0
  2  3  1  0  0  0  0
  3 12  1  0  0  0  0
  3 13  1  0  0  0  0
  4 15  1  0  0  0  0
  4  3  1  0  0  0  0
  5 16  1  6  0  0  0
  5  6  1  0  0  0  0
  5  4  1  0  0  0  0
  6 18  1  0  0  0  0
  7  5  1  0  0  0  0
  8  7  2  0  0  0  0
 10  1  1  0  0  0  0
 11  1  1  0  0  0  0
 14  4  1  0  0  0  0
 17  6  1  0  0  0  0
 19 20  1  0  0  0  0
 19 28  1  0  0  0  0
 20 22  1  0  0  0  0
 20 21  1  0  0  0  0
 21 30  1  0  0  0  0
 21 32  1  0  0  0  0
 22 33  1  1  0  0  0
 22 23  1  0  0  0  0
 23 34  1  0  0  0  0
 23  7  1  0  0  0  0
 24 25  2  0  0  0  0
 24 22  1  0  0  0  0
 26 19  1  0  0  0  0
 27 19  1  0  0  0  0
 29 20  1  0  0  0  0
 31 21  1  0  0  0  0
 35 50  1  0  0  0  0
 35 24  1  0  0  0  0
 36 51  1  1  0  0  0
 36 35  1  0  0  0  0
 37 36  1  0  0  0  0
 37 53  1  0  0  0  0
 38 37  1  0  0  0  0
 39 38  2  0  0  0  0
 40 41  1  0  0  0  0
 40 39  1  0  0  0  0
 41 46  1  0  0  0  0
 42 41  2  0  0  0  0
 42 43  1  0  0  0  0
 43 44  2  0  0  0  0
 44 45  1  0  0  0  0
 44 58  1  0  0  0  0
 45 59  1  0  0  0  0
 46 38  1  0  0  0  0
 46 45  2  0  0  0  0
 47 48  1  0  0  0  0
 47 36  1  0  0  0  0
 49 47  2  0  0  0  0
 52 37  1  0  0  0  0
 54 39  1  0  0  0  0
 55 40  1  0  0  0  0
 56 42  1  0  0  0  0
 57 43  1  0  0  0  0
M  END
$$$$
