MWF.pdb
 OpenBabel07022418573D

 63 65  0  0  1  0  0  0  0  0999 V2000
    1.6700   -2.4290    6.2600 C   0  0  0  0  0  0  0  0  0  0  0  0
    1.5450   -0.6420    6.3360 S   0  0  0  0  0  0  0  0  0  0  0  0
    1.3610    0.1250    4.7100 C   0  0  0  0  0  0  0  0  0  0  0  0
    2.5620   -0.0310    3.8540 C   0  0  0  0  0  0  0  0  0  0  0  0
    2.4650    0.5870    2.5000 C   0  0  2  0  0  0  0  0  0  0  0  0
    2.2290    1.9950    2.4700 N   0  0  0  0  0  0  0  0  0  0  0  0
    1.5490   -0.2120    1.6510 C   0  0  0  0  0  0  0  0  0  0  0  0
    1.5930   -1.4620    1.7640 O   0  0  0  0  0  0  0  0  0  0  0  0
    2.5420   -2.8060    6.8320 H   0  0  0  0  0  0  0  0  0  0  0  0
    0.7800   -2.8300    6.8320 H   0  0  0  0  0  0  0  0  0  0  0  0
    1.5850   -2.8460    5.2460 H   0  0  0  0  0  0  0  0  0  0  0  0
    0.4240   -0.2610    4.2830 H   0  0  0  0  0  0  0  0  0  0  0  0
    1.2100    1.2270    4.9090 H   0  0  0  0  0  0  0  0  0  0  0  0
    2.7810   -1.1330    3.7610 H   0  0  0  0  0  0  0  0  0  0  0  0
    3.4420    0.3770    4.4160 H   0  0  0  0  0  0  0  0  0  0  0  0
    3.5270    0.4840    2.0430 H   0  0  0  0  0  0  0  0  0  0  0  0
    1.2750    2.3010    2.6780 H   0  0  0  0  0  0  0  0  0  0  0  0
    2.9730    2.4750    2.9780 H   0  0  0  0  0  0  0  0  0  0  0  0
    0.6310    0.3510    0.7180 N   0  0  0  0  0  0  0  0  0  0  0  0
   -0.2570   -0.4170   -0.1260 C   0  0  1  0  0  0  0  0  0  0  0  0
   -1.5930    0.2010   -0.2180 C   0  0  0  0  0  0  0  0  0  0  0  0
   -2.3510    0.3570    1.0150 C   0  0  0  0  0  0  0  0  0  0  0  0
   -2.0650   -0.0570    2.2790 C   0  0  0  0  0  0  0  0  0  0  0  0
   -3.0760    0.3180    3.0690 N   0  0  0  0  0  0  0  0  0  0  0  0
   -4.0360    0.9740    2.3660 C   0  0  0  0  0  0  0  0  0  0  0  0
   -5.2390    1.5380    2.7290 C   0  0  0  0  0  0  0  0  0  0  0  0
   -6.0240    2.1490    1.7830 C   0  0  0  0  0  0  0  0  0  0  0  0
   -5.5890    2.1870    0.4780 C   0  0  0  0  0  0  0  0  0  0  0  0
   -4.3850    1.6200    0.1280 C   0  0  0  0  0  0  0  0  0  0  0  0
   -3.5740    0.9990    1.0600 C   0  0  0  0  0  0  0  0  0  0  0  0
    0.2900   -0.4250   -1.5490 C   0  0  0  0  0  0  0  0  0  0  0  0
    1.3650    0.1780   -1.7940 O   0  0  0  0  0  0  0  0  0  0  0  0
    0.6330    1.4050    0.6720 H   0  0  0  0  0  0  0  0  0  0  0  0
   -0.2970   -1.4780    0.1760 H   0  0  0  0  0  0  0  0  0  0  0  0
   -1.5090    1.2380   -0.6700 H   0  0  0  0  0  0  0  0  0  0  0  0
   -2.2600   -0.3250   -0.9660 H   0  0  0  0  0  0  0  0  0  0  0  0
   -1.1910   -0.5970    2.6140 H   0  0  0  0  0  0  0  0  0  0  0  0
   -3.1470    0.1480    4.0870 H   0  0  0  0  0  0  0  0  0  0  0  0
   -5.5510    1.4890    3.7760 H   0  0  0  0  0  0  0  0  0  0  0  0
   -6.9900    2.6040    2.0600 H   0  0  0  0  0  0  0  0  0  0  0  0
   -6.2140    2.6760   -0.2860 H   0  0  0  0  0  0  0  0  0  0  0  0
   -4.0620    1.6660   -0.9220 H   0  0  0  0  0  0  0  0  0  0  0  0
   -0.3740   -1.0870   -2.5880 N   0  0  0  0  0  0  0  0  0  0  0  0
    0.1020   -1.1300   -3.9640 C   0  0  1  0  0  0  0  0  0  0  0  0
    0.4250   -2.5750   -4.2610 C   0  0  0  0  0  0  0  0  0  0  0  0
    1.4750   -3.0570   -3.3230 C   0  0  0  0  0  0  0  0  0  0  0  0
    2.8220   -2.9670   -3.5840 C   0  0  0  0  0  0  0  0  0  0  0  0
    3.7450   -3.4260   -2.6860 C   0  0  0  0  0  0  0  0  0  0  0  0
    3.3760   -3.9950   -1.4860 C   0  0  0  0  0  0  0  0  0  0  0  0
    2.0250   -4.0920   -1.2090 C   0  0  0  0  0  0  0  0  0  0  0  0
    1.0890   -3.6300   -2.1140 C   0  0  0  0  0  0  0  0  0  0  0  0
   -0.8720   -0.5800   -4.9070 C   0  0  0  0  0  0  0  0  0  0  0  0
   -0.6090   -0.5430   -6.1270 O   0  0  0  0  0  0  0  0  0  0  0  0
   -2.0910   -0.0950   -4.4740 O   0  0  0  0  0  0  0  0  0  0  0  0
   -1.2810   -1.5860   -2.3490 H   0  0  0  0  0  0  0  0  0  0  0  0
    1.0720   -0.5710   -3.9880 H   0  0  0  0  0  0  0  0  0  0  0  0
   -0.4850   -3.1770   -4.0760 H   0  0  0  0  0  0  0  0  0  0  0  0
    0.7180   -2.7570   -5.3080 H   0  0  0  0  0  0  0  0  0  0  0  0
    3.0980   -2.5110   -4.5440 H   0  0  0  0  0  0  0  0  0  0  0  0
    4.8050   -3.3260   -2.9500 H   0  0  0  0  0  0  0  0  0  0  0  0
    4.1260   -4.3570   -0.7770 H   0  0  0  0  0  0  0  0  0  0  0  0
    1.7260   -4.5320   -0.2820 H   0  0  0  0  0  0  0  0  0  0  0  0
    0.0380   -3.7340   -1.8410 H   0  0  0  0  0  0  0  0  0  0  0  0
  1  2  1  0  0  0  0
  1 10  1  0  0  0  0
  1  9  1  0  0  0  0
  3 13  1  0  0  0  0
  3  2  1  0  0  0  0
  4 15  1  0  0  0  0
  4  3  1  0  0  0  0
  5 16  1  6  0  0  0
  5  4  1  0  0  0  0
  6  5  1  0  0  0  0
  6 17  1  0  0  0  0
  6 18  1  0  0  0  0
  7  8  2  0  0  0  0
  7  5  1  0  0  0  0
 11  1  1  0  0  0  0
 12  3  1  0  0  0  0
 14  4  1  0  0  0  0
 19  7  1  0  0  0  0
 20 34  1  1  0  0  0
 20 19  1  0  0  0  0
 21 20  1  0  0  0  0
 21 22  1  0  0  0  0
 22 30  1  0  0  0  0
 22 23  2  0  0  0  0
 23 37  1  0  0  0  0
 23 24  1  0  0  0  0
 24 38  1  0  0  0  0
 25 26  1  0  0  0  0
 25 24  1  0  0  0  0
 26 39  1  0  0  0  0
 27 40  1  0  0  0  0
 27 26  2  0  0  0  0
 28 27  1  0  0  0  0
 29 28  2  0  0  0  0
 29 30  1  0  0  0  0
 30 25  2  0  0  0  0
 31 20  1  0  0  0  0
 32 31  2  0  0  0  0
 33 19  1  0  0  0  0
 35 21  1  0  0  0  0
 36 21  1  0  0  0  0
 41 28  1  0  0  0  0
 42 29  1  0  0  0  0
 43 55  1  0  0  0  0
 43 31  1  0  0  0  0
 44 56  1  6  0  0  0
 44 43  1  0  0  0  0
 45 57  1  0  0  0  0
 45 44  1  0  0  0  0
 45 46  1  0  0  0  0
 46 51  1  0  0  0  0
 47 46  2  0  0  0  0
 47 48  1  0  0  0  0
 48 49  2  0  0  0  0
 49 50  1  0  0  0  0
 49 61  1  0  0  0  0
 50 62  1  0  0  0  0
 51 63  1  0  0  0  0
 51 50  2  0  0  0  0
 52 54  1  0  0  0  0
 52 44  1  0  0  0  0
 53 52  2  0  0  0  0
 58 45  1  0  0  0  0
 59 47  1  0  0  0  0
 60 48  1  0  0  0  0
M  END
$$$$
