MWH.pdb
 OpenBabel07022418573D

 60 62  0  0  1  0  0  0  0  0999 V2000
    3.6690    1.1580    5.5090 C   0  0  0  0  0  0  0  0  0  0  0  0
    2.9410    2.4850    4.5490 S   0  0  0  0  0  0  0  0  0  0  0  0
    1.1380    2.3650    4.4080 C   0  0  0  0  0  0  0  0  0  0  0  0
    0.7690    1.1330    3.5690 C   0  0  0  0  0  0  0  0  0  0  0  0
    1.4120    1.3770    2.2180 C   0  0  2  0  0  0  0  0  0  0  0  0
    0.8540    2.5940    1.7030 N   0  0  0  0  0  0  0  0  0  0  0  0
    1.1210    0.2610    1.2480 C   0  0  0  0  0  0  0  0  0  0  0  0
    1.6610   -0.8590    1.4090 O   0  0  0  0  0  0  0  0  0  0  0  0
    2.9680    0.7650    6.2950 H   0  0  0  0  0  0  0  0  0  0  0  0
    4.5570    1.5590    6.0770 H   0  0  0  0  0  0  0  0  0  0  0  0
    3.9360    0.3030    4.8670 H   0  0  0  0  0  0  0  0  0  0  0  0
    0.6850    2.3460    5.4070 H   0  0  0  0  0  0  0  0  0  0  0  0
    0.7850    3.2850    3.8930 H   0  0  0  0  0  0  0  0  0  0  0  0
   -0.3360    1.1230    3.5030 H   0  0  0  0  0  0  0  0  0  0  0  0
    1.1100    0.2100    4.0410 H   0  0  0  0  0  0  0  0  0  0  0  0
    2.5110    1.4400    2.2970 H   0  0  0  0  0  0  0  0  0  0  0  0
   -0.0580    2.8570    2.0890 H   0  0  0  0  0  0  0  0  0  0  0  0
    1.5410    3.3750    1.6100 H   0  0  0  0  0  0  0  0  0  0  0  0
    0.2550    0.4750    0.1740 N   0  0  0  0  0  0  0  0  0  0  0  0
   -0.1600   -0.3760   -0.8910 C   0  0  1  0  0  0  0  0  0  0  0  0
    0.1810   -1.8200   -0.8710 C   0  0  0  0  0  0  0  0  0  0  0  0
    1.6170   -2.1640   -0.9320 C   0  0  0  0  0  0  0  0  0  0  0  0
    2.6280   -1.4030   -1.5130 C   0  0  0  0  0  0  0  0  0  0  0  0
    3.7680   -2.0930   -1.3620 N   0  0  0  0  0  0  0  0  0  0  0  0
    3.5340   -3.2470   -0.7180 C   0  0  0  0  0  0  0  0  0  0  0  0
    4.3530   -4.2840   -0.3350 C   0  0  0  0  0  0  0  0  0  0  0  0
    3.8200   -5.3670    0.3200 C   0  0  0  0  0  0  0  0  0  0  0  0
    2.4710   -5.4540    0.6110 C   0  0  0  0  0  0  0  0  0  0  0  0
    1.6640   -4.4100    0.2230 C   0  0  0  0  0  0  0  0  0  0  0  0
    2.1950   -3.3210   -0.4340 C   0  0  0  0  0  0  0  0  0  0  0  0
   -1.5950   -0.1790   -1.2440 C   0  0  0  0  0  0  0  0  0  0  0  0
   -2.2140    0.6460   -0.5040 O   0  0  0  0  0  0  0  0  0  0  0  0
   -0.1770    1.4990    0.1640 H   0  0  0  0  0  0  0  0  0  0  0  0
    0.5280   -0.0100   -1.7720 H   0  0  0  0  0  0  0  0  0  0  0  0
   -0.2610   -2.2870   -1.8010 H   0  0  0  0  0  0  0  0  0  0  0  0
   -0.2340   -2.3600    0.0140 H   0  0  0  0  0  0  0  0  0  0  0  0
    2.5310   -0.4520   -1.9910 H   0  0  0  0  0  0  0  0  0  0  0  0
    4.6960   -1.7650   -1.7010 H   0  0  0  0  0  0  0  0  0  0  0  0
    5.4350   -4.2610   -0.5450 H   0  0  0  0  0  0  0  0  0  0  0  0
    4.4450   -6.2090    0.6370 H   0  0  0  0  0  0  0  0  0  0  0  0
    2.0630   -6.3250    1.1330 H   0  0  0  0  0  0  0  0  0  0  0  0
    0.6030   -4.4450    0.4370 H   0  0  0  0  0  0  0  0  0  0  0  0
   -2.2840   -0.8050   -2.2790 N   0  0  0  0  0  0  0  0  0  0  0  0
   -3.6500   -0.7100   -2.6620 C   0  0  1  0  0  0  0  0  0  0  0  0
   -4.5250    0.0600   -1.6700 C   0  0  0  0  0  0  0  0  0  0  0  0
   -4.5460   -0.6820   -0.3510 C   0  0  0  0  0  0  0  0  0  0  0  0
   -3.9350   -1.9000   -0.0960 C   0  0  0  0  0  0  0  0  0  0  0  0
   -4.2220   -2.2240    1.1660 N   0  0  0  0  0  0  0  0  0  0  0  0
   -4.9840   -1.2450    1.6820 C   0  0  0  0  0  0  0  0  0  0  0  0
   -5.1800   -0.3030    0.7500 N   0  0  0  0  0  0  0  0  0  0  0  0
   -3.8180   -0.1820   -3.9940 C   0  0  0  0  0  0  0  0  0  0  0  0
   -2.8070    0.1580   -4.7010 O   0  0  0  0  0  0  0  0  0  0  0  0
   -5.0430    0.0130   -4.6430 O   0  0  0  0  0  0  0  0  0  0  0  0
   -1.6880   -1.4620   -2.8860 H   0  0  0  0  0  0  0  0  0  0  0  0
   -4.0660   -1.7830   -2.5850 H   0  0  0  0  0  0  0  0  0  0  0  0
   -4.2330    1.1000   -1.5610 H   0  0  0  0  0  0  0  0  0  0  0  0
   -5.5670    0.0250   -2.0420 H   0  0  0  0  0  0  0  0  0  0  0  0
   -3.3360   -2.4600   -0.8220 H   0  0  0  0  0  0  0  0  0  0  0  0
   -3.9170   -3.0910    1.6950 H   0  0  0  0  0  0  0  0  0  0  0  0
   -5.3690   -1.2500    2.7100 H   0  0  0  0  0  0  0  0  0  0  0  0
  1 10  1  0  0  0  0
  1  9  1  0  0  0  0
  2  1  1  0  0  0  0
  3  2  1  0  0  0  0
  3 12  1  0  0  0  0
  4 15  1  0  0  0  0
  4  3  1  0  0  0  0
  5 16  1  1  0  0  0
  5  4  1  0  0  0  0
  6 17  1  0  0  0  0
  6  5  1  0  0  0  0
  7  8  2  0  0  0  0
  7  5  1  0  0  0  0
 11  1  1  0  0  0  0
 13  3  1  0  0  0  0
 14  4  1  0  0  0  0
 18  6  1  0  0  0  0
 19  7  1  0  0  0  0
 20 34  1  6  0  0  0
 20 21  1  0  0  0  0
 20 19  1  0  0  0  0
 21 36  1  0  0  0  0
 22 21  1  0  0  0  0
 22 30  1  0  0  0  0
 23 24  1  0  0  0  0
 23 22  2  0  0  0  0
 24 25  1  0  0  0  0
 25 30  2  0  0  0  0
 25 26  1  0  0  0  0
 26 27  2  0  0  0  0
 27 28  1  0  0  0  0
 27 40  1  0  0  0  0
 28 41  1  0  0  0  0
 29 42  1  0  0  0  0
 29 28  2  0  0  0  0
 30 29  1  0  0  0  0
 31 20  1  0  0  0  0
 31 32  2  0  0  0  0
 33 19  1  0  0  0  0
 35 21  1  0  0  0  0
 37 23  1  0  0  0  0
 38 24  1  0  0  0  0
 39 26  1  0  0  0  0
 43 31  1  0  0  0  0
 44 55  1  6  0  0  0
 44 43  1  0  0  0  0
 44 45  1  0  0  0  0
 45 56  1  0  0  0  0
 45 46  1  0  0  0  0
 46 47  2  0  0  0  0
 46 50  1  0  0  0  0
 47 48  1  0  0  0  0
 48 49  1  0  0  0  0
 48 59  1  0  0  0  0
 49 60  1  0  0  0  0
 50 49  2  0  0  0  0
 51 44  1  0  0  0  0
 52 51  2  0  0  0  0
 53 51  1  0  0  0  0
 54 43  1  0  0  0  0
 57 45  1  0  0  0  0
 58 47  1  0  0  0  0
M  END
$$$$
