MWK.pdb
 OpenBabel07022418573D

 64 65  0  0  1  0  0  0  0  0999 V2000
    4.0140    1.8430    4.6820 C   0  0  0  0  0  0  0  0  0  0  0  0
    4.7330    0.2250    4.3010 S   0  0  0  0  0  0  0  0  0  0  0  0
    3.8640   -0.5380    2.8730 C   0  0  0  0  0  0  0  0  0  0  0  0
    4.1630    0.3190    1.6740 C   0  0  0  0  0  0  0  0  0  0  0  0
    3.5530   -0.1480    0.4000 C   0  0  2  0  0  0  0  0  0  0  0  0
    3.8900    0.7330   -0.7170 N   0  0  0  0  0  0  0  0  0  0  0  0
    2.1080   -0.4130    0.4360 C   0  0  0  0  0  0  0  0  0  0  0  0
    1.6510   -1.2000    1.3020 O   0  0  0  0  0  0  0  0  0  0  0  0
    3.8680    2.3930    3.7250 H   0  0  0  0  0  0  0  0  0  0  0  0
    4.6710    2.3520    5.3920 H   0  0  0  0  0  0  0  0  0  0  0  0
    3.0150    1.7210    5.1370 H   0  0  0  0  0  0  0  0  0  0  0  0
    4.1900   -1.5750    2.7870 H   0  0  0  0  0  0  0  0  0  0  0  0
    2.7910   -0.5170    3.1680 H   0  0  0  0  0  0  0  0  0  0  0  0
    3.8930    1.3580    1.9480 H   0  0  0  0  0  0  0  0  0  0  0  0
    5.2760    0.3260    1.5370 H   0  0  0  0  0  0  0  0  0  0  0  0
    4.0490   -1.1320    0.1430 H   0  0  0  0  0  0  0  0  0  0  0  0
    3.9200    0.2200   -1.6250 H   0  0  0  0  0  0  0  0  0  0  0  0
    4.7390    1.2930   -0.5260 H   0  0  0  0  0  0  0  0  0  0  0  0
    1.1990    0.2020   -0.4920 N   0  0  0  0  0  0  0  0  0  0  0  0
   -0.2040   -0.0830   -0.4240 C   0  0  1  0  0  0  0  0  0  0  0  0
   -1.0390    1.1680   -0.2580 C   0  0  0  0  0  0  0  0  0  0  0  0
   -0.7470    1.9370    0.9450 C   0  0  0  0  0  0  0  0  0  0  0  0
   -0.0240    3.1090    0.9930 C   0  0  0  0  0  0  0  0  0  0  0  0
    0.0270    3.5100    2.2750 N   0  0  0  0  0  0  0  0  0  0  0  0
   -0.6490    2.6180    3.0500 C   0  0  0  0  0  0  0  0  0  0  0  0
   -0.9030    2.5490    4.4100 C   0  0  0  0  0  0  0  0  0  0  0  0
   -1.6380    1.4970    4.9220 C   0  0  0  0  0  0  0  0  0  0  0  0
   -2.1220    0.5130    4.0830 C   0  0  0  0  0  0  0  0  0  0  0  0
   -1.8840    0.5560    2.7260 C   0  0  0  0  0  0  0  0  0  0  0  0
   -1.1450    1.6170    2.2260 C   0  0  0  0  0  0  0  0  0  0  0  0
   -0.6320   -0.6940   -1.7160 C   0  0  0  0  0  0  0  0  0  0  0  0
    0.2100   -0.8700   -2.6330 O   0  0  0  0  0  0  0  0  0  0  0  0
    1.6400    0.8450   -1.1860 H   0  0  0  0  0  0  0  0  0  0  0  0
   -0.3720   -0.7810    0.4270 H   0  0  0  0  0  0  0  0  0  0  0  0
   -0.8580    1.7800   -1.1770 H   0  0  0  0  0  0  0  0  0  0  0  0
   -2.1170    0.9250   -0.2680 H   0  0  0  0  0  0  0  0  0  0  0  0
    0.4390    3.6500    0.1790 H   0  0  0  0  0  0  0  0  0  0  0  0
    0.4930    4.3580    2.6780 H   0  0  0  0  0  0  0  0  0  0  0  0
   -0.5070    3.3450    5.0530 H   0  0  0  0  0  0  0  0  0  0  0  0
   -1.8410    1.4320    5.9640 H   0  0  0  0  0  0  0  0  0  0  0  0
   -2.7030   -0.3320    4.4380 H   0  0  0  0  0  0  0  0  0  0  0  0
   -2.2300   -0.1740    2.0210 H   0  0  0  0  0  0  0  0  0  0  0  0
   -1.9630   -1.1000   -1.9820 N   0  0  0  0  0  0  0  0  0  0  0  0
   -2.3880   -1.6920   -3.2270 C   0  0  1  0  0  0  0  0  0  0  0  0
   -2.7840   -3.1440   -2.8910 C   0  0  0  0  0  0  0  0  0  0  0  0
   -1.5880   -3.8460   -2.3250 C   0  0  0  0  0  0  0  0  0  0  0  0
   -1.9380   -5.2720   -2.0100 C   0  0  0  0  0  0  0  0  0  0  0  0
   -3.0530   -5.2950   -0.9950 C   0  0  0  0  0  0  0  0  0  0  0  0
   -2.5940   -4.5930    0.2000 N   0  0  0  0  0  0  0  0  0  0  0  0
   -3.5670   -1.0560   -3.8050 C   0  0  0  0  0  0  0  0  0  0  0  0
   -4.0490   -1.4640   -4.8820 O   0  0  0  0  0  0  0  0  0  0  0  0
   -4.1680    0.0080   -3.1660 O   0  0  0  0  0  0  0  0  0  0  0  0
   -2.6640   -0.9560   -1.2260 H   0  0  0  0  0  0  0  0  0  0  0  0
   -1.5440   -1.7860   -3.9430 H   0  0  0  0  0  0  0  0  0  0  0  0
   -3.5330   -3.0120   -2.0610 H   0  0  0  0  0  0  0  0  0  0  0  0
   -3.2460   -3.6570   -3.7320 H   0  0  0  0  0  0  0  0  0  0  0  0
   -0.7320   -3.8590   -3.0390 H   0  0  0  0  0  0  0  0  0  0  0  0
   -1.2690   -3.3920   -1.3410 H   0  0  0  0  0  0  0  0  0  0  0  0
   -2.2490   -5.7640   -2.9700 H   0  0  0  0  0  0  0  0  0  0  0  0
   -1.0240   -5.7540   -1.6010 H   0  0  0  0  0  0  0  0  0  0  0  0
   -3.2910   -6.3440   -0.6820 H   0  0  0  0  0  0  0  0  0  0  0  0
   -3.9750   -4.7970   -1.3420 H   0  0  0  0  0  0  0  0  0  0  0  0
   -3.4110   -4.4520    0.8160 H   0  0  0  0  0  0  0  0  0  0  0  0
   -1.7910   -5.0530    0.6470 H   0  0  0  0  0  0  0  0  0  0  0  0
  1 11  1  0  0  0  0
  1 10  1  0  0  0  0
  2  1  1  0  0  0  0
  3 13  1  0  0  0  0
  3  2  1  0  0  0  0
  4 14  1  0  0  0  0
  4  3  1  0  0  0  0
  5 16  1  6  0  0  0
  5  7  1  0  0  0  0
  5  4  1  0  0  0  0
  6 18  1  0  0  0  0
  6  5  1  0  0  0  0
  7  8  2  0  0  0  0
  9  1  1  0  0  0  0
 12  3  1  0  0  0  0
 15  4  1  0  0  0  0
 17  6  1  0  0  0  0
 19 20  1  0  0  0  0
 19  7  1  0  0  0  0
 20 21  1  0  0  0  0
 20 34  1  1  0  0  0
 21 22  1  0  0  0  0
 22 23  2  0  0  0  0
 22 30  1  0  0  0  0
 23 24  1  0  0  0  0
 24 38  1  0  0  0  0
 24 25  1  0  0  0  0
 25 26  1  0  0  0  0
 26 27  2  0  0  0  0
 26 39  1  0  0  0  0
 27 40  1  0  0  0  0
 28 41  1  0  0  0  0
 28 27  1  0  0  0  0
 29 28  2  0  0  0  0
 30 29  1  0  0  0  0
 30 25  2  0  0  0  0
 31 20  1  0  0  0  0
 32 31  2  0  0  0  0
 33 19  1  0  0  0  0
 35 21  1  0  0  0  0
 36 21  1  0  0  0  0
 37 23  1  0  0  0  0
 42 29  1  0  0  0  0
 43 31  1  0  0  0  0
 43 53  1  0  0  0  0
 44 54  1  6  0  0  0
 44 45  1  0  0  0  0
 44 43  1  0  0  0  0
 45 46  1  0  0  0  0
 45 55  1  0  0  0  0
 46 47  1  0  0  0  0
 46 58  1  0  0  0  0
 47 60  1  0  0  0  0
 47 48  1  0  0  0  0
 48 61  1  0  0  0  0
 48 49  1  0  0  0  0
 49 64  1  0  0  0  0
 49 63  1  0  0  0  0
 50 44  1  0  0  0  0
 50 52  1  0  0  0  0
 51 50  2  0  0  0  0
 56 45  1  0  0  0  0
 57 46  1  0  0  0  0
 59 47  1  0  0  0  0
 62 48  1  0  0  0  0
M  END
$$$$
