MWQ.pdb
 OpenBabel07022418573D

 60 61  0  0  1  0  0  0  0  0999 V2000
    3.1270    3.4390    3.2350 C   0  0  0  0  0  0  0  0  0  0  0  0
    3.4220    2.0110    4.2830 S   0  0  0  0  0  0  0  0  0  0  0  0
    2.4150    0.5700    3.7650 C   0  0  0  0  0  0  0  0  0  0  0  0
    2.8530    0.0810    2.4130 C   0  0  0  0  0  0  0  0  0  0  0  0
    2.0740   -1.1020    1.9750 C   0  0  2  0  0  0  0  0  0  0  0  0
    2.5480   -1.5550    0.6540 N   0  0  0  0  0  0  0  0  0  0  0  0
    0.6220   -0.9160    1.8170 C   0  0  0  0  0  0  0  0  0  0  0  0
   -0.0670   -0.5530    2.7930 O   0  0  0  0  0  0  0  0  0  0  0  0
    4.1130    3.8560    2.9090 H   0  0  0  0  0  0  0  0  0  0  0  0
    2.5720    4.2190    3.8050 H   0  0  0  0  0  0  0  0  0  0  0  0
    2.5290    3.2030    2.3520 H   0  0  0  0  0  0  0  0  0  0  0  0
    2.6270   -0.2220    4.5180 H   0  0  0  0  0  0  0  0  0  0  0  0
    1.3570    0.8310    3.8530 H   0  0  0  0  0  0  0  0  0  0  0  0
    2.8070    0.9180    1.6830 H   0  0  0  0  0  0  0  0  0  0  0  0
    3.9230   -0.2540    2.5470 H   0  0  0  0  0  0  0  0  0  0  0  0
    2.2300   -1.9640    2.6500 H   0  0  0  0  0  0  0  0  0  0  0  0
    2.8710   -0.6650    0.1740 H   0  0  0  0  0  0  0  0  0  0  0  0
    3.4130   -2.1130    0.7910 H   0  0  0  0  0  0  0  0  0  0  0  0
   -0.0840   -1.1270    0.5860 N   0  0  0  0  0  0  0  0  0  0  0  0
   -1.5010   -0.9350    0.4740 C   0  0  1  0  0  0  0  0  0  0  0  0
   -1.9570    0.1180   -0.4650 C   0  0  0  0  0  0  0  0  0  0  0  0
   -1.4460    1.4700   -0.1030 C   0  0  0  0  0  0  0  0  0  0  0  0
   -2.1690    2.4560    0.5880 C   0  0  0  0  0  0  0  0  0  0  0  0
   -1.3810    3.5150    0.7390 N   0  0  0  0  0  0  0  0  0  0  0  0
   -0.1660    3.2960    0.1870 C   0  0  0  0  0  0  0  0  0  0  0  0
    0.9770    4.0960    0.0870 C   0  0  0  0  0  0  0  0  0  0  0  0
    2.1040    3.6270   -0.5450 C   0  0  0  0  0  0  0  0  0  0  0  0
    2.0630    2.3560   -1.0700 C   0  0  0  0  0  0  0  0  0  0  0  0
    0.9240    1.5710   -0.9660 C   0  0  0  0  0  0  0  0  0  0  0  0
   -0.2050    2.0250   -0.3370 C   0  0  0  0  0  0  0  0  0  0  0  0
   -2.2330   -2.2240    0.3110 C   0  0  0  0  0  0  0  0  0  0  0  0
   -3.4840   -2.2570    0.1870 O   0  0  0  0  0  0  0  0  0  0  0  0
    0.5170   -1.4430   -0.2360 H   0  0  0  0  0  0  0  0  0  0  0  0
   -1.8460   -0.5810    1.4980 H   0  0  0  0  0  0  0  0  0  0  0  0
   -3.0700    0.2130   -0.5120 H   0  0  0  0  0  0  0  0  0  0  0  0
   -1.6590   -0.0540   -1.5210 H   0  0  0  0  0  0  0  0  0  0  0  0
   -3.1960    2.2900    0.9050 H   0  0  0  0  0  0  0  0  0  0  0  0
   -1.6720    4.3990    1.2240 H   0  0  0  0  0  0  0  0  0  0  0  0
    0.9570    5.0800    0.5120 H   0  0  0  0  0  0  0  0  0  0  0  0
    3.0120    4.2370   -0.6350 H   0  0  0  0  0  0  0  0  0  0  0  0
    2.9170    1.9350   -1.5770 H   0  0  0  0  0  0  0  0  0  0  0  0
    0.9040    0.5720   -1.3920 H   0  0  0  0  0  0  0  0  0  0  0  0
   -3.2360   -3.9160   -4.0790 N   0  0  0  0  0  0  0  0  0  0  0  0
   -3.0730   -4.5450   -2.8200 C   0  0  0  0  0  0  0  0  0  0  0  0
   -4.0710   -4.8210   -2.1310 O   0  0  0  0  0  0  0  0  0  0  0  0
   -1.7290   -4.8620   -2.3500 C   0  0  0  0  0  0  0  0  0  0  0  0
   -1.6260   -5.5060   -1.0170 C   0  0  0  0  0  0  0  0  0  0  0  0
   -2.1710   -4.7260    0.1360 C   0  0  2  0  0  0  0  0  0  0  0  0
   -1.4920   -3.4340    0.2950 N   0  0  0  0  0  0  0  0  0  0  0  0
   -1.9060   -5.5700    1.3610 C   0  0  0  0  0  0  0  0  0  0  0  0
   -2.3970   -6.7290    1.4420 O   0  0  0  0  0  0  0  0  0  0  0  0
   -1.1430   -5.1390    2.4170 O   0  0  0  0  0  0  0  0  0  0  0  0
   -4.0640   -3.3560   -4.3650 H   0  0  0  0  0  0  0  0  0  0  0  0
   -2.4800   -3.9920   -4.8220 H   0  0  0  0  0  0  0  0  0  0  0  0
   -1.0670   -3.9750   -2.4190 H   0  0  0  0  0  0  0  0  0  0  0  0
   -1.2940   -5.5930   -3.0950 H   0  0  0  0  0  0  0  0  0  0  0  0
   -2.0420   -6.5260   -0.9720 H   0  0  0  0  0  0  0  0  0  0  0  0
   -0.5220   -5.6400   -0.8140 H   0  0  0  0  0  0  0  0  0  0  0  0
   -3.2400   -4.5290    0.0200 H   0  0  0  0  0  0  0  0  0  0  0  0
   -0.4510   -3.4230    0.3960 H   0  0  0  0  0  0  0  0  0  0  0  0
  1 10  1  0  0  0  0
  1  2  1  0  0  0  0
  3 13  1  0  0  0  0
  3  2  1  0  0  0  0
  3 12  1  0  0  0  0
  4 15  1  0  0  0  0
  4  3  1  0  0  0  0
  5  4  1  0  0  0  0
  5 16  1  1  0  0  0
  6 18  1  0  0  0  0
  6  5  1  0  0  0  0
  7  5  1  0  0  0  0
  7  8  2  0  0  0  0
  9  1  1  0  0  0  0
 11  1  1  0  0  0  0
 14  4  1  0  0  0  0
 17  6  1  0  0  0  0
 19  7  1  0  0  0  0
 20 19  1  0  0  0  0
 20 34  1  1  0  0  0
 21 22  1  0  0  0  0
 21 20  1  0  0  0  0
 22 23  2  0  0  0  0
 23 24  1  0  0  0  0
 23 37  1  0  0  0  0
 24 38  1  0  0  0  0
 25 24  1  0  0  0  0
 26 25  1  0  0  0  0
 26 39  1  0  0  0  0
 27 26  2  0  0  0  0
 28 29  2  0  0  0  0
 28 27  1  0  0  0  0
 29 30  1  0  0  0  0
 30 22  1  0  0  0  0
 30 25  2  0  0  0  0
 31 20  1  0  0  0  0
 32 31  2  0  0  0  0
 33 19  1  0  0  0  0
 35 21  1  0  0  0  0
 36 21  1  0  0  0  0
 40 27  1  0  0  0  0
 41 28  1  0  0  0  0
 42 29  1  0  0  0  0
 43 44  1  0  0  0  0
 44 46  1  0  0  0  0
 44 45  2  0  0  0  0
 46 47  1  0  0  0  0
 47 57  1  0  0  0  0
 47 58  1  0  0  0  0
 47 48  1  0  0  0  0
 48 59  1  6  0  0  0
 48 49  1  0  0  0  0
 48 50  1  0  0  0  0
 49 31  1  0  0  0  0
 49 60  1  0  0  0  0
 50 51  2  0  0  0  0
 50 52  1  0  0  0  0
 53 43  1  0  0  0  0
 54 43  1  0  0  0  0
 55 46  1  0  0  0  0
 56 46  1  0  0  0  0
M  END
$$$$
