MWR.pdb
 OpenBabel07022418573D

 66 67  0  0  1  0  0  0  0  0999 V2000
    6.4330   -2.6680    1.8860 C   0  0  0  0  0  0  0  0  0  0  0  0
    6.7890   -1.5740    0.4670 S   0  0  0  0  0  0  0  0  0  0  0  0
    6.2120    0.1120    0.8170 C   0  0  0  0  0  0  0  0  0  0  0  0
    4.7020    0.1310    0.9330 C   0  0  0  0  0  0  0  0  0  0  0  0
    4.2630    1.5350    1.2140 C   0  0  2  0  0  0  0  0  0  0  0  0
    4.8480    1.9960    2.4340 N   0  0  0  0  0  0  0  0  0  0  0  0
    2.8020    1.6870    1.3150 C   0  0  0  0  0  0  0  0  0  0  0  0
    2.3130    2.2250    2.3380 O   0  0  0  0  0  0  0  0  0  0  0  0
    7.3380   -2.8740    2.4780 H   0  0  0  0  0  0  0  0  0  0  0  0
    5.9660   -3.6270    1.5260 H   0  0  0  0  0  0  0  0  0  0  0  0
    5.7180   -2.1700    2.5800 H   0  0  0  0  0  0  0  0  0  0  0  0
    6.6650    0.4090    1.7960 H   0  0  0  0  0  0  0  0  0  0  0  0
    6.5770    0.7700    0.0270 H   0  0  0  0  0  0  0  0  0  0  0  0
    4.4180   -0.6090    1.6780 H   0  0  0  0  0  0  0  0  0  0  0  0
    4.3280   -0.2360   -0.0600 H   0  0  0  0  0  0  0  0  0  0  0  0
    4.6990    2.1700    0.3970 H   0  0  0  0  0  0  0  0  0  0  0  0
    4.8360    3.0270    2.5480 H   0  0  0  0  0  0  0  0  0  0  0  0
    4.6360    1.4570    3.2740 H   0  0  0  0  0  0  0  0  0  0  0  0
    1.8950    1.2640    0.3270 N   0  0  0  0  0  0  0  0  0  0  0  0
    0.4320    1.4110    0.4250 C   0  0  1  0  0  0  0  0  0  0  0  0
   -0.0500    2.2070   -0.7390 C   0  0  0  0  0  0  0  0  0  0  0  0
   -1.4940    2.3810   -0.7750 C   0  0  0  0  0  0  0  0  0  0  0  0
   -2.2030    3.4350   -0.2240 C   0  0  0  0  0  0  0  0  0  0  0  0
   -3.5120    3.2620   -0.4430 N   0  0  0  0  0  0  0  0  0  0  0  0
   -3.7020    2.1180   -1.1290 C   0  0  0  0  0  0  0  0  0  0  0  0
   -4.8180    1.4870   -1.6290 C   0  0  0  0  0  0  0  0  0  0  0  0
   -4.6980    0.3180   -2.3310 C   0  0  0  0  0  0  0  0  0  0  0  0
   -3.4450   -0.2300   -2.5360 C   0  0  0  0  0  0  0  0  0  0  0  0
   -2.3280    0.3980   -2.0370 C   0  0  0  0  0  0  0  0  0  0  0  0
   -2.4640    1.5570   -1.3440 C   0  0  0  0  0  0  0  0  0  0  0  0
   -0.1380    0.0850    0.5230 C   0  0  0  0  0  0  0  0  0  0  0  0
    0.5650   -0.9180    0.1610 O   0  0  0  0  0  0  0  0  0  0  0  0
    2.2830    0.8200   -0.5220 H   0  0  0  0  0  0  0  0  0  0  0  0
    0.1720    1.9550    1.3650 H   0  0  0  0  0  0  0  0  0  0  0  0
    0.2880    1.7190   -1.7020 H   0  0  0  0  0  0  0  0  0  0  0  0
    0.4810    3.2120   -0.7570 H   0  0  0  0  0  0  0  0  0  0  0  0
   -1.7360    4.2650    0.3040 H   0  0  0  0  0  0  0  0  0  0  0  0
   -4.2580    3.9010   -0.1360 H   0  0  0  0  0  0  0  0  0  0  0  0
   -5.7980    1.9290   -1.4600 H   0  0  0  0  0  0  0  0  0  0  0  0
   -5.5980   -0.1340   -2.7010 H   0  0  0  0  0  0  0  0  0  0  0  0
   -3.4010   -1.1490   -3.0940 H   0  0  0  0  0  0  0  0  0  0  0  0
   -1.3660   -0.0480   -2.2110 H   0  0  0  0  0  0  0  0  0  0  0  0
   -2.1170   -4.3630   -1.5650 N   0  0  0  0  0  0  0  0  0  0  0  0
   -1.9610   -4.9620   -0.3090 C   0  0  0  0  0  0  0  0  0  0  0  0
   -2.7360   -5.9040    0.0650 N   0  0  0  0  0  0  0  0  0  0  0  0
   -0.9400   -4.5400    0.5750 N   0  0  0  0  0  0  0  0  0  0  0  0
   -1.0460   -4.5330    1.9810 C   0  0  0  0  0  0  0  0  0  0  0  0
   -1.9300   -3.5610    2.6680 C   0  0  0  0  0  0  0  0  0  0  0  0
   -1.6510   -2.1280    2.4900 C   0  0  0  0  0  0  0  0  0  0  0  0
   -1.8570   -1.6490    1.0650 C   0  0  2  0  0  0  0  0  0  0  0  0
   -1.4500   -0.2170    1.0150 N   0  0  0  0  0  0  0  0  0  0  0  0
   -3.3010   -1.7270    0.7870 C   0  0  0  0  0  0  0  0  0  0  0  0
   -3.9390   -0.6190    0.6350 O   0  0  0  0  0  0  0  0  0  0  0  0
   -4.0370   -2.8800    0.6760 O   0  0  0  0  0  0  0  0  0  0  0  0
   -1.6930   -3.4540   -1.8560 H   0  0  0  0  0  0  0  0  0  0  0  0
   -2.7030   -4.8180   -2.3270 H   0  0  0  0  0  0  0  0  0  0  0  0
   -3.5150   -6.3150   -0.4610 H   0  0  0  0  0  0  0  0  0  0  0  0
   -0.0140   -4.2020    0.1440 H   0  0  0  0  0  0  0  0  0  0  0  0
   -0.0100   -4.5560    2.4150 H   0  0  0  0  0  0  0  0  0  0  0  0
   -1.4400   -5.5670    2.2780 H   0  0  0  0  0  0  0  0  0  0  0  0
   -3.0020   -3.7850    2.4770 H   0  0  0  0  0  0  0  0  0  0  0  0
   -1.8240   -3.7880    3.7880 H   0  0  0  0  0  0  0  0  0  0  0  0
   -0.6710   -1.7950    2.8940 H   0  0  0  0  0  0  0  0  0  0  0  0
   -2.4160   -1.5610    3.1000 H   0  0  0  0  0  0  0  0  0  0  0  0
   -1.2440   -2.1940    0.4020 H   0  0  0  0  0  0  0  0  0  0  0  0
   -2.0960    0.5230    1.3280 H   0  0  0  0  0  0  0  0  0  0  0  0
  1  9  1  0  0  0  0
  1 11  1  0  0  0  0
  2  3  1  0  0  0  0
  2  1  1  0  0  0  0
  3  4  1  0  0  0  0
  3 12  1  0  0  0  0
  4  5  1  0  0  0  0
  4 14  1  0  0  0  0
  5 16  1  6  0  0  0
  5  7  1  0  0  0  0
  5  6  1  0  0  0  0
  6 17  1  0  0  0  0
  6 18  1  0  0  0  0
  7  8  2  0  0  0  0
 10  1  1  0  0  0  0
 13  3  1  0  0  0  0
 15  4  1  0  0  0  0
 19 20  1  0  0  0  0
 19  7  1  0  0  0  0
 20 31  1  0  0  0  0
 20 34  1  1  0  0  0
 21 20  1  0  0  0  0
 22 21  1  0  0  0  0
 22 23  2  0  0  0  0
 23 37  1  0  0  0  0
 24 23  1  0  0  0  0
 24 38  1  0  0  0  0
 25 24  1  0  0  0  0
 26 39  1  0  0  0  0
 26 25  2  0  0  0  0
 27 26  1  0  0  0  0
 28 27  2  0  0  0  0
 28 29  1  0  0  0  0
 29 30  2  0  0  0  0
 30 25  1  0  0  0  0
 30 22  1  0  0  0  0
 31 51  1  0  0  0  0
 32 31  2  0  0  0  0
 33 19  1  0  0  0  0
 35 21  1  0  0  0  0
 36 21  1  0  0  0  0
 40 27  1  0  0  0  0
 41 28  1  0  0  0  0
 42 29  1  0  0  0  0
 43 44  1  0  0  0  0
 44 45  2  0  0  0  0
 44 46  1  0  0  0  0
 46 47  1  0  0  0  0
 47 60  1  0  0  0  0
 47 59  1  0  0  0  0
 47 48  1  0  0  0  0
 48 62  1  0  0  0  0
 49 48  1  0  0  0  0
 49 63  1  0  0  0  0
 49 64  1  0  0  0  0
 50 65  1  6  0  0  0
 50 49  1  0  0  0  0
 51 50  1  0  0  0  0
 51 66  1  0  0  0  0
 52 50  1  0  0  0  0
 53 52  2  0  0  0  0
 54 52  1  0  0  0  0
 55 43  1  0  0  0  0
 56 43  1  0  0  0  0
 57 45  1  0  0  0  0
 58 46  1  0  0  0  0
 61 48  1  0  0  0  0
M  END
$$$$
