MWS.pdb
 OpenBabel07022418573D

 54 55  0  0  1  0  0  0  0  0999 V2000
    3.7210   -3.9870    4.3370 C   0  0  0  0  0  0  0  0  0  0  0  0
    3.9360   -2.2870    3.7530 S   0  0  0  0  0  0  0  0  0  0  0  0
    3.1770   -2.1220    2.0900 C   0  0  0  0  0  0  0  0  0  0  0  0
    3.3400   -0.7130    1.5760 C   0  0  0  0  0  0  0  0  0  0  0  0
    2.6840    0.3050    2.4780 C   0  0  2  0  0  0  0  0  0  0  0  0
    3.3270    0.1790    3.7760 N   0  0  0  0  0  0  0  0  0  0  0  0
    1.2270    0.1080    2.6280 C   0  0  0  0  0  0  0  0  0  0  0  0
    0.7520   -0.1750    3.7590 O   0  0  0  0  0  0  0  0  0  0  0  0
    3.6990   -3.9400    5.4530 H   0  0  0  0  0  0  0  0  0  0  0  0
    2.7610   -4.3610    3.9240 H   0  0  0  0  0  0  0  0  0  0  0  0
    4.5900   -4.6270    4.0130 H   0  0  0  0  0  0  0  0  0  0  0  0
    2.1430   -2.4690    2.0860 H   0  0  0  0  0  0  0  0  0  0  0  0
    3.7860   -2.7800    1.4270 H   0  0  0  0  0  0  0  0  0  0  0  0
    4.4270   -0.4960    1.5890 H   0  0  0  0  0  0  0  0  0  0  0  0
    2.9910   -0.6740    0.5450 H   0  0  0  0  0  0  0  0  0  0  0  0
    2.9490    1.3070    2.0850 H   0  0  0  0  0  0  0  0  0  0  0  0
    4.3450    0.3240    3.6500 H   0  0  0  0  0  0  0  0  0  0  0  0
    2.9700    0.9570    4.3820 H   0  0  0  0  0  0  0  0  0  0  0  0
    0.3120    0.2190    1.5650 N   0  0  0  0  0  0  0  0  0  0  0  0
   -1.0920    0.0150    1.7820 C   0  0  1  0  0  0  0  0  0  0  0  0
   -1.9400    1.2030    1.5670 C   0  0  0  0  0  0  0  0  0  0  0  0
   -1.9000    1.8330    0.2350 C   0  0  0  0  0  0  0  0  0  0  0  0
   -1.0080    2.8930   -0.0460 C   0  0  0  0  0  0  0  0  0  0  0  0
   -1.1350    3.2500   -1.3310 N   0  0  0  0  0  0  0  0  0  0  0  0
   -2.0590    2.4940   -1.9310 C   0  0  0  0  0  0  0  0  0  0  0  0
   -2.6010    2.4210   -3.1940 C   0  0  0  0  0  0  0  0  0  0  0  0
   -3.5850    1.5180   -3.5210 C   0  0  0  0  0  0  0  0  0  0  0  0
   -4.0450    0.6630   -2.5590 C   0  0  0  0  0  0  0  0  0  0  0  0
   -3.5230    0.7090   -1.2780 C   0  0  0  0  0  0  0  0  0  0  0  0
   -2.5310    1.6190   -0.9580 C   0  0  0  0  0  0  0  0  0  0  0  0
   -1.5460   -1.1330    1.0070 C   0  0  0  0  0  0  0  0  0  0  0  0
   -2.7180   -1.5460    1.1570 O   0  0  0  0  0  0  0  0  0  0  0  0
    0.6590    0.4490    0.6230 H   0  0  0  0  0  0  0  0  0  0  0  0
   -1.2630   -0.2840    2.8770 H   0  0  0  0  0  0  0  0  0  0  0  0
   -3.0110    0.8330    1.6800 H   0  0  0  0  0  0  0  0  0  0  0  0
   -1.8810    1.9670    2.3750 H   0  0  0  0  0  0  0  0  0  0  0  0
   -0.3320    3.3440    0.6620 H   0  0  0  0  0  0  0  0  0  0  0  0
   -0.6140    4.0060   -1.8510 H   0  0  0  0  0  0  0  0  0  0  0  0
   -2.2500    3.0890   -3.9680 H   0  0  0  0  0  0  0  0  0  0  0  0
   -4.0090    1.4700   -4.5360 H   0  0  0  0  0  0  0  0  0  0  0  0
   -4.8210   -0.0570   -2.7920 H   0  0  0  0  0  0  0  0  0  0  0  0
   -3.8920    0.0510   -0.5080 H   0  0  0  0  0  0  0  0  0  0  0  0
   -1.6330   -1.5550   -2.5870 O   0  0  0  0  0  0  0  0  0  0  0  0
   -1.0090   -2.7050   -2.1330 C   0  0  0  0  0  0  0  0  0  0  0  0
   -1.2410   -2.9380   -0.6350 C   0  0  2  0  0  0  0  0  0  0  0  0
   -0.7060   -1.8070    0.0860 N   0  0  0  0  0  0  0  0  0  0  0  0
   -0.4360   -4.1350   -0.2920 C   0  0  0  0  0  0  0  0  0  0  0  0
    0.5200   -4.0120    0.5070 O   0  0  0  0  0  0  0  0  0  0  0  0
   -0.6830   -5.3980   -0.8110 O   0  0  0  0  0  0  0  0  0  0  0  0
   -0.9520   -0.9490   -2.9490 H   0  0  0  0  0  0  0  0  0  0  0  0
    0.0740   -2.6210   -2.3240 H   0  0  0  0  0  0  0  0  0  0  0  0
   -1.3420   -3.6010   -2.7010 H   0  0  0  0  0  0  0  0  0  0  0  0
   -2.3160   -3.0880   -0.4060 H   0  0  0  0  0  0  0  0  0  0  0  0
    0.2990   -1.5010   -0.0850 H   0  0  0  0  0  0  0  0  0  0  0  0
  1  9  1  0  0  0  0
  2  1  1  0  0  0  0
  3  2  1  0  0  0  0
  4 14  1  0  0  0  0
  4  3  1  0  0  0  0
  4  5  1  0  0  0  0
  5 16  1  6  0  0  0
  5  7  1  0  0  0  0
  5  6  1  0  0  0  0
  6 18  1  0  0  0  0
  7  8  2  0  0  0  0
 10  1  1  0  0  0  0
 11  1  1  0  0  0  0
 12  3  1  0  0  0  0
 13  3  1  0  0  0  0
 15  4  1  0  0  0  0
 17  6  1  0  0  0  0
 19 20  1  0  0  0  0
 19  7  1  0  0  0  0
 20 34  1  1  0  0  0
 21 35  1  0  0  0  0
 21 20  1  0  0  0  0
 21 36  1  0  0  0  0
 22 21  1  0  0  0  0
 23 22  2  0  0  0  0
 23 37  1  0  0  0  0
 24 23  1  0  0  0  0
 25 24  1  0  0  0  0
 25 30  1  0  0  0  0
 26 25  2  0  0  0  0
 27 26  1  0  0  0  0
 27 28  2  0  0  0  0
 28 29  1  0  0  0  0
 29 30  2  0  0  0  0
 29 42  1  0  0  0  0
 30 22  1  0  0  0  0
 31 32  2  0  0  0  0
 31 20  1  0  0  0  0
 33 19  1  0  0  0  0
 38 24  1  0  0  0  0
 39 26  1  0  0  0  0
 40 27  1  0  0  0  0
 41 28  1  0  0  0  0
 43 44  1  0  0  0  0
 44 45  1  0  0  0  0
 45 53  1  1  0  0  0
 45 47  1  0  0  0  0
 45 46  1  0  0  0  0
 46 31  1  0  0  0  0
 47 48  1  0  0  0  0
 49 47  2  0  0  0  0
 50 43  1  0  0  0  0
 51 44  1  0  0  0  0
 52 44  1  0  0  0  0
 54 46  1  0  0  0  0
M  END
$$$$
