MWV.pdb
 OpenBabel07022418573D

 59 60  0  0  1  0  0  0  0  0999 V2000
    1.2700   -1.7740    3.3730 C   0  0  0  0  0  0  0  0  0  0  0  0
    2.3480   -0.4540    3.9440 S   0  0  0  0  0  0  0  0  0  0  0  0
    4.0740   -0.7820    3.6370 C   0  0  0  0  0  0  0  0  0  0  0  0
    4.4260   -0.8090    2.1920 C   0  0  0  0  0  0  0  0  0  0  0  0
    4.1440    0.4690    1.4560 C   0  0  2  0  0  0  0  0  0  0  0  0
    4.9070    1.5040    2.1320 N   0  0  0  0  0  0  0  0  0  0  0  0
    2.7100    0.8130    1.4650 C   0  0  0  0  0  0  0  0  0  0  0  0
    2.2420    1.7430    2.1970 O   0  0  0  0  0  0  0  0  0  0  0  0
    1.6510   -2.0980    2.3750 H   0  0  0  0  0  0  0  0  0  0  0  0
    0.2360   -1.3920    3.3020 H   0  0  0  0  0  0  0  0  0  0  0  0
    1.2430   -2.6460    4.0640 H   0  0  0  0  0  0  0  0  0  0  0  0
    4.7220   -0.1030    4.2340 H   0  0  0  0  0  0  0  0  0  0  0  0
    4.2910   -1.8160    4.0370 H   0  0  0  0  0  0  0  0  0  0  0  0
    5.4770   -1.1440    2.0640 H   0  0  0  0  0  0  0  0  0  0  0  0
    3.8080   -1.6160    1.7120 H   0  0  0  0  0  0  0  0  0  0  0  0
    4.5510    0.4240    0.4130 H   0  0  0  0  0  0  0  0  0  0  0  0
    5.6680    1.1090    2.7290 H   0  0  0  0  0  0  0  0  0  0  0  0
    4.2700    2.1330    2.6740 H   0  0  0  0  0  0  0  0  0  0  0  0
    1.7600    0.1240    0.6480 N   0  0  0  0  0  0  0  0  0  0  0  0
    0.3640    0.5040    0.6960 C   0  0  1  0  0  0  0  0  0  0  0  0
    0.1150    1.5670   -0.3920 C   0  0  0  0  0  0  0  0  0  0  0  0
   -1.2850    2.0060   -0.4660 C   0  0  0  0  0  0  0  0  0  0  0  0
   -1.8480    3.0910    0.2250 C   0  0  0  0  0  0  0  0  0  0  0  0
   -3.1600    3.1730   -0.0490 N   0  0  0  0  0  0  0  0  0  0  0  0
   -3.5210    2.1830   -0.9040 C   0  0  0  0  0  0  0  0  0  0  0  0
   -4.7400    1.8770   -1.4730 C   0  0  0  0  0  0  0  0  0  0  0  0
   -4.8190    0.8090   -2.3400 C   0  0  0  0  0  0  0  0  0  0  0  0
   -3.6690    0.0950   -2.5970 C   0  0  0  0  0  0  0  0  0  0  0  0
   -2.4520    0.3980   -2.0310 C   0  0  0  0  0  0  0  0  0  0  0  0
   -2.3620    1.4670   -1.1580 C   0  0  0  0  0  0  0  0  0  0  0  0
   -0.5890   -0.6010    0.6520 C   0  0  0  0  0  0  0  0  0  0  0  0
   -1.8350   -0.4230    0.9030 O   0  0  0  0  0  0  0  0  0  0  0  0
    2.0720   -0.6420    0.0280 H   0  0  0  0  0  0  0  0  0  0  0  0
    0.1580    1.0940    1.6480 H   0  0  0  0  0  0  0  0  0  0  0  0
    0.7410    2.4550   -0.1180 H   0  0  0  0  0  0  0  0  0  0  0  0
    0.4230    1.1570   -1.3880 H   0  0  0  0  0  0  0  0  0  0  0  0
   -1.2780    3.7330    0.8640 H   0  0  0  0  0  0  0  0  0  0  0  0
   -3.8380    3.8780    0.3200 H   0  0  0  0  0  0  0  0  0  0  0  0
   -5.6500    2.4260   -1.2820 H   0  0  0  0  0  0  0  0  0  0  0  0
   -5.7530    0.5140   -2.8250 H   0  0  0  0  0  0  0  0  0  0  0  0
   -3.7010   -0.7550   -3.2800 H   0  0  0  0  0  0  0  0  0  0  0  0
   -1.5360   -0.1370   -2.2140 H   0  0  0  0  0  0  0  0  0  0  0  0
   -2.6300   -4.4240   -1.2080 C   0  0  0  0  0  0  0  0  0  0  0  0
   -1.5720   -3.3570   -1.1530 C   0  0  0  0  0  0  0  0  0  0  0  0
   -0.2930   -3.8730   -1.7730 C   0  0  0  0  0  0  0  0  0  0  0  0
   -1.2580   -2.9870    0.3090 C   0  0  2  0  0  0  0  0  0  0  0  0
   -0.2480   -1.9600    0.3320 N   0  0  0  0  0  0  0  0  0  0  0  0
   -0.9100   -4.1930    1.0730 C   0  0  0  0  0  0  0  0  0  0  0  0
   -1.7720   -5.1270    1.1230 O   0  0  0  0  0  0  0  0  0  0  0  0
    0.3000   -4.3850    1.7460 O   0  0  0  0  0  0  0  0  0  0  0  0
   -3.3340   -4.2850   -0.3630 H   0  0  0  0  0  0  0  0  0  0  0  0
   -2.2130   -5.4460   -1.1340 H   0  0  0  0  0  0  0  0  0  0  0  0
   -3.2440   -4.3270   -2.1560 H   0  0  0  0  0  0  0  0  0  0  0  0
   -1.8910   -2.4200   -1.6520 H   0  0  0  0  0  0  0  0  0  0  0  0
   -0.4630   -4.8080   -2.3290 H   0  0  0  0  0  0  0  0  0  0  0  0
    0.1090   -3.1270   -2.4880 H   0  0  0  0  0  0  0  0  0  0  0  0
    0.4960   -4.0840   -1.0280 H   0  0  0  0  0  0  0  0  0  0  0  0
   -2.2060   -2.5770    0.7090 H   0  0  0  0  0  0  0  0  0  0  0  0
    0.7430   -2.1890    0.1180 H   0  0  0  0  0  0  0  0  0  0  0  0
  1  2  1  0  0  0  0
  1 11  1  0  0  0  0
  3  2  1  0  0  0  0
  3 13  1  0  0  0  0
  3 12  1  0  0  0  0
  4  3  1  0  0  0  0
  5 16  1  6  0  0  0
  5  7  1  0  0  0  0
  5  6  1  0  0  0  0
  5  4  1  0  0  0  0
  6 18  1  0  0  0  0
  6 17  1  0  0  0  0
  7  8  2  0  0  0  0
  9  1  1  0  0  0  0
 10  1  1  0  0  0  0
 14  4  1  0  0  0  0
 15  4  1  0  0  0  0
 19 20  1  0  0  0  0
 19  7  1  0  0  0  0
 20 34  1  1  0  0  0
 21 35  1  0  0  0  0
 21 20  1  0  0  0  0
 22 21  1  0  0  0  0
 22 23  2  0  0  0  0
 23 37  1  0  0  0  0
 24 23  1  0  0  0  0
 24 38  1  0  0  0  0
 25 24  1  0  0  0  0
 26 39  1  0  0  0  0
 26 25  2  0  0  0  0
 27 26  1  0  0  0  0
 28 27  2  0  0  0  0
 28 29  1  0  0  0  0
 29 30  2  0  0  0  0
 30 25  1  0  0  0  0
 30 22  1  0  0  0  0
 31 20  1  0  0  0  0
 31 32  2  0  0  0  0
 33 19  1  0  0  0  0
 36 21  1  0  0  0  0
 40 27  1  0  0  0  0
 41 28  1  0  0  0  0
 42 29  1  0  0  0  0
 43 44  1  0  0  0  0
 43 52  1  0  0  0  0
 43 51  1  0  0  0  0
 44 46  1  0  0  0  0
 45 44  1  0  0  0  0
 45 57  1  0  0  0  0
 46 47  1  0  0  0  0
 46 58  1  1  0  0  0
 46 48  1  0  0  0  0
 47 31  1  0  0  0  0
 48 49  2  0  0  0  0
 48 50  1  0  0  0  0
 53 43  1  0  0  0  0
 54 44  1  0  0  0  0
 55 45  1  0  0  0  0
 56 45  1  0  0  0  0
 59 47  1  0  0  0  0
M  END
$$$$
