MWY.pdb
 OpenBabel07022418573D

 64 66  0  0  1  0  0  0  0  0999 V2000
    4.1730   -1.7810    4.4010 C   0  0  0  0  0  0  0  0  0  0  0  0
    2.6310   -0.8410    4.3350 S   0  0  0  0  0  0  0  0  0  0  0  0
    2.5160   -0.1010    2.6590 C   0  0  0  0  0  0  0  0  0  0  0  0
    3.5950    0.9230    2.4590 C   0  0  0  0  0  0  0  0  0  0  0  0
    3.4790    1.4810    1.0450 C   0  0  2  0  0  0  0  0  0  0  0  0
    4.5350    2.5070    0.8670 N   0  0  0  0  0  0  0  0  0  0  0  0
    2.1580    2.0630    0.7610 C   0  0  0  0  0  0  0  0  0  0  0  0
    2.0650    3.3250    0.8310 O   0  0  0  0  0  0  0  0  0  0  0  0
    3.9070   -2.8610    4.4420 H   0  0  0  0  0  0  0  0  0  0  0  0
    4.7890   -1.6080    3.4970 H   0  0  0  0  0  0  0  0  0  0  0  0
    4.7300   -1.5420    5.3480 H   0  0  0  0  0  0  0  0  0  0  0  0
    1.5290    0.4480    2.6820 H   0  0  0  0  0  0  0  0  0  0  0  0
    2.5540   -0.8880    1.9120 H   0  0  0  0  0  0  0  0  0  0  0  0
    3.4890    1.7710    3.1720 H   0  0  0  0  0  0  0  0  0  0  0  0
    4.6050    0.5100    2.6430 H   0  0  0  0  0  0  0  0  0  0  0  0
    3.6660    0.6890    0.2880 H   0  0  0  0  0  0  0  0  0  0  0  0
    5.4160    2.0380    0.4980 H   0  0  0  0  0  0  0  0  0  0  0  0
    4.1990    3.1810    0.1420 H   0  0  0  0  0  0  0  0  0  0  0  0
    0.9910    1.3190    0.4100 N   0  0  0  0  0  0  0  0  0  0  0  0
   -0.2580    1.9990    0.1400 C   0  0  1  0  0  0  0  0  0  0  0  0
   -0.3650    2.1490   -1.3710 C   0  0  0  0  0  0  0  0  0  0  0  0
   -0.3530    0.8680   -2.0900 C   0  0  0  0  0  0  0  0  0  0  0  0
    0.8090    0.2250   -2.5740 C   0  0  0  0  0  0  0  0  0  0  0  0
    0.4760   -0.9400   -3.1350 N   0  0  0  0  0  0  0  0  0  0  0  0
   -0.8760   -1.1040   -3.0460 C   0  0  0  0  0  0  0  0  0  0  0  0
   -1.7220   -2.0990   -3.4740 C   0  0  0  0  0  0  0  0  0  0  0  0
   -3.0800   -1.9800   -3.2600 C   0  0  0  0  0  0  0  0  0  0  0  0
   -3.5900   -0.8700   -2.6210 C   0  0  0  0  0  0  0  0  0  0  0  0
   -2.7540    0.1480   -2.1790 C   0  0  0  0  0  0  0  0  0  0  0  0
   -1.3810    0.0200   -2.3980 C   0  0  0  0  0  0  0  0  0  0  0  0
   -1.3870    1.3530    0.7920 C   0  0  0  0  0  0  0  0  0  0  0  0
   -2.5410    1.9280    0.6810 O   0  0  0  0  0  0  0  0  0  0  0  0
    1.0590    0.2960    0.3460 H   0  0  0  0  0  0  0  0  0  0  0  0
   -0.1500    3.0580    0.5540 H   0  0  0  0  0  0  0  0  0  0  0  0
   -1.3030    2.6840   -1.6310 H   0  0  0  0  0  0  0  0  0  0  0  0
    0.4610    2.8020   -1.7220 H   0  0  0  0  0  0  0  0  0  0  0  0
    1.7770    0.6530   -2.4770 H   0  0  0  0  0  0  0  0  0  0  0  0
    1.0920   -1.6480   -3.5810 H   0  0  0  0  0  0  0  0  0  0  0  0
   -1.2840   -2.9540   -3.9710 H   0  0  0  0  0  0  0  0  0  0  0  0
   -3.7660   -2.7400   -3.5830 H   0  0  0  0  0  0  0  0  0  0  0  0
   -4.6510   -0.7740   -2.4530 H   0  0  0  0  0  0  0  0  0  0  0  0
   -3.1610    1.0190   -1.6960 H   0  0  0  0  0  0  0  0  0  0  0  0
   -1.8630   -5.2340   -2.1190 O   0  0  0  0  0  0  0  0  0  0  0  0
   -2.0580   -4.4040   -1.0200 C   0  0  0  0  0  0  0  0  0  0  0  0
   -3.3110   -4.0310   -0.5870 C   0  0  0  0  0  0  0  0  0  0  0  0
   -3.4270   -3.1910    0.5290 C   0  0  0  0  0  0  0  0  0  0  0  0
   -2.3060   -2.7390    1.1910 C   0  0  0  0  0  0  0  0  0  0  0  0
   -2.4420   -1.8810    2.3530 C   0  0  0  0  0  0  0  0  0  0  0  0
   -2.4430   -0.4120    2.1390 C   0  0  2  0  0  0  0  0  0  0  0  0
   -1.2800    0.1470    1.5290 N   0  0  0  0  0  0  0  0  0  0  0  0
   -2.4820    0.1770    3.5410 C   0  0  0  0  0  0  0  0  0  0  0  0
   -3.4240   -0.1740    4.2660 O   0  0  0  0  0  0  0  0  0  0  0  0
   -1.0620   -3.1210    0.7460 C   0  0  0  0  0  0  0  0  0  0  0  0
   -0.9420   -3.9470   -0.3520 C   0  0  0  0  0  0  0  0  0  0  0  0
   -1.5350    1.0500    3.9990 O   0  0  0  0  0  0  0  0  0  0  0  0
   -0.9700   -5.2400   -2.6080 H   0  0  0  0  0  0  0  0  0  0  0  0
   -4.1710   -4.4020   -1.1270 H   0  0  0  0  0  0  0  0  0  0  0  0
   -4.4430   -2.9420    0.8080 H   0  0  0  0  0  0  0  0  0  0  0  0
   -1.6330   -2.1800    3.0880 H   0  0  0  0  0  0  0  0  0  0  0  0
   -3.3850   -2.1030    2.9470 H   0  0  0  0  0  0  0  0  0  0  0  0
   -3.4110   -0.0490    1.6960 H   0  0  0  0  0  0  0  0  0  0  0  0
   -0.3720   -0.3230    1.6140 H   0  0  0  0  0  0  0  0  0  0  0  0
   -0.1400   -2.7860    1.2400 H   0  0  0  0  0  0  0  0  0  0  0  0
    0.0360   -4.2440   -0.6990 H   0  0  0  0  0  0  0  0  0  0  0  0
  1  9  1  0  0  0  0
  1 11  1  0  0  0  0
  2  1  1  0  0  0  0
  3 12  1  0  0  0  0
  3  2  1  0  0  0  0
  4 15  1  0  0  0  0
  4  3  1  0  0  0  0
  4 14  1  0  0  0  0
  5 16  1  6  0  0  0
  5  4  1  0  0  0  0
  6  5  1  0  0  0  0
  7  8  2  0  0  0  0
  7  5  1  0  0  0  0
 10  1  1  0  0  0  0
 13  3  1  0  0  0  0
 17  6  1  0  0  0  0
 18  6  1  0  0  0  0
 19  7  1  0  0  0  0
 20 19  1  0  0  0  0
 20 34  1  1  0  0  0
 20 31  1  0  0  0  0
 21 20  1  0  0  0  0
 22 21  1  0  0  0  0
 23 37  1  0  0  0  0
 23 22  2  0  0  0  0
 24 25  1  0  0  0  0
 24 23  1  0  0  0  0
 25 30  1  0  0  0  0
 26 27  1  0  0  0  0
 26 25  2  0  0  0  0
 27 28  2  0  0  0  0
 28 41  1  0  0  0  0
 28 29  1  0  0  0  0
 29 42  1  0  0  0  0
 30 29  2  0  0  0  0
 30 22  1  0  0  0  0
 31 50  1  0  0  0  0
 32 31  2  0  0  0  0
 33 19  1  0  0  0  0
 35 21  1  0  0  0  0
 36 21  1  0  0  0  0
 38 24  1  0  0  0  0
 39 26  1  0  0  0  0
 40 27  1  0  0  0  0
 43 44  1  0  0  0  0
 44 45  2  0  0  0  0
 44 54  1  0  0  0  0
 45 46  1  0  0  0  0
 46 58  1  0  0  0  0
 46 47  2  0  0  0  0
 47 48  1  0  0  0  0
 48 60  1  0  0  0  0
 48 59  1  0  0  0  0
 49 61  1  6  0  0  0
 49 48  1  0  0  0  0
 49 51  1  0  0  0  0
 50 62  1  0  0  0  0
 50 49  1  0  0  0  0
 51 55  2  0  0  0  0
 51 52  1  0  0  0  0
 53 47  1  0  0  0  0
 53 63  1  0  0  0  0
 54 53  2  0  0  0  0
 56 43  1  0  0  0  0
 57 45  1  0  0  0  0
 64 54  1  0  0  0  0
M  END
$$$$
