MYC.pdb
 OpenBabel07022418573D

 51 51  0  0  1  0  0  0  0  0999 V2000
    3.0070   -3.5420    3.8330 C   0  0  0  0  0  0  0  0  0  0  0  0
    2.9850   -4.0630    2.1230 S   0  0  0  0  0  0  0  0  0  0  0  0
    2.0870   -3.0450    0.9910 C   0  0  0  0  0  0  0  0  0  0  0  0
    2.6350   -1.7510    0.5610 C   0  0  0  0  0  0  0  0  0  0  0  0
    2.8970   -0.7170    1.5780 C   0  0  2  0  0  0  0  0  0  0  0  0
    3.8570   -1.1420    2.5380 N   0  0  0  0  0  0  0  0  0  0  0  0
    1.6320   -0.2430    2.2470 C   0  0  0  0  0  0  0  0  0  0  0  0
    1.5200   -0.2060    3.4930 O   0  0  0  0  0  0  0  0  0  0  0  0
    4.0250   -3.2590    4.1940 H   0  0  0  0  0  0  0  0  0  0  0  0
    2.6410   -4.4080    4.4920 H   0  0  0  0  0  0  0  0  0  0  0  0
    2.3080   -2.7380    4.0790 H   0  0  0  0  0  0  0  0  0  0  0  0
    1.0330   -2.9440    1.4040 H   0  0  0  0  0  0  0  0  0  0  0  0
    1.8740   -3.6450    0.0360 H   0  0  0  0  0  0  0  0  0  0  0  0
    1.9830   -1.2740   -0.2260 H   0  0  0  0  0  0  0  0  0  0  0  0
    3.6280   -1.9280    0.0170 H   0  0  0  0  0  0  0  0  0  0  0  0
    3.3420    0.2110    1.0980 H   0  0  0  0  0  0  0  0  0  0  0  0
    4.5880   -1.7690    2.1740 H   0  0  0  0  0  0  0  0  0  0  0  0
    4.2120   -0.3910    3.1580 H   0  0  0  0  0  0  0  0  0  0  0  0
   -0.9600    2.7860   -4.0130 O   0  0  0  0  0  0  0  0  0  0  0  0
   -0.9380    2.6130   -2.6300 C   0  0  0  0  0  0  0  0  0  0  0  0
    0.2580    2.6620   -1.9560 C   0  0  0  0  0  0  0  0  0  0  0  0
    0.2600    2.4860   -0.5740 C   0  0  0  0  0  0  0  0  0  0  0  0
   -0.9040    2.2670    0.1240 C   0  0  0  0  0  0  0  0  0  0  0  0
   -0.8800    2.0830    1.5810 C   0  0  0  0  0  0  0  0  0  0  0  0
   -0.7200    0.6450    1.9910 C   0  0  2  0  0  0  0  0  0  0  0  0
    0.5400    0.1720    1.4370 N   0  0  0  0  0  0  0  0  0  0  0  0
   -1.8370   -0.2110    1.5100 C   0  0  0  0  0  0  0  0  0  0  0  0
   -3.0160    0.0370    1.8700 O   0  0  0  0  0  0  0  0  0  0  0  0
   -2.1050    2.2160   -0.5400 C   0  0  0  0  0  0  0  0  0  0  0  0
   -2.0920    2.3900   -1.8980 C   0  0  0  0  0  0  0  0  0  0  0  0
   -1.6940    3.4040   -4.3650 H   0  0  0  0  0  0  0  0  0  0  0  0
    1.1690    2.8350   -2.5100 H   0  0  0  0  0  0  0  0  0  0  0  0
    1.2280    2.5320   -0.0810 H   0  0  0  0  0  0  0  0  0  0  0  0
   -0.0180    2.6350    2.0280 H   0  0  0  0  0  0  0  0  0  0  0  0
   -1.7940    2.5410    2.0310 H   0  0  0  0  0  0  0  0  0  0  0  0
   -0.6390    0.6160    3.0990 H   0  0  0  0  0  0  0  0  0  0  0  0
    0.6450    0.1360    0.3790 H   0  0  0  0  0  0  0  0  0  0  0  0
   -3.0570    2.0430   -0.0210 H   0  0  0  0  0  0  0  0  0  0  0  0
   -3.0490    2.3520   -2.4400 H   0  0  0  0  0  0  0  0  0  0  0  0
   -1.6330   -1.3210    0.6450 N   0  0  0  0  0  0  0  0  0  0  0  0
   -2.7510   -2.1290    0.2010 C   0  0  1  0  0  0  0  0  0  0  0  0
   -2.8010   -2.0800   -1.3150 C   0  0  0  0  0  0  0  0  0  0  0  0
   -1.2080   -2.7560   -1.9090 S   0  0  0  0  0  0  0  0  0  0  0  0
   -2.5820   -3.5530    0.5820 C   0  0  0  0  0  0  0  0  0  0  0  0
   -1.5500   -3.8760    1.2120 O   0  0  0  0  0  0  0  0  0  0  0  0
   -3.4950   -4.5480    0.2850 O   0  0  0  0  0  0  0  0  0  0  0  0
   -0.6510   -1.5150    0.3550 H   0  0  0  0  0  0  0  0  0  0  0  0
   -3.6950   -1.7030    0.6350 H   0  0  0  0  0  0  0  0  0  0  0  0
   -3.6500   -2.6320   -1.7210 H   0  0  0  0  0  0  0  0  0  0  0  0
   -2.7990   -0.9920   -1.5990 H   0  0  0  0  0  0  0  0  0  0  0  0
   -0.7980   -3.8400   -1.0940 H   0  0  0  0  0  0  0  0  0  0  0  0
  1 11  1  0  0  0  0
  1  9  1  0  0  0  0
  1 10  1  0  0  0  0
  2  1  1  0  0  0  0
  3 12  1  0  0  0  0
  3  2  1  0  0  0  0
  4  3  1  0  0  0  0
  4  5  1  0  0  0  0
  5 16  1  6  0  0  0
  5  7  1  0  0  0  0
  5  6  1  0  0  0  0
  6 18  1  0  0  0  0
  7  8  2  0  0  0  0
 13  3  1  0  0  0  0
 14  4  1  0  0  0  0
 15  4  1  0  0  0  0
 17  6  1  0  0  0  0
 19 20  1  0  0  0  0
 20 21  2  0  0  0  0
 20 30  1  0  0  0  0
 21 22  1  0  0  0  0
 22 33  1  0  0  0  0
 22 23  2  0  0  0  0
 23 24  1  0  0  0  0
 24 25  1  0  0  0  0
 24 34  1  0  0  0  0
 24 35  1  0  0  0  0
 25 36  1  1  0  0  0
 26 25  1  0  0  0  0
 26  7  1  0  0  0  0
 27 28  2  0  0  0  0
 27 25  1  0  0  0  0
 29 38  1  0  0  0  0
 29 23  1  0  0  0  0
 30 29  2  0  0  0  0
 31 19  1  0  0  0  0
 32 21  1  0  0  0  0
 37 26  1  0  0  0  0
 39 30  1  0  0  0  0
 40 27  1  0  0  0  0
 41 44  1  0  0  0  0
 41 48  1  1  0  0  0
 41 40  1  0  0  0  0
 42 41  1  0  0  0  0
 43 42  1  0  0  0  0
 43 51  1  0  0  0  0
 44 45  1  0  0  0  0
 46 44  2  0  0  0  0
 47 40  1  0  0  0  0
 49 42  1  0  0  0  0
 50 42  1  0  0  0  0
M  END
$$$$
