MYF.pdb
 OpenBabel07022418573D

 60 61  0  0  1  0  0  0  0  0999 V2000
    0.4410   -1.0950    4.3310 C   0  0  0  0  0  0  0  0  0  0  0  0
    1.7320    0.1000    4.7070 S   0  0  0  0  0  0  0  0  0  0  0  0
    3.3520   -0.3730    4.1550 C   0  0  0  0  0  0  0  0  0  0  0  0
    3.5810   -0.4310    2.6890 C   0  0  0  0  0  0  0  0  0  0  0  0
    3.3400    0.8780    1.9800 C   0  0  2  0  0  0  0  0  0  0  0  0
    4.1490    1.9350    2.4810 N   0  0  0  0  0  0  0  0  0  0  0  0
    1.8870    1.1350    1.9390 C   0  0  0  0  0  0  0  0  0  0  0  0
    1.3450    2.0320    2.6590 O   0  0  0  0  0  0  0  0  0  0  0  0
    0.0290   -1.4560    5.3070 H   0  0  0  0  0  0  0  0  0  0  0  0
   -0.4110   -0.5140    3.8770 H   0  0  0  0  0  0  0  0  0  0  0  0
    0.7810   -1.9250    3.7140 H   0  0  0  0  0  0  0  0  0  0  0  0
    4.1540    0.2090    4.6980 H   0  0  0  0  0  0  0  0  0  0  0  0
    3.5320   -1.4250    4.5350 H   0  0  0  0  0  0  0  0  0  0  0  0
    2.9770   -1.2540    2.2640 H   0  0  0  0  0  0  0  0  0  0  0  0
    4.6460   -0.7210    2.5350 H   0  0  0  0  0  0  0  0  0  0  0  0
    3.6830    0.7170    0.9100 H   0  0  0  0  0  0  0  0  0  0  0  0
    4.3860    1.8780    3.4870 H   0  0  0  0  0  0  0  0  0  0  0  0
    5.0430    2.0810    1.9600 H   0  0  0  0  0  0  0  0  0  0  0  0
    0.7510    0.8590   -5.3780 O   0  0  0  0  0  0  0  0  0  0  0  0
    0.3380    1.0370   -4.0460 C   0  0  0  0  0  0  0  0  0  0  0  0
    1.2100    1.5840   -3.1260 C   0  0  0  0  0  0  0  0  0  0  0  0
    0.8110    1.7590   -1.8200 C   0  0  0  0  0  0  0  0  0  0  0  0
   -0.4660    1.3980   -1.3820 C   0  0  0  0  0  0  0  0  0  0  0  0
   -0.8120    1.6440   -0.0020 C   0  0  0  0  0  0  0  0  0  0  0  0
   -0.4400    0.6460    1.0290 C   0  0  2  0  0  0  0  0  0  0  0  0
    0.9920    0.4140    1.0990 N   0  0  0  0  0  0  0  0  0  0  0  0
   -1.1910   -0.6090    1.0880 C   0  0  0  0  0  0  0  0  0  0  0  0
   -0.5200   -1.6790    1.3070 O   0  0  0  0  0  0  0  0  0  0  0  0
   -1.3330    0.8540   -2.3000 C   0  0  0  0  0  0  0  0  0  0  0  0
   -0.9160    0.6840   -3.6070 C   0  0  0  0  0  0  0  0  0  0  0  0
    0.2680    1.4310   -6.0670 H   0  0  0  0  0  0  0  0  0  0  0  0
    2.2180    1.8810   -3.4230 H   0  0  0  0  0  0  0  0  0  0  0  0
    1.5390    2.1950   -1.1420 H   0  0  0  0  0  0  0  0  0  0  0  0
   -0.3140    2.6170    0.3000 H   0  0  0  0  0  0  0  0  0  0  0  0
   -1.9040    1.8450    0.0460 H   0  0  0  0  0  0  0  0  0  0  0  0
   -0.7460    1.1940    2.0140 H   0  0  0  0  0  0  0  0  0  0  0  0
    1.3960   -0.3300    0.4950 H   0  0  0  0  0  0  0  0  0  0  0  0
   -2.3560    0.5560   -2.0140 H   0  0  0  0  0  0  0  0  0  0  0  0
   -1.6020    0.2520   -4.3370 H   0  0  0  0  0  0  0  0  0  0  0  0
   -2.5980   -0.7250    0.9260 N   0  0  0  0  0  0  0  0  0  0  0  0
   -3.3910   -1.9010    1.0130 C   0  0  1  0  0  0  0  0  0  0  0  0
   -3.5890   -2.7500   -0.1700 C   0  0  0  0  0  0  0  0  0  0  0  0
   -2.4130   -3.3490   -0.8020 C   0  0  0  0  0  0  0  0  0  0  0  0
   -1.8220   -2.7140   -1.8570 C   0  0  0  0  0  0  0  0  0  0  0  0
   -0.7150   -3.2370   -2.4650 C   0  0  0  0  0  0  0  0  0  0  0  0
   -0.1490   -4.4270   -2.0390 C   0  0  0  0  0  0  0  0  0  0  0  0
   -0.7690   -5.0410   -0.9740 C   0  0  0  0  0  0  0  0  0  0  0  0
   -1.8850   -4.5310   -0.3470 C   0  0  0  0  0  0  0  0  0  0  0  0
   -3.0810   -2.7260    2.2500 C   0  0  0  0  0  0  0  0  0  0  0  0
   -2.2270   -2.4000    3.0940 O   0  0  0  0  0  0  0  0  0  0  0  0
   -3.7680   -3.9100    2.4840 O   0  0  0  0  0  0  0  0  0  0  0  0
   -3.0680    0.2140    0.7130 H   0  0  0  0  0  0  0  0  0  0  0  0
   -4.4470   -1.5270    1.2980 H   0  0  0  0  0  0  0  0  0  0  0  0
   -4.2560   -3.6220    0.1100 H   0  0  0  0  0  0  0  0  0  0  0  0
   -4.1830   -2.2000   -0.9380 H   0  0  0  0  0  0  0  0  0  0  0  0
   -2.2520   -1.8010   -2.2120 H   0  0  0  0  0  0  0  0  0  0  0  0
   -0.2250   -2.7410   -3.3150 H   0  0  0  0  0  0  0  0  0  0  0  0
    0.7310   -4.8400   -2.5240 H   0  0  0  0  0  0  0  0  0  0  0  0
   -0.3340   -5.9770   -0.6300 H   0  0  0  0  0  0  0  0  0  0  0  0
   -2.3360   -5.0750    0.5000 H   0  0  0  0  0  0  0  0  0  0  0  0
  1  2  1  0  0  0  0
  1  9  1  0  0  0  0
  3 13  1  0  0  0  0
  3 12  1  0  0  0  0
  3  2  1  0  0  0  0
  4  3  1  0  0  0  0
  5 16  1  6  0  0  0
  5  6  1  0  0  0  0
  5  4  1  0  0  0  0
  6 17  1  0  0  0  0
  7  5  1  0  0  0  0
  7  8  2  0  0  0  0
 10  1  1  0  0  0  0
 11  1  1  0  0  0  0
 14  4  1  0  0  0  0
 15  4  1  0  0  0  0
 18  6  1  0  0  0  0
 19 20  1  0  0  0  0
 20 30  2  0  0  0  0
 20 21  1  0  0  0  0
 21 22  2  0  0  0  0
 22 23  1  0  0  0  0
 22 33  1  0  0  0  0
 23 24  1  0  0  0  0
 24 35  1  0  0  0  0
 24 34  1  0  0  0  0
 24 25  1  0  0  0  0
 25 27  1  0  0  0  0
 25 26  1  0  0  0  0
 25 36  1  1  0  0  0
 26  7  1  0  0  0  0
 27 28  2  0  0  0  0
 29 38  1  0  0  0  0
 29 23  2  0  0  0  0
 30 29  1  0  0  0  0
 31 19  1  0  0  0  0
 32 21  1  0  0  0  0
 37 26  1  0  0  0  0
 39 30  1  0  0  0  0
 40 41  1  0  0  0  0
 40 27  1  0  0  0  0
 41 53  1  1  0  0  0
 41 49  1  0  0  0  0
 42 54  1  0  0  0  0
 42 41  1  0  0  0  0
 43 48  1  0  0  0  0
 43 42  1  0  0  0  0
 44 43  2  0  0  0  0
 45 46  2  0  0  0  0
 45 44  1  0  0  0  0
 46 47  1  0  0  0  0
 47 59  1  0  0  0  0
 47 48  2  0  0  0  0
 48 60  1  0  0  0  0
 49 51  2  0  0  0  0
 49 50  1  0  0  0  0
 52 40  1  0  0  0  0
 55 42  1  0  0  0  0
 56 44  1  0  0  0  0
 57 45  1  0  0  0  0
 58 46  1  0  0  0  0
M  END
$$$$
