MYI.pdb
 OpenBabel07022418573D

 59 59  0  0  1  0  0  0  0  0999 V2000
    5.0510   -1.7070    3.6700 C   0  0  0  0  0  0  0  0  0  0  0  0
    4.5980   -0.0140    3.2770 S   0  0  0  0  0  0  0  0  0  0  0  0
    3.8320    0.0300    1.6390 C   0  0  0  0  0  0  0  0  0  0  0  0
    3.4130    1.3990    1.2080 C   0  0  0  0  0  0  0  0  0  0  0  0
    2.3970    2.0490    2.1130 C   0  0  2  0  0  0  0  0  0  0  0  0
    2.9290    2.1860    3.4340 N   0  0  0  0  0  0  0  0  0  0  0  0
    1.1670    1.2050    2.1340 C   0  0  0  0  0  0  0  0  0  0  0  0
    0.7490    0.7320    3.2220 O   0  0  0  0  0  0  0  0  0  0  0  0
    4.8270   -1.8860    4.7520 H   0  0  0  0  0  0  0  0  0  0  0  0
    4.4260   -2.4650    3.1250 H   0  0  0  0  0  0  0  0  0  0  0  0
    6.1290   -1.9070    3.4990 H   0  0  0  0  0  0  0  0  0  0  0  0
    4.5680   -0.3390    0.8780 H   0  0  0  0  0  0  0  0  0  0  0  0
    2.9640   -0.6840    1.6780 H   0  0  0  0  0  0  0  0  0  0  0  0
    3.0160    1.4100    0.1700 H   0  0  0  0  0  0  0  0  0  0  0  0
    4.3520    2.0170    1.1440 H   0  0  0  0  0  0  0  0  0  0  0  0
    2.1110    3.0600    1.7560 H   0  0  0  0  0  0  0  0  0  0  0  0
    2.6990    1.4480    4.1050 H   0  0  0  0  0  0  0  0  0  0  0  0
    3.9220    2.4220    3.4660 H   0  0  0  0  0  0  0  0  0  0  0  0
   -1.4440    3.7350   -4.2810 O   0  0  0  0  0  0  0  0  0  0  0  0
   -1.5530    3.0780   -3.0640 C   0  0  0  0  0  0  0  0  0  0  0  0
   -1.0400    3.5740   -1.8900 C   0  0  0  0  0  0  0  0  0  0  0  0
   -1.1490    2.9220   -0.6880 C   0  0  0  0  0  0  0  0  0  0  0  0
   -1.8040    1.6990   -0.6210 C   0  0  0  0  0  0  0  0  0  0  0  0
   -1.9000    1.0380    0.6790 C   0  0  0  0  0  0  0  0  0  0  0  0
   -0.7280    0.1080    0.9780 C   0  0  2  0  0  0  0  0  0  0  0  0
    0.4630    0.9300    0.9390 N   0  0  0  0  0  0  0  0  0  0  0  0
   -0.6450   -1.0450    0.0840 C   0  0  0  0  0  0  0  0  0  0  0  0
    0.3910   -1.1790   -0.6500 O   0  0  0  0  0  0  0  0  0  0  0  0
   -2.3200    1.1960   -1.7920 C   0  0  0  0  0  0  0  0  0  0  0  0
   -2.2100    1.8560   -3.0090 C   0  0  0  0  0  0  0  0  0  0  0  0
   -2.2910    3.8900   -4.8360 H   0  0  0  0  0  0  0  0  0  0  0  0
   -0.5230    4.5270   -1.9080 H   0  0  0  0  0  0  0  0  0  0  0  0
   -0.7210    3.3740    0.1950 H   0  0  0  0  0  0  0  0  0  0  0  0
   -2.8520    0.4300    0.6700 H   0  0  0  0  0  0  0  0  0  0  0  0
   -2.0270    1.7410    1.5270 H   0  0  0  0  0  0  0  0  0  0  0  0
   -0.8950   -0.1930    2.0520 H   0  0  0  0  0  0  0  0  0  0  0  0
    0.7620    1.2950    0.0060 H   0  0  0  0  0  0  0  0  0  0  0  0
   -2.8280    0.2460   -1.7320 H   0  0  0  0  0  0  0  0  0  0  0  0
   -2.6170    1.4550   -3.9220 H   0  0  0  0  0  0  0  0  0  0  0  0
   -2.4060   -6.1080    1.3290 C   0  0  0  0  0  0  0  0  0  0  0  0
   -2.4970   -4.7720    0.6610 C   0  0  0  0  0  0  0  0  0  0  0  0
   -1.2950   -4.4770   -0.2080 C   0  0  2  0  0  0  0  0  0  0  0  0
   -0.0140   -4.4730    0.5710 C   0  0  0  0  0  0  0  0  0  0  0  0
   -1.4610   -3.1670   -0.9560 C   0  0  2  0  0  0  0  0  0  0  0  0
   -1.6210   -2.0540   -0.0500 N   0  0  0  0  0  0  0  0  0  0  0  0
   -2.6320   -3.2400   -1.8420 C   0  0  0  0  0  0  0  0  0  0  0  0
   -2.7000   -4.1200   -2.7290 O   0  0  0  0  0  0  0  0  0  0  0  0
   -3.6670   -2.3450   -1.7060 O   0  0  0  0  0  0  0  0  0  0  0  0
   -2.9270   -6.9110    0.7570 H   0  0  0  0  0  0  0  0  0  0  0  0
   -1.3440   -6.3980    1.5650 H   0  0  0  0  0  0  0  0  0  0  0  0
   -2.9320   -6.0490    2.3030 H   0  0  0  0  0  0  0  0  0  0  0  0
   -2.6420   -3.9950    1.4440 H   0  0  0  0  0  0  0  0  0  0  0  0
   -3.4240   -4.7650    0.0540 H   0  0  0  0  0  0  0  0  0  0  0  0
   -1.2340   -5.2790   -0.9700 H   0  0  0  0  0  0  0  0  0  0  0  0
   -0.1470   -4.1280    1.6170 H   0  0  0  0  0  0  0  0  0  0  0  0
    0.4740   -5.4680    0.6210 H   0  0  0  0  0  0  0  0  0  0  0  0
    0.7550   -3.7880    0.1310 H   0  0  0  0  0  0  0  0  0  0  0  0
   -0.5440   -3.0640   -1.5800 H   0  0  0  0  0  0  0  0  0  0  0  0
   -2.4870   -1.9910    0.5270 H   0  0  0  0  0  0  0  0  0  0  0  0
  1  9  1  0  0  0  0
  2  1  1  0  0  0  0
  3 13  1  0  0  0  0
  3  2  1  0  0  0  0
  4  3  1  0  0  0  0
  4  5  1  0  0  0  0
  5 16  1  6  0  0  0
  5  7  1  0  0  0  0
  5  6  1  0  0  0  0
  6 18  1  0  0  0  0
  6 17  1  0  0  0  0
  7  8  2  0  0  0  0
 10  1  1  0  0  0  0
 11  1  1  0  0  0  0
 12  3  1  0  0  0  0
 14  4  1  0  0  0  0
 15  4  1  0  0  0  0
 19 20  1  0  0  0  0
 20 30  2  0  0  0  0
 20 21  1  0  0  0  0
 21 22  2  0  0  0  0
 22 23  1  0  0  0  0
 22 33  1  0  0  0  0
 23 24  1  0  0  0  0
 24 25  1  0  0  0  0
 24 35  1  0  0  0  0
 25 36  1  1  0  0  0
 26 25  1  0  0  0  0
 26  7  1  0  0  0  0
 27 25  1  0  0  0  0
 28 27  2  0  0  0  0
 29 38  1  0  0  0  0
 29 23  2  0  0  0  0
 30 29  1  0  0  0  0
 31 19  1  0  0  0  0
 32 21  1  0  0  0  0
 34 24  1  0  0  0  0
 37 26  1  0  0  0  0
 39 30  1  0  0  0  0
 40 50  1  0  0  0  0
 40 51  1  0  0  0  0
 41 40  1  0  0  0  0
 41 52  1  0  0  0  0
 42 54  1  6  0  0  0
 42 43  1  0  0  0  0
 42 41  1  0  0  0  0
 43 56  1  0  0  0  0
 43 55  1  0  0  0  0
 44 58  1  6  0  0  0
 44 42  1  0  0  0  0
 44 45  1  0  0  0  0
 45 27  1  0  0  0  0
 45 59  1  0  0  0  0
 46 48  1  0  0  0  0
 46 44  1  0  0  0  0
 47 46  2  0  0  0  0
 49 40  1  0  0  0  0
 53 41  1  0  0  0  0
 57 43  1  0  0  0  0
M  END
$$$$
