MYK.pdb
 OpenBabel07022418573D

 61 61  0  0  1  0  0  0  0  0999 V2000
    2.3490   -3.9660    2.2380 C   0  0  0  0  0  0  0  0  0  0  0  0
    2.5160   -3.5220    3.9630 S   0  0  0  0  0  0  0  0  0  0  0  0
    1.5850   -2.0320    4.4060 C   0  0  0  0  0  0  0  0  0  0  0  0
    2.2070   -0.8660    3.6690 C   0  0  0  0  0  0  0  0  0  0  0  0
    1.5080    0.4370    3.9920 C   0  0  2  0  0  0  0  0  0  0  0  0
    1.5790    0.7230    5.4170 N   0  0  0  0  0  0  0  0  0  0  0  0
    0.1110    0.4700    3.5010 C   0  0  0  0  0  0  0  0  0  0  0  0
   -0.8360    0.5320    4.3300 O   0  0  0  0  0  0  0  0  0  0  0  0
    3.2840   -4.4240    1.8550 H   0  0  0  0  0  0  0  0  0  0  0  0
    2.2050   -3.0200    1.6420 H   0  0  0  0  0  0  0  0  0  0  0  0
    1.4540   -4.5880    2.0240 H   0  0  0  0  0  0  0  0  0  0  0  0
    0.5180   -2.1740    4.1530 H   0  0  0  0  0  0  0  0  0  0  0  0
    1.6700   -1.8730    5.4890 H   0  0  0  0  0  0  0  0  0  0  0  0
    2.0610   -1.0470    2.5820 H   0  0  0  0  0  0  0  0  0  0  0  0
    3.2690   -0.8160    3.9400 H   0  0  0  0  0  0  0  0  0  0  0  0
    2.0620    1.2420    3.4710 H   0  0  0  0  0  0  0  0  0  0  0  0
    0.7220    0.4470    5.9320 H   0  0  0  0  0  0  0  0  0  0  0  0
    1.6890    1.7690    5.5790 H   0  0  0  0  0  0  0  0  0  0  0  0
    0.5090    4.0680   -3.3540 O   0  0  0  0  0  0  0  0  0  0  0  0
   -0.1430    3.4890   -2.2670 C   0  0  0  0  0  0  0  0  0  0  0  0
    0.2310    3.7480   -0.9650 C   0  0  0  0  0  0  0  0  0  0  0  0
   -0.3850    3.1980    0.1380 C   0  0  0  0  0  0  0  0  0  0  0  0
   -1.4420    2.3340   -0.0330 C   0  0  0  0  0  0  0  0  0  0  0  0
   -2.1410    1.7310    1.1230 C   0  0  0  0  0  0  0  0  0  0  0  0
   -1.6190    0.4770    1.6640 C   0  0  2  0  0  0  0  0  0  0  0  0
   -0.2840    0.4420    2.1600 N   0  0  0  0  0  0  0  0  0  0  0  0
   -1.8610   -0.7410    0.8730 C   0  0  0  0  0  0  0  0  0  0  0  0
   -2.9840   -0.9110    0.3000 O   0  0  0  0  0  0  0  0  0  0  0  0
   -1.8200    2.0730   -1.3300 C   0  0  0  0  0  0  0  0  0  0  0  0
   -1.2030    2.6230   -2.4340 C   0  0  0  0  0  0  0  0  0  0  0  0
    1.5250    4.0270   -3.3260 H   0  0  0  0  0  0  0  0  0  0  0  0
    1.0670    4.4310   -0.8080 H   0  0  0  0  0  0  0  0  0  0  0  0
   -0.0220    3.4580    1.1510 H   0  0  0  0  0  0  0  0  0  0  0  0
   -2.3290    2.4640    1.9330 H   0  0  0  0  0  0  0  0  0  0  0  0
   -3.1870    1.5050    0.7430 H   0  0  0  0  0  0  0  0  0  0  0  0
   -2.2320    0.3250    2.6270 H   0  0  0  0  0  0  0  0  0  0  0  0
    0.4640    0.3910    1.4210 H   0  0  0  0  0  0  0  0  0  0  0  0
   -2.6630    1.3870   -1.5460 H   0  0  0  0  0  0  0  0  0  0  0  0
   -1.5200    2.4000   -3.4500 H   0  0  0  0  0  0  0  0  0  0  0  0
   -0.9260   -1.7910    0.6830 N   0  0  0  0  0  0  0  0  0  0  0  0
   -1.1940   -3.0000   -0.1000 C   0  0  1  0  0  0  0  0  0  0  0  0
   -0.0580   -3.5080   -0.8800 C   0  0  0  0  0  0  0  0  0  0  0  0
    0.5970   -2.7010   -1.9110 C   0  0  0  0  0  0  0  0  0  0  0  0
   -0.1190   -2.2490   -3.1090 C   0  0  0  0  0  0  0  0  0  0  0  0
   -1.2870   -1.3590   -3.0010 C   0  0  0  0  0  0  0  0  0  0  0  0
   -1.7180   -1.1020   -4.4050 N   0  0  0  0  0  0  0  0  0  0  0  0
   -1.4860   -4.1250    0.9150 C   0  0  0  0  0  0  0  0  0  0  0  0
   -1.4710   -3.9280    2.1320 O   0  0  0  0  0  0  0  0  0  0  0  0
   -1.7620   -5.3490    0.3830 O   0  0  0  0  0  0  0  0  0  0  0  0
    0.0160   -1.7200    1.1170 H   0  0  0  0  0  0  0  0  0  0  0  0
   -2.1630   -2.9440   -0.6200 H   0  0  0  0  0  0  0  0  0  0  0  0
   -0.3730   -4.5270   -1.3060 H   0  0  0  0  0  0  0  0  0  0  0  0
    0.7600   -3.8490   -0.1540 H   0  0  0  0  0  0  0  0  0  0  0  0
    1.5290   -3.2450   -2.3050 H   0  0  0  0  0  0  0  0  0  0  0  0
    1.0770   -1.7810   -1.4590 H   0  0  0  0  0  0  0  0  0  0  0  0
   -0.3240   -3.1560   -3.7470 H   0  0  0  0  0  0  0  0  0  0  0  0
    0.6490   -1.6930   -3.7490 H   0  0  0  0  0  0  0  0  0  0  0  0
   -1.0290   -0.3340   -2.6190 H   0  0  0  0  0  0  0  0  0  0  0  0
   -2.1650   -1.6900   -2.4730 H   0  0  0  0  0  0  0  0  0  0  0  0
   -2.7430   -0.9710   -4.4380 H   0  0  0  0  0  0  0  0  0  0  0  0
   -1.4290   -1.8740   -5.0190 H   0  0  0  0  0  0  0  0  0  0  0  0
  1  2  1  0  0  0  0
  2  3  1  0  0  0  0
  3 13  1  0  0  0  0
  4 15  1  0  0  0  0
  4  5  1  0  0  0  0
  4  3  1  0  0  0  0
  5 16  1  6  0  0  0
  5  6  1  0  0  0  0
  6 18  1  0  0  0  0
  6 17  1  0  0  0  0
  7  5  1  0  0  0  0
  7  8  2  0  0  0  0
  9  1  1  0  0  0  0
 10  1  1  0  0  0  0
 11  1  1  0  0  0  0
 12  3  1  0  0  0  0
 14  4  1  0  0  0  0
 19 31  1  0  0  0  0
 19 20  1  0  0  0  0
 20 21  1  0  0  0  0
 21 32  1  0  0  0  0
 21 22  2  0  0  0  0
 22 33  1  0  0  0  0
 23 22  1  0  0  0  0
 23 24  1  0  0  0  0
 24 25  1  0  0  0  0
 24 34  1  0  0  0  0
 25 26  1  0  0  0  0
 25 36  1  1  0  0  0
 26  7  1  0  0  0  0
 27 25  1  0  0  0  0
 28 27  2  0  0  0  0
 29 23  2  0  0  0  0
 30 20  2  0  0  0  0
 30 29  1  0  0  0  0
 35 24  1  0  0  0  0
 37 26  1  0  0  0  0
 38 29  1  0  0  0  0
 39 30  1  0  0  0  0
 40 27  1  0  0  0  0
 40 50  1  0  0  0  0
 41 51  1  6  0  0  0
 41 40  1  0  0  0  0
 41 47  1  0  0  0  0
 42 53  1  0  0  0  0
 42 41  1  0  0  0  0
 43 55  1  0  0  0  0
 43 42  1  0  0  0  0
 44 45  1  0  0  0  0
 44 43  1  0  0  0  0
 45 58  1  0  0  0  0
 45 59  1  0  0  0  0
 46 45  1  0  0  0  0
 47 48  1  0  0  0  0
 49 47  2  0  0  0  0
 52 42  1  0  0  0  0
 54 43  1  0  0  0  0
 56 44  1  0  0  0  0
 57 44  1  0  0  0  0
 60 46  1  0  0  0  0
 61 46  1  0  0  0  0
M  END
$$$$
