MYL.pdb
 OpenBabel07022418573D

 59 59  0  0  1  0  0  0  0  0999 V2000
    1.5340   -2.0230    5.6610 C   0  0  0  0  0  0  0  0  0  0  0  0
    2.2900   -3.0840    4.4230 S   0  0  0  0  0  0  0  0  0  0  0  0
    2.0580   -2.5800    2.7500 C   0  0  0  0  0  0  0  0  0  0  0  0
    2.7710   -1.4130    2.2210 C   0  0  0  0  0  0  0  0  0  0  0  0
    2.5970   -0.0800    2.8210 C   0  0  2  0  0  0  0  0  0  0  0  0
    2.9730    0.0880    4.1800 N   0  0  0  0  0  0  0  0  0  0  0  0
    1.2520    0.5060    2.6050 C   0  0  0  0  0  0  0  0  0  0  0  0
    0.6620    1.0140    3.5910 O   0  0  0  0  0  0  0  0  0  0  0  0
    2.3350   -1.5430    6.2550 H   0  0  0  0  0  0  0  0  0  0  0  0
    0.8590   -1.2850    5.1850 H   0  0  0  0  0  0  0  0  0  0  0  0
    0.8690   -2.6180    6.3550 H   0  0  0  0  0  0  0  0  0  0  0  0
    0.9440   -2.5470    2.5540 H   0  0  0  0  0  0  0  0  0  0  0  0
    2.3700   -3.4640    2.0910 H   0  0  0  0  0  0  0  0  0  0  0  0
    2.5220   -1.3240    1.1290 H   0  0  0  0  0  0  0  0  0  0  0  0
    3.8710   -1.6450    2.2350 H   0  0  0  0  0  0  0  0  0  0  0  0
    3.2870    0.6160    2.2340 H   0  0  0  0  0  0  0  0  0  0  0  0
    2.3500    0.7030    4.7380 H   0  0  0  0  0  0  0  0  0  0  0  0
    3.9880    0.2590    4.3340 H   0  0  0  0  0  0  0  0  0  0  0  0
    0.9700    1.8450   -5.0140 O   0  0  0  0  0  0  0  0  0  0  0  0
    0.5460    1.9680   -3.6810 C   0  0  0  0  0  0  0  0  0  0  0  0
    1.4420    2.2510   -2.6710 C   0  0  0  0  0  0  0  0  0  0  0  0
    1.0680    2.3800   -1.3510 C   0  0  0  0  0  0  0  0  0  0  0  0
   -0.2490    2.2210   -1.0250 C   0  0  0  0  0  0  0  0  0  0  0  0
   -0.7250    2.3500    0.3450 C   0  0  0  0  0  0  0  0  0  0  0  0
   -0.7020    1.1010    1.1750 C   0  0  2  0  0  0  0  0  0  0  0  0
    0.6040    0.5200    1.3400 N   0  0  0  0  0  0  0  0  0  0  0  0
   -1.7350    0.1060    0.8210 C   0  0  0  0  0  0  0  0  0  0  0  0
   -2.9130    0.4760    0.5900 O   0  0  0  0  0  0  0  0  0  0  0  0
   -1.1530    1.9370   -2.0270 C   0  0  0  0  0  0  0  0  0  0  0  0
   -0.7800    1.8080   -3.3490 C   0  0  0  0  0  0  0  0  0  0  0  0
    1.5720    1.0540   -5.2100 H   0  0  0  0  0  0  0  0  0  0  0  0
    2.4800    2.3710   -2.9740 H   0  0  0  0  0  0  0  0  0  0  0  0
    1.8400    2.6080   -0.5950 H   0  0  0  0  0  0  0  0  0  0  0  0
   -1.7930    2.7140    0.3780 H   0  0  0  0  0  0  0  0  0  0  0  0
   -0.1660    3.1280    0.9330 H   0  0  0  0  0  0  0  0  0  0  0  0
   -1.0150    1.4630    2.2110 H   0  0  0  0  0  0  0  0  0  0  0  0
    1.1350    0.0840    0.5460 H   0  0  0  0  0  0  0  0  0  0  0  0
   -2.2200    1.8000   -1.8170 H   0  0  0  0  0  0  0  0  0  0  0  0
   -1.4690    1.5860   -4.1510 H   0  0  0  0  0  0  0  0  0  0  0  0
   -0.6020   -1.9290   -1.9300 C   0  0  0  0  0  0  0  0  0  0  0  0
   -1.8620   -2.7530   -2.0190 C   0  0  0  0  0  0  0  0  0  0  0  0
   -1.5170   -3.9450   -2.9220 C   0  0  0  0  0  0  0  0  0  0  0  0
   -2.2390   -3.2310   -0.6710 C   0  0  0  0  0  0  0  0  0  0  0  0
   -2.5350   -2.2270    0.3720 C   0  0  2  0  0  0  0  0  0  0  0  0
   -1.4910   -1.3080    0.7170 N   0  0  0  0  0  0  0  0  0  0  0  0
   -2.9890   -3.0010    1.5810 C   0  0  0  0  0  0  0  0  0  0  0  0
   -2.4560   -2.7820    2.6720 O   0  0  0  0  0  0  0  0  0  0  0  0
   -3.9820   -3.9260    1.4290 O   0  0  0  0  0  0  0  0  0  0  0  0
    0.1400   -2.3830   -1.2620 H   0  0  0  0  0  0  0  0  0  0  0  0
   -0.0980   -1.9200   -2.9430 H   0  0  0  0  0  0  0  0  0  0  0  0
   -0.8890   -0.9040   -1.7270 H   0  0  0  0  0  0  0  0  0  0  0  0
   -2.6730   -2.2200   -2.5580 H   0  0  0  0  0  0  0  0  0  0  0  0
   -2.2550   -4.7250   -2.6890 H   0  0  0  0  0  0  0  0  0  0  0  0
   -0.4770   -4.2450   -2.6950 H   0  0  0  0  0  0  0  0  0  0  0  0
   -1.5620   -3.5830   -3.9700 H   0  0  0  0  0  0  0  0  0  0  0  0
   -3.1680   -3.8680   -0.7800 H   0  0  0  0  0  0  0  0  0  0  0  0
   -1.4140   -3.8820   -0.2970 H   0  0  0  0  0  0  0  0  0  0  0  0
   -3.4410   -1.6250    0.0480 H   0  0  0  0  0  0  0  0  0  0  0  0
   -0.5410   -1.6560    0.9010 H   0  0  0  0  0  0  0  0  0  0  0  0
  1  9  1  0  0  0  0
  1 11  1  0  0  0  0
  2  1  1  0  0  0  0
  3  2  1  0  0  0  0
  4 15  1  0  0  0  0
  4  3  1  0  0  0  0
  4  5  1  0  0  0  0
  5 16  1  6  0  0  0
  5  6  1  0  0  0  0
  6 18  1  0  0  0  0
  6 17  1  0  0  0  0
  7  5  1  0  0  0  0
  7  8  2  0  0  0  0
 10  1  1  0  0  0  0
 12  3  1  0  0  0  0
 13  3  1  0  0  0  0
 14  4  1  0  0  0  0
 19 20  1  0  0  0  0
 20 30  2  0  0  0  0
 20 21  1  0  0  0  0
 21 22  2  0  0  0  0
 22 23  1  0  0  0  0
 22 33  1  0  0  0  0
 23 24  1  0  0  0  0
 24 34  1  0  0  0  0
 24 35  1  0  0  0  0
 24 25  1  0  0  0  0
 25 26  1  0  0  0  0
 25 36  1  1  0  0  0
 26  7  1  0  0  0  0
 27 25  1  0  0  0  0
 28 27  2  0  0  0  0
 29 38  1  0  0  0  0
 29 23  2  0  0  0  0
 30 29  1  0  0  0  0
 31 19  1  0  0  0  0
 32 21  1  0  0  0  0
 37 26  1  0  0  0  0
 39 30  1  0  0  0  0
 40 51  1  0  0  0  0
 40 49  1  0  0  0  0
 41 40  1  0  0  0  0
 41 43  1  0  0  0  0
 42 54  1  0  0  0  0
 42 53  1  0  0  0  0
 42 41  1  0  0  0  0
 43 57  1  0  0  0  0
 43 44  1  0  0  0  0
 44 58  1  6  0  0  0
 44 45  1  0  0  0  0
 44 46  1  0  0  0  0
 45 27  1  0  0  0  0
 45 59  1  0  0  0  0
 46 47  1  0  0  0  0
 48 46  2  0  0  0  0
 50 40  1  0  0  0  0
 52 41  1  0  0  0  0
 55 42  1  0  0  0  0
 56 43  1  0  0  0  0
M  END
$$$$
