MYP.pdb
 OpenBabel07022418573D

 54 55  0  0  1  0  0  0  0  0999 V2000
    0.7520    0.0600    5.5840 C   0  0  0  0  0  0  0  0  0  0  0  0
   -0.1890   -1.4650    5.3480 S   0  0  0  0  0  0  0  0  0  0  0  0
    0.2990   -2.2480    3.7610 C   0  0  0  0  0  0  0  0  0  0  0  0
    1.7320   -2.6990    3.8600 C   0  0  0  0  0  0  0  0  0  0  0  0
    2.1090   -3.3720    2.5460 C   0  0  2  0  0  0  0  0  0  0  0  0
    3.5250   -3.7860    2.6750 N   0  0  0  0  0  0  0  0  0  0  0  0
    1.9600   -2.4070    1.4510 C   0  0  0  0  0  0  0  0  0  0  0  0
    3.0080   -1.7560    1.1290 O   0  0  0  0  0  0  0  0  0  0  0  0
    1.1200    0.1520    6.6420 H   0  0  0  0  0  0  0  0  0  0  0  0
    1.6930   -0.0070    4.9700 H   0  0  0  0  0  0  0  0  0  0  0  0
    0.1530    0.9510    5.3250 H   0  0  0  0  0  0  0  0  0  0  0  0
    0.2730   -1.4770    2.9570 H   0  0  0  0  0  0  0  0  0  0  0  0
   -0.3460   -3.0980    3.5320 H   0  0  0  0  0  0  0  0  0  0  0  0
    1.7700   -3.4370    4.7040 H   0  0  0  0  0  0  0  0  0  0  0  0
    2.4350   -1.8700    4.0240 H   0  0  0  0  0  0  0  0  0  0  0  0
    1.5330   -4.3050    2.4240 H   0  0  0  0  0  0  0  0  0  0  0  0
    3.5550   -4.3340    3.5760 H   0  0  0  0  0  0  0  0  0  0  0  0
    4.1290   -2.9450    2.8190 H   0  0  0  0  0  0  0  0  0  0  0  0
    0.2710    1.4410   -6.1940 O   0  0  0  0  0  0  0  0  0  0  0  0
    0.3860    0.6190   -5.0850 C   0  0  0  0  0  0  0  0  0  0  0  0
    1.5970    0.2980   -4.5190 C   0  0  0  0  0  0  0  0  0  0  0  0
    1.6750   -0.5210   -3.4180 C   0  0  0  0  0  0  0  0  0  0  0  0
    0.5470   -1.0680   -2.8180 C   0  0  0  0  0  0  0  0  0  0  0  0
    0.6150   -1.9640   -1.6690 C   0  0  0  0  0  0  0  0  0  0  0  0
    0.6800   -1.2280   -0.3050 C   0  0  2  0  0  0  0  0  0  0  0  0
    0.7300   -2.1730    0.7420 N   0  0  0  0  0  0  0  0  0  0  0  0
   -0.2830   -0.1660   -0.3210 C   0  0  0  0  0  0  0  0  0  0  0  0
   -0.0420    0.7190   -1.2670 O   0  0  0  0  0  0  0  0  0  0  0  0
   -0.6760   -0.7390   -3.3950 C   0  0  0  0  0  0  0  0  0  0  0  0
   -0.7480    0.0760   -4.4910 C   0  0  0  0  0  0  0  0  0  0  0  0
   -0.6420    1.7360   -6.5050 H   0  0  0  0  0  0  0  0  0  0  0  0
    2.4950    0.7020   -4.9540 H   0  0  0  0  0  0  0  0  0  0  0  0
    2.6260   -0.7730   -2.9740 H   0  0  0  0  0  0  0  0  0  0  0  0
   -0.3190   -2.5740   -1.6060 H   0  0  0  0  0  0  0  0  0  0  0  0
    1.4610   -2.6920   -1.7240 H   0  0  0  0  0  0  0  0  0  0  0  0
    1.7110   -0.7510   -0.3590 H   0  0  0  0  0  0  0  0  0  0  0  0
   -0.0810   -2.7430    1.0210 H   0  0  0  0  0  0  0  0  0  0  0  0
   -1.6010   -1.1420   -2.9650 H   0  0  0  0  0  0  0  0  0  0  0  0
   -1.7110    0.3400   -4.9520 H   0  0  0  0  0  0  0  0  0  0  0  0
   -1.4130    0.1450    0.4330 N   0  0  0  0  0  0  0  0  0  0  0  0
   -2.0320   -0.5370    1.5180 C   0  0  0  0  0  0  0  0  0  0  0  0
   -3.5270   -0.2130    1.4610 C   0  0  0  0  0  0  0  0  0  0  0  0
   -3.6580    0.8990    0.4570 C   0  0  0  0  0  0  0  0  0  0  0  0
   -2.2400    1.3560    0.2220 C   0  0  1  0  0  0  0  0  0  0  0  0
   -1.8250    2.4450    1.1050 C   0  0  0  0  0  0  0  0  0  0  0  0
   -0.8870    2.3320    1.9280 O   0  0  0  0  0  0  0  0  0  0  0  0
   -2.4870    3.6570    1.0410 O   0  0  0  0  0  0  0  0  0  0  0  0
   -1.9900   -1.6330    1.5130 H   0  0  0  0  0  0  0  0  0  0  0  0
   -1.6520   -0.1990    2.5180 H   0  0  0  0  0  0  0  0  0  0  0  0
   -4.1300   -1.0900    1.1520 H   0  0  0  0  0  0  0  0  0  0  0  0
   -3.8810    0.1390    2.4410 H   0  0  0  0  0  0  0  0  0  0  0  0
   -4.0750    0.4530   -0.4930 H   0  0  0  0  0  0  0  0  0  0  0  0
   -4.2590    1.7450    0.8090 H   0  0  0  0  0  0  0  0  0  0  0  0
   -2.1840    1.6740   -0.8510 H   0  0  0  0  0  0  0  0  0  0  0  0
  1  9  1  0  0  0  0
  2  1  1  0  0  0  0
  3  4  1  0  0  0  0
  3  2  1  0  0  0  0
  4 15  1  0  0  0  0
  4 14  1  0  0  0  0
  5 16  1  6  0  0  0
  5  6  1  0  0  0  0
  5  4  1  0  0  0  0
  6 18  1  0  0  0  0
  6 17  1  0  0  0  0
  7  5  1  0  0  0  0
  8  7  2  0  0  0  0
 10  1  1  0  0  0  0
 11  1  1  0  0  0  0
 12  3  1  0  0  0  0
 13  3  1  0  0  0  0
 19 20  1  0  0  0  0
 20 21  2  0  0  0  0
 20 30  1  0  0  0  0
 21 22  1  0  0  0  0
 22 33  1  0  0  0  0
 22 23  2  0  0  0  0
 23 24  1  0  0  0  0
 24 34  1  0  0  0  0
 24 25  1  0  0  0  0
 25 36  1  1  0  0  0
 25 26  1  0  0  0  0
 26 37  1  0  0  0  0
 26  7  1  0  0  0  0
 27 25  1  0  0  0  0
 27 40  1  0  0  0  0
 28 27  2  0  0  0  0
 29 38  1  0  0  0  0
 29 23  1  0  0  0  0
 30 29  2  0  0  0  0
 31 19  1  0  0  0  0
 32 21  1  0  0  0  0
 35 24  1  0  0  0  0
 39 30  1  0  0  0  0
 40 41  1  0  0  0  0
 41 49  1  0  0  0  0
 42 41  1  0  0  0  0
 42 51  1  0  0  0  0
 43 53  1  0  0  0  0
 43 42  1  0  0  0  0
 44 54  1  6  0  0  0
 44 40  1  0  0  0  0
 44 43  1  0  0  0  0
 44 45  1  0  0  0  0
 45 46  1  0  0  0  0
 47 45  2  0  0  0  0
 48 41  1  0  0  0  0
 50 42  1  0  0  0  0
 52 43  1  0  0  0  0
M  END
$$$$
