MYQ.pdb
 OpenBabel07022418573D

 57 57  0  0  1  0  0  0  0  0999 V2000
   -1.5470   -1.4190    4.7000 C   0  0  0  0  0  0  0  0  0  0  0  0
   -0.5050   -0.5240    3.5150 S   0  0  0  0  0  0  0  0  0  0  0  0
    0.8260    0.2900    4.3750 C   0  0  0  0  0  0  0  0  0  0  0  0
    1.7570    1.0620    3.5170 C   0  0  0  0  0  0  0  0  0  0  0  0
    1.1460    2.1660    2.7330 C   0  0  2  0  0  0  0  0  0  0  0  0
    0.5110    3.1740    3.5320 N   0  0  0  0  0  0  0  0  0  0  0  0
    0.2620    1.7380    1.6280 C   0  0  0  0  0  0  0  0  0  0  0  0
   -0.9080    2.2230    1.4690 O   0  0  0  0  0  0  0  0  0  0  0  0
   -1.5530   -2.5170    4.4920 H   0  0  0  0  0  0  0  0  0  0  0  0
   -2.5870   -1.0620    4.6900 H   0  0  0  0  0  0  0  0  0  0  0  0
   -1.1610   -1.3090    5.7450 H   0  0  0  0  0  0  0  0  0  0  0  0
    0.3830    0.9490    5.1620 H   0  0  0  0  0  0  0  0  0  0  0  0
    1.3930   -0.4850    4.9470 H   0  0  0  0  0  0  0  0  0  0  0  0
    2.5860    1.4670    4.1120 H   0  0  0  0  0  0  0  0  0  0  0  0
    2.2330    0.3570    2.7790 H   0  0  0  0  0  0  0  0  0  0  0  0
    2.0080    2.6940    2.2200 H   0  0  0  0  0  0  0  0  0  0  0  0
    0.1210    2.8340    4.4370 H   0  0  0  0  0  0  0  0  0  0  0  0
    1.1220    3.9890    3.7550 H   0  0  0  0  0  0  0  0  0  0  0  0
    5.6410   -1.1440   -2.5720 O   0  0  0  0  0  0  0  0  0  0  0  0
    4.3270   -0.7140   -2.3960 C   0  0  0  0  0  0  0  0  0  0  0  0
    4.0730    0.4810   -1.7570 C   0  0  0  0  0  0  0  0  0  0  0  0
    2.8020    0.9570   -1.5540 C   0  0  0  0  0  0  0  0  0  0  0  0
    1.6990    0.2230   -2.0030 C   0  0  0  0  0  0  0  0  0  0  0  0
    0.3620    0.7900   -1.7540 C   0  0  0  0  0  0  0  0  0  0  0  0
   -0.2170    0.3500   -0.4110 C   0  0  2  0  0  0  0  0  0  0  0  0
    0.6530    0.7640    0.6720 N   0  0  0  0  0  0  0  0  0  0  0  0
   -0.5030   -1.0990   -0.3510 C   0  0  0  0  0  0  0  0  0  0  0  0
    0.0080   -1.8810    0.5030 O   0  0  0  0  0  0  0  0  0  0  0  0
    1.9510   -0.9680   -2.6410 C   0  0  0  0  0  0  0  0  0  0  0  0
    3.2480   -1.4480   -2.8440 C   0  0  0  0  0  0  0  0  0  0  0  0
    5.8410   -1.5680   -3.4900 H   0  0  0  0  0  0  0  0  0  0  0  0
    4.9380    1.0550   -1.4050 H   0  0  0  0  0  0  0  0  0  0  0  0
    2.6300    1.9110   -1.0420 H   0  0  0  0  0  0  0  0  0  0  0  0
    0.4570    1.8930   -1.7030 H   0  0  0  0  0  0  0  0  0  0  0  0
   -0.3540    0.5840   -2.5700 H   0  0  0  0  0  0  0  0  0  0  0  0
   -1.1830    0.8940   -0.3360 H   0  0  0  0  0  0  0  0  0  0  0  0
    1.6020    0.3460    0.7720 H   0  0  0  0  0  0  0  0  0  0  0  0
    1.0900   -1.5230   -2.9820 H   0  0  0  0  0  0  0  0  0  0  0  0
    3.3810   -2.3850   -3.3490 H   0  0  0  0  0  0  0  0  0  0  0  0
   -3.9590   -1.2970    2.1000 N   0  0  0  0  0  0  0  0  0  0  0  0
   -3.7490   -1.7350    0.7620 C   0  0  0  0  0  0  0  0  0  0  0  0
   -3.6880   -0.8450   -0.1100 O   0  0  0  0  0  0  0  0  0  0  0  0
   -3.6140   -3.1400    0.4210 C   0  0  0  0  0  0  0  0  0  0  0  0
   -3.1020   -3.5010   -0.9120 C   0  0  0  0  0  0  0  0  0  0  0  0
   -1.7230   -3.0930   -1.2790 C   0  0  2  0  0  0  0  0  0  0  0  0
   -1.4100   -1.7130   -1.2950 N   0  0  0  0  0  0  0  0  0  0  0  0
   -1.4160   -3.8100   -2.5660 C   0  0  0  0  0  0  0  0  0  0  0  0
   -1.6640   -5.0420   -2.5720 O   0  0  0  0  0  0  0  0  0  0  0  0
   -0.9050   -3.2280   -3.6850 O   0  0  0  0  0  0  0  0  0  0  0  0
   -3.3100   -0.5690    2.4560 H   0  0  0  0  0  0  0  0  0  0  0  0
   -4.7160   -1.6680    2.7150 H   0  0  0  0  0  0  0  0  0  0  0  0
   -4.6210   -3.6630    0.5230 H   0  0  0  0  0  0  0  0  0  0  0  0
   -2.9920   -3.6910    1.1840 H   0  0  0  0  0  0  0  0  0  0  0  0
   -3.7910   -3.2090   -1.7500 H   0  0  0  0  0  0  0  0  0  0  0  0
   -3.1140   -4.6340   -0.9700 H   0  0  0  0  0  0  0  0  0  0  0  0
   -1.0460   -3.5910   -0.5190 H   0  0  0  0  0  0  0  0  0  0  0  0
   -1.8120   -1.0460   -2.0090 H   0  0  0  0  0  0  0  0  0  0  0  0
  1 11  1  0  0  0  0
  2  3  1  0  0  0  0
  2  1  1  0  0  0  0
  3 13  1  0  0  0  0
  3 12  1  0  0  0  0
  4 14  1  0  0  0  0
  4  3  1  0  0  0  0
  5 16  1  6  0  0  0
  5  4  1  0  0  0  0
  5  6  1  0  0  0  0
  6 18  1  0  0  0  0
  6 17  1  0  0  0  0
  7  5  1  0  0  0  0
  8  7  2  0  0  0  0
  9  1  1  0  0  0  0
 10  1  1  0  0  0  0
 15  4  1  0  0  0  0
 19 20  1  0  0  0  0
 20 21  1  0  0  0  0
 21 22  2  0  0  0  0
 21 32  1  0  0  0  0
 22 33  1  0  0  0  0
 23 24  1  0  0  0  0
 23 22  1  0  0  0  0
 24 34  1  0  0  0  0
 24 25  1  0  0  0  0
 25 27  1  0  0  0  0
 25 36  1  1  0  0  0
 25 26  1  0  0  0  0
 26 37  1  0  0  0  0
 26  7  1  0  0  0  0
 27 28  2  0  0  0  0
 29 23  2  0  0  0  0
 30 29  1  0  0  0  0
 30 20  2  0  0  0  0
 31 19  1  0  0  0  0
 35 24  1  0  0  0  0
 38 29  1  0  0  0  0
 39 30  1  0  0  0  0
 40 50  1  0  0  0  0
 40 51  1  0  0  0  0
 41 40  1  0  0  0  0
 42 41  2  0  0  0  0
 43 52  1  0  0  0  0
 43 41  1  0  0  0  0
 43 53  1  0  0  0  0
 44 43  1  0  0  0  0
 45 44  1  0  0  0  0
 45 56  1  1  0  0  0
 46 45  1  0  0  0  0
 46 27  1  0  0  0  0
 47 45  1  0  0  0  0
 48 47  1  0  0  0  0
 49 47  2  0  0  0  0
 54 44  1  0  0  0  0
 55 44  1  0  0  0  0
 57 46  1  0  0  0  0
M  END
$$$$
