MYR.pdb
 OpenBabel07022418573D

 63 63  0  0  1  0  0  0  0  0999 V2000
    1.1360    3.4800    5.7120 C   0  0  0  0  0  0  0  0  0  0  0  0
   -0.6720    3.2090    5.5720 S   0  0  0  0  0  0  0  0  0  0  0  0
   -0.9980    2.0660    4.1900 C   0  0  0  0  0  0  0  0  0  0  0  0
   -0.4330    0.7260    4.5110 C   0  0  0  0  0  0  0  0  0  0  0  0
   -0.7040   -0.2650    3.4020 C   0  0  2  0  0  0  0  0  0  0  0  0
   -0.1060   -1.5680    3.7680 N   0  0  0  0  0  0  0  0  0  0  0  0
   -0.1900    0.1070    2.0920 C   0  0  0  0  0  0  0  0  0  0  0  0
    0.8630   -0.4850    1.6710 O   0  0  0  0  0  0  0  0  0  0  0  0
    1.6620    2.5030    5.6000 H   0  0  0  0  0  0  0  0  0  0  0  0
    1.3340    3.8520    6.7200 H   0  0  0  0  0  0  0  0  0  0  0  0
    1.4740    4.2290    4.9840 H   0  0  0  0  0  0  0  0  0  0  0  0
   -0.4310    2.5120    3.3190 H   0  0  0  0  0  0  0  0  0  0  0  0
   -2.0680    2.0750    3.9320 H   0  0  0  0  0  0  0  0  0  0  0  0
   -1.0070    0.3340    5.4020 H   0  0  0  0  0  0  0  0  0  0  0  0
    0.6290    0.7260    4.7490 H   0  0  0  0  0  0  0  0  0  0  0  0
   -1.8100   -0.4580    3.3270 H   0  0  0  0  0  0  0  0  0  0  0  0
   -0.7200   -2.3460    3.4380 H   0  0  0  0  0  0  0  0  0  0  0  0
    0.0280   -1.6340    4.8020 H   0  0  0  0  0  0  0  0  0  0  0  0
    3.8140    3.5210   -4.6870 O   0  0  0  0  0  0  0  0  0  0  0  0
    3.1620    3.1400   -3.4980 C   0  0  0  0  0  0  0  0  0  0  0  0
    2.2960    4.0100   -2.8720 C   0  0  0  0  0  0  0  0  0  0  0  0
    1.6430    3.6390   -1.6900 C   0  0  0  0  0  0  0  0  0  0  0  0
    1.8440    2.4040   -1.1190 C   0  0  0  0  0  0  0  0  0  0  0  0
    1.1480    2.0350    0.1320 C   0  0  0  0  0  0  0  0  0  0  0  0
   -0.1820    1.3960   -0.0750 C   0  0  2  0  0  0  0  0  0  0  0  0
   -0.7570    1.0790    1.2170 N   0  0  0  0  0  0  0  0  0  0  0  0
   -0.2330    0.2470   -0.9700 C   0  0  0  0  0  0  0  0  0  0  0  0
    0.2970    0.2450   -2.1110 O   0  0  0  0  0  0  0  0  0  0  0  0
    2.7130    1.5550   -1.7630 C   0  0  0  0  0  0  0  0  0  0  0  0
    3.3630    1.9080   -2.9300 C   0  0  0  0  0  0  0  0  0  0  0  0
    3.3790    4.1660   -5.3440 H   0  0  0  0  0  0  0  0  0  0  0  0
    2.1310    4.9960   -3.3230 H   0  0  0  0  0  0  0  0  0  0  0  0
    0.9890    4.3780   -1.2750 H   0  0  0  0  0  0  0  0  0  0  0  0
    0.9370    2.9580    0.7570 H   0  0  0  0  0  0  0  0  0  0  0  0
    1.8020    1.4300    0.7910 H   0  0  0  0  0  0  0  0  0  0  0  0
   -0.8910    2.1670   -0.5350 H   0  0  0  0  0  0  0  0  0  0  0  0
   -1.6380    1.5530    1.5680 H   0  0  0  0  0  0  0  0  0  0  0  0
    2.9080    0.5780   -1.3590 H   0  0  0  0  0  0  0  0  0  0  0  0
    4.0380    1.2240   -3.4130 H   0  0  0  0  0  0  0  0  0  0  0  0
   -3.2370   -6.3780    1.2410 N   0  0  0  0  0  0  0  0  0  0  0  0
   -2.1770   -6.3870    0.2740 C   0  0  0  0  0  0  0  0  0  0  0  0
   -1.1350   -7.0980    0.4760 N   0  0  0  0  0  0  0  0  0  0  0  0
   -2.3640   -5.5820   -0.8750 N   0  0  0  0  0  0  0  0  0  0  0  0
   -1.2720   -5.3810   -1.7990 C   0  0  0  0  0  0  0  0  0  0  0  0
   -0.1410   -4.5760   -1.2740 C   0  0  0  0  0  0  0  0  0  0  0  0
   -0.3640   -3.2340   -0.7330 C   0  0  0  0  0  0  0  0  0  0  0  0
   -0.9400   -2.1170   -1.5040 C   0  0  2  0  0  0  0  0  0  0  0  0
   -0.9020   -0.9290   -0.5670 N   0  0  0  0  0  0  0  0  0  0  0  0
   -2.3530   -2.2380   -1.9340 C   0  0  0  0  0  0  0  0  0  0  0  0
   -3.2100   -1.4990   -1.3370 O   0  0  0  0  0  0  0  0  0  0  0  0
   -2.8560   -3.0570   -2.9160 O   0  0  0  0  0  0  0  0  0  0  0  0
   -4.2040   -6.1980    0.9700 H   0  0  0  0  0  0  0  0  0  0  0  0
   -2.9980   -6.5600    2.2310 H   0  0  0  0  0  0  0  0  0  0  0  0
   -1.0620   -7.6680    1.3420 H   0  0  0  0  0  0  0  0  0  0  0  0
   -3.3080   -5.1270   -1.0560 H   0  0  0  0  0  0  0  0  0  0  0  0
   -0.8370   -6.4750   -1.9100 H   0  0  0  0  0  0  0  0  0  0  0  0
   -1.5630   -5.1630   -2.8300 H   0  0  0  0  0  0  0  0  0  0  0  0
    0.4600   -5.1730   -0.5090 H   0  0  0  0  0  0  0  0  0  0  0  0
    0.6180   -4.5320   -2.1410 H   0  0  0  0  0  0  0  0  0  0  0  0
   -1.0360   -3.3420    0.1880 H   0  0  0  0  0  0  0  0  0  0  0  0
    0.6480   -2.8930   -0.2920 H   0  0  0  0  0  0  0  0  0  0  0  0
   -0.3320   -1.8840   -2.3860 H   0  0  0  0  0  0  0  0  0  0  0  0
   -1.4020   -1.0940    0.3230 H   0  0  0  0  0  0  0  0  0  0  0  0
  1 10  1  0  0  0  0
  2  1  1  0  0  0  0
  3  4  1  0  0  0  0
  3  2  1  0  0  0  0
  4 15  1  0  0  0  0
  4 14  1  0  0  0  0
  5 16  1  6  0  0  0
  5  6  1  0  0  0  0
  5  4  1  0  0  0  0
  6 18  1  0  0  0  0
  7  5  1  0  0  0  0
  8  7  2  0  0  0  0
  9  1  1  0  0  0  0
 11  1  1  0  0  0  0
 12  3  1  0  0  0  0
 13  3  1  0  0  0  0
 17  6  1  0  0  0  0
 19 20  1  0  0  0  0
 20 30  2  0  0  0  0
 20 21  1  0  0  0  0
 21 22  2  0  0  0  0
 22 33  1  0  0  0  0
 22 23  1  0  0  0  0
 23 24  1  0  0  0  0
 24 34  1  0  0  0  0
 24 35  1  0  0  0  0
 25 36  1  6  0  0  0
 25 24  1  0  0  0  0
 25 26  1  0  0  0  0
 26 37  1  0  0  0  0
 26  7  1  0  0  0  0
 27 48  1  0  0  0  0
 27 25  1  0  0  0  0
 28 27  2  0  0  0  0
 29 38  1  0  0  0  0
 29 23  2  0  0  0  0
 30 29  1  0  0  0  0
 31 19  1  0  0  0  0
 32 21  1  0  0  0  0
 39 30  1  0  0  0  0
 40 53  1  0  0  0  0
 41 42  2  0  0  0  0
 41 40  1  0  0  0  0
 42 54  1  0  0  0  0
 43 41  1  0  0  0  0
 44 45  1  0  0  0  0
 44 43  1  0  0  0  0
 45 46  1  0  0  0  0
 45 58  1  0  0  0  0
 46 61  1  0  0  0  0
 46 60  1  0  0  0  0
 47 62  1  6  0  0  0
 47 46  1  0  0  0  0
 47 48  1  0  0  0  0
 48 63  1  0  0  0  0
 49 47  1  0  0  0  0
 49 50  1  0  0  0  0
 51 49  2  0  0  0  0
 52 40  1  0  0  0  0
 55 43  1  0  0  0  0
 56 44  1  0  0  0  0
 57 44  1  0  0  0  0
 59 45  1  0  0  0  0
M  END
$$$$
