NAA.pdb
 OpenBabel07022418083D

 36 35  0  0  1  0  0  0  0  0999 V2000
   -4.0180   -2.6770    2.4970 N   0  0  0  0  0  0  0  0  0  0  0  0
   -3.0040   -3.4120    1.8460 C   0  0  0  0  0  0  0  0  0  0  0  0
   -3.1960   -4.6190    1.6010 O   0  0  0  0  0  0  0  0  0  0  0  0
   -1.7630   -2.7540    1.4750 C   0  0  0  0  0  0  0  0  0  0  0  0
   -0.7650   -3.6380    0.7900 C   0  0  2  0  0  0  0  0  0  0  0  0
   -0.3540   -4.7620    1.5940 N   0  0  0  0  0  0  0  0  0  0  0  0
    0.4490   -2.8170    0.5270 C   0  0  0  0  0  0  0  0  0  0  0  0
    1.5910   -3.1270    0.9680 O   0  0  0  0  0  0  0  0  0  0  0  0
   -3.7070   -2.0100    3.2560 H   0  0  0  0  0  0  0  0  0  0  0  0
   -5.0290   -2.7390    2.2940 H   0  0  0  0  0  0  0  0  0  0  0  0
   -1.2510   -2.3250    2.3740 H   0  0  0  0  0  0  0  0  0  0  0  0
   -1.9380   -1.8790    0.8030 H   0  0  0  0  0  0  0  0  0  0  0  0
   -1.1400   -4.0460   -0.1720 H   0  0  0  0  0  0  0  0  0  0  0  0
   -0.9360   -5.5980    1.4780 H   0  0  0  0  0  0  0  0  0  0  0  0
    0.6620   -4.9170    1.6220 H   0  0  0  0  0  0  0  0  0  0  0  0
    1.8620   -0.7500   -1.9940 C   0  0  0  0  0  0  0  0  0  0  0  0
    1.5620   -0.8100   -0.5130 C   0  0  2  0  0  0  0  0  0  0  0  0
    0.3870   -1.6130   -0.2530 N   0  0  0  0  0  0  0  0  0  0  0  0
    1.2970    0.5600    0.0240 C   0  0  0  0  0  0  0  0  0  0  0  0
    0.1960    0.8090    0.5760 O   0  0  0  0  0  0  0  0  0  0  0  0
    0.9730   -0.8330   -2.6200 H   0  0  0  0  0  0  0  0  0  0  0  0
    2.3760    0.2110   -2.2120 H   0  0  0  0  0  0  0  0  0  0  0  0
    2.5930   -1.5490   -2.2860 H   0  0  0  0  0  0  0  0  0  0  0  0
    2.4320   -1.2850   -0.0250 H   0  0  0  0  0  0  0  0  0  0  0  0
   -0.5620   -1.3670   -0.6130 H   0  0  0  0  0  0  0  0  0  0  0  0
    1.3210    3.8630   -0.4360 C   0  0  0  0  0  0  0  0  0  0  0  0
    2.0670    2.9170    0.4320 C   0  0  2  0  0  0  0  0  0  0  0  0
    2.2510    1.5980   -0.0670 N   0  0  0  0  0  0  0  0  0  0  0  0
    1.5830    2.9480    1.8610 C   0  0  0  0  0  0  0  0  0  0  0  0
    1.2970    4.0410    2.3900 O   0  0  0  0  0  0  0  0  0  0  0  0
    1.4770    1.7600    2.5370 O   0  0  0  0  0  0  0  0  0  0  0  0
    0.9360    4.6950    0.2250 H   0  0  0  0  0  0  0  0  0  0  0  0
    0.4410    3.4460   -0.9310 H   0  0  0  0  0  0  0  0  0  0  0  0
    2.0330    4.3520   -1.1310 H   0  0  0  0  0  0  0  0  0  0  0  0
    3.1290    3.3430    0.5600 H   0  0  0  0  0  0  0  0  0  0  0  0
    3.1590    1.3180   -0.5570 H   0  0  0  0  0  0  0  0  0  0  0  0
  1  9  1  0  0  0  0
  2  1  1  0  0  0  0
  3  2  2  0  0  0  0
  4  2  1  0  0  0  0
  4 11  1  0  0  0  0
  5 13  1  6  0  0  0
  5  4  1  0  0  0  0
  5  6  1  0  0  0  0
  6 15  1  0  0  0  0
  7  5  1  0  0  0  0
  7  8  2  0  0  0  0
 10  1  1  0  0  0  0
 12  4  1  0  0  0  0
 14  6  1  0  0  0  0
 16 17  1  0  0  0  0
 17 18  1  0  0  0  0
 17 24  1  1  0  0  0
 17 19  1  0  0  0  0
 18  7  1  0  0  0  0
 19 20  2  0  0  0  0
 21 16  1  0  0  0  0
 22 16  1  0  0  0  0
 23 16  1  0  0  0  0
 25 18  1  0  0  0  0
 26 32  1  0  0  0  0
 26 27  1  0  0  0  0
 27 35  1  1  0  0  0
 27 29  1  0  0  0  0
 28 19  1  0  0  0  0
 28 27  1  0  0  0  0
 29 30  2  0  0  0  0
 29 31  1  0  0  0  0
 33 26  1  0  0  0  0
 34 26  1  0  0  0  0
 36 28  1  0  0  0  0
M  END
$$$$
