NAF.pdb
 OpenBabel07022418083D

 46 46  0  0  1  0  0  0  0  0999 V2000
    1.5320   -3.5360    2.6890 N   0  0  0  0  0  0  0  0  0  0  0  0
    2.2450   -2.3640    3.0970 C   0  0  0  0  0  0  0  0  0  0  0  0
    1.9110   -1.7620    4.1470 O   0  0  0  0  0  0  0  0  0  0  0  0
    3.3760   -1.8370    2.3050 C   0  0  0  0  0  0  0  0  0  0  0  0
    3.9200   -0.6040    2.9820 C   0  0  2  0  0  0  0  0  0  0  0  0
    4.3570   -1.0050    4.3030 N   0  0  0  0  0  0  0  0  0  0  0  0
    2.8940    0.4450    3.0810 C   0  0  0  0  0  0  0  0  0  0  0  0
    2.5350    0.8480    4.2160 O   0  0  0  0  0  0  0  0  0  0  0  0
    0.5140   -3.6520    2.8610 H   0  0  0  0  0  0  0  0  0  0  0  0
    2.0760   -4.2800    2.2080 H   0  0  0  0  0  0  0  0  0  0  0  0
    4.1820   -2.6230    2.3230 H   0  0  0  0  0  0  0  0  0  0  0  0
    3.1040   -1.6610    1.2440 H   0  0  0  0  0  0  0  0  0  0  0  0
    4.8310   -0.2270    2.4630 H   0  0  0  0  0  0  0  0  0  0  0  0
    4.7410   -0.2130    4.8550 H   0  0  0  0  0  0  0  0  0  0  0  0
    5.0140   -1.8060    4.2600 H   0  0  0  0  0  0  0  0  0  0  0  0
    1.7290    3.3910    1.5130 C   0  0  0  0  0  0  0  0  0  0  0  0
    1.2710    2.0660    2.1130 C   0  0  2  0  0  0  0  0  0  0  0  0
    2.2710    1.0420    1.9610 N   0  0  0  0  0  0  0  0  0  0  0  0
    0.0110    1.6270    1.4710 C   0  0  0  0  0  0  0  0  0  0  0  0
   -1.0260    2.3350    1.4580 O   0  0  0  0  0  0  0  0  0  0  0  0
    0.8520    3.9750    1.1650 H   0  0  0  0  0  0  0  0  0  0  0  0
    2.2740    4.0120    2.2440 H   0  0  0  0  0  0  0  0  0  0  0  0
    2.4370    3.2210    0.6650 H   0  0  0  0  0  0  0  0  0  0  0  0
    1.0910    2.2860    3.2000 H   0  0  0  0  0  0  0  0  0  0  0  0
    2.5420    0.7350    1.0160 H   0  0  0  0  0  0  0  0  0  0  0  0
   -0.0750    0.3620    0.8330 N   0  0  0  0  0  0  0  0  0  0  0  0
   -1.2820   -0.1170    0.1900 C   0  0  1  0  0  0  0  0  0  0  0  0
   -1.1340   -0.3070   -1.2700 C   0  0  0  0  0  0  0  0  0  0  0  0
   -2.3980   -0.7970   -1.8630 C   0  0  0  0  0  0  0  0  0  0  0  0
   -2.7070   -2.1310   -2.0310 C   0  0  0  0  0  0  0  0  0  0  0  0
   -3.8710   -2.5840   -2.5760 C   0  0  0  0  0  0  0  0  0  0  0  0
   -4.8160   -1.6750   -2.9920 C   0  0  0  0  0  0  0  0  0  0  0  0
   -4.5630   -0.3460   -2.8490 C   0  0  0  0  0  0  0  0  0  0  0  0
   -3.3810    0.1020   -2.2970 C   0  0  0  0  0  0  0  0  0  0  0  0
   -1.8060   -1.2580    0.9500 C   0  0  0  0  0  0  0  0  0  0  0  0
   -1.1580   -1.6570    1.9730 O   0  0  0  0  0  0  0  0  0  0  0  0
   -2.9510   -1.9690    0.6820 O   0  0  0  0  0  0  0  0  0  0  0  0
    0.7500   -0.3070    0.7920 H   0  0  0  0  0  0  0  0  0  0  0  0
   -2.0450    0.7090    0.3270 H   0  0  0  0  0  0  0  0  0  0  0  0
   -0.3420   -1.0240   -1.5620 H   0  0  0  0  0  0  0  0  0  0  0  0
   -0.9370    0.6920   -1.7250 H   0  0  0  0  0  0  0  0  0  0  0  0
   -1.9690   -2.8830   -1.7090 H   0  0  0  0  0  0  0  0  0  0  0  0
   -4.0270   -3.6560   -2.6680 H   0  0  0  0  0  0  0  0  0  0  0  0
   -5.7430   -2.0740   -3.4260 H   0  0  0  0  0  0  0  0  0  0  0  0
   -5.3350    0.3560   -3.1900 H   0  0  0  0  0  0  0  0  0  0  0  0
   -3.2220    1.1550   -2.2030 H   0  0  0  0  0  0  0  0  0  0  0  0
  1  9  1  0  0  0  0
  1  2  1  0  0  0  0
  2  3  2  0  0  0  0
  4 11  1  0  0  0  0
  4  5  1  0  0  0  0
  4  2  1  0  0  0  0
  5 13  1  6  0  0  0
  5  7  1  0  0  0  0
  5  6  1  0  0  0  0
  6 14  1  0  0  0  0
  7  8  2  0  0  0  0
 10  1  1  0  0  0  0
 12  4  1  0  0  0  0
 15  6  1  0  0  0  0
 16 17  1  0  0  0  0
 16 22  1  0  0  0  0
 17 24  1  1  0  0  0
 18 17  1  0  0  0  0
 18  7  1  0  0  0  0
 19 17  1  0  0  0  0
 20 19  2  0  0  0  0
 21 16  1  0  0  0  0
 23 16  1  0  0  0  0
 25 18  1  0  0  0  0
 26 19  1  0  0  0  0
 27 39  1  1  0  0  0
 27 26  1  0  0  0  0
 27 35  1  0  0  0  0
 28 27  1  0  0  0  0
 29 28  1  0  0  0  0
 30 29  1  0  0  0  0
 30 42  1  0  0  0  0
 31 30  2  0  0  0  0
 32 33  2  0  0  0  0
 32 31  1  0  0  0  0
 33 34  1  0  0  0  0
 34 46  1  0  0  0  0
 34 29  2  0  0  0  0
 35 36  1  0  0  0  0
 37 35  2  0  0  0  0
 38 26  1  0  0  0  0
 40 28  1  0  0  0  0
 41 28  1  0  0  0  0
 43 31  1  0  0  0  0
 44 32  1  0  0  0  0
 45 33  1  0  0  0  0
M  END
$$$$
