NAI.pdb
 OpenBabel07022418083D

 45 44  0  0  1  0  0  0  0  0999 V2000
    4.1070   -5.6730   -2.1230 N   0  0  0  0  0  0  0  0  0  0  0  0
    3.7460   -4.6080   -1.2790 C   0  0  0  0  0  0  0  0  0  0  0  0
    4.4610   -4.3100   -0.2980 O   0  0  0  0  0  0  0  0  0  0  0  0
    2.5160   -3.8390   -1.5540 C   0  0  0  0  0  0  0  0  0  0  0  0
    2.3000   -2.7370   -0.5390 C   0  0  2  0  0  0  0  0  0  0  0  0
    2.1810   -3.2790    0.8010 N   0  0  0  0  0  0  0  0  0  0  0  0
    1.0560   -2.0210   -0.9460 C   0  0  0  0  0  0  0  0  0  0  0  0
    1.0300   -1.5060   -2.0840 O   0  0  0  0  0  0  0  0  0  0  0  0
    3.8810   -5.6220   -3.1320 H   0  0  0  0  0  0  0  0  0  0  0  0
    4.5930   -6.4960   -1.7320 H   0  0  0  0  0  0  0  0  0  0  0  0
    1.6030   -4.4700   -1.5340 H   0  0  0  0  0  0  0  0  0  0  0  0
    2.5390   -3.3490   -2.5490 H   0  0  0  0  0  0  0  0  0  0  0  0
    3.1710   -2.0320   -0.5300 H   0  0  0  0  0  0  0  0  0  0  0  0
    3.0780   -3.2790    1.3140 H   0  0  0  0  0  0  0  0  0  0  0  0
    1.7330   -4.2180    0.7480 H   0  0  0  0  0  0  0  0  0  0  0  0
   -2.4670   -2.1790   -0.4780 C   0  0  0  0  0  0  0  0  0  0  0  0
   -1.2900   -1.2180   -0.4770 C   0  0  2  0  0  0  0  0  0  0  0  0
   -0.0730   -1.9050   -0.1110 N   0  0  0  0  0  0  0  0  0  0  0  0
   -1.5990   -0.1100    0.4680 C   0  0  0  0  0  0  0  0  0  0  0  0
   -2.6310    0.5750    0.2720 O   0  0  0  0  0  0  0  0  0  0  0  0
   -2.4120   -2.8780    0.3980 H   0  0  0  0  0  0  0  0  0  0  0  0
   -3.4010   -1.5980   -0.3660 H   0  0  0  0  0  0  0  0  0  0  0  0
   -2.5250   -2.7650   -1.4090 H   0  0  0  0  0  0  0  0  0  0  0  0
   -1.1630   -0.8230   -1.4950 H   0  0  0  0  0  0  0  0  0  0  0  0
   -0.0290   -2.3430    0.8360 H   0  0  0  0  0  0  0  0  0  0  0  0
    1.4120    2.9430    2.4870 C   0  0  0  0  0  0  0  0  0  0  0  0
    0.3990    2.9590    1.3910 C   0  0  0  0  0  0  0  0  0  0  0  0
   -0.9950    2.6280    1.8790 C   0  0  2  0  0  0  0  0  0  0  0  0
   -1.3620    3.6720    2.9090 C   0  0  0  0  0  0  0  0  0  0  0  0
   -1.1190    1.2790    2.4660 C   0  0  2  0  0  0  0  0  0  0  0  0
   -0.7810    0.2060    1.5770 N   0  0  0  0  0  0  0  0  0  0  0  0
   -2.4900    1.1050    3.0380 C   0  0  0  0  0  0  0  0  0  0  0  0
   -3.2130    0.1040    2.7410 O   0  0  0  0  0  0  0  0  0  0  0  0
   -3.0790    1.9910    3.9170 O   0  0  0  0  0  0  0  0  0  0  0  0
    1.8860    3.9370    2.6220 H   0  0  0  0  0  0  0  0  0  0  0  0
    2.2470    2.2320    2.2860 H   0  0  0  0  0  0  0  0  0  0  0  0
    0.9990    2.6530    3.4770 H   0  0  0  0  0  0  0  0  0  0  0  0
    0.7020    2.3100    0.5390 H   0  0  0  0  0  0  0  0  0  0  0  0
    0.3440    3.9890    0.9790 H   0  0  0  0  0  0  0  0  0  0  0  0
   -1.6660    2.6960    0.9910 H   0  0  0  0  0  0  0  0  0  0  0  0
   -0.7580    4.5820    2.6870 H   0  0  0  0  0  0  0  0  0  0  0  0
   -1.1710    3.2790    3.9170 H   0  0  0  0  0  0  0  0  0  0  0  0
   -2.4600    3.9350    2.8740 H   0  0  0  0  0  0  0  0  0  0  0  0
   -0.4350    1.1930    3.3640 H   0  0  0  0  0  0  0  0  0  0  0  0
    0.0760   -0.3610    1.7320 H   0  0  0  0  0  0  0  0  0  0  0  0
  1 10  1  0  0  0  0
  1  2  1  0  0  0  0
  2  3  2  0  0  0  0
  4 11  1  0  0  0  0
  4  2  1  0  0  0  0
  4  5  1  0  0  0  0
  5 13  1  6  0  0  0
  5  6  1  0  0  0  0
  6 14  1  0  0  0  0
  7  5  1  0  0  0  0
  7 18  1  0  0  0  0
  8  7  2  0  0  0  0
  9  1  1  0  0  0  0
 12  4  1  0  0  0  0
 15  6  1  0  0  0  0
 16 17  1  0  0  0  0
 16 22  1  0  0  0  0
 16 21  1  0  0  0  0
 17 24  1  6  0  0  0
 17 18  1  0  0  0  0
 17 19  1  0  0  0  0
 18 25  1  0  0  0  0
 19 31  1  0  0  0  0
 20 19  2  0  0  0  0
 23 16  1  0  0  0  0
 26 35  1  0  0  0  0
 26 37  1  0  0  0  0
 27 28  1  0  0  0  0
 27 26  1  0  0  0  0
 28 40  1  6  0  0  0
 28 30  1  0  0  0  0
 28 29  1  0  0  0  0
 29 42  1  0  0  0  0
 30 32  1  0  0  0  0
 30 44  1  1  0  0  0
 31 45  1  0  0  0  0
 31 30  1  0  0  0  0
 32 34  1  0  0  0  0
 33 32  2  0  0  0  0
 36 26  1  0  0  0  0
 38 27  1  0  0  0  0
 39 27  1  0  0  0  0
 41 29  1  0  0  0  0
 43 29  1  0  0  0  0
M  END
$$$$
