NAK.pdb
 OpenBabel07022418083D

 47 46  0  0  1  0  0  0  0  0999 V2000
    4.3210   -5.0260    1.9420 N   0  0  0  0  0  0  0  0  0  0  0  0
    4.5000   -3.9440    1.0340 C   0  0  0  0  0  0  0  0  0  0  0  0
    5.3750   -4.0340    0.1400 O   0  0  0  0  0  0  0  0  0  0  0  0
    3.6390   -2.7400    1.1790 C   0  0  0  0  0  0  0  0  0  0  0  0
    4.0340   -1.7580    0.1020 C   0  0  2  0  0  0  0  0  0  0  0  0
    5.4090   -1.3640    0.2060 N   0  0  0  0  0  0  0  0  0  0  0  0
    3.1400   -0.5980    0.0200 C   0  0  0  0  0  0  0  0  0  0  0  0
    3.6490    0.5530    0.0480 O   0  0  0  0  0  0  0  0  0  0  0  0
    5.0430   -5.2800    2.6400 H   0  0  0  0  0  0  0  0  0  0  0  0
    3.4440   -5.5900    1.9170 H   0  0  0  0  0  0  0  0  0  0  0  0
    3.8080   -2.3460    2.1960 H   0  0  0  0  0  0  0  0  0  0  0  0
    2.5950   -3.0630    1.0200 H   0  0  0  0  0  0  0  0  0  0  0  0
    3.9320   -2.3160   -0.8740 H   0  0  0  0  0  0  0  0  0  0  0  0
    6.0250   -1.8560   -0.4980 H   0  0  0  0  0  0  0  0  0  0  0  0
    5.7800   -1.4230    1.1650 H   0  0  0  0  0  0  0  0  0  0  0  0
    0.1340    0.4200   -1.4680 C   0  0  0  0  0  0  0  0  0  0  0  0
    0.8900    0.5060   -0.1690 C   0  0  2  0  0  0  0  0  0  0  0  0
    1.7350   -0.6770   -0.0900 N   0  0  0  0  0  0  0  0  0  0  0  0
   -0.0680    0.4640    0.9660 C   0  0  0  0  0  0  0  0  0  0  0  0
   -0.0820   -0.4690    1.8070 O   0  0  0  0  0  0  0  0  0  0  0  0
   -0.5130   -0.4840   -1.4040 H   0  0  0  0  0  0  0  0  0  0  0  0
   -0.5290    1.3050   -1.6050 H   0  0  0  0  0  0  0  0  0  0  0  0
    0.8240    0.2670   -2.3150 H   0  0  0  0  0  0  0  0  0  0  0  0
    1.5190    1.4160   -0.1290 H   0  0  0  0  0  0  0  0  0  0  0  0
    1.3100   -1.6250   -0.1140 H   0  0  0  0  0  0  0  0  0  0  0  0
   -1.0340    1.5250    1.1360 N   0  0  0  0  0  0  0  0  0  0  0  0
   -1.9760    1.5450    2.1980 C   0  0  1  0  0  0  0  0  0  0  0  0
   -2.8530    0.3600    2.3660 C   0  0  0  0  0  0  0  0  0  0  0  0
   -3.7840    0.0200    1.2560 C   0  0  0  0  0  0  0  0  0  0  0  0
   -3.0800   -0.2490   -0.0180 C   0  0  0  0  0  0  0  0  0  0  0  0
   -4.0440   -0.6500   -1.1350 C   0  0  0  0  0  0  0  0  0  0  0  0
   -5.0130    0.3630   -1.4140 N   0  0  0  0  0  0  0  0  0  0  0  0
   -1.3640    1.9600    3.5010 C   0  0  0  0  0  0  0  0  0  0  0  0
   -0.1480    2.2520    3.6120 O   0  0  0  0  0  0  0  0  0  0  0  0
   -2.1490    2.0310    4.6410 O   0  0  0  0  0  0  0  0  0  0  0  0
   -0.9740    2.2850    0.4010 H   0  0  0  0  0  0  0  0  0  0  0  0
   -2.6930    2.4020    1.9450 H   0  0  0  0  0  0  0  0  0  0  0  0
   -2.2740   -0.5780    2.5920 H   0  0  0  0  0  0  0  0  0  0  0  0
   -3.5070    0.4840    3.2900 H   0  0  0  0  0  0  0  0  0  0  0  0
   -4.5040    0.8840    1.1770 H   0  0  0  0  0  0  0  0  0  0  0  0
   -4.3640   -0.8910    1.6160 H   0  0  0  0  0  0  0  0  0  0  0  0
   -2.5410    0.6560   -0.3790 H   0  0  0  0  0  0  0  0  0  0  0  0
   -2.3650   -1.0690    0.1000 H   0  0  0  0  0  0  0  0  0  0  0  0
   -3.4160   -0.8060   -2.0360 H   0  0  0  0  0  0  0  0  0  0  0  0
   -4.5390   -1.5990   -0.8630 H   0  0  0  0  0  0  0  0  0  0  0  0
   -5.9770   -0.0030   -1.5550 H   0  0  0  0  0  0  0  0  0  0  0  0
   -4.7070    1.0430   -2.1380 H   0  0  0  0  0  0  0  0  0  0  0  0
  1  9  1  0  0  0  0
  2  4  1  0  0  0  0
  2  1  1  0  0  0  0
  3  2  2  0  0  0  0
  4 11  1  0  0  0  0
  5 13  1  6  0  0  0
  5  6  1  0  0  0  0
  5  4  1  0  0  0  0
  6 15  1  0  0  0  0
  7  8  2  0  0  0  0
  7  5  1  0  0  0  0
 10  1  1  0  0  0  0
 12  4  1  0  0  0  0
 14  6  1  0  0  0  0
 16 21  1  0  0  0  0
 16 17  1  0  0  0  0
 17 24  1  1  0  0  0
 17 18  1  0  0  0  0
 17 19  1  0  0  0  0
 18  7  1  0  0  0  0
 19 26  1  0  0  0  0
 19 20  2  0  0  0  0
 22 16  1  0  0  0  0
 23 16  1  0  0  0  0
 25 18  1  0  0  0  0
 26 27  1  0  0  0  0
 27 37  1  6  0  0  0
 27 28  1  0  0  0  0
 27 33  1  0  0  0  0
 28 38  1  0  0  0  0
 28 39  1  0  0  0  0
 29 41  1  0  0  0  0
 29 28  1  0  0  0  0
 30 43  1  0  0  0  0
 30 29  1  0  0  0  0
 31 45  1  0  0  0  0
 31 30  1  0  0  0  0
 32 31  1  0  0  0  0
 33 34  2  0  0  0  0
 33 35  1  0  0  0  0
 36 26  1  0  0  0  0
 40 29  1  0  0  0  0
 42 30  1  0  0  0  0
 44 31  1  0  0  0  0
 46 32  1  0  0  0  0
 47 32  1  0  0  0  0
M  END
$$$$
