NAS.pdb
 OpenBabel07022418083D

 37 36  0  0  1  0  0  0  0  0999 V2000
    3.5340   -5.4500    3.1130 N   0  0  0  0  0  0  0  0  0  0  0  0
    2.7460   -5.2780    1.9590 C   0  0  0  0  0  0  0  0  0  0  0  0
    2.0690   -6.2250    1.5200 O   0  0  0  0  0  0  0  0  0  0  0  0
    2.7210   -3.9770    1.2700 C   0  0  0  0  0  0  0  0  0  0  0  0
    1.5150   -3.1620    1.7370 C   0  0  2  0  0  0  0  0  0  0  0  0
    0.2810   -3.8310    1.4630 N   0  0  0  0  0  0  0  0  0  0  0  0
    1.5470   -1.8000    1.1490 C   0  0  0  0  0  0  0  0  0  0  0  0
    2.5180   -1.0280    1.2680 O   0  0  0  0  0  0  0  0  0  0  0  0
    4.5710   -5.6280    3.0740 H   0  0  0  0  0  0  0  0  0  0  0  0
    3.0280   -5.3920    4.0470 H   0  0  0  0  0  0  0  0  0  0  0  0
    2.6620   -4.0840    0.1600 H   0  0  0  0  0  0  0  0  0  0  0  0
    3.6510   -3.4350    1.4750 H   0  0  0  0  0  0  0  0  0  0  0  0
    1.6060   -3.0160    2.8510 H   0  0  0  0  0  0  0  0  0  0  0  0
    0.2290   -4.7270    1.9750 H   0  0  0  0  0  0  0  0  0  0  0  0
    0.2060   -3.9900    0.4390 H   0  0  0  0  0  0  0  0  0  0  0  0
    0.2990   -0.1690   -1.6630 C   0  0  0  0  0  0  0  0  0  0  0  0
    0.4570    0.0130   -0.1670 C   0  0  2  0  0  0  0  0  0  0  0  0
    0.4180   -1.3370    0.4080 N   0  0  0  0  0  0  0  0  0  0  0  0
   -0.7140    0.8080    0.3090 C   0  0  0  0  0  0  0  0  0  0  0  0
   -1.5730    0.3150    1.0970 O   0  0  0  0  0  0  0  0  0  0  0  0
   -0.4670   -0.9550   -1.8200 H   0  0  0  0  0  0  0  0  0  0  0  0
    0.0730    0.7690   -2.1960 H   0  0  0  0  0  0  0  0  0  0  0  0
    1.2560   -0.6150   -2.0480 H   0  0  0  0  0  0  0  0  0  0  0  0
    1.3980    0.5170    0.0620 H   0  0  0  0  0  0  0  0  0  0  0  0
   -0.4190   -1.9470    0.2810 H   0  0  0  0  0  0  0  0  0  0  0  0
   -0.8940    3.5840    2.3180 O   0  0  0  0  0  0  0  0  0  0  0  0
   -1.5950    4.0810    1.2160 C   0  0  0  0  0  0  0  0  0  0  0  0
   -2.0330    2.9130    0.3520 C   0  0  2  0  0  0  0  0  0  0  0  0
   -0.8910    2.1510   -0.1170 N   0  0  0  0  0  0  0  0  0  0  0  0
   -2.8770    3.3430   -0.7720 C   0  0  0  0  0  0  0  0  0  0  0  0
   -2.6200    3.0680   -1.9730 O   0  0  0  0  0  0  0  0  0  0  0  0
   -4.0200    4.0910   -0.5260 O   0  0  0  0  0  0  0  0  0  0  0  0
   -0.1300    4.1820    2.5430 H   0  0  0  0  0  0  0  0  0  0  0  0
   -0.9740    4.7620    0.6280 H   0  0  0  0  0  0  0  0  0  0  0  0
   -2.4830    4.6180    1.6040 H   0  0  0  0  0  0  0  0  0  0  0  0
   -2.6560    2.2760    1.0150 H   0  0  0  0  0  0  0  0  0  0  0  0
   -0.1800    2.5720   -0.7740 H   0  0  0  0  0  0  0  0  0  0  0  0
  1 10  1  0  0  0  0
  2  1  1  0  0  0  0
  3  2  2  0  0  0  0
  4 12  1  0  0  0  0
  4  5  1  0  0  0  0
  4  2  1  0  0  0  0
  5 13  1  1  0  0  0
  6  5  1  0  0  0  0
  6 14  1  0  0  0  0
  7  8  2  0  0  0  0
  7  5  1  0  0  0  0
  9  1  1  0  0  0  0
 11  4  1  0  0  0  0
 15  6  1  0  0  0  0
 16 17  1  0  0  0  0
 17 24  1  1  0  0  0
 17 19  1  0  0  0  0
 17 18  1  0  0  0  0
 18  7  1  0  0  0  0
 19 20  2  0  0  0  0
 21 16  1  0  0  0  0
 22 16  1  0  0  0  0
 23 16  1  0  0  0  0
 25 18  1  0  0  0  0
 26 33  1  0  0  0  0
 27 35  1  0  0  0  0
 27 26  1  0  0  0  0
 28 36  1  1  0  0  0
 28 27  1  0  0  0  0
 29 19  1  0  0  0  0
 29 28  1  0  0  0  0
 30 32  1  0  0  0  0
 30 28  1  0  0  0  0
 31 30  2  0  0  0  0
 34 27  1  0  0  0  0
 37 29  1  0  0  0  0
M  END
$$$$
