NAW.pdb
 OpenBabel07022418083D

 50 51  0  0  1  0  0  0  0  0999 V2000
    6.2340   -1.4890    2.2620 N   0  0  0  0  0  0  0  0  0  0  0  0
    6.5220   -0.6780    1.1270 C   0  0  0  0  0  0  0  0  0  0  0  0
    6.9960    0.4640    1.3240 O   0  0  0  0  0  0  0  0  0  0  0  0
    6.2810   -1.1400   -0.2600 C   0  0  0  0  0  0  0  0  0  0  0  0
    5.0090   -0.5370   -0.8180 C   0  0  2  0  0  0  0  0  0  0  0  0
    5.1360    0.8860   -0.8140 N   0  0  0  0  0  0  0  0  0  0  0  0
    3.8910   -1.0450    0.0300 C   0  0  0  0  0  0  0  0  0  0  0  0
    3.7320   -2.2790    0.0810 O   0  0  0  0  0  0  0  0  0  0  0  0
    6.8560   -1.4140    3.0950 H   0  0  0  0  0  0  0  0  0  0  0  0
    5.4340   -2.1510    2.3000 H   0  0  0  0  0  0  0  0  0  0  0  0
    6.1690   -2.2610   -0.1960 H   0  0  0  0  0  0  0  0  0  0  0  0
    7.1610   -0.9470   -0.9150 H   0  0  0  0  0  0  0  0  0  0  0  0
    4.8770   -0.9500   -1.8430 H   0  0  0  0  0  0  0  0  0  0  0  0
    5.0960    1.2100    0.1760 H   0  0  0  0  0  0  0  0  0  0  0  0
    4.3600    1.3130   -1.3470 H   0  0  0  0  0  0  0  0  0  0  0  0
    2.2030   -0.3370    3.0150 C   0  0  0  0  0  0  0  0  0  0  0  0
    1.9400   -0.6980    1.5840 C   0  0  2  0  0  0  0  0  0  0  0  0
    3.0200   -0.2190    0.7630 N   0  0  0  0  0  0  0  0  0  0  0  0
    0.6130   -0.2990    1.0950 C   0  0  0  0  0  0  0  0  0  0  0  0
    0.4310    0.3860    0.0580 O   0  0  0  0  0  0  0  0  0  0  0  0
    2.9650    0.4560    3.1480 H   0  0  0  0  0  0  0  0  0  0  0  0
    2.5810   -1.2110    3.6090 H   0  0  0  0  0  0  0  0  0  0  0  0
    1.2860    0.0360    3.5150 H   0  0  0  0  0  0  0  0  0  0  0  0
    1.9490   -1.8280    1.5340 H   0  0  0  0  0  0  0  0  0  0  0  0
    3.1700    0.8140    0.7060 H   0  0  0  0  0  0  0  0  0  0  0  0
   -0.5370   -0.7030    1.8250 N   0  0  0  0  0  0  0  0  0  0  0  0
   -1.8900   -0.3450    1.3970 C   0  0  1  0  0  0  0  0  0  0  0  0
   -2.6860   -1.6370    1.2600 C   0  0  0  0  0  0  0  0  0  0  0  0
   -4.0810   -1.3540    0.8240 C   0  0  0  0  0  0  0  0  0  0  0  0
   -5.2270   -1.3660    1.5860 C   0  0  0  0  0  0  0  0  0  0  0  0
   -6.2450   -1.0520    0.7810 N   0  0  0  0  0  0  0  0  0  0  0  0
   -5.8370   -0.8320   -0.4740 C   0  0  0  0  0  0  0  0  0  0  0  0
   -6.4690   -0.4840   -1.6730 C   0  0  0  0  0  0  0  0  0  0  0  0
   -5.7270   -0.3300   -2.8370 C   0  0  0  0  0  0  0  0  0  0  0  0
   -4.3500   -0.5190   -2.8230 C   0  0  0  0  0  0  0  0  0  0  0  0
   -3.7680   -0.8590   -1.6300 C   0  0  0  0  0  0  0  0  0  0  0  0
   -4.4760   -1.0220   -0.4500 C   0  0  0  0  0  0  0  0  0  0  0  0
   -2.5290    0.4250    2.4900 C   0  0  0  0  0  0  0  0  0  0  0  0
   -3.7030    0.8440    2.3520 O   0  0  0  0  0  0  0  0  0  0  0  0
   -1.8750    0.7070    3.6760 O   0  0  0  0  0  0  0  0  0  0  0  0
   -0.4070   -1.2720    2.6930 H   0  0  0  0  0  0  0  0  0  0  0  0
   -1.8900    0.2300    0.4730 H   0  0  0  0  0  0  0  0  0  0  0  0
   -2.6400   -2.2150    2.1830 H   0  0  0  0  0  0  0  0  0  0  0  0
   -2.2060   -2.2170    0.4530 H   0  0  0  0  0  0  0  0  0  0  0  0
   -5.2720   -1.5960    2.6640 H   0  0  0  0  0  0  0  0  0  0  0  0
   -7.2450   -0.9800    1.0710 H   0  0  0  0  0  0  0  0  0  0  0  0
   -7.5510   -0.3350   -1.6870 H   0  0  0  0  0  0  0  0  0  0  0  0
   -6.2220   -0.0580   -3.7710 H   0  0  0  0  0  0  0  0  0  0  0  0
   -3.7740   -0.3950   -3.7470 H   0  0  0  0  0  0  0  0  0  0  0  0
   -2.6960   -1.0110   -1.6020 H   0  0  0  0  0  0  0  0  0  0  0  0
  1 10  1  0  0  0  0
  1  9  1  0  0  0  0
  2  3  2  0  0  0  0
  2  1  1  0  0  0  0
  4 11  1  0  0  0  0
  4  2  1  0  0  0  0
  5 13  1  6  0  0  0
  5  6  1  0  0  0  0
  5  4  1  0  0  0  0
  5  7  1  0  0  0  0
  6 14  1  0  0  0  0
  7  8  2  0  0  0  0
  7 18  1  0  0  0  0
 12  4  1  0  0  0  0
 15  6  1  0  0  0  0
 16 21  1  0  0  0  0
 16 23  1  0  0  0  0
 16 22  1  0  0  0  0
 17 24  1  6  0  0  0
 17 16  1  0  0  0  0
 18 17  1  0  0  0  0
 19 17  1  0  0  0  0
 19 26  1  0  0  0  0
 20 19  2  0  0  0  0
 25 18  1  0  0  0  0
 26 41  1  0  0  0  0
 27 42  1  6  0  0  0
 27 26  1  0  0  0  0
 27 38  1  0  0  0  0
 28 27  1  0  0  0  0
 28 43  1  0  0  0  0
 29 28  1  0  0  0  0
 29 30  2  0  0  0  0
 30 45  1  0  0  0  0
 31 46  1  0  0  0  0
 31 30  1  0  0  0  0
 32 37  1  0  0  0  0
 32 31  1  0  0  0  0
 33 32  2  0  0  0  0
 34 35  2  0  0  0  0
 34 33  1  0  0  0  0
 35 36  1  0  0  0  0
 36 50  1  0  0  0  0
 36 37  2  0  0  0  0
 37 29  1  0  0  0  0
 38 40  1  0  0  0  0
 39 38  2  0  0  0  0
 44 28  1  0  0  0  0
 47 33  1  0  0  0  0
 48 34  1  0  0  0  0
 49 35  1  0  0  0  0
M  END
$$$$
