NCD.pdb
 OpenBabel07022418093D

 40 39  0  0  1  0  0  0  0  0999 V2000
   -0.3090   -4.5770   -2.1020 N   0  0  0  0  0  0  0  0  0  0  0  0
    0.9640   -4.0320   -1.7730 C   0  0  0  0  0  0  0  0  0  0  0  0
    1.9620   -4.3840   -2.4200 O   0  0  0  0  0  0  0  0  0  0  0  0
    1.0580   -3.0540   -0.6600 C   0  0  0  0  0  0  0  0  0  0  0  0
    2.5000   -2.6400   -0.5240 C   0  0  2  0  0  0  0  0  0  0  0  0
    3.3060   -3.8020   -0.2380 N   0  0  0  0  0  0  0  0  0  0  0  0
    2.7000   -1.6180    0.5300 C   0  0  0  0  0  0  0  0  0  0  0  0
    3.4860   -1.8550    1.4880 O   0  0  0  0  0  0  0  0  0  0  0  0
   -1.0480   -4.0860   -2.6230 H   0  0  0  0  0  0  0  0  0  0  0  0
   -0.4820   -5.5660   -1.7710 H   0  0  0  0  0  0  0  0  0  0  0  0
    0.6700   -3.5680    0.2450 H   0  0  0  0  0  0  0  0  0  0  0  0
    0.4010   -2.1800   -0.8230 H   0  0  0  0  0  0  0  0  0  0  0  0
    2.8200   -2.2260   -1.5000 H   0  0  0  0  0  0  0  0  0  0  0  0
    4.3080   -3.4510   -0.1680 H   0  0  0  0  0  0  0  0  0  0  0  0
    3.0430   -4.2070    0.7000 H   0  0  0  0  0  0  0  0  0  0  0  0
    2.0520   -0.3650    0.5320 N   0  0  0  0  0  0  0  0  0  0  0  0
    2.2700    0.6140    1.5800 C   0  0  1  0  0  0  0  0  0  0  0  0
    2.8450    1.8490    0.8820 C   0  0  0  0  0  0  0  0  0  0  0  0
    3.1760    3.1720    2.0490 S   0  0  0  0  0  0  0  0  0  0  0  0
    0.9620    1.0420    2.1570 C   0  0  0  0  0  0  0  0  0  0  0  0
    0.9020    1.8960    3.0870 O   0  0  0  0  0  0  0  0  0  0  0  0
    1.4050   -0.1270   -0.2250 H   0  0  0  0  0  0  0  0  0  0  0  0
    2.9800    0.2550    2.3470 H   0  0  0  0  0  0  0  0  0  0  0  0
    3.7190    1.5730    0.2580 H   0  0  0  0  0  0  0  0  0  0  0  0
    2.0560    2.1790    0.1660 H   0  0  0  0  0  0  0  0  0  0  0  0
    2.8040    4.4200    1.4920 H   0  0  0  0  0  0  0  0  0  0  0  0
   -0.2790    0.5220    1.7010 N   0  0  0  0  0  0  0  0  0  0  0  0
   -1.5650    0.9710    2.2960 C   0  0  1  0  0  0  0  0  0  0  0  0
   -2.4300    1.5720    1.2470 C   0  0  0  0  0  0  0  0  0  0  0  0
   -3.6860    2.0730    1.7970 C   0  0  0  0  0  0  0  0  0  0  0  0
   -3.9320    2.1110    3.0130 O   0  0  0  0  0  0  0  0  0  0  0  0
   -2.1910   -0.2030    2.9630 C   0  0  0  0  0  0  0  0  0  0  0  0
   -3.2660   -0.2200    3.5840 O   0  0  0  0  0  0  0  0  0  0  0  0
   -4.6690    2.5340    0.9310 O   0  0  0  0  0  0  0  0  0  0  0  0
   -1.5220   -1.4480    2.9080 O   0  0  0  0  0  0  0  0  0  0  0  0
   -0.2710   -0.1840    0.9350 H   0  0  0  0  0  0  0  0  0  0  0  0
   -1.3070    1.7070    3.0630 H   0  0  0  0  0  0  0  0  0  0  0  0
   -1.8740    2.4040    0.7510 H   0  0  0  0  0  0  0  0  0  0  0  0
   -2.6240    0.8360    0.4200 H   0  0  0  0  0  0  0  0  0  0  0  0
   -5.3330    3.2590    1.1740 H   0  0  0  0  0  0  0  0  0  0  0  0
  1  2  1  0  0  0  0
  1 10  1  0  0  0  0
  2  4  1  0  0  0  0
  3  2  2  0  0  0  0
  4  5  1  0  0  0  0
  4 11  1  0  0  0  0
  5 13  1  6  0  0  0
  5  6  1  0  0  0  0
  5  7  1  0  0  0  0
  6 14  1  0  0  0  0
  6 15  1  0  0  0  0
  7 16  1  0  0  0  0
  7  8  2  0  0  0  0
  9  1  1  0  0  0  0
 12  4  1  0  0  0  0
 16 17  1  0  0  0  0
 17 20  1  0  0  0  0
 17 23  1  1  0  0  0
 18 17  1  0  0  0  0
 18 19  1  0  0  0  0
 20 21  2  0  0  0  0
 22 16  1  0  0  0  0
 24 18  1  0  0  0  0
 25 18  1  0  0  0  0
 26 19  1  0  0  0  0
 27 20  1  0  0  0  0
 27 28  1  0  0  0  0
 28 32  1  0  0  0  0
 28 37  1  1  0  0  0
 29 30  1  0  0  0  0
 29 28  1  0  0  0  0
 30 31  2  0  0  0  0
 32 33  1  0  0  0  0
 34 40  1  0  0  0  0
 34 30  1  0  0  0  0
 35 32  2  0  0  0  0
 36 27  1  0  0  0  0
 38 29  1  0  0  0  0
 39 29  1  0  0  0  0
M  END
$$$$
