NCF.pdb
 OpenBabel07022418093D

 47 47  0  0  1  0  0  0  0  0999 V2000
    2.2830   -0.9050    6.6460 N   0  0  0  0  0  0  0  0  0  0  0  0
    1.5650   -0.4480    5.5120 C   0  0  0  0  0  0  0  0  0  0  0  0
    0.3680   -0.1300    5.6750 O   0  0  0  0  0  0  0  0  0  0  0  0
    2.2820   -0.3820    4.2230 C   0  0  0  0  0  0  0  0  0  0  0  0
    1.3920    0.1210    3.1060 C   0  0  2  0  0  0  0  0  0  0  0  0
    0.2850   -0.8120    3.0020 N   0  0  0  0  0  0  0  0  0  0  0  0
    2.1010    0.1220    1.8030 C   0  0  0  0  0  0  0  0  0  0  0  0
    3.1000    0.8680    1.6750 O   0  0  0  0  0  0  0  0  0  0  0  0
    2.8990   -1.7290    6.5690 H   0  0  0  0  0  0  0  0  0  0  0  0
    2.1890   -0.4140    7.5450 H   0  0  0  0  0  0  0  0  0  0  0  0
    3.1800    0.2700    4.3480 H   0  0  0  0  0  0  0  0  0  0  0  0
    2.6430   -1.3820    3.9350 H   0  0  0  0  0  0  0  0  0  0  0  0
    1.0060    1.1350    3.3670 H   0  0  0  0  0  0  0  0  0  0  0  0
    0.6360   -1.7840    2.8680 H   0  0  0  0  0  0  0  0  0  0  0  0
   -0.3500   -0.4680    2.2760 H   0  0  0  0  0  0  0  0  0  0  0  0
    1.6900   -0.6760    0.7310 N   0  0  0  0  0  0  0  0  0  0  0  0
    2.3460   -0.7110   -0.5610 C   0  0  1  0  0  0  0  0  0  0  0  0
    2.9110   -2.0910   -0.8140 C   0  0  0  0  0  0  0  0  0  0  0  0
    4.1140   -2.5670    0.4310 S   0  0  0  0  0  0  0  0  0  0  0  0
    1.3890   -0.3620   -1.6430 C   0  0  0  0  0  0  0  0  0  0  0  0
    1.8060   -0.3480   -2.8310 O   0  0  0  0  0  0  0  0  0  0  0  0
    0.8600   -1.2880    0.8540 H   0  0  0  0  0  0  0  0  0  0  0  0
    3.2090   -0.0090   -0.5340 H   0  0  0  0  0  0  0  0  0  0  0  0
    3.4160   -2.1090   -1.8010 H   0  0  0  0  0  0  0  0  0  0  0  0
    2.1130   -2.8600   -0.8540 H   0  0  0  0  0  0  0  0  0  0  0  0
    5.3080   -1.8460    0.2430 H   0  0  0  0  0  0  0  0  0  0  0  0
    0.0370   -0.0500   -1.3450 N   0  0  0  0  0  0  0  0  0  0  0  0
   -0.9160    0.2900   -2.3490 C   0  0  1  0  0  0  0  0  0  0  0  0
   -2.0530   -0.6900   -2.4630 C   0  0  0  0  0  0  0  0  0  0  0  0
   -2.8430   -0.8420   -1.2480 C   0  0  0  0  0  0  0  0  0  0  0  0
   -3.9600   -0.0850   -0.9320 C   0  0  0  0  0  0  0  0  0  0  0  0
   -4.6580   -0.2950    0.2490 C   0  0  0  0  0  0  0  0  0  0  0  0
   -4.2590   -1.2550    1.1310 C   0  0  0  0  0  0  0  0  0  0  0  0
   -3.1620   -2.0170    0.8470 C   0  0  0  0  0  0  0  0  0  0  0  0
   -2.4780   -1.8020   -0.3250 C   0  0  0  0  0  0  0  0  0  0  0  0
   -1.4270    1.6770   -2.2340 C   0  0  0  0  0  0  0  0  0  0  0  0
   -2.2730    2.0730   -3.0720 O   0  0  0  0  0  0  0  0  0  0  0  0
   -1.0440    2.5870   -1.2640 O   0  0  0  0  0  0  0  0  0  0  0  0
   -0.2560   -0.0760   -0.3470 H   0  0  0  0  0  0  0  0  0  0  0  0
   -0.3800    0.2530   -3.3420 H   0  0  0  0  0  0  0  0  0  0  0  0
   -2.6930   -0.3480   -3.3100 H   0  0  0  0  0  0  0  0  0  0  0  0
   -1.6620   -1.6880   -2.7570 H   0  0  0  0  0  0  0  0  0  0  0  0
   -4.2590    0.6620   -1.6340 H   0  0  0  0  0  0  0  0  0  0  0  0
   -5.5380    0.2980    0.5020 H   0  0  0  0  0  0  0  0  0  0  0  0
   -4.7900   -1.4450    2.0740 H   0  0  0  0  0  0  0  0  0  0  0  0
   -2.8110   -2.7930    1.5240 H   0  0  0  0  0  0  0  0  0  0  0  0
   -1.6110   -2.4110   -0.5380 H   0  0  0  0  0  0  0  0  0  0  0  0
  1 10  1  0  0  0  0
  2  3  2  0  0  0  0
  2  1  1  0  0  0  0
  4 11  1  0  0  0  0
  4  2  1  0  0  0  0
  5 13  1  1  0  0  0
  5  4  1  0  0  0  0
  6  5  1  0  0  0  0
  7  5  1  0  0  0  0
  8  7  2  0  0  0  0
  9  1  1  0  0  0  0
 12  4  1  0  0  0  0
 14  6  1  0  0  0  0
 15  6  1  0  0  0  0
 16 22  1  0  0  0  0
 16  7  1  0  0  0  0
 17 23  1  6  0  0  0
 17 16  1  0  0  0  0
 18 17  1  0  0  0  0
 18 19  1  0  0  0  0
 20 27  1  0  0  0  0
 20 17  1  0  0  0  0
 21 20  2  0  0  0  0
 24 18  1  0  0  0  0
 25 18  1  0  0  0  0
 26 19  1  0  0  0  0
 27 39  1  0  0  0  0
 28 40  1  6  0  0  0
 28 36  1  0  0  0  0
 28 27  1  0  0  0  0
 29 28  1  0  0  0  0
 29 30  1  0  0  0  0
 30 31  2  0  0  0  0
 30 35  1  0  0  0  0
 31 32  1  0  0  0  0
 32 44  1  0  0  0  0
 32 33  2  0  0  0  0
 33 45  1  0  0  0  0
 34 33  1  0  0  0  0
 34 46  1  0  0  0  0
 35 34  2  0  0  0  0
 36 38  1  0  0  0  0
 37 36  2  0  0  0  0
 41 29  1  0  0  0  0
 42 29  1  0  0  0  0
 43 31  1  0  0  0  0
 47 35  1  0  0  0  0
M  END
$$$$
