NCG.pdb
 OpenBabel07022418093D

 34 33  0  0  1  0  0  0  0  0999 V2000
   -2.7620   -1.7960    1.9210 N   0  0  0  0  0  0  0  0  0  0  0  0
   -1.3810   -1.9570    2.2110 C   0  0  0  0  0  0  0  0  0  0  0  0
   -0.8870   -1.4610    3.2390 O   0  0  0  0  0  0  0  0  0  0  0  0
   -0.5100   -2.7220    1.2830 C   0  0  0  0  0  0  0  0  0  0  0  0
    0.9080   -2.7880    1.7460 C   0  0  2  0  0  0  0  0  0  0  0  0
    1.0370   -3.4240    3.0370 N   0  0  0  0  0  0  0  0  0  0  0  0
    1.5590   -1.4450    1.7310 C   0  0  0  0  0  0  0  0  0  0  0  0
    2.1360   -0.9680    2.7510 O   0  0  0  0  0  0  0  0  0  0  0  0
   -3.2250   -0.8710    1.8990 H   0  0  0  0  0  0  0  0  0  0  0  0
   -3.3170   -2.6550    1.7250 H   0  0  0  0  0  0  0  0  0  0  0  0
   -0.5380   -2.2390    0.2900 H   0  0  0  0  0  0  0  0  0  0  0  0
   -0.8860   -3.7550    1.1440 H   0  0  0  0  0  0  0  0  0  0  0  0
    1.4690   -3.4160    1.0230 H   0  0  0  0  0  0  0  0  0  0  0  0
    0.0700   -3.6340    3.3860 H   0  0  0  0  0  0  0  0  0  0  0  0
    1.5410   -4.3400    2.9960 H   0  0  0  0  0  0  0  0  0  0  0  0
    1.5310   -0.6770    0.5360 N   0  0  0  0  0  0  0  0  0  0  0  0
    2.1140    0.6150    0.3930 C   0  0  1  0  0  0  0  0  0  0  0  0
    3.2340    0.5150   -0.6470 C   0  0  0  0  0  0  0  0  0  0  0  0
    2.5200   -0.0370   -2.2060 S   0  0  0  0  0  0  0  0  0  0  0  0
    1.1920    1.6730   -0.0000 C   0  0  0  0  0  0  0  0  0  0  0  0
    1.6300    2.8380   -0.1470 O   0  0  0  0  0  0  0  0  0  0  0  0
    1.0480   -1.0960   -0.2890 H   0  0  0  0  0  0  0  0  0  0  0  0
    2.5810    0.8980    1.3670 H   0  0  0  0  0  0  0  0  0  0  0  0
    3.9320   -0.2730   -0.2830 H   0  0  0  0  0  0  0  0  0  0  0  0
    3.7190    1.4960   -0.7890 H   0  0  0  0  0  0  0  0  0  0  0  0
    1.1410   -0.2290   -2.1330 H   0  0  0  0  0  0  0  0  0  0  0  0
   -0.1860    1.4380   -0.2260 N   0  0  0  0  0  0  0  0  0  0  0  0
   -1.0720    2.5010   -0.6130 C   0  0  0  0  0  0  0  0  0  0  0  0
   -2.4610    2.0630   -0.8000 C   0  0  0  0  0  0  0  0  0  0  0  0
   -3.3110    2.9210   -1.1390 O   0  0  0  0  0  0  0  0  0  0  0  0
   -2.8910    0.7570   -0.6240 O   0  0  0  0  0  0  0  0  0  0  0  0
   -0.5270    0.4620   -0.0980 H   0  0  0  0  0  0  0  0  0  0  0  0
   -0.7260    2.9160   -1.5980 H   0  0  0  0  0  0  0  0  0  0  0  0
   -1.0690    3.3480    0.0870 H   0  0  0  0  0  0  0  0  0  0  0  0
  1  2  1  0  0  0  0
  2  3  2  0  0  0  0
  4  5  1  0  0  0  0
  4  2  1  0  0  0  0
  5 13  1  6  0  0  0
  5  6  1  0  0  0  0
  6 14  1  0  0  0  0
  7  5  1  0  0  0  0
  7  8  2  0  0  0  0
  9  1  1  0  0  0  0
 10  1  1  0  0  0  0
 11  4  1  0  0  0  0
 12  4  1  0  0  0  0
 15  6  1  0  0  0  0
 16  7  1  0  0  0  0
 17 16  1  0  0  0  0
 17 23  1  1  0  0  0
 18 24  1  0  0  0  0
 18 17  1  0  0  0  0
 19 26  1  0  0  0  0
 19 18  1  0  0  0  0
 20 17  1  0  0  0  0
 21 20  2  0  0  0  0
 22 16  1  0  0  0  0
 25 18  1  0  0  0  0
 27 32  1  0  0  0  0
 27 20  1  0  0  0  0
 28 27  1  0  0  0  0
 28 34  1  0  0  0  0
 29 31  1  0  0  0  0
 29 28  1  0  0  0  0
 30 29  2  0  0  0  0
 33 28  1  0  0  0  0
M  END
$$$$
