NCH.pdb
 OpenBabel07022418093D

 44 44  0  0  1  0  0  0  0  0999 V2000
    0.0190   -4.6030    0.5380 N   0  0  0  0  0  0  0  0  0  0  0  0
    0.5270   -3.4170   -0.0960 C   0  0  0  0  0  0  0  0  0  0  0  0
   -0.0200   -2.3430    0.2290 O   0  0  0  0  0  0  0  0  0  0  0  0
    1.6250   -3.5710   -1.0540 C   0  0  0  0  0  0  0  0  0  0  0  0
    2.0750   -2.1990   -1.5780 C   0  0  2  0  0  0  0  0  0  0  0  0
    3.1660   -2.4420   -2.5430 N   0  0  0  0  0  0  0  0  0  0  0  0
    2.6120   -1.4860   -0.3990 C   0  0  0  0  0  0  0  0  0  0  0  0
    3.6600   -1.9040    0.1640 O   0  0  0  0  0  0  0  0  0  0  0  0
   -0.7310   -4.5750    1.2770 H   0  0  0  0  0  0  0  0  0  0  0  0
    0.4050   -5.5190    0.2580 H   0  0  0  0  0  0  0  0  0  0  0  0
    2.4870   -4.0330   -0.4890 H   0  0  0  0  0  0  0  0  0  0  0  0
    1.3870   -4.2570   -1.8870 H   0  0  0  0  0  0  0  0  0  0  0  0
    1.2610   -1.7530   -2.1050 H   0  0  0  0  0  0  0  0  0  0  0  0
    2.7240   -2.6520   -3.4540 H   0  0  0  0  0  0  0  0  0  0  0  0
    3.8420   -3.1440   -2.2000 H   0  0  0  0  0  0  0  0  0  0  0  0
    1.9700   -0.3280    0.1110 N   0  0  0  0  0  0  0  0  0  0  0  0
    2.4900    0.3850    1.2780 C   0  0  1  0  0  0  0  0  0  0  0  0
    3.2140    1.6170    0.7270 C   0  0  0  0  0  0  0  0  0  0  0  0
    3.9250    2.6220    2.0350 S   0  0  0  0  0  0  0  0  0  0  0  0
    1.4390    0.7810    2.2320 C   0  0  0  0  0  0  0  0  0  0  0  0
    1.7720    1.3220    3.3370 O   0  0  0  0  0  0  0  0  0  0  0  0
    1.1290   -0.0090   -0.3910 H   0  0  0  0  0  0  0  0  0  0  0  0
    3.2560   -0.1860    1.7930 H   0  0  0  0  0  0  0  0  0  0  0  0
    2.4980    2.1920    0.1200 H   0  0  0  0  0  0  0  0  0  0  0  0
    4.0400    1.2520    0.0890 H   0  0  0  0  0  0  0  0  0  0  0  0
    4.3610    1.8590    3.1370 H   0  0  0  0  0  0  0  0  0  0  0  0
    0.0340    0.6040    2.0120 N   0  0  0  0  0  0  0  0  0  0  0  0
   -0.9630    0.9920    2.9520 C   0  0  1  0  0  0  0  0  0  0  0  0
   -1.9390    1.9790    2.4230 C   0  0  0  0  0  0  0  0  0  0  0  0
   -2.7550    1.5530    1.2840 C   0  0  0  0  0  0  0  0  0  0  0  0
   -2.8890    0.3960    0.5830 C   0  0  0  0  0  0  0  0  0  0  0  0
   -3.8430    0.5830   -0.3760 N   0  0  0  0  0  0  0  0  0  0  0  0
   -4.2990    1.8350   -0.2770 C   0  0  0  0  0  0  0  0  0  0  0  0
   -3.6430    2.4180    0.7220 N   0  0  0  0  0  0  0  0  0  0  0  0
   -1.7080   -0.1830    3.5050 C   0  0  0  0  0  0  0  0  0  0  0  0
   -2.6280    0.0060    4.3380 O   0  0  0  0  0  0  0  0  0  0  0  0
   -1.4330   -1.4900    3.1390 O   0  0  0  0  0  0  0  0  0  0  0  0
   -0.2170    0.1840    1.1130 H   0  0  0  0  0  0  0  0  0  0  0  0
   -0.5030    1.4680    3.8690 H   0  0  0  0  0  0  0  0  0  0  0  0
   -1.3240    2.8590    2.0530 H   0  0  0  0  0  0  0  0  0  0  0  0
   -2.5500    2.4330    3.2420 H   0  0  0  0  0  0  0  0  0  0  0  0
   -2.3540   -0.5160    0.7530 H   0  0  0  0  0  0  0  0  0  0  0  0
   -4.1340   -0.1400   -1.0430 H   0  0  0  0  0  0  0  0  0  0  0  0
   -5.0770    2.2860   -0.9160 H   0  0  0  0  0  0  0  0  0  0  0  0
  1  9  1  0  0  0  0
  2  3  2  0  0  0  0
  2  1  1  0  0  0  0
  4 11  1  0  0  0  0
  4  2  1  0  0  0  0
  5 13  1  6  0  0  0
  5  4  1  0  0  0  0
  5  7  1  0  0  0  0
  6 15  1  0  0  0  0
  6  5  1  0  0  0  0
  7 16  1  0  0  0  0
  7  8  2  0  0  0  0
 10  1  1  0  0  0  0
 12  4  1  0  0  0  0
 14  6  1  0  0  0  0
 16 17  1  0  0  0  0
 17 23  1  1  0  0  0
 17 20  1  0  0  0  0
 18 17  1  0  0  0  0
 18 19  1  0  0  0  0
 19 26  1  0  0  0  0
 20 21  2  0  0  0  0
 22 16  1  0  0  0  0
 24 18  1  0  0  0  0
 25 18  1  0  0  0  0
 27 20  1  0  0  0  0
 27 28  1  0  0  0  0
 28 35  1  0  0  0  0
 28 39  1  1  0  0  0
 29 28  1  0  0  0  0
 29 41  1  0  0  0  0
 30 29  1  0  0  0  0
 31 42  1  0  0  0  0
 31 30  2  0  0  0  0
 32 33  1  0  0  0  0
 32 31  1  0  0  0  0
 33 34  2  0  0  0  0
 34 30  1  0  0  0  0
 35 36  1  0  0  0  0
 37 35  2  0  0  0  0
 38 27  1  0  0  0  0
 40 29  1  0  0  0  0
 43 32  1  0  0  0  0
 44 33  1  0  0  0  0
M  END
$$$$
