NCI.pdb
 OpenBabel07022418093D

 46 45  0  0  1  0  0  0  0  0999 V2000
    4.9080   -4.8300    1.8750 N   0  0  0  0  0  0  0  0  0  0  0  0
    4.8930   -3.7380    0.9700 C   0  0  0  0  0  0  0  0  0  0  0  0
    5.8830   -3.6600    0.1710 O   0  0  0  0  0  0  0  0  0  0  0  0
    3.7880   -2.7360    0.9490 C   0  0  0  0  0  0  0  0  0  0  0  0
    4.1040   -1.7290   -0.1280 C   0  0  2  0  0  0  0  0  0  0  0  0
    5.3460   -1.0660    0.1300 N   0  0  0  0  0  0  0  0  0  0  0  0
    3.0320   -0.7650   -0.3570 C   0  0  0  0  0  0  0  0  0  0  0  0
    3.2940    0.4610   -0.3060 O   0  0  0  0  0  0  0  0  0  0  0  0
    4.9680   -4.6390    2.8900 H   0  0  0  0  0  0  0  0  0  0  0  0
    4.8610   -5.8110    1.5450 H   0  0  0  0  0  0  0  0  0  0  0  0
    3.7360   -2.2850    1.9540 H   0  0  0  0  0  0  0  0  0  0  0  0
    2.8670   -3.2930    0.6790 H   0  0  0  0  0  0  0  0  0  0  0  0
    4.2290   -2.3230   -1.0790 H   0  0  0  0  0  0  0  0  0  0  0  0
    6.0900   -1.2730   -0.5940 H   0  0  0  0  0  0  0  0  0  0  0  0
    5.7060   -1.2430    1.1010 H   0  0  0  0  0  0  0  0  0  0  0  0
    1.6840   -1.1080   -0.6390 N   0  0  0  0  0  0  0  0  0  0  0  0
    0.6560   -0.0710   -0.8590 C   0  0  1  0  0  0  0  0  0  0  0  0
    0.1810   -0.1800   -2.2920 C   0  0  0  0  0  0  0  0  0  0  0  0
   -1.0670    1.0240   -2.7090 S   0  0  0  0  0  0  0  0  0  0  0  0
   -0.3930   -0.2570    0.1450 C   0  0  0  0  0  0  0  0  0  0  0  0
   -0.2910   -1.2450    0.9480 O   0  0  0  0  0  0  0  0  0  0  0  0
    1.4270   -2.0990   -0.6900 H   0  0  0  0  0  0  0  0  0  0  0  0
    1.1380    0.9200   -0.7600 H   0  0  0  0  0  0  0  0  0  0  0  0
    1.0700   -0.0040   -2.9310 H   0  0  0  0  0  0  0  0  0  0  0  0
   -0.2060   -1.1910   -2.5250 H   0  0  0  0  0  0  0  0  0  0  0  0
   -0.5310    2.3250   -2.7580 H   0  0  0  0  0  0  0  0  0  0  0  0
   -3.3350   -0.2260    4.1500 C   0  0  0  0  0  0  0  0  0  0  0  0
   -3.5800    1.0850    3.4500 C   0  0  0  0  0  0  0  0  0  0  0  0
   -2.5870    1.3790    2.3640 C   0  0  2  0  0  0  0  0  0  0  0  0
   -2.9860    2.7170    1.7530 C   0  0  0  0  0  0  0  0  0  0  0  0
   -2.5320    0.2640    1.3830 C   0  0  2  0  0  0  0  0  0  0  0  0
   -1.5360    0.5620    0.3250 N   0  0  0  0  0  0  0  0  0  0  0  0
   -3.8230    0.0720    0.7150 C   0  0  0  0  0  0  0  0  0  0  0  0
   -4.8460   -0.2710    1.3070 O   0  0  0  0  0  0  0  0  0  0  0  0
   -3.9020    0.2880   -0.6700 O   0  0  0  0  0  0  0  0  0  0  0  0
   -3.3830   -1.0870    3.4790 H   0  0  0  0  0  0  0  0  0  0  0  0
   -4.1770   -0.3500    4.8800 H   0  0  0  0  0  0  0  0  0  0  0  0
   -2.3960   -0.2030    4.7460 H   0  0  0  0  0  0  0  0  0  0  0  0
   -3.5560    1.8890    4.2440 H   0  0  0  0  0  0  0  0  0  0  0  0
   -4.5920    1.0880    3.0280 H   0  0  0  0  0  0  0  0  0  0  0  0
   -1.5930    1.5390    2.8730 H   0  0  0  0  0  0  0  0  0  0  0  0
   -2.1820    3.1750    1.1690 H   0  0  0  0  0  0  0  0  0  0  0  0
   -3.2540    3.3840    2.6110 H   0  0  0  0  0  0  0  0  0  0  0  0
   -3.9000    2.6070    1.1460 H   0  0  0  0  0  0  0  0  0  0  0  0
   -2.1770   -0.6370    1.9020 H   0  0  0  0  0  0  0  0  0  0  0  0
   -1.6520    1.3800   -0.3020 H   0  0  0  0  0  0  0  0  0  0  0  0
  1  9  1  0  0  0  0
  2  1  1  0  0  0  0
  3  2  2  0  0  0  0
  4  2  1  0  0  0  0
  4 11  1  0  0  0  0
  5 13  1  6  0  0  0
  5  6  1  0  0  0  0
  5  4  1  0  0  0  0
  6 15  1  0  0  0  0
  7  8  2  0  0  0  0
  7  5  1  0  0  0  0
 10  1  1  0  0  0  0
 12  4  1  0  0  0  0
 14  6  1  0  0  0  0
 16  7  1  0  0  0  0
 17 23  1  1  0  0  0
 17 16  1  0  0  0  0
 17 20  1  0  0  0  0
 18 17  1  0  0  0  0
 19 18  1  0  0  0  0
 20 32  1  0  0  0  0
 20 21  2  0  0  0  0
 22 16  1  0  0  0  0
 24 18  1  0  0  0  0
 25 18  1  0  0  0  0
 26 19  1  0  0  0  0
 27 38  1  0  0  0  0
 27 37  1  0  0  0  0
 28 27  1  0  0  0  0
 28 39  1  0  0  0  0
 29 41  1  1  0  0  0
 29 28  1  0  0  0  0
 30 29  1  0  0  0  0
 30 43  1  0  0  0  0
 31 45  1  1  0  0  0
 31 29  1  0  0  0  0
 32 31  1  0  0  0  0
 33 34  1  0  0  0  0
 33 31  1  0  0  0  0
 35 33  2  0  0  0  0
 36 27  1  0  0  0  0
 40 28  1  0  0  0  0
 42 30  1  0  0  0  0
 44 30  1  0  0  0  0
 46 32  1  0  0  0  0
M  END
$$$$
