NCK.pdb
 OpenBabel07022418093D

 48 47  0  0  1  0  0  0  0  0999 V2000
    1.1400   -5.2900   -1.4640 N   0  0  0  0  0  0  0  0  0  0  0  0
    2.2190   -4.7130   -2.1620 C   0  0  0  0  0  0  0  0  0  0  0  0
    2.7620   -5.3350   -3.0970 O   0  0  0  0  0  0  0  0  0  0  0  0
    2.7120   -3.3760   -1.7930 C   0  0  0  0  0  0  0  0  0  0  0  0
    1.9060   -2.8480   -0.6570 C   0  0  2  0  0  0  0  0  0  0  0  0
    0.5260   -2.7600   -1.0530 N   0  0  0  0  0  0  0  0  0  0  0  0
    2.4230   -1.5600   -0.1250 C   0  0  0  0  0  0  0  0  0  0  0  0
    3.6110   -1.5060    0.2540 O   0  0  0  0  0  0  0  0  0  0  0  0
    1.2400   -5.4410   -0.4370 H   0  0  0  0  0  0  0  0  0  0  0  0
    0.2400   -5.5810   -1.9030 H   0  0  0  0  0  0  0  0  0  0  0  0
    2.5140   -2.7140   -2.6860 H   0  0  0  0  0  0  0  0  0  0  0  0
    3.8090   -3.3740   -1.5760 H   0  0  0  0  0  0  0  0  0  0  0  0
    1.9890   -3.5850    0.1880 H   0  0  0  0  0  0  0  0  0  0  0  0
   -0.1000   -2.3870   -0.3310 H   0  0  0  0  0  0  0  0  0  0  0  0
    0.3950   -2.2580   -1.9370 H   0  0  0  0  0  0  0  0  0  0  0  0
    1.6220   -0.3860   -0.0270 N   0  0  0  0  0  0  0  0  0  0  0  0
    2.1060    0.8670    0.4860 C   0  0  1  0  0  0  0  0  0  0  0  0
    2.1360    1.9560   -0.5810 C   0  0  0  0  0  0  0  0  0  0  0  0
    3.2150    1.4860   -1.9540 S   0  0  0  0  0  0  0  0  0  0  0  0
    1.3560    1.2840    1.6750 C   0  0  0  0  0  0  0  0  0  0  0  0
    1.6350    2.3580    2.2680 O   0  0  0  0  0  0  0  0  0  0  0  0
    0.6310   -0.4810   -0.3570 H   0  0  0  0  0  0  0  0  0  0  0  0
    3.1880    0.7200    0.7740 H   0  0  0  0  0  0  0  0  0  0  0  0
    1.1030    2.1540   -0.8940 H   0  0  0  0  0  0  0  0  0  0  0  0
    2.6220    2.8400   -0.0860 H   0  0  0  0  0  0  0  0  0  0  0  0
    4.4320    2.1830   -1.9420 H   0  0  0  0  0  0  0  0  0  0  0  0
    0.2720    0.4940    2.2220 N   0  0  0  0  0  0  0  0  0  0  0  0
   -0.4550    0.9070    3.3820 C   0  0  1  0  0  0  0  0  0  0  0  0
   -1.7790    1.5290    3.1980 C   0  0  0  0  0  0  0  0  0  0  0  0
   -2.8820    0.8130    2.5530 C   0  0  0  0  0  0  0  0  0  0  0  0
   -2.7320    0.3820    1.1310 C   0  0  0  0  0  0  0  0  0  0  0  0
   -4.0500   -0.3010    0.7260 C   0  0  0  0  0  0  0  0  0  0  0  0
   -3.9560   -0.7420   -0.6550 N   0  0  0  0  0  0  0  0  0  0  0  0
   -0.4460   -0.1430    4.4500 C   0  0  0  0  0  0  0  0  0  0  0  0
    0.1380   -1.2450    4.3140 O   0  0  0  0  0  0  0  0  0  0  0  0
   -1.1020    0.0810    5.6510 O   0  0  0  0  0  0  0  0  0  0  0  0
    0.1110   -0.3910    1.7030 H   0  0  0  0  0  0  0  0  0  0  0  0
    0.1960    1.7380    3.8490 H   0  0  0  0  0  0  0  0  0  0  0  0
   -2.1290    1.9160    4.2170 H   0  0  0  0  0  0  0  0  0  0  0  0
   -1.6090    2.5150    2.6370 H   0  0  0  0  0  0  0  0  0  0  0  0
   -3.7860    1.5130    2.5480 H   0  0  0  0  0  0  0  0  0  0  0  0
   -3.2780   -0.0450    3.1780 H   0  0  0  0  0  0  0  0  0  0  0  0
   -2.6790    1.3020    0.4920 H   0  0  0  0  0  0  0  0  0  0  0  0
   -1.9690   -0.3530    0.9100 H   0  0  0  0  0  0  0  0  0  0  0  0
   -4.9040    0.3920    0.8090 H   0  0  0  0  0  0  0  0  0  0  0  0
   -4.2160   -1.2130    1.3350 H   0  0  0  0  0  0  0  0  0  0  0  0
   -3.3920   -0.0820   -1.2460 H   0  0  0  0  0  0  0  0  0  0  0  0
   -4.9090   -0.7640   -1.0680 H   0  0  0  0  0  0  0  0  0  0  0  0
  1  9  1  0  0  0  0
  2  4  1  0  0  0  0
  2  1  1  0  0  0  0
  3  2  2  0  0  0  0
  4 12  1  0  0  0  0
  4  5  1  0  0  0  0
  5  7  1  0  0  0  0
  5 13  1  1  0  0  0
  6  5  1  0  0  0  0
  6 14  1  0  0  0  0
  7 16  1  0  0  0  0
  7  8  2  0  0  0  0
 10  1  1  0  0  0  0
 11  4  1  0  0  0  0
 15  6  1  0  0  0  0
 16 17  1  0  0  0  0
 17 23  1  1  0  0  0
 17 20  1  0  0  0  0
 18 25  1  0  0  0  0
 18 17  1  0  0  0  0
 19 26  1  0  0  0  0
 19 18  1  0  0  0  0
 20 27  1  0  0  0  0
 20 21  2  0  0  0  0
 22 16  1  0  0  0  0
 24 18  1  0  0  0  0
 27 28  1  0  0  0  0
 28 38  1  1  0  0  0
 28 34  1  0  0  0  0
 29 28  1  0  0  0  0
 29 39  1  0  0  0  0
 30 42  1  0  0  0  0
 30 29  1  0  0  0  0
 31 30  1  0  0  0  0
 32 45  1  0  0  0  0
 32 31  1  0  0  0  0
 32 46  1  0  0  0  0
 33 32  1  0  0  0  0
 34 36  1  0  0  0  0
 35 34  2  0  0  0  0
 37 27  1  0  0  0  0
 40 29  1  0  0  0  0
 41 30  1  0  0  0  0
 43 31  1  0  0  0  0
 44 31  1  0  0  0  0
 47 33  1  0  0  0  0
 48 33  1  0  0  0  0
M  END
$$$$
