NCL.pdb
 OpenBabel07022418093D

 46 45  0  0  1  0  0  0  0  0999 V2000
    0.4280   -6.9580   -1.2710 N   0  0  0  0  0  0  0  0  0  0  0  0
    1.2420   -5.8850   -1.7170 C   0  0  0  0  0  0  0  0  0  0  0  0
    2.0240   -6.0940   -2.6750 O   0  0  0  0  0  0  0  0  0  0  0  0
    1.1710   -4.5540   -1.0680 C   0  0  0  0  0  0  0  0  0  0  0  0
    2.1470   -3.6240   -1.7550 C   0  0  2  0  0  0  0  0  0  0  0  0
    3.4850   -4.1630   -1.6300 N   0  0  0  0  0  0  0  0  0  0  0  0
    2.0730   -2.2470   -1.2040 C   0  0  0  0  0  0  0  0  0  0  0  0
    3.1280   -1.7380   -0.7200 O   0  0  0  0  0  0  0  0  0  0  0  0
    0.6290   -7.5240   -0.4130 H   0  0  0  0  0  0  0  0  0  0  0  0
   -0.4380   -7.2240   -1.8170 H   0  0  0  0  0  0  0  0  0  0  0  0
    1.4230   -4.7060    0.0020 H   0  0  0  0  0  0  0  0  0  0  0  0
    0.1340   -4.1860   -1.1760 H   0  0  0  0  0  0  0  0  0  0  0  0
    1.8920   -3.6060   -2.8220 H   0  0  0  0  0  0  0  0  0  0  0  0
    3.5980   -4.8390   -0.8690 H   0  0  0  0  0  0  0  0  0  0  0  0
    3.8620   -4.5020   -2.5430 H   0  0  0  0  0  0  0  0  0  0  0  0
    0.9100   -1.4690   -1.1840 N   0  0  0  0  0  0  0  0  0  0  0  0
    0.8420   -0.1000   -0.6360 C   0  0  1  0  0  0  0  0  0  0  0  0
    0.5300    0.8340   -1.7920 C   0  0  0  0  0  0  0  0  0  0  0  0
    0.4290    2.5340   -1.2540 S   0  0  0  0  0  0  0  0  0  0  0  0
   -0.2080   -0.0990    0.4090 C   0  0  0  0  0  0  0  0  0  0  0  0
   -0.8700   -1.1540    0.6130 O   0  0  0  0  0  0  0  0  0  0  0  0
    0.0240   -1.8440   -1.5700 H   0  0  0  0  0  0  0  0  0  0  0  0
    1.8350    0.1600   -0.2700 H   0  0  0  0  0  0  0  0  0  0  0  0
    1.3610    0.7340   -2.5080 H   0  0  0  0  0  0  0  0  0  0  0  0
   -0.3870    0.4970   -2.3390 H   0  0  0  0  0  0  0  0  0  0  0  0
    1.7330    3.1050   -1.2880 H   0  0  0  0  0  0  0  0  0  0  0  0
   -1.3260    3.7280    3.6870 C   0  0  0  0  0  0  0  0  0  0  0  0
   -0.5040    2.4950    3.9410 C   0  0  0  0  0  0  0  0  0  0  0  0
   -0.1950    2.5130    5.4480 C   0  0  0  0  0  0  0  0  0  0  0  0
   -1.1650    1.2050    3.6210 C   0  0  0  0  0  0  0  0  0  0  0  0
   -1.5930    0.9530    2.2420 C   0  0  2  0  0  0  0  0  0  0  0  0
   -0.5640    0.9870    1.2340 N   0  0  0  0  0  0  0  0  0  0  0  0
   -2.7120    1.8260    1.8510 C   0  0  0  0  0  0  0  0  0  0  0  0
   -2.7200    2.4830    0.7520 O   0  0  0  0  0  0  0  0  0  0  0  0
   -3.8400    2.0000    2.6410 O   0  0  0  0  0  0  0  0  0  0  0  0
   -2.3090    3.5810    4.2230 H   0  0  0  0  0  0  0  0  0  0  0  0
   -1.5040    3.9670    2.6380 H   0  0  0  0  0  0  0  0  0  0  0  0
   -0.8580    4.5800    4.2430 H   0  0  0  0  0  0  0  0  0  0  0  0
    0.4720    2.6260    3.4180 H   0  0  0  0  0  0  0  0  0  0  0  0
    0.8200    2.0970    5.6320 H   0  0  0  0  0  0  0  0  0  0  0  0
   -0.1910    3.5570    5.8180 H   0  0  0  0  0  0  0  0  0  0  0  0
   -0.9810    1.9570    5.9780 H   0  0  0  0  0  0  0  0  0  0  0  0
   -2.1260    1.1980    4.2360 H   0  0  0  0  0  0  0  0  0  0  0  0
   -0.6190    0.3300    4.0940 H   0  0  0  0  0  0  0  0  0  0  0  0
   -2.0700   -0.0950    2.2600 H   0  0  0  0  0  0  0  0  0  0  0  0
   -0.0430    1.8770    1.1120 H   0  0  0  0  0  0  0  0  0  0  0  0
  1  9  1  0  0  0  0
  2  1  1  0  0  0  0
  2  4  1  0  0  0  0
  3  2  2  0  0  0  0
  4 11  1  0  0  0  0
  5 13  1  6  0  0  0
  5  6  1  0  0  0  0
  5  7  1  0  0  0  0
  5  4  1  0  0  0  0
  6 14  1  0  0  0  0
  7 16  1  0  0  0  0
  7  8  2  0  0  0  0
 10  1  1  0  0  0  0
 12  4  1  0  0  0  0
 15  6  1  0  0  0  0
 16 17  1  0  0  0  0
 17 23  1  1  0  0  0
 17 20  1  0  0  0  0
 18 19  1  0  0  0  0
 18 17  1  0  0  0  0
 20 21  2  0  0  0  0
 20 32  1  0  0  0  0
 22 16  1  0  0  0  0
 24 18  1  0  0  0  0
 25 18  1  0  0  0  0
 26 19  1  0  0  0  0
 27 28  1  0  0  0  0
 27 36  1  0  0  0  0
 27 38  1  0  0  0  0
 28 29  1  0  0  0  0
 29 40  1  0  0  0  0
 29 41  1  0  0  0  0
 29 42  1  0  0  0  0
 30 28  1  0  0  0  0
 30 44  1  0  0  0  0
 30 43  1  0  0  0  0
 31 45  1  6  0  0  0
 31 30  1  0  0  0  0
 32 31  1  0  0  0  0
 33 31  1  0  0  0  0
 33 35  1  0  0  0  0
 34 33  2  0  0  0  0
 37 27  1  0  0  0  0
 39 28  1  0  0  0  0
 46 32  1  0  0  0  0
M  END
$$$$
