NCM.pdb
 OpenBabel07022418093D

 44 43  0  0  1  0  0  0  0  0999 V2000
   -1.9330   -0.6160   -4.8970 N   0  0  0  0  0  0  0  0  0  0  0  0
   -1.4860   -0.7750   -3.5400 C   0  0  0  0  0  0  0  0  0  0  0  0
   -2.2850   -0.5260   -2.6320 O   0  0  0  0  0  0  0  0  0  0  0  0
   -0.0850   -1.2300   -3.3820 C   0  0  0  0  0  0  0  0  0  0  0  0
    0.3390   -1.3790   -1.9480 C   0  0  2  0  0  0  0  0  0  0  0  0
   -0.4270   -2.3170   -1.1890 N   0  0  0  0  0  0  0  0  0  0  0  0
    0.3780   -0.0730   -1.2390 C   0  0  0  0  0  0  0  0  0  0  0  0
    0.9790    0.9040   -1.7890 O   0  0  0  0  0  0  0  0  0  0  0  0
   -1.7190    0.3030   -5.3330 H   0  0  0  0  0  0  0  0  0  0  0  0
   -2.4370   -1.3630   -5.4190 H   0  0  0  0  0  0  0  0  0  0  0  0
    0.0140   -2.1820   -3.9430 H   0  0  0  0  0  0  0  0  0  0  0  0
    0.6350   -0.5040   -3.8430 H   0  0  0  0  0  0  0  0  0  0  0  0
    1.3850   -1.8140   -1.9980 H   0  0  0  0  0  0  0  0  0  0  0  0
   -0.0010   -3.2840   -1.2040 H   0  0  0  0  0  0  0  0  0  0  0  0
   -1.4320   -2.3250   -1.4060 H   0  0  0  0  0  0  0  0  0  0  0  0
   -0.2320    0.1320    0.0350 N   0  0  0  0  0  0  0  0  0  0  0  0
   -0.2150    1.3730    0.7480 C   0  0  1  0  0  0  0  0  0  0  0  0
   -1.5670    1.9420    1.0390 C   0  0  0  0  0  0  0  0  0  0  0  0
   -1.4630    3.4970    1.9350 S   0  0  0  0  0  0  0  0  0  0  0  0
    0.6410    1.2820    1.9570 C   0  0  0  0  0  0  0  0  0  0  0  0
    0.7620    2.2890    2.7060 O   0  0  0  0  0  0  0  0  0  0  0  0
   -0.7150   -0.7210    0.4390 H   0  0  0  0  0  0  0  0  0  0  0  0
    0.3190    2.1090    0.0780 H   0  0  0  0  0  0  0  0  0  0  0  0
   -2.1470    1.1630    1.6100 H   0  0  0  0  0  0  0  0  0  0  0  0
   -2.1130    2.1420    0.0950 H   0  0  0  0  0  0  0  0  0  0  0  0
   -0.2330    4.1640    1.7380 H   0  0  0  0  0  0  0  0  0  0  0  0
   -1.4730   -2.1550    3.3530 C   0  0  0  0  0  0  0  0  0  0  0  0
    0.1570   -2.6770    2.7550 S   0  0  0  0  0  0  0  0  0  0  0  0
    1.3510   -2.4150    4.0560 C   0  0  0  0  0  0  0  0  0  0  0  0
    1.6100   -1.0110    4.4400 C   0  0  0  0  0  0  0  0  0  0  0  0
    2.1490   -0.1010    3.3880 C   0  0  2  0  0  0  0  0  0  0  0  0
    1.2980    0.0520    2.2260 N   0  0  0  0  0  0  0  0  0  0  0  0
    3.5420   -0.4010    3.0170 C   0  0  0  0  0  0  0  0  0  0  0  0
    4.3950   -0.5680    3.9030 O   0  0  0  0  0  0  0  0  0  0  0  0
    3.8970   -0.4970    1.6940 O   0  0  0  0  0  0  0  0  0  0  0  0
   -1.8320   -1.2320    2.8600 H   0  0  0  0  0  0  0  0  0  0  0  0
   -1.4520   -1.9640    4.4520 H   0  0  0  0  0  0  0  0  0  0  0  0
   -2.2490   -2.9270    3.1780 H   0  0  0  0  0  0  0  0  0  0  0  0
    0.9510   -2.9310    4.9790 H   0  0  0  0  0  0  0  0  0  0  0  0
    2.2640   -2.9960    3.8040 H   0  0  0  0  0  0  0  0  0  0  0  0
    2.3730   -1.0340    5.2660 H   0  0  0  0  0  0  0  0  0  0  0  0
    0.6930   -0.6050    4.9320 H   0  0  0  0  0  0  0  0  0  0  0  0
    2.2170    0.9180    3.9020 H   0  0  0  0  0  0  0  0  0  0  0  0
    1.1490   -0.7260    1.5540 H   0  0  0  0  0  0  0  0  0  0  0  0
  1  2  1  0  0  0  0
  2  4  1  0  0  0  0
  2  3  2  0  0  0  0
  4  5  1  0  0  0  0
  5 13  1  6  0  0  0
  5  7  1  0  0  0  0
  5  6  1  0  0  0  0
  7 16  1  0  0  0  0
  8  7  2  0  0  0  0
  9  1  1  0  0  0  0
 10  1  1  0  0  0  0
 11  4  1  0  0  0  0
 12  4  1  0  0  0  0
 14  6  1  0  0  0  0
 15  6  1  0  0  0  0
 16 22  1  0  0  0  0
 16 17  1  0  0  0  0
 17 23  1  6  0  0  0
 17 18  1  0  0  0  0
 17 20  1  0  0  0  0
 18 24  1  0  0  0  0
 18 19  1  0  0  0  0
 20 32  1  0  0  0  0
 20 21  2  0  0  0  0
 25 18  1  0  0  0  0
 26 19  1  0  0  0  0
 27 37  1  0  0  0  0
 28 27  1  0  0  0  0
 28 29  1  0  0  0  0
 29 30  1  0  0  0  0
 29 39  1  0  0  0  0
 30 42  1  0  0  0  0
 30 41  1  0  0  0  0
 31 43  1  1  0  0  0
 31 30  1  0  0  0  0
 32 31  1  0  0  0  0
 33 31  1  0  0  0  0
 33 34  1  0  0  0  0
 35 33  2  0  0  0  0
 36 27  1  0  0  0  0
 38 27  1  0  0  0  0
 40 29  1  0  0  0  0
 44 32  1  0  0  0  0
M  END
$$$$
