NCN.pdb
 OpenBabel07022418093D

 41 40  0  0  1  0  0  0  0  0999 V2000
   -2.7370   -3.8830   -1.8050 N   0  0  0  0  0  0  0  0  0  0  0  0
   -1.4150   -3.5070   -2.1860 C   0  0  0  0  0  0  0  0  0  0  0  0
   -1.0330   -3.8560   -3.3250 O   0  0  0  0  0  0  0  0  0  0  0  0
   -0.5230   -2.7360   -1.2840 C   0  0  0  0  0  0  0  0  0  0  0  0
    0.7900   -2.5030   -1.9820 C   0  0  2  0  0  0  0  0  0  0  0  0
    1.3620   -3.7950   -2.2830 N   0  0  0  0  0  0  0  0  0  0  0  0
    1.7470   -1.7290   -1.1760 C   0  0  0  0  0  0  0  0  0  0  0  0
    2.8500   -2.2650   -0.8810 O   0  0  0  0  0  0  0  0  0  0  0  0
   -2.9970   -4.0480   -0.8110 H   0  0  0  0  0  0  0  0  0  0  0  0
   -3.4860   -4.0050   -2.5200 H   0  0  0  0  0  0  0  0  0  0  0  0
   -0.4260   -3.2350   -0.3180 H   0  0  0  0  0  0  0  0  0  0  0  0
   -1.0040   -1.7470   -1.1170 H   0  0  0  0  0  0  0  0  0  0  0  0
    0.6150   -1.9870   -2.9380 H   0  0  0  0  0  0  0  0  0  0  0  0
    2.1120   -3.6310   -3.0150 H   0  0  0  0  0  0  0  0  0  0  0  0
    1.8670   -4.1510   -1.4410 H   0  0  0  0  0  0  0  0  0  0  0  0
    1.5240   -0.4250   -0.7030 N   0  0  0  0  0  0  0  0  0  0  0  0
    2.5280    0.2460    0.0810 C   0  0  1  0  0  0  0  0  0  0  0  0
    3.0170    1.5140   -0.5910 C   0  0  0  0  0  0  0  0  0  0  0  0
    4.2730    2.2790    0.4710 S   0  0  0  0  0  0  0  0  0  0  0  0
    1.9770    0.5970    1.4310 C   0  0  0  0  0  0  0  0  0  0  0  0
    2.6470    1.1830    2.3000 O   0  0  0  0  0  0  0  0  0  0  0  0
    0.6050    0.0230   -0.9470 H   0  0  0  0  0  0  0  0  0  0  0  0
    3.3930   -0.4350    0.1980 H   0  0  0  0  0  0  0  0  0  0  0  0
    3.4750    1.3240   -1.5650 H   0  0  0  0  0  0  0  0  0  0  0  0
    2.1640    2.2250   -0.6470 H   0  0  0  0  0  0  0  0  0  0  0  0
    5.5030    1.5840    0.3840 H   0  0  0  0  0  0  0  0  0  0  0  0
   -1.1660    2.8800    5.0500 N   0  0  0  0  0  0  0  0  0  0  0  0
   -1.6630    1.7980    4.2320 C   0  0  0  0  0  0  0  0  0  0  0  0
   -2.5990    1.1340    4.7450 O   0  0  0  0  0  0  0  0  0  0  0  0
   -1.0840    1.5330    2.8970 C   0  0  0  0  0  0  0  0  0  0  0  0
    0.0390    0.5550    3.0080 C   0  0  2  0  0  0  0  0  0  0  0  0
    0.6510    0.2530    1.7290 N   0  0  0  0  0  0  0  0  0  0  0  0
   -0.2570   -0.6940    3.6950 C   0  0  0  0  0  0  0  0  0  0  0  0
   -0.7660   -0.6990    4.8350 O   0  0  0  0  0  0  0  0  0  0  0  0
    0.0230   -1.9050    3.0920 O   0  0  0  0  0  0  0  0  0  0  0  0
   -0.6720    2.7020    5.9520 H   0  0  0  0  0  0  0  0  0  0  0  0
   -1.2830    3.8760    4.7660 H   0  0  0  0  0  0  0  0  0  0  0  0
   -1.8930    1.1850    2.1990 H   0  0  0  0  0  0  0  0  0  0  0  0
   -0.6660    2.4980    2.5350 H   0  0  0  0  0  0  0  0  0  0  0  0
    0.8370    1.0730    3.6100 H   0  0  0  0  0  0  0  0  0  0  0  0
    0.0150   -0.2480    1.0410 H   0  0  0  0  0  0  0  0  0  0  0  0
  1  9  1  0  0  0  0
  2  1  1  0  0  0  0
  2  4  1  0  0  0  0
  3  2  2  0  0  0  0
  4 12  1  0  0  0  0
  4 11  1  0  0  0  0
  5 13  1  6  0  0  0
  5  4  1  0  0  0  0
  5  7  1  0  0  0  0
  6  5  1  0  0  0  0
  6 15  1  0  0  0  0
  7  8  2  0  0  0  0
  7 16  1  0  0  0  0
 10  1  1  0  0  0  0
 14  6  1  0  0  0  0
 16 17  1  0  0  0  0
 17 23  1  1  0  0  0
 17 20  1  0  0  0  0
 18 17  1  0  0  0  0
 18 19  1  0  0  0  0
 20 32  1  0  0  0  0
 20 21  2  0  0  0  0
 22 16  1  0  0  0  0
 24 18  1  0  0  0  0
 25 18  1  0  0  0  0
 26 19  1  0  0  0  0
 27 36  1  0  0  0  0
 28 29  2  0  0  0  0
 28 27  1  0  0  0  0
 30 31  1  0  0  0  0
 30 28  1  0  0  0  0
 31 40  1  1  0  0  0
 31 33  1  0  0  0  0
 32 31  1  0  0  0  0
 33 34  1  0  0  0  0
 35 33  2  0  0  0  0
 37 27  1  0  0  0  0
 38 30  1  0  0  0  0
 39 30  1  0  0  0  0
 41 32  1  0  0  0  0
M  END
$$$$
