NCP.pdb
 OpenBabel07022418093D

 41 41  0  0  1  0  0  0  0  0999 V2000
    1.0210   -5.5050   -0.3420 N   0  0  0  0  0  0  0  0  0  0  0  0
   -0.1950   -5.2960   -1.0340 C   0  0  0  0  0  0  0  0  0  0  0  0
   -0.8130   -6.3110   -1.4360 O   0  0  0  0  0  0  0  0  0  0  0  0
   -0.7480   -3.9290   -1.2930 C   0  0  0  0  0  0  0  0  0  0  0  0
    0.2210   -2.9400   -0.6900 C   0  0  2  0  0  0  0  0  0  0  0  0
    0.3180   -3.2020    0.7170 N   0  0  0  0  0  0  0  0  0  0  0  0
   -0.1240   -1.5390   -0.9930 C   0  0  0  0  0  0  0  0  0  0  0  0
   -0.2350   -1.1950   -2.1920 O   0  0  0  0  0  0  0  0  0  0  0  0
    1.9460   -5.2320   -0.6910 H   0  0  0  0  0  0  0  0  0  0  0  0
    0.9890   -5.9720    0.5980 H   0  0  0  0  0  0  0  0  0  0  0  0
   -1.7480   -3.8940   -0.8320 H   0  0  0  0  0  0  0  0  0  0  0  0
   -0.8290   -3.7710   -2.3940 H   0  0  0  0  0  0  0  0  0  0  0  0
    1.2180   -3.1530   -1.1640 H   0  0  0  0  0  0  0  0  0  0  0  0
    1.2390   -3.5190    1.0400 H   0  0  0  0  0  0  0  0  0  0  0  0
   -0.4970   -3.6880    1.1260 H   0  0  0  0  0  0  0  0  0  0  0  0
   -0.3290   -0.5800    0.0700 N   0  0  0  0  0  0  0  0  0  0  0  0
   -0.6600    0.7620   -0.2310 C   0  0  1  0  0  0  0  0  0  0  0  0
   -2.1930    0.9160   -0.0770 C   0  0  0  0  0  0  0  0  0  0  0  0
   -2.7050    2.6070   -0.4500 S   0  0  0  0  0  0  0  0  0  0  0  0
    0.0300    1.8360    0.4710 C   0  0  0  0  0  0  0  0  0  0  0  0
   -0.5130    3.0100    0.2030 O   0  0  0  0  0  0  0  0  0  0  0  0
   -0.2180   -0.9470    1.0310 H   0  0  0  0  0  0  0  0  0  0  0  0
   -0.5200    0.9250   -1.3470 H   0  0  0  0  0  0  0  0  0  0  0  0
   -2.7050    0.2230   -0.7770 H   0  0  0  0  0  0  0  0  0  0  0  0
   -2.4590    0.6000    0.9460 H   0  0  0  0  0  0  0  0  0  0  0  0
   -3.5540    3.0360    0.6030 H   0  0  0  0  0  0  0  0  0  0  0  0
    1.1030    1.8890    1.3430 N   0  0  0  0  0  0  0  0  0  0  0  0
    1.4620    3.2080    2.0410 C   0  0  0  0  0  0  0  0  0  0  0  0
    1.5490    2.7010    3.4860 C   0  0  0  0  0  0  0  0  0  0  0  0
    1.7080    1.1650    3.3890 C   0  0  0  0  0  0  0  0  0  0  0  0
    2.1280    1.0900    1.9160 C   0  0  1  0  0  0  0  0  0  0  0  0
    2.5590   -0.1530    1.4070 C   0  0  0  0  0  0  0  0  0  0  0  0
    2.6100   -0.4800    0.2110 O   0  0  0  0  0  0  0  0  0  0  0  0
    2.9800   -1.1470    2.3180 O   0  0  0  0  0  0  0  0  0  0  0  0
    0.7000    3.9420    1.8710 H   0  0  0  0  0  0  0  0  0  0  0  0
    2.4780    3.4340    1.6970 H   0  0  0  0  0  0  0  0  0  0  0  0
    0.6140    2.9720    3.9800 H   0  0  0  0  0  0  0  0  0  0  0  0
    2.4640    3.0620    3.9770 H   0  0  0  0  0  0  0  0  0  0  0  0
    0.7090    0.7540    3.5570 H   0  0  0  0  0  0  0  0  0  0  0  0
    2.4910    0.8030    4.0620 H   0  0  0  0  0  0  0  0  0  0  0  0
    3.0880    1.7830    1.9250 H   0  0  0  0  0  0  0  0  0  0  0  0
  1 10  1  0  0  0  0
  2  1  1  0  0  0  0
  3  2  2  0  0  0  0
  4  2  1  0  0  0  0
  4 11  1  0  0  0  0
  4  5  1  0  0  0  0
  5 13  1  6  0  0  0
  5  6  1  0  0  0  0
  6 14  1  0  0  0  0
  6 15  1  0  0  0  0
  7  5  1  0  0  0  0
  7 16  1  0  0  0  0
  8  7  2  0  0  0  0
  9  1  1  0  0  0  0
 12  4  1  0  0  0  0
 16 22  1  0  0  0  0
 17 23  1  6  0  0  0
 17 18  1  0  0  0  0
 17 16  1  0  0  0  0
 17 20  1  0  0  0  0
 18 25  1  0  0  0  0
 19 18  1  0  0  0  0
 19 26  1  0  0  0  0
 20 27  1  0  0  0  0
 21 20  2  0  0  0  0
 24 18  1  0  0  0  0
 27 31  1  0  0  0  0
 27 28  1  0  0  0  0
 28 29  1  0  0  0  0
 29 38  1  0  0  0  0
 29 37  1  0  0  0  0
 30 29  1  0  0  0  0
 30 39  1  0  0  0  0
 30 40  1  0  0  0  0
 31 41  1  6  0  0  0
 31 30  1  0  0  0  0
 32 31  1  0  0  0  0
 32 34  1  0  0  0  0
 33 32  2  0  0  0  0
 35 28  1  0  0  0  0
 36 28  1  0  0  0  0
M  END
$$$$
