NCR.pdb
 OpenBabel07022418093D

 50 49  0  0  1  0  0  0  0  0999 V2000
    4.7480   -2.1900    4.6650 N   0  0  0  0  0  0  0  0  0  0  0  0
    4.6270   -2.8040    3.3840 C   0  0  0  0  0  0  0  0  0  0  0  0
    5.3730   -3.8010    3.1820 O   0  0  0  0  0  0  0  0  0  0  0  0
    3.6910   -2.3190    2.3410 C   0  0  0  0  0  0  0  0  0  0  0  0
    3.8740   -3.2230    1.1260 C   0  0  2  0  0  0  0  0  0  0  0  0
    5.2730   -3.0720    0.7370 N   0  0  0  0  0  0  0  0  0  0  0  0
    2.9780   -2.8320    0.0170 C   0  0  0  0  0  0  0  0  0  0  0  0
    3.5090   -2.4200   -1.0490 O   0  0  0  0  0  0  0  0  0  0  0  0
    4.6590   -2.7240    5.5380 H   0  0  0  0  0  0  0  0  0  0  0  0
    4.9330   -1.1670    4.7360 H   0  0  0  0  0  0  0  0  0  0  0  0
    3.9990   -1.2900    2.0660 H   0  0  0  0  0  0  0  0  0  0  0  0
    2.6620   -2.3320    2.7290 H   0  0  0  0  0  0  0  0  0  0  0  0
    3.6840   -4.2570    1.5010 H   0  0  0  0  0  0  0  0  0  0  0  0
    5.3260   -2.6190   -0.2030 H   0  0  0  0  0  0  0  0  0  0  0  0
    5.6880   -4.0230    0.6250 H   0  0  0  0  0  0  0  0  0  0  0  0
    1.5760   -2.8890    0.0690 N   0  0  0  0  0  0  0  0  0  0  0  0
    0.6840   -2.4980   -1.0280 C   0  0  1  0  0  0  0  0  0  0  0  0
   -0.0080   -3.7130   -1.5860 C   0  0  0  0  0  0  0  0  0  0  0  0
   -1.0920   -3.2210   -2.9400 S   0  0  0  0  0  0  0  0  0  0  0  0
   -0.2270   -1.4580   -0.5260 C   0  0  0  0  0  0  0  0  0  0  0  0
   -0.1680   -1.2110    0.7210 O   0  0  0  0  0  0  0  0  0  0  0  0
    1.1150   -3.2270    0.9360 H   0  0  0  0  0  0  0  0  0  0  0  0
    1.3280   -2.0910   -1.8250 H   0  0  0  0  0  0  0  0  0  0  0  0
   -0.6230   -4.2420   -0.8420 H   0  0  0  0  0  0  0  0  0  0  0  0
    0.7530   -4.3970   -1.9800 H   0  0  0  0  0  0  0  0  0  0  0  0
   -0.4070   -3.1390   -4.1670 H   0  0  0  0  0  0  0  0  0  0  0  0
   -2.5810    1.7460    4.1350 N   0  0  0  0  0  0  0  0  0  0  0  0
   -2.6840    2.6880    3.0840 C   0  0  0  0  0  0  0  0  0  0  0  0
   -2.5860    3.9400    3.3000 N   0  0  0  0  0  0  0  0  0  0  0  0
   -2.9100    2.2610    1.7130 N   0  0  0  0  0  0  0  0  0  0  0  0
   -2.5580    3.1320    0.6680 C   0  0  0  0  0  0  0  0  0  0  0  0
   -2.6740    2.7320   -0.7400 C   0  0  0  0  0  0  0  0  0  0  0  0
   -1.8410    1.6320   -1.2790 C   0  0  0  0  0  0  0  0  0  0  0  0
   -2.0430    0.3170   -0.6600 C   0  0  2  0  0  0  0  0  0  0  0  0
   -1.1520   -0.7070   -1.2560 N   0  0  0  0  0  0  0  0  0  0  0  0
   -3.4240   -0.1600   -0.9140 C   0  0  0  0  0  0  0  0  0  0  0  0
   -3.5820   -1.2810   -1.5320 O   0  0  0  0  0  0  0  0  0  0  0  0
   -4.5820    0.4930   -0.5480 O   0  0  0  0  0  0  0  0  0  0  0  0
   -3.3710    1.1420    4.3850 H   0  0  0  0  0  0  0  0  0  0  0  0
   -1.6490    1.7100    4.6380 H   0  0  0  0  0  0  0  0  0  0  0  0
   -2.4260    4.2760    4.2700 H   0  0  0  0  0  0  0  0  0  0  0  0
   -3.3470    1.3260    1.6410 H   0  0  0  0  0  0  0  0  0  0  0  0
   -1.5140    3.5270    0.9150 H   0  0  0  0  0  0  0  0  0  0  0  0
   -3.1840    4.0800    0.8270 H   0  0  0  0  0  0  0  0  0  0  0  0
   -2.4800    3.6900   -1.3640 H   0  0  0  0  0  0  0  0  0  0  0  0
   -3.7750    2.5750   -0.9520 H   0  0  0  0  0  0  0  0  0  0  0  0
   -2.1040    1.5590   -2.3960 H   0  0  0  0  0  0  0  0  0  0  0  0
   -0.7600    1.9400   -1.3410 H   0  0  0  0  0  0  0  0  0  0  0  0
   -1.8510    0.2870    0.4190 H   0  0  0  0  0  0  0  0  0  0  0  0
   -1.2400   -0.8420   -2.2710 H   0  0  0  0  0  0  0  0  0  0  0  0
  1 10  1  0  0  0  0
  1  9  1  0  0  0  0
  2  1  1  0  0  0  0
  3  2  2  0  0  0  0
  4 12  1  0  0  0  0
  4  2  1  0  0  0  0
  5 13  1  1  0  0  0
  5  4  1  0  0  0  0
  6  5  1  0  0  0  0
  7 16  1  0  0  0  0
  7  5  1  0  0  0  0
  8  7  2  0  0  0  0
 11  4  1  0  0  0  0
 14  6  1  0  0  0  0
 15  6  1  0  0  0  0
 16 22  1  0  0  0  0
 17 23  1  6  0  0  0
 17 20  1  0  0  0  0
 17 16  1  0  0  0  0
 18 17  1  0  0  0  0
 18 24  1  0  0  0  0
 19 18  1  0  0  0  0
 20 21  2  0  0  0  0
 25 18  1  0  0  0  0
 26 19  1  0  0  0  0
 27 39  1  0  0  0  0
 27 40  1  0  0  0  0
 28 29  2  0  0  0  0
 28 27  1  0  0  0  0
 29 41  1  0  0  0  0
 30 28  1  0  0  0  0
 31 44  1  0  0  0  0
 31 43  1  0  0  0  0
 31 30  1  0  0  0  0
 32 31  1  0  0  0  0
 33 32  1  0  0  0  0
 33 34  1  0  0  0  0
 34 49  1  1  0  0  0
 35 34  1  0  0  0  0
 35 20  1  0  0  0  0
 36 34  1  0  0  0  0
 36 38  1  0  0  0  0
 37 36  2  0  0  0  0
 42 30  1  0  0  0  0
 45 32  1  0  0  0  0
 46 32  1  0  0  0  0
 47 33  1  0  0  0  0
 48 33  1  0  0  0  0
 50 35  1  0  0  0  0
M  END
$$$$
