NCY.pdb
 OpenBabel07022418093D

 48 48  0  0  1  0  0  0  0  0999 V2000
    1.8270   -2.8160    1.4200 N   0  0  0  0  0  0  0  0  0  0  0  0
    1.9770   -2.5000    0.0540 C   0  0  0  0  0  0  0  0  0  0  0  0
    1.4420   -3.3020   -0.7650 O   0  0  0  0  0  0  0  0  0  0  0  0
    2.6830   -1.3480   -0.5110 C   0  0  0  0  0  0  0  0  0  0  0  0
    3.1670   -0.3460    0.5030 C   0  0  2  0  0  0  0  0  0  0  0  0
    4.0470   -1.0100    1.3980 N   0  0  0  0  0  0  0  0  0  0  0  0
    2.1180    0.4800    1.0990 C   0  0  0  0  0  0  0  0  0  0  0  0
    1.4000    1.1610    0.3230 O   0  0  0  0  0  0  0  0  0  0  0  0
    2.1370   -3.7470    1.8160 H   0  0  0  0  0  0  0  0  0  0  0  0
    1.4100   -2.1510    2.0970 H   0  0  0  0  0  0  0  0  0  0  0  0
    3.5590   -1.7510   -1.0880 H   0  0  0  0  0  0  0  0  0  0  0  0
    2.0430   -0.8720   -1.2950 H   0  0  0  0  0  0  0  0  0  0  0  0
    3.8130    0.3790   -0.0950 H   0  0  0  0  0  0  0  0  0  0  0  0
    5.0270   -0.7180    1.3860 H   0  0  0  0  0  0  0  0  0  0  0  0
    3.6650   -1.3670    2.2730 H   0  0  0  0  0  0  0  0  0  0  0  0
    1.8450    0.5770    2.4880 N   0  0  0  0  0  0  0  0  0  0  0  0
    0.8150    1.4160    2.9740 C   0  0  1  0  0  0  0  0  0  0  0  0
    1.0850    2.9000    2.6410 C   0  0  0  0  0  0  0  0  0  0  0  0
   -0.3060    3.8910    3.3140 S   0  0  0  0  0  0  0  0  0  0  0  0
   -0.5640    1.0590    2.6580 C   0  0  0  0  0  0  0  0  0  0  0  0
   -1.4650    1.8130    3.1480 O   0  0  0  0  0  0  0  0  0  0  0  0
    2.4380   -0.0010    3.1450 H   0  0  0  0  0  0  0  0  0  0  0  0
    0.8950    1.4000    4.1110 H   0  0  0  0  0  0  0  0  0  0  0  0
    1.9770    3.1750    3.2280 H   0  0  0  0  0  0  0  0  0  0  0  0
    1.2120    3.0830    1.5810 H   0  0  0  0  0  0  0  0  0  0  0  0
   -0.1820    3.7950    4.7280 H   0  0  0  0  0  0  0  0  0  0  0  0
   -0.4970   -3.4260   -3.7170 O   0  0  0  0  0  0  0  0  0  0  0  0
   -1.1060   -2.6280   -2.7400 C   0  0  0  0  0  0  0  0  0  0  0  0
   -0.5510   -1.3940   -2.4620 C   0  0  0  0  0  0  0  0  0  0  0  0
   -1.1200   -0.5770   -1.5070 C   0  0  0  0  0  0  0  0  0  0  0  0
   -2.2410   -0.9330   -0.7970 C   0  0  0  0  0  0  0  0  0  0  0  0
   -2.8920   -0.1040    0.2260 C   0  0  0  0  0  0  0  0  0  0  0  0
   -2.4220   -0.2890    1.6300 C   0  0  2  0  0  0  0  0  0  0  0  0
   -1.0320   -0.0200    1.8760 N   0  0  0  0  0  0  0  0  0  0  0  0
   -2.8700   -1.5640    2.2400 C   0  0  0  0  0  0  0  0  0  0  0  0
   -2.0320   -2.2450    2.8800 O   0  0  0  0  0  0  0  0  0  0  0  0
   -2.7700   -2.1820   -1.1050 C   0  0  0  0  0  0  0  0  0  0  0  0
   -2.2190   -3.0060   -2.0490 C   0  0  0  0  0  0  0  0  0  0  0  0
   -4.1580   -2.0390    2.1420 O   0  0  0  0  0  0  0  0  0  0  0  0
   -0.4530   -3.0950   -4.6930 H   0  0  0  0  0  0  0  0  0  0  0  0
    0.3430   -1.1000   -3.0230 H   0  0  0  0  0  0  0  0  0  0  0  0
   -0.6600    0.3590   -1.3280 H   0  0  0  0  0  0  0  0  0  0  0  0
   -2.9050    0.9870   -0.0740 H   0  0  0  0  0  0  0  0  0  0  0  0
   -3.9830   -0.3660    0.1920 H   0  0  0  0  0  0  0  0  0  0  0  0
   -2.9810    0.4920    2.2410 H   0  0  0  0  0  0  0  0  0  0  0  0
   -0.3060   -0.6450    1.4640 H   0  0  0  0  0  0  0  0  0  0  0  0
   -3.6530   -2.5130   -0.5750 H   0  0  0  0  0  0  0  0  0  0  0  0
   -2.6420   -3.9860   -2.2850 H   0  0  0  0  0  0  0  0  0  0  0  0
  1  9  1  0  0  0  0
  1 10  1  0  0  0  0
  2  1  1  0  0  0  0
  3  2  2  0  0  0  0
  4  2  1  0  0  0  0
  4  5  1  0  0  0  0
  5 13  1  6  0  0  0
  5  7  1  0  0  0  0
  5  6  1  0  0  0  0
  6 15  1  0  0  0  0
  7 16  1  0  0  0  0
  8  7  2  0  0  0  0
 11  4  1  0  0  0  0
 12  4  1  0  0  0  0
 14  6  1  0  0  0  0
 16 17  1  0  0  0  0
 16 22  1  0  0  0  0
 17 23  1  1  0  0  0
 18 17  1  0  0  0  0
 18 24  1  0  0  0  0
 18 19  1  0  0  0  0
 19 26  1  0  0  0  0
 20 17  1  0  0  0  0
 20 21  2  0  0  0  0
 25 18  1  0  0  0  0
 27 28  1  0  0  0  0
 28 29  2  0  0  0  0
 28 38  1  0  0  0  0
 29 30  1  0  0  0  0
 30 42  1  0  0  0  0
 30 31  2  0  0  0  0
 31 32  1  0  0  0  0
 32 33  1  0  0  0  0
 33 34  1  0  0  0  0
 33 35  1  0  0  0  0
 33 45  1  1  0  0  0
 34 20  1  0  0  0  0
 35 36  1  0  0  0  0
 37 31  1  0  0  0  0
 37 47  1  0  0  0  0
 38 37  2  0  0  0  0
 39 35  2  0  0  0  0
 40 27  1  0  0  0  0
 41 29  1  0  0  0  0
 43 32  1  0  0  0  0
 44 32  1  0  0  0  0
 46 34  1  0  0  0  0
 48 38  1  0  0  0  0
M  END
$$$$
