NDC.pdb
 OpenBabel07022418083D

 40 39  0  0  1  0  0  0  0  0999 V2000
   -1.2720   -4.9430   -1.6010 N   0  0  0  0  0  0  0  0  0  0  0  0
   -0.0070   -4.2900   -1.5300 C   0  0  0  0  0  0  0  0  0  0  0  0
    0.8660   -4.6710   -2.3330 O   0  0  0  0  0  0  0  0  0  0  0  0
    0.2680   -3.2060   -0.5480 C   0  0  0  0  0  0  0  0  0  0  0  0
    1.7100   -2.7830   -0.7330 C   0  0  2  0  0  0  0  0  0  0  0  0
    2.4940   -3.9980   -0.4700 N   0  0  0  0  0  0  0  0  0  0  0  0
    2.1020   -1.7160    0.2080 C   0  0  0  0  0  0  0  0  0  0  0  0
    2.9390   -2.0040    1.1220 O   0  0  0  0  0  0  0  0  0  0  0  0
   -1.5150   -5.7660   -0.9850 H   0  0  0  0  0  0  0  0  0  0  0  0
   -1.9650   -4.5800   -2.2910 H   0  0  0  0  0  0  0  0  0  0  0  0
    0.0420   -3.5590    0.4650 H   0  0  0  0  0  0  0  0  0  0  0  0
   -0.3770   -2.3510   -0.8530 H   0  0  0  0  0  0  0  0  0  0  0  0
    1.8620   -2.4720   -1.7610 H   0  0  0  0  0  0  0  0  0  0  0  0
    2.9600   -4.2900   -1.3540 H   0  0  0  0  0  0  0  0  0  0  0  0
    3.1970   -3.8440    0.2830 H   0  0  0  0  0  0  0  0  0  0  0  0
    1.6340   -0.3990    0.1910 N   0  0  0  0  0  0  0  0  0  0  0  0
    2.0630    0.6200    1.1680 C   0  0  1  0  0  0  0  0  0  0  0  0
    2.8040    1.7260    0.4580 C   0  0  0  0  0  0  0  0  0  0  0  0
    3.2890    2.7640    1.3680 C   0  0  0  0  0  0  0  0  0  0  0  0
    3.7480    3.8610    0.8960 O   0  0  0  0  0  0  0  0  0  0  0  0
    0.8320    1.1370    1.8710 C   0  0  0  0  0  0  0  0  0  0  0  0
    0.8410    2.0130    2.7500 O   0  0  0  0  0  0  0  0  0  0  0  0
    3.3020    2.6650    2.7390 O   0  0  0  0  0  0  0  0  0  0  0  0
    0.9630   -0.0910   -0.5250 H   0  0  0  0  0  0  0  0  0  0  0  0
    2.7330    0.2000    1.9100 H   0  0  0  0  0  0  0  0  0  0  0  0
    3.7210    1.2530   -0.0030 H   0  0  0  0  0  0  0  0  0  0  0  0
    2.2020    2.1820   -0.3680 H   0  0  0  0  0  0  0  0  0  0  0  0
    3.9340    3.1120    3.3630 H   0  0  0  0  0  0  0  0  0  0  0  0
   -0.4760    0.6340    1.5620 N   0  0  0  0  0  0  0  0  0  0  0  0
   -1.6870    1.0540    2.1640 C   0  0  1  0  0  0  0  0  0  0  0  0
   -2.6720    1.7200    1.2670 C   0  0  0  0  0  0  0  0  0  0  0  0
   -4.1210    2.1450    2.3100 S   0  0  0  0  0  0  0  0  0  0  0  0
   -2.3450   -0.0300    2.9040 C   0  0  0  0  0  0  0  0  0  0  0  0
   -1.8470   -1.1990    2.9710 O   0  0  0  0  0  0  0  0  0  0  0  0
   -3.5480    0.1770    3.5670 O   0  0  0  0  0  0  0  0  0  0  0  0
   -0.5230   -0.1060    0.8310 H   0  0  0  0  0  0  0  0  0  0  0  0
   -1.4070    1.8310    2.9370 H   0  0  0  0  0  0  0  0  0  0  0  0
   -3.0470    1.0620    0.4750 H   0  0  0  0  0  0  0  0  0  0  0  0
   -2.3270    2.7050    0.8740 H   0  0  0  0  0  0  0  0  0  0  0  0
   -3.7230    2.9680    3.3850 H   0  0  0  0  0  0  0  0  0  0  0  0
  1  2  1  0  0  0  0
  1  9  1  0  0  0  0
  2  4  1  0  0  0  0
  3  2  2  0  0  0  0
  4 11  1  0  0  0  0
  5 13  1  6  0  0  0
  5  4  1  0  0  0  0
  5  6  1  0  0  0  0
  5  7  1  0  0  0  0
  6 15  1  0  0  0  0
  7  8  2  0  0  0  0
 10  1  1  0  0  0  0
 12  4  1  0  0  0  0
 14  6  1  0  0  0  0
 16  7  1  0  0  0  0
 16 17  1  0  0  0  0
 17 21  1  0  0  0  0
 17 25  1  1  0  0  0
 18 17  1  0  0  0  0
 18 19  1  0  0  0  0
 19 23  1  0  0  0  0
 20 19  2  0  0  0  0
 21 22  2  0  0  0  0
 23 28  1  0  0  0  0
 24 16  1  0  0  0  0
 26 18  1  0  0  0  0
 27 18  1  0  0  0  0
 29 21  1  0  0  0  0
 29 30  1  0  0  0  0
 30 33  1  0  0  0  0
 30 37  1  1  0  0  0
 31 30  1  0  0  0  0
 31 32  1  0  0  0  0
 32 40  1  0  0  0  0
 33 34  2  0  0  0  0
 33 35  1  0  0  0  0
 36 29  1  0  0  0  0
 38 31  1  0  0  0  0
 39 31  1  0  0  0  0
M  END
$$$$
