NDD.pdb
 OpenBabel07022418083D

 42 41  0  0  1  0  0  0  0  0999 V2000
    2.3910   -5.2460    3.9840 N   0  0  0  0  0  0  0  0  0  0  0  0
    1.9800   -3.9530    4.3610 C   0  0  0  0  0  0  0  0  0  0  0  0
    1.1170   -3.8570    5.2890 O   0  0  0  0  0  0  0  0  0  0  0  0
    2.4710   -2.6860    3.7610 C   0  0  0  0  0  0  0  0  0  0  0  0
    1.2120   -1.9780    3.2450 C   0  0  2  0  0  0  0  0  0  0  0  0
    0.6250   -2.8700    2.2830 N   0  0  0  0  0  0  0  0  0  0  0  0
    1.5070   -0.6510    2.7090 C   0  0  0  0  0  0  0  0  0  0  0  0
    2.0090    0.2460    3.4270 O   0  0  0  0  0  0  0  0  0  0  0  0
    1.7550   -6.0710    4.1050 H   0  0  0  0  0  0  0  0  0  0  0  0
    3.3210   -5.4140    3.5810 H   0  0  0  0  0  0  0  0  0  0  0  0
    3.2240   -2.8200    2.9910 H   0  0  0  0  0  0  0  0  0  0  0  0
    2.8730   -2.0950    4.6360 H   0  0  0  0  0  0  0  0  0  0  0  0
    0.5320   -1.9120    4.1080 H   0  0  0  0  0  0  0  0  0  0  0  0
   -0.0150   -3.5750    2.6930 H   0  0  0  0  0  0  0  0  0  0  0  0
    1.3240   -3.2020    1.6150 H   0  0  0  0  0  0  0  0  0  0  0  0
    1.2420   -0.2960    1.3370 N   0  0  0  0  0  0  0  0  0  0  0  0
    1.5470    1.0340    0.8430 C   0  0  1  0  0  0  0  0  0  0  0  0
    2.5900    0.9640   -0.2470 C   0  0  0  0  0  0  0  0  0  0  0  0
    2.1670    0.1520   -1.3770 C   0  0  0  0  0  0  0  0  0  0  0  0
    1.0910   -0.4790   -1.4040 O   0  0  0  0  0  0  0  0  0  0  0  0
    0.3270    1.6520    0.2910 C   0  0  0  0  0  0  0  0  0  0  0  0
    0.3770    2.8700   -0.0990 O   0  0  0  0  0  0  0  0  0  0  0  0
    2.9730    0.0520   -2.4940 O   0  0  0  0  0  0  0  0  0  0  0  0
    0.8260   -1.0530    0.7740 H   0  0  0  0  0  0  0  0  0  0  0  0
    1.9570    1.6570    1.6960 H   0  0  0  0  0  0  0  0  0  0  0  0
    3.5270    0.5680    0.2310 H   0  0  0  0  0  0  0  0  0  0  0  0
    2.7900    2.0350   -0.5580 H   0  0  0  0  0  0  0  0  0  0  0  0
    2.5650   -0.2960   -3.3660 H   0  0  0  0  0  0  0  0  0  0  0  0
   -0.9050    0.9790    0.1660 N   0  0  0  0  0  0  0  0  0  0  0  0
   -2.1290    1.5380   -0.3460 C   0  0  1  0  0  0  0  0  0  0  0  0
   -2.5690    0.8690   -1.5980 C   0  0  0  0  0  0  0  0  0  0  0  0
   -1.6570    0.9560   -2.7420 C   0  0  0  0  0  0  0  0  0  0  0  0
   -0.6220    1.6370   -2.7110 O   0  0  0  0  0  0  0  0  0  0  0  0
   -3.2180    1.3910    0.6490 C   0  0  0  0  0  0  0  0  0  0  0  0
   -4.3590    1.8110    0.3970 O   0  0  0  0  0  0  0  0  0  0  0  0
   -1.9460    0.2620   -3.9080 O   0  0  0  0  0  0  0  0  0  0  0  0
   -2.9540    0.7850    1.8540 O   0  0  0  0  0  0  0  0  0  0  0  0
   -0.9160   -0.0420    0.4850 H   0  0  0  0  0  0  0  0  0  0  0  0
   -1.9110    2.6200   -0.5360 H   0  0  0  0  0  0  0  0  0  0  0  0
   -3.5940    1.2440   -1.8700 H   0  0  0  0  0  0  0  0  0  0  0  0
   -2.7250   -0.2190   -1.3900 H   0  0  0  0  0  0  0  0  0  0  0  0
   -1.3010    0.0990   -4.6570 H   0  0  0  0  0  0  0  0  0  0  0  0
  1  9  1  0  0  0  0
  1  2  1  0  0  0  0
  2  3  2  0  0  0  0
  4  2  1  0  0  0  0
  4 12  1  0  0  0  0
  5  4  1  0  0  0  0
  5 13  1  1  0  0  0
  6 14  1  0  0  0  0
  6  5  1  0  0  0  0
  7  5  1  0  0  0  0
  7  8  2  0  0  0  0
 10  1  1  0  0  0  0
 11  4  1  0  0  0  0
 15  6  1  0  0  0  0
 16  7  1  0  0  0  0
 17 16  1  0  0  0  0
 17 25  1  1  0  0  0
 18 26  1  0  0  0  0
 18 17  1  0  0  0  0
 19 18  1  0  0  0  0
 20 19  2  0  0  0  0
 21 17  1  0  0  0  0
 22 21  2  0  0  0  0
 23 19  1  0  0  0  0
 24 16  1  0  0  0  0
 27 18  1  0  0  0  0
 28 23  1  0  0  0  0
 29 21  1  0  0  0  0
 29 38  1  0  0  0  0
 30 39  1  6  0  0  0
 30 29  1  0  0  0  0
 30 34  1  0  0  0  0
 31 41  1  0  0  0  0
 31 30  1  0  0  0  0
 32 33  2  0  0  0  0
 32 31  1  0  0  0  0
 34 37  1  0  0  0  0
 35 34  2  0  0  0  0
 36 32  1  0  0  0  0
 40 31  1  0  0  0  0
 42 36  1  0  0  0  0
M  END
$$$$
