NDE.pdb
 OpenBabel07022418083D

 45 44  0  0  1  0  0  0  0  0999 V2000
    6.3650   -3.4630    1.6510 N   0  0  0  0  0  0  0  0  0  0  0  0
    4.9680   -3.5140    1.3150 C   0  0  0  0  0  0  0  0  0  0  0  0
    4.1970   -3.7110    2.2770 O   0  0  0  0  0  0  0  0  0  0  0  0
    4.5030   -3.3450   -0.0630 C   0  0  0  0  0  0  0  0  0  0  0  0
    3.0240   -3.2900   -0.1870 C   0  0  2  0  0  0  0  0  0  0  0  0
    2.6870   -3.1620   -1.6410 N   0  0  0  0  0  0  0  0  0  0  0  0
    2.3980   -2.1330    0.5120 C   0  0  0  0  0  0  0  0  0  0  0  0
    2.4470   -2.0130    1.7420 O   0  0  0  0  0  0  0  0  0  0  0  0
    7.0370   -4.0260    1.1210 H   0  0  0  0  0  0  0  0  0  0  0  0
    6.6700   -2.8570    2.4220 H   0  0  0  0  0  0  0  0  0  0  0  0
    4.9710   -2.4620   -0.5680 H   0  0  0  0  0  0  0  0  0  0  0  0
    4.8340   -4.2320   -0.6870 H   0  0  0  0  0  0  0  0  0  0  0  0
    2.5780   -4.2310    0.1560 H   0  0  0  0  0  0  0  0  0  0  0  0
    1.6920   -3.5170   -1.7190 H   0  0  0  0  0  0  0  0  0  0  0  0
    3.2670   -3.9310   -2.0760 H   0  0  0  0  0  0  0  0  0  0  0  0
    1.7160   -1.1180   -0.2090 N   0  0  0  0  0  0  0  0  0  0  0  0
    1.0850    0.0410    0.4570 C   0  0  1  0  0  0  0  0  0  0  0  0
    1.7890    1.2890    0.0200 C   0  0  0  0  0  0  0  0  0  0  0  0
    1.3280    2.5470    0.5550 C   0  0  0  0  0  0  0  0  0  0  0  0
    0.5370    3.2700   -0.0970 O   0  0  0  0  0  0  0  0  0  0  0  0
   -0.3490   -0.0240    0.1570 C   0  0  0  0  0  0  0  0  0  0  0  0
   -0.7800   -0.8980   -0.6440 O   0  0  0  0  0  0  0  0  0  0  0  0
    1.7330    3.0020    1.7960 O   0  0  0  0  0  0  0  0  0  0  0  0
    1.6510   -1.1760   -1.2240 H   0  0  0  0  0  0  0  0  0  0  0  0
    1.2930   -0.1080    1.5580 H   0  0  0  0  0  0  0  0  0  0  0  0
    2.8920    1.1930    0.2360 H   0  0  0  0  0  0  0  0  0  0  0  0
    1.7660    1.2640   -1.1130 H   0  0  0  0  0  0  0  0  0  0  0  0
    1.8450    4.0060    1.9970 H   0  0  0  0  0  0  0  0  0  0  0  0
   -1.2900    0.8650    0.7410 N   0  0  0  0  0  0  0  0  0  0  0  0
   -2.7140    0.7990    0.4440 C   0  0  1  0  0  0  0  0  0  0  0  0
   -3.3580    0.2830    1.7340 C   0  0  0  0  0  0  0  0  0  0  0  0
   -4.8370    0.1370    1.6470 C   0  0  0  0  0  0  0  0  0  0  0  0
   -5.2980   -0.3810    2.9850 C   0  0  0  0  0  0  0  0  0  0  0  0
   -4.4990   -0.6080    3.9280 O   0  0  0  0  0  0  0  0  0  0  0  0
   -3.2870    2.0520   -0.0300 C   0  0  0  0  0  0  0  0  0  0  0  0
   -4.4970    2.1370   -0.3440 O   0  0  0  0  0  0  0  0  0  0  0  0
   -6.6390   -0.6290    3.2250 O   0  0  0  0  0  0  0  0  0  0  0  0
   -2.5380    3.2090   -0.1590 O   0  0  0  0  0  0  0  0  0  0  0  0
   -0.9250    1.5730    1.4060 H   0  0  0  0  0  0  0  0  0  0  0  0
   -2.9310    0.0020   -0.3050 H   0  0  0  0  0  0  0  0  0  0  0  0
   -3.0900    0.9900    2.5470 H   0  0  0  0  0  0  0  0  0  0  0  0
   -2.9180   -0.6970    1.9710 H   0  0  0  0  0  0  0  0  0  0  0  0
   -5.0820   -0.6220    0.8900 H   0  0  0  0  0  0  0  0  0  0  0  0
   -5.3860    1.0960    1.5220 H   0  0  0  0  0  0  0  0  0  0  0  0
   -7.0140   -0.7940    4.1640 H   0  0  0  0  0  0  0  0  0  0  0  0
  1 10  1  0  0  0  0
  2  1  1  0  0  0  0
  2  3  2  0  0  0  0
  4  2  1  0  0  0  0
  5  4  1  0  0  0  0
  5 13  1  1  0  0  0
  5  7  1  0  0  0  0
  6  5  1  0  0  0  0
  7  8  2  0  0  0  0
  9  1  1  0  0  0  0
 11  4  1  0  0  0  0
 12  4  1  0  0  0  0
 14  6  1  0  0  0  0
 15  6  1  0  0  0  0
 16 17  1  0  0  0  0
 16  7  1  0  0  0  0
 17 25  1  1  0  0  0
 18 26  1  0  0  0  0
 18 17  1  0  0  0  0
 18 19  1  0  0  0  0
 19 23  1  0  0  0  0
 20 19  2  0  0  0  0
 21 17  1  0  0  0  0
 21 29  1  0  0  0  0
 22 21  2  0  0  0  0
 23 28  1  0  0  0  0
 24 16  1  0  0  0  0
 27 18  1  0  0  0  0
 29 39  1  0  0  0  0
 30 40  1  6  0  0  0
 30 29  1  0  0  0  0
 30 31  1  0  0  0  0
 31 42  1  0  0  0  0
 31 41  1  0  0  0  0
 32 31  1  0  0  0  0
 32 33  1  0  0  0  0
 33 37  1  0  0  0  0
 33 34  2  0  0  0  0
 35 30  1  0  0  0  0
 36 35  2  0  0  0  0
 37 45  1  0  0  0  0
 38 35  1  0  0  0  0
 43 32  1  0  0  0  0
 44 32  1  0  0  0  0
M  END
$$$$
