NDP.pdb
 OpenBabel07022418083D

 43 43  0  0  1  0  0  0  0  0999 V2000
    3.4010   -4.1070    0.5810 N   0  0  0  0  0  0  0  0  0  0  0  0
    4.3390   -3.1060    0.2650 C   0  0  0  0  0  0  0  0  0  0  0  0
    5.4910   -3.4310   -0.0810 O   0  0  0  0  0  0  0  0  0  0  0  0
    3.9610   -1.6850    0.3400 C   0  0  0  0  0  0  0  0  0  0  0  0
    2.5420   -1.5830    0.8080 C   0  0  2  0  0  0  0  0  0  0  0  0
    1.6970   -2.2730   -0.1310 N   0  0  0  0  0  0  0  0  0  0  0  0
    2.0870   -0.1870    1.0500 C   0  0  0  0  0  0  0  0  0  0  0  0
    2.7330    0.5550    1.8250 O   0  0  0  0  0  0  0  0  0  0  0  0
    2.7870   -4.0500    1.4190 H   0  0  0  0  0  0  0  0  0  0  0  0
    3.3110   -4.9460   -0.0480 H   0  0  0  0  0  0  0  0  0  0  0  0
    4.0140   -1.2870   -0.7030 H   0  0  0  0  0  0  0  0  0  0  0  0
    4.6730   -1.0800    0.9420 H   0  0  0  0  0  0  0  0  0  0  0  0
    2.4900   -2.0810    1.8210 H   0  0  0  0  0  0  0  0  0  0  0  0
    1.7140   -1.7220   -1.0270 H   0  0  0  0  0  0  0  0  0  0  0  0
    0.7220   -2.3630    0.1970 H   0  0  0  0  0  0  0  0  0  0  0  0
    0.9320    0.3420    0.4280 N   0  0  0  0  0  0  0  0  0  0  0  0
    0.4140    1.6620    0.5850 C   0  0  1  0  0  0  0  0  0  0  0  0
    0.5900    2.3450   -0.7730 C   0  0  0  0  0  0  0  0  0  0  0  0
    2.0480    2.3430   -1.0560 C   0  0  0  0  0  0  0  0  0  0  0  0
    2.9010    2.8020   -0.2410 O   0  0  0  0  0  0  0  0  0  0  0  0
   -0.9380    1.7860    1.1180 C   0  0  0  0  0  0  0  0  0  0  0  0
   -1.3570    3.0080    1.1820 O   0  0  0  0  0  0  0  0  0  0  0  0
    2.5780    1.8230   -2.2570 O   0  0  0  0  0  0  0  0  0  0  0  0
    0.4350   -0.3250   -0.2130 H   0  0  0  0  0  0  0  0  0  0  0  0
    1.1580    2.2010    1.2540 H   0  0  0  0  0  0  0  0  0  0  0  0
    0.2340    3.3900   -0.7360 H   0  0  0  0  0  0  0  0  0  0  0  0
    0.1160    1.7570   -1.5810 H   0  0  0  0  0  0  0  0  0  0  0  0
    3.5670    2.0140   -2.4860 H   0  0  0  0  0  0  0  0  0  0  0  0
   -1.8000    0.7510    1.5510 N   0  0  0  0  0  0  0  0  0  0  0  0
   -3.1600    1.0000    2.0540 C   0  0  0  0  0  0  0  0  0  0  0  0
   -3.6780   -0.2890    2.5860 C   0  0  0  0  0  0  0  0  0  0  0  0
   -2.4760   -1.1600    2.7850 C   0  0  0  0  0  0  0  0  0  0  0  0
   -1.5910   -0.6730    1.6190 C   0  0  1  0  0  0  0  0  0  0  0  0
   -2.1790   -1.3590    0.4130 C   0  0  0  0  0  0  0  0  0  0  0  0
   -2.7450   -0.7370   -0.4900 O   0  0  0  0  0  0  0  0  0  0  0  0
   -2.0600   -2.7530    0.3540 O   0  0  0  0  0  0  0  0  0  0  0  0
   -3.0950    1.7160    2.8980 H   0  0  0  0  0  0  0  0  0  0  0  0
   -3.7930    1.4470    1.2710 H   0  0  0  0  0  0  0  0  0  0  0  0
   -4.2760   -0.1740    3.5130 H   0  0  0  0  0  0  0  0  0  0  0  0
   -4.3580   -0.7710    1.8280 H   0  0  0  0  0  0  0  0  0  0  0  0
   -1.9670   -0.9900    3.7480 H   0  0  0  0  0  0  0  0  0  0  0  0
   -2.7470   -2.2210    2.5970 H   0  0  0  0  0  0  0  0  0  0  0  0
   -0.5630   -0.9770    1.8270 H   0  0  0  0  0  0  0  0  0  0  0  0
  1  9  1  0  0  0  0
  2  4  1  0  0  0  0
  2  1  1  0  0  0  0
  3  2  2  0  0  0  0
  4  5  1  0  0  0  0
  4 12  1  0  0  0  0
  5  7  1  0  0  0  0
  5 13  1  1  0  0  0
  6 15  1  0  0  0  0
  6  5  1  0  0  0  0
  7  8  2  0  0  0  0
 10  1  1  0  0  0  0
 11  4  1  0  0  0  0
 14  6  1  0  0  0  0
 16 17  1  0  0  0  0
 16  7  1  0  0  0  0
 17 21  1  0  0  0  0
 17 25  1  1  0  0  0
 18 26  1  0  0  0  0
 18 17  1  0  0  0  0
 19 18  1  0  0  0  0
 19 20  2  0  0  0  0
 21 22  2  0  0  0  0
 21 29  1  0  0  0  0
 23 19  1  0  0  0  0
 24 16  1  0  0  0  0
 27 18  1  0  0  0  0
 28 23  1  0  0  0  0
 29 33  1  0  0  0  0
 29 30  1  0  0  0  0
 30 31  1  0  0  0  0
 30 37  1  0  0  0  0
 31 32  1  0  0  0  0
 31 39  1  0  0  0  0
 32 41  1  0  0  0  0
 33 43  1  1  0  0  0
 33 32  1  0  0  0  0
 34 33  1  0  0  0  0
 35 34  2  0  0  0  0
 36 34  1  0  0  0  0
 38 30  1  0  0  0  0
 40 31  1  0  0  0  0
 42 32  1  0  0  0  0
M  END
$$$$
