NDR.pdb
 OpenBabel07022418083D

 52 51  0  0  1  0  0  0  0  0999 V2000
    2.6550   -1.2520    3.0990 N   0  0  0  0  0  0  0  0  0  0  0  0
    2.8530    0.1380    3.3330 C   0  0  0  0  0  0  0  0  0  0  0  0
    2.4740    0.6120    4.4400 O   0  0  0  0  0  0  0  0  0  0  0  0
    3.4820    0.9840    2.3000 C   0  0  0  0  0  0  0  0  0  0  0  0
    2.6190    2.1630    1.9060 C   0  0  2  0  0  0  0  0  0  0  0  0
    2.3700    2.9760    3.0690 N   0  0  0  0  0  0  0  0  0  0  0  0
    1.3650    1.7370    1.2470 C   0  0  0  0  0  0  0  0  0  0  0  0
    0.2770    2.1160    1.7400 O   0  0  0  0  0  0  0  0  0  0  0  0
    1.9990   -1.8300    3.6840 H   0  0  0  0  0  0  0  0  0  0  0  0
    3.1570   -1.7440    2.3360 H   0  0  0  0  0  0  0  0  0  0  0  0
    4.4300    1.4280    2.7210 H   0  0  0  0  0  0  0  0  0  0  0  0
    3.7990    0.3690    1.4610 H   0  0  0  0  0  0  0  0  0  0  0  0
    3.1980    2.7700    1.1670 H   0  0  0  0  0  0  0  0  0  0  0  0
    1.5720    2.5890    3.6020 H   0  0  0  0  0  0  0  0  0  0  0  0
    3.2030    3.0900    3.6540 H   0  0  0  0  0  0  0  0  0  0  0  0
    1.3460    0.9250    0.0930 N   0  0  0  0  0  0  0  0  0  0  0  0
    0.0840    0.5430   -0.4960 C   0  0  1  0  0  0  0  0  0  0  0  0
   -0.0330    1.0000   -1.9370 C   0  0  0  0  0  0  0  0  0  0  0  0
    0.0690    2.4550   -2.0740 C   0  0  0  0  0  0  0  0  0  0  0  0
    0.2420    3.2090   -1.0990 O   0  0  0  0  0  0  0  0  0  0  0  0
    0.0100   -0.9450   -0.4710 C   0  0  0  0  0  0  0  0  0  0  0  0
    0.9580   -1.5840    0.0360 O   0  0  0  0  0  0  0  0  0  0  0  0
   -0.0290    3.0230   -3.3340 O   0  0  0  0  0  0  0  0  0  0  0  0
    2.2340    0.5970   -0.3400 H   0  0  0  0  0  0  0  0  0  0  0  0
   -0.7470    0.9750    0.0730 H   0  0  0  0  0  0  0  0  0  0  0  0
    0.7020    0.4770   -2.5770 H   0  0  0  0  0  0  0  0  0  0  0  0
   -1.0660    0.7090   -2.2590 H   0  0  0  0  0  0  0  0  0  0  0  0
   -0.3800    3.9750   -3.5020 H   0  0  0  0  0  0  0  0  0  0  0  0
   -1.0330   -0.4440    2.9750 N   0  0  0  0  0  0  0  0  0  0  0  0
   -1.7670   -1.5310    2.4780 C   0  0  0  0  0  0  0  0  0  0  0  0
   -1.7080   -2.7240    2.9950 N   0  0  0  0  0  0  0  0  0  0  0  0
   -2.6360   -1.3270    1.3400 N   0  0  0  0  0  0  0  0  0  0  0  0
   -3.5970   -2.3180    0.9860 C   0  0  0  0  0  0  0  0  0  0  0  0
   -3.1470   -3.6200    0.5030 C   0  0  0  0  0  0  0  0  0  0  0  0
   -2.4130   -3.7780   -0.7520 C   0  0  0  0  0  0  0  0  0  0  0  0
   -1.1250   -3.1230   -0.9860 C   0  0  2  0  0  0  0  0  0  0  0  0
   -1.0820   -1.6950   -0.9990 N   0  0  0  0  0  0  0  0  0  0  0  0
   -0.5060   -3.6580   -2.2730 C   0  0  0  0  0  0  0  0  0  0  0  0
   -0.0900   -2.8520   -3.1000 O   0  0  0  0  0  0  0  0  0  0  0  0
   -0.4470   -5.0080   -2.4380 O   0  0  0  0  0  0  0  0  0  0  0  0
    0.0160   -0.3530    2.8440 H   0  0  0  0  0  0  0  0  0  0  0  0
   -1.4850    0.3370    3.5050 H   0  0  0  0  0  0  0  0  0  0  0  0
   -1.0780   -2.8460    3.8160 H   0  0  0  0  0  0  0  0  0  0  0  0
   -2.5150   -0.4150    0.8480 H   0  0  0  0  0  0  0  0  0  0  0  0
   -4.3870   -2.4210    1.7950 H   0  0  0  0  0  0  0  0  0  0  0  0
   -4.2120   -1.8500    0.1440 H   0  0  0  0  0  0  0  0  0  0  0  0
   -2.5980   -4.1620    1.3510 H   0  0  0  0  0  0  0  0  0  0  0  0
   -4.0690   -4.3180    0.4010 H   0  0  0  0  0  0  0  0  0  0  0  0
   -3.1180   -3.4480   -1.6080 H   0  0  0  0  0  0  0  0  0  0  0  0
   -2.2850   -4.9030   -0.9540 H   0  0  0  0  0  0  0  0  0  0  0  0
   -0.3510   -3.4700   -0.2270 H   0  0  0  0  0  0  0  0  0  0  0  0
   -1.8580   -1.1250   -1.4020 H   0  0  0  0  0  0  0  0  0  0  0  0
  1  2  1  0  0  0  0
  1  9  1  0  0  0  0
  2  3  2  0  0  0  0
  4 11  1  0  0  0  0
  4  2  1  0  0  0  0
  5 13  1  6  0  0  0
  5  4  1  0  0  0  0
  5  6  1  0  0  0  0
  6 14  1  0  0  0  0
  6 15  1  0  0  0  0
  7  8  2  0  0  0  0
  7  5  1  0  0  0  0
 10  1  1  0  0  0  0
 12  4  1  0  0  0  0
 16  7  1  0  0  0  0
 17 21  1  0  0  0  0
 17 25  1  1  0  0  0
 17 16  1  0  0  0  0
 18 17  1  0  0  0  0
 19 18  1  0  0  0  0
 19 20  2  0  0  0  0
 21 22  2  0  0  0  0
 23 19  1  0  0  0  0
 24 16  1  0  0  0  0
 26 18  1  0  0  0  0
 27 18  1  0  0  0  0
 28 23  1  0  0  0  0
 29 42  1  0  0  0  0
 30 29  1  0  0  0  0
 30 31  2  0  0  0  0
 31 43  1  0  0  0  0
 32 30  1  0  0  0  0
 33 32  1  0  0  0  0
 33 45  1  0  0  0  0
 34 33  1  0  0  0  0
 34 47  1  0  0  0  0
 35 34  1  0  0  0  0
 36 35  1  0  0  0  0
 36 51  1  1  0  0  0
 37 36  1  0  0  0  0
 37 21  1  0  0  0  0
 38 36  1  0  0  0  0
 39 38  2  0  0  0  0
 40 38  1  0  0  0  0
 41 29  1  0  0  0  0
 44 32  1  0  0  0  0
 46 33  1  0  0  0  0
 48 34  1  0  0  0  0
 49 35  1  0  0  0  0
 50 35  1  0  0  0  0
 52 37  1  0  0  0  0
M  END
$$$$
