NEC.pdb
 OpenBabel07022418083D

 43 42  0  0  1  0  0  0  0  0999 V2000
   -1.2260   -4.1910    4.0240 N   0  0  0  0  0  0  0  0  0  0  0  0
   -0.8790   -2.8230    4.0380 C   0  0  0  0  0  0  0  0  0  0  0  0
   -1.2250   -2.1330    5.0280 O   0  0  0  0  0  0  0  0  0  0  0  0
   -0.1370   -2.1890    2.9480 C   0  0  0  0  0  0  0  0  0  0  0  0
    0.0810   -0.7090    3.1570 C   0  0  2  0  0  0  0  0  0  0  0  0
   -1.1750   -0.0210    3.2600 N   0  0  0  0  0  0  0  0  0  0  0  0
    0.9140   -0.2350    2.0070 C   0  0  0  0  0  0  0  0  0  0  0  0
    2.0590   -0.7260    1.9500 O   0  0  0  0  0  0  0  0  0  0  0  0
   -1.9810   -4.5200    4.6580 H   0  0  0  0  0  0  0  0  0  0  0  0
   -0.7760   -4.9180    3.4130 H   0  0  0  0  0  0  0  0  0  0  0  0
   -0.7130   -2.3360    1.9910 H   0  0  0  0  0  0  0  0  0  0  0  0
    0.8650   -2.6360    2.7600 H   0  0  0  0  0  0  0  0  0  0  0  0
    0.6640   -0.5310    4.0740 H   0  0  0  0  0  0  0  0  0  0  0  0
   -1.8830   -0.2820    2.5700 H   0  0  0  0  0  0  0  0  0  0  0  0
   -1.0460    1.0020    3.2450 H   0  0  0  0  0  0  0  0  0  0  0  0
    0.4690    0.6800    1.0650 N   0  0  0  0  0  0  0  0  0  0  0  0
    1.2220    1.1820   -0.0410 C   0  0  1  0  0  0  0  0  0  0  0  0
    2.7130    1.2570    0.2260 C   0  0  0  0  0  0  0  0  0  0  0  0
    3.0070    2.1700    1.3730 C   0  0  0  0  0  0  0  0  0  0  0  0
    2.6480    3.5810    1.1600 C   0  0  0  0  0  0  0  0  0  0  0  0
    2.2490    4.0100    0.0630 O   0  0  0  0  0  0  0  0  0  0  0  0
    0.9280    0.4210   -1.2730 C   0  0  0  0  0  0  0  0  0  0  0  0
    1.4320    0.6810   -2.3850 O   0  0  0  0  0  0  0  0  0  0  0  0
    2.7360    4.5270    2.1910 O   0  0  0  0  0  0  0  0  0  0  0  0
   -0.5140    1.0400    1.1720 H   0  0  0  0  0  0  0  0  0  0  0  0
    0.9480    2.2700   -0.2340 H   0  0  0  0  0  0  0  0  0  0  0  0
    3.1760    1.7440   -0.6980 H   0  0  0  0  0  0  0  0  0  0  0  0
    3.1800    0.2760    0.3110 H   0  0  0  0  0  0  0  0  0  0  0  0
    2.5280    1.8440    2.3370 H   0  0  0  0  0  0  0  0  0  0  0  0
    4.1360    2.1470    1.5180 H   0  0  0  0  0  0  0  0  0  0  0  0
    2.5210    5.4840    2.0080 H   0  0  0  0  0  0  0  0  0  0  0  0
    0.0220   -0.6790   -1.2180 N   0  0  0  0  0  0  0  0  0  0  0  0
   -0.2830   -1.4380   -2.3910 C   0  0  1  0  0  0  0  0  0  0  0  0
    0.1930   -2.8820   -2.2360 C   0  0  0  0  0  0  0  0  0  0  0  0
   -0.6460   -3.6190   -0.8130 S   0  0  0  0  0  0  0  0  0  0  0  0
   -1.7180   -1.4780   -2.7070 C   0  0  0  0  0  0  0  0  0  0  0  0
   -2.0880   -2.1300   -3.7340 O   0  0  0  0  0  0  0  0  0  0  0  0
   -2.6990   -0.8530   -1.9600 O   0  0  0  0  0  0  0  0  0  0  0  0
   -0.4170   -0.9230   -0.3010 H   0  0  0  0  0  0  0  0  0  0  0  0
    0.2500   -1.0050   -3.2750 H   0  0  0  0  0  0  0  0  0  0  0  0
    1.2910   -2.9400   -2.1730 H   0  0  0  0  0  0  0  0  0  0  0  0
   -0.1070   -3.4830   -3.1270 H   0  0  0  0  0  0  0  0  0  0  0  0
   -1.8620   -2.9210   -0.6220 H   0  0  0  0  0  0  0  0  0  0  0  0
  1  2  1  0  0  0  0
  1  9  1  0  0  0  0
  2  3  2  0  0  0  0
  4  5  1  0  0  0  0
  4  2  1  0  0  0  0
  5  6  1  0  0  0  0
  5 13  1  1  0  0  0
  7  5  1  0  0  0  0
  8  7  2  0  0  0  0
 10  1  1  0  0  0  0
 11  4  1  0  0  0  0
 12  4  1  0  0  0  0
 14  6  1  0  0  0  0
 15  6  1  0  0  0  0
 16 25  1  0  0  0  0
 16  7  1  0  0  0  0
 17 26  1  6  0  0  0
 17 18  1  0  0  0  0
 17 16  1  0  0  0  0
 18 28  1  0  0  0  0
 18 19  1  0  0  0  0
 19 30  1  0  0  0  0
 19 29  1  0  0  0  0
 20 19  1  0  0  0  0
 20 24  1  0  0  0  0
 21 20  2  0  0  0  0
 22 32  1  0  0  0  0
 22 17  1  0  0  0  0
 23 22  2  0  0  0  0
 27 18  1  0  0  0  0
 31 24  1  0  0  0  0
 32 39  1  0  0  0  0
 33 40  1  6  0  0  0
 33 34  1  0  0  0  0
 33 32  1  0  0  0  0
 34 41  1  0  0  0  0
 34 35  1  0  0  0  0
 35 43  1  0  0  0  0
 36 33  1  0  0  0  0
 36 38  1  0  0  0  0
 37 36  2  0  0  0  0
 42 34  1  0  0  0  0
M  END
$$$$
