NED.pdb
 OpenBabel07022418083D

 45 44  0  0  1  0  0  0  0  0999 V2000
   -2.4480   -3.0140    3.9440 N   0  0  0  0  0  0  0  0  0  0  0  0
   -1.6000   -1.8740    3.9770 C   0  0  0  0  0  0  0  0  0  0  0  0
   -0.5310   -1.9420    4.5930 O   0  0  0  0  0  0  0  0  0  0  0  0
   -2.0370   -0.6760    3.2820 C   0  0  0  0  0  0  0  0  0  0  0  0
   -1.0610    0.4510    3.2750 C   0  0  2  0  0  0  0  0  0  0  0  0
   -1.7110    1.5760    2.5640 N   0  0  0  0  0  0  0  0  0  0  0  0
    0.1770    0.0920    2.4820 C   0  0  0  0  0  0  0  0  0  0  0  0
    0.9310   -0.8020    2.9170 O   0  0  0  0  0  0  0  0  0  0  0  0
   -3.4770   -2.9450    3.8170 H   0  0  0  0  0  0  0  0  0  0  0  0
   -2.0050   -3.9490    4.0520 H   0  0  0  0  0  0  0  0  0  0  0  0
   -3.0240   -0.3030    3.6510 H   0  0  0  0  0  0  0  0  0  0  0  0
   -2.2500   -0.9790    2.2140 H   0  0  0  0  0  0  0  0  0  0  0  0
   -0.7720    0.7890    4.2800 H   0  0  0  0  0  0  0  0  0  0  0  0
   -2.1210    1.2620    1.6810 H   0  0  0  0  0  0  0  0  0  0  0  0
   -1.1270    2.4150    2.5470 H   0  0  0  0  0  0  0  0  0  0  0  0
    0.4470    0.7700    1.2860 N   0  0  0  0  0  0  0  0  0  0  0  0
    1.5870    0.5510    0.4460 C   0  0  1  0  0  0  0  0  0  0  0  0
    2.7770   -0.0480    1.1560 C   0  0  0  0  0  0  0  0  0  0  0  0
    3.2870    0.8740    2.2040 C   0  0  0  0  0  0  0  0  0  0  0  0
    3.8680    2.1010    1.5700 C   0  0  0  0  0  0  0  0  0  0  0  0
    4.0400    2.2000    0.3590 O   0  0  0  0  0  0  0  0  0  0  0  0
    1.2370   -0.1490   -0.8060 C   0  0  0  0  0  0  0  0  0  0  0  0
    2.1400   -0.4310   -1.6700 O   0  0  0  0  0  0  0  0  0  0  0  0
    4.2370    3.1920    2.3650 O   0  0  0  0  0  0  0  0  0  0  0  0
   -0.2320    1.5060    0.9600 H   0  0  0  0  0  0  0  0  0  0  0  0
    1.9800    1.6010    0.1690 H   0  0  0  0  0  0  0  0  0  0  0  0
    2.6440   -1.0980    1.4650 H   0  0  0  0  0  0  0  0  0  0  0  0
    3.5960   -0.1170    0.3700 H   0  0  0  0  0  0  0  0  0  0  0  0
    2.4390    1.2580    2.8310 H   0  0  0  0  0  0  0  0  0  0  0  0
    4.0600    0.4000    2.8630 H   0  0  0  0  0  0  0  0  0  0  0  0
    5.1050    3.6800    2.1660 H   0  0  0  0  0  0  0  0  0  0  0  0
   -0.0740   -0.5540   -1.1500 N   0  0  0  0  0  0  0  0  0  0  0  0
   -0.3240   -1.2290   -2.3820 C   0  0  1  0  0  0  0  0  0  0  0  0
   -0.9550   -2.5770   -2.0960 C   0  0  0  0  0  0  0  0  0  0  0  0
   -0.1480   -3.4740   -1.2800 C   0  0  0  0  0  0  0  0  0  0  0  0
    0.9820   -3.1580   -0.8440 O   0  0  0  0  0  0  0  0  0  0  0  0
   -1.1750   -0.4440   -3.3130 C   0  0  0  0  0  0  0  0  0  0  0  0
   -1.5850    0.6770   -2.9620 O   0  0  0  0  0  0  0  0  0  0  0  0
   -0.6500   -4.7280   -0.9730 O   0  0  0  0  0  0  0  0  0  0  0  0
   -1.5300   -0.9100   -4.5560 O   0  0  0  0  0  0  0  0  0  0  0  0
   -0.8430   -0.3480   -0.4880 H   0  0  0  0  0  0  0  0  0  0  0  0
    0.6370   -1.4600   -2.9380 H   0  0  0  0  0  0  0  0  0  0  0  0
   -1.1360   -3.1070   -3.0770 H   0  0  0  0  0  0  0  0  0  0  0  0
   -1.9920   -2.4490   -1.6730 H   0  0  0  0  0  0  0  0  0  0  0  0
   -0.3760   -5.2570   -0.1570 H   0  0  0  0  0  0  0  0  0  0  0  0
  1  2  1  0  0  0  0
  1 10  1  0  0  0  0
  2  3  2  0  0  0  0
  4 11  1  0  0  0  0
  4  2  1  0  0  0  0
  5  4  1  0  0  0  0
  5 13  1  1  0  0  0
  6  5  1  0  0  0  0
  7  8  2  0  0  0  0
  7  5  1  0  0  0  0
  9  1  1  0  0  0  0
 12  4  1  0  0  0  0
 14  6  1  0  0  0  0
 15  6  1  0  0  0  0
 16  7  1  0  0  0  0
 17 26  1  6  0  0  0
 17 18  1  0  0  0  0
 17 16  1  0  0  0  0
 18 27  1  0  0  0  0
 18 19  1  0  0  0  0
 19 29  1  0  0  0  0
 19 30  1  0  0  0  0
 20 19  1  0  0  0  0
 20 24  1  0  0  0  0
 21 20  2  0  0  0  0
 22 17  1  0  0  0  0
 23 22  2  0  0  0  0
 25 16  1  0  0  0  0
 28 18  1  0  0  0  0
 31 24  1  0  0  0  0
 32 22  1  0  0  0  0
 32 41  1  0  0  0  0
 33 42  1  6  0  0  0
 33 34  1  0  0  0  0
 33 32  1  0  0  0  0
 34 44  1  0  0  0  0
 34 35  1  0  0  0  0
 35 39  1  0  0  0  0
 35 36  2  0  0  0  0
 37 38  1  0  0  0  0
 37 33  1  0  0  0  0
 39 45  1  0  0  0  0
 40 37  2  0  0  0  0
 43 34  1  0  0  0  0
M  END
$$$$
