NEE.pdb
 OpenBabel07022418083D

 48 47  0  0  1  0  0  0  0  0999 V2000
   -3.0450    0.7700    3.6750 N   0  0  0  0  0  0  0  0  0  0  0  0
   -2.3840    0.4050    2.4670 C   0  0  0  0  0  0  0  0  0  0  0  0
   -2.2350   -0.8040    2.1930 O   0  0  0  0  0  0  0  0  0  0  0  0
   -1.8870    1.4540    1.5620 C   0  0  0  0  0  0  0  0  0  0  0  0
   -0.4630    1.8780    1.8230 C   0  0  2  0  0  0  0  0  0  0  0  0
   -0.1470    2.9100    0.8490 N   0  0  0  0  0  0  0  0  0  0  0  0
    0.4180    0.6830    1.5950 C   0  0  0  0  0  0  0  0  0  0  0  0
    0.3030   -0.2670    2.3780 O   0  0  0  0  0  0  0  0  0  0  0  0
   -2.5160    0.6330    4.5630 H   0  0  0  0  0  0  0  0  0  0  0  0
   -4.0070    1.1490    3.5990 H   0  0  0  0  0  0  0  0  0  0  0  0
   -2.0200    1.0720    0.5230 H   0  0  0  0  0  0  0  0  0  0  0  0
   -2.5960    2.3200    1.6640 H   0  0  0  0  0  0  0  0  0  0  0  0
   -0.3790    2.2950    2.8250 H   0  0  0  0  0  0  0  0  0  0  0  0
    0.7620    3.3570    0.9820 H   0  0  0  0  0  0  0  0  0  0  0  0
   -0.4150    2.6730   -0.1110 H   0  0  0  0  0  0  0  0  0  0  0  0
    1.3430    0.6220    0.5420 N   0  0  0  0  0  0  0  0  0  0  0  0
    2.2120   -0.4950    0.2810 C   0  0  1  0  0  0  0  0  0  0  0  0
    2.9050   -1.0670    1.4800 C   0  0  0  0  0  0  0  0  0  0  0  0
    3.8020   -0.0740    2.1140 C   0  0  0  0  0  0  0  0  0  0  0  0
    3.1980    1.1690    2.5900 C   0  0  0  0  0  0  0  0  0  0  0  0
    3.1460    2.2400    1.8930 O   0  0  0  0  0  0  0  0  0  0  0  0
    1.5890   -1.5250   -0.5890 C   0  0  0  0  0  0  0  0  0  0  0  0
    2.2690   -2.5400   -0.8760 O   0  0  0  0  0  0  0  0  0  0  0  0
    2.6420    1.2290    3.8570 O   0  0  0  0  0  0  0  0  0  0  0  0
    1.3880    1.4690   -0.0940 H   0  0  0  0  0  0  0  0  0  0  0  0
    3.1040   -0.0990   -0.3460 H   0  0  0  0  0  0  0  0  0  0  0  0
    2.2240   -1.4960    2.2380 H   0  0  0  0  0  0  0  0  0  0  0  0
    3.5810   -1.8760    1.0590 H   0  0  0  0  0  0  0  0  0  0  0  0
    4.3750   -0.4930    2.9800 H   0  0  0  0  0  0  0  0  0  0  0  0
    4.6010    0.2080    1.3630 H   0  0  0  0  0  0  0  0  0  0  0  0
    2.3470    2.0940    4.3020 H   0  0  0  0  0  0  0  0  0  0  0  0
    0.2730   -1.4230   -1.1110 N   0  0  0  0  0  0  0  0  0  0  0  0
   -0.3410   -2.4190   -1.9580 C   0  0  1  0  0  0  0  0  0  0  0  0
   -1.5810   -2.9430   -1.2660 C   0  0  0  0  0  0  0  0  0  0  0  0
   -1.2740   -3.5730    0.0600 C   0  0  0  0  0  0  0  0  0  0  0  0
   -2.5070   -4.0630    0.6890 C   0  0  0  0  0  0  0  0  0  0  0  0
   -3.6050   -3.9170    0.1070 O   0  0  0  0  0  0  0  0  0  0  0  0
   -0.7500   -1.8660   -3.2690 C   0  0  0  0  0  0  0  0  0  0  0  0
   -1.2980   -2.6400   -4.0880 O   0  0  0  0  0  0  0  0  0  0  0  0
   -2.4910   -4.6890    1.9210 O   0  0  0  0  0  0  0  0  0  0  0  0
   -0.5630   -0.5480   -3.6400 O   0  0  0  0  0  0  0  0  0  0  0  0
   -0.2630   -0.5660   -0.8520 H   0  0  0  0  0  0  0  0  0  0  0  0
    0.3180   -3.2760   -2.1640 H   0  0  0  0  0  0  0  0  0  0  0  0
   -2.2810   -2.0830   -1.0520 H   0  0  0  0  0  0  0  0  0  0  0  0
   -2.1500   -3.6100   -1.9410 H   0  0  0  0  0  0  0  0  0  0  0  0
   -0.7900   -2.7920    0.6910 H   0  0  0  0  0  0  0  0  0  0  0  0
   -0.5170   -4.3700   -0.0800 H   0  0  0  0  0  0  0  0  0  0  0  0
   -3.3560   -4.9210    2.4320 H   0  0  0  0  0  0  0  0  0  0  0  0
  1  9  1  0  0  0  0
  2  1  1  0  0  0  0
  3  2  2  0  0  0  0
  4 12  1  0  0  0  0
  4  5  1  0  0  0  0
  4  2  1  0  0  0  0
  5 13  1  1  0  0  0
  6 14  1  0  0  0  0
  6  5  1  0  0  0  0
  7  5  1  0  0  0  0
  7  8  2  0  0  0  0
 10  1  1  0  0  0  0
 11  4  1  0  0  0  0
 15  6  1  0  0  0  0
 16  7  1  0  0  0  0
 17 26  1  6  0  0  0
 17 16  1  0  0  0  0
 17 18  1  0  0  0  0
 18 19  1  0  0  0  0
 18 27  1  0  0  0  0
 19 20  1  0  0  0  0
 19 29  1  0  0  0  0
 20 24  1  0  0  0  0
 21 20  2  0  0  0  0
 22 17  1  0  0  0  0
 23 22  2  0  0  0  0
 24 31  1  0  0  0  0
 25 16  1  0  0  0  0
 28 18  1  0  0  0  0
 30 19  1  0  0  0  0
 32 42  1  0  0  0  0
 32 22  1  0  0  0  0
 33 43  1  6  0  0  0
 33 34  1  0  0  0  0
 33 32  1  0  0  0  0
 34 44  1  0  0  0  0
 34 35  1  0  0  0  0
 35 36  1  0  0  0  0
 35 46  1  0  0  0  0
 36 40  1  0  0  0  0
 37 36  2  0  0  0  0
 38 33  1  0  0  0  0
 39 38  2  0  0  0  0
 40 48  1  0  0  0  0
 41 38  1  0  0  0  0
 45 34  1  0  0  0  0
 47 35  1  0  0  0  0
M  END
$$$$
