NEH.pdb
 OpenBabel07022418083D

 49 49  0  0  1  0  0  0  0  0999 V2000
    4.1810   -2.1910    4.3560 N   0  0  0  0  0  0  0  0  0  0  0  0
    5.0580   -2.1180    3.2500 C   0  0  0  0  0  0  0  0  0  0  0  0
    5.9570   -1.2120    3.2720 O   0  0  0  0  0  0  0  0  0  0  0  0
    4.9230   -3.0600    2.1240 C   0  0  0  0  0  0  0  0  0  0  0  0
    4.1790   -2.5030    0.9500 C   0  0  2  0  0  0  0  0  0  0  0  0
    4.8180   -1.3460    0.4120 N   0  0  0  0  0  0  0  0  0  0  0  0
    2.7380   -2.2310    1.2960 C   0  0  0  0  0  0  0  0  0  0  0  0
    2.0240   -3.1300    1.8060 O   0  0  0  0  0  0  0  0  0  0  0  0
    3.7490   -3.1030    4.6710 H   0  0  0  0  0  0  0  0  0  0  0  0
    3.9520   -1.3330    4.8770 H   0  0  0  0  0  0  0  0  0  0  0  0
    4.5020   -4.0360    2.4430 H   0  0  0  0  0  0  0  0  0  0  0  0
    5.9660   -3.2840    1.7780 H   0  0  0  0  0  0  0  0  0  0  0  0
    4.1530   -3.2940    0.1620 H   0  0  0  0  0  0  0  0  0  0  0  0
    5.1640   -0.6840    1.1290 H   0  0  0  0  0  0  0  0  0  0  0  0
    5.4440   -1.5070   -0.3870 H   0  0  0  0  0  0  0  0  0  0  0  0
    2.1460   -0.9700    1.0600 N   0  0  0  0  0  0  0  0  0  0  0  0
    0.7760   -0.6830    1.3820 C   0  0  1  0  0  0  0  0  0  0  0  0
    0.6150    0.3490    2.4380 C   0  0  0  0  0  0  0  0  0  0  0  0
    1.1980    1.6880    2.1760 C   0  0  0  0  0  0  0  0  0  0  0  0
    0.6780    2.4070    1.0070 C   0  0  0  0  0  0  0  0  0  0  0  0
    1.0760    2.2120   -0.1670 O   0  0  0  0  0  0  0  0  0  0  0  0
   -0.1020   -0.5300    0.2000 C   0  0  0  0  0  0  0  0  0  0  0  0
    0.3090   -0.6340   -0.9920 O   0  0  0  0  0  0  0  0  0  0  0  0
   -0.3190    3.3740    1.1680 O   0  0  0  0  0  0  0  0  0  0  0  0
    2.7360   -0.2230    0.6360 H   0  0  0  0  0  0  0  0  0  0  0  0
    0.3930   -1.6530    1.8660 H   0  0  0  0  0  0  0  0  0  0  0  0
   -0.4840    0.4590    2.6440 H   0  0  0  0  0  0  0  0  0  0  0  0
    1.0040   -0.0990    3.4010 H   0  0  0  0  0  0  0  0  0  0  0  0
    2.3130    1.6860    2.1520 H   0  0  0  0  0  0  0  0  0  0  0  0
    0.9590    2.3180    3.0880 H   0  0  0  0  0  0  0  0  0  0  0  0
   -0.5150    4.0010    0.4050 H   0  0  0  0  0  0  0  0  0  0  0  0
   -1.4770   -0.2550    0.3560 N   0  0  0  0  0  0  0  0  0  0  0  0
   -2.3730   -0.1050   -0.7740 C   0  0  1  0  0  0  0  0  0  0  0  0
   -3.3170   -1.3120   -0.7000 C   0  0  0  0  0  0  0  0  0  0  0  0
   -4.2910   -1.2910   -1.7970 C   0  0  0  0  0  0  0  0  0  0  0  0
   -5.5270   -0.7130   -1.7730 C   0  0  0  0  0  0  0  0  0  0  0  0
   -6.0950   -0.9260   -2.9670 N   0  0  0  0  0  0  0  0  0  0  0  0
   -5.2190   -1.6210   -3.7020 C   0  0  0  0  0  0  0  0  0  0  0  0
   -4.1140   -1.8460   -2.9900 N   0  0  0  0  0  0  0  0  0  0  0  0
   -3.1160    1.1540   -0.7440 C   0  0  0  0  0  0  0  0  0  0  0  0
   -3.9180    1.5090   -1.6400 O   0  0  0  0  0  0  0  0  0  0  0  0
   -2.9450    2.0240    0.3200 O   0  0  0  0  0  0  0  0  0  0  0  0
   -1.8750   -0.1560    1.3040 H   0  0  0  0  0  0  0  0  0  0  0  0
   -1.7570   -0.2120   -1.6990 H   0  0  0  0  0  0  0  0  0  0  0  0
   -2.7610   -2.2520   -0.7180 H   0  0  0  0  0  0  0  0  0  0  0  0
   -3.8240   -1.2470    0.2920 H   0  0  0  0  0  0  0  0  0  0  0  0
   -5.9510   -0.1770   -0.9110 H   0  0  0  0  0  0  0  0  0  0  0  0
   -7.0610   -0.5950   -3.2520 H   0  0  0  0  0  0  0  0  0  0  0  0
   -5.4090   -1.9350   -4.7130 H   0  0  0  0  0  0  0  0  0  0  0  0
  1  9  1  0  0  0  0
  1 10  1  0  0  0  0
  2  3  2  0  0  0  0
  2  1  1  0  0  0  0
  4 11  1  0  0  0  0
  4  2  1  0  0  0  0
  5 13  1  6  0  0  0
  5  7  1  0  0  0  0
  5  4  1  0  0  0  0
  6  5  1  0  0  0  0
  6 14  1  0  0  0  0
  7  8  2  0  0  0  0
 12  4  1  0  0  0  0
 15  6  1  0  0  0  0
 16  7  1  0  0  0  0
 16 17  1  0  0  0  0
 17 26  1  1  0  0  0
 17 18  1  0  0  0  0
 18 27  1  0  0  0  0
 18 28  1  0  0  0  0
 19 18  1  0  0  0  0
 19 30  1  0  0  0  0
 20 24  1  0  0  0  0
 20 19  1  0  0  0  0
 21 20  2  0  0  0  0
 22 32  1  0  0  0  0
 22 17  1  0  0  0  0
 23 22  2  0  0  0  0
 25 16  1  0  0  0  0
 29 19  1  0  0  0  0
 31 24  1  0  0  0  0
 32 43  1  0  0  0  0
 33 44  1  6  0  0  0
 33 40  1  0  0  0  0
 33 34  1  0  0  0  0
 33 32  1  0  0  0  0
 34 46  1  0  0  0  0
 35 36  2  0  0  0  0
 35 34  1  0  0  0  0
 36 47  1  0  0  0  0
 37 36  1  0  0  0  0
 38 39  2  0  0  0  0
 38 37  1  0  0  0  0
 39 35  1  0  0  0  0
 40 42  1  0  0  0  0
 41 40  2  0  0  0  0
 45 34  1  0  0  0  0
 48 37  1  0  0  0  0
 49 38  1  0  0  0  0
M  END
$$$$
