NEK.pdb
 OpenBabel07022418093D

 53 52  0  0  1  0  0  0  0  0999 V2000
   -2.5740    2.5480    4.1710 N   0  0  0  0  0  0  0  0  0  0  0  0
   -2.8610    1.4620    3.3130 C   0  0  0  0  0  0  0  0  0  0  0  0
   -4.0470    1.0600    3.2390 O   0  0  0  0  0  0  0  0  0  0  0  0
   -1.8300    0.8060    2.5220 C   0  0  0  0  0  0  0  0  0  0  0  0
   -0.4560    1.3750    2.6170 C   0  0  2  0  0  0  0  0  0  0  0  0
   -0.4370    2.7430    2.1800 N   0  0  0  0  0  0  0  0  0  0  0  0
    0.4480    0.4860    1.8250 C   0  0  0  0  0  0  0  0  0  0  0  0
    0.4920   -0.7130    2.1890 O   0  0  0  0  0  0  0  0  0  0  0  0
   -1.8480    2.4930    4.9270 H   0  0  0  0  0  0  0  0  0  0  0  0
   -3.1320    3.4400    4.0190 H   0  0  0  0  0  0  0  0  0  0  0  0
   -1.7500   -0.2830    2.8030 H   0  0  0  0  0  0  0  0  0  0  0  0
   -2.1090    0.8220    1.4280 H   0  0  0  0  0  0  0  0  0  0  0  0
   -0.0900    1.3760    3.6820 H   0  0  0  0  0  0  0  0  0  0  0  0
    0.5240    3.0900    1.9280 H   0  0  0  0  0  0  0  0  0  0  0  0
   -0.7030    3.3600    3.0050 H   0  0  0  0  0  0  0  0  0  0  0  0
    1.2260    0.9020    0.7300 N   0  0  0  0  0  0  0  0  0  0  0  0
    2.0870    0.0340   -0.0100 C   0  0  1  0  0  0  0  0  0  0  0  0
    2.9940   -0.8260    0.7870 C   0  0  0  0  0  0  0  0  0  0  0  0
    3.9390   -0.0050    1.6100 C   0  0  0  0  0  0  0  0  0  0  0  0
    3.3360    0.9040    2.5820 C   0  0  0  0  0  0  0  0  0  0  0  0
    3.1470    2.1160    2.2830 O   0  0  0  0  0  0  0  0  0  0  0  0
    1.2390   -0.7520   -0.9610 C   0  0  0  0  0  0  0  0  0  0  0  0
    1.7420   -1.6010   -1.7450 O   0  0  0  0  0  0  0  0  0  0  0  0
    2.9650    0.4550    3.8390 O   0  0  0  0  0  0  0  0  0  0  0  0
    1.1710    1.9090    0.4290 H   0  0  0  0  0  0  0  0  0  0  0  0
    2.7730    0.6370   -0.6880 H   0  0  0  0  0  0  0  0  0  0  0  0
    2.4990   -1.5370    1.4840 H   0  0  0  0  0  0  0  0  0  0  0  0
    3.6010   -1.4480    0.0800 H   0  0  0  0  0  0  0  0  0  0  0  0
    4.6110   -0.7120    2.1950 H   0  0  0  0  0  0  0  0  0  0  0  0
    4.6640    0.5290    0.9380 H   0  0  0  0  0  0  0  0  0  0  0  0
    2.7810    1.1500    4.5690 H   0  0  0  0  0  0  0  0  0  0  0  0
   -0.1670   -0.5720   -1.0150 N   0  0  0  0  0  0  0  0  0  0  0  0
   -1.0260   -1.3250   -1.9310 C   0  0  1  0  0  0  0  0  0  0  0  0
   -2.0500   -2.0890   -1.1220 C   0  0  0  0  0  0  0  0  0  0  0  0
   -1.4790   -3.0660   -0.1600 C   0  0  0  0  0  0  0  0  0  0  0  0
   -0.6560   -4.1570   -0.7580 C   0  0  0  0  0  0  0  0  0  0  0  0
   -1.4210   -5.0110   -1.7410 C   0  0  0  0  0  0  0  0  0  0  0  0
   -0.5280   -6.0320   -2.2560 N   0  0  0  0  0  0  0  0  0  0  0  0
   -1.6930   -0.4140   -2.8920 C   0  0  0  0  0  0  0  0  0  0  0  0
   -2.4700   -0.8620   -3.7610 O   0  0  0  0  0  0  0  0  0  0  0  0
   -1.4680    0.9460   -2.8460 O   0  0  0  0  0  0  0  0  0  0  0  0
   -0.6030    0.1280   -0.3740 H   0  0  0  0  0  0  0  0  0  0  0  0
   -0.4250   -2.0900   -2.4840 H   0  0  0  0  0  0  0  0  0  0  0  0
   -2.6120   -1.3260   -0.5090 H   0  0  0  0  0  0  0  0  0  0  0  0
   -2.8180   -2.5240   -1.7970 H   0  0  0  0  0  0  0  0  0  0  0  0
   -0.7800   -2.4820    0.5110 H   0  0  0  0  0  0  0  0  0  0  0  0
   -2.2740   -3.4180    0.5060 H   0  0  0  0  0  0  0  0  0  0  0  0
   -0.3880   -4.8500    0.0940 H   0  0  0  0  0  0  0  0  0  0  0  0
    0.2970   -3.8440   -1.1850 H   0  0  0  0  0  0  0  0  0  0  0  0
   -2.2740   -5.5340   -1.2650 H   0  0  0  0  0  0  0  0  0  0  0  0
   -1.8070   -4.4430   -2.6040 H   0  0  0  0  0  0  0  0  0  0  0  0
   -0.6870   -6.1710   -3.2910 H   0  0  0  0  0  0  0  0  0  0  0  0
    0.4520   -5.7780   -2.0430 H   0  0  0  0  0  0  0  0  0  0  0  0
  1  9  1  0  0  0  0
  2  1  1  0  0  0  0
  3  2  2  0  0  0  0
  4  5  1  0  0  0  0
  4 11  1  0  0  0  0
  4  2  1  0  0  0  0
  5 13  1  1  0  0  0
  6  5  1  0  0  0  0
  6 15  1  0  0  0  0
  7  8  2  0  0  0  0
  7  5  1  0  0  0  0
 10  1  1  0  0  0  0
 12  4  1  0  0  0  0
 14  6  1  0  0  0  0
 16  7  1  0  0  0  0
 17 26  1  6  0  0  0
 17 16  1  0  0  0  0
 17 18  1  0  0  0  0
 18 27  1  0  0  0  0
 18 19  1  0  0  0  0
 19 29  1  0  0  0  0
 19 20  1  0  0  0  0
 20 24  1  0  0  0  0
 21 20  2  0  0  0  0
 22 17  1  0  0  0  0
 23 22  2  0  0  0  0
 24 31  1  0  0  0  0
 25 16  1  0  0  0  0
 28 18  1  0  0  0  0
 30 19  1  0  0  0  0
 32 22  1  0  0  0  0
 32 42  1  0  0  0  0
 33 43  1  6  0  0  0
 33 34  1  0  0  0  0
 33 32  1  0  0  0  0
 34 44  1  0  0  0  0
 34 35  1  0  0  0  0
 35 47  1  0  0  0  0
 35 46  1  0  0  0  0
 36 35  1  0  0  0  0
 36 48  1  0  0  0  0
 37 50  1  0  0  0  0
 37 36  1  0  0  0  0
 38 53  1  0  0  0  0
 38 37  1  0  0  0  0
 39 41  1  0  0  0  0
 39 33  1  0  0  0  0
 40 39  2  0  0  0  0
 45 34  1  0  0  0  0
 49 36  1  0  0  0  0
 51 37  1  0  0  0  0
 52 38  1  0  0  0  0
M  END
$$$$
