NEQ.pdb
 OpenBabel07022418083D

 49 48  0  0  1  0  0  0  0  0999 V2000
   -3.2760   -1.7650    4.3700 N   0  0  0  0  0  0  0  0  0  0  0  0
   -2.7980   -0.5430    3.8530 C   0  0  0  0  0  0  0  0  0  0  0  0
   -3.4200    0.5110    4.1170 O   0  0  0  0  0  0  0  0  0  0  0  0
   -1.6020   -0.5000    3.0230 C   0  0  0  0  0  0  0  0  0  0  0  0
   -1.2420    0.8830    2.5650 C   0  0  2  0  0  0  0  0  0  0  0  0
   -2.2770    1.4910    1.7840 N   0  0  0  0  0  0  0  0  0  0  0  0
    0.0530    0.7650    1.7810 C   0  0  0  0  0  0  0  0  0  0  0  0
    1.0190    0.2540    2.3710 O   0  0  0  0  0  0  0  0  0  0  0  0
   -2.9780   -2.6490    3.9040 H   0  0  0  0  0  0  0  0  0  0  0  0
   -3.8980   -1.7680    5.1840 H   0  0  0  0  0  0  0  0  0  0  0  0
   -0.7160   -0.8840    3.6090 H   0  0  0  0  0  0  0  0  0  0  0  0
   -1.6800   -1.2010    2.1430 H   0  0  0  0  0  0  0  0  0  0  0  0
   -1.0350    1.5140    3.4420 H   0  0  0  0  0  0  0  0  0  0  0  0
   -2.5460    0.9780    0.9370 H   0  0  0  0  0  0  0  0  0  0  0  0
   -2.1030    2.4960    1.6440 H   0  0  0  0  0  0  0  0  0  0  0  0
    0.1090    1.2230    0.4600 N   0  0  0  0  0  0  0  0  0  0  0  0
    1.2550    1.1910   -0.3810 C   0  0  1  0  0  0  0  0  0  0  0  0
    2.5370    1.1950    0.3830 C   0  0  0  0  0  0  0  0  0  0  0  0
    2.5950    2.4760    1.1880 C   0  0  0  0  0  0  0  0  0  0  0  0
    3.7990    2.5790    2.0090 C   0  0  0  0  0  0  0  0  0  0  0  0
    4.6470    1.6620    1.9950 O   0  0  0  0  0  0  0  0  0  0  0  0
    1.1280    0.1280   -1.3730 C   0  0  0  0  0  0  0  0  0  0  0  0
    1.9940   -0.1330   -2.2510 O   0  0  0  0  0  0  0  0  0  0  0  0
    4.0270    3.6750    2.8110 O   0  0  0  0  0  0  0  0  0  0  0  0
   -0.8200    1.6350    0.0660 H   0  0  0  0  0  0  0  0  0  0  0  0
    1.3140    2.1930   -0.9660 H   0  0  0  0  0  0  0  0  0  0  0  0
    2.6190    0.3350    1.0390 H   0  0  0  0  0  0  0  0  0  0  0  0
    3.4220    1.1940   -0.3480 H   0  0  0  0  0  0  0  0  0  0  0  0
    1.6880    2.6800    1.7690 H   0  0  0  0  0  0  0  0  0  0  0  0
    2.6070    3.3210    0.4190 H   0  0  0  0  0  0  0  0  0  0  0  0
    4.8980    3.8020    3.3330 H   0  0  0  0  0  0  0  0  0  0  0  0
    1.2660   -5.3760    0.8620 N   0  0  0  0  0  0  0  0  0  0  0  0
    0.3400   -4.7620   -0.0090 C   0  0  0  0  0  0  0  0  0  0  0  0
   -0.7870   -5.3250   -0.2160 O   0  0  0  0  0  0  0  0  0  0  0  0
    0.6090   -3.4790   -0.7060 C   0  0  0  0  0  0  0  0  0  0  0  0
   -0.5570   -3.0640   -1.5710 C   0  0  0  0  0  0  0  0  0  0  0  0
   -0.2890   -1.7540   -2.2850 C   0  0  2  0  0  0  0  0  0  0  0  0
   -0.0450   -0.6780   -1.3620 N   0  0  0  0  0  0  0  0  0  0  0  0
   -1.4990   -1.4610   -3.0700 C   0  0  0  0  0  0  0  0  0  0  0  0
   -2.1290   -0.4070   -2.8710 O   0  0  0  0  0  0  0  0  0  0  0  0
   -1.9410   -2.3460   -4.0270 O   0  0  0  0  0  0  0  0  0  0  0  0
    0.9020   -5.8450    1.7320 H   0  0  0  0  0  0  0  0  0  0  0  0
    2.2990   -5.4100    0.7230 H   0  0  0  0  0  0  0  0  0  0  0  0
    0.7860   -2.7180    0.1080 H   0  0  0  0  0  0  0  0  0  0  0  0
    1.5200   -3.5530   -1.2960 H   0  0  0  0  0  0  0  0  0  0  0  0
   -0.7250   -3.8500   -2.3210 H   0  0  0  0  0  0  0  0  0  0  0  0
   -1.4500   -2.9320   -0.9280 H   0  0  0  0  0  0  0  0  0  0  0  0
    0.5690   -1.8690   -2.9920 H   0  0  0  0  0  0  0  0  0  0  0  0
   -0.7990   -0.4960   -0.6420 H   0  0  0  0  0  0  0  0  0  0  0  0
  1 10  1  0  0  0  0
  2  3  2  0  0  0  0
  2  1  1  0  0  0  0
  4 11  1  0  0  0  0
  4  2  1  0  0  0  0
  5  4  1  0  0  0  0
  5 13  1  1  0  0  0
  6  5  1  0  0  0  0
  7  8  2  0  0  0  0
  7  5  1  0  0  0  0
  9  1  1  0  0  0  0
 12  4  1  0  0  0  0
 14  6  1  0  0  0  0
 15  6  1  0  0  0  0
 16  7  1  0  0  0  0
 17 26  1  6  0  0  0
 17 18  1  0  0  0  0
 17 16  1  0  0  0  0
 18 27  1  0  0  0  0
 18 19  1  0  0  0  0
 19 29  1  0  0  0  0
 19 20  1  0  0  0  0
 20 24  1  0  0  0  0
 21 20  2  0  0  0  0
 22 38  1  0  0  0  0
 22 17  1  0  0  0  0
 23 22  2  0  0  0  0
 24 31  1  0  0  0  0
 25 16  1  0  0  0  0
 28 18  1  0  0  0  0
 30 19  1  0  0  0  0
 32 42  1  0  0  0  0
 33 32  1  0  0  0  0
 34 33  2  0  0  0  0
 35 33  1  0  0  0  0
 35 44  1  0  0  0  0
 36 47  1  0  0  0  0
 36 35  1  0  0  0  0
 37 48  1  6  0  0  0
 37 36  1  0  0  0  0
 37 38  1  0  0  0  0
 38 49  1  0  0  0  0
 39 40  1  0  0  0  0
 39 37  1  0  0  0  0
 41 39  2  0  0  0  0
 43 32  1  0  0  0  0
 45 35  1  0  0  0  0
 46 36  1  0  0  0  0
M  END
$$$$
