NES.pdb
 OpenBabel07022418093D

 43 42  0  0  1  0  0  0  0  0999 V2000
   -1.2330   -4.4420    3.5010 N   0  0  0  0  0  0  0  0  0  0  0  0
   -0.4650   -3.4410    4.1160 C   0  0  0  0  0  0  0  0  0  0  0  0
   -0.3680   -3.4140    5.3650 O   0  0  0  0  0  0  0  0  0  0  0  0
    0.2290   -2.4210    3.3240 C   0  0  0  0  0  0  0  0  0  0  0  0
   -0.5300   -1.1100    3.2700 C   0  0  2  0  0  0  0  0  0  0  0  0
   -1.8290   -1.2680    2.6870 N   0  0  0  0  0  0  0  0  0  0  0  0
    0.2840   -0.1730    2.4140 C   0  0  0  0  0  0  0  0  0  0  0  0
    1.4210    0.1230    2.8630 O   0  0  0  0  0  0  0  0  0  0  0  0
   -2.0920   -4.7930    3.9750 H   0  0  0  0  0  0  0  0  0  0  0  0
   -0.9090   -4.8070    2.5700 H   0  0  0  0  0  0  0  0  0  0  0  0
    0.2660   -2.7810    2.2520 H   0  0  0  0  0  0  0  0  0  0  0  0
    1.2680   -2.2400    3.6000 H   0  0  0  0  0  0  0  0  0  0  0  0
   -0.6540   -0.7130    4.3000 H   0  0  0  0  0  0  0  0  0  0  0  0
   -1.7480   -1.7420    1.7740 H   0  0  0  0  0  0  0  0  0  0  0  0
   -2.3120   -0.3630    2.5470 H   0  0  0  0  0  0  0  0  0  0  0  0
   -0.1820    0.3470    1.1910 N   0  0  0  0  0  0  0  0  0  0  0  0
    0.5270    1.2590    0.3320 C   0  0  1  0  0  0  0  0  0  0  0  0
    1.5520    2.1230    1.0020 C   0  0  0  0  0  0  0  0  0  0  0  0
    1.0330    3.0720    2.0420 C   0  0  0  0  0  0  0  0  0  0  0  0
    0.0970    4.0930    1.5530 C   0  0  0  0  0  0  0  0  0  0  0  0
   -0.2270    4.2610    0.3660 O   0  0  0  0  0  0  0  0  0  0  0  0
    0.9130    0.6670   -0.9230 C   0  0  0  0  0  0  0  0  0  0  0  0
    1.5350    1.4190   -1.7550 O   0  0  0  0  0  0  0  0  0  0  0  0
   -0.4690    4.9360    2.5020 O   0  0  0  0  0  0  0  0  0  0  0  0
   -1.1600   -0.0020    0.9260 H   0  0  0  0  0  0  0  0  0  0  0  0
   -0.2890    2.0450    0.0840 H   0  0  0  0  0  0  0  0  0  0  0  0
    2.0250    2.8050    0.2190 H   0  0  0  0  0  0  0  0  0  0  0  0
    2.4180    1.6040    1.4260 H   0  0  0  0  0  0  0  0  0  0  0  0
    0.6830    2.6030    2.9830 H   0  0  0  0  0  0  0  0  0  0  0  0
    1.9640    3.6400    2.3840 H   0  0  0  0  0  0  0  0  0  0  0  0
   -0.8930    5.8080    2.1820 H   0  0  0  0  0  0  0  0  0  0  0  0
    1.7930   -3.2660   -1.5770 O   0  0  0  0  0  0  0  0  0  0  0  0
    2.2150   -2.2150   -2.3890 C   0  0  0  0  0  0  0  0  0  0  0  0
    1.1040   -1.1910   -2.6250 C   0  0  2  0  0  0  0  0  0  0  0  0
    0.6890   -0.6530   -1.3530 N   0  0  0  0  0  0  0  0  0  0  0  0
   -0.0000   -1.7810   -3.4090 C   0  0  0  0  0  0  0  0  0  0  0  0
   -1.1970   -1.8340   -3.0580 O   0  0  0  0  0  0  0  0  0  0  0  0
    0.3370   -2.3210   -4.6430 O   0  0  0  0  0  0  0  0  0  0  0  0
    2.5080   -3.5800   -0.9540 H   0  0  0  0  0  0  0  0  0  0  0  0
    3.0500   -1.7110   -1.8660 H   0  0  0  0  0  0  0  0  0  0  0  0
    2.5770   -2.6360   -3.3440 H   0  0  0  0  0  0  0  0  0  0  0  0
    1.6120   -0.3510   -3.1700 H   0  0  0  0  0  0  0  0  0  0  0  0
    0.1850   -1.2920   -0.7060 H   0  0  0  0  0  0  0  0  0  0  0  0
  1  9  1  0  0  0  0
  1  2  1  0  0  0  0
  2  3  2  0  0  0  0
  4 12  1  0  0  0  0
  4  2  1  0  0  0  0
  5  4  1  0  0  0  0
  5 13  1  1  0  0  0
  6  5  1  0  0  0  0
  7  8  2  0  0  0  0
  7  5  1  0  0  0  0
 10  1  1  0  0  0  0
 11  4  1  0  0  0  0
 14  6  1  0  0  0  0
 15  6  1  0  0  0  0
 16  7  1  0  0  0  0
 17 26  1  6  0  0  0
 17 18  1  0  0  0  0
 17 16  1  0  0  0  0
 18 28  1  0  0  0  0
 18 19  1  0  0  0  0
 19 30  1  0  0  0  0
 19 29  1  0  0  0  0
 20 19  1  0  0  0  0
 20 24  1  0  0  0  0
 21 20  2  0  0  0  0
 22 17  1  0  0  0  0
 23 22  2  0  0  0  0
 25 16  1  0  0  0  0
 27 18  1  0  0  0  0
 31 24  1  0  0  0  0
 32 39  1  0  0  0  0
 33 40  1  0  0  0  0
 33 32  1  0  0  0  0
 34 42  1  6  0  0  0
 34 33  1  0  0  0  0
 34 35  1  0  0  0  0
 35 22  1  0  0  0  0
 35 43  1  0  0  0  0
 36 37  1  0  0  0  0
 36 34  1  0  0  0  0
 38 36  2  0  0  0  0
 41 33  1  0  0  0  0
M  END
$$$$
