NET.pdb
 OpenBabel07022418093D

 46 45  0  0  1  0  0  0  0  0999 V2000
    3.1110   -5.1390    1.9360 N   0  0  0  0  0  0  0  0  0  0  0  0
    2.8120   -3.8840    2.5330 C   0  0  0  0  0  0  0  0  0  0  0  0
    2.9070   -3.8400    3.7970 O   0  0  0  0  0  0  0  0  0  0  0  0
    2.4170   -2.7130    1.7100 C   0  0  0  0  0  0  0  0  0  0  0  0
    2.1350   -1.5040    2.5770 C   0  0  2  0  0  0  0  0  0  0  0  0
    1.0520   -1.8730    3.4620 N   0  0  0  0  0  0  0  0  0  0  0  0
    1.8050   -0.3090    1.7310 C   0  0  0  0  0  0  0  0  0  0  0  0
    2.6550    0.1530    0.9390 O   0  0  0  0  0  0  0  0  0  0  0  0
    2.3830   -5.8590    1.7170 H   0  0  0  0  0  0  0  0  0  0  0  0
    4.1020   -5.3440    1.7100 H   0  0  0  0  0  0  0  0  0  0  0  0
    1.5110   -2.9740    1.1230 H   0  0  0  0  0  0  0  0  0  0  0  0
    3.2830   -2.4560    1.0680 H   0  0  0  0  0  0  0  0  0  0  0  0
    3.0030   -1.2290    3.1900 H   0  0  0  0  0  0  0  0  0  0  0  0
    0.2240   -2.0870    2.8670 H   0  0  0  0  0  0  0  0  0  0  0  0
    0.8080   -1.0350    4.0320 H   0  0  0  0  0  0  0  0  0  0  0  0
    0.5470    0.3360    1.7880 N   0  0  0  0  0  0  0  0  0  0  0  0
    0.0990    1.4740    1.0770 C   0  0  1  0  0  0  0  0  0  0  0  0
    1.1540    2.3840    0.4940 C   0  0  0  0  0  0  0  0  0  0  0  0
    2.0390    3.0450    1.4970 C   0  0  0  0  0  0  0  0  0  0  0  0
    1.2710    3.9140    2.4390 C   0  0  0  0  0  0  0  0  0  0  0  0
    0.8690    5.0180    2.0400 O   0  0  0  0  0  0  0  0  0  0  0  0
   -0.9730    1.1410    0.1460 C   0  0  0  0  0  0  0  0  0  0  0  0
   -1.5510    1.9940   -0.5970 O   0  0  0  0  0  0  0  0  0  0  0  0
    1.0080    3.5120    3.7200 O   0  0  0  0  0  0  0  0  0  0  0  0
   -0.1310   -0.1290    2.4760 H   0  0  0  0  0  0  0  0  0  0  0  0
   -0.3530    2.1940    1.8810 H   0  0  0  0  0  0  0  0  0  0  0  0
    0.5840    3.2060   -0.0170 H   0  0  0  0  0  0  0  0  0  0  0  0
    1.7550    1.9160   -0.3000 H   0  0  0  0  0  0  0  0  0  0  0  0
    2.6760    2.4340    2.1150 H   0  0  0  0  0  0  0  0  0  0  0  0
    2.7460    3.6930    0.8880 H   0  0  0  0  0  0  0  0  0  0  0  0
    0.5230    4.0740    4.4150 H   0  0  0  0  0  0  0  0  0  0  0  0
   -3.0930   -1.9980   -2.8610 C   0  0  0  0  0  0  0  0  0  0  0  0
   -1.9990   -1.6250   -1.8860 C   0  0  1  0  0  0  0  0  0  0  0  0
   -0.9980   -0.9850   -2.6420 O   0  0  0  0  0  0  0  0  0  0  0  0
   -2.4780   -0.6270   -0.8560 C   0  0  2  0  0  0  0  0  0  0  0  0
   -1.4320   -0.1930    0.0250 N   0  0  0  0  0  0  0  0  0  0  0  0
   -3.6080   -1.1460   -0.0450 C   0  0  0  0  0  0  0  0  0  0  0  0
   -4.6650   -1.5940   -0.5650 O   0  0  0  0  0  0  0  0  0  0  0  0
   -3.5450   -1.1590    1.3420 O   0  0  0  0  0  0  0  0  0  0  0  0
   -3.7130   -1.1540   -3.1830 H   0  0  0  0  0  0  0  0  0  0  0  0
   -2.5520   -2.3590   -3.7860 H   0  0  0  0  0  0  0  0  0  0  0  0
   -3.6730   -2.8780   -2.5170 H   0  0  0  0  0  0  0  0  0  0  0  0
   -1.6230   -2.5530   -1.4390 H   0  0  0  0  0  0  0  0  0  0  0  0
   -0.4020   -1.6290   -3.0920 H   0  0  0  0  0  0  0  0  0  0  0  0
   -2.8530    0.2830   -1.3780 H   0  0  0  0  0  0  0  0  0  0  0  0
   -0.9600   -0.9050    0.6340 H   0  0  0  0  0  0  0  0  0  0  0  0
  1  2  1  0  0  0  0
  2  3  2  0  0  0  0
  4  2  1  0  0  0  0
  4  5  1  0  0  0  0
  5 13  1  1  0  0  0
  5  6  1  0  0  0  0
  6 15  1  0  0  0  0
  7 16  1  0  0  0  0
  7  5  1  0  0  0  0
  8  7  2  0  0  0  0
  9  1  1  0  0  0  0
 10  1  1  0  0  0  0
 11  4  1  0  0  0  0
 12  4  1  0  0  0  0
 14  6  1  0  0  0  0
 16 25  1  0  0  0  0
 17 16  1  0  0  0  0
 17 26  1  1  0  0  0
 18 17  1  0  0  0  0
 18 19  1  0  0  0  0
 19 29  1  0  0  0  0
 19 20  1  0  0  0  0
 20 24  1  0  0  0  0
 21 20  2  0  0  0  0
 22 17  1  0  0  0  0
 23 22  2  0  0  0  0
 24 31  1  0  0  0  0
 27 18  1  0  0  0  0
 28 18  1  0  0  0  0
 30 19  1  0  0  0  0
 32 42  1  0  0  0  0
 32 33  1  0  0  0  0
 33 43  1  1  0  0  0
 33 35  1  0  0  0  0
 34 33  1  0  0  0  0
 35 45  1  6  0  0  0
 35 37  1  0  0  0  0
 35 36  1  0  0  0  0
 36 22  1  0  0  0  0
 36 46  1  0  0  0  0
 37 39  1  0  0  0  0
 38 37  2  0  0  0  0
 40 32  1  0  0  0  0
 41 32  1  0  0  0  0
 44 34  1  0  0  0  0
M  END
$$$$
