NEY.pdb
 OpenBabel07022418093D

 53 53  0  0  1  0  0  0  0  0999 V2000
    1.9630   -2.4910    4.4040 N   0  0  0  0  0  0  0  0  0  0  0  0
    3.2340   -2.7320    3.8140 C   0  0  0  0  0  0  0  0  0  0  0  0
    3.5810   -3.9320    3.6840 O   0  0  0  0  0  0  0  0  0  0  0  0
    4.1300   -1.6080    3.3640 C   0  0  0  0  0  0  0  0  0  0  0  0
    3.4810   -0.2730    3.6350 C   0  0  2  0  0  0  0  0  0  0  0  0
    3.2530   -0.1820    5.0620 N   0  0  0  0  0  0  0  0  0  0  0  0
    2.2450   -0.0710    2.8560 C   0  0  0  0  0  0  0  0  0  0  0  0
    1.1730    0.1530    3.4810 O   0  0  0  0  0  0  0  0  0  0  0  0
    1.1170   -2.5800    3.7960 H   0  0  0  0  0  0  0  0  0  0  0  0
    1.8130   -2.2350    5.3940 H   0  0  0  0  0  0  0  0  0  0  0  0
    5.0310   -1.6690    4.0090 H   0  0  0  0  0  0  0  0  0  0  0  0
    4.4530   -1.7400    2.3250 H   0  0  0  0  0  0  0  0  0  0  0  0
    4.1940    0.5220    3.3360 H   0  0  0  0  0  0  0  0  0  0  0  0
    3.2010    0.8110    5.3800 H   0  0  0  0  0  0  0  0  0  0  0  0
    4.0220   -0.6340    5.6040 H   0  0  0  0  0  0  0  0  0  0  0  0
    2.1750   -0.1100    1.4600 N   0  0  0  0  0  0  0  0  0  0  0  0
    0.9900    0.0820    0.6710 C   0  0  1  0  0  0  0  0  0  0  0  0
    1.0640    1.1970   -0.3060 C   0  0  0  0  0  0  0  0  0  0  0  0
    1.3140    2.5600    0.2820 C   0  0  0  0  0  0  0  0  0  0  0  0
    0.2580    3.0130    1.2190 C   0  0  0  0  0  0  0  0  0  0  0  0
   -0.7830    2.3580    1.4930 O   0  0  0  0  0  0  0  0  0  0  0  0
    0.7350   -1.1660   -0.0920 C   0  0  0  0  0  0  0  0  0  0  0  0
    1.5190   -2.1360    0.0190 O   0  0  0  0  0  0  0  0  0  0  0  0
    0.3720    4.2550    1.8790 O   0  0  0  0  0  0  0  0  0  0  0  0
    3.0600   -0.2950    0.9390 H   0  0  0  0  0  0  0  0  0  0  0  0
    0.1640    0.2810    1.3790 H   0  0  0  0  0  0  0  0  0  0  0  0
    0.0330    1.2810   -0.7710 H   0  0  0  0  0  0  0  0  0  0  0  0
    1.7200    0.9880   -1.1780 H   0  0  0  0  0  0  0  0  0  0  0  0
    2.2730    2.6050    0.8470 H   0  0  0  0  0  0  0  0  0  0  0  0
    1.3020    3.2770   -0.5670 H   0  0  0  0  0  0  0  0  0  0  0  0
   -0.0520    4.3200    2.7910 H   0  0  0  0  0  0  0  0  0  0  0  0
   -6.5340    0.1170   -1.8950 O   0  0  0  0  0  0  0  0  0  0  0  0
   -5.3940   -0.6860   -1.7350 C   0  0  0  0  0  0  0  0  0  0  0  0
   -4.6760   -0.6700   -0.5550 C   0  0  0  0  0  0  0  0  0  0  0  0
   -3.5520   -1.4460   -0.3670 C   0  0  0  0  0  0  0  0  0  0  0  0
   -3.1610   -2.2530   -1.4140 C   0  0  0  0  0  0  0  0  0  0  0  0
   -1.9760   -3.1030   -1.2790 C   0  0  0  0  0  0  0  0  0  0  0  0
   -0.6910   -2.4510   -1.7100 C   0  0  2  0  0  0  0  0  0  0  0  0
   -0.3950   -1.2600   -0.9440 N   0  0  0  0  0  0  0  0  0  0  0  0
   -0.6210   -2.2090   -3.1640 C   0  0  0  0  0  0  0  0  0  0  0  0
   -0.3270   -1.0560   -3.5650 O   0  0  0  0  0  0  0  0  0  0  0  0
   -3.8750   -2.2730   -2.5950 C   0  0  0  0  0  0  0  0  0  0  0  0
   -5.0000   -1.4950   -2.7830 C   0  0  0  0  0  0  0  0  0  0  0  0
   -0.8640   -3.1850   -4.1140 O   0  0  0  0  0  0  0  0  0  0  0  0
   -6.8430    0.4290   -2.8080 H   0  0  0  0  0  0  0  0  0  0  0  0
   -5.0070   -0.0200    0.2650 H   0  0  0  0  0  0  0  0  0  0  0  0
   -3.0200   -1.4020    0.5750 H   0  0  0  0  0  0  0  0  0  0  0  0
   -2.0760   -4.0580   -1.8280 H   0  0  0  0  0  0  0  0  0  0  0  0
   -1.8740   -3.3690   -0.2080 H   0  0  0  0  0  0  0  0  0  0  0  0
    0.1210   -3.1910   -1.4800 H   0  0  0  0  0  0  0  0  0  0  0  0
   -1.0210   -0.4330   -1.0070 H   0  0  0  0  0  0  0  0  0  0  0  0
   -3.5850   -2.9040   -3.4400 H   0  0  0  0  0  0  0  0  0  0  0  0
   -5.5820   -1.4850   -3.6910 H   0  0  0  0  0  0  0  0  0  0  0  0
  1 10  1  0  0  0  0
  2  1  1  0  0  0  0
  3  2  2  0  0  0  0
  4  5  1  0  0  0  0
  4  2  1  0  0  0  0
  4 11  1  0  0  0  0
  5 13  1  6  0  0  0
  5  6  1  0  0  0  0
  6 14  1  0  0  0  0
  6 15  1  0  0  0  0
  7  8  2  0  0  0  0
  7  5  1  0  0  0  0
  9  1  1  0  0  0  0
 12  4  1  0  0  0  0
 16  7  1  0  0  0  0
 17 26  1  1  0  0  0
 17 16  1  0  0  0  0
 18 19  1  0  0  0  0
 18 17  1  0  0  0  0
 19 29  1  0  0  0  0
 19 20  1  0  0  0  0
 20 21  2  0  0  0  0
 20 24  1  0  0  0  0
 22 23  2  0  0  0  0
 22 17  1  0  0  0  0
 24 31  1  0  0  0  0
 25 16  1  0  0  0  0
 27 18  1  0  0  0  0
 28 18  1  0  0  0  0
 30 19  1  0  0  0  0
 32 33  1  0  0  0  0
 33 34  1  0  0  0  0
 34 35  2  0  0  0  0
 34 46  1  0  0  0  0
 35 47  1  0  0  0  0
 36 37  1  0  0  0  0
 36 35  1  0  0  0  0
 37 49  1  0  0  0  0
 38 50  1  1  0  0  0
 38 37  1  0  0  0  0
 38 39  1  0  0  0  0
 39 22  1  0  0  0  0
 40 38  1  0  0  0  0
 41 40  1  0  0  0  0
 42 36  2  0  0  0  0
 43 42  1  0  0  0  0
 43 33  2  0  0  0  0
 44 40  2  0  0  0  0
 45 32  1  0  0  0  0
 48 37  1  0  0  0  0
 51 39  1  0  0  0  0
 52 42  1  0  0  0  0
 53 43  1  0  0  0  0
M  END
$$$$
