NFC.pdb
 OpenBabel07022418103D

 47 47  0  0  1  0  0  0  0  0999 V2000
    1.5940   -3.3730    4.9480 N   0  0  0  0  0  0  0  0  0  0  0  0
    1.0460   -3.4220    3.6430 C   0  0  0  0  0  0  0  0  0  0  0  0
    0.4970   -4.4920    3.2770 O   0  0  0  0  0  0  0  0  0  0  0  0
    1.1210   -2.2430    2.7450 C   0  0  0  0  0  0  0  0  0  0  0  0
    0.4550   -2.6030    1.4350 C   0  0  2  0  0  0  0  0  0  0  0  0
    1.1370   -3.7180    0.8440 N   0  0  0  0  0  0  0  0  0  0  0  0
    0.4490   -1.4380    0.4970 C   0  0  0  0  0  0  0  0  0  0  0  0
    1.0020   -1.5610   -0.6230 O   0  0  0  0  0  0  0  0  0  0  0  0
    2.2840   -4.0620    5.2830 H   0  0  0  0  0  0  0  0  0  0  0  0
    1.2890   -2.6160    5.5850 H   0  0  0  0  0  0  0  0  0  0  0  0
    0.5880   -1.3860    3.2160 H   0  0  0  0  0  0  0  0  0  0  0  0
    2.1710   -1.9450    2.6120 H   0  0  0  0  0  0  0  0  0  0  0  0
   -0.5820   -2.9340    1.6710 H   0  0  0  0  0  0  0  0  0  0  0  0
    0.6390   -3.9500   -0.0550 H   0  0  0  0  0  0  0  0  0  0  0  0
    2.1000   -3.4230    0.5820 H   0  0  0  0  0  0  0  0  0  0  0  0
   -0.1520   -0.2080    0.8180 N   0  0  0  0  0  0  0  0  0  0  0  0
   -0.1970    0.9590   -0.0210 C   0  0  1  0  0  0  0  0  0  0  0  0
    1.1370    1.3060   -0.6260 C   0  0  0  0  0  0  0  0  0  0  0  0
    2.0720    1.5970    0.4790 C   0  0  0  0  0  0  0  0  0  0  0  0
    2.0760    2.8910    1.0210 C   0  0  0  0  0  0  0  0  0  0  0  0
    2.9230    3.2520    2.0330 C   0  0  0  0  0  0  0  0  0  0  0  0
    3.8060    2.3450    2.5550 C   0  0  0  0  0  0  0  0  0  0  0  0
    3.8390    1.0660    2.0560 C   0  0  0  0  0  0  0  0  0  0  0  0
    2.9650    0.7160    1.0210 C   0  0  0  0  0  0  0  0  0  0  0  0
   -1.3260    0.9500   -0.9410 C   0  0  0  0  0  0  0  0  0  0  0  0
   -1.5960    1.8340   -1.7700 O   0  0  0  0  0  0  0  0  0  0  0  0
   -0.6080   -0.1820    1.7850 H   0  0  0  0  0  0  0  0  0  0  0  0
   -0.3640    1.8480    0.6970 H   0  0  0  0  0  0  0  0  0  0  0  0
    0.9900    2.2550   -1.2160 H   0  0  0  0  0  0  0  0  0  0  0  0
    1.5400    0.5810   -1.3290 H   0  0  0  0  0  0  0  0  0  0  0  0
    1.3860    3.5990    0.6130 H   0  0  0  0  0  0  0  0  0  0  0  0
    2.9000    4.2450    2.4230 H   0  0  0  0  0  0  0  0  0  0  0  0
    4.4770    2.6300    3.3570 H   0  0  0  0  0  0  0  0  0  0  0  0
    4.5370    0.3500    2.4690 H   0  0  0  0  0  0  0  0  0  0  0  0
    3.0270   -0.2920    0.6430 H   0  0  0  0  0  0  0  0  0  0  0  0
   -2.1990   -0.1730   -0.8850 N   0  0  0  0  0  0  0  0  0  0  0  0
   -3.3620   -0.3110   -1.7450 C   0  0  1  0  0  0  0  0  0  0  0  0
   -3.1720   -1.6200   -2.5090 C   0  0  0  0  0  0  0  0  0  0  0  0
   -3.0640   -2.9780   -1.3130 S   0  0  0  0  0  0  0  0  0  0  0  0
   -4.5320   -0.5120   -0.8560 C   0  0  0  0  0  0  0  0  0  0  0  0
   -4.4740   -0.5470    0.3960 O   0  0  0  0  0  0  0  0  0  0  0  0
   -5.7740   -0.6710   -1.4460 O   0  0  0  0  0  0  0  0  0  0  0  0
   -2.0530   -0.9740   -0.2140 H   0  0  0  0  0  0  0  0  0  0  0  0
   -3.4860    0.5380   -2.4300 H   0  0  0  0  0  0  0  0  0  0  0  0
   -4.0760   -1.7960   -3.1210 H   0  0  0  0  0  0  0  0  0  0  0  0
   -2.2950   -1.5810   -3.1780 H   0  0  0  0  0  0  0  0  0  0  0  0
   -3.3450   -2.5560   -0.0080 H   0  0  0  0  0  0  0  0  0  0  0  0
  1  9  1  0  0  0  0
  1 10  1  0  0  0  0
  2  1  1  0  0  0  0
  3  2  2  0  0  0  0
  4 11  1  0  0  0  0
  4  2  1  0  0  0  0
  5 13  1  1  0  0  0
  5  4  1  0  0  0  0
  6  5  1  0  0  0  0
  7 16  1  0  0  0  0
  7  5  1  0  0  0  0
  8  7  2  0  0  0  0
 12  4  1  0  0  0  0
 14  6  1  0  0  0  0
 15  6  1  0  0  0  0
 16 27  1  0  0  0  0
 17 28  1  1  0  0  0
 17 16  1  0  0  0  0
 18 17  1  0  0  0  0
 18 19  1  0  0  0  0
 19 24  2  0  0  0  0
 19 20  1  0  0  0  0
 20 21  2  0  0  0  0
 21 32  1  0  0  0  0
 21 22  1  0  0  0  0
 22 33  1  0  0  0  0
 23 34  1  0  0  0  0
 23 22  2  0  0  0  0
 24 23  1  0  0  0  0
 25 36  1  0  0  0  0
 25 17  1  0  0  0  0
 26 25  2  0  0  0  0
 29 18  1  0  0  0  0
 30 18  1  0  0  0  0
 31 20  1  0  0  0  0
 35 24  1  0  0  0  0
 36 43  1  0  0  0  0
 37 44  1  6  0  0  0
 37 36  1  0  0  0  0
 37 40  1  0  0  0  0
 38 37  1  0  0  0  0
 38 39  1  0  0  0  0
 39 47  1  0  0  0  0
 40 41  1  0  0  0  0
 42 40  2  0  0  0  0
 45 38  1  0  0  0  0
 46 38  1  0  0  0  0
M  END
$$$$
