NFE.pdb
 OpenBabel07022418103D

 52 52  0  0  1  0  0  0  0  0999 V2000
   -0.8110   -1.5090    5.3700 N   0  0  0  0  0  0  0  0  0  0  0  0
   -0.2900   -0.2290    5.1030 C   0  0  0  0  0  0  0  0  0  0  0  0
   -1.0670    0.7630    5.1870 O   0  0  0  0  0  0  0  0  0  0  0  0
    1.1040   -0.0190    4.7310 C   0  0  0  0  0  0  0  0  0  0  0  0
    1.3630    1.1450    3.8120 C   0  0  2  0  0  0  0  0  0  0  0  0
    0.9300    2.3660    4.3700 N   0  0  0  0  0  0  0  0  0  0  0  0
    0.7880    0.9170    2.4680 C   0  0  0  0  0  0  0  0  0  0  0  0
    0.1600    1.8510    1.9210 O   0  0  0  0  0  0  0  0  0  0  0  0
   -1.7480   -1.7110    5.7810 H   0  0  0  0  0  0  0  0  0  0  0  0
   -0.2230   -2.3410    5.1380 H   0  0  0  0  0  0  0  0  0  0  0  0
    1.5450   -0.9650    4.3560 H   0  0  0  0  0  0  0  0  0  0  0  0
    1.6980    0.2100    5.6690 H   0  0  0  0  0  0  0  0  0  0  0  0
    2.4950    1.1460    3.6780 H   0  0  0  0  0  0  0  0  0  0  0  0
    1.5380    3.1840    4.1100 H   0  0  0  0  0  0  0  0  0  0  0  0
    0.8350    2.2920    5.4070 H   0  0  0  0  0  0  0  0  0  0  0  0
    0.9090   -0.3030    1.7680 N   0  0  0  0  0  0  0  0  0  0  0  0
    0.3140   -0.4560    0.4700 C   0  0  1  0  0  0  0  0  0  0  0  0
    1.3410   -0.6340   -0.6250 C   0  0  0  0  0  0  0  0  0  0  0  0
    2.2130    0.5700   -0.6430 C   0  0  0  0  0  0  0  0  0  0  0  0
    3.3490    0.6570    0.1350 C   0  0  0  0  0  0  0  0  0  0  0  0
    4.1650    1.7990    0.1030 C   0  0  0  0  0  0  0  0  0  0  0  0
    3.8180    2.8440   -0.7180 C   0  0  0  0  0  0  0  0  0  0  0  0
    2.6900    2.7810   -1.5030 C   0  0  0  0  0  0  0  0  0  0  0  0
    1.8970    1.6340   -1.4540 C   0  0  0  0  0  0  0  0  0  0  0  0
   -0.6600   -1.5840    0.5350 C   0  0  0  0  0  0  0  0  0  0  0  0
   -0.8580   -2.1660    1.6360 O   0  0  0  0  0  0  0  0  0  0  0  0
    1.4250   -1.0960    2.1910 H   0  0  0  0  0  0  0  0  0  0  0  0
   -0.2430    0.4690    0.2340 H   0  0  0  0  0  0  0  0  0  0  0  0
    2.0080   -1.5050   -0.4350 H   0  0  0  0  0  0  0  0  0  0  0  0
    0.8870   -0.7730   -1.6000 H   0  0  0  0  0  0  0  0  0  0  0  0
    3.6210   -0.1480    0.7720 H   0  0  0  0  0  0  0  0  0  0  0  0
    5.0560    1.8890    0.7000 H   0  0  0  0  0  0  0  0  0  0  0  0
    4.4530    3.7480   -0.7430 H   0  0  0  0  0  0  0  0  0  0  0  0
    2.4780    3.6350   -2.1300 H   0  0  0  0  0  0  0  0  0  0  0  0
    1.0200    1.6060   -2.0760 H   0  0  0  0  0  0  0  0  0  0  0  0
   -1.3980   -2.0700   -0.5590 N   0  0  0  0  0  0  0  0  0  0  0  0
   -2.3490   -3.1560   -0.5530 C   0  0  1  0  0  0  0  0  0  0  0  0
   -3.7300   -2.7710   -0.9250 C   0  0  0  0  0  0  0  0  0  0  0  0
   -4.0060   -2.1510   -2.2180 C   0  0  0  0  0  0  0  0  0  0  0  0
   -3.7380   -2.8090   -3.4660 C   0  0  0  0  0  0  0  0  0  0  0  0
   -3.2330   -3.9190   -3.6490 O   0  0  0  0  0  0  0  0  0  0  0  0
   -1.8670   -4.4230   -1.1130 C   0  0  0  0  0  0  0  0  0  0  0  0
   -2.6150   -5.4230   -1.0820 O   0  0  0  0  0  0  0  0  0  0  0  0
   -4.0960   -2.1100   -4.6520 O   0  0  0  0  0  0  0  0  0  0  0  0
   -0.6190   -4.5250   -1.6620 O   0  0  0  0  0  0  0  0  0  0  0  0
   -1.2190   -1.5630   -1.4830 H   0  0  0  0  0  0  0  0  0  0  0  0
   -2.4360   -3.4040    0.5790 H   0  0  0  0  0  0  0  0  0  0  0  0
   -4.1120   -2.0850   -0.1250 H   0  0  0  0  0  0  0  0  0  0  0  0
   -4.3410   -3.7330   -0.8780 H   0  0  0  0  0  0  0  0  0  0  0  0
   -3.6370   -1.0560   -2.2310 H   0  0  0  0  0  0  0  0  0  0  0  0
   -5.1430   -1.9470   -2.2160 H   0  0  0  0  0  0  0  0  0  0  0  0
   -3.9130   -2.5070   -5.5620 H   0  0  0  0  0  0  0  0  0  0  0  0
  1  9  1  0  0  0  0
  2  3  2  0  0  0  0
  2  1  1  0  0  0  0
  4  2  1  0  0  0  0
  4 12  1  0  0  0  0
  5 13  1  6  0  0  0
  5  6  1  0  0  0  0
  5  4  1  0  0  0  0
  6 15  1  0  0  0  0
  7  5  1  0  0  0  0
  8  7  2  0  0  0  0
 10  1  1  0  0  0  0
 11  4  1  0  0  0  0
 14  6  1  0  0  0  0
 16 27  1  0  0  0  0
 16  7  1  0  0  0  0
 17 28  1  6  0  0  0
 17 25  1  0  0  0  0
 17 16  1  0  0  0  0
 18 29  1  0  0  0  0
 18 17  1  0  0  0  0
 19 18  1  0  0  0  0
 19 20  1  0  0  0  0
 20 31  1  0  0  0  0
 21 20  2  0  0  0  0
 21 32  1  0  0  0  0
 22 21  1  0  0  0  0
 23 24  1  0  0  0  0
 23 22  2  0  0  0  0
 24 19  2  0  0  0  0
 25 26  2  0  0  0  0
 30 18  1  0  0  0  0
 33 22  1  0  0  0  0
 34 23  1  0  0  0  0
 35 24  1  0  0  0  0
 36 37  1  0  0  0  0
 36 25  1  0  0  0  0
 37 47  1  1  0  0  0
 38 49  1  0  0  0  0
 38 37  1  0  0  0  0
 38 48  1  0  0  0  0
 39 51  1  0  0  0  0
 39 38  1  0  0  0  0
 40 39  1  0  0  0  0
 41 40  2  0  0  0  0
 42 43  1  0  0  0  0
 42 37  1  0  0  0  0
 44 40  1  0  0  0  0
 45 42  2  0  0  0  0
 46 36  1  0  0  0  0
 50 39  1  0  0  0  0
 52 44  1  0  0  0  0
M  END
$$$$
