NFF.pdb
 OpenBabel07022418113D

 56 57  0  0  1  0  0  0  0  0999 V2000
   -0.9760   -3.0470    2.0000 N   0  0  0  0  0  0  0  0  0  0  0  0
    0.2640   -3.6910    1.8970 C   0  0  0  0  0  0  0  0  0  0  0  0
    0.2540   -4.9320    1.6230 O   0  0  0  0  0  0  0  0  0  0  0  0
    1.5920   -3.0830    2.0720 C   0  0  0  0  0  0  0  0  0  0  0  0
    1.6020   -1.6370    2.3940 C   0  0  2  0  0  0  0  0  0  0  0  0
    0.8930   -1.3260    3.6120 N   0  0  0  0  0  0  0  0  0  0  0  0
    1.2570   -0.7270    1.2670 C   0  0  0  0  0  0  0  0  0  0  0  0
    1.8080   -0.8240    0.1430 O   0  0  0  0  0  0  0  0  0  0  0  0
   -1.7540   -3.3330    1.3660 H   0  0  0  0  0  0  0  0  0  0  0  0
   -1.1990   -2.2830    2.6750 H   0  0  0  0  0  0  0  0  0  0  0  0
    2.0690   -3.6190    2.9440 H   0  0  0  0  0  0  0  0  0  0  0  0
    2.2730   -3.2840    1.2190 H   0  0  0  0  0  0  0  0  0  0  0  0
    2.6880   -1.3810    2.6280 H   0  0  0  0  0  0  0  0  0  0  0  0
    1.3100   -1.8470    4.4140 H   0  0  0  0  0  0  0  0  0  0  0  0
    1.1210   -0.3060    3.8220 H   0  0  0  0  0  0  0  0  0  0  0  0
    0.2840    0.3050    1.4090 N   0  0  0  0  0  0  0  0  0  0  0  0
   -0.1190    1.2450    0.4400 C   0  0  1  0  0  0  0  0  0  0  0  0
    1.0160    1.9970   -0.2570 C   0  0  0  0  0  0  0  0  0  0  0  0
    1.8160    2.7710    0.7210 C   0  0  0  0  0  0  0  0  0  0  0  0
    1.4380    4.0670    1.0870 C   0  0  0  0  0  0  0  0  0  0  0  0
    2.1730    4.7950    1.9780 C   0  0  0  0  0  0  0  0  0  0  0  0
    3.3200    4.3010    2.5650 C   0  0  0  0  0  0  0  0  0  0  0  0
    3.6920    3.0250    2.2060 C   0  0  0  0  0  0  0  0  0  0  0  0
    2.9540    2.2570    1.2920 C   0  0  0  0  0  0  0  0  0  0  0  0
   -1.1590    0.8470   -0.5120 C   0  0  0  0  0  0  0  0  0  0  0  0
   -1.5500    1.7550   -1.3190 O   0  0  0  0  0  0  0  0  0  0  0  0
   -0.1750    0.3310    2.3850 H   0  0  0  0  0  0  0  0  0  0  0  0
   -0.5950    2.1060    1.0480 H   0  0  0  0  0  0  0  0  0  0  0  0
    1.6970    1.2790   -0.7370 H   0  0  0  0  0  0  0  0  0  0  0  0
    0.5740    2.7140   -1.0030 H   0  0  0  0  0  0  0  0  0  0  0  0
    0.5330    4.4290    0.6090 H   0  0  0  0  0  0  0  0  0  0  0  0
    1.8380    5.8080    2.2350 H   0  0  0  0  0  0  0  0  0  0  0  0
    3.8830    4.9000    3.2680 H   0  0  0  0  0  0  0  0  0  0  0  0
    4.5840    2.5900    2.6370 H   0  0  0  0  0  0  0  0  0  0  0  0
    3.3100    1.2540    1.0450 H   0  0  0  0  0  0  0  0  0  0  0  0
   -1.7600   -0.4060   -0.6270 N   0  0  0  0  0  0  0  0  0  0  0  0
   -2.8000   -0.7080   -1.6080 C   0  0  1  0  0  0  0  0  0  0  0  0
   -2.3130   -1.6010   -2.7150 C   0  0  0  0  0  0  0  0  0  0  0  0
   -1.8150   -2.9170   -2.2590 C   0  0  0  0  0  0  0  0  0  0  0  0
   -2.6450   -4.0110   -2.1350 C   0  0  0  0  0  0  0  0  0  0  0  0
   -2.1250   -5.2080   -1.7190 C   0  0  0  0  0  0  0  0  0  0  0  0
   -0.7950   -5.3710   -1.4160 C   0  0  0  0  0  0  0  0  0  0  0  0
    0.0510   -4.2740   -1.5380 C   0  0  0  0  0  0  0  0  0  0  0  0
   -0.4840   -3.0780   -1.9560 C   0  0  0  0  0  0  0  0  0  0  0  0
   -4.0130   -1.2100   -0.9290 C   0  0  0  0  0  0  0  0  0  0  0  0
   -3.9970   -1.3070    0.3230 O   0  0  0  0  0  0  0  0  0  0  0  0
   -5.1600   -1.5780   -1.5820 O   0  0  0  0  0  0  0  0  0  0  0  0
   -1.4480   -1.1600    0.0190 H   0  0  0  0  0  0  0  0  0  0  0  0
   -3.1090    0.2510   -2.1320 H   0  0  0  0  0  0  0  0  0  0  0  0
   -3.1050   -1.8030   -3.4610 H   0  0  0  0  0  0  0  0  0  0  0  0
   -1.5250   -1.0420   -3.2820 H   0  0  0  0  0  0  0  0  0  0  0  0
   -3.6970   -3.9420   -2.3590 H   0  0  0  0  0  0  0  0  0  0  0  0
   -2.7620   -6.0710   -1.6180 H   0  0  0  0  0  0  0  0  0  0  0  0
   -0.4170   -6.3270   -1.0910 H   0  0  0  0  0  0  0  0  0  0  0  0
    1.1000   -4.4140   -1.2960 H   0  0  0  0  0  0  0  0  0  0  0  0
    0.1970   -2.2410   -2.0420 H   0  0  0  0  0  0  0  0  0  0  0  0
  1 10  1  0  0  0  0
  2  1  1  0  0  0  0
  2  4  1  0  0  0  0
  3  2  2  0  0  0  0
  4  5  1  0  0  0  0
  4 11  1  0  0  0  0
  5 13  1  1  0  0  0
  5  6  1  0  0  0  0
  6 15  1  0  0  0  0
  6 14  1  0  0  0  0
  7 16  1  0  0  0  0
  7  5  1  0  0  0  0
  8  7  2  0  0  0  0
  9  1  1  0  0  0  0
 12  4  1  0  0  0  0
 16 27  1  0  0  0  0
 17 28  1  1  0  0  0
 17 16  1  0  0  0  0
 18 17  1  0  0  0  0
 18 19  1  0  0  0  0
 19 20  2  0  0  0  0
 19 24  1  0  0  0  0
 20 21  1  0  0  0  0
 21 32  1  0  0  0  0
 21 22  2  0  0  0  0
 22 33  1  0  0  0  0
 23 22  1  0  0  0  0
 23 34  1  0  0  0  0
 24 23  2  0  0  0  0
 25 17  1  0  0  0  0
 26 25  2  0  0  0  0
 29 18  1  0  0  0  0
 30 18  1  0  0  0  0
 31 20  1  0  0  0  0
 35 24  1  0  0  0  0
 36 25  1  0  0  0  0
 36 48  1  0  0  0  0
 37 49  1  6  0  0  0
 37 45  1  0  0  0  0
 37 36  1  0  0  0  0
 38 39  1  0  0  0  0
 38 37  1  0  0  0  0
 39 40  2  0  0  0  0
 39 44  1  0  0  0  0
 40 41  1  0  0  0  0
 41 53  1  0  0  0  0
 41 42  2  0  0  0  0
 42 54  1  0  0  0  0
 43 42  1  0  0  0  0
 43 55  1  0  0  0  0
 44 43  2  0  0  0  0
 45 46  1  0  0  0  0
 47 45  2  0  0  0  0
 50 38  1  0  0  0  0
 51 38  1  0  0  0  0
 52 40  1  0  0  0  0
 56 44  1  0  0  0  0
M  END
$$$$
