NFG.pdb
 OpenBabel07022418103D

 43 43  0  0  1  0  0  0  0  0999 V2000
    0.0960   -5.1740    3.7120 N   0  0  0  0  0  0  0  0  0  0  0  0
    0.9980   -4.1080    3.5560 C   0  0  0  0  0  0  0  0  0  0  0  0
    1.8140   -3.8460    4.4800 O   0  0  0  0  0  0  0  0  0  0  0  0
    0.9910   -3.2980    2.3350 C   0  0  0  0  0  0  0  0  0  0  0  0
    1.0180   -1.8020    2.6790 C   0  0  2  0  0  0  0  0  0  0  0  0
   -0.1760   -1.5010    3.4750 N   0  0  0  0  0  0  0  0  0  0  0  0
    1.0280   -1.0410    1.4060 C   0  0  0  0  0  0  0  0  0  0  0  0
    2.0460   -1.1640    0.6950 O   0  0  0  0  0  0  0  0  0  0  0  0
   -0.4900   -5.2080    4.5890 H   0  0  0  0  0  0  0  0  0  0  0  0
   -0.0030   -5.9060    3.0060 H   0  0  0  0  0  0  0  0  0  0  0  0
    0.1200   -3.4850    1.6770 H   0  0  0  0  0  0  0  0  0  0  0  0
    1.9020   -3.4730    1.6960 H   0  0  0  0  0  0  0  0  0  0  0  0
    1.8910   -1.5920    3.3140 H   0  0  0  0  0  0  0  0  0  0  0  0
   -1.0490   -1.8600    3.0470 H   0  0  0  0  0  0  0  0  0  0  0  0
   -0.2270   -0.4910    3.6090 H   0  0  0  0  0  0  0  0  0  0  0  0
   -0.0620   -0.2200    1.0150 N   0  0  0  0  0  0  0  0  0  0  0  0
   -0.0770    0.5300   -0.1790 C   0  0  1  0  0  0  0  0  0  0  0  0
    1.1790    1.2320   -0.5930 C   0  0  0  0  0  0  0  0  0  0  0  0
    1.5570    2.2450    0.4190 C   0  0  0  0  0  0  0  0  0  0  0  0
    2.4680    2.0850    1.4320 C   0  0  0  0  0  0  0  0  0  0  0  0
    2.7580    3.0990    2.3400 C   0  0  0  0  0  0  0  0  0  0  0  0
    2.1440    4.3310    2.2750 C   0  0  0  0  0  0  0  0  0  0  0  0
    1.2250    4.5000    1.2590 C   0  0  0  0  0  0  0  0  0  0  0  0
    0.9360    3.5070    0.3640 C   0  0  0  0  0  0  0  0  0  0  0  0
   -0.8470   -0.0350   -1.2880 C   0  0  0  0  0  0  0  0  0  0  0  0
   -0.9350    0.5220   -2.4150 O   0  0  0  0  0  0  0  0  0  0  0  0
   -0.8720   -0.2300    1.7160 H   0  0  0  0  0  0  0  0  0  0  0  0
   -0.6940    1.4700    0.1340 H   0  0  0  0  0  0  0  0  0  0  0  0
    0.9170    1.7860   -1.5380 H   0  0  0  0  0  0  0  0  0  0  0  0
    2.0130    0.5810   -0.8330 H   0  0  0  0  0  0  0  0  0  0  0  0
    2.9970    1.1490    1.5400 H   0  0  0  0  0  0  0  0  0  0  0  0
    3.5010    2.9260    3.1340 H   0  0  0  0  0  0  0  0  0  0  0  0
    2.3800    5.1140    2.9800 H   0  0  0  0  0  0  0  0  0  0  0  0
    0.7190    5.4650    1.1940 H   0  0  0  0  0  0  0  0  0  0  0  0
    0.2110    3.6330   -0.4390 H   0  0  0  0  0  0  0  0  0  0  0  0
   -1.5640   -1.2770   -1.1770 N   0  0  0  0  0  0  0  0  0  0  0  0
   -2.3140   -1.8140   -2.3110 C   0  0  0  0  0  0  0  0  0  0  0  0
   -1.4050   -2.0730   -3.4490 C   0  0  0  0  0  0  0  0  0  0  0  0
   -0.1780   -1.8120   -3.3470 O   0  0  0  0  0  0  0  0  0  0  0  0
   -1.8710   -2.6010   -4.6350 O   0  0  0  0  0  0  0  0  0  0  0  0
   -1.5200   -1.7550   -0.2740 H   0  0  0  0  0  0  0  0  0  0  0  0
   -2.8400   -2.7140   -1.9560 H   0  0  0  0  0  0  0  0  0  0  0  0
   -3.0650   -1.0490   -2.6200 H   0  0  0  0  0  0  0  0  0  0  0  0
  1  9  1  0  0  0  0
  2  1  1  0  0  0  0
  2  3  2  0  0  0  0
  4  5  1  0  0  0  0
  4  2  1  0  0  0  0
  5 13  1  1  0  0  0
  5  6  1  0  0  0  0
  6 15  1  0  0  0  0
  7  5  1  0  0  0  0
  8  7  2  0  0  0  0
 10  1  1  0  0  0  0
 11  4  1  0  0  0  0
 12  4  1  0  0  0  0
 14  6  1  0  0  0  0
 16  7  1  0  0  0  0
 16 27  1  0  0  0  0
 17 28  1  1  0  0  0
 17 16  1  0  0  0  0
 18 17  1  0  0  0  0
 18 19  1  0  0  0  0
 19 20  1  0  0  0  0
 20 31  1  0  0  0  0
 20 21  2  0  0  0  0
 21 32  1  0  0  0  0
 22 21  1  0  0  0  0
 22 33  1  0  0  0  0
 23 22  2  0  0  0  0
 24 19  2  0  0  0  0
 24 23  1  0  0  0  0
 25 36  1  0  0  0  0
 25 17  1  0  0  0  0
 26 25  2  0  0  0  0
 29 18  1  0  0  0  0
 30 18  1  0  0  0  0
 34 23  1  0  0  0  0
 35 24  1  0  0  0  0
 36 41  1  0  0  0  0
 37 42  1  0  0  0  0
 37 36  1  0  0  0  0
 38 39  1  0  0  0  0
 38 37  1  0  0  0  0
 40 38  2  0  0  0  0
 43 37  1  0  0  0  0
M  END
$$$$
