NFP.pdb
 OpenBabel07022418113D

 50 51  0  0  1  0  0  0  0  0999 V2000
    5.5560   -2.4120    3.6730 N   0  0  0  0  0  0  0  0  0  0  0  0
    4.9900   -2.2840    2.3840 C   0  0  0  0  0  0  0  0  0  0  0  0
    5.7430   -2.3970    1.3840 O   0  0  0  0  0  0  0  0  0  0  0  0
    3.5140   -2.0180    2.2250 C   0  0  0  0  0  0  0  0  0  0  0  0
    3.1540   -1.9230    0.7590 C   0  0  2  0  0  0  0  0  0  0  0  0
    3.9000   -0.8420    0.1620 N   0  0  0  0  0  0  0  0  0  0  0  0
    1.6870   -1.7150    0.6500 C   0  0  0  0  0  0  0  0  0  0  0  0
    0.8890   -2.5610    1.1320 O   0  0  0  0  0  0  0  0  0  0  0  0
    6.4280   -1.9160    3.9660 H   0  0  0  0  0  0  0  0  0  0  0  0
    5.1160   -3.0270    4.4180 H   0  0  0  0  0  0  0  0  0  0  0  0
    2.9880   -2.8310    2.7400 H   0  0  0  0  0  0  0  0  0  0  0  0
    3.3310   -1.0800    2.7540 H   0  0  0  0  0  0  0  0  0  0  0  0
    3.4760   -2.8510    0.2300 H   0  0  0  0  0  0  0  0  0  0  0  0
    3.5970    0.0400    0.6730 H   0  0  0  0  0  0  0  0  0  0  0  0
    3.6590   -0.6800   -0.8300 H   0  0  0  0  0  0  0  0  0  0  0  0
    1.1140   -0.5890    0.0180 N   0  0  0  0  0  0  0  0  0  0  0  0
   -0.3540   -0.4000   -0.0840 C   0  0  1  0  0  0  0  0  0  0  0  0
   -0.6210    0.8860    0.7190 C   0  0  0  0  0  0  0  0  0  0  0  0
   -0.1830    0.6860    2.1200 C   0  0  0  0  0  0  0  0  0  0  0  0
    1.0910    0.9810    2.5560 C   0  0  0  0  0  0  0  0  0  0  0  0
    1.4170    0.7660    3.8880 C   0  0  0  0  0  0  0  0  0  0  0  0
    0.5100    0.2670    4.7910 C   0  0  0  0  0  0  0  0  0  0  0  0
   -0.7660   -0.0250    4.3410 C   0  0  0  0  0  0  0  0  0  0  0  0
   -1.1160    0.1780    3.0250 C   0  0  0  0  0  0  0  0  0  0  0  0
   -0.7370   -0.1250   -1.4760 C   0  0  0  0  0  0  0  0  0  0  0  0
    0.1670    0.1480   -2.3280 O   0  0  0  0  0  0  0  0  0  0  0  0
    1.7540    0.1220   -0.3860 H   0  0  0  0  0  0  0  0  0  0  0  0
   -0.9140   -1.1990    0.4000 H   0  0  0  0  0  0  0  0  0  0  0  0
   -1.6680    1.1980    0.7000 H   0  0  0  0  0  0  0  0  0  0  0  0
   -0.0110    1.6990    0.2380 H   0  0  0  0  0  0  0  0  0  0  0  0
    1.8120    1.3770    1.8420 H   0  0  0  0  0  0  0  0  0  0  0  0
    2.4270    1.0060    4.2110 H   0  0  0  0  0  0  0  0  0  0  0  0
    0.8090    0.1140    5.8250 H   0  0  0  0  0  0  0  0  0  0  0  0
   -1.4740   -0.4180    5.0560 H   0  0  0  0  0  0  0  0  0  0  0  0
   -2.1160   -0.0570    2.6980 H   0  0  0  0  0  0  0  0  0  0  0  0
   -2.0810   -0.1620   -1.8800 N   0  0  0  0  0  0  0  0  0  0  0  0
   -2.5370    0.1500   -3.2400 C   0  0  0  0  0  0  0  0  0  0  0  0
   -3.9390    0.6540   -3.1060 C   0  0  0  0  0  0  0  0  0  0  0  0
   -4.4480   -0.1340   -1.9370 C   0  0  0  0  0  0  0  0  0  0  0  0
   -3.2300   -0.5360   -1.1150 C   0  0  1  0  0  0  0  0  0  0  0  0
   -3.2550   -2.0240   -0.8750 C   0  0  0  0  0  0  0  0  0  0  0  0
   -2.3690   -2.7730   -1.3160 O   0  0  0  0  0  0  0  0  0  0  0  0
   -4.2940   -2.5750   -0.1410 O   0  0  0  0  0  0  0  0  0  0  0  0
   -1.9300    0.9600   -3.6920 H   0  0  0  0  0  0  0  0  0  0  0  0
   -2.5170   -0.7380   -3.8930 H   0  0  0  0  0  0  0  0  0  0  0  0
   -4.0200    1.7460   -2.9780 H   0  0  0  0  0  0  0  0  0  0  0  0
   -4.5700    0.3830   -3.9930 H   0  0  0  0  0  0  0  0  0  0  0  0
   -4.9390   -1.0530   -2.2940 H   0  0  0  0  0  0  0  0  0  0  0  0
   -5.1800    0.4440   -1.3680 H   0  0  0  0  0  0  0  0  0  0  0  0
   -3.3620   -0.0660   -0.1420 H   0  0  0  0  0  0  0  0  0  0  0  0
  1  9  1  0  0  0  0
  1 10  1  0  0  0  0
  2  1  1  0  0  0  0
  3  2  2  0  0  0  0
  4  2  1  0  0  0  0
  4 11  1  0  0  0  0
  4 12  1  0  0  0  0
  5 13  1  6  0  0  0
  5  4  1  0  0  0  0
  6 14  1  0  0  0  0
  6  5  1  0  0  0  0
  7  5  1  0  0  0  0
  7  8  2  0  0  0  0
 15  6  1  0  0  0  0
 16  7  1  0  0  0  0
 17 16  1  0  0  0  0
 17 28  1  1  0  0  0
 17 18  1  0  0  0  0
 18 19  1  0  0  0  0
 19 20  2  0  0  0  0
 19 24  1  0  0  0  0
 20 21  1  0  0  0  0
 21 32  1  0  0  0  0
 21 22  2  0  0  0  0
 22 33  1  0  0  0  0
 23 22  1  0  0  0  0
 23 34  1  0  0  0  0
 24 23  2  0  0  0  0
 25 17  1  0  0  0  0
 26 25  2  0  0  0  0
 27 16  1  0  0  0  0
 29 18  1  0  0  0  0
 30 18  1  0  0  0  0
 31 20  1  0  0  0  0
 35 24  1  0  0  0  0
 36 25  1  0  0  0  0
 36 40  1  0  0  0  0
 37 38  1  0  0  0  0
 37 36  1  0  0  0  0
 38 46  1  0  0  0  0
 38 39  1  0  0  0  0
 39 49  1  0  0  0  0
 39 40  1  0  0  0  0
 40 41  1  0  0  0  0
 40 50  1  1  0  0  0
 41 43  1  0  0  0  0
 42 41  2  0  0  0  0
 44 37  1  0  0  0  0
 45 37  1  0  0  0  0
 47 38  1  0  0  0  0
 48 39  1  0  0  0  0
M  END
$$$$
