NFT.pdb
 OpenBabel07022418113D

 50 50  0  0  1  0  0  0  0  0999 V2000
    4.0230   -4.0900    1.5730 N   0  0  0  0  0  0  0  0  0  0  0  0
    4.6240   -2.8050    1.4580 C   0  0  0  0  0  0  0  0  0  0  0  0
    5.8860   -2.7800    1.3710 O   0  0  0  0  0  0  0  0  0  0  0  0
    3.8370   -1.5420    1.4380 C   0  0  0  0  0  0  0  0  0  0  0  0
    2.3830   -1.9180    1.5570 C   0  0  2  0  0  0  0  0  0  0  0  0
    2.0540   -2.7620    0.4310 N   0  0  0  0  0  0  0  0  0  0  0  0
    1.4930   -0.7340    1.6460 C   0  0  0  0  0  0  0  0  0  0  0  0
    1.6990    0.0650    2.5960 O   0  0  0  0  0  0  0  0  0  0  0  0
    3.9740   -4.6170    2.4680 H   0  0  0  0  0  0  0  0  0  0  0  0
    3.6050   -4.5450    0.7330 H   0  0  0  0  0  0  0  0  0  0  0  0
    4.1160   -0.9740    2.3390 H   0  0  0  0  0  0  0  0  0  0  0  0
    4.0480   -0.9710    0.5070 H   0  0  0  0  0  0  0  0  0  0  0  0
    2.2810   -2.5400    2.4710 H   0  0  0  0  0  0  0  0  0  0  0  0
    2.0350   -2.1980   -0.4280 H   0  0  0  0  0  0  0  0  0  0  0  0
    1.1450   -3.2280    0.6580 H   0  0  0  0  0  0  0  0  0  0  0  0
    0.4450   -0.4620    0.7350 N   0  0  0  0  0  0  0  0  0  0  0  0
   -0.3790    0.7240    0.8980 C   0  0  1  0  0  0  0  0  0  0  0  0
   -0.2460    1.6450   -0.3080 C   0  0  0  0  0  0  0  0  0  0  0  0
    1.1590    2.0900   -0.4950 C   0  0  0  0  0  0  0  0  0  0  0  0
    2.0620    1.3900   -1.2710 C   0  0  0  0  0  0  0  0  0  0  0  0
    3.3570    1.8470   -1.4130 C   0  0  0  0  0  0  0  0  0  0  0  0
    3.8110    2.9980   -0.8040 C   0  0  0  0  0  0  0  0  0  0  0  0
    2.9140    3.7010   -0.0280 C   0  0  0  0  0  0  0  0  0  0  0  0
    1.6210    3.2430    0.1120 C   0  0  0  0  0  0  0  0  0  0  0  0
   -1.8020    0.3800    1.0750 C   0  0  0  0  0  0  0  0  0  0  0  0
   -2.6120    1.3320    1.2250 O   0  0  0  0  0  0  0  0  0  0  0  0
    0.3030   -1.1450   -0.0390 H   0  0  0  0  0  0  0  0  0  0  0  0
   -0.0680    1.3190    1.7790 H   0  0  0  0  0  0  0  0  0  0  0  0
   -0.9520    2.4870   -0.1940 H   0  0  0  0  0  0  0  0  0  0  0  0
   -0.5970    1.0580   -1.1810 H   0  0  0  0  0  0  0  0  0  0  0  0
    1.7320    0.4860   -1.7590 H   0  0  0  0  0  0  0  0  0  0  0  0
    4.0830    1.2980   -2.0280 H   0  0  0  0  0  0  0  0  0  0  0  0
    4.8410    3.3310   -0.9370 H   0  0  0  0  0  0  0  0  0  0  0  0
    3.2160    4.6200    0.4790 H   0  0  0  0  0  0  0  0  0  0  0  0
    0.8910    3.7910    0.7280 H   0  0  0  0  0  0  0  0  0  0  0  0
   -5.6090   -2.4700    0.1580 C   0  0  0  0  0  0  0  0  0  0  0  0
   -4.1750   -2.0630    0.0560 C   0  0  1  0  0  0  0  0  0  0  0  0
   -4.0050   -1.3020   -1.1090 O   0  0  0  0  0  0  0  0  0  0  0  0
   -3.7140   -1.2590    1.2600 C   0  0  2  0  0  0  0  0  0  0  0  0
   -2.3150   -0.9300    1.0870 N   0  0  0  0  0  0  0  0  0  0  0  0
   -3.8560   -2.1390    2.4400 C   0  0  0  0  0  0  0  0  0  0  0  0
   -2.8300   -2.4600    3.0840 O   0  0  0  0  0  0  0  0  0  0  0  0
   -5.0990   -2.6160    2.8480 O   0  0  0  0  0  0  0  0  0  0  0  0
   -6.0590   -2.5400   -0.8730 H   0  0  0  0  0  0  0  0  0  0  0  0
   -6.2430   -1.7780    0.7220 H   0  0  0  0  0  0  0  0  0  0  0  0
   -5.7150   -3.5110    0.5680 H   0  0  0  0  0  0  0  0  0  0  0  0
   -3.5590   -2.9730   -0.0820 H   0  0  0  0  0  0  0  0  0  0  0  0
   -4.4120   -0.4280   -0.9230 H   0  0  0  0  0  0  0  0  0  0  0  0
   -4.3430   -0.3540    1.3840 H   0  0  0  0  0  0  0  0  0  0  0  0
   -1.6520   -1.7180    0.9630 H   0  0  0  0  0  0  0  0  0  0  0  0
  1  9  1  0  0  0  0
  2  1  1  0  0  0  0
  3  2  2  0  0  0  0
  4  2  1  0  0  0  0
  4  5  1  0  0  0  0
  4 11  1  0  0  0  0
  5  7  1  0  0  0  0
  5 13  1  1  0  0  0
  6 15  1  0  0  0  0
  6  5  1  0  0  0  0
  7  8  2  0  0  0  0
 10  1  1  0  0  0  0
 12  4  1  0  0  0  0
 14  6  1  0  0  0  0
 16 17  1  0  0  0  0
 16  7  1  0  0  0  0
 17 25  1  0  0  0  0
 17 28  1  1  0  0  0
 18 29  1  0  0  0  0
 18 17  1  0  0  0  0
 19 18  1  0  0  0  0
 19 24  1  0  0  0  0
 20 19  2  0  0  0  0
 21 20  1  0  0  0  0
 21 22  2  0  0  0  0
 22 23  1  0  0  0  0
 23 24  2  0  0  0  0
 23 34  1  0  0  0  0
 24 35  1  0  0  0  0
 25 40  1  0  0  0  0
 25 26  2  0  0  0  0
 27 16  1  0  0  0  0
 30 18  1  0  0  0  0
 31 20  1  0  0  0  0
 32 21  1  0  0  0  0
 33 22  1  0  0  0  0
 36 46  1  0  0  0  0
 36 45  1  0  0  0  0
 37 47  1  6  0  0  0
 37 36  1  0  0  0  0
 37 39  1  0  0  0  0
 38 48  1  0  0  0  0
 38 37  1  0  0  0  0
 39 49  1  1  0  0  0
 39 41  1  0  0  0  0
 40 39  1  0  0  0  0
 41 43  2  0  0  0  0
 41 42  1  0  0  0  0
 44 36  1  0  0  0  0
 50 40  1  0  0  0  0
M  END
$$$$
