NGC.pdb
 OpenBabel07022418093D

 34 33  0  0  1  0  0  0  0  0999 V2000
   -2.6020   -2.1000    0.2760 N   0  0  0  0  0  0  0  0  0  0  0  0
   -1.3460   -2.3740    0.8510 C   0  0  0  0  0  0  0  0  0  0  0  0
   -1.0570   -1.8720    1.9880 O   0  0  0  0  0  0  0  0  0  0  0  0
   -0.3890   -3.2380    0.1200 C   0  0  0  0  0  0  0  0  0  0  0  0
    0.8800   -3.3220    0.9230 C   0  0  2  0  0  0  0  0  0  0  0  0
    0.6370   -3.8550    2.2300 N   0  0  0  0  0  0  0  0  0  0  0  0
    1.5460   -2.0020    0.9070 C   0  0  0  0  0  0  0  0  0  0  0  0
    1.7660   -1.3470    1.9720 O   0  0  0  0  0  0  0  0  0  0  0  0
   -3.1200   -1.2020    0.4440 H   0  0  0  0  0  0  0  0  0  0  0  0
   -3.0480   -2.8150   -0.3460 H   0  0  0  0  0  0  0  0  0  0  0  0
   -0.8120   -4.2580   -0.0200 H   0  0  0  0  0  0  0  0  0  0  0  0
   -0.2440   -2.7940   -0.8720 H   0  0  0  0  0  0  0  0  0  0  0  0
    1.5640   -4.0160    0.3620 H   0  0  0  0  0  0  0  0  0  0  0  0
    1.4380   -4.4240    2.5670 H   0  0  0  0  0  0  0  0  0  0  0  0
   -0.2280   -4.4170    2.2170 H   0  0  0  0  0  0  0  0  0  0  0  0
    1.9490   -1.4680   -0.3450 N   0  0  0  0  0  0  0  0  0  0  0  0
    2.6110   -0.2110   -0.5180 C   0  0  0  0  0  0  0  0  0  0  0  0
    1.8620    0.9800   -0.1000 C   0  0  0  0  0  0  0  0  0  0  0  0
    2.4770    2.0950   -0.2270 O   0  0  0  0  0  0  0  0  0  0  0  0
    1.7300   -2.0680   -1.1980 H   0  0  0  0  0  0  0  0  0  0  0  0
    3.5970   -0.2940    0.0100 H   0  0  0  0  0  0  0  0  0  0  0  0
    2.8460   -0.0870   -1.6050 H   0  0  0  0  0  0  0  0  0  0  0  0
    0.5530    1.0070    0.4160 N   0  0  0  0  0  0  0  0  0  0  0  0
   -0.0300    2.2740    0.7810 C   0  0  1  0  0  0  0  0  0  0  0  0
   -1.3160    2.5180   -0.0040 C   0  0  0  0  0  0  0  0  0  0  0  0
   -0.9870    2.5360   -1.7920 S   0  0  0  0  0  0  0  0  0  0  0  0
   -0.4150    2.2330    2.2070 C   0  0  0  0  0  0  0  0  0  0  0  0
   -0.2070    1.1850    2.8600 O   0  0  0  0  0  0  0  0  0  0  0  0
   -0.9940    3.2880    2.8630 O   0  0  0  0  0  0  0  0  0  0  0  0
    0.0350    0.1260    0.5140 H   0  0  0  0  0  0  0  0  0  0  0  0
    0.6790    3.1080    0.6060 H   0  0  0  0  0  0  0  0  0  0  0  0
   -2.0160    1.7260    0.2580 H   0  0  0  0  0  0  0  0  0  0  0  0
   -1.6820    3.5350    0.2600 H   0  0  0  0  0  0  0  0  0  0  0  0
   -0.0290    3.5060   -2.1150 H   0  0  0  0  0  0  0  0  0  0  0  0
  1  9  1  0  0  0  0
  1  2  1  0  0  0  0
  2  3  2  0  0  0  0
  4  2  1  0  0  0  0
  4  5  1  0  0  0  0
  5 13  1  6  0  0  0
  5  6  1  0  0  0  0
  6 14  1  0  0  0  0
  7  5  1  0  0  0  0
  7  8  2  0  0  0  0
 10  1  1  0  0  0  0
 11  4  1  0  0  0  0
 12  4  1  0  0  0  0
 15  6  1  0  0  0  0
 16  7  1  0  0  0  0
 17 16  1  0  0  0  0
 17 18  1  0  0  0  0
 17 21  1  0  0  0  0
 18 23  1  0  0  0  0
 19 18  2  0  0  0  0
 20 16  1  0  0  0  0
 22 17  1  0  0  0  0
 23 30  1  0  0  0  0
 23 24  1  0  0  0  0
 24 31  1  6  0  0  0
 24 27  1  0  0  0  0
 25 32  1  0  0  0  0
 25 33  1  0  0  0  0
 25 24  1  0  0  0  0
 26 25  1  0  0  0  0
 27 28  2  0  0  0  0
 27 29  1  0  0  0  0
 34 26  1  0  0  0  0
M  END
$$$$
