NGI.pdb
 OpenBabel07022418093D

 42 41  0  0  1  0  0  0  0  0999 V2000
   -1.3460   -2.6240    3.1600 N   0  0  0  0  0  0  0  0  0  0  0  0
   -0.1640   -3.3160    2.7320 C   0  0  0  0  0  0  0  0  0  0  0  0
    0.9110   -3.0160    3.3000 O   0  0  0  0  0  0  0  0  0  0  0  0
   -0.3100   -4.3090    1.6680 C   0  0  0  0  0  0  0  0  0  0  0  0
    0.6310   -4.2220    0.5260 C   0  0  2  0  0  0  0  0  0  0  0  0
    2.0030   -4.3570    0.8620 N   0  0  0  0  0  0  0  0  0  0  0  0
    0.4060   -3.0150   -0.3210 C   0  0  0  0  0  0  0  0  0  0  0  0
    1.4170   -2.3440   -0.6350 O   0  0  0  0  0  0  0  0  0  0  0  0
   -1.3230   -1.9880    3.9820 H   0  0  0  0  0  0  0  0  0  0  0  0
   -2.2690   -2.7350    2.6650 H   0  0  0  0  0  0  0  0  0  0  0  0
   -0.1090   -5.3120    2.1630 H   0  0  0  0  0  0  0  0  0  0  0  0
   -1.3550   -4.4150    1.3130 H   0  0  0  0  0  0  0  0  0  0  0  0
    0.3860   -5.0890   -0.1650 H   0  0  0  0  0  0  0  0  0  0  0  0
    2.5590   -3.8930    0.0770 H   0  0  0  0  0  0  0  0  0  0  0  0
    2.3200   -3.8920    1.7280 H   0  0  0  0  0  0  0  0  0  0  0  0
   -0.8980   -2.6380   -0.7570 N   0  0  0  0  0  0  0  0  0  0  0  0
   -1.1460   -1.4730   -1.5650 C   0  0  0  0  0  0  0  0  0  0  0  0
   -0.8150   -0.1990   -0.8970 C   0  0  0  0  0  0  0  0  0  0  0  0
   -0.9430    0.8620   -1.5690 O   0  0  0  0  0  0  0  0  0  0  0  0
   -1.6870   -3.2520   -0.4670 H   0  0  0  0  0  0  0  0  0  0  0  0
   -2.2210   -1.4540   -1.9190 H   0  0  0  0  0  0  0  0  0  0  0  0
   -0.5480   -1.6190   -2.5020 H   0  0  0  0  0  0  0  0  0  0  0  0
    1.8760    3.8030    1.0910 C   0  0  0  0  0  0  0  0  0  0  0  0
    1.9640    2.5110    1.8700 C   0  0  0  0  0  0  0  0  0  0  0  0
    1.4090    1.3140    1.1820 C   0  0  2  0  0  0  0  0  0  0  0  0
    2.1440    1.1260   -0.1270 C   0  0  0  0  0  0  0  0  0  0  0  0
   -0.0330    1.0620    1.1820 C   0  0  2  0  0  0  0  0  0  0  0  0
   -0.3770   -0.1540    0.4320 N   0  0  0  0  0  0  0  0  0  0  0  0
   -0.9850    2.1540    1.0360 C   0  0  0  0  0  0  0  0  0  0  0  0
   -1.9910    2.0330    0.3280 O   0  0  0  0  0  0  0  0  0  0  0  0
   -0.8260    3.3600    1.6660 O   0  0  0  0  0  0  0  0  0  0  0  0
    1.3580    3.6200    0.1540 H   0  0  0  0  0  0  0  0  0  0  0  0
    2.9190    4.1410    0.7740 H   0  0  0  0  0  0  0  0  0  0  0  0
    1.5220    4.6660    1.6910 H   0  0  0  0  0  0  0  0  0  0  0  0
    3.0730    2.3160    2.0080 H   0  0  0  0  0  0  0  0  0  0  0  0
    1.6100    2.6240    2.9210 H   0  0  0  0  0  0  0  0  0  0  0  0
    1.8770    0.4470    1.8170 H   0  0  0  0  0  0  0  0  0  0  0  0
    1.6820    0.3700   -0.7700 H   0  0  0  0  0  0  0  0  0  0  0  0
    2.2190    2.0410   -0.7390 H   0  0  0  0  0  0  0  0  0  0  0  0
    3.2030    0.7930    0.0310 H   0  0  0  0  0  0  0  0  0  0  0  0
   -0.3000    0.7200    2.2650 H   0  0  0  0  0  0  0  0  0  0  0  0
   -0.3100   -1.0920    0.9360 H   0  0  0  0  0  0  0  0  0  0  0  0
  1  9  1  0  0  0  0
  2  1  1  0  0  0  0
  2  3  2  0  0  0  0
  4 11  1  0  0  0  0
  4  2  1  0  0  0  0
  5 13  1  6  0  0  0
  5  6  1  0  0  0  0
  5  4  1  0  0  0  0
  6 15  1  0  0  0  0
  7  5  1  0  0  0  0
  8  7  2  0  0  0  0
 10  1  1  0  0  0  0
 12  4  1  0  0  0  0
 14  6  1  0  0  0  0
 16 20  1  0  0  0  0
 16  7  1  0  0  0  0
 17 18  1  0  0  0  0
 17 16  1  0  0  0  0
 18 28  1  0  0  0  0
 19 18  2  0  0  0  0
 21 17  1  0  0  0  0
 22 17  1  0  0  0  0
 23 34  1  0  0  0  0
 23 24  1  0  0  0  0
 24 35  1  0  0  0  0
 24 36  1  0  0  0  0
 25 27  1  0  0  0  0
 25 37  1  1  0  0  0
 25 24  1  0  0  0  0
 26 40  1  0  0  0  0
 26 25  1  0  0  0  0
 27 41  1  1  0  0  0
 28 42  1  0  0  0  0
 28 27  1  0  0  0  0
 29 27  1  0  0  0  0
 29 31  1  0  0  0  0
 30 29  2  0  0  0  0
 32 23  1  0  0  0  0
 33 23  1  0  0  0  0
 38 26  1  0  0  0  0
 39 26  1  0  0  0  0
M  END
$$$$
