NGL.pdb
 OpenBabel07022418093D

 42 41  0  0  1  0  0  0  0  0999 V2000
   -0.8280   -7.9160    2.3660 N   0  0  0  0  0  0  0  0  0  0  0  0
   -0.0150   -6.7820    2.1450 C   0  0  0  0  0  0  0  0  0  0  0  0
    1.0210   -6.6480    2.8310 O   0  0  0  0  0  0  0  0  0  0  0  0
   -0.3540   -5.7600    1.1330 C   0  0  0  0  0  0  0  0  0  0  0  0
    0.6830   -4.6560    1.1030 C   0  0  2  0  0  0  0  0  0  0  0  0
    0.7970   -3.9850    2.3530 N   0  0  0  0  0  0  0  0  0  0  0  0
    0.4640   -3.7150   -0.0090 C   0  0  0  0  0  0  0  0  0  0  0  0
    0.3440   -4.1570   -1.1690 O   0  0  0  0  0  0  0  0  0  0  0  0
   -1.0590   -8.1880    3.3470 H   0  0  0  0  0  0  0  0  0  0  0  0
   -1.2160   -8.5040    1.5960 H   0  0  0  0  0  0  0  0  0  0  0  0
   -0.4040   -6.2770    0.1540 H   0  0  0  0  0  0  0  0  0  0  0  0
   -1.3590   -5.3260    1.3040 H   0  0  0  0  0  0  0  0  0  0  0  0
    1.6650   -5.1710    0.9060 H   0  0  0  0  0  0  0  0  0  0  0  0
    1.5570   -4.2820    2.9650 H   0  0  0  0  0  0  0  0  0  0  0  0
   -0.1030   -3.7700    2.8230 H   0  0  0  0  0  0  0  0  0  0  0  0
    0.3810   -2.2980    0.1820 N   0  0  0  0  0  0  0  0  0  0  0  0
    0.1680   -1.3910   -0.9020 C   0  0  0  0  0  0  0  0  0  0  0  0
    0.1020    0.0320   -0.5780 C   0  0  0  0  0  0  0  0  0  0  0  0
   -0.0900    0.8940   -1.5260 O   0  0  0  0  0  0  0  0  0  0  0  0
    0.4830   -1.9640    1.1480 H   0  0  0  0  0  0  0  0  0  0  0  0
    0.8320   -1.6070   -1.7760 H   0  0  0  0  0  0  0  0  0  0  0  0
   -0.8670   -1.6520   -1.2980 H   0  0  0  0  0  0  0  0  0  0  0  0
    0.8680    4.9300   -0.2670 C   0  0  0  0  0  0  0  0  0  0  0  0
    1.7220    3.9800    0.4980 C   0  0  0  0  0  0  0  0  0  0  0  0
    1.8410    4.5440    1.9090 C   0  0  0  0  0  0  0  0  0  0  0  0
    1.4050    2.5500    0.4650 C   0  0  0  0  0  0  0  0  0  0  0  0
    0.1530    1.9980    0.9700 C   0  0  2  0  0  0  0  0  0  0  0  0
    0.2400    0.5140    0.7360 N   0  0  0  0  0  0  0  0  0  0  0  0
   -1.1380    2.4910    0.5500 C   0  0  0  0  0  0  0  0  0  0  0  0
   -2.0100    1.7640   -0.0620 O   0  0  0  0  0  0  0  0  0  0  0  0
   -1.5790    3.7840    0.7620 O   0  0  0  0  0  0  0  0  0  0  0  0
    0.2230    4.5000   -1.0350 H   0  0  0  0  0  0  0  0  0  0  0  0
    1.5200    5.6700   -0.8630 H   0  0  0  0  0  0  0  0  0  0  0  0
    0.2700    5.6300    0.3610 H   0  0  0  0  0  0  0  0  0  0  0  0
    2.7760    4.1120    0.0810 H   0  0  0  0  0  0  0  0  0  0  0  0
    1.9320    5.6470    1.7920 H   0  0  0  0  0  0  0  0  0  0  0  0
    0.9370    4.3680    2.5080 H   0  0  0  0  0  0  0  0  0  0  0  0
    2.7710    4.1970    2.3900 H   0  0  0  0  0  0  0  0  0  0  0  0
    2.2350    2.0110    1.0590 H   0  0  0  0  0  0  0  0  0  0  0  0
    1.6190    2.1150   -0.5780 H   0  0  0  0  0  0  0  0  0  0  0  0
    0.1550    2.0570    2.1050 H   0  0  0  0  0  0  0  0  0  0  0  0
    0.4000   -0.1080    1.5500 H   0  0  0  0  0  0  0  0  0  0  0  0
  1  9  1  0  0  0  0
  2  1  1  0  0  0  0
  2  3  2  0  0  0  0
  4 12  1  0  0  0  0
  4  2  1  0  0  0  0
  5 13  1  6  0  0  0
  5  4  1  0  0  0  0
  5  6  1  0  0  0  0
  6 15  1  0  0  0  0
  6 14  1  0  0  0  0
  7 16  1  0  0  0  0
  7  5  1  0  0  0  0
  8  7  2  0  0  0  0
 10  1  1  0  0  0  0
 11  4  1  0  0  0  0
 16 20  1  0  0  0  0
 17 18  1  0  0  0  0
 17 16  1  0  0  0  0
 18 28  1  0  0  0  0
 19 18  2  0  0  0  0
 21 17  1  0  0  0  0
 22 17  1  0  0  0  0
 23 34  1  0  0  0  0
 23 24  1  0  0  0  0
 24 25  1  0  0  0  0
 25 38  1  0  0  0  0
 25 37  1  0  0  0  0
 26 24  1  0  0  0  0
 26 27  1  0  0  0  0
 26 39  1  0  0  0  0
 27 41  1  1  0  0  0
 28 27  1  0  0  0  0
 28 42  1  0  0  0  0
 29 31  1  0  0  0  0
 29 27  1  0  0  0  0
 30 29  2  0  0  0  0
 32 23  1  0  0  0  0
 33 23  1  0  0  0  0
 35 24  1  0  0  0  0
 36 25  1  0  0  0  0
 40 26  1  0  0  0  0
M  END
$$$$
