NGN.pdb
 OpenBabel07022418093D

 37 36  0  0  1  0  0  0  0  0999 V2000
   -3.0080   -1.8910    0.8460 N   0  0  0  0  0  0  0  0  0  0  0  0
   -1.6390   -2.2290    1.0060 C   0  0  0  0  0  0  0  0  0  0  0  0
   -1.0370   -1.7470    1.9950 O   0  0  0  0  0  0  0  0  0  0  0  0
   -0.9660   -3.1200    0.0310 C   0  0  0  0  0  0  0  0  0  0  0  0
    0.4680   -3.3420    0.3120 C   0  0  2  0  0  0  0  0  0  0  0  0
    0.6640   -3.9110    1.6110 N   0  0  0  0  0  0  0  0  0  0  0  0
    1.4090   -2.2610    0.0730 C   0  0  0  0  0  0  0  0  0  0  0  0
    2.1640   -1.9070    1.0320 O   0  0  0  0  0  0  0  0  0  0  0  0
   -3.5990   -1.8980    1.7290 H   0  0  0  0  0  0  0  0  0  0  0  0
   -3.4620   -1.6450   -0.0430 H   0  0  0  0  0  0  0  0  0  0  0  0
   -1.4740   -4.1190    0.1300 H   0  0  0  0  0  0  0  0  0  0  0  0
   -1.1860   -2.7940   -1.0050 H   0  0  0  0  0  0  0  0  0  0  0  0
    0.7900   -4.1820   -0.4090 H   0  0  0  0  0  0  0  0  0  0  0  0
    0.7710   -4.9360    1.6290 H   0  0  0  0  0  0  0  0  0  0  0  0
    1.3470   -3.4000    2.2020 H   0  0  0  0  0  0  0  0  0  0  0  0
    1.5640   -1.5690   -1.1500 N   0  0  0  0  0  0  0  0  0  0  0  0
    2.5250   -0.5360   -1.3150 C   0  0  0  0  0  0  0  0  0  0  0  0
    2.2950    0.6270   -0.4730 C   0  0  0  0  0  0  0  0  0  0  0  0
    3.1460    1.5720   -0.5180 O   0  0  0  0  0  0  0  0  0  0  0  0
    0.9460   -1.8410   -1.9370 H   0  0  0  0  0  0  0  0  0  0  0  0
    2.5370   -0.1860   -2.4090 H   0  0  0  0  0  0  0  0  0  0  0  0
    3.5570   -0.9740   -1.1450 H   0  0  0  0  0  0  0  0  0  0  0  0
   -1.7270    1.1580    1.1010 N   0  0  0  0  0  0  0  0  0  0  0  0
   -1.3390    2.4980    0.8780 C   0  0  0  0  0  0  0  0  0  0  0  0
   -2.3310    3.2810    0.6380 O   0  0  0  0  0  0  0  0  0  0  0  0
    0.0480    3.0140    0.9020 C   0  0  0  0  0  0  0  0  0  0  0  0
    1.0510    2.0130    1.2110 C   0  0  2  0  0  0  0  0  0  0  0  0
    1.2370    0.8540    0.3970 N   0  0  0  0  0  0  0  0  0  0  0  0
    0.9630    1.5880    2.6230 C   0  0  0  0  0  0  0  0  0  0  0  0
    0.7760    2.4050    3.5680 O   0  0  0  0  0  0  0  0  0  0  0  0
    1.0860    0.2490    2.9750 O   0  0  0  0  0  0  0  0  0  0  0  0
   -1.8640    0.8590    2.0740 H   0  0  0  0  0  0  0  0  0  0  0  0
   -1.8490    0.5630    0.2430 H   0  0  0  0  0  0  0  0  0  0  0  0
    0.2570    3.6840    0.0370 H   0  0  0  0  0  0  0  0  0  0  0  0
    0.0490    3.7470    1.7740 H   0  0  0  0  0  0  0  0  0  0  0  0
    2.0720    2.5390    1.1390 H   0  0  0  0  0  0  0  0  0  0  0  0
    0.4890    0.1320    0.4790 H   0  0  0  0  0  0  0  0  0  0  0  0
  1  2  1  0  0  0  0
  1  9  1  0  0  0  0
  2  3  2  0  0  0  0
  4 11  1  0  0  0  0
  4  5  1  0  0  0  0
  4  2  1  0  0  0  0
  5 13  1  6  0  0  0
  5  6  1  0  0  0  0
  6 14  1  0  0  0  0
  6 15  1  0  0  0  0
  7  5  1  0  0  0  0
  7  8  2  0  0  0  0
 10  1  1  0  0  0  0
 12  4  1  0  0  0  0
 16  7  1  0  0  0  0
 17 16  1  0  0  0  0
 17 22  1  0  0  0  0
 17 18  1  0  0  0  0
 18 28  1  0  0  0  0
 19 18  2  0  0  0  0
 20 16  1  0  0  0  0
 21 17  1  0  0  0  0
 23 32  1  0  0  0  0
 24 26  1  0  0  0  0
 24 23  1  0  0  0  0
 25 24  2  0  0  0  0
 26 27  1  0  0  0  0
 26 35  1  0  0  0  0
 27 36  1  6  0  0  0
 27 29  1  0  0  0  0
 28 37  1  0  0  0  0
 28 27  1  0  0  0  0
 29 31  2  0  0  0  0
 29 30  1  0  0  0  0
 33 23  1  0  0  0  0
 34 26  1  0  0  0  0
M  END
$$$$
