NGR.pdb
 OpenBabel07022418093D

 46 45  0  0  1  0  0  0  0  0999 V2000
    2.4620   -5.8840   -2.0880 N   0  0  0  0  0  0  0  0  0  0  0  0
    3.3640   -4.8530   -1.6810 C   0  0  0  0  0  0  0  0  0  0  0  0
    4.5880   -5.1480   -1.6840 O   0  0  0  0  0  0  0  0  0  0  0  0
    2.9020   -3.5060   -1.2750 C   0  0  0  0  0  0  0  0  0  0  0  0
    1.3790   -3.4530   -1.3810 C   0  0  2  0  0  0  0  0  0  0  0  0
    1.0350   -3.7180   -2.7460 N   0  0  0  0  0  0  0  0  0  0  0  0
    0.8930   -2.1170   -0.9080 C   0  0  0  0  0  0  0  0  0  0  0  0
    1.1500   -1.8160    0.2820 O   0  0  0  0  0  0  0  0  0  0  0  0
    1.5500   -5.9620   -1.5940 H   0  0  0  0  0  0  0  0  0  0  0  0
    2.7320   -6.5330   -2.8650 H   0  0  0  0  0  0  0  0  0  0  0  0
    3.3550   -2.7410   -1.9610 H   0  0  0  0  0  0  0  0  0  0  0  0
    3.2630   -3.2620   -0.2690 H   0  0  0  0  0  0  0  0  0  0  0  0
    0.9510   -4.2180   -0.7340 H   0  0  0  0  0  0  0  0  0  0  0  0
    0.0330   -3.7780   -2.9540 H   0  0  0  0  0  0  0  0  0  0  0  0
    1.6250   -3.2370   -3.4350 H   0  0  0  0  0  0  0  0  0  0  0  0
    0.1860   -1.2060   -1.7020 N   0  0  0  0  0  0  0  0  0  0  0  0
   -0.2620    0.0750   -1.1940 C   0  0  0  0  0  0  0  0  0  0  0  0
   -1.1690   -0.1890   -0.0560 C   0  0  0  0  0  0  0  0  0  0  0  0
   -1.4450   -1.3580    0.3230 O   0  0  0  0  0  0  0  0  0  0  0  0
   -0.0330   -1.4440   -2.6900 H   0  0  0  0  0  0  0  0  0  0  0  0
   -0.7520    0.6840   -1.9840 H   0  0  0  0  0  0  0  0  0  0  0  0
    0.6500    0.6320   -0.8860 H   0  0  0  0  0  0  0  0  0  0  0  0
    2.9380    1.1660    3.7750 N   0  0  0  0  0  0  0  0  0  0  0  0
    1.6110    1.7220    3.8960 C   0  0  0  0  0  0  0  0  0  0  0  0
    1.1140    1.9700    5.0520 N   0  0  0  0  0  0  0  0  0  0  0  0
    0.8320    2.0040    2.7480 N   0  0  0  0  0  0  0  0  0  0  0  0
   -0.3360    2.8380    2.7510 C   0  0  0  0  0  0  0  0  0  0  0  0
   -1.4940    2.2850    3.4780 C   0  0  0  0  0  0  0  0  0  0  0  0
   -2.0730    1.0060    3.0990 C   0  0  0  0  0  0  0  0  0  0  0  0
   -2.6510    0.7750    1.7610 C   0  0  2  0  0  0  0  0  0  0  0  0
   -1.7520    0.9300    0.6370 N   0  0  0  0  0  0  0  0  0  0  0  0
   -3.9490    1.4140    1.5340 C   0  0  0  0  0  0  0  0  0  0  0  0
   -4.1790    2.0100    0.4630 O   0  0  0  0  0  0  0  0  0  0  0  0
   -4.9280    1.3640    2.5000 O   0  0  0  0  0  0  0  0  0  0  0  0
    3.6480    1.7500    3.2740 H   0  0  0  0  0  0  0  0  0  0  0  0
    3.2060    0.2520    4.1480 H   0  0  0  0  0  0  0  0  0  0  0  0
    1.6380    1.7850    5.9460 H   0  0  0  0  0  0  0  0  0  0  0  0
    1.1330    1.5750    1.8520 H   0  0  0  0  0  0  0  0  0  0  0  0
   -0.0150    3.7520    3.3800 H   0  0  0  0  0  0  0  0  0  0  0  0
   -0.6020    3.2940    1.8000 H   0  0  0  0  0  0  0  0  0  0  0  0
   -2.2790    3.1070    3.5000 H   0  0  0  0  0  0  0  0  0  0  0  0
   -1.2020    2.2210    4.5730 H   0  0  0  0  0  0  0  0  0  0  0  0
   -1.3370    0.1800    3.2900 H   0  0  0  0  0  0  0  0  0  0  0  0
   -2.8980    0.7690    3.8460 H   0  0  0  0  0  0  0  0  0  0  0  0
   -2.8900   -0.3500    1.7480 H   0  0  0  0  0  0  0  0  0  0  0  0
   -1.4880    1.8600    0.2560 H   0  0  0  0  0  0  0  0  0  0  0  0
  1  2  1  0  0  0  0
  1  9  1  0  0  0  0
  2  4  1  0  0  0  0
  3  2  2  0  0  0  0
  4 12  1  0  0  0  0
  5  4  1  0  0  0  0
  5  7  1  0  0  0  0
  5 13  1  1  0  0  0
  6  5  1  0  0  0  0
  7  8  2  0  0  0  0
 10  1  1  0  0  0  0
 11  4  1  0  0  0  0
 14  6  1  0  0  0  0
 15  6  1  0  0  0  0
 16 17  1  0  0  0  0
 16  7  1  0  0  0  0
 17 22  1  0  0  0  0
 17 18  1  0  0  0  0
 18 19  2  0  0  0  0
 18 31  1  0  0  0  0
 20 16  1  0  0  0  0
 21 17  1  0  0  0  0
 23 24  1  0  0  0  0
 23 36  1  0  0  0  0
 24 25  2  0  0  0  0
 25 37  1  0  0  0  0
 26 27  1  0  0  0  0
 26 24  1  0  0  0  0
 27 39  1  0  0  0  0
 27 28  1  0  0  0  0
 28 41  1  0  0  0  0
 28 42  1  0  0  0  0
 29 43  1  0  0  0  0
 29 28  1  0  0  0  0
 29 44  1  0  0  0  0
 30 45  1  6  0  0  0
 30 29  1  0  0  0  0
 31 30  1  0  0  0  0
 32 30  1  0  0  0  0
 32 34  1  0  0  0  0
 33 32  2  0  0  0  0
 35 23  1  0  0  0  0
 38 26  1  0  0  0  0
 40 27  1  0  0  0  0
 46 31  1  0  0  0  0
M  END
$$$$
