NGY.pdb
 OpenBabel07022418093D

 44 44  0  0  1  0  0  0  0  0999 V2000
    3.1340   -6.1380    0.6310 N   0  0  0  0  0  0  0  0  0  0  0  0
    3.0400   -4.7300    0.7140 C   0  0  0  0  0  0  0  0  0  0  0  0
    3.6810   -4.1220    1.5950 O   0  0  0  0  0  0  0  0  0  0  0  0
    2.1900   -3.9800   -0.2270 C   0  0  0  0  0  0  0  0  0  0  0  0
    1.2030   -3.1430    0.5850 C   0  0  2  0  0  0  0  0  0  0  0  0
    0.4030   -4.0590    1.3850 N   0  0  0  0  0  0  0  0  0  0  0  0
    0.3040   -2.3820   -0.3280 C   0  0  0  0  0  0  0  0  0  0  0  0
   -0.9220   -2.6510   -0.3340 O   0  0  0  0  0  0  0  0  0  0  0  0
    2.5080   -6.7700    1.2000 H   0  0  0  0  0  0  0  0  0  0  0  0
    3.8240   -6.5990    0.0080 H   0  0  0  0  0  0  0  0  0  0  0  0
    2.8610   -3.2320   -0.7460 H   0  0  0  0  0  0  0  0  0  0  0  0
    1.6880   -4.6310   -0.9640 H   0  0  0  0  0  0  0  0  0  0  0  0
    1.7890   -2.5060    1.2600 H   0  0  0  0  0  0  0  0  0  0  0  0
   -0.3790   -3.6000    1.8890 H   0  0  0  0  0  0  0  0  0  0  0  0
    0.1500   -4.9280    0.8780 H   0  0  0  0  0  0  0  0  0  0  0  0
    0.7780   -1.3680   -1.1930 N   0  0  0  0  0  0  0  0  0  0  0  0
   -0.0500   -0.6070   -2.0870 C   0  0  0  0  0  0  0  0  0  0  0  0
   -1.0310    0.1930   -1.3260 C   0  0  0  0  0  0  0  0  0  0  0  0
   -1.8930    0.8870   -1.9820 O   0  0  0  0  0  0  0  0  0  0  0  0
    1.8050   -1.1780   -1.1590 H   0  0  0  0  0  0  0  0  0  0  0  0
    0.6080    0.1280   -2.6380 H   0  0  0  0  0  0  0  0  0  0  0  0
   -0.5530   -1.2530   -2.8490 H   0  0  0  0  0  0  0  0  0  0  0  0
    2.9920    3.0200    4.0870 O   0  0  0  0  0  0  0  0  0  0  0  0
    1.8550    2.8790    3.2900 C   0  0  0  0  0  0  0  0  0  0  0  0
    0.6460    2.7750    3.8910 C   0  0  0  0  0  0  0  0  0  0  0  0
   -0.5050    2.6370    3.1600 C   0  0  0  0  0  0  0  0  0  0  0  0
   -0.4730    2.5980    1.7830 C   0  0  0  0  0  0  0  0  0  0  0  0
   -1.7480    2.4470    1.0570 C   0  0  0  0  0  0  0  0  0  0  0  0
   -2.0530    1.0140    0.8360 C   0  0  2  0  0  0  0  0  0  0  0  0
   -1.1020    0.2650    0.0790 N   0  0  0  0  0  0  0  0  0  0  0  0
   -3.4660    0.8380    0.3670 C   0  0  0  0  0  0  0  0  0  0  0  0
   -4.3430    1.5350    0.9160 O   0  0  0  0  0  0  0  0  0  0  0  0
    0.7470    2.7020    1.1660 C   0  0  0  0  0  0  0  0  0  0  0  0
    1.8990    2.8400    1.9050 C   0  0  0  0  0  0  0  0  0  0  0  0
   -3.8080   -0.0460   -0.6190 O   0  0  0  0  0  0  0  0  0  0  0  0
    3.8900    3.1110    3.6360 H   0  0  0  0  0  0  0  0  0  0  0  0
    0.5470    2.7990    4.9800 H   0  0  0  0  0  0  0  0  0  0  0  0
   -1.4640    2.5590    3.7000 H   0  0  0  0  0  0  0  0  0  0  0  0
   -1.7950    3.0710    0.1360 H   0  0  0  0  0  0  0  0  0  0  0  0
   -2.5520    2.8680    1.7060 H   0  0  0  0  0  0  0  0  0  0  0  0
   -2.0990    0.5190    1.8680 H   0  0  0  0  0  0  0  0  0  0  0  0
   -0.3660   -0.2630    0.6590 H   0  0  0  0  0  0  0  0  0  0  0  0
    0.7730    2.6720    0.0670 H   0  0  0  0  0  0  0  0  0  0  0  0
    2.8640    2.9260    1.4370 H   0  0  0  0  0  0  0  0  0  0  0  0
  1  2  1  0  0  0  0
  1  9  1  0  0  0  0
  2  3  2  0  0  0  0
  4  5  1  0  0  0  0
  4  2  1  0  0  0  0
  5 13  1  1  0  0  0
  5  6  1  0  0  0  0
  6 14  1  0  0  0  0
  7  5  1  0  0  0  0
  8  7  2  0  0  0  0
 10  1  1  0  0  0  0
 11  4  1  0  0  0  0
 12  4  1  0  0  0  0
 15  6  1  0  0  0  0
 16 20  1  0  0  0  0
 16  7  1  0  0  0  0
 17 18  1  0  0  0  0
 17 16  1  0  0  0  0
 18 30  1  0  0  0  0
 19 18  2  0  0  0  0
 21 17  1  0  0  0  0
 22 17  1  0  0  0  0
 24 25  1  0  0  0  0
 24 23  1  0  0  0  0
 25 37  1  0  0  0  0
 26 38  1  0  0  0  0
 26 25  2  0  0  0  0
 27 26  1  0  0  0  0
 28 40  1  0  0  0  0
 28 27  1  0  0  0  0
 29 28  1  0  0  0  0
 29 41  1  1  0  0  0
 30 42  1  0  0  0  0
 30 29  1  0  0  0  0
 31 29  1  0  0  0  0
 31 32  1  0  0  0  0
 33 27  2  0  0  0  0
 33 34  1  0  0  0  0
 34 24  2  0  0  0  0
 35 31  2  0  0  0  0
 36 23  1  0  0  0  0
 39 28  1  0  0  0  0
 43 33  1  0  0  0  0
 44 34  1  0  0  0  0
M  END
$$$$
