NHA.pdb
 OpenBabel07022418093D

 43 43  0  0  1  0  0  0  0  0999 V2000
   -1.9300   -4.9080    2.5110 N   0  0  0  0  0  0  0  0  0  0  0  0
   -1.5010   -3.6890    3.1050 C   0  0  0  0  0  0  0  0  0  0  0  0
   -1.6990   -3.4790    4.3270 O   0  0  0  0  0  0  0  0  0  0  0  0
   -0.8230   -2.6720    2.2740 C   0  0  0  0  0  0  0  0  0  0  0  0
   -1.5010   -1.3130    2.3490 C   0  0  2  0  0  0  0  0  0  0  0  0
   -2.8530   -1.4390    1.8690 N   0  0  0  0  0  0  0  0  0  0  0  0
   -0.6770   -0.3780    1.5360 C   0  0  0  0  0  0  0  0  0  0  0  0
    0.4960   -0.1460    1.8720 O   0  0  0  0  0  0  0  0  0  0  0  0
   -2.9420   -5.1950    2.6270 H   0  0  0  0  0  0  0  0  0  0  0  0
   -1.2500   -5.4980    1.9760 H   0  0  0  0  0  0  0  0  0  0  0  0
   -0.7420   -2.9540    1.2210 H   0  0  0  0  0  0  0  0  0  0  0  0
    0.2230   -2.5170    2.6860 H   0  0  0  0  0  0  0  0  0  0  0  0
   -1.5520   -1.0200    3.4220 H   0  0  0  0  0  0  0  0  0  0  0  0
   -2.8870   -1.7570    0.8580 H   0  0  0  0  0  0  0  0  0  0  0  0
   -3.3480   -0.5110    1.8810 H   0  0  0  0  0  0  0  0  0  0  0  0
   -1.2020    0.2690    0.3700 N   0  0  0  0  0  0  0  0  0  0  0  0
   -0.4870    1.1720   -0.4550 C   0  0  1  0  0  0  0  0  0  0  0  0
   -0.3650    2.5780    0.0220 C   0  0  0  0  0  0  0  0  0  0  0  0
    0.2960    2.7790    1.3080 C   0  0  0  0  0  0  0  0  0  0  0  0
    1.6320    2.9980    1.5710 C   0  0  0  0  0  0  0  0  0  0  0  0
    1.8050    3.1440    2.8970 N   0  0  0  0  0  0  0  0  0  0  0  0
    0.5960    3.0200    3.4580 C   0  0  0  0  0  0  0  0  0  0  0  0
   -0.3230    2.7980    2.5010 N   0  0  0  0  0  0  0  0  0  0  0  0
    0.7990    0.7030   -0.9980 C   0  0  0  0  0  0  0  0  0  0  0  0
    1.5040    1.6090   -1.5700 O   0  0  0  0  0  0  0  0  0  0  0  0
   -2.2070    0.0060    0.1610 H   0  0  0  0  0  0  0  0  0  0  0  0
   -1.1260    1.2710   -1.4190 H   0  0  0  0  0  0  0  0  0  0  0  0
   -1.3630    3.1170    0.0090 H   0  0  0  0  0  0  0  0  0  0  0  0
    0.2290    3.1300   -0.7660 H   0  0  0  0  0  0  0  0  0  0  0  0
    2.4420    3.0510    0.8630 H   0  0  0  0  0  0  0  0  0  0  0  0
    2.7110    3.3240    3.4100 H   0  0  0  0  0  0  0  0  0  0  0  0
    0.4110    3.0910    4.5160 H   0  0  0  0  0  0  0  0  0  0  0  0
    3.5360   -1.5580   -0.5080 C   0  0  0  0  0  0  0  0  0  0  0  0
    2.6000   -0.9640   -1.5210 C   0  0  2  0  0  0  0  0  0  0  0  0
    1.3010   -0.6160   -0.9440 N   0  0  0  0  0  0  0  0  0  0  0  0
    2.4170   -1.9110   -2.6570 C   0  0  0  0  0  0  0  0  0  0  0  0
    1.2700   -2.3220   -2.9820 O   0  0  0  0  0  0  0  0  0  0  0  0
    3.4680   -2.3980   -3.4250 O   0  0  0  0  0  0  0  0  0  0  0  0
    3.5530   -0.9610    0.4220 H   0  0  0  0  0  0  0  0  0  0  0  0
    4.5630   -1.5310   -0.9230 H   0  0  0  0  0  0  0  0  0  0  0  0
    3.2840   -2.6270   -0.3190 H   0  0  0  0  0  0  0  0  0  0  0  0
    3.0600   -0.0490   -1.9270 H   0  0  0  0  0  0  0  0  0  0  0  0
    0.7100   -1.3510   -0.4870 H   0  0  0  0  0  0  0  0  0  0  0  0
  1  9  1  0  0  0  0
  1  2  1  0  0  0  0
  2  3  2  0  0  0  0
  4  5  1  0  0  0  0
  4 12  1  0  0  0  0
  4  2  1  0  0  0  0
  5 13  1  1  0  0  0
  6 15  1  0  0  0  0
  6  5  1  0  0  0  0
  7  8  2  0  0  0  0
  7  5  1  0  0  0  0
 10  1  1  0  0  0  0
 11  4  1  0  0  0  0
 14  6  1  0  0  0  0
 16  7  1  0  0  0  0
 17 27  1  6  0  0  0
 17 18  1  0  0  0  0
 17 16  1  0  0  0  0
 18 19  1  0  0  0  0
 19 20  2  0  0  0  0
 19 23  1  0  0  0  0
 20 21  1  0  0  0  0
 21 31  1  0  0  0  0
 21 22  1  0  0  0  0
 22 32  1  0  0  0  0
 23 22  2  0  0  0  0
 24 35  1  0  0  0  0
 24 17  1  0  0  0  0
 25 24  2  0  0  0  0
 26 16  1  0  0  0  0
 28 18  1  0  0  0  0
 29 18  1  0  0  0  0
 30 20  1  0  0  0  0
 33 41  1  0  0  0  0
 33 39  1  0  0  0  0
 34 42  1  6  0  0  0
 34 35  1  0  0  0  0
 34 33  1  0  0  0  0
 35 43  1  0  0  0  0
 36 34  1  0  0  0  0
 37 36  1  0  0  0  0
 38 36  2  0  0  0  0
 40 33  1  0  0  0  0
M  END
$$$$
