NHC.pdb
 OpenBabel07022418093D

 44 44  0  0  1  0  0  0  0  0999 V2000
    1.7320   -4.4900    3.3410 N   0  0  0  0  0  0  0  0  0  0  0  0
    2.2530   -3.2290    3.6850 C   0  0  0  0  0  0  0  0  0  0  0  0
    2.8710   -3.0850    4.7620 O   0  0  0  0  0  0  0  0  0  0  0  0
    2.0750   -2.0680    2.7840 C   0  0  0  0  0  0  0  0  0  0  0  0
    1.3080   -2.4980    1.5720 C   0  0  2  0  0  0  0  0  0  0  0  0
    2.0170   -3.5300    0.8790 N   0  0  0  0  0  0  0  0  0  0  0  0
    1.1200   -1.3360    0.6310 C   0  0  0  0  0  0  0  0  0  0  0  0
    1.5570   -1.3800   -0.5400 O   0  0  0  0  0  0  0  0  0  0  0  0
    0.7440   -4.7910    3.5750 H   0  0  0  0  0  0  0  0  0  0  0  0
    2.2970   -5.2180    2.8260 H   0  0  0  0  0  0  0  0  0  0  0  0
    1.5080   -1.3000    3.3590 H   0  0  0  0  0  0  0  0  0  0  0  0
    3.0620   -1.6310    2.4840 H   0  0  0  0  0  0  0  0  0  0  0  0
    0.3280   -2.9020    1.9080 H   0  0  0  0  0  0  0  0  0  0  0  0
    2.3960   -3.1800   -0.0280 H   0  0  0  0  0  0  0  0  0  0  0  0
    1.4460   -4.4000    0.7310 H   0  0  0  0  0  0  0  0  0  0  0  0
    0.4470   -0.1670    1.0490 N   0  0  0  0  0  0  0  0  0  0  0  0
    0.2140    1.0050    0.2920 C   0  0  1  0  0  0  0  0  0  0  0  0
    1.2450    1.2930   -0.8130 C   0  0  0  0  0  0  0  0  0  0  0  0
    2.5920    1.5180   -0.2590 C   0  0  0  0  0  0  0  0  0  0  0  0
    3.0810    2.7820    0.1340 C   0  0  0  0  0  0  0  0  0  0  0  0
    4.3190    2.6760    0.5930 N   0  0  0  0  0  0  0  0  0  0  0  0
    4.6550    1.3730    0.5120 C   0  0  0  0  0  0  0  0  0  0  0  0
    3.6090    0.7030    0.0010 N   0  0  0  0  0  0  0  0  0  0  0  0
   -1.1470    1.2210   -0.1960 C   0  0  0  0  0  0  0  0  0  0  0  0
   -1.4300    2.2410   -0.8750 O   0  0  0  0  0  0  0  0  0  0  0  0
    0.0680   -0.1650    2.0500 H   0  0  0  0  0  0  0  0  0  0  0  0
    0.5210    1.8630    1.0280 H   0  0  0  0  0  0  0  0  0  0  0  0
    1.1920    0.5920   -1.6430 H   0  0  0  0  0  0  0  0  0  0  0  0
    0.8890    2.2800   -1.2440 H   0  0  0  0  0  0  0  0  0  0  0  0
    2.5080    3.6810    0.0590 H   0  0  0  0  0  0  0  0  0  0  0  0
    4.9430    3.4440    0.9580 H   0  0  0  0  0  0  0  0  0  0  0  0
    5.6150    0.9760    0.8170 H   0  0  0  0  0  0  0  0  0  0  0  0
   -2.2200    0.3180    0.0560 N   0  0  0  0  0  0  0  0  0  0  0  0
   -3.5710    0.5280   -0.4250 C   0  0  1  0  0  0  0  0  0  0  0  0
   -3.9190   -0.6830   -1.2830 C   0  0  0  0  0  0  0  0  0  0  0  0
   -3.8020   -2.1460   -0.2350 S   0  0  0  0  0  0  0  0  0  0  0  0
   -4.4930    0.5530    0.7320 C   0  0  0  0  0  0  0  0  0  0  0  0
   -5.7170    0.7240    0.5310 O   0  0  0  0  0  0  0  0  0  0  0  0
   -4.0500    0.3950    2.0330 O   0  0  0  0  0  0  0  0  0  0  0  0
   -2.0080   -0.5310    0.6160 H   0  0  0  0  0  0  0  0  0  0  0  0
   -3.6630    1.4660   -1.0060 H   0  0  0  0  0  0  0  0  0  0  0  0
   -4.9540   -0.5890   -1.6350 H   0  0  0  0  0  0  0  0  0  0  0  0
   -3.1750   -0.6950   -2.1090 H   0  0  0  0  0  0  0  0  0  0  0  0
   -2.9290   -3.1130   -0.7700 H   0  0  0  0  0  0  0  0  0  0  0  0
  1  9  1  0  0  0  0
  1  2  1  0  0  0  0
  2  3  2  0  0  0  0
  4 11  1  0  0  0  0
  4  2  1  0  0  0  0
  5 13  1  1  0  0  0
  5  4  1  0  0  0  0
  6  5  1  0  0  0  0
  7 16  1  0  0  0  0
  7  5  1  0  0  0  0
  8  7  2  0  0  0  0
 10  1  1  0  0  0  0
 12  4  1  0  0  0  0
 14  6  1  0  0  0  0
 15  6  1  0  0  0  0
 16 26  1  0  0  0  0
 17 27  1  1  0  0  0
 17 16  1  0  0  0  0
 18 19  1  0  0  0  0
 18 17  1  0  0  0  0
 19 23  1  0  0  0  0
 19 20  2  0  0  0  0
 20 21  1  0  0  0  0
 21 31  1  0  0  0  0
 22 21  1  0  0  0  0
 22 32  1  0  0  0  0
 23 22  2  0  0  0  0
 24 33  1  0  0  0  0
 24 17  1  0  0  0  0
 25 24  2  0  0  0  0
 28 18  1  0  0  0  0
 29 18  1  0  0  0  0
 30 20  1  0  0  0  0
 33 40  1  0  0  0  0
 34 41  1  6  0  0  0
 34 33  1  0  0  0  0
 34 37  1  0  0  0  0
 35 34  1  0  0  0  0
 35 36  1  0  0  0  0
 37 39  1  0  0  0  0
 38 37  2  0  0  0  0
 42 35  1  0  0  0  0
 43 35  1  0  0  0  0
 44 36  1  0  0  0  0
M  END
$$$$
