NHD.pdb
 OpenBabel07022418093D

 46 46  0  0  1  0  0  0  0  0999 V2000
    2.6130   -3.2930    3.7680 N   0  0  0  0  0  0  0  0  0  0  0  0
    3.4580   -3.0720    2.6820 C   0  0  0  0  0  0  0  0  0  0  0  0
    4.7110   -3.0360    2.9320 O   0  0  0  0  0  0  0  0  0  0  0  0
    3.0890   -2.8750    1.2710 C   0  0  0  0  0  0  0  0  0  0  0  0
    1.6290   -2.7600    0.9990 C   0  0  2  0  0  0  0  0  0  0  0  0
    1.4710   -2.5950   -0.4510 N   0  0  0  0  0  0  0  0  0  0  0  0
    1.0820   -1.5310    1.6740 C   0  0  0  0  0  0  0  0  0  0  0  0
    1.1040   -1.3400    2.9060 O   0  0  0  0  0  0  0  0  0  0  0  0
    2.8150   -2.8440    4.6950 H   0  0  0  0  0  0  0  0  0  0  0  0
    1.7530   -3.8990    3.7380 H   0  0  0  0  0  0  0  0  0  0  0  0
    3.4450   -3.7890    0.7070 H   0  0  0  0  0  0  0  0  0  0  0  0
    3.6270   -1.9910    0.8230 H   0  0  0  0  0  0  0  0  0  0  0  0
    1.0980   -3.6740    1.3140 H   0  0  0  0  0  0  0  0  0  0  0  0
    1.9690   -3.4030   -0.8880 H   0  0  0  0  0  0  0  0  0  0  0  0
    0.4810   -2.6570   -0.7170 H   0  0  0  0  0  0  0  0  0  0  0  0
    0.4880   -0.4850    0.8870 N   0  0  0  0  0  0  0  0  0  0  0  0
   -0.0500    0.7120    1.4790 C   0  0  1  0  0  0  0  0  0  0  0  0
    0.4220    1.9760    0.8530 C   0  0  0  0  0  0  0  0  0  0  0  0
    1.8840    2.1510    0.9180 C   0  0  0  0  0  0  0  0  0  0  0  0
    2.6110    3.2110    0.4270 C   0  0  0  0  0  0  0  0  0  0  0  0
    3.9280    3.0050    0.6800 N   0  0  0  0  0  0  0  0  0  0  0  0
    4.0010    1.8230    1.3230 C   0  0  0  0  0  0  0  0  0  0  0  0
    2.7650    1.3060    1.4680 N   0  0  0  0  0  0  0  0  0  0  0  0
   -1.5440    0.6470    1.2770 C   0  0  0  0  0  0  0  0  0  0  0  0
   -2.2790    1.5720    1.7060 O   0  0  0  0  0  0  0  0  0  0  0  0
    0.4500   -0.6050   -0.1420 H   0  0  0  0  0  0  0  0  0  0  0  0
    0.1130    0.7480    2.5790 H   0  0  0  0  0  0  0  0  0  0  0  0
   -0.1420    2.8160    1.2860 H   0  0  0  0  0  0  0  0  0  0  0  0
    0.1350    1.9390   -0.2340 H   0  0  0  0  0  0  0  0  0  0  0  0
    2.2140    4.0770   -0.0830 H   0  0  0  0  0  0  0  0  0  0  0  0
    4.7380    3.6160    0.4380 H   0  0  0  0  0  0  0  0  0  0  0  0
    4.9340    1.3820    1.6610 H   0  0  0  0  0  0  0  0  0  0  0  0
   -2.1660   -0.4360    0.6110 N   0  0  0  0  0  0  0  0  0  0  0  0
   -3.6030   -0.4240    0.4600 C   0  0  1  0  0  0  0  0  0  0  0  0
   -4.0410   -0.5440   -0.9700 C   0  0  0  0  0  0  0  0  0  0  0  0
   -3.5370    0.5540   -1.8180 C   0  0  0  0  0  0  0  0  0  0  0  0
   -2.8280    1.4470   -1.3280 O   0  0  0  0  0  0  0  0  0  0  0  0
   -4.1510   -1.5270    1.2990 C   0  0  0  0  0  0  0  0  0  0  0  0
   -5.3860   -1.7410    1.3510 O   0  0  0  0  0  0  0  0  0  0  0  0
   -3.8680    0.5730   -3.1750 O   0  0  0  0  0  0  0  0  0  0  0  0
   -3.3280   -2.3580    2.0520 O   0  0  0  0  0  0  0  0  0  0  0  0
   -1.6190   -1.2220    0.2380 H   0  0  0  0  0  0  0  0  0  0  0  0
   -4.0450    0.5050    0.8770 H   0  0  0  0  0  0  0  0  0  0  0  0
   -5.1470   -0.5330   -1.0450 H   0  0  0  0  0  0  0  0  0  0  0  0
   -3.7330   -1.5300   -1.4190 H   0  0  0  0  0  0  0  0  0  0  0  0
   -3.2670    1.0700   -3.8110 H   0  0  0  0  0  0  0  0  0  0  0  0
  1  9  1  0  0  0  0
  2  3  2  0  0  0  0
  2  1  1  0  0  0  0
  4  2  1  0  0  0  0
  5  4  1  0  0  0  0
  5 13  1  1  0  0  0
  5  7  1  0  0  0  0
  6  5  1  0  0  0  0
  7  8  2  0  0  0  0
 10  1  1  0  0  0  0
 11  4  1  0  0  0  0
 12  4  1  0  0  0  0
 14  6  1  0  0  0  0
 15  6  1  0  0  0  0
 16 17  1  0  0  0  0
 16  7  1  0  0  0  0
 17 27  1  1  0  0  0
 18 19  1  0  0  0  0
 18 28  1  0  0  0  0
 18 17  1  0  0  0  0
 19 23  1  0  0  0  0
 20 21  1  0  0  0  0
 20 19  2  0  0  0  0
 21 22  1  0  0  0  0
 22 23  2  0  0  0  0
 22 32  1  0  0  0  0
 24 17  1  0  0  0  0
 24 25  2  0  0  0  0
 26 16  1  0  0  0  0
 29 18  1  0  0  0  0
 30 20  1  0  0  0  0
 31 21  1  0  0  0  0
 33 24  1  0  0  0  0
 34 33  1  0  0  0  0
 34 43  1  1  0  0  0
 34 38  1  0  0  0  0
 35 34  1  0  0  0  0
 36 37  2  0  0  0  0
 36 35  1  0  0  0  0
 38 39  2  0  0  0  0
 38 41  1  0  0  0  0
 40 36  1  0  0  0  0
 42 33  1  0  0  0  0
 44 35  1  0  0  0  0
 45 35  1  0  0  0  0
 46 40  1  0  0  0  0
M  END
$$$$
