NHE.pdb
 OpenBabel07022418093D

 49 49  0  0  1  0  0  0  0  0999 V2000
   -0.0520   -3.5400    3.6610 N   0  0  0  0  0  0  0  0  0  0  0  0
    0.9400   -2.6290    3.2070 C   0  0  0  0  0  0  0  0  0  0  0  0
    1.2120   -1.6690    3.9820 O   0  0  0  0  0  0  0  0  0  0  0  0
    1.6190   -2.8050    1.8800 C   0  0  0  0  0  0  0  0  0  0  0  0
    2.6340   -1.6980    1.6780 C   0  0  2  0  0  0  0  0  0  0  0  0
    3.5960   -1.7910    2.7560 N   0  0  0  0  0  0  0  0  0  0  0  0
    2.0010   -0.3550    1.6190 C   0  0  0  0  0  0  0  0  0  0  0  0
    2.2580    0.5470    2.4570 O   0  0  0  0  0  0  0  0  0  0  0  0
   -0.1720   -3.7820    4.6720 H   0  0  0  0  0  0  0  0  0  0  0  0
   -0.6700   -3.9680    2.9180 H   0  0  0  0  0  0  0  0  0  0  0  0
    0.8850   -2.8730    1.0710 H   0  0  0  0  0  0  0  0  0  0  0  0
    2.1970   -3.7520    1.9190 H   0  0  0  0  0  0  0  0  0  0  0  0
    3.1970   -1.8470    0.7340 H   0  0  0  0  0  0  0  0  0  0  0  0
    3.4240   -1.0910    3.5120 H   0  0  0  0  0  0  0  0  0  0  0  0
    3.5820   -2.7480    3.1220 H   0  0  0  0  0  0  0  0  0  0  0  0
    1.0690   -0.0540    0.5890 N   0  0  0  0  0  0  0  0  0  0  0  0
    0.4160    1.2170    0.4610 C   0  0  1  0  0  0  0  0  0  0  0  0
    0.7140    1.9170   -0.8310 C   0  0  0  0  0  0  0  0  0  0  0  0
    2.1580    2.1920   -1.0140 C   0  0  0  0  0  0  0  0  0  0  0  0
    2.6680    2.8260   -2.1230 C   0  0  0  0  0  0  0  0  0  0  0  0
    4.0050    2.9370   -2.0100 N   0  0  0  0  0  0  0  0  0  0  0  0
    4.3110    2.3690   -0.8270 C   0  0  0  0  0  0  0  0  0  0  0  0
    3.1960    1.9180   -0.2250 N   0  0  0  0  0  0  0  0  0  0  0  0
   -1.0480    1.0080    0.5530 C   0  0  0  0  0  0  0  0  0  0  0  0
   -1.8380    2.0160    0.4740 O   0  0  0  0  0  0  0  0  0  0  0  0
    0.8340   -0.7810   -0.1210 H   0  0  0  0  0  0  0  0  0  0  0  0
    0.7300    1.8670    1.3050 H   0  0  0  0  0  0  0  0  0  0  0  0
    0.2730    1.3430   -1.6650 H   0  0  0  0  0  0  0  0  0  0  0  0
    0.1940    2.8960   -0.8060 H   0  0  0  0  0  0  0  0  0  0  0  0
    2.1360    3.2020   -2.9850 H   0  0  0  0  0  0  0  0  0  0  0  0
    4.6930    3.3680   -2.6790 H   0  0  0  0  0  0  0  0  0  0  0  0
    5.3400    2.3080   -0.4560 H   0  0  0  0  0  0  0  0  0  0  0  0
   -1.6420   -0.2640    0.7270 N   0  0  0  0  0  0  0  0  0  0  0  0
   -3.0590   -0.4070    0.8090 C   0  0  1  0  0  0  0  0  0  0  0  0
   -3.7910   -0.8710   -0.3930 C   0  0  0  0  0  0  0  0  0  0  0  0
   -3.4450   -2.1770   -0.9820 C   0  0  0  0  0  0  0  0  0  0  0  0
   -2.1040   -2.2370   -1.5510 C   0  0  0  0  0  0  0  0  0  0  0  0
   -1.3330   -1.2740   -1.7340 O   0  0  0  0  0  0  0  0  0  0  0  0
   -3.4180   -1.1920    2.0240 C   0  0  0  0  0  0  0  0  0  0  0  0
   -4.6180   -1.4380    2.2830 O   0  0  0  0  0  0  0  0  0  0  0  0
   -1.6150   -3.4890   -1.9380 O   0  0  0  0  0  0  0  0  0  0  0  0
   -2.4410   -1.6570    2.8780 O   0  0  0  0  0  0  0  0  0  0  0  0
   -1.0300   -1.0930    0.8240 H   0  0  0  0  0  0  0  0  0  0  0  0
   -3.4890    0.6450    1.0440 H   0  0  0  0  0  0  0  0  0  0  0  0
   -3.6740   -0.0690   -1.1800 H   0  0  0  0  0  0  0  0  0  0  0  0
   -4.8920   -0.8490   -0.1060 H   0  0  0  0  0  0  0  0  0  0  0  0
   -3.6490   -3.0270   -0.2730 H   0  0  0  0  0  0  0  0  0  0  0  0
   -4.1680   -2.3550   -1.8400 H   0  0  0  0  0  0  0  0  0  0  0  0
   -0.6100   -3.6070   -2.1160 H   0  0  0  0  0  0  0  0  0  0  0  0
  1  9  1  0  0  0  0
  2  1  1  0  0  0  0
  2  3  2  0  0  0  0
  4 12  1  0  0  0  0
  4  2  1  0  0  0  0
  5 13  1  6  0  0  0
  5  4  1  0  0  0  0
  5  6  1  0  0  0  0
  6 15  1  0  0  0  0
  6 14  1  0  0  0  0
  7  5  1  0  0  0  0
  7  8  2  0  0  0  0
 10  1  1  0  0  0  0
 11  4  1  0  0  0  0
 16  7  1  0  0  0  0
 17 24  1  0  0  0  0
 17 16  1  0  0  0  0
 17 27  1  1  0  0  0
 18 29  1  0  0  0  0
 18 17  1  0  0  0  0
 19 18  1  0  0  0  0
 19 23  1  0  0  0  0
 20 21  1  0  0  0  0
 20 19  2  0  0  0  0
 21 22  1  0  0  0  0
 22 32  1  0  0  0  0
 22 23  2  0  0  0  0
 24 33  1  0  0  0  0
 25 24  2  0  0  0  0
 26 16  1  0  0  0  0
 28 18  1  0  0  0  0
 30 20  1  0  0  0  0
 31 21  1  0  0  0  0
 33 34  1  0  0  0  0
 33 43  1  0  0  0  0
 34 44  1  1  0  0  0
 34 39  1  0  0  0  0
 35 46  1  0  0  0  0
 35 34  1  0  0  0  0
 36 35  1  0  0  0  0
 36 47  1  0  0  0  0
 37 36  1  0  0  0  0
 38 37  2  0  0  0  0
 39 40  2  0  0  0  0
 39 42  1  0  0  0  0
 41 37  1  0  0  0  0
 45 35  1  0  0  0  0
 48 36  1  0  0  0  0
 49 41  1  0  0  0  0
M  END
$$$$
