NHM.pdb
 OpenBabel07022418093D

 50 50  0  0  1  0  0  0  0  0999 V2000
   -2.0080    3.6720    2.9990 N   0  0  0  0  0  0  0  0  0  0  0  0
   -2.4450    2.3390    3.1250 C   0  0  0  0  0  0  0  0  0  0  0  0
   -3.5070    2.0710    3.7020 O   0  0  0  0  0  0  0  0  0  0  0  0
   -1.6320    1.2450    2.5650 C   0  0  0  0  0  0  0  0  0  0  0  0
   -0.3760    1.7090    1.8710 C   0  0  2  0  0  0  0  0  0  0  0  0
   -0.6990    2.5530    0.7950 N   0  0  0  0  0  0  0  0  0  0  0  0
    0.4120    0.4840    1.5500 C   0  0  0  0  0  0  0  0  0  0  0  0
    0.5900   -0.2770    2.5310 O   0  0  0  0  0  0  0  0  0  0  0  0
   -1.0170    3.9330    3.1580 H   0  0  0  0  0  0  0  0  0  0  0  0
   -2.6870    4.4320    2.7420 H   0  0  0  0  0  0  0  0  0  0  0  0
   -1.2740    0.5980    3.4180 H   0  0  0  0  0  0  0  0  0  0  0  0
   -2.2340    0.5670    1.9180 H   0  0  0  0  0  0  0  0  0  0  0  0
    0.2030    2.2980    2.6360 H   0  0  0  0  0  0  0  0  0  0  0  0
   -0.0920    3.3690    0.6460 H   0  0  0  0  0  0  0  0  0  0  0  0
   -1.0350    2.1000   -0.0680 H   0  0  0  0  0  0  0  0  0  0  0  0
    0.9200    0.1790    0.3050 N   0  0  0  0  0  0  0  0  0  0  0  0
    1.6980   -0.9410   -0.0530 C   0  0  1  0  0  0  0  0  0  0  0  0
    2.5140   -1.5170    1.1020 C   0  0  0  0  0  0  0  0  0  0  0  0
    3.4810   -0.4750    1.5390 C   0  0  0  0  0  0  0  0  0  0  0  0
    4.7850   -0.3440    1.0000 C   0  0  0  0  0  0  0  0  0  0  0  0
    5.4230    0.6740    1.5870 N   0  0  0  0  0  0  0  0  0  0  0  0
    4.5760    1.1950    2.4790 C   0  0  0  0  0  0  0  0  0  0  0  0
    3.4280    0.5040    2.4400 N   0  0  0  0  0  0  0  0  0  0  0  0
    1.0040   -1.9530   -0.8490 C   0  0  0  0  0  0  0  0  0  0  0  0
    1.6700   -2.9660   -1.2880 O   0  0  0  0  0  0  0  0  0  0  0  0
    0.6970    0.8730   -0.4690 H   0  0  0  0  0  0  0  0  0  0  0  0
    2.5690   -0.5600   -0.7470 H   0  0  0  0  0  0  0  0  0  0  0  0
    1.9340   -1.9290    1.9120 H   0  0  0  0  0  0  0  0  0  0  0  0
    3.1320   -2.3830    0.7020 H   0  0  0  0  0  0  0  0  0  0  0  0
    5.1590   -0.9990    0.2250 H   0  0  0  0  0  0  0  0  0  0  0  0
    6.3890    0.9860    1.3800 H   0  0  0  0  0  0  0  0  0  0  0  0
    4.8150    2.0560    3.1260 H   0  0  0  0  0  0  0  0  0  0  0  0
   -2.2090   -2.3440    2.1570 C   0  0  0  0  0  0  0  0  0  0  0  0
   -1.0220   -3.4270    1.3460 S   0  0  0  0  0  0  0  0  0  0  0  0
   -1.7080   -4.3340   -0.0260 C   0  0  0  0  0  0  0  0  0  0  0  0
   -2.1090   -3.5610   -1.2160 C   0  0  0  0  0  0  0  0  0  0  0  0
   -1.0410   -2.8090   -1.9330 C   0  0  2  0  0  0  0  0  0  0  0  0
   -0.3700   -1.8160   -1.1280 N   0  0  0  0  0  0  0  0  0  0  0  0
   -1.6770   -2.1140   -3.0740 C   0  0  0  0  0  0  0  0  0  0  0  0
   -1.5640   -0.8790   -3.1880 O   0  0  0  0  0  0  0  0  0  0  0  0
   -2.3900   -2.8240   -4.0070 O   0  0  0  0  0  0  0  0  0  0  0  0
   -3.0650   -2.8790    2.6100 H   0  0  0  0  0  0  0  0  0  0  0  0
   -2.6290   -1.6900    1.3620 H   0  0  0  0  0  0  0  0  0  0  0  0
   -1.6980   -1.7010    2.8860 H   0  0  0  0  0  0  0  0  0  0  0  0
   -2.5460   -4.9550    0.3570 H   0  0  0  0  0  0  0  0  0  0  0  0
   -0.9350   -5.0890   -0.3530 H   0  0  0  0  0  0  0  0  0  0  0  0
   -2.5130   -4.3120   -1.9640 H   0  0  0  0  0  0  0  0  0  0  0  0
   -2.9580   -2.8630   -1.0650 H   0  0  0  0  0  0  0  0  0  0  0  0
   -0.2780   -3.5480   -2.3250 H   0  0  0  0  0  0  0  0  0  0  0  0
   -0.8920   -1.0120   -0.7610 H   0  0  0  0  0  0  0  0  0  0  0  0
  1  2  1  0  0  0  0
  1  9  1  0  0  0  0
  2  3  2  0  0  0  0
  4  2  1  0  0  0  0
  4 11  1  0  0  0  0
  5  4  1  0  0  0  0
  5 13  1  1  0  0  0
  6  5  1  0  0  0  0
  7  5  1  0  0  0  0
  7  8  2  0  0  0  0
 10  1  1  0  0  0  0
 12  4  1  0  0  0  0
 14  6  1  0  0  0  0
 15  6  1  0  0  0  0
 16  7  1  0  0  0  0
 17 27  1  6  0  0  0
 17 16  1  0  0  0  0
 17 18  1  0  0  0  0
 18 19  1  0  0  0  0
 18 28  1  0  0  0  0
 19 23  1  0  0  0  0
 20 19  2  0  0  0  0
 20 21  1  0  0  0  0
 21 22  1  0  0  0  0
 22 32  1  0  0  0  0
 23 22  2  0  0  0  0
 24 17  1  0  0  0  0
 25 24  2  0  0  0  0
 26 16  1  0  0  0  0
 29 18  1  0  0  0  0
 30 20  1  0  0  0  0
 31 21  1  0  0  0  0
 33 42  1  0  0  0  0
 33 44  1  0  0  0  0
 34 33  1  0  0  0  0
 35 45  1  0  0  0  0
 35 34  1  0  0  0  0
 36 48  1  0  0  0  0
 36 35  1  0  0  0  0
 37 49  1  6  0  0  0
 37 36  1  0  0  0  0
 37 38  1  0  0  0  0
 38 24  1  0  0  0  0
 38 50  1  0  0  0  0
 39 37  1  0  0  0  0
 40 39  1  0  0  0  0
 41 39  2  0  0  0  0
 43 33  1  0  0  0  0
 46 35  1  0  0  0  0
 47 36  1  0  0  0  0
M  END
$$$$
