NHP.pdb
 OpenBabel07022418093D

 47 48  0  0  1  0  0  0  0  0999 V2000
    3.2220    0.7240    4.4110 N   0  0  0  0  0  0  0  0  0  0  0  0
    2.1320    0.0190    3.7760 C   0  0  0  0  0  0  0  0  0  0  0  0
    1.1720    0.7240    3.4470 O   0  0  0  0  0  0  0  0  0  0  0  0
    2.1670   -1.4170    3.5420 C   0  0  0  0  0  0  0  0  0  0  0  0
    1.0240   -2.0180    2.8010 C   0  0  2  0  0  0  0  0  0  0  0  0
    1.2410   -3.4500    2.7030 N   0  0  0  0  0  0  0  0  0  0  0  0
    1.0240   -1.5460    1.3610 C   0  0  0  0  0  0  0  0  0  0  0  0
    1.8550   -2.1520    0.6260 O   0  0  0  0  0  0  0  0  0  0  0  0
    3.7550    0.2880    5.1920 H   0  0  0  0  0  0  0  0  0  0  0  0
    3.4980    1.6870    4.1010 H   0  0  0  0  0  0  0  0  0  0  0  0
    3.1440   -1.6130    2.9870 H   0  0  0  0  0  0  0  0  0  0  0  0
    2.3290   -1.9060    4.5380 H   0  0  0  0  0  0  0  0  0  0  0  0
    0.0840   -1.8510    3.3150 H   0  0  0  0  0  0  0  0  0  0  0  0
    0.4250   -3.9960    2.4900 H   0  0  0  0  0  0  0  0  0  0  0  0
    1.9170   -3.8190    3.3760 H   0  0  0  0  0  0  0  0  0  0  0  0
    0.1770   -0.5360    0.8830 N   0  0  0  0  0  0  0  0  0  0  0  0
    0.1180   -0.0110   -0.4330 C   0  0  1  0  0  0  0  0  0  0  0  0
    1.2210   -0.5030   -1.3790 C   0  0  0  0  0  0  0  0  0  0  0  0
    2.5350   -0.0600   -0.8840 C   0  0  0  0  0  0  0  0  0  0  0  0
    2.7670    0.7490    0.1970 C   0  0  0  0  0  0  0  0  0  0  0  0
    4.0880    0.9580    0.2920 N   0  0  0  0  0  0  0  0  0  0  0  0
    4.6720    0.3010   -0.7010 C   0  0  0  0  0  0  0  0  0  0  0  0
    3.7510   -0.3310   -1.4380 N   0  0  0  0  0  0  0  0  0  0  0  0
   -1.1560    0.0430   -1.1130 C   0  0  0  0  0  0  0  0  0  0  0  0
   -1.1910    0.6110   -2.2430 O   0  0  0  0  0  0  0  0  0  0  0  0
   -0.4890   -0.1480    1.6440 H   0  0  0  0  0  0  0  0  0  0  0  0
    0.4400    1.1150   -0.2660 H   0  0  0  0  0  0  0  0  0  0  0  0
    1.0510   -0.0520   -2.3970 H   0  0  0  0  0  0  0  0  0  0  0  0
    1.1830   -1.6000   -1.4380 H   0  0  0  0  0  0  0  0  0  0  0  0
    2.0440    1.1820    0.9030 H   0  0  0  0  0  0  0  0  0  0  0  0
    4.5300    1.5530    1.0480 H   0  0  0  0  0  0  0  0  0  0  0  0
    5.7600    0.3020   -0.8600 H   0  0  0  0  0  0  0  0  0  0  0  0
   -2.3940   -0.4900   -0.6260 N   0  0  0  0  0  0  0  0  0  0  0  0
   -2.6000   -1.1980    0.6040 C   0  0  0  0  0  0  0  0  0  0  0  0
   -3.8550   -2.0360    0.3850 C   0  0  0  0  0  0  0  0  0  0  0  0
   -4.6790   -1.0560   -0.4620 C   0  0  0  0  0  0  0  0  0  0  0  0
   -3.6680   -0.3820   -1.3240 C   0  0  1  0  0  0  0  0  0  0  0  0
   -4.0480    1.0190   -1.5610 C   0  0  0  0  0  0  0  0  0  0  0  0
   -5.1180    1.2720   -2.1470 O   0  0  0  0  0  0  0  0  0  0  0  0
   -3.2430    2.0530   -1.1460 O   0  0  0  0  0  0  0  0  0  0  0  0
   -1.7470   -1.9090    0.7350 H   0  0  0  0  0  0  0  0  0  0  0  0
   -2.7860   -0.5540    1.4860 H   0  0  0  0  0  0  0  0  0  0  0  0
   -3.5560   -2.9090   -0.2130 H   0  0  0  0  0  0  0  0  0  0  0  0
   -4.3130   -2.2710    1.3410 H   0  0  0  0  0  0  0  0  0  0  0  0
   -5.2010   -0.3290    0.1870 H   0  0  0  0  0  0  0  0  0  0  0  0
   -5.3920   -1.6780   -1.0420 H   0  0  0  0  0  0  0  0  0  0  0  0
   -3.5260   -0.9290   -2.3060 H   0  0  0  0  0  0  0  0  0  0  0  0
  1  9  1  0  0  0  0
  2  1  1  0  0  0  0
  3  2  2  0  0  0  0
  4  2  1  0  0  0  0
  4 12  1  0  0  0  0
  5 13  1  1  0  0  0
  5  4  1  0  0  0  0
  6  5  1  0  0  0  0
  6 15  1  0  0  0  0
  7  5  1  0  0  0  0
  8  7  2  0  0  0  0
 10  1  1  0  0  0  0
 11  4  1  0  0  0  0
 14  6  1  0  0  0  0
 16  7  1  0  0  0  0
 16 26  1  0  0  0  0
 17 27  1  1  0  0  0
 17 16  1  0  0  0  0
 18 19  1  0  0  0  0
 18 17  1  0  0  0  0
 19 20  2  0  0  0  0
 20 21  1  0  0  0  0
 20 30  1  0  0  0  0
 21 31  1  0  0  0  0
 22 21  1  0  0  0  0
 23 19  1  0  0  0  0
 23 22  2  0  0  0  0
 24 33  1  0  0  0  0
 24 17  1  0  0  0  0
 25 24  2  0  0  0  0
 28 18  1  0  0  0  0
 29 18  1  0  0  0  0
 32 22  1  0  0  0  0
 33 34  1  0  0  0  0
 34 41  1  0  0  0  0
 34 42  1  0  0  0  0
 35 34  1  0  0  0  0
 35 44  1  0  0  0  0
 36 45  1  0  0  0  0
 36 35  1  0  0  0  0
 37 47  1  6  0  0  0
 37 33  1  0  0  0  0
 37 36  1  0  0  0  0
 38 37  1  0  0  0  0
 38 40  1  0  0  0  0
 39 38  2  0  0  0  0
 43 35  1  0  0  0  0
 46 36  1  0  0  0  0
M  END
$$$$
