NHS.pdb
 OpenBabel07022418093D

 44 44  0  0  1  0  0  0  0  0999 V2000
    1.5890   -5.9440    0.1600 N   0  0  0  0  0  0  0  0  0  0  0  0
    2.8640   -5.3440    0.2350 C   0  0  0  0  0  0  0  0  0  0  0  0
    3.8800   -6.0540    0.0770 O   0  0  0  0  0  0  0  0  0  0  0  0
    2.9810   -3.8990    0.4970 C   0  0  0  0  0  0  0  0  0  0  0  0
    1.6220   -3.3020    0.6440 C   0  0  2  0  0  0  0  0  0  0  0  0
    0.8670   -3.4980   -0.5520 N   0  0  0  0  0  0  0  0  0  0  0  0
    1.6540   -1.8900    1.0910 C   0  0  0  0  0  0  0  0  0  0  0  0
    2.2830   -1.5850    2.1290 O   0  0  0  0  0  0  0  0  0  0  0  0
    1.0890   -6.3450    0.9870 H   0  0  0  0  0  0  0  0  0  0  0  0
    1.0790   -6.0140   -0.7510 H   0  0  0  0  0  0  0  0  0  0  0  0
    3.6110   -3.7270    1.4030 H   0  0  0  0  0  0  0  0  0  0  0  0
    3.5080   -3.4470   -0.3740 H   0  0  0  0  0  0  0  0  0  0  0  0
    1.0990   -3.8750    1.4610 H   0  0  0  0  0  0  0  0  0  0  0  0
    1.2300   -2.8630   -1.2840 H   0  0  0  0  0  0  0  0  0  0  0  0
   -0.1520   -3.3260   -0.4100 H   0  0  0  0  0  0  0  0  0  0  0  0
    1.0120   -0.8330    0.4220 N   0  0  0  0  0  0  0  0  0  0  0  0
    1.0340    0.5530    0.8460 C   0  0  1  0  0  0  0  0  0  0  0  0
    1.6460    1.4810   -0.1050 C   0  0  0  0  0  0  0  0  0  0  0  0
    1.6250    2.8650    0.4130 C   0  0  0  0  0  0  0  0  0  0  0  0
    0.7190    3.8860    0.2490 C   0  0  0  0  0  0  0  0  0  0  0  0
    1.1340    4.9870    0.8910 N   0  0  0  0  0  0  0  0  0  0  0  0
    2.3040    4.6970    1.4750 C   0  0  0  0  0  0  0  0  0  0  0  0
    2.6050    3.4190    1.1890 N   0  0  0  0  0  0  0  0  0  0  0  0
   -0.3290    0.9140    1.2540 C   0  0  0  0  0  0  0  0  0  0  0  0
   -0.5820    2.0410    1.7210 O   0  0  0  0  0  0  0  0  0  0  0  0
    0.4760   -1.0330   -0.4460 H   0  0  0  0  0  0  0  0  0  0  0  0
    1.6570    0.5600    1.7900 H   0  0  0  0  0  0  0  0  0  0  0  0
    1.1310    1.4910   -1.0990 H   0  0  0  0  0  0  0  0  0  0  0  0
    2.7380    1.2300   -0.2430 H   0  0  0  0  0  0  0  0  0  0  0  0
   -0.1870    3.8170   -0.3130 H   0  0  0  0  0  0  0  0  0  0  0  0
    0.6630    5.9350    0.9560 H   0  0  0  0  0  0  0  0  0  0  0  0
    2.9100    5.3820    2.0790 H   0  0  0  0  0  0  0  0  0  0  0  0
   -3.2040    1.1280   -0.6370 O   0  0  0  0  0  0  0  0  0  0  0  0
   -3.6960    0.2750    0.3450 C   0  0  0  0  0  0  0  0  0  0  0  0
   -2.7780    0.3970    1.5540 C   0  0  2  0  0  0  0  0  0  0  0  0
   -1.4390    0.0070    1.1410 N   0  0  0  0  0  0  0  0  0  0  0  0
   -3.3010   -0.5460    2.5760 C   0  0  0  0  0  0  0  0  0  0  0  0
   -4.4440   -0.3510    3.0370 O   0  0  0  0  0  0  0  0  0  0  0  0
   -2.5690   -1.6170    3.0240 O   0  0  0  0  0  0  0  0  0  0  0  0
   -2.2410    0.9310   -0.7360 H   0  0  0  0  0  0  0  0  0  0  0  0
   -4.7240    0.5940    0.5920 H   0  0  0  0  0  0  0  0  0  0  0  0
   -3.6620   -0.7480   -0.0760 H   0  0  0  0  0  0  0  0  0  0  0  0
   -2.7240    1.4220    1.9220 H   0  0  0  0  0  0  0  0  0  0  0  0
   -1.2940   -0.9520    0.7570 H   0  0  0  0  0  0  0  0  0  0  0  0
  1  2  1  0  0  0  0
  1  9  1  0  0  0  0
  2  4  1  0  0  0  0
  3  2  2  0  0  0  0
  4  5  1  0  0  0  0
  4 11  1  0  0  0  0
  5  7  1  0  0  0  0
  5 13  1  1  0  0  0
  6 15  1  0  0  0  0
  6  5  1  0  0  0  0
  7  8  2  0  0  0  0
 10  1  1  0  0  0  0
 12  4  1  0  0  0  0
 14  6  1  0  0  0  0
 16 17  1  0  0  0  0
 16  7  1  0  0  0  0
 17 24  1  0  0  0  0
 17 27  1  1  0  0  0
 18 19  1  0  0  0  0
 18 17  1  0  0  0  0
 19 23  1  0  0  0  0
 20 19  2  0  0  0  0
 20 21  1  0  0  0  0
 21 31  1  0  0  0  0
 21 22  1  0  0  0  0
 22 32  1  0  0  0  0
 23 22  2  0  0  0  0
 24 25  2  0  0  0  0
 26 16  1  0  0  0  0
 28 18  1  0  0  0  0
 29 18  1  0  0  0  0
 30 20  1  0  0  0  0
 33 34  1  0  0  0  0
 34 41  1  0  0  0  0
 34 35  1  0  0  0  0
 35 43  1  1  0  0  0
 35 37  1  0  0  0  0
 36 24  1  0  0  0  0
 36 35  1  0  0  0  0
 37 39  2  0  0  0  0
 37 38  1  0  0  0  0
 40 33  1  0  0  0  0
 42 34  1  0  0  0  0
 44 36  1  0  0  0  0
M  END
$$$$
