NIC.pdb
 OpenBabel07022418103D

 46 45  0  0  1  0  0  0  0  0999 V2000
    5.0050   -3.5730    2.5260 N   0  0  0  0  0  0  0  0  0  0  0  0
    4.3490   -3.6020    1.2680 C   0  0  0  0  0  0  0  0  0  0  0  0
    4.9270   -4.2170    0.3340 O   0  0  0  0  0  0  0  0  0  0  0  0
    3.0300   -2.9370    1.0480 C   0  0  0  0  0  0  0  0  0  0  0  0
    2.6220   -2.2920    2.3790 C   0  0  2  0  0  0  0  0  0  0  0  0
    2.5360   -3.3700    3.3360 N   0  0  0  0  0  0  0  0  0  0  0  0
    1.2740   -1.7000    2.2060 C   0  0  0  0  0  0  0  0  0  0  0  0
    0.3290   -2.2160    2.8920 O   0  0  0  0  0  0  0  0  0  0  0  0
    5.7360   -2.8640    2.7370 H   0  0  0  0  0  0  0  0  0  0  0  0
    4.7310   -4.2840    3.2330 H   0  0  0  0  0  0  0  0  0  0  0  0
    2.2770   -3.7310    0.8250 H   0  0  0  0  0  0  0  0  0  0  0  0
    3.1210   -2.1950    0.2440 H   0  0  0  0  0  0  0  0  0  0  0  0
    3.3760   -1.5340    2.6720 H   0  0  0  0  0  0  0  0  0  0  0  0
    2.0510   -3.0950    4.2180 H   0  0  0  0  0  0  0  0  0  0  0  0
    2.1320   -4.2220    2.9100 H   0  0  0  0  0  0  0  0  0  0  0  0
    0.0880    3.0150    3.3620 C   0  0  0  0  0  0  0  0  0  0  0  0
    0.1960    1.5420    3.0260 C   0  0  0  0  0  0  0  0  0  0  0  0
   -0.3740    1.3440    1.6250 C   0  0  2  0  0  0  0  0  0  0  0  0
   -1.8120    1.8060    1.6950 C   0  0  0  0  0  0  0  0  0  0  0  0
   -0.3640   -0.1280    1.2550 C   0  0  2  0  0  0  0  0  0  0  0  0
    1.0210   -0.6180    1.3300 N   0  0  0  0  0  0  0  0  0  0  0  0
   -0.7190   -0.2590   -0.1770 C   0  0  0  0  0  0  0  0  0  0  0  0
    0.2040   -0.5500   -1.0040 O   0  0  0  0  0  0  0  0  0  0  0  0
    0.9850    3.3300    3.9530 H   0  0  0  0  0  0  0  0  0  0  0  0
   -0.7820    3.2190    4.0490 H   0  0  0  0  0  0  0  0  0  0  0  0
    0.0020    3.6020    2.4220 H   0  0  0  0  0  0  0  0  0  0  0  0
    1.2700    1.2760    3.0550 H   0  0  0  0  0  0  0  0  0  0  0  0
   -0.3290    0.9200    3.7510 H   0  0  0  0  0  0  0  0  0  0  0  0
    0.2030    1.9260    0.8970 H   0  0  0  0  0  0  0  0  0  0  0  0
   -2.4480    0.9500    1.9710 H   0  0  0  0  0  0  0  0  0  0  0  0
   -1.9210    2.6440    2.4390 H   0  0  0  0  0  0  0  0  0  0  0  0
   -2.1330    2.1750    0.7040 H   0  0  0  0  0  0  0  0  0  0  0  0
   -0.9680   -0.7290    1.9290 H   0  0  0  0  0  0  0  0  0  0  0  0
    1.8080   -0.2250    0.7900 H   0  0  0  0  0  0  0  0  0  0  0  0
   -1.9930   -0.0960   -0.7250 N   0  0  0  0  0  0  0  0  0  0  0  0
   -2.2230   -0.2520   -2.1490 C   0  0  1  0  0  0  0  0  0  0  0  0
   -3.1020   -1.4450   -2.4470 C   0  0  0  0  0  0  0  0  0  0  0  0
   -3.2970   -1.5060   -4.2650 S   0  0  0  0  0  0  0  0  0  0  0  0
   -2.8730    0.9810   -2.6480 C   0  0  0  0  0  0  0  0  0  0  0  0
   -3.1880    1.1360   -3.8600 O   0  0  0  0  0  0  0  0  0  0  0  0
   -3.1690    2.0330   -1.8040 O   0  0  0  0  0  0  0  0  0  0  0  0
   -2.8230    0.1240   -0.1630 H   0  0  0  0  0  0  0  0  0  0  0  0
   -1.2530   -0.4680   -2.6390 H   0  0  0  0  0  0  0  0  0  0  0  0
   -2.5680   -2.3680   -2.1630 H   0  0  0  0  0  0  0  0  0  0  0  0
   -4.1130   -1.3550   -2.0300 H   0  0  0  0  0  0  0  0  0  0  0  0
   -2.2840   -0.8120   -4.9160 H   0  0  0  0  0  0  0  0  0  0  0  0
  1  9  1  0  0  0  0
  1 10  1  0  0  0  0
  2  1  1  0  0  0  0
  3  2  2  0  0  0  0
  4  2  1  0  0  0  0
  4  5  1  0  0  0  0
  5 13  1  1  0  0  0
  5  6  1  0  0  0  0
  6 14  1  0  0  0  0
  7  5  1  0  0  0  0
  7  8  2  0  0  0  0
 11  4  1  0  0  0  0
 12  4  1  0  0  0  0
 15  6  1  0  0  0  0
 16 24  1  0  0  0  0
 16 25  1  0  0  0  0
 17 27  1  0  0  0  0
 17 16  1  0  0  0  0
 17 28  1  0  0  0  0
 18 29  1  6  0  0  0
 18 19  1  0  0  0  0
 18 17  1  0  0  0  0
 19 30  1  0  0  0  0
 19 31  1  0  0  0  0
 20 21  1  0  0  0  0
 20 18  1  0  0  0  0
 20 33  1  1  0  0  0
 21  7  1  0  0  0  0
 22 20  1  0  0  0  0
 23 22  2  0  0  0  0
 26 16  1  0  0  0  0
 32 19  1  0  0  0  0
 34 21  1  0  0  0  0
 35 22  1  0  0  0  0
 35 42  1  0  0  0  0
 36 43  1  6  0  0  0
 36 35  1  0  0  0  0
 37 44  1  0  0  0  0
 37 36  1  0  0  0  0
 37 45  1  0  0  0  0
 38 37  1  0  0  0  0
 39 36  1  0  0  0  0
 39 41  1  0  0  0  0
 40 39  2  0  0  0  0
 46 38  1  0  0  0  0
M  END
$$$$
