NIP.pdb
 OpenBabel07022418103D

 49 49  0  0  1  0  0  0  0  0999 V2000
    3.4210   -5.8100    2.2520 N   0  0  0  0  0  0  0  0  0  0  0  0
    2.8030   -4.7540    2.9790 C   0  0  0  0  0  0  0  0  0  0  0  0
    3.1130   -4.6410    4.1900 O   0  0  0  0  0  0  0  0  0  0  0  0
    1.8340   -3.8160    2.3650 C   0  0  0  0  0  0  0  0  0  0  0  0
    1.3870   -2.8440    3.4040 C   0  0  2  0  0  0  0  0  0  0  0  0
    0.7610   -3.5820    4.4810 N   0  0  0  0  0  0  0  0  0  0  0  0
    0.4900   -1.7890    2.8680 C   0  0  0  0  0  0  0  0  0  0  0  0
   -0.6450   -1.6550    3.3740 O   0  0  0  0  0  0  0  0  0  0  0  0
    3.4480   -6.7520    2.7040 H   0  0  0  0  0  0  0  0  0  0  0  0
    3.8350   -5.6620    1.3070 H   0  0  0  0  0  0  0  0  0  0  0  0
    1.0100   -4.4330    1.9520 H   0  0  0  0  0  0  0  0  0  0  0  0
    2.3550   -3.3380    1.5080 H   0  0  0  0  0  0  0  0  0  0  0  0
    2.2770   -2.3500    3.8260 H   0  0  0  0  0  0  0  0  0  0  0  0
    0.1950   -4.3860    4.1150 H   0  0  0  0  0  0  0  0  0  0  0  0
    0.1790   -2.9640    5.0750 H   0  0  0  0  0  0  0  0  0  0  0  0
    0.0270    3.0570   -0.3830 C   0  0  0  0  0  0  0  0  0  0  0  0
   -0.1090    2.6360    1.0360 C   0  0  0  0  0  0  0  0  0  0  0  0
    0.6040    1.4210    1.4730 C   0  0  2  0  0  0  0  0  0  0  0  0
    2.1060    1.4550    1.2370 C   0  0  0  0  0  0  0  0  0  0  0  0
   -0.0510    0.1270    1.2860 C   0  0  2  0  0  0  0  0  0  0  0  0
    0.8720   -0.9360    1.8150 N   0  0  0  0  0  0  0  0  0  0  0  0
   -0.3140   -0.2570   -0.0890 C   0  0  0  0  0  0  0  0  0  0  0  0
    0.5710   -1.0260   -0.6310 O   0  0  0  0  0  0  0  0  0  0  0  0
    0.8380    3.8280   -0.4940 H   0  0  0  0  0  0  0  0  0  0  0  0
    0.1500    2.2990   -1.1330 H   0  0  0  0  0  0  0  0  0  0  0  0
   -0.9040    3.6480   -0.6370 H   0  0  0  0  0  0  0  0  0  0  0  0
    0.2150    3.5560    1.6430 H   0  0  0  0  0  0  0  0  0  0  0  0
   -1.1980    2.5710    1.3250 H   0  0  0  0  0  0  0  0  0  0  0  0
    0.6230    1.6120    2.6700 H   0  0  0  0  0  0  0  0  0  0  0  0
    2.5070    2.4640    1.2160 H   0  0  0  0  0  0  0  0  0  0  0  0
    2.6390    0.8660    2.0050 H   0  0  0  0  0  0  0  0  0  0  0  0
    2.3260    0.9450    0.2630 H   0  0  0  0  0  0  0  0  0  0  0  0
   -0.9960    0.0840    1.8590 H   0  0  0  0  0  0  0  0  0  0  0  0
    1.8080   -1.0490    1.4000 H   0  0  0  0  0  0  0  0  0  0  0  0
   -1.4220    0.0900   -0.9070 N   0  0  0  0  0  0  0  0  0  0  0  0
   -2.5600    0.9430   -0.6000 C   0  0  0  0  0  0  0  0  0  0  0  0
   -3.6710    0.1590   -1.3370 C   0  0  0  0  0  0  0  0  0  0  0  0
   -2.9760    0.0890   -2.7110 C   0  0  0  0  0  0  0  0  0  0  0  0
   -1.6220   -0.4520   -2.2390 C   0  0  1  0  0  0  0  0  0  0  0  0
   -0.5460   -0.2480   -3.1780 C   0  0  0  0  0  0  0  0  0  0  0  0
   -0.6990   -0.6270   -4.3720 O   0  0  0  0  0  0  0  0  0  0  0  0
    0.6440    0.3350   -2.8490 O   0  0  0  0  0  0  0  0  0  0  0  0
   -2.8060    1.0180    0.4540 H   0  0  0  0  0  0  0  0  0  0  0  0
   -2.4980    1.9470   -1.0370 H   0  0  0  0  0  0  0  0  0  0  0  0
   -4.6070    0.7110   -1.3720 H   0  0  0  0  0  0  0  0  0  0  0  0
   -3.7080   -0.8540   -0.9280 H   0  0  0  0  0  0  0  0  0  0  0  0
   -2.7920    1.1040   -3.0900 H   0  0  0  0  0  0  0  0  0  0  0  0
   -3.4860   -0.5890   -3.3940 H   0  0  0  0  0  0  0  0  0  0  0  0
   -1.8060   -1.5580   -2.0440 H   0  0  0  0  0  0  0  0  0  0  0  0
  1  9  1  0  0  0  0
  1  2  1  0  0  0  0
  2  3  2  0  0  0  0
  4  2  1  0  0  0  0
  4  5  1  0  0  0  0
  5 13  1  1  0  0  0
  5  6  1  0  0  0  0
  6 15  1  0  0  0  0
  7  8  2  0  0  0  0
  7  5  1  0  0  0  0
 10  1  1  0  0  0  0
 11  4  1  0  0  0  0
 12  4  1  0  0  0  0
 14  6  1  0  0  0  0
 16 17  1  0  0  0  0
 17 28  1  0  0  0  0
 17 18  1  0  0  0  0
 17 27  1  0  0  0  0
 18 29  1  1  0  0  0
 19 18  1  0  0  0  0
 19 31  1  0  0  0  0
 20 18  1  0  0  0  0
 20 21  1  0  0  0  0
 20 33  1  1  0  0  0
 21  7  1  0  0  0  0
 22 20  1  0  0  0  0
 23 22  2  0  0  0  0
 24 16  1  0  0  0  0
 25 16  1  0  0  0  0
 26 16  1  0  0  0  0
 30 19  1  0  0  0  0
 32 19  1  0  0  0  0
 34 21  1  0  0  0  0
 35 36  1  0  0  0  0
 35 22  1  0  0  0  0
 36 43  1  0  0  0  0
 37 46  1  0  0  0  0
 37 36  1  0  0  0  0
 38 39  1  0  0  0  0
 38 37  1  0  0  0  0
 39 49  1  1  0  0  0
 39 35  1  0  0  0  0
 40 42  1  0  0  0  0
 40 39  1  0  0  0  0
 41 40  2  0  0  0  0
 44 36  1  0  0  0  0
 45 37  1  0  0  0  0
 47 38  1  0  0  0  0
 48 38  1  0  0  0  0
M  END
$$$$
