NIW.pdb
 OpenBabel07022418103D

 59 60  0  0  1  0  0  0  0  0999 V2000
    2.6010    1.5220    6.5780 N   0  0  0  0  0  0  0  0  0  0  0  0
    1.6670    1.8900    5.5760 C   0  0  0  0  0  0  0  0  0  0  0  0
    0.4840    1.4840    5.6640 O   0  0  0  0  0  0  0  0  0  0  0  0
    2.1070    2.7420    4.4550 C   0  0  0  0  0  0  0  0  0  0  0  0
    1.0620    3.0010    3.4290 C   0  0  2  0  0  0  0  0  0  0  0  0
   -0.0640    3.6330    4.0330 N   0  0  0  0  0  0  0  0  0  0  0  0
    0.6920    1.7820    2.6210 C   0  0  0  0  0  0  0  0  0  0  0  0
   -0.4940    1.4040    2.6370 O   0  0  0  0  0  0  0  0  0  0  0  0
    3.6110    1.4800    6.3310 H   0  0  0  0  0  0  0  0  0  0  0  0
    2.2540    1.3010    7.5360 H   0  0  0  0  0  0  0  0  0  0  0  0
    2.9980    2.3020    3.9550 H   0  0  0  0  0  0  0  0  0  0  0  0
    2.4390    3.7240    4.8440 H   0  0  0  0  0  0  0  0  0  0  0  0
    1.4480    3.7200    2.6550 H   0  0  0  0  0  0  0  0  0  0  0  0
    0.2440    4.0890    4.9230 H   0  0  0  0  0  0  0  0  0  0  0  0
   -0.8540    2.9830    4.2660 H   0  0  0  0  0  0  0  0  0  0  0  0
    2.0900   -2.6570   -0.1260 C   0  0  0  0  0  0  0  0  0  0  0  0
    1.3820   -2.5790    1.2070 C   0  0  0  0  0  0  0  0  0  0  0  0
    1.5710   -1.2500    1.8470 C   0  0  2  0  0  0  0  0  0  0  0  0
    0.8670   -1.2140    3.2130 C   0  0  0  0  0  0  0  0  0  0  0  0
    1.3570   -0.0570    1.0560 C   0  0  2  0  0  0  0  0  0  0  0  0
    1.6920    1.1380    1.8940 N   0  0  0  0  0  0  0  0  0  0  0  0
    0.1970    0.2440    0.2700 C   0  0  0  0  0  0  0  0  0  0  0  0
   -0.2080    1.4800    0.2480 O   0  0  0  0  0  0  0  0  0  0  0  0
    3.1760   -2.7860    0.0530 H   0  0  0  0  0  0  0  0  0  0  0  0
    1.9810   -1.7330   -0.7170 H   0  0  0  0  0  0  0  0  0  0  0  0
    1.6610   -3.4850   -0.7230 H   0  0  0  0  0  0  0  0  0  0  0  0
    0.3510   -2.9230    1.0630 H   0  0  0  0  0  0  0  0  0  0  0  0
    1.8680   -3.3590    1.9020 H   0  0  0  0  0  0  0  0  0  0  0  0
    2.6730   -1.2410    2.1570 H   0  0  0  0  0  0  0  0  0  0  0  0
    1.2440   -2.1280    3.7640 H   0  0  0  0  0  0  0  0  0  0  0  0
    1.1920   -0.3660    3.8290 H   0  0  0  0  0  0  0  0  0  0  0  0
   -0.2140   -1.2300    3.1500 H   0  0  0  0  0  0  0  0  0  0  0  0
    2.2290   -0.0150    0.2860 H   0  0  0  0  0  0  0  0  0  0  0  0
    2.7080    1.4730    1.9150 H   0  0  0  0  0  0  0  0  0  0  0  0
   -0.5770   -0.6120   -0.4920 N   0  0  0  0  0  0  0  0  0  0  0  0
   -1.7570   -0.1670   -1.2630 C   0  0  1  0  0  0  0  0  0  0  0  0
   -1.4940   -0.3210   -2.7280 C   0  0  0  0  0  0  0  0  0  0  0  0
   -1.1670   -1.6590   -3.1890 C   0  0  0  0  0  0  0  0  0  0  0  0
    0.1500   -2.0990   -3.3780 C   0  0  0  0  0  0  0  0  0  0  0  0
    0.0960   -3.3690   -3.7650 N   0  0  0  0  0  0  0  0  0  0  0  0
   -1.1710   -3.7830   -3.8410 C   0  0  0  0  0  0  0  0  0  0  0  0
   -1.7010   -4.9940   -4.1990 C   0  0  0  0  0  0  0  0  0  0  0  0
   -3.0620   -5.1600   -4.2050 C   0  0  0  0  0  0  0  0  0  0  0  0
   -3.8890   -4.1170   -3.8540 C   0  0  0  0  0  0  0  0  0  0  0  0
   -3.3510   -2.9130   -3.4980 C   0  0  0  0  0  0  0  0  0  0  0  0
   -1.9670   -2.7210   -3.4840 C   0  0  0  0  0  0  0  0  0  0  0  0
   -3.0040   -0.7610   -0.8020 C   0  0  0  0  0  0  0  0  0  0  0  0
   -3.0530   -1.6710    0.0670 O   0  0  0  0  0  0  0  0  0  0  0  0
   -4.2410   -0.3490   -1.3000 O   0  0  0  0  0  0  0  0  0  0  0  0
   -0.3810   -1.6100   -0.5740 H   0  0  0  0  0  0  0  0  0  0  0  0
   -1.8370    0.9430   -1.0500 H   0  0  0  0  0  0  0  0  0  0  0  0
   -2.4150    0.0300   -3.2850 H   0  0  0  0  0  0  0  0  0  0  0  0
   -0.7170    0.4390   -3.0410 H   0  0  0  0  0  0  0  0  0  0  0  0
    1.0590   -1.5250   -3.2390 H   0  0  0  0  0  0  0  0  0  0  0  0
    0.9420   -3.9690   -3.9830 H   0  0  0  0  0  0  0  0  0  0  0  0
   -1.0540   -5.8380   -4.4830 H   0  0  0  0  0  0  0  0  0  0  0  0
   -3.4750   -6.1370   -4.4940 H   0  0  0  0  0  0  0  0  0  0  0  0
   -4.9750   -4.2750   -3.8680 H   0  0  0  0  0  0  0  0  0  0  0  0
   -3.9850   -2.0990   -3.2390 H   0  0  0  0  0  0  0  0  0  0  0  0
  1 10  1  0  0  0  0
  2  3  2  0  0  0  0
  2  1  1  0  0  0  0
  4 12  1  0  0  0  0
  4  2  1  0  0  0  0
  5 13  1  6  0  0  0
  5  6  1  0  0  0  0
  5  4  1  0  0  0  0
  6 15  1  0  0  0  0
  6 14  1  0  0  0  0
  7  8  2  0  0  0  0
  7  5  1  0  0  0  0
  9  1  1  0  0  0  0
 11  4  1  0  0  0  0
 16 24  1  0  0  0  0
 16 17  1  0  0  0  0
 17 18  1  0  0  0  0
 17 28  1  0  0  0  0
 18 29  1  1  0  0  0
 18 19  1  0  0  0  0
 19 30  1  0  0  0  0
 19 31  1  0  0  0  0
 20 33  1  6  0  0  0
 20 18  1  0  0  0  0
 20 21  1  0  0  0  0
 21 34  1  0  0  0  0
 21  7  1  0  0  0  0
 22 20  1  0  0  0  0
 23 22  2  0  0  0  0
 25 16  1  0  0  0  0
 26 16  1  0  0  0  0
 27 17  1  0  0  0  0
 32 19  1  0  0  0  0
 35 22  1  0  0  0  0
 36 51  1  1  0  0  0
 36 47  1  0  0  0  0
 36 35  1  0  0  0  0
 37 36  1  0  0  0  0
 38 37  1  0  0  0  0
 39 54  1  0  0  0  0
 39 38  2  0  0  0  0
 40 39  1  0  0  0  0
 41 40  1  0  0  0  0
 41 46  1  0  0  0  0
 42 41  2  0  0  0  0
 43 42  1  0  0  0  0
 43 44  2  0  0  0  0
 44 45  1  0  0  0  0
 45 46  2  0  0  0  0
 45 59  1  0  0  0  0
 46 38  1  0  0  0  0
 47 48  1  0  0  0  0
 49 47  2  0  0  0  0
 50 35  1  0  0  0  0
 52 37  1  0  0  0  0
 53 37  1  0  0  0  0
 55 40  1  0  0  0  0
 56 42  1  0  0  0  0
 57 43  1  0  0  0  0
 58 44  1  0  0  0  0
M  END
$$$$
