NIY.pdb
 OpenBabel07022418103D

 56 56  0  0  1  0  0  0  0  0999 V2000
    0.2840   -4.2660    4.9310 N   0  0  0  0  0  0  0  0  0  0  0  0
    1.2980   -3.2970    4.6450 C   0  0  0  0  0  0  0  0  0  0  0  0
    2.1250   -3.0350    5.5510 O   0  0  0  0  0  0  0  0  0  0  0  0
    1.3770   -2.6230    3.3270 C   0  0  0  0  0  0  0  0  0  0  0  0
    1.3620   -1.1070    3.4800 C   0  0  2  0  0  0  0  0  0  0  0  0
    0.1280   -0.7290    4.1260 N   0  0  0  0  0  0  0  0  0  0  0  0
    1.4260   -0.4710    2.1450 C   0  0  0  0  0  0  0  0  0  0  0  0
    2.4280   -0.6230    1.3860 O   0  0  0  0  0  0  0  0  0  0  0  0
    0.0840   -4.5790    5.8850 H   0  0  0  0  0  0  0  0  0  0  0  0
   -0.2940   -4.6920    4.1640 H   0  0  0  0  0  0  0  0  0  0  0  0
    0.5690   -2.9960    2.6770 H   0  0  0  0  0  0  0  0  0  0  0  0
    2.3660   -2.9420    2.8890 H   0  0  0  0  0  0  0  0  0  0  0  0
    2.2490   -0.8100    4.1020 H   0  0  0  0  0  0  0  0  0  0  0  0
   -0.0960   -1.5180    4.7950 H   0  0  0  0  0  0  0  0  0  0  0  0
    0.2010    0.1820    4.5960 H   0  0  0  0  0  0  0  0  0  0  0  0
    1.7990    3.5400    0.7770 C   0  0  0  0  0  0  0  0  0  0  0  0
    2.4080    2.1940    0.4180 C   0  0  0  0  0  0  0  0  0  0  0  0
    1.4640    1.3200   -0.3200 C   0  0  2  0  0  0  0  0  0  0  0  0
    1.0800    2.0750   -1.5930 C   0  0  0  0  0  0  0  0  0  0  0  0
    0.2330    1.0400    0.4690 C   0  0  2  0  0  0  0  0  0  0  0  0
    0.3730    0.3180    1.6910 N   0  0  0  0  0  0  0  0  0  0  0  0
   -0.9560    0.6040   -0.2800 C   0  0  0  0  0  0  0  0  0  0  0  0
   -1.2520    1.1580   -1.3740 O   0  0  0  0  0  0  0  0  0  0  0  0
    1.2330    3.5420    1.7110 H   0  0  0  0  0  0  0  0  0  0  0  0
    1.3040    3.9880   -0.0950 H   0  0  0  0  0  0  0  0  0  0  0  0
    2.6910    4.2090    0.9790 H   0  0  0  0  0  0  0  0  0  0  0  0
    2.9300    1.8420    1.2830 H   0  0  0  0  0  0  0  0  0  0  0  0
    3.2250    2.4630   -0.3320 H   0  0  0  0  0  0  0  0  0  0  0  0
    1.9810    0.4100   -0.6970 H   0  0  0  0  0  0  0  0  0  0  0  0
    0.3340    2.8440   -1.4490 H   0  0  0  0  0  0  0  0  0  0  0  0
    0.7930    1.3760   -2.4200 H   0  0  0  0  0  0  0  0  0  0  0  0
    1.9900    2.6030   -2.0110 H   0  0  0  0  0  0  0  0  0  0  0  0
    0.0440    2.1330    0.8880 H   0  0  0  0  0  0  0  0  0  0  0  0
   -0.4770    0.4040    2.3520 H   0  0  0  0  0  0  0  0  0  0  0  0
    1.3790   -2.9870   -4.7390 O   0  0  0  0  0  0  0  0  0  0  0  0
    0.3210   -2.8130   -3.8310 C   0  0  0  0  0  0  0  0  0  0  0  0
   -0.9350   -2.4370   -4.2510 C   0  0  0  0  0  0  0  0  0  0  0  0
   -1.9930   -2.2600   -3.3680 C   0  0  0  0  0  0  0  0  0  0  0  0
   -1.7740   -2.4690   -2.0280 C   0  0  0  0  0  0  0  0  0  0  0  0
   -2.8420   -2.3160   -1.0210 C   0  0  0  0  0  0  0  0  0  0  0  0
   -2.9860   -0.9210   -0.4680 C   0  0  2  0  0  0  0  0  0  0  0  0
   -1.8150   -0.4410    0.1810 N   0  0  0  0  0  0  0  0  0  0  0  0
   -4.2150   -0.8450    0.3120 C   0  0  0  0  0  0  0  0  0  0  0  0
   -4.1780   -0.3900    1.4770 O   0  0  0  0  0  0  0  0  0  0  0  0
   -0.5180   -2.8450   -1.6140 C   0  0  0  0  0  0  0  0  0  0  0  0
    0.5200   -3.0170   -2.4950 C   0  0  0  0  0  0  0  0  0  0  0  0
   -5.4470   -1.2500   -0.1600 O   0  0  0  0  0  0  0  0  0  0  0  0
    2.0620   -3.6970   -4.5390 H   0  0  0  0  0  0  0  0  0  0  0  0
   -1.0730   -2.2830   -5.3140 H   0  0  0  0  0  0  0  0  0  0  0  0
   -2.9630   -1.9600   -3.7640 H   0  0  0  0  0  0  0  0  0  0  0  0
   -3.8010   -2.6660   -1.4440 H   0  0  0  0  0  0  0  0  0  0  0  0
   -2.6030   -2.9910   -0.1710 H   0  0  0  0  0  0  0  0  0  0  0  0
   -3.1040   -0.2740   -1.3940 H   0  0  0  0  0  0  0  0  0  0  0  0
   -1.5430   -0.8860    1.0830 H   0  0  0  0  0  0  0  0  0  0  0  0
   -0.3230   -3.0160   -0.5590 H   0  0  0  0  0  0  0  0  0  0  0  0
    1.5240   -3.3160   -2.1770 H   0  0  0  0  0  0  0  0  0  0  0  0
  1  9  1  0  0  0  0
  2  1  1  0  0  0  0
  2  3  2  0  0  0  0
  4  5  1  0  0  0  0
  4  2  1  0  0  0  0
  5 13  1  1  0  0  0
  5  6  1  0  0  0  0
  6 15  1  0  0  0  0
  6 14  1  0  0  0  0
  7  5  1  0  0  0  0
  8  7  2  0  0  0  0
 10  1  1  0  0  0  0
 11  4  1  0  0  0  0
 12  4  1  0  0  0  0
 16 26  1  0  0  0  0
 16 24  1  0  0  0  0
 17 16  1  0  0  0  0
 17 27  1  0  0  0  0
 18 29  1  6  0  0  0
 18 17  1  0  0  0  0
 18 20  1  0  0  0  0
 19 30  1  0  0  0  0
 19 18  1  0  0  0  0
 20 33  1  1  0  0  0
 20 21  1  0  0  0  0
 21  7  1  0  0  0  0
 21 34  1  0  0  0  0
 22 42  1  0  0  0  0
 22 20  1  0  0  0  0
 23 22  2  0  0  0  0
 25 16  1  0  0  0  0
 28 17  1  0  0  0  0
 31 19  1  0  0  0  0
 32 19  1  0  0  0  0
 35 48  1  0  0  0  0
 35 36  1  0  0  0  0
 36 46  1  0  0  0  0
 37 36  2  0  0  0  0
 37 38  1  0  0  0  0
 38 39  2  0  0  0  0
 39 45  1  0  0  0  0
 39 40  1  0  0  0  0
 40 41  1  0  0  0  0
 40 52  1  0  0  0  0
 41 53  1  6  0  0  0
 41 42  1  0  0  0  0
 41 43  1  0  0  0  0
 42 54  1  0  0  0  0
 43 44  1  0  0  0  0
 45 55  1  0  0  0  0
 46 56  1  0  0  0  0
 46 45  2  0  0  0  0
 47 43  2  0  0  0  0
 49 37  1  0  0  0  0
 50 38  1  0  0  0  0
 51 40  1  0  0  0  0
M  END
$$$$
