NKD.pdb
 OpenBabel07022418103D

 50 49  0  0  1  0  0  0  0  0999 V2000
    3.4430   -6.0750    1.4520 N   0  0  0  0  0  0  0  0  0  0  0  0
    2.5300   -5.2060    0.7790 C   0  0  0  0  0  0  0  0  0  0  0  0
    1.3240   -5.3910    0.9930 O   0  0  0  0  0  0  0  0  0  0  0  0
    2.9760   -4.1370   -0.1280 C   0  0  0  0  0  0  0  0  0  0  0  0
    1.8390   -3.2760   -0.6000 C   0  0  2  0  0  0  0  0  0  0  0  0
    2.3550   -2.2940   -1.5590 N   0  0  0  0  0  0  0  0  0  0  0  0
    1.3190   -2.5160    0.5960 C   0  0  0  0  0  0  0  0  0  0  0  0
    1.1840   -2.9850    1.7270 O   0  0  0  0  0  0  0  0  0  0  0  0
    4.2010   -6.6060    0.9940 H   0  0  0  0  0  0  0  0  0  0  0  0
    3.3540   -6.1970    2.4920 H   0  0  0  0  0  0  0  0  0  0  0  0
    3.5450   -4.5960   -0.9770 H   0  0  0  0  0  0  0  0  0  0  0  0
    3.6830   -3.4370    0.4050 H   0  0  0  0  0  0  0  0  0  0  0  0
    1.0850   -3.8850   -1.0890 H   0  0  0  0  0  0  0  0  0  0  0  0
    3.2600   -2.6760   -1.9740 H   0  0  0  0  0  0  0  0  0  0  0  0
    1.6960   -2.2360   -2.3710 H   0  0  0  0  0  0  0  0  0  0  0  0
    0.9400   -1.1270    0.4450 N   0  0  0  0  0  0  0  0  0  0  0  0
    0.4410   -0.3450    1.5850 C   0  0  1  0  0  0  0  0  0  0  0  0
    0.9360    1.0520    1.5540 C   0  0  0  0  0  0  0  0  0  0  0  0
    0.4640    1.8530    2.7070 C   0  0  0  0  0  0  0  0  0  0  0  0
    0.9900    3.2670    2.6550 C   0  0  0  0  0  0  0  0  0  0  0  0
    0.5250    4.0110    1.4140 C   0  0  0  0  0  0  0  0  0  0  0  0
    1.0680    5.3690    1.4350 N   0  0  0  0  0  0  0  0  0  0  0  0
   -1.0580   -0.4730    1.5110 C   0  0  0  0  0  0  0  0  0  0  0  0
   -1.8100    0.0090    2.3920 O   0  0  0  0  0  0  0  0  0  0  0  0
    1.0250   -0.7080   -0.4790 H   0  0  0  0  0  0  0  0  0  0  0  0
    0.6950   -0.8140    2.5550 H   0  0  0  0  0  0  0  0  0  0  0  0
    2.0520    1.0090    1.6110 H   0  0  0  0  0  0  0  0  0  0  0  0
    0.7090    1.5740    0.5990 H   0  0  0  0  0  0  0  0  0  0  0  0
   -0.6470    1.9490    2.7750 H   0  0  0  0  0  0  0  0  0  0  0  0
    0.7740    1.4280    3.6950 H   0  0  0  0  0  0  0  0  0  0  0  0
    2.1100    3.2370    2.6780 H   0  0  0  0  0  0  0  0  0  0  0  0
    0.6580    3.8720    3.5340 H   0  0  0  0  0  0  0  0  0  0  0  0
    0.8970    3.5570    0.4820 H   0  0  0  0  0  0  0  0  0  0  0  0
   -0.5640    4.1300    1.4370 H   0  0  0  0  0  0  0  0  0  0  0  0
    0.4270    6.0880    1.0980 H   0  0  0  0  0  0  0  0  0  0  0  0
    1.4780    5.6100    2.3480 H   0  0  0  0  0  0  0  0  0  0  0  0
   -1.7000   -1.1480    0.4430 N   0  0  0  0  0  0  0  0  0  0  0  0
   -3.1320   -1.3360    0.2920 C   0  0  1  0  0  0  0  0  0  0  0  0
   -3.4990   -0.5460   -0.9770 C   0  0  0  0  0  0  0  0  0  0  0  0
   -3.1910    0.8960   -0.7710 C   0  0  0  0  0  0  0  0  0  0  0  0
   -3.5910    1.4020    0.3450 O   0  0  0  0  0  0  0  0  0  0  0  0
   -3.4150   -2.7500    0.0120 C   0  0  0  0  0  0  0  0  0  0  0  0
   -2.4720   -3.5610   -0.0880 O   0  0  0  0  0  0  0  0  0  0  0  0
   -2.5350    1.7250   -1.6260 O   0  0  0  0  0  0  0  0  0  0  0  0
   -4.7090   -3.2030   -0.1430 O   0  0  0  0  0  0  0  0  0  0  0  0
   -1.1140   -1.5660   -0.3350 H   0  0  0  0  0  0  0  0  0  0  0  0
   -3.6810   -0.9190    1.1610 H   0  0  0  0  0  0  0  0  0  0  0  0
   -2.9320   -0.9440   -1.8410 H   0  0  0  0  0  0  0  0  0  0  0  0
   -4.5830   -0.6600   -1.2140 H   0  0  0  0  0  0  0  0  0  0  0  0
   -2.1820    2.6340   -1.2850 H   0  0  0  0  0  0  0  0  0  0  0  0
  1 10  1  0  0  0  0
  2  3  2  0  0  0  0
  2  1  1  0  0  0  0
  4 12  1  0  0  0  0
  4  2  1  0  0  0  0
  5 13  1  6  0  0  0
  5  4  1  0  0  0  0
  5  7  1  0  0  0  0
  6  5  1  0  0  0  0
  7  8  2  0  0  0  0
  9  1  1  0  0  0  0
 11  4  1  0  0  0  0
 14  6  1  0  0  0  0
 15  6  1  0  0  0  0
 16  7  1  0  0  0  0
 16 17  1  0  0  0  0
 17 26  1  1  0  0  0
 18 17  1  0  0  0  0
 18 27  1  0  0  0  0
 18 19  1  0  0  0  0
 19 29  1  0  0  0  0
 19 30  1  0  0  0  0
 20 31  1  0  0  0  0
 20 19  1  0  0  0  0
 20 32  1  0  0  0  0
 21 22  1  0  0  0  0
 21 34  1  0  0  0  0
 21 20  1  0  0  0  0
 22 36  1  0  0  0  0
 23 17  1  0  0  0  0
 23 24  2  0  0  0  0
 25 16  1  0  0  0  0
 28 18  1  0  0  0  0
 33 21  1  0  0  0  0
 35 22  1  0  0  0  0
 37 23  1  0  0  0  0
 38 37  1  0  0  0  0
 38 47  1  1  0  0  0
 39 40  1  0  0  0  0
 39 38  1  0  0  0  0
 40 41  2  0  0  0  0
 42 38  1  0  0  0  0
 43 42  1  0  0  0  0
 44 50  1  0  0  0  0
 44 40  1  0  0  0  0
 45 42  2  0  0  0  0
 46 37  1  0  0  0  0
 48 39  1  0  0  0  0
 49 39  1  0  0  0  0
M  END
$$$$
