NKG.pdb
 OpenBabel07022418103D

 44 43  0  0  1  0  0  0  0  0999 V2000
    3.4890   -4.4260    2.4270 N   0  0  0  0  0  0  0  0  0  0  0  0
    2.6020   -4.7670    1.3700 C   0  0  0  0  0  0  0  0  0  0  0  0
    2.5450   -5.9490    0.9490 O   0  0  0  0  0  0  0  0  0  0  0  0
    1.7210   -3.7710    0.7270 C   0  0  0  0  0  0  0  0  0  0  0  0
    1.9230   -2.3930    1.3650 C   0  0  2  0  0  0  0  0  0  0  0  0
    1.6190   -2.4210    2.7650 N   0  0  0  0  0  0  0  0  0  0  0  0
    0.9920   -1.4760    0.6720 C   0  0  0  0  0  0  0  0  0  0  0  0
    1.1520   -1.3550   -0.5830 O   0  0  0  0  0  0  0  0  0  0  0  0
    4.5090   -4.4220    2.2020 H   0  0  0  0  0  0  0  0  0  0  0  0
    3.0850   -4.2000    3.3580 H   0  0  0  0  0  0  0  0  0  0  0  0
    0.6370   -4.0110    0.8490 H   0  0  0  0  0  0  0  0  0  0  0  0
    1.9040   -3.6590   -0.3480 H   0  0  0  0  0  0  0  0  0  0  0  0
    2.9750   -2.0990    1.1680 H   0  0  0  0  0  0  0  0  0  0  0  0
    1.7050   -1.4560    3.1430 H   0  0  0  0  0  0  0  0  0  0  0  0
    0.6500   -2.7430    2.9020 H   0  0  0  0  0  0  0  0  0  0  0  0
   -0.0220   -0.7670    1.3460 N   0  0  0  0  0  0  0  0  0  0  0  0
   -0.9240    0.1170    0.6900 C   0  0  1  0  0  0  0  0  0  0  0  0
   -0.3820    1.3590    0.1070 C   0  0  0  0  0  0  0  0  0  0  0  0
    0.2790    2.2850    1.0700 C   0  0  0  0  0  0  0  0  0  0  0  0
    1.4750    1.7570    1.7800 C   0  0  0  0  0  0  0  0  0  0  0  0
    2.0620    2.8130    2.7300 C   0  0  0  0  0  0  0  0  0  0  0  0
    3.2160    2.3020    3.4150 N   0  0  0  0  0  0  0  0  0  0  0  0
   -1.6620   -0.7000   -0.3580 C   0  0  0  0  0  0  0  0  0  0  0  0
   -1.4150   -1.9200   -0.5000 O   0  0  0  0  0  0  0  0  0  0  0  0
   -0.1060   -0.9310    2.3960 H   0  0  0  0  0  0  0  0  0  0  0  0
   -1.7390    0.4060    1.4240 H   0  0  0  0  0  0  0  0  0  0  0  0
   -1.2420    1.9400   -0.3400 H   0  0  0  0  0  0  0  0  0  0  0  0
    0.3410    1.1950   -0.7250 H   0  0  0  0  0  0  0  0  0  0  0  0
   -0.4570    2.6000    1.8560 H   0  0  0  0  0  0  0  0  0  0  0  0
    0.6190    3.2130    0.5230 H   0  0  0  0  0  0  0  0  0  0  0  0
    1.3540    0.8670    2.3810 H   0  0  0  0  0  0  0  0  0  0  0  0
    2.2970    1.5310    1.0390 H   0  0  0  0  0  0  0  0  0  0  0  0
    1.2720    2.9950    3.4860 H   0  0  0  0  0  0  0  0  0  0  0  0
    2.3020    3.7170    2.1350 H   0  0  0  0  0  0  0  0  0  0  0  0
    3.1960    2.4260    4.4350 H   0  0  0  0  0  0  0  0  0  0  0  0
    3.5010    1.3570    3.0900 H   0  0  0  0  0  0  0  0  0  0  0  0
   -2.6420   -0.1130   -1.1970 N   0  0  0  0  0  0  0  0  0  0  0  0
   -3.3560   -0.9000   -2.2100 C   0  0  0  0  0  0  0  0  0  0  0  0
   -4.3110   -0.0580   -2.9380 C   0  0  0  0  0  0  0  0  0  0  0  0
   -5.0020   -0.5830   -3.8400 O   0  0  0  0  0  0  0  0  0  0  0  0
   -4.4940    1.3090   -2.6790 O   0  0  0  0  0  0  0  0  0  0  0  0
   -2.8380    0.9050   -1.0670 H   0  0  0  0  0  0  0  0  0  0  0  0
   -3.9520   -1.6830   -1.6670 H   0  0  0  0  0  0  0  0  0  0  0  0
   -2.6360   -1.4060   -2.8560 H   0  0  0  0  0  0  0  0  0  0  0  0
  1 10  1  0  0  0  0
  2  1  1  0  0  0  0
  3  2  2  0  0  0  0
  4 11  1  0  0  0  0
  4  5  1  0  0  0  0
  4  2  1  0  0  0  0
  5 13  1  6  0  0  0
  5  6  1  0  0  0  0
  6 15  1  0  0  0  0
  6 14  1  0  0  0  0
  7 16  1  0  0  0  0
  7  5  1  0  0  0  0
  8  7  2  0  0  0  0
  9  1  1  0  0  0  0
 12  4  1  0  0  0  0
 16 25  1  0  0  0  0
 17 16  1  0  0  0  0
 17 26  1  1  0  0  0
 18 17  1  0  0  0  0
 18 19  1  0  0  0  0
 19 20  1  0  0  0  0
 19 29  1  0  0  0  0
 20 31  1  0  0  0  0
 20 21  1  0  0  0  0
 21 22  1  0  0  0  0
 21 33  1  0  0  0  0
 22 35  1  0  0  0  0
 23 17  1  0  0  0  0
 24 23  2  0  0  0  0
 27 18  1  0  0  0  0
 28 18  1  0  0  0  0
 30 19  1  0  0  0  0
 32 20  1  0  0  0  0
 34 21  1  0  0  0  0
 36 22  1  0  0  0  0
 37 42  1  0  0  0  0
 37 23  1  0  0  0  0
 38 43  1  0  0  0  0
 38 37  1  0  0  0  0
 39 41  1  0  0  0  0
 39 38  1  0  0  0  0
 40 39  2  0  0  0  0
 44 38  1  0  0  0  0
M  END
$$$$
