NKI.pdb
 OpenBabel07022418103D

 56 55  0  0  1  0  0  0  0  0999 V2000
   -3.6850   -0.8780    4.0830 N   0  0  0  0  0  0  0  0  0  0  0  0
   -2.5670   -0.0310    3.7690 C   0  0  0  0  0  0  0  0  0  0  0  0
   -1.5950   -0.0030    4.5460 O   0  0  0  0  0  0  0  0  0  0  0  0
   -2.5970    0.7820    2.5400 C   0  0  0  0  0  0  0  0  0  0  0  0
   -1.3260    1.5060    2.2470 C   0  0  2  0  0  0  0  0  0  0  0  0
   -1.5850    2.2810    1.0230 N   0  0  0  0  0  0  0  0  0  0  0  0
   -0.2140    0.5220    1.9260 C   0  0  0  0  0  0  0  0  0  0  0  0
    0.1940   -0.2280    2.8060 O   0  0  0  0  0  0  0  0  0  0  0  0
   -4.6430   -0.6830    3.7520 H   0  0  0  0  0  0  0  0  0  0  0  0
   -3.5090   -1.7170    4.6670 H   0  0  0  0  0  0  0  0  0  0  0  0
   -3.4240    1.5260    2.6240 H   0  0  0  0  0  0  0  0  0  0  0  0
   -2.7980    0.1380    1.6300 H   0  0  0  0  0  0  0  0  0  0  0  0
   -1.0300    2.2110    3.0220 H   0  0  0  0  0  0  0  0  0  0  0  0
   -2.0140    1.7080    0.2900 H   0  0  0  0  0  0  0  0  0  0  0  0
   -0.8110    2.8920    0.7520 H   0  0  0  0  0  0  0  0  0  0  0  0
    0.3330    0.4790    0.6340 N   0  0  0  0  0  0  0  0  0  0  0  0
    1.3860   -0.3630    0.1720 C   0  0  1  0  0  0  0  0  0  0  0  0
    2.2890   -0.9250    1.2470 C   0  0  0  0  0  0  0  0  0  0  0  0
    3.0620    0.0690    2.0300 C   0  0  0  0  0  0  0  0  0  0  0  0
    4.0290    0.9040    1.2000 C   0  0  0  0  0  0  0  0  0  0  0  0
    4.7650    1.8740    2.1390 C   0  0  0  0  0  0  0  0  0  0  0  0
    5.6930    2.6880    1.4080 N   0  0  0  0  0  0  0  0  0  0  0  0
    0.8770   -1.3490   -0.7780 C   0  0  0  0  0  0  0  0  0  0  0  0
    1.6220   -2.2200   -1.3490 O   0  0  0  0  0  0  0  0  0  0  0  0
   -0.0900    1.1550   -0.0760 H   0  0  0  0  0  0  0  0  0  0  0  0
    2.1380    0.3110   -0.4160 H   0  0  0  0  0  0  0  0  0  0  0  0
    1.7530   -1.6190    1.8910 H   0  0  0  0  0  0  0  0  0  0  0  0
    3.0700   -1.5480    0.6950 H   0  0  0  0  0  0  0  0  0  0  0  0
    2.5340    0.7730    2.6600 H   0  0  0  0  0  0  0  0  0  0  0  0
    3.7070   -0.5360    2.7450 H   0  0  0  0  0  0  0  0  0  0  0  0
    3.5430    1.4470    0.3860 H   0  0  0  0  0  0  0  0  0  0  0  0
    4.8120    0.2550    0.7650 H   0  0  0  0  0  0  0  0  0  0  0  0
    5.3410    1.2900    2.8870 H   0  0  0  0  0  0  0  0  0  0  0  0
    4.0600    2.5220    2.6670 H   0  0  0  0  0  0  0  0  0  0  0  0
    5.2900    2.8620    0.4650 H   0  0  0  0  0  0  0  0  0  0  0  0
    5.9340    3.5630    1.9050 H   0  0  0  0  0  0  0  0  0  0  0  0
   -1.4240   -5.2620   -2.8520 C   0  0  0  0  0  0  0  0  0  0  0  0
   -2.5040   -4.4120   -2.2180 C   0  0  0  0  0  0  0  0  0  0  0  0
   -1.9230   -3.3270   -1.3530 C   0  0  2  0  0  0  0  0  0  0  0  0
   -3.0990   -2.5360   -0.7670 C   0  0  0  0  0  0  0  0  0  0  0  0
   -0.9840   -2.4120   -2.1000 C   0  0  2  0  0  0  0  0  0  0  0  0
   -0.4960   -1.4250   -1.1510 N   0  0  0  0  0  0  0  0  0  0  0  0
   -1.6340   -1.7550   -3.2520 C   0  0  0  0  0  0  0  0  0  0  0  0
   -2.1230   -2.4100   -4.1940 O   0  0  0  0  0  0  0  0  0  0  0  0
   -1.7040   -0.3760   -3.2930 O   0  0  0  0  0  0  0  0  0  0  0  0
   -0.5000   -5.1600   -2.2110 H   0  0  0  0  0  0  0  0  0  0  0  0
   -1.6790   -6.3470   -2.8120 H   0  0  0  0  0  0  0  0  0  0  0  0
   -1.1260   -4.9420   -3.8550 H   0  0  0  0  0  0  0  0  0  0  0  0
   -3.2420   -4.0330   -2.9540 H   0  0  0  0  0  0  0  0  0  0  0  0
   -3.1030   -5.1240   -1.5770 H   0  0  0  0  0  0  0  0  0  0  0  0
   -1.4330   -3.8110   -0.4860 H   0  0  0  0  0  0  0  0  0  0  0  0
   -3.8950   -3.2880   -0.5860 H   0  0  0  0  0  0  0  0  0  0  0  0
   -2.8360   -2.1160    0.2200 H   0  0  0  0  0  0  0  0  0  0  0  0
   -3.4950   -1.8010   -1.4730 H   0  0  0  0  0  0  0  0  0  0  0  0
   -0.1650   -3.0450   -2.4920 H   0  0  0  0  0  0  0  0  0  0  0  0
   -1.1460   -0.7390   -0.7150 H   0  0  0  0  0  0  0  0  0  0  0  0
  1 10  1  0  0  0  0
  2  1  1  0  0  0  0
  2  3  2  0  0  0  0
  4 11  1  0  0  0  0
  4  2  1  0  0  0  0
  5  4  1  0  0  0  0
  5 13  1  1  0  0  0
  6  5  1  0  0  0  0
  7  5  1  0  0  0  0
  7  8  2  0  0  0  0
  9  1  1  0  0  0  0
 12  4  1  0  0  0  0
 14  6  1  0  0  0  0
 15  6  1  0  0  0  0
 16  7  1  0  0  0  0
 17 26  1  6  0  0  0
 17 16  1  0  0  0  0
 17 18  1  0  0  0  0
 18 27  1  0  0  0  0
 18 19  1  0  0  0  0
 19 29  1  0  0  0  0
 19 30  1  0  0  0  0
 20 19  1  0  0  0  0
 20 21  1  0  0  0  0
 21 34  1  0  0  0  0
 21 33  1  0  0  0  0
 22 36  1  0  0  0  0
 22 21  1  0  0  0  0
 23 17  1  0  0  0  0
 24 23  2  0  0  0  0
 25 16  1  0  0  0  0
 28 18  1  0  0  0  0
 31 20  1  0  0  0  0
 32 20  1  0  0  0  0
 35 22  1  0  0  0  0
 37 47  1  0  0  0  0
 37 38  1  0  0  0  0
 37 46  1  0  0  0  0
 38 50  1  0  0  0  0
 38 39  1  0  0  0  0
 39 40  1  0  0  0  0
 39 51  1  1  0  0  0
 40 52  1  0  0  0  0
 40 53  1  0  0  0  0
 41 55  1  6  0  0  0
 41 39  1  0  0  0  0
 41 42  1  0  0  0  0
 42 23  1  0  0  0  0
 42 56  1  0  0  0  0
 43 41  1  0  0  0  0
 44 43  2  0  0  0  0
 45 43  1  0  0  0  0
 48 37  1  0  0  0  0
 49 38  1  0  0  0  0
 54 40  1  0  0  0  0
M  END
$$$$
