NKK.pdb
 OpenBabel07022418103D

 58 57  0  0  1  0  0  0  0  0999 V2000
    3.7370   -4.8120    5.1050 N   0  0  0  0  0  0  0  0  0  0  0  0
    2.9040   -4.3880    4.0440 C   0  0  0  0  0  0  0  0  0  0  0  0
    2.5740   -5.2210    3.1730 O   0  0  0  0  0  0  0  0  0  0  0  0
    2.4440   -2.9850    3.9840 C   0  0  0  0  0  0  0  0  0  0  0  0
    1.5830   -2.8150    2.7660 C   0  0  2  0  0  0  0  0  0  0  0  0
    2.2700   -3.1100    1.5430 N   0  0  0  0  0  0  0  0  0  0  0  0
    0.9150   -1.4870    2.7270 C   0  0  0  0  0  0  0  0  0  0  0  0
    0.2860   -1.1180    3.7300 O   0  0  0  0  0  0  0  0  0  0  0  0
    4.2670   -4.1590    5.7260 H   0  0  0  0  0  0  0  0  0  0  0  0
    3.8690   -5.8420    5.3270 H   0  0  0  0  0  0  0  0  0  0  0  0
    1.8270   -2.7860    4.8840 H   0  0  0  0  0  0  0  0  0  0  0  0
    3.3250   -2.3020    3.9800 H   0  0  0  0  0  0  0  0  0  0  0  0
    0.7520   -3.5670    2.8590 H   0  0  0  0  0  0  0  0  0  0  0  0
    2.9240   -2.3760    1.2250 H   0  0  0  0  0  0  0  0  0  0  0  0
    1.6110   -3.4440    0.8200 H   0  0  0  0  0  0  0  0  0  0  0  0
    0.9700   -0.6340    1.5970 N   0  0  0  0  0  0  0  0  0  0  0  0
    0.3020    0.6870    1.5650 C   0  0  1  0  0  0  0  0  0  0  0  0
    1.3070    1.7290    1.3010 C   0  0  0  0  0  0  0  0  0  0  0  0
    1.0000    3.1350    1.1670 C   0  0  0  0  0  0  0  0  0  0  0  0
    0.4500    4.0140    2.1730 C   0  0  0  0  0  0  0  0  0  0  0  0
   -0.8600    3.8980    2.8010 C   0  0  0  0  0  0  0  0  0  0  0  0
   -1.2120    2.8010    3.6020 N   0  0  0  0  0  0  0  0  0  0  0  0
   -0.7740    0.6170    0.5500 C   0  0  0  0  0  0  0  0  0  0  0  0
   -1.5280    1.5930    0.2880 O   0  0  0  0  0  0  0  0  0  0  0  0
    1.5050   -0.9720    0.7720 H   0  0  0  0  0  0  0  0  0  0  0  0
   -0.2000    0.8310    2.5390 H   0  0  0  0  0  0  0  0  0  0  0  0
    1.9280    1.3320    0.4190 H   0  0  0  0  0  0  0  0  0  0  0  0
    2.0930    1.6470    2.1390 H   0  0  0  0  0  0  0  0  0  0  0  0
    2.0020    3.6240    0.7980 H   0  0  0  0  0  0  0  0  0  0  0  0
    0.3800    3.3390    0.2060 H   0  0  0  0  0  0  0  0  0  0  0  0
    0.5270    5.1100    1.8210 H   0  0  0  0  0  0  0  0  0  0  0  0
    1.2200    4.0510    3.0440 H   0  0  0  0  0  0  0  0  0  0  0  0
   -0.9700    4.8220    3.4800 H   0  0  0  0  0  0  0  0  0  0  0  0
   -1.7130    4.0780    2.0720 H   0  0  0  0  0  0  0  0  0  0  0  0
   -0.9630    2.8550    4.6110 H   0  0  0  0  0  0  0  0  0  0  0  0
   -2.0990    2.3310    3.3940 H   0  0  0  0  0  0  0  0  0  0  0  0
   -0.9830   -0.5670   -0.1610 N   0  0  0  0  0  0  0  0  0  0  0  0
   -2.0190   -0.7520   -1.1910 C   0  0  1  0  0  0  0  0  0  0  0  0
   -1.3690   -1.1850   -2.4840 C   0  0  0  0  0  0  0  0  0  0  0  0
   -2.3970   -1.3560   -3.5520 C   0  0  0  0  0  0  0  0  0  0  0  0
   -1.8620   -1.7200   -4.9030 C   0  0  0  0  0  0  0  0  0  0  0  0
   -1.1020   -2.9850   -5.0040 C   0  0  0  0  0  0  0  0  0  0  0  0
    0.0880   -3.0810   -4.2190 N   0  0  0  0  0  0  0  0  0  0  0  0
   -2.8830   -1.8100   -0.6730 C   0  0  0  0  0  0  0  0  0  0  0  0
   -3.9320   -2.1370   -1.2480 O   0  0  0  0  0  0  0  0  0  0  0  0
   -2.5600   -2.4920    0.4840 O   0  0  0  0  0  0  0  0  0  0  0  0
   -0.3800   -1.3940    0.0280 H   0  0  0  0  0  0  0  0  0  0  0  0
   -2.5890    0.1850   -1.3020 H   0  0  0  0  0  0  0  0  0  0  0  0
   -0.8950   -2.2070   -2.3380 H   0  0  0  0  0  0  0  0  0  0  0  0
   -0.5290   -0.5380   -2.7780 H   0  0  0  0  0  0  0  0  0  0  0  0
   -2.9370   -0.3900   -3.6750 H   0  0  0  0  0  0  0  0  0  0  0  0
   -3.1530   -2.1420   -3.2690 H   0  0  0  0  0  0  0  0  0  0  0  0
   -1.2960   -0.8710   -5.3450 H   0  0  0  0  0  0  0  0  0  0  0  0
   -2.7650   -1.8230   -5.5690 H   0  0  0  0  0  0  0  0  0  0  0  0
   -0.8230   -3.1440   -6.0890 H   0  0  0  0  0  0  0  0  0  0  0  0
   -1.7920   -3.8560   -4.8000 H   0  0  0  0  0  0  0  0  0  0  0  0
    0.7220   -3.7730   -4.6890 H   0  0  0  0  0  0  0  0  0  0  0  0
    0.5850   -2.1560   -4.2700 H   0  0  0  0  0  0  0  0  0  0  0  0
  1 10  1  0  0  0  0
  1  9  1  0  0  0  0
  2  1  1  0  0  0  0
  3  2  2  0  0  0  0
  4  2  1  0  0  0  0
  4 11  1  0  0  0  0
  5 13  1  1  0  0  0
  5  4  1  0  0  0  0
  6  5  1  0  0  0  0
  7  5  1  0  0  0  0
  7  8  2  0  0  0  0
 12  4  1  0  0  0  0
 14  6  1  0  0  0  0
 15  6  1  0  0  0  0
 16  7  1  0  0  0  0
 17 16  1  0  0  0  0
 17 26  1  1  0  0  0
 18 17  1  0  0  0  0
 18 28  1  0  0  0  0
 19 18  1  0  0  0  0
 19 20  1  0  0  0  0
 20 21  1  0  0  0  0
 20 32  1  0  0  0  0
 21 33  1  0  0  0  0
 21 22  1  0  0  0  0
 22 35  1  0  0  0  0
 23 17  1  0  0  0  0
 24 23  2  0  0  0  0
 25 16  1  0  0  0  0
 27 18  1  0  0  0  0
 29 19  1  0  0  0  0
 30 19  1  0  0  0  0
 31 20  1  0  0  0  0
 34 21  1  0  0  0  0
 36 22  1  0  0  0  0
 37 47  1  0  0  0  0
 37 23  1  0  0  0  0
 38 48  1  6  0  0  0
 38 44  1  0  0  0  0
 38 37  1  0  0  0  0
 39 49  1  0  0  0  0
 39 38  1  0  0  0  0
 40 52  1  0  0  0  0
 40 39  1  0  0  0  0
 41 40  1  0  0  0  0
 42 41  1  0  0  0  0
 42 56  1  0  0  0  0
 42 43  1  0  0  0  0
 44 46  1  0  0  0  0
 45 44  2  0  0  0  0
 50 39  1  0  0  0  0
 51 40  1  0  0  0  0
 53 41  1  0  0  0  0
 54 41  1  0  0  0  0
 55 42  1  0  0  0  0
 57 43  1  0  0  0  0
 58 43  1  0  0  0  0
M  END
$$$$
