NKL.pdb
 OpenBabel07022418103D

 56 55  0  0  1  0  0  0  0  0999 V2000
    3.3420   -1.9360    5.5850 N   0  0  0  0  0  0  0  0  0  0  0  0
    2.2690   -2.1950    4.6760 C   0  0  0  0  0  0  0  0  0  0  0  0
    1.1100   -1.9840    5.0960 O   0  0  0  0  0  0  0  0  0  0  0  0
    2.5230   -2.6870    3.3120 C   0  0  0  0  0  0  0  0  0  0  0  0
    1.3110   -2.8030    2.4580 C   0  0  2  0  0  0  0  0  0  0  0  0
    1.7410   -3.3380    1.1600 N   0  0  0  0  0  0  0  0  0  0  0  0
    0.7330   -1.4400    2.1680 C   0  0  0  0  0  0  0  0  0  0  0  0
    0.2350   -0.7540    3.0600 O   0  0  0  0  0  0  0  0  0  0  0  0
    3.9100   -2.6820    6.0320 H   0  0  0  0  0  0  0  0  0  0  0  0
    3.5420   -0.9400    5.7910 H   0  0  0  0  0  0  0  0  0  0  0  0
    3.1440   -3.6090    3.3020 H   0  0  0  0  0  0  0  0  0  0  0  0
    3.1880   -1.9120    2.8220 H   0  0  0  0  0  0  0  0  0  0  0  0
    0.5140   -3.3990    2.8980 H   0  0  0  0  0  0  0  0  0  0  0  0
    1.0500   -4.0390    0.8300 H   0  0  0  0  0  0  0  0  0  0  0  0
    2.7010   -3.7140    1.1870 H   0  0  0  0  0  0  0  0  0  0  0  0
    0.7440   -0.8990    0.8450 N   0  0  0  0  0  0  0  0  0  0  0  0
    0.2120    0.3940    0.4880 C   0  0  1  0  0  0  0  0  0  0  0  0
    1.1130    1.2620   -0.2670 C   0  0  0  0  0  0  0  0  0  0  0  0
    2.4070    1.6980    0.2020 C   0  0  0  0  0  0  0  0  0  0  0  0
    2.6580    2.5010    1.3880 C   0  0  0  0  0  0  0  0  0  0  0  0
    2.2650    1.9360    2.7210 C   0  0  0  0  0  0  0  0  0  0  0  0
    2.6390    2.8700    3.8000 N   0  0  0  0  0  0  0  0  0  0  0  0
   -1.0550    0.2070   -0.3320 C   0  0  0  0  0  0  0  0  0  0  0  0
   -1.7080    1.1900   -0.7620 O   0  0  0  0  0  0  0  0  0  0  0  0
    1.1720   -1.5040    0.1150 H   0  0  0  0  0  0  0  0  0  0  0  0
   -0.1620    0.8880    1.3830 H   0  0  0  0  0  0  0  0  0  0  0  0
    1.2360    0.8490   -1.3110 H   0  0  0  0  0  0  0  0  0  0  0  0
    0.5080    2.2150   -0.4880 H   0  0  0  0  0  0  0  0  0  0  0  0
    2.8770    2.2790   -0.6790 H   0  0  0  0  0  0  0  0  0  0  0  0
    3.1780    0.8320    0.2460 H   0  0  0  0  0  0  0  0  0  0  0  0
    2.2220    3.5350    1.3640 H   0  0  0  0  0  0  0  0  0  0  0  0
    3.7730    2.7360    1.4990 H   0  0  0  0  0  0  0  0  0  0  0  0
    2.7320    0.9770    2.9680 H   0  0  0  0  0  0  0  0  0  0  0  0
    1.1760    1.8190    2.8570 H   0  0  0  0  0  0  0  0  0  0  0  0
    3.4800    3.4220    3.5070 H   0  0  0  0  0  0  0  0  0  0  0  0
    1.8610    3.5300    4.0120 H   0  0  0  0  0  0  0  0  0  0  0  0
   -4.4000   -0.7500   -3.8350 C   0  0  0  0  0  0  0  0  0  0  0  0
   -3.7820   -2.1010   -3.5220 C   0  0  0  0  0  0  0  0  0  0  0  0
   -3.3350   -2.6470   -4.9020 C   0  0  0  0  0  0  0  0  0  0  0  0
   -2.5110   -1.9480   -2.7240 C   0  0  0  0  0  0  0  0  0  0  0  0
   -2.7830   -1.2510   -1.4420 C   0  0  2  0  0  0  0  0  0  0  0  0
   -1.5630   -1.0770   -0.6530 N   0  0  0  0  0  0  0  0  0  0  0  0
   -3.8260   -1.9080   -0.6160 C   0  0  0  0  0  0  0  0  0  0  0  0
   -4.9930   -2.1690   -0.9790 O   0  0  0  0  0  0  0  0  0  0  0  0
   -3.5450   -2.3020    0.7150 O   0  0  0  0  0  0  0  0  0  0  0  0
   -3.5880    0.0340   -3.8730 H   0  0  0  0  0  0  0  0  0  0  0  0
   -5.1550   -0.4370   -3.0880 H   0  0  0  0  0  0  0  0  0  0  0  0
   -4.8380   -0.7840   -4.8510 H   0  0  0  0  0  0  0  0  0  0  0  0
   -4.5140   -2.7910   -3.1020 H   0  0  0  0  0  0  0  0  0  0  0  0
   -2.4800   -3.3250   -4.7220 H   0  0  0  0  0  0  0  0  0  0  0  0
   -2.9780   -1.7840   -5.4960 H   0  0  0  0  0  0  0  0  0  0  0  0
   -4.1960   -3.1080   -5.3900 H   0  0  0  0  0  0  0  0  0  0  0  0
   -1.8440   -1.2890   -3.3540 H   0  0  0  0  0  0  0  0  0  0  0  0
   -2.0200   -2.9350   -2.5440 H   0  0  0  0  0  0  0  0  0  0  0  0
   -3.1430   -0.2280   -1.6710 H   0  0  0  0  0  0  0  0  0  0  0  0
   -1.0490   -1.9010   -0.3150 H   0  0  0  0  0  0  0  0  0  0  0  0
  1 10  1  0  0  0  0
  1  9  1  0  0  0  0
  2  3  2  0  0  0  0
  2  1  1  0  0  0  0
  4  2  1  0  0  0  0
  5 13  1  1  0  0  0
  5  4  1  0  0  0  0
  6 15  1  0  0  0  0
  6  5  1  0  0  0  0
  7  5  1  0  0  0  0
  7  8  2  0  0  0  0
 11  4  1  0  0  0  0
 12  4  1  0  0  0  0
 14  6  1  0  0  0  0
 16  7  1  0  0  0  0
 17 16  1  0  0  0  0
 17 26  1  1  0  0  0
 18 19  1  0  0  0  0
 18 17  1  0  0  0  0
 19 30  1  0  0  0  0
 19 20  1  0  0  0  0
 20 32  1  0  0  0  0
 20 21  1  0  0  0  0
 21 34  1  0  0  0  0
 21 33  1  0  0  0  0
 21 22  1  0  0  0  0
 22 36  1  0  0  0  0
 23 17  1  0  0  0  0
 24 23  2  0  0  0  0
 25 16  1  0  0  0  0
 27 18  1  0  0  0  0
 28 18  1  0  0  0  0
 29 19  1  0  0  0  0
 31 20  1  0  0  0  0
 35 22  1  0  0  0  0
 37 38  1  0  0  0  0
 37 47  1  0  0  0  0
 38 49  1  0  0  0  0
 38 40  1  0  0  0  0
 39 50  1  0  0  0  0
 39 38  1  0  0  0  0
 40 54  1  0  0  0  0
 40 41  1  0  0  0  0
 41 55  1  6  0  0  0
 41 42  1  0  0  0  0
 41 43  1  0  0  0  0
 42 23  1  0  0  0  0
 42 56  1  0  0  0  0
 43 45  1  0  0  0  0
 44 43  2  0  0  0  0
 46 37  1  0  0  0  0
 48 37  1  0  0  0  0
 51 39  1  0  0  0  0
 52 39  1  0  0  0  0
 53 40  1  0  0  0  0
M  END
$$$$
