NKM.pdb
 OpenBabel07022418103D

 54 53  0  0  1  0  0  0  0  0999 V2000
    1.8900   -2.6050   -2.8430 N   0  0  0  0  0  0  0  0  0  0  0  0
    1.3690   -3.0880   -1.6150 C   0  0  0  0  0  0  0  0  0  0  0  0
    2.1390   -3.3410   -0.6570 O   0  0  0  0  0  0  0  0  0  0  0  0
   -0.0730   -3.3100   -1.4160 C   0  0  0  0  0  0  0  0  0  0  0  0
   -0.8900   -2.9730   -2.6310 C   0  0  2  0  0  0  0  0  0  0  0  0
   -0.4850   -3.7800   -3.7400 N   0  0  0  0  0  0  0  0  0  0  0  0
   -0.7530   -1.5370   -3.0020 C   0  0  0  0  0  0  0  0  0  0  0  0
   -0.3320   -1.2000   -4.1480 O   0  0  0  0  0  0  0  0  0  0  0  0
    2.3080   -1.6570   -2.8700 H   0  0  0  0  0  0  0  0  0  0  0  0
    1.8530   -3.1850   -3.6880 H   0  0  0  0  0  0  0  0  0  0  0  0
   -0.2460   -4.3930   -1.2020 H   0  0  0  0  0  0  0  0  0  0  0  0
   -0.4480   -2.7590   -0.5270 H   0  0  0  0  0  0  0  0  0  0  0  0
   -1.9550   -3.2210   -2.3790 H   0  0  0  0  0  0  0  0  0  0  0  0
   -0.9010   -3.4130   -4.6070 H   0  0  0  0  0  0  0  0  0  0  0  0
   -0.6640   -4.7800   -3.5770 H   0  0  0  0  0  0  0  0  0  0  0  0
   -1.0930   -0.5060   -2.0720 N   0  0  0  0  0  0  0  0  0  0  0  0
   -0.9490    0.8780   -2.4600 C   0  0  1  0  0  0  0  0  0  0  0  0
   -2.2620    1.6320   -2.4270 C   0  0  0  0  0  0  0  0  0  0  0  0
   -2.8620    1.6240   -1.0350 C   0  0  0  0  0  0  0  0  0  0  0  0
   -4.1680    2.3810   -1.0320 C   0  0  0  0  0  0  0  0  0  0  0  0
   -4.7720    2.3750    0.3600 C   0  0  0  0  0  0  0  0  0  0  0  0
   -6.0170    3.0860    0.4090 N   0  0  0  0  0  0  0  0  0  0  0  0
    0.0340    1.5870   -1.5990 C   0  0  0  0  0  0  0  0  0  0  0  0
    0.2510    2.8040   -1.8330 O   0  0  0  0  0  0  0  0  0  0  0  0
   -1.4320   -0.8180   -1.1460 H   0  0  0  0  0  0  0  0  0  0  0  0
   -0.5700    0.9430   -3.5010 H   0  0  0  0  0  0  0  0  0  0  0  0
   -2.0450    2.6710   -2.7110 H   0  0  0  0  0  0  0  0  0  0  0  0
   -2.9960    1.2380   -3.1370 H   0  0  0  0  0  0  0  0  0  0  0  0
   -3.0190    0.5610   -0.7660 H   0  0  0  0  0  0  0  0  0  0  0  0
   -2.1940    2.1050   -0.2990 H   0  0  0  0  0  0  0  0  0  0  0  0
   -4.8620    1.8630   -1.7360 H   0  0  0  0  0  0  0  0  0  0  0  0
   -4.0130    3.4290   -1.3350 H   0  0  0  0  0  0  0  0  0  0  0  0
   -4.0440    2.8670    1.0460 H   0  0  0  0  0  0  0  0  0  0  0  0
   -4.9380    1.3190    0.6850 H   0  0  0  0  0  0  0  0  0  0  0  0
   -5.8190    4.0980    0.6540 H   0  0  0  0  0  0  0  0  0  0  0  0
   -6.5080    3.0570   -0.5070 H   0  0  0  0  0  0  0  0  0  0  0  0
    2.1300   -2.3100    2.9710 C   0  0  0  0  0  0  0  0  0  0  0  0
    2.5030   -0.6750    2.2770 S   0  0  0  0  0  0  0  0  0  0  0  0
    0.9810    0.3110    2.3100 C   0  0  0  0  0  0  0  0  0  0  0  0
    1.2110    1.6970    1.7440 C   0  0  0  0  0  0  0  0  0  0  0  0
    1.6850    1.6380    0.3040 C   0  0  2  0  0  0  0  0  0  0  0  0
    0.7360    0.9890   -0.5420 N   0  0  0  0  0  0  0  0  0  0  0  0
    3.0530    1.0770    0.1850 C   0  0  0  0  0  0  0  0  0  0  0  0
    3.3190    0.1250   -0.5930 O   0  0  0  0  0  0  0  0  0  0  0  0
    4.1040    1.5860    0.9340 O   0  0  0  0  0  0  0  0  0  0  0  0
    2.8810   -3.0730    2.6290 H   0  0  0  0  0  0  0  0  0  0  0  0
    2.1420   -2.2280    4.0760 H   0  0  0  0  0  0  0  0  0  0  0  0
    1.1450   -2.6890    2.6380 H   0  0  0  0  0  0  0  0  0  0  0  0
    0.1220   -0.1930    1.8700 H   0  0  0  0  0  0  0  0  0  0  0  0
    0.7370    0.4650    3.3960 H   0  0  0  0  0  0  0  0  0  0  0  0
    1.8950    2.2870    2.3580 H   0  0  0  0  0  0  0  0  0  0  0  0
    0.2430    2.2390    1.7250 H   0  0  0  0  0  0  0  0  0  0  0  0
    1.7590    2.7030   -0.0350 H   0  0  0  0  0  0  0  0  0  0  0  0
    0.5400   -0.0370   -0.3610 H   0  0  0  0  0  0  0  0  0  0  0  0
  1  2  1  0  0  0  0
  2  4  1  0  0  0  0
  2  3  2  0  0  0  0
  4 11  1  0  0  0  0
  4 12  1  0  0  0  0
  5 13  1  1  0  0  0
  5  4  1  0  0  0  0
  6 15  1  0  0  0  0
  6  5  1  0  0  0  0
  7  5  1  0  0  0  0
  7 16  1  0  0  0  0
  8  7  2  0  0  0  0
  9  1  1  0  0  0  0
 10  1  1  0  0  0  0
 14  6  1  0  0  0  0
 16 25  1  0  0  0  0
 17 26  1  6  0  0  0
 17 18  1  0  0  0  0
 17 16  1  0  0  0  0
 17 23  1  0  0  0  0
 18 19  1  0  0  0  0
 19 20  1  0  0  0  0
 19 29  1  0  0  0  0
 19 30  1  0  0  0  0
 20 21  1  0  0  0  0
 21 22  1  0  0  0  0
 21 34  1  0  0  0  0
 21 33  1  0  0  0  0
 22 35  1  0  0  0  0
 23 42  1  0  0  0  0
 24 23  2  0  0  0  0
 27 18  1  0  0  0  0
 28 18  1  0  0  0  0
 31 20  1  0  0  0  0
 32 20  1  0  0  0  0
 36 22  1  0  0  0  0
 37 47  1  0  0  0  0
 38 39  1  0  0  0  0
 38 37  1  0  0  0  0
 39 50  1  0  0  0  0
 40 39  1  0  0  0  0
 40 51  1  0  0  0  0
 41 53  1  6  0  0  0
 41 40  1  0  0  0  0
 42 54  1  0  0  0  0
 42 41  1  0  0  0  0
 43 41  1  0  0  0  0
 43 45  1  0  0  0  0
 44 43  2  0  0  0  0
 46 37  1  0  0  0  0
 48 37  1  0  0  0  0
 49 39  1  0  0  0  0
 52 40  1  0  0  0  0
M  END
$$$$
