NKP.pdb
 OpenBabel07022418103D

 51 51  0  0  1  0  0  0  0  0999 V2000
    2.8950   -5.8830    3.2700 N   0  0  0  0  0  0  0  0  0  0  0  0
    3.1560   -4.6840    3.9750 C   0  0  0  0  0  0  0  0  0  0  0  0
    4.0510   -4.6830    4.8480 O   0  0  0  0  0  0  0  0  0  0  0  0
    2.3710   -3.4690    3.6650 C   0  0  0  0  0  0  0  0  0  0  0  0
    1.4000   -3.7790    2.5630 C   0  0  2  0  0  0  0  0  0  0  0  0
    2.1720   -4.1970    1.4060 N   0  0  0  0  0  0  0  0  0  0  0  0
    0.6340   -2.5410    2.2450 C   0  0  0  0  0  0  0  0  0  0  0  0
   -0.1230   -1.9910    3.0920 O   0  0  0  0  0  0  0  0  0  0  0  0
    1.9910   -6.3990    3.3190 H   0  0  0  0  0  0  0  0  0  0  0  0
    3.6530   -6.2690    2.6670 H   0  0  0  0  0  0  0  0  0  0  0  0
    1.8870   -3.0330    4.5690 H   0  0  0  0  0  0  0  0  0  0  0  0
    3.0990   -2.6810    3.3270 H   0  0  0  0  0  0  0  0  0  0  0  0
    0.7280   -4.6220    2.8120 H   0  0  0  0  0  0  0  0  0  0  0  0
    1.5620   -4.4650    0.6020 H   0  0  0  0  0  0  0  0  0  0  0  0
    2.8930   -3.4860    1.1280 H   0  0  0  0  0  0  0  0  0  0  0  0
    0.7110   -1.9140    0.9810 N   0  0  0  0  0  0  0  0  0  0  0  0
   -0.0290   -0.6950    0.6290 C   0  0  1  0  0  0  0  0  0  0  0  0
    0.9590    0.3940    0.3310 C   0  0  0  0  0  0  0  0  0  0  0  0
    0.3330    1.6790   -0.0600 C   0  0  0  0  0  0  0  0  0  0  0  0
    1.5050    2.6690   -0.2790 C   0  0  0  0  0  0  0  0  0  0  0  0
    2.3220    2.8510    0.9550 C   0  0  0  0  0  0  0  0  0  0  0  0
    1.5500    3.3660    2.0740 N   0  0  0  0  0  0  0  0  0  0  0  0
   -0.9070   -1.0890   -0.4820 C   0  0  0  0  0  0  0  0  0  0  0  0
   -0.6330   -2.1310   -1.1970 O   0  0  0  0  0  0  0  0  0  0  0  0
    1.3120   -2.3120    0.2410 H   0  0  0  0  0  0  0  0  0  0  0  0
   -0.6260   -0.4040    1.5020 H   0  0  0  0  0  0  0  0  0  0  0  0
    1.6820    0.1110   -0.4610 H   0  0  0  0  0  0  0  0  0  0  0  0
    1.4930    0.5820    1.3100 H   0  0  0  0  0  0  0  0  0  0  0  0
   -0.2950    2.1730    0.6920 H   0  0  0  0  0  0  0  0  0  0  0  0
   -0.1380    1.6510   -1.0740 H   0  0  0  0  0  0  0  0  0  0  0  0
    2.1490    2.2020   -1.0480 H   0  0  0  0  0  0  0  0  0  0  0  0
    1.1510    3.6270   -0.6590 H   0  0  0  0  0  0  0  0  0  0  0  0
    2.9500    1.9910    1.2360 H   0  0  0  0  0  0  0  0  0  0  0  0
    3.0590    3.6770    0.7220 H   0  0  0  0  0  0  0  0  0  0  0  0
    2.2240    3.3690    2.8960 H   0  0  0  0  0  0  0  0  0  0  0  0
    1.3060    4.3750    1.9080 H   0  0  0  0  0  0  0  0  0  0  0  0
   -2.0670   -0.4020   -0.8370 N   0  0  0  0  0  0  0  0  0  0  0  0
   -2.6370    0.7540   -0.1780 C   0  0  0  0  0  0  0  0  0  0  0  0
   -4.1540    0.4620   -0.1790 C   0  0  0  0  0  0  0  0  0  0  0  0
   -4.3220   -0.6690   -1.1670 C   0  0  0  0  0  0  0  0  0  0  0  0
   -3.0120   -0.6510   -1.9200 C   0  0  1  0  0  0  0  0  0  0  0  0
   -2.9420    0.3470   -2.9820 C   0  0  0  0  0  0  0  0  0  0  0  0
   -2.1750    1.3210   -3.0100 O   0  0  0  0  0  0  0  0  0  0  0  0
   -3.8140    0.2010   -4.0670 O   0  0  0  0  0  0  0  0  0  0  0  0
   -2.4650    1.7040   -0.7270 H   0  0  0  0  0  0  0  0  0  0  0  0
   -2.2900    0.7680    0.8720 H   0  0  0  0  0  0  0  0  0  0  0  0
   -4.4280    0.0570    0.8300 H   0  0  0  0  0  0  0  0  0  0  0  0
   -4.7270    1.3530   -0.4420 H   0  0  0  0  0  0  0  0  0  0  0  0
   -5.1110   -0.4220   -1.9170 H   0  0  0  0  0  0  0  0  0  0  0  0
   -4.5160   -1.6430   -0.6850 H   0  0  0  0  0  0  0  0  0  0  0  0
   -2.8360   -1.6540   -2.3220 H   0  0  0  0  0  0  0  0  0  0  0  0
  1  9  1  0  0  0  0
  1  2  1  0  0  0  0
  2  3  2  0  0  0  0
  4  2  1  0  0  0  0
  4 11  1  0  0  0  0
  5 13  1  1  0  0  0
  5  4  1  0  0  0  0
  6  5  1  0  0  0  0
  7  5  1  0  0  0  0
  7  8  2  0  0  0  0
 10  1  1  0  0  0  0
 12  4  1  0  0  0  0
 14  6  1  0  0  0  0
 15  6  1  0  0  0  0
 16  7  1  0  0  0  0
 17 16  1  0  0  0  0
 17 26  1  1  0  0  0
 18 17  1  0  0  0  0
 18 28  1  0  0  0  0
 19 18  1  0  0  0  0
 19 29  1  0  0  0  0
 20 19  1  0  0  0  0
 20 21  1  0  0  0  0
 21 33  1  0  0  0  0
 21 22  1  0  0  0  0
 22 35  1  0  0  0  0
 23 17  1  0  0  0  0
 24 23  2  0  0  0  0
 25 16  1  0  0  0  0
 27 18  1  0  0  0  0
 30 19  1  0  0  0  0
 31 20  1  0  0  0  0
 32 20  1  0  0  0  0
 34 21  1  0  0  0  0
 36 22  1  0  0  0  0
 37 23  1  0  0  0  0
 37 38  1  0  0  0  0
 38 46  1  0  0  0  0
 39 38  1  0  0  0  0
 39 47  1  0  0  0  0
 40 50  1  0  0  0  0
 40 39  1  0  0  0  0
 41 51  1  6  0  0  0
 41 40  1  0  0  0  0
 41 37  1  0  0  0  0
 42 41  1  0  0  0  0
 43 42  1  0  0  0  0
 44 42  2  0  0  0  0
 45 38  1  0  0  0  0
 48 39  1  0  0  0  0
 49 40  1  0  0  0  0
M  END
$$$$
