NKR.pdb
 OpenBabel07022418103D

 60 59  0  0  1  0  0  0  0  0999 V2000
    1.8220   -2.7790    3.6290 N   0  0  0  0  0  0  0  0  0  0  0  0
    2.7350   -1.9380    4.2900 C   0  0  0  0  0  0  0  0  0  0  0  0
    2.8200   -2.0230    5.5520 O   0  0  0  0  0  0  0  0  0  0  0  0
    3.6220   -0.9370    3.6180 C   0  0  0  0  0  0  0  0  0  0  0  0
    3.0360    0.4750    3.8300 C   0  0  2  0  0  0  0  0  0  0  0  0
    2.9760    0.6980    5.2530 N   0  0  0  0  0  0  0  0  0  0  0  0
    1.6920    0.4210    3.1950 C   0  0  0  0  0  0  0  0  0  0  0  0
    0.6880    0.4020    3.9500 O   0  0  0  0  0  0  0  0  0  0  0  0
    2.0190   -3.8260    3.5820 H   0  0  0  0  0  0  0  0  0  0  0  0
    0.9360   -2.4820    3.1610 H   0  0  0  0  0  0  0  0  0  0  0  0
    3.5370   -1.1260    2.5270 H   0  0  0  0  0  0  0  0  0  0  0  0
    4.6670   -0.9960    3.9430 H   0  0  0  0  0  0  0  0  0  0  0  0
    3.7310    1.1780    3.3660 H   0  0  0  0  0  0  0  0  0  0  0  0
    3.1990    1.7260    5.4140 H   0  0  0  0  0  0  0  0  0  0  0  0
    3.7790    0.1860    5.6720 H   0  0  0  0  0  0  0  0  0  0  0  0
    1.4800    0.3920    1.8120 N   0  0  0  0  0  0  0  0  0  0  0  0
    0.1970    0.3400    1.1340 C   0  0  1  0  0  0  0  0  0  0  0  0
    0.0870    1.3260    0.0370 C   0  0  0  0  0  0  0  0  0  0  0  0
    0.2390    2.7610    0.2390 C   0  0  0  0  0  0  0  0  0  0  0  0
   -0.6020    3.6400    1.0160 C   0  0  0  0  0  0  0  0  0  0  0  0
   -0.8230    3.5440    2.4620 C   0  0  0  0  0  0  0  0  0  0  0  0
   -1.4840    2.3560    2.8710 N   0  0  0  0  0  0  0  0  0  0  0  0
    0.2470   -1.0380    0.4350 C   0  0  0  0  0  0  0  0  0  0  0  0
    1.2500   -1.7420    0.5530 O   0  0  0  0  0  0  0  0  0  0  0  0
    2.3190    0.4080    1.1860 H   0  0  0  0  0  0  0  0  0  0  0  0
   -0.6760    0.2960    1.7540 H   0  0  0  0  0  0  0  0  0  0  0  0
    0.7930    0.9680   -0.7920 H   0  0  0  0  0  0  0  0  0  0  0  0
   -0.9270    1.1330   -0.4820 H   0  0  0  0  0  0  0  0  0  0  0  0
    0.2350    3.2090   -0.8460 H   0  0  0  0  0  0  0  0  0  0  0  0
    1.3690    2.9840    0.4770 H   0  0  0  0  0  0  0  0  0  0  0  0
   -1.6240    3.7420    0.4850 H   0  0  0  0  0  0  0  0  0  0  0  0
   -0.2220    4.7260    0.8390 H   0  0  0  0  0  0  0  0  0  0  0  0
   -1.4890    4.3990    2.8340 H   0  0  0  0  0  0  0  0  0  0  0  0
    0.1160    3.7270    3.0650 H   0  0  0  0  0  0  0  0  0  0  0  0
   -2.2510    2.0480    2.2670 H   0  0  0  0  0  0  0  0  0  0  0  0
   -1.7010    2.3110    3.8860 H   0  0  0  0  0  0  0  0  0  0  0  0
   -2.1470   -5.2770   -4.5660 N   0  0  0  0  0  0  0  0  0  0  0  0
   -2.8840   -4.3770   -3.7110 C   0  0  0  0  0  0  0  0  0  0  0  0
   -3.3360   -4.7600   -2.5730 N   0  0  0  0  0  0  0  0  0  0  0  0
   -3.1400   -3.0640   -4.1320 N   0  0  0  0  0  0  0  0  0  0  0  0
   -2.8860   -1.8930   -3.3530 C   0  0  0  0  0  0  0  0  0  0  0  0
   -1.4320   -1.6090   -3.2240 C   0  0  0  0  0  0  0  0  0  0  0  0
   -0.6470   -2.6120   -2.4740 C   0  0  0  0  0  0  0  0  0  0  0  0
   -1.0380   -2.6770   -1.0370 C   0  0  2  0  0  0  0  0  0  0  0  0
   -0.8560   -1.4550   -0.3210 N   0  0  0  0  0  0  0  0  0  0  0  0
   -0.4660   -3.8920   -0.4260 C   0  0  0  0  0  0  0  0  0  0  0  0
   -0.5220   -4.9520   -1.0990 O   0  0  0  0  0  0  0  0  0  0  0  0
    0.1080   -3.9200    0.8120 O   0  0  0  0  0  0  0  0  0  0  0  0
   -2.6850   -5.7220   -5.3360 H   0  0  0  0  0  0  0  0  0  0  0  0
   -1.1270   -5.4630   -4.4070 H   0  0  0  0  0  0  0  0  0  0  0  0
   -3.8650   -4.2150   -1.8960 H   0  0  0  0  0  0  0  0  0  0  0  0
   -3.5520   -2.8960   -5.1190 H   0  0  0  0  0  0  0  0  0  0  0  0
   -3.3990   -0.9910   -3.8000 H   0  0  0  0  0  0  0  0  0  0  0  0
   -3.3270   -2.0110   -2.3250 H   0  0  0  0  0  0  0  0  0  0  0  0
   -1.3640   -0.5970   -2.7260 H   0  0  0  0  0  0  0  0  0  0  0  0
   -0.9610   -1.4170   -4.2420 H   0  0  0  0  0  0  0  0  0  0  0  0
    0.4750   -2.4220   -2.5780 H   0  0  0  0  0  0  0  0  0  0  0  0
   -0.7440   -3.6430   -2.8740 H   0  0  0  0  0  0  0  0  0  0  0  0
   -2.1600   -2.8980   -0.9910 H   0  0  0  0  0  0  0  0  0  0  0  0
   -1.6630   -0.7500   -0.3570 H   0  0  0  0  0  0  0  0  0  0  0  0
  1  2  1  0  0  0  0
  2  3  2  0  0  0  0
  4  5  1  0  0  0  0
  4 12  1  0  0  0  0
  4  2  1  0  0  0  0
  5 13  1  6  0  0  0
  5  6  1  0  0  0  0
  6 14  1  0  0  0  0
  6 15  1  0  0  0  0
  7  5  1  0  0  0  0
  7  8  2  0  0  0  0
  9  1  1  0  0  0  0
 10  1  1  0  0  0  0
 11  4  1  0  0  0  0
 16  7  1  0  0  0  0
 17 26  1  1  0  0  0
 17 16  1  0  0  0  0
 18 19  1  0  0  0  0
 18 17  1  0  0  0  0
 19 30  1  0  0  0  0
 19 20  1  0  0  0  0
 20 21  1  0  0  0  0
 21 33  1  0  0  0  0
 21 22  1  0  0  0  0
 21 34  1  0  0  0  0
 22 36  1  0  0  0  0
 23 24  2  0  0  0  0
 23 17  1  0  0  0  0
 25 16  1  0  0  0  0
 27 18  1  0  0  0  0
 28 18  1  0  0  0  0
 29 19  1  0  0  0  0
 31 20  1  0  0  0  0
 32 20  1  0  0  0  0
 35 22  1  0  0  0  0
 37 50  1  0  0  0  0
 37 38  1  0  0  0  0
 38 39  2  0  0  0  0
 39 51  1  0  0  0  0
 40 38  1  0  0  0  0
 40 41  1  0  0  0  0
 41 42  1  0  0  0  0
 41 54  1  0  0  0  0
 42 55  1  0  0  0  0
 42 43  1  0  0  0  0
 43 44  1  0  0  0  0
 44 59  1  6  0  0  0
 44 46  1  0  0  0  0
 44 45  1  0  0  0  0
 45 23  1  0  0  0  0
 46 48  1  0  0  0  0
 47 46  2  0  0  0  0
 49 37  1  0  0  0  0
 52 40  1  0  0  0  0
 53 41  1  0  0  0  0
 56 42  1  0  0  0  0
 57 43  1  0  0  0  0
 58 43  1  0  0  0  0
 60 45  1  0  0  0  0
M  END
$$$$
