NKS.pdb
 OpenBabel07022418103D

 48 47  0  0  1  0  0  0  0  0999 V2000
   -0.3460   -5.2790    4.3900 N   0  0  0  0  0  0  0  0  0  0  0  0
   -0.1900   -3.8890    4.2660 C   0  0  0  0  0  0  0  0  0  0  0  0
   -0.4120   -3.1510    5.2850 O   0  0  0  0  0  0  0  0  0  0  0  0
    0.2200   -3.2790    2.9970 C   0  0  0  0  0  0  0  0  0  0  0  0
    0.3130   -1.7590    3.1360 C   0  0  2  0  0  0  0  0  0  0  0  0
   -0.9930   -1.2690    3.5150 N   0  0  0  0  0  0  0  0  0  0  0  0
    0.7690   -1.1920    1.8200 C   0  0  0  0  0  0  0  0  0  0  0  0
    1.8950   -1.5680    1.4200 O   0  0  0  0  0  0  0  0  0  0  0  0
   -0.9460   -5.6710    5.1390 H   0  0  0  0  0  0  0  0  0  0  0  0
    0.1440   -5.9160    3.7280 H   0  0  0  0  0  0  0  0  0  0  0  0
   -0.5690   -3.4810    2.2440 H   0  0  0  0  0  0  0  0  0  0  0  0
    1.1730   -3.6900    2.5990 H   0  0  0  0  0  0  0  0  0  0  0  0
    1.0560   -1.4750    3.8840 H   0  0  0  0  0  0  0  0  0  0  0  0
   -1.7340   -1.5700    2.8470 H   0  0  0  0  0  0  0  0  0  0  0  0
   -0.9870   -0.2400    3.6610 H   0  0  0  0  0  0  0  0  0  0  0  0
   -0.0920   -0.3110    1.1700 N   0  0  0  0  0  0  0  0  0  0  0  0
    0.1510    0.3460   -0.0650 C   0  0  1  0  0  0  0  0  0  0  0  0
    1.6210    0.4660   -0.4000 C   0  0  0  0  0  0  0  0  0  0  0  0
    2.4240    1.2710    0.5630 C   0  0  0  0  0  0  0  0  0  0  0  0
    1.9600    2.7220    0.6630 C   0  0  0  0  0  0  0  0  0  0  0  0
    2.8980    3.3770    1.6740 C   0  0  0  0  0  0  0  0  0  0  0  0
    2.8240    2.7310    2.9610 N   0  0  0  0  0  0  0  0  0  0  0  0
   -0.6650   -0.1870   -1.1730 C   0  0  0  0  0  0  0  0  0  0  0  0
   -0.6180    0.2360   -2.3420 O   0  0  0  0  0  0  0  0  0  0  0  0
   -1.0300   -0.0970    1.6310 H   0  0  0  0  0  0  0  0  0  0  0  0
   -0.1380    1.4570    0.0340 H   0  0  0  0  0  0  0  0  0  0  0  0
    1.7330    1.0020   -1.4060 H   0  0  0  0  0  0  0  0  0  0  0  0
    2.0820   -0.5180   -0.5480 H   0  0  0  0  0  0  0  0  0  0  0  0
    3.4720    1.3190    0.1420 H   0  0  0  0  0  0  0  0  0  0  0  0
    2.5010    0.9220    1.5850 H   0  0  0  0  0  0  0  0  0  0  0  0
    2.0900    3.2570   -0.2970 H   0  0  0  0  0  0  0  0  0  0  0  0
    0.9310    2.8340    1.0050 H   0  0  0  0  0  0  0  0  0  0  0  0
    2.6350    4.4440    1.8290 H   0  0  0  0  0  0  0  0  0  0  0  0
    3.9460    3.3570    1.3100 H   0  0  0  0  0  0  0  0  0  0  0  0
    1.9820    2.9480    3.4970 H   0  0  0  0  0  0  0  0  0  0  0  0
    3.6960    2.8160    3.5070 H   0  0  0  0  0  0  0  0  0  0  0  0
   -3.2000    0.2820   -2.8050 O   0  0  0  0  0  0  0  0  0  0  0  0
   -3.5910   -0.9440   -2.3210 C   0  0  0  0  0  0  0  0  0  0  0  0
   -2.4160   -1.8480   -1.9440 C   0  0  2  0  0  0  0  0  0  0  0  0
   -1.5830   -1.2650   -0.9190 N   0  0  0  0  0  0  0  0  0  0  0  0
   -1.6850   -2.3080   -3.1280 C   0  0  0  0  0  0  0  0  0  0  0  0
   -0.4460   -2.2100   -3.1830 O   0  0  0  0  0  0  0  0  0  0  0  0
   -2.3620   -2.8540   -4.1960 O   0  0  0  0  0  0  0  0  0  0  0  0
   -2.9910    0.2190   -3.7600 H   0  0  0  0  0  0  0  0  0  0  0  0
   -4.2350   -0.8040   -1.4270 H   0  0  0  0  0  0  0  0  0  0  0  0
   -4.1960   -1.5150   -3.0530 H   0  0  0  0  0  0  0  0  0  0  0  0
   -2.9350   -2.7350   -1.4470 H   0  0  0  0  0  0  0  0  0  0  0  0
   -1.6400   -1.6310    0.0520 H   0  0  0  0  0  0  0  0  0  0  0  0
  1  9  1  0  0  0  0
  2  1  1  0  0  0  0
  2  3  2  0  0  0  0
  4  5  1  0  0  0  0
  4  2  1  0  0  0  0
  5  6  1  0  0  0  0
  5 13  1  1  0  0  0
  6 15  1  0  0  0  0
  7  5  1  0  0  0  0
  8  7  2  0  0  0  0
 10  1  1  0  0  0  0
 11  4  1  0  0  0  0
 12  4  1  0  0  0  0
 14  6  1  0  0  0  0
 16 25  1  0  0  0  0
 16  7  1  0  0  0  0
 17 26  1  1  0  0  0
 17 16  1  0  0  0  0
 18 17  1  0  0  0  0
 18 19  1  0  0  0  0
 19 20  1  0  0  0  0
 19 30  1  0  0  0  0
 20 32  1  0  0  0  0
 20 21  1  0  0  0  0
 21 33  1  0  0  0  0
 21 22  1  0  0  0  0
 22 35  1  0  0  0  0
 22 36  1  0  0  0  0
 23 40  1  0  0  0  0
 23 17  1  0  0  0  0
 24 23  2  0  0  0  0
 27 18  1  0  0  0  0
 28 18  1  0  0  0  0
 29 19  1  0  0  0  0
 31 20  1  0  0  0  0
 34 21  1  0  0  0  0
 37 38  1  0  0  0  0
 38 39  1  0  0  0  0
 38 45  1  0  0  0  0
 39 47  1  1  0  0  0
 39 40  1  0  0  0  0
 40 48  1  0  0  0  0
 41 39  1  0  0  0  0
 42 41  1  0  0  0  0
 43 41  2  0  0  0  0
 44 37  1  0  0  0  0
 46 38  1  0  0  0  0
M  END
$$$$
