NKT.pdb
 OpenBabel07022418103D

 51 50  0  0  1  0  0  0  0  0999 V2000
    0.5180   -5.1130    0.5030 N   0  0  0  0  0  0  0  0  0  0  0  0
    0.9640   -4.0650    1.3540 C   0  0  0  0  0  0  0  0  0  0  0  0
    0.3770   -3.9200    2.4510 O   0  0  0  0  0  0  0  0  0  0  0  0
    2.0830   -3.2300    0.8810 C   0  0  0  0  0  0  0  0  0  0  0  0
    2.4700   -2.1560    1.8600 C   0  0  2  0  0  0  0  0  0  0  0  0
    2.8850   -2.6870    3.1320 N   0  0  0  0  0  0  0  0  0  0  0  0
    1.3740   -1.1660    2.0600 C   0  0  0  0  0  0  0  0  0  0  0  0
    0.9610   -0.9210    3.2400 O   0  0  0  0  0  0  0  0  0  0  0  0
   -0.4780   -5.3290    0.3030 H   0  0  0  0  0  0  0  0  0  0  0  0
    1.2410   -5.7060    0.0460 H   0  0  0  0  0  0  0  0  0  0  0  0
    1.7770   -2.7470   -0.0620 H   0  0  0  0  0  0  0  0  0  0  0  0
    2.9630   -3.8940    0.7610 H   0  0  0  0  0  0  0  0  0  0  0  0
    3.3450   -1.6200    1.4240 H   0  0  0  0  0  0  0  0  0  0  0  0
    3.1100   -3.6860    3.0860 H   0  0  0  0  0  0  0  0  0  0  0  0
    2.3190   -2.3790    3.9280 H   0  0  0  0  0  0  0  0  0  0  0  0
    0.7520   -0.4700    1.0140 N   0  0  0  0  0  0  0  0  0  0  0  0
   -0.3160    0.4950    1.2110 C   0  0  1  0  0  0  0  0  0  0  0  0
    0.0650    1.8670    0.7240 C   0  0  0  0  0  0  0  0  0  0  0  0
    1.2820    2.4030    1.4490 C   0  0  0  0  0  0  0  0  0  0  0  0
    1.6560    3.7840    0.9490 C   0  0  0  0  0  0  0  0  0  0  0  0
    2.8700    4.3090    1.6780 C   0  0  0  0  0  0  0  0  0  0  0  0
    2.6820    4.4230    3.0940 N   0  0  0  0  0  0  0  0  0  0  0  0
   -1.5510   -0.0030    0.5530 C   0  0  0  0  0  0  0  0  0  0  0  0
   -2.6120    0.6720    0.5930 O   0  0  0  0  0  0  0  0  0  0  0  0
    1.0700   -0.6500    0.0370 H   0  0  0  0  0  0  0  0  0  0  0  0
   -0.5630    0.5980    2.2940 H   0  0  0  0  0  0  0  0  0  0  0  0
   -0.7820    2.5470    1.0130 H   0  0  0  0  0  0  0  0  0  0  0  0
    0.1570    1.9520   -0.3660 H   0  0  0  0  0  0  0  0  0  0  0  0
    2.0990    1.6850    1.3150 H   0  0  0  0  0  0  0  0  0  0  0  0
    1.0990    2.5080    2.5380 H   0  0  0  0  0  0  0  0  0  0  0  0
    0.8430    4.5010    1.0310 H   0  0  0  0  0  0  0  0  0  0  0  0
    1.9320    3.7170   -0.1270 H   0  0  0  0  0  0  0  0  0  0  0  0
    3.7460    3.6130    1.5270 H   0  0  0  0  0  0  0  0  0  0  0  0
    3.2080    5.2820    1.2770 H   0  0  0  0  0  0  0  0  0  0  0  0
    2.6580    3.5040    3.5890 H   0  0  0  0  0  0  0  0  0  0  0  0
    1.9310    5.0620    3.3810 H   0  0  0  0  0  0  0  0  0  0  0  0
   -3.8780   -2.5400   -2.8290 C   0  0  0  0  0  0  0  0  0  0  0  0
   -2.5720   -2.0430   -2.2480 C   0  0  1  0  0  0  0  0  0  0  0  0
   -2.1500   -0.9270   -2.9530 O   0  0  0  0  0  0  0  0  0  0  0  0
   -2.8180   -1.7290   -0.7870 C   0  0  2  0  0  0  0  0  0  0  0  0
   -1.6060   -1.2410   -0.1430 N   0  0  0  0  0  0  0  0  0  0  0  0
   -3.2180   -2.9770   -0.0940 C   0  0  0  0  0  0  0  0  0  0  0  0
   -2.5480   -3.4340    0.8660 O   0  0  0  0  0  0  0  0  0  0  0  0
   -4.3430   -3.7090   -0.4580 O   0  0  0  0  0  0  0  0  0  0  0  0
   -3.9810   -2.2570   -3.9000 H   0  0  0  0  0  0  0  0  0  0  0  0
   -4.6980   -2.0580   -2.2640 H   0  0  0  0  0  0  0  0  0  0  0  0
   -3.9230   -3.6600   -2.7550 H   0  0  0  0  0  0  0  0  0  0  0  0
   -1.8440   -2.8770   -2.3100 H   0  0  0  0  0  0  0  0  0  0  0  0
   -2.4640   -0.0840   -2.5550 H   0  0  0  0  0  0  0  0  0  0  0  0
   -3.6570   -1.0150   -0.6570 H   0  0  0  0  0  0  0  0  0  0  0  0
   -0.7330   -1.8060   -0.1810 H   0  0  0  0  0  0  0  0  0  0  0  0
  1  2  1  0  0  0  0
  2  3  2  0  0  0  0
  4  2  1  0  0  0  0
  4  5  1  0  0  0  0
  5 13  1  6  0  0  0
  5  7  1  0  0  0  0
  5  6  1  0  0  0  0
  6 15  1  0  0  0  0
  7  8  2  0  0  0  0
  9  1  1  0  0  0  0
 10  1  1  0  0  0  0
 11  4  1  0  0  0  0
 12  4  1  0  0  0  0
 14  6  1  0  0  0  0
 16 17  1  0  0  0  0
 16  7  1  0  0  0  0
 17 26  1  1  0  0  0
 18 27  1  0  0  0  0
 18 17  1  0  0  0  0
 18 19  1  0  0  0  0
 19 30  1  0  0  0  0
 20 31  1  0  0  0  0
 20 19  1  0  0  0  0
 20 21  1  0  0  0  0
 21 22  1  0  0  0  0
 22 36  1  0  0  0  0
 22 35  1  0  0  0  0
 23 24  2  0  0  0  0
 23 17  1  0  0  0  0
 25 16  1  0  0  0  0
 28 18  1  0  0  0  0
 29 19  1  0  0  0  0
 32 20  1  0  0  0  0
 33 21  1  0  0  0  0
 34 21  1  0  0  0  0
 37 47  1  0  0  0  0
 37 46  1  0  0  0  0
 37 38  1  0  0  0  0
 38 48  1  6  0  0  0
 38 40  1  0  0  0  0
 39 49  1  0  0  0  0
 39 38  1  0  0  0  0
 40 50  1  1  0  0  0
 40 41  1  0  0  0  0
 40 42  1  0  0  0  0
 41 23  1  0  0  0  0
 42 43  1  0  0  0  0
 44 42  2  0  0  0  0
 45 37  1  0  0  0  0
 51 41  1  0  0  0  0
M  END
$$$$
