NKW.pdb
 OpenBabel07022418103D

 61 62  0  0  1  0  0  0  0  0999 V2000
   -0.5520   -3.2330    2.9730 N   0  0  0  0  0  0  0  0  0  0  0  0
    0.5740   -2.5920    3.5680 C   0  0  0  0  0  0  0  0  0  0  0  0
    0.4950   -2.4050    4.8390 O   0  0  0  0  0  0  0  0  0  0  0  0
    1.7720   -2.1540    2.7950 C   0  0  0  0  0  0  0  0  0  0  0  0
    2.1450   -0.7240    3.0010 C   0  0  2  0  0  0  0  0  0  0  0  0
    2.4020   -0.5320    4.4110 N   0  0  0  0  0  0  0  0  0  0  0  0
    1.1920    0.2740    2.5350 C   0  0  0  0  0  0  0  0  0  0  0  0
    0.6160    1.0220    3.3970 O   0  0  0  0  0  0  0  0  0  0  0  0
   -1.5270   -3.0160    3.3200 H   0  0  0  0  0  0  0  0  0  0  0  0
   -0.5030   -3.9240    2.1980 H   0  0  0  0  0  0  0  0  0  0  0  0
    2.6370   -2.7620    3.2050 H   0  0  0  0  0  0  0  0  0  0  0  0
    1.7080   -2.4620    1.7400 H   0  0  0  0  0  0  0  0  0  0  0  0
    3.1640   -0.5730    2.5070 H   0  0  0  0  0  0  0  0  0  0  0  0
    2.8960   -1.3340    4.8480 H   0  0  0  0  0  0  0  0  0  0  0  0
    1.5340   -0.3720    4.9390 H   0  0  0  0  0  0  0  0  0  0  0  0
    0.8240    0.5210    1.2010 N   0  0  0  0  0  0  0  0  0  0  0  0
   -0.1240    1.5360    0.7650 C   0  0  1  0  0  0  0  0  0  0  0  0
    0.5670    2.5880   -0.0610 C   0  0  0  0  0  0  0  0  0  0  0  0
   -0.3300    3.6510   -0.5200 C   0  0  0  0  0  0  0  0  0  0  0  0
   -1.0450    4.4370    0.5220 C   0  0  0  0  0  0  0  0  0  0  0  0
   -0.1590    5.1740    1.4790 C   0  0  0  0  0  0  0  0  0  0  0  0
    0.6920    6.1250    0.7660 N   0  0  0  0  0  0  0  0  0  0  0  0
   -1.1390    0.8710   -0.0710 C   0  0  0  0  0  0  0  0  0  0  0  0
   -2.1300    1.5040   -0.5660 O   0  0  0  0  0  0  0  0  0  0  0  0
    1.2570   -0.0550    0.4580 H   0  0  0  0  0  0  0  0  0  0  0  0
   -0.6030    1.9380    1.6610 H   0  0  0  0  0  0  0  0  0  0  0  0
    1.4960    2.9680    0.4010 H   0  0  0  0  0  0  0  0  0  0  0  0
    0.9160    2.0380   -0.9860 H   0  0  0  0  0  0  0  0  0  0  0  0
   -1.0440    3.2930   -1.2710 H   0  0  0  0  0  0  0  0  0  0  0  0
    0.3280    4.3750   -1.1230 H   0  0  0  0  0  0  0  0  0  0  0  0
   -1.7390    3.7960    1.1070 H   0  0  0  0  0  0  0  0  0  0  0  0
   -1.6800    5.1870    0.0090 H   0  0  0  0  0  0  0  0  0  0  0  0
   -0.7640    5.7790    2.1750 H   0  0  0  0  0  0  0  0  0  0  0  0
    0.5050    4.5470    2.0800 H   0  0  0  0  0  0  0  0  0  0  0  0
    0.2530    7.0520    0.6770 H   0  0  0  0  0  0  0  0  0  0  0  0
    1.6380    6.2160    1.2080 H   0  0  0  0  0  0  0  0  0  0  0  0
   -1.1110   -0.5110   -0.4020 N   0  0  0  0  0  0  0  0  0  0  0  0
   -2.1560   -1.0920   -1.2660 C   0  0  1  0  0  0  0  0  0  0  0  0
   -1.4240   -1.7760   -2.3990 C   0  0  0  0  0  0  0  0  0  0  0  0
   -0.4940   -2.8310   -1.9850 C   0  0  0  0  0  0  0  0  0  0  0  0
    0.8550   -2.5630   -1.7350 C   0  0  0  0  0  0  0  0  0  0  0  0
    1.4100   -3.7050   -1.3230 N   0  0  0  0  0  0  0  0  0  0  0  0
    0.5130   -4.6980   -1.2890 C   0  0  0  0  0  0  0  0  0  0  0  0
    0.5860   -6.0240   -0.9570 C   0  0  0  0  0  0  0  0  0  0  0  0
   -0.5260   -6.8320   -1.0350 C   0  0  0  0  0  0  0  0  0  0  0  0
   -1.7180   -6.3080   -1.4490 C   0  0  0  0  0  0  0  0  0  0  0  0
   -1.7890   -4.9630   -1.7830 C   0  0  0  0  0  0  0  0  0  0  0  0
   -0.6930   -4.1480   -1.7090 C   0  0  0  0  0  0  0  0  0  0  0  0
   -2.9300   -2.0590   -0.4900 C   0  0  0  0  0  0  0  0  0  0  0  0
   -3.9900   -2.5810   -0.9840 O   0  0  0  0  0  0  0  0  0  0  0  0
   -2.6240   -2.4970    0.7900 O   0  0  0  0  0  0  0  0  0  0  0  0
   -0.3790   -1.1400   -0.0590 H   0  0  0  0  0  0  0  0  0  0  0  0
   -2.7990   -0.2640   -1.6670 H   0  0  0  0  0  0  0  0  0  0  0  0
   -0.8940   -0.9820   -2.9980 H   0  0  0  0  0  0  0  0  0  0  0  0
   -2.1570   -2.2460   -3.1150 H   0  0  0  0  0  0  0  0  0  0  0  0
    1.3180   -1.6040   -1.8630 H   0  0  0  0  0  0  0  0  0  0  0  0
    2.4120   -3.8520   -1.0470 H   0  0  0  0  0  0  0  0  0  0  0  0
    1.5470   -6.4380   -0.6270 H   0  0  0  0  0  0  0  0  0  0  0  0
   -0.4300   -7.8850   -0.7580 H   0  0  0  0  0  0  0  0  0  0  0  0
   -2.6280   -6.9070   -1.5260 H   0  0  0  0  0  0  0  0  0  0  0  0
   -2.7290   -4.5500   -2.1310 H   0  0  0  0  0  0  0  0  0  0  0  0
  1  9  1  0  0  0  0
  1  2  1  0  0  0  0
  2  3  2  0  0  0  0
  4  5  1  0  0  0  0
  4 11  1  0  0  0  0
  4  2  1  0  0  0  0
  5 13  1  6  0  0  0
  5  6  1  0  0  0  0
  6 14  1  0  0  0  0
  6 15  1  0  0  0  0
  7  5  1  0  0  0  0
  7  8  2  0  0  0  0
 10  1  1  0  0  0  0
 12  4  1  0  0  0  0
 16  7  1  0  0  0  0
 17 16  1  0  0  0  0
 17 26  1  1  0  0  0
 18 27  1  0  0  0  0
 18 17  1  0  0  0  0
 19 18  1  0  0  0  0
 19 20  1  0  0  0  0
 20 31  1  0  0  0  0
 20 21  1  0  0  0  0
 21 34  1  0  0  0  0
 21 33  1  0  0  0  0
 22 36  1  0  0  0  0
 22 21  1  0  0  0  0
 23 17  1  0  0  0  0
 24 23  2  0  0  0  0
 25 16  1  0  0  0  0
 28 18  1  0  0  0  0
 29 19  1  0  0  0  0
 30 19  1  0  0  0  0
 32 20  1  0  0  0  0
 35 22  1  0  0  0  0
 37 23  1  0  0  0  0
 37 52  1  0  0  0  0
 38 53  1  6  0  0  0
 38 49  1  0  0  0  0
 38 37  1  0  0  0  0
 39 40  1  0  0  0  0
 39 38  1  0  0  0  0
 40 41  2  0  0  0  0
 40 48  1  0  0  0  0
 41 42  1  0  0  0  0
 42 43  1  0  0  0  0
 42 57  1  0  0  0  0
 43 44  1  0  0  0  0
 44 58  1  0  0  0  0
 45 44  2  0  0  0  0
 45 59  1  0  0  0  0
 46 45  1  0  0  0  0
 47 48  1  0  0  0  0
 47 46  2  0  0  0  0
 48 43  2  0  0  0  0
 49 51  1  0  0  0  0
 50 49  2  0  0  0  0
 54 39  1  0  0  0  0
 55 39  1  0  0  0  0
 56 41  1  0  0  0  0
 60 46  1  0  0  0  0
 61 47  1  0  0  0  0
M  END
$$$$
