NLA.pdb
 OpenBabel07022418103D

 45 44  0  0  1  0  0  0  0  0999 V2000
    2.6280   -3.9150    1.0540 N   0  0  0  0  0  0  0  0  0  0  0  0
    1.3340   -4.4670    1.3490 C   0  0  0  0  0  0  0  0  0  0  0  0
    0.7920   -5.1240    0.4210 O   0  0  0  0  0  0  0  0  0  0  0  0
    0.6620   -4.3000    2.6380 C   0  0  0  0  0  0  0  0  0  0  0  0
    1.2440   -3.1950    3.4410 C   0  0  2  0  0  0  0  0  0  0  0  0
    0.6210   -3.0720    4.7690 N   0  0  0  0  0  0  0  0  0  0  0  0
    1.1260   -1.8700    2.8050 C   0  0  0  0  0  0  0  0  0  0  0  0
    1.4200   -0.8870    3.5590 O   0  0  0  0  0  0  0  0  0  0  0  0
    2.9280   -3.7150    0.0860 H   0  0  0  0  0  0  0  0  0  0  0  0
    3.2480   -3.7260    1.8720 H   0  0  0  0  0  0  0  0  0  0  0  0
    0.6910   -5.2680    3.2200 H   0  0  0  0  0  0  0  0  0  0  0  0
   -0.4480   -4.1230    2.5180 H   0  0  0  0  0  0  0  0  0  0  0  0
    2.3070   -3.4280    3.6570 H   0  0  0  0  0  0  0  0  0  0  0  0
    0.9830   -3.8060    5.4070 H   0  0  0  0  0  0  0  0  0  0  0  0
    0.8850   -2.1360    5.1660 H   0  0  0  0  0  0  0  0  0  0  0  0
    0.6090    1.5620   -1.8090 C   0  0  0  0  0  0  0  0  0  0  0  0
    1.7530    1.0010   -1.0540 C   0  0  0  0  0  0  0  0  0  0  0  0
    2.8520    0.6190   -2.0760 C   0  0  0  0  0  0  0  0  0  0  0  0
    1.5580   -0.1850   -0.2210 C   0  0  0  0  0  0  0  0  0  0  0  0
    0.6530   -0.2190    0.9350 C   0  0  2  0  0  0  0  0  0  0  0  0
    0.7360   -1.6010    1.5150 N   0  0  0  0  0  0  0  0  0  0  0  0
   -0.7770   -0.0110    0.7380 C   0  0  0  0  0  0  0  0  0  0  0  0
   -1.6140   -0.9910    0.7160 O   0  0  0  0  0  0  0  0  0  0  0  0
    0.9190    1.6300   -2.9050 H   0  0  0  0  0  0  0  0  0  0  0  0
   -0.2910    0.9240   -1.8530 H   0  0  0  0  0  0  0  0  0  0  0  0
    0.3990    2.6300   -1.5610 H   0  0  0  0  0  0  0  0  0  0  0  0
    2.2410    1.8520   -0.4800 H   0  0  0  0  0  0  0  0  0  0  0  0
    2.9070    1.3290   -2.8960 H   0  0  0  0  0  0  0  0  0  0  0  0
    3.8100    0.5030   -1.5150 H   0  0  0  0  0  0  0  0  0  0  0  0
    2.5880   -0.3760   -2.4470 H   0  0  0  0  0  0  0  0  0  0  0  0
    2.6000   -0.4240    0.2090 H   0  0  0  0  0  0  0  0  0  0  0  0
    1.3070   -1.0350   -0.9410 H   0  0  0  0  0  0  0  0  0  0  0  0
    1.0760    0.4230    1.7530 H   0  0  0  0  0  0  0  0  0  0  0  0
    0.4490   -2.3250    0.8470 H   0  0  0  0  0  0  0  0  0  0  0  0
   -3.5190    1.7980    1.6920 C   0  0  0  0  0  0  0  0  0  0  0  0
   -2.8690    1.3280    0.3860 C   0  0  2  0  0  0  0  0  0  0  0  0
   -1.4290    1.2550    0.5610 N   0  0  0  0  0  0  0  0  0  0  0  0
   -3.1700    2.3390   -0.6430 C   0  0  0  0  0  0  0  0  0  0  0  0
   -4.3870    2.5730   -0.9870 O   0  0  0  0  0  0  0  0  0  0  0  0
   -2.2410    3.1090   -1.3190 O   0  0  0  0  0  0  0  0  0  0  0  0
   -3.2070    2.8110    1.9630 H   0  0  0  0  0  0  0  0  0  0  0  0
   -3.3720    1.0420    2.4660 H   0  0  0  0  0  0  0  0  0  0  0  0
   -4.6180    1.8470    1.4620 H   0  0  0  0  0  0  0  0  0  0  0  0
   -3.3080    0.3270    0.1990 H   0  0  0  0  0  0  0  0  0  0  0  0
   -0.8520    2.1140    0.5680 H   0  0  0  0  0  0  0  0  0  0  0  0
  1  2  1  0  0  0  0
  1 10  1  0  0  0  0
  2  4  1  0  0  0  0
  3  2  2  0  0  0  0
  4 11  1  0  0  0  0
  4  5  1  0  0  0  0
  5 13  1  1  0  0  0
  5  6  1  0  0  0  0
  6 15  1  0  0  0  0
  6 14  1  0  0  0  0
  7  5  1  0  0  0  0
  7  8  2  0  0  0  0
  9  1  1  0  0  0  0
 12  4  1  0  0  0  0
 16 26  1  0  0  0  0
 16 17  1  0  0  0  0
 17 27  1  0  0  0  0
 17 19  1  0  0  0  0
 18 29  1  0  0  0  0
 18 17  1  0  0  0  0
 19 31  1  0  0  0  0
 19 20  1  0  0  0  0
 20 21  1  0  0  0  0
 20 33  1  1  0  0  0
 21  7  1  0  0  0  0
 22 20  1  0  0  0  0
 23 22  2  0  0  0  0
 24 16  1  0  0  0  0
 25 16  1  0  0  0  0
 28 18  1  0  0  0  0
 30 18  1  0  0  0  0
 32 19  1  0  0  0  0
 34 21  1  0  0  0  0
 35 41  1  0  0  0  0
 35 42  1  0  0  0  0
 36 44  1  6  0  0  0
 36 37  1  0  0  0  0
 36 35  1  0  0  0  0
 37 45  1  0  0  0  0
 37 22  1  0  0  0  0
 38 36  1  0  0  0  0
 39 38  1  0  0  0  0
 40 38  2  0  0  0  0
 43 35  1  0  0  0  0
M  END
$$$$
