NLG.pdb
 OpenBabel07022418103D

 42 41  0  0  1  0  0  0  0  0999 V2000
   -0.5560   -3.3010    4.3810 N   0  0  0  0  0  0  0  0  0  0  0  0
    0.5870   -2.6430    3.8600 C   0  0  0  0  0  0  0  0  0  0  0  0
    0.8450   -1.4910    4.2890 O   0  0  0  0  0  0  0  0  0  0  0  0
    1.4770   -3.2390    2.8520 C   0  0  0  0  0  0  0  0  0  0  0  0
    2.5880   -2.3060    2.5050 C   0  0  2  0  0  0  0  0  0  0  0  0
    3.3690   -2.0000    3.6660 N   0  0  0  0  0  0  0  0  0  0  0  0
    2.1060   -1.0720    1.8220 C   0  0  0  0  0  0  0  0  0  0  0  0
    2.4360    0.0480    2.3340 O   0  0  0  0  0  0  0  0  0  0  0  0
   -0.7650   -3.1910    5.3890 H   0  0  0  0  0  0  0  0  0  0  0  0
   -1.1900   -3.8900    3.7860 H   0  0  0  0  0  0  0  0  0  0  0  0
    0.9310   -3.6050    1.9580 H   0  0  0  0  0  0  0  0  0  0  0  0
    1.9370   -4.1430    3.3190 H   0  0  0  0  0  0  0  0  0  0  0  0
    3.2460   -2.8270    1.7640 H   0  0  0  0  0  0  0  0  0  0  0  0
    3.8710   -2.8650    3.9730 H   0  0  0  0  0  0  0  0  0  0  0  0
    4.0830   -1.2680    3.3790 H   0  0  0  0  0  0  0  0  0  0  0  0
   -0.1670    1.5950   -2.7410 C   0  0  0  0  0  0  0  0  0  0  0  0
    1.2060    1.3020   -2.2710 C   0  0  0  0  0  0  0  0  0  0  0  0
    1.9130    2.5580   -1.7520 C   0  0  0  0  0  0  0  0  0  0  0  0
    1.4400    0.1920   -1.3450 C   0  0  0  0  0  0  0  0  0  0  0  0
    0.8530    0.1440   -0.0010 C   0  0  2  0  0  0  0  0  0  0  0  0
    1.3140   -1.1220    0.6510 N   0  0  0  0  0  0  0  0  0  0  0  0
   -0.6010    0.1750    0.1570 C   0  0  0  0  0  0  0  0  0  0  0  0
   -1.3080    1.1560   -0.1510 O   0  0  0  0  0  0  0  0  0  0  0  0
   -0.6370    2.5060   -2.3210 H   0  0  0  0  0  0  0  0  0  0  0  0
   -0.8000    0.6890   -2.7120 H   0  0  0  0  0  0  0  0  0  0  0  0
   -0.1610    1.8390   -3.8680 H   0  0  0  0  0  0  0  0  0  0  0  0
    1.8070    1.0550   -3.2110 H   0  0  0  0  0  0  0  0  0  0  0  0
    2.7610    2.2450   -1.1070 H   0  0  0  0  0  0  0  0  0  0  0  0
    1.2150    3.2300   -1.2200 H   0  0  0  0  0  0  0  0  0  0  0  0
    2.3490    3.1500   -2.5820 H   0  0  0  0  0  0  0  0  0  0  0  0
    2.5760    0.1750   -1.1870 H   0  0  0  0  0  0  0  0  0  0  0  0
    1.1700   -0.7760   -1.8730 H   0  0  0  0  0  0  0  0  0  0  0  0
    1.3040    0.9530    0.6480 H   0  0  0  0  0  0  0  0  0  0  0  0
    1.0720   -2.0390    0.2700 H   0  0  0  0  0  0  0  0  0  0  0  0
   -1.3240   -0.9560    0.6930 N   0  0  0  0  0  0  0  0  0  0  0  0
   -2.7460   -0.8640    0.8220 C   0  0  0  0  0  0  0  0  0  0  0  0
   -3.1720    0.2460    1.7150 C   0  0  0  0  0  0  0  0  0  0  0  0
   -2.3700    1.0180    2.2910 O   0  0  0  0  0  0  0  0  0  0  0  0
   -4.5330    0.4260    1.9120 O   0  0  0  0  0  0  0  0  0  0  0  0
   -0.8180   -1.8260    0.9810 H   0  0  0  0  0  0  0  0  0  0  0  0
   -3.2730   -0.8100   -0.1550 H   0  0  0  0  0  0  0  0  0  0  0  0
   -3.1290   -1.7990    1.3030 H   0  0  0  0  0  0  0  0  0  0  0  0
  1  9  1  0  0  0  0
  2  3  2  0  0  0  0
  2  1  1  0  0  0  0
  4 12  1  0  0  0  0
  4  2  1  0  0  0  0
  5 13  1  6  0  0  0
  5  4  1  0  0  0  0
  5  6  1  0  0  0  0
  6 14  1  0  0  0  0
  7  8  2  0  0  0  0
  7  5  1  0  0  0  0
 10  1  1  0  0  0  0
 11  4  1  0  0  0  0
 15  6  1  0  0  0  0
 16 25  1  0  0  0  0
 16 24  1  0  0  0  0
 16 17  1  0  0  0  0
 17 18  1  0  0  0  0
 17 19  1  0  0  0  0
 18 29  1  0  0  0  0
 18 28  1  0  0  0  0
 19 31  1  0  0  0  0
 19 20  1  0  0  0  0
 20 22  1  0  0  0  0
 20 33  1  1  0  0  0
 20 21  1  0  0  0  0
 21  7  1  0  0  0  0
 22 35  1  0  0  0  0
 23 22  2  0  0  0  0
 26 16  1  0  0  0  0
 27 17  1  0  0  0  0
 30 18  1  0  0  0  0
 32 19  1  0  0  0  0
 34 21  1  0  0  0  0
 35 36  1  0  0  0  0
 35 40  1  0  0  0  0
 36 42  1  0  0  0  0
 36 37  1  0  0  0  0
 37 39  2  0  0  0  0
 37 38  1  0  0  0  0
 41 36  1  0  0  0  0
M  END
$$$$
