NLI.pdb
 OpenBabel07022418103D

 54 53  0  0  1  0  0  0  0  0999 V2000
    5.6090   -2.7310    2.0850 N   0  0  0  0  0  0  0  0  0  0  0  0
    4.2310   -2.4480    2.1630 C   0  0  0  0  0  0  0  0  0  0  0  0
    3.5700   -2.4600    1.0830 O   0  0  0  0  0  0  0  0  0  0  0  0
    3.5450   -2.1410    3.4580 C   0  0  0  0  0  0  0  0  0  0  0  0
    2.0670   -1.8830    3.2090 C   0  0  2  0  0  0  0  0  0  0  0  0
    1.5170   -3.0700    2.6230 N   0  0  0  0  0  0  0  0  0  0  0  0
    1.8600   -0.7270    2.3010 C   0  0  0  0  0  0  0  0  0  0  0  0
    2.2550    0.4300    2.5890 O   0  0  0  0  0  0  0  0  0  0  0  0
    6.2150   -2.4490    1.2850 H   0  0  0  0  0  0  0  0  0  0  0  0
    6.0290   -3.2630    2.9010 H   0  0  0  0  0  0  0  0  0  0  0  0
    3.6040   -3.0650    4.0690 H   0  0  0  0  0  0  0  0  0  0  0  0
    4.0480   -1.2890    3.9320 H   0  0  0  0  0  0  0  0  0  0  0  0
    1.5280   -1.6830    4.1460 H   0  0  0  0  0  0  0  0  0  0  0  0
    0.4910   -2.9610    2.4520 H   0  0  0  0  0  0  0  0  0  0  0  0
    1.6670   -3.8960    3.2550 H   0  0  0  0  0  0  0  0  0  0  0  0
    2.2180    0.7120   -3.4200 C   0  0  0  0  0  0  0  0  0  0  0  0
    1.4130    1.0600   -2.1480 C   0  0  0  0  0  0  0  0  0  0  0  0
    1.9550    2.3650   -1.6480 C   0  0  0  0  0  0  0  0  0  0  0  0
    1.6690   -0.0520   -1.1670 C   0  0  0  0  0  0  0  0  0  0  0  0
    0.9550    0.1740    0.1150 C   0  0  2  0  0  0  0  0  0  0  0  0
    1.2040   -0.9030    1.0730 N   0  0  0  0  0  0  0  0  0  0  0  0
   -0.5090    0.4240   -0.0000 C   0  0  0  0  0  0  0  0  0  0  0  0
   -0.9770    1.3400   -0.7190 O   0  0  0  0  0  0  0  0  0  0  0  0
    1.7950   -0.2020   -3.8830 H   0  0  0  0  0  0  0  0  0  0  0  0
    2.1380    1.5250   -4.1670 H   0  0  0  0  0  0  0  0  0  0  0  0
    3.2780    0.5610   -3.1940 H   0  0  0  0  0  0  0  0  0  0  0  0
    0.3680    1.1160   -2.5140 H   0  0  0  0  0  0  0  0  0  0  0  0
    1.4110    2.8020   -0.8120 H   0  0  0  0  0  0  0  0  0  0  0  0
    1.8910    3.1010   -2.4980 H   0  0  0  0  0  0  0  0  0  0  0  0
    3.0360    2.2330   -1.4620 H   0  0  0  0  0  0  0  0  0  0  0  0
    1.4630   -1.0410   -1.6290 H   0  0  0  0  0  0  0  0  0  0  0  0
    2.7710    0.0320   -0.9190 H   0  0  0  0  0  0  0  0  0  0  0  0
    1.3890    1.0840    0.5890 H   0  0  0  0  0  0  0  0  0  0  0  0
    0.8530   -1.8430    0.7820 H   0  0  0  0  0  0  0  0  0  0  0  0
   -5.3640    0.2510   -0.9100 C   0  0  0  0  0  0  0  0  0  0  0  0
   -5.1030   -1.0330   -0.1230 C   0  0  0  0  0  0  0  0  0  0  0  0
   -3.6280   -1.2830    0.0150 C   0  0  2  0  0  0  0  0  0  0  0  0
   -3.4630   -2.5600    0.8100 C   0  0  0  0  0  0  0  0  0  0  0  0
   -2.9350   -0.1010    0.5760 C   0  0  2  0  0  0  0  0  0  0  0  0
   -1.4790   -0.3480    0.6900 N   0  0  0  0  0  0  0  0  0  0  0  0
   -3.3790    0.1650    1.9520 C   0  0  0  0  0  0  0  0  0  0  0  0
   -4.5520    0.4840    2.2320 O   0  0  0  0  0  0  0  0  0  0  0  0
   -2.4970    0.0700    3.0140 O   0  0  0  0  0  0  0  0  0  0  0  0
   -4.4910    0.4300   -1.5690 H   0  0  0  0  0  0  0  0  0  0  0  0
   -6.3030    0.1330   -1.5000 H   0  0  0  0  0  0  0  0  0  0  0  0
   -5.5350    1.1070   -0.2430 H   0  0  0  0  0  0  0  0  0  0  0  0
   -5.5850   -0.9270    0.8590 H   0  0  0  0  0  0  0  0  0  0  0  0
   -5.5950   -1.8550   -0.7210 H   0  0  0  0  0  0  0  0  0  0  0  0
   -3.2160   -1.4820   -1.0250 H   0  0  0  0  0  0  0  0  0  0  0  0
   -2.4830   -2.6730    1.2720 H   0  0  0  0  0  0  0  0  0  0  0  0
   -4.3010   -2.6410    1.5630 H   0  0  0  0  0  0  0  0  0  0  0  0
   -3.6150   -3.4020    0.1010 H   0  0  0  0  0  0  0  0  0  0  0  0
   -3.1220    0.7560   -0.0980 H   0  0  0  0  0  0  0  0  0  0  0  0
   -1.1640   -1.1190    1.3000 H   0  0  0  0  0  0  0  0  0  0  0  0
  1  2  1  0  0  0  0
  1 10  1  0  0  0  0
  2  4  1  0  0  0  0
  3  2  2  0  0  0  0
  4 12  1  0  0  0  0
  4 11  1  0  0  0  0
  5  4  1  0  0  0  0
  5 13  1  1  0  0  0
  6  5  1  0  0  0  0
  6 15  1  0  0  0  0
  7  8  2  0  0  0  0
  7  5  1  0  0  0  0
  9  1  1  0  0  0  0
 14  6  1  0  0  0  0
 16 26  1  0  0  0  0
 16 17  1  0  0  0  0
 17 18  1  0  0  0  0
 17 19  1  0  0  0  0
 18 30  1  0  0  0  0
 18 28  1  0  0  0  0
 19 32  1  0  0  0  0
 19 20  1  0  0  0  0
 20 33  1  1  0  0  0
 20 21  1  0  0  0  0
 21  7  1  0  0  0  0
 22 20  1  0  0  0  0
 22 40  1  0  0  0  0
 23 22  2  0  0  0  0
 24 16  1  0  0  0  0
 25 16  1  0  0  0  0
 27 17  1  0  0  0  0
 29 18  1  0  0  0  0
 31 19  1  0  0  0  0
 34 21  1  0  0  0  0
 35 46  1  0  0  0  0
 35 36  1  0  0  0  0
 36 37  1  0  0  0  0
 36 47  1  0  0  0  0
 37 49  1  6  0  0  0
 37 39  1  0  0  0  0
 37 38  1  0  0  0  0
 38 50  1  0  0  0  0
 38 51  1  0  0  0  0
 39 53  1  6  0  0  0
 39 40  1  0  0  0  0
 39 41  1  0  0  0  0
 40 54  1  0  0  0  0
 41 42  2  0  0  0  0
 41 43  1  0  0  0  0
 44 35  1  0  0  0  0
 45 35  1  0  0  0  0
 48 36  1  0  0  0  0
 52 38  1  0  0  0  0
M  END
$$$$
