NLP.pdb
 OpenBabel07022418103D

 49 49  0  0  1  0  0  0  0  0999 V2000
    1.6390   -3.1330    6.6810 N   0  0  0  0  0  0  0  0  0  0  0  0
    0.8020   -2.3430    5.8600 C   0  0  0  0  0  0  0  0  0  0  0  0
   -0.4040   -2.1960    6.2070 O   0  0  0  0  0  0  0  0  0  0  0  0
    1.3080   -1.6900    4.6140 C   0  0  0  0  0  0  0  0  0  0  0  0
    0.1970   -0.8520    3.9610 C   0  0  2  0  0  0  0  0  0  0  0  0
   -0.8620   -1.8170    3.6760 N   0  0  0  0  0  0  0  0  0  0  0  0
    0.7150   -0.2410    2.7250 C   0  0  0  0  0  0  0  0  0  0  0  0
    1.4890    0.7370    2.8280 O   0  0  0  0  0  0  0  0  0  0  0  0
    1.2770   -3.6100    7.5180 H   0  0  0  0  0  0  0  0  0  0  0  0
    2.6590   -3.2160    6.4090 H   0  0  0  0  0  0  0  0  0  0  0  0
    1.5930   -2.4950    3.9110 H   0  0  0  0  0  0  0  0  0  0  0  0
    2.1730   -1.0640    4.9060 H   0  0  0  0  0  0  0  0  0  0  0  0
   -0.1270   -0.1350    4.7220 H   0  0  0  0  0  0  0  0  0  0  0  0
   -0.5020   -2.6710    3.2220 H   0  0  0  0  0  0  0  0  0  0  0  0
   -1.5820   -1.3000    3.1210 H   0  0  0  0  0  0  0  0  0  0  0  0
    3.4790    0.7410   -1.3430 C   0  0  0  0  0  0  0  0  0  0  0  0
    2.8230   -0.6230   -1.3960 C   0  0  0  0  0  0  0  0  0  0  0  0
    2.2020   -0.9230   -2.7080 C   0  0  0  0  0  0  0  0  0  0  0  0
    2.0380   -0.9680   -0.2000 C   0  0  0  0  0  0  0  0  0  0  0  0
    0.8780   -0.1230    0.2260 C   0  0  2  0  0  0  0  0  0  0  0  0
    0.3520   -0.7470    1.4140 N   0  0  0  0  0  0  0  0  0  0  0  0
   -0.0430    0.2960   -0.7600 C   0  0  0  0  0  0  0  0  0  0  0  0
    0.3840    1.1630   -1.6180 O   0  0  0  0  0  0  0  0  0  0  0  0
    4.5560    0.7320   -1.6410 H   0  0  0  0  0  0  0  0  0  0  0  0
    3.0240    1.4250   -2.1190 H   0  0  0  0  0  0  0  0  0  0  0  0
    3.4550    1.2020   -0.3340 H   0  0  0  0  0  0  0  0  0  0  0  0
    3.7200   -1.3270   -1.3370 H   0  0  0  0  0  0  0  0  0  0  0  0
    2.4220   -0.0540   -3.3800 H   0  0  0  0  0  0  0  0  0  0  0  0
    2.7120   -1.7810   -3.1870 H   0  0  0  0  0  0  0  0  0  0  0  0
    1.1280   -1.1810   -2.7080 H   0  0  0  0  0  0  0  0  0  0  0  0
    1.6880   -2.0190   -0.3070 H   0  0  0  0  0  0  0  0  0  0  0  0
    2.7410   -0.9940    0.6730 H   0  0  0  0  0  0  0  0  0  0  0  0
    1.3700    0.8480    0.6120 H   0  0  0  0  0  0  0  0  0  0  0  0
   -0.2790   -1.5600    1.4660 H   0  0  0  0  0  0  0  0  0  0  0  0
   -1.3540   -0.0820   -0.9600 N   0  0  0  0  0  0  0  0  0  0  0  0
   -2.1110   -1.0810   -0.2600 C   0  0  0  0  0  0  0  0  0  0  0  0
   -3.3740   -1.3450   -1.0820 C   0  0  0  0  0  0  0  0  0  0  0  0
   -3.6250    0.0140   -1.6560 C   0  0  0  0  0  0  0  0  0  0  0  0
   -2.2410    0.5210   -1.9720 C   0  0  1  0  0  0  0  0  0  0  0  0
   -2.2780    1.9870   -1.8940 C   0  0  0  0  0  0  0  0  0  0  0  0
   -1.6570    2.5900   -0.9540 O   0  0  0  0  0  0  0  0  0  0  0  0
   -2.9570    2.7600   -2.7950 O   0  0  0  0  0  0  0  0  0  0  0  0
   -1.5510   -2.0530   -0.1790 H   0  0  0  0  0  0  0  0  0  0  0  0
   -2.4400   -0.8110    0.7510 H   0  0  0  0  0  0  0  0  0  0  0  0
   -4.2090   -1.6450   -0.4190 H   0  0  0  0  0  0  0  0  0  0  0  0
   -3.1650   -2.0900   -1.8790 H   0  0  0  0  0  0  0  0  0  0  0  0
   -4.2580   -0.0600   -2.5750 H   0  0  0  0  0  0  0  0  0  0  0  0
   -4.1390    0.6840   -0.9310 H   0  0  0  0  0  0  0  0  0  0  0  0
   -1.9780    0.1170   -2.9850 H   0  0  0  0  0  0  0  0  0  0  0  0
  1  9  1  0  0  0  0
  2  3  2  0  0  0  0
  2  1  1  0  0  0  0
  4 12  1  0  0  0  0
  4  2  1  0  0  0  0
  5  4  1  0  0  0  0
  5 13  1  1  0  0  0
  6  5  1  0  0  0  0
  7  8  2  0  0  0  0
  7  5  1  0  0  0  0
 10  1  1  0  0  0  0
 11  4  1  0  0  0  0
 14  6  1  0  0  0  0
 15  6  1  0  0  0  0
 16 26  1  0  0  0  0
 17 16  1  0  0  0  0
 17 27  1  0  0  0  0
 17 19  1  0  0  0  0
 18 17  1  0  0  0  0
 19 20  1  0  0  0  0
 19 32  1  0  0  0  0
 20 33  1  1  0  0  0
 20 21  1  0  0  0  0
 21 34  1  0  0  0  0
 21  7  1  0  0  0  0
 22 20  1  0  0  0  0
 23 22  2  0  0  0  0
 24 16  1  0  0  0  0
 25 16  1  0  0  0  0
 28 18  1  0  0  0  0
 29 18  1  0  0  0  0
 30 18  1  0  0  0  0
 31 19  1  0  0  0  0
 35 22  1  0  0  0  0
 35 36  1  0  0  0  0
 36 43  1  0  0  0  0
 36 44  1  0  0  0  0
 37 45  1  0  0  0  0
 37 36  1  0  0  0  0
 38 37  1  0  0  0  0
 38 48  1  0  0  0  0
 39 49  1  6  0  0  0
 39 40  1  0  0  0  0
 39 38  1  0  0  0  0
 39 35  1  0  0  0  0
 40 41  1  0  0  0  0
 42 40  2  0  0  0  0
 46 37  1  0  0  0  0
 47 38  1  0  0  0  0
M  END
$$$$
