NLV.pdb
 OpenBabel07022418103D

 51 50  0  0  1  0  0  0  0  0999 V2000
    2.4440   -6.0560    3.2320 N   0  0  0  0  0  0  0  0  0  0  0  0
    2.4140   -4.7690    3.7970 C   0  0  0  0  0  0  0  0  0  0  0  0
    3.0080   -4.5030    4.8870 O   0  0  0  0  0  0  0  0  0  0  0  0
    1.6850   -3.6810    3.1310 C   0  0  0  0  0  0  0  0  0  0  0  0
    1.7850   -2.3750    3.9130 C   0  0  2  0  0  0  0  0  0  0  0  0
    1.2160   -2.5960    5.2210 N   0  0  0  0  0  0  0  0  0  0  0  0
    1.0070   -1.3220    3.2160 C   0  0  0  0  0  0  0  0  0  0  0  0
    0.0210   -0.8200    3.8540 O   0  0  0  0  0  0  0  0  0  0  0  0
    2.3360   -6.8860    3.8550 H   0  0  0  0  0  0  0  0  0  0  0  0
    2.5690   -6.2280    2.2030 H   0  0  0  0  0  0  0  0  0  0  0  0
    0.6060   -3.9270    3.0660 H   0  0  0  0  0  0  0  0  0  0  0  0
    2.0380   -3.5290    2.0840 H   0  0  0  0  0  0  0  0  0  0  0  0
    2.8550   -2.0790    3.9640 H   0  0  0  0  0  0  0  0  0  0  0  0
    0.5670   -3.4080    5.1810 H   0  0  0  0  0  0  0  0  0  0  0  0
    0.7070   -1.7250    5.4940 H   0  0  0  0  0  0  0  0  0  0  0  0
    0.6930    2.6570   -0.8640 C   0  0  0  0  0  0  0  0  0  0  0  0
    1.1440    2.5610    0.5370 C   0  0  0  0  0  0  0  0  0  0  0  0
    2.3350    3.5180    0.7690 C   0  0  0  0  0  0  0  0  0  0  0  0
    1.4810    1.2740    1.1210 C   0  0  0  0  0  0  0  0  0  0  0  0
    0.5190    0.1690    1.2620 C   0  0  2  0  0  0  0  0  0  0  0  0
    1.3470   -0.9040    1.9170 N   0  0  0  0  0  0  0  0  0  0  0  0
   -0.0180   -0.4960    0.0880 C   0  0  0  0  0  0  0  0  0  0  0  0
    0.4060   -1.6140   -0.3460 O   0  0  0  0  0  0  0  0  0  0  0  0
    1.2520    3.4960   -1.3910 H   0  0  0  0  0  0  0  0  0  0  0  0
    0.9380    1.7760   -1.4910 H   0  0  0  0  0  0  0  0  0  0  0  0
   -0.3700    2.9710   -0.9830 H   0  0  0  0  0  0  0  0  0  0  0  0
    0.3310    3.0500    1.1710 H   0  0  0  0  0  0  0  0  0  0  0  0
    2.4050    3.7160    1.8610 H   0  0  0  0  0  0  0  0  0  0  0  0
    2.2110    4.4390    0.2020 H   0  0  0  0  0  0  0  0  0  0  0  0
    3.2750    2.9730    0.5000 H   0  0  0  0  0  0  0  0  0  0  0  0
    2.4030    0.8320    0.6000 H   0  0  0  0  0  0  0  0  0  0  0  0
    1.9110    1.4310    2.1700 H   0  0  0  0  0  0  0  0  0  0  0  0
   -0.2540    0.4140    2.0310 H   0  0  0  0  0  0  0  0  0  0  0  0
    2.1490   -1.3190    1.4110 H   0  0  0  0  0  0  0  0  0  0  0  0
   -3.9910   -0.1810   -1.0630 C   0  0  0  0  0  0  0  0  0  0  0  0
   -2.9850   -1.1990   -1.4750 C   0  0  0  0  0  0  0  0  0  0  0  0
   -3.4900   -1.9680   -2.6630 C   0  0  0  0  0  0  0  0  0  0  0  0
   -1.6240   -0.6190   -1.8220 C   0  0  2  0  0  0  0  0  0  0  0  0
   -1.0830    0.0700   -0.6580 N   0  0  0  0  0  0  0  0  0  0  0  0
   -1.6560    0.2370   -2.9910 C   0  0  0  0  0  0  0  0  0  0  0  0
   -1.3030    1.4340   -3.0320 O   0  0  0  0  0  0  0  0  0  0  0  0
   -2.1220   -0.3130   -4.2010 O   0  0  0  0  0  0  0  0  0  0  0  0
   -3.8870    0.1400    0.0110 H   0  0  0  0  0  0  0  0  0  0  0  0
   -4.0090    0.7070   -1.7260 H   0  0  0  0  0  0  0  0  0  0  0  0
   -4.9970   -0.6440   -1.1360 H   0  0  0  0  0  0  0  0  0  0  0  0
   -2.8980   -1.9330   -0.6380 H   0  0  0  0  0  0  0  0  0  0  0  0
   -4.2010   -2.7740   -2.3700 H   0  0  0  0  0  0  0  0  0  0  0  0
   -4.0490   -1.2810   -3.3360 H   0  0  0  0  0  0  0  0  0  0  0  0
   -2.6390   -2.3690   -3.2450 H   0  0  0  0  0  0  0  0  0  0  0  0
   -0.9780   -1.4990   -2.0110 H   0  0  0  0  0  0  0  0  0  0  0  0
   -1.5430    0.9730   -0.4270 H   0  0  0  0  0  0  0  0  0  0  0  0
  1  2  1  0  0  0  0
  1  9  1  0  0  0  0
  2  3  2  0  0  0  0
  4  2  1  0  0  0  0
  4  5  1  0  0  0  0
  5 13  1  1  0  0  0
  5  6  1  0  0  0  0
  6 15  1  0  0  0  0
  7  8  2  0  0  0  0
  7  5  1  0  0  0  0
 10  1  1  0  0  0  0
 11  4  1  0  0  0  0
 12  4  1  0  0  0  0
 14  6  1  0  0  0  0
 16 17  1  0  0  0  0
 17 18  1  0  0  0  0
 17 19  1  0  0  0  0
 17 27  1  0  0  0  0
 18 28  1  0  0  0  0
 19 20  1  0  0  0  0
 19 32  1  0  0  0  0
 20 21  1  0  0  0  0
 20 33  1  1  0  0  0
 21  7  1  0  0  0  0
 22 20  1  0  0  0  0
 23 22  2  0  0  0  0
 24 16  1  0  0  0  0
 25 16  1  0  0  0  0
 26 16  1  0  0  0  0
 29 18  1  0  0  0  0
 30 18  1  0  0  0  0
 31 19  1  0  0  0  0
 34 21  1  0  0  0  0
 35 43  1  0  0  0  0
 36 35  1  0  0  0  0
 36 46  1  0  0  0  0
 37 47  1  0  0  0  0
 37 36  1  0  0  0  0
 38 50  1  6  0  0  0
 38 36  1  0  0  0  0
 38 39  1  0  0  0  0
 39 51  1  0  0  0  0
 39 22  1  0  0  0  0
 40 38  1  0  0  0  0
 41 40  1  0  0  0  0
 42 40  2  0  0  0  0
 44 35  1  0  0  0  0
 45 35  1  0  0  0  0
 48 37  1  0  0  0  0
 49 37  1  0  0  0  0
M  END
$$$$
