NLY.pdb
 OpenBabel07022418103D

 56 56  0  0  1  0  0  0  0  0999 V2000
   -0.8700   -3.4800    2.7560 N   0  0  0  0  0  0  0  0  0  0  0  0
    0.1330   -2.4900    2.8610 C   0  0  0  0  0  0  0  0  0  0  0  0
    0.0570   -1.6510    3.7840 O   0  0  0  0  0  0  0  0  0  0  0  0
    1.2360   -2.4440    1.9090 C   0  0  0  0  0  0  0  0  0  0  0  0
    2.2070   -1.3110    2.1860 C   0  0  2  0  0  0  0  0  0  0  0  0
    2.7870   -1.4510    3.5090 N   0  0  0  0  0  0  0  0  0  0  0  0
    1.5760    0.0110    1.9980 C   0  0  0  0  0  0  0  0  0  0  0  0
    1.5860    0.8530    2.9270 O   0  0  0  0  0  0  0  0  0  0  0  0
   -1.5910   -3.6380    3.5170 H   0  0  0  0  0  0  0  0  0  0  0  0
   -0.9240   -4.0860    1.9170 H   0  0  0  0  0  0  0  0  0  0  0  0
    1.8570   -3.3790    1.9150 H   0  0  0  0  0  0  0  0  0  0  0  0
    0.8810   -2.3400    0.8580 H   0  0  0  0  0  0  0  0  0  0  0  0
    3.0590   -1.4700    1.4620 H   0  0  0  0  0  0  0  0  0  0  0  0
    3.3070   -0.5440    3.6980 H   0  0  0  0  0  0  0  0  0  0  0  0
    3.5220   -2.2080    3.4510 H   0  0  0  0  0  0  0  0  0  0  0  0
    2.6240    3.3700    0.7920 C   0  0  0  0  0  0  0  0  0  0  0  0
    2.4970    2.4480   -0.3880 C   0  0  0  0  0  0  0  0  0  0  0  0
    3.2530    2.9270   -1.5810 C   0  0  0  0  0  0  0  0  0  0  0  0
    1.0270    2.2020   -0.7030 C   0  0  0  0  0  0  0  0  0  0  0  0
    0.3180    1.5710    0.4710 C   0  0  2  0  0  0  0  0  0  0  0  0
    0.9630    0.3110    0.7620 N   0  0  0  0  0  0  0  0  0  0  0  0
   -1.1150    1.3790    0.1190 C   0  0  0  0  0  0  0  0  0  0  0  0
   -1.8530    2.3750   -0.1850 O   0  0  0  0  0  0  0  0  0  0  0  0
    3.0490    2.8170    1.6550 H   0  0  0  0  0  0  0  0  0  0  0  0
    1.6600    3.8430    1.0860 H   0  0  0  0  0  0  0  0  0  0  0  0
    3.3250    4.1960    0.5060 H   0  0  0  0  0  0  0  0  0  0  0  0
    2.9100    1.4340   -0.1200 H   0  0  0  0  0  0  0  0  0  0  0  0
    3.5860    2.1230   -2.2640 H   0  0  0  0  0  0  0  0  0  0  0  0
    4.1920    3.4330   -1.2140 H   0  0  0  0  0  0  0  0  0  0  0  0
    2.6740    3.7050   -2.1250 H   0  0  0  0  0  0  0  0  0  0  0  0
    0.5950    3.2040   -0.9410 H   0  0  0  0  0  0  0  0  0  0  0  0
    0.9270    1.5610   -1.6020 H   0  0  0  0  0  0  0  0  0  0  0  0
    0.4290    2.2340    1.3600 H   0  0  0  0  0  0  0  0  0  0  0  0
    0.9790   -0.4120    0.0160 H   0  0  0  0  0  0  0  0  0  0  0  0
   -0.5390   -6.1280   -1.2530 O   0  0  0  0  0  0  0  0  0  0  0  0
   -1.1820   -4.8980   -1.2860 C   0  0  0  0  0  0  0  0  0  0  0  0
   -0.5750   -3.7590   -1.7730 C   0  0  0  0  0  0  0  0  0  0  0  0
   -1.2420   -2.5520   -1.7920 C   0  0  0  0  0  0  0  0  0  0  0  0
   -2.5460   -2.4310   -1.3250 C   0  0  0  0  0  0  0  0  0  0  0  0
   -3.1680   -1.1220   -1.3840 C   0  0  0  0  0  0  0  0  0  0  0  0
   -2.9860   -0.2510   -0.1860 C   0  0  2  0  0  0  0  0  0  0  0  0
   -1.6330    0.0590    0.1330 N   0  0  0  0  0  0  0  0  0  0  0  0
   -3.7390   -0.7920    0.9790 C   0  0  0  0  0  0  0  0  0  0  0  0
   -3.1130   -0.9050    2.0630 O   0  0  0  0  0  0  0  0  0  0  0  0
   -3.1260   -3.5780   -0.8470 C   0  0  0  0  0  0  0  0  0  0  0  0
   -2.4690   -4.7910   -0.8220 C   0  0  0  0  0  0  0  0  0  0  0  0
   -5.0570   -1.1690    0.9420 O   0  0  0  0  0  0  0  0  0  0  0  0
   -0.9560   -6.9460   -1.6900 H   0  0  0  0  0  0  0  0  0  0  0  0
    0.4490   -3.8750   -2.1340 H   0  0  0  0  0  0  0  0  0  0  0  0
   -0.7210   -1.6770   -2.1860 H   0  0  0  0  0  0  0  0  0  0  0  0
   -2.8410   -0.5900   -2.3030 H   0  0  0  0  0  0  0  0  0  0  0  0
   -4.2770   -1.2620   -1.5090 H   0  0  0  0  0  0  0  0  0  0  0  0
   -3.4930    0.7260   -0.4290 H   0  0  0  0  0  0  0  0  0  0  0  0
   -0.9840   -0.7080    0.3910 H   0  0  0  0  0  0  0  0  0  0  0  0
   -4.1300   -3.5090   -0.4820 H   0  0  0  0  0  0  0  0  0  0  0  0
   -2.9840   -5.6600   -0.4320 H   0  0  0  0  0  0  0  0  0  0  0  0
  1  2  1  0  0  0  0
  1  9  1  0  0  0  0
  2  3  2  0  0  0  0
  4 11  1  0  0  0  0
  4  5  1  0  0  0  0
  4  2  1  0  0  0  0
  5 13  1  6  0  0  0
  5  6  1  0  0  0  0
  6 14  1  0  0  0  0
  7  5  1  0  0  0  0
  7  8  2  0  0  0  0
 10  1  1  0  0  0  0
 12  4  1  0  0  0  0
 15  6  1  0  0  0  0
 16 25  1  0  0  0  0
 16 24  1  0  0  0  0
 17 27  1  0  0  0  0
 17 16  1  0  0  0  0
 18 29  1  0  0  0  0
 18 17  1  0  0  0  0
 19 17  1  0  0  0  0
 19 20  1  0  0  0  0
 20 21  1  0  0  0  0
 20 33  1  1  0  0  0
 21  7  1  0  0  0  0
 22 42  1  0  0  0  0
 22 20  1  0  0  0  0
 23 22  2  0  0  0  0
 26 16  1  0  0  0  0
 28 18  1  0  0  0  0
 30 18  1  0  0  0  0
 31 19  1  0  0  0  0
 32 19  1  0  0  0  0
 34 21  1  0  0  0  0
 36 35  1  0  0  0  0
 36 46  1  0  0  0  0
 37 36  2  0  0  0  0
 38 37  1  0  0  0  0
 38 39  2  0  0  0  0
 39 45  1  0  0  0  0
 40 39  1  0  0  0  0
 40 41  1  0  0  0  0
 41 53  1  6  0  0  0
 41 42  1  0  0  0  0
 41 43  1  0  0  0  0
 42 54  1  0  0  0  0
 43 44  1  0  0  0  0
 45 46  2  0  0  0  0
 45 55  1  0  0  0  0
 46 56  1  0  0  0  0
 47 43  2  0  0  0  0
 48 35  1  0  0  0  0
 49 37  1  0  0  0  0
 50 38  1  0  0  0  0
 51 40  1  0  0  0  0
 52 40  1  0  0  0  0
M  END
$$$$
