NMF.pdb
 OpenBabel07022418103D

 53 53  0  0  1  0  0  0  0  0999 V2000
    0.4070    2.0980    6.1260 N   0  0  0  0  0  0  0  0  0  0  0  0
    1.7130    2.0680    5.5880 C   0  0  0  0  0  0  0  0  0  0  0  0
    2.6790    2.2460    6.3940 O   0  0  0  0  0  0  0  0  0  0  0  0
    2.0410    1.8470    4.1750 C   0  0  0  0  0  0  0  0  0  0  0  0
    0.7910    1.6600    3.3440 C   0  0  2  0  0  0  0  0  0  0  0  0
    0.0130    0.5440    3.7690 N   0  0  0  0  0  0  0  0  0  0  0  0
    1.2660    1.4990    1.9220 C   0  0  0  0  0  0  0  0  0  0  0  0
    1.9750    2.3910    1.3800 O   0  0  0  0  0  0  0  0  0  0  0  0
   -0.0590    1.2580    6.5510 H   0  0  0  0  0  0  0  0  0  0  0  0
   -0.1650    2.9850    6.1220 H   0  0  0  0  0  0  0  0  0  0  0  0
    2.7360    0.9880    4.0790 H   0  0  0  0  0  0  0  0  0  0  0  0
    2.5830    2.7370    3.7750 H   0  0  0  0  0  0  0  0  0  0  0  0
    0.1800    2.5750    3.4300 H   0  0  0  0  0  0  0  0  0  0  0  0
    0.5360   -0.3010    4.0150 H   0  0  0  0  0  0  0  0  0  0  0  0
   -0.8160    0.7600    4.3290 H   0  0  0  0  0  0  0  0  0  0  0  0
    2.4940   -4.3660   -0.7650 C   0  0  0  0  0  0  0  0  0  0  0  0
    3.6580   -3.0670   -1.2810 S   0  0  0  0  0  0  0  0  0  0  0  0
    2.6630   -1.5400   -1.5270 C   0  0  0  0  0  0  0  0  0  0  0  0
    2.1490   -1.1540   -0.1850 C   0  0  0  0  0  0  0  0  0  0  0  0
    1.3030    0.0860   -0.1460 C   0  0  2  0  0  0  0  0  0  0  0  0
    0.8870    0.3190    1.2280 N   0  0  0  0  0  0  0  0  0  0  0  0
    0.1450    0.0570   -1.0630 C   0  0  0  0  0  0  0  0  0  0  0  0
    0.3280   -0.1220   -2.2740 O   0  0  0  0  0  0  0  0  0  0  0  0
    2.8600   -5.3390   -1.1610 H   0  0  0  0  0  0  0  0  0  0  0  0
    1.4650   -4.1780   -1.1520 H   0  0  0  0  0  0  0  0  0  0  0  0
    2.4070   -4.3840    0.3480 H   0  0  0  0  0  0  0  0  0  0  0  0
    3.3260   -0.8080   -1.9910 H   0  0  0  0  0  0  0  0  0  0  0  0
    1.8450   -1.8810   -2.2280 H   0  0  0  0  0  0  0  0  0  0  0  0
    3.0120   -1.0070    0.4840 H   0  0  0  0  0  0  0  0  0  0  0  0
    1.5090   -2.0110    0.1800 H   0  0  0  0  0  0  0  0  0  0  0  0
    1.9170    0.9580   -0.4500 H   0  0  0  0  0  0  0  0  0  0  0  0
    0.2990   -0.3760    1.7360 H   0  0  0  0  0  0  0  0  0  0  0  0
   -1.2010    0.2280   -0.6210 N   0  0  0  0  0  0  0  0  0  0  0  0
   -2.2700    0.1890   -1.5610 C   0  0  1  0  0  0  0  0  0  0  0  0
   -3.2260   -0.9490   -1.2410 C   0  0  0  0  0  0  0  0  0  0  0  0
   -2.5800   -2.2710   -1.2720 C   0  0  0  0  0  0  0  0  0  0  0  0
   -1.9920   -2.8720   -0.1900 C   0  0  0  0  0  0  0  0  0  0  0  0
   -1.4150   -4.1130   -0.3330 C   0  0  0  0  0  0  0  0  0  0  0  0
   -1.4170   -4.7720   -1.5560 C   0  0  0  0  0  0  0  0  0  0  0  0
   -2.0040   -4.1840   -2.6590 C   0  0  0  0  0  0  0  0  0  0  0  0
   -2.5710   -2.9450   -2.4810 C   0  0  0  0  0  0  0  0  0  0  0  0
   -3.0880    1.4250   -1.5830 C   0  0  0  0  0  0  0  0  0  0  0  0
   -4.0540    1.4440   -2.4040 O   0  0  0  0  0  0  0  0  0  0  0  0
   -2.8800    2.5180   -0.7980 O   0  0  0  0  0  0  0  0  0  0  0  0
   -1.4070    0.3810    0.3880 H   0  0  0  0  0  0  0  0  0  0  0  0
   -1.9360    0.0170   -2.6080 H   0  0  0  0  0  0  0  0  0  0  0  0
   -3.6520   -0.7090   -0.2360 H   0  0  0  0  0  0  0  0  0  0  0  0
   -4.0870   -0.9640   -1.9380 H   0  0  0  0  0  0  0  0  0  0  0  0
   -1.9990   -2.3390    0.7660 H   0  0  0  0  0  0  0  0  0  0  0  0
   -0.9540   -4.5710    0.5390 H   0  0  0  0  0  0  0  0  0  0  0  0
   -0.9690   -5.7360   -1.6680 H   0  0  0  0  0  0  0  0  0  0  0  0
   -2.0260   -4.6680   -3.6340 H   0  0  0  0  0  0  0  0  0  0  0  0
   -3.0340   -2.4870   -3.3610 H   0  0  0  0  0  0  0  0  0  0  0  0
  1  9  1  0  0  0  0
  2  1  1  0  0  0  0
  2  3  2  0  0  0  0
  4  2  1  0  0  0  0
  5 13  1  1  0  0  0
  5  6  1  0  0  0  0
  5  4  1  0  0  0  0
  6 14  1  0  0  0  0
  6 15  1  0  0  0  0
  7  5  1  0  0  0  0
  8  7  2  0  0  0  0
 10  1  1  0  0  0  0
 11  4  1  0  0  0  0
 12  4  1  0  0  0  0
 16 26  1  0  0  0  0
 17 16  1  0  0  0  0
 18 17  1  0  0  0  0
 18 19  1  0  0  0  0
 19 20  1  0  0  0  0
 19 30  1  0  0  0  0
 19 29  1  0  0  0  0
 20 31  1  6  0  0  0
 20 21  1  0  0  0  0
 21 32  1  0  0  0  0
 21  7  1  0  0  0  0
 22 33  1  0  0  0  0
 22 20  1  0  0  0  0
 23 22  2  0  0  0  0
 24 16  1  0  0  0  0
 25 16  1  0  0  0  0
 27 18  1  0  0  0  0
 28 18  1  0  0  0  0
 33 45  1  0  0  0  0
 34 46  1  6  0  0  0
 34 35  1  0  0  0  0
 34 33  1  0  0  0  0
 35 47  1  0  0  0  0
 36 35  1  0  0  0  0
 36 37  1  0  0  0  0
 37 49  1  0  0  0  0
 38 37  2  0  0  0  0
 38 50  1  0  0  0  0
 39 38  1  0  0  0  0
 40 41  1  0  0  0  0
 40 39  2  0  0  0  0
 41 36  2  0  0  0  0
 42 34  1  0  0  0  0
 42 44  1  0  0  0  0
 43 42  2  0  0  0  0
 48 35  1  0  0  0  0
 51 39  1  0  0  0  0
 52 40  1  0  0  0  0
 53 41  1  0  0  0  0
M  END
$$$$
