NMI.pdb
 OpenBabel07022418103D

 52 51  0  0  1  0  0  0  0  0999 V2000
    5.1090   -2.2580    6.2260 N   0  0  0  0  0  0  0  0  0  0  0  0
    3.8580   -1.6930    5.9000 C   0  0  0  0  0  0  0  0  0  0  0  0
    3.0810   -1.3240    6.7980 O   0  0  0  0  0  0  0  0  0  0  0  0
    3.4940   -1.5510    4.4740 C   0  0  0  0  0  0  0  0  0  0  0  0
    2.1220   -0.9280    4.3000 C   0  0  2  0  0  0  0  0  0  0  0  0
    1.1730   -1.8000    4.9550 N   0  0  0  0  0  0  0  0  0  0  0  0
    1.8570   -0.8570    2.8230 C   0  0  0  0  0  0  0  0  0  0  0  0
    2.5790   -0.1480    2.0840 O   0  0  0  0  0  0  0  0  0  0  0  0
    6.0100   -1.9720    5.7610 H   0  0  0  0  0  0  0  0  0  0  0  0
    5.2010   -3.0000    6.9560 H   0  0  0  0  0  0  0  0  0  0  0  0
    4.2670   -0.9570    3.9170 H   0  0  0  0  0  0  0  0  0  0  0  0
    3.5290   -2.5680    4.0310 H   0  0  0  0  0  0  0  0  0  0  0  0
    2.1130    0.0700    4.7500 H   0  0  0  0  0  0  0  0  0  0  0  0
    0.2320   -1.4020    5.0570 H   0  0  0  0  0  0  0  0  0  0  0  0
    1.2010   -2.7390    4.5280 H   0  0  0  0  0  0  0  0  0  0  0  0
    1.6630   -1.9110   -3.9660 C   0  0  0  0  0  0  0  0  0  0  0  0
    1.8660   -1.8250   -2.1700 S   0  0  0  0  0  0  0  0  0  0  0  0
    0.5990   -2.8330   -1.3490 C   0  0  0  0  0  0  0  0  0  0  0  0
    0.7430   -2.7800    0.1260 C   0  0  0  0  0  0  0  0  0  0  0  0
    0.6360   -1.4280    0.7600 C   0  0  2  0  0  0  0  0  0  0  0  0
    0.8130   -1.5620    2.2010 N   0  0  0  0  0  0  0  0  0  0  0  0
   -0.6880   -0.7730    0.6010 C   0  0  0  0  0  0  0  0  0  0  0  0
   -1.4510   -0.5620    1.6140 O   0  0  0  0  0  0  0  0  0  0  0  0
    2.3090   -2.7120   -4.4010 H   0  0  0  0  0  0  0  0  0  0  0  0
    1.9660   -0.9450   -4.4480 H   0  0  0  0  0  0  0  0  0  0  0  0
    0.5840   -2.1170   -4.1640 H   0  0  0  0  0  0  0  0  0  0  0  0
   -0.4000   -2.7430   -1.7630 H   0  0  0  0  0  0  0  0  0  0  0  0
    0.8970   -3.9070   -1.6250 H   0  0  0  0  0  0  0  0  0  0  0  0
    0.0020   -3.4870    0.5580 H   0  0  0  0  0  0  0  0  0  0  0  0
    1.7980   -3.1250    0.3460 H   0  0  0  0  0  0  0  0  0  0  0  0
    1.3910   -0.7510    0.3160 H   0  0  0  0  0  0  0  0  0  0  0  0
    0.1600   -2.1740    2.7190 H   0  0  0  0  0  0  0  0  0  0  0  0
   -4.4310    2.3680    0.0740 C   0  0  0  0  0  0  0  0  0  0  0  0
   -3.7930    2.3880   -1.3010 C   0  0  0  0  0  0  0  0  0  0  0  0
   -2.4620    1.6890   -1.2350 C   0  0  2  0  0  0  0  0  0  0  0  0
   -1.8700    1.7380   -2.6340 C   0  0  0  0  0  0  0  0  0  0  0  0
   -2.5410    0.3070   -0.6930 C   0  0  2  0  0  0  0  0  0  0  0  0
   -1.2270   -0.3280   -0.6330 N   0  0  0  0  0  0  0  0  0  0  0  0
   -3.4160   -0.5530   -1.5130 C   0  0  0  0  0  0  0  0  0  0  0  0
   -4.6340   -0.3230   -1.7450 O   0  0  0  0  0  0  0  0  0  0  0  0
   -2.9180   -1.7310   -2.1080 O   0  0  0  0  0  0  0  0  0  0  0  0
   -3.6870    2.7900    0.7940 H   0  0  0  0  0  0  0  0  0  0  0  0
   -4.7190    1.3650    0.3990 H   0  0  0  0  0  0  0  0  0  0  0  0
   -5.3070    3.0480    0.1180 H   0  0  0  0  0  0  0  0  0  0  0  0
   -3.6670    3.4520   -1.6180 H   0  0  0  0  0  0  0  0  0  0  0  0
   -4.4740    1.9310   -2.0330 H   0  0  0  0  0  0  0  0  0  0  0  0
   -1.7970    2.3020   -0.5920 H   0  0  0  0  0  0  0  0  0  0  0  0
   -2.2030    2.6880   -3.1000 H   0  0  0  0  0  0  0  0  0  0  0  0
   -0.7550    1.7970   -2.6000 H   0  0  0  0  0  0  0  0  0  0  0  0
   -2.2450    0.9150   -3.2570 H   0  0  0  0  0  0  0  0  0  0  0  0
   -2.9560    0.3500    0.3240 H   0  0  0  0  0  0  0  0  0  0  0  0
   -0.6790   -0.4410   -1.5120 H   0  0  0  0  0  0  0  0  0  0  0  0
  1 10  1  0  0  0  0
  2  1  1  0  0  0  0
  2  3  2  0  0  0  0
  4  2  1  0  0  0  0
  5  4  1  0  0  0  0
  5 13  1  1  0  0  0
  5  6  1  0  0  0  0
  6 14  1  0  0  0  0
  7  5  1  0  0  0  0
  8  7  2  0  0  0  0
  9  1  1  0  0  0  0
 11  4  1  0  0  0  0
 12  4  1  0  0  0  0
 15  6  1  0  0  0  0
 16 17  1  0  0  0  0
 17 18  1  0  0  0  0
 18 19  1  0  0  0  0
 19 30  1  0  0  0  0
 19 29  1  0  0  0  0
 19 20  1  0  0  0  0
 20 31  1  6  0  0  0
 20 21  1  0  0  0  0
 21 32  1  0  0  0  0
 21  7  1  0  0  0  0
 22 20  1  0  0  0  0
 22 23  2  0  0  0  0
 24 16  1  0  0  0  0
 25 16  1  0  0  0  0
 26 16  1  0  0  0  0
 27 18  1  0  0  0  0
 28 18  1  0  0  0  0
 33 44  1  0  0  0  0
 33 43  1  0  0  0  0
 33 42  1  0  0  0  0
 34 35  1  0  0  0  0
 34 33  1  0  0  0  0
 35 37  1  0  0  0  0
 35 47  1  1  0  0  0
 36 49  1  0  0  0  0
 36 35  1  0  0  0  0
 37 38  1  0  0  0  0
 37 51  1  1  0  0  0
 38 22  1  0  0  0  0
 39 37  1  0  0  0  0
 40 39  1  0  0  0  0
 41 39  2  0  0  0  0
 45 34  1  0  0  0  0
 46 34  1  0  0  0  0
 48 36  1  0  0  0  0
 50 36  1  0  0  0  0
 52 38  1  0  0  0  0
M  END
$$$$
