NMK.pdb
 OpenBabel07022418103D

 54 53  0  0  1  0  0  0  0  0999 V2000
    3.9220   -5.3990    3.4920 N   0  0  0  0  0  0  0  0  0  0  0  0
    2.6870   -4.7420    3.1770 C   0  0  0  0  0  0  0  0  0  0  0  0
    1.8090   -4.6120    4.0540 O   0  0  0  0  0  0  0  0  0  0  0  0
    2.4800   -4.2350    1.8260 C   0  0  0  0  0  0  0  0  0  0  0  0
    1.2160   -3.4770    1.5750 C   0  0  2  0  0  0  0  0  0  0  0  0
    1.2430   -3.1120    0.1530 N   0  0  0  0  0  0  0  0  0  0  0  0
    1.0860   -2.2330    2.3940 C   0  0  0  0  0  0  0  0  0  0  0  0
    0.9820   -2.2490    3.6440 O   0  0  0  0  0  0  0  0  0  0  0  0
    4.5520   -5.7680    2.7660 H   0  0  0  0  0  0  0  0  0  0  0  0
    4.1850   -5.5030    4.4880 H   0  0  0  0  0  0  0  0  0  0  0  0
    2.4960   -5.0900    1.0930 H   0  0  0  0  0  0  0  0  0  0  0  0
    3.3750   -3.6230    1.5130 H   0  0  0  0  0  0  0  0  0  0  0  0
    0.3400   -4.1160    1.7750 H   0  0  0  0  0  0  0  0  0  0  0  0
    1.1260   -4.0300   -0.3650 H   0  0  0  0  0  0  0  0  0  0  0  0
    2.1190   -2.6410   -0.0940 H   0  0  0  0  0  0  0  0  0  0  0  0
    3.8270    3.0830   -1.2510 C   0  0  0  0  0  0  0  0  0  0  0  0
    3.6830    2.6920    0.5140 S   0  0  0  0  0  0  0  0  0  0  0  0
    2.2980    1.5650    0.7380 C   0  0  0  0  0  0  0  0  0  0  0  0
    2.1160    1.1910    2.1950 C   0  0  0  0  0  0  0  0  0  0  0  0
    0.9650    0.2510    2.3960 C   0  0  2  0  0  0  0  0  0  0  0  0
    1.0840   -0.9880    1.6980 N   0  0  0  0  0  0  0  0  0  0  0  0
   -0.3140    0.9660    2.0470 C   0  0  0  0  0  0  0  0  0  0  0  0
   -0.5670    2.0750    2.5690 O   0  0  0  0  0  0  0  0  0  0  0  0
    3.1100    3.9010   -1.5160 H   0  0  0  0  0  0  0  0  0  0  0  0
    4.8570    3.4120   -1.5220 H   0  0  0  0  0  0  0  0  0  0  0  0
    3.5220    2.1850   -1.8420 H   0  0  0  0  0  0  0  0  0  0  0  0
    2.4940    0.6560    0.1350 H   0  0  0  0  0  0  0  0  0  0  0  0
    1.3830    2.0890    0.4070 H   0  0  0  0  0  0  0  0  0  0  0  0
    1.9370    2.0940    2.7970 H   0  0  0  0  0  0  0  0  0  0  0  0
    3.0430    0.7170    2.5710 H   0  0  0  0  0  0  0  0  0  0  0  0
    0.8870    0.0850    3.5080 H   0  0  0  0  0  0  0  0  0  0  0  0
    1.1720   -0.9930    0.6670 H   0  0  0  0  0  0  0  0  0  0  0  0
   -1.2600    0.4360    1.1420 N   0  0  0  0  0  0  0  0  0  0  0  0
   -2.4750    1.1030    0.8030 C   0  0  1  0  0  0  0  0  0  0  0  0
   -2.6380    1.4730   -0.6210 C   0  0  0  0  0  0  0  0  0  0  0  0
   -2.6220    0.4000   -1.6300 C   0  0  0  0  0  0  0  0  0  0  0  0
   -3.6650   -0.6460   -1.5120 C   0  0  0  0  0  0  0  0  0  0  0  0
   -3.5050   -1.6770   -2.6390 C   0  0  0  0  0  0  0  0  0  0  0  0
   -3.6290   -1.0660   -3.9400 N   0  0  0  0  0  0  0  0  0  0  0  0
   -3.6750    0.4020    1.3750 C   0  0  0  0  0  0  0  0  0  0  0  0
   -3.5400   -0.6500    2.0790 O   0  0  0  0  0  0  0  0  0  0  0  0
   -4.9550    0.8740    1.1550 O   0  0  0  0  0  0  0  0  0  0  0  0
   -1.0490   -0.4870    0.7070 H   0  0  0  0  0  0  0  0  0  0  0  0
   -2.4760    2.0790    1.3820 H   0  0  0  0  0  0  0  0  0  0  0  0
   -1.7910    2.1780   -0.8740 H   0  0  0  0  0  0  0  0  0  0  0  0
   -3.5490    2.1080   -0.7130 H   0  0  0  0  0  0  0  0  0  0  0  0
   -2.7780    0.9020   -2.6320 H   0  0  0  0  0  0  0  0  0  0  0  0
   -1.6300   -0.1020   -1.7410 H   0  0  0  0  0  0  0  0  0  0  0  0
   -3.6890   -1.2180   -0.5930 H   0  0  0  0  0  0  0  0  0  0  0  0
   -4.7010   -0.2300   -1.6590 H   0  0  0  0  0  0  0  0  0  0  0  0
   -2.4720   -2.0940   -2.5650 H   0  0  0  0  0  0  0  0  0  0  0  0
   -4.2590   -2.4530   -2.4510 H   0  0  0  0  0  0  0  0  0  0  0  0
   -4.3120   -0.2790   -3.9130 H   0  0  0  0  0  0  0  0  0  0  0  0
   -2.7210   -0.6720   -4.2710 H   0  0  0  0  0  0  0  0  0  0  0  0
  1 10  1  0  0  0  0
  2  1  1  0  0  0  0
  2  3  2  0  0  0  0
  4  2  1  0  0  0  0
  5 13  1  1  0  0  0
  5  4  1  0  0  0  0
  5  7  1  0  0  0  0
  6  5  1  0  0  0  0
  7  8  2  0  0  0  0
  9  1  1  0  0  0  0
 11  4  1  0  0  0  0
 12  4  1  0  0  0  0
 14  6  1  0  0  0  0
 15  6  1  0  0  0  0
 16 17  1  0  0  0  0
 17 18  1  0  0  0  0
 18 19  1  0  0  0  0
 19 20  1  0  0  0  0
 19 30  1  0  0  0  0
 19 29  1  0  0  0  0
 20 31  1  1  0  0  0
 21  7  1  0  0  0  0
 21 20  1  0  0  0  0
 22 20  1  0  0  0  0
 22 23  2  0  0  0  0
 24 16  1  0  0  0  0
 25 16  1  0  0  0  0
 26 16  1  0  0  0  0
 27 18  1  0  0  0  0
 28 18  1  0  0  0  0
 32 21  1  0  0  0  0
 33 22  1  0  0  0  0
 34 33  1  0  0  0  0
 34 40  1  0  0  0  0
 34 44  1  1  0  0  0
 35 34  1  0  0  0  0
 36 37  1  0  0  0  0
 36 35  1  0  0  0  0
 37 49  1  0  0  0  0
 38 51  1  0  0  0  0
 38 52  1  0  0  0  0
 38 37  1  0  0  0  0
 39 53  1  0  0  0  0
 39 38  1  0  0  0  0
 40 41  1  0  0  0  0
 42 40  2  0  0  0  0
 43 33  1  0  0  0  0
 45 35  1  0  0  0  0
 46 35  1  0  0  0  0
 47 36  1  0  0  0  0
 48 36  1  0  0  0  0
 50 37  1  0  0  0  0
 54 39  1  0  0  0  0
M  END
$$$$
