NML.pdb
 OpenBabel07022418103D

 52 51  0  0  1  0  0  0  0  0999 V2000
    3.0060   -5.5900    1.7070 N   0  0  0  0  0  0  0  0  0  0  0  0
    2.4390   -4.7110    2.6430 C   0  0  0  0  0  0  0  0  0  0  0  0
    1.6800   -5.1540    3.5330 O   0  0  0  0  0  0  0  0  0  0  0  0
    2.7100   -3.2550    2.6120 C   0  0  0  0  0  0  0  0  0  0  0  0
    1.3500   -2.5900    2.5410 C   0  0  2  0  0  0  0  0  0  0  0  0
    0.7250   -3.0540    1.3370 N   0  0  0  0  0  0  0  0  0  0  0  0
    1.4060   -1.1300    2.5500 C   0  0  0  0  0  0  0  0  0  0  0  0
    1.8640   -0.5230    3.5730 O   0  0  0  0  0  0  0  0  0  0  0  0
    4.0190   -5.6710    1.6120 H   0  0  0  0  0  0  0  0  0  0  0  0
    2.4010   -6.1820    1.0860 H   0  0  0  0  0  0  0  0  0  0  0  0
    3.2070   -3.0370    3.5910 H   0  0  0  0  0  0  0  0  0  0  0  0
    3.3640   -3.0250    1.7720 H   0  0  0  0  0  0  0  0  0  0  0  0
    0.8020   -2.9130    3.4620 H   0  0  0  0  0  0  0  0  0  0  0  0
    1.3180   -2.8030    0.5270 H   0  0  0  0  0  0  0  0  0  0  0  0
   -0.2200   -2.6480    1.2360 H   0  0  0  0  0  0  0  0  0  0  0  0
    3.8900    1.1860   -2.4430 C   0  0  0  0  0  0  0  0  0  0  0  0
    4.3320    1.8660   -0.8280 S   0  0  0  0  0  0  0  0  0  0  0  0
    3.3360    1.1600    0.5110 C   0  0  0  0  0  0  0  0  0  0  0  0
    1.9030    1.5970    0.3100 C   0  0  0  0  0  0  0  0  0  0  0  0
    0.9810    1.0600    1.3790 C   0  0  2  0  0  0  0  0  0  0  0  0
    0.9550   -0.3940    1.4280 N   0  0  0  0  0  0  0  0  0  0  0  0
   -0.3670    1.5910    1.0820 C   0  0  0  0  0  0  0  0  0  0  0  0
   -0.5280    2.8300    0.9880 O   0  0  0  0  0  0  0  0  0  0  0  0
    4.1420    1.9510   -3.2030 H   0  0  0  0  0  0  0  0  0  0  0  0
    2.8020    0.9930   -2.5350 H   0  0  0  0  0  0  0  0  0  0  0  0
    4.4240    0.2710   -2.7090 H   0  0  0  0  0  0  0  0  0  0  0  0
    3.6750    1.6450    1.4530 H   0  0  0  0  0  0  0  0  0  0  0  0
    3.4860    0.0790    0.5010 H   0  0  0  0  0  0  0  0  0  0  0  0
    1.9080    2.6990    0.4240 H   0  0  0  0  0  0  0  0  0  0  0  0
    1.5750    1.2660   -0.6940 H   0  0  0  0  0  0  0  0  0  0  0  0
    1.3420    1.4830    2.3410 H   0  0  0  0  0  0  0  0  0  0  0  0
    0.5930   -0.9150    0.6080 H   0  0  0  0  0  0  0  0  0  0  0  0
   -3.7250   -1.0690   -2.3490 C   0  0  0  0  0  0  0  0  0  0  0  0
   -3.2970   -0.7120   -0.9140 C   0  0  0  0  0  0  0  0  0  0  0  0
   -4.2670   -1.4110    0.0130 C   0  0  0  0  0  0  0  0  0  0  0  0
   -3.2330    0.7660   -0.7390 C   0  0  0  0  0  0  0  0  0  0  0  0
   -2.8150    1.2570    0.6060 C   0  0  2  0  0  0  0  0  0  0  0  0
   -1.4750    0.7360    0.9030 N   0  0  0  0  0  0  0  0  0  0  0  0
   -3.7830    0.9910    1.6730 C   0  0  0  0  0  0  0  0  0  0  0  0
   -4.9790    1.3480    1.5960 O   0  0  0  0  0  0  0  0  0  0  0  0
   -3.3840    0.3150    2.8260 O   0  0  0  0  0  0  0  0  0  0  0  0
   -2.9580   -0.7130   -3.0510 H   0  0  0  0  0  0  0  0  0  0  0  0
   -4.6700   -0.5560   -2.6230 H   0  0  0  0  0  0  0  0  0  0  0  0
   -3.8350   -2.1520   -2.4500 H   0  0  0  0  0  0  0  0  0  0  0  0
   -2.3160   -1.2080   -0.7860 H   0  0  0  0  0  0  0  0  0  0  0  0
   -3.8340   -1.6340    1.0080 H   0  0  0  0  0  0  0  0  0  0  0  0
   -4.4480   -2.4450   -0.4300 H   0  0  0  0  0  0  0  0  0  0  0  0
   -5.2130   -0.8500    0.0410 H   0  0  0  0  0  0  0  0  0  0  0  0
   -4.1870    1.2680   -1.0650 H   0  0  0  0  0  0  0  0  0  0  0  0
   -2.4330    1.1190   -1.4630 H   0  0  0  0  0  0  0  0  0  0  0  0
   -2.7400    2.3830    0.5200 H   0  0  0  0  0  0  0  0  0  0  0  0
   -1.3350   -0.2890    0.9810 H   0  0  0  0  0  0  0  0  0  0  0  0
  1  2  1  0  0  0  0
  2  3  2  0  0  0  0
  4  2  1  0  0  0  0
  4 11  1  0  0  0  0
  5  7  1  0  0  0  0
  5  4  1  0  0  0  0
  5 13  1  1  0  0  0
  6  5  1  0  0  0  0
  7  8  2  0  0  0  0
  9  1  1  0  0  0  0
 10  1  1  0  0  0  0
 12  4  1  0  0  0  0
 14  6  1  0  0  0  0
 15  6  1  0  0  0  0
 16 17  1  0  0  0  0
 17 18  1  0  0  0  0
 18 27  1  0  0  0  0
 19 29  1  0  0  0  0
 19 18  1  0  0  0  0
 19 20  1  0  0  0  0
 20 21  1  0  0  0  0
 20 31  1  1  0  0  0
 21  7  1  0  0  0  0
 22 20  1  0  0  0  0
 23 22  2  0  0  0  0
 24 16  1  0  0  0  0
 25 16  1  0  0  0  0
 26 16  1  0  0  0  0
 28 18  1  0  0  0  0
 30 19  1  0  0  0  0
 32 21  1  0  0  0  0
 33 34  1  0  0  0  0
 34 45  1  0  0  0  0
 34 36  1  0  0  0  0
 34 35  1  0  0  0  0
 35 48  1  0  0  0  0
 35 46  1  0  0  0  0
 36 37  1  0  0  0  0
 37 51  1  6  0  0  0
 37 38  1  0  0  0  0
 37 39  1  0  0  0  0
 38 52  1  0  0  0  0
 38 22  1  0  0  0  0
 39 41  1  0  0  0  0
 40 39  2  0  0  0  0
 42 33  1  0  0  0  0
 43 33  1  0  0  0  0
 44 33  1  0  0  0  0
 47 35  1  0  0  0  0
 49 36  1  0  0  0  0
 50 36  1  0  0  0  0
M  END
$$$$
