NMQ.pdb
 OpenBabel07022418103D

 50 49  0  0  1  0  0  0  0  0999 V2000
    6.4030   -3.0660   -0.6110 N   0  0  0  0  0  0  0  0  0  0  0  0
    5.1230   -2.7580   -1.1650 C   0  0  0  0  0  0  0  0  0  0  0  0
    4.3510   -3.7100   -1.4220 O   0  0  0  0  0  0  0  0  0  0  0  0
    4.6940   -1.3790   -1.4390 C   0  0  0  0  0  0  0  0  0  0  0  0
    3.2770   -1.2280   -1.9130 C   0  0  2  0  0  0  0  0  0  0  0  0
    3.0600    0.2100   -2.1640 N   0  0  0  0  0  0  0  0  0  0  0  0
    2.3660   -1.6330   -0.8010 C   0  0  0  0  0  0  0  0  0  0  0  0
    2.2380   -2.7930   -0.3660 O   0  0  0  0  0  0  0  0  0  0  0  0
    7.0910   -3.5300   -1.2320 H   0  0  0  0  0  0  0  0  0  0  0  0
    6.6230   -2.8280    0.3830 H   0  0  0  0  0  0  0  0  0  0  0  0
    5.3540   -0.9790   -2.2650 H   0  0  0  0  0  0  0  0  0  0  0  0
    4.8780   -0.7020   -0.5590 H   0  0  0  0  0  0  0  0  0  0  0  0
    3.0970   -1.7610   -2.8500 H   0  0  0  0  0  0  0  0  0  0  0  0
    3.7750    0.4880   -2.8800 H   0  0  0  0  0  0  0  0  0  0  0  0
    2.0890    0.3810   -2.4410 H   0  0  0  0  0  0  0  0  0  0  0  0
    3.4130    1.2820    4.1500 C   0  0  0  0  0  0  0  0  0  0  0  0
    1.7160    1.7600    3.7940 S   0  0  0  0  0  0  0  0  0  0  0  0
    1.1600    1.1300    2.1860 C   0  0  0  0  0  0  0  0  0  0  0  0
    1.0980   -0.3750    2.2550 C   0  0  0  0  0  0  0  0  0  0  0  0
    0.6440   -0.9890    0.9470 C   0  0  2  0  0  0  0  0  0  0  0  0
    1.5440   -0.6500   -0.1360 N   0  0  0  0  0  0  0  0  0  0  0  0
   -0.7250   -0.6060    0.5880 C   0  0  0  0  0  0  0  0  0  0  0  0
   -0.9640   -0.0680   -0.5130 O   0  0  0  0  0  0  0  0  0  0  0  0
    4.0030    2.2110    4.3030 H   0  0  0  0  0  0  0  0  0  0  0  0
    3.5130    0.6880    5.0730 H   0  0  0  0  0  0  0  0  0  0  0  0
    3.7890    0.6730    3.3170 H   0  0  0  0  0  0  0  0  0  0  0  0
    1.7810    1.4950    1.3530 H   0  0  0  0  0  0  0  0  0  0  0  0
    0.1350    1.5540    2.0270 H   0  0  0  0  0  0  0  0  0  0  0  0
    0.4150   -0.6520    3.0800 H   0  0  0  0  0  0  0  0  0  0  0  0
    2.0890   -0.8000    2.4920 H   0  0  0  0  0  0  0  0  0  0  0  0
    0.7440   -2.1040    1.1000 H   0  0  0  0  0  0  0  0  0  0  0  0
    1.6030    0.3410   -0.4520 H   0  0  0  0  0  0  0  0  0  0  0  0
   -7.0070   -0.1650   -0.6650 N   0  0  0  0  0  0  0  0  0  0  0  0
   -5.6810   -0.6620   -0.4300 C   0  0  0  0  0  0  0  0  0  0  0  0
   -4.8000   -0.5050   -1.2780 O   0  0  0  0  0  0  0  0  0  0  0  0
   -5.4730   -1.3500    0.8650 C   0  0  0  0  0  0  0  0  0  0  0  0
   -4.0420   -1.6990    1.1550 C   0  0  0  0  0  0  0  0  0  0  0  0
   -3.1860   -0.4880    1.2030 C   0  0  2  0  0  0  0  0  0  0  0  0
   -1.7890   -0.8420    1.4850 N   0  0  0  0  0  0  0  0  0  0  0  0
   -3.6360    0.5480    2.1410 C   0  0  0  0  0  0  0  0  0  0  0  0
   -2.8150    0.9240    3.0530 O   0  0  0  0  0  0  0  0  0  0  0  0
   -4.8720    1.1590    2.1300 O   0  0  0  0  0  0  0  0  0  0  0  0
   -7.8370   -0.7760   -0.6790 H   0  0  0  0  0  0  0  0  0  0  0  0
   -7.1470    0.8550   -0.8290 H   0  0  0  0  0  0  0  0  0  0  0  0
   -5.9690   -0.7490    1.6510 H   0  0  0  0  0  0  0  0  0  0  0  0
   -6.0910   -2.3190    0.8720 H   0  0  0  0  0  0  0  0  0  0  0  0
   -3.6690   -2.4230    0.4000 H   0  0  0  0  0  0  0  0  0  0  0  0
   -3.9750   -2.1990    2.1680 H   0  0  0  0  0  0  0  0  0  0  0  0
   -3.1480   -0.0220    0.2000 H   0  0  0  0  0  0  0  0  0  0  0  0
   -1.6280   -1.2900    2.4150 H   0  0  0  0  0  0  0  0  0  0  0  0
  1 10  1  0  0  0  0
  2  1  1  0  0  0  0
  3  2  2  0  0  0  0
  4  2  1  0  0  0  0
  4 12  1  0  0  0  0
  5 13  1  6  0  0  0
  5  4  1  0  0  0  0
  5  7  1  0  0  0  0
  6  5  1  0  0  0  0
  7  8  2  0  0  0  0
  7 21  1  0  0  0  0
  9  1  1  0  0  0  0
 11  4  1  0  0  0  0
 14  6  1  0  0  0  0
 15  6  1  0  0  0  0
 16 24  1  0  0  0  0
 16 25  1  0  0  0  0
 17 16  1  0  0  0  0
 18 19  1  0  0  0  0
 18 17  1  0  0  0  0
 19 30  1  0  0  0  0
 19 29  1  0  0  0  0
 20 31  1  1  0  0  0
 20 19  1  0  0  0  0
 21 20  1  0  0  0  0
 22 20  1  0  0  0  0
 22 39  1  0  0  0  0
 23 22  2  0  0  0  0
 26 16  1  0  0  0  0
 27 18  1  0  0  0  0
 28 18  1  0  0  0  0
 32 21  1  0  0  0  0
 33 34  1  0  0  0  0
 34 36  1  0  0  0  0
 35 34  2  0  0  0  0
 36 46  1  0  0  0  0
 36 37  1  0  0  0  0
 36 45  1  0  0  0  0
 37 38  1  0  0  0  0
 37 48  1  0  0  0  0
 38 49  1  6  0  0  0
 38 39  1  0  0  0  0
 38 40  1  0  0  0  0
 39 50  1  0  0  0  0
 40 41  1  0  0  0  0
 42 40  2  0  0  0  0
 43 33  1  0  0  0  0
 44 33  1  0  0  0  0
 47 37  1  0  0  0  0
M  END
$$$$
