NMR.pdb
 OpenBabel07022418103D

 56 55  0  0  1  0  0  0  0  0999 V2000
    0.4810    2.5230    5.8170 N   0  0  0  0  0  0  0  0  0  0  0  0
    1.4550    2.8270    4.8420 C   0  0  0  0  0  0  0  0  0  0  0  0
    2.4080    3.5680    5.1120 O   0  0  0  0  0  0  0  0  0  0  0  0
    1.3260    2.2520    3.4920 C   0  0  0  0  0  0  0  0  0  0  0  0
    2.4630    2.6860    2.5820 C   0  0  2  0  0  0  0  0  0  0  0  0
    2.5020    4.1210    2.4320 N   0  0  0  0  0  0  0  0  0  0  0  0
    2.3260    2.0420    1.2460 C   0  0  0  0  0  0  0  0  0  0  0  0
    2.2610    2.7640    0.1980 O   0  0  0  0  0  0  0  0  0  0  0  0
   -0.3900    3.0760    5.9440 H   0  0  0  0  0  0  0  0  0  0  0  0
    0.6370    1.7050    6.4430 H   0  0  0  0  0  0  0  0  0  0  0  0
    0.3870    2.5950    3.0080 H   0  0  0  0  0  0  0  0  0  0  0  0
    1.2690    1.1460    3.5390 H   0  0  0  0  0  0  0  0  0  0  0  0
    3.4060    2.3050    3.0420 H   0  0  0  0  0  0  0  0  0  0  0  0
    1.5220    4.4730    2.4960 H   0  0  0  0  0  0  0  0  0  0  0  0
    3.1510    4.5340    3.1110 H   0  0  0  0  0  0  0  0  0  0  0  0
    4.8570   -3.6310   -0.7170 C   0  0  0  0  0  0  0  0  0  0  0  0
    4.9470   -2.3360   -1.9830 S   0  0  0  0  0  0  0  0  0  0  0  0
    3.3350   -1.4280   -1.9050 C   0  0  0  0  0  0  0  0  0  0  0  0
    3.3310   -0.7630   -0.5850 C   0  0  0  0  0  0  0  0  0  0  0  0
    2.1280    0.0820   -0.2870 C   0  0  2  0  0  0  0  0  0  0  0  0
    2.2610    0.6600    1.0470 N   0  0  0  0  0  0  0  0  0  0  0  0
    0.8400   -0.6430   -0.2970 C   0  0  0  0  0  0  0  0  0  0  0  0
    0.1780   -0.8260    0.7880 O   0  0  0  0  0  0  0  0  0  0  0  0
    5.6300   -4.4320   -0.8940 H   0  0  0  0  0  0  0  0  0  0  0  0
    3.8790   -4.1470   -0.7270 H   0  0  0  0  0  0  0  0  0  0  0  0
    5.0270   -3.2290    0.3030 H   0  0  0  0  0  0  0  0  0  0  0  0
    2.5920   -2.2520   -2.0030 H   0  0  0  0  0  0  0  0  0  0  0  0
    3.3490   -0.7200   -2.7310 H   0  0  0  0  0  0  0  0  0  0  0  0
    4.2030   -0.0420   -0.5830 H   0  0  0  0  0  0  0  0  0  0  0  0
    3.4690   -1.5450    0.1940 H   0  0  0  0  0  0  0  0  0  0  0  0
    2.1000    0.9160   -1.0140 H   0  0  0  0  0  0  0  0  0  0  0  0
    2.3070   -0.0010    1.8450 H   0  0  0  0  0  0  0  0  0  0  0  0
   -7.0640   -3.7760    0.5610 N   0  0  0  0  0  0  0  0  0  0  0  0
   -6.0570   -2.7590    0.4800 C   0  0  0  0  0  0  0  0  0  0  0  0
   -5.7820   -1.9990    1.4930 N   0  0  0  0  0  0  0  0  0  0  0  0
   -5.3190   -2.5440   -0.7140 N   0  0  0  0  0  0  0  0  0  0  0  0
   -4.0110   -1.9170   -0.6990 C   0  0  0  0  0  0  0  0  0  0  0  0
   -3.4750   -1.8250   -2.1170 C   0  0  0  0  0  0  0  0  0  0  0  0
   -2.1190   -1.1810   -2.1530 C   0  0  0  0  0  0  0  0  0  0  0  0
   -1.0680   -1.9000   -1.3540 C   0  0  2  0  0  0  0  0  0  0  0  0
    0.2200   -1.1860   -1.4510 N   0  0  0  0  0  0  0  0  0  0  0  0
   -0.8880   -3.3180   -1.7380 C   0  0  0  0  0  0  0  0  0  0  0  0
    0.2550   -3.7490   -2.1210 O   0  0  0  0  0  0  0  0  0  0  0  0
   -1.8840   -4.2770   -1.7240 O   0  0  0  0  0  0  0  0  0  0  0  0
   -8.0310   -3.5530    0.8440 H   0  0  0  0  0  0  0  0  0  0  0  0
   -6.8400   -4.7690    0.3350 H   0  0  0  0  0  0  0  0  0  0  0  0
   -6.2770   -2.0930    2.4050 H   0  0  0  0  0  0  0  0  0  0  0  0
   -5.7490   -2.8530   -1.6270 H   0  0  0  0  0  0  0  0  0  0  0  0
   -4.0670   -0.8790   -0.3060 H   0  0  0  0  0  0  0  0  0  0  0  0
   -3.3370   -2.5530   -0.1170 H   0  0  0  0  0  0  0  0  0  0  0  0
   -3.4730   -2.8460   -2.5350 H   0  0  0  0  0  0  0  0  0  0  0  0
   -4.1820   -1.2440   -2.7670 H   0  0  0  0  0  0  0  0  0  0  0  0
   -1.7660   -1.2260   -3.2250 H   0  0  0  0  0  0  0  0  0  0  0  0
   -2.2140   -0.1230   -1.8830 H   0  0  0  0  0  0  0  0  0  0  0  0
   -1.3910   -1.9000   -0.2950 H   0  0  0  0  0  0  0  0  0  0  0  0
    0.6620   -1.0700   -2.3790 H   0  0  0  0  0  0  0  0  0  0  0  0
  1  9  1  0  0  0  0
  1 10  1  0  0  0  0
  2  3  2  0  0  0  0
  2  1  1  0  0  0  0
  4 12  1  0  0  0  0
  4  2  1  0  0  0  0
  5 13  1  1  0  0  0
  5  4  1  0  0  0  0
  6 14  1  0  0  0  0
  6  5  1  0  0  0  0
  6 15  1  0  0  0  0
  7  5  1  0  0  0  0
  8  7  2  0  0  0  0
 11  4  1  0  0  0  0
 16 26  1  0  0  0  0
 17 18  1  0  0  0  0
 17 16  1  0  0  0  0
 18 19  1  0  0  0  0
 19 29  1  0  0  0  0
 19 20  1  0  0  0  0
 19 30  1  0  0  0  0
 20 31  1  6  0  0  0
 20 21  1  0  0  0  0
 21  7  1  0  0  0  0
 21 32  1  0  0  0  0
 22 20  1  0  0  0  0
 22 23  2  0  0  0  0
 24 16  1  0  0  0  0
 25 16  1  0  0  0  0
 27 18  1  0  0  0  0
 28 18  1  0  0  0  0
 33 45  1  0  0  0  0
 34 33  1  0  0  0  0
 34 35  2  0  0  0  0
 35 47  1  0  0  0  0
 36 37  1  0  0  0  0
 36 34  1  0  0  0  0
 37 49  1  0  0  0  0
 37 50  1  0  0  0  0
 38 37  1  0  0  0  0
 39 38  1  0  0  0  0
 39 54  1  0  0  0  0
 39 40  1  0  0  0  0
 40 55  1  1  0  0  0
 41 40  1  0  0  0  0
 41 22  1  0  0  0  0
 42 44  1  0  0  0  0
 42 40  1  0  0  0  0
 43 42  2  0  0  0  0
 46 33  1  0  0  0  0
 48 36  1  0  0  0  0
 51 38  1  0  0  0  0
 52 38  1  0  0  0  0
 53 39  1  0  0  0  0
 56 41  1  0  0  0  0
M  END
$$$$
