NND.pdb
 OpenBabel07022418083D

 43 42  0  0  1  0  0  0  0  0999 V2000
    2.5180   -3.6860    4.7800 N   0  0  0  0  0  0  0  0  0  0  0  0
    2.4070   -2.2850    4.9570 C   0  0  0  0  0  0  0  0  0  0  0  0
    2.0170   -1.8550    6.0680 O   0  0  0  0  0  0  0  0  0  0  0  0
    2.7510   -1.3830    3.8390 C   0  0  0  0  0  0  0  0  0  0  0  0
    1.4590   -0.9700    3.1690 C   0  0  2  0  0  0  0  0  0  0  0  0
    0.8150   -2.1740    2.6970 N   0  0  0  0  0  0  0  0  0  0  0  0
    1.6970   -0.0670    2.0000 C   0  0  0  0  0  0  0  0  0  0  0  0
    2.2630    1.0590    2.1490 O   0  0  0  0  0  0  0  0  0  0  0  0
    1.6460   -4.2730    4.8340 H   0  0  0  0  0  0  0  0  0  0  0  0
    3.4180   -4.1650    4.5990 H   0  0  0  0  0  0  0  0  0  0  0  0
    3.3110   -0.4960    4.2070 H   0  0  0  0  0  0  0  0  0  0  0  0
    3.3630   -1.9380    3.1030 H   0  0  0  0  0  0  0  0  0  0  0  0
    0.8180   -0.4130    3.8780 H   0  0  0  0  0  0  0  0  0  0  0  0
   -0.0740   -1.8980    2.2260 H   0  0  0  0  0  0  0  0  0  0  0  0
    1.4250   -2.6100    1.9750 H   0  0  0  0  0  0  0  0  0  0  0  0
    2.5670    2.1950   -2.4870 N   0  0  0  0  0  0  0  0  0  0  0  0
    2.5550    0.7770   -2.6350 C   0  0  0  0  0  0  0  0  0  0  0  0
    2.7440    0.3770   -3.8270 O   0  0  0  0  0  0  0  0  0  0  0  0
    2.3480   -0.1800   -1.5280 C   0  0  0  0  0  0  0  0  0  0  0  0
    1.5410    0.4630   -0.4540 C   0  0  2  0  0  0  0  0  0  0  0  0
    1.3160   -0.4010    0.6840 N   0  0  0  0  0  0  0  0  0  0  0  0
    0.1910    0.8000   -0.9830 C   0  0  0  0  0  0  0  0  0  0  0  0
    0.0890    1.5340   -1.9940 O   0  0  0  0  0  0  0  0  0  0  0  0
    2.1850    2.8530   -3.1840 H   0  0  0  0  0  0  0  0  0  0  0  0
    2.9900    2.5770   -1.6190 H   0  0  0  0  0  0  0  0  0  0  0  0
    1.8370   -1.0730   -1.9710 H   0  0  0  0  0  0  0  0  0  0  0  0
    3.3560   -0.4410   -1.1420 H   0  0  0  0  0  0  0  0  0  0  0  0
    2.0510    1.3790   -0.1190 H   0  0  0  0  0  0  0  0  0  0  0  0
    0.8530   -1.3090    0.5050 H   0  0  0  0  0  0  0  0  0  0  0  0
   -0.9760    0.3040   -0.3620 N   0  0  0  0  0  0  0  0  0  0  0  0
   -2.2660    0.6430   -0.8950 C   0  0  1  0  0  0  0  0  0  0  0  0
   -3.0530   -0.5930   -1.3000 C   0  0  0  0  0  0  0  0  0  0  0  0
   -3.2640   -1.4760   -0.1250 C   0  0  0  0  0  0  0  0  0  0  0  0
   -4.1360   -1.2380    0.7500 O   0  0  0  0  0  0  0  0  0  0  0  0
   -3.0960    1.3740    0.0890 C   0  0  0  0  0  0  0  0  0  0  0  0
   -4.2460    1.7370   -0.2350 O   0  0  0  0  0  0  0  0  0  0  0  0
   -2.4840   -2.6150    0.0420 O   0  0  0  0  0  0  0  0  0  0  0  0
   -2.6220    1.6600    1.3490 O   0  0  0  0  0  0  0  0  0  0  0  0
   -0.9030   -0.2940    0.4690 H   0  0  0  0  0  0  0  0  0  0  0  0
   -2.1920    1.2930   -1.8020 H   0  0  0  0  0  0  0  0  0  0  0  0
   -2.5900   -1.1210   -2.1420 H   0  0  0  0  0  0  0  0  0  0  0  0
   -4.0490   -0.2370   -1.6370 H   0  0  0  0  0  0  0  0  0  0  0  0
   -2.1400   -2.8780    0.9810 H   0  0  0  0  0  0  0  0  0  0  0  0
  1  9  1  0  0  0  0
  1  2  1  0  0  0  0
  2  3  2  0  0  0  0
  4 11  1  0  0  0  0
  4  2  1  0  0  0  0
  5  4  1  0  0  0  0
  5 13  1  1  0  0  0
  6  5  1  0  0  0  0
  7  8  2  0  0  0  0
  7  5  1  0  0  0  0
 10  1  1  0  0  0  0
 12  4  1  0  0  0  0
 14  6  1  0  0  0  0
 15  6  1  0  0  0  0
 16 25  1  0  0  0  0
 17 16  1  0  0  0  0
 17 19  1  0  0  0  0
 18 17  2  0  0  0  0
 19 27  1  0  0  0  0
 19 20  1  0  0  0  0
 20 28  1  1  0  0  0
 20 21  1  0  0  0  0
 21  7  1  0  0  0  0
 22 20  1  0  0  0  0
 22 30  1  0  0  0  0
 23 22  2  0  0  0  0
 24 16  1  0  0  0  0
 26 19  1  0  0  0  0
 29 21  1  0  0  0  0
 30 39  1  0  0  0  0
 31 40  1  6  0  0  0
 31 30  1  0  0  0  0
 31 35  1  0  0  0  0
 32 31  1  0  0  0  0
 32 33  1  0  0  0  0
 33 37  1  0  0  0  0
 33 34  2  0  0  0  0
 35 38  1  0  0  0  0
 36 35  2  0  0  0  0
 37 43  1  0  0  0  0
 41 32  1  0  0  0  0
 42 32  1  0  0  0  0
M  END
$$$$
