NNH.pdb
 OpenBabel07022418083D

 47 47  0  0  1  0  0  0  0  0999 V2000
    3.3870   -5.1200    4.5580 N   0  0  0  0  0  0  0  0  0  0  0  0
    3.2980   -4.8830    3.1550 C   0  0  0  0  0  0  0  0  0  0  0  0
    3.0820   -5.8070    2.3600 O   0  0  0  0  0  0  0  0  0  0  0  0
    3.4780   -3.4690    2.6880 C   0  0  0  0  0  0  0  0  0  0  0  0
    2.0830   -2.9460    2.3560 C   0  0  2  0  0  0  0  0  0  0  0  0
    1.5480   -3.8010    1.3140 N   0  0  0  0  0  0  0  0  0  0  0  0
    2.0990   -1.5620    1.8460 C   0  0  0  0  0  0  0  0  0  0  0  0
    2.5440   -0.6550    2.6010 O   0  0  0  0  0  0  0  0  0  0  0  0
    4.3460   -5.1070    4.9640 H   0  0  0  0  0  0  0  0  0  0  0  0
    2.5430   -5.2960    5.1450 H   0  0  0  0  0  0  0  0  0  0  0  0
    3.8860   -2.8360    3.4840 H   0  0  0  0  0  0  0  0  0  0  0  0
    4.1370   -3.4640    1.8220 H   0  0  0  0  0  0  0  0  0  0  0  0
    1.4080   -3.0570    3.2280 H   0  0  0  0  0  0  0  0  0  0  0  0
    1.0850   -4.6520    1.7030 H   0  0  0  0  0  0  0  0  0  0  0  0
    2.3590   -4.1120    0.7330 H   0  0  0  0  0  0  0  0  0  0  0  0
    2.9360    2.0110   -2.9480 N   0  0  0  0  0  0  0  0  0  0  0  0
    2.4490    1.7380   -1.6410 C   0  0  0  0  0  0  0  0  0  0  0  0
    2.1170    2.6970   -0.9260 O   0  0  0  0  0  0  0  0  0  0  0  0
    2.3610    0.3460   -1.1990 C   0  0  0  0  0  0  0  0  0  0  0  0
    1.6920    0.2320    0.1210 C   0  0  2  0  0  0  0  0  0  0  0  0
    1.6540   -1.1680    0.5780 N   0  0  0  0  0  0  0  0  0  0  0  0
    0.2410    0.6390   -0.0460 C   0  0  0  0  0  0  0  0  0  0  0  0
   -0.1430    1.7510   -0.4080 O   0  0  0  0  0  0  0  0  0  0  0  0
    3.8990    2.3620   -3.0780 H   0  0  0  0  0  0  0  0  0  0  0  0
    2.2770    1.8390   -3.7430 H   0  0  0  0  0  0  0  0  0  0  0  0
    3.4110   -0.0410   -1.1800 H   0  0  0  0  0  0  0  0  0  0  0  0
    1.7680   -0.1900   -1.9940 H   0  0  0  0  0  0  0  0  0  0  0  0
    2.1370    0.8700    0.8770 H   0  0  0  0  0  0  0  0  0  0  0  0
    1.2790   -1.8590   -0.0890 H   0  0  0  0  0  0  0  0  0  0  0  0
   -0.8000   -0.3190    0.2300 N   0  0  0  0  0  0  0  0  0  0  0  0
   -2.2220    0.0540    0.0710 C   0  0  1  0  0  0  0  0  0  0  0  0
   -2.6220    1.0390    1.0970 C   0  0  0  0  0  0  0  0  0  0  0  0
   -4.0420    1.4270    1.0420 C   0  0  0  0  0  0  0  0  0  0  0  0
   -4.6500    2.3580    1.9000 C   0  0  0  0  0  0  0  0  0  0  0  0
   -5.9380    2.4890    1.5960 N   0  0  0  0  0  0  0  0  0  0  0  0
   -6.1950    1.6740    0.5680 C   0  0  0  0  0  0  0  0  0  0  0  0
   -5.0460    1.0410    0.2450 N   0  0  0  0  0  0  0  0  0  0  0  0
   -2.4370    0.4710   -1.3410 C   0  0  0  0  0  0  0  0  0  0  0  0
   -1.4730    0.4400   -2.1830 O   0  0  0  0  0  0  0  0  0  0  0  0
   -3.6340    0.9060   -1.8490 O   0  0  0  0  0  0  0  0  0  0  0  0
   -0.5630   -1.2790    0.5440 H   0  0  0  0  0  0  0  0  0  0  0  0
   -2.7950   -0.8810    0.1940 H   0  0  0  0  0  0  0  0  0  0  0  0
   -2.4840    0.5690    2.1150 H   0  0  0  0  0  0  0  0  0  0  0  0
   -1.9640    1.9370    1.0090 H   0  0  0  0  0  0  0  0  0  0  0  0
   -4.0930    2.8630    2.6760 H   0  0  0  0  0  0  0  0  0  0  0  0
   -6.6210    3.1000    2.0600 H   0  0  0  0  0  0  0  0  0  0  0  0
   -7.1630    1.5290    0.0610 H   0  0  0  0  0  0  0  0  0  0  0  0
  1  9  1  0  0  0  0
  1 10  1  0  0  0  0
  2  1  1  0  0  0  0
  3  2  2  0  0  0  0
  4  2  1  0  0  0  0
  4 11  1  0  0  0  0
  5  4  1  0  0  0  0
  5 13  1  1  0  0  0
  6 14  1  0  0  0  0
  6  5  1  0  0  0  0
  7  5  1  0  0  0  0
  7  8  2  0  0  0  0
 12  4  1  0  0  0  0
 15  6  1  0  0  0  0
 16 17  1  0  0  0  0
 17 19  1  0  0  0  0
 17 18  2  0  0  0  0
 19 26  1  0  0  0  0
 19 20  1  0  0  0  0
 20 21  1  0  0  0  0
 20 28  1  1  0  0  0
 21  7  1  0  0  0  0
 22 20  1  0  0  0  0
 22 30  1  0  0  0  0
 23 22  2  0  0  0  0
 24 16  1  0  0  0  0
 25 16  1  0  0  0  0
 27 19  1  0  0  0  0
 29 21  1  0  0  0  0
 30 41  1  0  0  0  0
 31 42  1  1  0  0  0
 31 30  1  0  0  0  0
 31 32  1  0  0  0  0
 32 43  1  0  0  0  0
 33 32  1  0  0  0  0
 33 34  2  0  0  0  0
 34 45  1  0  0  0  0
 35 34  1  0  0  0  0
 35 46  1  0  0  0  0
 36 35  1  0  0  0  0
 37 36  2  0  0  0  0
 37 33  1  0  0  0  0
 38 31  1  0  0  0  0
 39 38  2  0  0  0  0
 40 38  1  0  0  0  0
 44 32  1  0  0  0  0
 47 36  1  0  0  0  0
M  END
$$$$
