NNI.pdb
 OpenBabel07022418083D

 49 48  0  0  1  0  0  0  0  0999 V2000
    0.5320   -1.1500    6.1640 N   0  0  0  0  0  0  0  0  0  0  0  0
    0.2610   -0.0060    5.3780 C   0  0  0  0  0  0  0  0  0  0  0  0
   -0.3480    0.9370    5.9990 O   0  0  0  0  0  0  0  0  0  0  0  0
    0.6210    0.1570    3.9520 C   0  0  0  0  0  0  0  0  0  0  0  0
    1.4740   -1.0430    3.5470 C   0  0  2  0  0  0  0  0  0  0  0  0
    2.6470   -0.9700    4.4370 N   0  0  0  0  0  0  0  0  0  0  0  0
    1.9590   -0.9130    2.1590 C   0  0  0  0  0  0  0  0  0  0  0  0
    3.1600   -0.5360    1.9220 O   0  0  0  0  0  0  0  0  0  0  0  0
   -0.2330   -1.8070    6.5010 H   0  0  0  0  0  0  0  0  0  0  0  0
    1.5020   -1.4310    6.4670 H   0  0  0  0  0  0  0  0  0  0  0  0
   -0.2900    0.1630    3.3460 H   0  0  0  0  0  0  0  0  0  0  0  0
    1.2700    1.0490    3.7960 H   0  0  0  0  0  0  0  0  0  0  0  0
    0.9340   -1.9490    3.7860 H   0  0  0  0  0  0  0  0  0  0  0  0
    2.9890   -1.9520    4.6450 H   0  0  0  0  0  0  0  0  0  0  0  0
    3.4380   -0.4690    3.9680 H   0  0  0  0  0  0  0  0  0  0  0  0
    4.0330   -2.0600   -2.5410 N   0  0  0  0  0  0  0  0  0  0  0  0
    2.6250   -2.1780   -2.2940 C   0  0  0  0  0  0  0  0  0  0  0  0
    1.8910   -2.1180   -3.3050 O   0  0  0  0  0  0  0  0  0  0  0  0
    2.0780   -2.3600   -0.9400 C   0  0  0  0  0  0  0  0  0  0  0  0
    1.7070   -1.0290   -0.3460 C   0  0  2  0  0  0  0  0  0  0  0  0
    1.1850   -1.1810    1.0030 N   0  0  0  0  0  0  0  0  0  0  0  0
    0.8090   -0.2280   -1.1760 C   0  0  0  0  0  0  0  0  0  0  0  0
    1.0210    0.0640   -2.3740 O   0  0  0  0  0  0  0  0  0  0  0  0
    4.4990   -2.2540   -3.4370 H   0  0  0  0  0  0  0  0  0  0  0  0
    4.6330   -1.7560   -1.7490 H   0  0  0  0  0  0  0  0  0  0  0  0
    2.9300   -2.7540   -0.3240 H   0  0  0  0  0  0  0  0  0  0  0  0
    1.2520   -3.0820   -1.0270 H   0  0  0  0  0  0  0  0  0  0  0  0
    2.6840   -0.4800   -0.2470 H   0  0  0  0  0  0  0  0  0  0  0  0
    0.2190   -1.5100    1.1230 H   0  0  0  0  0  0  0  0  0  0  0  0
   -2.7220   -1.4040    0.2340 C   0  0  0  0  0  0  0  0  0  0  0  0
   -3.3520   -0.3040   -0.5480 C   0  0  0  0  0  0  0  0  0  0  0  0
   -2.5700    0.2290   -1.7030 C   0  0  2  0  0  0  0  0  0  0  0  0
   -2.2560   -0.8300   -2.7380 C   0  0  0  0  0  0  0  0  0  0  0  0
   -1.3650    1.0490   -1.3550 C   0  0  2  0  0  0  0  0  0  0  0  0
   -0.4160    0.2680   -0.5830 N   0  0  0  0  0  0  0  0  0  0  0  0
   -1.7190    2.3010   -0.6500 C   0  0  0  0  0  0  0  0  0  0  0  0
   -2.5100    3.1190   -1.1640 O   0  0  0  0  0  0  0  0  0  0  0  0
   -1.1460    2.5340    0.5950 O   0  0  0  0  0  0  0  0  0  0  0  0
   -3.4770   -2.2350    0.4240 H   0  0  0  0  0  0  0  0  0  0  0  0
   -2.4780   -1.0610    1.2720 H   0  0  0  0  0  0  0  0  0  0  0  0
   -1.8000   -1.8410   -0.2040 H   0  0  0  0  0  0  0  0  0  0  0  0
   -3.5950    0.5140    0.1750 H   0  0  0  0  0  0  0  0  0  0  0  0
   -4.3680   -0.6630   -0.8900 H   0  0  0  0  0  0  0  0  0  0  0  0
   -3.2650    0.9540   -2.2610 H   0  0  0  0  0  0  0  0  0  0  0  0
   -1.8810   -0.3040   -3.6610 H   0  0  0  0  0  0  0  0  0  0  0  0
   -3.2160   -1.3270   -2.9910 H   0  0  0  0  0  0  0  0  0  0  0  0
   -1.5270   -1.5650   -2.3870 H   0  0  0  0  0  0  0  0  0  0  0  0
   -0.8380    1.2830   -2.3300 H   0  0  0  0  0  0  0  0  0  0  0  0
   -0.6400    0.1030    0.4160 H   0  0  0  0  0  0  0  0  0  0  0  0
  1 10  1  0  0  0  0
  1  9  1  0  0  0  0
  2  3  2  0  0  0  0
  2  1  1  0  0  0  0
  4  2  1  0  0  0  0
  5 13  1  1  0  0  0
  5  4  1  0  0  0  0
  5  6  1  0  0  0  0
  6 14  1  0  0  0  0
  7  5  1  0  0  0  0
  8  7  2  0  0  0  0
 11  4  1  0  0  0  0
 12  4  1  0  0  0  0
 15  6  1  0  0  0  0
 16 17  1  0  0  0  0
 16 25  1  0  0  0  0
 17 19  1  0  0  0  0
 18 17  2  0  0  0  0
 19 20  1  0  0  0  0
 19 26  1  0  0  0  0
 20 28  1  1  0  0  0
 20 21  1  0  0  0  0
 21 29  1  0  0  0  0
 21  7  1  0  0  0  0
 22 35  1  0  0  0  0
 22 20  1  0  0  0  0
 23 22  2  0  0  0  0
 24 16  1  0  0  0  0
 27 19  1  0  0  0  0
 30 39  1  0  0  0  0
 30 40  1  0  0  0  0
 31 42  1  0  0  0  0
 31 30  1  0  0  0  0
 32 44  1  6  0  0  0
 32 34  1  0  0  0  0
 32 31  1  0  0  0  0
 33 47  1  0  0  0  0
 33 32  1  0  0  0  0
 34 48  1  6  0  0  0
 34 36  1  0  0  0  0
 34 35  1  0  0  0  0
 35 49  1  0  0  0  0
 36 38  1  0  0  0  0
 37 36  2  0  0  0  0
 41 30  1  0  0  0  0
 43 31  1  0  0  0  0
 45 33  1  0  0  0  0
 46 33  1  0  0  0  0
M  END
$$$$
