NNK.pdb
 OpenBabel07022418083D

 51 50  0  0  1  0  0  0  0  0999 V2000
    5.4570   -0.0310    5.8580 N   0  0  0  0  0  0  0  0  0  0  0  0
    4.1480   -0.2850    5.3970 C   0  0  0  0  0  0  0  0  0  0  0  0
    3.3290   -0.7300    6.2420 O   0  0  0  0  0  0  0  0  0  0  0  0
    3.7260   -0.0520    3.9930 C   0  0  0  0  0  0  0  0  0  0  0  0
    2.2870   -0.4350    3.8560 C   0  0  2  0  0  0  0  0  0  0  0  0
    2.1780   -1.8440    4.2030 N   0  0  0  0  0  0  0  0  0  0  0  0
    1.7630   -0.1820    2.4850 C   0  0  0  0  0  0  0  0  0  0  0  0
    1.7640    0.9820    2.0300 O   0  0  0  0  0  0  0  0  0  0  0  0
    6.2590   -0.5680    5.4850 H   0  0  0  0  0  0  0  0  0  0  0  0
    5.6090    0.6990    6.5740 H   0  0  0  0  0  0  0  0  0  0  0  0
    4.3870   -0.6210    3.2970 H   0  0  0  0  0  0  0  0  0  0  0  0
    3.8730    1.0300    3.7740 H   0  0  0  0  0  0  0  0  0  0  0  0
    1.7040    0.1310    4.6080 H   0  0  0  0  0  0  0  0  0  0  0  0
    1.1660   -2.0770    4.3420 H   0  0  0  0  0  0  0  0  0  0  0  0
    2.6440   -2.4630    3.5110 H   0  0  0  0  0  0  0  0  0  0  0  0
    1.8410   -0.5670   -2.7640 N   0  0  0  0  0  0  0  0  0  0  0  0
    1.4400   -1.6770   -2.0020 C   0  0  0  0  0  0  0  0  0  0  0  0
    0.8360   -2.6230   -2.5440 O   0  0  0  0  0  0  0  0  0  0  0  0
    1.7320   -1.7280   -0.5620 C   0  0  0  0  0  0  0  0  0  0  0  0
    0.7350   -1.0150    0.3160 C   0  0  2  0  0  0  0  0  0  0  0  0
    1.2660   -1.2120    1.6820 N   0  0  0  0  0  0  0  0  0  0  0  0
   -0.6220   -1.5270    0.3060 C   0  0  0  0  0  0  0  0  0  0  0  0
   -1.0900   -2.0670    1.3700 O   0  0  0  0  0  0  0  0  0  0  0  0
    1.3740   -0.3640   -3.6620 H   0  0  0  0  0  0  0  0  0  0  0  0
    2.6010    0.0470   -2.4260 H   0  0  0  0  0  0  0  0  0  0  0  0
    1.9080   -2.7760   -0.2140 H   0  0  0  0  0  0  0  0  0  0  0  0
    2.7570   -1.2580   -0.4540 H   0  0  0  0  0  0  0  0  0  0  0  0
    0.8010    0.0760    0.0860 H   0  0  0  0  0  0  0  0  0  0  0  0
    1.2510   -2.1900    2.0270 H   0  0  0  0  0  0  0  0  0  0  0  0
   -1.5570   -1.5100   -0.7730 N   0  0  0  0  0  0  0  0  0  0  0  0
   -2.8900   -2.0420   -0.6570 C   0  0  1  0  0  0  0  0  0  0  0  0
   -3.9910   -1.1350   -1.0800 C   0  0  0  0  0  0  0  0  0  0  0  0
   -4.1440    0.1460   -0.3770 C   0  0  0  0  0  0  0  0  0  0  0  0
   -3.0470    1.1260   -0.4040 C   0  0  0  0  0  0  0  0  0  0  0  0
   -2.6490    1.6100   -1.7690 C   0  0  0  0  0  0  0  0  0  0  0  0
   -1.5630    2.5640   -1.6440 N   0  0  0  0  0  0  0  0  0  0  0  0
   -2.9610   -3.2970   -1.4490 C   0  0  0  0  0  0  0  0  0  0  0  0
   -4.0680   -3.9180   -1.4690 O   0  0  0  0  0  0  0  0  0  0  0  0
   -1.9280   -3.8540   -2.1690 O   0  0  0  0  0  0  0  0  0  0  0  0
   -1.2230   -1.0840   -1.6600 H   0  0  0  0  0  0  0  0  0  0  0  0
   -3.0800   -2.4010    0.4080 H   0  0  0  0  0  0  0  0  0  0  0  0
   -3.9680   -1.0310   -2.2080 H   0  0  0  0  0  0  0  0  0  0  0  0
   -4.9580   -1.7030   -0.9220 H   0  0  0  0  0  0  0  0  0  0  0  0
   -4.3740   -0.0740    0.6950 H   0  0  0  0  0  0  0  0  0  0  0  0
   -5.0760    0.6760   -0.7350 H   0  0  0  0  0  0  0  0  0  0  0  0
   -2.1480    0.8870    0.1910 H   0  0  0  0  0  0  0  0  0  0  0  0
   -3.4550    2.0560    0.1110 H   0  0  0  0  0  0  0  0  0  0  0  0
   -3.4940    2.1900   -2.2460 H   0  0  0  0  0  0  0  0  0  0  0  0
   -2.3690    0.8460   -2.4860 H   0  0  0  0  0  0  0  0  0  0  0  0
   -1.9600    3.5120   -1.3820 H   0  0  0  0  0  0  0  0  0  0  0  0
   -1.0810    2.7190   -2.5590 H   0  0  0  0  0  0  0  0  0  0  0  0
  1 10  1  0  0  0  0
  2  1  1  0  0  0  0
  2  3  2  0  0  0  0
  4  2  1  0  0  0  0
  5  4  1  0  0  0  0
  5  6  1  0  0  0  0
  5 13  1  1  0  0  0
  6 14  1  0  0  0  0
  7  5  1  0  0  0  0
  8  7  2  0  0  0  0
  9  1  1  0  0  0  0
 11  4  1  0  0  0  0
 12  4  1  0  0  0  0
 15  6  1  0  0  0  0
 16 25  1  0  0  0  0
 16 17  1  0  0  0  0
 17 19  1  0  0  0  0
 18 17  2  0  0  0  0
 19 27  1  0  0  0  0
 19 26  1  0  0  0  0
 19 20  1  0  0  0  0
 20 28  1  6  0  0  0
 20 21  1  0  0  0  0
 21 29  1  0  0  0  0
 21  7  1  0  0  0  0
 22 20  1  0  0  0  0
 22 23  2  0  0  0  0
 24 16  1  0  0  0  0
 30 31  1  0  0  0  0
 30 22  1  0  0  0  0
 31 41  1  1  0  0  0
 32 43  1  0  0  0  0
 32 31  1  0  0  0  0
 32 33  1  0  0  0  0
 33 44  1  0  0  0  0
 34 33  1  0  0  0  0
 34 47  1  0  0  0  0
 34 46  1  0  0  0  0
 35 36  1  0  0  0  0
 35 34  1  0  0  0  0
 36 50  1  0  0  0  0
 37 31  1  0  0  0  0
 38 37  1  0  0  0  0
 39 37  2  0  0  0  0
 40 30  1  0  0  0  0
 42 32  1  0  0  0  0
 45 33  1  0  0  0  0
 48 35  1  0  0  0  0
 49 35  1  0  0  0  0
 51 36  1  0  0  0  0
M  END
$$$$
