NNM.pdb
 OpenBabel07022418083D

 47 46  0  0  1  0  0  0  0  0999 V2000
    2.2880   -4.3550    3.4270 N   0  0  0  0  0  0  0  0  0  0  0  0
    1.0940   -3.5900    3.4200 C   0  0  0  0  0  0  0  0  0  0  0  0
    0.1330   -3.9860    4.1170 O   0  0  0  0  0  0  0  0  0  0  0  0
    0.9930   -2.3570    2.6070 C   0  0  0  0  0  0  0  0  0  0  0  0
    2.3050   -2.1320    1.8930 C   0  0  2  0  0  0  0  0  0  0  0  0
    3.3280   -1.9960    2.8850 N   0  0  0  0  0  0  0  0  0  0  0  0
    2.2840   -0.9210    1.0380 C   0  0  0  0  0  0  0  0  0  0  0  0
    3.0850    0.0380    1.2420 O   0  0  0  0  0  0  0  0  0  0  0  0
    2.5680   -4.9040    2.5630 H   0  0  0  0  0  0  0  0  0  0  0  0
    2.9400   -4.4350    4.2240 H   0  0  0  0  0  0  0  0  0  0  0  0
    0.1360   -2.3830    1.9010 H   0  0  0  0  0  0  0  0  0  0  0  0
    0.7970   -1.5220    3.3250 H   0  0  0  0  0  0  0  0  0  0  0  0
    2.4850   -3.0340    1.2700 H   0  0  0  0  0  0  0  0  0  0  0  0
    4.0110   -2.7840    2.8420 H   0  0  0  0  0  0  0  0  0  0  0  0
    3.8530   -1.1200    2.7460 H   0  0  0  0  0  0  0  0  0  0  0  0
    1.5740    1.0070   -4.6870 N   0  0  0  0  0  0  0  0  0  0  0  0
    1.5940    1.2200   -3.2520 C   0  0  0  0  0  0  0  0  0  0  0  0
    1.6640    2.4190   -2.9080 O   0  0  0  0  0  0  0  0  0  0  0  0
    1.5340    0.0820   -2.3260 C   0  0  0  0  0  0  0  0  0  0  0  0
    1.3700    0.4420   -0.8890 C   0  0  2  0  0  0  0  0  0  0  0  0
    1.3810   -0.7570   -0.0500 N   0  0  0  0  0  0  0  0  0  0  0  0
    0.0550    1.1240   -0.7100 C   0  0  0  0  0  0  0  0  0  0  0  0
   -0.2050    2.1850   -1.3160 O   0  0  0  0  0  0  0  0  0  0  0  0
    2.4220    0.8950   -5.2520 H   0  0  0  0  0  0  0  0  0  0  0  0
    0.6530    0.9660   -5.1640 H   0  0  0  0  0  0  0  0  0  0  0  0
    2.4590   -0.5650   -2.4660 H   0  0  0  0  0  0  0  0  0  0  0  0
    0.6380   -0.5240   -2.6790 H   0  0  0  0  0  0  0  0  0  0  0  0
    2.1740    1.1130   -0.5740 H   0  0  0  0  0  0  0  0  0  0  0  0
    0.7230   -1.5130   -0.2440 H   0  0  0  0  0  0  0  0  0  0  0  0
   -2.4600   -0.7630    3.3560 C   0  0  0  0  0  0  0  0  0  0  0  0
   -3.8230   -1.0200    2.2620 S   0  0  0  0  0  0  0  0  0  0  0  0
   -3.5670   -0.9140    0.5270 C   0  0  0  0  0  0  0  0  0  0  0  0
   -3.3740    0.4150   -0.0910 C   0  0  0  0  0  0  0  0  0  0  0  0
   -2.1890    1.1860    0.3550 C   0  0  2  0  0  0  0  0  0  0  0  0
   -0.9240    0.5540    0.1700 N   0  0  0  0  0  0  0  0  0  0  0  0
   -2.4090    1.8700    1.6360 C   0  0  0  0  0  0  0  0  0  0  0  0
   -3.5910    2.2580    1.8710 O   0  0  0  0  0  0  0  0  0  0  0  0
   -1.4290    2.1220    2.5900 O   0  0  0  0  0  0  0  0  0  0  0  0
   -2.3280   -1.5930    4.1100 H   0  0  0  0  0  0  0  0  0  0  0  0
   -2.6780    0.1660    3.9620 H   0  0  0  0  0  0  0  0  0  0  0  0
   -1.4990   -0.5740    2.8430 H   0  0  0  0  0  0  0  0  0  0  0  0
   -4.3830   -1.5030   -0.0380 H   0  0  0  0  0  0  0  0  0  0  0  0
   -2.6460   -1.5170    0.2310 H   0  0  0  0  0  0  0  0  0  0  0  0
   -3.4060    0.3490   -1.2260 H   0  0  0  0  0  0  0  0  0  0  0  0
   -4.3300    0.9960    0.1450 H   0  0  0  0  0  0  0  0  0  0  0  0
   -2.1500    2.1440   -0.3700 H   0  0  0  0  0  0  0  0  0  0  0  0
   -0.6450   -0.3340    0.6490 H   0  0  0  0  0  0  0  0  0  0  0  0
  1 10  1  0  0  0  0
  2  1  1  0  0  0  0
  2  3  2  0  0  0  0
  4 12  1  0  0  0  0
  4  2  1  0  0  0  0
  5 13  1  6  0  0  0
  5  4  1  0  0  0  0
  5  6  1  0  0  0  0
  7  8  2  0  0  0  0
  7  5  1  0  0  0  0
  9  1  1  0  0  0  0
 11  4  1  0  0  0  0
 14  6  1  0  0  0  0
 15  6  1  0  0  0  0
 16 17  1  0  0  0  0
 17 18  2  0  0  0  0
 17 19  1  0  0  0  0
 19 20  1  0  0  0  0
 20 22  1  0  0  0  0
 20 28  1  1  0  0  0
 20 21  1  0  0  0  0
 21  7  1  0  0  0  0
 22 35  1  0  0  0  0
 23 22  2  0  0  0  0
 24 16  1  0  0  0  0
 25 16  1  0  0  0  0
 26 19  1  0  0  0  0
 27 19  1  0  0  0  0
 29 21  1  0  0  0  0
 30 40  1  0  0  0  0
 30 39  1  0  0  0  0
 31 30  1  0  0  0  0
 32 31  1  0  0  0  0
 33 45  1  0  0  0  0
 33 34  1  0  0  0  0
 33 32  1  0  0  0  0
 34 46  1  6  0  0  0
 34 36  1  0  0  0  0
 35 34  1  0  0  0  0
 35 47  1  0  0  0  0
 36 37  2  0  0  0  0
 36 38  1  0  0  0  0
 41 30  1  0  0  0  0
 42 32  1  0  0  0  0
 43 32  1  0  0  0  0
 44 33  1  0  0  0  0
M  END
$$$$
