NNP.pdb
 OpenBabel07022418083D

 44 44  0  0  1  0  0  0  0  0999 V2000
    2.9070   -5.4410    2.3370 N   0  0  0  0  0  0  0  0  0  0  0  0
    2.9960   -4.2690    3.1090 C   0  0  0  0  0  0  0  0  0  0  0  0
    2.8960   -4.3200    4.3480 O   0  0  0  0  0  0  0  0  0  0  0  0
    3.2090   -2.9710    2.4430 C   0  0  0  0  0  0  0  0  0  0  0  0
    1.8200   -2.3340    2.3030 C   0  0  2  0  0  0  0  0  0  0  0  0
    1.0420   -3.2560    1.5000 N   0  0  0  0  0  0  0  0  0  0  0  0
    1.8860   -0.9900    1.7010 C   0  0  0  0  0  0  0  0  0  0  0  0
    2.5560   -0.0630    2.2280 O   0  0  0  0  0  0  0  0  0  0  0  0
    2.3220   -6.2700    2.5780 H   0  0  0  0  0  0  0  0  0  0  0  0
    3.4570   -5.5290    1.4390 H   0  0  0  0  0  0  0  0  0  0  0  0
    3.6700   -3.1190    1.4410 H   0  0  0  0  0  0  0  0  0  0  0  0
    3.8690   -2.3620    3.0740 H   0  0  0  0  0  0  0  0  0  0  0  0
    1.4030   -2.2950    3.3310 H   0  0  0  0  0  0  0  0  0  0  0  0
    0.2730   -3.7010    2.0550 H   0  0  0  0  0  0  0  0  0  0  0  0
    1.6170   -3.9260    0.9500 H   0  0  0  0  0  0  0  0  0  0  0  0
    1.0560    1.5710   -3.6420 N   0  0  0  0  0  0  0  0  0  0  0  0
    1.6990    1.5270   -2.3790 C   0  0  0  0  0  0  0  0  0  0  0  0
    2.2740    2.5610   -1.9530 O   0  0  0  0  0  0  0  0  0  0  0  0
    1.6770    0.2870   -1.6000 C   0  0  0  0  0  0  0  0  0  0  0  0
    1.1540    0.5040   -0.1880 C   0  0  2  0  0  0  0  0  0  0  0  0
    1.1720   -0.7450    0.4970 N   0  0  0  0  0  0  0  0  0  0  0  0
   -0.0730    1.2840   -0.1620 C   0  0  0  0  0  0  0  0  0  0  0  0
   -0.1060    2.3450   -0.9170 O   0  0  0  0  0  0  0  0  0  0  0  0
    1.0210    2.4530   -4.1940 H   0  0  0  0  0  0  0  0  0  0  0  0
    0.6000    0.7050   -4.0430 H   0  0  0  0  0  0  0  0  0  0  0  0
    2.7520   -0.0380   -1.4490 H   0  0  0  0  0  0  0  0  0  0  0  0
    1.1950   -0.5630   -2.0840 H   0  0  0  0  0  0  0  0  0  0  0  0
    1.9520    1.1310    0.3250 H   0  0  0  0  0  0  0  0  0  0  0  0
    0.6480   -1.5690    0.0950 H   0  0  0  0  0  0  0  0  0  0  0  0
   -1.2620    1.0860    0.5570 N   0  0  0  0  0  0  0  0  0  0  0  0
   -1.5960    0.0600    1.5140 C   0  0  0  0  0  0  0  0  0  0  0  0
   -3.0440   -0.2650    1.2060 C   0  0  0  0  0  0  0  0  0  0  0  0
   -3.5560    0.8770    0.3660 C   0  0  0  0  0  0  0  0  0  0  0  0
   -2.4830    1.9160    0.4870 C   0  0  1  0  0  0  0  0  0  0  0  0
   -2.6850    2.7200    1.7080 C   0  0  0  0  0  0  0  0  0  0  0  0
   -3.7420    3.3870    1.8520 O   0  0  0  0  0  0  0  0  0  0  0  0
   -1.7740    2.8110    2.7500 O   0  0  0  0  0  0  0  0  0  0  0  0
   -1.6100    0.5370    2.5470 H   0  0  0  0  0  0  0  0  0  0  0  0
   -0.9620   -0.8170    1.5260 H   0  0  0  0  0  0  0  0  0  0  0  0
   -3.6230   -0.3890    2.1380 H   0  0  0  0  0  0  0  0  0  0  0  0
   -3.1380   -1.2170    0.6390 H   0  0  0  0  0  0  0  0  0  0  0  0
   -3.5880    0.5670   -0.7040 H   0  0  0  0  0  0  0  0  0  0  0  0
   -4.5490    1.2230    0.7240 H   0  0  0  0  0  0  0  0  0  0  0  0
   -2.4310    2.5670   -0.4180 H   0  0  0  0  0  0  0  0  0  0  0  0
  1  9  1  0  0  0  0
  1  2  1  0  0  0  0
  2  3  2  0  0  0  0
  4 12  1  0  0  0  0
  4  2  1  0  0  0  0
  5  4  1  0  0  0  0
  5 13  1  1  0  0  0
  6 14  1  0  0  0  0
  6  5  1  0  0  0  0
  7  8  2  0  0  0  0
  7  5  1  0  0  0  0
 10  1  1  0  0  0  0
 11  4  1  0  0  0  0
 15  6  1  0  0  0  0
 16 17  1  0  0  0  0
 17 18  2  0  0  0  0
 17 19  1  0  0  0  0
 19 26  1  0  0  0  0
 19 20  1  0  0  0  0
 20 22  1  0  0  0  0
 20 28  1  1  0  0  0
 20 21  1  0  0  0  0
 21  7  1  0  0  0  0
 22 30  1  0  0  0  0
 23 22  2  0  0  0  0
 24 16  1  0  0  0  0
 25 16  1  0  0  0  0
 27 19  1  0  0  0  0
 29 21  1  0  0  0  0
 30 31  1  0  0  0  0
 31 39  1  0  0  0  0
 31 38  1  0  0  0  0
 32 31  1  0  0  0  0
 32 40  1  0  0  0  0
 33 34  1  0  0  0  0
 33 43  1  0  0  0  0
 33 32  1  0  0  0  0
 34 44  1  6  0  0  0
 34 30  1  0  0  0  0
 34 35  1  0  0  0  0
 35 36  2  0  0  0  0
 35 37  1  0  0  0  0
 41 32  1  0  0  0  0
 42 33  1  0  0  0  0
M  END
$$$$
