NNQ.pdb
 OpenBabel07022418083D

 47 46  0  0  1  0  0  0  0  0999 V2000
    0.8900   -5.1770    3.8620 N   0  0  0  0  0  0  0  0  0  0  0  0
    0.1070   -4.0110    3.6930 C   0  0  0  0  0  0  0  0  0  0  0  0
    0.4510   -2.9500    4.2480 O   0  0  0  0  0  0  0  0  0  0  0  0
   -1.1010   -4.0570    2.8690 C   0  0  0  0  0  0  0  0  0  0  0  0
   -1.1240   -3.0010    1.7880 C   0  0  2  0  0  0  0  0  0  0  0  0
   -0.0150   -3.1590    0.8620 N   0  0  0  0  0  0  0  0  0  0  0  0
   -1.0950   -1.6330    2.3570 C   0  0  0  0  0  0  0  0  0  0  0  0
   -1.9570   -1.3260    3.2100 O   0  0  0  0  0  0  0  0  0  0  0  0
    0.8580   -5.9590    3.1620 H   0  0  0  0  0  0  0  0  0  0  0  0
    1.5330   -5.3250    4.6740 H   0  0  0  0  0  0  0  0  0  0  0  0
   -1.2060   -5.0360    2.3740 H   0  0  0  0  0  0  0  0  0  0  0  0
   -2.0290   -3.9070    3.4780 H   0  0  0  0  0  0  0  0  0  0  0  0
   -2.0640   -3.1200    1.2330 H   0  0  0  0  0  0  0  0  0  0  0  0
    0.8890   -2.9690    1.3270 H   0  0  0  0  0  0  0  0  0  0  0  0
   -0.1390   -2.4770    0.0910 H   0  0  0  0  0  0  0  0  0  0  0  0
    3.0330    2.1980    4.1680 N   0  0  0  0  0  0  0  0  0  0  0  0
    1.7250    2.0300    3.6470 C   0  0  0  0  0  0  0  0  0  0  0  0
    0.9270    2.9830    3.7240 O   0  0  0  0  0  0  0  0  0  0  0  0
    1.3530    0.7640    3.0450 C   0  0  0  0  0  0  0  0  0  0  0  0
   -0.0260    0.6670    2.4700 C   0  0  2  0  0  0  0  0  0  0  0  0
   -0.1310   -0.7110    1.9530 N   0  0  0  0  0  0  0  0  0  0  0  0
   -0.2890    1.5640    1.3330 C   0  0  0  0  0  0  0  0  0  0  0  0
   -0.2700    2.8110    1.4330 O   0  0  0  0  0  0  0  0  0  0  0  0
    3.5980    3.0360    3.9350 H   0  0  0  0  0  0  0  0  0  0  0  0
    3.4580    1.4650    4.8090 H   0  0  0  0  0  0  0  0  0  0  0  0
    2.0740    0.4830    2.2200 H   0  0  0  0  0  0  0  0  0  0  0  0
    1.4460   -0.1110    3.7530 H   0  0  0  0  0  0  0  0  0  0  0  0
   -0.7940    0.8240    3.2650 H   0  0  0  0  0  0  0  0  0  0  0  0
    0.5910   -0.9700    1.2340 H   0  0  0  0  0  0  0  0  0  0  0  0
    0.7830   -1.6590   -4.3440 N   0  0  0  0  0  0  0  0  0  0  0  0
    0.7640   -0.3320   -3.8220 C   0  0  0  0  0  0  0  0  0  0  0  0
    1.5310    0.4940   -4.3940 O   0  0  0  0  0  0  0  0  0  0  0  0
   -0.1040    0.0480   -2.6840 C   0  0  0  0  0  0  0  0  0  0  0  0
    0.0670    1.4720   -2.2740 C   0  0  0  0  0  0  0  0  0  0  0  0
   -0.8440    1.8340   -1.0980 C   0  0  2  0  0  0  0  0  0  0  0  0
   -0.5770    1.0270    0.0620 N   0  0  0  0  0  0  0  0  0  0  0  0
   -2.2560    1.6390   -1.5750 C   0  0  0  0  0  0  0  0  0  0  0  0
   -3.0690    0.8690   -1.0200 O   0  0  0  0  0  0  0  0  0  0  0  0
   -2.6610    2.3530   -2.6880 O   0  0  0  0  0  0  0  0  0  0  0  0
    0.3520   -1.9110   -5.2760 H   0  0  0  0  0  0  0  0  0  0  0  0
    1.2210   -2.4520   -3.8420 H   0  0  0  0  0  0  0  0  0  0  0  0
   -1.1460   -0.2100   -2.9460 H   0  0  0  0  0  0  0  0  0  0  0  0
    0.1800   -0.6510   -1.8490 H   0  0  0  0  0  0  0  0  0  0  0  0
   -0.2860    2.1190   -3.1290 H   0  0  0  0  0  0  0  0  0  0  0  0
    1.1090    1.7640   -2.1000 H   0  0  0  0  0  0  0  0  0  0  0  0
   -0.7700    2.9100   -0.8480 H   0  0  0  0  0  0  0  0  0  0  0  0
   -0.6110   -0.0180   -0.0810 H   0  0  0  0  0  0  0  0  0  0  0  0
  1 10  1  0  0  0  0
  2  1  1  0  0  0  0
  2  3  2  0  0  0  0
  4 12  1  0  0  0  0
  4  2  1  0  0  0  0
  5 13  1  6  0  0  0
  5  7  1  0  0  0  0
  5  4  1  0  0  0  0
  6 14  1  0  0  0  0
  6  5  1  0  0  0  0
  7  8  2  0  0  0  0
  9  1  1  0  0  0  0
 11  4  1  0  0  0  0
 15  6  1  0  0  0  0
 16 25  1  0  0  0  0
 17 18  2  0  0  0  0
 17 16  1  0  0  0  0
 19 17  1  0  0  0  0
 19 27  1  0  0  0  0
 20 19  1  0  0  0  0
 20 28  1  1  0  0  0
 21  7  1  0  0  0  0
 21 20  1  0  0  0  0
 22 23  2  0  0  0  0
 22 20  1  0  0  0  0
 24 16  1  0  0  0  0
 26 19  1  0  0  0  0
 29 21  1  0  0  0  0
 30 41  1  0  0  0  0
 30 31  1  0  0  0  0
 31 33  1  0  0  0  0
 32 31  2  0  0  0  0
 33 34  1  0  0  0  0
 33 43  1  0  0  0  0
 34 45  1  0  0  0  0
 34 35  1  0  0  0  0
 35 46  1  1  0  0  0
 35 36  1  0  0  0  0
 36 22  1  0  0  0  0
 37 35  1  0  0  0  0
 37 38  1  0  0  0  0
 39 37  2  0  0  0  0
 40 30  1  0  0  0  0
 42 33  1  0  0  0  0
 44 34  1  0  0  0  0
 47 36  1  0  0  0  0
M  END
$$$$
