NNR.pdb
 OpenBabel07022418083D

 53 52  0  0  1  0  0  0  0  0999 V2000
    3.4830   -4.9620    2.5880 N   0  0  0  0  0  0  0  0  0  0  0  0
    3.8850   -3.6180    2.7740 C   0  0  0  0  0  0  0  0  0  0  0  0
    5.0960   -3.3950    3.0360 O   0  0  0  0  0  0  0  0  0  0  0  0
    2.8850   -2.5280    2.6580 C   0  0  0  0  0  0  0  0  0  0  0  0
    3.5900   -1.2110    2.9120 C   0  0  2  0  0  0  0  0  0  0  0  0
    4.1820   -1.1700    4.2300 N   0  0  0  0  0  0  0  0  0  0  0  0
    2.6720   -0.0560    2.7110 C   0  0  0  0  0  0  0  0  0  0  0  0
    2.4650    0.7970    3.6190 O   0  0  0  0  0  0  0  0  0  0  0  0
    3.1610   -5.5320    3.3820 H   0  0  0  0  0  0  0  0  0  0  0  0
    3.5210   -5.3600    1.6260 H   0  0  0  0  0  0  0  0  0  0  0  0
    2.4700   -2.5780    1.6320 H   0  0  0  0  0  0  0  0  0  0  0  0
    2.0570   -2.6400    3.3830 H   0  0  0  0  0  0  0  0  0  0  0  0
    4.4060   -1.1360    2.1670 H   0  0  0  0  0  0  0  0  0  0  0  0
    5.2030   -1.3450    4.1350 H   0  0  0  0  0  0  0  0  0  0  0  0
    4.0700   -0.1960    4.5910 H   0  0  0  0  0  0  0  0  0  0  0  0
    2.5030    2.1080   -2.2180 N   0  0  0  0  0  0  0  0  0  0  0  0
    1.9010    1.3970   -1.1240 C   0  0  0  0  0  0  0  0  0  0  0  0
    1.6040    0.2040   -1.3620 O   0  0  0  0  0  0  0  0  0  0  0  0
    1.6870    2.1080    0.1510 C   0  0  0  0  0  0  0  0  0  0  0  0
    1.0920    1.2200    1.2210 C   0  0  2  0  0  0  0  0  0  0  0  0
    1.9890    0.1290    1.4760 N   0  0  0  0  0  0  0  0  0  0  0  0
   -0.2330    0.7910    0.7360 C   0  0  0  0  0  0  0  0  0  0  0  0
   -1.0850    1.6700    0.4980 O   0  0  0  0  0  0  0  0  0  0  0  0
    2.1670    3.0130   -2.5770 H   0  0  0  0  0  0  0  0  0  0  0  0
    3.3430    1.6630   -2.6710 H   0  0  0  0  0  0  0  0  0  0  0  0
    2.6450    2.5200    0.5310 H   0  0  0  0  0  0  0  0  0  0  0  0
    0.9780    2.9650   -0.0470 H   0  0  0  0  0  0  0  0  0  0  0  0
    0.9510    1.8730    2.1150 H   0  0  0  0  0  0  0  0  0  0  0  0
    2.1520   -0.5690    0.7250 H   0  0  0  0  0  0  0  0  0  0  0  0
   -5.0730    1.2720    0.0340 N   0  0  0  0  0  0  0  0  0  0  0  0
   -4.5790    0.7850   -1.1990 C   0  0  0  0  0  0  0  0  0  0  0  0
   -3.8150    1.4860   -1.9610 N   0  0  0  0  0  0  0  0  0  0  0  0
   -4.9040   -0.5150   -1.6600 N   0  0  0  0  0  0  0  0  0  0  0  0
   -4.1130   -1.4400   -2.3490 C   0  0  0  0  0  0  0  0  0  0  0  0
   -3.0290   -2.2360   -1.7830 C   0  0  0  0  0  0  0  0  0  0  0  0
   -1.8030   -1.7350   -1.1790 C   0  0  0  0  0  0  0  0  0  0  0  0
   -1.8910   -0.9600    0.0550 C   0  0  2  0  0  0  0  0  0  0  0  0
   -0.5520   -0.5580    0.5410 N   0  0  0  0  0  0  0  0  0  0  0  0
   -2.4760   -1.7600    1.1570 C   0  0  0  0  0  0  0  0  0  0  0  0
   -3.6540   -2.2380    1.1010 O   0  0  0  0  0  0  0  0  0  0  0  0
   -1.7740   -2.0460    2.3350 O   0  0  0  0  0  0  0  0  0  0  0  0
   -4.6510    0.9210    0.9320 H   0  0  0  0  0  0  0  0  0  0  0  0
   -5.8440    1.9730    0.1160 H   0  0  0  0  0  0  0  0  0  0  0  0
   -3.4310    1.1690   -2.8710 H   0  0  0  0  0  0  0  0  0  0  0  0
   -5.9220   -0.8590   -1.4490 H   0  0  0  0  0  0  0  0  0  0  0  0
   -3.5960   -0.8120   -3.1910 H   0  0  0  0  0  0  0  0  0  0  0  0
   -4.7780   -2.1020   -3.0320 H   0  0  0  0  0  0  0  0  0  0  0  0
   -2.7530   -2.9840   -2.6470 H   0  0  0  0  0  0  0  0  0  0  0  0
   -3.5640   -2.9820   -1.0540 H   0  0  0  0  0  0  0  0  0  0  0  0
   -1.1510   -2.6470   -0.9410 H   0  0  0  0  0  0  0  0  0  0  0  0
   -1.2490   -1.1650   -2.0000 H   0  0  0  0  0  0  0  0  0  0  0  0
   -2.4680   -0.0410   -0.0680 H   0  0  0  0  0  0  0  0  0  0  0  0
    0.0940   -1.3570    0.7130 H   0  0  0  0  0  0  0  0  0  0  0  0
  1  2  1  0  0  0  0
  1  9  1  0  0  0  0
  2  3  2  0  0  0  0
  4  2  1  0  0  0  0
  4  5  1  0  0  0  0
  4 12  1  0  0  0  0
  5 13  1  6  0  0  0
  5  6  1  0  0  0  0
  6 15  1  0  0  0  0
  7  5  1  0  0  0  0
  7  8  2  0  0  0  0
 10  1  1  0  0  0  0
 11  4  1  0  0  0  0
 14  6  1  0  0  0  0
 16 17  1  0  0  0  0
 17 19  1  0  0  0  0
 18 17  2  0  0  0  0
 19 26  1  0  0  0  0
 19 20  1  0  0  0  0
 20 21  1  0  0  0  0
 20 28  1  1  0  0  0
 21  7  1  0  0  0  0
 22 20  1  0  0  0  0
 23 22  2  0  0  0  0
 24 16  1  0  0  0  0
 25 16  1  0  0  0  0
 27 19  1  0  0  0  0
 29 21  1  0  0  0  0
 30 43  1  0  0  0  0
 30 42  1  0  0  0  0
 31 30  1  0  0  0  0
 32 31  2  0  0  0  0
 33 45  1  0  0  0  0
 33 31  1  0  0  0  0
 34 35  1  0  0  0  0
 34 33  1  0  0  0  0
 35 36  1  0  0  0  0
 35 49  1  0  0  0  0
 36 50  1  0  0  0  0
 36 37  1  0  0  0  0
 37 52  1  6  0  0  0
 37 38  1  0  0  0  0
 37 39  1  0  0  0  0
 38 53  1  0  0  0  0
 38 22  1  0  0  0  0
 39 41  1  0  0  0  0
 40 39  2  0  0  0  0
 44 32  1  0  0  0  0
 46 34  1  0  0  0  0
 47 34  1  0  0  0  0
 48 35  1  0  0  0  0
 51 36  1  0  0  0  0
M  END
$$$$
