NNV.pdb
 OpenBabel07022418083D

 46 45  0  0  1  0  0  0  0  0999 V2000
    3.2640   -5.6600    2.0680 N   0  0  0  0  0  0  0  0  0  0  0  0
    3.5980   -4.2990    2.3520 C   0  0  0  0  0  0  0  0  0  0  0  0
    3.9780   -4.0520    3.5430 O   0  0  0  0  0  0  0  0  0  0  0  0
    3.5060   -3.2340    1.3180 C   0  0  0  0  0  0  0  0  0  0  0  0
    2.5880   -2.1220    1.8610 C   0  0  2  0  0  0  0  0  0  0  0  0
    1.3060   -2.7960    2.0880 N   0  0  0  0  0  0  0  0  0  0  0  0
    2.4340   -1.0220    0.8790 C   0  0  0  0  0  0  0  0  0  0  0  0
    3.3680   -0.2630    0.5460 O   0  0  0  0  0  0  0  0  0  0  0  0
    2.8730   -6.3280    2.7730 H   0  0  0  0  0  0  0  0  0  0  0  0
    3.4180   -6.0010    1.1070 H   0  0  0  0  0  0  0  0  0  0  0  0
    3.0620   -3.6240    0.4060 H   0  0  0  0  0  0  0  0  0  0  0  0
    4.5300   -2.8110    1.2130 H   0  0  0  0  0  0  0  0  0  0  0  0
    2.9290   -1.7590    2.8480 H   0  0  0  0  0  0  0  0  0  0  0  0
    1.2700   -3.2730    3.0050 H   0  0  0  0  0  0  0  0  0  0  0  0
    1.1340   -3.3960    1.2760 H   0  0  0  0  0  0  0  0  0  0  0  0
   -0.2120    0.3890   -4.3090 N   0  0  0  0  0  0  0  0  0  0  0  0
    0.3280    0.7570   -3.0200 C   0  0  0  0  0  0  0  0  0  0  0  0
    0.6150    1.9680   -2.9100 O   0  0  0  0  0  0  0  0  0  0  0  0
    0.4870   -0.2720   -2.0020 C   0  0  0  0  0  0  0  0  0  0  0  0
    0.9640    0.2690   -0.6990 C   0  0  2  0  0  0  0  0  0  0  0  0
    1.1530   -0.8130    0.2770 N   0  0  0  0  0  0  0  0  0  0  0  0
   -0.0540    1.1540   -0.0500 C   0  0  0  0  0  0  0  0  0  0  0  0
   -0.4190    2.1850   -0.6490 O   0  0  0  0  0  0  0  0  0  0  0  0
   -0.8750    1.0260   -4.7760 H   0  0  0  0  0  0  0  0  0  0  0  0
    0.1180   -0.5290   -4.6870 H   0  0  0  0  0  0  0  0  0  0  0  0
   -0.4390   -0.8770   -1.8470 H   0  0  0  0  0  0  0  0  0  0  0  0
    1.2400   -1.0000   -2.3830 H   0  0  0  0  0  0  0  0  0  0  0  0
    1.8880    0.8380   -0.8510 H   0  0  0  0  0  0  0  0  0  0  0  0
    0.3580   -1.4330    0.5280 H   0  0  0  0  0  0  0  0  0  0  0  0
   -4.0160    1.6480    2.6770 C   0  0  0  0  0  0  0  0  0  0  0  0
   -2.8920    0.9140    1.9850 C   0  0  0  0  0  0  0  0  0  0  0  0
   -3.4210    0.5680    0.6010 C   0  0  0  0  0  0  0  0  0  0  0  0
   -1.6180    1.7120    1.8830 C   0  0  2  0  0  0  0  0  0  0  0  0
   -0.6380    0.8990    1.2110 N   0  0  0  0  0  0  0  0  0  0  0  0
   -1.1530    2.2430    3.1650 C   0  0  0  0  0  0  0  0  0  0  0  0
   -1.9450    2.9500    3.8370 O   0  0  0  0  0  0  0  0  0  0  0  0
    0.1060    2.0290    3.7130 O   0  0  0  0  0  0  0  0  0  0  0  0
   -4.1620    2.6900    2.3090 H   0  0  0  0  0  0  0  0  0  0  0  0
   -4.9500    1.1100    2.4090 H   0  0  0  0  0  0  0  0  0  0  0  0
   -3.9370    1.6010    3.7790 H   0  0  0  0  0  0  0  0  0  0  0  0
   -2.7170   -0.0220    2.5170 H   0  0  0  0  0  0  0  0  0  0  0  0
   -4.5190    0.3530    0.6420 H   0  0  0  0  0  0  0  0  0  0  0  0
   -2.9500   -0.3550    0.2090 H   0  0  0  0  0  0  0  0  0  0  0  0
   -3.2520    1.4270   -0.1000 H   0  0  0  0  0  0  0  0  0  0  0  0
   -1.8300    2.5690    1.2060 H   0  0  0  0  0  0  0  0  0  0  0  0
   -0.3370    0.0390    1.7220 H   0  0  0  0  0  0  0  0  0  0  0  0
  1  2  1  0  0  0  0
  1  9  1  0  0  0  0
  2  3  2  0  0  0  0
  4  5  1  0  0  0  0
  4  2  1  0  0  0  0
  5  6  1  0  0  0  0
  5 13  1  1  0  0  0
  6 14  1  0  0  0  0
  7  5  1  0  0  0  0
  8  7  2  0  0  0  0
 10  1  1  0  0  0  0
 11  4  1  0  0  0  0
 12  4  1  0  0  0  0
 15  6  1  0  0  0  0
 16 17  1  0  0  0  0
 17 18  2  0  0  0  0
 17 19  1  0  0  0  0
 19 26  1  0  0  0  0
 19 20  1  0  0  0  0
 20 28  1  6  0  0  0
 20 22  1  0  0  0  0
 20 21  1  0  0  0  0
 21 29  1  0  0  0  0
 21  7  1  0  0  0  0
 22 34  1  0  0  0  0
 23 22  2  0  0  0  0
 24 16  1  0  0  0  0
 25 16  1  0  0  0  0
 27 19  1  0  0  0  0
 30 40  1  0  0  0  0
 31 41  1  0  0  0  0
 31 30  1  0  0  0  0
 32 42  1  0  0  0  0
 32 31  1  0  0  0  0
 33 45  1  6  0  0  0
 33 31  1  0  0  0  0
 33 35  1  0  0  0  0
 34 46  1  0  0  0  0
 34 33  1  0  0  0  0
 35 37  2  0  0  0  0
 35 36  1  0  0  0  0
 38 30  1  0  0  0  0
 39 30  1  0  0  0  0
 43 32  1  0  0  0  0
 44 32  1  0  0  0  0
M  END
$$$$
