NPD.pdb
 OpenBabel07022418113D

 43 43  0  0  1  0  0  0  0  0999 V2000
    2.9400   -4.7290    0.9090 N   0  0  0  0  0  0  0  0  0  0  0  0
    3.9620   -3.7640    0.8690 C   0  0  0  0  0  0  0  0  0  0  0  0
    5.1470   -4.1600    0.8970 O   0  0  0  0  0  0  0  0  0  0  0  0
    3.6470   -2.3220    0.7960 C   0  0  0  0  0  0  0  0  0  0  0  0
    2.1400   -2.1180    0.7010 C   0  0  2  0  0  0  0  0  0  0  0  0
    1.5880   -2.7420   -0.4570 N   0  0  0  0  0  0  0  0  0  0  0  0
    1.8120   -0.6900    0.7750 C   0  0  0  0  0  0  0  0  0  0  0  0
    2.0490   -0.0870    1.8840 O   0  0  0  0  0  0  0  0  0  0  0  0
    2.2920   -4.7450    1.7220 H   0  0  0  0  0  0  0  0  0  0  0  0
    2.8090   -5.4260    0.1520 H   0  0  0  0  0  0  0  0  0  0  0  0
    4.1330   -1.8690   -0.0980 H   0  0  0  0  0  0  0  0  0  0  0  0
    4.0450   -1.8270    1.7060 H   0  0  0  0  0  0  0  0  0  0  0  0
    1.7260   -2.6150    1.6210 H   0  0  0  0  0  0  0  0  0  0  0  0
    2.2560   -3.3210   -1.0090 H   0  0  0  0  0  0  0  0  0  0  0  0
    0.6860   -3.2460   -0.2660 H   0  0  0  0  0  0  0  0  0  0  0  0
    1.2540    0.1020   -0.2610 N   0  0  0  0  0  0  0  0  0  0  0  0
    0.9970   -0.4300   -1.5830 C   0  0  0  0  0  0  0  0  0  0  0  0
    0.9480    0.8570   -2.4230 C   0  0  0  0  0  0  0  0  0  0  0  0
    0.1420    1.7210   -1.4930 C   0  0  0  0  0  0  0  0  0  0  0  0
    0.8550    1.4970   -0.1750 C   0  0  1  0  0  0  0  0  0  0  0  0
   -0.1220    1.7380    0.9170 C   0  0  0  0  0  0  0  0  0  0  0  0
   -0.3600    2.9330    1.2120 O   0  0  0  0  0  0  0  0  0  0  0  0
    1.8310   -1.0640   -1.9620 H   0  0  0  0  0  0  0  0  0  0  0  0
    0.0110   -0.9230   -1.5910 H   0  0  0  0  0  0  0  0  0  0  0  0
    0.4770    0.6840   -3.4040 H   0  0  0  0  0  0  0  0  0  0  0  0
    1.9610    1.2860   -2.4670 H   0  0  0  0  0  0  0  0  0  0  0  0
   -0.8890    1.2850   -1.4660 H   0  0  0  0  0  0  0  0  0  0  0  0
    0.1270    2.7890   -1.7830 H   0  0  0  0  0  0  0  0  0  0  0  0
    1.6990    2.2000   -0.1230 H   0  0  0  0  0  0  0  0  0  0  0  0
   -0.7810    0.6970    1.6260 N   0  0  0  0  0  0  0  0  0  0  0  0
   -1.7100    1.0600    2.6740 C   0  0  1  0  0  0  0  0  0  0  0  0
   -3.1080    0.5290    2.4440 C   0  0  0  0  0  0  0  0  0  0  0  0
   -3.7170    1.0130    1.1800 C   0  0  0  0  0  0  0  0  0  0  0  0
   -3.0810    0.8040    0.1100 O   0  0  0  0  0  0  0  0  0  0  0  0
   -1.2560    0.4790    3.9820 C   0  0  0  0  0  0  0  0  0  0  0  0
   -1.9590    0.6940    5.0090 O   0  0  0  0  0  0  0  0  0  0  0  0
   -4.9280    1.6770    1.0950 O   0  0  0  0  0  0  0  0  0  0  0  0
   -0.1080   -0.2720    4.0970 O   0  0  0  0  0  0  0  0  0  0  0  0
   -0.6140   -0.3070    1.3990 H   0  0  0  0  0  0  0  0  0  0  0  0
   -1.7720    2.1510    2.8180 H   0  0  0  0  0  0  0  0  0  0  0  0
   -3.7380    0.8600    3.2890 H   0  0  0  0  0  0  0  0  0  0  0  0
   -3.0200   -0.5820    2.3710 H   0  0  0  0  0  0  0  0  0  0  0  0
   -5.3730    1.8890    0.2050 H   0  0  0  0  0  0  0  0  0  0  0  0
  1  9  1  0  0  0  0
  2  3  2  0  0  0  0
  2  1  1  0  0  0  0
  4  2  1  0  0  0  0
  4 12  1  0  0  0  0
  5  7  1  0  0  0  0
  5  4  1  0  0  0  0
  5 13  1  1  0  0  0
  6 15  1  0  0  0  0
  6  5  1  0  0  0  0
  7  8  2  0  0  0  0
 10  1  1  0  0  0  0
 11  4  1  0  0  0  0
 14  6  1  0  0  0  0
 16 20  1  0  0  0  0
 16  7  1  0  0  0  0
 17 16  1  0  0  0  0
 18 17  1  0  0  0  0
 18 19  1  0  0  0  0
 19 27  1  0  0  0  0
 19 20  1  0  0  0  0
 20 29  1  1  0  0  0
 20 21  1  0  0  0  0
 21 22  2  0  0  0  0
 21 30  1  0  0  0  0
 23 17  1  0  0  0  0
 24 17  1  0  0  0  0
 25 18  1  0  0  0  0
 26 18  1  0  0  0  0
 28 19  1  0  0  0  0
 30 31  1  0  0  0  0
 31 40  1  1  0  0  0
 31 35  1  0  0  0  0
 32 31  1  0  0  0  0
 32 41  1  0  0  0  0
 33 32  1  0  0  0  0
 34 33  2  0  0  0  0
 35 38  2  0  0  0  0
 35 36  1  0  0  0  0
 37 33  1  0  0  0  0
 39 30  1  0  0  0  0
 42 32  1  0  0  0  0
 43 37  1  0  0  0  0
M  END
$$$$
