NPE.pdb
 OpenBabel07022418113D

 46 46  0  0  1  0  0  0  0  0999 V2000
    1.6350   -3.3980    3.3770 N   0  0  0  0  0  0  0  0  0  0  0  0
    2.0600   -2.1520    3.8730 C   0  0  0  0  0  0  0  0  0  0  0  0
    2.1570   -2.0270    5.1180 O   0  0  0  0  0  0  0  0  0  0  0  0
    2.3750   -1.0500    2.9610 C   0  0  0  0  0  0  0  0  0  0  0  0
    2.0820   -1.5220    1.5160 C   0  0  2  0  0  0  0  0  0  0  0  0
    2.9470   -2.7240    1.3130 N   0  0  0  0  0  0  0  0  0  0  0  0
    2.5180   -0.4370    0.6590 C   0  0  0  0  0  0  0  0  0  0  0  0
    3.6220   -0.7250    0.0070 O   0  0  0  0  0  0  0  0  0  0  0  0
    0.6310   -3.6510    3.2330 H   0  0  0  0  0  0  0  0  0  0  0  0
    2.3540   -4.1200    3.1360 H   0  0  0  0  0  0  0  0  0  0  0  0
    1.7650   -0.1340    3.1150 H   0  0  0  0  0  0  0  0  0  0  0  0
    3.4740   -0.8210    3.0290 H   0  0  0  0  0  0  0  0  0  0  0  0
    1.0920   -1.8950    1.4920 H   0  0  0  0  0  0  0  0  0  0  0  0
    2.4920   -3.3330    0.6050 H   0  0  0  0  0  0  0  0  0  0  0  0
    3.9090   -2.4360    1.0380 H   0  0  0  0  0  0  0  0  0  0  0  0
    2.0150    0.8430    0.3920 N   0  0  0  0  0  0  0  0  0  0  0  0
    2.8640    1.7350   -0.4970 C   0  0  0  0  0  0  0  0  0  0  0  0
    1.8180    2.1030   -1.5150 C   0  0  0  0  0  0  0  0  0  0  0  0
    0.5790    2.3130   -0.6990 C   0  0  0  0  0  0  0  0  0  0  0  0
    0.9350    1.6880    0.6950 C   0  0  1  0  0  0  0  0  0  0  0  0
   -0.3240    1.2290    1.2370 C   0  0  0  0  0  0  0  0  0  0  0  0
   -1.0080    1.9730    2.0050 O   0  0  0  0  0  0  0  0  0  0  0  0
    3.7110    1.2000   -0.8990 H   0  0  0  0  0  0  0  0  0  0  0  0
    3.0930    2.5880    0.1610 H   0  0  0  0  0  0  0  0  0  0  0  0
    1.7490    1.2700   -2.2400 H   0  0  0  0  0  0  0  0  0  0  0  0
    2.0970    3.0000   -2.1060 H   0  0  0  0  0  0  0  0  0  0  0  0
    0.3160    3.3600   -0.5710 H   0  0  0  0  0  0  0  0  0  0  0  0
   -0.2950    1.7520   -1.0970 H   0  0  0  0  0  0  0  0  0  0  0  0
    1.3390    2.5900    1.2450 H   0  0  0  0  0  0  0  0  0  0  0  0
   -0.8870   -0.0290    0.9620 N   0  0  0  0  0  0  0  0  0  0  0  0
   -2.1840   -0.4210    1.5090 C   0  0  1  0  0  0  0  0  0  0  0  0
   -2.9190   -1.1770    0.4470 C   0  0  0  0  0  0  0  0  0  0  0  0
   -3.1640   -0.3980   -0.8170 C   0  0  0  0  0  0  0  0  0  0  0  0
   -3.8980   -1.2620   -1.7920 C   0  0  0  0  0  0  0  0  0  0  0  0
   -5.1100   -1.5230   -1.6780 O   0  0  0  0  0  0  0  0  0  0  0  0
   -2.0850   -1.2080    2.7400 C   0  0  0  0  0  0  0  0  0  0  0  0
   -0.9580   -1.4370    3.2070 O   0  0  0  0  0  0  0  0  0  0  0  0
   -3.2140   -1.8050   -2.8750 O   0  0  0  0  0  0  0  0  0  0  0  0
   -3.1700   -1.7100    3.4120 O   0  0  0  0  0  0  0  0  0  0  0  0
   -0.4370   -0.7250    0.3420 H   0  0  0  0  0  0  0  0  0  0  0  0
   -2.6920    0.5620    1.7410 H   0  0  0  0  0  0  0  0  0  0  0  0
   -3.8850   -1.6080    0.8210 H   0  0  0  0  0  0  0  0  0  0  0  0
   -2.2950   -2.0790    0.1940 H   0  0  0  0  0  0  0  0  0  0  0  0
   -2.2380   -0.0520   -1.2740 H   0  0  0  0  0  0  0  0  0  0  0  0
   -3.7770    0.5120   -0.5880 H   0  0  0  0  0  0  0  0  0  0  0  0
   -3.3900   -2.7520   -3.1980 H   0  0  0  0  0  0  0  0  0  0  0  0
  1  2  1  0  0  0  0
  2  3  2  0  0  0  0
  4 12  1  0  0  0  0
  4 11  1  0  0  0  0
  4  2  1  0  0  0  0
  5 13  1  6  0  0  0
  5  4  1  0  0  0  0
  6  5  1  0  0  0  0
  7  5  1  0  0  0  0
  8  7  2  0  0  0  0
  9  1  1  0  0  0  0
 10  1  1  0  0  0  0
 14  6  1  0  0  0  0
 15  6  1  0  0  0  0
 16  7  1  0  0  0  0
 16 20  1  0  0  0  0
 17 24  1  0  0  0  0
 17 16  1  0  0  0  0
 18 19  1  0  0  0  0
 18 17  1  0  0  0  0
 19 27  1  0  0  0  0
 19 20  1  0  0  0  0
 20 21  1  0  0  0  0
 20 29  1  1  0  0  0
 21 22  2  0  0  0  0
 23 17  1  0  0  0  0
 25 18  1  0  0  0  0
 26 18  1  0  0  0  0
 28 19  1  0  0  0  0
 30 21  1  0  0  0  0
 30 31  1  0  0  0  0
 31 41  1  1  0  0  0
 31 36  1  0  0  0  0
 32 42  1  0  0  0  0
 32 31  1  0  0  0  0
 33 45  1  0  0  0  0
 33 32  1  0  0  0  0
 34 35  2  0  0  0  0
 34 33  1  0  0  0  0
 36 37  2  0  0  0  0
 36 39  1  0  0  0  0
 38 34  1  0  0  0  0
 40 30  1  0  0  0  0
 43 32  1  0  0  0  0
 44 33  1  0  0  0  0
 46 38  1  0  0  0  0
M  END
$$$$
