NPF.pdb
 OpenBabel07022418113D

 50 51  0  0  1  0  0  0  0  0999 V2000
    1.6470   -1.7610    6.1130 N   0  0  0  0  0  0  0  0  0  0  0  0
    1.7630   -1.5900    4.7090 C   0  0  0  0  0  0  0  0  0  0  0  0
    2.8620   -1.8750    4.1710 O   0  0  0  0  0  0  0  0  0  0  0  0
    0.6600   -1.0990    3.8820 C   0  0  0  0  0  0  0  0  0  0  0  0
    0.7440    0.3760    3.5210 C   0  0  2  0  0  0  0  0  0  0  0  0
   -0.3690    0.7660    2.7310 N   0  0  0  0  0  0  0  0  0  0  0  0
    2.0420    0.7920    3.0030 C   0  0  0  0  0  0  0  0  0  0  0  0
    2.9790    0.7050    3.9210 O   0  0  0  0  0  0  0  0  0  0  0  0
    2.4930   -1.8870    6.7060 H   0  0  0  0  0  0  0  0  0  0  0  0
    0.7210   -1.7680    6.6010 H   0  0  0  0  0  0  0  0  0  0  0  0
   -0.3060   -1.2650    4.4330 H   0  0  0  0  0  0  0  0  0  0  0  0
    0.5610   -1.6620    2.9350 H   0  0  0  0  0  0  0  0  0  0  0  0
    0.6070    0.9410    4.5130 H   0  0  0  0  0  0  0  0  0  0  0  0
   -1.2500    0.3310    3.0280 H   0  0  0  0  0  0  0  0  0  0  0  0
   -0.4830    1.8130    2.8180 H   0  0  0  0  0  0  0  0  0  0  0  0
    2.3880    1.2540    1.7180 N   0  0  0  0  0  0  0  0  0  0  0  0
    3.7940    1.7320    1.5340 C   0  0  0  0  0  0  0  0  0  0  0  0
    4.0430    1.6110    0.0670 C   0  0  0  0  0  0  0  0  0  0  0  0
    2.8650    0.8650   -0.4890 C   0  0  0  0  0  0  0  0  0  0  0  0
    1.7760    1.4290    0.4810 C   0  0  1  0  0  0  0  0  0  0  0  0
    0.5130    0.8210    0.1100 C   0  0  0  0  0  0  0  0  0  0  0  0
   -0.4700    1.5950   -0.1830 O   0  0  0  0  0  0  0  0  0  0  0  0
    3.7710    2.7900    1.8850 H   0  0  0  0  0  0  0  0  0  0  0  0
    4.4940    1.1860    2.1620 H   0  0  0  0  0  0  0  0  0  0  0  0
    5.0110    1.1220   -0.1730 H   0  0  0  0  0  0  0  0  0  0  0  0
    4.0380    2.6390   -0.3880 H   0  0  0  0  0  0  0  0  0  0  0  0
    2.9970   -0.2180   -0.3300 H   0  0  0  0  0  0  0  0  0  0  0  0
    2.6350    1.1480   -1.5130 H   0  0  0  0  0  0  0  0  0  0  0  0
    1.7720    2.5170    0.1950 H   0  0  0  0  0  0  0  0  0  0  0  0
    0.2060   -0.5580    0.0130 N   0  0  0  0  0  0  0  0  0  0  0  0
   -1.1130   -1.0360   -0.3760 C   0  0  1  0  0  0  0  0  0  0  0  0
   -1.1120   -1.2780   -1.9020 C   0  0  0  0  0  0  0  0  0  0  0  0
   -2.4410   -1.7730   -2.3210 C   0  0  0  0  0  0  0  0  0  0  0  0
   -3.4710   -0.9090   -2.6230 C   0  0  0  0  0  0  0  0  0  0  0  0
   -4.7160   -1.3520   -3.0300 C   0  0  0  0  0  0  0  0  0  0  0  0
   -4.9820   -2.6970   -3.1520 C   0  0  0  0  0  0  0  0  0  0  0  0
   -3.9640   -3.5800   -2.8540 C   0  0  0  0  0  0  0  0  0  0  0  0
   -2.7330   -3.1360   -2.4520 C   0  0  0  0  0  0  0  0  0  0  0  0
   -1.3540   -2.3410    0.2390 C   0  0  0  0  0  0  0  0  0  0  0  0
   -2.5020   -2.8630    0.2230 O   0  0  0  0  0  0  0  0  0  0  0  0
   -0.3220   -3.0250    0.8440 O   0  0  0  0  0  0  0  0  0  0  0  0
    0.9380   -1.2480    0.2260 H   0  0  0  0  0  0  0  0  0  0  0  0
   -1.8880   -0.2730   -0.2400 H   0  0  0  0  0  0  0  0  0  0  0  0
   -0.9290   -0.2940   -2.4140 H   0  0  0  0  0  0  0  0  0  0  0  0
   -0.3640   -2.0230   -2.1910 H   0  0  0  0  0  0  0  0  0  0  0  0
   -3.3470    0.1630   -2.5540 H   0  0  0  0  0  0  0  0  0  0  0  0
   -5.5340   -0.6530   -3.2670 H   0  0  0  0  0  0  0  0  0  0  0  0
   -5.9660   -3.0420   -3.4710 H   0  0  0  0  0  0  0  0  0  0  0  0
   -4.1270   -4.6240   -2.9310 H   0  0  0  0  0  0  0  0  0  0  0  0
   -1.9560   -3.8750   -2.2350 H   0  0  0  0  0  0  0  0  0  0  0  0
  1 10  1  0  0  0  0
  1  9  1  0  0  0  0
  2  1  1  0  0  0  0
  3  2  2  0  0  0  0
  4 11  1  0  0  0  0
  4  2  1  0  0  0  0
  5  4  1  0  0  0  0
  5 13  1  1  0  0  0
  6 15  1  0  0  0  0
  6 14  1  0  0  0  0
  6  5  1  0  0  0  0
  7  5  1  0  0  0  0
  7  8  2  0  0  0  0
 12  4  1  0  0  0  0
 16  7  1  0  0  0  0
 17 16  1  0  0  0  0
 17 23  1  0  0  0  0
 17 24  1  0  0  0  0
 18 17  1  0  0  0  0
 19 27  1  0  0  0  0
 19 18  1  0  0  0  0
 19 20  1  0  0  0  0
 20 29  1  6  0  0  0
 20 16  1  0  0  0  0
 21 20  1  0  0  0  0
 22 21  2  0  0  0  0
 25 18  1  0  0  0  0
 26 18  1  0  0  0  0
 28 19  1  0  0  0  0
 30 21  1  0  0  0  0
 30 42  1  0  0  0  0
 31 43  1  1  0  0  0
 31 30  1  0  0  0  0
 31 39  1  0  0  0  0
 32 31  1  0  0  0  0
 33 32  1  0  0  0  0
 34 46  1  0  0  0  0
 34 33  2  0  0  0  0
 35 34  1  0  0  0  0
 36 35  2  0  0  0  0
 36 37  1  0  0  0  0
 37 38  2  0  0  0  0
 38 33  1  0  0  0  0
 38 50  1  0  0  0  0
 39 41  1  0  0  0  0
 40 39  2  0  0  0  0
 44 32  1  0  0  0  0
 45 32  1  0  0  0  0
 47 35  1  0  0  0  0
 48 36  1  0  0  0  0
 49 37  1  0  0  0  0
M  END
$$$$
