NPK.pdb
 OpenBabel07022418113D

 51 51  0  0  1  0  0  0  0  0999 V2000
    4.4280   -5.6650    2.1530 N   0  0  0  0  0  0  0  0  0  0  0  0
    3.3980   -4.6940    2.3020 C   0  0  0  0  0  0  0  0  0  0  0  0
    2.3250   -4.9670    2.8820 O   0  0  0  0  0  0  0  0  0  0  0  0
    3.6070   -3.3320    1.7520 C   0  0  0  0  0  0  0  0  0  0  0  0
    2.4110   -2.9200    0.8540 C   0  0  2  0  0  0  0  0  0  0  0  0
    2.4030   -3.9280   -0.2130 N   0  0  0  0  0  0  0  0  0  0  0  0
    2.6730   -1.5790    0.2940 C   0  0  0  0  0  0  0  0  0  0  0  0
    3.2610   -1.5710   -0.8450 O   0  0  0  0  0  0  0  0  0  0  0  0
    4.4010   -6.6110    2.5830 H   0  0  0  0  0  0  0  0  0  0  0  0
    5.2760   -5.4450    1.5810 H   0  0  0  0  0  0  0  0  0  0  0  0
    3.6520   -2.5980    2.5720 H   0  0  0  0  0  0  0  0  0  0  0  0
    4.5270   -3.2520    1.1250 H   0  0  0  0  0  0  0  0  0  0  0  0
    1.5130   -3.0320    1.4380 H   0  0  0  0  0  0  0  0  0  0  0  0
    2.0550   -3.4930   -1.1200 H   0  0  0  0  0  0  0  0  0  0  0  0
    1.6830   -4.6800   -0.0290 H   0  0  0  0  0  0  0  0  0  0  0  0
    2.3180   -0.3540    0.9320 N   0  0  0  0  0  0  0  0  0  0  0  0
    2.6340    0.9430    0.3770 C   0  0  0  0  0  0  0  0  0  0  0  0
    2.6970    1.8430    1.5740 C   0  0  0  0  0  0  0  0  0  0  0  0
    1.8480    1.1720    2.6310 C   0  0  0  0  0  0  0  0  0  0  0  0
    1.5820   -0.2430    2.1620 C   0  0  1  0  0  0  0  0  0  0  0  0
    0.1170   -0.4530    1.9390 C   0  0  0  0  0  0  0  0  0  0  0  0
   -0.6780   -0.5030    2.9090 O   0  0  0  0  0  0  0  0  0  0  0  0
    1.8840    1.2670   -0.3750 H   0  0  0  0  0  0  0  0  0  0  0  0
    3.5870    0.8550   -0.1690 H   0  0  0  0  0  0  0  0  0  0  0  0
    2.3000    2.8720    1.3720 H   0  0  0  0  0  0  0  0  0  0  0  0
    3.7500    1.9380    1.9000 H   0  0  0  0  0  0  0  0  0  0  0  0
    2.4400    1.1310    3.5830 H   0  0  0  0  0  0  0  0  0  0  0  0
    0.8980    1.7590    2.7930 H   0  0  0  0  0  0  0  0  0  0  0  0
    1.9200   -1.0230    2.8560 H   0  0  0  0  0  0  0  0  0  0  0  0
   -0.4260   -0.6040    0.6400 N   0  0  0  0  0  0  0  0  0  0  0  0
   -1.8510   -0.8130    0.3740 C   0  0  1  0  0  0  0  0  0  0  0  0
   -2.4310    0.3850   -0.3160 C   0  0  0  0  0  0  0  0  0  0  0  0
   -3.8870    0.1710   -0.5830 C   0  0  0  0  0  0  0  0  0  0  0  0
   -4.5320    1.3930   -1.2290 C   0  0  0  0  0  0  0  0  0  0  0  0
   -4.4400    2.6210   -0.3550 C   0  0  0  0  0  0  0  0  0  0  0  0
   -5.1090    3.7070   -1.0950 N   0  0  0  0  0  0  0  0  0  0  0  0
   -1.9930   -2.0110   -0.4640 C   0  0  0  0  0  0  0  0  0  0  0  0
   -0.9360   -2.5930   -0.9090 O   0  0  0  0  0  0  0  0  0  0  0  0
   -3.1850   -2.6060   -0.8320 O   0  0  0  0  0  0  0  0  0  0  0  0
    0.2150   -0.5630   -0.1820 H   0  0  0  0  0  0  0  0  0  0  0  0
   -2.4280   -0.9510    1.3100 H   0  0  0  0  0  0  0  0  0  0  0  0
   -1.8820    0.5980   -1.2830 H   0  0  0  0  0  0  0  0  0  0  0  0
   -2.3370    1.3020    0.3190 H   0  0  0  0  0  0  0  0  0  0  0  0
   -4.0480   -0.6470   -1.3250 H   0  0  0  0  0  0  0  0  0  0  0  0
   -4.4390   -0.0890    0.3230 H   0  0  0  0  0  0  0  0  0  0  0  0
   -5.6070    1.1440   -1.3390 H   0  0  0  0  0  0  0  0  0  0  0  0
   -4.0630    1.6050   -2.2060 H   0  0  0  0  0  0  0  0  0  0  0  0
   -3.3870    2.9290   -0.1810 H   0  0  0  0  0  0  0  0  0  0  0  0
   -4.9210    2.4470    0.6220 H   0  0  0  0  0  0  0  0  0  0  0  0
   -6.0220    3.9190   -0.5860 H   0  0  0  0  0  0  0  0  0  0  0  0
   -4.5440    4.5840   -0.9640 H   0  0  0  0  0  0  0  0  0  0  0  0
  1  2  1  0  0  0  0
  1  9  1  0  0  0  0
  2  3  2  0  0  0  0
  4  2  1  0  0  0  0
  4 11  1  0  0  0  0
  5 13  1  1  0  0  0
  5  4  1  0  0  0  0
  6 15  1  0  0  0  0
  6  5  1  0  0  0  0
  7  5  1  0  0  0  0
  7 16  1  0  0  0  0
  8  7  2  0  0  0  0
 10  1  1  0  0  0  0
 12  4  1  0  0  0  0
 14  6  1  0  0  0  0
 16 20  1  0  0  0  0
 17 16  1  0  0  0  0
 17 18  1  0  0  0  0
 18 26  1  0  0  0  0
 18 19  1  0  0  0  0
 19 28  1  0  0  0  0
 19 27  1  0  0  0  0
 20 19  1  0  0  0  0
 20 29  1  1  0  0  0
 21 20  1  0  0  0  0
 21 22  2  0  0  0  0
 23 17  1  0  0  0  0
 24 17  1  0  0  0  0
 25 18  1  0  0  0  0
 30 21  1  0  0  0  0
 31 30  1  0  0  0  0
 31 41  1  1  0  0  0
 32 43  1  0  0  0  0
 32 31  1  0  0  0  0
 33 32  1  0  0  0  0
 33 45  1  0  0  0  0
 34 33  1  0  0  0  0
 34 35  1  0  0  0  0
 35 48  1  0  0  0  0
 35 49  1  0  0  0  0
 36 51  1  0  0  0  0
 36 50  1  0  0  0  0
 36 35  1  0  0  0  0
 37 31  1  0  0  0  0
 38 37  2  0  0  0  0
 39 37  1  0  0  0  0
 40 30  1  0  0  0  0
 42 32  1  0  0  0  0
 44 33  1  0  0  0  0
 46 34  1  0  0  0  0
 47 34  1  0  0  0  0
M  END
$$$$
