NPL.pdb
 OpenBabel07022418113D

 49 49  0  0  1  0  0  0  0  0999 V2000
    4.8780   -3.8450    2.3230 N   0  0  0  0  0  0  0  0  0  0  0  0
    3.6930   -3.2560    2.8550 C   0  0  0  0  0  0  0  0  0  0  0  0
    2.9750   -3.9920    3.5860 O   0  0  0  0  0  0  0  0  0  0  0  0
    3.3260   -1.8470    2.5610 C   0  0  0  0  0  0  0  0  0  0  0  0
    2.1790   -1.8960    1.5700 C   0  0  2  0  0  0  0  0  0  0  0  0
    2.5950   -2.5670    0.3830 N   0  0  0  0  0  0  0  0  0  0  0  0
    1.6070   -0.5800    1.2980 C   0  0  0  0  0  0  0  0  0  0  0  0
    1.1080    0.0130    2.3290 O   0  0  0  0  0  0  0  0  0  0  0  0
    4.8930   -4.8470    1.9970 H   0  0  0  0  0  0  0  0  0  0  0  0
    5.7830   -3.3280    2.2260 H   0  0  0  0  0  0  0  0  0  0  0  0
    4.2070   -1.3730    2.0850 H   0  0  0  0  0  0  0  0  0  0  0  0
    3.0440   -1.3400    3.5020 H   0  0  0  0  0  0  0  0  0  0  0  0
    1.3620   -2.4750    2.1120 H   0  0  0  0  0  0  0  0  0  0  0  0
    3.6310   -2.6750    0.4000 H   0  0  0  0  0  0  0  0  0  0  0  0
    2.0820   -3.4430    0.2220 H   0  0  0  0  0  0  0  0  0  0  0  0
    1.5230    0.1210    0.0850 N   0  0  0  0  0  0  0  0  0  0  0  0
    2.0720   -0.3370   -1.1760 C   0  0  0  0  0  0  0  0  0  0  0  0
    2.5220    1.0050   -1.8030 C   0  0  0  0  0  0  0  0  0  0  0  0
    1.3630    1.8850   -1.4690 C   0  0  0  0  0  0  0  0  0  0  0  0
    0.8700    1.4050   -0.1350 C   0  0  1  0  0  0  0  0  0  0  0  0
   -0.6150    1.2740   -0.2660 C   0  0  0  0  0  0  0  0  0  0  0  0
   -1.2490    2.3400   -0.4490 O   0  0  0  0  0  0  0  0  0  0  0  0
    3.0290   -0.8910   -1.0770 H   0  0  0  0  0  0  0  0  0  0  0  0
    1.3360   -0.7990   -1.8340 H   0  0  0  0  0  0  0  0  0  0  0  0
    2.6670    0.8770   -2.8940 H   0  0  0  0  0  0  0  0  0  0  0  0
    3.4020    1.3460   -1.2520 H   0  0  0  0  0  0  0  0  0  0  0  0
    1.6560    2.9640   -1.4440 H   0  0  0  0  0  0  0  0  0  0  0  0
    0.5360    1.7520   -2.2250 H   0  0  0  0  0  0  0  0  0  0  0  0
    1.1350    2.1490    0.6160 H   0  0  0  0  0  0  0  0  0  0  0  0
   -2.0530   -0.4080    2.6030 C   0  0  0  0  0  0  0  0  0  0  0  0
   -3.4280   -0.4570    2.0320 C   0  0  0  0  0  0  0  0  0  0  0  0
   -3.8730   -1.8920    1.8260 C   0  0  0  0  0  0  0  0  0  0  0  0
   -3.5830    0.3650    0.7870 C   0  0  0  0  0  0  0  0  0  0  0  0
   -2.7240   -0.0060   -0.3580 C   0  0  2  0  0  0  0  0  0  0  0  0
   -1.3180    0.0560   -0.2010 N   0  0  0  0  0  0  0  0  0  0  0  0
   -3.2280    0.6840   -1.5840 C   0  0  0  0  0  0  0  0  0  0  0  0
   -4.4570    0.7790   -1.8180 O   0  0  0  0  0  0  0  0  0  0  0  0
   -2.3080    1.2200   -2.4660 O   0  0  0  0  0  0  0  0  0  0  0  0
   -1.5870    0.5570    2.3590 H   0  0  0  0  0  0  0  0  0  0  0  0
   -1.4790   -1.2800    2.1930 H   0  0  0  0  0  0  0  0  0  0  0  0
   -2.1400   -0.5450    3.7130 H   0  0  0  0  0  0  0  0  0  0  0  0
   -4.1520   -0.0300    2.7840 H   0  0  0  0  0  0  0  0  0  0  0  0
   -3.0170   -2.5190    1.4600 H   0  0  0  0  0  0  0  0  0  0  0  0
   -4.7720   -1.9800    1.2150 H   0  0  0  0  0  0  0  0  0  0  0  0
   -4.1230   -2.3020    2.8270 H   0  0  0  0  0  0  0  0  0  0  0  0
   -4.6830    0.2980    0.5220 H   0  0  0  0  0  0  0  0  0  0  0  0
   -3.4510    1.4330    1.1060 H   0  0  0  0  0  0  0  0  0  0  0  0
   -2.9950   -1.1060   -0.5930 H   0  0  0  0  0  0  0  0  0  0  0  0
   -0.7560   -0.8160   -0.0340 H   0  0  0  0  0  0  0  0  0  0  0  0
  1  2  1  0  0  0  0
  2  3  2  0  0  0  0
  4  2  1  0  0  0  0
  4 12  1  0  0  0  0
  5 13  1  1  0  0  0
  5  4  1  0  0  0  0
  6 14  1  0  0  0  0
  6  5  1  0  0  0  0
  7  5  1  0  0  0  0
  7  8  2  0  0  0  0
  9  1  1  0  0  0  0
 10  1  1  0  0  0  0
 11  4  1  0  0  0  0
 15  6  1  0  0  0  0
 16  7  1  0  0  0  0
 17 23  1  0  0  0  0
 17 16  1  0  0  0  0
 18 19  1  0  0  0  0
 18 26  1  0  0  0  0
 18 17  1  0  0  0  0
 19 27  1  0  0  0  0
 19 20  1  0  0  0  0
 20 16  1  0  0  0  0
 20 29  1  1  0  0  0
 21 35  1  0  0  0  0
 21 20  1  0  0  0  0
 22 21  2  0  0  0  0
 24 17  1  0  0  0  0
 25 18  1  0  0  0  0
 28 19  1  0  0  0  0
 30 41  1  0  0  0  0
 31 30  1  0  0  0  0
 31 42  1  0  0  0  0
 32 31  1  0  0  0  0
 32 45  1  0  0  0  0
 33 47  1  0  0  0  0
 33 31  1  0  0  0  0
 34 48  1  6  0  0  0
 34 35  1  0  0  0  0
 34 33  1  0  0  0  0
 35 49  1  0  0  0  0
 36 34  1  0  0  0  0
 37 36  1  0  0  0  0
 38 36  2  0  0  0  0
 39 30  1  0  0  0  0
 40 30  1  0  0  0  0
 43 32  1  0  0  0  0
 44 32  1  0  0  0  0
 46 33  1  0  0  0  0
M  END
$$$$
