NPP.pdb
 OpenBabel07022418113D

 44 45  0  0  1  0  0  0  0  0999 V2000
    2.9810   -4.7010    1.6180 N   0  0  0  0  0  0  0  0  0  0  0  0
    2.3210   -4.9780    0.3840 C   0  0  0  0  0  0  0  0  0  0  0  0
    2.0780   -6.2040    0.1470 O   0  0  0  0  0  0  0  0  0  0  0  0
    1.9320   -3.9140   -0.5770 C   0  0  0  0  0  0  0  0  0  0  0  0
    2.3760   -2.5860    0.0320 C   0  0  2  0  0  0  0  0  0  0  0  0
    1.7130   -2.4310    1.2690 N   0  0  0  0  0  0  0  0  0  0  0  0
    2.2990   -1.4870   -0.9280 C   0  0  0  0  0  0  0  0  0  0  0  0
    2.8830   -1.7250   -2.0520 O   0  0  0  0  0  0  0  0  0  0  0  0
    3.9930   -4.4850    1.5900 H   0  0  0  0  0  0  0  0  0  0  0  0
    2.4650   -4.7120    2.5370 H   0  0  0  0  0  0  0  0  0  0  0  0
    0.8400   -3.9660   -0.7040 H   0  0  0  0  0  0  0  0  0  0  0  0
    2.4690   -4.1050   -1.5350 H   0  0  0  0  0  0  0  0  0  0  0  0
    3.4730   -2.7380    0.2560 H   0  0  0  0  0  0  0  0  0  0  0  0
    2.3070   -2.3050    2.1040 H   0  0  0  0  0  0  0  0  0  0  0  0
    0.8810   -3.0200    1.4100 H   0  0  0  0  0  0  0  0  0  0  0  0
    1.6890   -0.2360   -0.7920 N   0  0  0  0  0  0  0  0  0  0  0  0
    1.6510    0.7830   -1.8070 C   0  0  0  0  0  0  0  0  0  0  0  0
    2.0000    2.0270   -1.0150 C   0  0  0  0  0  0  0  0  0  0  0  0
    1.3610    1.7660    0.3120 C   0  0  0  0  0  0  0  0  0  0  0  0
    0.9990    0.2740    0.3450 C   0  0  1  0  0  0  0  0  0  0  0  0
   -0.4780    0.1520    0.2320 C   0  0  0  0  0  0  0  0  0  0  0  0
   -1.0160   -0.3570   -0.7820 O   0  0  0  0  0  0  0  0  0  0  0  0
    2.3840    0.5950   -2.6210 H   0  0  0  0  0  0  0  0  0  0  0  0
    0.6250    0.9350   -2.2050 H   0  0  0  0  0  0  0  0  0  0  0  0
    1.6150    2.9550   -1.5070 H   0  0  0  0  0  0  0  0  0  0  0  0
    3.1170    2.1220   -0.9430 H   0  0  0  0  0  0  0  0  0  0  0  0
    0.4320    2.3570    0.4000 H   0  0  0  0  0  0  0  0  0  0  0  0
    2.0060    2.0320    1.1730 H   0  0  0  0  0  0  0  0  0  0  0  0
    1.3160   -0.1650    1.3160 H   0  0  0  0  0  0  0  0  0  0  0  0
   -1.3480    0.6070    1.2690 N   0  0  0  0  0  0  0  0  0  0  0  0
   -0.9790    1.2260    2.5310 C   0  0  0  0  0  0  0  0  0  0  0  0
   -2.0670    0.7930    3.4870 C   0  0  0  0  0  0  0  0  0  0  0  0
   -3.0570   -0.0000    2.6810 C   0  0  0  0  0  0  0  0  0  0  0  0
   -2.7940    0.5470    1.2830 C   0  0  1  0  0  0  0  0  0  0  0  0
   -3.4230    1.8790    1.2080 C   0  0  0  0  0  0  0  0  0  0  0  0
   -2.8160    2.9700    1.1240 O   0  0  0  0  0  0  0  0  0  0  0  0
   -4.8100    1.9300    1.2320 O   0  0  0  0  0  0  0  0  0  0  0  0
   -0.9920    2.3280    2.4120 H   0  0  0  0  0  0  0  0  0  0  0  0
    0.0220    0.8910    2.8730 H   0  0  0  0  0  0  0  0  0  0  0  0
   -1.6100    0.1970    4.3070 H   0  0  0  0  0  0  0  0  0  0  0  0
   -2.5570    1.6620    3.9890 H   0  0  0  0  0  0  0  0  0  0  0  0
   -2.8450   -1.0910    2.7030 H   0  0  0  0  0  0  0  0  0  0  0  0
   -4.1080    0.1820    2.9980 H   0  0  0  0  0  0  0  0  0  0  0  0
   -3.1860   -0.1470    0.5060 H   0  0  0  0  0  0  0  0  0  0  0  0
  1 10  1  0  0  0  0
  2  1  1  0  0  0  0
  3  2  2  0  0  0  0
  4  5  1  0  0  0  0
  4  2  1  0  0  0  0
  5 13  1  1  0  0  0
  5  6  1  0  0  0  0
  6 15  1  0  0  0  0
  6 14  1  0  0  0  0
  7 16  1  0  0  0  0
  7  5  1  0  0  0  0
  8  7  2  0  0  0  0
  9  1  1  0  0  0  0
 11  4  1  0  0  0  0
 12  4  1  0  0  0  0
 16 20  1  0  0  0  0
 17 18  1  0  0  0  0
 17 16  1  0  0  0  0
 18 26  1  0  0  0  0
 18 19  1  0  0  0  0
 19 20  1  0  0  0  0
 19 27  1  0  0  0  0
 19 28  1  0  0  0  0
 20 29  1  1  0  0  0
 21 20  1  0  0  0  0
 21 30  1  0  0  0  0
 22 21  2  0  0  0  0
 23 17  1  0  0  0  0
 24 17  1  0  0  0  0
 25 18  1  0  0  0  0
 30 34  1  0  0  0  0
 30 31  1  0  0  0  0
 31 39  1  0  0  0  0
 31 32  1  0  0  0  0
 32 41  1  0  0  0  0
 32 40  1  0  0  0  0
 33 42  1  0  0  0  0
 33 43  1  0  0  0  0
 33 32  1  0  0  0  0
 34 44  1  6  0  0  0
 34 33  1  0  0  0  0
 35 37  1  0  0  0  0
 35 34  1  0  0  0  0
 36 35  2  0  0  0  0
 38 31  1  0  0  0  0
M  END
$$$$
