NPQ.pdb
 OpenBabel07022418113D

 47 47  0  0  1  0  0  0  0  0999 V2000
    3.1400   -4.4250    3.5490 N   0  0  0  0  0  0  0  0  0  0  0  0
    1.9520   -3.7320    3.8940 C   0  0  0  0  0  0  0  0  0  0  0  0
    0.9640   -4.4040    4.2890 O   0  0  0  0  0  0  0  0  0  0  0  0
    1.8160   -2.2580    3.8120 C   0  0  0  0  0  0  0  0  0  0  0  0
    1.0390   -1.8910    2.5680 C   0  0  2  0  0  0  0  0  0  0  0  0
    1.7650   -2.3870    1.4440 N   0  0  0  0  0  0  0  0  0  0  0  0
    0.7430   -0.4620    2.5660 C   0  0  0  0  0  0  0  0  0  0  0  0
    0.0480   -0.0220    3.5450 O   0  0  0  0  0  0  0  0  0  0  0  0
    3.1120   -5.2670    2.9010 H   0  0  0  0  0  0  0  0  0  0  0  0
    4.0900   -4.1640    3.8970 H   0  0  0  0  0  0  0  0  0  0  0  0
    1.2850   -1.8320    4.6820 H   0  0  0  0  0  0  0  0  0  0  0  0
    2.8410   -1.8410    3.6770 H   0  0  0  0  0  0  0  0  0  0  0  0
    0.0450   -2.4300    2.5710 H   0  0  0  0  0  0  0  0  0  0  0  0
    2.7530   -2.6750    1.6650 H   0  0  0  0  0  0  0  0  0  0  0  0
    1.2660   -3.1400    0.9210 H   0  0  0  0  0  0  0  0  0  0  0  0
    1.1490    0.4780    1.5910 N   0  0  0  0  0  0  0  0  0  0  0  0
    1.9450    0.1780    0.4300 C   0  0  0  0  0  0  0  0  0  0  0  0
    2.4490    1.4580   -0.1670 C   0  0  0  0  0  0  0  0  0  0  0  0
    1.9930    2.5410    0.7890 C   0  0  0  0  0  0  0  0  0  0  0  0
    0.8540    1.9040    1.5470 C   0  0  1  0  0  0  0  0  0  0  0  0
   -0.4560    2.1390    0.8950 C   0  0  0  0  0  0  0  0  0  0  0  0
   -0.8930    3.2920    0.7620 O   0  0  0  0  0  0  0  0  0  0  0  0
    1.3730   -0.3940   -0.3340 H   0  0  0  0  0  0  0  0  0  0  0  0
    2.8360   -0.4490    0.6780 H   0  0  0  0  0  0  0  0  0  0  0  0
    2.0190    1.6500   -1.1830 H   0  0  0  0  0  0  0  0  0  0  0  0
    3.5630    1.4660   -0.2420 H   0  0  0  0  0  0  0  0  0  0  0  0
    2.8220    2.8480    1.4660 H   0  0  0  0  0  0  0  0  0  0  0  0
    1.6360    3.4320    0.2050 H   0  0  0  0  0  0  0  0  0  0  0  0
    0.8210    2.2630    2.5950 H   0  0  0  0  0  0  0  0  0  0  0  0
   -2.1350   -2.7310   -3.3340 N   0  0  0  0  0  0  0  0  0  0  0  0
   -2.3320   -1.3610   -3.0190 C   0  0  0  0  0  0  0  0  0  0  0  0
   -2.5660   -0.5730   -3.9680 O   0  0  0  0  0  0  0  0  0  0  0  0
   -2.2760   -0.8330   -1.6510 C   0  0  0  0  0  0  0  0  0  0  0  0
   -2.5290    0.6380   -1.5920 C   0  0  0  0  0  0  0  0  0  0  0  0
   -2.4790    1.2060   -0.2120 C   0  0  2  0  0  0  0  0  0  0  0  0
   -1.2060    1.0160    0.4240 N   0  0  0  0  0  0  0  0  0  0  0  0
   -3.5370    0.5260    0.6060 C   0  0  0  0  0  0  0  0  0  0  0  0
   -4.7360    0.5580    0.2430 O   0  0  0  0  0  0  0  0  0  0  0  0
   -3.1970   -0.1410    1.7680 O   0  0  0  0  0  0  0  0  0  0  0  0
   -1.8490   -3.0320   -4.2880 H   0  0  0  0  0  0  0  0  0  0  0  0
   -2.2810   -3.4560   -2.5870 H   0  0  0  0  0  0  0  0  0  0  0  0
   -1.2900   -1.1000   -1.2280 H   0  0  0  0  0  0  0  0  0  0  0  0
   -3.0370   -1.3330   -0.9920 H   0  0  0  0  0  0  0  0  0  0  0  0
   -1.7810    1.1830   -2.2200 H   0  0  0  0  0  0  0  0  0  0  0  0
   -3.5490    0.8220   -2.0010 H   0  0  0  0  0  0  0  0  0  0  0  0
   -2.7740    2.2750   -0.2760 H   0  0  0  0  0  0  0  0  0  0  0  0
   -0.8550    0.0390    0.5270 H   0  0  0  0  0  0  0  0  0  0  0  0
  1  2  1  0  0  0  0
  1 10  1  0  0  0  0
  2  3  2  0  0  0  0
  4  2  1  0  0  0  0
  4 11  1  0  0  0  0
  5 13  1  1  0  0  0
  5  4  1  0  0  0  0
  6 14  1  0  0  0  0
  6  5  1  0  0  0  0
  7  5  1  0  0  0  0
  7  8  2  0  0  0  0
  9  1  1  0  0  0  0
 12  4  1  0  0  0  0
 15  6  1  0  0  0  0
 16  7  1  0  0  0  0
 17 24  1  0  0  0  0
 17 16  1  0  0  0  0
 18 17  1  0  0  0  0
 18 19  1  0  0  0  0
 19 27  1  0  0  0  0
 19 20  1  0  0  0  0
 20 16  1  0  0  0  0
 20 29  1  1  0  0  0
 21 20  1  0  0  0  0
 22 21  2  0  0  0  0
 23 17  1  0  0  0  0
 25 18  1  0  0  0  0
 26 18  1  0  0  0  0
 28 19  1  0  0  0  0
 30 31  1  0  0  0  0
 30 41  1  0  0  0  0
 31 33  1  0  0  0  0
 32 31  2  0  0  0  0
 33 34  1  0  0  0  0
 33 42  1  0  0  0  0
 33 43  1  0  0  0  0
 34 35  1  0  0  0  0
 35 46  1  6  0  0  0
 35 36  1  0  0  0  0
 35 37  1  0  0  0  0
 36 47  1  0  0  0  0
 36 21  1  0  0  0  0
 37 39  1  0  0  0  0
 38 37  2  0  0  0  0
 40 30  1  0  0  0  0
 44 34  1  0  0  0  0
 45 34  1  0  0  0  0
M  END
$$$$
