NPS.pdb
 OpenBabel07022418113D

 41 41  0  0  1  0  0  0  0  0999 V2000
    3.0640   -5.0540   -1.3400 N   0  0  0  0  0  0  0  0  0  0  0  0
    1.7120   -4.8950   -0.9630 C   0  0  0  0  0  0  0  0  0  0  0  0
    0.9180   -5.8440   -1.1410 O   0  0  0  0  0  0  0  0  0  0  0  0
    1.2680   -3.6110   -0.3680 C   0  0  0  0  0  0  0  0  0  0  0  0
    2.4360   -2.6520   -0.2740 C   0  0  2  0  0  0  0  0  0  0  0  0
    3.4650   -3.2660    0.5750 N   0  0  0  0  0  0  0  0  0  0  0  0
    2.0440   -1.3630    0.3220 C   0  0  0  0  0  0  0  0  0  0  0  0
    2.5420   -1.0410    1.4290 O   0  0  0  0  0  0  0  0  0  0  0  0
    3.4670   -4.5450   -2.1640 H   0  0  0  0  0  0  0  0  0  0  0  0
    3.6660   -5.6930   -0.7810 H   0  0  0  0  0  0  0  0  0  0  0  0
    0.8860   -3.7720    0.6750 H   0  0  0  0  0  0  0  0  0  0  0  0
    0.4650   -3.2060   -1.0090 H   0  0  0  0  0  0  0  0  0  0  0  0
    2.8490   -2.4950   -1.2890 H   0  0  0  0  0  0  0  0  0  0  0  0
    4.3530   -3.4160    0.0510 H   0  0  0  0  0  0  0  0  0  0  0  0
    3.1110   -4.1570    0.9880 H   0  0  0  0  0  0  0  0  0  0  0  0
    1.1330   -0.4630   -0.2870 N   0  0  0  0  0  0  0  0  0  0  0  0
    0.4500   -0.6140   -1.5550 C   0  0  0  0  0  0  0  0  0  0  0  0
    0.4680    0.8240   -2.0820 C   0  0  0  0  0  0  0  0  0  0  0  0
    0.0700    1.5860   -0.8410 C   0  0  0  0  0  0  0  0  0  0  0  0
    0.7060    0.8020    0.2680 C   0  0  1  0  0  0  0  0  0  0  0  0
   -0.2390    0.5060    1.3750 C   0  0  0  0  0  0  0  0  0  0  0  0
   -0.5440   -0.6670    1.6910 O   0  0  0  0  0  0  0  0  0  0  0  0
   -0.6030   -0.9080   -1.4550 H   0  0  0  0  0  0  0  0  0  0  0  0
    1.0310   -1.2580   -2.2520 H   0  0  0  0  0  0  0  0  0  0  0  0
   -0.2460    0.9640   -2.9110 H   0  0  0  0  0  0  0  0  0  0  0  0
    1.5180    1.0400   -2.3500 H   0  0  0  0  0  0  0  0  0  0  0  0
   -1.0180    1.7110   -0.7440 H   0  0  0  0  0  0  0  0  0  0  0  0
    0.5100    2.6100   -0.9440 H   0  0  0  0  0  0  0  0  0  0  0  0
    1.5590    1.4010    0.6450 H   0  0  0  0  0  0  0  0  0  0  0  0
    0.1100    1.1460    4.6960 O   0  0  0  0  0  0  0  0  0  0  0  0
   -1.0930    1.8180    4.4970 C   0  0  0  0  0  0  0  0  0  0  0  0
   -1.7750    1.2930    3.2240 C   0  0  2  0  0  0  0  0  0  0  0  0
   -0.8540    1.5470    2.1440 N   0  0  0  0  0  0  0  0  0  0  0  0
   -3.0720    1.9610    3.0380 C   0  0  0  0  0  0  0  0  0  0  0  0
   -3.2720    2.6630    2.0150 O   0  0  0  0  0  0  0  0  0  0  0  0
   -4.1080    1.8570    3.9530 O   0  0  0  0  0  0  0  0  0  0  0  0
    0.7860    1.3630    4.0190 H   0  0  0  0  0  0  0  0  0  0  0  0
   -0.8700    2.9170    4.3800 H   0  0  0  0  0  0  0  0  0  0  0  0
   -1.7310    1.7290    5.3740 H   0  0  0  0  0  0  0  0  0  0  0  0
   -1.9590    0.2300    3.4020 H   0  0  0  0  0  0  0  0  0  0  0  0
   -0.5950    2.5210    1.8740 H   0  0  0  0  0  0  0  0  0  0  0  0
  1  2  1  0  0  0  0
  1 10  1  0  0  0  0
  2  4  1  0  0  0  0
  3  2  2  0  0  0  0
  4  5  1  0  0  0  0
  4 11  1  0  0  0  0
  5 13  1  6  0  0  0
  5  7  1  0  0  0  0
  5  6  1  0  0  0  0
  6 15  1  0  0  0  0
  7  8  2  0  0  0  0
  9  1  1  0  0  0  0
 12  4  1  0  0  0  0
 14  6  1  0  0  0  0
 16 20  1  0  0  0  0
 16  7  1  0  0  0  0
 17 23  1  0  0  0  0
 17 16  1  0  0  0  0
 18 17  1  0  0  0  0
 18 19  1  0  0  0  0
 19 27  1  0  0  0  0
 19 20  1  0  0  0  0
 20 29  1  1  0  0  0
 20 21  1  0  0  0  0
 21 22  2  0  0  0  0
 21 33  1  0  0  0  0
 24 17  1  0  0  0  0
 25 18  1  0  0  0  0
 26 18  1  0  0  0  0
 28 19  1  0  0  0  0
 31 30  1  0  0  0  0
 31 39  1  0  0  0  0
 32 40  1  1  0  0  0
 32 31  1  0  0  0  0
 33 32  1  0  0  0  0
 34 32  1  0  0  0  0
 34 36  1  0  0  0  0
 35 34  2  0  0  0  0
 37 30  1  0  0  0  0
 38 31  1  0  0  0  0
 41 33  1  0  0  0  0
M  END
$$$$
