NPT.pdb
 OpenBabel07022418113D

 44 44  0  0  1  0  0  0  0  0999 V2000
   -2.7620   -4.0940   -0.3510 N   0  0  0  0  0  0  0  0  0  0  0  0
   -1.9160   -3.1850   -1.0860 C   0  0  0  0  0  0  0  0  0  0  0  0
   -2.0380   -3.2020   -2.3340 O   0  0  0  0  0  0  0  0  0  0  0  0
   -0.9770   -2.3040   -0.3650 C   0  0  0  0  0  0  0  0  0  0  0  0
    0.4220   -2.8950   -0.4600 C   0  0  2  0  0  0  0  0  0  0  0  0
    0.4350   -4.2300    0.1440 N   0  0  0  0  0  0  0  0  0  0  0  0
    1.4150   -2.0740    0.2560 C   0  0  0  0  0  0  0  0  0  0  0  0
    1.9880   -2.5400    1.3030 O   0  0  0  0  0  0  0  0  0  0  0  0
   -2.3530   -5.0060   -0.0550 H   0  0  0  0  0  0  0  0  0  0  0  0
   -3.7360   -3.8540   -0.1260 H   0  0  0  0  0  0  0  0  0  0  0  0
   -1.2750   -2.2480    0.7180 H   0  0  0  0  0  0  0  0  0  0  0  0
   -1.0220   -1.2910   -0.7560 H   0  0  0  0  0  0  0  0  0  0  0  0
    0.6960   -3.0000   -1.5040 H   0  0  0  0  0  0  0  0  0  0  0  0
   -0.0930   -4.1580    1.0300 H   0  0  0  0  0  0  0  0  0  0  0  0
    0.0040   -4.9090   -0.5240 H   0  0  0  0  0  0  0  0  0  0  0  0
    1.7860   -0.7760   -0.1440 N   0  0  0  0  0  0  0  0  0  0  0  0
    1.2700   -0.0990   -1.3000 C   0  0  0  0  0  0  0  0  0  0  0  0
    2.5560    0.5760   -1.8030 C   0  0  0  0  0  0  0  0  0  0  0  0
    3.0240    1.2110   -0.5120 C   0  0  0  0  0  0  0  0  0  0  0  0
    2.7150    0.1100    0.4970 C   0  0  1  0  0  0  0  0  0  0  0  0
    2.0380    0.7370    1.6880 C   0  0  0  0  0  0  0  0  0  0  0  0
    2.6510    1.5470    2.4360 O   0  0  0  0  0  0  0  0  0  0  0  0
    0.5840    0.7000   -1.0160 H   0  0  0  0  0  0  0  0  0  0  0  0
    0.8790   -0.7910   -2.0710 H   0  0  0  0  0  0  0  0  0  0  0  0
    2.3500    1.3060   -2.5970 H   0  0  0  0  0  0  0  0  0  0  0  0
    3.2470   -0.2210   -2.0780 H   0  0  0  0  0  0  0  0  0  0  0  0
    4.0840    1.4730   -0.5370 H   0  0  0  0  0  0  0  0  0  0  0  0
    2.3680    2.1030   -0.3150 H   0  0  0  0  0  0  0  0  0  0  0  0
    3.6570   -0.3690    0.7910 H   0  0  0  0  0  0  0  0  0  0  0  0
   -0.7210    3.1400    2.0970 C   0  0  0  0  0  0  0  0  0  0  0  0
   -1.2050    1.8380    2.6910 C   0  0  1  0  0  0  0  0  0  0  0  0
   -2.1440    1.2020    1.9030 O   0  0  0  0  0  0  0  0  0  0  0  0
   -0.0500    0.9640    3.0990 C   0  0  2  0  0  0  0  0  0  0  0  0
    0.7010    0.4360    1.9980 N   0  0  0  0  0  0  0  0  0  0  0  0
   -0.4860   -0.0520    4.0630 C   0  0  0  0  0  0  0  0  0  0  0  0
   -1.1450    0.2850    5.0630 O   0  0  0  0  0  0  0  0  0  0  0  0
   -0.1700   -1.3780    3.8700 O   0  0  0  0  0  0  0  0  0  0  0  0
    0.0950    3.5410    2.7320 H   0  0  0  0  0  0  0  0  0  0  0  0
   -1.5190    3.9150    2.1080 H   0  0  0  0  0  0  0  0  0  0  0  0
   -0.3870    3.0000    1.0490 H   0  0  0  0  0  0  0  0  0  0  0  0
   -1.7370    2.1130    3.6420 H   0  0  0  0  0  0  0  0  0  0  0  0
   -2.4980    1.8430    1.2350 H   0  0  0  0  0  0  0  0  0  0  0  0
    0.6570    1.6520    3.6540 H   0  0  0  0  0  0  0  0  0  0  0  0
    0.1980   -0.2440    1.3630 H   0  0  0  0  0  0  0  0  0  0  0  0
  1 10  1  0  0  0  0
  1  9  1  0  0  0  0
  2  4  1  0  0  0  0
  2  1  1  0  0  0  0
  3  2  2  0  0  0  0
  4 11  1  0  0  0  0
  5 13  1  6  0  0  0
  5  4  1  0  0  0  0
  5  6  1  0  0  0  0
  5  7  1  0  0  0  0
  6 14  1  0  0  0  0
  7  8  2  0  0  0  0
 12  4  1  0  0  0  0
 15  6  1  0  0  0  0
 16  7  1  0  0  0  0
 16 20  1  0  0  0  0
 17 23  1  0  0  0  0
 17 16  1  0  0  0  0
 18 17  1  0  0  0  0
 18 19  1  0  0  0  0
 19 28  1  0  0  0  0
 19 20  1  0  0  0  0
 20 29  1  1  0  0  0
 20 21  1  0  0  0  0
 21 34  1  0  0  0  0
 21 22  2  0  0  0  0
 24 17  1  0  0  0  0
 25 18  1  0  0  0  0
 26 18  1  0  0  0  0
 27 19  1  0  0  0  0
 30 39  1  0  0  0  0
 30 31  1  0  0  0  0
 30 38  1  0  0  0  0
 31 33  1  0  0  0  0
 31 41  1  1  0  0  0
 32 31  1  0  0  0  0
 33 43  1  1  0  0  0
 33 35  1  0  0  0  0
 34 33  1  0  0  0  0
 35 36  1  0  0  0  0
 37 35  2  0  0  0  0
 40 30  1  0  0  0  0
 42 32  1  0  0  0  0
 44 34  1  0  0  0  0
M  END
$$$$
