NQC.pdb
 OpenBabel07022418093D

 44 43  0  0  1  0  0  0  0  0999 V2000
    1.3300   -3.9890    6.1020 N   0  0  0  0  0  0  0  0  0  0  0  0
    1.5960   -2.7370    5.4920 C   0  0  0  0  0  0  0  0  0  0  0  0
    2.0030   -1.7900    6.1960 O   0  0  0  0  0  0  0  0  0  0  0  0
    1.4050   -2.5150    4.0420 C   0  0  0  0  0  0  0  0  0  0  0  0
    1.7540   -1.1030    3.6330 C   0  0  2  0  0  0  0  0  0  0  0  0
    0.9340   -0.1580    4.3230 N   0  0  0  0  0  0  0  0  0  0  0  0
    1.5740   -1.0260    2.1450 C   0  0  0  0  0  0  0  0  0  0  0  0
    2.2310   -1.7950    1.4380 O   0  0  0  0  0  0  0  0  0  0  0  0
    0.5040   -4.0740    6.7400 H   0  0  0  0  0  0  0  0  0  0  0  0
    1.9540   -4.8010    5.9090 H   0  0  0  0  0  0  0  0  0  0  0  0
    0.3400   -2.7580    3.8220 H   0  0  0  0  0  0  0  0  0  0  0  0
    2.0070   -3.2700    3.5130 H   0  0  0  0  0  0  0  0  0  0  0  0
    2.8060   -0.9140    3.9110 H   0  0  0  0  0  0  0  0  0  0  0  0
    0.2940   -0.5830    5.0180 H   0  0  0  0  0  0  0  0  0  0  0  0
    1.4410    0.6810    4.6650 H   0  0  0  0  0  0  0  0  0  0  0  0
    3.8340    2.5030   -0.7210 N   0  0  0  0  0  0  0  0  0  0  0  0
    2.6810    1.7410   -1.0370 C   0  0  0  0  0  0  0  0  0  0  0  0
    1.7180    2.3270   -1.5380 O   0  0  0  0  0  0  0  0  0  0  0  0
    2.7310    0.2600   -0.7340 C   0  0  0  0  0  0  0  0  0  0  0  0
    1.4090   -0.4070   -0.8480 C   0  0  0  0  0  0  0  0  0  0  0  0
    0.4230    0.1000    0.1610 C   0  0  2  0  0  0  0  0  0  0  0  0
    0.6990   -0.1230    1.5290 N   0  0  0  0  0  0  0  0  0  0  0  0
   -0.9710   -0.2370   -0.1390 C   0  0  0  0  0  0  0  0  0  0  0  0
   -1.7240   -0.6760    0.7980 O   0  0  0  0  0  0  0  0  0  0  0  0
    4.3790    2.2400    0.1220 H   0  0  0  0  0  0  0  0  0  0  0  0
    4.1620    3.3080   -1.2860 H   0  0  0  0  0  0  0  0  0  0  0  0
    3.2040    0.2250    0.2620 H   0  0  0  0  0  0  0  0  0  0  0  0
    3.4400   -0.1370   -1.5160 H   0  0  0  0  0  0  0  0  0  0  0  0
    0.9940   -0.0910   -1.8540 H   0  0  0  0  0  0  0  0  0  0  0  0
    1.4530   -1.5020   -0.9140 H   0  0  0  0  0  0  0  0  0  0  0  0
    0.5890    1.2500    0.0540 H   0  0  0  0  0  0  0  0  0  0  0  0
    0.1500    0.4970    2.2060 H   0  0  0  0  0  0  0  0  0  0  0  0
   -1.5840   -0.1170   -1.4210 N   0  0  0  0  0  0  0  0  0  0  0  0
   -2.9720   -0.4690   -1.6550 C   0  0  1  0  0  0  0  0  0  0  0  0
   -3.6750    0.8120   -2.0880 C   0  0  0  0  0  0  0  0  0  0  0  0
   -3.4820    1.9930   -0.7160 S   0  0  0  0  0  0  0  0  0  0  0  0
   -3.1160   -1.4770   -2.7210 C   0  0  0  0  0  0  0  0  0  0  0  0
   -2.0880   -1.9130   -3.2940 O   0  0  0  0  0  0  0  0  0  0  0  0
   -4.3420   -1.9720   -3.1260 O   0  0  0  0  0  0  0  0  0  0  0  0
   -0.9750    0.2410   -2.1860 H   0  0  0  0  0  0  0  0  0  0  0  0
   -3.4800   -0.8270   -0.7610 H   0  0  0  0  0  0  0  0  0  0  0  0
   -3.0860    1.2040   -2.9540 H   0  0  0  0  0  0  0  0  0  0  0  0
   -4.7260    0.6310   -2.3320 H   0  0  0  0  0  0  0  0  0  0  0  0
   -2.5200    2.9830   -1.0420 H   0  0  0  0  0  0  0  0  0  0  0  0
  1  9  1  0  0  0  0
  2  1  1  0  0  0  0
  2  3  2  0  0  0  0
  4  2  1  0  0  0  0
  5 13  1  1  0  0  0
  5  4  1  0  0  0  0
  5  6  1  0  0  0  0
  6 15  1  0  0  0  0
  6 14  1  0  0  0  0
  7  5  1  0  0  0  0
  8  7  2  0  0  0  0
 10  1  1  0  0  0  0
 11  4  1  0  0  0  0
 12  4  1  0  0  0  0
 16 25  1  0  0  0  0
 17 19  1  0  0  0  0
 17 16  1  0  0  0  0
 18 17  2  0  0  0  0
 19 27  1  0  0  0  0
 20 19  1  0  0  0  0
 20 21  1  0  0  0  0
 21 31  1  6  0  0  0
 21 22  1  0  0  0  0
 22  7  1  0  0  0  0
 22 32  1  0  0  0  0
 23 21  1  0  0  0  0
 23 24  2  0  0  0  0
 26 16  1  0  0  0  0
 28 19  1  0  0  0  0
 29 20  1  0  0  0  0
 30 20  1  0  0  0  0
 33 23  1  0  0  0  0
 34 33  1  0  0  0  0
 34 41  1  1  0  0  0
 35 34  1  0  0  0  0
 35 36  1  0  0  0  0
 37 34  1  0  0  0  0
 38 37  2  0  0  0  0
 39 37  1  0  0  0  0
 40 33  1  0  0  0  0
 42 35  1  0  0  0  0
 43 35  1  0  0  0  0
 44 36  1  0  0  0  0
M  END
$$$$
