NQI.pdb
 OpenBabel07022418093D

 52 51  0  0  1  0  0  0  0  0999 V2000
   -1.6400   -1.2760    5.0330 N   0  0  0  0  0  0  0  0  0  0  0  0
   -1.7640   -0.9810    3.6630 C   0  0  0  0  0  0  0  0  0  0  0  0
   -1.5900   -1.8890    2.8280 O   0  0  0  0  0  0  0  0  0  0  0  0
   -2.1070    0.3860    3.2020 C   0  0  0  0  0  0  0  0  0  0  0  0
   -0.9560    1.2690    2.8660 C   0  0  2  0  0  0  0  0  0  0  0  0
   -1.4150    2.5680    2.4430 N   0  0  0  0  0  0  0  0  0  0  0  0
    0.0150    0.6970    1.9160 C   0  0  0  0  0  0  0  0  0  0  0  0
    0.3980   -0.5120    1.9220 O   0  0  0  0  0  0  0  0  0  0  0  0
   -0.9320   -1.9760    5.3280 H   0  0  0  0  0  0  0  0  0  0  0  0
   -2.2050   -0.8380    5.7950 H   0  0  0  0  0  0  0  0  0  0  0  0
   -2.8790    0.3630    2.3850 H   0  0  0  0  0  0  0  0  0  0  0  0
   -2.6530    0.8770    4.0610 H   0  0  0  0  0  0  0  0  0  0  0  0
   -0.3370    1.4540    3.8220 H   0  0  0  0  0  0  0  0  0  0  0  0
   -1.3640    3.2990    3.1710 H   0  0  0  0  0  0  0  0  0  0  0  0
   -2.3830    2.5580    2.0480 H   0  0  0  0  0  0  0  0  0  0  0  0
    5.9670    0.3700    2.4470 N   0  0  0  0  0  0  0  0  0  0  0  0
    5.0930    0.8840    1.4660 C   0  0  0  0  0  0  0  0  0  0  0  0
    5.5620    1.5950    0.5510 O   0  0  0  0  0  0  0  0  0  0  0  0
    3.6180    0.5760    1.5290 C   0  0  0  0  0  0  0  0  0  0  0  0
    3.0070    1.0220    0.2660 C   0  0  0  0  0  0  0  0  0  0  0  0
    1.5720    0.8530    0.0070 C   0  0  2  0  0  0  0  0  0  0  0  0
    0.6240    1.4940    0.8750 N   0  0  0  0  0  0  0  0  0  0  0  0
    1.1540   -0.5180   -0.4120 C   0  0  0  0  0  0  0  0  0  0  0  0
    1.9410   -1.4800   -0.5750 O   0  0  0  0  0  0  0  0  0  0  0  0
    6.2560    0.9690    3.2600 H   0  0  0  0  0  0  0  0  0  0  0  0
    6.3510   -0.5910    2.4170 H   0  0  0  0  0  0  0  0  0  0  0  0
    3.5480   -0.4860    1.7800 H   0  0  0  0  0  0  0  0  0  0  0  0
    3.2700    1.1530    2.4390 H   0  0  0  0  0  0  0  0  0  0  0  0
    3.5720    0.6010   -0.6210 H   0  0  0  0  0  0  0  0  0  0  0  0
    3.2240    2.1330    0.1690 H   0  0  0  0  0  0  0  0  0  0  0  0
    1.3950    1.4340   -0.9940 H   0  0  0  0  0  0  0  0  0  0  0  0
    0.3280    2.4950    0.8230 H   0  0  0  0  0  0  0  0  0  0  0  0
   -3.0180   -3.7460   -2.6790 C   0  0  0  0  0  0  0  0  0  0  0  0
   -2.7590   -3.5820   -1.2040 C   0  0  0  0  0  0  0  0  0  0  0  0
   -2.0450   -2.3220   -0.8640 C   0  0  2  0  0  0  0  0  0  0  0  0
   -2.9100   -1.1830   -1.3880 C   0  0  0  0  0  0  0  0  0  0  0  0
   -0.6140   -2.1900   -1.0810 C   0  0  2  0  0  0  0  0  0  0  0  0
   -0.2150   -0.8500   -0.6800 N   0  0  0  0  0  0  0  0  0  0  0  0
   -0.0640   -2.5640   -2.3900 C   0  0  0  0  0  0  0  0  0  0  0  0
    0.4990   -1.7290   -3.1030 O   0  0  0  0  0  0  0  0  0  0  0  0
   -0.1590   -3.8500   -2.8510 O   0  0  0  0  0  0  0  0  0  0  0  0
   -2.7810   -4.7610   -3.0380 H   0  0  0  0  0  0  0  0  0  0  0  0
   -2.5620   -2.9200   -3.3000 H   0  0  0  0  0  0  0  0  0  0  0  0
   -4.1250   -3.6040   -2.9100 H   0  0  0  0  0  0  0  0  0  0  0  0
   -3.7490   -3.5420   -0.7040 H   0  0  0  0  0  0  0  0  0  0  0  0
   -2.2770   -4.4970   -0.7500 H   0  0  0  0  0  0  0  0  0  0  0  0
   -2.2120   -2.2330    0.2720 H   0  0  0  0  0  0  0  0  0  0  0  0
   -3.2610   -0.4910   -0.6080 H   0  0  0  0  0  0  0  0  0  0  0  0
   -3.8490   -1.5970   -1.8580 H   0  0  0  0  0  0  0  0  0  0  0  0
   -2.4510   -0.5870   -2.1710 H   0  0  0  0  0  0  0  0  0  0  0  0
   -0.0190   -2.8620   -0.3840 H   0  0  0  0  0  0  0  0  0  0  0  0
   -0.9470   -0.1290   -0.5940 H   0  0  0  0  0  0  0  0  0  0  0  0
  1  9  1  0  0  0  0
  1 10  1  0  0  0  0
  2  1  1  0  0  0  0
  3  2  2  0  0  0  0
  4  2  1  0  0  0  0
  4 12  1  0  0  0  0
  5  4  1  0  0  0  0
  5 13  1  1  0  0  0
  6  5  1  0  0  0  0
  6 14  1  0  0  0  0
  7  8  2  0  0  0  0
  7  5  1  0  0  0  0
 11  4  1  0  0  0  0
 15  6  1  0  0  0  0
 16 25  1  0  0  0  0
 17 19  1  0  0  0  0
 17 16  1  0  0  0  0
 18 17  2  0  0  0  0
 19 27  1  0  0  0  0
 19 28  1  0  0  0  0
 20 19  1  0  0  0  0
 21 31  1  6  0  0  0
 21 20  1  0  0  0  0
 21 22  1  0  0  0  0
 22  7  1  0  0  0  0
 23 21  1  0  0  0  0
 24 23  2  0  0  0  0
 26 16  1  0  0  0  0
 29 20  1  0  0  0  0
 30 20  1  0  0  0  0
 32 22  1  0  0  0  0
 33 34  1  0  0  0  0
 34 35  1  0  0  0  0
 34 46  1  0  0  0  0
 34 45  1  0  0  0  0
 35 47  1  1  0  0  0
 36 35  1  0  0  0  0
 36 48  1  0  0  0  0
 37 35  1  0  0  0  0
 37 38  1  0  0  0  0
 37 51  1  1  0  0  0
 38 52  1  0  0  0  0
 38 23  1  0  0  0  0
 39 37  1  0  0  0  0
 40 39  2  0  0  0  0
 41 39  1  0  0  0  0
 42 33  1  0  0  0  0
 43 33  1  0  0  0  0
 44 33  1  0  0  0  0
 49 36  1  0  0  0  0
 50 36  1  0  0  0  0
M  END
$$$$
