NQK.pdb
 OpenBabel07022418093D

 54 53  0  0  1  0  0  0  0  0999 V2000
    1.9130   -1.4990    7.8780 N   0  0  0  0  0  0  0  0  0  0  0  0
    1.7210   -2.1430    6.6400 C   0  0  0  0  0  0  0  0  0  0  0  0
    1.3470   -3.3350    6.6060 O   0  0  0  0  0  0  0  0  0  0  0  0
    1.9600   -1.4200    5.3840 C   0  0  0  0  0  0  0  0  0  0  0  0
    1.7110   -2.3640    4.1850 C   0  0  2  0  0  0  0  0  0  0  0  0
    2.6660   -3.4740    4.3310 N   0  0  0  0  0  0  0  0  0  0  0  0
    1.9610   -1.6690    2.9170 C   0  0  0  0  0  0  0  0  0  0  0  0
    3.1000   -1.1160    2.8050 O   0  0  0  0  0  0  0  0  0  0  0  0
    2.7510   -0.9290    8.1420 H   0  0  0  0  0  0  0  0  0  0  0  0
    1.1880   -1.5580    8.6650 H   0  0  0  0  0  0  0  0  0  0  0  0
    1.4000   -0.4890    5.2620 H   0  0  0  0  0  0  0  0  0  0  0  0
    3.0450   -1.1330    5.3640 H   0  0  0  0  0  0  0  0  0  0  0  0
    0.7100   -2.7860    4.3150 H   0  0  0  0  0  0  0  0  0  0  0  0
    2.1780   -4.3800    4.3620 H   0  0  0  0  0  0  0  0  0  0  0  0
    3.3160   -3.4890    3.5060 H   0  0  0  0  0  0  0  0  0  0  0  0
    1.9480   -0.3210   -3.7880 N   0  0  0  0  0  0  0  0  0  0  0  0
    1.7220   -1.0960   -2.6250 C   0  0  0  0  0  0  0  0  0  0  0  0
    0.5850   -1.6260   -2.4950 O   0  0  0  0  0  0  0  0  0  0  0  0
    2.7330   -1.3050   -1.5910 C   0  0  0  0  0  0  0  0  0  0  0  0
    2.2720   -1.7440   -0.2730 C   0  0  0  0  0  0  0  0  0  0  0  0
    1.4510   -0.8280    0.5870 C   0  0  2  0  0  0  0  0  0  0  0  0
    1.0700   -1.5630    1.8180 N   0  0  0  0  0  0  0  0  0  0  0  0
    0.4130   -0.0360   -0.0040 C   0  0  0  0  0  0  0  0  0  0  0  0
    0.6790    0.7830   -0.9090 O   0  0  0  0  0  0  0  0  0  0  0  0
    1.7350    0.7110   -3.8680 H   0  0  0  0  0  0  0  0  0  0  0  0
    2.3540   -0.8390   -4.6200 H   0  0  0  0  0  0  0  0  0  0  0  0
    3.4070   -2.1340   -1.9900 H   0  0  0  0  0  0  0  0  0  0  0  0
    3.4350   -0.4310   -1.5500 H   0  0  0  0  0  0  0  0  0  0  0  0
    1.8120   -2.7720   -0.4030 H   0  0  0  0  0  0  0  0  0  0  0  0
    3.2180   -2.0040    0.3230 H   0  0  0  0  0  0  0  0  0  0  0  0
    2.2410   -0.0890    0.9920 H   0  0  0  0  0  0  0  0  0  0  0  0
    0.1430   -2.0410    1.9220 H   0  0  0  0  0  0  0  0  0  0  0  0
   -0.9390   -0.1500    0.3950 N   0  0  0  0  0  0  0  0  0  0  0  0
   -2.0290    0.6210   -0.2060 C   0  0  1  0  0  0  0  0  0  0  0  0
   -2.8740   -0.3750   -0.9690 C   0  0  0  0  0  0  0  0  0  0  0  0
   -4.0440    0.1620   -1.6790 C   0  0  0  0  0  0  0  0  0  0  0  0
   -3.7840    1.1740   -2.7280 C   0  0  0  0  0  0  0  0  0  0  0  0
   -2.9450    0.7550   -3.8900 C   0  0  0  0  0  0  0  0  0  0  0  0
   -1.6050    0.3440   -3.5740 N   0  0  0  0  0  0  0  0  0  0  0  0
   -2.7760    1.3990    0.7860 C   0  0  0  0  0  0  0  0  0  0  0  0
   -2.4620    1.4260    2.0050 O   0  0  0  0  0  0  0  0  0  0  0  0
   -3.8800    2.1490    0.4050 O   0  0  0  0  0  0  0  0  0  0  0  0
   -1.2740   -0.7970    1.1550 H   0  0  0  0  0  0  0  0  0  0  0  0
   -1.5460    1.2800   -0.9550 H   0  0  0  0  0  0  0  0  0  0  0  0
   -2.1980   -0.9100   -1.6710 H   0  0  0  0  0  0  0  0  0  0  0  0
   -3.2500   -1.1700   -0.2670 H   0  0  0  0  0  0  0  0  0  0  0  0
   -4.5570   -0.7200   -2.1560 H   0  0  0  0  0  0  0  0  0  0  0  0
   -4.8300    0.5710   -0.9840 H   0  0  0  0  0  0  0  0  0  0  0  0
   -3.4230    2.1230   -2.2570 H   0  0  0  0  0  0  0  0  0  0  0  0
   -4.8070    1.4430   -3.1780 H   0  0  0  0  0  0  0  0  0  0  0  0
   -3.4190   -0.0790   -4.4740 H   0  0  0  0  0  0  0  0  0  0  0  0
   -2.8890    1.6370   -4.6090 H   0  0  0  0  0  0  0  0  0  0  0  0
   -1.3440   -0.4630   -4.1700 H   0  0  0  0  0  0  0  0  0  0  0  0
   -0.9390    1.1070   -3.8320 H   0  0  0  0  0  0  0  0  0  0  0  0
  1  9  1  0  0  0  0
  1 10  1  0  0  0  0
  2  1  1  0  0  0  0
  3  2  2  0  0  0  0
  4  2  1  0  0  0  0
  5 13  1  1  0  0  0
  5  6  1  0  0  0  0
  5  4  1  0  0  0  0
  6 14  1  0  0  0  0
  7  5  1  0  0  0  0
  8  7  2  0  0  0  0
 11  4  1  0  0  0  0
 12  4  1  0  0  0  0
 15  6  1  0  0  0  0
 16 17  1  0  0  0  0
 17 18  2  0  0  0  0
 17 19  1  0  0  0  0
 19 28  1  0  0  0  0
 19 20  1  0  0  0  0
 20 30  1  0  0  0  0
 20 21  1  0  0  0  0
 21 31  1  1  0  0  0
 21 22  1  0  0  0  0
 22 32  1  0  0  0  0
 22  7  1  0  0  0  0
 23 33  1  0  0  0  0
 23 21  1  0  0  0  0
 24 23  2  0  0  0  0
 25 16  1  0  0  0  0
 26 16  1  0  0  0  0
 27 19  1  0  0  0  0
 29 20  1  0  0  0  0
 33 43  1  0  0  0  0
 34 44  1  6  0  0  0
 34 33  1  0  0  0  0
 34 40  1  0  0  0  0
 35 46  1  0  0  0  0
 35 34  1  0  0  0  0
 36 48  1  0  0  0  0
 36 35  1  0  0  0  0
 37 49  1  0  0  0  0
 37 36  1  0  0  0  0
 38 39  1  0  0  0  0
 38 37  1  0  0  0  0
 40 41  1  0  0  0  0
 42 40  2  0  0  0  0
 45 35  1  0  0  0  0
 47 36  1  0  0  0  0
 50 37  1  0  0  0  0
 51 38  1  0  0  0  0
 52 38  1  0  0  0  0
 53 39  1  0  0  0  0
 54 39  1  0  0  0  0
M  END
$$$$
