NQL.pdb
 OpenBabel07022418093D

 52 51  0  0  1  0  0  0  0  0999 V2000
    5.2420   -3.7790    3.9910 N   0  0  0  0  0  0  0  0  0  0  0  0
    3.9940   -3.6180    3.3500 C   0  0  0  0  0  0  0  0  0  0  0  0
    3.4740   -4.5990    2.7780 O   0  0  0  0  0  0  0  0  0  0  0  0
    3.3290   -2.3000    3.3670 C   0  0  0  0  0  0  0  0  0  0  0  0
    2.0170   -2.3890    2.6180 C   0  0  2  0  0  0  0  0  0  0  0  0
    2.2750   -2.7820    1.2650 N   0  0  0  0  0  0  0  0  0  0  0  0
    1.2420   -1.1270    2.7110 C   0  0  0  0  0  0  0  0  0  0  0  0
    0.9530   -0.6810    3.8680 O   0  0  0  0  0  0  0  0  0  0  0  0
    5.8840   -4.5520    3.7010 H   0  0  0  0  0  0  0  0  0  0  0  0
    5.5340   -3.1220    4.7660 H   0  0  0  0  0  0  0  0  0  0  0  0
    3.1940   -1.9150    4.4020 H   0  0  0  0  0  0  0  0  0  0  0  0
    4.0120   -1.5850    2.8630 H   0  0  0  0  0  0  0  0  0  0  0  0
    1.3990   -3.1920    3.0840 H   0  0  0  0  0  0  0  0  0  0  0  0
    3.1950   -2.4360    0.9020 H   0  0  0  0  0  0  0  0  0  0  0  0
    2.1080   -3.7770    1.0660 H   0  0  0  0  0  0  0  0  0  0  0  0
    4.0140    3.8770    0.9520 N   0  0  0  0  0  0  0  0  0  0  0  0
    2.7530    3.3310    0.6460 C   0  0  0  0  0  0  0  0  0  0  0  0
    2.1270    3.8450   -0.3410 O   0  0  0  0  0  0  0  0  0  0  0  0
    2.1380    2.2110    1.4050 C   0  0  0  0  0  0  0  0  0  0  0  0
    0.7890    1.8700    0.8180 C   0  0  0  0  0  0  0  0  0  0  0  0
    0.1120    0.7410    1.5440 C   0  0  2  0  0  0  0  0  0  0  0  0
    0.8580   -0.4760    1.5260 N   0  0  0  0  0  0  0  0  0  0  0  0
   -1.2370    0.5740    0.9210 C   0  0  0  0  0  0  0  0  0  0  0  0
   -1.9760    1.5910    0.8860 O   0  0  0  0  0  0  0  0  0  0  0  0
    4.1230    4.8950    1.0630 H   0  0  0  0  0  0  0  0  0  0  0  0
    4.8290    3.2580    1.0660 H   0  0  0  0  0  0  0  0  0  0  0  0
    2.8370    1.3740    1.3950 H   0  0  0  0  0  0  0  0  0  0  0  0
    1.9700    2.5910    2.4540 H   0  0  0  0  0  0  0  0  0  0  0  0
    0.1400    2.7670    0.8760 H   0  0  0  0  0  0  0  0  0  0  0  0
    0.9390    1.6460   -0.2560 H   0  0  0  0  0  0  0  0  0  0  0  0
   -0.0780    1.0280    2.5970 H   0  0  0  0  0  0  0  0  0  0  0  0
    1.1290   -0.8980    0.6150 H   0  0  0  0  0  0  0  0  0  0  0  0
   -3.6460   -1.8600   -3.8300 C   0  0  0  0  0  0  0  0  0  0  0  0
   -4.0650   -1.4250   -2.4180 C   0  0  0  0  0  0  0  0  0  0  0  0
   -4.9440   -0.2110   -2.4590 C   0  0  0  0  0  0  0  0  0  0  0  0
   -2.7970   -1.2190   -1.6480 C   0  0  0  0  0  0  0  0  0  0  0  0
   -3.0260   -0.7830   -0.2200 C   0  0  2  0  0  0  0  0  0  0  0  0
   -1.7170   -0.6290    0.3820 N   0  0  0  0  0  0  0  0  0  0  0  0
   -3.7900   -1.7690    0.5670 C   0  0  0  0  0  0  0  0  0  0  0  0
   -3.2600   -2.3030    1.5660 O   0  0  0  0  0  0  0  0  0  0  0  0
   -5.0900   -2.1530    0.2650 O   0  0  0  0  0  0  0  0  0  0  0  0
   -4.4590   -2.4390   -4.3110 H   0  0  0  0  0  0  0  0  0  0  0  0
   -3.3040   -1.0090   -4.4320 H   0  0  0  0  0  0  0  0  0  0  0  0
   -2.7990   -2.5570   -3.6830 H   0  0  0  0  0  0  0  0  0  0  0  0
   -4.6720   -2.2720   -2.0300 H   0  0  0  0  0  0  0  0  0  0  0  0
   -5.8080   -0.3240   -1.7480 H   0  0  0  0  0  0  0  0  0  0  0  0
   -4.3940    0.7340   -2.3020 H   0  0  0  0  0  0  0  0  0  0  0  0
   -5.4040   -0.1440   -3.4710 H   0  0  0  0  0  0  0  0  0  0  0  0
   -2.2770   -2.2040   -1.5970 H   0  0  0  0  0  0  0  0  0  0  0  0
   -2.1710   -0.4840   -2.1500 H   0  0  0  0  0  0  0  0  0  0  0  0
   -3.5740    0.1890   -0.1850 H   0  0  0  0  0  0  0  0  0  0  0  0
   -1.0680   -1.4600    0.4300 H   0  0  0  0  0  0  0  0  0  0  0  0
  1 10  1  0  0  0  0
  2  4  1  0  0  0  0
  2  1  1  0  0  0  0
  3  2  2  0  0  0  0
  4 11  1  0  0  0  0
  5  7  1  0  0  0  0
  5 13  1  1  0  0  0
  5  4  1  0  0  0  0
  6  5  1  0  0  0  0
  7  8  2  0  0  0  0
  9  1  1  0  0  0  0
 12  4  1  0  0  0  0
 14  6  1  0  0  0  0
 15  6  1  0  0  0  0
 16 25  1  0  0  0  0
 16 26  1  0  0  0  0
 17 16  1  0  0  0  0
 17 19  1  0  0  0  0
 18 17  2  0  0  0  0
 19 28  1  0  0  0  0
 20 29  1  0  0  0  0
 20 19  1  0  0  0  0
 20 21  1  0  0  0  0
 21 31  1  1  0  0  0
 22 21  1  0  0  0  0
 22  7  1  0  0  0  0
 23 21  1  0  0  0  0
 24 23  2  0  0  0  0
 27 19  1  0  0  0  0
 30 20  1  0  0  0  0
 32 22  1  0  0  0  0
 33 44  1  0  0  0  0
 33 34  1  0  0  0  0
 34 45  1  0  0  0  0
 34 36  1  0  0  0  0
 35 34  1  0  0  0  0
 35 47  1  0  0  0  0
 35 46  1  0  0  0  0
 36 49  1  0  0  0  0
 36 37  1  0  0  0  0
 37 51  1  1  0  0  0
 37 38  1  0  0  0  0
 37 39  1  0  0  0  0
 38 52  1  0  0  0  0
 38 23  1  0  0  0  0
 39 40  1  0  0  0  0
 41 39  2  0  0  0  0
 42 33  1  0  0  0  0
 43 33  1  0  0  0  0
 48 35  1  0  0  0  0
 50 36  1  0  0  0  0
M  END
$$$$
