NQN.pdb
 OpenBabel07022418093D

 47 46  0  0  1  0  0  0  0  0999 V2000
    1.3720   -3.5010    3.4820 N   0  0  0  0  0  0  0  0  0  0  0  0
    0.4020   -4.5380    3.4710 C   0  0  0  0  0  0  0  0  0  0  0  0
    0.4480   -5.3710    4.4130 O   0  0  0  0  0  0  0  0  0  0  0  0
   -0.6400   -4.7140    2.4580 C   0  0  0  0  0  0  0  0  0  0  0  0
   -0.6040   -3.6660    1.3720 C   0  0  2  0  0  0  0  0  0  0  0  0
    0.6110   -3.6240    0.6350 N   0  0  0  0  0  0  0  0  0  0  0  0
   -1.0600   -2.3350    1.8580 C   0  0  0  0  0  0  0  0  0  0  0  0
   -2.1350   -2.3310    2.5310 O   0  0  0  0  0  0  0  0  0  0  0  0
    2.3660   -3.8100    3.2990 H   0  0  0  0  0  0  0  0  0  0  0  0
    1.1430   -2.5000    3.6560 H   0  0  0  0  0  0  0  0  0  0  0  0
   -0.5490   -5.7100    1.9670 H   0  0  0  0  0  0  0  0  0  0  0  0
   -1.6510   -4.6270    2.9460 H   0  0  0  0  0  0  0  0  0  0  0  0
   -1.4080   -3.9810    0.6370 H   0  0  0  0  0  0  0  0  0  0  0  0
    0.7100   -4.4720    0.0600 H   0  0  0  0  0  0  0  0  0  0  0  0
    1.4490   -3.3140    1.1160 H   0  0  0  0  0  0  0  0  0  0  0  0
    3.3020    1.9130    1.3300 N   0  0  0  0  0  0  0  0  0  0  0  0
    1.9160    1.8420    1.7250 C   0  0  0  0  0  0  0  0  0  0  0  0
    1.1450    2.5690    1.0970 O   0  0  0  0  0  0  0  0  0  0  0  0
    1.5090    0.9580    2.8000 C   0  0  0  0  0  0  0  0  0  0  0  0
    0.0870    0.7260    3.0870 C   0  0  0  0  0  0  0  0  0  0  0  0
   -0.7810    0.1190    2.0530 C   0  0  2  0  0  0  0  0  0  0  0  0
   -0.3320   -1.1530    1.5810 N   0  0  0  0  0  0  0  0  0  0  0  0
   -1.1800    1.0630    1.0030 C   0  0  0  0  0  0  0  0  0  0  0  0
   -1.7240    2.1520    1.3270 O   0  0  0  0  0  0  0  0  0  0  0  0
    3.5950    1.8660    0.3440 H   0  0  0  0  0  0  0  0  0  0  0  0
    4.0210    2.0140    2.0680 H   0  0  0  0  0  0  0  0  0  0  0  0
    2.0980   -0.0070    2.7120 H   0  0  0  0  0  0  0  0  0  0  0  0
    1.9520    1.3810    3.7750 H   0  0  0  0  0  0  0  0  0  0  0  0
   -0.3660    1.7490    3.3070 H   0  0  0  0  0  0  0  0  0  0  0  0
   -0.0610    0.1960    4.0720 H   0  0  0  0  0  0  0  0  0  0  0  0
   -1.7570   -0.1400    2.6410 H   0  0  0  0  0  0  0  0  0  0  0  0
    0.5390   -1.3000    1.0140 H   0  0  0  0  0  0  0  0  0  0  0  0
    0.3090   -0.3230   -2.8100 N   0  0  0  0  0  0  0  0  0  0  0  0
    0.6460    1.0510   -2.8270 C   0  0  0  0  0  0  0  0  0  0  0  0
    1.7170    1.3460   -3.4440 O   0  0  0  0  0  0  0  0  0  0  0  0
   -0.1410    2.1110   -2.1970 C   0  0  0  0  0  0  0  0  0  0  0  0
   -1.3440    1.6700   -1.4450 C   0  0  2  0  0  0  0  0  0  0  0  0
   -0.9740    0.7930   -0.3800 N   0  0  0  0  0  0  0  0  0  0  0  0
   -2.4130    1.1200   -2.3050 C   0  0  0  0  0  0  0  0  0  0  0  0
   -2.8920   -0.0190   -2.0450 O   0  0  0  0  0  0  0  0  0  0  0  0
   -2.9350    1.7840   -3.3990 O   0  0  0  0  0  0  0  0  0  0  0  0
    0.9410   -0.9880   -2.3130 H   0  0  0  0  0  0  0  0  0  0  0  0
   -0.5360   -0.7350   -3.2620 H   0  0  0  0  0  0  0  0  0  0  0  0
   -0.4270    2.8330   -3.0270 H   0  0  0  0  0  0  0  0  0  0  0  0
    0.5650    2.7110   -1.5730 H   0  0  0  0  0  0  0  0  0  0  0  0
   -1.7950    2.5920   -0.9700 H   0  0  0  0  0  0  0  0  0  0  0  0
   -0.5190   -0.1210   -0.6200 H   0  0  0  0  0  0  0  0  0  0  0  0
  1 10  1  0  0  0  0
  2  1  1  0  0  0  0
  2  3  2  0  0  0  0
  4 12  1  0  0  0  0
  4  2  1  0  0  0  0
  5 13  1  6  0  0  0
  5  7  1  0  0  0  0
  5  4  1  0  0  0  0
  6 15  1  0  0  0  0
  6  5  1  0  0  0  0
  7  8  2  0  0  0  0
  9  1  1  0  0  0  0
 11  4  1  0  0  0  0
 14  6  1  0  0  0  0
 16 17  1  0  0  0  0
 16 26  1  0  0  0  0
 17 19  1  0  0  0  0
 18 17  2  0  0  0  0
 19 20  1  0  0  0  0
 19 28  1  0  0  0  0
 20 29  1  0  0  0  0
 20 30  1  0  0  0  0
 21 31  1  1  0  0  0
 21 20  1  0  0  0  0
 22  7  1  0  0  0  0
 22 21  1  0  0  0  0
 23 24  2  0  0  0  0
 23 21  1  0  0  0  0
 25 16  1  0  0  0  0
 27 19  1  0  0  0  0
 32 22  1  0  0  0  0
 33 42  1  0  0  0  0
 34 33  1  0  0  0  0
 34 36  1  0  0  0  0
 35 34  2  0  0  0  0
 36 45  1  0  0  0  0
 36 37  1  0  0  0  0
 37 46  1  1  0  0  0
 37 38  1  0  0  0  0
 38 23  1  0  0  0  0
 39 40  1  0  0  0  0
 39 37  1  0  0  0  0
 41 39  2  0  0  0  0
 43 33  1  0  0  0  0
 44 36  1  0  0  0  0
 47 38  1  0  0  0  0
M  END
$$$$
