NQP.pdb
 OpenBabel07022418093D

 47 47  0  0  1  0  0  0  0  0999 V2000
    3.8210   -4.1360    2.3250 N   0  0  0  0  0  0  0  0  0  0  0  0
    3.7490   -2.9120    1.6200 C   0  0  0  0  0  0  0  0  0  0  0  0
    4.1390   -1.8560    2.1670 O   0  0  0  0  0  0  0  0  0  0  0  0
    3.2150   -2.8960    0.2450 C   0  0  0  0  0  0  0  0  0  0  0  0
    1.7230   -2.6610    0.1720 C   0  0  2  0  0  0  0  0  0  0  0  0
    1.3090   -2.6630   -1.2030 N   0  0  0  0  0  0  0  0  0  0  0  0
    1.2750   -1.5060    0.9410 C   0  0  0  0  0  0  0  0  0  0  0  0
    1.5640   -1.4930    2.1830 O   0  0  0  0  0  0  0  0  0  0  0  0
    3.5550   -4.2080    3.3470 H   0  0  0  0  0  0  0  0  0  0  0  0
    4.1410   -5.0340    1.8750 H   0  0  0  0  0  0  0  0  0  0  0  0
    3.7680   -2.1370   -0.3820 H   0  0  0  0  0  0  0  0  0  0  0  0
    3.3840   -3.9180   -0.1870 H   0  0  0  0  0  0  0  0  0  0  0  0
    1.2510   -3.5760    0.6400 H   0  0  0  0  0  0  0  0  0  0  0  0
    0.3230   -2.9240   -1.3580 H   0  0  0  0  0  0  0  0  0  0  0  0
    1.5530   -1.8350   -1.7410 H   0  0  0  0  0  0  0  0  0  0  0  0
    3.6030    3.9230   -0.5170 N   0  0  0  0  0  0  0  0  0  0  0  0
    2.2670    3.4970   -0.2970 C   0  0  0  0  0  0  0  0  0  0  0  0
    1.3310    4.2610   -0.6290 O   0  0  0  0  0  0  0  0  0  0  0  0
    1.9720    2.1780    0.3120 C   0  0  0  0  0  0  0  0  0  0  0  0
    0.4980    1.9950    0.4230 C   0  0  0  0  0  0  0  0  0  0  0  0
    0.1080    0.6700    1.0360 C   0  0  2  0  0  0  0  0  0  0  0  0
    0.5540   -0.4560    0.3260 N   0  0  0  0  0  0  0  0  0  0  0  0
   -1.3300    0.7250    1.3390 C   0  0  0  0  0  0  0  0  0  0  0  0
   -1.6810    1.8520    1.8870 O   0  0  0  0  0  0  0  0  0  0  0  0
    4.4060    3.2530   -0.6540 H   0  0  0  0  0  0  0  0  0  0  0  0
    3.8740    4.9370   -0.5550 H   0  0  0  0  0  0  0  0  0  0  0  0
    2.4180    2.1990    1.3490 H   0  0  0  0  0  0  0  0  0  0  0  0
    2.4760    1.4120   -0.3000 H   0  0  0  0  0  0  0  0  0  0  0  0
    0.0280    2.1360   -0.5730 H   0  0  0  0  0  0  0  0  0  0  0  0
    0.1020    2.8150    1.0620 H   0  0  0  0  0  0  0  0  0  0  0  0
    0.6490    0.6470    2.0460 H   0  0  0  0  0  0  0  0  0  0  0  0
    0.3800   -0.5270   -0.7030 H   0  0  0  0  0  0  0  0  0  0  0  0
   -2.3010   -0.2650    1.1080 N   0  0  0  0  0  0  0  0  0  0  0  0
   -2.2290   -1.5700    0.5560 C   0  0  0  0  0  0  0  0  0  0  0  0
   -3.5580   -1.7440   -0.1600 C   0  0  0  0  0  0  0  0  0  0  0  0
   -4.3810   -0.5320    0.1890 C   0  0  0  0  0  0  0  0  0  0  0  0
   -3.7110   -0.0630    1.4580 C   0  0  1  0  0  0  0  0  0  0  0  0
   -4.1430   -0.9160    2.5840 C   0  0  0  0  0  0  0  0  0  0  0  0
   -3.3990   -1.6980    3.2250 O   0  0  0  0  0  0  0  0  0  0  0  0
   -5.5070   -0.8080    2.9270 O   0  0  0  0  0  0  0  0  0  0  0  0
   -2.1520   -2.3220    1.4030 H   0  0  0  0  0  0  0  0  0  0  0  0
   -1.3870   -1.7960   -0.1060 H   0  0  0  0  0  0  0  0  0  0  0  0
   -3.4160   -1.8010   -1.2590 H   0  0  0  0  0  0  0  0  0  0  0  0
   -4.0580   -2.6270    0.2540 H   0  0  0  0  0  0  0  0  0  0  0  0
   -4.2100    0.2620   -0.5700 H   0  0  0  0  0  0  0  0  0  0  0  0
   -5.4470   -0.7450    0.3250 H   0  0  0  0  0  0  0  0  0  0  0  0
   -3.9190    1.0170    1.6550 H   0  0  0  0  0  0  0  0  0  0  0  0
  1  9  1  0  0  0  0
  2  3  2  0  0  0  0
  2  1  1  0  0  0  0
  4  2  1  0  0  0  0
  5  4  1  0  0  0  0
  5 13  1  1  0  0  0
  5  7  1  0  0  0  0
  6  5  1  0  0  0  0
  7  8  2  0  0  0  0
 10  1  1  0  0  0  0
 11  4  1  0  0  0  0
 12  4  1  0  0  0  0
 14  6  1  0  0  0  0
 15  6  1  0  0  0  0
 16 17  1  0  0  0  0
 17 19  1  0  0  0  0
 18 17  2  0  0  0  0
 19 20  1  0  0  0  0
 19 27  1  0  0  0  0
 20 21  1  0  0  0  0
 20 30  1  0  0  0  0
 21 23  1  0  0  0  0
 21 31  1  1  0  0  0
 22  7  1  0  0  0  0
 22 21  1  0  0  0  0
 23 24  2  0  0  0  0
 25 16  1  0  0  0  0
 26 16  1  0  0  0  0
 28 19  1  0  0  0  0
 29 20  1  0  0  0  0
 32 22  1  0  0  0  0
 33 23  1  0  0  0  0
 33 37  1  0  0  0  0
 34 33  1  0  0  0  0
 34 41  1  0  0  0  0
 35 36  1  0  0  0  0
 35 44  1  0  0  0  0
 35 34  1  0  0  0  0
 36 46  1  0  0  0  0
 36 37  1  0  0  0  0
 37 47  1  1  0  0  0
 37 38  1  0  0  0  0
 38 40  2  0  0  0  0
 38 39  1  0  0  0  0
 42 34  1  0  0  0  0
 43 35  1  0  0  0  0
 45 36  1  0  0  0  0
M  END
$$$$
