NQS.pdb
 OpenBabel07022418093D

 44 43  0  0  1  0  0  0  0  0999 V2000
    2.5990   -5.0940    0.6220 N   0  0  0  0  0  0  0  0  0  0  0  0
    3.7090   -4.2380    0.8290 C   0  0  0  0  0  0  0  0  0  0  0  0
    4.8750   -4.6860    0.6810 O   0  0  0  0  0  0  0  0  0  0  0  0
    3.4840   -2.8250    1.2180 C   0  0  0  0  0  0  0  0  0  0  0  0
    1.9980   -2.5740    1.3200 C   0  0  2  0  0  0  0  0  0  0  0  0
    1.3280   -2.8190    0.0610 N   0  0  0  0  0  0  0  0  0  0  0  0
    1.7570   -1.2100    1.8270 C   0  0  0  0  0  0  0  0  0  0  0  0
    2.2760   -0.8620    2.9080 O   0  0  0  0  0  0  0  0  0  0  0  0
    2.2620   -5.7890    1.3210 H   0  0  0  0  0  0  0  0  0  0  0  0
    2.0480   -5.0660   -0.2770 H   0  0  0  0  0  0  0  0  0  0  0  0
    3.8820   -2.1560    0.4150 H   0  0  0  0  0  0  0  0  0  0  0  0
    3.9960   -2.5700    2.1540 H   0  0  0  0  0  0  0  0  0  0  0  0
    1.5420   -3.2770    2.0600 H   0  0  0  0  0  0  0  0  0  0  0  0
    0.3040   -2.7180    0.2160 H   0  0  0  0  0  0  0  0  0  0  0  0
    1.6760   -2.1570   -0.6670 H   0  0  0  0  0  0  0  0  0  0  0  0
    0.9500    1.7340   -2.7000 N   0  0  0  0  0  0  0  0  0  0  0  0
    1.4700    1.6400   -1.3840 C   0  0  0  0  0  0  0  0  0  0  0  0
    2.3210    0.7350   -1.1900 O   0  0  0  0  0  0  0  0  0  0  0  0
    0.9990    2.5710   -0.3840 C   0  0  0  0  0  0  0  0  0  0  0  0
    1.2970    2.2680    1.0520 C   0  0  0  0  0  0  0  0  0  0  0  0
    0.7330    1.0650    1.6530 C   0  0  2  0  0  0  0  0  0  0  0  0
    0.9730   -0.2310    1.1910 N   0  0  0  0  0  0  0  0  0  0  0  0
   -0.7250    1.2560    1.8430 C   0  0  0  0  0  0  0  0  0  0  0  0
   -1.1300    2.3610    2.2520 O   0  0  0  0  0  0  0  0  0  0  0  0
    1.0930    2.6170   -3.2220 H   0  0  0  0  0  0  0  0  0  0  0  0
    0.4490    0.9290   -3.0980 H   0  0  0  0  0  0  0  0  0  0  0  0
   -0.0750    2.7970   -0.5620 H   0  0  0  0  0  0  0  0  0  0  0  0
    1.5060    3.5660   -0.5810 H   0  0  0  0  0  0  0  0  0  0  0  0
    2.3830    2.4420    1.2140 H   0  0  0  0  0  0  0  0  0  0  0  0
    0.8300    3.1470    1.6080 H   0  0  0  0  0  0  0  0  0  0  0  0
    1.1400    1.0520    2.7330 H   0  0  0  0  0  0  0  0  0  0  0  0
    0.5120   -0.5160    0.2870 H   0  0  0  0  0  0  0  0  0  0  0  0
   -3.2860    1.1280   -0.5410 O   0  0  0  0  0  0  0  0  0  0  0  0
   -3.7140    0.1890    0.3640 C   0  0  0  0  0  0  0  0  0  0  0  0
   -3.0820    0.3590    1.7400 C   0  0  2  0  0  0  0  0  0  0  0  0
   -1.6550    0.2320    1.5750 N   0  0  0  0  0  0  0  0  0  0  0  0
   -3.6170   -0.7240    2.5940 C   0  0  0  0  0  0  0  0  0  0  0  0
   -4.8280   -0.8110    2.8710 O   0  0  0  0  0  0  0  0  0  0  0  0
   -2.7410   -1.6660    3.1000 O   0  0  0  0  0  0  0  0  0  0  0  0
   -2.5750    0.6870   -1.1070 H   0  0  0  0  0  0  0  0  0  0  0  0
   -3.5950   -0.8660    0.0040 H   0  0  0  0  0  0  0  0  0  0  0  0
   -4.8210    0.3000    0.5370 H   0  0  0  0  0  0  0  0  0  0  0  0
   -3.3660    1.3660    2.1060 H   0  0  0  0  0  0  0  0  0  0  0  0
   -1.2850   -0.6800    1.2340 H   0  0  0  0  0  0  0  0  0  0  0  0
  1  2  1  0  0  0  0
  1  9  1  0  0  0  0
  2  4  1  0  0  0  0
  3  2  2  0  0  0  0
  4  5  1  0  0  0  0
  4 12  1  0  0  0  0
  5  7  1  0  0  0  0
  5 13  1  1  0  0  0
  6 14  1  0  0  0  0
  6  5  1  0  0  0  0
  7  8  2  0  0  0  0
 10  1  1  0  0  0  0
 11  4  1  0  0  0  0
 15  6  1  0  0  0  0
 16 17  1  0  0  0  0
 17 18  2  0  0  0  0
 17 19  1  0  0  0  0
 19 20  1  0  0  0  0
 20 29  1  0  0  0  0
 20 30  1  0  0  0  0
 20 21  1  0  0  0  0
 21 23  1  0  0  0  0
 21 31  1  1  0  0  0
 22 21  1  0  0  0  0
 22  7  1  0  0  0  0
 23 24  2  0  0  0  0
 25 16  1  0  0  0  0
 26 16  1  0  0  0  0
 27 19  1  0  0  0  0
 28 19  1  0  0  0  0
 32 22  1  0  0  0  0
 33 34  1  0  0  0  0
 34 42  1  0  0  0  0
 34 35  1  0  0  0  0
 35 43  1  1  0  0  0
 35 37  1  0  0  0  0
 36 35  1  0  0  0  0
 36 23  1  0  0  0  0
 37 38  2  0  0  0  0
 37 39  1  0  0  0  0
 40 33  1  0  0  0  0
 41 34  1  0  0  0  0
 44 36  1  0  0  0  0
M  END
$$$$
