NQT.pdb
 OpenBabel07022418093D

 47 46  0  0  1  0  0  0  0  0999 V2000
    4.1450   -3.3200    3.1420 N   0  0  0  0  0  0  0  0  0  0  0  0
    3.8500   -2.0940    2.4970 C   0  0  0  0  0  0  0  0  0  0  0  0
    3.9150   -1.0370    3.1670 O   0  0  0  0  0  0  0  0  0  0  0  0
    3.4770   -2.0670    1.0720 C   0  0  0  0  0  0  0  0  0  0  0  0
    1.9960   -2.1140    0.8790 C   0  0  2  0  0  0  0  0  0  0  0  0
    1.6430   -2.0880   -0.5360 N   0  0  0  0  0  0  0  0  0  0  0  0
    1.2690   -1.0260    1.5640 C   0  0  0  0  0  0  0  0  0  0  0  0
    1.3400   -0.8130    2.8060 O   0  0  0  0  0  0  0  0  0  0  0  0
    3.9700   -3.4700    4.1700 H   0  0  0  0  0  0  0  0  0  0  0  0
    4.5500   -4.1440    2.6410 H   0  0  0  0  0  0  0  0  0  0  0  0
    3.9550   -1.2050    0.5540 H   0  0  0  0  0  0  0  0  0  0  0  0
    3.8960   -2.9990    0.6010 H   0  0  0  0  0  0  0  0  0  0  0  0
    1.6360   -3.0710    1.3470 H   0  0  0  0  0  0  0  0  0  0  0  0
    0.9390   -2.8340   -0.6870 H   0  0  0  0  0  0  0  0  0  0  0  0
    2.4680   -2.2230   -1.1420 H   0  0  0  0  0  0  0  0  0  0  0  0
    3.9150    2.0820    1.1930 N   0  0  0  0  0  0  0  0  0  0  0  0
    2.5860    1.9680    0.6580 C   0  0  0  0  0  0  0  0  0  0  0  0
    2.4670    1.2440   -0.3480 O   0  0  0  0  0  0  0  0  0  0  0  0
    1.5200    2.7090    1.3390 C   0  0  0  0  0  0  0  0  0  0  0  0
    0.1140    2.2880    1.0510 C   0  0  0  0  0  0  0  0  0  0  0  0
   -0.3030    0.9380    1.4400 C   0  0  2  0  0  0  0  0  0  0  0  0
    0.4210   -0.1320    0.8210 N   0  0  0  0  0  0  0  0  0  0  0  0
   -1.7430    0.6490    1.2160 C   0  0  0  0  0  0  0  0  0  0  0  0
   -2.5840    1.4570    1.6740 O   0  0  0  0  0  0  0  0  0  0  0  0
    4.4910    1.2350    1.3760 H   0  0  0  0  0  0  0  0  0  0  0  0
    4.3520    3.0020    1.4190 H   0  0  0  0  0  0  0  0  0  0  0  0
    1.6330    3.7820    0.9710 H   0  0  0  0  0  0  0  0  0  0  0  0
    1.7140    2.8010    2.4410 H   0  0  0  0  0  0  0  0  0  0  0  0
   -0.0520    2.5350   -0.0240 H   0  0  0  0  0  0  0  0  0  0  0  0
   -0.5700    3.0150    1.5990 H   0  0  0  0  0  0  0  0  0  0  0  0
   -0.1280    0.8190    2.5560 H   0  0  0  0  0  0  0  0  0  0  0  0
    0.3540   -0.3330   -0.2100 H   0  0  0  0  0  0  0  0  0  0  0  0
   -3.0180   -1.5180   -2.0320 C   0  0  0  0  0  0  0  0  0  0  0  0
   -3.8980   -0.6450   -1.1840 C   0  0  1  0  0  0  0  0  0  0  0  0
   -5.2270   -0.9380   -1.4840 O   0  0  0  0  0  0  0  0  0  0  0  0
   -3.6100   -0.7740    0.2930 C   0  0  2  0  0  0  0  0  0  0  0  0
   -2.2410   -0.4630    0.5280 N   0  0  0  0  0  0  0  0  0  0  0  0
   -4.0810   -2.0260    0.8720 C   0  0  0  0  0  0  0  0  0  0  0  0
   -3.3540   -2.8060    1.5430 O   0  0  0  0  0  0  0  0  0  0  0  0
   -5.3950   -2.4500    0.7180 O   0  0  0  0  0  0  0  0  0  0  0  0
   -3.1250   -2.5960   -1.7620 H   0  0  0  0  0  0  0  0  0  0  0  0
   -1.9610   -1.1930   -2.0400 H   0  0  0  0  0  0  0  0  0  0  0  0
   -3.3830   -1.4340   -3.0770 H   0  0  0  0  0  0  0  0  0  0  0  0
   -3.7300    0.4060   -1.5000 H   0  0  0  0  0  0  0  0  0  0  0  0
   -5.8530   -0.2970   -1.0320 H   0  0  0  0  0  0  0  0  0  0  0  0
   -4.2030    0.0590    0.7790 H   0  0  0  0  0  0  0  0  0  0  0  0
   -1.5070   -1.1310    0.1500 H   0  0  0  0  0  0  0  0  0  0  0  0
  1  9  1  0  0  0  0
  2  1  1  0  0  0  0
  2  3  2  0  0  0  0
  4  2  1  0  0  0  0
  5  4  1  0  0  0  0
  5 13  1  1  0  0  0
  5  7  1  0  0  0  0
  6  5  1  0  0  0  0
  7  8  2  0  0  0  0
 10  1  1  0  0  0  0
 11  4  1  0  0  0  0
 12  4  1  0  0  0  0
 14  6  1  0  0  0  0
 15  6  1  0  0  0  0
 16 25  1  0  0  0  0
 16 26  1  0  0  0  0
 17 16  1  0  0  0  0
 17 19  1  0  0  0  0
 18 17  2  0  0  0  0
 19 28  1  0  0  0  0
 20 19  1  0  0  0  0
 20 21  1  0  0  0  0
 20 30  1  0  0  0  0
 21 31  1  1  0  0  0
 22 21  1  0  0  0  0
 22  7  1  0  0  0  0
 23 21  1  0  0  0  0
 23 24  2  0  0  0  0
 27 19  1  0  0  0  0
 29 20  1  0  0  0  0
 32 22  1  0  0  0  0
 33 41  1  0  0  0  0
 33 34  1  0  0  0  0
 34 44  1  6  0  0  0
 34 36  1  0  0  0  0
 35 34  1  0  0  0  0
 35 45  1  0  0  0  0
 36 37  1  0  0  0  0
 36 46  1  1  0  0  0
 36 38  1  0  0  0  0
 37 23  1  0  0  0  0
 38 39  1  0  0  0  0
 40 38  2  0  0  0  0
 42 33  1  0  0  0  0
 43 33  1  0  0  0  0
 47 37  1  0  0  0  0
M  END
$$$$
