NRG.pdb
 OpenBabel07022418083D

 46 45  0  0  1  0  0  0  0  0999 V2000
    0.9810   -5.0150    4.4250 N   0  0  0  0  0  0  0  0  0  0  0  0
    0.4710   -3.7840    4.8510 C   0  0  0  0  0  0  0  0  0  0  0  0
   -0.2570   -3.7680    5.8980 O   0  0  0  0  0  0  0  0  0  0  0  0
    0.7030   -2.4810    4.1880 C   0  0  0  0  0  0  0  0  0  0  0  0
   -0.4820   -2.0660    3.3470 C   0  0  2  0  0  0  0  0  0  0  0  0
   -0.6770   -3.0930    2.3420 N   0  0  0  0  0  0  0  0  0  0  0  0
   -0.3230   -0.7410    2.7490 C   0  0  0  0  0  0  0  0  0  0  0  0
   -0.1410    0.3220    3.3590 O   0  0  0  0  0  0  0  0  0  0  0  0
    0.4610   -5.9000    4.6220 H   0  0  0  0  0  0  0  0  0  0  0  0
    1.8800   -5.1070    3.9060 H   0  0  0  0  0  0  0  0  0  0  0  0
    1.5940   -2.5660    3.5300 H   0  0  0  0  0  0  0  0  0  0  0  0
    0.8700   -1.7280    4.9930 H   0  0  0  0  0  0  0  0  0  0  0  0
   -1.4030   -2.0520    3.9740 H   0  0  0  0  0  0  0  0  0  0  0  0
   -1.5250   -2.9340    1.7550 H   0  0  0  0  0  0  0  0  0  0  0  0
    0.1440   -3.1390    1.6990 H   0  0  0  0  0  0  0  0  0  0  0  0
    2.5610    3.5360   -2.1960 N   0  0  0  0  0  0  0  0  0  0  0  0
    2.9010    2.1530   -2.0880 C   0  0  0  0  0  0  0  0  0  0  0  0
    2.4880    1.2940   -2.9730 N   0  0  0  0  0  0  0  0  0  0  0  0
    3.7010    1.6880   -1.0100 N   0  0  0  0  0  0  0  0  0  0  0  0
    3.4260    0.4450   -0.3600 C   0  0  0  0  0  0  0  0  0  0  0  0
    2.1620    0.4150    0.4560 C   0  0  0  0  0  0  0  0  0  0  0  0
    0.9070    0.6770   -0.3170 C   0  0  0  0  0  0  0  0  0  0  0  0
   -0.2370    0.6110    0.6540 C   0  0  2  0  0  0  0  0  0  0  0  0
   -0.3810   -0.6380    1.3180 N   0  0  0  0  0  0  0  0  0  0  0  0
   -1.4760    0.9220   -0.0730 C   0  0  0  0  0  0  0  0  0  0  0  0
   -1.5650    1.9770   -0.7270 O   0  0  0  0  0  0  0  0  0  0  0  0
    3.1080    4.2870   -1.7410 H   0  0  0  0  0  0  0  0  0  0  0  0
    1.7250    3.8190   -2.7570 H   0  0  0  0  0  0  0  0  0  0  0  0
    1.9040    1.6400   -3.7610 H   0  0  0  0  0  0  0  0  0  0  0  0
    4.5000    2.2980   -0.7130 H   0  0  0  0  0  0  0  0  0  0  0  0
    4.2500    0.1420    0.3290 H   0  0  0  0  0  0  0  0  0  0  0  0
    3.3770   -0.3540   -1.1580 H   0  0  0  0  0  0  0  0  0  0  0  0
    2.3060    1.1800    1.2670 H   0  0  0  0  0  0  0  0  0  0  0  0
    2.1500   -0.5590    0.9880 H   0  0  0  0  0  0  0  0  0  0  0  0
    0.9410    1.7240   -0.6830 H   0  0  0  0  0  0  0  0  0  0  0  0
    0.7790    0.0300   -1.1910 H   0  0  0  0  0  0  0  0  0  0  0  0
   -0.0800    1.4250    1.3920 H   0  0  0  0  0  0  0  0  0  0  0  0
   -0.5330   -1.4870    0.7150 H   0  0  0  0  0  0  0  0  0  0  0  0
   -2.5700    0.0350   -0.0370 N   0  0  0  0  0  0  0  0  0  0  0  0
   -3.8180    0.2900   -0.7350 C   0  0  0  0  0  0  0  0  0  0  0  0
   -4.7330   -0.8420   -0.4770 C   0  0  0  0  0  0  0  0  0  0  0  0
   -5.8780   -0.8360   -0.9840 O   0  0  0  0  0  0  0  0  0  0  0  0
   -4.3390   -1.8890    0.3050 O   0  0  0  0  0  0  0  0  0  0  0  0
   -2.4660   -0.8600    0.5310 H   0  0  0  0  0  0  0  0  0  0  0  0
   -4.2070    1.2490   -0.3360 H   0  0  0  0  0  0  0  0  0  0  0  0
   -3.6400    0.3230   -1.8280 H   0  0  0  0  0  0  0  0  0  0  0  0
  1  9  1  0  0  0  0
  1  2  1  0  0  0  0
  2  3  2  0  0  0  0
  4  2  1  0  0  0  0
  4 12  1  0  0  0  0
  5 13  1  1  0  0  0
  5  4  1  0  0  0  0
  6  5  1  0  0  0  0
  7  5  1  0  0  0  0
  7  8  2  0  0  0  0
 10  1  1  0  0  0  0
 11  4  1  0  0  0  0
 14  6  1  0  0  0  0
 15  6  1  0  0  0  0
 16 17  1  0  0  0  0
 16 27  1  0  0  0  0
 17 19  1  0  0  0  0
 18 17  2  0  0  0  0
 19 30  1  0  0  0  0
 19 20  1  0  0  0  0
 20 31  1  0  0  0  0
 20 21  1  0  0  0  0
 21 34  1  0  0  0  0
 21 33  1  0  0  0  0
 22 21  1  0  0  0  0
 22 23  1  0  0  0  0
 23 24  1  0  0  0  0
 23 37  1  1  0  0  0
 24  7  1  0  0  0  0
 25 39  1  0  0  0  0
 25 23  1  0  0  0  0
 26 25  2  0  0  0  0
 28 16  1  0  0  0  0
 29 18  1  0  0  0  0
 32 20  1  0  0  0  0
 35 22  1  0  0  0  0
 36 22  1  0  0  0  0
 38 24  1  0  0  0  0
 39 44  1  0  0  0  0
 40 41  1  0  0  0  0
 40 45  1  0  0  0  0
 40 39  1  0  0  0  0
 41 43  1  0  0  0  0
 42 41  2  0  0  0  0
 46 40  1  0  0  0  0
M  END
$$$$
