NRH.pdb
 OpenBabel07022418083D

 56 56  0  0  1  0  0  0  0  0999 V2000
    1.2310   -3.0700    3.9090 N   0  0  0  0  0  0  0  0  0  0  0  0
    2.2580   -3.1290    2.9460 C   0  0  0  0  0  0  0  0  0  0  0  0
    2.5300   -4.2590    2.4580 O   0  0  0  0  0  0  0  0  0  0  0  0
    3.0210   -1.9290    2.4880 C   0  0  0  0  0  0  0  0  0  0  0  0
    2.5260   -0.7030    3.2020 C   0  0  2  0  0  0  0  0  0  0  0  0
    2.7370   -0.9290    4.6410 N   0  0  0  0  0  0  0  0  0  0  0  0
    1.0970   -0.4480    3.0160 C   0  0  0  0  0  0  0  0  0  0  0  0
    0.2420   -0.4330    3.9290 O   0  0  0  0  0  0  0  0  0  0  0  0
    0.2490   -3.2010    3.5800 H   0  0  0  0  0  0  0  0  0  0  0  0
    1.3650   -2.9060    4.9260 H   0  0  0  0  0  0  0  0  0  0  0  0
    4.0720   -2.0940    2.8140 H   0  0  0  0  0  0  0  0  0  0  0  0
    3.0400   -1.8270    1.3990 H   0  0  0  0  0  0  0  0  0  0  0  0
    3.1640    0.1630    2.9380 H   0  0  0  0  0  0  0  0  0  0  0  0
    2.9180   -0.0310    5.1310 H   0  0  0  0  0  0  0  0  0  0  0  0
    3.5240   -1.5660    4.8130 H   0  0  0  0  0  0  0  0  0  0  0  0
    3.1790    4.0770    1.6440 N   0  0  0  0  0  0  0  0  0  0  0  0
    2.4460    3.5650    0.5230 C   0  0  0  0  0  0  0  0  0  0  0  0
    3.1000    3.4430   -0.5940 N   0  0  0  0  0  0  0  0  0  0  0  0
    1.0700    3.2080    0.6240 N   0  0  0  0  0  0  0  0  0  0  0  0
    0.5570    2.3000   -0.3820 C   0  0  0  0  0  0  0  0  0  0  0  0
   -0.8730    1.9690   -0.2220 C   0  0  0  0  0  0  0  0  0  0  0  0
   -1.3210    1.3460    1.0550 C   0  0  0  0  0  0  0  0  0  0  0  0
   -0.8010    0.0640    1.4660 C   0  0  2  0  0  0  0  0  0  0  0  0
    0.5610   -0.1880    1.7140 N   0  0  0  0  0  0  0  0  0  0  0  0
   -1.2370   -0.9700    0.4670 C   0  0  0  0  0  0  0  0  0  0  0  0
   -0.3870   -1.8050   -0.0070 O   0  0  0  0  0  0  0  0  0  0  0  0
    3.2560    5.0810    1.8610 H   0  0  0  0  0  0  0  0  0  0  0  0
    3.6500    3.3870    2.2610 H   0  0  0  0  0  0  0  0  0  0  0  0
    2.6340    3.0820   -1.4400 H   0  0  0  0  0  0  0  0  0  0  0  0
    0.5180    3.6090    1.3960 H   0  0  0  0  0  0  0  0  0  0  0  0
    0.6000    2.9390   -1.3440 H   0  0  0  0  0  0  0  0  0  0  0  0
    1.2470    1.4990   -0.5910 H   0  0  0  0  0  0  0  0  0  0  0  0
   -1.1840    1.3600   -1.1160 H   0  0  0  0  0  0  0  0  0  0  0  0
   -1.4430    2.9410   -0.4060 H   0  0  0  0  0  0  0  0  0  0  0  0
   -2.4460    1.2400    0.9300 H   0  0  0  0  0  0  0  0  0  0  0  0
   -1.2790    2.1700    1.8170 H   0  0  0  0  0  0  0  0  0  0  0  0
   -1.3340   -0.2270    2.4410 H   0  0  0  0  0  0  0  0  0  0  0  0
    1.2010   -0.1990    0.8800 H   0  0  0  0  0  0  0  0  0  0  0  0
   -2.5480   -1.1180   -0.0190 N   0  0  0  0  0  0  0  0  0  0  0  0
   -2.9060   -2.1510   -0.9910 C   0  0  1  0  0  0  0  0  0  0  0  0
   -2.3630   -1.8590   -2.3460 C   0  0  0  0  0  0  0  0  0  0  0  0
   -2.6920   -2.8660   -3.3700 C   0  0  0  0  0  0  0  0  0  0  0  0
   -1.9860   -3.9920   -3.7370 C   0  0  0  0  0  0  0  0  0  0  0  0
   -2.6120   -4.6570   -4.7180 N   0  0  0  0  0  0  0  0  0  0  0  0
   -3.7290   -3.9630   -4.9910 C   0  0  0  0  0  0  0  0  0  0  0  0
   -3.7870   -2.8820   -4.1850 N   0  0  0  0  0  0  0  0  0  0  0  0
   -2.5840   -3.5140   -0.4870 C   0  0  0  0  0  0  0  0  0  0  0  0
   -2.0980   -3.6150    0.6640 O   0  0  0  0  0  0  0  0  0  0  0  0
   -2.7840   -4.6610   -1.1970 O   0  0  0  0  0  0  0  0  0  0  0  0
   -3.2830   -0.4520    0.3460 H   0  0  0  0  0  0  0  0  0  0  0  0
   -4.0410   -2.1400   -1.0220 H   0  0  0  0  0  0  0  0  0  0  0  0
   -1.2730   -1.6630   -2.3490 H   0  0  0  0  0  0  0  0  0  0  0  0
   -2.8190   -0.8950   -2.7200 H   0  0  0  0  0  0  0  0  0  0  0  0
   -1.0500   -4.3180   -3.3080 H   0  0  0  0  0  0  0  0  0  0  0  0
   -2.3380   -5.5380   -5.2090 H   0  0  0  0  0  0  0  0  0  0  0  0
   -4.4710   -4.2380   -5.7510 H   0  0  0  0  0  0  0  0  0  0  0  0
  1 10  1  0  0  0  0
  2  1  1  0  0  0  0
  3  2  2  0  0  0  0
  4 11  1  0  0  0  0
  4  2  1  0  0  0  0
  4  5  1  0  0  0  0
  5 13  1  6  0  0  0
  5  6  1  0  0  0  0
  6 15  1  0  0  0  0
  6 14  1  0  0  0  0
  7  5  1  0  0  0  0
  7  8  2  0  0  0  0
  9  1  1  0  0  0  0
 12  4  1  0  0  0  0
 16 27  1  0  0  0  0
 16 28  1  0  0  0  0
 17 19  1  0  0  0  0
 17 16  1  0  0  0  0
 18 17  2  0  0  0  0
 19 30  1  0  0  0  0
 20 21  1  0  0  0  0
 20 19  1  0  0  0  0
 21 22  1  0  0  0  0
 22 23  1  0  0  0  0
 22 36  1  0  0  0  0
 23 24  1  0  0  0  0
 23 37  1  1  0  0  0
 24  7  1  0  0  0  0
 25 23  1  0  0  0  0
 26 25  2  0  0  0  0
 29 18  1  0  0  0  0
 31 20  1  0  0  0  0
 32 20  1  0  0  0  0
 33 21  1  0  0  0  0
 34 21  1  0  0  0  0
 35 22  1  0  0  0  0
 38 24  1  0  0  0  0
 39 50  1  0  0  0  0
 39 25  1  0  0  0  0
 40 51  1  6  0  0  0
 40 47  1  0  0  0  0
 40 39  1  0  0  0  0
 41 40  1  0  0  0  0
 42 41  1  0  0  0  0
 43 42  2  0  0  0  0
 43 54  1  0  0  0  0
 44 43  1  0  0  0  0
 45 44  1  0  0  0  0
 45 46  2  0  0  0  0
 46 42  1  0  0  0  0
 47 48  1  0  0  0  0
 49 47  2  0  0  0  0
 52 41  1  0  0  0  0
 53 41  1  0  0  0  0
 55 44  1  0  0  0  0
 56 45  1  0  0  0  0
M  END
$$$$
