NRI.pdb
 OpenBabel07022418083D

 58 57  0  0  1  0  0  0  0  0999 V2000
   -0.9020   -1.9020    4.9250 N   0  0  0  0  0  0  0  0  0  0  0  0
    0.5190   -2.0120    4.8940 C   0  0  0  0  0  0  0  0  0  0  0  0
    0.9780   -3.1960    4.9440 O   0  0  0  0  0  0  0  0  0  0  0  0
    1.4140   -0.8370    4.8110 C   0  0  0  0  0  0  0  0  0  0  0  0
    0.5900    0.4130    4.7690 C   0  0  2  0  0  0  0  0  0  0  0  0
   -0.2040    0.4840    5.9720 N   0  0  0  0  0  0  0  0  0  0  0  0
   -0.2510    0.4950    3.5440 C   0  0  0  0  0  0  0  0  0  0  0  0
   -1.4780    0.6110    3.6560 O   0  0  0  0  0  0  0  0  0  0  0  0
   -1.3490   -1.6220    5.8030 H   0  0  0  0  0  0  0  0  0  0  0  0
   -1.3970   -2.1170    4.0330 H   0  0  0  0  0  0  0  0  0  0  0  0
    2.0140   -0.8080    5.7440 H   0  0  0  0  0  0  0  0  0  0  0  0
    2.1380   -0.9140    3.9740 H   0  0  0  0  0  0  0  0  0  0  0  0
    1.3060    1.2800    4.7080 H   0  0  0  0  0  0  0  0  0  0  0  0
    0.4060    0.1650    6.7640 H   0  0  0  0  0  0  0  0  0  0  0  0
   -0.4510    1.4730    6.1270 H   0  0  0  0  0  0  0  0  0  0  0  0
    5.4020    0.2790   -2.1210 N   0  0  0  0  0  0  0  0  0  0  0  0
    3.9850    0.3700   -2.3330 C   0  0  0  0  0  0  0  0  0  0  0  0
    3.4010   -0.3250   -3.2450 N   0  0  0  0  0  0  0  0  0  0  0  0
    3.2040    1.2350   -1.5360 N   0  0  0  0  0  0  0  0  0  0  0  0
    1.8490    0.8560   -1.1460 C   0  0  0  0  0  0  0  0  0  0  0  0
    1.2280    1.9360   -0.2940 C   0  0  0  0  0  0  0  0  0  0  0  0
   -0.1510    1.6820    0.1750 C   0  0  0  0  0  0  0  0  0  0  0  0
   -0.4160    0.5180    1.0220 C   0  0  2  0  0  0  0  0  0  0  0  0
    0.3020    0.4470    2.2600 N   0  0  0  0  0  0  0  0  0  0  0  0
   -0.3340   -0.7810    0.3440 C   0  0  0  0  0  0  0  0  0  0  0  0
    0.3150   -1.7120    0.8770 O   0  0  0  0  0  0  0  0  0  0  0  0
    5.9820   -0.0440   -2.9190 H   0  0  0  0  0  0  0  0  0  0  0  0
    5.8630    0.5130   -1.2340 H   0  0  0  0  0  0  0  0  0  0  0  0
    2.3930   -0.3030   -3.4440 H   0  0  0  0  0  0  0  0  0  0  0  0
    3.5970    2.1500   -1.2220 H   0  0  0  0  0  0  0  0  0  0  0  0
    1.2630    0.7120   -2.1010 H   0  0  0  0  0  0  0  0  0  0  0  0
    1.8540   -0.1000   -0.6330 H   0  0  0  0  0  0  0  0  0  0  0  0
    1.2690    2.8590   -0.9490 H   0  0  0  0  0  0  0  0  0  0  0  0
    1.9410    2.1740    0.5290 H   0  0  0  0  0  0  0  0  0  0  0  0
   -0.7710    1.5280   -0.7670 H   0  0  0  0  0  0  0  0  0  0  0  0
   -0.6410    2.5970    0.6100 H   0  0  0  0  0  0  0  0  0  0  0  0
   -1.5120    0.6210    1.3460 H   0  0  0  0  0  0  0  0  0  0  0  0
    1.3530    0.3480    2.1830 H   0  0  0  0  0  0  0  0  0  0  0  0
   -3.8480   -1.3080   -1.4040 C   0  0  0  0  0  0  0  0  0  0  0  0
   -3.3240   -2.5320   -2.0570 C   0  0  0  0  0  0  0  0  0  0  0  0
   -2.1430   -3.1730   -1.4250 C   0  0  2  0  0  0  0  0  0  0  0  0
   -2.3450   -3.6170   -0.0160 C   0  0  0  0  0  0  0  0  0  0  0  0
   -0.8490   -2.3780   -1.5380 C   0  0  2  0  0  0  0  0  0  0  0  0
   -0.9580   -1.0760   -0.9120 N   0  0  0  0  0  0  0  0  0  0  0  0
   -0.3980   -2.3200   -2.9360 C   0  0  0  0  0  0  0  0  0  0  0  0
   -0.1720   -1.2230   -3.4710 O   0  0  0  0  0  0  0  0  0  0  0  0
   -0.2270   -3.4820   -3.6460 O   0  0  0  0  0  0  0  0  0  0  0  0
   -3.4700   -1.1870   -0.3620 H   0  0  0  0  0  0  0  0  0  0  0  0
   -4.9610   -1.4360   -1.2620 H   0  0  0  0  0  0  0  0  0  0  0  0
   -3.7700   -0.3820   -2.0140 H   0  0  0  0  0  0  0  0  0  0  0  0
   -3.1160   -2.3370   -3.1440 H   0  0  0  0  0  0  0  0  0  0  0  0
   -4.1360   -3.3040   -2.0830 H   0  0  0  0  0  0  0  0  0  0  0  0
   -1.9620   -4.1240   -2.0170 H   0  0  0  0  0  0  0  0  0  0  0  0
   -2.9060   -4.5890   -0.0040 H   0  0  0  0  0  0  0  0  0  0  0  0
   -2.8970   -2.9030    0.6150 H   0  0  0  0  0  0  0  0  0  0  0  0
   -1.3370   -3.8630    0.4140 H   0  0  0  0  0  0  0  0  0  0  0  0
   -0.0990   -3.0200   -0.9820 H   0  0  0  0  0  0  0  0  0  0  0  0
   -1.4870   -0.2910   -1.3430 H   0  0  0  0  0  0  0  0  0  0  0  0
  1  9  1  0  0  0  0
  2  1  1  0  0  0  0
  2  3  2  0  0  0  0
  4  2  1  0  0  0  0
  4 11  1  0  0  0  0
  5 13  1  6  0  0  0
  5  4  1  0  0  0  0
  5  6  1  0  0  0  0
  6 15  1  0  0  0  0
  6 14  1  0  0  0  0
  7  8  2  0  0  0  0
  7  5  1  0  0  0  0
 10  1  1  0  0  0  0
 12  4  1  0  0  0  0
 16 28  1  0  0  0  0
 17 16  1  0  0  0  0
 17 19  1  0  0  0  0
 18 17  2  0  0  0  0
 19 30  1  0  0  0  0
 19 20  1  0  0  0  0
 20 32  1  0  0  0  0
 20 21  1  0  0  0  0
 21 22  1  0  0  0  0
 21 34  1  0  0  0  0
 22 36  1  0  0  0  0
 22 23  1  0  0  0  0
 23 37  1  1  0  0  0
 23 24  1  0  0  0  0
 24  7  1  0  0  0  0
 25 26  2  0  0  0  0
 25 23  1  0  0  0  0
 27 16  1  0  0  0  0
 29 18  1  0  0  0  0
 31 20  1  0  0  0  0
 33 21  1  0  0  0  0
 35 22  1  0  0  0  0
 38 24  1  0  0  0  0
 39 49  1  0  0  0  0
 39 48  1  0  0  0  0
 40 41  1  0  0  0  0
 40 39  1  0  0  0  0
 41 53  1  6  0  0  0
 41 42  1  0  0  0  0
 42 54  1  0  0  0  0
 42 56  1  0  0  0  0
 42 55  1  0  0  0  0
 43 41  1  0  0  0  0
 43 57  1  1  0  0  0
 43 44  1  0  0  0  0
 44 25  1  0  0  0  0
 45 43  1  0  0  0  0
 46 45  1  0  0  0  0
 47 45  2  0  0  0  0
 50 39  1  0  0  0  0
 51 40  1  0  0  0  0
 52 40  1  0  0  0  0
 58 44  1  0  0  0  0
M  END
$$$$
