NRM.pdb
 OpenBabel07022418083D

 56 55  0  0  1  0  0  0  0  0999 V2000
   -1.7880   -0.5520    5.2270 N   0  0  0  0  0  0  0  0  0  0  0  0
   -0.6560    0.2820    5.3790 C   0  0  0  0  0  0  0  0  0  0  0  0
   -0.8220    1.3930    5.9410 O   0  0  0  0  0  0  0  0  0  0  0  0
    0.6620   -0.1520    4.8950 C   0  0  0  0  0  0  0  0  0  0  0  0
    0.6290   -1.2590    3.8940 C   0  0  2  0  0  0  0  0  0  0  0  0
    2.0050   -1.6370    3.5020 N   0  0  0  0  0  0  0  0  0  0  0  0
   -0.1220   -0.8920    2.6360 C   0  0  0  0  0  0  0  0  0  0  0  0
   -1.3230   -0.5360    2.6810 O   0  0  0  0  0  0  0  0  0  0  0  0
   -2.7070   -0.1160    5.0390 H   0  0  0  0  0  0  0  0  0  0  0  0
   -1.6950   -1.6070    5.3050 H   0  0  0  0  0  0  0  0  0  0  0  0
    1.2010    0.7030    4.3990 H   0  0  0  0  0  0  0  0  0  0  0  0
    1.3260   -0.4910    5.7250 H   0  0  0  0  0  0  0  0  0  0  0  0
    0.1840   -2.1520    4.3410 H   0  0  0  0  0  0  0  0  0  0  0  0
    2.5380   -0.8580    3.1110 H   0  0  0  0  0  0  0  0  0  0  0  0
    1.9770   -2.5020    2.9250 H   0  0  0  0  0  0  0  0  0  0  0  0
    4.8070    0.9670   -1.2370 N   0  0  0  0  0  0  0  0  0  0  0  0
    3.8980    1.7310   -0.4900 C   0  0  0  0  0  0  0  0  0  0  0  0
    3.8270    3.0120   -0.6920 N   0  0  0  0  0  0  0  0  0  0  0  0
    3.0490    1.1530    0.4830 N   0  0  0  0  0  0  0  0  0  0  0  0
    1.7870    1.7570    0.8700 C   0  0  0  0  0  0  0  0  0  0  0  0
    0.7960    1.7030   -0.2460 C   0  0  0  0  0  0  0  0  0  0  0  0
    0.4470    0.3600   -0.7400 C   0  0  0  0  0  0  0  0  0  0  0  0
   -0.1850   -0.5980    0.1950 C   0  0  2  0  0  0  0  0  0  0  0  0
    0.5570   -0.9530    1.3670 N   0  0  0  0  0  0  0  0  0  0  0  0
   -0.4790   -1.9110   -0.5100 C   0  0  0  0  0  0  0  0  0  0  0  0
   -0.0860   -3.0020   -0.0330 O   0  0  0  0  0  0  0  0  0  0  0  0
    5.0520    1.2470   -2.2130 H   0  0  0  0  0  0  0  0  0  0  0  0
    5.2520    0.1200   -0.8480 H   0  0  0  0  0  0  0  0  0  0  0  0
    4.4360    3.4860   -1.4030 H   0  0  0  0  0  0  0  0  0  0  0  0
    3.3440    0.2640    0.9340 H   0  0  0  0  0  0  0  0  0  0  0  0
    1.3900    1.3600    1.8110 H   0  0  0  0  0  0  0  0  0  0  0  0
    2.0660    2.8340    1.1080 H   0  0  0  0  0  0  0  0  0  0  0  0
    1.2520    2.2970   -1.0940 H   0  0  0  0  0  0  0  0  0  0  0  0
   -0.1380    2.2650   -0.0190 H   0  0  0  0  0  0  0  0  0  0  0  0
    1.3130   -0.1720   -1.2340 H   0  0  0  0  0  0  0  0  0  0  0  0
   -0.2650    0.5060   -1.6100 H   0  0  0  0  0  0  0  0  0  0  0  0
   -1.1610   -0.1510    0.5300 H   0  0  0  0  0  0  0  0  0  0  0  0
    1.5440   -1.2520    1.3850 H   0  0  0  0  0  0  0  0  0  0  0  0
   -4.2530   -0.4760   -1.0050 C   0  0  0  0  0  0  0  0  0  0  0  0
   -3.4340   -1.9130   -0.2480 S   0  0  0  0  0  0  0  0  0  0  0  0
   -3.6550   -3.3860   -1.2400 C   0  0  0  0  0  0  0  0  0  0  0  0
   -2.9850   -3.3560   -2.5740 C   0  0  0  0  0  0  0  0  0  0  0  0
   -1.4970   -3.1900   -2.4240 C   0  0  2  0  0  0  0  0  0  0  0  0
   -1.2130   -1.9460   -1.7380 N   0  0  0  0  0  0  0  0  0  0  0  0
   -0.8370   -3.2310   -3.7600 C   0  0  0  0  0  0  0  0  0  0  0  0
   -0.1290   -2.2960   -4.2120 O   0  0  0  0  0  0  0  0  0  0  0  0
   -1.0010   -4.3520   -4.5600 O   0  0  0  0  0  0  0  0  0  0  0  0
   -3.4920    0.3080   -1.2380 H   0  0  0  0  0  0  0  0  0  0  0  0
   -4.7960   -0.8310   -1.8910 H   0  0  0  0  0  0  0  0  0  0  0  0
   -4.9590   -0.0370   -0.2970 H   0  0  0  0  0  0  0  0  0  0  0  0
   -3.3360   -4.2710   -0.6370 H   0  0  0  0  0  0  0  0  0  0  0  0
   -4.7700   -3.5340   -1.3530 H   0  0  0  0  0  0  0  0  0  0  0  0
   -3.1770   -4.3360   -3.0640 H   0  0  0  0  0  0  0  0  0  0  0  0
   -3.3950   -2.5550   -3.2400 H   0  0  0  0  0  0  0  0  0  0  0  0
   -1.1210   -4.0670   -1.8400 H   0  0  0  0  0  0  0  0  0  0  0  0
   -1.5250   -1.0190   -2.1010 H   0  0  0  0  0  0  0  0  0  0  0  0
  1 10  1  0  0  0  0
  1  2  1  0  0  0  0
  2  3  2  0  0  0  0
  4  2  1  0  0  0  0
  4 12  1  0  0  0  0
  5 13  1  1  0  0  0
  5  4  1  0  0  0  0
  6  5  1  0  0  0  0
  7  8  2  0  0  0  0
  7  5  1  0  0  0  0
  9  1  1  0  0  0  0
 11  4  1  0  0  0  0
 14  6  1  0  0  0  0
 15  6  1  0  0  0  0
 16 28  1  0  0  0  0
 16 17  1  0  0  0  0
 17 19  1  0  0  0  0
 18 17  2  0  0  0  0
 19 20  1  0  0  0  0
 19 30  1  0  0  0  0
 20 32  1  0  0  0  0
 20 31  1  0  0  0  0
 21 34  1  0  0  0  0
 21 20  1  0  0  0  0
 22 21  1  0  0  0  0
 22 23  1  0  0  0  0
 23 37  1  1  0  0  0
 23 24  1  0  0  0  0
 24 38  1  0  0  0  0
 24  7  1  0  0  0  0
 25 26  2  0  0  0  0
 25 23  1  0  0  0  0
 27 16  1  0  0  0  0
 29 18  1  0  0  0  0
 33 21  1  0  0  0  0
 35 22  1  0  0  0  0
 36 22  1  0  0  0  0
 39 50  1  0  0  0  0
 39 40  1  0  0  0  0
 41 51  1  0  0  0  0
 41 40  1  0  0  0  0
 42 43  1  0  0  0  0
 42 41  1  0  0  0  0
 43 55  1  1  0  0  0
 43 44  1  0  0  0  0
 44 25  1  0  0  0  0
 45 43  1  0  0  0  0
 46 45  1  0  0  0  0
 47 45  2  0  0  0  0
 48 39  1  0  0  0  0
 49 39  1  0  0  0  0
 52 41  1  0  0  0  0
 53 42  1  0  0  0  0
 54 42  1  0  0  0  0
 56 44  1  0  0  0  0
M  END
$$$$
