NRN.pdb
 OpenBabel07022418083D

 53 52  0  0  1  0  0  0  0  0999 V2000
   -0.3350   -3.1560    6.3610 N   0  0  0  0  0  0  0  0  0  0  0  0
    0.6750   -2.4420    5.6340 C   0  0  0  0  0  0  0  0  0  0  0  0
    1.8790   -2.6370    5.9650 O   0  0  0  0  0  0  0  0  0  0  0  0
    0.3080   -1.5230    4.5490 C   0  0  0  0  0  0  0  0  0  0  0  0
    1.0620   -1.9530    3.3010 C   0  0  2  0  0  0  0  0  0  0  0  0
    2.4730   -1.8750    3.6380 N   0  0  0  0  0  0  0  0  0  0  0  0
    0.7920   -1.0100    2.1730 C   0  0  0  0  0  0  0  0  0  0  0  0
    1.7300   -0.3290    1.7460 O   0  0  0  0  0  0  0  0  0  0  0  0
   -0.9800   -2.6250    6.9660 H   0  0  0  0  0  0  0  0  0  0  0  0
   -0.4200   -4.1920    6.2830 H   0  0  0  0  0  0  0  0  0  0  0  0
   -0.7690   -1.5600    4.3320 H   0  0  0  0  0  0  0  0  0  0  0  0
    0.6080   -0.4870    4.8510 H   0  0  0  0  0  0  0  0  0  0  0  0
    0.8360   -3.0000    3.0210 H   0  0  0  0  0  0  0  0  0  0  0  0
    2.9810   -1.2850    2.9420 H   0  0  0  0  0  0  0  0  0  0  0  0
    2.9200   -2.8180    3.6600 H   0  0  0  0  0  0  0  0  0  0  0  0
    3.7520    0.8280   -1.0300 N   0  0  0  0  0  0  0  0  0  0  0  0
    2.8160    1.8870   -1.0380 C   0  0  0  0  0  0  0  0  0  0  0  0
    2.1330    2.1680   -2.1200 N   0  0  0  0  0  0  0  0  0  0  0  0
    2.5500    2.7050    0.0740 N   0  0  0  0  0  0  0  0  0  0  0  0
    1.2810    3.1680    0.4970 C   0  0  0  0  0  0  0  0  0  0  0  0
    0.3440    2.1420    1.0840 C   0  0  0  0  0  0  0  0  0  0  0  0
    0.0470    1.0890    0.1030 C   0  0  0  0  0  0  0  0  0  0  0  0
   -0.8710   -0.0180    0.5520 C   0  0  2  0  0  0  0  0  0  0  0  0
   -0.4770   -0.8650    1.5820 N   0  0  0  0  0  0  0  0  0  0  0  0
   -1.3990   -0.7060   -0.6450 C   0  0  0  0  0  0  0  0  0  0  0  0
   -1.7490    0.0330   -1.6060 O   0  0  0  0  0  0  0  0  0  0  0  0
    4.3210    0.6080   -1.8820 H   0  0  0  0  0  0  0  0  0  0  0  0
    3.9260    0.2250   -0.2000 H   0  0  0  0  0  0  0  0  0  0  0  0
    2.3050    1.5870   -2.9660 H   0  0  0  0  0  0  0  0  0  0  0  0
    3.4090    2.9880    0.6470 H   0  0  0  0  0  0  0  0  0  0  0  0
    0.7860    3.6890   -0.3710 H   0  0  0  0  0  0  0  0  0  0  0  0
    1.4170    3.9520    1.3020 H   0  0  0  0  0  0  0  0  0  0  0  0
    0.5560    1.8880    2.1170 H   0  0  0  0  0  0  0  0  0  0  0  0
   -0.6540    2.7480    1.1660 H   0  0  0  0  0  0  0  0  0  0  0  0
    0.9600    0.5420   -0.2670 H   0  0  0  0  0  0  0  0  0  0  0  0
   -0.4060    1.5380   -0.7990 H   0  0  0  0  0  0  0  0  0  0  0  0
   -1.7750    0.5970    0.9750 H   0  0  0  0  0  0  0  0  0  0  0  0
   -1.2290   -1.5050    2.0000 H   0  0  0  0  0  0  0  0  0  0  0  0
   -4.4660   -0.3050   -3.2270 N   0  0  0  0  0  0  0  0  0  0  0  0
   -3.8050   -1.2830   -2.4530 C   0  0  0  0  0  0  0  0  0  0  0  0
   -4.2690   -1.5110   -1.2980 O   0  0  0  0  0  0  0  0  0  0  0  0
   -2.6230   -2.0320   -2.9290 C   0  0  0  0  0  0  0  0  0  0  0  0
   -2.0230   -2.8760   -1.8080 C   0  0  2  0  0  0  0  0  0  0  0  0
   -1.5120   -2.1060   -0.7280 N   0  0  0  0  0  0  0  0  0  0  0  0
   -1.0450   -3.8150   -2.3630 C   0  0  0  0  0  0  0  0  0  0  0  0
    0.1050   -3.8550   -1.8510 O   0  0  0  0  0  0  0  0  0  0  0  0
   -1.3020   -4.6710   -3.4230 O   0  0  0  0  0  0  0  0  0  0  0  0
   -3.9240    0.5280   -3.5120 H   0  0  0  0  0  0  0  0  0  0  0  0
   -5.4620   -0.4640   -3.4740 H   0  0  0  0  0  0  0  0  0  0  0  0
   -3.0090   -2.7840   -3.6810 H   0  0  0  0  0  0  0  0  0  0  0  0
   -1.8810   -1.3940   -3.4080 H   0  0  0  0  0  0  0  0  0  0  0  0
   -2.9740   -3.4140   -1.4140 H   0  0  0  0  0  0  0  0  0  0  0  0
   -1.1710   -2.6800    0.1310 H   0  0  0  0  0  0  0  0  0  0  0  0
  1  9  1  0  0  0  0
  2  3  2  0  0  0  0
  2  1  1  0  0  0  0
  4 12  1  0  0  0  0
  4  2  1  0  0  0  0
  5 13  1  6  0  0  0
  5  6  1  0  0  0  0
  5  4  1  0  0  0  0
  6 15  1  0  0  0  0
  7  5  1  0  0  0  0
  8  7  2  0  0  0  0
 10  1  1  0  0  0  0
 11  4  1  0  0  0  0
 14  6  1  0  0  0  0
 16 28  1  0  0  0  0
 17 16  1  0  0  0  0
 17 19  1  0  0  0  0
 18 17  2  0  0  0  0
 19 20  1  0  0  0  0
 19 30  1  0  0  0  0
 20 21  1  0  0  0  0
 20 32  1  0  0  0  0
 21 34  1  0  0  0  0
 21 33  1  0  0  0  0
 22 23  1  0  0  0  0
 22 21  1  0  0  0  0
 23 37  1  1  0  0  0
 23 24  1  0  0  0  0
 24 38  1  0  0  0  0
 24  7  1  0  0  0  0
 25 23  1  0  0  0  0
 26 25  2  0  0  0  0
 27 16  1  0  0  0  0
 29 18  1  0  0  0  0
 31 20  1  0  0  0  0
 35 22  1  0  0  0  0
 36 22  1  0  0  0  0
 39 40  1  0  0  0  0
 40 41  2  0  0  0  0
 42 40  1  0  0  0  0
 42 43  1  0  0  0  0
 43 52  1  1  0  0  0
 43 44  1  0  0  0  0
 44 25  1  0  0  0  0
 44 53  1  0  0  0  0
 45 46  1  0  0  0  0
 45 43  1  0  0  0  0
 47 45  2  0  0  0  0
 48 39  1  0  0  0  0
 49 39  1  0  0  0  0
 50 42  1  0  0  0  0
 51 42  1  0  0  0  0
M  END
$$$$
