NRS.pdb
 OpenBabel07022418083D

 50 49  0  0  1  0  0  0  0  0999 V2000
    3.6220   -3.7280    4.8410 N   0  0  0  0  0  0  0  0  0  0  0  0
    2.4350   -3.7520    4.0830 C   0  0  0  0  0  0  0  0  0  0  0  0
    1.9570   -4.8340    3.6900 O   0  0  0  0  0  0  0  0  0  0  0  0
    1.7550   -2.4860    3.7540 C   0  0  0  0  0  0  0  0  0  0  0  0
    0.4760   -2.7570    2.9510 C   0  0  2  0  0  0  0  0  0  0  0  0
    0.8830   -3.4360    1.7510 N   0  0  0  0  0  0  0  0  0  0  0  0
   -0.1020   -1.4170    2.6770 C   0  0  0  0  0  0  0  0  0  0  0  0
   -0.5590   -0.7080    3.6270 O   0  0  0  0  0  0  0  0  0  0  0  0
    4.3510   -4.4450    4.6750 H   0  0  0  0  0  0  0  0  0  0  0  0
    3.7540   -2.9940    5.5550 H   0  0  0  0  0  0  0  0  0  0  0  0
    2.4810   -1.9060    3.1140 H   0  0  0  0  0  0  0  0  0  0  0  0
    1.5700   -1.8340    4.6240 H   0  0  0  0  0  0  0  0  0  0  0  0
   -0.2050   -3.4210    3.5150 H   0  0  0  0  0  0  0  0  0  0  0  0
    0.1090   -3.4610    1.0290 H   0  0  0  0  0  0  0  0  0  0  0  0
    1.7240   -2.9880    1.3140 H   0  0  0  0  0  0  0  0  0  0  0  0
    2.7130    1.2290   -2.4730 N   0  0  0  0  0  0  0  0  0  0  0  0
    2.4760    2.2410   -1.5070 C   0  0  0  0  0  0  0  0  0  0  0  0
    1.7010    3.2520   -1.7530 N   0  0  0  0  0  0  0  0  0  0  0  0
    3.0900    2.1830   -0.2360 N   0  0  0  0  0  0  0  0  0  0  0  0
    2.4420    2.5560    0.9930 C   0  0  0  0  0  0  0  0  0  0  0  0
    1.3640    1.5970    1.4210 C   0  0  0  0  0  0  0  0  0  0  0  0
    0.2440    1.4060    0.4650 C   0  0  0  0  0  0  0  0  0  0  0  0
   -0.7350    0.4410    1.0920 C   0  0  2  0  0  0  0  0  0  0  0  0
   -0.1920   -0.8350    1.3910 N   0  0  0  0  0  0  0  0  0  0  0  0
   -1.8800    0.2780    0.1630 C   0  0  0  0  0  0  0  0  0  0  0  0
   -2.4890    1.3040   -0.2230 O   0  0  0  0  0  0  0  0  0  0  0  0
    2.9380    1.5290   -3.4500 H   0  0  0  0  0  0  0  0  0  0  0  0
    2.6760    0.2230   -2.2660 H   0  0  0  0  0  0  0  0  0  0  0  0
    1.5250    3.9870   -1.0590 H   0  0  0  0  0  0  0  0  0  0  0  0
    4.0970    1.8390   -0.1660 H   0  0  0  0  0  0  0  0  0  0  0  0
    3.2090    2.6890    1.7980 H   0  0  0  0  0  0  0  0  0  0  0  0
    1.9880    3.5910    0.8860 H   0  0  0  0  0  0  0  0  0  0  0  0
    1.8790    0.6500    1.7010 H   0  0  0  0  0  0  0  0  0  0  0  0
    0.9790    2.0060    2.4020 H   0  0  0  0  0  0  0  0  0  0  0  0
    0.5640    1.0680   -0.5410 H   0  0  0  0  0  0  0  0  0  0  0  0
   -0.2790    2.3690    0.3300 H   0  0  0  0  0  0  0  0  0  0  0  0
   -1.0950    0.9000    2.0330 H   0  0  0  0  0  0  0  0  0  0  0  0
    0.1780   -1.4060    0.5880 H   0  0  0  0  0  0  0  0  0  0  0  0
   -4.1970   -1.8420   -3.3400 O   0  0  0  0  0  0  0  0  0  0  0  0
   -3.0650   -1.7580   -2.5380 C   0  0  0  0  0  0  0  0  0  0  0  0
   -3.4620   -1.1010   -1.2330 C   0  0  2  0  0  0  0  0  0  0  0  0
   -2.3470   -0.9680   -0.3300 N   0  0  0  0  0  0  0  0  0  0  0  0
   -4.5330   -1.9200   -0.6000 C   0  0  0  0  0  0  0  0  0  0  0  0
   -4.3670   -2.3710    0.5630 O   0  0  0  0  0  0  0  0  0  0  0  0
   -5.7310   -2.2220   -1.2300 O   0  0  0  0  0  0  0  0  0  0  0  0
   -4.6700   -0.9560   -3.3260 H   0  0  0  0  0  0  0  0  0  0  0  0
   -2.7060   -2.7960   -2.3850 H   0  0  0  0  0  0  0  0  0  0  0  0
   -2.3420   -1.1030   -3.0350 H   0  0  0  0  0  0  0  0  0  0  0  0
   -3.9140   -0.1210   -1.4960 H   0  0  0  0  0  0  0  0  0  0  0  0
   -1.8410   -1.8200   -0.0080 H   0  0  0  0  0  0  0  0  0  0  0  0
  1 10  1  0  0  0  0
  2  1  1  0  0  0  0
  3  2  2  0  0  0  0
  4  2  1  0  0  0  0
  4 12  1  0  0  0  0
  5 13  1  1  0  0  0
  5  4  1  0  0  0  0
  6  5  1  0  0  0  0
  7  5  1  0  0  0  0
  7  8  2  0  0  0  0
  9  1  1  0  0  0  0
 11  4  1  0  0  0  0
 14  6  1  0  0  0  0
 15  6  1  0  0  0  0
 16 28  1  0  0  0  0
 16 17  1  0  0  0  0
 17 19  1  0  0  0  0
 18 17  2  0  0  0  0
 18 29  1  0  0  0  0
 19 30  1  0  0  0  0
 19 20  1  0  0  0  0
 20 21  1  0  0  0  0
 20 31  1  0  0  0  0
 21 33  1  0  0  0  0
 21 34  1  0  0  0  0
 22 23  1  0  0  0  0
 22 21  1  0  0  0  0
 23 24  1  0  0  0  0
 23 37  1  1  0  0  0
 24  7  1  0  0  0  0
 25 23  1  0  0  0  0
 26 25  2  0  0  0  0
 27 16  1  0  0  0  0
 32 20  1  0  0  0  0
 35 22  1  0  0  0  0
 36 22  1  0  0  0  0
 38 24  1  0  0  0  0
 39 46  1  0  0  0  0
 39 40  1  0  0  0  0
 40 47  1  0  0  0  0
 40 41  1  0  0  0  0
 41 49  1  6  0  0  0
 41 43  1  0  0  0  0
 41 42  1  0  0  0  0
 42 50  1  0  0  0  0
 42 25  1  0  0  0  0
 43 44  1  0  0  0  0
 45 43  2  0  0  0  0
 48 40  1  0  0  0  0
M  END
$$$$
