NRT.pdb
 OpenBabel07022418083D

 53 52  0  0  1  0  0  0  0  0999 V2000
    2.2820   -2.8550    6.5780 N   0  0  0  0  0  0  0  0  0  0  0  0
    1.7760   -3.1740    5.2810 C   0  0  0  0  0  0  0  0  0  0  0  0
    0.6710   -3.7670    5.2150 O   0  0  0  0  0  0  0  0  0  0  0  0
    2.5940   -2.7810    4.1090 C   0  0  0  0  0  0  0  0  0  0  0  0
    1.9640   -3.1200    2.7850 C   0  0  2  0  0  0  0  0  0  0  0  0
    2.9250   -2.6700    1.7620 N   0  0  0  0  0  0  0  0  0  0  0  0
    0.6970   -2.3900    2.5210 C   0  0  0  0  0  0  0  0  0  0  0  0
   -0.3530   -2.5260    3.1890 O   0  0  0  0  0  0  0  0  0  0  0  0
    3.2900   -2.9790    6.7640 H   0  0  0  0  0  0  0  0  0  0  0  0
    1.6120   -2.5100    7.2840 H   0  0  0  0  0  0  0  0  0  0  0  0
    2.9010   -1.7170    4.1830 H   0  0  0  0  0  0  0  0  0  0  0  0
    3.5210   -3.4250    4.1660 H   0  0  0  0  0  0  0  0  0  0  0  0
    1.7880   -4.1930    2.7510 H   0  0  0  0  0  0  0  0  0  0  0  0
    3.5960   -3.4420    1.5180 H   0  0  0  0  0  0  0  0  0  0  0  0
    3.4110   -1.8030    2.0770 H   0  0  0  0  0  0  0  0  0  0  0  0
    3.9020    2.6500   -1.4750 N   0  0  0  0  0  0  0  0  0  0  0  0
    2.7880    1.7710   -1.3820 C   0  0  0  0  0  0  0  0  0  0  0  0
    2.9920    0.5210   -1.1430 N   0  0  0  0  0  0  0  0  0  0  0  0
    1.4470    2.2030   -1.5400 N   0  0  0  0  0  0  0  0  0  0  0  0
    0.3580    1.4010   -0.9870 C   0  0  0  0  0  0  0  0  0  0  0  0
    0.4960    1.5040    0.5140 C   0  0  0  0  0  0  0  0  0  0  0  0
   -0.5130    0.7630    1.2970 C   0  0  0  0  0  0  0  0  0  0  0  0
   -0.5990   -0.7040    1.1290 C   0  0  2  0  0  0  0  0  0  0  0  0
    0.5790   -1.4430    1.4450 N   0  0  0  0  0  0  0  0  0  0  0  0
   -1.1310   -1.1880   -0.1580 C   0  0  0  0  0  0  0  0  0  0  0  0
   -0.5310   -2.1080   -0.7580 O   0  0  0  0  0  0  0  0  0  0  0  0
    4.1550    3.2490   -0.6580 H   0  0  0  0  0  0  0  0  0  0  0  0
    4.4990    2.7400   -2.3240 H   0  0  0  0  0  0  0  0  0  0  0  0
    3.9570    0.1490   -1.0180 H   0  0  0  0  0  0  0  0  0  0  0  0
    1.2630    3.0900   -2.0510 H   0  0  0  0  0  0  0  0  0  0  0  0
   -0.6110    1.8960   -1.2970 H   0  0  0  0  0  0  0  0  0  0  0  0
    0.3970    0.3780   -1.3760 H   0  0  0  0  0  0  0  0  0  0  0  0
    1.5490    1.2520    0.7450 H   0  0  0  0  0  0  0  0  0  0  0  0
    0.3430    2.6000    0.7480 H   0  0  0  0  0  0  0  0  0  0  0  0
   -0.4710    0.9830    2.3900 H   0  0  0  0  0  0  0  0  0  0  0  0
   -1.5230    1.1770    0.9900 H   0  0  0  0  0  0  0  0  0  0  0  0
   -1.3540   -1.0340    1.9240 H   0  0  0  0  0  0  0  0  0  0  0  0
    1.4240   -1.2820    0.8480 H   0  0  0  0  0  0  0  0  0  0  0  0
   -5.0310   -0.9590   -0.9740 C   0  0  0  0  0  0  0  0  0  0  0  0
   -4.0980   -1.9230   -1.6990 C   0  0  1  0  0  0  0  0  0  0  0  0
   -4.6930   -2.4710   -2.8100 O   0  0  0  0  0  0  0  0  0  0  0  0
   -2.7950   -1.1870   -2.0500 C   0  0  2  0  0  0  0  0  0  0  0  0
   -2.3020   -0.6780   -0.7820 N   0  0  0  0  0  0  0  0  0  0  0  0
   -3.0550   -0.1450   -3.0430 C   0  0  0  0  0  0  0  0  0  0  0  0
   -3.4750   -0.4240   -4.1900 O   0  0  0  0  0  0  0  0  0  0  0  0
   -2.8370    1.1780   -2.7210 O   0  0  0  0  0  0  0  0  0  0  0  0
   -4.6370   -0.7310    0.0360 H   0  0  0  0  0  0  0  0  0  0  0  0
   -6.0090   -1.5060   -0.8550 H   0  0  0  0  0  0  0  0  0  0  0  0
   -5.1580   -0.0260   -1.5320 H   0  0  0  0  0  0  0  0  0  0  0  0
   -3.8080   -2.7420   -1.0110 H   0  0  0  0  0  0  0  0  0  0  0  0
   -4.1310   -3.2050   -3.1380 H   0  0  0  0  0  0  0  0  0  0  0  0
   -2.0690   -1.9690   -2.3890 H   0  0  0  0  0  0  0  0  0  0  0  0
   -2.7990    0.0950   -0.2740 H   0  0  0  0  0  0  0  0  0  0  0  0
  1  9  1  0  0  0  0
  1 10  1  0  0  0  0
  2  1  1  0  0  0  0
  3  2  2  0  0  0  0
  4 12  1  0  0  0  0
  4 11  1  0  0  0  0
  4  2  1  0  0  0  0
  5 13  1  6  0  0  0
  5  4  1  0  0  0  0
  6 15  1  0  0  0  0
  6  5  1  0  0  0  0
  7  5  1  0  0  0  0
  7  8  2  0  0  0  0
 14  6  1  0  0  0  0
 16 17  1  0  0  0  0
 16 27  1  0  0  0  0
 17 18  2  0  0  0  0
 18 29  1  0  0  0  0
 19 17  1  0  0  0  0
 19 20  1  0  0  0  0
 20 21  1  0  0  0  0
 21 33  1  0  0  0  0
 21 34  1  0  0  0  0
 21 22  1  0  0  0  0
 22 35  1  0  0  0  0
 23 22  1  0  0  0  0
 23 24  1  0  0  0  0
 23 37  1  1  0  0  0
 24  7  1  0  0  0  0
 25 23  1  0  0  0  0
 26 25  2  0  0  0  0
 28 16  1  0  0  0  0
 30 19  1  0  0  0  0
 31 20  1  0  0  0  0
 32 20  1  0  0  0  0
 36 22  1  0  0  0  0
 38 24  1  0  0  0  0
 39 48  1  0  0  0  0
 39 47  1  0  0  0  0
 40 50  1  1  0  0  0
 40 39  1  0  0  0  0
 41 40  1  0  0  0  0
 42 52  1  6  0  0  0
 42 40  1  0  0  0  0
 42 43  1  0  0  0  0
 43 53  1  0  0  0  0
 43 25  1  0  0  0  0
 44 46  1  0  0  0  0
 44 42  1  0  0  0  0
 45 44  2  0  0  0  0
 49 39  1  0  0  0  0
 51 41  1  0  0  0  0
M  END
$$$$
