NRW.pdb
 OpenBabel07022418083D

 63 64  0  0  1  0  0  0  0  0999 V2000
    2.8070    0.8640    4.6190 N   0  0  0  0  0  0  0  0  0  0  0  0
    2.5070   -0.4940    4.3280 C   0  0  0  0  0  0  0  0  0  0  0  0
    3.2750   -1.1780    3.5990 O   0  0  0  0  0  0  0  0  0  0  0  0
    1.2820   -1.1830    4.8560 C   0  0  0  0  0  0  0  0  0  0  0  0
    0.5000   -1.8090    3.6940 C   0  0  2  0  0  0  0  0  0  0  0  0
    1.2900   -2.7720    2.9810 N   0  0  0  0  0  0  0  0  0  0  0  0
   -0.0890   -0.7430    2.8720 C   0  0  0  0  0  0  0  0  0  0  0  0
   -0.8940    0.0610    3.4690 O   0  0  0  0  0  0  0  0  0  0  0  0
    3.6010    1.1620    5.2390 H   0  0  0  0  0  0  0  0  0  0  0  0
    2.1880    1.5940    4.1790 H   0  0  0  0  0  0  0  0  0  0  0  0
    0.6900   -0.4640    5.4190 H   0  0  0  0  0  0  0  0  0  0  0  0
    1.6360   -1.9770    5.5530 H   0  0  0  0  0  0  0  0  0  0  0  0
   -0.3350   -2.3740    4.2030 H   0  0  0  0  0  0  0  0  0  0  0  0
    1.8260   -2.3250    2.2370 H   0  0  0  0  0  0  0  0  0  0  0  0
    1.8760   -3.3390    3.6110 H   0  0  0  0  0  0  0  0  0  0  0  0
    3.3030    3.6170   -2.9460 N   0  0  0  0  0  0  0  0  0  0  0  0
    2.0610    3.5690   -2.2260 C   0  0  0  0  0  0  0  0  0  0  0  0
    0.9600    3.3590   -2.8500 N   0  0  0  0  0  0  0  0  0  0  0  0
    2.1120    3.7680   -0.8200 N   0  0  0  0  0  0  0  0  0  0  0  0
    0.9550    4.0740   -0.0570 C   0  0  0  0  0  0  0  0  0  0  0  0
   -0.0540    2.9350    0.0500 C   0  0  0  0  0  0  0  0  0  0  0  0
    0.5110    1.7370    0.6880 C   0  0  0  0  0  0  0  0  0  0  0  0
   -0.5290    0.6150    0.8420 C   0  0  2  0  0  0  0  0  0  0  0  0
    0.1410   -0.5110    1.4930 N   0  0  0  0  0  0  0  0  0  0  0  0
   -1.1670    0.2450   -0.4450 C   0  0  0  0  0  0  0  0  0  0  0  0
   -1.9110    1.0840   -1.0110 O   0  0  0  0  0  0  0  0  0  0  0  0
    3.4830    4.2970   -3.7090 H   0  0  0  0  0  0  0  0  0  0  0  0
    4.0820    2.9510   -2.7150 H   0  0  0  0  0  0  0  0  0  0  0  0
    0.9870    3.2260   -3.8720 H   0  0  0  0  0  0  0  0  0  0  0  0
    3.0310    3.6820   -0.3540 H   0  0  0  0  0  0  0  0  0  0  0  0
    0.3960    4.9100   -0.5540 H   0  0  0  0  0  0  0  0  0  0  0  0
    1.1930    4.4000    0.9570 H   0  0  0  0  0  0  0  0  0  0  0  0
   -0.4100    2.6690   -0.9840 H   0  0  0  0  0  0  0  0  0  0  0  0
   -0.9270    3.3510    0.5780 H   0  0  0  0  0  0  0  0  0  0  0  0
    1.3230    1.2560    0.0700 H   0  0  0  0  0  0  0  0  0  0  0  0
    0.9360    1.8840    1.6890 H   0  0  0  0  0  0  0  0  0  0  0  0
   -1.2580    1.0250    1.5630 H   0  0  0  0  0  0  0  0  0  0  0  0
    0.7870   -1.1520    0.9960 H   0  0  0  0  0  0  0  0  0  0  0  0
   -0.9820   -1.0080   -1.0790 N   0  0  0  0  0  0  0  0  0  0  0  0
   -1.5280   -1.4430   -2.3280 C   0  0  1  0  0  0  0  0  0  0  0  0
   -2.6710   -2.4060   -2.2100 C   0  0  0  0  0  0  0  0  0  0  0  0
   -2.3540   -3.6590   -1.5260 C   0  0  0  0  0  0  0  0  0  0  0  0
   -2.0840   -4.8700   -2.1450 C   0  0  0  0  0  0  0  0  0  0  0  0
   -1.8310   -5.7900   -1.2100 N   0  0  0  0  0  0  0  0  0  0  0  0
   -1.9340   -5.1910   -0.0130 C   0  0  0  0  0  0  0  0  0  0  0  0
   -1.7680   -5.7330    1.2620 C   0  0  0  0  0  0  0  0  0  0  0  0
   -1.9270   -4.9440    2.3800 C   0  0  0  0  0  0  0  0  0  0  0  0
   -2.2520   -3.6190    2.2130 C   0  0  0  0  0  0  0  0  0  0  0  0
   -2.4120   -3.0990    0.9530 C   0  0  0  0  0  0  0  0  0  0  0  0
   -2.2550   -3.8780   -0.1670 C   0  0  0  0  0  0  0  0  0  0  0  0
   -1.7830   -0.4100   -3.3500 C   0  0  0  0  0  0  0  0  0  0  0  0
   -2.4150   -0.8000   -4.4010 O   0  0  0  0  0  0  0  0  0  0  0  0
   -1.4330    0.9020   -3.3320 O   0  0  0  0  0  0  0  0  0  0  0  0
   -0.3600   -1.6880   -0.5340 H   0  0  0  0  0  0  0  0  0  0  0  0
   -0.6520   -2.0350   -2.8230 H   0  0  0  0  0  0  0  0  0  0  0  0
   -3.4840   -1.8660   -1.6760 H   0  0  0  0  0  0  0  0  0  0  0  0
   -3.0380   -2.6260   -3.2400 H   0  0  0  0  0  0  0  0  0  0  0  0
   -2.0880   -4.9990   -3.2120 H   0  0  0  0  0  0  0  0  0  0  0  0
   -1.5980   -6.7870   -1.4170 H   0  0  0  0  0  0  0  0  0  0  0  0
   -1.5120   -6.7790    1.4100 H   0  0  0  0  0  0  0  0  0  0  0  0
   -1.7950   -5.3880    3.3730 H   0  0  0  0  0  0  0  0  0  0  0  0
   -2.3690   -3.0330    3.1180 H   0  0  0  0  0  0  0  0  0  0  0  0
   -2.6700   -2.0630    0.8330 H   0  0  0  0  0  0  0  0  0  0  0  0
  1  9  1  0  0  0  0
  2  1  1  0  0  0  0
  2  4  1  0  0  0  0
  3  2  2  0  0  0  0
  4 11  1  0  0  0  0
  4 12  1  0  0  0  0
  5 13  1  1  0  0  0
  5  4  1  0  0  0  0
  6 15  1  0  0  0  0
  6  5  1  0  0  0  0
  7  8  2  0  0  0  0
  7  5  1  0  0  0  0
 10  1  1  0  0  0  0
 14  6  1  0  0  0  0
 16 28  1  0  0  0  0
 16 17  1  0  0  0  0
 17 19  1  0  0  0  0
 18 17  2  0  0  0  0
 19 30  1  0  0  0  0
 19 20  1  0  0  0  0
 20 21  1  0  0  0  0
 20 32  1  0  0  0  0
 21 34  1  0  0  0  0
 21 22  1  0  0  0  0
 22 23  1  0  0  0  0
 22 36  1  0  0  0  0
 23 24  1  0  0  0  0
 23 37  1  1  0  0  0
 24  7  1  0  0  0  0
 25 23  1  0  0  0  0
 26 25  2  0  0  0  0
 27 16  1  0  0  0  0
 29 18  1  0  0  0  0
 31 20  1  0  0  0  0
 33 21  1  0  0  0  0
 35 22  1  0  0  0  0
 38 24  1  0  0  0  0
 39 54  1  0  0  0  0
 39 25  1  0  0  0  0
 40 55  1  6  0  0  0
 40 41  1  0  0  0  0
 40 39  1  0  0  0  0
 41 56  1  0  0  0  0
 41 42  1  0  0  0  0
 42 50  1  0  0  0  0
 43 42  2  0  0  0  0
 43 44  1  0  0  0  0
 44 45  1  0  0  0  0
 45 46  1  0  0  0  0
 46 60  1  0  0  0  0
 46 47  2  0  0  0  0
 47 61  1  0  0  0  0
 48 47  1  0  0  0  0
 48 62  1  0  0  0  0
 49 48  2  0  0  0  0
 50 45  2  0  0  0  0
 50 49  1  0  0  0  0
 51 53  1  0  0  0  0
 51 40  1  0  0  0  0
 52 51  2  0  0  0  0
 57 41  1  0  0  0  0
 58 43  1  0  0  0  0
 59 44  1  0  0  0  0
 63 49  1  0  0  0  0
M  END
$$$$
