NRY.pdb
 OpenBabel07022418083D

 60 60  0  0  1  0  0  0  0  0999 V2000
    4.5660    0.4330    6.4200 N   0  0  0  0  0  0  0  0  0  0  0  0
    3.7420   -0.3140    5.5450 C   0  0  0  0  0  0  0  0  0  0  0  0
    2.4700   -0.2580    5.6320 O   0  0  0  0  0  0  0  0  0  0  0  0
    4.3760   -1.1630    4.5200 C   0  0  0  0  0  0  0  0  0  0  0  0
    3.8590   -0.9280    3.1440 C   0  0  2  0  0  0  0  0  0  0  0  0
    4.1090    0.4780    2.8030 N   0  0  0  0  0  0  0  0  0  0  0  0
    2.4300   -1.2540    2.9280 C   0  0  0  0  0  0  0  0  0  0  0  0
    2.0690   -2.4200    3.2670 O   0  0  0  0  0  0  0  0  0  0  0  0
    4.2550    1.3680    6.7680 H   0  0  0  0  0  0  0  0  0  0  0  0
    5.4710    0.0410    6.6980 H   0  0  0  0  0  0  0  0  0  0  0  0
    5.4690   -0.9920    4.5050 H   0  0  0  0  0  0  0  0  0  0  0  0
    4.2880   -2.2550    4.8240 H   0  0  0  0  0  0  0  0  0  0  0  0
    4.4500   -1.5580    2.4260 H   0  0  0  0  0  0  0  0  0  0  0  0
    3.5950    1.0540    3.5360 H   0  0  0  0  0  0  0  0  0  0  0  0
    5.1310    0.6850    2.9940 H   0  0  0  0  0  0  0  0  0  0  0  0
    0.5350    2.5300   -1.9510 N   0  0  0  0  0  0  0  0  0  0  0  0
   -0.5320    2.5330   -1.0080 C   0  0  0  0  0  0  0  0  0  0  0  0
   -1.7060    2.9430   -1.3040 N   0  0  0  0  0  0  0  0  0  0  0  0
   -0.2890    2.0630    0.3270 N   0  0  0  0  0  0  0  0  0  0  0  0
   -1.2890    2.2170    1.3460 C   0  0  0  0  0  0  0  0  0  0  0  0
   -0.9820    1.6180    2.6550 C   0  0  0  0  0  0  0  0  0  0  0  0
   -0.8550    0.1780    2.8310 C   0  0  0  0  0  0  0  0  0  0  0  0
    0.1430   -0.6450    2.1460 C   0  0  2  0  0  0  0  0  0  0  0  0
    1.5180   -0.3200    2.3680 N   0  0  0  0  0  0  0  0  0  0  0  0
   -0.1820   -1.0200    0.7450 C   0  0  0  0  0  0  0  0  0  0  0  0
    0.7160   -0.9690   -0.1690 O   0  0  0  0  0  0  0  0  0  0  0  0
    1.5150    2.4780   -1.6600 H   0  0  0  0  0  0  0  0  0  0  0  0
    0.3110    2.5900   -2.9830 H   0  0  0  0  0  0  0  0  0  0  0  0
   -1.8940    3.2880   -2.2700 H   0  0  0  0  0  0  0  0  0  0  0  0
    0.6330    1.6360    0.5280 H   0  0  0  0  0  0  0  0  0  0  0  0
   -2.3110    1.8990    0.9500 H   0  0  0  0  0  0  0  0  0  0  0  0
   -1.4410    3.3450    1.4250 H   0  0  0  0  0  0  0  0  0  0  0  0
   -1.8260    1.9590    3.3540 H   0  0  0  0  0  0  0  0  0  0  0  0
   -0.1100    2.2020    3.0820 H   0  0  0  0  0  0  0  0  0  0  0  0
   -0.8290   -0.0600    3.9650 H   0  0  0  0  0  0  0  0  0  0  0  0
   -1.8840   -0.2750    2.5810 H   0  0  0  0  0  0  0  0  0  0  0  0
    0.0490   -1.6890    2.6900 H   0  0  0  0  0  0  0  0  0  0  0  0
    1.8830    0.6100    2.1320 H   0  0  0  0  0  0  0  0  0  0  0  0
   -2.6930   -4.7390   -6.6540 O   0  0  0  0  0  0  0  0  0  0  0  0
   -2.5640   -4.3840   -5.3170 C   0  0  0  0  0  0  0  0  0  0  0  0
   -1.3170   -4.3030   -4.7580 C   0  0  0  0  0  0  0  0  0  0  0  0
   -1.1470   -3.9500   -3.4200 C   0  0  0  0  0  0  0  0  0  0  0  0
   -2.2260   -3.6650   -2.5960 C   0  0  0  0  0  0  0  0  0  0  0  0
   -1.9840   -3.3180   -1.1870 C   0  0  0  0  0  0  0  0  0  0  0  0
   -1.7030   -1.8270   -1.0890 C   0  0  2  0  0  0  0  0  0  0  0  0
   -1.4630   -1.4580    0.3020 N   0  0  0  0  0  0  0  0  0  0  0  0
   -2.8510   -1.0780   -1.5900 C   0  0  0  0  0  0  0  0  0  0  0  0
   -3.2710   -1.0680   -2.7630 O   0  0  0  0  0  0  0  0  0  0  0  0
   -3.4840   -3.7520   -3.1810 C   0  0  0  0  0  0  0  0  0  0  0  0
   -3.6560   -4.1050   -4.5200 C   0  0  0  0  0  0  0  0  0  0  0  0
   -3.5710   -0.2810   -0.6660 O   0  0  0  0  0  0  0  0  0  0  0  0
   -3.5850   -4.9210   -7.0850 H   0  0  0  0  0  0  0  0  0  0  0  0
   -0.4230   -4.5210   -5.3480 H   0  0  0  0  0  0  0  0  0  0  0  0
   -0.1390   -3.8920   -2.9990 H   0  0  0  0  0  0  0  0  0  0  0  0
   -2.8170   -3.6030   -0.5100 H   0  0  0  0  0  0  0  0  0  0  0  0
   -1.0240   -3.8180   -0.8900 H   0  0  0  0  0  0  0  0  0  0  0  0
   -0.8040   -1.6620   -1.7110 H   0  0  0  0  0  0  0  0  0  0  0  0
   -2.2240   -1.5090    1.0060 H   0  0  0  0  0  0  0  0  0  0  0  0
   -4.3300   -3.5450   -2.5550 H   0  0  0  0  0  0  0  0  0  0  0  0
   -4.6430   -4.1640   -4.9460 H   0  0  0  0  0  0  0  0  0  0  0  0
  1 10  1  0  0  0  0
  1  9  1  0  0  0  0
  2  3  2  0  0  0  0
  2  1  1  0  0  0  0
  4 12  1  0  0  0  0
  4  2  1  0  0  0  0
  5 13  1  6  0  0  0
  5  4  1  0  0  0  0
  6 15  1  0  0  0  0
  6  5  1  0  0  0  0
  6 14  1  0  0  0  0
  7  5  1  0  0  0  0
  7  8  2  0  0  0  0
 11  4  1  0  0  0  0
 16 27  1  0  0  0  0
 16 17  1  0  0  0  0
 17 19  1  0  0  0  0
 18 17  2  0  0  0  0
 19 30  1  0  0  0  0
 19 20  1  0  0  0  0
 20 32  1  0  0  0  0
 20 21  1  0  0  0  0
 21 22  1  0  0  0  0
 21 34  1  0  0  0  0
 21 33  1  0  0  0  0
 22 35  1  0  0  0  0
 23 24  1  0  0  0  0
 23 37  1  1  0  0  0
 23 22  1  0  0  0  0
 24  7  1  0  0  0  0
 25 23  1  0  0  0  0
 26 25  2  0  0  0  0
 28 16  1  0  0  0  0
 29 18  1  0  0  0  0
 31 20  1  0  0  0  0
 36 22  1  0  0  0  0
 38 24  1  0  0  0  0
 39 40  1  0  0  0  0
 40 41  2  0  0  0  0
 40 50  1  0  0  0  0
 41 42  1  0  0  0  0
 42 54  1  0  0  0  0
 42 43  2  0  0  0  0
 43 44  1  0  0  0  0
 44 45  1  0  0  0  0
 44 56  1  0  0  0  0
 44 55  1  0  0  0  0
 45 57  1  6  0  0  0
 45 46  1  0  0  0  0
 46 25  1  0  0  0  0
 46 58  1  0  0  0  0
 47 45  1  0  0  0  0
 47 51  1  0  0  0  0
 48 47  2  0  0  0  0
 49 43  1  0  0  0  0
 49 59  1  0  0  0  0
 50 49  2  0  0  0  0
 52 39  1  0  0  0  0
 53 41  1  0  0  0  0
 60 50  1  0  0  0  0
M  END
$$$$
