NSC.pdb
 OpenBabel07022418113D

 38 37  0  0  1  0  0  0  0  0999 V2000
   -2.6500   -4.5340    1.3710 N   0  0  0  0  0  0  0  0  0  0  0  0
   -1.6120   -4.2640    0.4380 C   0  0  0  0  0  0  0  0  0  0  0  0
   -1.4830   -5.1020   -0.5070 O   0  0  0  0  0  0  0  0  0  0  0  0
   -0.7260   -3.0750    0.5530 C   0  0  0  0  0  0  0  0  0  0  0  0
    0.2590   -3.0660   -0.5680 C   0  0  2  0  0  0  0  0  0  0  0  0
    1.0940   -4.2480   -0.5620 N   0  0  0  0  0  0  0  0  0  0  0  0
    1.0940   -1.8800   -0.6670 C   0  0  0  0  0  0  0  0  0  0  0  0
    2.3430   -2.0300   -0.7290 O   0  0  0  0  0  0  0  0  0  0  0  0
   -2.5570   -4.3580    2.3920 H   0  0  0  0  0  0  0  0  0  0  0  0
   -3.5480   -4.9250    1.0340 H   0  0  0  0  0  0  0  0  0  0  0  0
   -1.3900   -2.1870    0.5020 H   0  0  0  0  0  0  0  0  0  0  0  0
   -0.2890   -3.0920    1.5540 H   0  0  0  0  0  0  0  0  0  0  0  0
   -0.3430   -3.1300   -1.5230 H   0  0  0  0  0  0  0  0  0  0  0  0
    1.9670   -4.0060   -1.0830 H   0  0  0  0  0  0  0  0  0  0  0  0
    1.3800   -4.5120    0.4030 H   0  0  0  0  0  0  0  0  0  0  0  0
    2.2030    2.3580   -2.1530 O   0  0  0  0  0  0  0  0  0  0  0  0
    1.3040    1.3140   -2.0810 C   0  0  0  0  0  0  0  0  0  0  0  0
    1.5300    0.5440   -0.7980 C   0  0  2  0  0  0  0  0  0  0  0  0
    0.6080   -0.5480   -0.6980 N   0  0  0  0  0  0  0  0  0  0  0  0
    1.4590    1.4470    0.3920 C   0  0  0  0  0  0  0  0  0  0  0  0
    2.2100    2.4540    0.4530 O   0  0  0  0  0  0  0  0  0  0  0  0
    1.7310    3.2220   -2.2830 H   0  0  0  0  0  0  0  0  0  0  0  0
    1.5430    0.6080   -2.9120 H   0  0  0  0  0  0  0  0  0  0  0  0
    0.2800    1.6730   -2.1940 H   0  0  0  0  0  0  0  0  0  0  0  0
    2.5570    0.1520   -0.8370 H   0  0  0  0  0  0  0  0  0  0  0  0
   -0.4290   -0.4420   -0.6450 H   0  0  0  0  0  0  0  0  0  0  0  0
    0.5780    1.2300    1.4770 N   0  0  0  0  0  0  0  0  0  0  0  0
    0.4950    2.0920    2.6360 C   0  0  1  0  0  0  0  0  0  0  0  0
   -0.8610    2.7410    2.7300 C   0  0  0  0  0  0  0  0  0  0  0  0
   -2.2090    1.5800    2.8700 S   0  0  0  0  0  0  0  0  0  0  0  0
    0.8770    1.3450    3.8290 C   0  0  0  0  0  0  0  0  0  0  0  0
    1.2050    0.1390    3.7180 O   0  0  0  0  0  0  0  0  0  0  0  0
    0.9070    1.8750    5.1150 O   0  0  0  0  0  0  0  0  0  0  0  0
   -0.0510    0.4040    1.4460 H   0  0  0  0  0  0  0  0  0  0  0  0
    1.2300    2.9460    2.5370 H   0  0  0  0  0  0  0  0  0  0  0  0
   -0.9970    3.3240    1.7730 H   0  0  0  0  0  0  0  0  0  0  0  0
   -0.9140    3.4860    3.5480 H   0  0  0  0  0  0  0  0  0  0  0  0
   -1.7090    0.3600    3.3740 H   0  0  0  0  0  0  0  0  0  0  0  0
  1  9  1  0  0  0  0
  2  4  1  0  0  0  0
  2  1  1  0  0  0  0
  3  2  2  0  0  0  0
  4 12  1  0  0  0  0
  5 13  1  6  0  0  0
  5  6  1  0  0  0  0
  5  4  1  0  0  0  0
  6 15  1  0  0  0  0
  7  5  1  0  0  0  0
  8  7  2  0  0  0  0
 10  1  1  0  0  0  0
 11  4  1  0  0  0  0
 14  6  1  0  0  0  0
 16 17  1  0  0  0  0
 17 18  1  0  0  0  0
 18 25  1  6  0  0  0
 18 19  1  0  0  0  0
 18 20  1  0  0  0  0
 19  7  1  0  0  0  0
 19 26  1  0  0  0  0
 20 21  2  0  0  0  0
 20 27  1  0  0  0  0
 22 16  1  0  0  0  0
 23 17  1  0  0  0  0
 24 17  1  0  0  0  0
 27 28  1  0  0  0  0
 28 35  1  6  0  0  0
 28 29  1  0  0  0  0
 28 31  1  0  0  0  0
 29 30  1  0  0  0  0
 29 37  1  0  0  0  0
 30 38  1  0  0  0  0
 31 33  1  0  0  0  0
 32 31  2  0  0  0  0
 34 27  1  0  0  0  0
 36 29  1  0  0  0  0
M  END
$$$$
