NSD.pdb
 OpenBabel07022418113D

 40 39  0  0  1  0  0  0  0  0999 V2000
    1.9320   -4.0740   -0.2150 N   0  0  0  0  0  0  0  0  0  0  0  0
    3.3380   -4.0640   -0.3800 C   0  0  0  0  0  0  0  0  0  0  0  0
    3.8980   -4.9540   -1.0900 O   0  0  0  0  0  0  0  0  0  0  0  0
    4.2450   -3.0630    0.2300 C   0  0  0  0  0  0  0  0  0  0  0  0
    3.4520   -2.0360    1.0350 C   0  0  2  0  0  0  0  0  0  0  0  0
    2.7520   -2.7590    2.0540 N   0  0  0  0  0  0  0  0  0  0  0  0
    2.5460   -1.2580    0.1540 C   0  0  0  0  0  0  0  0  0  0  0  0
    3.0490   -0.5770   -0.7750 O   0  0  0  0  0  0  0  0  0  0  0  0
    1.3210   -3.8600   -1.0260 H   0  0  0  0  0  0  0  0  0  0  0  0
    1.5200   -4.2950    0.7130 H   0  0  0  0  0  0  0  0  0  0  0  0
    4.6780   -2.4810   -0.6280 H   0  0  0  0  0  0  0  0  0  0  0  0
    5.0610   -3.4940    0.8110 H   0  0  0  0  0  0  0  0  0  0  0  0
    4.2020   -1.3560    1.5260 H   0  0  0  0  0  0  0  0  0  0  0  0
    2.4680   -2.1490    2.8540 H   0  0  0  0  0  0  0  0  0  0  0  0
    3.2910   -3.6140    2.3710 H   0  0  0  0  0  0  0  0  0  0  0  0
   -1.5170   -0.6870   -2.0650 O   0  0  0  0  0  0  0  0  0  0  0  0
   -0.6750   -1.4730   -1.2510 C   0  0  0  0  0  0  0  0  0  0  0  0
    0.2570   -0.5310   -0.4910 C   0  0  2  0  0  0  0  0  0  0  0  0
    1.1390   -1.2840    0.3580 N   0  0  0  0  0  0  0  0  0  0  0  0
   -0.6250    0.3840    0.2790 C   0  0  0  0  0  0  0  0  0  0  0  0
   -1.4220    1.0890   -0.3750 O   0  0  0  0  0  0  0  0  0  0  0  0
   -2.1690   -1.2780   -2.4970 H   0  0  0  0  0  0  0  0  0  0  0  0
   -1.2780   -2.0840   -0.5580 H   0  0  0  0  0  0  0  0  0  0  0  0
   -0.0890   -2.1080   -1.9480 H   0  0  0  0  0  0  0  0  0  0  0  0
    0.8170    0.0250   -1.2510 H   0  0  0  0  0  0  0  0  0  0  0  0
    0.7070   -1.8470    1.1250 H   0  0  0  0  0  0  0  0  0  0  0  0
   -0.6070    0.4940    1.6790 N   0  0  0  0  0  0  0  0  0  0  0  0
   -1.4960    1.4080    2.4010 C   0  0  1  0  0  0  0  0  0  0  0  0
   -1.2070    2.8310    2.0340 C   0  0  0  0  0  0  0  0  0  0  0  0
   -2.0490    3.7520    2.7940 C   0  0  0  0  0  0  0  0  0  0  0  0
   -2.7930    3.4350    3.7320 O   0  0  0  0  0  0  0  0  0  0  0  0
   -2.9040    1.0540    2.0990 C   0  0  0  0  0  0  0  0  0  0  0  0
   -3.9260    1.6090    2.5290 O   0  0  0  0  0  0  0  0  0  0  0  0
   -2.0410    5.1230    2.4640 O   0  0  0  0  0  0  0  0  0  0  0  0
   -3.1640   -0.0310    1.2290 O   0  0  0  0  0  0  0  0  0  0  0  0
    0.0690   -0.1040    2.2010 H   0  0  0  0  0  0  0  0  0  0  0  0
   -1.3030    1.2710    3.4690 H   0  0  0  0  0  0  0  0  0  0  0  0
   -1.2910    3.0040    0.9300 H   0  0  0  0  0  0  0  0  0  0  0  0
   -0.1330    3.0860    2.3020 H   0  0  0  0  0  0  0  0  0  0  0  0
   -2.4780    5.8230    3.0550 H   0  0  0  0  0  0  0  0  0  0  0  0
  1 10  1  0  0  0  0
  2  1  1  0  0  0  0
  2  4  1  0  0  0  0
  3  2  2  0  0  0  0
  4 12  1  0  0  0  0
  4  5  1  0  0  0  0
  5 13  1  1  0  0  0
  5  6  1  0  0  0  0
  6 15  1  0  0  0  0
  6 14  1  0  0  0  0
  7 19  1  0  0  0  0
  7  5  1  0  0  0  0
  8  7  2  0  0  0  0
  9  1  1  0  0  0  0
 11  4  1  0  0  0  0
 16 17  1  0  0  0  0
 17 23  1  0  0  0  0
 17 18  1  0  0  0  0
 18 25  1  6  0  0  0
 18 20  1  0  0  0  0
 18 19  1  0  0  0  0
 19 26  1  0  0  0  0
 20 27  1  0  0  0  0
 21 20  2  0  0  0  0
 22 16  1  0  0  0  0
 24 17  1  0  0  0  0
 27 36  1  0  0  0  0
 27 28  1  0  0  0  0
 28 37  1  1  0  0  0
 29 39  1  0  0  0  0
 29 28  1  0  0  0  0
 29 30  1  0  0  0  0
 30 31  2  0  0  0  0
 32 28  1  0  0  0  0
 32 33  1  0  0  0  0
 34 30  1  0  0  0  0
 34 40  1  0  0  0  0
 35 32  2  0  0  0  0
 38 29  1  0  0  0  0
M  END
$$$$
