NSG.pdb
 OpenBabel07022418113D

 34 33  0  0  1  0  0  0  0  0999 V2000
   -0.1020   -1.4460    3.8950 N   0  0  0  0  0  0  0  0  0  0  0  0
   -0.8700   -2.2740    3.0590 C   0  0  0  0  0  0  0  0  0  0  0  0
   -2.0930   -2.4030    3.3210 O   0  0  0  0  0  0  0  0  0  0  0  0
   -0.2380   -2.9720    1.8990 C   0  0  0  0  0  0  0  0  0  0  0  0
    1.2210   -2.6670    1.7890 C   0  0  2  0  0  0  0  0  0  0  0  0
    1.8710   -3.0990    2.9960 N   0  0  0  0  0  0  0  0  0  0  0  0
    1.5040   -1.2550    1.4700 C   0  0  0  0  0  0  0  0  0  0  0  0
    2.2480   -0.5790    2.2360 O   0  0  0  0  0  0  0  0  0  0  0  0
   -0.1360   -0.4020    3.8860 H   0  0  0  0  0  0  0  0  0  0  0  0
    0.5530   -1.8860    4.5780 H   0  0  0  0  0  0  0  0  0  0  0  0
   -0.8290   -2.7160    1.0130 H   0  0  0  0  0  0  0  0  0  0  0  0
   -0.3440   -4.0640    2.0580 H   0  0  0  0  0  0  0  0  0  0  0  0
    1.6040   -3.2670    0.9160 H   0  0  0  0  0  0  0  0  0  0  0  0
    1.9710   -4.1380    3.0310 H   0  0  0  0  0  0  0  0  0  0  0  0
    2.8420   -2.7080    2.9970 H   0  0  0  0  0  0  0  0  0  0  0  0
    3.0660   -0.0160   -1.2370 O   0  0  0  0  0  0  0  0  0  0  0  0
    1.8870    0.6690   -1.4270 C   0  0  0  0  0  0  0  0  0  0  0  0
    1.1690    0.7070   -0.0700 C   0  0  2  0  0  0  0  0  0  0  0  0
    0.9440   -0.6570    0.3100 N   0  0  0  0  0  0  0  0  0  0  0  0
   -0.0780    1.4670   -0.2840 C   0  0  0  0  0  0  0  0  0  0  0  0
    0.0250    2.6750   -0.6200 O   0  0  0  0  0  0  0  0  0  0  0  0
    3.1970   -0.7780   -1.8500 H   0  0  0  0  0  0  0  0  0  0  0  0
    2.0210    1.6830   -1.8420 H   0  0  0  0  0  0  0  0  0  0  0  0
    1.2270    0.0390   -2.0760 H   0  0  0  0  0  0  0  0  0  0  0  0
    1.8180    1.2590    0.6180 H   0  0  0  0  0  0  0  0  0  0  0  0
    0.3360   -1.2470   -0.2940 H   0  0  0  0  0  0  0  0  0  0  0  0
   -1.3820    0.9280   -0.1350 N   0  0  0  0  0  0  0  0  0  0  0  0
   -2.5810    1.7140   -0.3560 C   0  0  0  0  0  0  0  0  0  0  0  0
   -2.6040    2.2180   -1.7480 C   0  0  0  0  0  0  0  0  0  0  0  0
   -3.5440    2.9170   -2.1550 O   0  0  0  0  0  0  0  0  0  0  0  0
   -1.5750    1.9180   -2.6250 O   0  0  0  0  0  0  0  0  0  0  0  0
   -1.4500   -0.0710    0.1430 H   0  0  0  0  0  0  0  0  0  0  0  0
   -2.5910    2.5950    0.3170 H   0  0  0  0  0  0  0  0  0  0  0  0
   -3.4940    1.1390   -0.1590 H   0  0  0  0  0  0  0  0  0  0  0  0
  1 10  1  0  0  0  0
  2  3  2  0  0  0  0
  2  1  1  0  0  0  0
  4 12  1  0  0  0  0
  4  2  1  0  0  0  0
  5 13  1  6  0  0  0
  5  4  1  0  0  0  0
  5  6  1  0  0  0  0
  6 15  1  0  0  0  0
  6 14  1  0  0  0  0
  7  5  1  0  0  0  0
  7  8  2  0  0  0  0
  9  1  1  0  0  0  0
 11  4  1  0  0  0  0
 17 16  1  0  0  0  0
 17 18  1  0  0  0  0
 18 19  1  0  0  0  0
 18 25  1  1  0  0  0
 19  7  1  0  0  0  0
 20 27  1  0  0  0  0
 20 18  1  0  0  0  0
 21 20  2  0  0  0  0
 22 16  1  0  0  0  0
 23 17  1  0  0  0  0
 24 17  1  0  0  0  0
 26 19  1  0  0  0  0
 27 32  1  0  0  0  0
 28 34  1  0  0  0  0
 28 27  1  0  0  0  0
 28 33  1  0  0  0  0
 29 28  1  0  0  0  0
 30 29  1  0  0  0  0
 31 29  2  0  0  0  0
M  END
$$$$
