NSH.pdb
 OpenBabel07022418113D

 44 44  0  0  1  0  0  0  0  0999 V2000
    3.4870   -5.6640    1.2330 N   0  0  0  0  0  0  0  0  0  0  0  0
    4.5460   -4.7300    1.4080 C   0  0  0  0  0  0  0  0  0  0  0  0
    5.7360   -5.1090    1.3970 O   0  0  0  0  0  0  0  0  0  0  0  0
    4.2650   -3.2850    1.6060 C   0  0  0  0  0  0  0  0  0  0  0  0
    2.7780   -3.0140    1.5900 C   0  0  2  0  0  0  0  0  0  0  0  0
    2.1770   -3.4030    0.3400 N   0  0  0  0  0  0  0  0  0  0  0  0
    2.4580   -1.6110    1.8740 C   0  0  0  0  0  0  0  0  0  0  0  0
    2.8680   -1.0090    2.9230 O   0  0  0  0  0  0  0  0  0  0  0  0
    2.6180   -5.6460    1.8030 H   0  0  0  0  0  0  0  0  0  0  0  0
    3.5320   -6.4310    0.5070 H   0  0  0  0  0  0  0  0  0  0  0  0
    4.7070   -2.7550    0.7330 H   0  0  0  0  0  0  0  0  0  0  0  0
    4.7110   -2.8880    2.5220 H   0  0  0  0  0  0  0  0  0  0  0  0
    2.3380   -3.6980    2.3720 H   0  0  0  0  0  0  0  0  0  0  0  0
    1.1450   -3.4470    0.4140 H   0  0  0  0  0  0  0  0  0  0  0  0
    2.5350   -2.9000   -0.4850 H   0  0  0  0  0  0  0  0  0  0  0  0
    1.5850    2.6410    0.0360 O   0  0  0  0  0  0  0  0  0  0  0  0
    1.8170    1.2900   -0.0050 C   0  0  0  0  0  0  0  0  0  0  0  0
    1.3140    0.5260    1.1960 C   0  0  2  0  0  0  0  0  0  0  0  0
    1.6600   -0.8780    0.9550 N   0  0  0  0  0  0  0  0  0  0  0  0
   -0.1990    0.6650    1.2420 C   0  0  0  0  0  0  0  0  0  0  0  0
   -0.8820   -0.3640    1.0650 O   0  0  0  0  0  0  0  0  0  0  0  0
    1.2160    2.9340   -0.8470 H   0  0  0  0  0  0  0  0  0  0  0  0
    1.3250    0.8170   -0.8970 H   0  0  0  0  0  0  0  0  0  0  0  0
    2.9060    1.0540   -0.1340 H   0  0  0  0  0  0  0  0  0  0  0  0
    1.7620    0.8560    2.1490 H   0  0  0  0  0  0  0  0  0  0  0  0
    1.3230   -1.3670    0.0970 H   0  0  0  0  0  0  0  0  0  0  0  0
   -0.7900    1.9220    1.4770 N   0  0  0  0  0  0  0  0  0  0  0  0
   -2.1760    2.2050    1.5220 C   0  0  1  0  0  0  0  0  0  0  0  0
   -3.1190    1.0650    1.1870 C   0  0  0  0  0  0  0  0  0  0  0  0
   -2.9470    0.6500   -0.2170 C   0  0  0  0  0  0  0  0  0  0  0  0
   -3.6580   -0.3990   -0.7990 C   0  0  0  0  0  0  0  0  0  0  0  0
   -3.2910   -0.5440   -2.0830 N   0  0  0  0  0  0  0  0  0  0  0  0
   -2.3620    0.3960   -2.3200 C   0  0  0  0  0  0  0  0  0  0  0  0
   -2.1550    1.1120   -1.2000 N   0  0  0  0  0  0  0  0  0  0  0  0
   -2.6550    3.0610    2.6020 C   0  0  0  0  0  0  0  0  0  0  0  0
   -1.9050    3.5640    3.4980 O   0  0  0  0  0  0  0  0  0  0  0  0
   -3.9930    3.3590    2.6790 O   0  0  0  0  0  0  0  0  0  0  0  0
   -0.0970    2.7440    1.6400 H   0  0  0  0  0  0  0  0  0  0  0  0
   -2.3270    2.8390    0.5340 H   0  0  0  0  0  0  0  0  0  0  0  0
   -3.0100    0.2000    1.8450 H   0  0  0  0  0  0  0  0  0  0  0  0
   -4.1490    1.5000    1.2930 H   0  0  0  0  0  0  0  0  0  0  0  0
   -4.3890   -1.0010   -0.2960 H   0  0  0  0  0  0  0  0  0  0  0  0
   -3.6330   -1.2320   -2.7860 H   0  0  0  0  0  0  0  0  0  0  0  0
   -1.8670    0.5400   -3.2660 H   0  0  0  0  0  0  0  0  0  0  0  0
  1  2  1  0  0  0  0
  1  9  1  0  0  0  0
  2  4  1  0  0  0  0
  3  2  2  0  0  0  0
  4 12  1  0  0  0  0
  5  4  1  0  0  0  0
  5  7  1  0  0  0  0
  5 13  1  1  0  0  0
  6 14  1  0  0  0  0
  6  5  1  0  0  0  0
  7  8  2  0  0  0  0
 10  1  1  0  0  0  0
 11  4  1  0  0  0  0
 15  6  1  0  0  0  0
 17 16  1  0  0  0  0
 17 18  1  0  0  0  0
 18 20  1  0  0  0  0
 18 25  1  1  0  0  0
 19 18  1  0  0  0  0
 19  7  1  0  0  0  0
 20 27  1  0  0  0  0
 21 20  2  0  0  0  0
 22 16  1  0  0  0  0
 23 17  1  0  0  0  0
 24 17  1  0  0  0  0
 26 19  1  0  0  0  0
 27 28  1  0  0  0  0
 27 38  1  0  0  0  0
 28 39  1  6  0  0  0
 28 35  1  0  0  0  0
 29 41  1  0  0  0  0
 29 28  1  0  0  0  0
 29 40  1  0  0  0  0
 30 29  1  0  0  0  0
 31 42  1  0  0  0  0
 31 30  2  0  0  0  0
 32 31  1  0  0  0  0
 33 32  1  0  0  0  0
 33 34  2  0  0  0  0
 34 30  1  0  0  0  0
 35 37  2  0  0  0  0
 35 36  1  0  0  0  0
 43 32  1  0  0  0  0
 44 33  1  0  0  0  0
M  END
$$$$
