NSK.pdb
 OpenBabel07022418113D

 48 47  0  0  1  0  0  0  0  0999 V2000
    2.7570   -5.2180    2.1060 N   0  0  0  0  0  0  0  0  0  0  0  0
    3.3850   -4.0020    2.4790 C   0  0  0  0  0  0  0  0  0  0  0  0
    4.5660   -4.0770    2.9260 O   0  0  0  0  0  0  0  0  0  0  0  0
    2.6820   -2.6910    2.3490 C   0  0  0  0  0  0  0  0  0  0  0  0
    3.5820   -1.5570    2.8180 C   0  0  2  0  0  0  0  0  0  0  0  0
    3.9070   -1.8080    4.1970 N   0  0  0  0  0  0  0  0  0  0  0  0
    2.9250   -0.2510    2.7040 C   0  0  0  0  0  0  0  0  0  0  0  0
    2.7230    0.4620    3.7220 O   0  0  0  0  0  0  0  0  0  0  0  0
    1.7500   -5.3820    2.3470 H   0  0  0  0  0  0  0  0  0  0  0  0
    3.2460   -5.9870    1.5890 H   0  0  0  0  0  0  0  0  0  0  0  0
    2.2990   -2.5190    1.3250 H   0  0  0  0  0  0  0  0  0  0  0  0
    1.8190   -2.7170    3.0390 H   0  0  0  0  0  0  0  0  0  0  0  0
    4.5120   -1.6200    2.2140 H   0  0  0  0  0  0  0  0  0  0  0  0
    3.1870   -1.4320    4.8440 H   0  0  0  0  0  0  0  0  0  0  0  0
    4.8830   -1.5520    4.4530 H   0  0  0  0  0  0  0  0  0  0  0  0
    1.9050    3.7440    0.4460 O   0  0  0  0  0  0  0  0  0  0  0  0
    2.5870    2.5440    0.4920 C   0  0  0  0  0  0  0  0  0  0  0  0
    1.8350    1.5700    1.3630 C   0  0  2  0  0  0  0  0  0  0  0  0
    2.4750    0.2970    1.4650 N   0  0  0  0  0  0  0  0  0  0  0  0
    0.4390    1.3690    0.8990 C   0  0  0  0  0  0  0  0  0  0  0  0
   -0.3580    2.3280    0.7220 O   0  0  0  0  0  0  0  0  0  0  0  0
    1.8850    4.1690    1.3330 H   0  0  0  0  0  0  0  0  0  0  0  0
    2.8100    2.1480   -0.4980 H   0  0  0  0  0  0  0  0  0  0  0  0
    3.5620    2.7350    0.9960 H   0  0  0  0  0  0  0  0  0  0  0  0
    1.7700    2.0100    2.3940 H   0  0  0  0  0  0  0  0  0  0  0  0
    2.6320   -0.2780    0.6110 H   0  0  0  0  0  0  0  0  0  0  0  0
   -0.0470    0.0830    0.6390 N   0  0  0  0  0  0  0  0  0  0  0  0
   -1.3940   -0.2320    0.1820 C   0  0  1  0  0  0  0  0  0  0  0  0
   -1.4180   -0.9430   -1.1120 C   0  0  0  0  0  0  0  0  0  0  0  0
   -2.8020   -1.2660   -1.5960 C   0  0  0  0  0  0  0  0  0  0  0  0
   -3.6560   -0.0320   -1.7740 C   0  0  0  0  0  0  0  0  0  0  0  0
   -5.0340   -0.3460   -2.2550 C   0  0  0  0  0  0  0  0  0  0  0  0
   -5.7700    0.8930   -2.3940 N   0  0  0  0  0  0  0  0  0  0  0  0
   -2.0050   -1.0610    1.2390 C   0  0  0  0  0  0  0  0  0  0  0  0
   -1.3420   -1.4080    2.2620 O   0  0  0  0  0  0  0  0  0  0  0  0
   -3.3010   -1.4690    1.1360 O   0  0  0  0  0  0  0  0  0  0  0  0
    0.5720   -0.7460    0.7700 H   0  0  0  0  0  0  0  0  0  0  0  0
   -1.9200    0.7290    0.0920 H   0  0  0  0  0  0  0  0  0  0  0  0
   -0.8700   -1.9250   -1.0900 H   0  0  0  0  0  0  0  0  0  0  0  0
   -0.9450   -0.3420   -1.9460 H   0  0  0  0  0  0  0  0  0  0  0  0
   -3.3380   -2.0370   -1.0500 H   0  0  0  0  0  0  0  0  0  0  0  0
   -2.6330   -1.7320   -2.6270 H   0  0  0  0  0  0  0  0  0  0  0  0
   -3.7040    0.5910   -0.8820 H   0  0  0  0  0  0  0  0  0  0  0  0
   -3.1580    0.5780   -2.5680 H   0  0  0  0  0  0  0  0  0  0  0  0
   -4.9830   -0.8760   -3.2440 H   0  0  0  0  0  0  0  0  0  0  0  0
   -5.6090   -1.0010   -1.5900 H   0  0  0  0  0  0  0  0  0  0  0  0
   -6.7860    0.7810   -2.1750 H   0  0  0  0  0  0  0  0  0  0  0  0
   -5.4230    1.6490   -1.7650 H   0  0  0  0  0  0  0  0  0  0  0  0
  1  9  1  0  0  0  0
  1  2  1  0  0  0  0
  2  3  2  0  0  0  0
  4  2  1  0  0  0  0
  4  5  1  0  0  0  0
  4 12  1  0  0  0  0
  5 13  1  6  0  0  0
  5  6  1  0  0  0  0
  6 15  1  0  0  0  0
  6 14  1  0  0  0  0
  7  5  1  0  0  0  0
  7  8  2  0  0  0  0
 10  1  1  0  0  0  0
 11  4  1  0  0  0  0
 16 17  1  0  0  0  0
 16 22  1  0  0  0  0
 17 24  1  0  0  0  0
 17 18  1  0  0  0  0
 18 19  1  0  0  0  0
 18 25  1  1  0  0  0
 19  7  1  0  0  0  0
 20 18  1  0  0  0  0
 21 20  2  0  0  0  0
 23 17  1  0  0  0  0
 26 19  1  0  0  0  0
 27 37  1  0  0  0  0
 27 20  1  0  0  0  0
 28 38  1  6  0  0  0
 28 27  1  0  0  0  0
 28 34  1  0  0  0  0
 29 39  1  0  0  0  0
 29 28  1  0  0  0  0
 30 29  1  0  0  0  0
 30 41  1  0  0  0  0
 31 30  1  0  0  0  0
 31 43  1  0  0  0  0
 32 31  1  0  0  0  0
 32 46  1  0  0  0  0
 33 32  1  0  0  0  0
 33 47  1  0  0  0  0
 33 48  1  0  0  0  0
 34 35  1  0  0  0  0
 36 34  2  0  0  0  0
 40 29  1  0  0  0  0
 42 30  1  0  0  0  0
 44 31  1  0  0  0  0
 45 32  1  0  0  0  0
M  END
$$$$
