NSM.pdb
 OpenBabel07022418113D

 44 43  0  0  1  0  0  0  0  0999 V2000
    5.5900   -2.4090   -0.2630 N   0  0  0  0  0  0  0  0  0  0  0  0
    5.0210   -2.7120   -1.5160 C   0  0  0  0  0  0  0  0  0  0  0  0
    5.7250   -3.3960   -2.3130 O   0  0  0  0  0  0  0  0  0  0  0  0
    3.6900   -2.3080   -1.9760 C   0  0  0  0  0  0  0  0  0  0  0  0
    2.9300   -1.4920   -0.9650 C   0  0  2  0  0  0  0  0  0  0  0  0
    2.6980   -2.1550    0.2710 N   0  0  0  0  0  0  0  0  0  0  0  0
    1.6430   -1.0440   -1.5300 C   0  0  0  0  0  0  0  0  0  0  0  0
    1.5390   -0.4290   -2.6220 O   0  0  0  0  0  0  0  0  0  0  0  0
    5.1210   -2.6770    0.6290 H   0  0  0  0  0  0  0  0  0  0  0  0
    6.5010   -1.9060   -0.1860 H   0  0  0  0  0  0  0  0  0  0  0  0
    3.1330   -3.2240   -2.2790 H   0  0  0  0  0  0  0  0  0  0  0  0
    3.8090   -1.7070   -2.9010 H   0  0  0  0  0  0  0  0  0  0  0  0
    3.5780   -0.5950   -0.7440 H   0  0  0  0  0  0  0  0  0  0  0  0
    2.6950   -3.1760    0.2650 H   0  0  0  0  0  0  0  0  0  0  0  0
    2.9980   -1.6770    1.1220 H   0  0  0  0  0  0  0  0  0  0  0  0
   -2.0480   -2.8230   -0.4590 O   0  0  0  0  0  0  0  0  0  0  0  0
   -1.7910   -2.0530   -1.5610 C   0  0  0  0  0  0  0  0  0  0  0  0
   -0.8580   -0.9060   -1.3050 C   0  0  2  0  0  0  0  0  0  0  0  0
    0.4300   -1.3010   -0.8350 N   0  0  0  0  0  0  0  0  0  0  0  0
   -1.4170    0.1040   -0.3860 C   0  0  0  0  0  0  0  0  0  0  0  0
   -2.5530    0.5710   -0.6320 O   0  0  0  0  0  0  0  0  0  0  0  0
   -2.1960   -3.7790   -0.6490 H   0  0  0  0  0  0  0  0  0  0  0  0
   -1.3830   -2.6250   -2.4320 H   0  0  0  0  0  0  0  0  0  0  0  0
   -2.7590   -1.6210   -1.9140 H   0  0  0  0  0  0  0  0  0  0  0  0
   -0.7160   -0.3820   -2.2960 H   0  0  0  0  0  0  0  0  0  0  0  0
    0.4550   -1.8170    0.0940 H   0  0  0  0  0  0  0  0  0  0  0  0
   -3.4360   -0.1980    5.5650 C   0  0  0  0  0  0  0  0  0  0  0  0
   -2.1200    1.0700    5.6940 S   0  0  0  0  0  0  0  0  0  0  0  0
   -1.9130    1.8980    4.0690 C   0  0  0  0  0  0  0  0  0  0  0  0
   -1.3850    0.9420    3.0480 C   0  0  0  0  0  0  0  0  0  0  0  0
   -1.1960    1.5320    1.6870 C   0  0  2  0  0  0  0  0  0  0  0  0
   -0.6800    0.5310    0.7470 N   0  0  0  0  0  0  0  0  0  0  0  0
   -0.3660    2.7520    1.6510 C   0  0  0  0  0  0  0  0  0  0  0  0
    0.6530    2.7740    0.8830 O   0  0  0  0  0  0  0  0  0  0  0  0
   -0.6140    3.8900    2.3950 O   0  0  0  0  0  0  0  0  0  0  0  0
   -4.4280    0.2500    5.7750 H   0  0  0  0  0  0  0  0  0  0  0  0
   -3.3850   -0.5930    4.5300 H   0  0  0  0  0  0  0  0  0  0  0  0
   -3.1650   -1.0050    6.2490 H   0  0  0  0  0  0  0  0  0  0  0  0
   -1.2820    2.7660    4.2710 H   0  0  0  0  0  0  0  0  0  0  0  0
   -2.9410    2.2730    3.8100 H   0  0  0  0  0  0  0  0  0  0  0  0
   -0.4490    0.5060    3.4630 H   0  0  0  0  0  0  0  0  0  0  0  0
   -2.1030    0.0810    3.0160 H   0  0  0  0  0  0  0  0  0  0  0  0
   -2.2000    1.8190    1.3050 H   0  0  0  0  0  0  0  0  0  0  0  0
    0.2570    0.0940    0.8810 H   0  0  0  0  0  0  0  0  0  0  0  0
  1 10  1  0  0  0  0
  1  9  1  0  0  0  0
  2  1  1  0  0  0  0
  3  2  2  0  0  0  0
  4  2  1  0  0  0  0
  4  5  1  0  0  0  0
  5 13  1  1  0  0  0
  5  6  1  0  0  0  0
  6 15  1  0  0  0  0
  7  5  1  0  0  0  0
  7 19  1  0  0  0  0
  8  7  2  0  0  0  0
 11  4  1  0  0  0  0
 12  4  1  0  0  0  0
 14  6  1  0  0  0  0
 17 18  1  0  0  0  0
 17 16  1  0  0  0  0
 18 25  1  6  0  0  0
 18 19  1  0  0  0  0
 18 20  1  0  0  0  0
 19 26  1  0  0  0  0
 20 32  1  0  0  0  0
 21 20  2  0  0  0  0
 22 16  1  0  0  0  0
 23 17  1  0  0  0  0
 24 17  1  0  0  0  0
 27 28  1  0  0  0  0
 27 36  1  0  0  0  0
 27 38  1  0  0  0  0
 29 39  1  0  0  0  0
 29 28  1  0  0  0  0
 30 41  1  0  0  0  0
 30 29  1  0  0  0  0
 31 43  1  6  0  0  0
 31 30  1  0  0  0  0
 32 44  1  0  0  0  0
 32 31  1  0  0  0  0
 33 31  1  0  0  0  0
 33 35  1  0  0  0  0
 34 33  2  0  0  0  0
 37 27  1  0  0  0  0
 40 29  1  0  0  0  0
 42 30  1  0  0  0  0
M  END
$$$$
