NSP.pdb
 OpenBabel07022418113D

 41 41  0  0  1  0  0  0  0  0999 V2000
    6.2230   -2.8080    2.0660 N   0  0  0  0  0  0  0  0  0  0  0  0
    5.1170   -1.9700    2.3060 C   0  0  0  0  0  0  0  0  0  0  0  0
    4.8720   -1.6540    3.4940 O   0  0  0  0  0  0  0  0  0  0  0  0
    4.3330   -1.5280    1.1300 C   0  0  0  0  0  0  0  0  0  0  0  0
    3.1630   -0.6430    1.5430 C   0  0  2  0  0  0  0  0  0  0  0  0
    2.2730   -1.3810    2.4280 N   0  0  0  0  0  0  0  0  0  0  0  0
    2.4280   -0.3010    0.3230 C   0  0  0  0  0  0  0  0  0  0  0  0
    2.8870    0.5010   -0.5610 O   0  0  0  0  0  0  0  0  0  0  0  0
    6.1270   -3.6100    1.4270 H   0  0  0  0  0  0  0  0  0  0  0  0
    7.1240   -2.6220    2.5270 H   0  0  0  0  0  0  0  0  0  0  0  0
    3.8730   -2.4460    0.7080 H   0  0  0  0  0  0  0  0  0  0  0  0
    4.9210   -0.9590    0.3880 H   0  0  0  0  0  0  0  0  0  0  0  0
    3.5460    0.2330    2.1060 H   0  0  0  0  0  0  0  0  0  0  0  0
    2.5010   -1.2020    3.4370 H   0  0  0  0  0  0  0  0  0  0  0  0
    2.2020   -2.3810    2.1910 H   0  0  0  0  0  0  0  0  0  0  0  0
   -0.3080   -2.8300   -1.3680 O   0  0  0  0  0  0  0  0  0  0  0  0
    0.2970   -1.7730   -2.0210 C   0  0  0  0  0  0  0  0  0  0  0  0
    0.3680   -0.5720   -1.0860 C   0  0  2  0  0  0  0  0  0  0  0  0
    1.1270   -0.8740    0.0720 N   0  0  0  0  0  0  0  0  0  0  0  0
   -0.9690   -0.0490   -0.9420 C   0  0  0  0  0  0  0  0  0  0  0  0
   -1.5470    0.2870   -2.0480 O   0  0  0  0  0  0  0  0  0  0  0  0
   -0.3360   -3.6480   -1.9290 H   0  0  0  0  0  0  0  0  0  0  0  0
    1.3210   -2.1050   -2.3210 H   0  0  0  0  0  0  0  0  0  0  0  0
   -0.2460   -1.5240   -2.9340 H   0  0  0  0  0  0  0  0  0  0  0  0
    0.9670    0.1880   -1.6870 H   0  0  0  0  0  0  0  0  0  0  0  0
    0.7630   -1.5440    0.7760 H   0  0  0  0  0  0  0  0  0  0  0  0
   -1.7550    0.1540    0.2070 N   0  0  0  0  0  0  0  0  0  0  0  0
   -1.3360   -0.1660    1.5560 C   0  0  0  0  0  0  0  0  0  0  0  0
   -2.4100    0.3500    2.4930 C   0  0  0  0  0  0  0  0  0  0  0  0
   -3.6510    0.3040    1.6370 C   0  0  0  0  0  0  0  0  0  0  0  0
   -3.0950    0.7010    0.2920 C   0  0  1  0  0  0  0  0  0  0  0  0
   -3.1480    2.1830    0.1880 C   0  0  0  0  0  0  0  0  0  0  0  0
   -2.1600    2.9150    0.0160 O   0  0  0  0  0  0  0  0  0  0  0  0
   -4.4020    2.7570    0.2930 O   0  0  0  0  0  0  0  0  0  0  0  0
   -1.3320   -1.2880    1.6550 H   0  0  0  0  0  0  0  0  0  0  0  0
   -0.3730    0.3050    1.7650 H   0  0  0  0  0  0  0  0  0  0  0  0
   -2.5370   -0.3630    3.3610 H   0  0  0  0  0  0  0  0  0  0  0  0
   -2.1960    1.3640    2.8320 H   0  0  0  0  0  0  0  0  0  0  0  0
   -4.0620   -0.7250    1.5790 H   0  0  0  0  0  0  0  0  0  0  0  0
   -4.4400    0.9750    1.9850 H   0  0  0  0  0  0  0  0  0  0  0  0
   -3.7080    0.2630   -0.4950 H   0  0  0  0  0  0  0  0  0  0  0  0
  1  2  1  0  0  0  0
  1 10  1  0  0  0  0
  2  3  2  0  0  0  0
  4  5  1  0  0  0  0
  4  2  1  0  0  0  0
  5 13  1  1  0  0  0
  5  6  1  0  0  0  0
  6 14  1  0  0  0  0
  7  5  1  0  0  0  0
  8  7  2  0  0  0  0
  9  1  1  0  0  0  0
 11  4  1  0  0  0  0
 12  4  1  0  0  0  0
 15  6  1  0  0  0  0
 17 16  1  0  0  0  0
 17 18  1  0  0  0  0
 18 25  1  6  0  0  0
 18 20  1  0  0  0  0
 18 19  1  0  0  0  0
 19  7  1  0  0  0  0
 19 26  1  0  0  0  0
 20 27  1  0  0  0  0
 21 20  2  0  0  0  0
 22 16  1  0  0  0  0
 23 17  1  0  0  0  0
 24 17  1  0  0  0  0
 27 31  1  0  0  0  0
 27 28  1  0  0  0  0
 28 35  1  0  0  0  0
 28 36  1  0  0  0  0
 28 29  1  0  0  0  0
 29 38  1  0  0  0  0
 29 37  1  0  0  0  0
 30 40  1  0  0  0  0
 30 29  1  0  0  0  0
 31 41  1  6  0  0  0
 31 30  1  0  0  0  0
 32 31  1  0  0  0  0
 32 34  1  0  0  0  0
 33 32  2  0  0  0  0
 39 30  1  0  0  0  0
M  END
$$$$
