NTA.pdb
 OpenBabel07022418113D

 40 39  0  0  1  0  0  0  0  0999 V2000
   -1.2250   -4.3950   -1.7170 N   0  0  0  0  0  0  0  0  0  0  0  0
   -0.3900   -4.6150   -0.5940 C   0  0  0  0  0  0  0  0  0  0  0  0
   -1.0060   -4.7580    0.5180 O   0  0  0  0  0  0  0  0  0  0  0  0
    1.0610   -4.6680   -0.7030 C   0  0  0  0  0  0  0  0  0  0  0  0
    1.6430   -3.7950    0.4170 C   0  0  2  0  0  0  0  0  0  0  0  0
    1.1700   -4.3340    1.6480 N   0  0  0  0  0  0  0  0  0  0  0  0
    1.3760   -2.3910    0.1700 C   0  0  0  0  0  0  0  0  0  0  0  0
    1.8460   -1.8240   -0.8570 O   0  0  0  0  0  0  0  0  0  0  0  0
   -2.0730   -3.7680   -1.6080 H   0  0  0  0  0  0  0  0  0  0  0  0
   -1.0090   -4.8360   -2.6300 H   0  0  0  0  0  0  0  0  0  0  0  0
    1.4350   -4.3670   -1.7050 H   0  0  0  0  0  0  0  0  0  0  0  0
    1.4110   -5.6950   -0.4940 H   0  0  0  0  0  0  0  0  0  0  0  0
    2.7640   -3.9900    0.3890 H   0  0  0  0  0  0  0  0  0  0  0  0
    0.3980   -3.8040    2.0470 H   0  0  0  0  0  0  0  0  0  0  0  0
    1.9160   -4.4810    2.3810 H   0  0  0  0  0  0  0  0  0  0  0  0
   -1.3780   -0.2850   -1.1240 C   0  0  0  0  0  0  0  0  0  0  0  0
   -0.9950    0.2340    0.2500 C   0  0  1  0  0  0  0  0  0  0  0  0
   -1.9770   -0.0140    1.1930 O   0  0  0  0  0  0  0  0  0  0  0  0
    0.3880   -0.1400    0.6570 C   0  0  2  0  0  0  0  0  0  0  0  0
    0.6040   -1.5120    0.9800 N   0  0  0  0  0  0  0  0  0  0  0  0
    0.8270    0.7220    1.7570 C   0  0  0  0  0  0  0  0  0  0  0  0
    1.2470    0.2270    2.8220 O   0  0  0  0  0  0  0  0  0  0  0  0
   -0.5080   -0.3470   -1.7990 H   0  0  0  0  0  0  0  0  0  0  0  0
   -2.1130    0.3950   -1.6480 H   0  0  0  0  0  0  0  0  0  0  0  0
   -1.9330   -1.2320   -0.9850 H   0  0  0  0  0  0  0  0  0  0  0  0
   -0.9850    1.3500    0.1340 H   0  0  0  0  0  0  0  0  0  0  0  0
   -2.8860    0.0800    0.8540 H   0  0  0  0  0  0  0  0  0  0  0  0
    1.0230    0.0950   -0.2420 H   0  0  0  0  0  0  0  0  0  0  0  0
    0.1720   -1.8690    1.8470 H   0  0  0  0  0  0  0  0  0  0  0  0
    2.4930    3.7200    2.3060 C   0  0  0  0  0  0  0  0  0  0  0  0
    1.2400    2.9830    2.7850 C   0  0  2  0  0  0  0  0  0  0  0  0
    0.8020    2.1460    1.6740 N   0  0  0  0  0  0  0  0  0  0  0  0
    0.2130    3.9560    3.1800 C   0  0  0  0  0  0  0  0  0  0  0  0
    0.4690    4.7440    4.1280 O   0  0  0  0  0  0  0  0  0  0  0  0
   -1.0230    4.0550    2.5680 O   0  0  0  0  0  0  0  0  0  0  0  0
    2.1800    4.7570    2.0510 H   0  0  0  0  0  0  0  0  0  0  0  0
    3.2070    3.7730    3.1540 H   0  0  0  0  0  0  0  0  0  0  0  0
    2.9340    3.2250    1.4400 H   0  0  0  0  0  0  0  0  0  0  0  0
    1.5180    2.3070    3.6130 H   0  0  0  0  0  0  0  0  0  0  0  0
    0.4790    2.5960    0.8180 H   0  0  0  0  0  0  0  0  0  0  0  0
  1  9  1  0  0  0  0
  1  2  1  0  0  0  0
  2  3  2  0  0  0  0
  4  2  1  0  0  0  0
  4 12  1  0  0  0  0
  4  5  1  0  0  0  0
  5 13  1  6  0  0  0
  5  6  1  0  0  0  0
  6 14  1  0  0  0  0
  6 15  1  0  0  0  0
  7  5  1  0  0  0  0
  7 20  1  0  0  0  0
  8  7  2  0  0  0  0
 10  1  1  0  0  0  0
 11  4  1  0  0  0  0
 16 25  1  0  0  0  0
 16 17  1  0  0  0  0
 17 26  1  6  0  0  0
 17 19  1  0  0  0  0
 17 18  1  0  0  0  0
 19 28  1  6  0  0  0
 19 20  1  0  0  0  0
 19 21  1  0  0  0  0
 20 29  1  0  0  0  0
 21 22  2  0  0  0  0
 23 16  1  0  0  0  0
 24 16  1  0  0  0  0
 27 18  1  0  0  0  0
 30 31  1  0  0  0  0
 30 37  1  0  0  0  0
 31 33  1  0  0  0  0
 31 39  1  1  0  0  0
 32 21  1  0  0  0  0
 32 31  1  0  0  0  0
 33 34  1  0  0  0  0
 35 33  2  0  0  0  0
 36 30  1  0  0  0  0
 38 30  1  0  0  0  0
 40 32  1  0  0  0  0
M  END
$$$$
