NTK.pdb
 OpenBabel07022418113D

 51 50  0  0  1  0  0  0  0  0999 V2000
    4.7950   -5.4370   -2.5080 N   0  0  0  0  0  0  0  0  0  0  0  0
    4.2130   -4.7230   -1.4260 C   0  0  0  0  0  0  0  0  0  0  0  0
    3.0260   -4.9840   -1.1130 O   0  0  0  0  0  0  0  0  0  0  0  0
    5.0550   -3.7180   -0.7430 C   0  0  0  0  0  0  0  0  0  0  0  0
    4.3100   -3.0340    0.3890 C   0  0  2  0  0  0  0  0  0  0  0  0
    3.8670   -3.9410    1.4020 N   0  0  0  0  0  0  0  0  0  0  0  0
    3.1840   -2.2030   -0.1500 C   0  0  0  0  0  0  0  0  0  0  0  0
    3.4190   -1.3570   -1.0500 O   0  0  0  0  0  0  0  0  0  0  0  0
    4.2320   -5.7140   -3.3180 H   0  0  0  0  0  0  0  0  0  0  0  0
    5.8090   -5.6760   -2.4660 H   0  0  0  0  0  0  0  0  0  0  0  0
    5.9760   -4.1670   -0.3270 H   0  0  0  0  0  0  0  0  0  0  0  0
    5.2720   -2.9150   -1.4910 H   0  0  0  0  0  0  0  0  0  0  0  0
    5.0260   -2.3260    0.8560 H   0  0  0  0  0  0  0  0  0  0  0  0
    4.2380   -3.7600    2.3470 H   0  0  0  0  0  0  0  0  0  0  0  0
    3.8660   -4.9330    1.1150 H   0  0  0  0  0  0  0  0  0  0  0  0
   -1.3130   -1.9170   -1.6020 C   0  0  0  0  0  0  0  0  0  0  0  0
   -0.1440   -2.5240   -0.9000 C   0  0  1  0  0  0  0  0  0  0  0  0
    0.6540   -3.1230   -1.8970 O   0  0  0  0  0  0  0  0  0  0  0  0
    0.7610   -1.5190   -0.2160 C   0  0  2  0  0  0  0  0  0  0  0  0
    1.8690   -2.3350    0.3140 N   0  0  0  0  0  0  0  0  0  0  0  0
    0.1070   -0.8210    0.9150 C   0  0  0  0  0  0  0  0  0  0  0  0
    0.5280   -1.0110    2.1030 O   0  0  0  0  0  0  0  0  0  0  0  0
   -1.0640   -1.0010   -2.1710 H   0  0  0  0  0  0  0  0  0  0  0  0
   -1.6190   -2.6600   -2.3970 H   0  0  0  0  0  0  0  0  0  0  0  0
   -2.2040   -1.8300   -0.9570 H   0  0  0  0  0  0  0  0  0  0  0  0
   -0.4910   -3.2810   -0.1900 H   0  0  0  0  0  0  0  0  0  0  0  0
    0.6110   -2.6230   -2.7490 H   0  0  0  0  0  0  0  0  0  0  0  0
    1.1440   -0.8320   -0.9970 H   0  0  0  0  0  0  0  0  0  0  0  0
    1.6510   -3.0310    1.0600 H   0  0  0  0  0  0  0  0  0  0  0  0
   -0.9750    0.0590    0.7600 N   0  0  0  0  0  0  0  0  0  0  0  0
   -1.6140    0.7520    1.9430 C   0  0  1  0  0  0  0  0  0  0  0  0
   -1.3970    2.1970    1.6440 C   0  0  0  0  0  0  0  0  0  0  0  0
   -1.8090    3.2650    2.5260 C   0  0  0  0  0  0  0  0  0  0  0  0
   -3.1760    3.5430    2.9360 C   0  0  0  0  0  0  0  0  0  0  0  0
   -4.1740    3.7970    1.8390 C   0  0  0  0  0  0  0  0  0  0  0  0
   -5.4620    4.0500    2.4720 N   0  0  0  0  0  0  0  0  0  0  0  0
   -2.9950    0.2760    2.0210 C   0  0  0  0  0  0  0  0  0  0  0  0
   -3.4810   -0.4570    1.0770 O   0  0  0  0  0  0  0  0  0  0  0  0
   -3.8320    0.5620    3.0660 O   0  0  0  0  0  0  0  0  0  0  0  0
   -1.3690    0.2660   -0.1680 H   0  0  0  0  0  0  0  0  0  0  0  0
   -1.0290    0.3800    2.8050 H   0  0  0  0  0  0  0  0  0  0  0  0
   -1.6640    2.3730    0.5510 H   0  0  0  0  0  0  0  0  0  0  0  0
   -0.2490    2.2820    1.5640 H   0  0  0  0  0  0  0  0  0  0  0  0
   -1.3460    4.2460    2.1400 H   0  0  0  0  0  0  0  0  0  0  0  0
   -1.2050    3.1410    3.4990 H   0  0  0  0  0  0  0  0  0  0  0  0
   -3.1110    4.6050    3.4330 H   0  0  0  0  0  0  0  0  0  0  0  0
   -3.6300    2.9820    3.7610 H   0  0  0  0  0  0  0  0  0  0  0  0
   -3.9310    4.7300    1.2670 H   0  0  0  0  0  0  0  0  0  0  0  0
   -4.3130    2.9620    1.1550 H   0  0  0  0  0  0  0  0  0  0  0  0
   -6.1710    4.2120    1.7010 H   0  0  0  0  0  0  0  0  0  0  0  0
   -5.7490    3.1530    2.9280 H   0  0  0  0  0  0  0  0  0  0  0  0
  1 10  1  0  0  0  0
  1  2  1  0  0  0  0
  2  3  2  0  0  0  0
  2  4  1  0  0  0  0
  4 11  1  0  0  0  0
  4  5  1  0  0  0  0
  5 13  1  1  0  0  0
  5  6  1  0  0  0  0
  6 14  1  0  0  0  0
  7 20  1  0  0  0  0
  7  5  1  0  0  0  0
  8  7  2  0  0  0  0
  9  1  1  0  0  0  0
 12  4  1  0  0  0  0
 15  6  1  0  0  0  0
 16 25  1  0  0  0  0
 16 17  1  0  0  0  0
 17 19  1  0  0  0  0
 17 26  1  1  0  0  0
 18 17  1  0  0  0  0
 19 28  1  6  0  0  0
 19 20  1  0  0  0  0
 19 21  1  0  0  0  0
 20 29  1  0  0  0  0
 21 22  2  0  0  0  0
 23 16  1  0  0  0  0
 24 16  1  0  0  0  0
 27 18  1  0  0  0  0
 30 21  1  0  0  0  0
 30 31  1  0  0  0  0
 31 37  1  0  0  0  0
 31 41  1  1  0  0  0
 32 31  1  0  0  0  0
 32 33  1  0  0  0  0
 33 34  1  0  0  0  0
 33 45  1  0  0  0  0
 34 46  1  0  0  0  0
 34 47  1  0  0  0  0
 35 36  1  0  0  0  0
 35 34  1  0  0  0  0
 36 51  1  0  0  0  0
 37 39  1  0  0  0  0
 38 37  2  0  0  0  0
 40 30  1  0  0  0  0
 42 32  1  0  0  0  0
 43 32  1  0  0  0  0
 44 33  1  0  0  0  0
 48 35  1  0  0  0  0
 49 35  1  0  0  0  0
 50 36  1  0  0  0  0
M  END
$$$$
