NTL.pdb
 OpenBabel07022418113D

 49 48  0  0  1  0  0  0  0  0999 V2000
    5.6230   -3.3520   -1.4650 N   0  0  0  0  0  0  0  0  0  0  0  0
    5.3000   -2.0120   -1.1430 C   0  0  0  0  0  0  0  0  0  0  0  0
    6.1940   -1.1460   -1.3510 O   0  0  0  0  0  0  0  0  0  0  0  0
    3.9570   -1.6540   -0.5830 C   0  0  0  0  0  0  0  0  0  0  0  0
    3.9510   -0.1640   -0.3580 C   0  0  2  0  0  0  0  0  0  0  0  0
    4.9990    0.1680    0.5690 N   0  0  0  0  0  0  0  0  0  0  0  0
    2.6400    0.3030    0.1610 C   0  0  0  0  0  0  0  0  0  0  0  0
    2.5940    0.8890    1.2650 O   0  0  0  0  0  0  0  0  0  0  0  0
    5.2240   -4.1100   -0.8810 H   0  0  0  0  0  0  0  0  0  0  0  0
    6.2430   -3.5620   -2.2660 H   0  0  0  0  0  0  0  0  0  0  0  0
    3.8620   -2.1920    0.3660 H   0  0  0  0  0  0  0  0  0  0  0  0
    3.1790   -1.9810   -1.2990 H   0  0  0  0  0  0  0  0  0  0  0  0
    4.1660    0.3680   -1.3050 H   0  0  0  0  0  0  0  0  0  0  0  0
    5.0080    1.1610    0.8520 H   0  0  0  0  0  0  0  0  0  0  0  0
    5.1440   -0.5140    1.3210 H   0  0  0  0  0  0  0  0  0  0  0  0
    0.7160    2.6990   -1.0220 C   0  0  0  0  0  0  0  0  0  0  0  0
   -0.3610    1.6260   -0.9770 C   0  0  1  0  0  0  0  0  0  0  0  0
   -0.5140    1.1800   -2.2810 O   0  0  0  0  0  0  0  0  0  0  0  0
    0.1350    0.5650   -0.0440 C   0  0  2  0  0  0  0  0  0  0  0  0
    1.4230    0.1180   -0.5330 N   0  0  0  0  0  0  0  0  0  0  0  0
   -0.7560   -0.5590    0.1680 C   0  0  0  0  0  0  0  0  0  0  0  0
   -0.3420   -1.7190   -0.0790 O   0  0  0  0  0  0  0  0  0  0  0  0
    1.1770    2.8650   -0.0240 H   0  0  0  0  0  0  0  0  0  0  0  0
    1.5650    2.3840   -1.6920 H   0  0  0  0  0  0  0  0  0  0  0  0
    0.2870    3.6680   -1.3350 H   0  0  0  0  0  0  0  0  0  0  0  0
   -1.2810    2.1220   -0.5940 H   0  0  0  0  0  0  0  0  0  0  0  0
   -1.3480    1.6250   -2.6310 H   0  0  0  0  0  0  0  0  0  0  0  0
    0.3090    1.0580    0.9430 H   0  0  0  0  0  0  0  0  0  0  0  0
    1.4520   -0.3650   -1.4450 H   0  0  0  0  0  0  0  0  0  0  0  0
   -3.4330   -2.0240    4.6490 C   0  0  0  0  0  0  0  0  0  0  0  0
   -2.6300   -1.8710    3.3410 C   0  0  0  0  0  0  0  0  0  0  0  0
   -1.8300   -0.5910    3.5180 C   0  0  0  0  0  0  0  0  0  0  0  0
   -3.5800   -1.7030    2.2000 C   0  0  0  0  0  0  0  0  0  0  0  0
   -2.9720   -1.5590    0.8520 C   0  0  2  0  0  0  0  0  0  0  0  0
   -2.1010   -0.4540    0.6460 N   0  0  0  0  0  0  0  0  0  0  0  0
   -4.0900   -1.4820   -0.1430 C   0  0  0  0  0  0  0  0  0  0  0  0
   -5.0110   -2.3270   -0.1960 O   0  0  0  0  0  0  0  0  0  0  0  0
   -4.1010   -0.4310   -1.0360 O   0  0  0  0  0  0  0  0  0  0  0  0
   -4.3600   -1.4270    4.5060 H   0  0  0  0  0  0  0  0  0  0  0  0
   -2.8390   -1.6590    5.4880 H   0  0  0  0  0  0  0  0  0  0  0  0
   -3.7380   -3.0760    4.8030 H   0  0  0  0  0  0  0  0  0  0  0  0
   -1.9960   -2.7590    3.2690 H   0  0  0  0  0  0  0  0  0  0  0  0
   -0.8390   -0.6240    3.0270 H   0  0  0  0  0  0  0  0  0  0  0  0
   -2.3840    0.3080    3.1890 H   0  0  0  0  0  0  0  0  0  0  0  0
   -1.6430   -0.4060    4.6210 H   0  0  0  0  0  0  0  0  0  0  0  0
   -4.2250   -2.6330    2.1630 H   0  0  0  0  0  0  0  0  0  0  0  0
   -4.3290   -0.8900    2.3890 H   0  0  0  0  0  0  0  0  0  0  0  0
   -2.4840   -2.5430    0.6220 H   0  0  0  0  0  0  0  0  0  0  0  0
   -2.4220    0.5200    0.8360 H   0  0  0  0  0  0  0  0  0  0  0  0
  1  2  1  0  0  0  0
  1  9  1  0  0  0  0
  2  4  1  0  0  0  0
  3  2  2  0  0  0  0
  4  5  1  0  0  0  0
  4 11  1  0  0  0  0
  5 13  1  6  0  0  0
  5  7  1  0  0  0  0
  5  6  1  0  0  0  0
  6 14  1  0  0  0  0
  6 15  1  0  0  0  0
  7  8  2  0  0  0  0
 10  1  1  0  0  0  0
 12  4  1  0  0  0  0
 16 17  1  0  0  0  0
 16 23  1  0  0  0  0
 17 26  1  1  0  0  0
 17 19  1  0  0  0  0
 18 17  1  0  0  0  0
 19 21  1  0  0  0  0
 19 28  1  1  0  0  0
 20 19  1  0  0  0  0
 20  7  1  0  0  0  0
 21 35  1  0  0  0  0
 22 21  2  0  0  0  0
 24 16  1  0  0  0  0
 25 16  1  0  0  0  0
 27 18  1  0  0  0  0
 29 20  1  0  0  0  0
 30 41  1  0  0  0  0
 30 40  1  0  0  0  0
 31 32  1  0  0  0  0
 31 30  1  0  0  0  0
 32 45  1  0  0  0  0
 33 47  1  0  0  0  0
 33 31  1  0  0  0  0
 34 48  1  6  0  0  0
 34 33  1  0  0  0  0
 35 49  1  0  0  0  0
 35 34  1  0  0  0  0
 36 34  1  0  0  0  0
 37 36  1  0  0  0  0
 38 36  2  0  0  0  0
 39 30  1  0  0  0  0
 42 31  1  0  0  0  0
 43 32  1  0  0  0  0
 44 32  1  0  0  0  0
 46 33  1  0  0  0  0
M  END
$$$$
