NTM.pdb
 OpenBabel07022418113D

 47 46  0  0  1  0  0  0  0  0999 V2000
   -4.2320   -0.5620   -4.5570 N   0  0  0  0  0  0  0  0  0  0  0  0
   -3.0020    0.1010   -4.6350 C   0  0  0  0  0  0  0  0  0  0  0  0
   -2.6180    0.5630   -5.7420 O   0  0  0  0  0  0  0  0  0  0  0  0
   -2.0910    0.3060   -3.4800 C   0  0  0  0  0  0  0  0  0  0  0  0
   -2.6520   -0.2790   -2.2100 C   0  0  2  0  0  0  0  0  0  0  0  0
   -3.9020    0.2940   -1.8440 N   0  0  0  0  0  0  0  0  0  0  0  0
   -1.6420   -0.1720   -1.0910 C   0  0  0  0  0  0  0  0  0  0  0  0
   -1.9660    0.3750   -0.0270 O   0  0  0  0  0  0  0  0  0  0  0  0
   -4.3610   -1.4480   -4.0340 H   0  0  0  0  0  0  0  0  0  0  0  0
   -5.0590   -0.1570   -5.0420 H   0  0  0  0  0  0  0  0  0  0  0  0
   -1.9530    1.4160   -3.3940 H   0  0  0  0  0  0  0  0  0  0  0  0
   -1.1240   -0.1630   -3.7550 H   0  0  0  0  0  0  0  0  0  0  0  0
   -2.7860   -1.3660   -2.3760 H   0  0  0  0  0  0  0  0  0  0  0  0
   -4.3620    0.8490   -2.5730 H   0  0  0  0  0  0  0  0  0  0  0  0
   -3.7980    0.7800   -0.9270 H   0  0  0  0  0  0  0  0  0  0  0  0
    0.6650    1.8450   -0.1180 C   0  0  0  0  0  0  0  0  0  0  0  0
    1.5070    0.5940   -0.2680 C   0  0  1  0  0  0  0  0  0  0  0  0
    2.5260    0.6450    0.6610 O   0  0  0  0  0  0  0  0  0  0  0  0
    0.7180   -0.6580   -0.2470 C   0  0  2  0  0  0  0  0  0  0  0  0
   -0.3330   -0.6860   -1.2390 N   0  0  0  0  0  0  0  0  0  0  0  0
    0.2670   -1.1350    1.0800 C   0  0  0  0  0  0  0  0  0  0  0  0
   -0.9390   -1.5060    1.2480 O   0  0  0  0  0  0  0  0  0  0  0  0
   -0.0000    2.0300   -0.9770 H   0  0  0  0  0  0  0  0  0  0  0  0
    1.3380    2.7530   -0.0880 H   0  0  0  0  0  0  0  0  0  0  0  0
    0.1560    1.8600    0.8680 H   0  0  0  0  0  0  0  0  0  0  0  0
    2.0270    0.7380   -1.2670 H   0  0  0  0  0  0  0  0  0  0  0  0
    2.6650    1.5760    1.0200 H   0  0  0  0  0  0  0  0  0  0  0  0
    1.4200   -1.5000   -0.5830 H   0  0  0  0  0  0  0  0  0  0  0  0
   -0.1640   -1.1250   -2.2010 H   0  0  0  0  0  0  0  0  0  0  0  0
    3.6440   -0.5310    4.9980 C   0  0  0  0  0  0  0  0  0  0  0  0
    3.4450   -2.2690    5.2930 S   0  0  0  0  0  0  0  0  0  0  0  0
    2.5810   -3.2180    4.0790 C   0  0  0  0  0  0  0  0  0  0  0  0
    1.1280   -3.0220    3.9380 C   0  0  0  0  0  0  0  0  0  0  0  0
    0.5830   -1.7070    3.5420 C   0  0  2  0  0  0  0  0  0  0  0  0
    1.0640   -1.2350    2.2460 N   0  0  0  0  0  0  0  0  0  0  0  0
    0.5330   -0.6570    4.5600 C   0  0  0  0  0  0  0  0  0  0  0  0
    0.7850    0.5410    4.2000 O   0  0  0  0  0  0  0  0  0  0  0  0
    0.2330   -0.8660    5.8890 O   0  0  0  0  0  0  0  0  0  0  0  0
    3.0540    0.1320    5.6960 H   0  0  0  0  0  0  0  0  0  0  0  0
    3.3990   -0.2150    3.9730 H   0  0  0  0  0  0  0  0  0  0  0  0
    4.7160   -0.2400    5.2480 H   0  0  0  0  0  0  0  0  0  0  0  0
    2.7190   -4.3150    4.3670 H   0  0  0  0  0  0  0  0  0  0  0  0
    3.1080   -3.2000    3.0620 H   0  0  0  0  0  0  0  0  0  0  0  0
    0.7540   -3.8160    3.2100 H   0  0  0  0  0  0  0  0  0  0  0  0
    0.6490   -3.3740    4.9050 H   0  0  0  0  0  0  0  0  0  0  0  0
   -0.5390   -1.9520    3.3050 H   0  0  0  0  0  0  0  0  0  0  0  0
    2.0810   -0.9510    2.1390 H   0  0  0  0  0  0  0  0  0  0  0  0
  1  9  1  0  0  0  0
  2  1  1  0  0  0  0
  2  4  1  0  0  0  0
  3  2  2  0  0  0  0
  4 11  1  0  0  0  0
  4  5  1  0  0  0  0
  5 13  1  6  0  0  0
  5  6  1  0  0  0  0
  5  7  1  0  0  0  0
  6 15  1  0  0  0  0
  7  8  2  0  0  0  0
 10  1  1  0  0  0  0
 12  4  1  0  0  0  0
 14  6  1  0  0  0  0
 16 24  1  0  0  0  0
 16 25  1  0  0  0  0
 17 26  1  6  0  0  0
 17 19  1  0  0  0  0
 17 16  1  0  0  0  0
 17 18  1  0  0  0  0
 18 27  1  0  0  0  0
 19 28  1  6  0  0  0
 19 21  1  0  0  0  0
 20  7  1  0  0  0  0
 20 19  1  0  0  0  0
 21 22  2  0  0  0  0
 21 35  1  0  0  0  0
 23 16  1  0  0  0  0
 29 20  1  0  0  0  0
 30 41  1  0  0  0  0
 30 31  1  0  0  0  0
 30 39  1  0  0  0  0
 32 42  1  0  0  0  0
 32 31  1  0  0  0  0
 33 32  1  0  0  0  0
 33 45  1  0  0  0  0
 34 46  1  6  0  0  0
 34 33  1  0  0  0  0
 34 36  1  0  0  0  0
 35 34  1  0  0  0  0
 36 38  1  0  0  0  0
 37 36  2  0  0  0  0
 40 30  1  0  0  0  0
 43 32  1  0  0  0  0
 44 33  1  0  0  0  0
 47 35  1  0  0  0  0
M  END
$$$$
