NTP.pdb
 OpenBabel07022418113D

 44 44  0  0  1  0  0  0  0  0999 V2000
    1.3350   -5.7180    0.8370 N   0  0  0  0  0  0  0  0  0  0  0  0
    1.6670   -4.5510    0.1000 C   0  0  0  0  0  0  0  0  0  0  0  0
    2.3170   -4.6090   -0.9910 O   0  0  0  0  0  0  0  0  0  0  0  0
    1.2360   -3.2330    0.6360 C   0  0  0  0  0  0  0  0  0  0  0  0
    2.4870   -2.4000    0.7830 C   0  0  2  0  0  0  0  0  0  0  0  0
    3.4190   -3.0630    1.7080 N   0  0  0  0  0  0  0  0  0  0  0  0
    2.2780   -1.0020    1.1330 C   0  0  0  0  0  0  0  0  0  0  0  0
    2.8690   -0.5790    2.1920 O   0  0  0  0  0  0  0  0  0  0  0  0
    1.8580   -5.8720    1.7330 H   0  0  0  0  0  0  0  0  0  0  0  0
    0.6180   -6.3860    0.5110 H   0  0  0  0  0  0  0  0  0  0  0  0
    0.6550   -3.3900    1.5310 H   0  0  0  0  0  0  0  0  0  0  0  0
    0.6130   -2.7790   -0.1760 H   0  0  0  0  0  0  0  0  0  0  0  0
    3.0130   -2.4370   -0.2070 H   0  0  0  0  0  0  0  0  0  0  0  0
    4.0930   -2.3700    2.0560 H   0  0  0  0  0  0  0  0  0  0  0  0
    2.9650   -3.5890    2.4550 H   0  0  0  0  0  0  0  0  0  0  0  0
    1.1470    2.1890   -1.4490 C   0  0  0  0  0  0  0  0  0  0  0  0
    1.9140    2.2910   -0.1360 C   0  0  1  0  0  0  0  0  0  0  0  0
    1.7420    3.5780    0.3510 O   0  0  0  0  0  0  0  0  0  0  0  0
    1.3680    1.2920    0.8680 C   0  0  2  0  0  0  0  0  0  0  0  0
    1.5020   -0.0550    0.4420 N   0  0  0  0  0  0  0  0  0  0  0  0
    0.0170    1.7440    1.2440 C   0  0  0  0  0  0  0  0  0  0  0  0
   -0.0460    2.9960    1.5360 O   0  0  0  0  0  0  0  0  0  0  0  0
    1.2820    1.1830   -1.8710 H   0  0  0  0  0  0  0  0  0  0  0  0
    0.0570    2.3520   -1.3170 H   0  0  0  0  0  0  0  0  0  0  0  0
    1.4860    2.9760   -2.1360 H   0  0  0  0  0  0  0  0  0  0  0  0
    2.9790    2.1240   -0.3690 H   0  0  0  0  0  0  0  0  0  0  0  0
    2.4570    4.1440   -0.0060 H   0  0  0  0  0  0  0  0  0  0  0  0
    2.0430    1.4180    1.7780 H   0  0  0  0  0  0  0  0  0  0  0  0
    1.0190   -0.3710   -0.4300 H   0  0  0  0  0  0  0  0  0  0  0  0
   -1.1630    1.0040    1.3190 N   0  0  0  0  0  0  0  0  0  0  0  0
   -2.4540    1.6270    1.6920 C   0  0  0  0  0  0  0  0  0  0  0  0
   -3.1350    0.5910    2.5280 C   0  0  0  0  0  0  0  0  0  0  0  0
   -2.3900   -0.7000    2.2900 C   0  0  0  0  0  0  0  0  0  0  0  0
   -1.4910   -0.3700    1.1160 C   0  0  1  0  0  0  0  0  0  0  0  0
   -2.2760   -0.6320   -0.1220 C   0  0  0  0  0  0  0  0  0  0  0  0
   -2.6740   -1.7760   -0.4270 O   0  0  0  0  0  0  0  0  0  0  0  0
   -2.6080    0.4020   -1.0120 O   0  0  0  0  0  0  0  0  0  0  0  0
   -2.9570    1.8700    0.7590 H   0  0  0  0  0  0  0  0  0  0  0  0
   -2.2900    2.5850    2.2320 H   0  0  0  0  0  0  0  0  0  0  0  0
   -4.2260    0.5020    2.2850 H   0  0  0  0  0  0  0  0  0  0  0  0
   -3.0440    0.8960    3.6150 H   0  0  0  0  0  0  0  0  0  0  0  0
   -3.0920   -1.5300    2.0790 H   0  0  0  0  0  0  0  0  0  0  0  0
   -1.8160   -0.9470    3.2090 H   0  0  0  0  0  0  0  0  0  0  0  0
   -0.6190   -1.0590    1.0790 H   0  0  0  0  0  0  0  0  0  0  0  0
  1  9  1  0  0  0  0
  2  4  1  0  0  0  0
  2  1  1  0  0  0  0
  3  2  2  0  0  0  0
  4  5  1  0  0  0  0
  4 11  1  0  0  0  0
  5 13  1  6  0  0  0
  5  7  1  0  0  0  0
  5  6  1  0  0  0  0
  6 14  1  0  0  0  0
  6 15  1  0  0  0  0
  7  8  2  0  0  0  0
 10  1  1  0  0  0  0
 12  4  1  0  0  0  0
 16 24  1  0  0  0  0
 16 17  1  0  0  0  0
 17 26  1  6  0  0  0
 17 18  1  0  0  0  0
 17 19  1  0  0  0  0
 19 21  1  0  0  0  0
 19 28  1  1  0  0  0
 20 19  1  0  0  0  0
 20  7  1  0  0  0  0
 21 30  1  0  0  0  0
 21 22  2  0  0  0  0
 23 16  1  0  0  0  0
 25 16  1  0  0  0  0
 27 18  1  0  0  0  0
 29 20  1  0  0  0  0
 30 31  1  0  0  0  0
 31 39  1  0  0  0  0
 31 32  1  0  0  0  0
 32 41  1  0  0  0  0
 33 32  1  0  0  0  0
 33 43  1  0  0  0  0
 34 44  1  1  0  0  0
 34 30  1  0  0  0  0
 34 33  1  0  0  0  0
 35 34  1  0  0  0  0
 36 35  1  0  0  0  0
 37 35  2  0  0  0  0
 38 31  1  0  0  0  0
 40 32  1  0  0  0  0
 42 33  1  0  0  0  0
M  END
$$$$
