NTQ.pdb
 OpenBabel07022418113D

 47 46  0  0  1  0  0  0  0  0999 V2000
    2.2690   -4.7170    1.4200 N   0  0  0  0  0  0  0  0  0  0  0  0
    2.1580   -3.6510    2.3570 C   0  0  0  0  0  0  0  0  0  0  0  0
    2.9140   -3.6780    3.3590 O   0  0  0  0  0  0  0  0  0  0  0  0
    1.1930   -2.5350    2.1860 C   0  0  0  0  0  0  0  0  0  0  0  0
    1.3190   -1.5860    3.3260 C   0  0  2  0  0  0  0  0  0  0  0  0
    1.0500   -2.2080    4.6090 N   0  0  0  0  0  0  0  0  0  0  0  0
    0.5290   -0.3660    3.1980 C   0  0  0  0  0  0  0  0  0  0  0  0
   -0.2390    0.0070    4.1120 O   0  0  0  0  0  0  0  0  0  0  0  0
    1.6340   -5.5530    1.5160 H   0  0  0  0  0  0  0  0  0  0  0  0
    2.9420   -4.7360    0.6330 H   0  0  0  0  0  0  0  0  0  0  0  0
    1.4170   -1.9890    1.2530 H   0  0  0  0  0  0  0  0  0  0  0  0
    0.1950   -2.9790    2.0680 H   0  0  0  0  0  0  0  0  0  0  0  0
    2.4040   -1.2720    3.3660 H   0  0  0  0  0  0  0  0  0  0  0  0
    0.0260   -2.1110    4.8800 H   0  0  0  0  0  0  0  0  0  0  0  0
    1.5700   -1.7420    5.3860 H   0  0  0  0  0  0  0  0  0  0  0  0
    0.0220    4.1440    1.6060 C   0  0  0  0  0  0  0  0  0  0  0  0
    0.7510    2.8490    1.7500 C   0  0  1  0  0  0  0  0  0  0  0  0
    1.5430    2.9260    2.8940 O   0  0  0  0  0  0  0  0  0  0  0  0
   -0.1760    1.6620    1.8830 C   0  0  2  0  0  0  0  0  0  0  0  0
    0.6000    0.4540    2.0210 N   0  0  0  0  0  0  0  0  0  0  0  0
   -1.0830    1.5400    0.7170 C   0  0  0  0  0  0  0  0  0  0  0  0
   -1.8740    2.4480    0.3650 O   0  0  0  0  0  0  0  0  0  0  0  0
   -0.4120    4.3080    0.6030 H   0  0  0  0  0  0  0  0  0  0  0  0
   -0.8040    4.2180    2.3670 H   0  0  0  0  0  0  0  0  0  0  0  0
    0.7490    4.9650    1.7750 H   0  0  0  0  0  0  0  0  0  0  0  0
    1.4120    2.7260    0.8680 H   0  0  0  0  0  0  0  0  0  0  0  0
    2.4950    2.7270    2.6920 H   0  0  0  0  0  0  0  0  0  0  0  0
   -0.7770    1.7940    2.8040 H   0  0  0  0  0  0  0  0  0  0  0  0
    1.2570    0.1020    1.2820 H   0  0  0  0  0  0  0  0  0  0  0  0
    0.2970   -3.4730   -2.0540 N   0  0  0  0  0  0  0  0  0  0  0  0
   -0.7120   -2.4790   -2.3970 C   0  0  0  0  0  0  0  0  0  0  0  0
   -1.8430   -2.9530   -2.5680 O   0  0  0  0  0  0  0  0  0  0  0  0
   -0.2360   -1.1130   -2.4860 C   0  0  0  0  0  0  0  0  0  0  0  0
   -1.1690    0.0230   -2.4720 C   0  0  0  0  0  0  0  0  0  0  0  0
   -1.9810    0.2100   -1.2280 C   0  0  2  0  0  0  0  0  0  0  0  0
   -1.0850    0.3500   -0.0640 N   0  0  0  0  0  0  0  0  0  0  0  0
   -2.9210   -0.8660   -0.9930 C   0  0  0  0  0  0  0  0  0  0  0  0
   -2.8050   -1.6140    0.0050 O   0  0  0  0  0  0  0  0  0  0  0  0
   -4.0030   -1.1230   -1.8540 O   0  0  0  0  0  0  0  0  0  0  0  0
    0.1690   -4.1560   -1.2900 H   0  0  0  0  0  0  0  0  0  0  0  0
    1.1610   -3.4610   -2.6210 H   0  0  0  0  0  0  0  0  0  0  0  0
    0.4480   -1.0830   -3.3950 H   0  0  0  0  0  0  0  0  0  0  0  0
    0.4470   -0.9690   -1.5890 H   0  0  0  0  0  0  0  0  0  0  0  0
   -0.6100    1.0010   -2.6480 H   0  0  0  0  0  0  0  0  0  0  0  0
   -1.8620   -0.0560   -3.3600 H   0  0  0  0  0  0  0  0  0  0  0  0
   -2.5770    1.1820   -1.3040 H   0  0  0  0  0  0  0  0  0  0  0  0
   -0.4390   -0.4220    0.2050 H   0  0  0  0  0  0  0  0  0  0  0  0
  1  9  1  0  0  0  0
  1  2  1  0  0  0  0
  2  3  2  0  0  0  0
  4  2  1  0  0  0  0
  4  5  1  0  0  0  0
  5 13  1  1  0  0  0
  5  6  1  0  0  0  0
  6 14  1  0  0  0  0
  6 15  1  0  0  0  0
  7  5  1  0  0  0  0
  7  8  2  0  0  0  0
 10  1  1  0  0  0  0
 11  4  1  0  0  0  0
 12  4  1  0  0  0  0
 16 17  1  0  0  0  0
 16 25  1  0  0  0  0
 16 24  1  0  0  0  0
 17 26  1  6  0  0  0
 17 19  1  0  0  0  0
 17 18  1  0  0  0  0
 19 20  1  0  0  0  0
 19 28  1  1  0  0  0
 20  7  1  0  0  0  0
 21 19  1  0  0  0  0
 22 21  2  0  0  0  0
 23 16  1  0  0  0  0
 27 18  1  0  0  0  0
 29 20  1  0  0  0  0
 30 40  1  0  0  0  0
 31 30  1  0  0  0  0
 32 31  2  0  0  0  0
 33 34  1  0  0  0  0
 33 31  1  0  0  0  0
 33 43  1  0  0  0  0
 34 35  1  0  0  0  0
 35 46  1  6  0  0  0
 35 37  1  0  0  0  0
 35 36  1  0  0  0  0
 36 47  1  0  0  0  0
 36 21  1  0  0  0  0
 37 38  1  0  0  0  0
 39 37  2  0  0  0  0
 41 30  1  0  0  0  0
 42 33  1  0  0  0  0
 44 34  1  0  0  0  0
 45 34  1  0  0  0  0
M  END
$$$$
