NTR.pdb
 OpenBabel07022418113D

 53 52  0  0  1  0  0  0  0  0999 V2000
    3.1920   -2.4680    6.3870 N   0  0  0  0  0  0  0  0  0  0  0  0
    2.5230   -2.4180    5.1440 C   0  0  0  0  0  0  0  0  0  0  0  0
    2.1560   -3.5320    4.6550 O   0  0  0  0  0  0  0  0  0  0  0  0
    2.2430   -1.1540    4.4150 C   0  0  0  0  0  0  0  0  0  0  0  0
    1.5020   -1.4800    3.1310 C   0  0  2  0  0  0  0  0  0  0  0  0
    2.3020   -2.3290    2.3280 N   0  0  0  0  0  0  0  0  0  0  0  0
    0.9600   -0.2970    2.4710 C   0  0  0  0  0  0  0  0  0  0  0  0
    0.2560    0.4950    3.1480 O   0  0  0  0  0  0  0  0  0  0  0  0
    4.1600   -2.1220    6.5170 H   0  0  0  0  0  0  0  0  0  0  0  0
    2.6860   -2.8730    7.2070 H   0  0  0  0  0  0  0  0  0  0  0  0
    1.6530   -0.5030    5.0900 H   0  0  0  0  0  0  0  0  0  0  0  0
    3.1980   -0.6910    4.1170 H   0  0  0  0  0  0  0  0  0  0  0  0
    0.6100   -2.0900    3.4690 H   0  0  0  0  0  0  0  0  0  0  0  0
    1.8340   -3.0930    1.8390 H   0  0  0  0  0  0  0  0  0  0  0  0
    3.1030   -1.9000    1.8550 H   0  0  0  0  0  0  0  0  0  0  0  0
    2.9310    1.4990   -0.6350 C   0  0  0  0  0  0  0  0  0  0  0  0
    1.8040    2.1250    0.1200 C   0  0  1  0  0  0  0  0  0  0  0  0
    1.2560    3.2260   -0.5350 O   0  0  0  0  0  0  0  0  0  0  0  0
    0.6640    1.1660    0.4210 C   0  0  2  0  0  0  0  0  0  0  0  0
    1.1800    0.0190    1.0920 N   0  0  0  0  0  0  0  0  0  0  0  0
   -0.0830    0.8220   -0.8120 C   0  0  0  0  0  0  0  0  0  0  0  0
   -0.5580    1.7140   -1.5520 O   0  0  0  0  0  0  0  0  0  0  0  0
    3.2860    2.2230   -1.4200 H   0  0  0  0  0  0  0  0  0  0  0  0
    2.6810    0.5570   -1.1490 H   0  0  0  0  0  0  0  0  0  0  0  0
    3.8370    1.3360    0.0120 H   0  0  0  0  0  0  0  0  0  0  0  0
    2.1970    2.4800    1.0930 H   0  0  0  0  0  0  0  0  0  0  0  0
    1.5190    3.1770   -1.4680 H   0  0  0  0  0  0  0  0  0  0  0  0
   -0.0110    1.7190    1.1010 H   0  0  0  0  0  0  0  0  0  0  0  0
    1.7820   -0.6930    0.5860 H   0  0  0  0  0  0  0  0  0  0  0  0
   -3.3410   -3.7120    0.6420 N   0  0  0  0  0  0  0  0  0  0  0  0
   -3.0070   -2.3410    0.7300 C   0  0  0  0  0  0  0  0  0  0  0  0
   -1.8260   -2.0110    1.1710 N   0  0  0  0  0  0  0  0  0  0  0  0
   -3.9400   -1.3490    0.3590 N   0  0  0  0  0  0  0  0  0  0  0  0
   -3.6170   -0.2630   -0.5490 C   0  0  0  0  0  0  0  0  0  0  0  0
   -3.4140   -0.6790   -1.9540 C   0  0  0  0  0  0  0  0  0  0  0  0
   -2.2850   -1.5280   -2.3330 C   0  0  0  0  0  0  0  0  0  0  0  0
   -0.9110   -1.0160   -2.3070 C   0  0  2  0  0  0  0  0  0  0  0  0
   -0.2680   -0.5320   -1.1740 N   0  0  0  0  0  0  0  0  0  0  0  0
   -0.6190   -0.2320   -3.5850 C   0  0  0  0  0  0  0  0  0  0  0  0
    0.2260    0.6410   -3.5910 O   0  0  0  0  0  0  0  0  0  0  0  0
   -1.3500   -0.5670   -4.6930 O   0  0  0  0  0  0  0  0  0  0  0  0
   -4.3200   -4.0040    0.7870 H   0  0  0  0  0  0  0  0  0  0  0  0
   -2.6200   -4.4180    0.4370 H   0  0  0  0  0  0  0  0  0  0  0  0
   -1.5120   -1.0380    1.2620 H   0  0  0  0  0  0  0  0  0  0  0  0
   -4.9210   -1.4450    0.7840 H   0  0  0  0  0  0  0  0  0  0  0  0
   -4.4880    0.4660   -0.4530 H   0  0  0  0  0  0  0  0  0  0  0  0
   -2.7520    0.3300   -0.1640 H   0  0  0  0  0  0  0  0  0  0  0  0
   -4.3630   -1.2580   -2.2520 H   0  0  0  0  0  0  0  0  0  0  0  0
   -3.5150    0.2380   -2.6270 H   0  0  0  0  0  0  0  0  0  0  0  0
   -2.2900   -2.4560   -1.6730 H   0  0  0  0  0  0  0  0  0  0  0  0
   -2.4340   -1.9930   -3.3660 H   0  0  0  0  0  0  0  0  0  0  0  0
   -0.2570   -1.9710   -2.5970 H   0  0  0  0  0  0  0  0  0  0  0  0
    0.1540   -1.2580   -0.4950 H   0  0  0  0  0  0  0  0  0  0  0  0
  1  9  1  0  0  0  0
  1 10  1  0  0  0  0
  2  1  1  0  0  0  0
  3  2  2  0  0  0  0
  4 11  1  0  0  0  0
  4  2  1  0  0  0  0
  5 13  1  1  0  0  0
  5  4  1  0  0  0  0
  6  5  1  0  0  0  0
  7  5  1  0  0  0  0
  7  8  2  0  0  0  0
 12  4  1  0  0  0  0
 14  6  1  0  0  0  0
 15  6  1  0  0  0  0
 16 25  1  0  0  0  0
 16 17  1  0  0  0  0
 17 19  1  0  0  0  0
 17 26  1  1  0  0  0
 18 17  1  0  0  0  0
 19 20  1  0  0  0  0
 19 28  1  1  0  0  0
 20  7  1  0  0  0  0
 21 19  1  0  0  0  0
 22 21  2  0  0  0  0
 23 16  1  0  0  0  0
 24 16  1  0  0  0  0
 27 18  1  0  0  0  0
 29 20  1  0  0  0  0
 30 31  1  0  0  0  0
 30 42  1  0  0  0  0
 31 32  2  0  0  0  0
 32 44  1  0  0  0  0
 33 31  1  0  0  0  0
 33 45  1  0  0  0  0
 34 46  1  0  0  0  0
 34 47  1  0  0  0  0
 34 33  1  0  0  0  0
 35 34  1  0  0  0  0
 36 37  1  0  0  0  0
 36 35  1  0  0  0  0
 36 50  1  0  0  0  0
 37 52  1  6  0  0  0
 37 38  1  0  0  0  0
 38 21  1  0  0  0  0
 38 53  1  0  0  0  0
 39 37  1  0  0  0  0
 40 39  1  0  0  0  0
 41 39  2  0  0  0  0
 43 30  1  0  0  0  0
 48 35  1  0  0  0  0
 49 35  1  0  0  0  0
 51 36  1  0  0  0  0
M  END
$$$$
