NTS.pdb
 OpenBabel07022418113D

 41 40  0  0  1  0  0  0  0  0999 V2000
   -3.7540   -4.3680   -1.4140 N   0  0  0  0  0  0  0  0  0  0  0  0
   -3.3160   -3.0210   -1.5680 C   0  0  0  0  0  0  0  0  0  0  0  0
   -4.2120   -2.1470   -1.6770 O   0  0  0  0  0  0  0  0  0  0  0  0
   -1.8650   -2.7150   -1.5930 C   0  0  0  0  0  0  0  0  0  0  0  0
   -1.4950   -2.0990   -0.2490 C   0  0  2  0  0  0  0  0  0  0  0  0
   -2.2730   -0.9060   -0.0890 N   0  0  0  0  0  0  0  0  0  0  0  0
   -0.0420   -1.9100   -0.1230 C   0  0  0  0  0  0  0  0  0  0  0  0
    0.7150   -2.9330   -0.2170 O   0  0  0  0  0  0  0  0  0  0  0  0
   -3.5910   -5.0530   -2.1950 H   0  0  0  0  0  0  0  0  0  0  0  0
   -4.2320   -4.7480   -0.5770 H   0  0  0  0  0  0  0  0  0  0  0  0
   -1.6480   -2.0370   -2.4360 H   0  0  0  0  0  0  0  0  0  0  0  0
   -1.2700   -3.6310   -1.7770 H   0  0  0  0  0  0  0  0  0  0  0  0
   -1.8480   -2.8360    0.5260 H   0  0  0  0  0  0  0  0  0  0  0  0
   -3.2510   -1.1840    0.2060 H   0  0  0  0  0  0  0  0  0  0  0  0
   -1.8500   -0.3410    0.6870 H   0  0  0  0  0  0  0  0  0  0  0  0
    2.5120   -0.4910   -2.2440 C   0  0  0  0  0  0  0  0  0  0  0  0
    2.6460    0.2550   -0.9390 C   0  0  1  0  0  0  0  0  0  0  0  0
    2.1450    1.5290   -0.9900 O   0  0  0  0  0  0  0  0  0  0  0  0
    2.0400   -0.5460    0.2160 C   0  0  2  0  0  0  0  0  0  0  0  0
    0.5980   -0.6640    0.0990 N   0  0  0  0  0  0  0  0  0  0  0  0
    2.4660    0.0590    1.4980 C   0  0  0  0  0  0  0  0  0  0  0  0
    3.6880    0.1560    1.7320 O   0  0  0  0  0  0  0  0  0  0  0  0
    3.2810   -1.2990   -2.3500 H   0  0  0  0  0  0  0  0  0  0  0  0
    2.6510    0.1690   -3.1190 H   0  0  0  0  0  0  0  0  0  0  0  0
    1.5160   -0.9990   -2.3120 H   0  0  0  0  0  0  0  0  0  0  0  0
    3.7490    0.3540   -0.7150 H   0  0  0  0  0  0  0  0  0  0  0  0
    1.1960    1.5490   -0.7240 H   0  0  0  0  0  0  0  0  0  0  0  0
    2.5270   -1.5470    0.1470 H   0  0  0  0  0  0  0  0  0  0  0  0
    0.0190    0.1880    0.1800 H   0  0  0  0  0  0  0  0  0  0  0  0
    2.1980    3.3830    2.9080 O   0  0  0  0  0  0  0  0  0  0  0  0
    1.6370    2.5700    3.8960 C   0  0  0  0  0  0  0  0  0  0  0  0
    2.0070    1.1270    3.7290 C   0  0  2  0  0  0  0  0  0  0  0  0
    1.5890    0.5460    2.4950 N   0  0  0  0  0  0  0  0  0  0  0  0
    1.4900    0.3700    4.8890 C   0  0  0  0  0  0  0  0  0  0  0  0
    1.7790    0.7340    6.0670 O   0  0  0  0  0  0  0  0  0  0  0  0
    0.6710   -0.7670    4.7440 O   0  0  0  0  0  0  0  0  0  0  0  0
    3.1760    3.2560    2.9960 H   0  0  0  0  0  0  0  0  0  0  0  0
    0.5390    2.6990    3.9950 H   0  0  0  0  0  0  0  0  0  0  0  0
    2.0680    2.9080    4.8610 H   0  0  0  0  0  0  0  0  0  0  0  0
    3.1270    1.0640    3.7500 H   0  0  0  0  0  0  0  0  0  0  0  0
    0.5650    0.4780    2.3170 H   0  0  0  0  0  0  0  0  0  0  0  0
  1 10  1  0  0  0  0
  2  1  1  0  0  0  0
  3  2  2  0  0  0  0
  4  2  1  0  0  0  0
  4  5  1  0  0  0  0
  5  7  1  0  0  0  0
  5  6  1  0  0  0  0
  5 13  1  1  0  0  0
  6 14  1  0  0  0  0
  6 15  1  0  0  0  0
  7 20  1  0  0  0  0
  8  7  2  0  0  0  0
  9  1  1  0  0  0  0
 11  4  1  0  0  0  0
 12  4  1  0  0  0  0
 16 17  1  0  0  0  0
 17 26  1  1  0  0  0
 17 19  1  0  0  0  0
 18 17  1  0  0  0  0
 18 27  1  0  0  0  0
 19 28  1  6  0  0  0
 19 21  1  0  0  0  0
 20 29  1  0  0  0  0
 20 19  1  0  0  0  0
 21 22  2  0  0  0  0
 21 33  1  0  0  0  0
 23 16  1  0  0  0  0
 24 16  1  0  0  0  0
 25 16  1  0  0  0  0
 30 37  1  0  0  0  0
 30 31  1  0  0  0  0
 31 38  1  0  0  0  0
 31 39  1  0  0  0  0
 32 40  1  1  0  0  0
 32 31  1  0  0  0  0
 32 34  1  0  0  0  0
 33 32  1  0  0  0  0
 34 35  1  0  0  0  0
 36 34  2  0  0  0  0
 41 33  1  0  0  0  0
M  END
$$$$
