NTV.pdb
 OpenBabel07022418113D

 46 45  0  0  1  0  0  0  0  0999 V2000
    0.9500   -5.5940    1.9070 N   0  0  0  0  0  0  0  0  0  0  0  0
    1.7430   -4.6370    1.2200 C   0  0  0  0  0  0  0  0  0  0  0  0
    2.8560   -5.0220    0.7520 O   0  0  0  0  0  0  0  0  0  0  0  0
    1.2530   -3.2520    1.0800 C   0  0  0  0  0  0  0  0  0  0  0  0
    2.3690   -2.3460    1.5190 C   0  0  2  0  0  0  0  0  0  0  0  0
    2.7300   -2.5980    2.9100 N   0  0  0  0  0  0  0  0  0  0  0  0
    2.1330   -0.9290    1.3170 C   0  0  0  0  0  0  0  0  0  0  0  0
    2.3240   -0.1120    2.2370 O   0  0  0  0  0  0  0  0  0  0  0  0
    1.3800   -6.1740    2.6530 H   0  0  0  0  0  0  0  0  0  0  0  0
   -0.0420   -5.7310    1.6880 H   0  0  0  0  0  0  0  0  0  0  0  0
    0.3120   -3.1570    1.6190 H   0  0  0  0  0  0  0  0  0  0  0  0
    1.0880   -3.0680   -0.0170 H   0  0  0  0  0  0  0  0  0  0  0  0
    3.2810   -2.6180    0.9250 H   0  0  0  0  0  0  0  0  0  0  0  0
    3.3200   -1.8090    3.2370 H   0  0  0  0  0  0  0  0  0  0  0  0
    1.8250   -2.5280    3.4570 H   0  0  0  0  0  0  0  0  0  0  0  0
    1.1330    0.4460   -2.6860 C   0  0  0  0  0  0  0  0  0  0  0  0
    1.8200    1.3030   -1.6300 C   0  0  1  0  0  0  0  0  0  0  0  0
    1.5290    2.6540   -1.8690 O   0  0  0  0  0  0  0  0  0  0  0  0
    1.4070    0.8970   -0.2620 C   0  0  2  0  0  0  0  0  0  0  0  0
    1.6730   -0.4670    0.0400 N   0  0  0  0  0  0  0  0  0  0  0  0
   -0.0520    1.2370    0.0010 C   0  0  0  0  0  0  0  0  0  0  0  0
   -0.4630    2.3590   -0.3190 O   0  0  0  0  0  0  0  0  0  0  0  0
    1.5840   -0.5430   -2.6460 H   0  0  0  0  0  0  0  0  0  0  0  0
    0.0410    0.4500   -2.4650 H   0  0  0  0  0  0  0  0  0  0  0  0
    1.3290    0.9500   -3.6560 H   0  0  0  0  0  0  0  0  0  0  0  0
    2.8970    1.1700   -1.7910 H   0  0  0  0  0  0  0  0  0  0  0  0
    1.5620    3.1990   -1.0380 H   0  0  0  0  0  0  0  0  0  0  0  0
    1.9250    1.5860    0.4760 H   0  0  0  0  0  0  0  0  0  0  0  0
    1.5480   -1.1870   -0.6840 H   0  0  0  0  0  0  0  0  0  0  0  0
   -1.9200    2.0510    2.7890 C   0  0  0  0  0  0  0  0  0  0  0  0
   -2.5500    0.7470    2.3650 C   0  0  0  0  0  0  0  0  0  0  0  0
   -2.0090   -0.4100    3.2160 C   0  0  0  0  0  0  0  0  0  0  0  0
   -2.2840    0.4220    0.9290 C   0  0  2  0  0  0  0  0  0  0  0  0
   -0.9110    0.2870    0.6020 N   0  0  0  0  0  0  0  0  0  0  0  0
   -3.1320    1.1850   -0.0120 C   0  0  0  0  0  0  0  0  0  0  0  0
   -4.3020    1.4670    0.3420 O   0  0  0  0  0  0  0  0  0  0  0  0
   -2.6840    1.5740   -1.2350 O   0  0  0  0  0  0  0  0  0  0  0  0
   -2.1750    2.2910    3.8470 H   0  0  0  0  0  0  0  0  0  0  0  0
   -0.8200    1.9870    2.7560 H   0  0  0  0  0  0  0  0  0  0  0  0
   -2.2820    2.9080    2.2070 H   0  0  0  0  0  0  0  0  0  0  0  0
   -3.6300    0.8040    2.5820 H   0  0  0  0  0  0  0  0  0  0  0  0
   -2.5050   -0.3640    4.1970 H   0  0  0  0  0  0  0  0  0  0  0  0
   -0.9150   -0.3390    3.3220 H   0  0  0  0  0  0  0  0  0  0  0  0
   -2.3050   -1.3330    2.7000 H   0  0  0  0  0  0  0  0  0  0  0  0
   -2.7110   -0.6560    0.7750 H   0  0  0  0  0  0  0  0  0  0  0  0
   -0.3970   -0.6450    0.8220 H   0  0  0  0  0  0  0  0  0  0  0  0
  1  9  1  0  0  0  0
  2  1  1  0  0  0  0
  3  2  2  0  0  0  0
  4  2  1  0  0  0  0
  4  5  1  0  0  0  0
  4 11  1  0  0  0  0
  5 13  1  6  0  0  0
  5  6  1  0  0  0  0
  6 14  1  0  0  0  0
  6 15  1  0  0  0  0
  7  5  1  0  0  0  0
  7  8  2  0  0  0  0
 10  1  1  0  0  0  0
 12  4  1  0  0  0  0
 16 23  1  0  0  0  0
 16 24  1  0  0  0  0
 16 17  1  0  0  0  0
 17 26  1  6  0  0  0
 17 19  1  0  0  0  0
 18 17  1  0  0  0  0
 18 27  1  0  0  0  0
 19 21  1  0  0  0  0
 19 20  1  0  0  0  0
 19 28  1  1  0  0  0
 20  7  1  0  0  0  0
 21 34  1  0  0  0  0
 22 21  2  0  0  0  0
 25 16  1  0  0  0  0
 29 20  1  0  0  0  0
 30 38  1  0  0  0  0
 31 41  1  0  0  0  0
 31 30  1  0  0  0  0
 31 32  1  0  0  0  0
 32 43  1  0  0  0  0
 32 42  1  0  0  0  0
 33 45  1  6  0  0  0
 33 31  1  0  0  0  0
 34 46  1  0  0  0  0
 34 33  1  0  0  0  0
 35 36  1  0  0  0  0
 35 33  1  0  0  0  0
 37 35  2  0  0  0  0
 39 30  1  0  0  0  0
 40 30  1  0  0  0  0
 44 32  1  0  0  0  0
M  END
$$$$
