NVE.pdb
 OpenBabel07022418123D

 48 47  0  0  1  0  0  0  0  0999 V2000
    1.4330   -5.6650   -0.0020 N   0  0  0  0  0  0  0  0  0  0  0  0
    1.1120   -4.9730    1.1840 C   0  0  0  0  0  0  0  0  0  0  0  0
    0.7400   -5.6330    2.1840 O   0  0  0  0  0  0  0  0  0  0  0  0
    1.2120   -3.5070    1.2390 C   0  0  0  0  0  0  0  0  0  0  0  0
    1.7100   -3.0070   -0.1030 C   0  0  2  0  0  0  0  0  0  0  0  0
    3.0200   -3.6150   -0.3200 N   0  0  0  0  0  0  0  0  0  0  0  0
    1.8950   -1.5320   -0.0910 C   0  0  0  0  0  0  0  0  0  0  0  0
    3.0240   -0.9800   -0.0650 O   0  0  0  0  0  0  0  0  0  0  0  0
    0.6850   -5.8880   -0.7260 H   0  0  0  0  0  0  0  0  0  0  0  0
    2.3890   -5.9880   -0.2260 H   0  0  0  0  0  0  0  0  0  0  0  0
    0.2430   -3.0710    1.5360 H   0  0  0  0  0  0  0  0  0  0  0  0
    1.9770   -3.2900    2.0420 H   0  0  0  0  0  0  0  0  0  0  0  0
    1.0380   -3.3840   -0.8730 H   0  0  0  0  0  0  0  0  0  0  0  0
    3.7860   -2.9010   -0.2560 H   0  0  0  0  0  0  0  0  0  0  0  0
    3.0640   -3.9820   -1.3210 H   0  0  0  0  0  0  0  0  0  0  0  0
    1.1880    0.9560   -2.5850 C   0  0  0  0  0  0  0  0  0  0  0  0
    0.4720    1.4640   -1.3510 C   0  0  0  0  0  0  0  0  0  0  0  0
    0.8020    2.9370   -1.2320 C   0  0  0  0  0  0  0  0  0  0  0  0
    0.9600    0.7860   -0.0990 C   0  0  2  0  0  0  0  0  0  0  0  0
    0.7790   -0.6340   -0.1110 N   0  0  0  0  0  0  0  0  0  0  0  0
    0.2540    1.4090    1.0350 C   0  0  0  0  0  0  0  0  0  0  0  0
    0.2840    2.6240    1.3330 O   0  0  0  0  0  0  0  0  0  0  0  0
    0.9550   -0.1170   -2.7600 H   0  0  0  0  0  0  0  0  0  0  0  0
    0.8280    1.4900   -3.4980 H   0  0  0  0  0  0  0  0  0  0  0  0
    2.2640    1.1570   -2.5360 H   0  0  0  0  0  0  0  0  0  0  0  0
   -0.6230    1.3910   -1.4410 H   0  0  0  0  0  0  0  0  0  0  0  0
    1.6050    3.1430   -0.4870 H   0  0  0  0  0  0  0  0  0  0  0  0
   -0.0830    3.5390   -0.9150 H   0  0  0  0  0  0  0  0  0  0  0  0
    1.2250    3.3300   -2.1980 H   0  0  0  0  0  0  0  0  0  0  0  0
    2.0390    1.0040   -0.0280 H   0  0  0  0  0  0  0  0  0  0  0  0
   -0.1680   -1.0540   -0.1390 H   0  0  0  0  0  0  0  0  0  0  0  0
   -0.5470    0.5870    1.8950 N   0  0  0  0  0  0  0  0  0  0  0  0
   -1.2500    1.1310    3.0220 C   0  0  1  0  0  0  0  0  0  0  0  0
   -2.6910    1.3560    2.7420 C   0  0  0  0  0  0  0  0  0  0  0  0
   -3.5410    0.2270    2.3400 C   0  0  0  0  0  0  0  0  0  0  0  0
   -3.2740   -0.3800    1.0210 C   0  0  0  0  0  0  0  0  0  0  0  0
   -2.5680    0.1690    0.1430 O   0  0  0  0  0  0  0  0  0  0  0  0
   -1.0130    0.2590    4.1910 C   0  0  0  0  0  0  0  0  0  0  0  0
   -1.5230    0.5390    5.2940 O   0  0  0  0  0  0  0  0  0  0  0  0
   -3.8030   -1.6270    0.6670 O   0  0  0  0  0  0  0  0  0  0  0  0
   -0.2310   -0.8700    4.0830 O   0  0  0  0  0  0  0  0  0  0  0  0
   -0.6370   -0.4590    1.7650 H   0  0  0  0  0  0  0  0  0  0  0  0
   -0.7690    2.1580    3.2140 H   0  0  0  0  0  0  0  0  0  0  0  0
   -3.1070    1.8950    3.6600 H   0  0  0  0  0  0  0  0  0  0  0  0
   -2.8340    2.1620    1.9460 H   0  0  0  0  0  0  0  0  0  0  0  0
   -3.6580   -0.5580    3.1320 H   0  0  0  0  0  0  0  0  0  0  0  0
   -4.6000    0.6380    2.2520 H   0  0  0  0  0  0  0  0  0  0  0  0
   -3.6090   -2.0380   -0.2360 H   0  0  0  0  0  0  0  0  0  0  0  0
  1  2  1  0  0  0  0
  2  4  1  0  0  0  0
  2  3  2  0  0  0  0
  4 11  1  0  0  0  0
  4 12  1  0  0  0  0
  5 13  1  6  0  0  0
  5  7  1  0  0  0  0
  5  4  1  0  0  0  0
  6 14  1  0  0  0  0
  6  5  1  0  0  0  0
  7  8  2  0  0  0  0
  9  1  1  0  0  0  0
 10  1  1  0  0  0  0
 15  6  1  0  0  0  0
 16 25  1  0  0  0  0
 16 17  1  0  0  0  0
 17 18  1  0  0  0  0
 17 19  1  0  0  0  0
 18 28  1  0  0  0  0
 18 27  1  0  0  0  0
 19 30  1  1  0  0  0
 19 21  1  0  0  0  0
 20 19  1  0  0  0  0
 20  7  1  0  0  0  0
 21 22  2  0  0  0  0
 21 32  1  0  0  0  0
 23 16  1  0  0  0  0
 24 16  1  0  0  0  0
 26 17  1  0  0  0  0
 29 18  1  0  0  0  0
 31 20  1  0  0  0  0
 32 33  1  0  0  0  0
 33 43  1  1  0  0  0
 33 38  1  0  0  0  0
 34 33  1  0  0  0  0
 34 44  1  0  0  0  0
 35 34  1  0  0  0  0
 35 46  1  0  0  0  0
 36 35  1  0  0  0  0
 37 36  2  0  0  0  0
 38 39  1  0  0  0  0
 40 36  1  0  0  0  0
 41 38  2  0  0  0  0
 42 32  1  0  0  0  0
 45 34  1  0  0  0  0
 47 35  1  0  0  0  0
 48 40  1  0  0  0  0
M  END
$$$$
