NVF.pdb
 OpenBabel07022418123D

 52 52  0  0  1  0  0  0  0  0999 V2000
    2.2200   -3.2220    6.6580 N   0  0  0  0  0  0  0  0  0  0  0  0
    3.3500   -2.5970    6.0730 C   0  0  0  0  0  0  0  0  0  0  0  0
    4.4870   -2.8150    6.5510 O   0  0  0  0  0  0  0  0  0  0  0  0
    3.1510   -1.7070    4.9150 C   0  0  0  0  0  0  0  0  0  0  0  0
    1.6860   -1.6200    4.5470 C   0  0  2  0  0  0  0  0  0  0  0  0
    1.2290   -2.9310    4.2200 N   0  0  0  0  0  0  0  0  0  0  0  0
    1.5450   -0.6590    3.4250 C   0  0  0  0  0  0  0  0  0  0  0  0
    1.9060    0.5300    3.5680 O   0  0  0  0  0  0  0  0  0  0  0  0
    1.7640   -2.8130    7.4970 H   0  0  0  0  0  0  0  0  0  0  0  0
    1.8680   -4.1010    6.2170 H   0  0  0  0  0  0  0  0  0  0  0  0
    3.6020   -0.7060    5.0550 H   0  0  0  0  0  0  0  0  0  0  0  0
    3.6700   -2.1640    4.0320 H   0  0  0  0  0  0  0  0  0  0  0  0
    1.1090   -1.2820    5.4490 H   0  0  0  0  0  0  0  0  0  0  0  0
    1.8190   -3.4530    3.5650 H   0  0  0  0  0  0  0  0  0  0  0  0
    0.2100   -3.0110    4.0770 H   0  0  0  0  0  0  0  0  0  0  0  0
    1.3510   -1.8750   -0.6310 C   0  0  0  0  0  0  0  0  0  0  0  0
    1.7220   -0.5010   -0.1140 C   0  0  0  0  0  0  0  0  0  0  0  0
    1.6950    0.4290   -1.2890 C   0  0  0  0  0  0  0  0  0  0  0  0
    0.8610   -0.0810    1.0430 C   0  0  2  0  0  0  0  0  0  0  0  0
    1.0130   -1.0060    2.1670 N   0  0  0  0  0  0  0  0  0  0  0  0
   -0.5760    0.0690    0.7290 C   0  0  0  0  0  0  0  0  0  0  0  0
   -1.3780   -0.7100    1.3670 O   0  0  0  0  0  0  0  0  0  0  0  0
    2.0850   -2.6010   -0.1910 H   0  0  0  0  0  0  0  0  0  0  0  0
    1.4610   -1.9390   -1.7110 H   0  0  0  0  0  0  0  0  0  0  0  0
    0.3440   -2.1950   -0.3070 H   0  0  0  0  0  0  0  0  0  0  0  0
    2.8110   -0.5110    0.1880 H   0  0  0  0  0  0  0  0  0  0  0  0
    1.7700    1.4740   -0.9180 H   0  0  0  0  0  0  0  0  0  0  0  0
    0.8640    0.2760   -1.9920 H   0  0  0  0  0  0  0  0  0  0  0  0
    2.6520    0.3010   -1.9090 H   0  0  0  0  0  0  0  0  0  0  0  0
    1.2410    0.8880    1.4000 H   0  0  0  0  0  0  0  0  0  0  0  0
    0.7040   -1.9810    2.0150 H   0  0  0  0  0  0  0  0  0  0  0  0
   -1.1900    0.9440   -0.1670 N   0  0  0  0  0  0  0  0  0  0  0  0
   -2.6060    1.0650   -0.4350 C   0  0  1  0  0  0  0  0  0  0  0  0
   -3.1990    0.0120   -1.2870 C   0  0  0  0  0  0  0  0  0  0  0  0
   -2.6350   -0.1080   -2.6380 C   0  0  0  0  0  0  0  0  0  0  0  0
   -3.1730    0.6340   -3.6650 C   0  0  0  0  0  0  0  0  0  0  0  0
   -2.6760    0.5400   -4.9250 C   0  0  0  0  0  0  0  0  0  0  0  0
   -1.6260   -0.3060   -5.1780 C   0  0  0  0  0  0  0  0  0  0  0  0
   -1.0780   -1.0570   -4.1530 C   0  0  0  0  0  0  0  0  0  0  0  0
   -1.5830   -0.9570   -2.8880 C   0  0  0  0  0  0  0  0  0  0  0  0
   -3.4030    1.1680    0.8430 C   0  0  0  0  0  0  0  0  0  0  0  0
   -2.8970    1.2180    1.9790 O   0  0  0  0  0  0  0  0  0  0  0  0
   -4.7830    1.2080    0.7570 O   0  0  0  0  0  0  0  0  0  0  0  0
   -0.5380    1.6010   -0.6950 H   0  0  0  0  0  0  0  0  0  0  0  0
   -2.7830    2.1050   -0.8840 H   0  0  0  0  0  0  0  0  0  0  0  0
   -4.3150    0.1830   -1.3300 H   0  0  0  0  0  0  0  0  0  0  0  0
   -3.1240   -0.9850   -0.7610 H   0  0  0  0  0  0  0  0  0  0  0  0
   -4.0090    1.3180   -3.5000 H   0  0  0  0  0  0  0  0  0  0  0  0
   -3.1140    1.1360   -5.7320 H   0  0  0  0  0  0  0  0  0  0  0  0
   -1.2140   -0.4020   -6.1610 H   0  0  0  0  0  0  0  0  0  0  0  0
   -0.2430   -1.7420   -4.3100 H   0  0  0  0  0  0  0  0  0  0  0  0
   -1.1400   -1.5590   -2.0790 H   0  0  0  0  0  0  0  0  0  0  0  0
  1  9  1  0  0  0  0
  2  3  2  0  0  0  0
  2  1  1  0  0  0  0
  4 11  1  0  0  0  0
  4  2  1  0  0  0  0
  5  4  1  0  0  0  0
  5 13  1  1  0  0  0
  6  5  1  0  0  0  0
  7  8  2  0  0  0  0
  7  5  1  0  0  0  0
 10  1  1  0  0  0  0
 12  4  1  0  0  0  0
 14  6  1  0  0  0  0
 15  6  1  0  0  0  0
 16 25  1  0  0  0  0
 16 23  1  0  0  0  0
 16 17  1  0  0  0  0
 17 26  1  0  0  0  0
 17 19  1  0  0  0  0
 18 27  1  0  0  0  0
 18 17  1  0  0  0  0
 19 30  1  1  0  0  0
 19 20  1  0  0  0  0
 20  7  1  0  0  0  0
 21 19  1  0  0  0  0
 21 22  2  0  0  0  0
 24 16  1  0  0  0  0
 28 18  1  0  0  0  0
 29 18  1  0  0  0  0
 31 20  1  0  0  0  0
 32 21  1  0  0  0  0
 33 45  1  6  0  0  0
 33 32  1  0  0  0  0
 33 41  1  0  0  0  0
 34 47  1  0  0  0  0
 34 33  1  0  0  0  0
 35 34  1  0  0  0  0
 36 48  1  0  0  0  0
 36 35  2  0  0  0  0
 37 36  1  0  0  0  0
 38 37  2  0  0  0  0
 38 39  1  0  0  0  0
 39 40  2  0  0  0  0
 40 35  1  0  0  0  0
 40 52  1  0  0  0  0
 41 42  1  0  0  0  0
 43 41  2  0  0  0  0
 44 32  1  0  0  0  0
 46 34  1  0  0  0  0
 49 37  1  0  0  0  0
 50 38  1  0  0  0  0
 51 39  1  0  0  0  0
M  END
$$$$
