NVI.pdb
 OpenBabel07022418123D

 51 50  0  0  1  0  0  0  0  0999 V2000
    4.7920   -1.9780    5.5720 N   0  0  0  0  0  0  0  0  0  0  0  0
    4.9760   -1.4630    4.2610 C   0  0  0  0  0  0  0  0  0  0  0  0
    6.0000   -1.8250    3.6270 O   0  0  0  0  0  0  0  0  0  0  0  0
    3.9920   -0.5190    3.6410 C   0  0  0  0  0  0  0  0  0  0  0  0
    3.0730   -1.3100    2.7570 C   0  0  2  0  0  0  0  0  0  0  0  0
    3.7330   -2.0080    1.6970 N   0  0  0  0  0  0  0  0  0  0  0  0
    1.9390   -0.4930    2.2490 C   0  0  0  0  0  0  0  0  0  0  0  0
    1.2850    0.1670    3.0950 O   0  0  0  0  0  0  0  0  0  0  0  0
    4.3520   -1.4330    6.3350 H   0  0  0  0  0  0  0  0  0  0  0  0
    5.1180   -2.9460    5.7630 H   0  0  0  0  0  0  0  0  0  0  0  0
    4.5460    0.2690    3.0930 H   0  0  0  0  0  0  0  0  0  0  0  0
    3.4000   -0.0900    4.4660 H   0  0  0  0  0  0  0  0  0  0  0  0
    2.6040   -2.0960    3.4190 H   0  0  0  0  0  0  0  0  0  0  0  0
    4.4250   -2.6730    2.1230 H   0  0  0  0  0  0  0  0  0  0  0  0
    3.0050   -2.6380    1.2530 H   0  0  0  0  0  0  0  0  0  0  0  0
    0.0560    2.4000   -1.0570 C   0  0  0  0  0  0  0  0  0  0  0  0
    1.0730    1.4570   -0.4590 C   0  0  0  0  0  0  0  0  0  0  0  0
    1.9490    2.2990    0.4610 C   0  0  0  0  0  0  0  0  0  0  0  0
    0.4500    0.3850    0.3960 C   0  0  2  0  0  0  0  0  0  0  0  0
    1.5780   -0.4290    0.8990 N   0  0  0  0  0  0  0  0  0  0  0  0
   -0.4710   -0.5220   -0.2680 C   0  0  0  0  0  0  0  0  0  0  0  0
   -0.1280   -1.7530   -0.3520 O   0  0  0  0  0  0  0  0  0  0  0  0
   -0.4120    2.0170   -1.9780 H   0  0  0  0  0  0  0  0  0  0  0  0
   -0.7260    2.6860   -0.3280 H   0  0  0  0  0  0  0  0  0  0  0  0
    0.5250    3.3700   -1.3600 H   0  0  0  0  0  0  0  0  0  0  0  0
    1.7470    1.0550   -1.2320 H   0  0  0  0  0  0  0  0  0  0  0  0
    2.0190    3.3460    0.0880 H   0  0  0  0  0  0  0  0  0  0  0  0
    2.9630    1.8700    0.5790 H   0  0  0  0  0  0  0  0  0  0  0  0
    1.5050    2.3740    1.4750 H   0  0  0  0  0  0  0  0  0  0  0  0
    0.0240    0.8840    1.2910 H   0  0  0  0  0  0  0  0  0  0  0  0
    2.1040   -0.9670    0.1780 H   0  0  0  0  0  0  0  0  0  0  0  0
   -3.3010   -2.9510    0.8470 C   0  0  0  0  0  0  0  0  0  0  0  0
   -3.9400   -1.6220    0.5660 C   0  0  0  0  0  0  0  0  0  0  0  0
   -3.9440   -1.2790   -0.9020 C   0  0  2  0  0  0  0  0  0  0  0  0
   -4.7250   -2.3660   -1.6130 C   0  0  0  0  0  0  0  0  0  0  0  0
   -2.5640   -1.2200   -1.4910 C   0  0  2  0  0  0  0  0  0  0  0  0
   -1.7270   -0.2230   -0.8470 N   0  0  0  0  0  0  0  0  0  0  0  0
   -2.6790   -0.8040   -2.9170 C   0  0  0  0  0  0  0  0  0  0  0  0
   -3.3820   -1.5530   -3.6770 O   0  0  0  0  0  0  0  0  0  0  0  0
   -2.0870    0.3110   -3.4460 O   0  0  0  0  0  0  0  0  0  0  0  0
   -3.6060   -3.6320    0.0180 H   0  0  0  0  0  0  0  0  0  0  0  0
   -2.2250   -2.9130    1.0010 H   0  0  0  0  0  0  0  0  0  0  0  0
   -3.7480   -3.3780    1.7720 H   0  0  0  0  0  0  0  0  0  0  0  0
   -3.5060   -0.8060    1.1870 H   0  0  0  0  0  0  0  0  0  0  0  0
   -5.0070   -1.6970    0.8740 H   0  0  0  0  0  0  0  0  0  0  0  0
   -4.4130   -0.3010   -1.0490 H   0  0  0  0  0  0  0  0  0  0  0  0
   -5.3260   -1.9550   -2.4500 H   0  0  0  0  0  0  0  0  0  0  0  0
   -5.4710   -2.8410   -0.9260 H   0  0  0  0  0  0  0  0  0  0  0  0
   -4.0700   -3.1970   -1.9510 H   0  0  0  0  0  0  0  0  0  0  0  0
   -2.1300   -2.2170   -1.4800 H   0  0  0  0  0  0  0  0  0  0  0  0
   -2.0330    0.7690   -0.7840 H   0  0  0  0  0  0  0  0  0  0  0  0
  1 10  1  0  0  0  0
  1  9  1  0  0  0  0
  2  1  1  0  0  0  0
  3  2  2  0  0  0  0
  4  2  1  0  0  0  0
  4 12  1  0  0  0  0
  5 13  1  1  0  0  0
  5  4  1  0  0  0  0
  6 14  1  0  0  0  0
  6  5  1  0  0  0  0
  7  5  1  0  0  0  0
  7  8  2  0  0  0  0
 11  4  1  0  0  0  0
 15  6  1  0  0  0  0
 16 17  1  0  0  0  0
 16 24  1  0  0  0  0
 17 19  1  0  0  0  0
 17 18  1  0  0  0  0
 18 28  1  0  0  0  0
 18 29  1  0  0  0  0
 19 20  1  0  0  0  0
 19 30  1  1  0  0  0
 20  7  1  0  0  0  0
 21 19  1  0  0  0  0
 22 21  2  0  0  0  0
 23 16  1  0  0  0  0
 25 16  1  0  0  0  0
 26 17  1  0  0  0  0
 27 18  1  0  0  0  0
 31 20  1  0  0  0  0
 32 42  1  0  0  0  0
 32 43  1  0  0  0  0
 33 32  1  0  0  0  0
 33 45  1  0  0  0  0
 33 44  1  0  0  0  0
 34 46  1  6  0  0  0
 34 33  1  0  0  0  0
 35 48  1  0  0  0  0
 35 34  1  0  0  0  0
 36 50  1  1  0  0  0
 36 34  1  0  0  0  0
 36 37  1  0  0  0  0
 37 51  1  0  0  0  0
 37 21  1  0  0  0  0
 38 36  1  0  0  0  0
 39 38  2  0  0  0  0
 40 38  1  0  0  0  0
 41 32  1  0  0  0  0
 47 35  1  0  0  0  0
 49 35  1  0  0  0  0
M  END
$$$$
