NVL.pdb
 OpenBabel07022418123D

 51 50  0  0  1  0  0  0  0  0999 V2000
    0.5960   -0.8310    6.3880 N   0  0  0  0  0  0  0  0  0  0  0  0
    1.7180   -0.0920    5.9870 C   0  0  0  0  0  0  0  0  0  0  0  0
    2.5860    0.1560    6.8900 O   0  0  0  0  0  0  0  0  0  0  0  0
    1.9950    0.4260    4.6380 C   0  0  0  0  0  0  0  0  0  0  0  0
    0.9110    0.0400    3.6460 C   0  0  2  0  0  0  0  0  0  0  0  0
    0.7930   -1.3770    3.5340 N   0  0  0  0  0  0  0  0  0  0  0  0
    1.0410    0.7720    2.3810 C   0  0  0  0  0  0  0  0  0  0  0  0
    1.1630    2.0330    2.4750 O   0  0  0  0  0  0  0  0  0  0  0  0
   -0.3670   -0.4140    6.3810 H   0  0  0  0  0  0  0  0  0  0  0  0
    0.6400   -1.8310    6.7160 H   0  0  0  0  0  0  0  0  0  0  0  0
    2.9960    0.1380    4.2620 H   0  0  0  0  0  0  0  0  0  0  0  0
    1.9450    1.5510    4.7040 H   0  0  0  0  0  0  0  0  0  0  0  0
   -0.0510    0.3920    4.1320 H   0  0  0  0  0  0  0  0  0  0  0  0
    1.3190   -1.8060    4.3560 H   0  0  0  0  0  0  0  0  0  0  0  0
    1.2710   -1.7980    2.7000 H   0  0  0  0  0  0  0  0  0  0  0  0
    2.6890    1.3980   -2.0800 C   0  0  0  0  0  0  0  0  0  0  0  0
    2.4440    0.6240   -0.8220 C   0  0  0  0  0  0  0  0  0  0  0  0
    2.3230   -0.8450   -1.2170 C   0  0  0  0  0  0  0  0  0  0  0  0
    1.1790    1.0450   -0.1140 C   0  0  2  0  0  0  0  0  0  0  0  0
    1.0430    0.2330    1.0870 N   0  0  0  0  0  0  0  0  0  0  0  0
   -0.0220    0.8600   -0.9600 C   0  0  0  0  0  0  0  0  0  0  0  0
   -0.1410    1.4540   -2.0590 O   0  0  0  0  0  0  0  0  0  0  0  0
    3.7880    1.3950   -2.2740 H   0  0  0  0  0  0  0  0  0  0  0  0
    2.2340    0.8820   -2.9540 H   0  0  0  0  0  0  0  0  0  0  0  0
    2.3710    2.4590   -2.0190 H   0  0  0  0  0  0  0  0  0  0  0  0
    3.3160    0.7120   -0.1700 H   0  0  0  0  0  0  0  0  0  0  0  0
    3.1250   -1.0010   -1.9950 H   0  0  0  0  0  0  0  0  0  0  0  0
    1.3370   -0.9420   -1.7160 H   0  0  0  0  0  0  0  0  0  0  0  0
    2.4680   -1.5250   -0.3710 H   0  0  0  0  0  0  0  0  0  0  0  0
    1.2750    2.0950    0.2240 H   0  0  0  0  0  0  0  0  0  0  0  0
    0.9450   -0.7830    0.9800 H   0  0  0  0  0  0  0  0  0  0  0  0
   -1.0610   -2.9600   -0.2160 C   0  0  0  0  0  0  0  0  0  0  0  0
   -2.3000   -2.7800   -1.0460 C   0  0  0  0  0  0  0  0  0  0  0  0
   -2.4380   -4.0030   -1.9700 C   0  0  0  0  0  0  0  0  0  0  0  0
   -2.3510   -1.5900   -1.9110 C   0  0  0  0  0  0  0  0  0  0  0  0
   -2.2780   -0.2460   -1.2960 C   0  0  2  0  0  0  0  0  0  0  0  0
   -1.0800    0.0010   -0.5540 N   0  0  0  0  0  0  0  0  0  0  0  0
   -3.5080    0.1520   -0.5720 C   0  0  0  0  0  0  0  0  0  0  0  0
   -3.5170    0.6590    0.5790 O   0  0  0  0  0  0  0  0  0  0  0  0
   -4.7440   -0.0330   -1.1770 O   0  0  0  0  0  0  0  0  0  0  0  0
   -0.1740   -2.4590   -0.6350 H   0  0  0  0  0  0  0  0  0  0  0  0
   -1.2080   -2.7630    0.8670 H   0  0  0  0  0  0  0  0  0  0  0  0
   -0.7760   -4.0620   -0.2320 H   0  0  0  0  0  0  0  0  0  0  0  0
   -3.1560   -2.8850   -0.3460 H   0  0  0  0  0  0  0  0  0  0  0  0
   -1.4740   -4.2020   -2.4800 H   0  0  0  0  0  0  0  0  0  0  0  0
   -3.1630   -3.7070   -2.7560 H   0  0  0  0  0  0  0  0  0  0  0  0
   -2.8000   -4.8640   -1.3710 H   0  0  0  0  0  0  0  0  0  0  0  0
   -1.4840   -1.6620   -2.6280 H   0  0  0  0  0  0  0  0  0  0  0  0
   -3.2810   -1.6410   -2.5270 H   0  0  0  0  0  0  0  0  0  0  0  0
   -2.2170    0.4780   -2.1750 H   0  0  0  0  0  0  0  0  0  0  0  0
   -0.9710   -0.4720    0.3630 H   0  0  0  0  0  0  0  0  0  0  0  0
  1 10  1  0  0  0  0
  2  1  1  0  0  0  0
  2  3  2  0  0  0  0
  4 12  1  0  0  0  0
  4  2  1  0  0  0  0
  5 13  1  1  0  0  0
  5  4  1  0  0  0  0
  6  5  1  0  0  0  0
  6 14  1  0  0  0  0
  7  8  2  0  0  0  0
  7  5  1  0  0  0  0
  9  1  1  0  0  0  0
 11  4  1  0  0  0  0
 15  6  1  0  0  0  0
 16 25  1  0  0  0  0
 16 17  1  0  0  0  0
 17 26  1  0  0  0  0
 17 19  1  0  0  0  0
 18 17  1  0  0  0  0
 18 29  1  0  0  0  0
 19 30  1  1  0  0  0
 19 20  1  0  0  0  0
 20  7  1  0  0  0  0
 21 37  1  0  0  0  0
 21 19  1  0  0  0  0
 22 21  2  0  0  0  0
 23 16  1  0  0  0  0
 24 16  1  0  0  0  0
 27 18  1  0  0  0  0
 28 18  1  0  0  0  0
 31 20  1  0  0  0  0
 32 42  1  0  0  0  0
 33 44  1  0  0  0  0
 33 32  1  0  0  0  0
 34 47  1  0  0  0  0
 34 33  1  0  0  0  0
 35 36  1  0  0  0  0
 35 33  1  0  0  0  0
 36 50  1  6  0  0  0
 36 38  1  0  0  0  0
 36 37  1  0  0  0  0
 37 51  1  0  0  0  0
 38 39  1  0  0  0  0
 40 38  2  0  0  0  0
 41 32  1  0  0  0  0
 43 32  1  0  0  0  0
 45 34  1  0  0  0  0
 46 34  1  0  0  0  0
 48 35  1  0  0  0  0
 49 35  1  0  0  0  0
M  END
$$$$
