NVN.pdb
 OpenBabel07022418123D

 46 45  0  0  1  0  0  0  0  0999 V2000
    2.9700   -4.2670    2.8680 N   0  0  0  0  0  0  0  0  0  0  0  0
    3.7970   -3.1670    3.2340 C   0  0  0  0  0  0  0  0  0  0  0  0
    4.8980   -3.4300    3.7860 O   0  0  0  0  0  0  0  0  0  0  0  0
    3.3820   -1.7670    2.9720 C   0  0  0  0  0  0  0  0  0  0  0  0
    2.0330   -1.8120    2.3020 C   0  0  2  0  0  0  0  0  0  0  0  0
    2.1190   -2.5330    1.0620 N   0  0  0  0  0  0  0  0  0  0  0  0
    1.3620   -0.5050    2.2080 C   0  0  0  0  0  0  0  0  0  0  0  0
    1.3100    0.1850    3.2650 O   0  0  0  0  0  0  0  0  0  0  0  0
    2.0180   -4.3800    3.2820 H   0  0  0  0  0  0  0  0  0  0  0  0
    3.2800   -4.9950    2.1770 H   0  0  0  0  0  0  0  0  0  0  0  0
    4.1780   -1.3040    2.3800 H   0  0  0  0  0  0  0  0  0  0  0  0
    3.3020   -1.1900    3.9370 H   0  0  0  0  0  0  0  0  0  0  0  0
    1.3870   -2.4220    3.0090 H   0  0  0  0  0  0  0  0  0  0  0  0
    2.8840   -2.1600    0.4570 H   0  0  0  0  0  0  0  0  0  0  0  0
    1.1840   -2.5490    0.5930 H   0  0  0  0  0  0  0  0  0  0  0  0
    0.1420    3.6010    0.1210 C   0  0  0  0  0  0  0  0  0  0  0  0
    0.8360    2.2560    0.0810 C   0  0  0  0  0  0  0  0  0  0  0  0
    2.2750    2.4070    0.5060 C   0  0  0  0  0  0  0  0  0  0  0  0
    0.1320    1.3420    1.0290 C   0  0  2  0  0  0  0  0  0  0  0  0
    0.7830    0.0190    1.0210 N   0  0  0  0  0  0  0  0  0  0  0  0
   -1.3040    1.1920    0.7230 C   0  0  0  0  0  0  0  0  0  0  0  0
   -2.0180    2.2240    0.6890 O   0  0  0  0  0  0  0  0  0  0  0  0
    0.8890    4.4160   -0.0880 H   0  0  0  0  0  0  0  0  0  0  0  0
   -0.6960    3.6520   -0.6080 H   0  0  0  0  0  0  0  0  0  0  0  0
   -0.3010    3.8220    1.1120 H   0  0  0  0  0  0  0  0  0  0  0  0
    0.8630    1.8590   -0.9530 H   0  0  0  0  0  0  0  0  0  0  0  0
    2.8320    2.8750   -0.3550 H   0  0  0  0  0  0  0  0  0  0  0  0
    2.6810    1.3760    0.6530 H   0  0  0  0  0  0  0  0  0  0  0  0
    2.3960    3.0640    1.3910 H   0  0  0  0  0  0  0  0  0  0  0  0
    0.2120    1.7900    2.0560 H   0  0  0  0  0  0  0  0  0  0  0  0
    0.8390   -0.5530    0.1710 H   0  0  0  0  0  0  0  0  0  0  0  0
   -1.5660   -2.1630   -2.4150 N   0  0  0  0  0  0  0  0  0  0  0  0
   -2.5870   -2.0430   -1.4360 C   0  0  0  0  0  0  0  0  0  0  0  0
   -2.8480   -3.0200   -0.6970 O   0  0  0  0  0  0  0  0  0  0  0  0
   -3.3280   -0.7850   -1.2860 C   0  0  0  0  0  0  0  0  0  0  0  0
   -3.2690   -0.2770    0.1620 C   0  0  2  0  0  0  0  0  0  0  0  0
   -1.8610   -0.0670    0.4720 N   0  0  0  0  0  0  0  0  0  0  0  0
   -3.9460   -1.1850    1.0890 C   0  0  0  0  0  0  0  0  0  0  0  0
   -5.1530   -1.4290    0.9160 O   0  0  0  0  0  0  0  0  0  0  0  0
   -3.2970   -1.7860    2.1570 O   0  0  0  0  0  0  0  0  0  0  0  0
   -0.5470   -2.2800   -2.1520 H   0  0  0  0  0  0  0  0  0  0  0  0
   -1.7830   -2.1390   -3.4400 H   0  0  0  0  0  0  0  0  0  0  0  0
   -4.4130   -0.8940   -1.5290 H   0  0  0  0  0  0  0  0  0  0  0  0
   -2.9250    0.0160   -1.9210 H   0  0  0  0  0  0  0  0  0  0  0  0
   -3.7750    0.6990    0.1640 H   0  0  0  0  0  0  0  0  0  0  0  0
   -1.2480   -0.9010    0.5020 H   0  0  0  0  0  0  0  0  0  0  0  0
  1  2  1  0  0  0  0
  1  9  1  0  0  0  0
  2  3  2  0  0  0  0
  4  2  1  0  0  0  0
  4 12  1  0  0  0  0
  5  4  1  0  0  0  0
  5 13  1  1  0  0  0
  6  5  1  0  0  0  0
  7  5  1  0  0  0  0
  7  8  2  0  0  0  0
 10  1  1  0  0  0  0
 11  4  1  0  0  0  0
 14  6  1  0  0  0  0
 15  6  1  0  0  0  0
 16 25  1  0  0  0  0
 17 16  1  0  0  0  0
 17 18  1  0  0  0  0
 17 19  1  0  0  0  0
 18 28  1  0  0  0  0
 18 29  1  0  0  0  0
 19 30  1  1  0  0  0
 20 19  1  0  0  0  0
 20  7  1  0  0  0  0
 21 19  1  0  0  0  0
 22 21  2  0  0  0  0
 23 16  1  0  0  0  0
 24 16  1  0  0  0  0
 26 17  1  0  0  0  0
 27 18  1  0  0  0  0
 31 20  1  0  0  0  0
 32 41  1  0  0  0  0
 32 33  1  0  0  0  0
 33 35  1  0  0  0  0
 33 34  2  0  0  0  0
 35 36  1  0  0  0  0
 36 45  1  1  0  0  0
 36 37  1  0  0  0  0
 36 38  1  0  0  0  0
 37 46  1  0  0  0  0
 37 21  1  0  0  0  0
 38 40  1  0  0  0  0
 39 38  2  0  0  0  0
 42 32  1  0  0  0  0
 43 35  1  0  0  0  0
 44 35  1  0  0  0  0
M  END
$$$$
