NVT.pdb
 OpenBabel07022418123D

 46 45  0  0  1  0  0  0  0  0999 V2000
   -0.7130   -2.1280    4.0680 N   0  0  0  0  0  0  0  0  0  0  0  0
    0.3910   -2.7790    3.4670 C   0  0  0  0  0  0  0  0  0  0  0  0
    0.2280   -3.9340    3.0120 O   0  0  0  0  0  0  0  0  0  0  0  0
    1.6860   -2.0930    3.3910 C   0  0  0  0  0  0  0  0  0  0  0  0
    1.6730   -0.7260    4.0020 C   0  0  2  0  0  0  0  0  0  0  0  0
    1.3150   -0.8400    5.4030 N   0  0  0  0  0  0  0  0  0  0  0  0
    0.7980    0.2360    3.2890 C   0  0  0  0  0  0  0  0  0  0  0  0
   -0.0970    0.8190    3.9610 O   0  0  0  0  0  0  0  0  0  0  0  0
   -0.9690   -2.1440    5.0580 H   0  0  0  0  0  0  0  0  0  0  0  0
   -1.3300   -1.5720    3.4170 H   0  0  0  0  0  0  0  0  0  0  0  0
    2.0050   -2.0790    2.3210 H   0  0  0  0  0  0  0  0  0  0  0  0
    2.4800   -2.6740    3.9210 H   0  0  0  0  0  0  0  0  0  0  0  0
    2.7050   -0.2700    4.0090 H   0  0  0  0  0  0  0  0  0  0  0  0
    0.4570   -0.2840    5.5590 H   0  0  0  0  0  0  0  0  0  0  0  0
    1.2970   -1.7980    5.7610 H   0  0  0  0  0  0  0  0  0  0  0  0
    0.0990    3.5340   -0.1070 C   0  0  0  0  0  0  0  0  0  0  0  0
    0.9420    2.5580    0.6440 C   0  0  0  0  0  0  0  0  0  0  0  0
    2.0710    2.0540   -0.2650 C   0  0  0  0  0  0  0  0  0  0  0  0
    0.1540    1.3940    1.1970 C   0  0  2  0  0  0  0  0  0  0  0  0
    0.9830    0.4700    1.9140 N   0  0  0  0  0  0  0  0  0  0  0  0
   -0.6610    0.7210    0.1460 C   0  0  0  0  0  0  0  0  0  0  0  0
   -1.4410    1.3980   -0.5720 O   0  0  0  0  0  0  0  0  0  0  0  0
   -0.9390    3.6140    0.3080 H   0  0  0  0  0  0  0  0  0  0  0  0
    0.5040    4.5710   -0.0690 H   0  0  0  0  0  0  0  0  0  0  0  0
    0.0570    3.2850   -1.2080 H   0  0  0  0  0  0  0  0  0  0  0  0
    1.4490    3.0980    1.4690 H   0  0  0  0  0  0  0  0  0  0  0  0
    2.7340    2.8950   -0.5550 H   0  0  0  0  0  0  0  0  0  0  0  0
    1.6440    1.6610   -1.2190 H   0  0  0  0  0  0  0  0  0  0  0  0
    2.7070    1.3190    0.2490 H   0  0  0  0  0  0  0  0  0  0  0  0
   -0.5840    1.8330    1.9090 H   0  0  0  0  0  0  0  0  0  0  0  0
    1.7300   -0.0360    1.4180 H   0  0  0  0  0  0  0  0  0  0  0  0
   -1.0730   -2.7280   -3.1900 C   0  0  0  0  0  0  0  0  0  0  0  0
   -0.4150   -1.9600   -2.0870 C   0  0  1  0  0  0  0  0  0  0  0  0
    0.3570   -0.8890   -2.5940 O   0  0  0  0  0  0  0  0  0  0  0  0
   -1.4090   -1.3310   -1.1300 C   0  0  2  0  0  0  0  0  0  0  0  0
   -0.6160   -0.6730   -0.1070 N   0  0  0  0  0  0  0  0  0  0  0  0
   -2.2330   -2.4300   -0.5410 C   0  0  0  0  0  0  0  0  0  0  0  0
   -2.2220   -2.7210    0.6820 O   0  0  0  0  0  0  0  0  0  0  0  0
   -3.0580   -3.1750   -1.3700 O   0  0  0  0  0  0  0  0  0  0  0  0
   -1.9030   -2.1700   -3.6350 H   0  0  0  0  0  0  0  0  0  0  0  0
   -0.2970   -2.8680   -3.9940 H   0  0  0  0  0  0  0  0  0  0  0  0
   -1.3230   -3.7360   -2.8330 H   0  0  0  0  0  0  0  0  0  0  0  0
    0.2690   -2.5810   -1.4960 H   0  0  0  0  0  0  0  0  0  0  0  0
    0.9540   -1.1940   -3.3140 H   0  0  0  0  0  0  0  0  0  0  0  0
   -2.0430   -0.6030   -1.6770 H   0  0  0  0  0  0  0  0  0  0  0  0
    0.0140   -1.2790    0.4600 H   0  0  0  0  0  0  0  0  0  0  0  0
  1  9  1  0  0  0  0
  2  1  1  0  0  0  0
  3  2  2  0  0  0  0
  4  2  1  0  0  0  0
  4 12  1  0  0  0  0
  4  5  1  0  0  0  0
  5 13  1  6  0  0  0
  5  6  1  0  0  0  0
  6 14  1  0  0  0  0
  6 15  1  0  0  0  0
  7  8  2  0  0  0  0
  7  5  1  0  0  0  0
 10  1  1  0  0  0  0
 11  4  1  0  0  0  0
 16 24  1  0  0  0  0
 16 23  1  0  0  0  0
 16 17  1  0  0  0  0
 17 19  1  0  0  0  0
 17 26  1  0  0  0  0
 18 29  1  0  0  0  0
 18 17  1  0  0  0  0
 19 30  1  1  0  0  0
 19 20  1  0  0  0  0
 20  7  1  0  0  0  0
 21 19  1  0  0  0  0
 22 21  2  0  0  0  0
 25 16  1  0  0  0  0
 27 18  1  0  0  0  0
 28 18  1  0  0  0  0
 31 20  1  0  0  0  0
 32 42  1  0  0  0  0
 32 33  1  0  0  0  0
 33 43  1  1  0  0  0
 33 35  1  0  0  0  0
 34 33  1  0  0  0  0
 35 45  1  6  0  0  0
 35 37  1  0  0  0  0
 35 36  1  0  0  0  0
 36 21  1  0  0  0  0
 36 46  1  0  0  0  0
 37 38  1  0  0  0  0
 39 37  2  0  0  0  0
 40 32  1  0  0  0  0
 41 32  1  0  0  0  0
 44 34  1  0  0  0  0
M  END
$$$$
