NWA.pdb
 OpenBabel07022418113D

 50 51  0  0  1  0  0  0  0  0999 V2000
    1.3870   -3.8040    1.8130 N   0  0  0  0  0  0  0  0  0  0  0  0
    2.5840   -3.0540    1.7440 C   0  0  0  0  0  0  0  0  0  0  0  0
    3.3040   -3.0580    2.7930 O   0  0  0  0  0  0  0  0  0  0  0  0
    3.0560   -2.2860    0.5860 C   0  0  0  0  0  0  0  0  0  0  0  0
    2.8950   -0.7800    0.8140 C   0  0  2  0  0  0  0  0  0  0  0  0
    3.6560   -0.4110    1.9750 N   0  0  0  0  0  0  0  0  0  0  0  0
    1.4740   -0.5040    1.0370 C   0  0  0  0  0  0  0  0  0  0  0  0
    1.0830   -0.1350    2.1680 O   0  0  0  0  0  0  0  0  0  0  0  0
    0.5260   -3.3320    2.1460 H   0  0  0  0  0  0  0  0  0  0  0  0
    1.3660   -4.8140    1.5360 H   0  0  0  0  0  0  0  0  0  0  0  0
    2.4530   -2.5890   -0.2970 H   0  0  0  0  0  0  0  0  0  0  0  0
    4.1170   -2.4740    0.3350 H   0  0  0  0  0  0  0  0  0  0  0  0
    3.2450   -0.2310   -0.0880 H   0  0  0  0  0  0  0  0  0  0  0  0
    3.2410   -0.7230    2.8600 H   0  0  0  0  0  0  0  0  0  0  0  0
    4.6720   -0.5010    1.8860 H   0  0  0  0  0  0  0  0  0  0  0  0
    0.4840   -0.6340    0.0060 N   0  0  0  0  0  0  0  0  0  0  0  0
   -0.9060   -0.3520    0.2470 C   0  0  1  0  0  0  0  0  0  0  0  0
   -1.2810    1.0120   -0.3690 C   0  0  0  0  0  0  0  0  0  0  0  0
   -0.4340    2.0510    0.2720 C   0  0  0  0  0  0  0  0  0  0  0  0
    0.6720    2.6900   -0.2440 C   0  0  0  0  0  0  0  0  0  0  0  0
    1.1480    3.5630    0.6660 N   0  0  0  0  0  0  0  0  0  0  0  0
    0.3930    3.5270    1.7770 C   0  0  0  0  0  0  0  0  0  0  0  0
    0.4480    4.2050    2.9750 C   0  0  0  0  0  0  0  0  0  0  0  0
   -0.4700    3.9840    3.9880 C   0  0  0  0  0  0  0  0  0  0  0  0
   -1.4530    3.0520    3.7570 C   0  0  0  0  0  0  0  0  0  0  0  0
   -1.5070    2.3760    2.5620 C   0  0  0  0  0  0  0  0  0  0  0  0
   -0.5870    2.5970    1.5450 C   0  0  0  0  0  0  0  0  0  0  0  0
   -1.8340   -1.3980   -0.2280 C   0  0  0  0  0  0  0  0  0  0  0  0
   -3.0640   -1.2560   -0.0610 O   0  0  0  0  0  0  0  0  0  0  0  0
    0.8290   -0.9420   -0.9210 H   0  0  0  0  0  0  0  0  0  0  0  0
   -1.0590   -0.1890    1.3370 H   0  0  0  0  0  0  0  0  0  0  0  0
   -0.9950    0.9740   -1.4410 H   0  0  0  0  0  0  0  0  0  0  0  0
   -2.3490    1.1970   -0.2780 H   0  0  0  0  0  0  0  0  0  0  0  0
    1.0950    2.5260   -1.2170 H   0  0  0  0  0  0  0  0  0  0  0  0
    1.9830    4.1720    0.5140 H   0  0  0  0  0  0  0  0  0  0  0  0
    1.2180    4.9500    3.1850 H   0  0  0  0  0  0  0  0  0  0  0  0
   -0.4080    4.5370    4.9360 H   0  0  0  0  0  0  0  0  0  0  0  0
   -2.1750    2.8680    4.5340 H   0  0  0  0  0  0  0  0  0  0  0  0
   -2.2750    1.6280    2.3430 H   0  0  0  0  0  0  0  0  0  0  0  0
   -2.1360   -3.7000   -2.8630 C   0  0  0  0  0  0  0  0  0  0  0  0
   -2.2800   -3.6020   -1.3540 C   0  0  2  0  0  0  0  0  0  0  0  0
   -1.3780   -2.5590   -0.8690 N   0  0  0  0  0  0  0  0  0  0  0  0
   -1.9530   -4.8670   -0.6730 C   0  0  0  0  0  0  0  0  0  0  0  0
   -1.0290   -4.8940    0.1670 O   0  0  0  0  0  0  0  0  0  0  0  0
   -2.6450   -6.0380   -0.9370 O   0  0  0  0  0  0  0  0  0  0  0  0
   -1.0870   -3.9280   -3.1000 H   0  0  0  0  0  0  0  0  0  0  0  0
   -2.4330   -2.7270   -3.2830 H   0  0  0  0  0  0  0  0  0  0  0  0
   -2.8440   -4.5030   -3.1860 H   0  0  0  0  0  0  0  0  0  0  0  0
   -3.3400   -3.3390   -1.1520 H   0  0  0  0  0  0  0  0  0  0  0  0
   -0.3540   -2.6930   -1.0110 H   0  0  0  0  0  0  0  0  0  0  0  0
  1  9  1  0  0  0  0
  2  1  1  0  0  0  0
  2  3  2  0  0  0  0
  4  5  1  0  0  0  0
  4  2  1  0  0  0  0
  5 13  1  6  0  0  0
  5  7  1  0  0  0  0
  5  6  1  0  0  0  0
  6 14  1  0  0  0  0
  7  8  2  0  0  0  0
 10  1  1  0  0  0  0
 11  4  1  0  0  0  0
 12  4  1  0  0  0  0
 15  6  1  0  0  0  0
 16 17  1  0  0  0  0
 16  7  1  0  0  0  0
 17 31  1  1  0  0  0
 18 33  1  0  0  0  0
 18 17  1  0  0  0  0
 18 19  1  0  0  0  0
 19 27  1  0  0  0  0
 20 19  2  0  0  0  0
 20 21  1  0  0  0  0
 21 22  1  0  0  0  0
 22 23  1  0  0  0  0
 23 36  1  0  0  0  0
 23 24  2  0  0  0  0
 24 37  1  0  0  0  0
 25 24  1  0  0  0  0
 25 38  1  0  0  0  0
 26 25  2  0  0  0  0
 27 22  2  0  0  0  0
 27 26  1  0  0  0  0
 28 29  2  0  0  0  0
 28 17  1  0  0  0  0
 30 16  1  0  0  0  0
 32 18  1  0  0  0  0
 34 20  1  0  0  0  0
 35 21  1  0  0  0  0
 39 26  1  0  0  0  0
 40 41  1  0  0  0  0
 41 49  1  1  0  0  0
 41 42  1  0  0  0  0
 41 43  1  0  0  0  0
 42 28  1  0  0  0  0
 43 44  1  0  0  0  0
 45 43  2  0  0  0  0
 46 40  1  0  0  0  0
 47 40  1  0  0  0  0
 48 40  1  0  0  0  0
 50 42  1  0  0  0  0
M  END
$$$$
