NWG.pdb
 OpenBabel07022418113D

 47 48  0  0  1  0  0  0  0  0999 V2000
    2.0950   -3.6910    2.6740 N   0  0  0  0  0  0  0  0  0  0  0  0
    1.5330   -3.9010    1.3900 C   0  0  0  0  0  0  0  0  0  0  0  0
    0.7300   -4.8440    1.1890 O   0  0  0  0  0  0  0  0  0  0  0  0
    1.8500   -3.0260    0.2070 C   0  0  0  0  0  0  0  0  0  0  0  0
    0.5170   -2.6300   -0.4430 C   0  0  2  0  0  0  0  0  0  0  0  0
    0.8090   -1.7990   -1.5780 N   0  0  0  0  0  0  0  0  0  0  0  0
   -0.1800   -1.8380    0.6360 C   0  0  0  0  0  0  0  0  0  0  0  0
   -0.2950   -2.4120    1.7550 O   0  0  0  0  0  0  0  0  0  0  0  0
    2.8750   -3.0110    2.7630 H   0  0  0  0  0  0  0  0  0  0  0  0
    1.7530   -4.1930    3.5260 H   0  0  0  0  0  0  0  0  0  0  0  0
    2.3270   -2.1010    0.5640 H   0  0  0  0  0  0  0  0  0  0  0  0
    2.4790   -3.5380   -0.5210 H   0  0  0  0  0  0  0  0  0  0  0  0
   -0.1240   -3.4920   -0.6700 H   0  0  0  0  0  0  0  0  0  0  0  0
    1.3910   -0.9890   -1.2530 H   0  0  0  0  0  0  0  0  0  0  0  0
   -0.0860   -1.4770   -1.9930 H   0  0  0  0  0  0  0  0  0  0  0  0
   -0.6570   -0.5510    0.3790 N   0  0  0  0  0  0  0  0  0  0  0  0
   -1.3200    0.2230    1.4360 C   0  0  1  0  0  0  0  0  0  0  0  0
   -1.1680    1.6580    1.1470 C   0  0  0  0  0  0  0  0  0  0  0  0
    0.1730    2.2050    0.9840 C   0  0  0  0  0  0  0  0  0  0  0  0
    0.4560    3.3660    0.2540 C   0  0  0  0  0  0  0  0  0  0  0  0
    1.7690    3.5880    0.3060 N   0  0  0  0  0  0  0  0  0  0  0  0
    2.3910    2.6500    1.0260 C   0  0  0  0  0  0  0  0  0  0  0  0
    3.7040    2.4500    1.3530 C   0  0  0  0  0  0  0  0  0  0  0  0
    4.0720    1.3670    2.1260 C   0  0  0  0  0  0  0  0  0  0  0  0
    3.1110    0.4940    2.5630 C   0  0  0  0  0  0  0  0  0  0  0  0
    1.7950    0.7140    2.2210 C   0  0  0  0  0  0  0  0  0  0  0  0
    1.3790    1.7770    1.4540 C   0  0  0  0  0  0  0  0  0  0  0  0
   -2.8010   -0.1820    1.2330 C   0  0  0  0  0  0  0  0  0  0  0  0
   -3.6440    0.3280    2.0100 O   0  0  0  0  0  0  0  0  0  0  0  0
   -0.5460   -0.1230   -0.5660 H   0  0  0  0  0  0  0  0  0  0  0  0
   -1.1470   -0.1470    2.4420 H   0  0  0  0  0  0  0  0  0  0  0  0
   -1.8570    1.9770    0.2950 H   0  0  0  0  0  0  0  0  0  0  0  0
   -1.6600    2.2020    2.0270 H   0  0  0  0  0  0  0  0  0  0  0  0
   -0.2510    3.9810   -0.2660 H   0  0  0  0  0  0  0  0  0  0  0  0
    2.3070    4.3880   -0.1520 H   0  0  0  0  0  0  0  0  0  0  0  0
    4.4790    3.1240    1.0170 H   0  0  0  0  0  0  0  0  0  0  0  0
    5.1100    1.2190    2.3770 H   0  0  0  0  0  0  0  0  0  0  0  0
    3.4220   -0.3520    3.1690 H   0  0  0  0  0  0  0  0  0  0  0  0
    1.0780    0.0210    2.5640 H   0  0  0  0  0  0  0  0  0  0  0  0
   -3.2020   -1.0720    0.2400 N   0  0  0  0  0  0  0  0  0  0  0  0
   -4.5640   -1.5020   -0.0060 C   0  0  0  0  0  0  0  0  0  0  0  0
   -4.5690   -2.4500   -1.1490 C   0  0  0  0  0  0  0  0  0  0  0  0
   -5.6010   -2.9970   -1.5820 O   0  0  0  0  0  0  0  0  0  0  0  0
   -3.3670   -2.7450   -1.7700 O   0  0  0  0  0  0  0  0  0  0  0  0
   -2.4290   -1.4580   -0.3900 H   0  0  0  0  0  0  0  0  0  0  0  0
   -5.2550   -0.6480   -0.1390 H   0  0  0  0  0  0  0  0  0  0  0  0
   -4.9440   -2.0880    0.8870 H   0  0  0  0  0  0  0  0  0  0  0  0
  1  9  1  0  0  0  0
  1 10  1  0  0  0  0
  2  1  1  0  0  0  0
  3  2  2  0  0  0  0
  4 11  1  0  0  0  0
  4  2  1  0  0  0  0
  5 13  1  6  0  0  0
  5  4  1  0  0  0  0
  5  7  1  0  0  0  0
  6 14  1  0  0  0  0
  6  5  1  0  0  0  0
  7  8  2  0  0  0  0
 12  4  1  0  0  0  0
 15  6  1  0  0  0  0
 16  7  1  0  0  0  0
 16 17  1  0  0  0  0
 17 31  1  1  0  0  0
 18 17  1  0  0  0  0
 18 33  1  0  0  0  0
 19 18  1  0  0  0  0
 19 27  1  0  0  0  0
 20 21  1  0  0  0  0
 20 19  2  0  0  0  0
 21 22  1  0  0  0  0
 22 23  2  0  0  0  0
 22 27  1  0  0  0  0
 23 24  1  0  0  0  0
 24 37  1  0  0  0  0
 24 25  2  0  0  0  0
 25 38  1  0  0  0  0
 26 25  1  0  0  0  0
 26 39  1  0  0  0  0
 27 26  2  0  0  0  0
 28 17  1  0  0  0  0
 28 29  2  0  0  0  0
 30 16  1  0  0  0  0
 32 18  1  0  0  0  0
 34 20  1  0  0  0  0
 35 21  1  0  0  0  0
 36 23  1  0  0  0  0
 40 28  1  0  0  0  0
 41 40  1  0  0  0  0
 41 47  1  0  0  0  0
 42 41  1  0  0  0  0
 43 42  1  0  0  0  0
 44 42  2  0  0  0  0
 45 40  1  0  0  0  0
 46 41  1  0  0  0  0
M  END
$$$$
