NWH.pdb
 OpenBabel07022418113D

 57 59  0  0  1  0  0  0  0  0999 V2000
    3.4780   -2.9090    1.7180 N   0  0  0  0  0  0  0  0  0  0  0  0
    4.4430   -2.2910    0.8850 C   0  0  0  0  0  0  0  0  0  0  0  0
    4.9120   -2.9630   -0.0670 O   0  0  0  0  0  0  0  0  0  0  0  0
    4.9090   -0.9190    1.0860 C   0  0  0  0  0  0  0  0  0  0  0  0
    4.2400   -0.2570    2.2890 C   0  0  2  0  0  0  0  0  0  0  0  0
    4.5410   -1.0150    3.4730 N   0  0  0  0  0  0  0  0  0  0  0  0
    2.7830   -0.2600    2.0320 C   0  0  0  0  0  0  0  0  0  0  0  0
    2.0350   -0.8730    2.8140 O   0  0  0  0  0  0  0  0  0  0  0  0
    3.7290   -3.1140    2.7080 H   0  0  0  0  0  0  0  0  0  0  0  0
    2.5230   -3.1730    1.3910 H   0  0  0  0  0  0  0  0  0  0  0  0
    5.9950   -0.8220    1.2460 H   0  0  0  0  0  0  0  0  0  0  0  0
    4.6770   -0.3230    0.1660 H   0  0  0  0  0  0  0  0  0  0  0  0
    4.6400    0.7680    2.4330 H   0  0  0  0  0  0  0  0  0  0  0  0
    5.5010   -1.4580    3.4200 H   0  0  0  0  0  0  0  0  0  0  0  0
    4.4880   -0.4190    4.3470 H   0  0  0  0  0  0  0  0  0  0  0  0
    2.1900    0.4100    0.9280 N   0  0  0  0  0  0  0  0  0  0  0  0
    0.7310    0.3900    0.6960 C   0  0  1  0  0  0  0  0  0  0  0  0
    0.1970    1.7630    0.6290 C   0  0  0  0  0  0  0  0  0  0  0  0
   -1.2310    1.8610    0.4200 C   0  0  0  0  0  0  0  0  0  0  0  0
   -1.8890    2.3320   -0.6930 C   0  0  0  0  0  0  0  0  0  0  0  0
   -3.2180    2.3100   -0.4900 N   0  0  0  0  0  0  0  0  0  0  0  0
   -3.4700    1.8320    0.7440 C   0  0  0  0  0  0  0  0  0  0  0  0
   -4.6700    1.6280    1.3930 C   0  0  0  0  0  0  0  0  0  0  0  0
   -4.6130    1.1160    2.6780 C   0  0  0  0  0  0  0  0  0  0  0  0
   -3.3910    0.8310    3.2580 C   0  0  0  0  0  0  0  0  0  0  0  0
   -2.1930    1.0380    2.6020 C   0  0  0  0  0  0  0  0  0  0  0  0
   -2.2470    1.5500    1.3180 C   0  0  0  0  0  0  0  0  0  0  0  0
    0.5360   -0.3710   -0.5400 C   0  0  0  0  0  0  0  0  0  0  0  0
    1.5410   -0.7810   -1.2410 O   0  0  0  0  0  0  0  0  0  0  0  0
    2.8310    0.9180    0.2830 H   0  0  0  0  0  0  0  0  0  0  0  0
    0.2640   -0.2210    1.5230 H   0  0  0  0  0  0  0  0  0  0  0  0
    0.7500    2.2870   -0.2030 H   0  0  0  0  0  0  0  0  0  0  0  0
    0.4450    2.3840    1.5280 H   0  0  0  0  0  0  0  0  0  0  0  0
   -1.4370    2.6810   -1.6090 H   0  0  0  0  0  0  0  0  0  0  0  0
   -3.9750    2.6140   -1.1720 H   0  0  0  0  0  0  0  0  0  0  0  0
   -5.6260    1.8460    0.9500 H   0  0  0  0  0  0  0  0  0  0  0  0
   -5.5390    0.9320    3.2450 H   0  0  0  0  0  0  0  0  0  0  0  0
   -3.3220    0.4250    4.2760 H   0  0  0  0  0  0  0  0  0  0  0  0
   -1.2490    0.8000    3.0970 H   0  0  0  0  0  0  0  0  0  0  0  0
   -0.7190   -0.7540   -1.1070 N   0  0  0  0  0  0  0  0  0  0  0  0
   -0.7920   -1.5330   -2.3290 C   0  0  1  0  0  0  0  0  0  0  0  0
   -1.8620   -2.5660   -2.1880 C   0  0  0  0  0  0  0  0  0  0  0  0
   -1.6770   -3.5410   -1.1090 C   0  0  0  0  0  0  0  0  0  0  0  0
   -0.7030   -3.7440   -0.1860 C   0  0  0  0  0  0  0  0  0  0  0  0
   -1.0200   -4.7910    0.5670 N   0  0  0  0  0  0  0  0  0  0  0  0
   -2.1880   -5.2710    0.1450 C   0  0  0  0  0  0  0  0  0  0  0  0
   -2.5980   -4.5140   -0.8790 N   0  0  0  0  0  0  0  0  0  0  0  0
   -1.2180   -0.6520   -3.4700 C   0  0  0  0  0  0  0  0  0  0  0  0
   -1.4440    0.5590   -3.3090 O   0  0  0  0  0  0  0  0  0  0  0  0
   -1.3610   -1.2060   -4.7310 O   0  0  0  0  0  0  0  0  0  0  0  0
   -1.6030   -0.4840   -0.6400 H   0  0  0  0  0  0  0  0  0  0  0  0
    0.2160   -1.9490   -2.5940 H   0  0  0  0  0  0  0  0  0  0  0  0
   -2.8080   -1.9950   -1.9450 H   0  0  0  0  0  0  0  0  0  0  0  0
   -2.1010   -3.0500   -3.1660 H   0  0  0  0  0  0  0  0  0  0  0  0
    0.1970   -3.1370   -0.0940 H   0  0  0  0  0  0  0  0  0  0  0  0
   -0.4600   -5.1830    1.3580 H   0  0  0  0  0  0  0  0  0  0  0  0
   -2.7620   -6.1220    0.5190 H   0  0  0  0  0  0  0  0  0  0  0  0
  1  9  1  0  0  0  0
  2  4  1  0  0  0  0
  2  1  1  0  0  0  0
  3  2  2  0  0  0  0
  4 11  1  0  0  0  0
  4  5  1  0  0  0  0
  5 13  1  1  0  0  0
  5  6  1  0  0  0  0
  6 15  1  0  0  0  0
  7  5  1  0  0  0  0
  7  8  2  0  0  0  0
 10  1  1  0  0  0  0
 12  4  1  0  0  0  0
 14  6  1  0  0  0  0
 16  7  1  0  0  0  0
 17 16  1  0  0  0  0
 17 31  1  1  0  0  0
 18 17  1  0  0  0  0
 18 33  1  0  0  0  0
 19 18  1  0  0  0  0
 19 27  1  0  0  0  0
 20 21  1  0  0  0  0
 20 19  2  0  0  0  0
 21 22  1  0  0  0  0
 22 27  2  0  0  0  0
 22 23  1  0  0  0  0
 23 24  2  0  0  0  0
 24 37  1  0  0  0  0
 24 25  1  0  0  0  0
 25 38  1  0  0  0  0
 26 39  1  0  0  0  0
 26 25  2  0  0  0  0
 27 26  1  0  0  0  0
 28 17  1  0  0  0  0
 29 28  2  0  0  0  0
 30 16  1  0  0  0  0
 32 18  1  0  0  0  0
 34 20  1  0  0  0  0
 35 21  1  0  0  0  0
 36 23  1  0  0  0  0
 40 51  1  0  0  0  0
 40 28  1  0  0  0  0
 41 52  1  6  0  0  0
 41 42  1  0  0  0  0
 41 40  1  0  0  0  0
 42 53  1  0  0  0  0
 42 43  1  0  0  0  0
 43 47  1  0  0  0  0
 43 44  2  0  0  0  0
 44 55  1  0  0  0  0
 44 45  1  0  0  0  0
 45 56  1  0  0  0  0
 46 57  1  0  0  0  0
 46 45  1  0  0  0  0
 47 46  2  0  0  0  0
 48 49  1  0  0  0  0
 48 41  1  0  0  0  0
 50 48  2  0  0  0  0
 54 42  1  0  0  0  0
M  END
$$$$
