NWR.pdb
 OpenBabel07022418113D

 63 64  0  0  1  0  0  0  0  0999 V2000
    6.9370    2.3620    2.5970 N   0  0  0  0  0  0  0  0  0  0  0  0
    5.7910    2.5460    1.7920 C   0  0  0  0  0  0  0  0  0  0  0  0
    5.9570    2.9690    0.6200 O   0  0  0  0  0  0  0  0  0  0  0  0
    4.4130    2.2830    2.2150 C   0  0  0  0  0  0  0  0  0  0  0  0
    3.8410    0.9730    1.8200 C   0  0  2  0  0  0  0  0  0  0  0  0
    3.8240    0.8270    0.3790 N   0  0  0  0  0  0  0  0  0  0  0  0
    2.3910    1.0000    2.2320 C   0  0  0  0  0  0  0  0  0  0  0  0
    2.1480    1.1420    3.4660 O   0  0  0  0  0  0  0  0  0  0  0  0
    7.9070    2.4260    2.2840 H   0  0  0  0  0  0  0  0  0  0  0  0
    6.7850    2.1350    3.6240 H   0  0  0  0  0  0  0  0  0  0  0  0
    3.7610    3.0930    1.8040 H   0  0  0  0  0  0  0  0  0  0  0  0
    4.3660    2.3630    3.3290 H   0  0  0  0  0  0  0  0  0  0  0  0
    4.3410    0.1040    2.3100 H   0  0  0  0  0  0  0  0  0  0  0  0
    3.4300   -0.0540    0.0420 H   0  0  0  0  0  0  0  0  0  0  0  0
    4.7000    1.1360   -0.0820 H   0  0  0  0  0  0  0  0  0  0  0  0
    1.3310    0.8780    1.3460 N   0  0  0  0  0  0  0  0  0  0  0  0
   -0.0570    0.9100    1.8070 C   0  0  1  0  0  0  0  0  0  0  0  0
   -0.6840    2.1650    1.3030 C   0  0  0  0  0  0  0  0  0  0  0  0
   -2.0830    2.4060    1.6070 C   0  0  0  0  0  0  0  0  0  0  0  0
   -2.6570    3.1360    2.6460 C   0  0  0  0  0  0  0  0  0  0  0  0
   -3.9920    3.0710    2.5550 N   0  0  0  0  0  0  0  0  0  0  0  0
   -4.3460    2.3210    1.4880 C   0  0  0  0  0  0  0  0  0  0  0  0
   -5.6120    1.9850    0.9880 C   0  0  0  0  0  0  0  0  0  0  0  0
   -5.6960    1.2080   -0.1440 C   0  0  0  0  0  0  0  0  0  0  0  0
   -4.5230    0.7930   -0.7380 C   0  0  0  0  0  0  0  0  0  0  0  0
   -3.2830    1.1250   -0.2440 C   0  0  0  0  0  0  0  0  0  0  0  0
   -3.1760    1.9060    0.8950 C   0  0  0  0  0  0  0  0  0  0  0  0
   -0.7600   -0.3400    1.5420 C   0  0  0  0  0  0  0  0  0  0  0  0
   -1.9280   -0.5260    2.0270 O   0  0  0  0  0  0  0  0  0  0  0  0
    1.4810    0.7590    0.3290 H   0  0  0  0  0  0  0  0  0  0  0  0
   -0.0180    1.0350    2.9370 H   0  0  0  0  0  0  0  0  0  0  0  0
   -0.1140    3.0700    1.6730 H   0  0  0  0  0  0  0  0  0  0  0  0
   -0.5590    2.2470    0.1810 H   0  0  0  0  0  0  0  0  0  0  0  0
   -2.0540    3.6670    3.4000 H   0  0  0  0  0  0  0  0  0  0  0  0
   -4.6730    3.5220    3.1980 H   0  0  0  0  0  0  0  0  0  0  0  0
   -6.5160    2.3220    1.4720 H   0  0  0  0  0  0  0  0  0  0  0  0
   -6.6780    0.9390   -0.5420 H   0  0  0  0  0  0  0  0  0  0  0  0
   -4.6140    0.1810   -1.6290 H   0  0  0  0  0  0  0  0  0  0  0  0
   -2.3480    0.8050   -0.7020 H   0  0  0  0  0  0  0  0  0  0  0  0
    1.1890   -5.0530   -3.6990 N   0  0  0  0  0  0  0  0  0  0  0  0
   -0.0750   -5.4940   -3.2350 C   0  0  0  0  0  0  0  0  0  0  0  0
   -0.9680   -5.8230   -4.1020 N   0  0  0  0  0  0  0  0  0  0  0  0
   -0.3690   -5.5760   -1.8310 N   0  0  0  0  0  0  0  0  0  0  0  0
   -1.7030   -5.2610   -1.3820 C   0  0  0  0  0  0  0  0  0  0  0  0
   -2.0630   -3.8330   -1.5350 C   0  0  0  0  0  0  0  0  0  0  0  0
   -1.2630   -2.7750   -0.9230 C   0  0  0  0  0  0  0  0  0  0  0  0
   -1.0690   -2.6670    0.5510 C   0  0  2  0  0  0  0  0  0  0  0  0
   -0.2620   -1.4060    0.7740 N   0  0  0  0  0  0  0  0  0  0  0  0
   -0.1390   -3.7040    1.0470 C   0  0  0  0  0  0  0  0  0  0  0  0
    1.0740   -3.3210    1.2890 O   0  0  0  0  0  0  0  0  0  0  0  0
   -0.4440   -5.0330    1.2800 O   0  0  0  0  0  0  0  0  0  0  0  0
    2.0450   -5.6160   -3.5530 H   0  0  0  0  0  0  0  0  0  0  0  0
    1.2930   -4.1300   -4.2110 H   0  0  0  0  0  0  0  0  0  0  0  0
   -0.7730   -5.7680   -5.1140 H   0  0  0  0  0  0  0  0  0  0  0  0
    0.3890   -5.8590   -1.1850 H   0  0  0  0  0  0  0  0  0  0  0  0
   -2.0100   -5.7790   -0.4780 H   0  0  0  0  0  0  0  0  0  0  0  0
   -2.3790   -5.8230   -2.1810 H   0  0  0  0  0  0  0  0  0  0  0  0
   -3.1740   -3.7510   -1.2190 H   0  0  0  0  0  0  0  0  0  0  0  0
   -2.1910   -3.6250   -2.6630 H   0  0  0  0  0  0  0  0  0  0  0  0
   -0.1930   -2.8980   -1.3440 H   0  0  0  0  0  0  0  0  0  0  0  0
   -1.6070   -1.7460   -1.2700 H   0  0  0  0  0  0  0  0  0  0  0  0
   -2.0050   -2.6070    1.1050 H   0  0  0  0  0  0  0  0  0  0  0  0
    0.6640   -1.3590    0.3410 H   0  0  0  0  0  0  0  0  0  0  0  0
  1 10  1  0  0  0  0
  2  4  1  0  0  0  0
  2  1  1  0  0  0  0
  3  2  2  0  0  0  0
  4 12  1  0  0  0  0
  5  4  1  0  0  0  0
  5  7  1  0  0  0  0
  5 13  1  1  0  0  0
  6  5  1  0  0  0  0
  7  8  2  0  0  0  0
  9  1  1  0  0  0  0
 11  4  1  0  0  0  0
 14  6  1  0  0  0  0
 15  6  1  0  0  0  0
 16 17  1  0  0  0  0
 16  7  1  0  0  0  0
 17 31  1  1  0  0  0
 18 19  1  0  0  0  0
 18 32  1  0  0  0  0
 18 17  1  0  0  0  0
 19 20  2  0  0  0  0
 20 34  1  0  0  0  0
 21 20  1  0  0  0  0
 21 35  1  0  0  0  0
 22 21  1  0  0  0  0
 23 36  1  0  0  0  0
 23 22  1  0  0  0  0
 24 23  2  0  0  0  0
 25 26  2  0  0  0  0
 25 24  1  0  0  0  0
 26 27  1  0  0  0  0
 27 22  2  0  0  0  0
 27 19  1  0  0  0  0
 28 17  1  0  0  0  0
 28 29  2  0  0  0  0
 30 16  1  0  0  0  0
 33 18  1  0  0  0  0
 37 24  1  0  0  0  0
 38 25  1  0  0  0  0
 39 26  1  0  0  0  0
 40 52  1  0  0  0  0
 40 41  1  0  0  0  0
 41 43  1  0  0  0  0
 42 41  2  0  0  0  0
 43 44  1  0  0  0  0
 43 55  1  0  0  0  0
 44 56  1  0  0  0  0
 45 44  1  0  0  0  0
 45 58  1  0  0  0  0
 45 46  1  0  0  0  0
 46 47  1  0  0  0  0
 47 48  1  0  0  0  0
 47 49  1  0  0  0  0
 47 62  1  1  0  0  0
 48 28  1  0  0  0  0
 49 51  2  0  0  0  0
 49 50  1  0  0  0  0
 53 40  1  0  0  0  0
 54 42  1  0  0  0  0
 57 44  1  0  0  0  0
 59 45  1  0  0  0  0
 60 46  1  0  0  0  0
 61 46  1  0  0  0  0
 63 48  1  0  0  0  0
M  END
$$$$
