NWV.pdb
 OpenBabel07022418123D

 56 57  0  0  1  0  0  0  0  0999 V2000
    2.4420   -3.2460    2.8960 N   0  0  0  0  0  0  0  0  0  0  0  0
    3.7230   -3.0150    2.3390 C   0  0  0  0  0  0  0  0  0  0  0  0
    4.7250   -3.3090    3.0540 O   0  0  0  0  0  0  0  0  0  0  0  0
    3.9750   -2.4610    0.9970 C   0  0  0  0  0  0  0  0  0  0  0  0
    4.2270   -0.9620    1.0480 C   0  0  2  0  0  0  0  0  0  0  0  0
    5.3730   -0.6590    1.8780 N   0  0  0  0  0  0  0  0  0  0  0  0
    2.9820   -0.3140    1.4720 C   0  0  0  0  0  0  0  0  0  0  0  0
    2.9020    0.3020    2.5730 O   0  0  0  0  0  0  0  0  0  0  0  0
    2.1060   -4.2060    3.1820 H   0  0  0  0  0  0  0  0  0  0  0  0
    1.7530   -2.4650    3.0550 H   0  0  0  0  0  0  0  0  0  0  0  0
    4.8520   -2.9160    0.4960 H   0  0  0  0  0  0  0  0  0  0  0  0
    3.0540   -2.5960    0.3700 H   0  0  0  0  0  0  0  0  0  0  0  0
    4.4630   -0.6360    0.0180 H   0  0  0  0  0  0  0  0  0  0  0  0
    5.9270   -1.5410    1.9480 H   0  0  0  0  0  0  0  0  0  0  0  0
    5.1470   -0.2120    2.7710 H   0  0  0  0  0  0  0  0  0  0  0  0
    1.8490   -0.3870    0.6110 N   0  0  0  0  0  0  0  0  0  0  0  0
    0.5690    0.2460    0.9900 C   0  0  1  0  0  0  0  0  0  0  0  0
    0.4840    1.5400    0.2550 C   0  0  0  0  0  0  0  0  0  0  0  0
   -0.7440    2.3170    0.4870 C   0  0  0  0  0  0  0  0  0  0  0  0
   -0.9310    3.3100    1.4630 C   0  0  0  0  0  0  0  0  0  0  0  0
   -2.1830    3.7700    1.4070 N   0  0  0  0  0  0  0  0  0  0  0  0
   -2.8750    3.1370    0.4310 C   0  0  0  0  0  0  0  0  0  0  0  0
   -4.1740    3.2790   -0.0080 C   0  0  0  0  0  0  0  0  0  0  0  0
   -4.6270    2.5090   -1.0540 C   0  0  0  0  0  0  0  0  0  0  0  0
   -3.7460    1.6160   -1.6250 C   0  0  0  0  0  0  0  0  0  0  0  0
   -2.4520    1.4810   -1.1780 C   0  0  0  0  0  0  0  0  0  0  0  0
   -1.9800    2.2430   -0.1310 C   0  0  0  0  0  0  0  0  0  0  0  0
   -0.5680   -0.6650    0.8670 C   0  0  0  0  0  0  0  0  0  0  0  0
   -1.7050   -0.3090    1.2800 O   0  0  0  0  0  0  0  0  0  0  0  0
    1.9580   -0.8990   -0.2910 H   0  0  0  0  0  0  0  0  0  0  0  0
    0.7260    0.5440    2.0820 H   0  0  0  0  0  0  0  0  0  0  0  0
    1.3780    2.1650    0.4570 H   0  0  0  0  0  0  0  0  0  0  0  0
    0.4860    1.2820   -0.8470 H   0  0  0  0  0  0  0  0  0  0  0  0
   -0.1280    3.6030    2.1230 H   0  0  0  0  0  0  0  0  0  0  0  0
   -2.5710    4.5140    2.0320 H   0  0  0  0  0  0  0  0  0  0  0  0
   -4.8720    3.9770    0.4340 H   0  0  0  0  0  0  0  0  0  0  0  0
   -5.6580    2.5980   -1.4290 H   0  0  0  0  0  0  0  0  0  0  0  0
   -4.0890    1.0070   -2.4480 H   0  0  0  0  0  0  0  0  0  0  0  0
   -1.7430    0.7900   -1.6100 H   0  0  0  0  0  0  0  0  0  0  0  0
   -0.8830   -3.8070   -2.0440 C   0  0  0  0  0  0  0  0  0  0  0  0
   -1.9720   -3.1570   -1.2420 C   0  0  0  0  0  0  0  0  0  0  0  0
   -2.5390   -1.9700   -1.9790 C   0  0  0  0  0  0  0  0  0  0  0  0
   -1.5670   -2.8400    0.1820 C   0  0  2  0  0  0  0  0  0  0  0  0
   -0.4520   -1.9580    0.2940 N   0  0  0  0  0  0  0  0  0  0  0  0
   -1.3730   -4.1150    0.9170 C   0  0  0  0  0  0  0  0  0  0  0  0
   -2.2540   -5.0090    0.9200 O   0  0  0  0  0  0  0  0  0  0  0  0
   -0.2000   -4.3160    1.6070 O   0  0  0  0  0  0  0  0  0  0  0  0
   -1.3080   -4.0090   -3.0570 H   0  0  0  0  0  0  0  0  0  0  0  0
   -0.6090   -4.7930   -1.6200 H   0  0  0  0  0  0  0  0  0  0  0  0
   -0.0110   -3.1410   -2.2060 H   0  0  0  0  0  0  0  0  0  0  0  0
   -2.8030   -3.9250   -1.1760 H   0  0  0  0  0  0  0  0  0  0  0  0
   -3.2790   -2.3280   -2.7550 H   0  0  0  0  0  0  0  0  0  0  0  0
   -3.1430   -1.3190   -1.3070 H   0  0  0  0  0  0  0  0  0  0  0  0
   -1.7810   -1.4030   -2.5430 H   0  0  0  0  0  0  0  0  0  0  0  0
   -2.4560   -2.3290    0.6370 H   0  0  0  0  0  0  0  0  0  0  0  0
    0.4800   -2.2600   -0.0500 H   0  0  0  0  0  0  0  0  0  0  0  0
  1 10  1  0  0  0  0
  1  9  1  0  0  0  0
  2  1  1  0  0  0  0
  2  3  2  0  0  0  0
  4  5  1  0  0  0  0
  4  2  1  0  0  0  0
  5 13  1  6  0  0  0
  5  7  1  0  0  0  0
  5  6  1  0  0  0  0
  6 14  1  0  0  0  0
  6 15  1  0  0  0  0
  7  8  2  0  0  0  0
 11  4  1  0  0  0  0
 12  4  1  0  0  0  0
 16 17  1  0  0  0  0
 16  7  1  0  0  0  0
 17 31  1  1  0  0  0
 18 32  1  0  0  0  0
 18 19  1  0  0  0  0
 18 17  1  0  0  0  0
 19 20  2  0  0  0  0
 20 34  1  0  0  0  0
 21 20  1  0  0  0  0
 21 35  1  0  0  0  0
 22 21  1  0  0  0  0
 23 22  1  0  0  0  0
 23 36  1  0  0  0  0
 24 23  2  0  0  0  0
 25 26  2  0  0  0  0
 25 24  1  0  0  0  0
 26 27  1  0  0  0  0
 27 22  2  0  0  0  0
 27 19  1  0  0  0  0
 28 17  1  0  0  0  0
 28 29  2  0  0  0  0
 30 16  1  0  0  0  0
 33 18  1  0  0  0  0
 37 24  1  0  0  0  0
 38 25  1  0  0  0  0
 39 26  1  0  0  0  0
 40 49  1  0  0  0  0
 40 41  1  0  0  0  0
 41 51  1  0  0  0  0
 41 43  1  0  0  0  0
 42 53  1  0  0  0  0
 42 41  1  0  0  0  0
 43 44  1  0  0  0  0
 43 55  1  1  0  0  0
 43 45  1  0  0  0  0
 44 28  1  0  0  0  0
 45 46  2  0  0  0  0
 45 47  1  0  0  0  0
 48 40  1  0  0  0  0
 50 40  1  0  0  0  0
 52 42  1  0  0  0  0
 54 42  1  0  0  0  0
 56 44  1  0  0  0  0
M  END
$$$$
