NWY.pdb
 OpenBabel07022418123D

 61 63  0  0  1  0  0  0  0  0999 V2000
    4.9900    0.2390   -0.6340 N   0  0  0  0  0  0  0  0  0  0  0  0
    4.0050    1.0020    0.0980 C   0  0  0  0  0  0  0  0  0  0  0  0
    2.8410    1.0320   -0.3540 O   0  0  0  0  0  0  0  0  0  0  0  0
    4.3700    1.7040    1.3140 C   0  0  0  0  0  0  0  0  0  0  0  0
    3.2690    2.4170    2.0530 C   0  0  2  0  0  0  0  0  0  0  0  0
    3.9950    3.0340    3.2110 N   0  0  0  0  0  0  0  0  0  0  0  0
    2.2900    1.5080    2.6970 C   0  0  0  0  0  0  0  0  0  0  0  0
    2.6090    1.0470    3.8390 O   0  0  0  0  0  0  0  0  0  0  0  0
    6.0040    0.4680   -0.5720 H   0  0  0  0  0  0  0  0  0  0  0  0
    4.7190   -0.5610   -1.2420 H   0  0  0  0  0  0  0  0  0  0  0  0
    5.1140    2.5100    1.0400 H   0  0  0  0  0  0  0  0  0  0  0  0
    4.8570    1.0130    2.0370 H   0  0  0  0  0  0  0  0  0  0  0  0
    2.8300    3.2590    1.5110 H   0  0  0  0  0  0  0  0  0  0  0  0
    4.9460    3.3100    2.9220 H   0  0  0  0  0  0  0  0  0  0  0  0
    3.3960    3.8330    3.5180 H   0  0  0  0  0  0  0  0  0  0  0  0
    1.0400    1.1150    2.1600 N   0  0  0  0  0  0  0  0  0  0  0  0
    0.1350    0.2020    2.8770 C   0  0  1  0  0  0  0  0  0  0  0  0
   -1.0620    0.9660    3.3890 C   0  0  0  0  0  0  0  0  0  0  0  0
   -1.8570    1.6510    2.3790 C   0  0  0  0  0  0  0  0  0  0  0  0
   -1.7260    2.9920    2.0910 C   0  0  0  0  0  0  0  0  0  0  0  0
   -2.5660    3.3130    1.1040 N   0  0  0  0  0  0  0  0  0  0  0  0
   -3.2520    2.1910    0.7380 C   0  0  0  0  0  0  0  0  0  0  0  0
   -4.2310    2.0200   -0.2310 C   0  0  0  0  0  0  0  0  0  0  0  0
   -4.7940    0.7810   -0.4190 C   0  0  0  0  0  0  0  0  0  0  0  0
   -4.3410   -0.2670    0.3920 C   0  0  0  0  0  0  0  0  0  0  0  0
   -3.3810   -0.0880    1.3380 C   0  0  0  0  0  0  0  0  0  0  0  0
   -2.8140    1.1520    1.5300 C   0  0  0  0  0  0  0  0  0  0  0  0
   -0.1320   -1.0430    2.1920 C   0  0  0  0  0  0  0  0  0  0  0  0
   -0.7860   -1.9320    2.8100 O   0  0  0  0  0  0  0  0  0  0  0  0
    0.7750    1.5110    1.2340 H   0  0  0  0  0  0  0  0  0  0  0  0
    0.7070   -0.0680    3.8200 H   0  0  0  0  0  0  0  0  0  0  0  0
   -0.6690    1.6710    4.1820 H   0  0  0  0  0  0  0  0  0  0  0  0
   -1.7640    0.2960    3.9500 H   0  0  0  0  0  0  0  0  0  0  0  0
   -1.0360    3.6880    2.5970 H   0  0  0  0  0  0  0  0  0  0  0  0
   -2.7050    4.2570    0.6560 H   0  0  0  0  0  0  0  0  0  0  0  0
   -4.5480    2.8760   -0.8390 H   0  0  0  0  0  0  0  0  0  0  0  0
   -5.5550    0.6310   -1.1690 H   0  0  0  0  0  0  0  0  0  0  0  0
   -4.8330   -1.2270    0.1900 H   0  0  0  0  0  0  0  0  0  0  0  0
   -3.0650   -0.9030    1.9460 H   0  0  0  0  0  0  0  0  0  0  0  0
   -2.1180   -7.3090   -3.6840 O   0  0  0  0  0  0  0  0  0  0  0  0
   -1.8710   -6.1300   -2.9770 C   0  0  0  0  0  0  0  0  0  0  0  0
   -2.6640   -5.7300   -1.9260 C   0  0  0  0  0  0  0  0  0  0  0  0
   -2.3890   -4.5500   -1.2440 C   0  0  0  0  0  0  0  0  0  0  0  0
   -1.3300   -3.7420   -1.5830 C   0  0  0  0  0  0  0  0  0  0  0  0
   -0.9750   -2.4800   -0.9120 C   0  0  0  0  0  0  0  0  0  0  0  0
   -0.0440   -2.6760    0.2610 C   0  0  2  0  0  0  0  0  0  0  0  0
    0.2720   -1.3790    0.8740 N   0  0  0  0  0  0  0  0  0  0  0  0
    1.1950   -3.3880   -0.0460 C   0  0  0  0  0  0  0  0  0  0  0  0
    2.3240   -2.8500    0.2070 O   0  0  0  0  0  0  0  0  0  0  0  0
   -0.5540   -4.1670   -2.6390 C   0  0  0  0  0  0  0  0  0  0  0  0
   -0.8100   -5.3340   -3.3290 C   0  0  0  0  0  0  0  0  0  0  0  0
    1.2240   -4.6480   -0.6120 O   0  0  0  0  0  0  0  0  0  0  0  0
   -3.0310   -7.6720   -3.8670 H   0  0  0  0  0  0  0  0  0  0  0  0
   -3.4950   -6.3640   -1.6620 H   0  0  0  0  0  0  0  0  0  0  0  0
   -3.0220   -4.2480   -0.4170 H   0  0  0  0  0  0  0  0  0  0  0  0
   -0.6270   -1.6940   -1.6130 H   0  0  0  0  0  0  0  0  0  0  0  0
   -1.9290   -2.0620   -0.4710 H   0  0  0  0  0  0  0  0  0  0  0  0
   -0.5840   -3.2530    1.0470 H   0  0  0  0  0  0  0  0  0  0  0  0
    0.8120   -0.6600    0.3370 H   0  0  0  0  0  0  0  0  0  0  0  0
    0.2840   -3.5810   -2.9560 H   0  0  0  0  0  0  0  0  0  0  0  0
   -0.1950   -5.6500   -4.1470 H   0  0  0  0  0  0  0  0  0  0  0  0
  1  9  1  0  0  0  0
  1  2  1  0  0  0  0
  2  4  1  0  0  0  0
  3  2  2  0  0  0  0
  4 12  1  0  0  0  0
  4  5  1  0  0  0  0
  5 13  1  6  0  0  0
  5  7  1  0  0  0  0
  5  6  1  0  0  0  0
  6 15  1  0  0  0  0
  7  8  2  0  0  0  0
 10  1  1  0  0  0  0
 11  4  1  0  0  0  0
 14  6  1  0  0  0  0
 16  7  1  0  0  0  0
 16 17  1  0  0  0  0
 17 18  1  0  0  0  0
 17 31  1  1  0  0  0
 18 33  1  0  0  0  0
 18 32  1  0  0  0  0
 19 18  1  0  0  0  0
 20 19  2  0  0  0  0
 20 34  1  0  0  0  0
 21 20  1  0  0  0  0
 22 21  1  0  0  0  0
 22 27  1  0  0  0  0
 23 22  2  0  0  0  0
 24 23  1  0  0  0  0
 24 25  2  0  0  0  0
 25 26  1  0  0  0  0
 26 27  2  0  0  0  0
 26 39  1  0  0  0  0
 27 19  1  0  0  0  0
 28 29  2  0  0  0  0
 28 17  1  0  0  0  0
 30 16  1  0  0  0  0
 35 21  1  0  0  0  0
 36 23  1  0  0  0  0
 37 24  1  0  0  0  0
 38 25  1  0  0  0  0
 40 41  1  0  0  0  0
 41 42  1  0  0  0  0
 42 54  1  0  0  0  0
 42 43  2  0  0  0  0
 43 55  1  0  0  0  0
 44 43  1  0  0  0  0
 44 45  1  0  0  0  0
 45 57  1  0  0  0  0
 45 46  1  0  0  0  0
 46 47  1  0  0  0  0
 46 58  1  1  0  0  0
 47 28  1  0  0  0  0
 48 49  1  0  0  0  0
 48 46  1  0  0  0  0
 50 44  2  0  0  0  0
 51 41  2  0  0  0  0
 51 50  1  0  0  0  0
 52 48  2  0  0  0  0
 53 40  1  0  0  0  0
 56 45  1  0  0  0  0
 59 47  1  0  0  0  0
 60 50  1  0  0  0  0
 61 51  1  0  0  0  0
M  END
$$$$
