NYA.pdb
 OpenBabel07022418123D

 47 47  0  0  1  0  0  0  0  0999 V2000
    5.1390   -3.7950    1.7730 N   0  0  0  0  0  0  0  0  0  0  0  0
    3.7630   -3.9600    1.5130 C   0  0  0  0  0  0  0  0  0  0  0  0
    3.3050   -5.1260    1.5940 O   0  0  0  0  0  0  0  0  0  0  0  0
    2.8570   -2.8420    1.1580 C   0  0  0  0  0  0  0  0  0  0  0  0
    1.4830   -3.3710    0.9540 C   0  0  2  0  0  0  0  0  0  0  0  0
    1.5130   -4.3430   -0.1220 N   0  0  0  0  0  0  0  0  0  0  0  0
    0.4830   -2.3170    0.6440 C   0  0  0  0  0  0  0  0  0  0  0  0
   -0.1720   -2.3780   -0.4240 O   0  0  0  0  0  0  0  0  0  0  0  0
    5.8280   -4.2210    1.1280 H   0  0  0  0  0  0  0  0  0  0  0  0
    5.4850   -3.2600    2.5890 H   0  0  0  0  0  0  0  0  0  0  0  0
    2.9220   -2.0220    1.8940 H   0  0  0  0  0  0  0  0  0  0  0  0
    3.2220   -2.4610    0.1610 H   0  0  0  0  0  0  0  0  0  0  0  0
    1.1960   -3.9460    1.8790 H   0  0  0  0  0  0  0  0  0  0  0  0
    1.0830   -3.9420   -1.0020 H   0  0  0  0  0  0  0  0  0  0  0  0
    0.9480   -5.1850    0.1110 H   0  0  0  0  0  0  0  0  0  0  0  0
    4.2660    3.0680   -1.1150 O   0  0  0  0  0  0  0  0  0  0  0  0
    3.0500    2.4090   -0.8580 C   0  0  0  0  0  0  0  0  0  0  0  0
    2.0730    3.1030   -0.2110 C   0  0  0  0  0  0  0  0  0  0  0  0
    0.8760    2.4440    0.0380 C   0  0  0  0  0  0  0  0  0  0  0  0
    0.6690    1.1380   -0.3490 C   0  0  0  0  0  0  0  0  0  0  0  0
   -0.6070    0.5030   -0.0710 C   0  0  0  0  0  0  0  0  0  0  0  0
   -0.7120   -0.1640    1.2870 C   0  0  2  0  0  0  0  0  0  0  0  0
    0.2240   -1.2230    1.5110 N   0  0  0  0  0  0  0  0  0  0  0  0
   -2.1010   -0.5080    1.6530 C   0  0  0  0  0  0  0  0  0  0  0  0
   -2.3200   -1.6810    2.1100 O   0  0  0  0  0  0  0  0  0  0  0  0
    1.6630    0.4630   -0.9970 C   0  0  0  0  0  0  0  0  0  0  0  0
    2.8810    1.1060   -1.2600 C   0  0  0  0  0  0  0  0  0  0  0  0
    4.6400    3.1040   -2.0560 H   0  0  0  0  0  0  0  0  0  0  0  0
    2.2570    4.1260    0.0830 H   0  0  0  0  0  0  0  0  0  0  0  0
    0.1180    3.0280    0.5570 H   0  0  0  0  0  0  0  0  0  0  0  0
   -1.4050    1.3080   -0.1220 H   0  0  0  0  0  0  0  0  0  0  0  0
   -0.9350   -0.2430   -0.8220 H   0  0  0  0  0  0  0  0  0  0  0  0
   -0.4000    0.6780    1.9920 H   0  0  0  0  0  0  0  0  0  0  0  0
    0.8180   -1.2480    2.4040 H   0  0  0  0  0  0  0  0  0  0  0  0
    1.5990   -0.5620   -1.3470 H   0  0  0  0  0  0  0  0  0  0  0  0
    3.6760    0.5730   -1.7760 H   0  0  0  0  0  0  0  0  0  0  0  0
   -5.1060    0.9530    2.9490 C   0  0  0  0  0  0  0  0  0  0  0  0
   -4.5630    0.0210    1.8940 C   0  0  2  0  0  0  0  0  0  0  0  0
   -3.1920    0.3840    1.5250 N   0  0  0  0  0  0  0  0  0  0  0  0
   -5.3980    0.1110    0.6720 C   0  0  0  0  0  0  0  0  0  0  0  0
   -6.6320   -0.1490    0.6930 O   0  0  0  0  0  0  0  0  0  0  0  0
   -4.8550    0.4880   -0.5590 O   0  0  0  0  0  0  0  0  0  0  0  0
   -5.0620    2.0150    2.6110 H   0  0  0  0  0  0  0  0  0  0  0  0
   -6.1710    0.6820    3.0980 H   0  0  0  0  0  0  0  0  0  0  0  0
   -4.6010    0.7980    3.9140 H   0  0  0  0  0  0  0  0  0  0  0  0
   -4.6160   -1.0090    2.2700 H   0  0  0  0  0  0  0  0  0  0  0  0
   -2.9880    1.3340    1.1510 H   0  0  0  0  0  0  0  0  0  0  0  0
  1 10  1  0  0  0  0
  2  3  2  0  0  0  0
  2  1  1  0  0  0  0
  4  2  1  0  0  0  0
  4 11  1  0  0  0  0
  5  4  1  0  0  0  0
  5 13  1  1  0  0  0
  6 15  1  0  0  0  0
  6  5  1  0  0  0  0
  7  5  1  0  0  0  0
  7 23  1  0  0  0  0
  8  7  2  0  0  0  0
  9  1  1  0  0  0  0
 12  4  1  0  0  0  0
 14  6  1  0  0  0  0
 16 17  1  0  0  0  0
 17 18  1  0  0  0  0
 18 19  2  0  0  0  0
 18 29  1  0  0  0  0
 19 30  1  0  0  0  0
 20 21  1  0  0  0  0
 20 19  1  0  0  0  0
 21 22  1  0  0  0  0
 22 23  1  0  0  0  0
 22 24  1  0  0  0  0
 22 33  1  1  0  0  0
 23 34  1  0  0  0  0
 24 25  2  0  0  0  0
 26 20  2  0  0  0  0
 27 26  1  0  0  0  0
 27 17  2  0  0  0  0
 28 16  1  0  0  0  0
 31 21  1  0  0  0  0
 32 21  1  0  0  0  0
 35 26  1  0  0  0  0
 36 27  1  0  0  0  0
 37 44  1  0  0  0  0
 37 45  1  0  0  0  0
 38 46  1  1  0  0  0
 38 37  1  0  0  0  0
 39 24  1  0  0  0  0
 39 38  1  0  0  0  0
 40 41  1  0  0  0  0
 40 38  1  0  0  0  0
 42 40  2  0  0  0  0
 43 37  1  0  0  0  0
 47 39  1  0  0  0  0
M  END
$$$$
