NYE.pdb
 OpenBabel07022418123D

 53 53  0  0  1  0  0  0  0  0999 V2000
    3.7210   -2.6520    3.5470 N   0  0  0  0  0  0  0  0  0  0  0  0
    3.1850   -1.3710    3.2800 C   0  0  0  0  0  0  0  0  0  0  0  0
    2.2110   -0.9750    3.9630 O   0  0  0  0  0  0  0  0  0  0  0  0
    3.7540   -0.5120    2.2240 C   0  0  0  0  0  0  0  0  0  0  0  0
    3.0470    0.8080    2.1010 C   0  0  2  0  0  0  0  0  0  0  0  0
    3.1190    1.5650    3.3360 N   0  0  0  0  0  0  0  0  0  0  0  0
    1.6400    0.6710    1.6440 C   0  0  0  0  0  0  0  0  0  0  0  0
    0.7350    1.1970    2.3350 O   0  0  0  0  0  0  0  0  0  0  0  0
    3.3270   -3.2070    4.3410 H   0  0  0  0  0  0  0  0  0  0  0  0
    4.4980   -3.0740    2.9840 H   0  0  0  0  0  0  0  0  0  0  0  0
    4.8250   -0.2870    2.4230 H   0  0  0  0  0  0  0  0  0  0  0  0
    3.7200   -1.0400    1.2610 H   0  0  0  0  0  0  0  0  0  0  0  0
    3.6290    1.4080    1.3460 H   0  0  0  0  0  0  0  0  0  0  0  0
    2.1920    1.6770    3.7920 H   0  0  0  0  0  0  0  0  0  0  0  0
    3.7200    1.0290    4.0010 H   0  0  0  0  0  0  0  0  0  0  0  0
    1.1810    6.0160   -0.7420 O   0  0  0  0  0  0  0  0  0  0  0  0
    0.8420    4.6570   -0.8880 C   0  0  0  0  0  0  0  0  0  0  0  0
    1.8100    3.7460   -1.1700 C   0  0  0  0  0  0  0  0  0  0  0  0
    1.4580    2.4240   -1.3090 C   0  0  0  0  0  0  0  0  0  0  0  0
    0.1520    1.9680   -1.1740 C   0  0  0  0  0  0  0  0  0  0  0  0
   -0.1840    0.5230   -1.3330 C   0  0  0  0  0  0  0  0  0  0  0  0
   -0.0840   -0.1770   -0.0030 C   0  0  2  0  0  0  0  0  0  0  0  0
    1.2770   -0.0270    0.4660 N   0  0  0  0  0  0  0  0  0  0  0  0
   -0.5050   -1.5730   -0.0400 C   0  0  0  0  0  0  0  0  0  0  0  0
    0.3150   -2.4560    0.3170 O   0  0  0  0  0  0  0  0  0  0  0  0
   -0.8090    2.9120   -0.8870 C   0  0  0  0  0  0  0  0  0  0  0  0
   -0.4620    4.2400   -0.7470 C   0  0  0  0  0  0  0  0  0  0  0  0
    1.4770    6.5260   -1.5840 H   0  0  0  0  0  0  0  0  0  0  0  0
    2.8560    4.0640   -1.2860 H   0  0  0  0  0  0  0  0  0  0  0  0
    2.2060    1.6690   -1.5340 H   0  0  0  0  0  0  0  0  0  0  0  0
    0.5540    0.0980   -2.0540 H   0  0  0  0  0  0  0  0  0  0  0  0
   -1.1680    0.4530   -1.8020 H   0  0  0  0  0  0  0  0  0  0  0  0
   -0.7380    0.3550    0.7250 H   0  0  0  0  0  0  0  0  0  0  0  0
    2.0330   -0.4600   -0.0990 H   0  0  0  0  0  0  0  0  0  0  0  0
   -1.8380    2.6370   -0.7690 H   0  0  0  0  0  0  0  0  0  0  0  0
   -1.1920    5.0200   -0.5210 H   0  0  0  0  0  0  0  0  0  0  0  0
   -1.7910   -1.9580   -0.4610 N   0  0  0  0  0  0  0  0  0  0  0  0
   -2.1130   -3.3870   -0.4610 C   0  0  1  0  0  0  0  0  0  0  0  0
   -3.2610   -3.6010    0.4700 C   0  0  0  0  0  0  0  0  0  0  0  0
   -3.7190   -5.0140    0.5930 C   0  0  0  0  0  0  0  0  0  0  0  0
   -4.8690   -5.1040    1.5590 C   0  0  0  0  0  0  0  0  0  0  0  0
   -5.2720   -4.0460    2.1020 O   0  0  0  0  0  0  0  0  0  0  0  0
   -2.3710   -3.7780   -1.8630 C   0  0  0  0  0  0  0  0  0  0  0  0
   -2.3110   -2.9250   -2.7830 O   0  0  0  0  0  0  0  0  0  0  0  0
   -5.4900   -6.2840    1.8670 O   0  0  0  0  0  0  0  0  0  0  0  0
   -2.6860   -5.0700   -2.2460 O   0  0  0  0  0  0  0  0  0  0  0  0
   -2.5130   -1.2930   -0.7660 H   0  0  0  0  0  0  0  0  0  0  0  0
   -1.2460   -3.9930   -0.1180 H   0  0  0  0  0  0  0  0  0  0  0  0
   -4.1380   -2.9760    0.1280 H   0  0  0  0  0  0  0  0  0  0  0  0
   -3.0030   -3.1870    1.4660 H   0  0  0  0  0  0  0  0  0  0  0  0
   -4.0030   -5.4400   -0.3880 H   0  0  0  0  0  0  0  0  0  0  0  0
   -2.8970   -5.6390    0.9990 H   0  0  0  0  0  0  0  0  0  0  0  0
   -6.3680   -6.2710    2.3740 H   0  0  0  0  0  0  0  0  0  0  0  0
  1  9  1  0  0  0  0
  2  1  1  0  0  0  0
  2  3  2  0  0  0  0
  4 11  1  0  0  0  0
  4  2  1  0  0  0  0
  5 13  1  6  0  0  0
  5  4  1  0  0  0  0
  5  6  1  0  0  0  0
  6 14  1  0  0  0  0
  6 15  1  0  0  0  0
  7  5  1  0  0  0  0
  7  8  2  0  0  0  0
 10  1  1  0  0  0  0
 12  4  1  0  0  0  0
 17 27  1  0  0  0  0
 17 16  1  0  0  0  0
 18 17  2  0  0  0  0
 19 20  2  0  0  0  0
 19 18  1  0  0  0  0
 20 26  1  0  0  0  0
 21 20  1  0  0  0  0
 21 22  1  0  0  0  0
 22 23  1  0  0  0  0
 22 33  1  1  0  0  0
 23  7  1  0  0  0  0
 24 22  1  0  0  0  0
 24 25  2  0  0  0  0
 26 35  1  0  0  0  0
 26 27  2  0  0  0  0
 27 36  1  0  0  0  0
 28 16  1  0  0  0  0
 29 18  1  0  0  0  0
 30 19  1  0  0  0  0
 31 21  1  0  0  0  0
 32 21  1  0  0  0  0
 34 23  1  0  0  0  0
 37 38  1  0  0  0  0
 37 24  1  0  0  0  0
 38 48  1  1  0  0  0
 38 39  1  0  0  0  0
 39 40  1  0  0  0  0
 39 50  1  0  0  0  0
 40 52  1  0  0  0  0
 40 41  1  0  0  0  0
 41 45  1  0  0  0  0
 41 42  2  0  0  0  0
 43 38  1  0  0  0  0
 44 43  2  0  0  0  0
 45 53  1  0  0  0  0
 46 43  1  0  0  0  0
 47 37  1  0  0  0  0
 49 39  1  0  0  0  0
 51 40  1  0  0  0  0
M  END
$$$$
