NYF.pdb
 OpenBabel07022418123D

 57 58  0  0  1  0  0  0  0  0999 V2000
    0.0560   -0.6470    4.9590 N   0  0  0  0  0  0  0  0  0  0  0  0
    0.7550   -1.7200    4.3560 C   0  0  0  0  0  0  0  0  0  0  0  0
    0.3030   -2.8790    4.5000 O   0  0  0  0  0  0  0  0  0  0  0  0
    1.9770   -1.4570    3.5840 C   0  0  0  0  0  0  0  0  0  0  0  0
    2.3470   -0.0030    3.5400 C   0  0  2  0  0  0  0  0  0  0  0  0
    2.5770    0.5140    4.8720 N   0  0  0  0  0  0  0  0  0  0  0  0
    1.3690    0.8500    2.8610 C   0  0  0  0  0  0  0  0  0  0  0  0
    0.8870    1.8500    3.4540 O   0  0  0  0  0  0  0  0  0  0  0  0
    0.2590   -0.2970    5.9180 H   0  0  0  0  0  0  0  0  0  0  0  0
   -0.7250   -0.1310    4.4610 H   0  0  0  0  0  0  0  0  0  0  0  0
    1.8790   -1.9220    2.6050 H   0  0  0  0  0  0  0  0  0  0  0  0
    2.8410   -1.9800    4.0910 H   0  0  0  0  0  0  0  0  0  0  0  0
    3.3300    0.1280    3.0040 H   0  0  0  0  0  0  0  0  0  0  0  0
    1.9260    1.2520    5.1630 H   0  0  0  0  0  0  0  0  0  0  0  0
    2.6270   -0.2570    5.5450 H   0  0  0  0  0  0  0  0  0  0  0  0
    2.2620   -1.0530   -4.5050 O   0  0  0  0  0  0  0  0  0  0  0  0
    1.8220   -0.2630   -3.4670 C   0  0  0  0  0  0  0  0  0  0  0  0
    2.6490    0.1300   -2.4390 C   0  0  0  0  0  0  0  0  0  0  0  0
    2.1980    0.9170   -1.4130 C   0  0  0  0  0  0  0  0  0  0  0  0
    0.8720    1.3380   -1.3950 C   0  0  0  0  0  0  0  0  0  0  0  0
    0.4420    2.2000   -0.2860 C   0  0  0  0  0  0  0  0  0  0  0  0
   -0.0440    1.4840    0.9270 C   0  0  2  0  0  0  0  0  0  0  0  0
    0.9140    0.6130    1.5350 N   0  0  0  0  0  0  0  0  0  0  0  0
   -1.3000    0.7510    0.6240 C   0  0  0  0  0  0  0  0  0  0  0  0
   -2.2690    1.2510    0.0020 O   0  0  0  0  0  0  0  0  0  0  0  0
    0.0440    0.9450   -2.4230 C   0  0  0  0  0  0  0  0  0  0  0  0
    0.5080    0.1550   -3.4480 C   0  0  0  0  0  0  0  0  0  0  0  0
    1.6480   -1.5430   -5.1260 H   0  0  0  0  0  0  0  0  0  0  0  0
    3.6770   -0.2140   -2.4800 H   0  0  0  0  0  0  0  0  0  0  0  0
    2.8930    1.2060   -0.6140 H   0  0  0  0  0  0  0  0  0  0  0  0
    1.2210    2.9640   -0.0570 H   0  0  0  0  0  0  0  0  0  0  0  0
   -0.4300    2.8130   -0.6680 H   0  0  0  0  0  0  0  0  0  0  0  0
   -0.3150    2.2990    1.6680 H   0  0  0  0  0  0  0  0  0  0  0  0
    1.3020   -0.2040    1.0410 H   0  0  0  0  0  0  0  0  0  0  0  0
   -1.0040    1.2660   -2.4290 H   0  0  0  0  0  0  0  0  0  0  0  0
   -0.1600   -0.1450   -4.2510 H   0  0  0  0  0  0  0  0  0  0  0  0
   -1.4280   -0.6060    1.0690 N   0  0  0  0  0  0  0  0  0  0  0  0
   -2.6170   -1.3490    0.8140 C   0  0  1  0  0  0  0  0  0  0  0  0
   -2.4010   -2.7470    0.3130 C   0  0  0  0  0  0  0  0  0  0  0  0
   -1.6680   -2.8440   -0.9590 C   0  0  0  0  0  0  0  0  0  0  0  0
   -2.4120   -2.8310   -2.1270 C   0  0  0  0  0  0  0  0  0  0  0  0
   -1.8510   -2.9360   -3.3710 C   0  0  0  0  0  0  0  0  0  0  0  0
   -0.4930   -3.0590   -3.4860 C   0  0  0  0  0  0  0  0  0  0  0  0
    0.2880   -3.0750   -2.3390 C   0  0  0  0  0  0  0  0  0  0  0  0
   -0.3010   -2.9670   -1.0760 C   0  0  0  0  0  0  0  0  0  0  0  0
   -3.5300   -1.3520    2.0070 C   0  0  0  0  0  0  0  0  0  0  0  0
   -4.6070   -1.9730    1.9020 O   0  0  0  0  0  0  0  0  0  0  0  0
   -3.2370   -0.7130    3.1910 O   0  0  0  0  0  0  0  0  0  0  0  0
   -0.6430   -1.0780    1.5920 H   0  0  0  0  0  0  0  0  0  0  0  0
   -3.2160   -0.7950    0.0390 H   0  0  0  0  0  0  0  0  0  0  0  0
   -3.4040   -3.2450    0.1790 H   0  0  0  0  0  0  0  0  0  0  0  0
   -1.8310   -3.3650    1.0570 H   0  0  0  0  0  0  0  0  0  0  0  0
   -3.4870   -2.7350   -2.0770 H   0  0  0  0  0  0  0  0  0  0  0  0
   -2.4400   -2.9250   -4.2820 H   0  0  0  0  0  0  0  0  0  0  0  0
   -0.0070   -3.1450   -4.4550 H   0  0  0  0  0  0  0  0  0  0  0  0
    1.3530   -3.1720   -2.4570 H   0  0  0  0  0  0  0  0  0  0  0  0
    0.2970   -2.9780   -0.1790 H   0  0  0  0  0  0  0  0  0  0  0  0
  1  9  1  0  0  0  0
  2  3  2  0  0  0  0
  2  1  1  0  0  0  0
  4 12  1  0  0  0  0
  4  2  1  0  0  0  0
  5 13  1  6  0  0  0
  5  4  1  0  0  0  0
  5  6  1  0  0  0  0
  6 14  1  0  0  0  0
  6 15  1  0  0  0  0
  7  8  2  0  0  0  0
  7  5  1  0  0  0  0
 10  1  1  0  0  0  0
 11  4  1  0  0  0  0
 16 17  1  0  0  0  0
 17 27  2  0  0  0  0
 17 18  1  0  0  0  0
 18 19  2  0  0  0  0
 19 20  1  0  0  0  0
 19 30  1  0  0  0  0
 20 21  1  0  0  0  0
 21 31  1  0  0  0  0
 21 22  1  0  0  0  0
 22 23  1  0  0  0  0
 22 33  1  1  0  0  0
 23  7  1  0  0  0  0
 24 22  1  0  0  0  0
 24 37  1  0  0  0  0
 25 24  2  0  0  0  0
 26 20  2  0  0  0  0
 27 26  1  0  0  0  0
 28 16  1  0  0  0  0
 29 18  1  0  0  0  0
 32 21  1  0  0  0  0
 34 23  1  0  0  0  0
 35 26  1  0  0  0  0
 36 27  1  0  0  0  0
 37 49  1  0  0  0  0
 38 50  1  6  0  0  0
 38 37  1  0  0  0  0
 38 46  1  0  0  0  0
 39 38  1  0  0  0  0
 39 52  1  0  0  0  0
 40 39  1  0  0  0  0
 41 53  1  0  0  0  0
 41 40  2  0  0  0  0
 42 41  1  0  0  0  0
 43 42  2  0  0  0  0
 43 44  1  0  0  0  0
 44 45  2  0  0  0  0
 45 40  1  0  0  0  0
 45 57  1  0  0  0  0
 46 48  1  0  0  0  0
 47 46  2  0  0  0  0
 51 39  1  0  0  0  0
 54 42  1  0  0  0  0
 55 43  1  0  0  0  0
 56 44  1  0  0  0  0
M  END
$$$$
