NYG.pdb
 OpenBabel07022418123D

 44 44  0  0  1  0  0  0  0  0999 V2000
    2.0400   -6.0170    0.9090 N   0  0  0  0  0  0  0  0  0  0  0  0
    1.9690   -5.3710    2.1580 C   0  0  0  0  0  0  0  0  0  0  0  0
    1.6700   -6.0220    3.1800 O   0  0  0  0  0  0  0  0  0  0  0  0
    2.2470   -3.9240    2.2580 C   0  0  0  0  0  0  0  0  0  0  0  0
    0.9250   -3.1940    2.3230 C   0  0  2  0  0  0  0  0  0  0  0  0
    0.2060   -3.5080    1.1030 N   0  0  0  0  0  0  0  0  0  0  0  0
    1.1360   -1.7360    2.4630 C   0  0  0  0  0  0  0  0  0  0  0  0
    1.7300   -1.2090    3.4320 O   0  0  0  0  0  0  0  0  0  0  0  0
    1.2830   -6.6710    0.5510 H   0  0  0  0  0  0  0  0  0  0  0  0
    2.8420   -5.9090    0.2300 H   0  0  0  0  0  0  0  0  0  0  0  0
    2.8600   -3.7580    3.1630 H   0  0  0  0  0  0  0  0  0  0  0  0
    2.8060   -3.5910    1.3480 H   0  0  0  0  0  0  0  0  0  0  0  0
    0.3220   -3.6090    3.1650 H   0  0  0  0  0  0  0  0  0  0  0  0
    0.7640   -3.1150    0.3110 H   0  0  0  0  0  0  0  0  0  0  0  0
   -0.6930   -2.9720    1.1220 H   0  0  0  0  0  0  0  0  0  0  0  0
   -0.9690    0.5000   -4.6070 O   0  0  0  0  0  0  0  0  0  0  0  0
   -0.3350    0.6450   -3.3830 C   0  0  0  0  0  0  0  0  0  0  0  0
   -0.6670    1.7260   -2.6060 C   0  0  0  0  0  0  0  0  0  0  0  0
   -0.0810    1.9510   -1.3620 C   0  0  0  0  0  0  0  0  0  0  0  0
    0.8640    1.0860   -0.8600 C   0  0  0  0  0  0  0  0  0  0  0  0
    1.5250    1.2660    0.4660 C   0  0  0  0  0  0  0  0  0  0  0  0
    0.8390    0.5790    1.5650 C   0  0  2  0  0  0  0  0  0  0  0  0
    0.6760   -0.8280    1.5000 N   0  0  0  0  0  0  0  0  0  0  0  0
   -0.4850    1.1740    1.7700 C   0  0  0  0  0  0  0  0  0  0  0  0
   -1.4990    0.4540    1.7920 O   0  0  0  0  0  0  0  0  0  0  0  0
    1.1890   -0.0100   -1.6670 C   0  0  0  0  0  0  0  0  0  0  0  0
    0.6030   -0.2200   -2.8930 C   0  0  0  0  0  0  0  0  0  0  0  0
   -1.9670    0.4110   -4.7230 H   0  0  0  0  0  0  0  0  0  0  0  0
   -1.4070    2.4480   -2.9440 H   0  0  0  0  0  0  0  0  0  0  0  0
   -0.3830    2.8320   -0.7920 H   0  0  0  0  0  0  0  0  0  0  0  0
    1.4950    2.3620    0.6560 H   0  0  0  0  0  0  0  0  0  0  0  0
    2.5860    1.0230    0.3050 H   0  0  0  0  0  0  0  0  0  0  0  0
    1.3990    0.7810    2.5310 H   0  0  0  0  0  0  0  0  0  0  0  0
    0.1590   -1.1830    0.6380 H   0  0  0  0  0  0  0  0  0  0  0  0
    1.9350   -0.6770   -1.2530 H   0  0  0  0  0  0  0  0  0  0  0  0
    0.8860   -1.0750   -3.4740 H   0  0  0  0  0  0  0  0  0  0  0  0
   -0.6110    2.5660    1.9440 N   0  0  0  0  0  0  0  0  0  0  0  0
   -1.9540    3.1260    2.1480 C   0  0  0  0  0  0  0  0  0  0  0  0
   -2.5800    2.5580    3.3510 C   0  0  0  0  0  0  0  0  0  0  0  0
   -3.7350    2.9370    3.6670 O   0  0  0  0  0  0  0  0  0  0  0  0
   -1.9740    1.6190    4.1710 O   0  0  0  0  0  0  0  0  0  0  0  0
    0.1930    3.2450    1.9400 H   0  0  0  0  0  0  0  0  0  0  0  0
   -1.9330    4.2210    2.1150 H   0  0  0  0  0  0  0  0  0  0  0  0
   -2.5480    2.7700    1.2680 H   0  0  0  0  0  0  0  0  0  0  0  0
  1  2  1  0  0  0  0
  2  4  1  0  0  0  0
  2  3  2  0  0  0  0
  4  5  1  0  0  0  0
  4 11  1  0  0  0  0
  5  7  1  0  0  0  0
  5 13  1  1  0  0  0
  6 15  1  0  0  0  0
  6  5  1  0  0  0  0
  7  8  2  0  0  0  0
  9  1  1  0  0  0  0
 10  1  1  0  0  0  0
 12  4  1  0  0  0  0
 14  6  1  0  0  0  0
 16 17  1  0  0  0  0
 17 27  2  0  0  0  0
 17 18  1  0  0  0  0
 18 19  2  0  0  0  0
 19 20  1  0  0  0  0
 19 30  1  0  0  0  0
 20 21  1  0  0  0  0
 21 31  1  0  0  0  0
 21 22  1  0  0  0  0
 22 24  1  0  0  0  0
 22 33  1  1  0  0  0
 23 22  1  0  0  0  0
 23  7  1  0  0  0  0
 24 25  2  0  0  0  0
 24 37  1  0  0  0  0
 26 35  1  0  0  0  0
 26 20  2  0  0  0  0
 27 26  1  0  0  0  0
 28 16  1  0  0  0  0
 29 18  1  0  0  0  0
 32 21  1  0  0  0  0
 34 23  1  0  0  0  0
 36 27  1  0  0  0  0
 37 38  1  0  0  0  0
 38 39  1  0  0  0  0
 39 40  2  0  0  0  0
 39 41  1  0  0  0  0
 42 37  1  0  0  0  0
 43 38  1  0  0  0  0
 44 38  1  0  0  0  0
M  END
$$$$
