NYI.pdb
 OpenBabel07022418123D

 56 56  0  0  1  0  0  0  0  0999 V2000
    2.0390   -2.1450    4.3510 N   0  0  0  0  0  0  0  0  0  0  0  0
    3.1690   -2.5410    3.5980 C   0  0  0  0  0  0  0  0  0  0  0  0
    3.4000   -3.7720    3.5060 O   0  0  0  0  0  0  0  0  0  0  0  0
    4.0900   -1.6170    2.9170 C   0  0  0  0  0  0  0  0  0  0  0  0
    3.7200   -0.1760    3.0930 C   0  0  2  0  0  0  0  0  0  0  0  0
    3.7250    0.1730    4.4790 N   0  0  0  0  0  0  0  0  0  0  0  0
    2.3920    0.1300    2.4480 C   0  0  0  0  0  0  0  0  0  0  0  0
    1.4480    0.6300    3.1110 O   0  0  0  0  0  0  0  0  0  0  0  0
    1.0650   -2.3260    4.0070 H   0  0  0  0  0  0  0  0  0  0  0  0
    2.1740   -1.6710    5.2560 H   0  0  0  0  0  0  0  0  0  0  0  0
    4.1410   -1.8620    1.8240 H   0  0  0  0  0  0  0  0  0  0  0  0
    5.1050   -1.7580    3.3120 H   0  0  0  0  0  0  0  0  0  0  0  0
    4.4630    0.4320    2.5350 H   0  0  0  0  0  0  0  0  0  0  0  0
    4.1480    1.1210    4.6320 H   0  0  0  0  0  0  0  0  0  0  0  0
    4.2760   -0.5290    5.0400 H   0  0  0  0  0  0  0  0  0  0  0  0
   -3.0980    3.2510   -3.7350 O   0  0  0  0  0  0  0  0  0  0  0  0
   -2.0620    2.7460   -2.9450 C   0  0  0  0  0  0  0  0  0  0  0  0
   -1.8300    3.2370   -1.6770 C   0  0  0  0  0  0  0  0  0  0  0  0
   -0.8040    2.7380   -0.8940 C   0  0  0  0  0  0  0  0  0  0  0  0
    0.0290    1.7240   -1.3570 C   0  0  0  0  0  0  0  0  0  0  0  0
    1.1430    1.2060   -0.5700 C   0  0  0  0  0  0  0  0  0  0  0  0
    0.8580    0.1640    0.4460 C   0  0  2  0  0  0  0  0  0  0  0  0
    2.1760   -0.1420    1.0760 N   0  0  0  0  0  0  0  0  0  0  0  0
    0.2740   -1.1020    0.0050 C   0  0  0  0  0  0  0  0  0  0  0  0
    0.9460   -2.1970    0.1290 O   0  0  0  0  0  0  0  0  0  0  0  0
   -0.2370    1.2650   -2.6230 C   0  0  0  0  0  0  0  0  0  0  0  0
   -1.2450    1.7420   -3.4170 C   0  0  0  0  0  0  0  0  0  0  0  0
   -3.6560    4.0120   -3.3990 H   0  0  0  0  0  0  0  0  0  0  0  0
   -2.4840    4.0330   -1.3140 H   0  0  0  0  0  0  0  0  0  0  0  0
   -0.6160    3.1160    0.0980 H   0  0  0  0  0  0  0  0  0  0  0  0
    1.6510    2.1020   -0.0850 H   0  0  0  0  0  0  0  0  0  0  0  0
    1.9800    0.8190   -1.2340 H   0  0  0  0  0  0  0  0  0  0  0  0
    0.2310    0.5980    1.2870 H   0  0  0  0  0  0  0  0  0  0  0  0
    2.9350   -0.5580    0.4890 H   0  0  0  0  0  0  0  0  0  0  0  0
    0.3970    0.4800   -3.0120 H   0  0  0  0  0  0  0  0  0  0  0  0
   -1.4340    1.3610   -4.4170 H   0  0  0  0  0  0  0  0  0  0  0  0
   -2.6020   -1.5260    1.7340 C   0  0  0  0  0  0  0  0  0  0  0  0
   -2.8480   -2.8590    1.1300 C   0  0  0  0  0  0  0  0  0  0  0  0
   -2.8670   -2.8440   -0.3550 C   0  0  2  0  0  0  0  0  0  0  0  0
   -3.1900   -4.2840   -0.8230 C   0  0  0  0  0  0  0  0  0  0  0  0
   -1.5200   -2.5190   -0.9340 C   0  0  2  0  0  0  0  0  0  0  0  0
   -1.0120   -1.2400   -0.5580 N   0  0  0  0  0  0  0  0  0  0  0  0
   -1.5770   -2.6040   -2.4300 C   0  0  0  0  0  0  0  0  0  0  0  0
   -1.2630   -1.6760   -3.1890 O   0  0  0  0  0  0  0  0  0  0  0  0
   -2.0110   -3.8100   -3.0030 O   0  0  0  0  0  0  0  0  0  0  0  0
   -3.2090   -1.4480    2.6990 H   0  0  0  0  0  0  0  0  0  0  0  0
   -2.9780   -0.7040    1.0800 H   0  0  0  0  0  0  0  0  0  0  0  0
   -1.5720   -1.3760    2.0660 H   0  0  0  0  0  0  0  0  0  0  0  0
   -3.8230   -3.2520    1.5290 H   0  0  0  0  0  0  0  0  0  0  0  0
   -2.0120   -3.5460    1.4790 H   0  0  0  0  0  0  0  0  0  0  0  0
   -3.6300   -2.1590   -0.7300 H   0  0  0  0  0  0  0  0  0  0  0  0
   -2.2770   -4.8470   -0.9670 H   0  0  0  0  0  0  0  0  0  0  0  0
   -3.8100   -4.7470   -0.0060 H   0  0  0  0  0  0  0  0  0  0  0  0
   -3.8540   -4.1840   -1.6840 H   0  0  0  0  0  0  0  0  0  0  0  0
   -0.7740   -3.3010   -0.6110 H   0  0  0  0  0  0  0  0  0  0  0  0
   -1.5630   -0.3810   -0.6970 H   0  0  0  0  0  0  0  0  0  0  0  0
  1 10  1  0  0  0  0
  2  1  1  0  0  0  0
  3  2  2  0  0  0  0
  4  5  1  0  0  0  0
  4 12  1  0  0  0  0
  4  2  1  0  0  0  0
  5 13  1  6  0  0  0
  5  6  1  0  0  0  0
  6 14  1  0  0  0  0
  6 15  1  0  0  0  0
  7  5  1  0  0  0  0
  7  8  2  0  0  0  0
  9  1  1  0  0  0  0
 11  4  1  0  0  0  0
 16 28  1  0  0  0  0
 16 17  1  0  0  0  0
 17 18  1  0  0  0  0
 18 29  1  0  0  0  0
 18 19  2  0  0  0  0
 19 30  1  0  0  0  0
 20 19  1  0  0  0  0
 20 21  1  0  0  0  0
 21 31  1  0  0  0  0
 21 22  1  0  0  0  0
 22 23  1  0  0  0  0
 22 33  1  1  0  0  0
 23  7  1  0  0  0  0
 24 25  2  0  0  0  0
 24 22  1  0  0  0  0
 26 20  2  0  0  0  0
 27 17  2  0  0  0  0
 27 26  1  0  0  0  0
 32 21  1  0  0  0  0
 34 23  1  0  0  0  0
 35 26  1  0  0  0  0
 36 27  1  0  0  0  0
 37 48  1  0  0  0  0
 37 46  1  0  0  0  0
 38 50  1  0  0  0  0
 38 49  1  0  0  0  0
 38 37  1  0  0  0  0
 39 51  1  6  0  0  0
 39 38  1  0  0  0  0
 40 39  1  0  0  0  0
 40 53  1  0  0  0  0
 41 55  1  1  0  0  0
 41 42  1  0  0  0  0
 41 39  1  0  0  0  0
 42 24  1  0  0  0  0
 43 41  1  0  0  0  0
 44 43  2  0  0  0  0
 45 43  1  0  0  0  0
 47 37  1  0  0  0  0
 52 40  1  0  0  0  0
 54 40  1  0  0  0  0
 56 42  1  0  0  0  0
M  END
$$$$
