NYM.pdb
 OpenBabel07022418123D

 54 54  0  0  1  0  0  0  0  0999 V2000
    3.3910   -4.1940    0.5400 N   0  0  0  0  0  0  0  0  0  0  0  0
    3.4450   -2.9320    1.1800 C   0  0  0  0  0  0  0  0  0  0  0  0
    3.0420   -2.9010    2.3920 O   0  0  0  0  0  0  0  0  0  0  0  0
    3.9390   -1.7460    0.4680 C   0  0  0  0  0  0  0  0  0  0  0  0
    3.9260   -0.5030    1.2990 C   0  0  2  0  0  0  0  0  0  0  0  0
    4.7680   -0.6850    2.4660 N   0  0  0  0  0  0  0  0  0  0  0  0
    2.5790   -0.0310    1.6590 C   0  0  0  0  0  0  0  0  0  0  0  0
    2.3270    0.1900    2.8730 O   0  0  0  0  0  0  0  0  0  0  0  0
    2.5450   -4.7840    0.6990 H   0  0  0  0  0  0  0  0  0  0  0  0
    4.1670   -4.5550   -0.0840 H   0  0  0  0  0  0  0  0  0  0  0  0
    3.3750   -1.5480   -0.4900 H   0  0  0  0  0  0  0  0  0  0  0  0
    4.9950   -1.9450    0.1580 H   0  0  0  0  0  0  0  0  0  0  0  0
    4.4450    0.2980    0.6910 H   0  0  0  0  0  0  0  0  0  0  0  0
    5.4410   -1.4430    2.2420 H   0  0  0  0  0  0  0  0  0  0  0  0
    4.1540   -1.0180    3.2430 H   0  0  0  0  0  0  0  0  0  0  0  0
   -5.0250    4.3550    1.6950 O   0  0  0  0  0  0  0  0  0  0  0  0
   -3.8050    3.7480    1.3650 C   0  0  0  0  0  0  0  0  0  0  0  0
   -2.6640    3.9820    2.1010 C   0  0  0  0  0  0  0  0  0  0  0  0
   -1.4690    3.3820    1.7720 C   0  0  0  0  0  0  0  0  0  0  0  0
   -1.3470    2.5100    0.6820 C   0  0  0  0  0  0  0  0  0  0  0  0
   -0.0350    1.9010    0.3600 C   0  0  0  0  0  0  0  0  0  0  0  0
    0.2760    0.6440    1.0900 C   0  0  2  0  0  0  0  0  0  0  0  0
    1.5810    0.1770    0.6920 N   0  0  0  0  0  0  0  0  0  0  0  0
   -0.7410   -0.4320    0.8870 C   0  0  0  0  0  0  0  0  0  0  0  0
   -1.9520   -0.1860    1.0900 O   0  0  0  0  0  0  0  0  0  0  0  0
   -2.4910    2.2870   -0.0420 C   0  0  0  0  0  0  0  0  0  0  0  0
   -3.7030    2.8940    0.2900 C   0  0  0  0  0  0  0  0  0  0  0  0
   -5.7390    4.4070    0.9800 H   0  0  0  0  0  0  0  0  0  0  0  0
   -2.7440    4.6590    2.9540 H   0  0  0  0  0  0  0  0  0  0  0  0
   -0.5580    3.5580    2.3460 H   0  0  0  0  0  0  0  0  0  0  0  0
    0.7330    2.7000    0.5260 H   0  0  0  0  0  0  0  0  0  0  0  0
   -0.0060    1.7170   -0.7350 H   0  0  0  0  0  0  0  0  0  0  0  0
    0.2690    0.8050    2.2110 H   0  0  0  0  0  0  0  0  0  0  0  0
    1.7760   -0.0020   -0.3030 H   0  0  0  0  0  0  0  0  0  0  0  0
   -2.4480    1.6350   -0.8900 H   0  0  0  0  0  0  0  0  0  0  0  0
   -4.6050    2.7200   -0.2780 H   0  0  0  0  0  0  0  0  0  0  0  0
   -2.8560   -1.1740   -2.2350 C   0  0  0  0  0  0  0  0  0  0  0  0
   -2.0400   -2.5730   -2.9860 S   0  0  0  0  0  0  0  0  0  0  0  0
   -0.5500   -3.1250   -2.1780 C   0  0  0  0  0  0  0  0  0  0  0  0
   -0.7250   -3.7130   -0.8330 C   0  0  0  0  0  0  0  0  0  0  0  0
   -1.2620   -2.8450    0.2510 C   0  0  2  0  0  0  0  0  0  0  0  0
   -0.3760   -1.7300    0.4760 N   0  0  0  0  0  0  0  0  0  0  0  0
   -1.3160   -3.7080    1.4920 C   0  0  0  0  0  0  0  0  0  0  0  0
   -0.6570   -3.4220    2.5100 O   0  0  0  0  0  0  0  0  0  0  0  0
   -2.1090   -4.8280    1.4840 O   0  0  0  0  0  0  0  0  0  0  0  0
   -3.7140   -1.5130   -1.6030 H   0  0  0  0  0  0  0  0  0  0  0  0
   -3.3350   -0.5370   -3.0220 H   0  0  0  0  0  0  0  0  0  0  0  0
   -2.1880   -0.5900   -1.5890 H   0  0  0  0  0  0  0  0  0  0  0  0
    0.2710   -2.3440   -2.2080 H   0  0  0  0  0  0  0  0  0  0  0  0
   -0.1100   -3.9450   -2.8250 H   0  0  0  0  0  0  0  0  0  0  0  0
   -1.3610   -4.6360   -0.9360 H   0  0  0  0  0  0  0  0  0  0  0  0
    0.2650   -4.1040   -0.4810 H   0  0  0  0  0  0  0  0  0  0  0  0
   -2.2720   -2.4500    0.0460 H   0  0  0  0  0  0  0  0  0  0  0  0
    0.6560   -1.9220    0.3100 H   0  0  0  0  0  0  0  0  0  0  0  0
  1  9  1  0  0  0  0
  1  2  1  0  0  0  0
  2  3  2  0  0  0  0
  4  2  1  0  0  0  0
  4  5  1  0  0  0  0
  5 13  1  6  0  0  0
  5  7  1  0  0  0  0
  5  6  1  0  0  0  0
  6 15  1  0  0  0  0
  7  8  2  0  0  0  0
 10  1  1  0  0  0  0
 11  4  1  0  0  0  0
 12  4  1  0  0  0  0
 14  6  1  0  0  0  0
 17 16  1  0  0  0  0
 17 18  1  0  0  0  0
 18 29  1  0  0  0  0
 19 18  2  0  0  0  0
 19 30  1  0  0  0  0
 20 19  1  0  0  0  0
 21 31  1  0  0  0  0
 21 20  1  0  0  0  0
 21 22  1  0  0  0  0
 22 33  1  1  0  0  0
 23 22  1  0  0  0  0
 23  7  1  0  0  0  0
 24 25  2  0  0  0  0
 24 22  1  0  0  0  0
 26 27  1  0  0  0  0
 26 20  2  0  0  0  0
 27 17  2  0  0  0  0
 28 16  1  0  0  0  0
 32 21  1  0  0  0  0
 34 23  1  0  0  0  0
 35 26  1  0  0  0  0
 36 27  1  0  0  0  0
 37 46  1  0  0  0  0
 37 48  1  0  0  0  0
 38 37  1  0  0  0  0
 38 39  1  0  0  0  0
 39 40  1  0  0  0  0
 40 52  1  0  0  0  0
 40 41  1  0  0  0  0
 41 53  1  6  0  0  0
 41 42  1  0  0  0  0
 41 43  1  0  0  0  0
 42 24  1  0  0  0  0
 43 44  1  0  0  0  0
 45 43  2  0  0  0  0
 47 37  1  0  0  0  0
 49 39  1  0  0  0  0
 50 39  1  0  0  0  0
 51 40  1  0  0  0  0
 54 42  1  0  0  0  0
M  END
$$$$
