NYN.pdb
 OpenBabel07022418123D

 51 51  0  0  1  0  0  0  0  0999 V2000
    2.0180   -2.6070    4.5940 N   0  0  0  0  0  0  0  0  0  0  0  0
    3.0840   -2.9380    3.7350 C   0  0  0  0  0  0  0  0  0  0  0  0
    3.3570   -4.1640    3.5860 O   0  0  0  0  0  0  0  0  0  0  0  0
    3.9190   -1.9820    2.9850 C   0  0  0  0  0  0  0  0  0  0  0  0
    3.5510   -0.5530    3.2000 C   0  0  2  0  0  0  0  0  0  0  0  0
    3.6550   -0.1410    4.5730 N   0  0  0  0  0  0  0  0  0  0  0  0
    2.2460   -0.1660    2.5960 C   0  0  0  0  0  0  0  0  0  0  0  0
    1.3540    0.4530    3.2640 O   0  0  0  0  0  0  0  0  0  0  0  0
    2.1080   -2.7590    5.6090 H   0  0  0  0  0  0  0  0  0  0  0  0
    1.1490   -2.2130    4.2050 H   0  0  0  0  0  0  0  0  0  0  0  0
    3.7840   -2.2070    1.8920 H   0  0  0  0  0  0  0  0  0  0  0  0
    5.0010   -2.0900    3.1950 H   0  0  0  0  0  0  0  0  0  0  0  0
    4.3160    0.0550    2.6320 H   0  0  0  0  0  0  0  0  0  0  0  0
    4.2740    0.7010    4.7020 H   0  0  0  0  0  0  0  0  0  0  0  0
    4.1200   -0.9070    5.1080 H   0  0  0  0  0  0  0  0  0  0  0  0
   -3.2230    3.4490   -3.3040 O   0  0  0  0  0  0  0  0  0  0  0  0
   -2.2030    2.8140   -2.5980 C   0  0  0  0  0  0  0  0  0  0  0  0
   -1.7700    3.2850   -1.3760 C   0  0  0  0  0  0  0  0  0  0  0  0
   -0.7610    2.6540   -0.6820 C   0  0  0  0  0  0  0  0  0  0  0  0
   -0.1200    1.5040   -1.1750 C   0  0  0  0  0  0  0  0  0  0  0  0
    0.9710    0.9020   -0.4100 C   0  0  0  0  0  0  0  0  0  0  0  0
    0.6110   -0.0640    0.6640 C   0  0  2  0  0  0  0  0  0  0  0  0
    1.9290   -0.4650    1.2460 N   0  0  0  0  0  0  0  0  0  0  0  0
   -0.0660   -1.2470    0.1380 C   0  0  0  0  0  0  0  0  0  0  0  0
    0.5900   -2.3470    0.1460 O   0  0  0  0  0  0  0  0  0  0  0  0
   -0.5720    1.0570   -2.3950 C   0  0  0  0  0  0  0  0  0  0  0  0
   -1.5810    1.6880   -3.0920 C   0  0  0  0  0  0  0  0  0  0  0  0
   -3.1150    4.4150   -3.6430 H   0  0  0  0  0  0  0  0  0  0  0  0
   -2.2680    4.1700   -1.0020 H   0  0  0  0  0  0  0  0  0  0  0  0
   -0.4290    3.0380    0.2870 H   0  0  0  0  0  0  0  0  0  0  0  0
    1.6340    1.6860    0.0670 H   0  0  0  0  0  0  0  0  0  0  0  0
    1.7050    0.3570   -1.0830 H   0  0  0  0  0  0  0  0  0  0  0  0
    0.0300    0.4360    1.4930 H   0  0  0  0  0  0  0  0  0  0  0  0
    2.6270   -0.9710    0.6640 H   0  0  0  0  0  0  0  0  0  0  0  0
   -0.0930    0.1700   -2.8010 H   0  0  0  0  0  0  0  0  0  0  0  0
   -1.9280    1.3200   -4.0600 H   0  0  0  0  0  0  0  0  0  0  0  0
   -2.8430   -2.3620    2.4700 N   0  0  0  0  0  0  0  0  0  0  0  0
   -2.5420   -3.3130    1.4550 C   0  0  0  0  0  0  0  0  0  0  0  0
   -1.8630   -4.3240    1.7670 O   0  0  0  0  0  0  0  0  0  0  0  0
   -3.0330   -3.0730    0.0960 C   0  0  0  0  0  0  0  0  0  0  0  0
   -1.9420   -2.5780   -0.8570 C   0  0  2  0  0  0  0  0  0  0  0  0
   -1.3800   -1.3310   -0.3810 N   0  0  0  0  0  0  0  0  0  0  0  0
   -2.5500   -2.5280   -2.1840 C   0  0  0  0  0  0  0  0  0  0  0  0
   -3.0460   -3.5670   -2.6740 O   0  0  0  0  0  0  0  0  0  0  0  0
   -2.5910   -1.3650   -2.9080 O   0  0  0  0  0  0  0  0  0  0  0  0
   -2.1310   -2.2080    3.2100 H   0  0  0  0  0  0  0  0  0  0  0  0
   -3.7640   -1.8710    2.4150 H   0  0  0  0  0  0  0  0  0  0  0  0
   -3.9290   -2.4250    0.0680 H   0  0  0  0  0  0  0  0  0  0  0  0
   -3.3710   -4.0590   -0.3230 H   0  0  0  0  0  0  0  0  0  0  0  0
   -1.1460   -3.3770   -0.7950 H   0  0  0  0  0  0  0  0  0  0  0  0
   -1.9430   -0.4820   -0.4120 H   0  0  0  0  0  0  0  0  0  0  0  0
  1  9  1  0  0  0  0
  2  1  1  0  0  0  0
  3  2  2  0  0  0  0
  4 12  1  0  0  0  0
  4  5  1  0  0  0  0
  4  2  1  0  0  0  0
  5 13  1  6  0  0  0
  5  6  1  0  0  0  0
  6 14  1  0  0  0  0
  6 15  1  0  0  0  0
  7  5  1  0  0  0  0
  7  8  2  0  0  0  0
 10  1  1  0  0  0  0
 11  4  1  0  0  0  0
 16 17  1  0  0  0  0
 17 18  1  0  0  0  0
 18 29  1  0  0  0  0
 18 19  2  0  0  0  0
 19 30  1  0  0  0  0
 20 19  1  0  0  0  0
 20 21  1  0  0  0  0
 21 31  1  0  0  0  0
 21 22  1  0  0  0  0
 22 23  1  0  0  0  0
 22 33  1  1  0  0  0
 23  7  1  0  0  0  0
 24 25  2  0  0  0  0
 24 22  1  0  0  0  0
 26 20  2  0  0  0  0
 27 17  2  0  0  0  0
 27 26  1  0  0  0  0
 28 16  1  0  0  0  0
 32 21  1  0  0  0  0
 34 23  1  0  0  0  0
 35 26  1  0  0  0  0
 36 27  1  0  0  0  0
 37 46  1  0  0  0  0
 38 39  2  0  0  0  0
 38 37  1  0  0  0  0
 40 38  1  0  0  0  0
 41 50  1  6  0  0  0
 41 42  1  0  0  0  0
 41 40  1  0  0  0  0
 42 24  1  0  0  0  0
 43 41  1  0  0  0  0
 44 43  1  0  0  0  0
 45 43  2  0  0  0  0
 47 37  1  0  0  0  0
 48 40  1  0  0  0  0
 49 40  1  0  0  0  0
 51 42  1  0  0  0  0
M  END
$$$$
