NYP.pdb
 OpenBabel07022418123D

 51 52  0  0  1  0  0  0  0  0999 V2000
    2.2880   -1.9730    3.4210 N   0  0  0  0  0  0  0  0  0  0  0  0
    2.7510   -0.7430    3.9480 C   0  0  0  0  0  0  0  0  0  0  0  0
    3.0470   -0.6730    5.1760 O   0  0  0  0  0  0  0  0  0  0  0  0
    2.9060    0.4870    3.1200 C   0  0  0  0  0  0  0  0  0  0  0  0
    1.7970    1.4640    3.4700 C   0  0  2  0  0  0  0  0  0  0  0  0
    1.8130    1.8550    4.8490 N   0  0  0  0  0  0  0  0  0  0  0  0
    0.4930    0.7780    3.1620 C   0  0  0  0  0  0  0  0  0  0  0  0
   -0.4000    0.6050    4.0200 O   0  0  0  0  0  0  0  0  0  0  0  0
    2.7990   -2.4290    2.6430 H   0  0  0  0  0  0  0  0  0  0  0  0
    1.4380   -2.4180    3.8140 H   0  0  0  0  0  0  0  0  0  0  0  0
    2.8760    0.2680    2.0520 H   0  0  0  0  0  0  0  0  0  0  0  0
    3.8660    0.9430    3.3790 H   0  0  0  0  0  0  0  0  0  0  0  0
    1.8930    2.3380    2.7940 H   0  0  0  0  0  0  0  0  0  0  0  0
    1.7020    2.9060    4.8920 H   0  0  0  0  0  0  0  0  0  0  0  0
    2.7600    1.6500    5.2340 H   0  0  0  0  0  0  0  0  0  0  0  0
    1.8550    1.7870   -3.9590 O   0  0  0  0  0  0  0  0  0  0  0  0
    1.0220    1.5140   -2.8740 C   0  0  0  0  0  0  0  0  0  0  0  0
    1.0620    2.2570   -1.7130 C   0  0  0  0  0  0  0  0  0  0  0  0
    0.2360    1.9830   -0.6450 C   0  0  0  0  0  0  0  0  0  0  0  0
   -0.6810    0.9330   -0.6980 C   0  0  0  0  0  0  0  0  0  0  0  0
   -1.5610    0.6480    0.4510 C   0  0  0  0  0  0  0  0  0  0  0  0
   -0.9290   -0.3590    1.4300 C   0  0  2  0  0  0  0  0  0  0  0  0
    0.3050    0.3250    1.8460 N   0  0  0  0  0  0  0  0  0  0  0  0
   -0.5740   -1.6310    0.7320 C   0  0  0  0  0  0  0  0  0  0  0  0
    0.6740   -1.7770    0.4920 O   0  0  0  0  0  0  0  0  0  0  0  0
   -0.7100    0.1950   -1.8680 C   0  0  0  0  0  0  0  0  0  0  0  0
    0.1150    0.4760   -2.9220 C   0  0  0  0  0  0  0  0  0  0  0  0
    2.4100    1.0260   -4.3250 H   0  0  0  0  0  0  0  0  0  0  0  0
    1.7830    3.0810   -1.6750 H   0  0  0  0  0  0  0  0  0  0  0  0
    0.3140    2.6050    0.2450 H   0  0  0  0  0  0  0  0  0  0  0  0
   -2.5830    0.4200    0.1850 H   0  0  0  0  0  0  0  0  0  0  0  0
   -1.6100    1.5990    1.0610 H   0  0  0  0  0  0  0  0  0  0  0  0
   -1.5820   -0.4740    2.2840 H   0  0  0  0  0  0  0  0  0  0  0  0
    1.0230    0.4470    1.1010 H   0  0  0  0  0  0  0  0  0  0  0  0
   -1.4340   -0.6220   -1.8860 H   0  0  0  0  0  0  0  0  0  0  0  0
    0.0650   -0.1200   -3.8190 H   0  0  0  0  0  0  0  0  0  0  0  0
   -1.5270   -2.5880    0.3690 N   0  0  0  0  0  0  0  0  0  0  0  0
   -2.9410   -2.4580    0.7290 C   0  0  0  0  0  0  0  0  0  0  0  0
   -3.5550   -2.6270   -0.6430 C   0  0  0  0  0  0  0  0  0  0  0  0
   -2.7050   -3.7200   -1.2470 C   0  0  0  0  0  0  0  0  0  0  0  0
   -1.4280   -3.7930   -0.3470 C   0  0  1  0  0  0  0  0  0  0  0  0
   -0.2770   -4.0470   -1.1960 C   0  0  0  0  0  0  0  0  0  0  0  0
   -0.1250   -5.2220   -1.6940 O   0  0  0  0  0  0  0  0  0  0  0  0
    0.6880   -3.1440   -1.5320 O   0  0  0  0  0  0  0  0  0  0  0  0
   -3.1950   -1.5500    1.2530 H   0  0  0  0  0  0  0  0  0  0  0  0
   -3.2140   -3.3850    1.2950 H   0  0  0  0  0  0  0  0  0  0  0  0
   -3.4610   -1.6550   -1.1630 H   0  0  0  0  0  0  0  0  0  0  0  0
   -4.6260   -2.9390   -0.5740 H   0  0  0  0  0  0  0  0  0  0  0  0
   -2.3330   -3.4190   -2.2680 H   0  0  0  0  0  0  0  0  0  0  0  0
   -3.2410   -4.6720   -1.2390 H   0  0  0  0  0  0  0  0  0  0  0  0
   -1.6190   -4.6810    0.3580 H   0  0  0  0  0  0  0  0  0  0  0  0
  1 10  1  0  0  0  0
  1  2  1  0  0  0  0
  2  3  2  0  0  0  0
  4 12  1  0  0  0  0
  4  5  1  0  0  0  0
  4  2  1  0  0  0  0
  5 13  1  6  0  0  0
  5  6  1  0  0  0  0
  6 14  1  0  0  0  0
  6 15  1  0  0  0  0
  7  5  1  0  0  0  0
  7  8  2  0  0  0  0
  9  1  1  0  0  0  0
 11  4  1  0  0  0  0
 16 17  1  0  0  0  0
 17 18  1  0  0  0  0
 18 29  1  0  0  0  0
 18 19  2  0  0  0  0
 19 30  1  0  0  0  0
 20 19  1  0  0  0  0
 20 21  1  0  0  0  0
 21 32  1  0  0  0  0
 21 22  1  0  0  0  0
 22 23  1  0  0  0  0
 22 33  1  1  0  0  0
 23  7  1  0  0  0  0
 24 22  1  0  0  0  0
 25 24  2  0  0  0  0
 26 20  2  0  0  0  0
 27 17  2  0  0  0  0
 27 26  1  0  0  0  0
 28 16  1  0  0  0  0
 31 21  1  0  0  0  0
 34 23  1  0  0  0  0
 35 26  1  0  0  0  0
 36 27  1  0  0  0  0
 37 38  1  0  0  0  0
 37 24  1  0  0  0  0
 38 45  1  0  0  0  0
 38 46  1  0  0  0  0
 39 48  1  0  0  0  0
 39 38  1  0  0  0  0
 40 50  1  0  0  0  0
 40 39  1  0  0  0  0
 40 41  1  0  0  0  0
 41 51  1  1  0  0  0
 41 37  1  0  0  0  0
 42 41  1  0  0  0  0
 43 42  2  0  0  0  0
 44 42  1  0  0  0  0
 47 39  1  0  0  0  0
 49 40  1  0  0  0  0
M  END
$$$$
