NYR.pdb
 OpenBabel07022418123D

 60 60  0  0  1  0  0  0  0  0999 V2000
    1.1350    3.7480    5.4760 N   0  0  0  0  0  0  0  0  0  0  0  0
    0.5430    2.8620    4.5460 C   0  0  0  0  0  0  0  0  0  0  0  0
    1.3730    2.1680    3.8670 O   0  0  0  0  0  0  0  0  0  0  0  0
   -0.8930    2.6960    4.3260 C   0  0  0  0  0  0  0  0  0  0  0  0
   -1.2730    1.5710    3.4230 C   0  0  2  0  0  0  0  0  0  0  0  0
   -0.8340    0.2990    3.9640 N   0  0  0  0  0  0  0  0  0  0  0  0
   -0.6900    1.7290    2.0450 C   0  0  0  0  0  0  0  0  0  0  0  0
   -1.0230    2.7100    1.3760 O   0  0  0  0  0  0  0  0  0  0  0  0
    1.6530    3.3610    6.2800 H   0  0  0  0  0  0  0  0  0  0  0  0
    1.0540    4.7660    5.3530 H   0  0  0  0  0  0  0  0  0  0  0  0
   -1.4210    3.6340    4.0110 H   0  0  0  0  0  0  0  0  0  0  0  0
   -1.3280    2.4840    5.3470 H   0  0  0  0  0  0  0  0  0  0  0  0
   -2.3760    1.4870    3.3240 H   0  0  0  0  0  0  0  0  0  0  0  0
   -1.1090   -0.5040    3.3890 H   0  0  0  0  0  0  0  0  0  0  0  0
    0.1670    0.2800    4.1540 H   0  0  0  0  0  0  0  0  0  0  0  0
    4.5260    1.3570   -4.9720 O   0  0  0  0  0  0  0  0  0  0  0  0
    3.9890    1.2910   -3.6760 C   0  0  0  0  0  0  0  0  0  0  0  0
    4.1090    0.1220   -2.9320 C   0  0  0  0  0  0  0  0  0  0  0  0
    3.5840    0.0560   -1.6720 C   0  0  0  0  0  0  0  0  0  0  0  0
    2.9160    1.1180   -1.0680 C   0  0  0  0  0  0  0  0  0  0  0  0
    2.3060    1.0740    0.2660 C   0  0  0  0  0  0  0  0  0  0  0  0
    0.8220    0.8180    0.2360 C   0  0  2  0  0  0  0  0  0  0  0  0
    0.2160    0.7650    1.5470 N   0  0  0  0  0  0  0  0  0  0  0  0
    0.4590   -0.3620   -0.5810 C   0  0  0  0  0  0  0  0  0  0  0  0
    0.9890   -0.4910   -1.7080 O   0  0  0  0  0  0  0  0  0  0  0  0
    2.7990    2.2800   -1.8140 C   0  0  0  0  0  0  0  0  0  0  0  0
    3.3340    2.3250   -3.0800 C   0  0  0  0  0  0  0  0  0  0  0  0
    3.8620    1.2100   -5.7520 H   0  0  0  0  0  0  0  0  0  0  0  0
    4.6210   -0.7010   -3.3860 H   0  0  0  0  0  0  0  0  0  0  0  0
    3.6820   -0.8640   -1.0850 H   0  0  0  0  0  0  0  0  0  0  0  0
    2.8350    0.3640    0.9620 H   0  0  0  0  0  0  0  0  0  0  0  0
    2.5210    2.0840    0.7280 H   0  0  0  0  0  0  0  0  0  0  0  0
    0.3670    1.7110   -0.2800 H   0  0  0  0  0  0  0  0  0  0  0  0
    0.4570   -0.0410    2.1800 H   0  0  0  0  0  0  0  0  0  0  0  0
    2.2840    3.1380   -1.3800 H   0  0  0  0  0  0  0  0  0  0  0  0
    3.2460    3.2430   -3.6860 H   0  0  0  0  0  0  0  0  0  0  0  0
   -2.5000   -7.1140   -1.2120 N   0  0  0  0  0  0  0  0  0  0  0  0
   -2.4070   -6.5160    0.0660 C   0  0  0  0  0  0  0  0  0  0  0  0
   -1.3650   -6.7440    0.7800 N   0  0  0  0  0  0  0  0  0  0  0  0
   -3.4250   -5.6790    0.5970 N   0  0  0  0  0  0  0  0  0  0  0  0
   -3.1300   -4.5020    1.3530 C   0  0  0  0  0  0  0  0  0  0  0  0
   -2.5750   -3.3500    0.5660 C   0  0  0  0  0  0  0  0  0  0  0  0
   -1.3250   -3.6700   -0.1660 C   0  0  0  0  0  0  0  0  0  0  0  0
   -0.7980   -2.4820   -0.9420 C   0  0  2  0  0  0  0  0  0  0  0  0
   -0.4640   -1.3460   -0.1370 N   0  0  0  0  0  0  0  0  0  0  0  0
   -1.9730   -2.0750   -1.8330 C   0  0  0  0  0  0  0  0  0  0  0  0
   -2.4230   -2.9040   -2.6380 O   0  0  0  0  0  0  0  0  0  0  0  0
   -2.5320   -0.8180   -1.7570 O   0  0  0  0  0  0  0  0  0  0  0  0
   -1.8810   -7.9200   -1.4880 H   0  0  0  0  0  0  0  0  0  0  0  0
   -3.1790   -6.7870   -1.9290 H   0  0  0  0  0  0  0  0  0  0  0  0
   -1.2760   -6.3180    1.7160 H   0  0  0  0  0  0  0  0  0  0  0  0
   -4.4280   -5.9850    0.3840 H   0  0  0  0  0  0  0  0  0  0  0  0
   -2.4290   -4.7360    2.2040 H   0  0  0  0  0  0  0  0  0  0  0  0
   -4.0980   -4.2120    1.8570 H   0  0  0  0  0  0  0  0  0  0  0  0
   -2.4530   -2.4450    1.2360 H   0  0  0  0  0  0  0  0  0  0  0  0
   -3.3910   -3.0170   -0.1390 H   0  0  0  0  0  0  0  0  0  0  0  0
   -0.5130   -4.0190    0.4960 H   0  0  0  0  0  0  0  0  0  0  0  0
   -1.5420   -4.5070   -0.8910 H   0  0  0  0  0  0  0  0  0  0  0  0
   -0.0050   -2.6950   -1.6470 H   0  0  0  0  0  0  0  0  0  0  0  0
   -0.9080   -1.2400    0.7970 H   0  0  0  0  0  0  0  0  0  0  0  0
  1  9  1  0  0  0  0
  2  1  1  0  0  0  0
  3  2  2  0  0  0  0
  4  2  1  0  0  0  0
  4 12  1  0  0  0  0
  5 13  1  6  0  0  0
  5  6  1  0  0  0  0
  5  4  1  0  0  0  0
  6 15  1  0  0  0  0
  7  5  1  0  0  0  0
  8  7  2  0  0  0  0
 10  1  1  0  0  0  0
 11  4  1  0  0  0  0
 14  6  1  0  0  0  0
 16 17  1  0  0  0  0
 17 27  2  0  0  0  0
 17 18  1  0  0  0  0
 18 19  2  0  0  0  0
 19 30  1  0  0  0  0
 19 20  1  0  0  0  0
 20 21  1  0  0  0  0
 21 32  1  0  0  0  0
 21 31  1  0  0  0  0
 22 33  1  6  0  0  0
 22 21  1  0  0  0  0
 22 23  1  0  0  0  0
 23  7  1  0  0  0  0
 23 34  1  0  0  0  0
 24 45  1  0  0  0  0
 24 22  1  0  0  0  0
 25 24  2  0  0  0  0
 26 35  1  0  0  0  0
 26 20  2  0  0  0  0
 27 26  1  0  0  0  0
 28 16  1  0  0  0  0
 29 18  1  0  0  0  0
 36 27  1  0  0  0  0
 37 38  1  0  0  0  0
 38 40  1  0  0  0  0
 38 39  2  0  0  0  0
 39 51  1  0  0  0  0
 40 41  1  0  0  0  0
 41 54  1  0  0  0  0
 41 53  1  0  0  0  0
 42 55  1  0  0  0  0
 42 41  1  0  0  0  0
 43 57  1  0  0  0  0
 43 42  1  0  0  0  0
 44 59  1  6  0  0  0
 44 43  1  0  0  0  0
 44 45  1  0  0  0  0
 45 60  1  0  0  0  0
 46 48  1  0  0  0  0
 46 44  1  0  0  0  0
 47 46  2  0  0  0  0
 49 37  1  0  0  0  0
 50 37  1  0  0  0  0
 52 40  1  0  0  0  0
 56 42  1  0  0  0  0
 58 43  1  0  0  0  0
M  END
$$$$
