NYS.pdb
 OpenBabel07022418123D

 48 48  0  0  1  0  0  0  0  0999 V2000
    4.0970   -2.9350    4.1760 N   0  0  0  0  0  0  0  0  0  0  0  0
    3.3690   -3.6310    3.1840 C   0  0  0  0  0  0  0  0  0  0  0  0
    2.7480   -4.6920    3.5230 O   0  0  0  0  0  0  0  0  0  0  0  0
    3.3330   -3.1270    1.7880 C   0  0  0  0  0  0  0  0  0  0  0  0
    1.9010   -3.0160    1.2900 C   0  0  2  0  0  0  0  0  0  0  0  0
    1.8880   -2.5290   -0.0670 N   0  0  0  0  0  0  0  0  0  0  0  0
    1.1070   -2.1060    2.1320 C   0  0  0  0  0  0  0  0  0  0  0  0
    0.8890   -2.3010    3.3580 O   0  0  0  0  0  0  0  0  0  0  0  0
    5.0490   -2.6310    3.9520 H   0  0  0  0  0  0  0  0  0  0  0  0
    3.6630   -2.7390    5.1110 H   0  0  0  0  0  0  0  0  0  0  0  0
    3.9330   -2.2280    1.6430 H   0  0  0  0  0  0  0  0  0  0  0  0
    3.8120   -3.9420    1.1600 H   0  0  0  0  0  0  0  0  0  0  0  0
    1.4230   -4.0240    1.3640 H   0  0  0  0  0  0  0  0  0  0  0  0
    2.4310   -1.6460   -0.1110 H   0  0  0  0  0  0  0  0  0  0  0  0
    0.9220   -2.4270   -0.4470 H   0  0  0  0  0  0  0  0  0  0  0  0
    0.1340    3.3430   -3.1190 O   0  0  0  0  0  0  0  0  0  0  0  0
    0.1590    2.8580   -1.7960 C   0  0  0  0  0  0  0  0  0  0  0  0
    1.2450    2.1760   -1.3090 C   0  0  0  0  0  0  0  0  0  0  0  0
    1.2700    1.7000   -0.0080 C   0  0  0  0  0  0  0  0  0  0  0  0
    0.2040    1.8970    0.8410 C   0  0  0  0  0  0  0  0  0  0  0  0
    0.2670    1.3810    2.2220 C   0  0  0  0  0  0  0  0  0  0  0  0
   -0.2430   -0.0230    2.3920 C   0  0  2  0  0  0  0  0  0  0  0  0
    0.5440   -0.9350    1.5590 N   0  0  0  0  0  0  0  0  0  0  0  0
   -1.6500   -0.0700    1.8510 C   0  0  0  0  0  0  0  0  0  0  0  0
   -2.5840    0.6010    2.4010 O   0  0  0  0  0  0  0  0  0  0  0  0
   -0.8890    2.5810    0.3530 C   0  0  0  0  0  0  0  0  0  0  0  0
   -0.9100    3.0560   -0.9500 C   0  0  0  0  0  0  0  0  0  0  0  0
    0.4440    2.7070   -3.8700 H   0  0  0  0  0  0  0  0  0  0  0  0
    2.0980    2.0120   -1.9650 H   0  0  0  0  0  0  0  0  0  0  0  0
    2.1600    1.1570    0.3650 H   0  0  0  0  0  0  0  0  0  0  0  0
   -0.2700    2.0700    2.9390 H   0  0  0  0  0  0  0  0  0  0  0  0
    1.3340    1.4390    2.5610 H   0  0  0  0  0  0  0  0  0  0  0  0
   -0.2530   -0.3390    3.4510 H   0  0  0  0  0  0  0  0  0  0  0  0
    0.6540   -0.6810    0.5640 H   0  0  0  0  0  0  0  0  0  0  0  0
   -1.7450    2.7640    0.9780 H   0  0  0  0  0  0  0  0  0  0  0  0
   -1.7750    3.5850   -1.2970 H   0  0  0  0  0  0  0  0  0  0  0  0
   -2.3730   -1.1550   -2.0920 O   0  0  0  0  0  0  0  0  0  0  0  0
   -3.2760   -0.4700   -1.3150 C   0  0  0  0  0  0  0  0  0  0  0  0
   -3.2750   -0.9790    0.1180 C   0  0  2  0  0  0  0  0  0  0  0  0
   -1.9800   -0.8500    0.7280 N   0  0  0  0  0  0  0  0  0  0  0  0
   -3.6600   -2.4010    0.0960 C   0  0  0  0  0  0  0  0  0  0  0  0
   -4.7350   -2.8060   -0.3850 O   0  0  0  0  0  0  0  0  0  0  0  0
   -2.8000   -3.3460    0.6320 O   0  0  0  0  0  0  0  0  0  0  0  0
   -2.5540   -1.1240   -3.0520 H   0  0  0  0  0  0  0  0  0  0  0  0
   -3.1960    0.6160   -1.3060 H   0  0  0  0  0  0  0  0  0  0  0  0
   -4.2900   -0.7320   -1.7340 H   0  0  0  0  0  0  0  0  0  0  0  0
   -4.0170   -0.4130    0.6920 H   0  0  0  0  0  0  0  0  0  0  0  0
   -1.2130   -1.4170    0.2590 H   0  0  0  0  0  0  0  0  0  0  0  0
  1 10  1  0  0  0  0
  2  3  2  0  0  0  0
  2  1  1  0  0  0  0
  4  2  1  0  0  0  0
  5 13  1  1  0  0  0
  5  4  1  0  0  0  0
  5  7  1  0  0  0  0
  6  5  1  0  0  0  0
  7  8  2  0  0  0  0
  9  1  1  0  0  0  0
 11  4  1  0  0  0  0
 12  4  1  0  0  0  0
 14  6  1  0  0  0  0
 15  6  1  0  0  0  0
 16 17  1  0  0  0  0
 17 18  2  0  0  0  0
 17 27  1  0  0  0  0
 18 19  1  0  0  0  0
 19 30  1  0  0  0  0
 19 20  2  0  0  0  0
 20 21  1  0  0  0  0
 21 22  1  0  0  0  0
 21 32  1  0  0  0  0
 21 31  1  0  0  0  0
 22 33  1  1  0  0  0
 23  7  1  0  0  0  0
 23 22  1  0  0  0  0
 24 22  1  0  0  0  0
 24 25  2  0  0  0  0
 26 20  1  0  0  0  0
 26 35  1  0  0  0  0
 27 26  2  0  0  0  0
 28 16  1  0  0  0  0
 29 18  1  0  0  0  0
 34 23  1  0  0  0  0
 36 27  1  0  0  0  0
 37 38  1  0  0  0  0
 38 45  1  0  0  0  0
 38 39  1  0  0  0  0
 39 47  1  1  0  0  0
 39 40  1  0  0  0  0
 40 24  1  0  0  0  0
 41 39  1  0  0  0  0
 41 43  1  0  0  0  0
 42 41  2  0  0  0  0
 44 37  1  0  0  0  0
 46 38  1  0  0  0  0
 48 40  1  0  0  0  0
M  END
$$$$
