NYT.pdb
 OpenBabel07022418123D

 51 51  0  0  1  0  0  0  0  0999 V2000
    3.5720   -2.8930    0.6270 N   0  0  0  0  0  0  0  0  0  0  0  0
    3.5160   -1.5020    0.8450 C   0  0  0  0  0  0  0  0  0  0  0  0
    3.8150   -1.0570    1.9800 O   0  0  0  0  0  0  0  0  0  0  0  0
    3.1220   -0.5240   -0.1980 C   0  0  0  0  0  0  0  0  0  0  0  0
    3.1680    0.8960    0.3200 C   0  0  2  0  0  0  0  0  0  0  0  0
    4.5050    1.2480    0.7670 N   0  0  0  0  0  0  0  0  0  0  0  0
    2.1670    1.0220    1.4080 C   0  0  0  0  0  0  0  0  0  0  0  0
    2.5980    1.3770    2.5510 O   0  0  0  0  0  0  0  0  0  0  0  0
    3.6180   -3.5380    1.4340 H   0  0  0  0  0  0  0  0  0  0  0  0
    3.5680   -3.2660   -0.3290 H   0  0  0  0  0  0  0  0  0  0  0  0
    3.8150   -0.5620   -1.0720 H   0  0  0  0  0  0  0  0  0  0  0  0
    2.1050   -0.7170   -0.5810 H   0  0  0  0  0  0  0  0  0  0  0  0
    2.9050    1.5570   -0.5350 H   0  0  0  0  0  0  0  0  0  0  0  0
    4.4750    1.4310    1.7990 H   0  0  0  0  0  0  0  0  0  0  0  0
    4.8420    2.1520    0.3240 H   0  0  0  0  0  0  0  0  0  0  0  0
   -3.9510    1.1390   -2.9800 O   0  0  0  0  0  0  0  0  0  0  0  0
   -3.2690    1.3470   -1.7830 C   0  0  0  0  0  0  0  0  0  0  0  0
   -2.0790    2.0410   -1.7160 C   0  0  0  0  0  0  0  0  0  0  0  0
   -1.3940    2.2560   -0.5480 C   0  0  0  0  0  0  0  0  0  0  0  0
   -1.8950    1.7660    0.6320 C   0  0  0  0  0  0  0  0  0  0  0  0
   -1.1520    1.9950    1.9250 C   0  0  0  0  0  0  0  0  0  0  0  0
   -0.1680    0.8730    2.1900 C   0  0  2  0  0  0  0  0  0  0  0  0
    0.8130    0.7530    1.1490 N   0  0  0  0  0  0  0  0  0  0  0  0
   -0.8700   -0.4170    2.4120 C   0  0  0  0  0  0  0  0  0  0  0  0
   -1.7750   -0.5450    3.2820 O   0  0  0  0  0  0  0  0  0  0  0  0
   -3.0720    1.0720    0.6070 C   0  0  0  0  0  0  0  0  0  0  0  0
   -3.7370    0.8710   -0.5710 C   0  0  0  0  0  0  0  0  0  0  0  0
   -3.6370    1.6850   -3.7810 H   0  0  0  0  0  0  0  0  0  0  0  0
   -1.6820    2.4310   -2.6610 H   0  0  0  0  0  0  0  0  0  0  0  0
   -0.4430    2.8170   -0.5350 H   0  0  0  0  0  0  0  0  0  0  0  0
   -1.8940    2.0430    2.7350 H   0  0  0  0  0  0  0  0  0  0  0  0
   -0.6080    2.9390    1.8060 H   0  0  0  0  0  0  0  0  0  0  0  0
    0.3450    1.1610    3.1510 H   0  0  0  0  0  0  0  0  0  0  0  0
    0.5430    0.4650    0.1830 H   0  0  0  0  0  0  0  0  0  0  0  0
   -3.5090    0.6660    1.5060 H   0  0  0  0  0  0  0  0  0  0  0  0
   -4.6810    0.3170   -0.6010 H   0  0  0  0  0  0  0  0  0  0  0  0
   -0.8320   -3.5630   -0.6320 C   0  0  0  0  0  0  0  0  0  0  0  0
   -1.7770   -3.3450    0.5150 C   0  0  1  0  0  0  0  0  0  0  0  0
   -2.3090   -4.6150    0.8390 O   0  0  0  0  0  0  0  0  0  0  0  0
   -1.1170   -2.8300    1.7420 C   0  0  2  0  0  0  0  0  0  0  0  0
   -0.5100   -1.5410    1.6170 N   0  0  0  0  0  0  0  0  0  0  0  0
   -0.0960   -3.7930    2.2360 C   0  0  0  0  0  0  0  0  0  0  0  0
    1.0800   -3.4340    2.4770 O   0  0  0  0  0  0  0  0  0  0  0  0
   -0.4060   -5.1420    2.4530 O   0  0  0  0  0  0  0  0  0  0  0  0
    0.1000   -3.0010   -0.5690 H   0  0  0  0  0  0  0  0  0  0  0  0
   -0.5380   -4.6490   -0.7300 H   0  0  0  0  0  0  0  0  0  0  0  0
   -1.4150   -3.3530   -1.5720 H   0  0  0  0  0  0  0  0  0  0  0  0
   -2.6500   -2.7310    0.2320 H   0  0  0  0  0  0  0  0  0  0  0  0
   -2.4630   -5.1430    0.0220 H   0  0  0  0  0  0  0  0  0  0  0  0
   -1.8910   -2.7560    2.5440 H   0  0  0  0  0  0  0  0  0  0  0  0
    0.2380   -1.4400    0.8960 H   0  0  0  0  0  0  0  0  0  0  0  0
  1  2  1  0  0  0  0
  1  9  1  0  0  0  0
  2  3  2  0  0  0  0
  4  5  1  0  0  0  0
  4  2  1  0  0  0  0
  5 13  1  6  0  0  0
  5  6  1  0  0  0  0
  5  7  1  0  0  0  0
  6 14  1  0  0  0  0
  7  8  2  0  0  0  0
 10  1  1  0  0  0  0
 11  4  1  0  0  0  0
 12  4  1  0  0  0  0
 15  6  1  0  0  0  0
 16 17  1  0  0  0  0
 17 18  2  0  0  0  0
 17 27  1  0  0  0  0
 18 19  1  0  0  0  0
 19 30  1  0  0  0  0
 19 20  2  0  0  0  0
 20 21  1  0  0  0  0
 21 22  1  0  0  0  0
 21 31  1  0  0  0  0
 22 24  1  0  0  0  0
 22 33  1  1  0  0  0
 23  7  1  0  0  0  0
 23 22  1  0  0  0  0
 24 25  2  0  0  0  0
 26 20  1  0  0  0  0
 26 35  1  0  0  0  0
 27 26  2  0  0  0  0
 28 16  1  0  0  0  0
 29 18  1  0  0  0  0
 32 21  1  0  0  0  0
 34 23  1  0  0  0  0
 36 27  1  0  0  0  0
 37 45  1  0  0  0  0
 37 38  1  0  0  0  0
 38 48  1  6  0  0  0
 38 39  1  0  0  0  0
 38 40  1  0  0  0  0
 40 42  1  0  0  0  0
 40 50  1  1  0  0  0
 41 40  1  0  0  0  0
 41 24  1  0  0  0  0
 42 44  2  0  0  0  0
 42 43  1  0  0  0  0
 46 37  1  0  0  0  0
 47 37  1  0  0  0  0
 49 39  1  0  0  0  0
 51 41  1  0  0  0  0
M  END
$$$$
