NYV.pdb
 OpenBabel07022418123D

 53 53  0  0  1  0  0  0  0  0999 V2000
    4.1690   -4.9070    0.1630 N   0  0  0  0  0  0  0  0  0  0  0  0
    4.4180   -4.2780   -1.0690 C   0  0  0  0  0  0  0  0  0  0  0  0
    5.6380   -4.1560   -1.4110 O   0  0  0  0  0  0  0  0  0  0  0  0
    3.4230   -3.7580   -1.9850 C   0  0  0  0  0  0  0  0  0  0  0  0
    2.0130   -3.6980   -1.5160 C   0  0  2  0  0  0  0  0  0  0  0  0
    1.2340   -3.1620   -2.6450 N   0  0  0  0  0  0  0  0  0  0  0  0
    1.7990   -2.8190   -0.3250 C   0  0  0  0  0  0  0  0  0  0  0  0
    2.3610   -3.1260    0.7420 O   0  0  0  0  0  0  0  0  0  0  0  0
    3.4120   -5.6110    0.2200 H   0  0  0  0  0  0  0  0  0  0  0  0
    4.7200   -4.6860    1.0060 H   0  0  0  0  0  0  0  0  0  0  0  0
    3.4180   -4.3900   -2.9180 H   0  0  0  0  0  0  0  0  0  0  0  0
    3.7110   -2.7480   -2.3530 H   0  0  0  0  0  0  0  0  0  0  0  0
    1.6250   -4.7020   -1.3070 H   0  0  0  0  0  0  0  0  0  0  0  0
    1.6150   -2.2400   -2.9570 H   0  0  0  0  0  0  0  0  0  0  0  0
    0.2240   -3.1460   -2.4420 H   0  0  0  0  0  0  0  0  0  0  0  0
   -0.6750    3.2920   -4.0050 O   0  0  0  0  0  0  0  0  0  0  0  0
   -0.1780    2.6200   -2.8840 C   0  0  0  0  0  0  0  0  0  0  0  0
   -0.7820    2.7780   -1.6720 C   0  0  0  0  0  0  0  0  0  0  0  0
   -0.2810    2.1040   -0.5520 C   0  0  0  0  0  0  0  0  0  0  0  0
    0.8110    1.2850   -0.6560 C   0  0  0  0  0  0  0  0  0  0  0  0
    1.3260    0.5840    0.5090 C   0  0  0  0  0  0  0  0  0  0  0  0
    0.7420   -0.7770    0.7300 C   0  0  2  0  0  0  0  0  0  0  0  0
    0.9790   -1.6600   -0.3940 N   0  0  0  0  0  0  0  0  0  0  0  0
   -0.6580   -0.8280    1.1330 C   0  0  0  0  0  0  0  0  0  0  0  0
   -1.4640   -1.5620    0.4790 O   0  0  0  0  0  0  0  0  0  0  0  0
    1.4070    1.1370   -1.8830 C   0  0  0  0  0  0  0  0  0  0  0  0
    0.9120    1.8060   -3.0010 C   0  0  0  0  0  0  0  0  0  0  0  0
   -1.4750    2.8760   -4.4800 H   0  0  0  0  0  0  0  0  0  0  0  0
   -1.6450    3.4290   -1.6060 H   0  0  0  0  0  0  0  0  0  0  0  0
   -0.8150    2.2840    0.3680 H   0  0  0  0  0  0  0  0  0  0  0  0
    1.1730    1.1590    1.4670 H   0  0  0  0  0  0  0  0  0  0  0  0
    2.4430    0.4410    0.4650 H   0  0  0  0  0  0  0  0  0  0  0  0
    1.3340   -1.2230    1.5860 H   0  0  0  0  0  0  0  0  0  0  0  0
    0.5370   -1.4640   -1.3220 H   0  0  0  0  0  0  0  0  0  0  0  0
    2.2890    0.4900   -2.0210 H   0  0  0  0  0  0  0  0  0  0  0  0
    1.4120    1.6560   -3.9270 H   0  0  0  0  0  0  0  0  0  0  0  0
   -4.3340   -0.9890    4.1480 C   0  0  0  0  0  0  0  0  0  0  0  0
   -2.8440   -0.8900    3.9060 C   0  0  0  0  0  0  0  0  0  0  0  0
   -2.1830   -0.0210    4.9550 C   0  0  0  0  0  0  0  0  0  0  0  0
   -2.6540   -0.2500    2.5380 C   0  0  2  0  0  0  0  0  0  0  0  0
   -1.2370   -0.1170    2.2250 N   0  0  0  0  0  0  0  0  0  0  0  0
   -3.2930    1.0730    2.5710 C   0  0  0  0  0  0  0  0  0  0  0  0
   -2.6680    2.1410    2.3650 O   0  0  0  0  0  0  0  0  0  0  0  0
   -4.6620    1.2300    2.8370 O   0  0  0  0  0  0  0  0  0  0  0  0
   -4.9210   -1.0590    3.2280 H   0  0  0  0  0  0  0  0  0  0  0  0
   -4.5830   -1.9180    4.7400 H   0  0  0  0  0  0  0  0  0  0  0  0
   -4.6460   -0.1440    4.8150 H   0  0  0  0  0  0  0  0  0  0  0  0
   -2.4230   -1.8950    3.9800 H   0  0  0  0  0  0  0  0  0  0  0  0
   -2.2110    1.0650    4.6650 H   0  0  0  0  0  0  0  0  0  0  0  0
   -1.1150   -0.2710    5.0950 H   0  0  0  0  0  0  0  0  0  0  0  0
   -2.6860   -0.1810    5.9450 H   0  0  0  0  0  0  0  0  0  0  0  0
   -3.1730   -0.8990    1.8090 H   0  0  0  0  0  0  0  0  0  0  0  0
   -0.6280    0.5010    2.7950 H   0  0  0  0  0  0  0  0  0  0  0  0
  1  9  1  0  0  0  0
  1 10  1  0  0  0  0
  2  1  1  0  0  0  0
  3  2  2  0  0  0  0
  4  5  1  0  0  0  0
  4  2  1  0  0  0  0
  5 13  1  1  0  0  0
  5  7  1  0  0  0  0
  6 15  1  0  0  0  0
  6  5  1  0  0  0  0
  7  8  2  0  0  0  0
 11  4  1  0  0  0  0
 12  4  1  0  0  0  0
 14  6  1  0  0  0  0
 16 17  1  0  0  0  0
 17 18  1  0  0  0  0
 18 29  1  0  0  0  0
 18 19  2  0  0  0  0
 19 30  1  0  0  0  0
 20 19  1  0  0  0  0
 20 21  1  0  0  0  0
 21 22  1  0  0  0  0
 21 31  1  0  0  0  0
 22 24  1  0  0  0  0
 22 33  1  1  0  0  0
 23  7  1  0  0  0  0
 23 22  1  0  0  0  0
 24 41  1  0  0  0  0
 25 24  2  0  0  0  0
 26 20  2  0  0  0  0
 27 17  2  0  0  0  0
 27 26  1  0  0  0  0
 28 16  1  0  0  0  0
 32 21  1  0  0  0  0
 34 23  1  0  0  0  0
 35 26  1  0  0  0  0
 36 27  1  0  0  0  0
 37 46  1  0  0  0  0
 37 47  1  0  0  0  0
 38 48  1  0  0  0  0
 38 37  1  0  0  0  0
 38 39  1  0  0  0  0
 39 50  1  0  0  0  0
 39 51  1  0  0  0  0
 40 52  1  6  0  0  0
 40 42  1  0  0  0  0
 40 38  1  0  0  0  0
 41 40  1  0  0  0  0
 41 53  1  0  0  0  0
 42 44  1  0  0  0  0
 43 42  2  0  0  0  0
 45 37  1  0  0  0  0
 49 39  1  0  0  0  0
M  END
$$$$
