PAE.pdb
 OpenBabel07022419023D

 42 42  0  0  1  0  0  0  0  0999 V2000
   -1.5120   -4.8090    0.0930 N   0  0  0  0  0  0  0  0  0  0  0  0
   -0.6800   -5.7250    0.8460 C   0  0  0  0  0  0  0  0  0  0  0  0
    0.3890   -4.8330    1.4310 C   0  0  0  0  0  0  0  0  0  0  0  0
   -0.3420   -3.5620    1.7300 C   0  0  0  0  0  0  0  0  0  0  0  0
   -1.5780   -3.5800    0.8550 C   0  0  1  0  0  0  0  0  0  0  0  0
   -1.6260   -2.4050   -0.0350 C   0  0  0  0  0  0  0  0  0  0  0  0
   -1.6040   -2.5970   -1.2970 O   0  0  0  0  0  0  0  0  0  0  0  0
   -1.1610   -4.6590   -0.8770 H   0  0  0  0  0  0  0  0  0  0  0  0
   -1.2380   -6.2860    1.6050 H   0  0  0  0  0  0  0  0  0  0  0  0
   -0.2780   -6.4620    0.1250 H   0  0  0  0  0  0  0  0  0  0  0  0
    1.2140   -4.6660    0.7050 H   0  0  0  0  0  0  0  0  0  0  0  0
    0.7860   -5.3020    2.3510 H   0  0  0  0  0  0  0  0  0  0  0  0
    0.2890   -2.6880    1.4590 H   0  0  0  0  0  0  0  0  0  0  0  0
   -0.5770   -3.4810    2.8080 H   0  0  0  0  0  0  0  0  0  0  0  0
   -2.4540   -3.6620    1.5300 H   0  0  0  0  0  0  0  0  0  0  0  0
   -2.9890    0.8670   -0.3800 C   0  0  0  0  0  0  0  0  0  0  0  0
   -1.7390    0.0410   -0.5280 C   0  0  2  0  0  0  0  0  0  0  0  0
   -1.6950   -1.0690    0.3940 N   0  0  0  0  0  0  0  0  0  0  0  0
   -0.5050    0.8720   -0.3480 C   0  0  0  0  0  0  0  0  0  0  0  0
   -0.3400    1.8930   -1.0660 O   0  0  0  0  0  0  0  0  0  0  0  0
   -3.0220    1.4500    0.5600 H   0  0  0  0  0  0  0  0  0  0  0  0
   -3.8450    0.2110   -0.5330 H   0  0  0  0  0  0  0  0  0  0  0  0
   -2.9840    1.6070   -1.2130 H   0  0  0  0  0  0  0  0  0  0  0  0
   -1.7170   -0.3670   -1.5480 H   0  0  0  0  0  0  0  0  0  0  0  0
   -1.7150   -0.8620    1.4070 H   0  0  0  0  0  0  0  0  0  0  0  0
    0.4870    0.5570    0.5970 N   0  0  0  0  0  0  0  0  0  0  0  0
    1.7110    1.3950    0.7610 C   0  0  1  0  0  0  0  0  0  0  0  0
    1.7940    1.9090    2.1500 C   0  0  0  0  0  0  0  0  0  0  0  0
    3.0010    2.7660    2.3810 C   0  0  0  0  0  0  0  0  0  0  0  0
    3.0750    3.9790    1.5490 C   0  0  0  0  0  0  0  0  0  0  0  0
    2.1700    4.3010    0.7570 O   0  0  0  0  0  0  0  0  0  0  0  0
    2.8470    0.5400    0.3520 C   0  0  0  0  0  0  0  0  0  0  0  0
    2.7050   -0.6840    0.0140 O   0  0  0  0  0  0  0  0  0  0  0  0
    4.1890    4.8000    1.6430 O   0  0  0  0  0  0  0  0  0  0  0  0
    4.1290    1.0280    0.3120 O   0  0  0  0  0  0  0  0  0  0  0  0
    0.3590   -0.2830    1.1960 H   0  0  0  0  0  0  0  0  0  0  0  0
    1.6770    2.2270    0.0380 H   0  0  0  0  0  0  0  0  0  0  0  0
    1.7660    1.0820    2.9180 H   0  0  0  0  0  0  0  0  0  0  0  0
    0.8860    2.5160    2.4070 H   0  0  0  0  0  0  0  0  0  0  0  0
    3.9550    2.1930    2.2210 H   0  0  0  0  0  0  0  0  0  0  0  0
    3.0700    3.0650    3.4720 H   0  0  0  0  0  0  0  0  0  0  0  0
    4.1120    5.8230    1.5430 H   0  0  0  0  0  0  0  0  0  0  0  0
  1  2  1  0  0  0  0
  1  5  1  0  0  0  0
  2  3  1  0  0  0  0
  2  9  1  0  0  0  0
  3  4  1  0  0  0  0
  3 12  1  0  0  0  0
  4 14  1  0  0  0  0
  5 15  1  1  0  0  0
  5  4  1  0  0  0  0
  6 18  1  0  0  0  0
  6  5  1  0  0  0  0
  7  6  2  0  0  0  0
  8  1  1  0  0  0  0
 10  2  1  0  0  0  0
 11  3  1  0  0  0  0
 13  4  1  0  0  0  0
 16 21  1  0  0  0  0
 17 24  1  6  0  0  0
 17 16  1  0  0  0  0
 17 19  1  0  0  0  0
 17 18  1  0  0  0  0
 18 25  1  0  0  0  0
 19 26  1  0  0  0  0
 20 19  2  0  0  0  0
 22 16  1  0  0  0  0
 23 16  1  0  0  0  0
 26 27  1  0  0  0  0
 26 36  1  0  0  0  0
 27 37  1  6  0  0  0
 27 28  1  0  0  0  0
 28 29  1  0  0  0  0
 28 39  1  0  0  0  0
 28 38  1  0  0  0  0
 29 41  1  0  0  0  0
 30 34  1  0  0  0  0
 30 29  1  0  0  0  0
 31 30  2  0  0  0  0
 32 27  1  0  0  0  0
 33 32  2  0  0  0  0
 35 32  1  0  0  0  0
 40 29  1  0  0  0  0
 42 34  1  0  0  0  0
M  END
$$$$
