PAG.pdb
 OpenBabel07022419023D

 33 33  0  0  1  0  0  0  0  0999 V2000
    0.8250   -3.2280    0.4240 N   0  0  0  0  0  0  0  0  0  0  0  0
    1.0560   -4.6780    0.5180 C   0  0  0  0  0  0  0  0  0  0  0  0
    1.0440   -4.9570    2.0260 C   0  0  0  0  0  0  0  0  0  0  0  0
    0.4120   -3.7120    2.6300 C   0  0  0  0  0  0  0  0  0  0  0  0
   -0.1900   -3.0480    1.4330 C   0  0  1  0  0  0  0  0  0  0  0  0
   -0.5460   -1.6360    1.6440 C   0  0  0  0  0  0  0  0  0  0  0  0
   -1.4190   -1.3690    2.5000 O   0  0  0  0  0  0  0  0  0  0  0  0
    0.4240   -2.9620   -0.4810 H   0  0  0  0  0  0  0  0  0  0  0  0
    1.9970   -4.9800    0.0600 H   0  0  0  0  0  0  0  0  0  0  0  0
    0.1620   -5.1570    0.0510 H   0  0  0  0  0  0  0  0  0  0  0  0
    0.3850   -5.8290    2.1990 H   0  0  0  0  0  0  0  0  0  0  0  0
    2.0680   -5.1360    2.4080 H   0  0  0  0  0  0  0  0  0  0  0  0
   -0.3340   -3.9700    3.4200 H   0  0  0  0  0  0  0  0  0  0  0  0
    1.2620   -3.1180    3.0500 H   0  0  0  0  0  0  0  0  0  0  0  0
   -1.0970   -3.6140    1.1450 H   0  0  0  0  0  0  0  0  0  0  0  0
    0.8420    1.6500    1.6740 C   0  0  0  0  0  0  0  0  0  0  0  0
   -0.3040    0.8220    1.1390 C   0  0  2  0  0  0  0  0  0  0  0  0
    0.0360   -0.5480    0.9400 N   0  0  0  0  0  0  0  0  0  0  0  0
   -0.7970    1.4860   -0.0940 C   0  0  0  0  0  0  0  0  0  0  0  0
   -0.8620    0.8040   -1.1450 O   0  0  0  0  0  0  0  0  0  0  0  0
    0.5610    2.7210    1.6280 H   0  0  0  0  0  0  0  0  0  0  0  0
    1.7580    1.4450    1.0800 H   0  0  0  0  0  0  0  0  0  0  0  0
    0.9700    1.3690    2.7500 H   0  0  0  0  0  0  0  0  0  0  0  0
   -1.1000    0.8540    1.9410 H   0  0  0  0  0  0  0  0  0  0  0  0
    0.7670   -0.8010    0.2260 H   0  0  0  0  0  0  0  0  0  0  0  0
   -1.1970    2.8430   -0.1540 N   0  0  0  0  0  0  0  0  0  0  0  0
   -1.6770    3.4690   -1.3790 C   0  0  0  0  0  0  0  0  0  0  0  0
   -0.6060    3.3910   -2.4070 C   0  0  0  0  0  0  0  0  0  0  0  0
   -0.8060    3.8750   -3.5540 O   0  0  0  0  0  0  0  0  0  0  0  0
    0.6180    2.8070   -2.1680 O   0  0  0  0  0  0  0  0  0  0  0  0
   -1.1380    3.3950    0.7230 H   0  0  0  0  0  0  0  0  0  0  0  0
   -1.9230    4.5200   -1.1810 H   0  0  0  0  0  0  0  0  0  0  0  0
   -2.5780    2.9520   -1.7610 H   0  0  0  0  0  0  0  0  0  0  0  0
  1  2  1  0  0  0  0
  1  5  1  0  0  0  0
  2  3  1  0  0  0  0
  3 11  1  0  0  0  0
  3 12  1  0  0  0  0
  3  4  1  0  0  0  0
  4 14  1  0  0  0  0
  4 13  1  0  0  0  0
  5 15  1  6  0  0  0
  5  6  1  0  0  0  0
  5  4  1  0  0  0  0
  6  7  2  0  0  0  0
  8  1  1  0  0  0  0
  9  2  1  0  0  0  0
 10  2  1  0  0  0  0
 16 23  1  0  0  0  0
 17 16  1  0  0  0  0
 17 24  1  1  0  0  0
 18 17  1  0  0  0  0
 18  6  1  0  0  0  0
 19 17  1  0  0  0  0
 20 19  2  0  0  0  0
 21 16  1  0  0  0  0
 22 16  1  0  0  0  0
 25 18  1  0  0  0  0
 26 19  1  0  0  0  0
 26 31  1  0  0  0  0
 27 32  1  0  0  0  0
 27 26  1  0  0  0  0
 28 30  1  0  0  0  0
 28 27  1  0  0  0  0
 29 28  2  0  0  0  0
 33 27  1  0  0  0  0
M  END
$$$$
