PAI.pdb
 OpenBabel07022419023D

 45 45  0  0  1  0  0  0  0  0999 V2000
    1.5350   -5.3900    0.3120 N   0  0  0  0  0  0  0  0  0  0  0  0
    1.0100   -5.2020   -1.0300 C   0  0  0  0  0  0  0  0  0  0  0  0
    1.5510   -3.8770   -1.5150 C   0  0  0  0  0  0  0  0  0  0  0  0
    2.2130   -3.2160   -0.3150 C   0  0  0  0  0  0  0  0  0  0  0  0
    1.6910   -4.0400    0.8510 C   0  0  1  0  0  0  0  0  0  0  0  0
    0.3460   -3.5780    1.2750 C   0  0  0  0  0  0  0  0  0  0  0  0
   -0.6330   -4.3110    1.1180 O   0  0  0  0  0  0  0  0  0  0  0  0
    2.4360   -5.9100    0.3320 H   0  0  0  0  0  0  0  0  0  0  0  0
   -0.1010   -5.2040   -0.9780 H   0  0  0  0  0  0  0  0  0  0  0  0
    1.3060   -6.0630   -1.6320 H   0  0  0  0  0  0  0  0  0  0  0  0
    2.3130   -4.1080   -2.3040 H   0  0  0  0  0  0  0  0  0  0  0  0
    0.7560   -3.2060   -1.8690 H   0  0  0  0  0  0  0  0  0  0  0  0
    2.0090   -2.1510   -0.2200 H   0  0  0  0  0  0  0  0  0  0  0  0
    3.3130   -3.4420   -0.3910 H   0  0  0  0  0  0  0  0  0  0  0  0
    2.4460   -3.9870    1.6510 H   0  0  0  0  0  0  0  0  0  0  0  0
   -1.3090   -1.7940    3.7860 C   0  0  0  0  0  0  0  0  0  0  0  0
   -1.1890   -1.8480    2.2750 C   0  0  2  0  0  0  0  0  0  0  0  0
    0.1290   -2.2940    1.8690 N   0  0  0  0  0  0  0  0  0  0  0  0
   -1.5520   -0.5530    1.6640 C   0  0  0  0  0  0  0  0  0  0  0  0
   -2.6910   -0.0940    1.8820 O   0  0  0  0  0  0  0  0  0  0  0  0
   -0.3180   -1.8230    4.2780 H   0  0  0  0  0  0  0  0  0  0  0  0
   -1.7310   -0.8030    4.0360 H   0  0  0  0  0  0  0  0  0  0  0  0
   -2.0040   -2.5520    4.1240 H   0  0  0  0  0  0  0  0  0  0  0  0
   -1.9180   -2.6020    1.9300 H   0  0  0  0  0  0  0  0  0  0  0  0
    0.9810   -1.7060    1.9890 H   0  0  0  0  0  0  0  0  0  0  0  0
   -0.0950    4.9760    1.4560 C   0  0  0  0  0  0  0  0  0  0  0  0
   -0.4220    3.8860    0.4810 C   0  0  0  0  0  0  0  0  0  0  0  0
   -0.2400    2.5070    1.0540 C   0  0  2  0  0  0  0  0  0  0  0  0
    1.1430    2.2110    1.5070 C   0  0  0  0  0  0  0  0  0  0  0  0
   -0.8950    1.4200    0.2160 C   0  0  2  0  0  0  0  0  0  0  0  0
   -0.6490    0.1470    0.8630 N   0  0  0  0  0  0  0  0  0  0  0  0
   -0.5080    1.4360   -1.1900 C   0  0  0  0  0  0  0  0  0  0  0  0
   -0.0070    0.4360   -1.7470 O   0  0  0  0  0  0  0  0  0  0  0  0
   -0.6990    2.5890   -1.9320 O   0  0  0  0  0  0  0  0  0  0  0  0
   -0.9880    5.4310    1.9330 H   0  0  0  0  0  0  0  0  0  0  0  0
    0.5640    4.6640    2.2840 H   0  0  0  0  0  0  0  0  0  0  0  0
    0.4350    5.8340    0.9600 H   0  0  0  0  0  0  0  0  0  0  0  0
    0.2440    4.0600   -0.4090 H   0  0  0  0  0  0  0  0  0  0  0  0
   -1.4590    4.0290    0.1150 H   0  0  0  0  0  0  0  0  0  0  0  0
   -0.8700    2.5130    2.0090 H   0  0  0  0  0  0  0  0  0  0  0  0
    1.4430    2.8200    2.3970 H   0  0  0  0  0  0  0  0  0  0  0  0
    1.8810    2.4640    0.7250 H   0  0  0  0  0  0  0  0  0  0  0  0
    1.2490    1.1280    1.7070 H   0  0  0  0  0  0  0  0  0  0  0  0
   -2.0250    1.5580    0.3190 H   0  0  0  0  0  0  0  0  0  0  0  0
    0.2920   -0.2910    0.7030 H   0  0  0  0  0  0  0  0  0  0  0  0
  1  8  1  0  0  0  0
  1  5  1  0  0  0  0
  2  9  1  0  0  0  0
  2  1  1  0  0  0  0
  3  2  1  0  0  0  0
  3  4  1  0  0  0  0
  4 13  1  0  0  0  0
  4  5  1  0  0  0  0
  5  6  1  0  0  0  0
  5 15  1  1  0  0  0
  6 18  1  0  0  0  0
  7  6  2  0  0  0  0
 10  2  1  0  0  0  0
 11  3  1  0  0  0  0
 12  3  1  0  0  0  0
 14  4  1  0  0  0  0
 16 22  1  0  0  0  0
 16 23  1  0  0  0  0
 16 21  1  0  0  0  0
 17 24  1  6  0  0  0
 17 16  1  0  0  0  0
 18 25  1  0  0  0  0
 18 17  1  0  0  0  0
 19 20  2  0  0  0  0
 19 17  1  0  0  0  0
 26 35  1  0  0  0  0
 26 36  1  0  0  0  0
 27 28  1  0  0  0  0
 27 26  1  0  0  0  0
 28 29  1  0  0  0  0
 28 40  1  1  0  0  0
 29 43  1  0  0  0  0
 29 41  1  0  0  0  0
 30 44  1  1  0  0  0
 30 31  1  0  0  0  0
 30 28  1  0  0  0  0
 31 19  1  0  0  0  0
 32 30  1  0  0  0  0
 33 32  1  0  0  0  0
 34 32  2  0  0  0  0
 37 26  1  0  0  0  0
 38 27  1  0  0  0  0
 39 27  1  0  0  0  0
 42 29  1  0  0  0  0
 45 31  1  0  0  0  0
M  END
$$$$
