PAK.pdb
 OpenBabel07022419023D

 47 47  0  0  1  0  0  0  0  0999 V2000
    2.8230   -4.5560   -0.2700 N   0  0  0  0  0  0  0  0  0  0  0  0
    4.0100   -4.6800    0.5580 C   0  0  0  0  0  0  0  0  0  0  0  0
    4.1320   -3.2770    1.1090 C   0  0  0  0  0  0  0  0  0  0  0  0
    2.7250   -2.7350    1.2390 C   0  0  0  0  0  0  0  0  0  0  0  0
    1.8810   -3.7700    0.5330 C   0  0  1  0  0  0  0  0  0  0  0  0
    0.9090   -3.1730   -0.4030 C   0  0  0  0  0  0  0  0  0  0  0  0
    0.9560   -3.3690   -1.6440 O   0  0  0  0  0  0  0  0  0  0  0  0
    3.1100   -3.9160   -1.0630 H   0  0  0  0  0  0  0  0  0  0  0  0
    4.9020   -4.9200   -0.0310 H   0  0  0  0  0  0  0  0  0  0  0  0
    3.8110   -5.4320    1.3230 H   0  0  0  0  0  0  0  0  0  0  0  0
    4.6680   -3.2660    2.0700 H   0  0  0  0  0  0  0  0  0  0  0  0
    4.7110   -2.6780    0.3890 H   0  0  0  0  0  0  0  0  0  0  0  0
    2.6100   -1.7270    0.8150 H   0  0  0  0  0  0  0  0  0  0  0  0
    2.4680   -2.7040    2.3240 H   0  0  0  0  0  0  0  0  0  0  0  0
    1.4530   -4.4620    1.2600 H   0  0  0  0  0  0  0  0  0  0  0  0
   -2.5260   -2.2420   -0.5920 C   0  0  0  0  0  0  0  0  0  0  0  0
   -1.1210   -1.7240   -0.8410 C   0  0  2  0  0  0  0  0  0  0  0  0
   -0.1600   -2.3230    0.0420 N   0  0  0  0  0  0  0  0  0  0  0  0
   -1.1490   -0.2190   -0.7290 C   0  0  0  0  0  0  0  0  0  0  0  0
   -1.9150    0.4370   -1.4660 O   0  0  0  0  0  0  0  0  0  0  0  0
   -2.4220   -3.1540    0.0320 H   0  0  0  0  0  0  0  0  0  0  0  0
   -3.1310   -1.4880   -0.0330 H   0  0  0  0  0  0  0  0  0  0  0  0
   -3.0730   -2.5060   -1.4930 H   0  0  0  0  0  0  0  0  0  0  0  0
   -0.8750   -1.9470   -1.8910 H   0  0  0  0  0  0  0  0  0  0  0  0
   -0.1950   -2.1640    1.0840 H   0  0  0  0  0  0  0  0  0  0  0  0
   -0.2800    0.3470    0.2350 N   0  0  0  0  0  0  0  0  0  0  0  0
   -0.2860    1.8100    0.3800 C   0  0  1  0  0  0  0  0  0  0  0  0
   -0.2070    2.2290    1.7920 C   0  0  0  0  0  0  0  0  0  0  0  0
   -1.1650    1.8420    2.8040 C   0  0  0  0  0  0  0  0  0  0  0  0
   -2.5810    2.1780    2.8720 C   0  0  0  0  0  0  0  0  0  0  0  0
   -3.5450    1.7790    1.8310 C   0  0  0  0  0  0  0  0  0  0  0  0
   -3.3830    2.3170    0.5420 N   0  0  0  0  0  0  0  0  0  0  0  0
    1.0790    2.2090   -0.2040 C   0  0  0  0  0  0  0  0  0  0  0  0
    1.8090    1.3140   -0.6300 O   0  0  0  0  0  0  0  0  0  0  0  0
    1.4480    3.5230   -0.2400 O   0  0  0  0  0  0  0  0  0  0  0  0
    0.3560   -0.2040    0.8400 H   0  0  0  0  0  0  0  0  0  0  0  0
   -1.0210    2.2860   -0.2420 H   0  0  0  0  0  0  0  0  0  0  0  0
   -0.1830    3.3760    1.7630 H   0  0  0  0  0  0  0  0  0  0  0  0
    0.8550    1.9870    2.1790 H   0  0  0  0  0  0  0  0  0  0  0  0
   -1.0790    0.6820    2.9860 H   0  0  0  0  0  0  0  0  0  0  0  0
   -0.7330    2.2310    3.8240 H   0  0  0  0  0  0  0  0  0  0  0  0
   -2.9790    1.7710    3.8850 H   0  0  0  0  0  0  0  0  0  0  0  0
   -2.6500    3.3030    3.0790 H   0  0  0  0  0  0  0  0  0  0  0  0
   -3.5810    0.6450    1.7250 H   0  0  0  0  0  0  0  0  0  0  0  0
   -4.6020    2.0260    2.1760 H   0  0  0  0  0  0  0  0  0  0  0  0
   -4.0760    1.9750   -0.1470 H   0  0  0  0  0  0  0  0  0  0  0  0
   -3.3010    3.3370    0.5010 H   0  0  0  0  0  0  0  0  0  0  0  0
  1  5  1  0  0  0  0
  1  2  1  0  0  0  0
  2  3  1  0  0  0  0
  2 10  1  0  0  0  0
  3  4  1  0  0  0  0
  3 11  1  0  0  0  0
  4 14  1  0  0  0  0
  5  4  1  0  0  0  0
  5 15  1  1  0  0  0
  6 18  1  0  0  0  0
  6  5  1  0  0  0  0
  7  6  2  0  0  0  0
  8  1  1  0  0  0  0
  9  2  1  0  0  0  0
 12  3  1  0  0  0  0
 13  4  1  0  0  0  0
 16 22  1  0  0  0  0
 16 21  1  0  0  0  0
 17 24  1  6  0  0  0
 17 19  1  0  0  0  0
 17 16  1  0  0  0  0
 17 18  1  0  0  0  0
 18 25  1  0  0  0  0
 19 26  1  0  0  0  0
 20 19  2  0  0  0  0
 23 16  1  0  0  0  0
 26 27  1  0  0  0  0
 26 36  1  0  0  0  0
 27 37  1  6  0  0  0
 27 28  1  0  0  0  0
 28 39  1  0  0  0  0
 28 29  1  0  0  0  0
 29 30  1  0  0  0  0
 29 40  1  0  0  0  0
 29 41  1  0  0  0  0
 30 43  1  0  0  0  0
 30 42  1  0  0  0  0
 31 45  1  0  0  0  0
 31 30  1  0  0  0  0
 32 31  1  0  0  0  0
 33 27  1  0  0  0  0
 34 33  2  0  0  0  0
 35 33  1  0  0  0  0
 38 28  1  0  0  0  0
 44 31  1  0  0  0  0
 46 32  1  0  0  0  0
 47 32  1  0  0  0  0
M  END
$$$$
