PAP.pdb
 OpenBabel07022419023D

 40 41  0  0  1  0  0  0  0  0999 V2000
   -0.4340   -2.7500    1.6050 N   0  0  0  0  0  0  0  0  0  0  0  0
   -1.4020   -3.7970    1.6080 C   0  0  0  0  0  0  0  0  0  0  0  0
   -0.9150   -4.9210    0.7620 C   0  0  0  0  0  0  0  0  0  0  0  0
    0.3920   -4.4740    0.1830 C   0  0  0  0  0  0  0  0  0  0  0  0
    0.6640   -3.1310    0.7580 C   0  0  1  0  0  0  0  0  0  0  0  0
    0.9220   -2.0710   -0.2190 C   0  0  0  0  0  0  0  0  0  0  0  0
    1.8570   -2.2430   -1.0440 O   0  0  0  0  0  0  0  0  0  0  0  0
   -0.1230   -2.4560    2.5700 H   0  0  0  0  0  0  0  0  0  0  0  0
   -2.3470   -3.3950    1.1450 H   0  0  0  0  0  0  0  0  0  0  0  0
   -1.6960   -4.1160    2.6400 H   0  0  0  0  0  0  0  0  0  0  0  0
   -1.5930   -5.1780   -0.0820 H   0  0  0  0  0  0  0  0  0  0  0  0
   -0.8150   -5.8220    1.4260 H   0  0  0  0  0  0  0  0  0  0  0  0
    0.4300   -4.4930   -0.9150 H   0  0  0  0  0  0  0  0  0  0  0  0
    1.1620   -5.2270    0.5210 H   0  0  0  0  0  0  0  0  0  0  0  0
    1.5630   -3.2000    1.4170 H   0  0  0  0  0  0  0  0  0  0  0  0
   -0.6370    0.2950   -2.2950 C   0  0  0  0  0  0  0  0  0  0  0  0
    0.4900    0.1410   -1.2760 C   0  0  2  0  0  0  0  0  0  0  0  0
    0.1910   -0.8600   -0.3000 N   0  0  0  0  0  0  0  0  0  0  0  0
    0.9210    1.4490   -0.7540 C   0  0  0  0  0  0  0  0  0  0  0  0
    1.1570    2.3110   -1.6910 O   0  0  0  0  0  0  0  0  0  0  0  0
   -1.2970   -0.5780   -2.3150 H   0  0  0  0  0  0  0  0  0  0  0  0
   -1.1750    1.2440   -2.0150 H   0  0  0  0  0  0  0  0  0  0  0  0
   -0.2460    0.4510   -3.3200 H   0  0  0  0  0  0  0  0  0  0  0  0
    1.3460   -0.2700   -1.9020 H   0  0  0  0  0  0  0  0  0  0  0  0
   -0.5840   -0.7150    0.3680 H   0  0  0  0  0  0  0  0  0  0  0  0
    1.0880    1.8210    0.5910 N   0  0  0  0  0  0  0  0  0  0  0  0
    1.5240    3.1720    0.9910 C   0  0  0  0  0  0  0  0  0  0  0  0
    1.6740    3.1650    2.4750 C   0  0  0  0  0  0  0  0  0  0  0  0
    1.9400    1.7010    2.7580 C   0  0  0  0  0  0  0  0  0  0  0  0
    0.9070    1.0810    1.7880 C   0  0  1  0  0  0  0  0  0  0  0  0
   -0.3860    1.2580    2.4410 C   0  0  0  0  0  0  0  0  0  0  0  0
   -1.2520    2.0110    1.9570 O   0  0  0  0  0  0  0  0  0  0  0  0
   -0.6470    0.5790    3.6100 O   0  0  0  0  0  0  0  0  0  0  0  0
    0.6820    3.8480    0.6970 H   0  0  0  0  0  0  0  0  0  0  0  0
    2.4800    3.4330    0.5110 H   0  0  0  0  0  0  0  0  0  0  0  0
    0.7810    3.4870    3.0340 H   0  0  0  0  0  0  0  0  0  0  0  0
    2.5800    3.7220    2.7920 H   0  0  0  0  0  0  0  0  0  0  0  0
    2.9320    1.3810    2.4300 H   0  0  0  0  0  0  0  0  0  0  0  0
    1.6680    1.3930    3.7700 H   0  0  0  0  0  0  0  0  0  0  0  0
    1.2380    0.0370    1.6970 H   0  0  0  0  0  0  0  0  0  0  0  0
  1  2  1  0  0  0  0
  1  8  1  0  0  0  0
  2 10  1  0  0  0  0
  3 12  1  0  0  0  0
  3  2  1  0  0  0  0
  4 14  1  0  0  0  0
  4  5  1  0  0  0  0
  4  3  1  0  0  0  0
  5 15  1  1  0  0  0
  5  1  1  0  0  0  0
  6  5  1  0  0  0  0
  7  6  2  0  0  0  0
  9  2  1  0  0  0  0
 11  3  1  0  0  0  0
 13  4  1  0  0  0  0
 16 22  1  0  0  0  0
 16 17  1  0  0  0  0
 17 24  1  6  0  0  0
 17 19  1  0  0  0  0
 17 18  1  0  0  0  0
 18  6  1  0  0  0  0
 18 25  1  0  0  0  0
 19 26  1  0  0  0  0
 20 19  2  0  0  0  0
 21 16  1  0  0  0  0
 23 16  1  0  0  0  0
 26 27  1  0  0  0  0
 26 30  1  0  0  0  0
 27 28  1  0  0  0  0
 28 29  1  0  0  0  0
 28 37  1  0  0  0  0
 28 36  1  0  0  0  0
 29 39  1  0  0  0  0
 30 40  1  6  0  0  0
 30 31  1  0  0  0  0
 30 29  1  0  0  0  0
 31 33  1  0  0  0  0
 32 31  2  0  0  0  0
 34 27  1  0  0  0  0
 35 27  1  0  0  0  0
 38 29  1  0  0  0  0
M  END
$$$$
