PAV.pdb
 OpenBabel07022419023D

 42 42  0  0  1  0  0  0  0  0999 V2000
    0.0150   -3.6860    0.5070 N   0  0  0  0  0  0  0  0  0  0  0  0
   -0.8480   -4.2810    1.4800 C   0  0  0  0  0  0  0  0  0  0  0  0
   -1.9390   -4.9740    0.7170 C   0  0  0  0  0  0  0  0  0  0  0  0
   -1.9910   -4.2420   -0.5910 C   0  0  0  0  0  0  0  0  0  0  0  0
   -0.7960   -3.2790   -0.5950 C   0  0  1  0  0  0  0  0  0  0  0  0
   -1.2520   -1.8840   -0.5590 C   0  0  0  0  0  0  0  0  0  0  0  0
   -1.9580   -1.4760   -1.5390 O   0  0  0  0  0  0  0  0  0  0  0  0
    0.6230   -2.9670    0.8850 H   0  0  0  0  0  0  0  0  0  0  0  0
   -0.2610   -5.0430    2.0690 H   0  0  0  0  0  0  0  0  0  0  0  0
   -1.2850   -3.5520    2.1790 H   0  0  0  0  0  0  0  0  0  0  0  0
   -1.6870   -6.0560    0.5560 H   0  0  0  0  0  0  0  0  0  0  0  0
   -2.8940   -4.8810    1.2970 H   0  0  0  0  0  0  0  0  0  0  0  0
   -2.9480   -3.6530   -0.6510 H   0  0  0  0  0  0  0  0  0  0  0  0
   -1.9320   -4.9740   -1.4070 H   0  0  0  0  0  0  0  0  0  0  0  0
   -0.2500   -3.4820   -1.5490 H   0  0  0  0  0  0  0  0  0  0  0  0
   -2.3220    0.6270    1.6390 C   0  0  0  0  0  0  0  0  0  0  0  0
   -1.4640    0.4080    0.4240 C   0  0  2  0  0  0  0  0  0  0  0  0
   -0.9590   -0.9720    0.4860 N   0  0  0  0  0  0  0  0  0  0  0  0
   -0.2960    1.3140    0.4800 C   0  0  0  0  0  0  0  0  0  0  0  0
   -0.4430    2.5560    0.4440 O   0  0  0  0  0  0  0  0  0  0  0  0
   -1.9300   -0.0170    2.4590 H   0  0  0  0  0  0  0  0  0  0  0  0
   -2.3550    1.6900    1.9570 H   0  0  0  0  0  0  0  0  0  0  0  0
   -3.3500    0.2730    1.3970 H   0  0  0  0  0  0  0  0  0  0  0  0
   -2.0450    0.5290   -0.5090 H   0  0  0  0  0  0  0  0  0  0  0  0
   -0.3890   -1.2930    1.2870 H   0  0  0  0  0  0  0  0  0  0  0  0
    4.1330    2.5860    1.8700 C   0  0  0  0  0  0  0  0  0  0  0  0
    2.9730    1.6100    1.8890 C   0  0  0  0  0  0  0  0  0  0  0  0
    2.1670    1.9010    3.1250 C   0  0  0  0  0  0  0  0  0  0  0  0
    2.1500    1.7240    0.6290 C   0  0  2  0  0  0  0  0  0  0  0  0
    1.0440    0.8370    0.5770 N   0  0  0  0  0  0  0  0  0  0  0  0
    2.9860    1.5230   -0.5840 C   0  0  0  0  0  0  0  0  0  0  0  0
    4.0340    2.1960   -0.7750 O   0  0  0  0  0  0  0  0  0  0  0  0
    2.6700    0.5960   -1.5700 O   0  0  0  0  0  0  0  0  0  0  0  0
    4.3860    2.8680    2.9290 H   0  0  0  0  0  0  0  0  0  0  0  0
    3.8540    3.5380    1.3750 H   0  0  0  0  0  0  0  0  0  0  0  0
    5.0540    2.1390    1.4500 H   0  0  0  0  0  0  0  0  0  0  0  0
    3.4360    0.5940    1.9160 H   0  0  0  0  0  0  0  0  0  0  0  0
    1.1220    1.4970    2.9850 H   0  0  0  0  0  0  0  0  0  0  0  0
    2.5570    1.3470    4.0190 H   0  0  0  0  0  0  0  0  0  0  0  0
    2.1660    2.9650    3.4060 H   0  0  0  0  0  0  0  0  0  0  0  0
    1.7810    2.7710    0.5830 H   0  0  0  0  0  0  0  0  0  0  0  0
    1.2070   -0.1960    0.6090 H   0  0  0  0  0  0  0  0  0  0  0  0
  1  8  1  0  0  0  0
  1  2  1  0  0  0  0
  2  9  1  0  0  0  0
  2 10  1  0  0  0  0
  3 12  1  0  0  0  0
  3  2  1  0  0  0  0
  4  3  1  0  0  0  0
  5 15  1  6  0  0  0
  5  4  1  0  0  0  0
  5  6  1  0  0  0  0
  5  1  1  0  0  0  0
  6 18  1  0  0  0  0
  7  6  2  0  0  0  0
 11  3  1  0  0  0  0
 13  4  1  0  0  0  0
 14  4  1  0  0  0  0
 16 22  1  0  0  0  0
 16 21  1  0  0  0  0
 17 24  1  6  0  0  0
 17 19  1  0  0  0  0
 17 18  1  0  0  0  0
 17 16  1  0  0  0  0
 18 25  1  0  0  0  0
 19 30  1  0  0  0  0
 20 19  2  0  0  0  0
 23 16  1  0  0  0  0
 26 27  1  0  0  0  0
 26 34  1  0  0  0  0
 27 37  1  0  0  0  0
 27 28  1  0  0  0  0
 28 40  1  0  0  0  0
 28 39  1  0  0  0  0
 29 41  1  6  0  0  0
 29 27  1  0  0  0  0
 30 42  1  0  0  0  0
 30 29  1  0  0  0  0
 31 29  1  0  0  0  0
 32 31  1  0  0  0  0
 33 31  2  0  0  0  0
 35 26  1  0  0  0  0
 36 26  1  0  0  0  0
 38 28  1  0  0  0  0
M  END
$$$$
