PCE.pdb
 OpenBabel07022419033D

 43 43  0  0  1  0  0  0  0  0999 V2000
    1.8790   -4.9760    0.3830 N   0  0  0  0  0  0  0  0  0  0  0  0
    0.8330   -5.9120    0.7550 C   0  0  0  0  0  0  0  0  0  0  0  0
   -0.2660   -4.9230    1.1670 C   0  0  0  0  0  0  0  0  0  0  0  0
   -0.2570   -4.0360   -0.0810 C   0  0  0  0  0  0  0  0  0  0  0  0
    1.2270   -3.9360   -0.3520 C   0  0  1  0  0  0  0  0  0  0  0  0
    1.6560   -2.5790    0.0580 C   0  0  0  0  0  0  0  0  0  0  0  0
    2.5130   -2.4530    0.9680 O   0  0  0  0  0  0  0  0  0  0  0  0
    2.4130   -4.6380    1.2190 H   0  0  0  0  0  0  0  0  0  0  0  0
    1.1300   -6.5620    1.5960 H   0  0  0  0  0  0  0  0  0  0  0  0
    0.4760   -6.4430   -0.1300 H   0  0  0  0  0  0  0  0  0  0  0  0
    0.0920   -4.3010    1.9990 H   0  0  0  0  0  0  0  0  0  0  0  0
   -1.2240   -5.4120    1.3270 H   0  0  0  0  0  0  0  0  0  0  0  0
   -0.7190   -4.6450   -0.8860 H   0  0  0  0  0  0  0  0  0  0  0  0
   -0.7430   -3.0750    0.0840 H   0  0  0  0  0  0  0  0  0  0  0  0
    1.4210   -4.1230   -1.4350 H   0  0  0  0  0  0  0  0  0  0  0  0
    1.0860   -1.4550   -0.5920 N   0  0  0  0  0  0  0  0  0  0  0  0
    1.4620   -0.0940   -0.2390 C   0  0  1  0  0  0  0  0  0  0  0  0
    2.1200    0.5280   -1.4500 C   0  0  0  0  0  0  0  0  0  0  0  0
    1.0200    0.5730   -2.8740 S   0  0  0  0  0  0  0  0  0  0  0  0
    0.2870    0.6870    0.2140 C   0  0  0  0  0  0  0  0  0  0  0  0
   -0.8380    0.1450    0.2480 O   0  0  0  0  0  0  0  0  0  0  0  0
    0.3820   -1.6400   -1.3370 H   0  0  0  0  0  0  0  0  0  0  0  0
    2.2150   -0.1580    0.5680 H   0  0  0  0  0  0  0  0  0  0  0  0
    3.0510   -0.0170   -1.6590 H   0  0  0  0  0  0  0  0  0  0  0  0
    2.3680    1.5750   -1.1870 H   0  0  0  0  0  0  0  0  0  0  0  0
    1.1780   -0.5580   -3.7010 H   0  0  0  0  0  0  0  0  0  0  0  0
    0.4260    2.0430    0.6100 N   0  0  0  0  0  0  0  0  0  0  0  0
   -0.6840    2.8640    1.0640 C   0  0  1  0  0  0  0  0  0  0  0  0
   -0.3260    3.4090    2.4130 C   0  0  0  0  0  0  0  0  0  0  0  0
   -0.0650    2.3660    3.4570 C   0  0  0  0  0  0  0  0  0  0  0  0
   -1.2070    1.5000    3.7300 C   0  0  0  0  0  0  0  0  0  0  0  0
   -2.3030    1.6550    3.1530 O   0  0  0  0  0  0  0  0  0  0  0  0
   -0.8740    4.0430    0.1630 C   0  0  0  0  0  0  0  0  0  0  0  0
   -1.7990    4.8400    0.4340 O   0  0  0  0  0  0  0  0  0  0  0  0
   -1.0800    0.4750    4.6530 O   0  0  0  0  0  0  0  0  0  0  0  0
   -0.0690    4.2630   -0.9340 O   0  0  0  0  0  0  0  0  0  0  0  0
    1.3700    2.4840    0.5770 H   0  0  0  0  0  0  0  0  0  0  0  0
   -1.6330    2.3300    1.0660 H   0  0  0  0  0  0  0  0  0  0  0  0
    0.6150    4.0220    2.3040 H   0  0  0  0  0  0  0  0  0  0  0  0
   -1.1390    4.0670    2.8090 H   0  0  0  0  0  0  0  0  0  0  0  0
    0.7930    1.7110    3.1600 H   0  0  0  0  0  0  0  0  0  0  0  0
    0.2140    2.9230    4.3940 H   0  0  0  0  0  0  0  0  0  0  0  0
   -1.6120   -0.3970    4.5620 H   0  0  0  0  0  0  0  0  0  0  0  0
  1  2  1  0  0  0  0
  1  8  1  0  0  0  0
  2  3  1  0  0  0  0
  2  9  1  0  0  0  0
  3 12  1  0  0  0  0
  3 11  1  0  0  0  0
  4 14  1  0  0  0  0
  4  3  1  0  0  0  0
  5 15  1  6  0  0  0
  5  4  1  0  0  0  0
  5  6  1  0  0  0  0
  5  1  1  0  0  0  0
  6  7  2  0  0  0  0
 10  2  1  0  0  0  0
 13  4  1  0  0  0  0
 16 17  1  0  0  0  0
 16  6  1  0  0  0  0
 17 20  1  0  0  0  0
 17 23  1  1  0  0  0
 18 25  1  0  0  0  0
 18 17  1  0  0  0  0
 19 18  1  0  0  0  0
 20 21  2  0  0  0  0
 20 27  1  0  0  0  0
 22 16  1  0  0  0  0
 24 18  1  0  0  0  0
 26 19  1  0  0  0  0
 27 28  1  0  0  0  0
 28 38  1  1  0  0  0
 28 29  1  0  0  0  0
 29 40  1  0  0  0  0
 29 30  1  0  0  0  0
 30 31  1  0  0  0  0
 30 42  1  0  0  0  0
 31 35  1  0  0  0  0
 32 31  2  0  0  0  0
 33 34  1  0  0  0  0
 33 28  1  0  0  0  0
 36 33  2  0  0  0  0
 37 27  1  0  0  0  0
 39 29  1  0  0  0  0
 41 30  1  0  0  0  0
 43 35  1  0  0  0  0
M  END
$$$$
