PCF.pdb
 OpenBabel07022419033D

 47 48  0  0  1  0  0  0  0  0999 V2000
    3.7990   -0.6730    3.7190 N   0  0  0  0  0  0  0  0  0  0  0  0
    4.0180   -1.4960    4.9180 C   0  0  0  0  0  0  0  0  0  0  0  0
    2.7040   -2.2520    5.1030 C   0  0  0  0  0  0  0  0  0  0  0  0
    1.9710   -2.0750    3.7770 C   0  0  0  0  0  0  0  0  0  0  0  0
    3.0730   -1.5950    2.8810 C   0  0  1  0  0  0  0  0  0  0  0  0
    2.5550   -0.8770    1.6760 C   0  0  0  0  0  0  0  0  0  0  0  0
    2.7750    0.3450    1.5150 O   0  0  0  0  0  0  0  0  0  0  0  0
    3.2300    0.1650    3.9800 H   0  0  0  0  0  0  0  0  0  0  0  0
    4.8280   -2.1850    4.6800 H   0  0  0  0  0  0  0  0  0  0  0  0
    4.2850   -0.9020    5.7910 H   0  0  0  0  0  0  0  0  0  0  0  0
    2.1660   -1.7670    5.9370 H   0  0  0  0  0  0  0  0  0  0  0  0
    2.8650   -3.3260    5.2390 H   0  0  0  0  0  0  0  0  0  0  0  0
    1.2370   -1.2590    3.9140 H   0  0  0  0  0  0  0  0  0  0  0  0
    1.5110   -3.0280    3.4440 H   0  0  0  0  0  0  0  0  0  0  0  0
    3.7650   -2.3990    2.5910 H   0  0  0  0  0  0  0  0  0  0  0  0
    1.8060   -1.5670    0.6960 N   0  0  0  0  0  0  0  0  0  0  0  0
    1.3110   -0.8310   -0.4790 C   0  0  1  0  0  0  0  0  0  0  0  0
    2.0730   -1.4450   -1.6620 C   0  0  0  0  0  0  0  0  0  0  0  0
    1.5520   -0.6050   -3.1660 S   0  0  0  0  0  0  0  0  0  0  0  0
   -0.1220   -1.0660   -0.6720 C   0  0  0  0  0  0  0  0  0  0  0  0
   -0.6850   -1.9260    0.0820 O   0  0  0  0  0  0  0  0  0  0  0  0
    1.6260   -2.5750    0.8310 H   0  0  0  0  0  0  0  0  0  0  0  0
    1.6330    0.1970   -0.3800 H   0  0  0  0  0  0  0  0  0  0  0  0
    3.1740   -1.3040   -1.4950 H   0  0  0  0  0  0  0  0  0  0  0  0
    1.8450   -2.5470   -1.7210 H   0  0  0  0  0  0  0  0  0  0  0  0
    1.5620   -1.5190   -4.2530 H   0  0  0  0  0  0  0  0  0  0  0  0
   -0.9670   -0.4350   -1.6150 N   0  0  0  0  0  0  0  0  0  0  0  0
   -2.3840   -0.7490   -1.7250 C   0  0  1  0  0  0  0  0  0  0  0  0
   -3.2500    0.4730   -1.5330 C   0  0  0  0  0  0  0  0  0  0  0  0
   -3.0380    1.0850   -0.1900 C   0  0  0  0  0  0  0  0  0  0  0  0
   -3.7820    0.7100    0.8980 C   0  0  0  0  0  0  0  0  0  0  0  0
   -3.5420    1.3090    2.1100 C   0  0  0  0  0  0  0  0  0  0  0  0
   -2.5730    2.2770    2.2720 C   0  0  0  0  0  0  0  0  0  0  0  0
   -1.8180    2.6570    1.1690 C   0  0  0  0  0  0  0  0  0  0  0  0
   -2.0680    2.0490   -0.0410 C   0  0  0  0  0  0  0  0  0  0  0  0
   -2.6140   -1.2650   -3.0990 C   0  0  0  0  0  0  0  0  0  0  0  0
   -1.6710   -1.3720   -3.9510 O   0  0  0  0  0  0  0  0  0  0  0  0
   -3.8740   -1.6640   -3.5480 O   0  0  0  0  0  0  0  0  0  0  0  0
   -0.5470    0.2860   -2.2380 H   0  0  0  0  0  0  0  0  0  0  0  0
   -2.7050   -1.5090   -1.0120 H   0  0  0  0  0  0  0  0  0  0  0  0
   -4.3020    0.1230   -1.5540 H   0  0  0  0  0  0  0  0  0  0  0  0
   -3.0990    1.2470   -2.2830 H   0  0  0  0  0  0  0  0  0  0  0  0
   -4.5420   -0.0320    0.8260 H   0  0  0  0  0  0  0  0  0  0  0  0
   -4.1050    1.0520    3.0200 H   0  0  0  0  0  0  0  0  0  0  0  0
   -2.3690    2.7600    3.2220 H   0  0  0  0  0  0  0  0  0  0  0  0
   -1.0360    3.4250    1.2570 H   0  0  0  0  0  0  0  0  0  0  0  0
   -1.4550    2.3680   -0.9000 H   0  0  0  0  0  0  0  0  0  0  0  0
  1  8  1  0  0  0  0
  1  2  1  0  0  0  0
  2  3  1  0  0  0  0
  2 10  1  0  0  0  0
  3 12  1  0  0  0  0
  3 11  1  0  0  0  0
  4 13  1  0  0  0  0
  4  3  1  0  0  0  0
  5 15  1  6  0  0  0
  5  1  1  0  0  0  0
  5  4  1  0  0  0  0
  6  5  1  0  0  0  0
  7  6  2  0  0  0  0
  9  2  1  0  0  0  0
 14  4  1  0  0  0  0
 16 22  1  0  0  0  0
 16  6  1  0  0  0  0
 17 23  1  1  0  0  0
 17 16  1  0  0  0  0
 18 24  1  0  0  0  0
 18 17  1  0  0  0  0
 19 18  1  0  0  0  0
 20 17  1  0  0  0  0
 20 21  2  0  0  0  0
 25 18  1  0  0  0  0
 26 19  1  0  0  0  0
 27 20  1  0  0  0  0
 28 27  1  0  0  0  0
 28 29  1  0  0  0  0
 28 40  1  1  0  0  0
 29 30  1  0  0  0  0
 30 35  2  0  0  0  0
 30 31  1  0  0  0  0
 31 32  2  0  0  0  0
 32 33  1  0  0  0  0
 32 44  1  0  0  0  0
 33 45  1  0  0  0  0
 34 46  1  0  0  0  0
 34 33  2  0  0  0  0
 35 34  1  0  0  0  0
 36 28  1  0  0  0  0
 37 36  2  0  0  0  0
 38 36  1  0  0  0  0
 39 27  1  0  0  0  0
 41 29  1  0  0  0  0
 42 29  1  0  0  0  0
 43 31  1  0  0  0  0
 47 35  1  0  0  0  0
M  END
$$$$
