PCH.pdb
 OpenBabel07022419033D

 44 45  0  0  1  0  0  0  0  0999 V2000
    1.5480   -4.6150   -0.5590 N   0  0  0  0  0  0  0  0  0  0  0  0
    1.7350   -5.1980    0.7350 C   0  0  0  0  0  0  0  0  0  0  0  0
    0.4520   -4.8850    1.4720 C   0  0  0  0  0  0  0  0  0  0  0  0
    0.1810   -3.4610    1.0030 C   0  0  0  0  0  0  0  0  0  0  0  0
    0.6620   -3.4890   -0.4230 C   0  0  1  0  0  0  0  0  0  0  0  0
    1.3780   -2.1970   -0.6780 C   0  0  0  0  0  0  0  0  0  0  0  0
    2.6030   -2.1790   -0.9710 O   0  0  0  0  0  0  0  0  0  0  0  0
    1.1640   -5.3590   -1.1940 H   0  0  0  0  0  0  0  0  0  0  0  0
    1.8660   -6.2890    0.6520 H   0  0  0  0  0  0  0  0  0  0  0  0
    2.5830   -4.6960    1.2400 H   0  0  0  0  0  0  0  0  0  0  0  0
    0.5960   -4.9400    2.5650 H   0  0  0  0  0  0  0  0  0  0  0  0
   -0.3630   -5.5280    1.1040 H   0  0  0  0  0  0  0  0  0  0  0  0
    0.7670   -2.7940    1.6530 H   0  0  0  0  0  0  0  0  0  0  0  0
   -0.9020   -3.2820    1.1020 H   0  0  0  0  0  0  0  0  0  0  0  0
   -0.1430   -3.5980   -1.1620 H   0  0  0  0  0  0  0  0  0  0  0  0
    0.6580   -0.9790   -0.5870 N   0  0  0  0  0  0  0  0  0  0  0  0
    1.2490    0.3040   -0.8120 C   0  0  1  0  0  0  0  0  0  0  0  0
    0.6020    1.0050   -2.0100 C   0  0  0  0  0  0  0  0  0  0  0  0
    0.8460   -0.0350   -3.4810 S   0  0  0  0  0  0  0  0  0  0  0  0
    1.1710    1.1890    0.3810 C   0  0  0  0  0  0  0  0  0  0  0  0
    1.6610    2.3440    0.2950 O   0  0  0  0  0  0  0  0  0  0  0  0
   -0.3680   -1.0450   -0.3390 H   0  0  0  0  0  0  0  0  0  0  0  0
    2.3240    0.1870   -1.0600 H   0  0  0  0  0  0  0  0  0  0  0  0
    1.1160    1.9630   -2.2100 H   0  0  0  0  0  0  0  0  0  0  0  0
   -0.4760    1.1330   -1.8710 H   0  0  0  0  0  0  0  0  0  0  0  0
    2.1640   -0.5190   -3.5260 H   0  0  0  0  0  0  0  0  0  0  0  0
    0.5700    0.7850    1.6060 N   0  0  0  0  0  0  0  0  0  0  0  0
    0.4950    1.6480    2.7690 C   0  0  1  0  0  0  0  0  0  0  0  0
   -0.9420    1.8900    3.1690 C   0  0  0  0  0  0  0  0  0  0  0  0
   -1.6770    2.5380    2.0540 C   0  0  0  0  0  0  0  0  0  0  0  0
   -2.3630    1.9130    1.0390 C   0  0  0  0  0  0  0  0  0  0  0  0
   -2.9070    2.8100    0.2050 N   0  0  0  0  0  0  0  0  0  0  0  0
   -2.5640    4.0290    0.6950 C   0  0  0  0  0  0  0  0  0  0  0  0
   -1.8170    3.8710    1.8170 N   0  0  0  0  0  0  0  0  0  0  0  0
    1.2180    1.0020    3.8900 C   0  0  0  0  0  0  0  0  0  0  0  0
    1.2990    1.5490    5.0130 O   0  0  0  0  0  0  0  0  0  0  0  0
    1.8330   -0.2390    3.7320 O   0  0  0  0  0  0  0  0  0  0  0  0
    0.1770   -0.1780    1.6360 H   0  0  0  0  0  0  0  0  0  0  0  0
    0.9580    2.6190    2.5560 H   0  0  0  0  0  0  0  0  0  0  0  0
   -0.9770    2.4990    4.0760 H   0  0  0  0  0  0  0  0  0  0  0  0
   -1.4150    0.9090    3.3750 H   0  0  0  0  0  0  0  0  0  0  0  0
   -2.4470    0.8450    0.9350 H   0  0  0  0  0  0  0  0  0  0  0  0
   -3.4760    2.6260   -0.6430 H   0  0  0  0  0  0  0  0  0  0  0  0
   -2.8720    4.9530    0.2140 H   0  0  0  0  0  0  0  0  0  0  0  0
  1  5  1  0  0  0  0
  1  2  1  0  0  0  0
  2 10  1  0  0  0  0
  2  3  1  0  0  0  0
  3 11  1  0  0  0  0
  4 14  1  0  0  0  0
  4  3  1  0  0  0  0
  4 13  1  0  0  0  0
  5 15  1  6  0  0  0
  5  4  1  0  0  0  0
  6 16  1  0  0  0  0
  6  5  1  0  0  0  0
  7  6  2  0  0  0  0
  8  1  1  0  0  0  0
  9  2  1  0  0  0  0
 12  3  1  0  0  0  0
 16 22  1  0  0  0  0
 17 23  1  6  0  0  0
 17 16  1  0  0  0  0
 17 20  1  0  0  0  0
 18 25  1  0  0  0  0
 18 17  1  0  0  0  0
 19 18  1  0  0  0  0
 20 27  1  0  0  0  0
 21 20  2  0  0  0  0
 24 18  1  0  0  0  0
 26 19  1  0  0  0  0
 27 38  1  0  0  0  0
 27 28  1  0  0  0  0
 28 39  1  6  0  0  0
 28 29  1  0  0  0  0
 28 35  1  0  0  0  0
 29 41  1  0  0  0  0
 29 40  1  0  0  0  0
 30 29  1  0  0  0  0
 31 30  2  0  0  0  0
 32 33  1  0  0  0  0
 32 31  1  0  0  0  0
 33 34  2  0  0  0  0
 34 30  1  0  0  0  0
 35 36  1  0  0  0  0
 37 35  2  0  0  0  0
 42 31  1  0  0  0  0
 43 32  1  0  0  0  0
 44 33  1  0  0  0  0
M  END
$$$$
