PCP.pdb
 OpenBabel07022419033D

 41 42  0  0  1  0  0  0  0  0999 V2000
   -1.0260   -3.9740    2.0620 N   0  0  0  0  0  0  0  0  0  0  0  0
   -2.0170   -4.3770    1.1150 C   0  0  0  0  0  0  0  0  0  0  0  0
   -1.3630   -5.4810    0.2930 C   0  0  0  0  0  0  0  0  0  0  0  0
    0.0860   -5.0530    0.2430 C   0  0  0  0  0  0  0  0  0  0  0  0
    0.2080   -4.0530    1.3550 C   0  0  1  0  0  0  0  0  0  0  0  0
    0.5480   -2.7320    0.7310 C   0  0  0  0  0  0  0  0  0  0  0  0
    1.5990   -2.5820    0.0520 O   0  0  0  0  0  0  0  0  0  0  0  0
   -1.0120   -4.4930    2.9460 H   0  0  0  0  0  0  0  0  0  0  0  0
   -2.3370   -3.5350    0.4740 H   0  0  0  0  0  0  0  0  0  0  0  0
   -2.8600   -4.8430    1.6600 H   0  0  0  0  0  0  0  0  0  0  0  0
   -1.4000   -6.4420    0.8310 H   0  0  0  0  0  0  0  0  0  0  0  0
   -1.8070   -5.5150   -0.7190 H   0  0  0  0  0  0  0  0  0  0  0  0
    0.3220   -4.6100   -0.7570 H   0  0  0  0  0  0  0  0  0  0  0  0
    0.7790   -5.9090    0.3760 H   0  0  0  0  0  0  0  0  0  0  0  0
    1.0690   -4.3520    1.9910 H   0  0  0  0  0  0  0  0  0  0  0  0
   -0.2960   -1.6070    0.8820 N   0  0  0  0  0  0  0  0  0  0  0  0
    0.0760   -0.3150    0.2480 C   0  0  1  0  0  0  0  0  0  0  0  0
   -1.0200   -0.1070   -0.7950 C   0  0  0  0  0  0  0  0  0  0  0  0
   -0.7980    1.4030   -1.7080 S   0  0  0  0  0  0  0  0  0  0  0  0
    0.0720    0.7500    1.2610 C   0  0  0  0  0  0  0  0  0  0  0  0
   -0.6850    0.4960    2.2770 O   0  0  0  0  0  0  0  0  0  0  0  0
   -1.1580   -1.6780    1.4230 H   0  0  0  0  0  0  0  0  0  0  0  0
    1.0120   -0.4050   -0.2860 H   0  0  0  0  0  0  0  0  0  0  0  0
   -0.8790   -0.9650   -1.5180 H   0  0  0  0  0  0  0  0  0  0  0  0
   -2.0270   -0.1680   -0.3320 H   0  0  0  0  0  0  0  0  0  0  0  0
   -0.4190    1.1720   -3.0620 H   0  0  0  0  0  0  0  0  0  0  0  0
    0.7940    1.9660    1.2250 N   0  0  0  0  0  0  0  0  0  0  0  0
    0.5790    2.9470    2.3190 C   0  0  0  0  0  0  0  0  0  0  0  0
    1.7990    3.8340    2.3090 C   0  0  0  0  0  0  0  0  0  0  0  0
    2.2530    3.8120    0.8910 C   0  0  0  0  0  0  0  0  0  0  0  0
    1.7990    2.4650    0.3330 C   0  0  1  0  0  0  0  0  0  0  0  0
    3.0370    1.6180    0.3780 C   0  0  0  0  0  0  0  0  0  0  0  0
    3.0780    0.6420    1.1650 O   0  0  0  0  0  0  0  0  0  0  0  0
    4.1320    1.8830   -0.4230 O   0  0  0  0  0  0  0  0  0  0  0  0
   -0.3280    3.5350    2.1490 H   0  0  0  0  0  0  0  0  0  0  0  0
    0.5480    2.3550    3.2490 H   0  0  0  0  0  0  0  0  0  0  0  0
    2.5650    3.3890    2.9570 H   0  0  0  0  0  0  0  0  0  0  0  0
    1.5700    4.8460    2.6700 H   0  0  0  0  0  0  0  0  0  0  0  0
    3.3490    3.9420    0.7980 H   0  0  0  0  0  0  0  0  0  0  0  0
    1.7690    4.6400    0.2910 H   0  0  0  0  0  0  0  0  0  0  0  0
    1.5110    2.6340   -0.6950 H   0  0  0  0  0  0  0  0  0  0  0  0
  1  8  1  0  0  0  0
  2 10  1  0  0  0  0
  2  1  1  0  0  0  0
  3 11  1  0  0  0  0
  3  2  1  0  0  0  0
  4  3  1  0  0  0  0
  4 14  1  0  0  0  0
  4  5  1  0  0  0  0
  5 15  1  1  0  0  0
  5  1  1  0  0  0  0
  6 16  1  0  0  0  0
  6  5  1  0  0  0  0
  7  6  2  0  0  0  0
  9  2  1  0  0  0  0
 12  3  1  0  0  0  0
 13  4  1  0  0  0  0
 16 22  1  0  0  0  0
 17 23  1  6  0  0  0
 17 16  1  0  0  0  0
 17 20  1  0  0  0  0
 18 25  1  0  0  0  0
 18 17  1  0  0  0  0
 19 18  1  0  0  0  0
 20 21  2  0  0  0  0
 24 18  1  0  0  0  0
 26 19  1  0  0  0  0
 27 20  1  0  0  0  0
 27 28  1  0  0  0  0
 28 36  1  0  0  0  0
 29 28  1  0  0  0  0
 29 38  1  0  0  0  0
 29 37  1  0  0  0  0
 30 29  1  0  0  0  0
 31 41  1  6  0  0  0
 31 32  1  0  0  0  0
 31 30  1  0  0  0  0
 31 27  1  0  0  0  0
 32 33  1  0  0  0  0
 34 32  2  0  0  0  0
 35 28  1  0  0  0  0
 39 30  1  0  0  0  0
 40 30  1  0  0  0  0
M  END
$$$$
