PCQ.pdb
 OpenBabel07022419033D

 44 44  0  0  1  0  0  0  0  0999 V2000
    0.8940   -3.7520    1.0470 N   0  0  0  0  0  0  0  0  0  0  0  0
    1.3400   -5.0780    1.4340 C   0  0  0  0  0  0  0  0  0  0  0  0
    2.8010   -5.0490    1.0670 C   0  0  0  0  0  0  0  0  0  0  0  0
    3.2410   -3.6300    1.2400 C   0  0  0  0  0  0  0  0  0  0  0  0
    1.9300   -2.9080    1.5530 C   0  0  1  0  0  0  0  0  0  0  0  0
    2.0040   -1.6000    0.8570 C   0  0  0  0  0  0  0  0  0  0  0  0
    2.8770   -0.7680    1.2140 O   0  0  0  0  0  0  0  0  0  0  0  0
    0.0220   -3.5690    1.6110 H   0  0  0  0  0  0  0  0  0  0  0  0
    1.2660   -5.2230    2.5320 H   0  0  0  0  0  0  0  0  0  0  0  0
    0.7910   -5.8700    0.8840 H   0  0  0  0  0  0  0  0  0  0  0  0
    2.8710   -5.2960   -0.0230 H   0  0  0  0  0  0  0  0  0  0  0  0
    3.4030   -5.7630    1.6730 H   0  0  0  0  0  0  0  0  0  0  0  0
    3.7040   -3.2080    0.3020 H   0  0  0  0  0  0  0  0  0  0  0  0
    3.9780   -3.4810    2.0400 H   0  0  0  0  0  0  0  0  0  0  0  0
    1.8580   -2.8310    2.6400 H   0  0  0  0  0  0  0  0  0  0  0  0
    1.1390   -1.2260   -0.2000 N   0  0  0  0  0  0  0  0  0  0  0  0
    1.2360    0.0580   -0.8600 C   0  0  1  0  0  0  0  0  0  0  0  0
    1.5200   -0.0960   -2.3390 C   0  0  0  0  0  0  0  0  0  0  0  0
    3.0950   -0.9780   -2.5080 S   0  0  0  0  0  0  0  0  0  0  0  0
   -0.0400    0.8130   -0.6230 C   0  0  0  0  0  0  0  0  0  0  0  0
   -0.1620    1.9550   -1.1180 O   0  0  0  0  0  0  0  0  0  0  0  0
    0.4100   -1.9060   -0.5080 H   0  0  0  0  0  0  0  0  0  0  0  0
    2.0720    0.6090   -0.3850 H   0  0  0  0  0  0  0  0  0  0  0  0
    0.7140   -0.6040   -2.8760 H   0  0  0  0  0  0  0  0  0  0  0  0
    1.6670    0.9040   -2.7940 H   0  0  0  0  0  0  0  0  0  0  0  0
    3.9510   -0.6810   -1.4050 H   0  0  0  0  0  0  0  0  0  0  0  0
   -0.8680    3.8640    4.1920 N   0  0  0  0  0  0  0  0  0  0  0  0
   -1.6860    2.8600    3.5830 C   0  0  0  0  0  0  0  0  0  0  0  0
   -2.6010    2.3280    4.2550 O   0  0  0  0  0  0  0  0  0  0  0  0
   -1.4840    2.4330    2.1810 C   0  0  0  0  0  0  0  0  0  0  0  0
   -2.4770    1.3870    1.8320 C   0  0  0  0  0  0  0  0  0  0  0  0
   -2.3730    0.8700    0.4310 C   0  0  2  0  0  0  0  0  0  0  0  0
   -1.0990    0.2740    0.1380 N   0  0  0  0  0  0  0  0  0  0  0  0
   -2.9810    1.7100   -0.5980 C   0  0  0  0  0  0  0  0  0  0  0  0
   -4.0180    2.3520   -0.3030 O   0  0  0  0  0  0  0  0  0  0  0  0
   -2.4760    1.8210   -1.8550 O   0  0  0  0  0  0  0  0  0  0  0  0
    0.1310    3.8720    3.9400 H   0  0  0  0  0  0  0  0  0  0  0  0
   -1.2940    4.5410    4.8580 H   0  0  0  0  0  0  0  0  0  0  0  0
   -0.4300    2.1110    2.0940 H   0  0  0  0  0  0  0  0  0  0  0  0
   -1.6140    3.3200    1.5120 H   0  0  0  0  0  0  0  0  0  0  0  0
   -3.4880    1.7750    2.0680 H   0  0  0  0  0  0  0  0  0  0  0  0
   -2.3550    0.4900    2.5090 H   0  0  0  0  0  0  0  0  0  0  0  0
   -3.1000   -0.0520    0.4110 H   0  0  0  0  0  0  0  0  0  0  0  0
   -0.8740   -0.7120    0.5270 H   0  0  0  0  0  0  0  0  0  0  0  0
  1  2  1  0  0  0  0
  1  5  1  0  0  0  0
  1  8  1  0  0  0  0
  2  9  1  0  0  0  0
  3  4  1  0  0  0  0
  3  2  1  0  0  0  0
  3 12  1  0  0  0  0
  4  5  1  0  0  0  0
  4 14  1  0  0  0  0
  5 15  1  1  0  0  0
  6  7  2  0  0  0  0
  6  5  1  0  0  0  0
 10  2  1  0  0  0  0
 11  3  1  0  0  0  0
 13  4  1  0  0  0  0
 16  6  1  0  0  0  0
 17 20  1  0  0  0  0
 17 23  1  1  0  0  0
 17 16  1  0  0  0  0
 18 17  1  0  0  0  0
 19 18  1  0  0  0  0
 19 26  1  0  0  0  0
 20 33  1  0  0  0  0
 21 20  2  0  0  0  0
 22 16  1  0  0  0  0
 24 18  1  0  0  0  0
 25 18  1  0  0  0  0
 27 38  1  0  0  0  0
 28 27  1  0  0  0  0
 28 29  2  0  0  0  0
 30 28  1  0  0  0  0
 31 41  1  0  0  0  0
 31 30  1  0  0  0  0
 31 42  1  0  0  0  0
 32 43  1  1  0  0  0
 32 31  1  0  0  0  0
 33 32  1  0  0  0  0
 33 44  1  0  0  0  0
 34 35  1  0  0  0  0
 34 32  1  0  0  0  0
 36 34  2  0  0  0  0
 37 27  1  0  0  0  0
 39 30  1  0  0  0  0
 40 30  1  0  0  0  0
M  END
$$$$
