PCR.pdb
 OpenBabel07022419033D

 50 50  0  0  1  0  0  0  0  0999 V2000
    0.7170   -3.3510    1.3160 N   0  0  0  0  0  0  0  0  0  0  0  0
    0.6220   -4.7570    1.1340 C   0  0  0  0  0  0  0  0  0  0  0  0
    1.5280   -5.1190   -0.0190 C   0  0  0  0  0  0  0  0  0  0  0  0
    2.4510   -3.9580   -0.1820 C   0  0  0  0  0  0  0  0  0  0  0  0
    1.7380   -2.8050    0.4580 C   0  0  1  0  0  0  0  0  0  0  0  0
    1.0840   -1.9260   -0.5990 C   0  0  0  0  0  0  0  0  0  0  0  0
    1.8040   -1.3340   -1.4500 O   0  0  0  0  0  0  0  0  0  0  0  0
    0.7120   -3.0170    2.2800 H   0  0  0  0  0  0  0  0  0  0  0  0
    0.9010   -5.3120    2.0530 H   0  0  0  0  0  0  0  0  0  0  0  0
   -0.4450   -4.9950    0.8630 H   0  0  0  0  0  0  0  0  0  0  0  0
    2.1280   -6.0450    0.2110 H   0  0  0  0  0  0  0  0  0  0  0  0
    0.9400   -5.3780   -0.9270 H   0  0  0  0  0  0  0  0  0  0  0  0
    2.7100   -3.7610   -1.2600 H   0  0  0  0  0  0  0  0  0  0  0  0
    3.4170   -4.1770    0.3450 H   0  0  0  0  0  0  0  0  0  0  0  0
    2.4280   -2.2100    1.0440 H   0  0  0  0  0  0  0  0  0  0  0  0
   -0.3090   -1.7930   -0.6120 N   0  0  0  0  0  0  0  0  0  0  0  0
   -1.0980   -1.0340   -1.5270 C   0  0  1  0  0  0  0  0  0  0  0  0
   -1.9800   -1.9140   -2.4180 C   0  0  0  0  0  0  0  0  0  0  0  0
   -2.9090   -0.8410   -3.5300 S   0  0  0  0  0  0  0  0  0  0  0  0
   -1.9480    0.0100   -0.8480 C   0  0  0  0  0  0  0  0  0  0  0  0
   -2.9690    0.4200   -1.4060 O   0  0  0  0  0  0  0  0  0  0  0  0
   -0.8230   -2.3450    0.1790 H   0  0  0  0  0  0  0  0  0  0  0  0
   -0.4230   -0.4890   -2.2100 H   0  0  0  0  0  0  0  0  0  0  0  0
   -2.6940   -2.5280   -1.8380 H   0  0  0  0  0  0  0  0  0  0  0  0
   -1.2690   -2.5290   -3.0080 H   0  0  0  0  0  0  0  0  0  0  0  0
   -2.1090   -0.3890   -4.5940 H   0  0  0  0  0  0  0  0  0  0  0  0
    3.5010    1.9720    1.3420 N   0  0  0  0  0  0  0  0  0  0  0  0
    2.7140    1.0810    2.1630 C   0  0  0  0  0  0  0  0  0  0  0  0
    3.2310   -0.0340    2.5890 N   0  0  0  0  0  0  0  0  0  0  0  0
    1.4110    1.4810    2.4790 N   0  0  0  0  0  0  0  0  0  0  0  0
    0.4190    0.5760    3.1110 C   0  0  0  0  0  0  0  0  0  0  0  0
   -0.7860    1.3770    3.4110 C   0  0  0  0  0  0  0  0  0  0  0  0
   -1.4880    2.1030    2.3330 C   0  0  0  0  0  0  0  0  0  0  0  0
   -2.1930    1.4590    1.2660 C   0  0  2  0  0  0  0  0  0  0  0  0
   -1.6280    0.5400    0.3980 N   0  0  0  0  0  0  0  0  0  0  0  0
   -2.6520    2.6340    0.3510 C   0  0  0  0  0  0  0  0  0  0  0  0
   -2.6060    2.7320   -0.8500 O   0  0  0  0  0  0  0  0  0  0  0  0
   -3.1990    3.7500    1.0580 O   0  0  0  0  0  0  0  0  0  0  0  0
    3.5510    2.9620    1.6040 H   0  0  0  0  0  0  0  0  0  0  0  0
    3.9950    1.6210    0.5040 H   0  0  0  0  0  0  0  0  0  0  0  0
    4.1850   -0.3530    2.3870 H   0  0  0  0  0  0  0  0  0  0  0  0
    1.1260    2.4850    2.2490 H   0  0  0  0  0  0  0  0  0  0  0  0
    0.9390    0.3990    4.1330 H   0  0  0  0  0  0  0  0  0  0  0  0
    0.3660   -0.3940    2.6840 H   0  0  0  0  0  0  0  0  0  0  0  0
   -0.5020    2.0720    4.2620 H   0  0  0  0  0  0  0  0  0  0  0  0
   -1.5490    0.6830    3.9180 H   0  0  0  0  0  0  0  0  0  0  0  0
   -0.7830    2.9360    2.0240 H   0  0  0  0  0  0  0  0  0  0  0  0
   -2.2400    2.7520    2.9140 H   0  0  0  0  0  0  0  0  0  0  0  0
   -3.2140    1.1130    1.5660 H   0  0  0  0  0  0  0  0  0  0  0  0
   -0.6940    0.1200    0.7860 H   0  0  0  0  0  0  0  0  0  0  0  0
  1  8  1  0  0  0  0
  2  1  1  0  0  0  0
  2  9  1  0  0  0  0
  3 11  1  0  0  0  0
  3  2  1  0  0  0  0
  4  3  1  0  0  0  0
  4 14  1  0  0  0  0
  4  5  1  0  0  0  0
  5 15  1  1  0  0  0
  5  1  1  0  0  0  0
  6  5  1  0  0  0  0
  7  6  2  0  0  0  0
 10  2  1  0  0  0  0
 12  3  1  0  0  0  0
 13  4  1  0  0  0  0
 16  6  1  0  0  0  0
 16 22  1  0  0  0  0
 17 23  1  6  0  0  0
 17 20  1  0  0  0  0
 17 16  1  0  0  0  0
 18 24  1  0  0  0  0
 18 17  1  0  0  0  0
 19 18  1  0  0  0  0
 20 35  1  0  0  0  0
 21 20  2  0  0  0  0
 25 18  1  0  0  0  0
 26 19  1  0  0  0  0
 27 39  1  0  0  0  0
 27 28  1  0  0  0  0
 28 30  1  0  0  0  0
 28 29  2  0  0  0  0
 30 31  1  0  0  0  0
 31 32  1  0  0  0  0
 31 43  1  0  0  0  0
 32 46  1  0  0  0  0
 32 45  1  0  0  0  0
 33 48  1  0  0  0  0
 33 32  1  0  0  0  0
 34 49  1  1  0  0  0
 34 33  1  0  0  0  0
 35 50  1  0  0  0  0
 35 34  1  0  0  0  0
 36 38  1  0  0  0  0
 36 34  1  0  0  0  0
 37 36  2  0  0  0  0
 40 27  1  0  0  0  0
 41 29  1  0  0  0  0
 42 30  1  0  0  0  0
 44 31  1  0  0  0  0
 47 33  1  0  0  0  0
M  END
$$$$
