PCS.pdb
 OpenBabel07022419033D

 38 38  0  0  1  0  0  0  0  0999 V2000
   -1.0700   -2.7640    0.9400 N   0  0  0  0  0  0  0  0  0  0  0  0
   -1.9490   -3.9060    0.8190 C   0  0  0  0  0  0  0  0  0  0  0  0
   -1.1700   -5.0230    0.2080 C   0  0  0  0  0  0  0  0  0  0  0  0
    0.1740   -4.4530   -0.1640 C   0  0  0  0  0  0  0  0  0  0  0  0
    0.2760   -3.2500    0.7400 C   0  0  1  0  0  0  0  0  0  0  0  0
    1.0970   -2.1610    0.1510 C   0  0  0  0  0  0  0  0  0  0  0  0
    2.3210   -2.3460   -0.1180 O   0  0  0  0  0  0  0  0  0  0  0  0
   -1.1160   -2.3330    1.8800 H   0  0  0  0  0  0  0  0  0  0  0  0
   -2.2630   -4.2050    1.8620 H   0  0  0  0  0  0  0  0  0  0  0  0
   -2.8550   -3.6180    0.2470 H   0  0  0  0  0  0  0  0  0  0  0  0
   -1.0760   -5.9120    0.8720 H   0  0  0  0  0  0  0  0  0  0  0  0
   -1.7110   -5.3650   -0.7100 H   0  0  0  0  0  0  0  0  0  0  0  0
    0.1860   -4.1410   -1.2400 H   0  0  0  0  0  0  0  0  0  0  0  0
    0.9730   -5.1740    0.0400 H   0  0  0  0  0  0  0  0  0  0  0  0
    0.7420   -3.5600    1.6950 H   0  0  0  0  0  0  0  0  0  0  0  0
    0.5670   -0.8820   -0.1370 N   0  0  0  0  0  0  0  0  0  0  0  0
    1.3930    0.1520   -0.7100 C   0  0  1  0  0  0  0  0  0  0  0  0
    0.8360    0.4940   -2.0720 C   0  0  0  0  0  0  0  0  0  0  0  0
    1.8130    1.7960   -2.8800 S   0  0  0  0  0  0  0  0  0  0  0  0
    1.4510    1.3470    0.1790 C   0  0  0  0  0  0  0  0  0  0  0  0
    2.1320    2.3450   -0.1720 O   0  0  0  0  0  0  0  0  0  0  0  0
   -0.4270   -0.6660    0.0590 H   0  0  0  0  0  0  0  0  0  0  0  0
    2.4050   -0.2320   -0.8540 H   0  0  0  0  0  0  0  0  0  0  0  0
   -0.2390    0.7460   -2.0350 H   0  0  0  0  0  0  0  0  0  0  0  0
    0.9390   -0.4170   -2.6980 H   0  0  0  0  0  0  0  0  0  0  0  0
    0.9850    2.4720   -3.7970 H   0  0  0  0  0  0  0  0  0  0  0  0
   -1.4330    2.3030    3.0870 O   0  0  0  0  0  0  0  0  0  0  0  0
   -0.5460    3.1840    2.5010 C   0  0  0  0  0  0  0  0  0  0  0  0
    0.8250    2.5890    2.2890 C   0  0  2  0  0  0  0  0  0  0  0  0
    0.7670    1.4170    1.4200 N   0  0  0  0  0  0  0  0  0  0  0  0
    1.4350    2.1560    3.5740 C   0  0  0  0  0  0  0  0  0  0  0  0
    1.8040    0.9810    3.7940 O   0  0  0  0  0  0  0  0  0  0  0  0
    1.6020    3.0940    4.5750 O   0  0  0  0  0  0  0  0  0  0  0  0
   -2.2920    2.2590    2.6010 H   0  0  0  0  0  0  0  0  0  0  0  0
   -0.9240    3.5470    1.5380 H   0  0  0  0  0  0  0  0  0  0  0  0
   -0.4120    4.0630    3.1650 H   0  0  0  0  0  0  0  0  0  0  0  0
    1.4610    3.3840    1.8480 H   0  0  0  0  0  0  0  0  0  0  0  0
    0.2060    0.5820    1.6980 H   0  0  0  0  0  0  0  0  0  0  0  0
  1  8  1  0  0  0  0
  2  1  1  0  0  0  0
  2  9  1  0  0  0  0
  3  2  1  0  0  0  0
  3 11  1  0  0  0  0
  4 14  1  0  0  0  0
  4  3  1  0  0  0  0
  4  5  1  0  0  0  0
  5  1  1  0  0  0  0
  5 15  1  1  0  0  0
  6  5  1  0  0  0  0
  7  6  2  0  0  0  0
 10  2  1  0  0  0  0
 12  3  1  0  0  0  0
 13  4  1  0  0  0  0
 16 22  1  0  0  0  0
 16  6  1  0  0  0  0
 17 23  1  6  0  0  0
 17 16  1  0  0  0  0
 17 20  1  0  0  0  0
 18 24  1  0  0  0  0
 18 17  1  0  0  0  0
 19 18  1  0  0  0  0
 20 30  1  0  0  0  0
 21 20  2  0  0  0  0
 25 18  1  0  0  0  0
 26 19  1  0  0  0  0
 28 27  1  0  0  0  0
 28 36  1  0  0  0  0
 29 37  1  6  0  0  0
 29 28  1  0  0  0  0
 29 31  1  0  0  0  0
 30 38  1  0  0  0  0
 30 29  1  0  0  0  0
 31 32  2  0  0  0  0
 31 33  1  0  0  0  0
 34 27  1  0  0  0  0
 35 28  1  0  0  0  0
M  END
$$$$
