PCT.pdb
 OpenBabel07022419033D

 41 41  0  0  1  0  0  0  0  0999 V2000
    0.2400   -3.2780    2.1580 N   0  0  0  0  0  0  0  0  0  0  0  0
   -1.0530   -3.8620    2.0050 C   0  0  0  0  0  0  0  0  0  0  0  0
   -0.7030   -5.1840    1.3140 C   0  0  0  0  0  0  0  0  0  0  0  0
    0.4720   -4.8600    0.4390 C   0  0  0  0  0  0  0  0  0  0  0  0
    0.9230   -3.5140    0.9400 C   0  0  1  0  0  0  0  0  0  0  0  0
    0.6740   -2.5190   -0.1330 C   0  0  0  0  0  0  0  0  0  0  0  0
    1.2340   -2.7330   -1.2400 O   0  0  0  0  0  0  0  0  0  0  0  0
    0.2440   -2.3080    2.4800 H   0  0  0  0  0  0  0  0  0  0  0  0
   -1.6590   -3.2340    1.3270 H   0  0  0  0  0  0  0  0  0  0  0  0
   -1.5600   -4.0430    2.9740 H   0  0  0  0  0  0  0  0  0  0  0  0
   -0.3820   -5.9170    2.0620 H   0  0  0  0  0  0  0  0  0  0  0  0
   -1.5580   -5.5470    0.7200 H   0  0  0  0  0  0  0  0  0  0  0  0
    0.1640   -4.7960   -0.6370 H   0  0  0  0  0  0  0  0  0  0  0  0
    1.2820   -5.6290    0.5350 H   0  0  0  0  0  0  0  0  0  0  0  0
    2.0440   -3.5890    1.0950 H   0  0  0  0  0  0  0  0  0  0  0  0
   -0.1290   -1.3620   -0.0200 N   0  0  0  0  0  0  0  0  0  0  0  0
   -0.3160   -0.4480   -1.1210 C   0  0  1  0  0  0  0  0  0  0  0  0
   -1.7420   -0.3380   -1.5680 C   0  0  0  0  0  0  0  0  0  0  0  0
   -1.7780    0.8500   -2.9540 S   0  0  0  0  0  0  0  0  0  0  0  0
    0.2560    0.8780   -0.7630 C   0  0  0  0  0  0  0  0  0  0  0  0
    0.2030    1.8350   -1.5850 O   0  0  0  0  0  0  0  0  0  0  0  0
   -0.5900   -1.1680    0.8850 H   0  0  0  0  0  0  0  0  0  0  0  0
    0.2620   -0.8160   -2.0180 H   0  0  0  0  0  0  0  0  0  0  0  0
   -2.0180   -1.3310   -2.0270 H   0  0  0  0  0  0  0  0  0  0  0  0
   -2.4470   -0.0470   -0.7890 H   0  0  0  0  0  0  0  0  0  0  0  0
   -0.5690    0.8170   -3.6830 H   0  0  0  0  0  0  0  0  0  0  0  0
    1.0040    1.8860    3.2360 C   0  0  0  0  0  0  0  0  0  0  0  0
    0.7170    2.8620    2.1160 C   0  0  1  0  0  0  0  0  0  0  0  0
    1.2140    4.1100    2.5040 O   0  0  0  0  0  0  0  0  0  0  0  0
    1.4350    2.4090    0.8540 C   0  0  2  0  0  0  0  0  0  0  0  0
    0.8720    1.1030    0.5020 N   0  0  0  0  0  0  0  0  0  0  0  0
    2.8830    2.2550    1.1520 C   0  0  0  0  0  0  0  0  0  0  0  0
    3.4260    1.1040    1.0740 O   0  0  0  0  0  0  0  0  0  0  0  0
    3.6560    3.3260    1.5110 O   0  0  0  0  0  0  0  0  0  0  0  0
    1.6880    1.0790    2.8750 H   0  0  0  0  0  0  0  0  0  0  0  0
    1.5330    2.3840    4.0880 H   0  0  0  0  0  0  0  0  0  0  0  0
    0.0640    1.4570    3.6530 H   0  0  0  0  0  0  0  0  0  0  0  0
   -0.3700    2.8760    1.9520 H   0  0  0  0  0  0  0  0  0  0  0  0
    1.4170    4.6640    1.7250 H   0  0  0  0  0  0  0  0  0  0  0  0
    1.3110    3.1320    0.0360 H   0  0  0  0  0  0  0  0  0  0  0  0
    0.9030    0.2980    1.1620 H   0  0  0  0  0  0  0  0  0  0  0  0
  1  8  1  0  0  0  0
  2  1  1  0  0  0  0
  2 10  1  0  0  0  0
  3  2  1  0  0  0  0
  3 11  1  0  0  0  0
  4 14  1  0  0  0  0
  4  5  1  0  0  0  0
  4  3  1  0  0  0  0
  5 15  1  1  0  0  0
  5  1  1  0  0  0  0
  6 16  1  0  0  0  0
  6  5  1  0  0  0  0
  7  6  2  0  0  0  0
  9  2  1  0  0  0  0
 12  3  1  0  0  0  0
 13  4  1  0  0  0  0
 16 22  1  0  0  0  0
 17 23  1  6  0  0  0
 17 20  1  0  0  0  0
 17 16  1  0  0  0  0
 18 17  1  0  0  0  0
 18 25  1  0  0  0  0
 19 18  1  0  0  0  0
 20 31  1  0  0  0  0
 21 20  2  0  0  0  0
 24 18  1  0  0  0  0
 26 19  1  0  0  0  0
 27 37  1  0  0  0  0
 27 36  1  0  0  0  0
 28 38  1  6  0  0  0
 28 29  1  0  0  0  0
 28 27  1  0  0  0  0
 30 40  1  6  0  0  0
 30 32  1  0  0  0  0
 30 28  1  0  0  0  0
 31 30  1  0  0  0  0
 31 41  1  0  0  0  0
 32 34  1  0  0  0  0
 33 32  2  0  0  0  0
 35 27  1  0  0  0  0
 39 29  1  0  0  0  0
M  END
$$$$
