PDC.pdb
 OpenBabel07022419033D

 40 40  0  0  1  0  0  0  0  0999 V2000
    0.8100   -3.0360    1.1160 N   0  0  0  0  0  0  0  0  0  0  0  0
    1.0390   -4.4430    1.4530 C   0  0  0  0  0  0  0  0  0  0  0  0
    2.2920   -4.7100    0.6280 C   0  0  0  0  0  0  0  0  0  0  0  0
    3.1080   -3.4260    0.7430 C   0  0  0  0  0  0  0  0  0  0  0  0
    2.1280   -2.4540    1.2860 C   0  0  1  0  0  0  0  0  0  0  0  0
    2.1500   -1.1070    0.7160 C   0  0  0  0  0  0  0  0  0  0  0  0
    3.1810   -0.3750    0.6830 O   0  0  0  0  0  0  0  0  0  0  0  0
    0.6450   -3.0110    0.0630 H   0  0  0  0  0  0  0  0  0  0  0  0
    0.1680   -5.0050    1.1020 H   0  0  0  0  0  0  0  0  0  0  0  0
    1.2330   -4.5080    2.5320 H   0  0  0  0  0  0  0  0  0  0  0  0
    1.9760   -4.8450   -0.4220 H   0  0  0  0  0  0  0  0  0  0  0  0
    2.7970   -5.5710    1.0670 H   0  0  0  0  0  0  0  0  0  0  0  0
    3.5680   -3.1420   -0.2160 H   0  0  0  0  0  0  0  0  0  0  0  0
    3.9250   -3.6660    1.4760 H   0  0  0  0  0  0  0  0  0  0  0  0
    2.3330   -2.3480    2.3930 H   0  0  0  0  0  0  0  0  0  0  0  0
    0.9910   -0.5590    0.1670 N   0  0  0  0  0  0  0  0  0  0  0  0
    0.9040    0.7760   -0.4280 C   0  0  1  0  0  0  0  0  0  0  0  0
    0.3480    0.7310   -1.8000 C   0  0  0  0  0  0  0  0  0  0  0  0
    0.3150    2.0660   -2.4150 C   0  0  0  0  0  0  0  0  0  0  0  0
    0.8140    3.1060   -1.9280 O   0  0  0  0  0  0  0  0  0  0  0  0
   -0.0310    1.5140    0.4560 C   0  0  0  0  0  0  0  0  0  0  0  0
   -0.3610    2.6850    0.2220 O   0  0  0  0  0  0  0  0  0  0  0  0
   -0.3150    2.2780   -3.6670 O   0  0  0  0  0  0  0  0  0  0  0  0
    0.1000   -1.0930    0.1560 H   0  0  0  0  0  0  0  0  0  0  0  0
    1.9200    1.2000   -0.3980 H   0  0  0  0  0  0  0  0  0  0  0  0
   -0.6890    0.3350   -1.8560 H   0  0  0  0  0  0  0  0  0  0  0  0
    1.0350    0.1150   -2.4480 H   0  0  0  0  0  0  0  0  0  0  0  0
    0.0030    3.0370   -4.2780 H   0  0  0  0  0  0  0  0  0  0  0  0
   -0.5680    0.8740    1.6010 N   0  0  0  0  0  0  0  0  0  0  0  0
   -1.4920    1.5440    2.5070 C   0  0  1  0  0  0  0  0  0  0  0  0
   -2.7660    0.7560    2.5000 C   0  0  0  0  0  0  0  0  0  0  0  0
   -3.4980    0.6660    0.8530 S   0  0  0  0  0  0  0  0  0  0  0  0
   -0.9340    1.6510    3.8590 C   0  0  0  0  0  0  0  0  0  0  0  0
    0.2100    1.1880    4.0870 O   0  0  0  0  0  0  0  0  0  0  0  0
   -1.6150    2.2450    4.9070 O   0  0  0  0  0  0  0  0  0  0  0  0
   -0.3400   -0.1110    1.8720 H   0  0  0  0  0  0  0  0  0  0  0  0
   -1.6770    2.5490    2.0870 H   0  0  0  0  0  0  0  0  0  0  0  0
   -2.5790   -0.2890    2.8460 H   0  0  0  0  0  0  0  0  0  0  0  0
   -3.5380    1.2130    3.1750 H   0  0  0  0  0  0  0  0  0  0  0  0
   -2.7420   -0.1800   -0.0000 H   0  0  0  0  0  0  0  0  0  0  0  0
  1  5  1  0  0  0  0
  1  2  1  0  0  0  0
  2 10  1  0  0  0  0
  3  4  1  0  0  0  0
  3 12  1  0  0  0  0
  3  2  1  0  0  0  0
  4  5  1  0  0  0  0
  4 14  1  0  0  0  0
  5 15  1  1  0  0  0
  6  5  1  0  0  0  0
  7  6  2  0  0  0  0
  8  1  1  0  0  0  0
  9  2  1  0  0  0  0
 11  3  1  0  0  0  0
 13  4  1  0  0  0  0
 16  6  1  0  0  0  0
 17 25  1  6  0  0  0
 17 16  1  0  0  0  0
 17 21  1  0  0  0  0
 18 17  1  0  0  0  0
 19 20  2  0  0  0  0
 19 18  1  0  0  0  0
 21 29  1  0  0  0  0
 22 21  2  0  0  0  0
 23 19  1  0  0  0  0
 24 16  1  0  0  0  0
 26 18  1  0  0  0  0
 27 18  1  0  0  0  0
 28 23  1  0  0  0  0
 29 36  1  0  0  0  0
 29 30  1  0  0  0  0
 30 37  1  6  0  0  0
 30 33  1  0  0  0  0
 31 30  1  0  0  0  0
 31 38  1  0  0  0  0
 31 39  1  0  0  0  0
 32 31  1  0  0  0  0
 33 34  2  0  0  0  0
 33 35  1  0  0  0  0
 40 32  1  0  0  0  0
M  END
$$$$
