PDD.pdb
 OpenBabel07022419033D

 42 42  0  0  1  0  0  0  0  0999 V2000
   -1.4770   -3.9190    0.6300 N   0  0  0  0  0  0  0  0  0  0  0  0
   -2.1890   -5.1430    0.2200 C   0  0  0  0  0  0  0  0  0  0  0  0
   -3.3640   -4.6580   -0.5960 C   0  0  0  0  0  0  0  0  0  0  0  0
   -3.0570   -3.2290   -0.8970 C   0  0  0  0  0  0  0  0  0  0  0  0
   -1.6000   -3.1110   -0.5320 C   0  0  1  0  0  0  0  0  0  0  0  0
   -1.1650   -1.7130   -0.3550 C   0  0  0  0  0  0  0  0  0  0  0  0
   -1.2530   -0.9400   -1.3430 O   0  0  0  0  0  0  0  0  0  0  0  0
   -0.4880   -4.2590    0.8160 H   0  0  0  0  0  0  0  0  0  0  0  0
   -1.5430   -5.7650   -0.4440 H   0  0  0  0  0  0  0  0  0  0  0  0
   -2.5680   -5.7150    1.0680 H   0  0  0  0  0  0  0  0  0  0  0  0
   -3.4750   -5.2040   -1.5650 H   0  0  0  0  0  0  0  0  0  0  0  0
   -4.3220   -4.7060   -0.0380 H   0  0  0  0  0  0  0  0  0  0  0  0
   -3.6220   -2.5380   -0.2250 H   0  0  0  0  0  0  0  0  0  0  0  0
   -3.2310   -2.9670   -1.9710 H   0  0  0  0  0  0  0  0  0  0  0  0
   -0.9970   -3.5800   -1.3520 H   0  0  0  0  0  0  0  0  0  0  0  0
   -0.6510   -1.1740    0.8530 N   0  0  0  0  0  0  0  0  0  0  0  0
   -0.2290    0.2410    0.9610 C   0  0  1  0  0  0  0  0  0  0  0  0
   -1.1980    0.9430    1.9110 C   0  0  0  0  0  0  0  0  0  0  0  0
   -0.8620    2.3620    2.0920 C   0  0  0  0  0  0  0  0  0  0  0  0
   -0.2230    2.7530    3.1120 O   0  0  0  0  0  0  0  0  0  0  0  0
    1.1680    0.3120    1.4350 C   0  0  0  0  0  0  0  0  0  0  0  0
    1.7020   -0.7680    1.8290 O   0  0  0  0  0  0  0  0  0  0  0  0
   -1.2260    3.3300    1.1650 O   0  0  0  0  0  0  0  0  0  0  0  0
   -0.5850   -1.8260    1.6590 H   0  0  0  0  0  0  0  0  0  0  0  0
   -0.4020    0.6800   -0.0350 H   0  0  0  0  0  0  0  0  0  0  0  0
   -2.2310    0.8610    1.5260 H   0  0  0  0  0  0  0  0  0  0  0  0
   -1.1600    0.4440    2.9170 H   0  0  0  0  0  0  0  0  0  0  0  0
   -0.8090    4.2520    1.1510 H   0  0  0  0  0  0  0  0  0  0  0  0
    1.9780    1.4640    1.4910 N   0  0  0  0  0  0  0  0  0  0  0  0
    3.3480    1.4470    1.9750 C   0  0  1  0  0  0  0  0  0  0  0  0
    4.2330    1.6690    0.7370 C   0  0  0  0  0  0  0  0  0  0  0  0
    4.0100    0.5880   -0.2560 C   0  0  0  0  0  0  0  0  0  0  0  0
    3.0750    0.5810   -1.0990 O   0  0  0  0  0  0  0  0  0  0  0  0
    3.6660    2.5070    2.9330 C   0  0  0  0  0  0  0  0  0  0  0  0
    2.7960    3.3360    3.2750 O   0  0  0  0  0  0  0  0  0  0  0  0
    4.8880   -0.4840   -0.2560 O   0  0  0  0  0  0  0  0  0  0  0  0
    4.9300    2.6100    3.4780 O   0  0  0  0  0  0  0  0  0  0  0  0
    1.5600    2.3550    1.1540 H   0  0  0  0  0  0  0  0  0  0  0  0
    3.6470    0.4650    2.3660 H   0  0  0  0  0  0  0  0  0  0  0  0
    3.8670    2.6280    0.2710 H   0  0  0  0  0  0  0  0  0  0  0  0
    5.2950    1.7620    1.0150 H   0  0  0  0  0  0  0  0  0  0  0  0
    4.6250   -1.4290   -0.5190 H   0  0  0  0  0  0  0  0  0  0  0  0
  1  8  1  0  0  0  0
  2  1  1  0  0  0  0
  2 10  1  0  0  0  0
  3 12  1  0  0  0  0
  3  2  1  0  0  0  0
  4  3  1  0  0  0  0
  4  5  1  0  0  0  0
  4 13  1  0  0  0  0
  5 15  1  6  0  0  0
  5  6  1  0  0  0  0
  5  1  1  0  0  0  0
  6 16  1  0  0  0  0
  7  6  2  0  0  0  0
  9  2  1  0  0  0  0
 11  3  1  0  0  0  0
 14  4  1  0  0  0  0
 16 17  1  0  0  0  0
 16 24  1  0  0  0  0
 17 25  1  6  0  0  0
 17 21  1  0  0  0  0
 17 18  1  0  0  0  0
 18 19  1  0  0  0  0
 18 27  1  0  0  0  0
 19 20  2  0  0  0  0
 21 29  1  0  0  0  0
 21 22  2  0  0  0  0
 23 19  1  0  0  0  0
 26 18  1  0  0  0  0
 28 23  1  0  0  0  0
 29 30  1  0  0  0  0
 30 39  1  1  0  0  0
 30 34  1  0  0  0  0
 31 41  1  0  0  0  0
 31 30  1  0  0  0  0
 32 31  1  0  0  0  0
 33 32  2  0  0  0  0
 34 35  2  0  0  0  0
 34 37  1  0  0  0  0
 36 32  1  0  0  0  0
 38 29  1  0  0  0  0
 40 31  1  0  0  0  0
 42 36  1  0  0  0  0
M  END
$$$$
