PDE.pdb
 OpenBabel07022419033D

 45 45  0  0  1  0  0  0  0  0999 V2000
    1.7800   -3.2050    0.3530 N   0  0  0  0  0  0  0  0  0  0  0  0
    2.3140   -4.5410    0.1690 C   0  0  0  0  0  0  0  0  0  0  0  0
    3.7870   -4.4260   -0.0510 C   0  0  0  0  0  0  0  0  0  0  0  0
    4.0040   -2.9130   -0.0640 C   0  0  0  0  0  0  0  0  0  0  0  0
    2.9150   -2.4820    0.8940 C   0  0  1  0  0  0  0  0  0  0  0  0
    2.7020   -1.0150    0.8630 C   0  0  0  0  0  0  0  0  0  0  0  0
    3.6010   -0.2450    1.2900 O   0  0  0  0  0  0  0  0  0  0  0  0
    1.6130   -2.8290   -0.6090 H   0  0  0  0  0  0  0  0  0  0  0  0
    2.0620   -5.1100    1.1000 H   0  0  0  0  0  0  0  0  0  0  0  0
    1.8270   -5.0650   -0.6790 H   0  0  0  0  0  0  0  0  0  0  0  0
    4.3200   -4.7920    0.8610 H   0  0  0  0  0  0  0  0  0  0  0  0
    4.1520   -4.9060   -0.9750 H   0  0  0  0  0  0  0  0  0  0  0  0
    3.8280   -2.5050   -1.0700 H   0  0  0  0  0  0  0  0  0  0  0  0
    5.0190   -2.6760    0.3210 H   0  0  0  0  0  0  0  0  0  0  0  0
    3.1970   -2.8500    1.9040 H   0  0  0  0  0  0  0  0  0  0  0  0
    1.5190   -0.4090    0.3710 N   0  0  0  0  0  0  0  0  0  0  0  0
    1.3000    1.0340    0.3370 C   0  0  1  0  0  0  0  0  0  0  0  0
    1.0520    1.3810   -1.1150 C   0  0  0  0  0  0  0  0  0  0  0  0
    0.8090    2.8000   -1.3710 C   0  0  0  0  0  0  0  0  0  0  0  0
   -0.2970    3.3970   -1.2050 O   0  0  0  0  0  0  0  0  0  0  0  0
    0.1190    1.4010    1.1710 C   0  0  0  0  0  0  0  0  0  0  0  0
   -0.2520    2.5940    1.2930 O   0  0  0  0  0  0  0  0  0  0  0  0
    1.8490    3.6250   -1.8400 O   0  0  0  0  0  0  0  0  0  0  0  0
    0.7660   -1.0350    0.0140 H   0  0  0  0  0  0  0  0  0  0  0  0
    2.2170    1.5250    0.7180 H   0  0  0  0  0  0  0  0  0  0  0  0
    1.9360    1.0770   -1.7320 H   0  0  0  0  0  0  0  0  0  0  0  0
    0.1670    0.8160   -1.5030 H   0  0  0  0  0  0  0  0  0  0  0  0
    1.7700    4.6410   -1.7340 H   0  0  0  0  0  0  0  0  0  0  0  0
   -0.6070    0.3870    1.8440 N   0  0  0  0  0  0  0  0  0  0  0  0
   -1.7620    0.6830    2.6700 C   0  0  1  0  0  0  0  0  0  0  0  0
   -3.0140    0.0390    2.1670 C   0  0  0  0  0  0  0  0  0  0  0  0
   -3.3490    0.5060    0.7690 C   0  0  0  0  0  0  0  0  0  0  0  0
   -4.5940   -0.1470    0.2940 C   0  0  0  0  0  0  0  0  0  0  0  0
   -5.1770   -0.9540    1.0600 O   0  0  0  0  0  0  0  0  0  0  0  0
   -1.5000    0.3730    4.1000 C   0  0  0  0  0  0  0  0  0  0  0  0
   -0.3940   -0.0880    4.4930 O   0  0  0  0  0  0  0  0  0  0  0  0
   -5.1570    0.0740   -0.9390 O   0  0  0  0  0  0  0  0  0  0  0  0
   -2.5310    0.6140    4.9900 O   0  0  0  0  0  0  0  0  0  0  0  0
   -0.2640   -0.6110    1.7150 H   0  0  0  0  0  0  0  0  0  0  0  0
   -1.9140    1.7870    2.6290 H   0  0  0  0  0  0  0  0  0  0  0  0
   -3.8220    0.2670    2.8850 H   0  0  0  0  0  0  0  0  0  0  0  0
   -2.8350   -1.0650    2.0990 H   0  0  0  0  0  0  0  0  0  0  0  0
   -2.5100    0.3270    0.0640 H   0  0  0  0  0  0  0  0  0  0  0  0
   -3.5410    1.6110    0.7460 H   0  0  0  0  0  0  0  0  0  0  0  0
   -5.7930   -0.6050   -1.3870 H   0  0  0  0  0  0  0  0  0  0  0  0
  1  5  1  0  0  0  0
  2  1  1  0  0  0  0
  2  9  1  0  0  0  0
  3  2  1  0  0  0  0
  3 11  1  0  0  0  0
  4  3  1  0  0  0  0
  4 14  1  0  0  0  0
  4  5  1  0  0  0  0
  5 15  1  1  0  0  0
  6  5  1  0  0  0  0
  6  7  2  0  0  0  0
  8  1  1  0  0  0  0
 10  2  1  0  0  0  0
 12  3  1  0  0  0  0
 13  4  1  0  0  0  0
 16  6  1  0  0  0  0
 17 16  1  0  0  0  0
 17 25  1  1  0  0  0
 17 21  1  0  0  0  0
 18 17  1  0  0  0  0
 19 20  2  0  0  0  0
 19 18  1  0  0  0  0
 21 22  2  0  0  0  0
 21 29  1  0  0  0  0
 23 28  1  0  0  0  0
 23 19  1  0  0  0  0
 24 16  1  0  0  0  0
 26 18  1  0  0  0  0
 27 18  1  0  0  0  0
 29 30  1  0  0  0  0
 30 40  1  6  0  0  0
 30 35  1  0  0  0  0
 31 30  1  0  0  0  0
 31 41  1  0  0  0  0
 32 31  1  0  0  0  0
 33 32  1  0  0  0  0
 33 34  2  0  0  0  0
 35 36  2  0  0  0  0
 35 38  1  0  0  0  0
 37 33  1  0  0  0  0
 39 29  1  0  0  0  0
 42 31  1  0  0  0  0
 43 32  1  0  0  0  0
 44 32  1  0  0  0  0
 45 37  1  0  0  0  0
M  END
$$$$
