PDI.pdb
 OpenBabel07022419033D

 48 48  0  0  1  0  0  0  0  0999 V2000
    1.2610   -3.1780    1.9510 N   0  0  0  0  0  0  0  0  0  0  0  0
    1.5950   -4.4300    2.5980 C   0  0  0  0  0  0  0  0  0  0  0  0
    3.0840   -4.4260    2.8300 C   0  0  0  0  0  0  0  0  0  0  0  0
    3.5270   -3.0680    2.3060 C   0  0  0  0  0  0  0  0  0  0  0  0
    2.2400   -2.2710    2.4680 C   0  0  1  0  0  0  0  0  0  0  0  0
    2.3050   -0.9900    1.7010 C   0  0  0  0  0  0  0  0  0  0  0  0
    3.1290   -0.1290    2.0670 O   0  0  0  0  0  0  0  0  0  0  0  0
    0.2750   -2.9100    2.1850 H   0  0  0  0  0  0  0  0  0  0  0  0
    1.0270   -4.5120    3.5680 H   0  0  0  0  0  0  0  0  0  0  0  0
    1.2650   -5.3080    2.0010 H   0  0  0  0  0  0  0  0  0  0  0  0
    3.6030   -5.2500    2.3060 H   0  0  0  0  0  0  0  0  0  0  0  0
    3.3380   -4.4420    3.9230 H   0  0  0  0  0  0  0  0  0  0  0  0
    3.7510   -3.1060    1.2250 H   0  0  0  0  0  0  0  0  0  0  0  0
    4.3500   -2.6440    2.8970 H   0  0  0  0  0  0  0  0  0  0  0  0
    2.0370   -2.0950    3.5440 H   0  0  0  0  0  0  0  0  0  0  0  0
    1.4670   -0.7250    0.5830 N   0  0  0  0  0  0  0  0  0  0  0  0
    1.5250    0.5190   -0.1660 C   0  0  1  0  0  0  0  0  0  0  0  0
    1.9230    0.2540   -1.6090 C   0  0  0  0  0  0  0  0  0  0  0  0
    2.0000    1.4870   -2.4230 C   0  0  0  0  0  0  0  0  0  0  0  0
    1.0250    2.0160   -3.0130 O   0  0  0  0  0  0  0  0  0  0  0  0
    0.2450    1.2670   -0.0640 C   0  0  0  0  0  0  0  0  0  0  0  0
    0.0640    2.3720   -0.6160 O   0  0  0  0  0  0  0  0  0  0  0  0
    3.2230    2.1210   -2.5590 O   0  0  0  0  0  0  0  0  0  0  0  0
    0.7950   -1.4780    0.3190 H   0  0  0  0  0  0  0  0  0  0  0  0
    2.3050    1.1890    0.2540 H   0  0  0  0  0  0  0  0  0  0  0  0
    1.1870   -0.4060   -2.1160 H   0  0  0  0  0  0  0  0  0  0  0  0
    2.8900   -0.2500   -1.6810 H   0  0  0  0  0  0  0  0  0  0  0  0
    3.3180    3.1410   -2.6130 H   0  0  0  0  0  0  0  0  0  0  0  0
   -2.5430   -1.7470    0.2350 C   0  0  0  0  0  0  0  0  0  0  0  0
   -3.5650   -0.7210    0.5790 C   0  0  0  0  0  0  0  0  0  0  0  0
   -3.2570    0.6770    0.1790 C   0  0  2  0  0  0  0  0  0  0  0  0
   -3.0860    0.7340   -1.3140 C   0  0  0  0  0  0  0  0  0  0  0  0
   -2.1220    1.3570    0.8590 C   0  0  2  0  0  0  0  0  0  0  0  0
   -0.8420    0.7170    0.6960 N   0  0  0  0  0  0  0  0  0  0  0  0
   -2.4000    1.7620    2.2420 C   0  0  0  0  0  0  0  0  0  0  0  0
   -1.5970    1.5670    3.1770 O   0  0  0  0  0  0  0  0  0  0  0  0
   -3.5890    2.3850    2.5470 O   0  0  0  0  0  0  0  0  0  0  0  0
   -2.0120   -2.1620    1.1140 H   0  0  0  0  0  0  0  0  0  0  0  0
   -3.0520   -2.6290   -0.2270 H   0  0  0  0  0  0  0  0  0  0  0  0
   -1.8860   -1.3480   -0.5560 H   0  0  0  0  0  0  0  0  0  0  0  0
   -3.8900   -0.7930    1.6620 H   0  0  0  0  0  0  0  0  0  0  0  0
   -4.5070   -0.9970    0.0250 H   0  0  0  0  0  0  0  0  0  0  0  0
   -4.1870    1.2800    0.4120 H   0  0  0  0  0  0  0  0  0  0  0  0
   -3.5070    1.6480   -1.7650 H   0  0  0  0  0  0  0  0  0  0  0  0
   -3.6250   -0.1340   -1.7790 H   0  0  0  0  0  0  0  0  0  0  0  0
   -2.0140    0.5940   -1.5780 H   0  0  0  0  0  0  0  0  0  0  0  0
   -2.0170    2.3390    0.2910 H   0  0  0  0  0  0  0  0  0  0  0  0
   -0.6540   -0.2040    1.1450 H   0  0  0  0  0  0  0  0  0  0  0  0
  1  8  1  0  0  0  0
  1  5  1  0  0  0  0
  1  2  1  0  0  0  0
  2  3  1  0  0  0  0
  2  9  1  0  0  0  0
  3 12  1  0  0  0  0
  4  5  1  0  0  0  0
  4  3  1  0  0  0  0
  4 14  1  0  0  0  0
  5 15  1  1  0  0  0
  6  7  2  0  0  0  0
  6  5  1  0  0  0  0
 10  2  1  0  0  0  0
 11  3  1  0  0  0  0
 13  4  1  0  0  0  0
 16  6  1  0  0  0  0
 17 21  1  0  0  0  0
 17 25  1  1  0  0  0
 17 16  1  0  0  0  0
 18 17  1  0  0  0  0
 19 18  1  0  0  0  0
 20 19  2  0  0  0  0
 21 34  1  0  0  0  0
 22 21  2  0  0  0  0
 23 19  1  0  0  0  0
 24 16  1  0  0  0  0
 26 18  1  0  0  0  0
 27 18  1  0  0  0  0
 28 23  1  0  0  0  0
 29 30  1  0  0  0  0
 29 38  1  0  0  0  0
 30 41  1  0  0  0  0
 31 43  1  1  0  0  0
 31 30  1  0  0  0  0
 31 33  1  0  0  0  0
 32 31  1  0  0  0  0
 33 47  1  6  0  0  0
 33 35  1  0  0  0  0
 34 33  1  0  0  0  0
 34 48  1  0  0  0  0
 35 37  2  0  0  0  0
 35 36  1  0  0  0  0
 39 29  1  0  0  0  0
 40 29  1  0  0  0  0
 42 30  1  0  0  0  0
 44 32  1  0  0  0  0
 45 32  1  0  0  0  0
 46 32  1  0  0  0  0
M  END
$$$$
