PDL.pdb
 OpenBabel07022419033D

 48 48  0  0  1  0  0  0  0  0999 V2000
    3.8750   -3.4560    1.7960 N   0  0  0  0  0  0  0  0  0  0  0  0
    3.7760   -4.9020    2.0540 C   0  0  0  0  0  0  0  0  0  0  0  0
    2.2800   -5.1350    2.1380 C   0  0  0  0  0  0  0  0  0  0  0  0
    1.7070   -4.1080    1.1890 C   0  0  0  0  0  0  0  0  0  0  0  0
    2.9060   -3.2860    0.7580 C   0  0  1  0  0  0  0  0  0  0  0  0
    2.4320   -1.8670    0.6560 C   0  0  0  0  0  0  0  0  0  0  0  0
    2.8970   -1.0030    1.4420 O   0  0  0  0  0  0  0  0  0  0  0  0
    4.8320   -3.3110    1.4000 H   0  0  0  0  0  0  0  0  0  0  0  0
    4.1370   -5.4820    1.1800 H   0  0  0  0  0  0  0  0  0  0  0  0
    4.3050   -5.1830    2.9800 H   0  0  0  0  0  0  0  0  0  0  0  0
    1.9930   -4.9340    3.2030 H   0  0  0  0  0  0  0  0  0  0  0  0
    1.9790   -6.1290    1.7980 H   0  0  0  0  0  0  0  0  0  0  0  0
    1.0300   -3.4660    1.7820 H   0  0  0  0  0  0  0  0  0  0  0  0
    1.1810   -4.5650    0.3350 H   0  0  0  0  0  0  0  0  0  0  0  0
    3.3440   -3.6370   -0.1900 H   0  0  0  0  0  0  0  0  0  0  0  0
    1.4790   -1.4540   -0.2920 N   0  0  0  0  0  0  0  0  0  0  0  0
    0.9780   -0.1080   -0.4490 C   0  0  1  0  0  0  0  0  0  0  0  0
    1.2290    0.3820   -1.8700 C   0  0  0  0  0  0  0  0  0  0  0  0
    2.6680    0.3930   -2.2090 C   0  0  0  0  0  0  0  0  0  0  0  0
    3.5430    0.0330   -1.3910 O   0  0  0  0  0  0  0  0  0  0  0  0
   -0.4800   -0.1400   -0.1650 C   0  0  0  0  0  0  0  0  0  0  0  0
   -1.0330   -1.2210    0.1430 O   0  0  0  0  0  0  0  0  0  0  0  0
    3.0740    0.8120   -3.4660 O   0  0  0  0  0  0  0  0  0  0  0  0
    1.1040   -2.1960   -0.9370 H   0  0  0  0  0  0  0  0  0  0  0  0
    1.4760    0.6080    0.2370 H   0  0  0  0  0  0  0  0  0  0  0  0
    0.8010    1.3880   -2.0250 H   0  0  0  0  0  0  0  0  0  0  0  0
    0.7130   -0.3220   -2.5850 H   0  0  0  0  0  0  0  0  0  0  0  0
    3.9360    0.4620   -3.9060 H   0  0  0  0  0  0  0  0  0  0  0  0
   -2.8600    2.5870    3.5200 C   0  0  0  0  0  0  0  0  0  0  0  0
   -2.3900    1.5630    2.4770 C   0  0  0  0  0  0  0  0  0  0  0  0
   -2.7480    0.2150    3.0120 C   0  0  0  0  0  0  0  0  0  0  0  0
   -3.0680    1.9250    1.1960 C   0  0  0  0  0  0  0  0  0  0  0  0
   -2.7170    1.0130    0.0450 C   0  0  2  0  0  0  0  0  0  0  0  0
   -1.3010    1.0310   -0.2280 N   0  0  0  0  0  0  0  0  0  0  0  0
   -3.5150    1.4610   -1.1260 C   0  0  0  0  0  0  0  0  0  0  0  0
   -3.0020    1.8100   -2.2140 O   0  0  0  0  0  0  0  0  0  0  0  0
   -4.8970    1.4970   -1.0120 O   0  0  0  0  0  0  0  0  0  0  0  0
   -2.1350    2.6050    4.3580 H   0  0  0  0  0  0  0  0  0  0  0  0
   -3.8050    2.1840    3.9420 H   0  0  0  0  0  0  0  0  0  0  0  0
   -3.0380    3.5750    3.0710 H   0  0  0  0  0  0  0  0  0  0  0  0
   -1.2820    1.7130    2.3960 H   0  0  0  0  0  0  0  0  0  0  0  0
   -1.8620   -0.1500    3.6090 H   0  0  0  0  0  0  0  0  0  0  0  0
   -3.5740    0.2740    3.7810 H   0  0  0  0  0  0  0  0  0  0  0  0
   -3.0770   -0.5170    2.2750 H   0  0  0  0  0  0  0  0  0  0  0  0
   -4.1600    1.9660    1.3730 H   0  0  0  0  0  0  0  0  0  0  0  0
   -2.7670    2.9770    0.9550 H   0  0  0  0  0  0  0  0  0  0  0  0
   -3.0840    0.0000    0.3050 H   0  0  0  0  0  0  0  0  0  0  0  0
   -0.8090    1.9120   -0.4880 H   0  0  0  0  0  0  0  0  0  0  0  0
  1  2  1  0  0  0  0
  2  3  1  0  0  0  0
  2 10  1  0  0  0  0
  3 11  1  0  0  0  0
  4 13  1  0  0  0  0
  4  3  1  0  0  0  0
  5 15  1  6  0  0  0
  5  4  1  0  0  0  0
  5  1  1  0  0  0  0
  6  5  1  0  0  0  0
  6  7  2  0  0  0  0
  8  1  1  0  0  0  0
  9  2  1  0  0  0  0
 12  3  1  0  0  0  0
 14  4  1  0  0  0  0
 16  6  1  0  0  0  0
 17 16  1  0  0  0  0
 17 21  1  0  0  0  0
 17 25  1  1  0  0  0
 18 17  1  0  0  0  0
 19 18  1  0  0  0  0
 19 20  2  0  0  0  0
 21 22  2  0  0  0  0
 23 19  1  0  0  0  0
 24 16  1  0  0  0  0
 26 18  1  0  0  0  0
 27 18  1  0  0  0  0
 28 23  1  0  0  0  0
 29 39  1  0  0  0  0
 29 38  1  0  0  0  0
 30 31  1  0  0  0  0
 30 29  1  0  0  0  0
 31 42  1  0  0  0  0
 31 43  1  0  0  0  0
 32 45  1  0  0  0  0
 32 30  1  0  0  0  0
 33 47  1  1  0  0  0
 33 32  1  0  0  0  0
 34 21  1  0  0  0  0
 34 33  1  0  0  0  0
 35 37  1  0  0  0  0
 35 33  1  0  0  0  0
 36 35  2  0  0  0  0
 40 29  1  0  0  0  0
 41 30  1  0  0  0  0
 44 31  1  0  0  0  0
 46 32  1  0  0  0  0
 48 34  1  0  0  0  0
M  END
$$$$
