PDQ.pdb
 OpenBabel07022419033D

 46 46  0  0  1  0  0  0  0  0999 V2000
    2.7530   -1.8940    0.4790 N   0  0  0  0  0  0  0  0  0  0  0  0
    3.4340   -2.6400   -0.5560 C   0  0  0  0  0  0  0  0  0  0  0  0
    4.0340   -1.6160   -1.4900 C   0  0  0  0  0  0  0  0  0  0  0  0
    4.3410   -0.4560   -0.5740 C   0  0  0  0  0  0  0  0  0  0  0  0
    3.3290   -0.5930    0.5440 C   0  0  1  0  0  0  0  0  0  0  0  0
    2.3250    0.5000    0.4230 C   0  0  0  0  0  0  0  0  0  0  0  0
    2.7230    1.6930    0.4910 O   0  0  0  0  0  0  0  0  0  0  0  0
    2.9950   -2.3860    1.3920 H   0  0  0  0  0  0  0  0  0  0  0  0
    4.2780   -3.2490   -0.1740 H   0  0  0  0  0  0  0  0  0  0  0  0
    2.7620   -3.3320   -1.1030 H   0  0  0  0  0  0  0  0  0  0  0  0
    3.3340   -1.3350   -2.2960 H   0  0  0  0  0  0  0  0  0  0  0  0
    4.9830   -1.9620   -1.9450 H   0  0  0  0  0  0  0  0  0  0  0  0
    4.1780    0.5030   -1.1070 H   0  0  0  0  0  0  0  0  0  0  0  0
    5.3850   -0.5350   -0.2150 H   0  0  0  0  0  0  0  0  0  0  0  0
    3.8990   -0.3880    1.4900 H   0  0  0  0  0  0  0  0  0  0  0  0
    0.9420    0.2770    0.2340 N   0  0  0  0  0  0  0  0  0  0  0  0
    0.0000    1.4180    0.1220 C   0  0  1  0  0  0  0  0  0  0  0  0
   -0.5480    1.3250   -1.2680 C   0  0  0  0  0  0  0  0  0  0  0  0
   -1.5020    2.3760   -1.6500 C   0  0  0  0  0  0  0  0  0  0  0  0
   -2.0710    2.2280   -2.7750 O   0  0  0  0  0  0  0  0  0  0  0  0
   -1.0840    1.2530    1.1120 C   0  0  0  0  0  0  0  0  0  0  0  0
   -1.9680    2.1270    1.2130 O   0  0  0  0  0  0  0  0  0  0  0  0
   -1.8450    3.4920   -0.9350 O   0  0  0  0  0  0  0  0  0  0  0  0
    0.5590   -0.6760    0.1660 H   0  0  0  0  0  0  0  0  0  0  0  0
    0.5530    2.3750    0.2160 H   0  0  0  0  0  0  0  0  0  0  0  0
    0.2550    1.2970   -2.0360 H   0  0  0  0  0  0  0  0  0  0  0  0
   -1.1070    0.3490   -1.3960 H   0  0  0  0  0  0  0  0  0  0  0  0
   -2.1490    4.3590   -1.3800 H   0  0  0  0  0  0  0  0  0  0  0  0
   -0.8640   -3.3580    1.2250 N   0  0  0  0  0  0  0  0  0  0  0  0
   -1.9450   -2.4440    1.2860 C   0  0  0  0  0  0  0  0  0  0  0  0
   -2.1930   -1.6610    0.3030 O   0  0  0  0  0  0  0  0  0  0  0  0
   -2.8480   -2.3340    2.4510 C   0  0  0  0  0  0  0  0  0  0  0  0
   -3.3530   -0.9340    2.5760 C   0  0  0  0  0  0  0  0  0  0  0  0
   -2.2660    0.0360    2.9190 C   0  0  2  0  0  0  0  0  0  0  0  0
   -1.1860    0.1110    1.9920 N   0  0  0  0  0  0  0  0  0  0  0  0
   -1.7860   -0.3220    4.3000 C   0  0  0  0  0  0  0  0  0  0  0  0
   -0.5620   -0.5140    4.5240 O   0  0  0  0  0  0  0  0  0  0  0  0
   -2.6730   -0.4440    5.3350 O   0  0  0  0  0  0  0  0  0  0  0  0
    0.0300   -3.1410    1.7100 H   0  0  0  0  0  0  0  0  0  0  0  0
   -0.9370   -4.2470    0.7060 H   0  0  0  0  0  0  0  0  0  0  0  0
   -2.3230   -2.6850    3.3710 H   0  0  0  0  0  0  0  0  0  0  0  0
   -3.7120   -3.0110    2.2260 H   0  0  0  0  0  0  0  0  0  0  0  0
   -3.8060   -0.6100    1.6030 H   0  0  0  0  0  0  0  0  0  0  0  0
   -4.1570   -0.8830    3.3550 H   0  0  0  0  0  0  0  0  0  0  0  0
   -2.7730    1.0580    2.9920 H   0  0  0  0  0  0  0  0  0  0  0  0
   -0.4270   -0.6310    1.9350 H   0  0  0  0  0  0  0  0  0  0  0  0
  1  5  1  0  0  0  0
  1  8  1  0  0  0  0
  2  9  1  0  0  0  0
  2  1  1  0  0  0  0
  3  4  1  0  0  0  0
  3  2  1  0  0  0  0
  4 14  1  0  0  0  0
  4  5  1  0  0  0  0
  5 15  1  1  0  0  0
  6  7  2  0  0  0  0
  6  5  1  0  0  0  0
 10  2  1  0  0  0  0
 11  3  1  0  0  0  0
 12  3  1  0  0  0  0
 13  4  1  0  0  0  0
 16  6  1  0  0  0  0
 17 25  1  1  0  0  0
 17 16  1  0  0  0  0
 17 21  1  0  0  0  0
 18 17  1  0  0  0  0
 19 18  1  0  0  0  0
 19 23  1  0  0  0  0
 20 19  2  0  0  0  0
 21 22  2  0  0  0  0
 21 35  1  0  0  0  0
 24 16  1  0  0  0  0
 26 18  1  0  0  0  0
 27 18  1  0  0  0  0
 28 23  1  0  0  0  0
 29 30  1  0  0  0  0
 29 39  1  0  0  0  0
 30 32  1  0  0  0  0
 31 30  2  0  0  0  0
 32 33  1  0  0  0  0
 32 41  1  0  0  0  0
 33 34  1  0  0  0  0
 33 44  1  0  0  0  0
 34 45  1  1  0  0  0
 34 36  1  0  0  0  0
 35 34  1  0  0  0  0
 36 37  2  0  0  0  0
 36 38  1  0  0  0  0
 40 29  1  0  0  0  0
 42 32  1  0  0  0  0
 43 33  1  0  0  0  0
 46 35  1  0  0  0  0
M  END
$$$$
