PDV.pdb
 OpenBabel07022419033D

 45 45  0  0  1  0  0  0  0  0999 V2000
    1.1670   -4.3030   -1.5410 N   0  0  0  0  0  0  0  0  0  0  0  0
    0.2640   -5.4300   -1.3990 C   0  0  0  0  0  0  0  0  0  0  0  0
   -0.6860   -4.9850   -0.2880 C   0  0  0  0  0  0  0  0  0  0  0  0
   -0.5360   -3.4850   -0.2260 C   0  0  0  0  0  0  0  0  0  0  0  0
    0.2800   -3.1810   -1.4570 C   0  0  1  0  0  0  0  0  0  0  0  0
    0.9840   -1.9010   -1.2340 C   0  0  0  0  0  0  0  0  0  0  0  0
    2.2530   -1.9120   -1.1640 O   0  0  0  0  0  0  0  0  0  0  0  0
    1.8160   -4.3220   -0.7240 H   0  0  0  0  0  0  0  0  0  0  0  0
    0.7780   -6.3770   -1.1570 H   0  0  0  0  0  0  0  0  0  0  0  0
   -0.3630   -5.5230   -2.3260 H   0  0  0  0  0  0  0  0  0  0  0  0
   -0.4240   -5.4760    0.6640 H   0  0  0  0  0  0  0  0  0  0  0  0
   -1.7560   -5.1910   -0.5690 H   0  0  0  0  0  0  0  0  0  0  0  0
   -1.5040   -2.9480   -0.2000 H   0  0  0  0  0  0  0  0  0  0  0  0
    0.1060   -3.2570    0.6480 H   0  0  0  0  0  0  0  0  0  0  0  0
   -0.3410   -3.1690   -2.3790 H   0  0  0  0  0  0  0  0  0  0  0  0
    0.3510   -0.6460   -1.0880 N   0  0  0  0  0  0  0  0  0  0  0  0
    1.1160    0.5960   -0.8690 C   0  0  1  0  0  0  0  0  0  0  0  0
    0.6710    1.6170   -1.8530 C   0  0  0  0  0  0  0  0  0  0  0  0
    1.4060    2.8740   -1.7100 C   0  0  0  0  0  0  0  0  0  0  0  0
    0.9720    3.9330   -2.2850 O   0  0  0  0  0  0  0  0  0  0  0  0
    0.8240    1.0030    0.5700 C   0  0  0  0  0  0  0  0  0  0  0  0
    1.4130    1.9940    1.0570 O   0  0  0  0  0  0  0  0  0  0  0  0
    2.5570    2.9680   -0.9810 O   0  0  0  0  0  0  0  0  0  0  0  0
   -0.6690   -0.5980   -1.1420 H   0  0  0  0  0  0  0  0  0  0  0  0
    2.1870    0.4550   -0.9120 H   0  0  0  0  0  0  0  0  0  0  0  0
    0.9690    1.2130   -2.8730 H   0  0  0  0  0  0  0  0  0  0  0  0
   -0.4420    1.7610   -1.8570 H   0  0  0  0  0  0  0  0  0  0  0  0
    2.8650    3.9050   -0.6880 H   0  0  0  0  0  0  0  0  0  0  0  0
   -0.6420    1.8230    4.8320 C   0  0  0  0  0  0  0  0  0  0  0  0
   -0.0180    1.7420    3.4190 C   0  0  0  0  0  0  0  0  0  0  0  0
    1.4900    1.5960    3.7760 C   0  0  0  0  0  0  0  0  0  0  0  0
   -0.4810    0.4840    2.7260 C   0  0  2  0  0  0  0  0  0  0  0  0
   -0.0900    0.2980    1.3740 N   0  0  0  0  0  0  0  0  0  0  0  0
   -1.8460    0.0530    3.0290 C   0  0  0  0  0  0  0  0  0  0  0  0
   -2.3100    0.1590    4.1800 O   0  0  0  0  0  0  0  0  0  0  0  0
   -2.6680   -0.4880    2.0510 O   0  0  0  0  0  0  0  0  0  0  0  0
   -0.4890    0.8820    5.3790 H   0  0  0  0  0  0  0  0  0  0  0  0
   -1.6410    2.2480    4.8310 H   0  0  0  0  0  0  0  0  0  0  0  0
    0.0060    2.5770    5.3780 H   0  0  0  0  0  0  0  0  0  0  0  0
   -0.1430    2.6710    2.9150 H   0  0  0  0  0  0  0  0  0  0  0  0
    1.8680    0.7120    3.2500 H   0  0  0  0  0  0  0  0  0  0  0  0
    2.0580    2.4780    3.5380 H   0  0  0  0  0  0  0  0  0  0  0  0
    1.6010    1.4460    4.8990 H   0  0  0  0  0  0  0  0  0  0  0  0
    0.2090   -0.2980    3.2840 H   0  0  0  0  0  0  0  0  0  0  0  0
   -0.5790   -0.5330    0.8680 H   0  0  0  0  0  0  0  0  0  0  0  0
  1  5  1  0  0  0  0
  1  2  1  0  0  0  0
  1  8  1  0  0  0  0
  2  9  1  0  0  0  0
  2  3  1  0  0  0  0
  3  4  1  0  0  0  0
  3 11  1  0  0  0  0
  4 13  1  0  0  0  0
  4 14  1  0  0  0  0
  5 15  1  6  0  0  0
  5  6  1  0  0  0  0
  5  4  1  0  0  0  0
  6  7  2  0  0  0  0
  6 16  1  0  0  0  0
 10  2  1  0  0  0  0
 12  3  1  0  0  0  0
 16 17  1  0  0  0  0
 17 25  1  6  0  0  0
 17 21  1  0  0  0  0
 18 19  1  0  0  0  0
 18 17  1  0  0  0  0
 19 23  1  0  0  0  0
 20 19  2  0  0  0  0
 21 22  2  0  0  0  0
 21 33  1  0  0  0  0
 23 28  1  0  0  0  0
 24 16  1  0  0  0  0
 26 18  1  0  0  0  0
 27 18  1  0  0  0  0
 29 39  1  0  0  0  0
 29 37  1  0  0  0  0
 30 31  1  0  0  0  0
 30 29  1  0  0  0  0
 31 43  1  0  0  0  0
 32 34  1  0  0  0  0
 32 44  1  1  0  0  0
 32 30  1  0  0  0  0
 33 32  1  0  0  0  0
 34 35  1  0  0  0  0
 36 34  2  0  0  0  0
 38 29  1  0  0  0  0
 40 30  1  0  0  0  0
 41 31  1  0  0  0  0
 42 31  1  0  0  0  0
 45 33  1  0  0  0  0
M  END
$$$$
