PEG.pdb
 OpenBabel07022419033D

 39 39  0  0  1  0  0  0  0  0999 V2000
   -1.1310   -4.1710    0.4940 N   0  0  0  0  0  0  0  0  0  0  0  0
   -2.0750   -4.6480    1.5170 C   0  0  0  0  0  0  0  0  0  0  0  0
   -1.5560   -3.9180    2.7360 C   0  0  0  0  0  0  0  0  0  0  0  0
   -1.2280   -2.5330    2.1900 C   0  0  0  0  0  0  0  0  0  0  0  0
   -1.2240   -2.7390    0.6980 C   0  0  1  0  0  0  0  0  0  0  0  0
   -0.1730   -1.9980   -0.0050 C   0  0  0  0  0  0  0  0  0  0  0  0
    0.6770   -2.6280   -0.6880 O   0  0  0  0  0  0  0  0  0  0  0  0
   -1.5570   -4.4390   -0.4220 H   0  0  0  0  0  0  0  0  0  0  0  0
   -3.0920   -4.2490    1.3160 H   0  0  0  0  0  0  0  0  0  0  0  0
   -2.0520   -5.7400    1.6210 H   0  0  0  0  0  0  0  0  0  0  0  0
   -0.6040   -4.4330    3.0470 H   0  0  0  0  0  0  0  0  0  0  0  0
   -2.2870   -3.8690    3.5570 H   0  0  0  0  0  0  0  0  0  0  0  0
   -0.2520   -2.1740    2.5770 H   0  0  0  0  0  0  0  0  0  0  0  0
   -2.0230   -1.8520    2.5180 H   0  0  0  0  0  0  0  0  0  0  0  0
   -2.2280   -2.4360    0.3160 H   0  0  0  0  0  0  0  0  0  0  0  0
   -0.0820   -0.6050    0.0580 N   0  0  0  0  0  0  0  0  0  0  0  0
    0.9390    0.1910   -0.6180 C   0  0  1  0  0  0  0  0  0  0  0  0
    0.3410    1.2300   -1.4800 C   0  0  0  0  0  0  0  0  0  0  0  0
    1.3900    2.0320   -2.1910 C   0  0  0  0  0  0  0  0  0  0  0  0
    0.7780    3.0490   -3.0960 C   0  0  0  0  0  0  0  0  0  0  0  0
   -0.4530    3.1320   -3.1730 O   0  0  0  0  0  0  0  0  0  0  0  0
    1.7910    0.7740    0.4290 C   0  0  0  0  0  0  0  0  0  0  0  0
    2.8340    1.4510    0.2360 O   0  0  0  0  0  0  0  0  0  0  0  0
    1.5980    3.8660   -3.8220 O   0  0  0  0  0  0  0  0  0  0  0  0
   -0.7780   -0.0640    0.6120 H   0  0  0  0  0  0  0  0  0  0  0  0
    1.5950   -0.4740   -1.2440 H   0  0  0  0  0  0  0  0  0  0  0  0
   -0.3140    0.7380   -2.2410 H   0  0  0  0  0  0  0  0  0  0  0  0
   -0.2630    1.9820   -0.9040 H   0  0  0  0  0  0  0  0  0  0  0  0
    2.0250    2.5430   -1.4340 H   0  0  0  0  0  0  0  0  0  0  0  0
    2.0230    1.3520   -2.7690 H   0  0  0  0  0  0  0  0  0  0  0  0
    1.2620    4.6510   -4.3930 H   0  0  0  0  0  0  0  0  0  0  0  0
    1.4160    0.5650    1.8130 N   0  0  0  0  0  0  0  0  0  0  0  0
    2.2610    1.1450    2.8560 C   0  0  0  0  0  0  0  0  0  0  0  0
    1.6890    0.8060    4.1800 C   0  0  0  0  0  0  0  0  0  0  0  0
    0.6400    0.1200    4.2550 O   0  0  0  0  0  0  0  0  0  0  0  0
    2.3120    1.2440    5.3320 O   0  0  0  0  0  0  0  0  0  0  0  0
    0.5790    0.0220    2.0850 H   0  0  0  0  0  0  0  0  0  0  0  0
    2.3760    2.2380    2.7260 H   0  0  0  0  0  0  0  0  0  0  0  0
    3.2580    0.6200    2.8080 H   0  0  0  0  0  0  0  0  0  0  0  0
  1  5  1  0  0  0  0
  1  2  1  0  0  0  0
  2 10  1  0  0  0  0
  2  3  1  0  0  0  0
  3 11  1  0  0  0  0
  3 12  1  0  0  0  0
  4 14  1  0  0  0  0
  4 13  1  0  0  0  0
  4  3  1  0  0  0  0
  5 15  1  6  0  0  0
  5  4  1  0  0  0  0
  6 16  1  0  0  0  0
  6  5  1  0  0  0  0
  7  6  2  0  0  0  0
  8  1  1  0  0  0  0
  9  2  1  0  0  0  0
 16 25  1  0  0  0  0
 17 26  1  6  0  0  0
 17 16  1  0  0  0  0
 17 22  1  0  0  0  0
 18 28  1  0  0  0  0
 18 17  1  0  0  0  0
 19 18  1  0  0  0  0
 19 29  1  0  0  0  0
 20 19  1  0  0  0  0
 21 20  2  0  0  0  0
 22 32  1  0  0  0  0
 23 22  2  0  0  0  0
 24 20  1  0  0  0  0
 27 18  1  0  0  0  0
 30 19  1  0  0  0  0
 31 24  1  0  0  0  0
 32 37  1  0  0  0  0
 32 33  1  0  0  0  0
 33 34  1  0  0  0  0
 34 35  2  0  0  0  0
 34 36  1  0  0  0  0
 38 33  1  0  0  0  0
 39 33  1  0  0  0  0
M  END
$$$$
