PEH.pdb
 OpenBabel07022419033D

 49 50  0  0  1  0  0  0  0  0999 V2000
   -1.4740    1.4570    2.1430 N   0  0  0  0  0  0  0  0  0  0  0  0
   -2.7190    0.8730    2.5170 C   0  0  0  0  0  0  0  0  0  0  0  0
   -2.6590    0.6040    4.0050 C   0  0  0  0  0  0  0  0  0  0  0  0
   -1.2750    1.0560    4.4510 C   0  0  0  0  0  0  0  0  0  0  0  0
   -0.5060    1.1440    3.1430 C   0  0  1  0  0  0  0  0  0  0  0  0
    0.2860   -0.0720    2.8930 C   0  0  0  0  0  0  0  0  0  0  0  0
    1.1880   -0.4300    3.7130 O   0  0  0  0  0  0  0  0  0  0  0  0
   -1.1760    1.3220    1.1680 H   0  0  0  0  0  0  0  0  0  0  0  0
   -3.5710    1.5900    2.3350 H   0  0  0  0  0  0  0  0  0  0  0  0
   -2.9810   -0.0560    1.9920 H   0  0  0  0  0  0  0  0  0  0  0  0
   -3.4510    1.1730    4.5480 H   0  0  0  0  0  0  0  0  0  0  0  0
   -2.8420   -0.4650    4.2370 H   0  0  0  0  0  0  0  0  0  0  0  0
   -0.8180    0.3700    5.1660 H   0  0  0  0  0  0  0  0  0  0  0  0
   -1.3930    2.0580    4.9070 H   0  0  0  0  0  0  0  0  0  0  0  0
    0.1820    2.0170    3.2350 H   0  0  0  0  0  0  0  0  0  0  0  0
    0.0880   -0.8730    1.7660 N   0  0  0  0  0  0  0  0  0  0  0  0
    0.8790   -2.0910    1.5110 C   0  0  1  0  0  0  0  0  0  0  0  0
   -0.1060   -3.2020    1.3870 C   0  0  0  0  0  0  0  0  0  0  0  0
    0.5080   -4.5470    1.1230 C   0  0  0  0  0  0  0  0  0  0  0  0
   -0.5860   -5.5750    1.0230 C   0  0  0  0  0  0  0  0  0  0  0  0
   -1.7770   -5.2430    1.1560 O   0  0  0  0  0  0  0  0  0  0  0  0
    1.6900   -1.8710    0.2750 C   0  0  0  0  0  0  0  0  0  0  0  0
    2.4600   -2.7610   -0.1610 O   0  0  0  0  0  0  0  0  0  0  0  0
   -0.2430   -6.9070    0.7780 O   0  0  0  0  0  0  0  0  0  0  0  0
   -0.6440   -0.6130    1.0730 H   0  0  0  0  0  0  0  0  0  0  0  0
    1.6110   -2.2380    2.3310 H   0  0  0  0  0  0  0  0  0  0  0  0
   -0.7740   -2.9620    0.5240 H   0  0  0  0  0  0  0  0  0  0  0  0
   -0.7350   -3.2150    2.2770 H   0  0  0  0  0  0  0  0  0  0  0  0
    1.0800   -4.6030    0.2000 H   0  0  0  0  0  0  0  0  0  0  0  0
    1.1450   -4.8550    1.9710 H   0  0  0  0  0  0  0  0  0  0  0  0
   -0.9000   -7.4770    0.2450 H   0  0  0  0  0  0  0  0  0  0  0  0
    1.6050   -0.6440   -0.4350 N   0  0  0  0  0  0  0  0  0  0  0  0
    2.4190   -0.4960   -1.6250 C   0  0  1  0  0  0  0  0  0  0  0  0
    1.5500   -0.2800   -2.8560 C   0  0  0  0  0  0  0  0  0  0  0  0
    0.7140    0.9220   -2.7560 C   0  0  0  0  0  0  0  0  0  0  0  0
   -0.5730    1.0270   -2.2370 C   0  0  0  0  0  0  0  0  0  0  0  0
   -1.0060    2.2930   -2.3200 N   0  0  0  0  0  0  0  0  0  0  0  0
   -0.0280    2.9960   -2.8770 C   0  0  0  0  0  0  0  0  0  0  0  0
    1.0180    2.1920   -3.1490 N   0  0  0  0  0  0  0  0  0  0  0  0
    3.3290    0.6540   -1.5270 C   0  0  0  0  0  0  0  0  0  0  0  0
    4.0940    0.8980   -2.4930 O   0  0  0  0  0  0  0  0  0  0  0  0
    3.3830    1.4770   -0.4230 O   0  0  0  0  0  0  0  0  0  0  0  0
    0.9760    0.1450   -0.1200 H   0  0  0  0  0  0  0  0  0  0  0  0
    3.0220   -1.3980   -1.8290 H   0  0  0  0  0  0  0  0  0  0  0  0
    2.2580   -0.1230   -3.7050 H   0  0  0  0  0  0  0  0  0  0  0  0
    0.9710   -1.2060   -3.0930 H   0  0  0  0  0  0  0  0  0  0  0  0
   -1.1550    0.2280   -1.8260 H   0  0  0  0  0  0  0  0  0  0  0  0
   -1.9380    2.6360   -1.9990 H   0  0  0  0  0  0  0  0  0  0  0  0
   -0.1050    4.0680   -3.0690 H   0  0  0  0  0  0  0  0  0  0  0  0
  1  2  1  0  0  0  0
  1  5  1  0  0  0  0
  2  3  1  0  0  0  0
  3 12  1  0  0  0  0
  3  4  1  0  0  0  0
  3 11  1  0  0  0  0
  4 14  1  0  0  0  0
  4 13  1  0  0  0  0
  5 15  1  1  0  0  0
  5  4  1  0  0  0  0
  6  5  1  0  0  0  0
  6  7  2  0  0  0  0
  8  1  1  0  0  0  0
  9  2  1  0  0  0  0
 10  2  1  0  0  0  0
 16  6  1  0  0  0  0
 17 16  1  0  0  0  0
 17 26  1  1  0  0  0
 18 17  1  0  0  0  0
 18 28  1  0  0  0  0
 19 18  1  0  0  0  0
 19 30  1  0  0  0  0
 20 19  1  0  0  0  0
 20 21  2  0  0  0  0
 22 17  1  0  0  0  0
 23 22  2  0  0  0  0
 24 20  1  0  0  0  0
 25 16  1  0  0  0  0
 27 18  1  0  0  0  0
 29 19  1  0  0  0  0
 31 24  1  0  0  0  0
 32 43  1  0  0  0  0
 32 22  1  0  0  0  0
 33 44  1  6  0  0  0
 33 40  1  0  0  0  0
 33 32  1  0  0  0  0
 34 35  1  0  0  0  0
 34 33  1  0  0  0  0
 35 36  2  0  0  0  0
 36 47  1  0  0  0  0
 37 36  1  0  0  0  0
 37 48  1  0  0  0  0
 38 37  1  0  0  0  0
 39 38  2  0  0  0  0
 39 35  1  0  0  0  0
 40 42  1  0  0  0  0
 41 40  2  0  0  0  0
 45 34  1  0  0  0  0
 46 34  1  0  0  0  0
 49 38  1  0  0  0  0
M  END
$$$$
