PEI.pdb
 OpenBabel07022419033D

 51 51  0  0  1  0  0  0  0  0999 V2000
    3.7090   -0.6690    3.1840 N   0  0  0  0  0  0  0  0  0  0  0  0
    3.4540   -1.1480    4.5080 C   0  0  0  0  0  0  0  0  0  0  0  0
    2.0340   -1.5980    4.6040 C   0  0  0  0  0  0  0  0  0  0  0  0
    1.5460   -1.6240    3.1930 C   0  0  0  0  0  0  0  0  0  0  0  0
    2.7010   -1.2520    2.3210 C   0  0  1  0  0  0  0  0  0  0  0  0
    2.3780   -0.3700    1.1970 C   0  0  0  0  0  0  0  0  0  0  0  0
    2.9770    0.7310    1.1040 O   0  0  0  0  0  0  0  0  0  0  0  0
    4.6860   -0.9800    2.9140 H   0  0  0  0  0  0  0  0  0  0  0  0
    4.1140   -2.0300    4.7530 H   0  0  0  0  0  0  0  0  0  0  0  0
    3.6130   -0.3690    5.2950 H   0  0  0  0  0  0  0  0  0  0  0  0
    1.4040   -0.9340    5.2340 H   0  0  0  0  0  0  0  0  0  0  0  0
    1.9620   -2.6090    5.0880 H   0  0  0  0  0  0  0  0  0  0  0  0
    0.6690   -0.9660    3.1020 H   0  0  0  0  0  0  0  0  0  0  0  0
    1.2420   -2.6810    2.9560 H   0  0  0  0  0  0  0  0  0  0  0  0
    3.1750   -2.1780    1.8830 H   0  0  0  0  0  0  0  0  0  0  0  0
    1.4320   -0.6760    0.2020 N   0  0  0  0  0  0  0  0  0  0  0  0
    1.0800    0.1510   -0.9180 C   0  0  1  0  0  0  0  0  0  0  0  0
    1.3700   -0.4930   -2.2220 C   0  0  0  0  0  0  0  0  0  0  0  0
    1.0330    0.3080   -3.4280 C   0  0  0  0  0  0  0  0  0  0  0  0
    1.3920   -0.4820   -4.6600 C   0  0  0  0  0  0  0  0  0  0  0  0
    1.1980    0.0100   -5.7930 O   0  0  0  0  0  0  0  0  0  0  0  0
   -0.3240    0.5870   -0.7250 C   0  0  0  0  0  0  0  0  0  0  0  0
   -0.8980    1.3350   -1.5530 O   0  0  0  0  0  0  0  0  0  0  0  0
    1.9290   -1.7350   -4.5500 O   0  0  0  0  0  0  0  0  0  0  0  0
    0.9400   -1.6000    0.2950 H   0  0  0  0  0  0  0  0  0  0  0  0
    1.7140    1.0800   -0.8400 H   0  0  0  0  0  0  0  0  0  0  0  0
    0.8520   -1.4750   -2.3150 H   0  0  0  0  0  0  0  0  0  0  0  0
    2.4920   -0.6360   -2.2520 H   0  0  0  0  0  0  0  0  0  0  0  0
    1.6200    1.2510   -3.5120 H   0  0  0  0  0  0  0  0  0  0  0  0
   -0.0200    0.5780   -3.5530 H   0  0  0  0  0  0  0  0  0  0  0  0
    2.0990   -2.3710   -5.3320 H   0  0  0  0  0  0  0  0  0  0  0  0
   -2.2110   -2.4850    1.4390 C   0  0  0  0  0  0  0  0  0  0  0  0
   -3.3180   -1.5210    1.5850 C   0  0  0  0  0  0  0  0  0  0  0  0
   -3.4770   -0.4870    0.5290 C   0  0  2  0  0  0  0  0  0  0  0  0
   -3.7130   -1.0310   -0.8510 C   0  0  0  0  0  0  0  0  0  0  0  0
   -2.4390    0.6170    0.5600 C   0  0  2  0  0  0  0  0  0  0  0  0
   -1.0960    0.1840    0.4000 N   0  0  0  0  0  0  0  0  0  0  0  0
   -2.6210    1.4640    1.7890 C   0  0  0  0  0  0  0  0  0  0  0  0
   -3.7580    1.9220    2.0660 O   0  0  0  0  0  0  0  0  0  0  0  0
   -1.5790    1.7720    2.6490 O   0  0  0  0  0  0  0  0  0  0  0  0
   -2.6320   -3.5270    1.5620 H   0  0  0  0  0  0  0  0  0  0  0  0
   -1.4270   -2.4340    2.2350 H   0  0  0  0  0  0  0  0  0  0  0  0
   -1.6970   -2.5040    0.4660 H   0  0  0  0  0  0  0  0  0  0  0  0
   -3.2170   -0.9900    2.5550 H   0  0  0  0  0  0  0  0  0  0  0  0
   -4.3050   -2.0550    1.6650 H   0  0  0  0  0  0  0  0  0  0  0  0
   -4.4420    0.0530    0.7900 H   0  0  0  0  0  0  0  0  0  0  0  0
   -4.7980   -1.2170   -1.0350 H   0  0  0  0  0  0  0  0  0  0  0  0
   -3.3370   -0.2900   -1.6140 H   0  0  0  0  0  0  0  0  0  0  0  0
   -3.1940   -1.9680   -1.0620 H   0  0  0  0  0  0  0  0  0  0  0  0
   -2.7100    1.2880   -0.2920 H   0  0  0  0  0  0  0  0  0  0  0  0
   -0.6750   -0.4460    1.1410 H   0  0  0  0  0  0  0  0  0  0  0  0
  1  2  1  0  0  0  0
  2  3  1  0  0  0  0
  2  9  1  0  0  0  0
  2 10  1  0  0  0  0
  3 12  1  0  0  0  0
  3 11  1  0  0  0  0
  4  3  1  0  0  0  0
  5 15  1  6  0  0  0
  5  1  1  0  0  0  0
  5  4  1  0  0  0  0
  6  5  1  0  0  0  0
  7  6  2  0  0  0  0
  8  1  1  0  0  0  0
 13  4  1  0  0  0  0
 14  4  1  0  0  0  0
 16 25  1  0  0  0  0
 16  6  1  0  0  0  0
 17 26  1  1  0  0  0
 17 22  1  0  0  0  0
 17 16  1  0  0  0  0
 18 17  1  0  0  0  0
 19 18  1  0  0  0  0
 20 24  1  0  0  0  0
 20 19  1  0  0  0  0
 21 20  2  0  0  0  0
 22 37  1  0  0  0  0
 23 22  2  0  0  0  0
 27 18  1  0  0  0  0
 28 18  1  0  0  0  0
 29 19  1  0  0  0  0
 30 19  1  0  0  0  0
 31 24  1  0  0  0  0
 32 41  1  0  0  0  0
 32 33  1  0  0  0  0
 32 42  1  0  0  0  0
 33 45  1  0  0  0  0
 33 44  1  0  0  0  0
 34 36  1  0  0  0  0
 34 46  1  1  0  0  0
 34 33  1  0  0  0  0
 35 34  1  0  0  0  0
 36 50  1  6  0  0  0
 36 38  1  0  0  0  0
 37 36  1  0  0  0  0
 37 51  1  0  0  0  0
 38 39  2  0  0  0  0
 38 40  1  0  0  0  0
 43 32  1  0  0  0  0
 47 35  1  0  0  0  0
 48 35  1  0  0  0  0
 49 35  1  0  0  0  0
M  END
$$$$
