PEN.pdb
 OpenBabel07022419033D

 46 46  0  0  1  0  0  0  0  0999 V2000
    1.1980   -3.2180    0.3330 N   0  0  0  0  0  0  0  0  0  0  0  0
    1.3100   -4.4520   -0.3970 C   0  0  0  0  0  0  0  0  0  0  0  0
    2.3060   -4.1510   -1.5120 C   0  0  0  0  0  0  0  0  0  0  0  0
    3.2660   -3.2090   -0.8230 C   0  0  0  0  0  0  0  0  0  0  0  0
    2.4640   -2.5490    0.2470 C   0  0  1  0  0  0  0  0  0  0  0  0
    2.3600   -1.0890    0.1200 C   0  0  0  0  0  0  0  0  0  0  0  0
    3.3830   -0.4020    0.0370 O   0  0  0  0  0  0  0  0  0  0  0  0
    0.8930   -3.4230    1.3100 H   0  0  0  0  0  0  0  0  0  0  0  0
    0.3430   -4.7460   -0.8550 H   0  0  0  0  0  0  0  0  0  0  0  0
    1.7460   -5.2830    0.1850 H   0  0  0  0  0  0  0  0  0  0  0  0
    1.7430   -3.6680   -2.3220 H   0  0  0  0  0  0  0  0  0  0  0  0
    2.7920   -5.0950   -1.8410 H   0  0  0  0  0  0  0  0  0  0  0  0
    3.7450   -2.5030   -1.5360 H   0  0  0  0  0  0  0  0  0  0  0  0
    4.0960   -3.8400   -0.4270 H   0  0  0  0  0  0  0  0  0  0  0  0
    2.9910   -2.7450    1.2240 H   0  0  0  0  0  0  0  0  0  0  0  0
    1.0890   -0.4050    0.0880 N   0  0  0  0  0  0  0  0  0  0  0  0
    0.9980    1.0220   -0.0360 C   0  0  1  0  0  0  0  0  0  0  0  0
    0.2950    1.4490   -1.3060 C   0  0  0  0  0  0  0  0  0  0  0  0
   -1.1330    0.8930   -1.3420 C   0  0  0  0  0  0  0  0  0  0  0  0
   -1.8250    1.3060   -2.5820 C   0  0  0  0  0  0  0  0  0  0  0  0
   -1.2790    2.0110   -3.4510 O   0  0  0  0  0  0  0  0  0  0  0  0
    0.3660    1.6580    1.1350 C   0  0  0  0  0  0  0  0  0  0  0  0
    0.2340    2.9030    1.1470 O   0  0  0  0  0  0  0  0  0  0  0  0
   -3.1270    0.8900   -2.7770 O   0  0  0  0  0  0  0  0  0  0  0  0
    0.2530   -1.0290    0.1610 H   0  0  0  0  0  0  0  0  0  0  0  0
    2.0320    1.4300   -0.1020 H   0  0  0  0  0  0  0  0  0  0  0  0
    0.1870    2.5510   -1.3530 H   0  0  0  0  0  0  0  0  0  0  0  0
    0.8500    1.1440   -2.2140 H   0  0  0  0  0  0  0  0  0  0  0  0
   -1.1260   -0.2200   -1.3360 H   0  0  0  0  0  0  0  0  0  0  0  0
   -1.7240    1.2990   -0.4960 H   0  0  0  0  0  0  0  0  0  0  0  0
   -3.6850    1.1500   -3.5790 H   0  0  0  0  0  0  0  0  0  0  0  0
   -3.6620   -0.6370    4.0670 N   0  0  0  0  0  0  0  0  0  0  0  0
   -2.3240   -0.1450    3.8710 C   0  0  0  0  0  0  0  0  0  0  0  0
   -1.3320   -0.9020    3.9500 O   0  0  0  0  0  0  0  0  0  0  0  0
   -2.1500    1.2920    3.5720 C   0  0  0  0  0  0  0  0  0  0  0  0
   -0.7020    1.6120    3.3500 C   0  0  2  0  0  0  0  0  0  0  0  0
   -0.0980    0.9060    2.2490 N   0  0  0  0  0  0  0  0  0  0  0  0
    0.0140    1.3630    4.6270 C   0  0  0  0  0  0  0  0  0  0  0  0
   -0.4200    1.9240    5.6560 O   0  0  0  0  0  0  0  0  0  0  0  0
    1.1240    0.5490    4.7220 O   0  0  0  0  0  0  0  0  0  0  0  0
   -4.4220   -0.4080    3.3970 H   0  0  0  0  0  0  0  0  0  0  0  0
   -3.8940   -1.2320    4.8830 H   0  0  0  0  0  0  0  0  0  0  0  0
   -2.7790    1.5640    2.6820 H   0  0  0  0  0  0  0  0  0  0  0  0
   -2.5340    1.8830    4.4230 H   0  0  0  0  0  0  0  0  0  0  0  0
   -0.6580    2.7040    3.1280 H   0  0  0  0  0  0  0  0  0  0  0  0
    0.0070   -0.1580    2.2580 H   0  0  0  0  0  0  0  0  0  0  0  0
  1  8  1  0  0  0  0
  2 10  1  0  0  0  0
  2  1  1  0  0  0  0
  3  4  1  0  0  0  0
  3  2  1  0  0  0  0
  4 14  1  0  0  0  0
  4  5  1  0  0  0  0
  5  1  1  0  0  0  0
  5 15  1  1  0  0  0
  6  5  1  0  0  0  0
  7  6  2  0  0  0  0
  9  2  1  0  0  0  0
 11  3  1  0  0  0  0
 12  3  1  0  0  0  0
 13  4  1  0  0  0  0
 16  6  1  0  0  0  0
 16 25  1  0  0  0  0
 17 26  1  6  0  0  0
 17 16  1  0  0  0  0
 17 22  1  0  0  0  0
 18 17  1  0  0  0  0
 19 29  1  0  0  0  0
 19 18  1  0  0  0  0
 19 30  1  0  0  0  0
 20 19  1  0  0  0  0
 21 20  2  0  0  0  0
 22 23  2  0  0  0  0
 22 37  1  0  0  0  0
 24 20  1  0  0  0  0
 27 18  1  0  0  0  0
 28 18  1  0  0  0  0
 31 24  1  0  0  0  0
 32 42  1  0  0  0  0
 33 34  2  0  0  0  0
 33 32  1  0  0  0  0
 35 33  1  0  0  0  0
 35 44  1  0  0  0  0
 36 45  1  6  0  0  0
 36 35  1  0  0  0  0
 36 38  1  0  0  0  0
 37 46  1  0  0  0  0
 37 36  1  0  0  0  0
 38 40  2  0  0  0  0
 38 39  1  0  0  0  0
 41 32  1  0  0  0  0
 43 35  1  0  0  0  0
M  END
$$$$
