PES.pdb
 OpenBabel07022419033D

 43 43  0  0  1  0  0  0  0  0999 V2000
    3.2970   -2.8440   -0.2450 N   0  0  0  0  0  0  0  0  0  0  0  0
    3.1170   -4.2400    0.1100 C   0  0  0  0  0  0  0  0  0  0  0  0
    2.1670   -4.2070    1.2670 C   0  0  0  0  0  0  0  0  0  0  0  0
    1.4180   -2.9240    1.0760 C   0  0  0  0  0  0  0  0  0  0  0  0
    1.9630   -2.3440   -0.2330 C   0  0  1  0  0  0  0  0  0  0  0  0
    1.8850   -0.8700   -0.1010 C   0  0  0  0  0  0  0  0  0  0  0  0
    2.9560   -0.2190   -0.0140 O   0  0  0  0  0  0  0  0  0  0  0  0
    3.9310   -2.4120    0.4370 H   0  0  0  0  0  0  0  0  0  0  0  0
    2.6590   -4.8350   -0.7010 H   0  0  0  0  0  0  0  0  0  0  0  0
    4.0780   -4.7360    0.3550 H   0  0  0  0  0  0  0  0  0  0  0  0
    2.7020   -4.2280    2.2340 H   0  0  0  0  0  0  0  0  0  0  0  0
    1.4390   -5.0530    1.2570 H   0  0  0  0  0  0  0  0  0  0  0  0
    0.3340   -3.0200    1.0650 H   0  0  0  0  0  0  0  0  0  0  0  0
    1.6890   -2.2230    1.9120 H   0  0  0  0  0  0  0  0  0  0  0  0
    1.4150   -2.7250   -1.1080 H   0  0  0  0  0  0  0  0  0  0  0  0
    0.6720   -0.1570   -0.0680 N   0  0  0  0  0  0  0  0  0  0  0  0
    0.5320    1.2580    0.0580 C   0  0  1  0  0  0  0  0  0  0  0  0
   -0.2300    1.8580   -1.1130 C   0  0  0  0  0  0  0  0  0  0  0  0
    0.5030    1.5760   -2.4210 C   0  0  0  0  0  0  0  0  0  0  0  0
   -0.2590    2.1720   -3.5480 C   0  0  0  0  0  0  0  0  0  0  0  0
    0.1160    2.0910   -4.7360 O   0  0  0  0  0  0  0  0  0  0  0  0
   -0.2390    1.5430    1.2960 C   0  0  0  0  0  0  0  0  0  0  0  0
   -0.4730    2.7280    1.5920 O   0  0  0  0  0  0  0  0  0  0  0  0
   -1.4460    2.8550   -3.3040 O   0  0  0  0  0  0  0  0  0  0  0  0
   -0.2120   -0.7230   -0.1420 H   0  0  0  0  0  0  0  0  0  0  0  0
    1.4780    1.8050    0.1330 H   0  0  0  0  0  0  0  0  0  0  0  0
   -1.2490    1.4290   -1.1880 H   0  0  0  0  0  0  0  0  0  0  0  0
   -0.3200    2.9580   -1.0070 H   0  0  0  0  0  0  0  0  0  0  0  0
    0.6470    0.4890   -2.5660 H   0  0  0  0  0  0  0  0  0  0  0  0
    1.5130    2.0350   -2.3980 H   0  0  0  0  0  0  0  0  0  0  0  0
   -1.8120    3.5780   -3.9070 H   0  0  0  0  0  0  0  0  0  0  0  0
   -2.8180   -1.2270    3.0710 O   0  0  0  0  0  0  0  0  0  0  0  0
   -2.8400    0.1410    3.2710 C   0  0  0  0  0  0  0  0  0  0  0  0
   -1.4600    0.7320    3.3540 C   0  0  2  0  0  0  0  0  0  0  0  0
   -0.7060    0.4980    2.1390 N   0  0  0  0  0  0  0  0  0  0  0  0
   -0.7260    0.2500    4.5390 C   0  0  0  0  0  0  0  0  0  0  0  0
   -1.2290    0.3720    5.6710 O   0  0  0  0  0  0  0  0  0  0  0  0
    0.5130   -0.3310    4.3760 O   0  0  0  0  0  0  0  0  0  0  0  0
   -1.8810   -1.5310    3.1800 H   0  0  0  0  0  0  0  0  0  0  0  0
   -3.4330    0.6570    2.5020 H   0  0  0  0  0  0  0  0  0  0  0  0
   -3.3470    0.3190    4.2420 H   0  0  0  0  0  0  0  0  0  0  0  0
   -1.5950    1.8380    3.4930 H   0  0  0  0  0  0  0  0  0  0  0  0
   -0.5190   -0.5190    1.9070 H   0  0  0  0  0  0  0  0  0  0  0  0
  1  5  1  0  0  0  0
  1  2  1  0  0  0  0
  1  8  1  0  0  0  0
  2 10  1  0  0  0  0
  2  3  1  0  0  0  0
  3 11  1  0  0  0  0
  4  3  1  0  0  0  0
  4 14  1  0  0  0  0
  5 15  1  6  0  0  0
  5  6  1  0  0  0  0
  5  4  1  0  0  0  0
  6 16  1  0  0  0  0
  6  7  2  0  0  0  0
  9  2  1  0  0  0  0
 12  3  1  0  0  0  0
 13  4  1  0  0  0  0
 16 17  1  0  0  0  0
 17 26  1  1  0  0  0
 17 22  1  0  0  0  0
 18 28  1  0  0  0  0
 18 17  1  0  0  0  0
 19 30  1  0  0  0  0
 19 18  1  0  0  0  0
 20 24  1  0  0  0  0
 20 19  1  0  0  0  0
 21 20  2  0  0  0  0
 22 23  2  0  0  0  0
 22 35  1  0  0  0  0
 25 16  1  0  0  0  0
 27 18  1  0  0  0  0
 29 19  1  0  0  0  0
 31 24  1  0  0  0  0
 32 39  1  0  0  0  0
 32 33  1  0  0  0  0
 33 34  1  0  0  0  0
 33 41  1  0  0  0  0
 34 42  1  1  0  0  0
 34 36  1  0  0  0  0
 35 34  1  0  0  0  0
 36 37  1  0  0  0  0
 38 36  2  0  0  0  0
 40 33  1  0  0  0  0
 43 35  1  0  0  0  0
M  END
$$$$
