PET.pdb
 OpenBabel07022419033D

 46 46  0  0  1  0  0  0  0  0999 V2000
    1.4730   -2.7350    4.4150 N   0  0  0  0  0  0  0  0  0  0  0  0
    2.2890   -2.7880    5.6020 C   0  0  0  0  0  0  0  0  0  0  0  0
    3.5460   -1.9960    5.2920 C   0  0  0  0  0  0  0  0  0  0  0  0
    3.2670   -1.3580    3.9380 C   0  0  0  0  0  0  0  0  0  0  0  0
    1.7580   -1.4060    3.9010 C   0  0  1  0  0  0  0  0  0  0  0  0
    1.2650   -1.2180    2.5270 C   0  0  0  0  0  0  0  0  0  0  0  0
    0.6650   -2.1950    2.0000 O   0  0  0  0  0  0  0  0  0  0  0  0
    0.4730   -2.8420    4.7140 H   0  0  0  0  0  0  0  0  0  0  0  0
    1.7520   -2.3210    6.4700 H   0  0  0  0  0  0  0  0  0  0  0  0
    2.5350   -3.8450    5.8810 H   0  0  0  0  0  0  0  0  0  0  0  0
    4.4470   -2.6110    5.2870 H   0  0  0  0  0  0  0  0  0  0  0  0
    3.6520   -1.1250    6.0090 H   0  0  0  0  0  0  0  0  0  0  0  0
    3.6230   -0.2950    3.9160 H   0  0  0  0  0  0  0  0  0  0  0  0
    3.7380   -1.9240    3.1160 H   0  0  0  0  0  0  0  0  0  0  0  0
    1.3750   -0.6590    4.6210 H   0  0  0  0  0  0  0  0  0  0  0  0
    1.4600   -0.0010    1.8440 N   0  0  0  0  0  0  0  0  0  0  0  0
    0.9620    0.1900    0.4710 C   0  0  1  0  0  0  0  0  0  0  0  0
    1.5170   -0.8400   -0.4370 C   0  0  0  0  0  0  0  0  0  0  0  0
    1.0430   -0.7280   -1.8630 C   0  0  0  0  0  0  0  0  0  0  0  0
    1.7980   -1.7350   -2.7090 C   0  0  0  0  0  0  0  0  0  0  0  0
    1.3770   -2.8890   -2.7660 O   0  0  0  0  0  0  0  0  0  0  0  0
   -0.4380    0.4580    0.5580 C   0  0  0  0  0  0  0  0  0  0  0  0
   -0.9910    0.3740    1.7220 O   0  0  0  0  0  0  0  0  0  0  0  0
    2.9300   -1.3420   -3.3930 O   0  0  0  0  0  0  0  0  0  0  0  0
    1.9550    0.7940    2.2800 H   0  0  0  0  0  0  0  0  0  0  0  0
    1.4660    1.1730    0.1230 H   0  0  0  0  0  0  0  0  0  0  0  0
    2.6370   -0.6410   -0.4920 H   0  0  0  0  0  0  0  0  0  0  0  0
    1.4650   -1.8990   -0.0750 H   0  0  0  0  0  0  0  0  0  0  0  0
    1.2200    0.2770   -2.2320 H   0  0  0  0  0  0  0  0  0  0  0  0
   -0.0410   -1.0250   -1.9430 H   0  0  0  0  0  0  0  0  0  0  0  0
    3.3170   -1.8390   -4.1770 H   0  0  0  0  0  0  0  0  0  0  0  0
   -3.5220    1.6500   -2.4660 C   0  0  0  0  0  0  0  0  0  0  0  0
   -3.3900    2.1140   -1.0140 C   0  0  1  0  0  0  0  0  0  0  0  0
   -4.7240    2.3010   -0.5870 O   0  0  0  0  0  0  0  0  0  0  0  0
   -2.7550    1.0780   -0.1660 C   0  0  2  0  0  0  0  0  0  0  0  0
   -1.3490    0.8280   -0.4880 N   0  0  0  0  0  0  0  0  0  0  0  0
   -3.5670   -0.1800   -0.2030 C   0  0  0  0  0  0  0  0  0  0  0  0
   -4.7830   -0.0780    0.0900 O   0  0  0  0  0  0  0  0  0  0  0  0
   -3.0690   -1.4330   -0.5300 O   0  0  0  0  0  0  0  0  0  0  0  0
   -4.4730    2.0160   -2.9250 H   0  0  0  0  0  0  0  0  0  0  0  0
   -2.7280    2.1700   -3.0340 H   0  0  0  0  0  0  0  0  0  0  0  0
   -3.5100    0.5600   -2.5650 H   0  0  0  0  0  0  0  0  0  0  0  0
   -2.8710    3.0620   -0.9500 H   0  0  0  0  0  0  0  0  0  0  0  0
   -5.2170    2.8570   -1.2380 H   0  0  0  0  0  0  0  0  0  0  0  0
   -2.7690    1.3760    0.8970 H   0  0  0  0  0  0  0  0  0  0  0  0
   -0.9670    0.9260   -1.4450 H   0  0  0  0  0  0  0  0  0  0  0  0
  1  8  1  0  0  0  0
  1  2  1  0  0  0  0
  2 10  1  0  0  0  0
  2  9  1  0  0  0  0
  3  2  1  0  0  0  0
  3 12  1  0  0  0  0
  4  3  1  0  0  0  0
  5  4  1  0  0  0  0
  5  1  1  0  0  0  0
  5 15  1  1  0  0  0
  6  5  1  0  0  0  0
  7  6  2  0  0  0  0
 11  3  1  0  0  0  0
 13  4  1  0  0  0  0
 14  4  1  0  0  0  0
 16 25  1  0  0  0  0
 16  6  1  0  0  0  0
 17 26  1  6  0  0  0
 17 22  1  0  0  0  0
 17 16  1  0  0  0  0
 18 28  1  0  0  0  0
 18 17  1  0  0  0  0
 19 18  1  0  0  0  0
 20 19  1  0  0  0  0
 21 20  2  0  0  0  0
 22 23  2  0  0  0  0
 24 20  1  0  0  0  0
 27 18  1  0  0  0  0
 29 19  1  0  0  0  0
 30 19  1  0  0  0  0
 31 24  1  0  0  0  0
 32 33  1  0  0  0  0
 33 43  1  1  0  0  0
 33 34  1  0  0  0  0
 33 35  1  0  0  0  0
 35 45  1  1  0  0  0
 36 35  1  0  0  0  0
 36 22  1  0  0  0  0
 37 35  1  0  0  0  0
 37 38  1  0  0  0  0
 39 37  2  0  0  0  0
 40 32  1  0  0  0  0
 41 32  1  0  0  0  0
 42 32  1  0  0  0  0
 44 34  1  0  0  0  0
 46 36  1  0  0  0  0
M  END
$$$$
