PEV.pdb
 OpenBabel07022419033D

 48 48  0  0  1  0  0  0  0  0999 V2000
    2.8280   -3.3580    0.8480 N   0  0  0  0  0  0  0  0  0  0  0  0
    3.3500   -4.2220    1.8900 C   0  0  0  0  0  0  0  0  0  0  0  0
    3.5390   -3.3850    3.1100 C   0  0  0  0  0  0  0  0  0  0  0  0
    3.0680   -2.0110    2.6830 C   0  0  0  0  0  0  0  0  0  0  0  0
    2.0550   -2.3980    1.6020 C   0  0  1  0  0  0  0  0  0  0  0  0
    1.6750   -1.2130    0.7890 C   0  0  0  0  0  0  0  0  0  0  0  0
    2.0590   -1.2020   -0.3920 O   0  0  0  0  0  0  0  0  0  0  0  0
    2.2760   -3.9210    0.1860 H   0  0  0  0  0  0  0  0  0  0  0  0
    2.5900   -5.0170    2.0620 H   0  0  0  0  0  0  0  0  0  0  0  0
    4.3040   -4.6610    1.5750 H   0  0  0  0  0  0  0  0  0  0  0  0
    4.5820   -3.3710    3.4830 H   0  0  0  0  0  0  0  0  0  0  0  0
    2.8310   -3.7320    3.8990 H   0  0  0  0  0  0  0  0  0  0  0  0
    2.5940   -1.4520    3.5000 H   0  0  0  0  0  0  0  0  0  0  0  0
    3.9390   -1.4850    2.2280 H   0  0  0  0  0  0  0  0  0  0  0  0
    1.2090   -2.8550    2.1280 H   0  0  0  0  0  0  0  0  0  0  0  0
    0.9160   -0.1790    1.3780 N   0  0  0  0  0  0  0  0  0  0  0  0
    0.4870    1.0230    0.7540 C   0  0  1  0  0  0  0  0  0  0  0  0
    1.3010    1.4450   -0.4560 C   0  0  0  0  0  0  0  0  0  0  0  0
    2.7370    1.7520   -0.1110 C   0  0  0  0  0  0  0  0  0  0  0  0
    3.4410    2.1160   -1.3750 C   0  0  0  0  0  0  0  0  0  0  0  0
    2.8340    2.1250   -2.4510 O   0  0  0  0  0  0  0  0  0  0  0  0
   -0.9490    1.1390    0.4850 C   0  0  0  0  0  0  0  0  0  0  0  0
   -1.4260    2.1840   -0.0730 O   0  0  0  0  0  0  0  0  0  0  0  0
    4.8060    2.4550   -1.3600 O   0  0  0  0  0  0  0  0  0  0  0  0
    0.6540   -0.3520    2.4040 H   0  0  0  0  0  0  0  0  0  0  0  0
    0.7660    1.8650    1.4920 H   0  0  0  0  0  0  0  0  0  0  0  0
    1.2750    0.7530   -1.2910 H   0  0  0  0  0  0  0  0  0  0  0  0
    0.8720    2.4140   -0.8300 H   0  0  0  0  0  0  0  0  0  0  0  0
    3.2110    0.9310    0.4330 H   0  0  0  0  0  0  0  0  0  0  0  0
    2.7320    2.6750    0.5590 H   0  0  0  0  0  0  0  0  0  0  0  0
    5.2210    2.9560   -2.1230 H   0  0  0  0  0  0  0  0  0  0  0  0
   -3.5110   -2.1280    0.1780 C   0  0  0  0  0  0  0  0  0  0  0  0
   -3.6950   -0.7800   -0.4350 C   0  0  0  0  0  0  0  0  0  0  0  0
   -5.0750   -0.5550   -0.9790 C   0  0  0  0  0  0  0  0  0  0  0  0
   -3.2830    0.3350    0.5130 C   0  0  2  0  0  0  0  0  0  0  0  0
   -1.8870    0.1240    0.8190 N   0  0  0  0  0  0  0  0  0  0  0  0
   -4.1080    0.3200    1.7450 C   0  0  0  0  0  0  0  0  0  0  0  0
   -3.5300    0.1370    2.8430 O   0  0  0  0  0  0  0  0  0  0  0  0
   -5.4660    0.4970    1.7270 O   0  0  0  0  0  0  0  0  0  0  0  0
   -4.2370   -2.8310   -0.3190 H   0  0  0  0  0  0  0  0  0  0  0  0
   -3.6420   -2.1480    1.2690 H   0  0  0  0  0  0  0  0  0  0  0  0
   -2.5050   -2.5390   -0.0450 H   0  0  0  0  0  0  0  0  0  0  0  0
   -2.9870   -0.7130   -1.3090 H   0  0  0  0  0  0  0  0  0  0  0  0
   -5.1200    0.5020   -1.3440 H   0  0  0  0  0  0  0  0  0  0  0  0
   -5.8710   -0.6910   -0.2470 H   0  0  0  0  0  0  0  0  0  0  0  0
   -5.1850   -1.1890   -1.8810 H   0  0  0  0  0  0  0  0  0  0  0  0
   -3.4630    1.3180    0.0280 H   0  0  0  0  0  0  0  0  0  0  0  0
   -1.5850   -0.7470    1.2700 H   0  0  0  0  0  0  0  0  0  0  0  0
  1  5  1  0  0  0  0
  1  2  1  0  0  0  0
  2  9  1  0  0  0  0
  2  3  1  0  0  0  0
  3 11  1  0  0  0  0
  3 12  1  0  0  0  0
  4  3  1  0  0  0  0
  4 13  1  0  0  0  0
  5 15  1  1  0  0  0
  5  4  1  0  0  0  0
  6 16  1  0  0  0  0
  6  5  1  0  0  0  0
  7  6  2  0  0  0  0
  8  1  1  0  0  0  0
 10  2  1  0  0  0  0
 14  4  1  0  0  0  0
 16 25  1  0  0  0  0
 17 16  1  0  0  0  0
 17 26  1  1  0  0  0
 18 19  1  0  0  0  0
 18 17  1  0  0  0  0
 19 29  1  0  0  0  0
 19 30  1  0  0  0  0
 20 24  1  0  0  0  0
 20 19  1  0  0  0  0
 21 20  2  0  0  0  0
 22 17  1  0  0  0  0
 22 36  1  0  0  0  0
 23 22  2  0  0  0  0
 27 18  1  0  0  0  0
 28 18  1  0  0  0  0
 31 24  1  0  0  0  0
 32 41  1  0  0  0  0
 33 32  1  0  0  0  0
 33 35  1  0  0  0  0
 34 33  1  0  0  0  0
 34 45  1  0  0  0  0
 35 47  1  6  0  0  0
 35 36  1  0  0  0  0
 35 37  1  0  0  0  0
 36 48  1  0  0  0  0
 37 38  1  0  0  0  0
 39 37  2  0  0  0  0
 40 32  1  0  0  0  0
 42 32  1  0  0  0  0
 43 33  1  0  0  0  0
 44 34  1  0  0  0  0
 46 34  1  0  0  0  0
M  END
$$$$
