PFD.pdb
 OpenBabel07022419053D

 49 50  0  0  1  0  0  0  0  0999 V2000
    3.3740   -2.1170    2.3750 N   0  0  0  0  0  0  0  0  0  0  0  0
    2.5960   -3.2350    2.8540 C   0  0  0  0  0  0  0  0  0  0  0  0
    2.3980   -4.0540    1.5790 C   0  0  0  0  0  0  0  0  0  0  0  0
    2.2440   -2.9710    0.5540 C   0  0  0  0  0  0  0  0  0  0  0  0
    2.6450   -1.6790    1.2070 C   0  0  1  0  0  0  0  0  0  0  0  0
    1.5240   -0.8350    1.6320 C   0  0  0  0  0  0  0  0  0  0  0  0
    1.3320   -0.5950    2.8500 O   0  0  0  0  0  0  0  0  0  0  0  0
    3.4870   -1.3650    3.0900 H   0  0  0  0  0  0  0  0  0  0  0  0
    3.1440   -3.8360    3.6110 H   0  0  0  0  0  0  0  0  0  0  0  0
    1.6360   -2.8550    3.2320 H   0  0  0  0  0  0  0  0  0  0  0  0
    1.4930   -4.6890    1.6760 H   0  0  0  0  0  0  0  0  0  0  0  0
    3.2760   -4.6920    1.4500 H   0  0  0  0  0  0  0  0  0  0  0  0
    2.9910   -3.1870   -0.2600 H   0  0  0  0  0  0  0  0  0  0  0  0
    1.2240   -2.9300    0.1240 H   0  0  0  0  0  0  0  0  0  0  0  0
    3.3380   -1.0990    0.5190 H   0  0  0  0  0  0  0  0  0  0  0  0
    0.5930   -0.2390    0.7350 N   0  0  0  0  0  0  0  0  0  0  0  0
   -0.4970    0.5870    1.2150 C   0  0  1  0  0  0  0  0  0  0  0  0
   -0.2590    1.9720    0.5950 C   0  0  0  0  0  0  0  0  0  0  0  0
    1.0250    2.5330    1.0010 C   0  0  0  0  0  0  0  0  0  0  0  0
    2.1530    2.2960    0.2580 C   0  0  0  0  0  0  0  0  0  0  0  0
    3.3600    2.8400    0.6690 C   0  0  0  0  0  0  0  0  0  0  0  0
    3.4530    3.6130    1.8070 C   0  0  0  0  0  0  0  0  0  0  0  0
    2.3140    3.8530    2.5580 C   0  0  0  0  0  0  0  0  0  0  0  0
    1.1140    3.3020    2.1340 C   0  0  0  0  0  0  0  0  0  0  0  0
   -1.8080    0.1220    0.6510 C   0  0  0  0  0  0  0  0  0  0  0  0
   -2.8860    0.6980    0.9450 O   0  0  0  0  0  0  0  0  0  0  0  0
    0.7100   -0.4080   -0.2830 H   0  0  0  0  0  0  0  0  0  0  0  0
   -0.5020    0.6390    2.3090 H   0  0  0  0  0  0  0  0  0  0  0  0
   -0.3240    1.8310   -0.5140 H   0  0  0  0  0  0  0  0  0  0  0  0
   -1.1260    2.5980    0.8730 H   0  0  0  0  0  0  0  0  0  0  0  0
    2.1480    1.6930   -0.6530 H   0  0  0  0  0  0  0  0  0  0  0  0
    4.2450    2.6490    0.0780 H   0  0  0  0  0  0  0  0  0  0  0  0
    4.4100    4.0340    2.1180 H   0  0  0  0  0  0  0  0  0  0  0  0
    2.3670    4.4570    3.4540 H   0  0  0  0  0  0  0  0  0  0  0  0
    0.2510    3.5300    2.7720 H   0  0  0  0  0  0  0  0  0  0  0  0
   -1.8930   -0.9800   -0.2340 N   0  0  0  0  0  0  0  0  0  0  0  0
   -3.1910   -1.3920   -0.7540 C   0  0  1  0  0  0  0  0  0  0  0  0
   -3.1560   -1.4820   -2.2680 C   0  0  0  0  0  0  0  0  0  0  0  0
   -4.4900   -1.8650   -2.7550 C   0  0  0  0  0  0  0  0  0  0  0  0
   -4.6330   -2.2500   -3.9670 O   0  0  0  0  0  0  0  0  0  0  0  0
   -3.3960   -2.7790   -0.2580 C   0  0  0  0  0  0  0  0  0  0  0  0
   -4.4030   -3.4540   -0.4890 O   0  0  0  0  0  0  0  0  0  0  0  0
   -5.6640   -1.8540   -2.0190 O   0  0  0  0  0  0  0  0  0  0  0  0
   -2.4040   -3.3860    0.5210 O   0  0  0  0  0  0  0  0  0  0  0  0
   -1.0570   -1.5170   -0.5340 H   0  0  0  0  0  0  0  0  0  0  0  0
   -4.0150   -0.7780   -0.3890 H   0  0  0  0  0  0  0  0  0  0  0  0
   -2.7750   -0.5480   -2.7270 H   0  0  0  0  0  0  0  0  0  0  0  0
   -2.4690   -2.3470   -2.5000 H   0  0  0  0  0  0  0  0  0  0  0  0
   -6.5730   -2.0960   -2.4000 H   0  0  0  0  0  0  0  0  0  0  0  0
  1  2  1  0  0  0  0
  1  8  1  0  0  0  0
  2 10  1  0  0  0  0
  2  9  1  0  0  0  0
  3 11  1  0  0  0  0
  3  2  1  0  0  0  0
  4  5  1  0  0  0  0
  4  3  1  0  0  0  0
  5 15  1  6  0  0  0
  5  6  1  0  0  0  0
  5  1  1  0  0  0  0
  6  7  2  0  0  0  0
 12  3  1  0  0  0  0
 13  4  1  0  0  0  0
 14  4  1  0  0  0  0
 16 17  1  0  0  0  0
 16  6  1  0  0  0  0
 17 28  1  1  0  0  0
 18 30  1  0  0  0  0
 18 19  1  0  0  0  0
 18 17  1  0  0  0  0
 19 24  1  0  0  0  0
 20 21  1  0  0  0  0
 20 19  2  0  0  0  0
 21 22  2  0  0  0  0
 22 33  1  0  0  0  0
 22 23  1  0  0  0  0
 23 34  1  0  0  0  0
 24 23  2  0  0  0  0
 24 35  1  0  0  0  0
 25 26  2  0  0  0  0
 25 17  1  0  0  0  0
 27 16  1  0  0  0  0
 29 18  1  0  0  0  0
 31 20  1  0  0  0  0
 32 21  1  0  0  0  0
 36 25  1  0  0  0  0
 37 46  1  1  0  0  0
 37 41  1  0  0  0  0
 37 36  1  0  0  0  0
 38 37  1  0  0  0  0
 39 38  1  0  0  0  0
 39 43  1  0  0  0  0
 40 39  2  0  0  0  0
 41 44  1  0  0  0  0
 42 41  2  0  0  0  0
 45 36  1  0  0  0  0
 47 38  1  0  0  0  0
 48 38  1  0  0  0  0
 49 43  1  0  0  0  0
M  END
$$$$
