PFL.pdb
 OpenBabel07022419053D

 55 56  0  0  1  0  0  0  0  0999 V2000
    1.0730   -1.8070    3.5750 N   0  0  0  0  0  0  0  0  0  0  0  0
    0.2290   -1.8940    4.7930 C   0  0  0  0  0  0  0  0  0  0  0  0
   -0.2360   -0.4690    5.0130 C   0  0  0  0  0  0  0  0  0  0  0  0
   -0.0570    0.1890    3.6330 C   0  0  0  0  0  0  0  0  0  0  0  0
    0.1950   -0.9770    2.7690 C   0  0  1  0  0  0  0  0  0  0  0  0
    0.6650   -0.7470    1.4160 C   0  0  0  0  0  0  0  0  0  0  0  0
    1.7360   -1.3730    1.0840 O   0  0  0  0  0  0  0  0  0  0  0  0
    1.8590   -1.2060    3.8720 H   0  0  0  0  0  0  0  0  0  0  0  0
    0.8130   -2.2960    5.6610 H   0  0  0  0  0  0  0  0  0  0  0  0
   -0.6210   -2.6050    4.6340 H   0  0  0  0  0  0  0  0  0  0  0  0
   -1.3180   -0.4400    5.2150 H   0  0  0  0  0  0  0  0  0  0  0  0
    0.3820    0.0360    5.7800 H   0  0  0  0  0  0  0  0  0  0  0  0
    0.8730    0.8130    3.7340 H   0  0  0  0  0  0  0  0  0  0  0  0
   -0.9470    0.7940    3.3470 H   0  0  0  0  0  0  0  0  0  0  0  0
   -0.7830   -1.5770    2.7050 H   0  0  0  0  0  0  0  0  0  0  0  0
    0.0750    0.0920    0.4270 N   0  0  0  0  0  0  0  0  0  0  0  0
    0.6780    0.2160   -0.8980 C   0  0  1  0  0  0  0  0  0  0  0  0
    2.1270    0.4730   -0.9220 C   0  0  0  0  0  0  0  0  0  0  0  0
    2.4770    1.7550   -0.2190 C   0  0  0  0  0  0  0  0  0  0  0  0
    2.8810    1.8140    1.0870 C   0  0  0  0  0  0  0  0  0  0  0  0
    3.1480    3.0170    1.7070 C   0  0  0  0  0  0  0  0  0  0  0  0
    3.0220    4.2430    1.0330 C   0  0  0  0  0  0  0  0  0  0  0  0
    2.6120    4.1250   -0.2780 C   0  0  0  0  0  0  0  0  0  0  0  0
    2.3430    2.9510   -0.9090 C   0  0  0  0  0  0  0  0  0  0  0  0
    0.1720   -0.8190   -1.8150 C   0  0  0  0  0  0  0  0  0  0  0  0
    0.8560   -1.1980   -2.7870 O   0  0  0  0  0  0  0  0  0  0  0  0
   -0.7970    0.5940    0.7210 H   0  0  0  0  0  0  0  0  0  0  0  0
    0.2190    1.2060   -1.2750 H   0  0  0  0  0  0  0  0  0  0  0  0
    2.4650    0.6510   -1.9920 H   0  0  0  0  0  0  0  0  0  0  0  0
    2.8080   -0.3000   -0.5630 H   0  0  0  0  0  0  0  0  0  0  0  0
    3.0000    0.8990    1.6560 H   0  0  0  0  0  0  0  0  0  0  0  0
    3.4720    3.0050    2.7440 H   0  0  0  0  0  0  0  0  0  0  0  0
    3.2250    5.1750    1.5330 H   0  0  0  0  0  0  0  0  0  0  0  0
    2.4990    5.0780   -0.8260 H   0  0  0  0  0  0  0  0  0  0  0  0
    2.0100    2.9100   -1.9630 H   0  0  0  0  0  0  0  0  0  0  0  0
   -1.8360   -4.7860   -0.4470 C   0  0  0  0  0  0  0  0  0  0  0  0
   -2.8950   -3.7350   -0.6300 C   0  0  0  0  0  0  0  0  0  0  0  0
   -3.1010   -2.8180    0.5310 C   0  0  0  0  0  0  0  0  0  0  0  0
   -2.9120   -3.0740   -1.9650 C   0  0  0  0  0  0  0  0  0  0  0  0
   -1.6750   -2.4180   -2.4110 C   0  0  2  0  0  0  0  0  0  0  0  0
   -1.1110   -1.3890   -1.6010 N   0  0  0  0  0  0  0  0  0  0  0  0
   -1.9190   -1.8300   -3.8200 C   0  0  0  0  0  0  0  0  0  0  0  0
   -2.4260   -2.5960   -4.6350 O   0  0  0  0  0  0  0  0  0  0  0  0
   -1.5990   -0.5610   -4.1240 O   0  0  0  0  0  0  0  0  0  0  0  0
   -2.2340   -5.6980    0.0770 H   0  0  0  0  0  0  0  0  0  0  0  0
   -1.3970   -5.1880   -1.3690 H   0  0  0  0  0  0  0  0  0  0  0  0
   -1.0820   -4.3850    0.2490 H   0  0  0  0  0  0  0  0  0  0  0  0
   -3.8740   -4.3820   -0.6360 H   0  0  0  0  0  0  0  0  0  0  0  0
   -2.1800   -2.6180    1.1220 H   0  0  0  0  0  0  0  0  0  0  0  0
   -3.5470   -1.8540    0.1060 H   0  0  0  0  0  0  0  0  0  0  0  0
   -3.8700   -3.2180    1.2660 H   0  0  0  0  0  0  0  0  0  0  0  0
   -3.2450   -3.8210   -2.7610 H   0  0  0  0  0  0  0  0  0  0  0  0
   -3.7310   -2.2990   -1.9510 H   0  0  0  0  0  0  0  0  0  0  0  0
   -0.9220   -3.2130   -2.6930 H   0  0  0  0  0  0  0  0  0  0  0  0
   -1.6480   -0.9900   -0.8070 H   0  0  0  0  0  0  0  0  0  0  0  0
  1  8  1  0  0  0  0
  1  2  1  0  0  0  0
  2  3  1  0  0  0  0
  2  9  1  0  0  0  0
  3 11  1  0  0  0  0
  3 12  1  0  0  0  0
  4 13  1  0  0  0  0
  4  3  1  0  0  0  0
  5 15  1  6  0  0  0
  5  1  1  0  0  0  0
  5  4  1  0  0  0  0
  6  5  1  0  0  0  0
  7  6  2  0  0  0  0
 10  2  1  0  0  0  0
 14  4  1  0  0  0  0
 16 27  1  0  0  0  0
 16  6  1  0  0  0  0
 17 28  1  6  0  0  0
 17 16  1  0  0  0  0
 18 17  1  0  0  0  0
 18 30  1  0  0  0  0
 18 19  1  0  0  0  0
 19 20  1  0  0  0  0
 20 31  1  0  0  0  0
 20 21  2  0  0  0  0
 21 32  1  0  0  0  0
 22 33  1  0  0  0  0
 22 21  1  0  0  0  0
 23 22  2  0  0  0  0
 24 23  1  0  0  0  0
 24 19  2  0  0  0  0
 25 41  1  0  0  0  0
 25 17  1  0  0  0  0
 26 25  2  0  0  0  0
 29 18  1  0  0  0  0
 34 23  1  0  0  0  0
 35 24  1  0  0  0  0
 36 45  1  0  0  0  0
 36 47  1  0  0  0  0
 37 36  1  0  0  0  0
 37 38  1  0  0  0  0
 38 49  1  0  0  0  0
 38 51  1  0  0  0  0
 39 53  1  0  0  0  0
 39 37  1  0  0  0  0
 40 54  1  6  0  0  0
 40 39  1  0  0  0  0
 40 41  1  0  0  0  0
 41 55  1  0  0  0  0
 42 40  1  0  0  0  0
 43 42  2  0  0  0  0
 44 42  1  0  0  0  0
 46 36  1  0  0  0  0
 48 37  1  0  0  0  0
 50 38  1  0  0  0  0
 52 39  1  0  0  0  0
M  END
$$$$
