PFM.pdb
 OpenBabel07022419053D

 53 54  0  0  1  0  0  0  0  0999 V2000
    2.7190   -2.7680    1.9250 N   0  0  0  0  0  0  0  0  0  0  0  0
    3.8490   -2.3530    2.6930 C   0  0  0  0  0  0  0  0  0  0  0  0
    3.2520   -1.5950    3.8550 C   0  0  0  0  0  0  0  0  0  0  0  0
    2.1250   -0.8350    3.1690 C   0  0  0  0  0  0  0  0  0  0  0  0
    1.6340   -1.8790    2.1850 C   0  0  1  0  0  0  0  0  0  0  0  0
    1.1450   -1.2560    0.9210 C   0  0  0  0  0  0  0  0  0  0  0  0
    1.7030   -1.5600   -0.1580 O   0  0  0  0  0  0  0  0  0  0  0  0
    2.9780   -2.6970    0.9030 H   0  0  0  0  0  0  0  0  0  0  0  0
    4.4920   -1.6390    2.1110 H   0  0  0  0  0  0  0  0  0  0  0  0
    4.4150   -3.2310    3.0300 H   0  0  0  0  0  0  0  0  0  0  0  0
    2.7790   -2.3170    4.5470 H   0  0  0  0  0  0  0  0  0  0  0  0
    3.9730   -0.9230    4.3420 H   0  0  0  0  0  0  0  0  0  0  0  0
    1.3270   -0.5870    3.9010 H   0  0  0  0  0  0  0  0  0  0  0  0
    2.4780    0.0230    2.5980 H   0  0  0  0  0  0  0  0  0  0  0  0
    0.8120   -2.4660    2.6620 H   0  0  0  0  0  0  0  0  0  0  0  0
    0.0740   -0.3330    0.8920 N   0  0  0  0  0  0  0  0  0  0  0  0
   -0.4520    0.3190   -0.2740 C   0  0  1  0  0  0  0  0  0  0  0  0
    0.5920    0.8830   -1.2150 C   0  0  0  0  0  0  0  0  0  0  0  0
    1.3720    1.9050   -0.5020 C   0  0  0  0  0  0  0  0  0  0  0  0
    2.5560    1.7400    0.1480 C   0  0  0  0  0  0  0  0  0  0  0  0
    3.1770    2.8090    0.8000 C   0  0  0  0  0  0  0  0  0  0  0  0
    2.6240    4.0660    0.8130 C   0  0  0  0  0  0  0  0  0  0  0  0
    1.4250    4.2550    0.1600 C   0  0  0  0  0  0  0  0  0  0  0  0
    0.8260    3.1970   -0.4760 C   0  0  0  0  0  0  0  0  0  0  0  0
   -1.4210   -0.5840   -0.9320 C   0  0  0  0  0  0  0  0  0  0  0  0
   -1.9660   -0.1390   -1.9710 O   0  0  0  0  0  0  0  0  0  0  0  0
   -0.3470   -0.1390    1.8550 H   0  0  0  0  0  0  0  0  0  0  0  0
   -0.9510    1.2760    0.1170 H   0  0  0  0  0  0  0  0  0  0  0  0
    0.0320    1.3730   -2.0340 H   0  0  0  0  0  0  0  0  0  0  0  0
    1.2210    0.1200   -1.6940 H   0  0  0  0  0  0  0  0  0  0  0  0
    3.0150    0.7600    0.1410 H   0  0  0  0  0  0  0  0  0  0  0  0
    4.1260    2.6230    1.3080 H   0  0  0  0  0  0  0  0  0  0  0  0
    3.1300    4.8860    1.3310 H   0  0  0  0  0  0  0  0  0  0  0  0
    0.9960    5.2470    0.1740 H   0  0  0  0  0  0  0  0  0  0  0  0
   -0.1250    3.3960   -0.9800 H   0  0  0  0  0  0  0  0  0  0  0  0
   -4.5620   -2.3980    1.7630 C   0  0  0  0  0  0  0  0  0  0  0  0
   -5.5510   -2.0170    0.3380 S   0  0  0  0  0  0  0  0  0  0  0  0
   -4.6820   -1.3080   -1.0550 C   0  0  0  0  0  0  0  0  0  0  0  0
   -3.8060   -2.2040   -1.8410 C   0  0  0  0  0  0  0  0  0  0  0  0
   -2.6900   -2.7990   -1.0400 C   0  0  2  0  0  0  0  0  0  0  0  0
   -1.7530   -1.8640   -0.4790 N   0  0  0  0  0  0  0  0  0  0  0  0
   -2.0440   -3.9030   -1.7590 C   0  0  0  0  0  0  0  0  0  0  0  0
   -2.7420   -4.7880   -2.2900 O   0  0  0  0  0  0  0  0  0  0  0  0
   -0.6750   -3.9650   -1.8490 O   0  0  0  0  0  0  0  0  0  0  0  0
   -4.4120   -3.4900    1.8640 H   0  0  0  0  0  0  0  0  0  0  0  0
   -3.5450   -1.9220    1.7870 H   0  0  0  0  0  0  0  0  0  0  0  0
   -5.0960   -2.0880    2.7300 H   0  0  0  0  0  0  0  0  0  0  0  0
   -5.4210   -0.8570   -1.7900 H   0  0  0  0  0  0  0  0  0  0  0  0
   -4.1500   -0.4060   -0.6470 H   0  0  0  0  0  0  0  0  0  0  0  0
   -3.4350   -1.7440   -2.7870 H   0  0  0  0  0  0  0  0  0  0  0  0
   -4.4310   -3.1010   -2.1640 H   0  0  0  0  0  0  0  0  0  0  0  0
   -3.2570   -3.1950   -0.1200 H   0  0  0  0  0  0  0  0  0  0  0  0
   -1.2400   -2.1860    0.3970 H   0  0  0  0  0  0  0  0  0  0  0  0
  1  5  1  0  0  0  0
  1  2  1  0  0  0  0
  2 10  1  0  0  0  0
  2  3  1  0  0  0  0
  3 12  1  0  0  0  0
  3 11  1  0  0  0  0
  4  3  1  0  0  0  0
  4 13  1  0  0  0  0
  5 15  1  1  0  0  0
  5  4  1  0  0  0  0
  6  5  1  0  0  0  0
  7  6  2  0  0  0  0
  8  1  1  0  0  0  0
  9  2  1  0  0  0  0
 14  4  1  0  0  0  0
 16  6  1  0  0  0  0
 16 27  1  0  0  0  0
 17 28  1  1  0  0  0
 17 16  1  0  0  0  0
 18 19  1  0  0  0  0
 18 17  1  0  0  0  0
 19 24  2  0  0  0  0
 19 20  1  0  0  0  0
 20 21  2  0  0  0  0
 21 22  1  0  0  0  0
 21 32  1  0  0  0  0
 22 33  1  0  0  0  0
 23 34  1  0  0  0  0
 23 22  2  0  0  0  0
 24 23  1  0  0  0  0
 25 41  1  0  0  0  0
 25 17  1  0  0  0  0
 26 25  2  0  0  0  0
 29 18  1  0  0  0  0
 30 18  1  0  0  0  0
 31 20  1  0  0  0  0
 35 24  1  0  0  0  0
 36 46  1  0  0  0  0
 36 45  1  0  0  0  0
 36 47  1  0  0  0  0
 37 36  1  0  0  0  0
 38 49  1  0  0  0  0
 38 37  1  0  0  0  0
 39 38  1  0  0  0  0
 39 40  1  0  0  0  0
 40 41  1  0  0  0  0
 40 52  1  1  0  0  0
 41 53  1  0  0  0  0
 42 40  1  0  0  0  0
 43 42  2  0  0  0  0
 44 42  1  0  0  0  0
 48 38  1  0  0  0  0
 50 39  1  0  0  0  0
 51 39  1  0  0  0  0
M  END
$$$$
