PFR.pdb
 OpenBabel07022419053D

 59 60  0  0  1  0  0  0  0  0999 V2000
    4.9330   -0.0780    0.0020 N   0  0  0  0  0  0  0  0  0  0  0  0
    6.3130    0.0660   -0.4530 C   0  0  0  0  0  0  0  0  0  0  0  0
    7.1700   -0.0780    0.7980 C   0  0  0  0  0  0  0  0  0  0  0  0
    6.1840   -0.5350    1.8720 C   0  0  0  0  0  0  0  0  0  0  0  0
    5.0690   -1.0700    1.0530 C   0  0  1  0  0  0  0  0  0  0  0  0
    3.7930   -1.2840    1.7740 C   0  0  0  0  0  0  0  0  0  0  0  0
    3.7660   -2.0800    2.7230 O   0  0  0  0  0  0  0  0  0  0  0  0
    4.6930    0.8390    0.4890 H   0  0  0  0  0  0  0  0  0  0  0  0
    6.5420   -0.7310   -1.1900 H   0  0  0  0  0  0  0  0  0  0  0  0
    6.5220    1.0880   -0.8560 H   0  0  0  0  0  0  0  0  0  0  0  0
    7.6690    0.8530    1.0730 H   0  0  0  0  0  0  0  0  0  0  0  0
    7.8860   -0.9270    0.6270 H   0  0  0  0  0  0  0  0  0  0  0  0
    6.6640   -1.2560    2.5640 H   0  0  0  0  0  0  0  0  0  0  0  0
    5.8810    0.4120    2.4020 H   0  0  0  0  0  0  0  0  0  0  0  0
    5.4030   -1.9990    0.5370 H   0  0  0  0  0  0  0  0  0  0  0  0
    2.6440   -0.5710    1.3490 N   0  0  0  0  0  0  0  0  0  0  0  0
    1.3360   -0.7080    1.9800 C   0  0  1  0  0  0  0  0  0  0  0  0
    0.8770    0.5800    2.5550 C   0  0  0  0  0  0  0  0  0  0  0  0
    0.7310    1.7200    1.6500 C   0  0  0  0  0  0  0  0  0  0  0  0
    1.8670    2.4890    1.4100 C   0  0  0  0  0  0  0  0  0  0  0  0
    1.7540    3.5780    0.5840 C   0  0  0  0  0  0  0  0  0  0  0  0
    0.5630    3.9480   -0.0220 C   0  0  0  0  0  0  0  0  0  0  0  0
   -0.5600    3.1990    0.2080 C   0  0  0  0  0  0  0  0  0  0  0  0
   -0.4470    2.0940    1.0470 C   0  0  0  0  0  0  0  0  0  0  0  0
    0.3570   -1.3440    1.1110 C   0  0  0  0  0  0  0  0  0  0  0  0
    0.7700   -1.8660    0.0470 O   0  0  0  0  0  0  0  0  0  0  0  0
    2.7780    0.0830    0.5340 H   0  0  0  0  0  0  0  0  0  0  0  0
    1.4600   -1.4090    2.8760 H   0  0  0  0  0  0  0  0  0  0  0  0
   -0.1370    0.3920    3.0300 H   0  0  0  0  0  0  0  0  0  0  0  0
    1.5290    0.8930    3.4300 H   0  0  0  0  0  0  0  0  0  0  0  0
    2.8390    2.2690    1.8450 H   0  0  0  0  0  0  0  0  0  0  0  0
    2.6000    4.2110    0.3650 H   0  0  0  0  0  0  0  0  0  0  0  0
    0.5180    4.8240   -0.6740 H   0  0  0  0  0  0  0  0  0  0  0  0
   -1.4780    3.5000   -0.2650 H   0  0  0  0  0  0  0  0  0  0  0  0
   -1.3450    1.5270    1.2180 H   0  0  0  0  0  0  0  0  0  0  0  0
   -8.0130   -4.2450   -2.4360 N   0  0  0  0  0  0  0  0  0  0  0  0
   -7.0590   -3.3300   -1.9490 C   0  0  0  0  0  0  0  0  0  0  0  0
   -7.0340   -2.0810   -2.3330 N   0  0  0  0  0  0  0  0  0  0  0  0
   -6.0630   -3.7310   -1.0060 N   0  0  0  0  0  0  0  0  0  0  0  0
   -5.0880   -2.7630   -0.4870 C   0  0  0  0  0  0  0  0  0  0  0  0
   -4.1560   -3.4420    0.4410 C   0  0  0  0  0  0  0  0  0  0  0  0
   -3.0700   -2.6980    1.0830 C   0  0  0  0  0  0  0  0  0  0  0  0
   -1.9140   -2.1710    0.3690 C   0  0  2  0  0  0  0  0  0  0  0  0
   -1.0420   -1.4380    1.3480 N   0  0  0  0  0  0  0  0  0  0  0  0
   -2.0740   -1.3790   -0.8460 C   0  0  0  0  0  0  0  0  0  0  0  0
   -1.8550   -0.1230   -0.8370 O   0  0  0  0  0  0  0  0  0  0  0  0
   -2.4520   -1.8880   -2.0900 O   0  0  0  0  0  0  0  0  0  0  0  0
   -7.8630   -4.8880   -3.2480 H   0  0  0  0  0  0  0  0  0  0  0  0
   -8.9370   -4.3020   -1.9710 H   0  0  0  0  0  0  0  0  0  0  0  0
   -7.7560   -1.7600   -3.0310 H   0  0  0  0  0  0  0  0  0  0  0  0
   -6.0010   -4.7050   -0.6610 H   0  0  0  0  0  0  0  0  0  0  0  0
   -5.7520   -2.1060    0.1900 H   0  0  0  0  0  0  0  0  0  0  0  0
   -4.7070   -2.0890   -1.2120 H   0  0  0  0  0  0  0  0  0  0  0  0
   -4.7980   -4.0030    1.2030 H   0  0  0  0  0  0  0  0  0  0  0  0
   -3.6840   -4.3120   -0.1190 H   0  0  0  0  0  0  0  0  0  0  0  0
   -2.6940   -3.3500    1.9660 H   0  0  0  0  0  0  0  0  0  0  0  0
   -3.5820   -1.8470    1.6930 H   0  0  0  0  0  0  0  0  0  0  0  0
   -1.2260   -3.0230    0.0500 H   0  0  0  0  0  0  0  0  0  0  0  0
   -1.4370   -1.0030    2.1930 H   0  0  0  0  0  0  0  0  0  0  0  0
  1  8  1  0  0  0  0
  1  5  1  0  0  0  0
  2  1  1  0  0  0  0
  2  3  1  0  0  0  0
  3 11  1  0  0  0  0
  3  4  1  0  0  0  0
  4 14  1  0  0  0  0
  4 13  1  0  0  0  0
  5 15  1  6  0  0  0
  5  6  1  0  0  0  0
  5  4  1  0  0  0  0
  6  7  2  0  0  0  0
  9  2  1  0  0  0  0
 10  2  1  0  0  0  0
 12  3  1  0  0  0  0
 16  6  1  0  0  0  0
 16 17  1  0  0  0  0
 17 18  1  0  0  0  0
 17 28  1  1  0  0  0
 18 29  1  0  0  0  0
 18 30  1  0  0  0  0
 19 18  1  0  0  0  0
 20 19  1  0  0  0  0
 20 31  1  0  0  0  0
 21 20  2  0  0  0  0
 22 23  2  0  0  0  0
 22 21  1  0  0  0  0
 23 24  1  0  0  0  0
 24 35  1  0  0  0  0
 24 19  2  0  0  0  0
 25 44  1  0  0  0  0
 25 17  1  0  0  0  0
 26 25  2  0  0  0  0
 27 16  1  0  0  0  0
 32 21  1  0  0  0  0
 33 22  1  0  0  0  0
 34 23  1  0  0  0  0
 36 49  1  0  0  0  0
 36 37  1  0  0  0  0
 37 39  1  0  0  0  0
 38 37  2  0  0  0  0
 39 51  1  0  0  0  0
 39 40  1  0  0  0  0
 40 52  1  0  0  0  0
 40 41  1  0  0  0  0
 41 42  1  0  0  0  0
 41 54  1  0  0  0  0
 42 57  1  0  0  0  0
 42 56  1  0  0  0  0
 43 58  1  6  0  0  0
 43 42  1  0  0  0  0
 43 44  1  0  0  0  0
 44 59  1  0  0  0  0
 45 46  1  0  0  0  0
 45 43  1  0  0  0  0
 47 45  2  0  0  0  0
 48 36  1  0  0  0  0
 50 38  1  0  0  0  0
 53 40  1  0  0  0  0
 55 41  1  0  0  0  0
M  END
$$$$
