PFS.pdb
 OpenBabel07022419053D

 47 48  0  0  1  0  0  0  0  0999 V2000
    1.8760   -4.7850    0.8450 N   0  0  0  0  0  0  0  0  0  0  0  0
    0.8670   -5.2630    1.7620 C   0  0  0  0  0  0  0  0  0  0  0  0
   -0.4560   -5.1400    1.0700 C   0  0  0  0  0  0  0  0  0  0  0  0
   -0.1330   -4.3560   -0.1930 C   0  0  0  0  0  0  0  0  0  0  0  0
    1.2490   -3.8180   -0.0170 C   0  0  1  0  0  0  0  0  0  0  0  0
    1.3430   -2.4910    0.5550 C   0  0  0  0  0  0  0  0  0  0  0  0
    1.9190   -2.3410    1.6610 O   0  0  0  0  0  0  0  0  0  0  0  0
    2.6530   -4.3860    1.4180 H   0  0  0  0  0  0  0  0  0  0  0  0
    1.0970   -6.2920    2.0880 H   0  0  0  0  0  0  0  0  0  0  0  0
    0.8750   -4.6110    2.6550 H   0  0  0  0  0  0  0  0  0  0  0  0
   -1.2040   -4.5720    1.6620 H   0  0  0  0  0  0  0  0  0  0  0  0
   -0.8340   -6.1510    0.8550 H   0  0  0  0  0  0  0  0  0  0  0  0
   -0.8910   -3.6180   -0.4500 H   0  0  0  0  0  0  0  0  0  0  0  0
   -0.0970   -5.0990   -1.0210 H   0  0  0  0  0  0  0  0  0  0  0  0
    1.7700   -3.8060   -1.0170 H   0  0  0  0  0  0  0  0  0  0  0  0
    0.8220   -1.3050   -0.0450 N   0  0  0  0  0  0  0  0  0  0  0  0
    0.9420    0.0050    0.5720 C   0  0  1  0  0  0  0  0  0  0  0  0
    1.7940    0.9300   -0.2580 C   0  0  0  0  0  0  0  0  0  0  0  0
    1.9380    2.2760    0.3430 C   0  0  0  0  0  0  0  0  0  0  0  0
    1.0680    3.3130    0.0440 C   0  0  0  0  0  0  0  0  0  0  0  0
    1.2300    4.5540    0.6230 C   0  0  0  0  0  0  0  0  0  0  0  0
    2.2470    4.8140    1.5080 C   0  0  0  0  0  0  0  0  0  0  0  0
    3.1190    3.8070    1.8190 C   0  0  0  0  0  0  0  0  0  0  0  0
    2.9630    2.5700    1.2470 C   0  0  0  0  0  0  0  0  0  0  0  0
   -0.3720    0.5590    0.9370 C   0  0  0  0  0  0  0  0  0  0  0  0
   -0.5670    1.6470    1.4880 O   0  0  0  0  0  0  0  0  0  0  0  0
    0.3430   -1.4460   -0.9690 H   0  0  0  0  0  0  0  0  0  0  0  0
    1.4960   -0.1570    1.5400 H   0  0  0  0  0  0  0  0  0  0  0  0
    1.2350    1.0810   -1.2240 H   0  0  0  0  0  0  0  0  0  0  0  0
    2.8050    0.5420   -0.4280 H   0  0  0  0  0  0  0  0  0  0  0  0
    0.2400    3.1600   -0.6560 H   0  0  0  0  0  0  0  0  0  0  0  0
    0.5410    5.3590    0.3810 H   0  0  0  0  0  0  0  0  0  0  0  0
    2.3720    5.8010    1.9640 H   0  0  0  0  0  0  0  0  0  0  0  0
    3.9280    4.0040    2.5190 H   0  0  0  0  0  0  0  0  0  0  0  0
    3.6630    1.7900    1.5070 H   0  0  0  0  0  0  0  0  0  0  0  0
   -2.9080    1.3800   -1.0840 O   0  0  0  0  0  0  0  0  0  0  0  0
   -3.6250    0.3920   -0.3830 C   0  0  0  0  0  0  0  0  0  0  0  0
   -2.8760    0.2000    0.9310 C   0  0  2  0  0  0  0  0  0  0  0  0
   -1.5330   -0.2230    0.6300 N   0  0  0  0  0  0  0  0  0  0  0  0
   -3.5930   -0.7460    1.8090 C   0  0  0  0  0  0  0  0  0  0  0  0
   -4.7640   -0.4840    2.1380 O   0  0  0  0  0  0  0  0  0  0  0  0
   -3.0050   -1.9070    2.2740 O   0  0  0  0  0  0  0  0  0  0  0  0
   -2.6370    2.0640   -0.4050 H   0  0  0  0  0  0  0  0  0  0  0  0
   -4.6290    0.8070   -0.1630 H   0  0  0  0  0  0  0  0  0  0  0  0
   -3.6630   -0.5260   -0.9850 H   0  0  0  0  0  0  0  0  0  0  0  0
   -2.8930    1.2010    1.4280 H   0  0  0  0  0  0  0  0  0  0  0  0
   -1.4120   -1.1480    0.1640 H   0  0  0  0  0  0  0  0  0  0  0  0
  1  8  1  0  0  0  0
  1  2  1  0  0  0  0
  2  9  1  0  0  0  0
  2 10  1  0  0  0  0
  3 11  1  0  0  0  0
  3  2  1  0  0  0  0
  4  5  1  0  0  0  0
  4  3  1  0  0  0  0
  5 15  1  6  0  0  0
  5  6  1  0  0  0  0
  5  1  1  0  0  0  0
  6  7  2  0  0  0  0
 12  3  1  0  0  0  0
 13  4  1  0  0  0  0
 14  4  1  0  0  0  0
 16  6  1  0  0  0  0
 16 17  1  0  0  0  0
 17 25  1  0  0  0  0
 17 28  1  1  0  0  0
 18 19  1  0  0  0  0
 18 17  1  0  0  0  0
 19 24  1  0  0  0  0
 20 19  2  0  0  0  0
 20 21  1  0  0  0  0
 21 22  2  0  0  0  0
 22 23  1  0  0  0  0
 22 33  1  0  0  0  0
 23 34  1  0  0  0  0
 24 35  1  0  0  0  0
 24 23  2  0  0  0  0
 25 26  2  0  0  0  0
 27 16  1  0  0  0  0
 29 18  1  0  0  0  0
 30 18  1  0  0  0  0
 31 20  1  0  0  0  0
 32 21  1  0  0  0  0
 36 43  1  0  0  0  0
 36 37  1  0  0  0  0
 37 44  1  0  0  0  0
 37 38  1  0  0  0  0
 38 46  1  1  0  0  0
 38 40  1  0  0  0  0
 39 38  1  0  0  0  0
 39 25  1  0  0  0  0
 40 41  2  0  0  0  0
 40 42  1  0  0  0  0
 45 37  1  0  0  0  0
 47 39  1  0  0  0  0
M  END
$$$$
