PFY.pdb
 OpenBabel07022419053D

 57 59  0  0  1  0  0  0  0  0999 V2000
    4.2220    0.7270    1.4870 N   0  0  0  0  0  0  0  0  0  0  0  0
    3.7130    2.0010    1.8570 C   0  0  0  0  0  0  0  0  0  0  0  0
    3.9940    2.1030    3.3310 C   0  0  0  0  0  0  0  0  0  0  0  0
    4.3160    0.7060    3.7990 C   0  0  0  0  0  0  0  0  0  0  0  0
    4.0600   -0.1580    2.5880 C   0  0  1  0  0  0  0  0  0  0  0  0
    2.7080   -0.7760    2.6940 C   0  0  0  0  0  0  0  0  0  0  0  0
    2.5610   -1.5450    3.7060 O   0  0  0  0  0  0  0  0  0  0  0  0
    3.8910    0.3660    0.5740 H   0  0  0  0  0  0  0  0  0  0  0  0
    4.2670    2.8240    1.3100 H   0  0  0  0  0  0  0  0  0  0  0  0
    2.6510    2.1900    1.6330 H   0  0  0  0  0  0  0  0  0  0  0  0
    4.8370    2.7990    3.5400 H   0  0  0  0  0  0  0  0  0  0  0  0
    3.0910    2.5140    3.8450 H   0  0  0  0  0  0  0  0  0  0  0  0
    3.6190    0.4590    4.6330 H   0  0  0  0  0  0  0  0  0  0  0  0
    5.3660    0.6160    4.1630 H   0  0  0  0  0  0  0  0  0  0  0  0
    4.8020   -0.9980    2.5570 H   0  0  0  0  0  0  0  0  0  0  0  0
    1.6500   -0.5650    1.7850 N   0  0  0  0  0  0  0  0  0  0  0  0
    0.3710   -1.1800    1.9300 C   0  0  1  0  0  0  0  0  0  0  0  0
   -0.7570   -0.2900    2.2560 C   0  0  0  0  0  0  0  0  0  0  0  0
   -1.0850    0.7910    1.3440 C   0  0  0  0  0  0  0  0  0  0  0  0
   -0.4430    2.0340    1.4350 C   0  0  0  0  0  0  0  0  0  0  0  0
   -0.7640    3.0860    0.6100 C   0  0  0  0  0  0  0  0  0  0  0  0
   -1.7460    2.9410   -0.3470 C   0  0  0  0  0  0  0  0  0  0  0  0
   -2.3870    1.7220   -0.4490 C   0  0  0  0  0  0  0  0  0  0  0  0
   -2.0600    0.6510    0.3910 C   0  0  0  0  0  0  0  0  0  0  0  0
    0.1520   -2.2320    0.9220 C   0  0  0  0  0  0  0  0  0  0  0  0
    1.0960   -2.5360    0.1380 O   0  0  0  0  0  0  0  0  0  0  0  0
    1.8140    0.0640    0.9730 H   0  0  0  0  0  0  0  0  0  0  0  0
    0.4970   -1.8140    2.9080 H   0  0  0  0  0  0  0  0  0  0  0  0
   -0.5400    0.1270    3.2920 H   0  0  0  0  0  0  0  0  0  0  0  0
   -1.6730   -0.9260    2.4060 H   0  0  0  0  0  0  0  0  0  0  0  0
    0.3210    2.1000    2.2030 H   0  0  0  0  0  0  0  0  0  0  0  0
   -0.2520    4.0270    0.7060 H   0  0  0  0  0  0  0  0  0  0  0  0
   -2.0070    3.7580   -1.0000 H   0  0  0  0  0  0  0  0  0  0  0  0
   -3.1560    1.6350   -1.1980 H   0  0  0  0  0  0  0  0  0  0  0  0
   -2.5980   -0.2770    0.2590 H   0  0  0  0  0  0  0  0  0  0  0  0
   -4.6700   -0.0390   -4.0240 O   0  0  0  0  0  0  0  0  0  0  0  0
   -3.8030   -0.9450   -3.4280 C   0  0  0  0  0  0  0  0  0  0  0  0
   -4.1610   -2.2670   -3.2790 C   0  0  0  0  0  0  0  0  0  0  0  0
   -3.3450   -3.2100   -2.6970 C   0  0  0  0  0  0  0  0  0  0  0  0
   -2.1000   -2.7800   -2.2450 C   0  0  0  0  0  0  0  0  0  0  0  0
   -1.1610   -3.7130   -1.6530 C   0  0  0  0  0  0  0  0  0  0  0  0
   -1.2190   -4.0070   -0.2230 C   0  0  2  0  0  0  0  0  0  0  0  0
   -1.0440   -2.9710    0.7320 N   0  0  0  0  0  0  0  0  0  0  0  0
   -0.1970   -5.1150    0.0010 C   0  0  0  0  0  0  0  0  0  0  0  0
   -0.2140   -6.0840   -0.7460 O   0  0  0  0  0  0  0  0  0  0  0  0
   -1.7250   -1.4610   -2.3850 C   0  0  0  0  0  0  0  0  0  0  0  0
   -2.5610   -0.5390   -2.9710 C   0  0  0  0  0  0  0  0  0  0  0  0
    0.6930   -4.9810    1.0230 O   0  0  0  0  0  0  0  0  0  0  0  0
   -5.4280   -0.3810   -4.5860 H   0  0  0  0  0  0  0  0  0  0  0  0
   -5.1430   -2.6120   -3.6350 H   0  0  0  0  0  0  0  0  0  0  0  0
   -3.6500   -4.2430   -2.5920 H   0  0  0  0  0  0  0  0  0  0  0  0
   -1.3140   -4.7010   -2.2010 H   0  0  0  0  0  0  0  0  0  0  0  0
   -0.1340   -3.4110   -2.0150 H   0  0  0  0  0  0  0  0  0  0  0  0
   -2.1860   -4.5570    0.0060 H   0  0  0  0  0  0  0  0  0  0  0  0
   -1.8440   -2.6970    1.3740 H   0  0  0  0  0  0  0  0  0  0  0  0
   -0.7560   -1.0940   -2.0390 H   0  0  0  0  0  0  0  0  0  0  0  0
   -2.2340    0.4860   -3.0690 H   0  0  0  0  0  0  0  0  0  0  0  0
  1  2  1  0  0  0  0
  1  5  1  0  0  0  0
  2  3  1  0  0  0  0
  3 11  1  0  0  0  0
  3  4  1  0  0  0  0
  3 12  1  0  0  0  0
  4 14  1  0  0  0  0
  4 13  1  0  0  0  0
  5 15  1  6  0  0  0
  5  6  1  0  0  0  0
  5  4  1  0  0  0  0
  6  7  2  0  0  0  0
  8  1  1  0  0  0  0
  9  2  1  0  0  0  0
 10  2  1  0  0  0  0
 16 17  1  0  0  0  0
 16  6  1  0  0  0  0
 17 18  1  0  0  0  0
 17 28  1  1  0  0  0
 18 30  1  0  0  0  0
 18 29  1  0  0  0  0
 19 20  1  0  0  0  0
 19 18  1  0  0  0  0
 20 31  1  0  0  0  0
 21 32  1  0  0  0  0
 21 20  2  0  0  0  0
 22 21  1  0  0  0  0
 23 22  2  0  0  0  0
 23 24  1  0  0  0  0
 24 19  2  0  0  0  0
 25 17  1  0  0  0  0
 26 25  2  0  0  0  0
 27 16  1  0  0  0  0
 33 22  1  0  0  0  0
 34 23  1  0  0  0  0
 35 24  1  0  0  0  0
 36 37  1  0  0  0  0
 37 38  2  0  0  0  0
 37 47  1  0  0  0  0
 38 39  1  0  0  0  0
 39 51  1  0  0  0  0
 39 40  2  0  0  0  0
 40 41  1  0  0  0  0
 41 42  1  0  0  0  0
 42 44  1  0  0  0  0
 42 54  1  1  0  0  0
 42 43  1  0  0  0  0
 43 25  1  0  0  0  0
 43 55  1  0  0  0  0
 44 48  1  0  0  0  0
 45 44  2  0  0  0  0
 46 40  1  0  0  0  0
 46 56  1  0  0  0  0
 47 46  2  0  0  0  0
 49 36  1  0  0  0  0
 50 38  1  0  0  0  0
 52 41  1  0  0  0  0
 53 41  1  0  0  0  0
 57 47  1  0  0  0  0
M  END
$$$$
