PGC.pdb
 OpenBabel07022419033D

 34 34  0  0  1  0  0  0  0  0999 V2000
   -1.4160   -2.5910    1.6100 N   0  0  0  0  0  0  0  0  0  0  0  0
   -2.1910   -3.1620    2.6690 C   0  0  0  0  0  0  0  0  0  0  0  0
   -1.5200   -2.8470    3.9710 C   0  0  0  0  0  0  0  0  0  0  0  0
   -0.1520   -2.3280    3.5070 C   0  0  0  0  0  0  0  0  0  0  0  0
   -0.5790   -1.6070    2.2240 C   0  0  1  0  0  0  0  0  0  0  0  0
    0.5900   -1.2350    1.4140 C   0  0  0  0  0  0  0  0  0  0  0  0
    0.7400   -1.7920    0.3010 O   0  0  0  0  0  0  0  0  0  0  0  0
   -1.9800   -2.2450    0.8110 H   0  0  0  0  0  0  0  0  0  0  0  0
   -3.2220   -2.7320    2.5920 H   0  0  0  0  0  0  0  0  0  0  0  0
   -2.2910   -4.2810    2.5610 H   0  0  0  0  0  0  0  0  0  0  0  0
   -1.4340   -3.6920    4.6540 H   0  0  0  0  0  0  0  0  0  0  0  0
   -2.0540   -1.9700    4.4160 H   0  0  0  0  0  0  0  0  0  0  0  0
    0.4320   -3.2190    3.2480 H   0  0  0  0  0  0  0  0  0  0  0  0
    0.3060   -1.6580    4.2330 H   0  0  0  0  0  0  0  0  0  0  0  0
   -1.1960   -0.7420    2.5270 H   0  0  0  0  0  0  0  0  0  0  0  0
    1.5320   -0.2750    1.8610 N   0  0  0  0  0  0  0  0  0  0  0  0
    2.6850    0.1330    1.1080 C   0  0  0  0  0  0  0  0  0  0  0  0
    2.3700    0.7880   -0.1800 C   0  0  0  0  0  0  0  0  0  0  0  0
    3.3070    1.1570   -0.9510 O   0  0  0  0  0  0  0  0  0  0  0  0
    1.3220    0.1360    2.8200 H   0  0  0  0  0  0  0  0  0  0  0  0
    3.4030   -0.7010    0.9390 H   0  0  0  0  0  0  0  0  0  0  0  0
    3.2500    0.8700    1.7200 H   0  0  0  0  0  0  0  0  0  0  0  0
    1.0510    1.0340   -0.6060 N   0  0  0  0  0  0  0  0  0  0  0  0
    0.8270    1.6880   -1.9040 C   0  0  1  0  0  0  0  0  0  0  0  0
    0.0630    0.7130   -2.8110 C   0  0  0  0  0  0  0  0  0  0  0  0
    1.0200   -0.8090   -3.0560 S   0  0  0  0  0  0  0  0  0  0  0  0
   -0.0310    2.8700   -1.7260 C   0  0  0  0  0  0  0  0  0  0  0  0
   -0.4410    3.1610   -0.5670 O   0  0  0  0  0  0  0  0  0  0  0  0
   -0.4220    3.6960   -2.7660 O   0  0  0  0  0  0  0  0  0  0  0  0
    0.2160    0.7970   -0.0630 H   0  0  0  0  0  0  0  0  0  0  0  0
    1.7980    1.9040   -2.3870 H   0  0  0  0  0  0  0  0  0  0  0  0
   -0.1350    1.1790   -3.7860 H   0  0  0  0  0  0  0  0  0  0  0  0
   -0.9050    0.4370   -2.3730 H   0  0  0  0  0  0  0  0  0  0  0  0
    0.1380   -1.8760   -3.3670 H   0  0  0  0  0  0  0  0  0  0  0  0
  1  5  1  0  0  0  0
  1  2  1  0  0  0  0
  2  3  1  0  0  0  0
  3 12  1  0  0  0  0
  3 11  1  0  0  0  0
  4  3  1  0  0  0  0
  4 14  1  0  0  0  0
  5 15  1  1  0  0  0
  5  4  1  0  0  0  0
  6 16  1  0  0  0  0
  6  5  1  0  0  0  0
  7  6  2  0  0  0  0
  8  1  1  0  0  0  0
  9  2  1  0  0  0  0
 10  2  1  0  0  0  0
 13  4  1  0  0  0  0
 16 20  1  0  0  0  0
 17 22  1  0  0  0  0
 17 16  1  0  0  0  0
 18 17  1  0  0  0  0
 19 18  2  0  0  0  0
 21 17  1  0  0  0  0
 23 18  1  0  0  0  0
 23 30  1  0  0  0  0
 24 31  1  6  0  0  0
 24 27  1  0  0  0  0
 24 23  1  0  0  0  0
 25 33  1  0  0  0  0
 25 24  1  0  0  0  0
 26 25  1  0  0  0  0
 27 28  1  0  0  0  0
 29 27  2  0  0  0  0
 32 25  1  0  0  0  0
 34 26  1  0  0  0  0
M  END
$$$$
