PGE.pdb
 OpenBabel07022419033D

 39 39  0  0  1  0  0  0  0  0999 V2000
   -0.3210   -4.0080    2.1110 N   0  0  0  0  0  0  0  0  0  0  0  0
   -1.3220   -4.6600    1.3490 C   0  0  0  0  0  0  0  0  0  0  0  0
   -0.6500   -5.1650    0.0810 C   0  0  0  0  0  0  0  0  0  0  0  0
    0.8180   -4.8760    0.3070 C   0  0  0  0  0  0  0  0  0  0  0  0
    0.7430   -3.6820    1.2230 C   0  0  1  0  0  0  0  0  0  0  0  0
    0.4800   -2.4010    0.4810 C   0  0  0  0  0  0  0  0  0  0  0  0
    1.3200   -1.9980   -0.3800 O   0  0  0  0  0  0  0  0  0  0  0  0
   -0.6370   -3.2410    2.7180 H   0  0  0  0  0  0  0  0  0  0  0  0
   -1.6560   -5.5540    1.9610 H   0  0  0  0  0  0  0  0  0  0  0  0
   -2.2190   -4.0790    1.0990 H   0  0  0  0  0  0  0  0  0  0  0  0
   -0.8310   -6.2540   -0.0350 H   0  0  0  0  0  0  0  0  0  0  0  0
   -0.9590   -4.5840   -0.8160 H   0  0  0  0  0  0  0  0  0  0  0  0
    1.3520   -4.6570   -0.6360 H   0  0  0  0  0  0  0  0  0  0  0  0
    1.3260   -5.6830    0.8930 H   0  0  0  0  0  0  0  0  0  0  0  0
    1.7200   -3.5410    1.7700 H   0  0  0  0  0  0  0  0  0  0  0  0
   -0.6570   -1.5940    0.6730 N   0  0  0  0  0  0  0  0  0  0  0  0
   -0.8830   -0.3600   -0.0600 C   0  0  0  0  0  0  0  0  0  0  0  0
    0.2060    0.6130    0.1920 C   0  0  0  0  0  0  0  0  0  0  0  0
    1.1190    0.2490    0.9630 O   0  0  0  0  0  0  0  0  0  0  0  0
   -1.3650   -1.8870    1.3720 H   0  0  0  0  0  0  0  0  0  0  0  0
   -1.8740    0.0540    0.1910 H   0  0  0  0  0  0  0  0  0  0  0  0
   -0.8340   -0.5660   -1.1690 H   0  0  0  0  0  0  0  0  0  0  0  0
    0.1980    1.8860   -0.4180 N   0  0  0  0  0  0  0  0  0  0  0  0
    1.2340    2.8410   -0.1880 C   0  0  1  0  0  0  0  0  0  0  0  0
    1.3950    3.1840    1.2530 C   0  0  0  0  0  0  0  0  0  0  0  0
    0.1880    3.7930    1.8690 C   0  0  0  0  0  0  0  0  0  0  0  0
   -0.9690    2.9010    1.8570 C   0  0  0  0  0  0  0  0  0  0  0  0
   -1.9180    2.9290    1.0340 O   0  0  0  0  0  0  0  0  0  0  0  0
    2.5020    2.2030   -0.7130 C   0  0  0  0  0  0  0  0  0  0  0  0
    2.4990    1.0630   -1.2240 O   0  0  0  0  0  0  0  0  0  0  0  0
   -1.0560    1.9030    2.8550 O   0  0  0  0  0  0  0  0  0  0  0  0
    3.6890    2.9050   -0.6230 O   0  0  0  0  0  0  0  0  0  0  0  0
   -0.6190    2.0660   -1.0740 H   0  0  0  0  0  0  0  0  0  0  0  0
    1.0690    3.7860   -0.7730 H   0  0  0  0  0  0  0  0  0  0  0  0
    1.6490    2.2840    1.8790 H   0  0  0  0  0  0  0  0  0  0  0  0
    2.2870    3.8700    1.4070 H   0  0  0  0  0  0  0  0  0  0  0  0
    0.4240    4.1000    2.9350 H   0  0  0  0  0  0  0  0  0  0  0  0
   -0.1160    4.7390    1.3170 H   0  0  0  0  0  0  0  0  0  0  0  0
   -1.7160    1.1440    2.7600 H   0  0  0  0  0  0  0  0  0  0  0  0
  1  8  1  0  0  0  0
  2  9  1  0  0  0  0
  2  1  1  0  0  0  0
  3  4  1  0  0  0  0
  3  2  1  0  0  0  0
  4 14  1  0  0  0  0
  4  5  1  0  0  0  0
  5 15  1  1  0  0  0
  5  1  1  0  0  0  0
  6 16  1  0  0  0  0
  6  5  1  0  0  0  0
  7  6  2  0  0  0  0
 10  2  1  0  0  0  0
 11  3  1  0  0  0  0
 12  3  1  0  0  0  0
 13  4  1  0  0  0  0
 16 20  1  0  0  0  0
 17 21  1  0  0  0  0
 17 18  1  0  0  0  0
 17 16  1  0  0  0  0
 18 19  2  0  0  0  0
 22 17  1  0  0  0  0
 23 24  1  0  0  0  0
 23 18  1  0  0  0  0
 24 34  1  6  0  0  0
 24 25  1  0  0  0  0
 25 36  1  0  0  0  0
 25 26  1  0  0  0  0
 25 35  1  0  0  0  0
 26 37  1  0  0  0  0
 27 26  1  0  0  0  0
 27 31  1  0  0  0  0
 28 27  2  0  0  0  0
 29 32  1  0  0  0  0
 29 24  1  0  0  0  0
 30 29  2  0  0  0  0
 33 23  1  0  0  0  0
 38 26  1  0  0  0  0
 39 31  1  0  0  0  0
M  END
$$$$
