PGH.pdb
 OpenBabel07022419033D

 40 41  0  0  1  0  0  0  0  0999 V2000
   -1.5380   -3.7580   -1.2540 N   0  0  0  0  0  0  0  0  0  0  0  0
   -1.8060   -5.2060   -1.2030 C   0  0  0  0  0  0  0  0  0  0  0  0
   -0.4310   -5.7190   -0.8320 C   0  0  0  0  0  0  0  0  0  0  0  0
   -0.0340   -4.7640    0.2680 C   0  0  0  0  0  0  0  0  0  0  0  0
   -0.8260   -3.5450   -0.0100 C   0  0  1  0  0  0  0  0  0  0  0  0
   -0.0600   -2.2770   -0.0250 C   0  0  0  0  0  0  0  0  0  0  0  0
    0.6360   -1.9460    0.9940 O   0  0  0  0  0  0  0  0  0  0  0  0
   -0.8660   -3.5980   -2.0450 H   0  0  0  0  0  0  0  0  0  0  0  0
   -2.4630   -5.3670   -0.3370 H   0  0  0  0  0  0  0  0  0  0  0  0
   -2.1790   -5.5920   -2.1530 H   0  0  0  0  0  0  0  0  0  0  0  0
    0.2820   -5.6240   -1.6840 H   0  0  0  0  0  0  0  0  0  0  0  0
   -0.4630   -6.7460   -0.4390 H   0  0  0  0  0  0  0  0  0  0  0  0
    1.0580   -4.6080    0.3220 H   0  0  0  0  0  0  0  0  0  0  0  0
   -0.3570   -5.2380    1.2330 H   0  0  0  0  0  0  0  0  0  0  0  0
   -1.6340   -3.4440    0.7740 H   0  0  0  0  0  0  0  0  0  0  0  0
   -0.0390   -1.3770   -1.1070 N   0  0  0  0  0  0  0  0  0  0  0  0
    0.7150   -0.1390   -1.1070 C   0  0  0  0  0  0  0  0  0  0  0  0
    0.2180    0.7050    0.0050 C   0  0  0  0  0  0  0  0  0  0  0  0
   -0.6890    0.3020    0.7300 O   0  0  0  0  0  0  0  0  0  0  0  0
   -0.5870   -1.5980   -1.9560 H   0  0  0  0  0  0  0  0  0  0  0  0
    0.6520    0.3700   -2.0830 H   0  0  0  0  0  0  0  0  0  0  0  0
    1.7980   -0.4120   -0.9440 H   0  0  0  0  0  0  0  0  0  0  0  0
    0.7320    1.9890    0.3030 N   0  0  0  0  0  0  0  0  0  0  0  0
    0.3480    2.8700    1.3170 C   0  0  1  0  0  0  0  0  0  0  0  0
    1.2950    3.3650    2.3110 C   0  0  0  0  0  0  0  0  0  0  0  0
    1.8860    2.2150    3.0900 C   0  0  0  0  0  0  0  0  0  0  0  0
    1.4470    1.6360    4.2370 C   0  0  0  0  0  0  0  0  0  0  0  0
    2.2740    0.6350    4.5950 N   0  0  0  0  0  0  0  0  0  0  0  0
    3.2330    0.6010    3.6550 C   0  0  0  0  0  0  0  0  0  0  0  0
    3.0100    1.5560    2.7340 N   0  0  0  0  0  0  0  0  0  0  0  0
   -0.3330    4.0330    0.6870 C   0  0  0  0  0  0  0  0  0  0  0  0
   -0.4620    4.0710   -0.5470 O   0  0  0  0  0  0  0  0  0  0  0  0
   -0.8240    5.0760    1.4790 O   0  0  0  0  0  0  0  0  0  0  0  0
    1.5090    2.3100   -0.3340 H   0  0  0  0  0  0  0  0  0  0  0  0
   -0.4890    2.3540    1.8890 H   0  0  0  0  0  0  0  0  0  0  0  0
    0.7550    3.9710    3.0710 H   0  0  0  0  0  0  0  0  0  0  0  0
    2.1410    3.9560    1.9950 H   0  0  0  0  0  0  0  0  0  0  0  0
    0.5490    1.9570    4.7680 H   0  0  0  0  0  0  0  0  0  0  0  0
    2.1610    0.0310    5.4370 H   0  0  0  0  0  0  0  0  0  0  0  0
    4.0580   -0.0870    3.6390 H   0  0  0  0  0  0  0  0  0  0  0  0
  1  2  1  0  0  0  0
  1  5  1  0  0  0  0
  2  3  1  0  0  0  0
  2  9  1  0  0  0  0
  3 12  1  0  0  0  0
  3  4  1  0  0  0  0
  4 13  1  0  0  0  0
  4 14  1  0  0  0  0
  5  4  1  0  0  0  0
  5 15  1  1  0  0  0
  6  5  1  0  0  0  0
  6  7  2  0  0  0  0
  8  1  1  0  0  0  0
 10  2  1  0  0  0  0
 11  3  1  0  0  0  0
 16 17  1  0  0  0  0
 16  6  1  0  0  0  0
 17 22  1  0  0  0  0
 17 18  1  0  0  0  0
 18 23  1  0  0  0  0
 18 19  2  0  0  0  0
 20 16  1  0  0  0  0
 21 17  1  0  0  0  0
 23 24  1  0  0  0  0
 24 35  1  1  0  0  0
 24 25  1  0  0  0  0
 25 36  1  0  0  0  0
 25 26  1  0  0  0  0
 26 27  2  0  0  0  0
 27 28  1  0  0  0  0
 27 38  1  0  0  0  0
 28 39  1  0  0  0  0
 29 28  1  0  0  0  0
 30 26  1  0  0  0  0
 30 29  2  0  0  0  0
 31 24  1  0  0  0  0
 31 33  1  0  0  0  0
 32 31  2  0  0  0  0
 34 23  1  0  0  0  0
 37 25  1  0  0  0  0
 40 29  1  0  0  0  0
M  END
$$$$
