PGK.pdb
 OpenBabel07022419033D

 44 44  0  0  1  0  0  0  0  0999 V2000
   -2.5840   -3.3390   -0.7300 N   0  0  0  0  0  0  0  0  0  0  0  0
   -3.7090   -4.2270   -0.5330 C   0  0  0  0  0  0  0  0  0  0  0  0
   -3.1260   -5.4590    0.0840 C   0  0  0  0  0  0  0  0  0  0  0  0
   -1.8080   -4.9890    0.6650 C   0  0  0  0  0  0  0  0  0  0  0  0
   -1.7480   -3.5030    0.4320 C   0  0  1  0  0  0  0  0  0  0  0  0
   -0.3630   -3.0260    0.2050 C   0  0  0  0  0  0  0  0  0  0  0  0
    0.4390   -3.1260    1.1550 O   0  0  0  0  0  0  0  0  0  0  0  0
   -2.9600   -2.3590   -0.6960 H   0  0  0  0  0  0  0  0  0  0  0  0
   -4.2100   -4.5140   -1.4760 H   0  0  0  0  0  0  0  0  0  0  0  0
   -4.4390   -3.7700    0.1920 H   0  0  0  0  0  0  0  0  0  0  0  0
   -3.7950   -5.8810    0.8650 H   0  0  0  0  0  0  0  0  0  0  0  0
   -2.9870   -6.2570   -0.6840 H   0  0  0  0  0  0  0  0  0  0  0  0
   -0.9460   -5.5050    0.2030 H   0  0  0  0  0  0  0  0  0  0  0  0
   -1.8130   -5.2580    1.7410 H   0  0  0  0  0  0  0  0  0  0  0  0
   -2.2170   -2.9690    1.2790 H   0  0  0  0  0  0  0  0  0  0  0  0
    0.0720   -2.4730   -1.0270 N   0  0  0  0  0  0  0  0  0  0  0  0
    1.4000   -1.9890   -1.2820 C   0  0  0  0  0  0  0  0  0  0  0  0
    1.7210   -0.8330   -0.4160 C   0  0  0  0  0  0  0  0  0  0  0  0
    2.8930   -0.3050   -0.4870 O   0  0  0  0  0  0  0  0  0  0  0  0
   -0.6290   -2.4170   -1.7940 H   0  0  0  0  0  0  0  0  0  0  0  0
    2.1730   -2.7690   -1.0850 H   0  0  0  0  0  0  0  0  0  0  0  0
    1.4980   -1.7020   -2.3580 H   0  0  0  0  0  0  0  0  0  0  0  0
    0.8440   -0.2220    0.5120 N   0  0  0  0  0  0  0  0  0  0  0  0
    1.3060    0.9420    1.3220 C   0  0  1  0  0  0  0  0  0  0  0  0
    0.3820    2.0750    1.1530 C   0  0  0  0  0  0  0  0  0  0  0  0
    0.6610    3.3130    1.8780 C   0  0  0  0  0  0  0  0  0  0  0  0
    1.7510    4.2300    1.6570 C   0  0  0  0  0  0  0  0  0  0  0  0
    3.1790    3.9560    1.7130 C   0  0  0  0  0  0  0  0  0  0  0  0
    3.6790    3.0950    0.6920 N   0  0  0  0  0  0  0  0  0  0  0  0
    1.3030    0.4430    2.7460 C   0  0  0  0  0  0  0  0  0  0  0  0
    0.9290   -0.7220    3.0180 O   0  0  0  0  0  0  0  0  0  0  0  0
    1.7070    1.2260    3.8140 O   0  0  0  0  0  0  0  0  0  0  0  0
   -0.1210   -0.5860    0.6070 H   0  0  0  0  0  0  0  0  0  0  0  0
    2.3280    1.1670    1.0790 H   0  0  0  0  0  0  0  0  0  0  0  0
   -0.6610    1.6830    1.4650 H   0  0  0  0  0  0  0  0  0  0  0  0
    0.1890    2.2810    0.0420 H   0  0  0  0  0  0  0  0  0  0  0  0
    0.5790    3.0690    3.0250 H   0  0  0  0  0  0  0  0  0  0  0  0
   -0.3350    3.9500    1.7980 H   0  0  0  0  0  0  0  0  0  0  0  0
    1.5840    5.1290    2.3680 H   0  0  0  0  0  0  0  0  0  0  0  0
    1.5180    4.7570    0.6410 H   0  0  0  0  0  0  0  0  0  0  0  0
    3.5270    3.5890    2.7280 H   0  0  0  0  0  0  0  0  0  0  0  0
    3.7900    4.9210    1.6020 H   0  0  0  0  0  0  0  0  0  0  0  0
    4.4070    2.4300    1.0140 H   0  0  0  0  0  0  0  0  0  0  0  0
    3.9350    3.5860   -0.1930 H   0  0  0  0  0  0  0  0  0  0  0  0
  1  8  1  0  0  0  0
  1  2  1  0  0  0  0
  1  5  1  0  0  0  0
  2  3  1  0  0  0  0
  2 10  1  0  0  0  0
  3  4  1  0  0  0  0
  3 11  1  0  0  0  0
  4 14  1  0  0  0  0
  5  4  1  0  0  0  0
  5 15  1  1  0  0  0
  6  5  1  0  0  0  0
  6  7  2  0  0  0  0
  9  2  1  0  0  0  0
 12  3  1  0  0  0  0
 13  4  1  0  0  0  0
 16  6  1  0  0  0  0
 17 21  1  0  0  0  0
 17 16  1  0  0  0  0
 17 18  1  0  0  0  0
 18 23  1  0  0  0  0
 19 18  2  0  0  0  0
 20 16  1  0  0  0  0
 22 17  1  0  0  0  0
 23 33  1  0  0  0  0
 23 24  1  0  0  0  0
 24 34  1  6  0  0  0
 24 30  1  0  0  0  0
 25 24  1  0  0  0  0
 25 35  1  0  0  0  0
 25 26  1  0  0  0  0
 26 37  1  0  0  0  0
 27 28  1  0  0  0  0
 27 26  1  0  0  0  0
 27 39  1  0  0  0  0
 28 41  1  0  0  0  0
 29 43  1  0  0  0  0
 29 28  1  0  0  0  0
 30 31  2  0  0  0  0
 30 32  1  0  0  0  0
 36 25  1  0  0  0  0
 38 26  1  0  0  0  0
 40 27  1  0  0  0  0
 42 28  1  0  0  0  0
 44 29  1  0  0  0  0
M  END
$$$$
