PGL.pdb
 OpenBabel07022419033D

 42 42  0  0  1  0  0  0  0  0999 V2000
   -0.5500   -4.0240    2.5920 N   0  0  0  0  0  0  0  0  0  0  0  0
   -0.1150   -5.3860    2.5610 C   0  0  0  0  0  0  0  0  0  0  0  0
    1.3820   -5.4000    2.4480 C   0  0  0  0  0  0  0  0  0  0  0  0
    1.8200   -3.9880    2.7670 C   0  0  0  0  0  0  0  0  0  0  0  0
    0.5900   -3.1690    2.5320 C   0  0  1  0  0  0  0  0  0  0  0  0
    0.6960   -2.4420    1.2340 C   0  0  0  0  0  0  0  0  0  0  0  0
    1.6560   -1.6530    1.0470 O   0  0  0  0  0  0  0  0  0  0  0  0
   -1.1930   -3.8080    3.3860 H   0  0  0  0  0  0  0  0  0  0  0  0
   -0.4170   -5.8440    3.5490 H   0  0  0  0  0  0  0  0  0  0  0  0
   -0.5830   -5.9960    1.7800 H   0  0  0  0  0  0  0  0  0  0  0  0
    1.8290   -6.1290    3.1550 H   0  0  0  0  0  0  0  0  0  0  0  0
    1.6760   -5.7020    1.4330 H   0  0  0  0  0  0  0  0  0  0  0  0
    2.6680   -3.6490    2.1330 H   0  0  0  0  0  0  0  0  0  0  0  0
    2.1650   -3.9080    3.8220 H   0  0  0  0  0  0  0  0  0  0  0  0
    0.4840   -2.4010    3.3380 H   0  0  0  0  0  0  0  0  0  0  0  0
   -0.2470   -2.6010    0.1880 N   0  0  0  0  0  0  0  0  0  0  0  0
   -0.1620   -1.9010   -1.0590 C   0  0  0  0  0  0  0  0  0  0  0  0
   -0.3070   -0.4250   -0.8500 C   0  0  0  0  0  0  0  0  0  0  0  0
   -0.1890    0.3450   -1.8740 O   0  0  0  0  0  0  0  0  0  0  0  0
   -1.0420   -3.2730    0.3560 H   0  0  0  0  0  0  0  0  0  0  0  0
   -1.0060   -2.1870   -1.7250 H   0  0  0  0  0  0  0  0  0  0  0  0
    0.7950   -2.1430   -1.5610 H   0  0  0  0  0  0  0  0  0  0  0  0
    1.7330    3.5910   -1.4810 C   0  0  0  0  0  0  0  0  0  0  0  0
    1.3840    2.5040   -0.4490 C   0  0  0  0  0  0  0  0  0  0  0  0
    2.1630    2.9180    0.7920 C   0  0  0  0  0  0  0  0  0  0  0  0
   -0.0750    2.5650   -0.2680 C   0  0  0  0  0  0  0  0  0  0  0  0
   -0.6930    1.5850    0.6950 C   0  0  2  0  0  0  0  0  0  0  0  0
   -0.5650    0.2010    0.3790 N   0  0  0  0  0  0  0  0  0  0  0  0
   -2.0500    2.0440    1.0230 C   0  0  0  0  0  0  0  0  0  0  0  0
   -3.0120    1.2350    1.0140 O   0  0  0  0  0  0  0  0  0  0  0  0
   -2.3280    3.3560    1.3490 O   0  0  0  0  0  0  0  0  0  0  0  0
    0.9590    3.6310   -2.2750 H   0  0  0  0  0  0  0  0  0  0  0  0
    2.7170    3.3840   -1.9490 H   0  0  0  0  0  0  0  0  0  0  0  0
    1.7860    4.5680   -0.9580 H   0  0  0  0  0  0  0  0  0  0  0  0
    1.8010    1.5640   -0.8070 H   0  0  0  0  0  0  0  0  0  0  0  0
    3.1800    3.1940    0.4420 H   0  0  0  0  0  0  0  0  0  0  0  0
    2.2910    2.0870    1.5050 H   0  0  0  0  0  0  0  0  0  0  0  0
    1.7380    3.8260    1.2670 H   0  0  0  0  0  0  0  0  0  0  0  0
   -0.3790    3.5790    0.1210 H   0  0  0  0  0  0  0  0  0  0  0  0
   -0.5980    2.4840   -1.2350 H   0  0  0  0  0  0  0  0  0  0  0  0
   -0.0870    1.7510    1.6880 H   0  0  0  0  0  0  0  0  0  0  0  0
   -0.7100   -0.4710    1.2020 H   0  0  0  0  0  0  0  0  0  0  0  0
  1  8  1  0  0  0  0
  2  1  1  0  0  0  0
  2  9  1  0  0  0  0
  3  2  1  0  0  0  0
  3  4  1  0  0  0  0
  3 11  1  0  0  0  0
  4 14  1  0  0  0  0
  5  1  1  0  0  0  0
  5  4  1  0  0  0  0
  5 15  1  1  0  0  0
  6  5  1  0  0  0  0
  7  6  2  0  0  0  0
 10  2  1  0  0  0  0
 12  3  1  0  0  0  0
 13  4  1  0  0  0  0
 16 20  1  0  0  0  0
 16  6  1  0  0  0  0
 17 18  1  0  0  0  0
 17 16  1  0  0  0  0
 18 28  1  0  0  0  0
 19 18  2  0  0  0  0
 21 17  1  0  0  0  0
 22 17  1  0  0  0  0
 23 34  1  0  0  0  0
 23 24  1  0  0  0  0
 24 26  1  0  0  0  0
 24 25  1  0  0  0  0
 25 38  1  0  0  0  0
 25 37  1  0  0  0  0
 26 39  1  0  0  0  0
 26 27  1  0  0  0  0
 27 29  1  0  0  0  0
 27 41  1  1  0  0  0
 28 27  1  0  0  0  0
 28 42  1  0  0  0  0
 29 31  1  0  0  0  0
 30 29  2  0  0  0  0
 32 23  1  0  0  0  0
 33 23  1  0  0  0  0
 35 24  1  0  0  0  0
 36 25  1  0  0  0  0
 40 26  1  0  0  0  0
M  END
$$$$
