PGM.pdb
 OpenBabel07022419033D

 40 40  0  0  1  0  0  0  0  0999 V2000
   -1.6050   -2.9090   -0.6610 N   0  0  0  0  0  0  0  0  0  0  0  0
   -2.5090   -4.0310   -0.5810 C   0  0  0  0  0  0  0  0  0  0  0  0
   -1.8750   -5.0640    0.2910 C   0  0  0  0  0  0  0  0  0  0  0  0
   -0.7490   -4.3540    1.0080 C   0  0  0  0  0  0  0  0  0  0  0  0
   -0.7420   -2.9570    0.4740 C   0  0  1  0  0  0  0  0  0  0  0  0
    0.6370   -2.4470    0.1860 C   0  0  0  0  0  0  0  0  0  0  0  0
    1.4800   -2.4450    1.1230 O   0  0  0  0  0  0  0  0  0  0  0  0
   -2.1000   -1.9980   -0.7790 H   0  0  0  0  0  0  0  0  0  0  0  0
   -3.4550   -3.6510   -0.1410 H   0  0  0  0  0  0  0  0  0  0  0  0
   -2.7210   -4.3890   -1.6100 H   0  0  0  0  0  0  0  0  0  0  0  0
   -2.6650   -5.4200    1.0110 H   0  0  0  0  0  0  0  0  0  0  0  0
   -1.5150   -5.9140   -0.3270 H   0  0  0  0  0  0  0  0  0  0  0  0
    0.2120   -4.8640    0.9310 H   0  0  0  0  0  0  0  0  0  0  0  0
   -1.0120   -4.3400    2.0990 H   0  0  0  0  0  0  0  0  0  0  0  0
   -1.1560   -2.2570    1.2490 H   0  0  0  0  0  0  0  0  0  0  0  0
    1.0480   -1.9680   -1.0700 N   0  0  0  0  0  0  0  0  0  0  0  0
    2.3630   -1.4580   -1.3790 C   0  0  0  0  0  0  0  0  0  0  0  0
    2.6700   -0.2450   -0.5930 C   0  0  0  0  0  0  0  0  0  0  0  0
    3.8330    0.2550   -0.7660 O   0  0  0  0  0  0  0  0  0  0  0  0
    0.3100   -1.9960   -1.8300 H   0  0  0  0  0  0  0  0  0  0  0  0
    3.1490   -2.2370   -1.2770 H   0  0  0  0  0  0  0  0  0  0  0  0
    2.3750   -1.1300   -2.4550 H   0  0  0  0  0  0  0  0  0  0  0  0
   -0.4370    3.6970    3.7070 C   0  0  0  0  0  0  0  0  0  0  0  0
   -0.6110    2.2470    2.6480 S   0  0  0  0  0  0  0  0  0  0  0  0
   -0.1560    2.5410    0.9490 C   0  0  0  0  0  0  0  0  0  0  0  0
    1.2930    2.7680    0.7060 C   0  0  0  0  0  0  0  0  0  0  0  0
    2.1870    1.6090    1.0690 C   0  0  2  0  0  0  0  0  0  0  0  0
    1.8330    0.4140    0.3120 N   0  0  0  0  0  0  0  0  0  0  0  0
    2.1900    1.2640    2.5030 C   0  0  0  0  0  0  0  0  0  0  0  0
    1.8640    0.0950    2.9120 O   0  0  0  0  0  0  0  0  0  0  0  0
    2.5380    2.1470    3.5140 O   0  0  0  0  0  0  0  0  0  0  0  0
    0.5260    3.8090    4.1980 H   0  0  0  0  0  0  0  0  0  0  0  0
   -1.2620    3.6600    4.4530 H   0  0  0  0  0  0  0  0  0  0  0  0
   -0.5550    4.5960    3.0340 H   0  0  0  0  0  0  0  0  0  0  0  0
   -0.5610    1.7050    0.3380 H   0  0  0  0  0  0  0  0  0  0  0  0
   -0.6900    3.4520    0.5710 H   0  0  0  0  0  0  0  0  0  0  0  0
    1.4320    3.0740   -0.3500 H   0  0  0  0  0  0  0  0  0  0  0  0
    1.5970    3.6730    1.3060 H   0  0  0  0  0  0  0  0  0  0  0  0
    3.2350    1.9450    0.8300 H   0  0  0  0  0  0  0  0  0  0  0  0
    0.8710    0.0540    0.4660 H   0  0  0  0  0  0  0  0  0  0  0  0
  1  2  1  0  0  0  0
  1  5  1  0  0  0  0
  2  9  1  0  0  0  0
  2  3  1  0  0  0  0
  3  4  1  0  0  0  0
  3 11  1  0  0  0  0
  4 14  1  0  0  0  0
  5  4  1  0  0  0  0
  5 15  1  1  0  0  0
  6  5  1  0  0  0  0
  6  7  2  0  0  0  0
  8  1  1  0  0  0  0
 10  2  1  0  0  0  0
 12  3  1  0  0  0  0
 13  4  1  0  0  0  0
 16  6  1  0  0  0  0
 17 21  1  0  0  0  0
 17 16  1  0  0  0  0
 17 18  1  0  0  0  0
 18 28  1  0  0  0  0
 19 18  2  0  0  0  0
 20 16  1  0  0  0  0
 22 17  1  0  0  0  0
 23 32  1  0  0  0  0
 23 33  1  0  0  0  0
 24 23  1  0  0  0  0
 25 24  1  0  0  0  0
 26 25  1  0  0  0  0
 26 27  1  0  0  0  0
 26 38  1  0  0  0  0
 27 39  1  6  0  0  0
 27 29  1  0  0  0  0
 28 40  1  0  0  0  0
 28 27  1  0  0  0  0
 29 30  2  0  0  0  0
 29 31  1  0  0  0  0
 34 23  1  0  0  0  0
 35 25  1  0  0  0  0
 36 25  1  0  0  0  0
 37 26  1  0  0  0  0
M  END
$$$$
