PGR.pdb
 OpenBabel07022419033D

 46 46  0  0  1  0  0  0  0  0999 V2000
    0.8970   -4.3100    2.3500 N   0  0  0  0  0  0  0  0  0  0  0  0
    0.7940   -5.5430    1.6060 C   0  0  0  0  0  0  0  0  0  0  0  0
    2.2230   -5.6480    1.0620 C   0  0  0  0  0  0  0  0  0  0  0  0
    2.6190   -4.2120    0.8070 C   0  0  0  0  0  0  0  0  0  0  0  0
    1.5070   -3.3980    1.4190 C   0  0  1  0  0  0  0  0  0  0  0  0
    0.5600   -2.9070    0.3770 C   0  0  0  0  0  0  0  0  0  0  0  0
   -0.6370   -3.2860    0.3950 O   0  0  0  0  0  0  0  0  0  0  0  0
    1.5210   -4.4100    3.1630 H   0  0  0  0  0  0  0  0  0  0  0  0
    0.5600   -6.4110    2.2560 H   0  0  0  0  0  0  0  0  0  0  0  0
    0.0550   -5.4530    0.8050 H   0  0  0  0  0  0  0  0  0  0  0  0
    2.2760   -6.2770    0.1750 H   0  0  0  0  0  0  0  0  0  0  0  0
    2.8160   -6.0970    1.8920 H   0  0  0  0  0  0  0  0  0  0  0  0
    3.5750   -3.9580    1.3240 H   0  0  0  0  0  0  0  0  0  0  0  0
    2.6750   -3.9810   -0.2780 H   0  0  0  0  0  0  0  0  0  0  0  0
    1.9370   -2.5170    1.9860 H   0  0  0  0  0  0  0  0  0  0  0  0
    0.9630   -2.0140   -0.6490 N   0  0  0  0  0  0  0  0  0  0  0  0
    0.0530   -1.5220   -1.6530 C   0  0  0  0  0  0  0  0  0  0  0  0
   -1.0300   -0.6990   -1.0600 C   0  0  0  0  0  0  0  0  0  0  0  0
   -1.9330   -0.2460   -1.8270 O   0  0  0  0  0  0  0  0  0  0  0  0
    1.9850   -1.7070   -0.6590 H   0  0  0  0  0  0  0  0  0  0  0  0
   -0.3620   -2.3830   -2.2240 H   0  0  0  0  0  0  0  0  0  0  0  0
    0.6460   -0.8990   -2.3860 H   0  0  0  0  0  0  0  0  0  0  0  0
    2.5680    3.9800    2.8100 N   0  0  0  0  0  0  0  0  0  0  0  0
    1.2780    4.1140    2.2120 C   0  0  0  0  0  0  0  0  0  0  0  0
    0.2810    4.3970    2.9710 N   0  0  0  0  0  0  0  0  0  0  0  0
    1.0500    3.9480    0.8240 N   0  0  0  0  0  0  0  0  0  0  0  0
   -0.2730    3.6600    0.3140 C   0  0  0  0  0  0  0  0  0  0  0  0
   -0.6270    2.2670    0.7780 C   0  0  0  0  0  0  0  0  0  0  0  0
   -2.0080    1.8310    0.3070 C   0  0  0  0  0  0  0  0  0  0  0  0
   -2.1850    0.4160    0.8700 C   0  0  2  0  0  0  0  0  0  0  0  0
   -1.1180   -0.3820    0.3120 N   0  0  0  0  0  0  0  0  0  0  0  0
   -3.5110   -0.1390    0.5940 C   0  0  0  0  0  0  0  0  0  0  0  0
   -3.6080   -1.2060   -0.0560 O   0  0  0  0  0  0  0  0  0  0  0  0
   -4.6630    0.4720    1.0270 O   0  0  0  0  0  0  0  0  0  0  0  0
    2.8420    4.5330    3.6450 H   0  0  0  0  0  0  0  0  0  0  0  0
    3.2670    3.3210    2.4190 H   0  0  0  0  0  0  0  0  0  0  0  0
    0.3520    4.5360    3.9990 H   0  0  0  0  0  0  0  0  0  0  0  0
    1.8540    4.0380    0.1760 H   0  0  0  0  0  0  0  0  0  0  0  0
   -0.9660    4.3520    0.8670 H   0  0  0  0  0  0  0  0  0  0  0  0
   -0.3730    3.7970   -0.7600 H   0  0  0  0  0  0  0  0  0  0  0  0
   -0.6050    2.2170    1.8830 H   0  0  0  0  0  0  0  0  0  0  0  0
    0.1150    1.5490    0.3370 H   0  0  0  0  0  0  0  0  0  0  0  0
   -1.9790    1.8400   -0.7980 H   0  0  0  0  0  0  0  0  0  0  0  0
   -2.7920    2.5040    0.6560 H   0  0  0  0  0  0  0  0  0  0  0  0
   -2.0350    0.5260    1.9690 H   0  0  0  0  0  0  0  0  0  0  0  0
   -0.3810   -0.7170    0.9530 H   0  0  0  0  0  0  0  0  0  0  0  0
  1  8  1  0  0  0  0
  2  9  1  0  0  0  0
  2  1  1  0  0  0  0
  3  2  1  0  0  0  0
  3 12  1  0  0  0  0
  4  3  1  0  0  0  0
  4 13  1  0  0  0  0
  4  5  1  0  0  0  0
  5 15  1  1  0  0  0
  5  1  1  0  0  0  0
  6  7  2  0  0  0  0
  6  5  1  0  0  0  0
 10  2  1  0  0  0  0
 11  3  1  0  0  0  0
 14  4  1  0  0  0  0
 16  6  1  0  0  0  0
 17 18  1  0  0  0  0
 17 16  1  0  0  0  0
 18 31  1  0  0  0  0
 19 18  2  0  0  0  0
 20 16  1  0  0  0  0
 21 17  1  0  0  0  0
 22 17  1  0  0  0  0
 23 35  1  0  0  0  0
 24 23  1  0  0  0  0
 24 25  2  0  0  0  0
 25 37  1  0  0  0  0
 26 24  1  0  0  0  0
 27 28  1  0  0  0  0
 27 26  1  0  0  0  0
 27 39  1  0  0  0  0
 28 41  1  0  0  0  0
 29 44  1  0  0  0  0
 29 28  1  0  0  0  0
 29 30  1  0  0  0  0
 30 45  1  1  0  0  0
 31 30  1  0  0  0  0
 31 46  1  0  0  0  0
 32 30  1  0  0  0  0
 32 34  1  0  0  0  0
 33 32  2  0  0  0  0
 36 23  1  0  0  0  0
 38 26  1  0  0  0  0
 40 27  1  0  0  0  0
 42 28  1  0  0  0  0
 43 29  1  0  0  0  0
M  END
$$$$
