PGS.pdb
 OpenBabel07022419033D

 34 34  0  0  1  0  0  0  0  0999 V2000
   -1.3190   -3.0310    1.0670 N   0  0  0  0  0  0  0  0  0  0  0  0
   -2.0560   -3.6800    2.1630 C   0  0  0  0  0  0  0  0  0  0  0  0
   -0.9330   -4.1680    3.0850 C   0  0  0  0  0  0  0  0  0  0  0  0
    0.2890   -3.3720    2.6700 C   0  0  0  0  0  0  0  0  0  0  0  0
   -0.3230   -2.2920    1.8210 C   0  0  1  0  0  0  0  0  0  0  0  0
    0.6490   -1.6130    0.9520 C   0  0  0  0  0  0  0  0  0  0  0  0
    0.5800   -1.6960   -0.3060 O   0  0  0  0  0  0  0  0  0  0  0  0
   -0.7850   -3.8310    0.6120 H   0  0  0  0  0  0  0  0  0  0  0  0
   -2.6880   -4.4970    1.8100 H   0  0  0  0  0  0  0  0  0  0  0  0
   -2.6250   -2.8500    2.6520 H   0  0  0  0  0  0  0  0  0  0  0  0
   -1.2480   -3.9290    4.1260 H   0  0  0  0  0  0  0  0  0  0  0  0
   -0.7740   -5.2600    2.9540 H   0  0  0  0  0  0  0  0  0  0  0  0
    0.8430   -2.9750    3.5400 H   0  0  0  0  0  0  0  0  0  0  0  0
    0.9400   -4.0590    2.0920 H   0  0  0  0  0  0  0  0  0  0  0  0
   -0.8210   -1.5790    2.5080 H   0  0  0  0  0  0  0  0  0  0  0  0
    1.6930   -0.8440    1.5240 N   0  0  0  0  0  0  0  0  0  0  0  0
    2.6840   -0.1390    0.7800 C   0  0  0  0  0  0  0  0  0  0  0  0
    2.1910    0.9300   -0.0970 C   0  0  0  0  0  0  0  0  0  0  0  0
    3.0260    1.5690   -0.8070 O   0  0  0  0  0  0  0  0  0  0  0  0
    1.7020   -0.8180    2.5900 H   0  0  0  0  0  0  0  0  0  0  0  0
    3.3730   -0.8130    0.2190 H   0  0  0  0  0  0  0  0  0  0  0  0
    3.3680    0.3720    1.5210 H   0  0  0  0  0  0  0  0  0  0  0  0
   -0.8510    2.8920   -3.0410 O   0  0  0  0  0  0  0  0  0  0  0  0
   -0.4940    1.8400   -2.1760 C   0  0  0  0  0  0  0  0  0  0  0  0
    0.4540    2.3980   -1.1310 C   0  0  2  0  0  0  0  0  0  0  0  0
    0.8360    1.3200   -0.2220 N   0  0  0  0  0  0  0  0  0  0  0  0
   -0.1810    3.4890   -0.3750 C   0  0  0  0  0  0  0  0  0  0  0  0
   -0.3290    3.4090    0.8800 O   0  0  0  0  0  0  0  0  0  0  0  0
   -0.6440    4.6430   -0.9900 O   0  0  0  0  0  0  0  0  0  0  0  0
   -1.1560    2.4790   -3.8930 H   0  0  0  0  0  0  0  0  0  0  0  0
   -1.4150    1.4750   -1.7110 H   0  0  0  0  0  0  0  0  0  0  0  0
   -0.0090    1.0590   -2.7870 H   0  0  0  0  0  0  0  0  0  0  0  0
    1.3690    2.7780   -1.6290 H   0  0  0  0  0  0  0  0  0  0  0  0
    0.0890    0.8590    0.3340 H   0  0  0  0  0  0  0  0  0  0  0  0
  1  5  1  0  0  0  0
  1  2  1  0  0  0  0
  2 10  1  0  0  0  0
  2  3  1  0  0  0  0
  3 11  1  0  0  0  0
  4  3  1  0  0  0  0
  4 13  1  0  0  0  0
  5 15  1  1  0  0  0
  5  4  1  0  0  0  0
  6 16  1  0  0  0  0
  6  5  1  0  0  0  0
  7  6  2  0  0  0  0
  8  1  1  0  0  0  0
  9  2  1  0  0  0  0
 12  3  1  0  0  0  0
 14  4  1  0  0  0  0
 16 20  1  0  0  0  0
 17 22  1  0  0  0  0
 17 16  1  0  0  0  0
 18 17  1  0  0  0  0
 19 18  2  0  0  0  0
 21 17  1  0  0  0  0
 23 24  1  0  0  0  0
 24 31  1  0  0  0  0
 24 25  1  0  0  0  0
 25 33  1  6  0  0  0
 25 27  1  0  0  0  0
 25 26  1  0  0  0  0
 26 18  1  0  0  0  0
 26 34  1  0  0  0  0
 27 28  1  0  0  0  0
 29 27  2  0  0  0  0
 30 23  1  0  0  0  0
 32 24  1  0  0  0  0
M  END
$$$$
