PGV.pdb
 OpenBabel07022419033D

 39 39  0  0  1  0  0  0  0  0999 V2000
   -1.0210   -3.4060    1.0090 N   0  0  0  0  0  0  0  0  0  0  0  0
   -1.9090   -4.3290    0.2590 C   0  0  0  0  0  0  0  0  0  0  0  0
   -1.0420   -4.4670   -1.0020 C   0  0  0  0  0  0  0  0  0  0  0  0
    0.2990   -4.7860   -0.3920 C   0  0  0  0  0  0  0  0  0  0  0  0
    0.2820   -4.0150    0.9020 C   0  0  1  0  0  0  0  0  0  0  0  0
    1.4150   -3.0990    0.9310 C   0  0  0  0  0  0  0  0  0  0  0  0
    2.5810   -3.6060    0.8000 O   0  0  0  0  0  0  0  0  0  0  0  0
   -1.1050   -2.5130    0.4440 H   0  0  0  0  0  0  0  0  0  0  0  0
   -2.8740   -3.8670    0.0480 H   0  0  0  0  0  0  0  0  0  0  0  0
   -1.9460   -5.3160    0.7340 H   0  0  0  0  0  0  0  0  0  0  0  0
   -0.9430   -3.4930   -1.5170 H   0  0  0  0  0  0  0  0  0  0  0  0
   -1.4260   -5.2710   -1.6540 H   0  0  0  0  0  0  0  0  0  0  0  0
    0.3250   -5.8960   -0.2120 H   0  0  0  0  0  0  0  0  0  0  0  0
    1.1460   -4.4930   -1.0450 H   0  0  0  0  0  0  0  0  0  0  0  0
    0.3420   -4.7740    1.7440 H   0  0  0  0  0  0  0  0  0  0  0  0
    1.2480   -1.7040    1.0960 N   0  0  0  0  0  0  0  0  0  0  0  0
    2.4110   -0.8590    1.1140 C   0  0  0  0  0  0  0  0  0  0  0  0
    2.1590    0.5770    1.2900 C   0  0  0  0  0  0  0  0  0  0  0  0
    3.1960    1.3300    1.3050 O   0  0  0  0  0  0  0  0  0  0  0  0
    0.2990   -1.3280    1.2030 H   0  0  0  0  0  0  0  0  0  0  0  0
    3.0120   -0.9860    0.1720 H   0  0  0  0  0  0  0  0  0  0  0  0
    3.1050   -1.2190    1.9260 H   0  0  0  0  0  0  0  0  0  0  0  0
   -1.3230    2.8310    0.3360 C   0  0  0  0  0  0  0  0  0  0  0  0
    0.0900    3.3000    0.4740 C   0  0  0  0  0  0  0  0  0  0  0  0
    0.8270    3.0540   -0.8240 C   0  0  0  0  0  0  0  0  0  0  0  0
    0.8350    2.6250    1.6020 C   0  0  2  0  0  0  0  0  0  0  0  0
    0.9090    1.1990    1.4400 N   0  0  0  0  0  0  0  0  0  0  0  0
    0.2800    3.0030    2.9350 C   0  0  0  0  0  0  0  0  0  0  0  0
    0.1320    4.2030    3.2770 O   0  0  0  0  0  0  0  0  0  0  0  0
   -0.1070    2.0600    3.8760 O   0  0  0  0  0  0  0  0  0  0  0  0
   -1.4920    1.7980    0.6970 H   0  0  0  0  0  0  0  0  0  0  0  0
   -1.6380    2.9420   -0.7430 H   0  0  0  0  0  0  0  0  0  0  0  0
   -2.0320    3.4770    0.9000 H   0  0  0  0  0  0  0  0  0  0  0  0
    0.0670    4.4000    0.6180 H   0  0  0  0  0  0  0  0  0  0  0  0
    0.6870    1.9980   -1.1830 H   0  0  0  0  0  0  0  0  0  0  0  0
    0.4580    3.6980   -1.6460 H   0  0  0  0  0  0  0  0  0  0  0  0
    1.9160    3.2920   -0.7260 H   0  0  0  0  0  0  0  0  0  0  0  0
    1.8620    3.0360    1.5810 H   0  0  0  0  0  0  0  0  0  0  0  0
    0.0470    0.5910    1.4290 H   0  0  0  0  0  0  0  0  0  0  0  0
  2 10  1  0  0  0  0
  2  1  1  0  0  0  0
  3  4  1  0  0  0  0
  3  2  1  0  0  0  0
  4 13  1  0  0  0  0
  4  5  1  0  0  0  0
  5  6  1  0  0  0  0
  5  1  1  0  0  0  0
  5 15  1  1  0  0  0
  6 16  1  0  0  0  0
  7  6  2  0  0  0  0
  8  1  1  0  0  0  0
  9  2  1  0  0  0  0
 11  3  1  0  0  0  0
 12  3  1  0  0  0  0
 14  4  1  0  0  0  0
 16 17  1  0  0  0  0
 16 20  1  0  0  0  0
 17 18  1  0  0  0  0
 17 22  1  0  0  0  0
 18 19  2  0  0  0  0
 18 27  1  0  0  0  0
 21 17  1  0  0  0  0
 23 24  1  0  0  0  0
 23 31  1  0  0  0  0
 23 33  1  0  0  0  0
 24 34  1  0  0  0  0
 24 26  1  0  0  0  0
 25 37  1  0  0  0  0
 25 24  1  0  0  0  0
 26 38  1  6  0  0  0
 26 28  1  0  0  0  0
 27 26  1  0  0  0  0
 28 29  2  0  0  0  0
 28 30  1  0  0  0  0
 32 23  1  0  0  0  0
 35 25  1  0  0  0  0
 36 25  1  0  0  0  0
 39 27  1  0  0  0  0
M  END
$$$$
