PHC.pdb
 OpenBabel07022419043D

 44 45  0  0  1  0  0  0  0  0999 V2000
    3.0420   -2.7510    0.2690 N   0  0  0  0  0  0  0  0  0  0  0  0
    3.8190   -3.5840    1.1430 C   0  0  0  0  0  0  0  0  0  0  0  0
    3.2770   -3.4600    2.5260 C   0  0  0  0  0  0  0  0  0  0  0  0
    2.0020   -2.6700    2.3950 C   0  0  0  0  0  0  0  0  0  0  0  0
    1.8140   -2.4350    0.9230 C   0  0  1  0  0  0  0  0  0  0  0  0
    1.3950   -1.0070    0.6430 C   0  0  0  0  0  0  0  0  0  0  0  0
    2.1250   -0.3010   -0.0870 O   0  0  0  0  0  0  0  0  0  0  0  0
    2.8620   -3.1840   -0.6630 H   0  0  0  0  0  0  0  0  0  0  0  0
    3.7220   -4.6390    0.7700 H   0  0  0  0  0  0  0  0  0  0  0  0
    4.9010   -3.2950    1.1260 H   0  0  0  0  0  0  0  0  0  0  0  0
    4.0110   -2.9560    3.1950 H   0  0  0  0  0  0  0  0  0  0  0  0
    3.0700   -4.4780    2.9470 H   0  0  0  0  0  0  0  0  0  0  0  0
    2.0770   -1.6840    2.9140 H   0  0  0  0  0  0  0  0  0  0  0  0
    1.1780   -3.2530    2.8560 H   0  0  0  0  0  0  0  0  0  0  0  0
    0.9740   -3.0800    0.5870 H   0  0  0  0  0  0  0  0  0  0  0  0
    0.1980   -0.4980    1.2040 N   0  0  0  0  0  0  0  0  0  0  0  0
   -0.3230    0.8250    1.0500 C   0  0  1  0  0  0  0  0  0  0  0  0
    0.7200    1.9120    0.8430 C   0  0  0  0  0  0  0  0  0  0  0  0
    1.5710    1.9470    2.0690 C   0  0  0  0  0  0  0  0  0  0  0  0
    1.3170    2.7320    3.2040 C   0  0  0  0  0  0  0  0  0  0  0  0
    2.2580    2.5490    4.1400 N   0  0  0  0  0  0  0  0  0  0  0  0
    3.1150    1.6520    3.6170 C   0  0  0  0  0  0  0  0  0  0  0  0
    2.6940    1.3010    2.3800 N   0  0  0  0  0  0  0  0  0  0  0  0
   -1.4960    0.9640    0.1990 C   0  0  0  0  0  0  0  0  0  0  0  0
   -1.9980    2.0910    0.0260 O   0  0  0  0  0  0  0  0  0  0  0  0
   -0.3310   -1.2200    1.7960 H   0  0  0  0  0  0  0  0  0  0  0  0
   -0.6690    1.0960    2.1330 H   0  0  0  0  0  0  0  0  0  0  0  0
    1.3000    1.8280   -0.0670 H   0  0  0  0  0  0  0  0  0  0  0  0
    0.1070    2.8640    0.7790 H   0  0  0  0  0  0  0  0  0  0  0  0
    0.4610    3.3910    3.2790 H   0  0  0  0  0  0  0  0  0  0  0  0
    2.3170    3.0030    5.0780 H   0  0  0  0  0  0  0  0  0  0  0  0
    3.9950    1.2910    4.1330 H   0  0  0  0  0  0  0  0  0  0  0  0
   -2.1390   -0.1170   -0.4730 N   0  0  0  0  0  0  0  0  0  0  0  0
   -3.2830   -0.0020   -1.3070 C   0  0  1  0  0  0  0  0  0  0  0  0
   -3.0800   -0.4490   -2.7260 C   0  0  0  0  0  0  0  0  0  0  0  0
   -1.7830    0.5160   -3.5470 S   0  0  0  0  0  0  0  0  0  0  0  0
   -4.4660   -0.7470   -0.7520 C   0  0  0  0  0  0  0  0  0  0  0  0
   -4.3420   -1.3600    0.3230 O   0  0  0  0  0  0  0  0  0  0  0  0
   -5.6820   -0.7680   -1.4040 O   0  0  0  0  0  0  0  0  0  0  0  0
   -1.7270   -1.0680   -0.3350 H   0  0  0  0  0  0  0  0  0  0  0  0
   -3.5860    1.0660   -1.3430 H   0  0  0  0  0  0  0  0  0  0  0  0
   -2.9510   -1.5270   -2.8400 H   0  0  0  0  0  0  0  0  0  0  0  0
   -4.0350   -0.1900   -3.2660 H   0  0  0  0  0  0  0  0  0  0  0  0
   -1.2870   -0.1120   -4.6790 H   0  0  0  0  0  0  0  0  0  0  0  0
  1  5  1  0  0  0  0
  1  2  1  0  0  0  0
  2  3  1  0  0  0  0
  3 12  1  0  0  0  0
  3 11  1  0  0  0  0
  4  3  1  0  0  0  0
  4 14  1  0  0  0  0
  4 13  1  0  0  0  0
  5 15  1  6  0  0  0
  5  4  1  0  0  0  0
  6  5  1  0  0  0  0
  6 16  1  0  0  0  0
  7  6  2  0  0  0  0
  8  1  1  0  0  0  0
  9  2  1  0  0  0  0
 10  2  1  0  0  0  0
 16 26  1  0  0  0  0
 17 16  1  0  0  0  0
 17 27  1  1  0  0  0
 18 17  1  0  0  0  0
 18 19  1  0  0  0  0
 19 23  1  0  0  0  0
 19 20  2  0  0  0  0
 20 30  1  0  0  0  0
 20 21  1  0  0  0  0
 21 31  1  0  0  0  0
 22 32  1  0  0  0  0
 22 21  1  0  0  0  0
 23 22  2  0  0  0  0
 24 17  1  0  0  0  0
 25 24  2  0  0  0  0
 28 18  1  0  0  0  0
 29 18  1  0  0  0  0
 33 40  1  0  0  0  0
 33 24  1  0  0  0  0
 34 41  1  6  0  0  0
 34 37  1  0  0  0  0
 34 33  1  0  0  0  0
 35 34  1  0  0  0  0
 36 35  1  0  0  0  0
 37 38  1  0  0  0  0
 39 37  2  0  0  0  0
 42 35  1  0  0  0  0
 43 35  1  0  0  0  0
 44 36  1  0  0  0  0
M  END
$$$$
