PHF.pdb
 OpenBabel07022419043D

 53 55  0  0  1  0  0  0  0  0999 V2000
    3.5730   -2.4180    0.8340 N   0  0  0  0  0  0  0  0  0  0  0  0
    4.9640   -2.2750    0.4510 C   0  0  0  0  0  0  0  0  0  0  0  0
    5.4450   -1.1020    1.3170 C   0  0  0  0  0  0  0  0  0  0  0  0
    4.8040   -1.4770    2.6450 C   0  0  0  0  0  0  0  0  0  0  0  0
    3.4320   -1.9430    2.1750 C   0  0  1  0  0  0  0  0  0  0  0  0
    2.4820   -0.8210    2.3130 C   0  0  0  0  0  0  0  0  0  0  0  0
    2.3000   -0.3400    3.4580 O   0  0  0  0  0  0  0  0  0  0  0  0
    3.3460   -3.4440    0.8250 H   0  0  0  0  0  0  0  0  0  0  0  0
    5.1210   -2.0970   -0.6120 H   0  0  0  0  0  0  0  0  0  0  0  0
    5.5550   -3.1570    0.7940 H   0  0  0  0  0  0  0  0  0  0  0  0
    6.5330   -1.0420    1.3650 H   0  0  0  0  0  0  0  0  0  0  0  0
    4.9590   -0.1550    0.9540 H   0  0  0  0  0  0  0  0  0  0  0  0
    4.7250   -0.6140    3.3320 H   0  0  0  0  0  0  0  0  0  0  0  0
    5.3820   -2.3180    3.0550 H   0  0  0  0  0  0  0  0  0  0  0  0
    3.1440   -2.7630    2.8900 H   0  0  0  0  0  0  0  0  0  0  0  0
    1.7670   -0.2570    1.2400 N   0  0  0  0  0  0  0  0  0  0  0  0
    0.8410    0.8560    1.4580 C   0  0  1  0  0  0  0  0  0  0  0  0
    1.1570    2.0100    0.5830 C   0  0  0  0  0  0  0  0  0  0  0  0
    0.3500    3.1980    0.7970 C   0  0  0  0  0  0  0  0  0  0  0  0
   -0.5650    3.5040    1.7580 C   0  0  0  0  0  0  0  0  0  0  0  0
   -0.9720    4.7850    1.5260 N   0  0  0  0  0  0  0  0  0  0  0  0
   -0.3370    5.2630    0.4640 C   0  0  0  0  0  0  0  0  0  0  0  0
    0.4630    4.3100    0.0180 N   0  0  0  0  0  0  0  0  0  0  0  0
   -0.5340    0.3540    1.0350 C   0  0  0  0  0  0  0  0  0  0  0  0
   -1.5620    1.0450    1.0150 O   0  0  0  0  0  0  0  0  0  0  0  0
    1.8760   -0.6100    0.2750 H   0  0  0  0  0  0  0  0  0  0  0  0
    0.8640    1.1190    2.5070 H   0  0  0  0  0  0  0  0  0  0  0  0
    0.9570    1.6730   -0.4740 H   0  0  0  0  0  0  0  0  0  0  0  0
    2.2280    2.3440    0.6720 H   0  0  0  0  0  0  0  0  0  0  0  0
   -0.9530    2.9470    2.6020 H   0  0  0  0  0  0  0  0  0  0  0  0
   -1.6800    5.3410    2.0860 H   0  0  0  0  0  0  0  0  0  0  0  0
   -0.4380    6.2540    0.0200 H   0  0  0  0  0  0  0  0  0  0  0  0
   -0.7030   -1.0190    0.6190 N   0  0  0  0  0  0  0  0  0  0  0  0
   -2.0070   -1.5290    0.2090 C   0  0  1  0  0  0  0  0  0  0  0  0
   -2.0270   -1.9420   -1.2160 C   0  0  0  0  0  0  0  0  0  0  0  0
   -3.3600   -2.4500   -1.5890 C   0  0  0  0  0  0  0  0  0  0  0  0
   -3.7060   -3.7830   -1.5470 C   0  0  0  0  0  0  0  0  0  0  0  0
   -4.9720   -4.2180   -1.9010 C   0  0  0  0  0  0  0  0  0  0  0  0
   -5.9440   -3.3260   -2.3120 C   0  0  0  0  0  0  0  0  0  0  0  0
   -5.6130   -1.9900   -2.3590 C   0  0  0  0  0  0  0  0  0  0  0  0
   -4.3490   -1.5670   -2.0040 C   0  0  0  0  0  0  0  0  0  0  0  0
   -2.4880   -2.5720    1.1190 C   0  0  0  0  0  0  0  0  0  0  0  0
   -3.5820   -3.1710    1.0750 O   0  0  0  0  0  0  0  0  0  0  0  0
   -1.6410   -2.9670    2.1750 O   0  0  0  0  0  0  0  0  0  0  0  0
    0.1490   -1.6160    0.6300 H   0  0  0  0  0  0  0  0  0  0  0  0
   -2.7330   -0.6710    0.3050 H   0  0  0  0  0  0  0  0  0  0  0  0
   -1.2300   -2.6730   -1.4800 H   0  0  0  0  0  0  0  0  0  0  0  0
   -1.8730   -1.0060   -1.8340 H   0  0  0  0  0  0  0  0  0  0  0  0
   -2.9550   -4.5060   -1.2290 H   0  0  0  0  0  0  0  0  0  0  0  0
   -5.2140   -5.2700   -1.8580 H   0  0  0  0  0  0  0  0  0  0  0  0
   -6.9310   -3.6840   -2.5850 H   0  0  0  0  0  0  0  0  0  0  0  0
   -6.3930   -1.3100   -2.6850 H   0  0  0  0  0  0  0  0  0  0  0  0
   -4.1000   -0.5140   -2.0450 H   0  0  0  0  0  0  0  0  0  0  0  0
  1  5  1  0  0  0  0
  2 10  1  0  0  0  0
  2  1  1  0  0  0  0
  2  3  1  0  0  0  0
  3 11  1  0  0  0  0
  3  4  1  0  0  0  0
  4 14  1  0  0  0  0
  4 13  1  0  0  0  0
  5  6  1  0  0  0  0
  5  4  1  0  0  0  0
  5 15  1  1  0  0  0
  6  7  2  0  0  0  0
  8  1  1  0  0  0  0
  9  2  1  0  0  0  0
 12  3  1  0  0  0  0
 16 17  1  0  0  0  0
 16  6  1  0  0  0  0
 17 27  1  1  0  0  0
 18 29  1  0  0  0  0
 18 19  1  0  0  0  0
 18 17  1  0  0  0  0
 19 20  2  0  0  0  0
 20 30  1  0  0  0  0
 21 20  1  0  0  0  0
 21 31  1  0  0  0  0
 22 21  1  0  0  0  0
 23 22  2  0  0  0  0
 23 19  1  0  0  0  0
 24 17  1  0  0  0  0
 25 24  2  0  0  0  0
 26 16  1  0  0  0  0
 28 18  1  0  0  0  0
 32 22  1  0  0  0  0
 33 45  1  0  0  0  0
 33 24  1  0  0  0  0
 34 46  1  1  0  0  0
 34 33  1  0  0  0  0
 34 42  1  0  0  0  0
 35 34  1  0  0  0  0
 36 37  1  0  0  0  0
 36 35  1  0  0  0  0
 37 49  1  0  0  0  0
 38 50  1  0  0  0  0
 38 37  2  0  0  0  0
 39 38  1  0  0  0  0
 40 39  2  0  0  0  0
 40 41  1  0  0  0  0
 41 36  2  0  0  0  0
 42 44  1  0  0  0  0
 43 42  2  0  0  0  0
 47 35  1  0  0  0  0
 48 35  1  0  0  0  0
 51 39  1  0  0  0  0
 52 40  1  0  0  0  0
 53 41  1  0  0  0  0
M  END
$$$$
