PHH.pdb
 OpenBabel07022419043D

 50 52  0  0  1  0  0  0  0  0999 V2000
    1.7390   -2.4280    0.1260 N   0  0  0  0  0  0  0  0  0  0  0  0
    2.5650   -1.9710   -0.9430 C   0  0  0  0  0  0  0  0  0  0  0  0
    3.7460   -1.2640   -0.3340 C   0  0  0  0  0  0  0  0  0  0  0  0
    3.7080   -1.7330    1.1010 C   0  0  0  0  0  0  0  0  0  0  0  0
    2.2260   -1.8910    1.3530 C   0  0  1  0  0  0  0  0  0  0  0  0
    1.6520   -0.5810    1.6960 C   0  0  0  0  0  0  0  0  0  0  0  0
    2.0130    0.0070    2.7460 O   0  0  0  0  0  0  0  0  0  0  0  0
    0.7300   -2.4290   -0.0240 H   0  0  0  0  0  0  0  0  0  0  0  0
    2.0170   -1.2440   -1.5510 H   0  0  0  0  0  0  0  0  0  0  0  0
    2.8690   -2.7900   -1.6290 H   0  0  0  0  0  0  0  0  0  0  0  0
    3.6480   -0.1670   -0.3090 H   0  0  0  0  0  0  0  0  0  0  0  0
    4.6720   -1.5880   -0.8540 H   0  0  0  0  0  0  0  0  0  0  0  0
    4.2330   -2.7280    1.1660 H   0  0  0  0  0  0  0  0  0  0  0  0
    4.1770   -1.0130    1.7980 H   0  0  0  0  0  0  0  0  0  0  0  0
    2.0990   -2.5970    2.2120 H   0  0  0  0  0  0  0  0  0  0  0  0
    0.6960    0.0640    0.8920 N   0  0  0  0  0  0  0  0  0  0  0  0
    0.0930    1.3170    1.1490 C   0  0  1  0  0  0  0  0  0  0  0  0
    0.1350    2.3680    0.1100 C   0  0  0  0  0  0  0  0  0  0  0  0
    1.5240    2.7480   -0.2530 C   0  0  0  0  0  0  0  0  0  0  0  0
    2.3570    2.2500   -1.2150 C   0  0  0  0  0  0  0  0  0  0  0  0
    3.5240    2.9050   -1.1810 N   0  0  0  0  0  0  0  0  0  0  0  0
    3.4310    3.8150   -0.2010 C   0  0  0  0  0  0  0  0  0  0  0  0
    2.2160    3.7210    0.3650 N   0  0  0  0  0  0  0  0  0  0  0  0
   -1.3460    1.0380    1.5200 C   0  0  0  0  0  0  0  0  0  0  0  0
   -2.1330    1.9770    1.8040 O   0  0  0  0  0  0  0  0  0  0  0  0
    0.3850   -0.4260   -0.0000 H   0  0  0  0  0  0  0  0  0  0  0  0
    0.5420    1.7290    2.0950 H   0  0  0  0  0  0  0  0  0  0  0  0
   -0.4840    2.1530   -0.7890 H   0  0  0  0  0  0  0  0  0  0  0  0
   -0.3260    3.2850    0.5360 H   0  0  0  0  0  0  0  0  0  0  0  0
    2.0950    1.4510   -1.8890 H   0  0  0  0  0  0  0  0  0  0  0  0
    4.3770    2.7730   -1.7800 H   0  0  0  0  0  0  0  0  0  0  0  0
    4.1960    4.4990    0.0820 H   0  0  0  0  0  0  0  0  0  0  0  0
   -1.8730   -0.2830    1.5660 N   0  0  0  0  0  0  0  0  0  0  0  0
   -3.2300   -0.5580    1.9150 C   0  0  1  0  0  0  0  0  0  0  0  0
   -4.0040   -1.2320    0.7970 C   0  0  0  0  0  0  0  0  0  0  0  0
   -3.3780   -2.5370    0.4240 C   0  0  0  0  0  0  0  0  0  0  0  0
   -3.6440   -3.7800    0.9480 C   0  0  0  0  0  0  0  0  0  0  0  0
   -2.8590   -4.6540    0.3260 N   0  0  0  0  0  0  0  0  0  0  0  0
   -2.1180   -3.9770   -0.5670 C   0  0  0  0  0  0  0  0  0  0  0  0
   -2.4400   -2.6780   -0.5040 N   0  0  0  0  0  0  0  0  0  0  0  0
   -3.3590   -1.4250    3.1100 C   0  0  0  0  0  0  0  0  0  0  0  0
   -2.3050   -1.8150    3.6720 O   0  0  0  0  0  0  0  0  0  0  0  0
   -4.5680   -1.8220    3.6300 O   0  0  0  0  0  0  0  0  0  0  0  0
   -1.2230   -1.0900    1.3290 H   0  0  0  0  0  0  0  0  0  0  0  0
   -3.7570    0.3920    2.1300 H   0  0  0  0  0  0  0  0  0  0  0  0
   -4.1810   -0.5790   -0.0580 H   0  0  0  0  0  0  0  0  0  0  0  0
   -5.0030   -1.4840    1.2280 H   0  0  0  0  0  0  0  0  0  0  0  0
   -4.3550   -4.0280    1.7230 H   0  0  0  0  0  0  0  0  0  0  0  0
   -2.7730   -5.6960    0.4490 H   0  0  0  0  0  0  0  0  0  0  0  0
   -1.3670   -4.4060   -1.2460 H   0  0  0  0  0  0  0  0  0  0  0  0
  1  5  1  0  0  0  0
  2  3  1  0  0  0  0
  2  1  1  0  0  0  0
  3 11  1  0  0  0  0
  3  4  1  0  0  0  0
  4 13  1  0  0  0  0
  4  5  1  0  0  0  0
  4 14  1  0  0  0  0
  5  6  1  0  0  0  0
  5 15  1  1  0  0  0
  6  7  2  0  0  0  0
  8  1  1  0  0  0  0
  9  2  1  0  0  0  0
 10  2  1  0  0  0  0
 12  3  1  0  0  0  0
 16 17  1  0  0  0  0
 16  6  1  0  0  0  0
 17 24  1  0  0  0  0
 17 27  1  1  0  0  0
 18 29  1  0  0  0  0
 18 17  1  0  0  0  0
 19 18  1  0  0  0  0
 19 23  1  0  0  0  0
 20 21  1  0  0  0  0
 20 19  2  0  0  0  0
 21 22  1  0  0  0  0
 22 32  1  0  0  0  0
 22 23  2  0  0  0  0
 24 33  1  0  0  0  0
 24 25  2  0  0  0  0
 26 16  1  0  0  0  0
 28 18  1  0  0  0  0
 30 20  1  0  0  0  0
 31 21  1  0  0  0  0
 33 34  1  0  0  0  0
 34 45  1  1  0  0  0
 34 41  1  0  0  0  0
 35 47  1  0  0  0  0
 35 34  1  0  0  0  0
 36 35  1  0  0  0  0
 36 37  2  0  0  0  0
 37 48  1  0  0  0  0
 38 49  1  0  0  0  0
 38 37  1  0  0  0  0
 39 40  2  0  0  0  0
 39 38  1  0  0  0  0
 40 36  1  0  0  0  0
 41 43  2  0  0  0  0
 41 42  1  0  0  0  0
 44 33  1  0  0  0  0
 46 35  1  0  0  0  0
 50 39  1  0  0  0  0
M  END
$$$$
