PHK.pdb
 OpenBabel07022419043D

 54 55  0  0  1  0  0  0  0  0999 V2000
    3.1350   -2.5850    2.3280 N   0  0  0  0  0  0  0  0  0  0  0  0
    3.6380   -2.1460    3.5950 C   0  0  0  0  0  0  0  0  0  0  0  0
    2.6890   -2.6520    4.6580 C   0  0  0  0  0  0  0  0  0  0  0  0
    2.1050   -3.8790    4.0060 C   0  0  0  0  0  0  0  0  0  0  0  0
    2.0530   -3.4990    2.5610 C   0  0  1  0  0  0  0  0  0  0  0  0
    0.7700   -2.7560    2.3270 C   0  0  0  0  0  0  0  0  0  0  0  0
   -0.3190   -3.3590    2.4720 O   0  0  0  0  0  0  0  0  0  0  0  0
    3.8810   -3.0840    1.7680 H   0  0  0  0  0  0  0  0  0  0  0  0
    3.7660   -1.0440    3.6350 H   0  0  0  0  0  0  0  0  0  0  0  0
    4.6230   -2.6540    3.7860 H   0  0  0  0  0  0  0  0  0  0  0  0
    3.2450   -2.9310    5.5920 H   0  0  0  0  0  0  0  0  0  0  0  0
    1.9240   -1.9020    4.9270 H   0  0  0  0  0  0  0  0  0  0  0  0
    2.7200   -4.7750    4.2040 H   0  0  0  0  0  0  0  0  0  0  0  0
    1.0760   -4.1060    4.3420 H   0  0  0  0  0  0  0  0  0  0  0  0
    2.1040   -4.4110    1.9520 H   0  0  0  0  0  0  0  0  0  0  0  0
    0.7480   -1.3990    1.9470 N   0  0  0  0  0  0  0  0  0  0  0  0
   -0.4760   -0.6550    1.7140 C   0  0  1  0  0  0  0  0  0  0  0  0
   -0.6530    0.4520    2.6970 C   0  0  0  0  0  0  0  0  0  0  0  0
    0.4300    1.4360    2.6920 C   0  0  0  0  0  0  0  0  0  0  0  0
    0.5460    2.5800    1.9620 C   0  0  0  0  0  0  0  0  0  0  0  0
    1.7310    3.1480    2.3150 N   0  0  0  0  0  0  0  0  0  0  0  0
    2.3270    2.3880    3.2270 C   0  0  0  0  0  0  0  0  0  0  0  0
    1.5310    1.3410    3.4580 N   0  0  0  0  0  0  0  0  0  0  0  0
   -0.6250   -0.2080    0.3190 C   0  0  0  0  0  0  0  0  0  0  0  0
    0.3080   -0.4450   -0.5070 O   0  0  0  0  0  0  0  0  0  0  0  0
    1.6620   -0.8810    1.8220 H   0  0  0  0  0  0  0  0  0  0  0  0
   -1.3190   -1.3840    1.8990 H   0  0  0  0  0  0  0  0  0  0  0  0
   -1.6410    0.9320    2.4870 H   0  0  0  0  0  0  0  0  0  0  0  0
   -0.7730   -0.0210    3.7100 H   0  0  0  0  0  0  0  0  0  0  0  0
   -0.1490    2.9870    1.2360 H   0  0  0  0  0  0  0  0  0  0  0  0
    2.1080    4.0510    1.9210 H   0  0  0  0  0  0  0  0  0  0  0  0
    3.2800    2.5420    3.7240 H   0  0  0  0  0  0  0  0  0  0  0  0
   -1.7680    0.4770   -0.1670 N   0  0  0  0  0  0  0  0  0  0  0  0
   -1.8360    0.8780   -1.5690 C   0  0  1  0  0  0  0  0  0  0  0  0
   -3.0600    0.2680   -2.2130 C   0  0  0  0  0  0  0  0  0  0  0  0
   -3.1210   -1.2060   -2.2050 C   0  0  0  0  0  0  0  0  0  0  0  0
   -2.0090   -1.9100   -2.9100 C   0  0  0  0  0  0  0  0  0  0  0  0
   -1.9370   -1.5370   -4.3860 C   0  0  0  0  0  0  0  0  0  0  0  0
   -0.8220   -2.2780   -4.9720 N   0  0  0  0  0  0  0  0  0  0  0  0
   -2.0370    2.3390   -1.6450 C   0  0  0  0  0  0  0  0  0  0  0  0
   -2.1420    3.0200   -0.6150 O   0  0  0  0  0  0  0  0  0  0  0  0
   -2.1070    2.9390   -2.8840 O   0  0  0  0  0  0  0  0  0  0  0  0
   -2.5560    0.6940    0.4790 H   0  0  0  0  0  0  0  0  0  0  0  0
   -0.9100    0.6370   -2.0910 H   0  0  0  0  0  0  0  0  0  0  0  0
   -3.1280    0.6700   -3.2450 H   0  0  0  0  0  0  0  0  0  0  0  0
   -3.9410    0.6590   -1.6620 H   0  0  0  0  0  0  0  0  0  0  0  0
   -3.2370   -1.6090   -1.1840 H   0  0  0  0  0  0  0  0  0  0  0  0
   -4.0700   -1.4920   -2.7390 H   0  0  0  0  0  0  0  0  0  0  0  0
   -2.2790   -3.0090   -2.9100 H   0  0  0  0  0  0  0  0  0  0  0  0
   -1.0280   -1.8480   -2.4440 H   0  0  0  0  0  0  0  0  0  0  0  0
   -2.8420   -1.8740   -4.9310 H   0  0  0  0  0  0  0  0  0  0  0  0
   -1.7730   -0.4640   -4.5410 H   0  0  0  0  0  0  0  0  0  0  0  0
   -0.9340   -3.3000   -4.8390 H   0  0  0  0  0  0  0  0  0  0  0  0
   -0.7250   -2.0190   -5.9750 H   0  0  0  0  0  0  0  0  0  0  0  0
  1  5  1  0  0  0  0
  1  2  1  0  0  0  0
  2  9  1  0  0  0  0
  2 10  1  0  0  0  0
  2  3  1  0  0  0  0
  3 12  1  0  0  0  0
  3 11  1  0  0  0  0
  4 13  1  0  0  0  0
  4 14  1  0  0  0  0
  4  3  1  0  0  0  0
  5 15  1  6  0  0  0
  5  4  1  0  0  0  0
  6  7  2  0  0  0  0
  6  5  1  0  0  0  0
  8  1  1  0  0  0  0
 16  6  1  0  0  0  0
 17 27  1  1  0  0  0
 17 16  1  0  0  0  0
 17 18  1  0  0  0  0
 18 29  1  0  0  0  0
 19 18  1  0  0  0  0
 19 23  1  0  0  0  0
 20 21  1  0  0  0  0
 20 19  2  0  0  0  0
 21 22  1  0  0  0  0
 22 23  2  0  0  0  0
 22 32  1  0  0  0  0
 24 17  1  0  0  0  0
 25 24  2  0  0  0  0
 26 16  1  0  0  0  0
 28 18  1  0  0  0  0
 30 20  1  0  0  0  0
 31 21  1  0  0  0  0
 33 24  1  0  0  0  0
 33 43  1  0  0  0  0
 34 44  1  6  0  0  0
 34 33  1  0  0  0  0
 35 36  1  0  0  0  0
 35 46  1  0  0  0  0
 35 34  1  0  0  0  0
 36 47  1  0  0  0  0
 37 49  1  0  0  0  0
 37 50  1  0  0  0  0
 37 36  1  0  0  0  0
 38 37  1  0  0  0  0
 39 53  1  0  0  0  0
 39 38  1  0  0  0  0
 40 34  1  0  0  0  0
 40 41  1  0  0  0  0
 42 40  2  0  0  0  0
 45 35  1  0  0  0  0
 48 36  1  0  0  0  0
 51 38  1  0  0  0  0
 52 38  1  0  0  0  0
 54 39  1  0  0  0  0
M  END
$$$$
