PHQ.pdb
 OpenBabel07022419043D

 50 51  0  0  1  0  0  0  0  0999 V2000
    0.1080    2.1550   -0.3440 N   0  0  0  0  0  0  0  0  0  0  0  0
   -0.2490    3.4770   -0.8130 C   0  0  0  0  0  0  0  0  0  0  0  0
    0.9690    4.0980   -1.4110 C   0  0  0  0  0  0  0  0  0  0  0  0
    2.0590    3.0460   -1.1640 C   0  0  0  0  0  0  0  0  0  0  0  0
    1.2250    1.7810   -1.1510 C   0  0  1  0  0  0  0  0  0  0  0  0
    1.9640    0.6150   -0.6610 C   0  0  0  0  0  0  0  0  0  0  0  0
    2.9640    0.2230   -1.3200 O   0  0  0  0  0  0  0  0  0  0  0  0
   -0.6740    1.4770   -0.5630 H   0  0  0  0  0  0  0  0  0  0  0  0
   -1.0820    3.4530   -1.5580 H   0  0  0  0  0  0  0  0  0  0  0  0
   -0.6510    4.1090    0.0300 H   0  0  0  0  0  0  0  0  0  0  0  0
    1.2400    5.0770   -1.0120 H   0  0  0  0  0  0  0  0  0  0  0  0
    0.8390    4.1930   -2.5290 H   0  0  0  0  0  0  0  0  0  0  0  0
    2.7530    3.1090   -2.0000 H   0  0  0  0  0  0  0  0  0  0  0  0
    2.4950    3.2530   -0.1740 H   0  0  0  0  0  0  0  0  0  0  0  0
    0.9060    1.6080   -2.2020 H   0  0  0  0  0  0  0  0  0  0  0  0
    1.5400   -0.0400    0.5350 N   0  0  0  0  0  0  0  0  0  0  0  0
    2.2710   -1.1860    1.0110 C   0  0  1  0  0  0  0  0  0  0  0  0
    2.8760   -1.0620    2.3520 C   0  0  0  0  0  0  0  0  0  0  0  0
    1.9880   -0.8400    3.4870 C   0  0  0  0  0  0  0  0  0  0  0  0
    0.6300   -0.7530    3.6080 C   0  0  0  0  0  0  0  0  0  0  0  0
    0.3370   -0.5580    4.9000 N   0  0  0  0  0  0  0  0  0  0  0  0
    1.4690   -0.5230    5.5810 C   0  0  0  0  0  0  0  0  0  0  0  0
    2.4770   -0.6910    4.7480 N   0  0  0  0  0  0  0  0  0  0  0  0
    1.4120   -2.4210    0.8930 C   0  0  0  0  0  0  0  0  0  0  0  0
    1.9200   -3.5160    1.2750 O   0  0  0  0  0  0  0  0  0  0  0  0
    0.7060    0.3740    0.9880 H   0  0  0  0  0  0  0  0  0  0  0  0
    3.1230   -1.3530    0.2900 H   0  0  0  0  0  0  0  0  0  0  0  0
    3.6720   -0.2630    2.3860 H   0  0  0  0  0  0  0  0  0  0  0  0
    3.4650   -2.0010    2.5790 H   0  0  0  0  0  0  0  0  0  0  0  0
   -0.0870   -0.8340    2.8050 H   0  0  0  0  0  0  0  0  0  0  0  0
   -0.6170   -0.4470    5.3360 H   0  0  0  0  0  0  0  0  0  0  0  0
    1.6100   -0.3800    6.6610 H   0  0  0  0  0  0  0  0  0  0  0  0
   -4.4130   -1.1960   -0.4090 N   0  0  0  0  0  0  0  0  0  0  0  0
   -3.5920   -2.3710   -0.2180 C   0  0  0  0  0  0  0  0  0  0  0  0
   -3.5590   -3.1740   -1.1540 O   0  0  0  0  0  0  0  0  0  0  0  0
   -2.8800   -2.5240    1.0380 C   0  0  0  0  0  0  0  0  0  0  0  0
   -1.8690   -3.5800    1.1600 C   0  0  0  0  0  0  0  0  0  0  0  0
   -0.6800   -3.5740    0.2880 C   0  0  2  0  0  0  0  0  0  0  0  0
    0.0950   -2.3550    0.3770 N   0  0  0  0  0  0  0  0  0  0  0  0
   -0.9040   -3.9190   -1.1090 C   0  0  0  0  0  0  0  0  0  0  0  0
   -0.6090   -3.1160   -2.0580 O   0  0  0  0  0  0  0  0  0  0  0  0
   -1.4480   -5.1460   -1.5200 O   0  0  0  0  0  0  0  0  0  0  0  0
   -4.0820   -0.2940   -0.0610 H   0  0  0  0  0  0  0  0  0  0  0  0
   -5.3220   -1.2820   -0.8930 H   0  0  0  0  0  0  0  0  0  0  0  0
   -2.5170   -1.5260    1.4390 H   0  0  0  0  0  0  0  0  0  0  0  0
   -3.6870   -2.7770    1.8160 H   0  0  0  0  0  0  0  0  0  0  0  0
   -1.6030   -3.6880    2.2570 H   0  0  0  0  0  0  0  0  0  0  0  0
   -2.4050   -4.5680    0.9660 H   0  0  0  0  0  0  0  0  0  0  0  0
   -0.0060   -4.4310    0.6930 H   0  0  0  0  0  0  0  0  0  0  0  0
   -0.3110   -1.4550    0.0670 H   0  0  0  0  0  0  0  0  0  0  0  0
  2  1  1  0  0  0  0
  2 10  1  0  0  0  0
  3  4  1  0  0  0  0
  3 11  1  0  0  0  0
  3  2  1  0  0  0  0
  4  5  1  0  0  0  0
  4 14  1  0  0  0  0
  5 15  1  6  0  0  0
  5  6  1  0  0  0  0
  5  1  1  0  0  0  0
  6 16  1  0  0  0  0
  7  6  2  0  0  0  0
  8  1  1  0  0  0  0
  9  2  1  0  0  0  0
 12  3  1  0  0  0  0
 13  4  1  0  0  0  0
 16 26  1  0  0  0  0
 16 17  1  0  0  0  0
 17 27  1  6  0  0  0
 17 18  1  0  0  0  0
 18 28  1  0  0  0  0
 18 29  1  0  0  0  0
 18 19  1  0  0  0  0
 19 20  2  0  0  0  0
 19 23  1  0  0  0  0
 20 21  1  0  0  0  0
 21 31  1  0  0  0  0
 21 22  1  0  0  0  0
 22 32  1  0  0  0  0
 23 22  2  0  0  0  0
 24 17  1  0  0  0  0
 24 25  2  0  0  0  0
 30 20  1  0  0  0  0
 33 34  1  0  0  0  0
 33 43  1  0  0  0  0
 34 36  1  0  0  0  0
 35 34  2  0  0  0  0
 36 37  1  0  0  0  0
 36 45  1  0  0  0  0
 36 46  1  0  0  0  0
 37 47  1  0  0  0  0
 38 39  1  0  0  0  0
 38 49  1  1  0  0  0
 38 37  1  0  0  0  0
 39 24  1  0  0  0  0
 40 38  1  0  0  0  0
 41 40  2  0  0  0  0
 42 40  1  0  0  0  0
 44 33  1  0  0  0  0
 48 37  1  0  0  0  0
 50 39  1  0  0  0  0
M  END
$$$$
