PHR.pdb
 OpenBabel07022419043D

 56 57  0  0  1  0  0  0  0  0999 V2000
    1.6060   -0.6890    4.1160 N   0  0  0  0  0  0  0  0  0  0  0  0
    1.7190   -2.0410    4.5460 C   0  0  0  0  0  0  0  0  0  0  0  0
    2.7970   -2.7150    3.7570 C   0  0  0  0  0  0  0  0  0  0  0  0
    3.6550   -1.5750    3.2920 C   0  0  0  0  0  0  0  0  0  0  0  0
    2.7480   -0.3740    3.2870 C   0  0  1  0  0  0  0  0  0  0  0  0
    2.3170   -0.1700    1.8500 C   0  0  0  0  0  0  0  0  0  0  0  0
    3.1950    0.1070    1.0140 O   0  0  0  0  0  0  0  0  0  0  0  0
    1.5690   -0.0240    4.9130 H   0  0  0  0  0  0  0  0  0  0  0  0
    0.7700   -2.6130    4.3420 H   0  0  0  0  0  0  0  0  0  0  0  0
    1.9030   -2.1470    5.6380 H   0  0  0  0  0  0  0  0  0  0  0  0
    3.3710   -3.3870    4.4580 H   0  0  0  0  0  0  0  0  0  0  0  0
    2.4230   -3.3550    2.9340 H   0  0  0  0  0  0  0  0  0  0  0  0
    4.0260   -1.8220    2.2590 H   0  0  0  0  0  0  0  0  0  0  0  0
    4.4970   -1.4500    3.9930 H   0  0  0  0  0  0  0  0  0  0  0  0
    3.2980    0.5150    3.6530 H   0  0  0  0  0  0  0  0  0  0  0  0
    0.9630   -0.2900    1.4660 N   0  0  0  0  0  0  0  0  0  0  0  0
    0.4110   -0.1070    0.1540 C   0  0  1  0  0  0  0  0  0  0  0  0
    1.1670    0.8310   -0.7550 C   0  0  0  0  0  0  0  0  0  0  0  0
    1.1570    2.1890   -0.1520 C   0  0  0  0  0  0  0  0  0  0  0  0
    0.1250    3.0870   -0.4320 C   0  0  0  0  0  0  0  0  0  0  0  0
    0.3490    4.2180    0.2320 N   0  0  0  0  0  0  0  0  0  0  0  0
    1.4980    4.0440    0.9190 C   0  0  0  0  0  0  0  0  0  0  0  0
    1.9790    2.8160    0.6810 N   0  0  0  0  0  0  0  0  0  0  0  0
   -0.0600   -1.3360   -0.4490 C   0  0  0  0  0  0  0  0  0  0  0  0
    0.0720   -2.4090    0.2390 O   0  0  0  0  0  0  0  0  0  0  0  0
    0.3190   -0.5460    2.2890 H   0  0  0  0  0  0  0  0  0  0  0  0
   -0.5390    0.5420    0.3640 H   0  0  0  0  0  0  0  0  0  0  0  0
    0.5890    0.8820   -1.7060 H   0  0  0  0  0  0  0  0  0  0  0  0
    2.1900    0.5230   -0.9920 H   0  0  0  0  0  0  0  0  0  0  0  0
   -0.7180    2.9030   -1.0770 H   0  0  0  0  0  0  0  0  0  0  0  0
   -0.2540    5.0730    0.2190 H   0  0  0  0  0  0  0  0  0  0  0  0
    1.9060    4.8230    1.5450 H   0  0  0  0  0  0  0  0  0  0  0  0
   -2.9220   -0.2200    1.6070 N   0  0  0  0  0  0  0  0  0  0  0  0
   -3.2650   -1.0270    0.5040 C   0  0  0  0  0  0  0  0  0  0  0  0
   -3.6860   -2.2490    0.6560 N   0  0  0  0  0  0  0  0  0  0  0  0
   -3.1620   -0.5220   -0.8480 N   0  0  0  0  0  0  0  0  0  0  0  0
   -3.9170   -1.1180   -1.8920 C   0  0  0  0  0  0  0  0  0  0  0  0
   -3.6300   -2.4850   -2.3320 C   0  0  0  0  0  0  0  0  0  0  0  0
   -2.3360   -2.8470   -2.9340 C   0  0  0  0  0  0  0  0  0  0  0  0
   -1.0680   -2.7430   -2.1980 C   0  0  2  0  0  0  0  0  0  0  0  0
   -0.6580   -1.4670   -1.7380 N   0  0  0  0  0  0  0  0  0  0  0  0
    0.0630   -3.3500   -3.0270 C   0  0  0  0  0  0  0  0  0  0  0  0
   -0.1340   -4.4730   -3.5050 O   0  0  0  0  0  0  0  0  0  0  0  0
    1.2300   -2.6720   -3.2230 O   0  0  0  0  0  0  0  0  0  0  0  0
   -2.5060   -0.6260    2.4650 H   0  0  0  0  0  0  0  0  0  0  0  0
   -3.0790    0.8100    1.5870 H   0  0  0  0  0  0  0  0  0  0  0  0
   -3.7680   -2.6300    1.6290 H   0  0  0  0  0  0  0  0  0  0  0  0
   -2.5150    0.3080   -0.9450 H   0  0  0  0  0  0  0  0  0  0  0  0
   -5.0170   -0.9860   -1.6160 H   0  0  0  0  0  0  0  0  0  0  0  0
   -3.7490   -0.4450   -2.8030 H   0  0  0  0  0  0  0  0  0  0  0  0
   -3.8710   -3.2460   -1.4910 H   0  0  0  0  0  0  0  0  0  0  0  0
   -4.4470   -2.7660   -3.0840 H   0  0  0  0  0  0  0  0  0  0  0  0
   -2.4060   -3.9500   -3.2850 H   0  0  0  0  0  0  0  0  0  0  0  0
   -2.2230   -2.2610   -3.9320 H   0  0  0  0  0  0  0  0  0  0  0  0
   -1.1010   -3.4620   -1.3270 H   0  0  0  0  0  0  0  0  0  0  0  0
   -0.7650   -0.5930   -2.2960 H   0  0  0  0  0  0  0  0  0  0  0  0
  1  2  1  0  0  0  0
  1  8  1  0  0  0  0
  2 10  1  0  0  0  0
  3 11  1  0  0  0  0
  3  2  1  0  0  0  0
  4  3  1  0  0  0  0
  4 14  1  0  0  0  0
  5  4  1  0  0  0  0
  5 15  1  1  0  0  0
  5  1  1  0  0  0  0
  6  5  1  0  0  0  0
  7  6  2  0  0  0  0
  9  2  1  0  0  0  0
 12  3  1  0  0  0  0
 13  4  1  0  0  0  0
 16  6  1  0  0  0  0
 16 26  1  0  0  0  0
 17 27  1  1  0  0  0
 17 16  1  0  0  0  0
 18 19  1  0  0  0  0
 18 17  1  0  0  0  0
 19 23  1  0  0  0  0
 20 19  2  0  0  0  0
 20 21  1  0  0  0  0
 21 22  1  0  0  0  0
 22 32  1  0  0  0  0
 23 22  2  0  0  0  0
 24 17  1  0  0  0  0
 24 25  2  0  0  0  0
 28 18  1  0  0  0  0
 29 18  1  0  0  0  0
 30 20  1  0  0  0  0
 31 21  1  0  0  0  0
 33 45  1  0  0  0  0
 34 35  2  0  0  0  0
 34 33  1  0  0  0  0
 35 47  1  0  0  0  0
 36 34  1  0  0  0  0
 37 49  1  0  0  0  0
 37 36  1  0  0  0  0
 38 37  1  0  0  0  0
 38 51  1  0  0  0  0
 39 38  1  0  0  0  0
 39 40  1  0  0  0  0
 40 41  1  0  0  0  0
 40 55  1  1  0  0  0
 41 24  1  0  0  0  0
 42 40  1  0  0  0  0
 43 42  2  0  0  0  0
 44 42  1  0  0  0  0
 46 33  1  0  0  0  0
 48 36  1  0  0  0  0
 50 37  1  0  0  0  0
 52 38  1  0  0  0  0
 53 39  1  0  0  0  0
 54 39  1  0  0  0  0
 56 41  1  0  0  0  0
M  END
$$$$
