PHT.pdb
 OpenBabel07022419043D

 47 48  0  0  1  0  0  0  0  0999 V2000
    3.1190   -3.8620    0.7740 N   0  0  0  0  0  0  0  0  0  0  0  0
    2.8770   -5.1050    0.1090 C   0  0  0  0  0  0  0  0  0  0  0  0
    1.4250   -4.9960   -0.3130 C   0  0  0  0  0  0  0  0  0  0  0  0
    1.2440   -3.5160   -0.6390 C   0  0  0  0  0  0  0  0  0  0  0  0
    2.3640   -2.8620    0.0470 C   0  0  1  0  0  0  0  0  0  0  0  0
    2.0260   -1.6990    0.8870 C   0  0  0  0  0  0  0  0  0  0  0  0
    2.4170   -1.7260    2.0830 O   0  0  0  0  0  0  0  0  0  0  0  0
    4.1380   -3.6360    0.7440 H   0  0  0  0  0  0  0  0  0  0  0  0
    3.5490   -5.2140   -0.7810 H   0  0  0  0  0  0  0  0  0  0  0  0
    3.0030   -5.9300    0.8370 H   0  0  0  0  0  0  0  0  0  0  0  0
    0.8080   -5.2890    0.5610 H   0  0  0  0  0  0  0  0  0  0  0  0
    1.2220   -5.6600   -1.1580 H   0  0  0  0  0  0  0  0  0  0  0  0
    0.2380   -3.1860   -0.4180 H   0  0  0  0  0  0  0  0  0  0  0  0
    1.3540   -3.4630   -1.7640 H   0  0  0  0  0  0  0  0  0  0  0  0
    3.0820   -2.4650   -0.7350 H   0  0  0  0  0  0  0  0  0  0  0  0
    1.3090   -0.5660    0.4780 N   0  0  0  0  0  0  0  0  0  0  0  0
    0.9930    0.5750    1.3540 C   0  0  1  0  0  0  0  0  0  0  0  0
    1.4650    1.8480    0.7710 C   0  0  0  0  0  0  0  0  0  0  0  0
    1.2730    2.9980    1.6680 C   0  0  0  0  0  0  0  0  0  0  0  0
    0.9030    3.1380    2.9720 C   0  0  0  0  0  0  0  0  0  0  0  0
    0.9590    4.4510    3.3440 N   0  0  0  0  0  0  0  0  0  0  0  0
    1.3640    5.1400    2.2790 C   0  0  0  0  0  0  0  0  0  0  0  0
    1.5560    4.2840    1.2690 N   0  0  0  0  0  0  0  0  0  0  0  0
   -0.5230    0.6310    1.4650 C   0  0  0  0  0  0  0  0  0  0  0  0
   -1.1300    1.5210    2.0520 O   0  0  0  0  0  0  0  0  0  0  0  0
    0.9840   -0.5300   -0.5050 H   0  0  0  0  0  0  0  0  0  0  0  0
    1.4130    0.3740    2.3290 H   0  0  0  0  0  0  0  0  0  0  0  0
    0.8810    2.0830   -0.1580 H   0  0  0  0  0  0  0  0  0  0  0  0
    2.5550    1.7860    0.5440 H   0  0  0  0  0  0  0  0  0  0  0  0
    0.6330    2.3390    3.6510 H   0  0  0  0  0  0  0  0  0  0  0  0
    0.7180    4.8080    4.3030 H   0  0  0  0  0  0  0  0  0  0  0  0
    1.5110    6.2220    2.2500 H   0  0  0  0  0  0  0  0  0  0  0  0
   -3.1370    1.0690   -0.9690 C   0  0  0  0  0  0  0  0  0  0  0  0
   -3.3550   -0.3260   -0.4620 C   0  0  1  0  0  0  0  0  0  0  0  0
   -2.9860   -1.3100   -1.3400 O   0  0  0  0  0  0  0  0  0  0  0  0
   -2.7290   -0.4570    0.8980 C   0  0  2  0  0  0  0  0  0  0  0  0
   -1.2800   -0.4110    0.8530 N   0  0  0  0  0  0  0  0  0  0  0  0
   -3.2280   -1.6510    1.6260 C   0  0  0  0  0  0  0  0  0  0  0  0
   -2.4840   -2.5230    2.1480 O   0  0  0  0  0  0  0  0  0  0  0  0
   -4.5920   -1.8700    1.7720 O   0  0  0  0  0  0  0  0  0  0  0  0
   -2.1030    1.2420   -1.2910 H   0  0  0  0  0  0  0  0  0  0  0  0
   -3.8800    1.2790   -1.7820 H   0  0  0  0  0  0  0  0  0  0  0  0
   -3.3580    1.7910   -0.1680 H   0  0  0  0  0  0  0  0  0  0  0  0
   -4.4690   -0.4230   -0.2920 H   0  0  0  0  0  0  0  0  0  0  0  0
   -2.6010   -0.9320   -2.1590 H   0  0  0  0  0  0  0  0  0  0  0  0
   -3.0500    0.4350    1.4780 H   0  0  0  0  0  0  0  0  0  0  0  0
   -0.7420   -1.1520    0.3650 H   0  0  0  0  0  0  0  0  0  0  0  0
  2  1  1  0  0  0  0
  2 10  1  0  0  0  0
  3  2  1  0  0  0  0
  3 11  1  0  0  0  0
  4 13  1  0  0  0  0
  4  3  1  0  0  0  0
  4  5  1  0  0  0  0
  5 15  1  6  0  0  0
  5  1  1  0  0  0  0
  5  6  1  0  0  0  0
  6  7  2  0  0  0  0
  8  1  1  0  0  0  0
  9  2  1  0  0  0  0
 12  3  1  0  0  0  0
 14  4  1  0  0  0  0
 16  6  1  0  0  0  0
 16 17  1  0  0  0  0
 17 24  1  0  0  0  0
 17 27  1  1  0  0  0
 18 17  1  0  0  0  0
 18 19  1  0  0  0  0
 19 20  2  0  0  0  0
 20 21  1  0  0  0  0
 20 30  1  0  0  0  0
 21 31  1  0  0  0  0
 22 21  1  0  0  0  0
 23 19  1  0  0  0  0
 23 22  2  0  0  0  0
 24 25  2  0  0  0  0
 26 16  1  0  0  0  0
 28 18  1  0  0  0  0
 29 18  1  0  0  0  0
 32 22  1  0  0  0  0
 33 34  1  0  0  0  0
 33 43  1  0  0  0  0
 34 44  1  1  0  0  0
 34 36  1  0  0  0  0
 35 34  1  0  0  0  0
 36 46  1  1  0  0  0
 36 38  1  0  0  0  0
 37 36  1  0  0  0  0
 37 24  1  0  0  0  0
 38 40  2  0  0  0  0
 38 39  1  0  0  0  0
 41 33  1  0  0  0  0
 42 33  1  0  0  0  0
 45 35  1  0  0  0  0
 47 37  1  0  0  0  0
M  END
$$$$
