PIA.pdb
 OpenBabel07022419043D

 45 45  0  0  1  0  0  0  0  0999 V2000
   -1.3990   -1.7710    2.8680 N   0  0  0  0  0  0  0  0  0  0  0  0
   -2.1220   -2.7470    2.1110 C   0  0  0  0  0  0  0  0  0  0  0  0
   -1.1750   -3.9110    1.8810 C   0  0  0  0  0  0  0  0  0  0  0  0
    0.2060   -3.2990    1.9960 C   0  0  0  0  0  0  0  0  0  0  0  0
    0.0020   -1.9550    2.6550 C   0  0  1  0  0  0  0  0  0  0  0  0
    0.5920   -0.8470    1.8250 C   0  0  0  0  0  0  0  0  0  0  0  0
    1.8210   -0.9030    1.5720 O   0  0  0  0  0  0  0  0  0  0  0  0
   -1.6160   -1.8080    3.9020 H   0  0  0  0  0  0  0  0  0  0  0  0
   -2.5140   -2.3630    1.1390 H   0  0  0  0  0  0  0  0  0  0  0  0
   -2.9970   -3.0990    2.7160 H   0  0  0  0  0  0  0  0  0  0  0  0
   -1.2680   -4.6540    2.6850 H   0  0  0  0  0  0  0  0  0  0  0  0
   -1.3520   -4.3540    0.8840 H   0  0  0  0  0  0  0  0  0  0  0  0
    0.6200   -3.1670    0.9690 H   0  0  0  0  0  0  0  0  0  0  0  0
    0.9130   -3.9480    2.5490 H   0  0  0  0  0  0  0  0  0  0  0  0
    0.5350   -2.0050    3.6400 H   0  0  0  0  0  0  0  0  0  0  0  0
    0.5330    1.6480    3.6470 C   0  0  0  0  0  0  0  0  0  0  0  0
    1.0360    2.5370    2.5800 C   0  0  0  0  0  0  0  0  0  0  0  0
    1.3690    1.9690    1.2620 C   0  0  2  0  0  0  0  0  0  0  0  0
    1.8680    3.1560    0.4200 C   0  0  0  0  0  0  0  0  0  0  0  0
    0.2300    1.2850    0.5870 C   0  0  2  0  0  0  0  0  0  0  0  0
   -0.2540    0.1910    1.3760 N   0  0  0  0  0  0  0  0  0  0  0  0
    0.5560    0.7930   -0.7630 C   0  0  0  0  0  0  0  0  0  0  0  0
    1.0600    1.5050   -1.6770 O   0  0  0  0  0  0  0  0  0  0  0  0
    1.3050    0.8940    3.9880 H   0  0  0  0  0  0  0  0  0  0  0  0
   -0.4660    1.2340    3.5410 H   0  0  0  0  0  0  0  0  0  0  0  0
    0.4520    2.3080    4.5760 H   0  0  0  0  0  0  0  0  0  0  0  0
    1.9380    3.0720    3.0120 H   0  0  0  0  0  0  0  0  0  0  0  0
    0.2880    3.3850    2.4950 H   0  0  0  0  0  0  0  0  0  0  0  0
    2.2310    1.2870    1.3140 H   0  0  0  0  0  0  0  0  0  0  0  0
    2.5000    2.8350   -0.4110 H   0  0  0  0  0  0  0  0  0  0  0  0
    2.5150    3.7430    1.1050 H   0  0  0  0  0  0  0  0  0  0  0  0
    1.0250    3.8160    0.1350 H   0  0  0  0  0  0  0  0  0  0  0  0
   -0.6130    2.0260    0.3910 H   0  0  0  0  0  0  0  0  0  0  0  0
   -1.2810    0.1030    1.6530 H   0  0  0  0  0  0  0  0  0  0  0  0
    1.4960   -2.3070   -2.3330 C   0  0  0  0  0  0  0  0  0  0  0  0
    0.6030   -1.1010   -2.4090 C   0  0  2  0  0  0  0  0  0  0  0  0
    0.2970   -0.5590   -1.0840 N   0  0  0  0  0  0  0  0  0  0  0  0
   -0.6700   -1.5340   -3.0460 C   0  0  0  0  0  0  0  0  0  0  0  0
   -0.6960   -2.0370   -4.1910 O   0  0  0  0  0  0  0  0  0  0  0  0
   -1.8790   -1.3910   -2.3820 O   0  0  0  0  0  0  0  0  0  0  0  0
    1.0820   -3.0010   -1.5860 H   0  0  0  0  0  0  0  0  0  0  0  0
    1.4290   -2.8220   -3.3200 H   0  0  0  0  0  0  0  0  0  0  0  0
    2.5490   -2.0730   -2.1690 H   0  0  0  0  0  0  0  0  0  0  0  0
    1.0350   -0.2800   -3.0190 H   0  0  0  0  0  0  0  0  0  0  0  0
   -0.1260   -1.2690   -0.4330 H   0  0  0  0  0  0  0  0  0  0  0  0
  1  8  1  0  0  0  0
  2 10  1  0  0  0  0
  2  1  1  0  0  0  0
  3  4  1  0  0  0  0
  3  2  1  0  0  0  0
  3 11  1  0  0  0  0
  4 14  1  0  0  0  0
  4  5  1  0  0  0  0
  5  1  1  0  0  0  0
  5 15  1  1  0  0  0
  6  5  1  0  0  0  0
  7  6  2  0  0  0  0
  9  2  1  0  0  0  0
 12  3  1  0  0  0  0
 13  4  1  0  0  0  0
 16 24  1  0  0  0  0
 16 26  1  0  0  0  0
 17 27  1  0  0  0  0
 17 16  1  0  0  0  0
 18 29  1  1  0  0  0
 18 17  1  0  0  0  0
 19 31  1  0  0  0  0
 19 18  1  0  0  0  0
 20 33  1  6  0  0  0
 20 18  1  0  0  0  0
 20 21  1  0  0  0  0
 21 34  1  0  0  0  0
 21  6  1  0  0  0  0
 22 20  1  0  0  0  0
 23 22  2  0  0  0  0
 25 16  1  0  0  0  0
 28 17  1  0  0  0  0
 30 19  1  0  0  0  0
 32 19  1  0  0  0  0
 35 43  1  0  0  0  0
 35 41  1  0  0  0  0
 36 44  1  6  0  0  0
 36 35  1  0  0  0  0
 36 37  1  0  0  0  0
 37 22  1  0  0  0  0
 37 45  1  0  0  0  0
 38 36  1  0  0  0  0
 38 40  1  0  0  0  0
 39 38  2  0  0  0  0
 42 35  1  0  0  0  0
M  END
$$$$
