PIC.pdb
 OpenBabel07022419043D

 46 46  0  0  1  0  0  0  0  0999 V2000
   -1.0210   -4.1310    0.2000 N   0  0  0  0  0  0  0  0  0  0  0  0
   -0.4190   -5.4430    0.3260 C   0  0  0  0  0  0  0  0  0  0  0  0
    1.0730   -5.1970    0.3200 C   0  0  0  0  0  0  0  0  0  0  0  0
    1.2060   -3.8220    0.9300 C   0  0  0  0  0  0  0  0  0  0  0  0
   -0.1860   -3.2280    0.9650 C   0  0  1  0  0  0  0  0  0  0  0  0
   -0.2090   -1.8640    0.3640 C   0  0  0  0  0  0  0  0  0  0  0  0
   -0.9020   -1.7030   -0.6510 O   0  0  0  0  0  0  0  0  0  0  0  0
   -0.8970   -3.8460   -0.8160 H   0  0  0  0  0  0  0  0  0  0  0  0
   -0.7570   -5.9890    1.2250 H   0  0  0  0  0  0  0  0  0  0  0  0
   -0.6640   -6.0140   -0.6040 H   0  0  0  0  0  0  0  0  0  0  0  0
    1.5000   -5.2290   -0.7130 H   0  0  0  0  0  0  0  0  0  0  0  0
    1.5830   -5.9840    0.8910 H   0  0  0  0  0  0  0  0  0  0  0  0
    1.6500   -3.9410    1.9340 H   0  0  0  0  0  0  0  0  0  0  0  0
    1.9020   -3.2270    0.3080 H   0  0  0  0  0  0  0  0  0  0  0  0
   -0.5280   -3.2440    2.0080 H   0  0  0  0  0  0  0  0  0  0  0  0
    0.4300    0.3510   -3.3120 C   0  0  0  0  0  0  0  0  0  0  0  0
    0.9810    0.0830   -1.9290 C   0  0  0  0  0  0  0  0  0  0  0  0
    0.1290    0.8340   -0.9410 C   0  0  2  0  0  0  0  0  0  0  0  0
    0.2360    2.2980   -1.2660 C   0  0  0  0  0  0  0  0  0  0  0  0
    0.6220    0.5520    0.4530 C   0  0  2  0  0  0  0  0  0  0  0  0
    0.5170   -0.7820    0.9070 N   0  0  0  0  0  0  0  0  0  0  0  0
    0.3040    1.5150    1.4750 C   0  0  0  0  0  0  0  0  0  0  0  0
    0.3620    2.7620    1.1970 O   0  0  0  0  0  0  0  0  0  0  0  0
   -0.6370    0.6720   -3.2340 H   0  0  0  0  0  0  0  0  0  0  0  0
    0.4770   -0.5590   -3.9460 H   0  0  0  0  0  0  0  0  0  0  0  0
    0.9590    1.1660   -3.8310 H   0  0  0  0  0  0  0  0  0  0  0  0
    1.9820    0.6670   -1.9320 H   0  0  0  0  0  0  0  0  0  0  0  0
    1.2490   -0.9350   -1.7130 H   0  0  0  0  0  0  0  0  0  0  0  0
   -0.9540    0.5900   -1.0600 H   0  0  0  0  0  0  0  0  0  0  0  0
   -0.6320    2.8880   -0.9100 H   0  0  0  0  0  0  0  0  0  0  0  0
    0.1770    2.3740   -2.3920 H   0  0  0  0  0  0  0  0  0  0  0  0
    1.2140    2.7320   -0.9780 H   0  0  0  0  0  0  0  0  0  0  0  0
    1.7790    0.6640    0.2570 H   0  0  0  0  0  0  0  0  0  0  0  0
    1.0620   -1.0280    1.7890 H   0  0  0  0  0  0  0  0  0  0  0  0
   -0.0830    1.2260    2.8130 N   0  0  0  0  0  0  0  0  0  0  0  0
   -0.3870    2.2690    3.7830 C   0  0  1  0  0  0  0  0  0  0  0  0
   -1.8870    2.1440    4.0870 C   0  0  0  0  0  0  0  0  0  0  0  0
   -2.7960    2.3820    2.5340 S   0  0  0  0  0  0  0  0  0  0  0  0
    0.4220    2.1740    4.9930 C   0  0  0  0  0  0  0  0  0  0  0  0
    0.2810    2.9960    5.9200 O   0  0  0  0  0  0  0  0  0  0  0  0
    1.3610    1.1750    5.1400 O   0  0  0  0  0  0  0  0  0  0  0  0
   -0.1380    0.2170    3.0650 H   0  0  0  0  0  0  0  0  0  0  0  0
   -0.2750    3.2800    3.3320 H   0  0  0  0  0  0  0  0  0  0  0  0
   -2.1580    3.0010    4.7440 H   0  0  0  0  0  0  0  0  0  0  0  0
   -2.1210    1.1640    4.5530 H   0  0  0  0  0  0  0  0  0  0  0  0
   -2.8160    1.2160    1.7570 H   0  0  0  0  0  0  0  0  0  0  0  0
  1  2  1  0  0  0  0
  1  5  1  0  0  0  0
  2  9  1  0  0  0  0
  3  2  1  0  0  0  0
  3 12  1  0  0  0  0
  3  4  1  0  0  0  0
  4  5  1  0  0  0  0
  4 13  1  0  0  0  0
  5 15  1  1  0  0  0
  6 21  1  0  0  0  0
  6  5  1  0  0  0  0
  7  6  2  0  0  0  0
  8  1  1  0  0  0  0
 10  2  1  0  0  0  0
 11  3  1  0  0  0  0
 14  4  1  0  0  0  0
 16 24  1  0  0  0  0
 16 17  1  0  0  0  0
 17 28  1  0  0  0  0
 17 18  1  0  0  0  0
 18 29  1  6  0  0  0
 18 20  1  0  0  0  0
 19 32  1  0  0  0  0
 19 18  1  0  0  0  0
 19 30  1  0  0  0  0
 20 33  1  6  0  0  0
 20 21  1  0  0  0  0
 20 22  1  0  0  0  0
 21 34  1  0  0  0  0
 22 35  1  0  0  0  0
 23 22  2  0  0  0  0
 25 16  1  0  0  0  0
 26 16  1  0  0  0  0
 27 17  1  0  0  0  0
 31 19  1  0  0  0  0
 35 42  1  0  0  0  0
 35 36  1  0  0  0  0
 36 43  1  6  0  0  0
 36 37  1  0  0  0  0
 36 39  1  0  0  0  0
 37 45  1  0  0  0  0
 37 44  1  0  0  0  0
 38 37  1  0  0  0  0
 39 41  2  0  0  0  0
 39 40  1  0  0  0  0
 46 38  1  0  0  0  0
M  END
$$$$
