PIF.pdb
 OpenBabel07022419043D

 55 56  0  0  1  0  0  0  0  0999 V2000
    4.6980   -1.9630    1.6630 N   0  0  0  0  0  0  0  0  0  0  0  0
    4.1650   -3.2850    1.8460 C   0  0  0  0  0  0  0  0  0  0  0  0
    3.2990   -3.6220    0.6780 C   0  0  0  0  0  0  0  0  0  0  0  0
    3.4830   -2.4040   -0.2340 C   0  0  0  0  0  0  0  0  0  0  0  0
    3.7230   -1.3230    0.8000 C   0  0  1  0  0  0  0  0  0  0  0  0
    2.5100   -1.0590    1.6260 C   0  0  0  0  0  0  0  0  0  0  0  0
    2.4460   -1.3760    2.8560 O   0  0  0  0  0  0  0  0  0  0  0  0
    4.7430   -1.4820    2.5690 H   0  0  0  0  0  0  0  0  0  0  0  0
    3.6010   -3.4030    2.8080 H   0  0  0  0  0  0  0  0  0  0  0  0
    4.9720   -4.0620    1.9040 H   0  0  0  0  0  0  0  0  0  0  0  0
    2.2320   -3.6860    0.9730 H   0  0  0  0  0  0  0  0  0  0  0  0
    3.6090   -4.5490    0.1590 H   0  0  0  0  0  0  0  0  0  0  0  0
    4.3770   -2.4870   -0.8490 H   0  0  0  0  0  0  0  0  0  0  0  0
    2.5500   -2.2050   -0.7940 H   0  0  0  0  0  0  0  0  0  0  0  0
    4.1170   -0.3940    0.3430 H   0  0  0  0  0  0  0  0  0  0  0  0
   -1.4250    3.0980    3.1100 C   0  0  0  0  0  0  0  0  0  0  0  0
   -1.3080    1.5890    2.8340 C   0  0  0  0  0  0  0  0  0  0  0  0
   -0.0960    1.3050    2.0150 C   0  0  2  0  0  0  0  0  0  0  0  0
   -0.1820    2.0200    0.6930 C   0  0  0  0  0  0  0  0  0  0  0  0
    0.1530   -0.1750    1.8970 C   0  0  2  0  0  0  0  0  0  0  0  0
    1.3480   -0.4370    1.0920 N   0  0  0  0  0  0  0  0  0  0  0  0
   -1.0000   -0.9500    1.3860 C   0  0  0  0  0  0  0  0  0  0  0  0
   -2.1240   -0.9160    1.9430 O   0  0  0  0  0  0  0  0  0  0  0  0
   -0.4220    3.5430    3.1350 H   0  0  0  0  0  0  0  0  0  0  0  0
   -1.9310    3.2830    4.0830 H   0  0  0  0  0  0  0  0  0  0  0  0
   -2.0270    3.5910    2.3300 H   0  0  0  0  0  0  0  0  0  0  0  0
   -1.3540    1.0800    3.8020 H   0  0  0  0  0  0  0  0  0  0  0  0
   -2.2460    1.3350    2.2540 H   0  0  0  0  0  0  0  0  0  0  0  0
    0.7920    1.7220    2.5590 H   0  0  0  0  0  0  0  0  0  0  0  0
   -0.2390    3.1000    0.9120 H   0  0  0  0  0  0  0  0  0  0  0  0
    0.7260    1.7750    0.1120 H   0  0  0  0  0  0  0  0  0  0  0  0
   -1.1250    1.7100    0.1570 H   0  0  0  0  0  0  0  0  0  0  0  0
    0.3400   -0.5410    2.9370 H   0  0  0  0  0  0  0  0  0  0  0  0
    1.3610   -0.1630    0.0870 H   0  0  0  0  0  0  0  0  0  0  0  0
   -0.8750   -1.7830    0.2140 N   0  0  0  0  0  0  0  0  0  0  0  0
   -2.0180   -2.5160   -0.2450 C   0  0  1  0  0  0  0  0  0  0  0  0
   -2.3080   -2.2730   -1.7090 C   0  0  0  0  0  0  0  0  0  0  0  0
   -2.5830   -0.8520   -2.0140 C   0  0  0  0  0  0  0  0  0  0  0  0
   -3.8670   -0.3700   -1.9570 C   0  0  0  0  0  0  0  0  0  0  0  0
   -4.0760    0.9560   -2.2480 C   0  0  0  0  0  0  0  0  0  0  0  0
   -3.0350    1.7930   -2.5900 C   0  0  0  0  0  0  0  0  0  0  0  0
   -1.7470    1.3000   -2.6450 C   0  0  0  0  0  0  0  0  0  0  0  0
   -1.5080   -0.0400   -2.3540 C   0  0  0  0  0  0  0  0  0  0  0  0
   -1.7460   -3.9930   -0.1240 C   0  0  0  0  0  0  0  0  0  0  0  0
   -2.6270   -4.8160   -0.4760 O   0  0  0  0  0  0  0  0  0  0  0  0
   -0.5520   -4.4910    0.3650 O   0  0  0  0  0  0  0  0  0  0  0  0
    0.0650   -1.7940   -0.2290 H   0  0  0  0  0  0  0  0  0  0  0  0
   -2.8690   -2.3150    0.4030 H   0  0  0  0  0  0  0  0  0  0  0  0
   -3.1350   -2.9220   -2.0590 H   0  0  0  0  0  0  0  0  0  0  0  0
   -1.4120   -2.5830   -2.2840 H   0  0  0  0  0  0  0  0  0  0  0  0
   -4.6880   -1.0430   -1.6840 H   0  0  0  0  0  0  0  0  0  0  0  0
   -5.1110    1.3180   -2.1960 H   0  0  0  0  0  0  0  0  0  0  0  0
   -3.2750    2.8390   -2.8090 H   0  0  0  0  0  0  0  0  0  0  0  0
   -0.9560    1.9860   -2.9160 H   0  0  0  0  0  0  0  0  0  0  0  0
   -0.4920   -0.3970   -2.4050 H   0  0  0  0  0  0  0  0  0  0  0  0
  1  2  1  0  0  0  0
  1  8  1  0  0  0  0
  2 10  1  0  0  0  0
  2  9  1  0  0  0  0
  3 11  1  0  0  0  0
  3  2  1  0  0  0  0
  4  3  1  0  0  0  0
  4  5  1  0  0  0  0
  5 15  1  6  0  0  0
  5  6  1  0  0  0  0
  5  1  1  0  0  0  0
  6  7  2  0  0  0  0
 12  3  1  0  0  0  0
 13  4  1  0  0  0  0
 14  4  1  0  0  0  0
 16 24  1  0  0  0  0
 16 25  1  0  0  0  0
 17 16  1  0  0  0  0
 17 27  1  0  0  0  0
 18 29  1  1  0  0  0
 18 17  1  0  0  0  0
 19 30  1  0  0  0  0
 19 18  1  0  0  0  0
 20 18  1  0  0  0  0
 20 33  1  1  0  0  0
 21  6  1  0  0  0  0
 21 20  1  0  0  0  0
 22 20  1  0  0  0  0
 22 23  2  0  0  0  0
 26 16  1  0  0  0  0
 28 17  1  0  0  0  0
 31 19  1  0  0  0  0
 32 19  1  0  0  0  0
 34 21  1  0  0  0  0
 35 22  1  0  0  0  0
 36 44  1  0  0  0  0
 36 35  1  0  0  0  0
 36 48  1  1  0  0  0
 37 36  1  0  0  0  0
 38 39  1  0  0  0  0
 38 37  1  0  0  0  0
 39 51  1  0  0  0  0
 40 52  1  0  0  0  0
 40 39  2  0  0  0  0
 41 40  1  0  0  0  0
 42 41  2  0  0  0  0
 42 43  1  0  0  0  0
 43 38  2  0  0  0  0
 44 46  1  0  0  0  0
 45 44  2  0  0  0  0
 47 35  1  0  0  0  0
 49 37  1  0  0  0  0
 50 37  1  0  0  0  0
 53 41  1  0  0  0  0
 54 42  1  0  0  0  0
 55 43  1  0  0  0  0
M  END
$$$$
