PII.pdb
 OpenBabel07022419043D

 54 54  0  0  1  0  0  0  0  0999 V2000
    0.5160   -3.8650    3.3050 N   0  0  0  0  0  0  0  0  0  0  0  0
    1.5790   -4.7290    2.8490 C   0  0  0  0  0  0  0  0  0  0  0  0
    2.7850   -4.2660    3.6260 C   0  0  0  0  0  0  0  0  0  0  0  0
    2.5740   -2.7700    3.6980 C   0  0  0  0  0  0  0  0  0  0  0  0
    1.0900   -2.5680    3.5360 C   0  0  1  0  0  0  0  0  0  0  0  0
    0.8060   -1.7130    2.3260 C   0  0  0  0  0  0  0  0  0  0  0  0
    0.1610   -2.2670    1.4060 O   0  0  0  0  0  0  0  0  0  0  0  0
   -0.0120   -4.2470    4.1110 H   0  0  0  0  0  0  0  0  0  0  0  0
    1.3510   -5.7580    3.1890 H   0  0  0  0  0  0  0  0  0  0  0  0
    1.7140   -4.6940    1.7590 H   0  0  0  0  0  0  0  0  0  0  0  0
    3.7320   -4.5320    3.1150 H   0  0  0  0  0  0  0  0  0  0  0  0
    2.7160   -4.6910    4.6460 H   0  0  0  0  0  0  0  0  0  0  0  0
    3.1700   -2.2910    2.9080 H   0  0  0  0  0  0  0  0  0  0  0  0
    2.8850   -2.4340    4.7230 H   0  0  0  0  0  0  0  0  0  0  0  0
    0.6780   -2.0640    4.4350 H   0  0  0  0  0  0  0  0  0  0  0  0
    2.1690    2.6720   -0.8060 C   0  0  0  0  0  0  0  0  0  0  0  0
    2.2880    1.1760   -0.9930 C   0  0  0  0  0  0  0  0  0  0  0  0
    2.1470    0.3690    0.2480 C   0  0  2  0  0  0  0  0  0  0  0  0
    2.3400   -1.0900   -0.2020 C   0  0  0  0  0  0  0  0  0  0  0  0
    1.0200    0.5430    1.1420 C   0  0  2  0  0  0  0  0  0  0  0  0
    1.2550   -0.3750    2.2700 N   0  0  0  0  0  0  0  0  0  0  0  0
   -0.3700    0.4470    0.7380 C   0  0  0  0  0  0  0  0  0  0  0  0
   -1.1480   -0.2100    1.4770 O   0  0  0  0  0  0  0  0  0  0  0  0
    1.7640    3.1710   -1.7100 H   0  0  0  0  0  0  0  0  0  0  0  0
    1.5000    2.9400    0.0350 H   0  0  0  0  0  0  0  0  0  0  0  0
    3.1430    3.1610   -0.5920 H   0  0  0  0  0  0  0  0  0  0  0  0
    1.7450    0.7900   -1.8800 H   0  0  0  0  0  0  0  0  0  0  0  0
    3.3730    1.0400   -1.3170 H   0  0  0  0  0  0  0  0  0  0  0  0
    3.0750    0.5630    0.8520 H   0  0  0  0  0  0  0  0  0  0  0  0
    2.7060   -1.7300    0.6220 H   0  0  0  0  0  0  0  0  0  0  0  0
    1.5310   -1.4720   -0.8060 H   0  0  0  0  0  0  0  0  0  0  0  0
    3.2300   -1.0370   -0.9030 H   0  0  0  0  0  0  0  0  0  0  0  0
    1.0920    1.5560    1.6440 H   0  0  0  0  0  0  0  0  0  0  0  0
    1.7980   -0.0490    3.1220 H   0  0  0  0  0  0  0  0  0  0  0  0
   -4.5310    0.8690   -2.8890 C   0  0  0  0  0  0  0  0  0  0  0  0
   -3.9930   -0.3380   -2.1990 C   0  0  0  0  0  0  0  0  0  0  0  0
   -2.5700   -0.2000   -1.7150 C   0  0  2  0  0  0  0  0  0  0  0  0
   -2.1910   -1.4890   -1.0520 C   0  0  0  0  0  0  0  0  0  0  0  0
   -2.3350    0.9510   -0.8300 C   0  0  2  0  0  0  0  0  0  0  0  0
   -0.9600    1.0150   -0.4110 N   0  0  0  0  0  0  0  0  0  0  0  0
   -3.2590    1.1470    0.2890 C   0  0  0  0  0  0  0  0  0  0  0  0
   -4.5070    0.9620    0.1970 O   0  0  0  0  0  0  0  0  0  0  0  0
   -2.8090    1.5560    1.5230 O   0  0  0  0  0  0  0  0  0  0  0  0
   -4.1370    0.9560   -3.9350 H   0  0  0  0  0  0  0  0  0  0  0  0
   -5.6350    0.6900   -3.0250 H   0  0  0  0  0  0  0  0  0  0  0  0
   -4.3620    1.8260   -2.4060 H   0  0  0  0  0  0  0  0  0  0  0  0
   -3.9670   -1.1640   -2.9710 H   0  0  0  0  0  0  0  0  0  0  0  0
   -4.6650   -0.7260   -1.4070 H   0  0  0  0  0  0  0  0  0  0  0  0
   -1.8960   -0.0920   -2.6030 H   0  0  0  0  0  0  0  0  0  0  0  0
   -1.0960   -1.5120   -0.9150 H   0  0  0  0  0  0  0  0  0  0  0  0
   -2.7480   -1.7130   -0.1290 H   0  0  0  0  0  0  0  0  0  0  0  0
   -2.4800   -2.3080   -1.7820 H   0  0  0  0  0  0  0  0  0  0  0  0
   -2.5580    1.9090   -1.4700 H   0  0  0  0  0  0  0  0  0  0  0  0
   -0.3450    1.5720   -1.0950 H   0  0  0  0  0  0  0  0  0  0  0  0
  1  5  1  0  0  0  0
  1  8  1  0  0  0  0
  2  9  1  0  0  0  0
  2  1  1  0  0  0  0
  2  3  1  0  0  0  0
  3  4  1  0  0  0  0
  3 12  1  0  0  0  0
  4 14  1  0  0  0  0
  5  4  1  0  0  0  0
  5 15  1  1  0  0  0
  6  5  1  0  0  0  0
  7  6  2  0  0  0  0
 10  2  1  0  0  0  0
 11  3  1  0  0  0  0
 13  4  1  0  0  0  0
 16 26  1  0  0  0  0
 16 25  1  0  0  0  0
 17 16  1  0  0  0  0
 17 18  1  0  0  0  0
 18 29  1  1  0  0  0
 18 20  1  0  0  0  0
 19 18  1  0  0  0  0
 19 30  1  0  0  0  0
 20 33  1  1  0  0  0
 20 21  1  0  0  0  0
 21  6  1  0  0  0  0
 21 34  1  0  0  0  0
 22 20  1  0  0  0  0
 22 23  2  0  0  0  0
 24 16  1  0  0  0  0
 27 17  1  0  0  0  0
 28 17  1  0  0  0  0
 31 19  1  0  0  0  0
 32 19  1  0  0  0  0
 35 46  1  0  0  0  0
 35 36  1  0  0  0  0
 36 37  1  0  0  0  0
 36 48  1  0  0  0  0
 37 49  1  6  0  0  0
 37 38  1  0  0  0  0
 37 39  1  0  0  0  0
 38 50  1  0  0  0  0
 38 51  1  0  0  0  0
 39 53  1  6  0  0  0
 39 40  1  0  0  0  0
 39 41  1  0  0  0  0
 40 22  1  0  0  0  0
 41 43  1  0  0  0  0
 42 41  2  0  0  0  0
 44 35  1  0  0  0  0
 45 35  1  0  0  0  0
 47 36  1  0  0  0  0
 52 38  1  0  0  0  0
 54 40  1  0  0  0  0
M  END
$$$$
