PIK.pdb
 OpenBabel07022419043D

 56 56  0  0  1  0  0  0  0  0999 V2000
   -3.7050    0.7470    3.2990 N   0  0  0  0  0  0  0  0  0  0  0  0
   -4.5170   -0.2990    2.7490 C   0  0  0  0  0  0  0  0  0  0  0  0
   -3.9490   -1.5820    3.2980 C   0  0  0  0  0  0  0  0  0  0  0  0
   -2.4860   -1.2820    3.3900 C   0  0  0  0  0  0  0  0  0  0  0  0
   -2.3570    0.2440    3.4270 C   0  0  1  0  0  0  0  0  0  0  0  0
   -1.5040    0.6930    2.2980 C   0  0  0  0  0  0  0  0  0  0  0  0
   -2.0400    1.4170    1.4220 O   0  0  0  0  0  0  0  0  0  0  0  0
   -4.0630    1.0770    4.2400 H   0  0  0  0  0  0  0  0  0  0  0  0
   -5.5820   -0.1550    3.0440 H   0  0  0  0  0  0  0  0  0  0  0  0
   -4.3830   -0.3170    1.6480 H   0  0  0  0  0  0  0  0  0  0  0  0
   -4.3680   -1.8710    4.2710 H   0  0  0  0  0  0  0  0  0  0  0  0
   -4.1670   -2.4040    2.5620 H   0  0  0  0  0  0  0  0  0  0  0  0
   -1.9440   -1.6640    2.5020 H   0  0  0  0  0  0  0  0  0  0  0  0
   -2.0570   -1.7210    4.3050 H   0  0  0  0  0  0  0  0  0  0  0  0
   -1.8580    0.5680    4.3560 H   0  0  0  0  0  0  0  0  0  0  0  0
    1.2900    2.0930    3.8850 C   0  0  0  0  0  0  0  0  0  0  0  0
    1.8970    2.3950    2.5720 C   0  0  0  0  0  0  0  0  0  0  0  0
    1.9790    1.2750    1.5700 C   0  0  2  0  0  0  0  0  0  0  0  0
    2.6930    1.8920    0.3380 C   0  0  0  0  0  0  0  0  0  0  0  0
    0.6650    0.7990    1.0600 C   0  0  2  0  0  0  0  0  0  0  0  0
   -0.1190    0.3130    2.2130 N   0  0  0  0  0  0  0  0  0  0  0  0
    0.8440   -0.4140    0.1730 C   0  0  0  0  0  0  0  0  0  0  0  0
    0.5220   -1.5730    0.5910 O   0  0  0  0  0  0  0  0  0  0  0  0
    0.1950    2.2160    3.9180 H   0  0  0  0  0  0  0  0  0  0  0  0
    1.6740    2.8680    4.6190 H   0  0  0  0  0  0  0  0  0  0  0  0
    1.5530    1.0810    4.3090 H   0  0  0  0  0  0  0  0  0  0  0  0
    1.3480    3.2790    2.1540 H   0  0  0  0  0  0  0  0  0  0  0  0
    2.9300    2.8220    2.7710 H   0  0  0  0  0  0  0  0  0  0  0  0
    2.6370    0.4930    1.9460 H   0  0  0  0  0  0  0  0  0  0  0  0
    1.9620    2.4340   -0.2810 H   0  0  0  0  0  0  0  0  0  0  0  0
    3.3580    2.7000    0.7590 H   0  0  0  0  0  0  0  0  0  0  0  0
    3.3300    1.1730   -0.1680 H   0  0  0  0  0  0  0  0  0  0  0  0
    0.1000    1.5030    0.4510 H   0  0  0  0  0  0  0  0  0  0  0  0
    0.2580   -0.2860    2.9470 H   0  0  0  0  0  0  0  0  0  0  0  0
    1.3550   -0.3710   -1.1360 N   0  0  0  0  0  0  0  0  0  0  0  0
    1.4980   -1.6050   -1.9190 C   0  0  1  0  0  0  0  0  0  0  0  0
    0.5560   -1.4650   -3.0890 C   0  0  0  0  0  0  0  0  0  0  0  0
    0.5390   -2.6240   -4.0180 C   0  0  0  0  0  0  0  0  0  0  0  0
    0.1470   -3.9220   -3.3700 C   0  0  0  0  0  0  0  0  0  0  0  0
   -1.2370   -3.8710   -2.7660 C   0  0  0  0  0  0  0  0  0  0  0  0
   -1.5110   -5.1660   -2.1730 N   0  0  0  0  0  0  0  0  0  0  0  0
    2.8910   -1.8240   -2.3180 C   0  0  0  0  0  0  0  0  0  0  0  0
    3.8280   -1.0160   -2.0560 O   0  0  0  0  0  0  0  0  0  0  0  0
    3.2720   -2.9550   -3.0200 O   0  0  0  0  0  0  0  0  0  0  0  0
    1.6240    0.5270   -1.5820 H   0  0  0  0  0  0  0  0  0  0  0  0
    1.1580   -2.4840   -1.3340 H   0  0  0  0  0  0  0  0  0  0  0  0
   -0.4540   -1.1670   -2.7290 H   0  0  0  0  0  0  0  0  0  0  0  0
    0.8970   -0.5740   -3.6960 H   0  0  0  0  0  0  0  0  0  0  0  0
    1.5340   -2.7510   -4.4760 H   0  0  0  0  0  0  0  0  0  0  0  0
   -0.1470   -2.4540   -4.8960 H   0  0  0  0  0  0  0  0  0  0  0  0
    0.8790   -4.2350   -2.5990 H   0  0  0  0  0  0  0  0  0  0  0  0
    0.1600   -4.7020   -4.1590 H   0  0  0  0  0  0  0  0  0  0  0  0
   -1.9740   -3.7460   -3.6030 H   0  0  0  0  0  0  0  0  0  0  0  0
   -1.3810   -3.0400   -2.0800 H   0  0  0  0  0  0  0  0  0  0  0  0
   -1.2850   -5.2070   -1.1630 H   0  0  0  0  0  0  0  0  0  0  0  0
   -2.5580   -5.3270   -2.2340 H   0  0  0  0  0  0  0  0  0  0  0  0
  1  5  1  0  0  0  0
  1  8  1  0  0  0  0
  2  9  1  0  0  0  0
  2  3  1  0  0  0  0
  2  1  1  0  0  0  0
  3  4  1  0  0  0  0
  3 11  1  0  0  0  0
  4  5  1  0  0  0  0
  4 14  1  0  0  0  0
  5 15  1  1  0  0  0
  6  5  1  0  0  0  0
  7  6  2  0  0  0  0
 10  2  1  0  0  0  0
 12  3  1  0  0  0  0
 13  4  1  0  0  0  0
 16 24  1  0  0  0  0
 16 26  1  0  0  0  0
 16 25  1  0  0  0  0
 17 28  1  0  0  0  0
 17 16  1  0  0  0  0
 18 29  1  1  0  0  0
 18 17  1  0  0  0  0
 19 31  1  0  0  0  0
 19 18  1  0  0  0  0
 20 33  1  6  0  0  0
 20 18  1  0  0  0  0
 20 21  1  0  0  0  0
 21  6  1  0  0  0  0
 21 34  1  0  0  0  0
 22 23  2  0  0  0  0
 22 20  1  0  0  0  0
 27 17  1  0  0  0  0
 30 19  1  0  0  0  0
 32 19  1  0  0  0  0
 35 22  1  0  0  0  0
 36 46  1  1  0  0  0
 36 35  1  0  0  0  0
 37 47  1  0  0  0  0
 37 36  1  0  0  0  0
 38 39  1  0  0  0  0
 38 37  1  0  0  0  0
 39 40  1  0  0  0  0
 39 51  1  0  0  0  0
 40 41  1  0  0  0  0
 40 54  1  0  0  0  0
 41 55  1  0  0  0  0
 42 43  1  0  0  0  0
 42 36  1  0  0  0  0
 44 42  2  0  0  0  0
 45 35  1  0  0  0  0
 48 37  1  0  0  0  0
 49 38  1  0  0  0  0
 50 38  1  0  0  0  0
 52 39  1  0  0  0  0
 53 40  1  0  0  0  0
 56 41  1  0  0  0  0
M  END
$$$$
