PIN.pdb
 OpenBabel07022419043D

 49 49  0  0  1  0  0  0  0  0999 V2000
    0.4410   -3.4190    4.6090 N   0  0  0  0  0  0  0  0  0  0  0  0
   -0.2670   -4.6700    4.5400 C   0  0  0  0  0  0  0  0  0  0  0  0
    0.3000   -5.4320    3.3690 C   0  0  0  0  0  0  0  0  0  0  0  0
    0.7700   -4.3350    2.4420 C   0  0  0  0  0  0  0  0  0  0  0  0
    1.0600   -3.1750    3.3490 C   0  0  1  0  0  0  0  0  0  0  0  0
    0.4970   -1.8980    2.7970 C   0  0  0  0  0  0  0  0  0  0  0  0
   -0.3640   -1.2370    3.4160 O   0  0  0  0  0  0  0  0  0  0  0  0
    1.0800   -3.3540    5.4310 H   0  0  0  0  0  0  0  0  0  0  0  0
   -0.1350   -5.1880    5.5060 H   0  0  0  0  0  0  0  0  0  0  0  0
   -1.3560   -4.4720    4.4150 H   0  0  0  0  0  0  0  0  0  0  0  0
   -0.4780   -6.0120    2.8330 H   0  0  0  0  0  0  0  0  0  0  0  0
    1.1180   -6.1200    3.6620 H   0  0  0  0  0  0  0  0  0  0  0  0
    0.0240   -4.0810    1.6670 H   0  0  0  0  0  0  0  0  0  0  0  0
    1.7010   -4.6310    1.9180 H   0  0  0  0  0  0  0  0  0  0  0  0
    2.1590   -3.0770    3.5250 H   0  0  0  0  0  0  0  0  0  0  0  0
    3.5870    1.6530   -0.0960 C   0  0  0  0  0  0  0  0  0  0  0  0
    2.5950    0.5000   -0.0680 C   0  0  0  0  0  0  0  0  0  0  0  0
    1.4620    0.9000    0.8170 C   0  0  2  0  0  0  0  0  0  0  0  0
    2.0320    1.1700    2.1990 C   0  0  0  0  0  0  0  0  0  0  0  0
    0.4050   -0.1540    0.9680 C   0  0  2  0  0  0  0  0  0  0  0  0
    0.9230   -1.3830    1.5360 N   0  0  0  0  0  0  0  0  0  0  0  0
   -0.3540   -0.4020   -0.2830 C   0  0  0  0  0  0  0  0  0  0  0  0
   -0.4440   -1.5950   -0.6690 O   0  0  0  0  0  0  0  0  0  0  0  0
    4.0190    1.8080   -1.1030 H   0  0  0  0  0  0  0  0  0  0  0  0
    3.0530    2.6190    0.1430 H   0  0  0  0  0  0  0  0  0  0  0  0
    4.3680    1.5500    0.6860 H   0  0  0  0  0  0  0  0  0  0  0  0
    3.1140   -0.3580    0.4130 H   0  0  0  0  0  0  0  0  0  0  0  0
    2.3030    0.1790   -1.0750 H   0  0  0  0  0  0  0  0  0  0  0  0
    0.9590    1.8330    0.5000 H   0  0  0  0  0  0  0  0  0  0  0  0
    2.7570    0.3910    2.5010 H   0  0  0  0  0  0  0  0  0  0  0  0
    2.6040    2.1300    2.1410 H   0  0  0  0  0  0  0  0  0  0  0  0
    1.2340    1.3180    2.9500 H   0  0  0  0  0  0  0  0  0  0  0  0
   -0.3390    0.2360    1.7070 H   0  0  0  0  0  0  0  0  0  0  0  0
    1.6440   -1.9520    1.0350 H   0  0  0  0  0  0  0  0  0  0  0  0
   -4.6040    2.7240   -2.0230 N   0  0  0  0  0  0  0  0  0  0  0  0
   -3.2920    2.1900   -2.0540 C   0  0  0  0  0  0  0  0  0  0  0  0
   -2.2920    2.9330   -1.9350 O   0  0  0  0  0  0  0  0  0  0  0  0
   -3.1150    0.7320   -2.2300 C   0  0  0  0  0  0  0  0  0  0  0  0
   -1.6830    0.3040   -2.2420 C   0  0  2  0  0  0  0  0  0  0  0  0
   -0.9630    0.6170   -1.0390 N   0  0  0  0  0  0  0  0  0  0  0  0
   -1.0430    0.9370   -3.4410 C   0  0  0  0  0  0  0  0  0  0  0  0
   -1.5130    0.7900   -4.5960 O   0  0  0  0  0  0  0  0  0  0  0  0
    0.0980    1.7080   -3.3030 O   0  0  0  0  0  0  0  0  0  0  0  0
   -4.8870    3.3030   -1.1860 H   0  0  0  0  0  0  0  0  0  0  0  0
   -5.3190    2.5980   -2.7520 H   0  0  0  0  0  0  0  0  0  0  0  0
   -3.5490    0.4720   -3.2180 H   0  0  0  0  0  0  0  0  0  0  0  0
   -3.7260    0.1600   -1.4830 H   0  0  0  0  0  0  0  0  0  0  0  0
   -1.6560   -0.7840   -2.4230 H   0  0  0  0  0  0  0  0  0  0  0  0
   -0.8560    1.5970   -0.6690 H   0  0  0  0  0  0  0  0  0  0  0  0
  1  8  1  0  0  0  0
  2  1  1  0  0  0  0
  2  9  1  0  0  0  0
  3 12  1  0  0  0  0
  3  2  1  0  0  0  0
  4  5  1  0  0  0  0
  4  3  1  0  0  0  0
  5 15  1  1  0  0  0
  5  1  1  0  0  0  0
  6  5  1  0  0  0  0
  6  7  2  0  0  0  0
 10  2  1  0  0  0  0
 11  3  1  0  0  0  0
 13  4  1  0  0  0  0
 14  4  1  0  0  0  0
 16 17  1  0  0  0  0
 16 25  1  0  0  0  0
 16 26  1  0  0  0  0
 17 27  1  0  0  0  0
 17 18  1  0  0  0  0
 18 29  1  6  0  0  0
 18 20  1  0  0  0  0
 18 19  1  0  0  0  0
 19 30  1  0  0  0  0
 19 32  1  0  0  0  0
 20 21  1  0  0  0  0
 20 33  1  1  0  0  0
 21  6  1  0  0  0  0
 22 20  1  0  0  0  0
 23 22  2  0  0  0  0
 24 16  1  0  0  0  0
 28 17  1  0  0  0  0
 31 19  1  0  0  0  0
 34 21  1  0  0  0  0
 35 44  1  0  0  0  0
 36 35  1  0  0  0  0
 36 37  2  0  0  0  0
 38 36  1  0  0  0  0
 38 47  1  0  0  0  0
 39 48  1  6  0  0  0
 39 38  1  0  0  0  0
 39 40  1  0  0  0  0
 40 49  1  0  0  0  0
 40 22  1  0  0  0  0
 41 43  1  0  0  0  0
 41 39  1  0  0  0  0
 42 41  2  0  0  0  0
 45 35  1  0  0  0  0
 46 38  1  0  0  0  0
M  END
$$$$
