PIP.pdb
 OpenBabel07022419043D

 49 50  0  0  1  0  0  0  0  0999 V2000
    3.5050   -2.7570   -0.1750 N   0  0  0  0  0  0  0  0  0  0  0  0
    3.4010   -4.0310   -0.8630 C   0  0  0  0  0  0  0  0  0  0  0  0
    2.0550   -4.5450   -0.4080 C   0  0  0  0  0  0  0  0  0  0  0  0
    1.3090   -3.3210    0.0780 C   0  0  0  0  0  0  0  0  0  0  0  0
    2.1870   -2.1930   -0.4060 C   0  0  1  0  0  0  0  0  0  0  0  0
    1.9220   -1.0090    0.4010 C   0  0  0  0  0  0  0  0  0  0  0  0
    2.8120   -0.6250    1.2130 O   0  0  0  0  0  0  0  0  0  0  0  0
    3.5470   -2.9900    0.8560 H   0  0  0  0  0  0  0  0  0  0  0  0
    3.3410   -3.8960   -1.9650 H   0  0  0  0  0  0  0  0  0  0  0  0
    4.2270   -4.7210   -0.5760 H   0  0  0  0  0  0  0  0  0  0  0  0
    2.1950   -5.2260    0.4460 H   0  0  0  0  0  0  0  0  0  0  0  0
    1.4680   -4.9810   -1.2390 H   0  0  0  0  0  0  0  0  0  0  0  0
    0.2900   -3.2620   -0.3630 H   0  0  0  0  0  0  0  0  0  0  0  0
    1.2870   -3.2690    1.1870 H   0  0  0  0  0  0  0  0  0  0  0  0
    2.1010   -2.0340   -1.4970 H   0  0  0  0  0  0  0  0  0  0  0  0
    1.5350    3.4690   -1.5190 C   0  0  0  0  0  0  0  0  0  0  0  0
    1.6960    2.2530   -0.6060 C   0  0  0  0  0  0  0  0  0  0  0  0
    0.3720    2.0930    0.1280 C   0  0  2  0  0  0  0  0  0  0  0  0
    0.1700    3.3760    0.8970 C   0  0  0  0  0  0  0  0  0  0  0  0
    0.4200    0.8960    1.0610 C   0  0  2  0  0  0  0  0  0  0  0  0
    0.6970   -0.3050    0.2720 N   0  0  0  0  0  0  0  0  0  0  0  0
   -0.7890    0.8560    1.8710 C   0  0  0  0  0  0  0  0  0  0  0  0
   -1.0240    1.9270    2.5410 O   0  0  0  0  0  0  0  0  0  0  0  0
    0.4620    3.7250   -1.6690 H   0  0  0  0  0  0  0  0  0  0  0  0
    1.9580    3.2580   -2.5390 H   0  0  0  0  0  0  0  0  0  0  0  0
    2.0660    4.3480   -1.1380 H   0  0  0  0  0  0  0  0  0  0  0  0
    2.4780    2.5050    0.1190 H   0  0  0  0  0  0  0  0  0  0  0  0
    1.9050    1.4000   -1.2520 H   0  0  0  0  0  0  0  0  0  0  0  0
   -0.4180    1.9870   -0.6370 H   0  0  0  0  0  0  0  0  0  0  0  0
   -0.9100    3.6420    1.0110 H   0  0  0  0  0  0  0  0  0  0  0  0
    0.6250    3.3920    1.8910 H   0  0  0  0  0  0  0  0  0  0  0  0
    0.6620    4.2410    0.3510 H   0  0  0  0  0  0  0  0  0  0  0  0
    1.3010    1.0640    1.7190 H   0  0  0  0  0  0  0  0  0  0  0  0
    0.0230   -0.6900   -0.4220 H   0  0  0  0  0  0  0  0  0  0  0  0
   -1.7250   -0.1870    2.0160 N   0  0  0  0  0  0  0  0  0  0  0  0
   -2.9240   -0.0340    2.8700 C   0  0  0  0  0  0  0  0  0  0  0  0
   -3.3990   -1.3980    3.2240 C   0  0  0  0  0  0  0  0  0  0  0  0
   -2.4820   -2.3830    2.5860 C   0  0  0  0  0  0  0  0  0  0  0  0
   -1.8270   -1.5140    1.5000 C   0  0  1  0  0  0  0  0  0  0  0  0
   -2.6470   -1.5700    0.2480 C   0  0  0  0  0  0  0  0  0  0  0  0
   -3.1560   -0.5330   -0.2340 O   0  0  0  0  0  0  0  0  0  0  0  0
   -2.8710   -2.7670   -0.4170 O   0  0  0  0  0  0  0  0  0  0  0  0
   -2.6240    0.4780    3.8290 H   0  0  0  0  0  0  0  0  0  0  0  0
   -3.6790    0.5970    2.3940 H   0  0  0  0  0  0  0  0  0  0  0  0
   -3.4090   -1.5920    4.3170 H   0  0  0  0  0  0  0  0  0  0  0  0
   -4.4150   -1.5420    2.7740 H   0  0  0  0  0  0  0  0  0  0  0  0
   -2.9970   -3.2280    2.1000 H   0  0  0  0  0  0  0  0  0  0  0  0
   -1.6830   -2.7330    3.2540 H   0  0  0  0  0  0  0  0  0  0  0  0
   -0.8790   -2.0020    1.2960 H   0  0  0  0  0  0  0  0  0  0  0  0
  1  8  1  0  0  0  0
  2 10  1  0  0  0  0
  2  3  1  0  0  0  0
  2  1  1  0  0  0  0
  3  4  1  0  0  0  0
  3 11  1  0  0  0  0
  4 14  1  0  0  0  0
  5 15  1  6  0  0  0
  5  1  1  0  0  0  0
  5  4  1  0  0  0  0
  5  6  1  0  0  0  0
  6  7  2  0  0  0  0
  9  2  1  0  0  0  0
 12  3  1  0  0  0  0
 13  4  1  0  0  0  0
 16 26  1  0  0  0  0
 16 17  1  0  0  0  0
 17 27  1  0  0  0  0
 17 18  1  0  0  0  0
 18 29  1  6  0  0  0
 18 19  1  0  0  0  0
 18 20  1  0  0  0  0
 19 30  1  0  0  0  0
 19 31  1  0  0  0  0
 20 33  1  1  0  0  0
 20 22  1  0  0  0  0
 21  6  1  0  0  0  0
 21 20  1  0  0  0  0
 22 35  1  0  0  0  0
 22 23  2  0  0  0  0
 24 16  1  0  0  0  0
 25 16  1  0  0  0  0
 28 17  1  0  0  0  0
 32 19  1  0  0  0  0
 34 21  1  0  0  0  0
 35 36  1  0  0  0  0
 36 37  1  0  0  0  0
 36 43  1  0  0  0  0
 37 45  1  0  0  0  0
 38 37  1  0  0  0  0
 38 48  1  0  0  0  0
 39 49  1  6  0  0  0
 39 35  1  0  0  0  0
 39 38  1  0  0  0  0
 40 39  1  0  0  0  0
 41 40  1  0  0  0  0
 42 40  2  0  0  0  0
 44 36  1  0  0  0  0
 46 37  1  0  0  0  0
 47 38  1  0  0  0  0
M  END
$$$$
