PIR.pdb
 OpenBabel07022419043D

 58 58  0  0  1  0  0  0  0  0999 V2000
   -1.3190    2.9970   -2.8430 N   0  0  0  0  0  0  0  0  0  0  0  0
   -0.9080    4.3170   -3.1790 C   0  0  0  0  0  0  0  0  0  0  0  0
    0.6270    4.3380   -3.1670 C   0  0  0  0  0  0  0  0  0  0  0  0
    0.9290    3.0950   -2.3050 C   0  0  0  0  0  0  0  0  0  0  0  0
   -0.1420    2.1810   -2.7960 C   0  0  1  0  0  0  0  0  0  0  0  0
   -0.4080    1.0480   -1.8830 C   0  0  0  0  0  0  0  0  0  0  0  0
   -1.5170    0.8780   -1.3380 O   0  0  0  0  0  0  0  0  0  0  0  0
   -1.7500    3.0050   -1.8930 H   0  0  0  0  0  0  0  0  0  0  0  0
   -1.3290    4.5940   -4.1570 H   0  0  0  0  0  0  0  0  0  0  0  0
   -1.2990    5.0440   -2.4200 H   0  0  0  0  0  0  0  0  0  0  0  0
    1.0230    5.2510   -2.7310 H   0  0  0  0  0  0  0  0  0  0  0  0
    0.9410    4.1330   -4.2080 H   0  0  0  0  0  0  0  0  0  0  0  0
    1.9460    2.7670   -2.5310 H   0  0  0  0  0  0  0  0  0  0  0  0
    0.7630    3.4070   -1.2520 H   0  0  0  0  0  0  0  0  0  0  0  0
    0.0870    1.8590   -3.8300 H   0  0  0  0  0  0  0  0  0  0  0  0
    2.9990   -2.5980   -1.1660 C   0  0  0  0  0  0  0  0  0  0  0  0
    1.7450   -2.7910   -1.9680 C   0  0  0  0  0  0  0  0  0  0  0  0
    0.4980   -2.3780   -1.3020 C   0  0  2  0  0  0  0  0  0  0  0  0
   -0.6640   -2.6280   -2.2370 C   0  0  0  0  0  0  0  0  0  0  0  0
    0.3860   -1.0460   -0.6820 C   0  0  2  0  0  0  0  0  0  0  0  0
    0.5910    0.0710   -1.5610 N   0  0  0  0  0  0  0  0  0  0  0  0
    1.0080   -0.8790    0.6530 C   0  0  0  0  0  0  0  0  0  0  0  0
    1.7200    0.1250    0.9680 O   0  0  0  0  0  0  0  0  0  0  0  0
    3.7030   -3.4820   -1.2400 H   0  0  0  0  0  0  0  0  0  0  0  0
    2.8510   -2.4710   -0.0840 H   0  0  0  0  0  0  0  0  0  0  0  0
    3.5970   -1.7590   -1.6090 H   0  0  0  0  0  0  0  0  0  0  0  0
    1.6580   -3.9130   -2.1190 H   0  0  0  0  0  0  0  0  0  0  0  0
    1.8540   -2.4280   -3.0150 H   0  0  0  0  0  0  0  0  0  0  0  0
    0.3470   -3.1460   -0.4750 H   0  0  0  0  0  0  0  0  0  0  0  0
   -1.3830   -1.7860   -2.2510 H   0  0  0  0  0  0  0  0  0  0  0  0
   -1.2550   -3.5320   -1.9850 H   0  0  0  0  0  0  0  0  0  0  0  0
   -0.3410   -2.7790   -3.2880 H   0  0  0  0  0  0  0  0  0  0  0  0
   -0.7320   -0.9760   -0.4390 H   0  0  0  0  0  0  0  0  0  0  0  0
    1.5280    0.2510   -2.0440 H   0  0  0  0  0  0  0  0  0  0  0  0
   -4.1930   -0.6260    3.5210 N   0  0  0  0  0  0  0  0  0  0  0  0
   -3.3120   -1.6990    3.7900 C   0  0  0  0  0  0  0  0  0  0  0  0
   -3.2680   -2.7270    3.0010 N   0  0  0  0  0  0  0  0  0  0  0  0
   -2.4370   -1.7090    4.9250 N   0  0  0  0  0  0  0  0  0  0  0  0
   -1.5270   -2.7980    5.1560 C   0  0  0  0  0  0  0  0  0  0  0  0
   -0.4410   -2.8260    4.1120 C   0  0  0  0  0  0  0  0  0  0  0  0
    0.4010   -1.5720    4.0810 C   0  0  0  0  0  0  0  0  0  0  0  0
    1.4800   -1.6580    3.0150 C   0  0  2  0  0  0  0  0  0  0  0  0
    0.8540   -1.8370    1.6940 N   0  0  0  0  0  0  0  0  0  0  0  0
    2.4620   -2.7010    3.2940 C   0  0  0  0  0  0  0  0  0  0  0  0
    3.1040   -2.6970    4.3650 O   0  0  0  0  0  0  0  0  0  0  0  0
    2.6990   -3.7090    2.3790 O   0  0  0  0  0  0  0  0  0  0  0  0
   -4.4310    0.0640    4.2530 H   0  0  0  0  0  0  0  0  0  0  0  0
   -4.6190   -0.5090    2.5800 H   0  0  0  0  0  0  0  0  0  0  0  0
   -3.8690   -2.8020    2.1540 H   0  0  0  0  0  0  0  0  0  0  0  0
   -2.5250   -0.8720    5.5480 H   0  0  0  0  0  0  0  0  0  0  0  0
   -1.1300   -2.8110    6.1890 H   0  0  0  0  0  0  0  0  0  0  0  0
   -2.1240   -3.7430    4.9850 H   0  0  0  0  0  0  0  0  0  0  0  0
    0.2270   -3.7110    4.3290 H   0  0  0  0  0  0  0  0  0  0  0  0
   -0.9160   -3.0490    3.1440 H   0  0  0  0  0  0  0  0  0  0  0  0
    0.8940   -1.4620    5.0590 H   0  0  0  0  0  0  0  0  0  0  0  0
   -0.2510   -0.7180    3.8800 H   0  0  0  0  0  0  0  0  0  0  0  0
    2.0020   -0.6830    3.0010 H   0  0  0  0  0  0  0  0  0  0  0  0
    0.2670   -2.6890    1.4930 H   0  0  0  0  0  0  0  0  0  0  0  0
  1  5  1  0  0  0  0
  1  8  1  0  0  0  0
  2  3  1  0  0  0  0
  2  1  1  0  0  0  0
  2 10  1  0  0  0  0
  3 11  1  0  0  0  0
  3  4  1  0  0  0  0
  4 14  1  0  0  0  0
  5 15  1  6  0  0  0
  5  4  1  0  0  0  0
  5  6  1  0  0  0  0
  6 21  1  0  0  0  0
  6  7  2  0  0  0  0
  9  2  1  0  0  0  0
 12  3  1  0  0  0  0
 13  4  1  0  0  0  0
 16 25  1  0  0  0  0
 17 18  1  0  0  0  0
 17 16  1  0  0  0  0
 18 20  1  0  0  0  0
 18 29  1  1  0  0  0
 19 31  1  0  0  0  0
 19 18  1  0  0  0  0
 20 33  1  1  0  0  0
 20 22  1  0  0  0  0
 21 20  1  0  0  0  0
 22 23  2  0  0  0  0
 22 43  1  0  0  0  0
 24 16  1  0  0  0  0
 26 16  1  0  0  0  0
 27 17  1  0  0  0  0
 28 17  1  0  0  0  0
 30 19  1  0  0  0  0
 32 19  1  0  0  0  0
 34 21  1  0  0  0  0
 35 36  1  0  0  0  0
 35 47  1  0  0  0  0
 36 38  1  0  0  0  0
 37 36  2  0  0  0  0
 38 39  1  0  0  0  0
 38 50  1  0  0  0  0
 39 51  1  0  0  0  0
 40 53  1  0  0  0  0
 40 39  1  0  0  0  0
 41 40  1  0  0  0  0
 41 55  1  0  0  0  0
 42 57  1  6  0  0  0
 42 44  1  0  0  0  0
 42 41  1  0  0  0  0
 43 42  1  0  0  0  0
 44 45  1  0  0  0  0
 46 44  2  0  0  0  0
 48 35  1  0  0  0  0
 49 37  1  0  0  0  0
 52 39  1  0  0  0  0
 54 40  1  0  0  0  0
 56 41  1  0  0  0  0
 58 43  1  0  0  0  0
M  END
$$$$
