PIS.pdb
 OpenBabel07022419043D

 46 46  0  0  1  0  0  0  0  0999 V2000
   -0.8750   -3.1030   -1.7580 N   0  0  0  0  0  0  0  0  0  0  0  0
   -1.1000   -4.5480   -1.6690 C   0  0  0  0  0  0  0  0  0  0  0  0
    0.2100   -5.0070   -1.0230 C   0  0  0  0  0  0  0  0  0  0  0  0
    0.7220   -3.8020   -0.2530 C   0  0  0  0  0  0  0  0  0  0  0  0
   -0.3920   -2.8160   -0.4250 C   0  0  1  0  0  0  0  0  0  0  0  0
    0.0870   -1.4010   -0.3230 C   0  0  0  0  0  0  0  0  0  0  0  0
    0.0300   -0.6500   -1.3260 O   0  0  0  0  0  0  0  0  0  0  0  0
   -0.0730   -2.9910   -2.4280 H   0  0  0  0  0  0  0  0  0  0  0  0
   -1.9520   -4.7520   -0.9620 H   0  0  0  0  0  0  0  0  0  0  0  0
   -1.2670   -4.9980   -2.6460 H   0  0  0  0  0  0  0  0  0  0  0  0
    0.9170   -5.2360   -1.8460 H   0  0  0  0  0  0  0  0  0  0  0  0
    0.0380   -5.8430   -0.3340 H   0  0  0  0  0  0  0  0  0  0  0  0
    1.6790   -3.4390   -0.6510 H   0  0  0  0  0  0  0  0  0  0  0  0
    0.8050   -4.0520    0.8290 H   0  0  0  0  0  0  0  0  0  0  0  0
   -1.1890   -3.0500    0.2800 H   0  0  0  0  0  0  0  0  0  0  0  0
    2.4850    1.8480   -2.1480 C   0  0  0  0  0  0  0  0  0  0  0  0
    2.4390    0.8730   -0.9940 C   0  0  0  0  0  0  0  0  0  0  0  0
    1.3830    1.3290   -0.0290 C   0  0  2  0  0  0  0  0  0  0  0  0
    1.7920    2.6920    0.4640 C   0  0  0  0  0  0  0  0  0  0  0  0
    1.1180    0.4290    1.1210 C   0  0  2  0  0  0  0  0  0  0  0  0
    0.6060   -0.8660    0.8640 N   0  0  0  0  0  0  0  0  0  0  0  0
    0.4430    1.1210    2.2180 C   0  0  0  0  0  0  0  0  0  0  0  0
    0.7310    2.2600    2.6560 O   0  0  0  0  0  0  0  0  0  0  0  0
    2.5550    1.3180   -3.1280 H   0  0  0  0  0  0  0  0  0  0  0  0
    3.2850    2.5970   -2.0800 H   0  0  0  0  0  0  0  0  0  0  0  0
    1.5240    2.4010   -2.1590 H   0  0  0  0  0  0  0  0  0  0  0  0
    3.4360    1.0930   -0.4410 H   0  0  0  0  0  0  0  0  0  0  0  0
    2.5030   -0.1690   -1.2410 H   0  0  0  0  0  0  0  0  0  0  0  0
    0.4400    1.5350   -0.6270 H   0  0  0  0  0  0  0  0  0  0  0  0
    2.5270    2.6380    1.2910 H   0  0  0  0  0  0  0  0  0  0  0  0
    0.9270    3.3660    0.6680 H   0  0  0  0  0  0  0  0  0  0  0  0
    2.3810    3.2060   -0.3670 H   0  0  0  0  0  0  0  0  0  0  0  0
    2.2130    0.2240    1.4890 H   0  0  0  0  0  0  0  0  0  0  0  0
    0.6170   -1.5390    1.7000 H   0  0  0  0  0  0  0  0  0  0  0  0
   -3.4100    0.0110    3.2860 O   0  0  0  0  0  0  0  0  0  0  0  0
   -2.8530    1.2440    3.5810 C   0  0  0  0  0  0  0  0  0  0  0  0
   -1.3800    1.0730    3.9680 C   0  0  2  0  0  0  0  0  0  0  0  0
   -0.6500    0.4790    2.8800 N   0  0  0  0  0  0  0  0  0  0  0  0
   -1.3580    0.1900    5.1500 C   0  0  0  0  0  0  0  0  0  0  0  0
   -0.7490   -0.9070    5.0840 O   0  0  0  0  0  0  0  0  0  0  0  0
   -1.9800    0.5020    6.3500 O   0  0  0  0  0  0  0  0  0  0  0  0
   -3.6120   -0.1290    2.3390 H   0  0  0  0  0  0  0  0  0  0  0  0
   -2.8940    1.8650    2.6780 H   0  0  0  0  0  0  0  0  0  0  0  0
   -3.3700    1.7110    4.4260 H   0  0  0  0  0  0  0  0  0  0  0  0
   -0.9650    2.0790    4.1970 H   0  0  0  0  0  0  0  0  0  0  0  0
   -0.9110   -0.4690    2.5350 H   0  0  0  0  0  0  0  0  0  0  0  0
  1  2  1  0  0  0  0
  1  5  1  0  0  0  0
  2  3  1  0  0  0  0
  2  9  1  0  0  0  0
  3 12  1  0  0  0  0
  3  4  1  0  0  0  0
  4 14  1  0  0  0  0
  5  6  1  0  0  0  0
  5  4  1  0  0  0  0
  5 15  1  1  0  0  0
  6 21  1  0  0  0  0
  7  6  2  0  0  0  0
  8  1  1  0  0  0  0
 10  2  1  0  0  0  0
 11  3  1  0  0  0  0
 13  4  1  0  0  0  0
 16 25  1  0  0  0  0
 16 17  1  0  0  0  0
 17 27  1  0  0  0  0
 17 18  1  0  0  0  0
 18 29  1  6  0  0  0
 18 19  1  0  0  0  0
 18 20  1  0  0  0  0
 19 31  1  0  0  0  0
 19 30  1  0  0  0  0
 20 33  1  1  0  0  0
 20 22  1  0  0  0  0
 21 20  1  0  0  0  0
 21 34  1  0  0  0  0
 22 23  2  0  0  0  0
 22 38  1  0  0  0  0
 24 16  1  0  0  0  0
 26 16  1  0  0  0  0
 28 17  1  0  0  0  0
 32 19  1  0  0  0  0
 35 36  1  0  0  0  0
 36 37  1  0  0  0  0
 36 44  1  0  0  0  0
 37 45  1  1  0  0  0
 37 39  1  0  0  0  0
 38 37  1  0  0  0  0
 39 41  1  0  0  0  0
 40 39  2  0  0  0  0
 42 35  1  0  0  0  0
 43 36  1  0  0  0  0
 46 38  1  0  0  0  0
M  END
$$$$
