PIV.pdb
 OpenBabel07022419043D

 51 51  0  0  1  0  0  0  0  0999 V2000
    0.6680   -3.8120    0.5410 N   0  0  0  0  0  0  0  0  0  0  0  0
    0.9340   -4.5820   -0.6360 C   0  0  0  0  0  0  0  0  0  0  0  0
    2.2420   -5.2850   -0.3390 C   0  0  0  0  0  0  0  0  0  0  0  0
    2.9790   -4.3400    0.5580 C   0  0  0  0  0  0  0  0  0  0  0  0
    1.8900   -3.5500    1.2210 C   0  0  1  0  0  0  0  0  0  0  0  0
    2.1510   -2.0990    1.2530 C   0  0  0  0  0  0  0  0  0  0  0  0
    3.1930   -1.6070    1.8100 O   0  0  0  0  0  0  0  0  0  0  0  0
   -0.0290   -4.3320    1.1530 H   0  0  0  0  0  0  0  0  0  0  0  0
    0.1200   -5.2680   -0.8980 H   0  0  0  0  0  0  0  0  0  0  0  0
    1.0620   -3.8590   -1.4800 H   0  0  0  0  0  0  0  0  0  0  0  0
    1.9750   -6.2430    0.1770 H   0  0  0  0  0  0  0  0  0  0  0  0
    2.8430   -5.4490   -1.2410 H   0  0  0  0  0  0  0  0  0  0  0  0
    3.6950   -3.7000    0.0110 H   0  0  0  0  0  0  0  0  0  0  0  0
    3.5700   -4.9210    1.2940 H   0  0  0  0  0  0  0  0  0  0  0  0
    1.8010   -3.9330    2.2700 H   0  0  0  0  0  0  0  0  0  0  0  0
    0.1250    0.9620   -2.8110 C   0  0  0  0  0  0  0  0  0  0  0  0
    0.2020    0.3900   -1.4110 C   0  0  0  0  0  0  0  0  0  0  0  0
    1.5260    0.6730   -0.7540 C   0  0  2  0  0  0  0  0  0  0  0  0
    2.6850    0.0810   -1.5240 C   0  0  0  0  0  0  0  0  0  0  0  0
    1.4620    0.1750    0.6720 C   0  0  2  0  0  0  0  0  0  0  0  0
    1.2010   -1.2420    0.6380 N   0  0  0  0  0  0  0  0  0  0  0  0
    0.3790    0.9390    1.3400 C   0  0  0  0  0  0  0  0  0  0  0  0
    0.5160    2.1990    1.4040 O   0  0  0  0  0  0  0  0  0  0  0  0
    0.3060    0.1860   -3.5830 H   0  0  0  0  0  0  0  0  0  0  0  0
   -0.9120    1.3280   -2.9590 H   0  0  0  0  0  0  0  0  0  0  0  0
    0.8670    1.7620   -2.9870 H   0  0  0  0  0  0  0  0  0  0  0  0
   -0.0400   -0.6790   -1.5200 H   0  0  0  0  0  0  0  0  0  0  0  0
   -0.5730    0.8430   -0.7620 H   0  0  0  0  0  0  0  0  0  0  0  0
    1.6170    1.8020   -0.7670 H   0  0  0  0  0  0  0  0  0  0  0  0
    3.2810   -0.5130   -0.7930 H   0  0  0  0  0  0  0  0  0  0  0  0
    2.2480   -0.6220   -2.2690 H   0  0  0  0  0  0  0  0  0  0  0  0
    3.3010    0.8600   -2.0100 H   0  0  0  0  0  0  0  0  0  0  0  0
    2.3990    0.4100    1.2270 H   0  0  0  0  0  0  0  0  0  0  0  0
    0.3570   -1.6610    0.1910 H   0  0  0  0  0  0  0  0  0  0  0  0
   -4.1940    1.8300    2.5880 C   0  0  0  0  0  0  0  0  0  0  0  0
   -3.1560    0.9920    1.9080 C   0  0  0  0  0  0  0  0  0  0  0  0
   -3.1380    1.3670    0.4410 C   0  0  0  0  0  0  0  0  0  0  0  0
   -1.8020    1.1610    2.5470 C   0  0  2  0  0  0  0  0  0  0  0  0
   -0.7790    0.3550    1.9020 N   0  0  0  0  0  0  0  0  0  0  0  0
   -1.9300    0.8150    3.9850 C   0  0  0  0  0  0  0  0  0  0  0  0
   -1.1980   -0.0780    4.4510 O   0  0  0  0  0  0  0  0  0  0  0  0
   -2.8440    1.4820    4.7570 O   0  0  0  0  0  0  0  0  0  0  0  0
   -3.7530    2.7390    3.0150 H   0  0  0  0  0  0  0  0  0  0  0  0
   -4.9400    2.1470    1.8280 H   0  0  0  0  0  0  0  0  0  0  0  0
   -4.6910    1.1910    3.3690 H   0  0  0  0  0  0  0  0  0  0  0  0
   -3.4770   -0.0720    1.9500 H   0  0  0  0  0  0  0  0  0  0  0  0
   -4.1280    1.7390    0.1490 H   0  0  0  0  0  0  0  0  0  0  0  0
   -2.3960    2.1680    0.2370 H   0  0  0  0  0  0  0  0  0  0  0  0
   -2.8880    0.4920   -0.2050 H   0  0  0  0  0  0  0  0  0  0  0  0
   -1.4930    2.2400    2.4530 H   0  0  0  0  0  0  0  0  0  0  0  0
   -0.8830   -0.6730    1.8430 H   0  0  0  0  0  0  0  0  0  0  0  0
  1  8  1  0  0  0  0
  1  5  1  0  0  0  0
  2  3  1  0  0  0  0
  2  1  1  0  0  0  0
  3 11  1  0  0  0  0
  3  4  1  0  0  0  0
  4  5  1  0  0  0  0
  4 14  1  0  0  0  0
  5  6  1  0  0  0  0
  5 15  1  1  0  0  0
  6  7  2  0  0  0  0
  9  2  1  0  0  0  0
 10  2  1  0  0  0  0
 12  3  1  0  0  0  0
 13  4  1  0  0  0  0
 16 17  1  0  0  0  0
 17 28  1  0  0  0  0
 17 18  1  0  0  0  0
 18 29  1  1  0  0  0
 18 20  1  0  0  0  0
 19 30  1  0  0  0  0
 19 18  1  0  0  0  0
 20 33  1  1  0  0  0
 20 22  1  0  0  0  0
 21 20  1  0  0  0  0
 21  6  1  0  0  0  0
 22 23  2  0  0  0  0
 22 39  1  0  0  0  0
 24 16  1  0  0  0  0
 25 16  1  0  0  0  0
 26 16  1  0  0  0  0
 27 17  1  0  0  0  0
 31 19  1  0  0  0  0
 32 19  1  0  0  0  0
 34 21  1  0  0  0  0
 35 43  1  0  0  0  0
 35 45  1  0  0  0  0
 36 46  1  0  0  0  0
 36 38  1  0  0  0  0
 36 35  1  0  0  0  0
 37 36  1  0  0  0  0
 38 50  1  6  0  0  0
 38 40  1  0  0  0  0
 39 38  1  0  0  0  0
 40 41  2  0  0  0  0
 40 42  1  0  0  0  0
 44 35  1  0  0  0  0
 47 37  1  0  0  0  0
 48 37  1  0  0  0  0
 49 37  1  0  0  0  0
 51 39  1  0  0  0  0
M  END
$$$$
