PKA.pdb
 OpenBabel07022419043D

 47 47  0  0  1  0  0  0  0  0999 V2000
   -0.6190   -3.0320   -0.2680 N   0  0  0  0  0  0  0  0  0  0  0  0
   -0.5000   -4.4640   -0.4860 C   0  0  0  0  0  0  0  0  0  0  0  0
    0.9220   -4.7860   -0.1050 C   0  0  0  0  0  0  0  0  0  0  0  0
    1.4160   -3.6200    0.7550 C   0  0  0  0  0  0  0  0  0  0  0  0
    0.1370   -2.8360    0.9210 C   0  0  1  0  0  0  0  0  0  0  0  0
    0.3440   -1.4420    1.3170 C   0  0  0  0  0  0  0  0  0  0  0  0
    1.0080   -1.2300    2.3650 O   0  0  0  0  0  0  0  0  0  0  0  0
   -0.2310   -2.5710   -1.1080 H   0  0  0  0  0  0  0  0  0  0  0  0
   -1.1650   -5.0400    0.2000 H   0  0  0  0  0  0  0  0  0  0  0  0
   -0.7080   -4.7380   -1.5570 H   0  0  0  0  0  0  0  0  0  0  0  0
    0.9640   -5.7080    0.5140 H   0  0  0  0  0  0  0  0  0  0  0  0
    1.5650   -4.8820   -0.9860 H   0  0  0  0  0  0  0  0  0  0  0  0
    2.1910   -3.0220    0.2100 H   0  0  0  0  0  0  0  0  0  0  0  0
    1.8020   -3.9930    1.7210 H   0  0  0  0  0  0  0  0  0  0  0  0
   -0.4310   -3.3340    1.7590 H   0  0  0  0  0  0  0  0  0  0  0  0
   -0.1410   -0.3150    0.6180 N   0  0  0  0  0  0  0  0  0  0  0  0
    0.0420    1.0600    0.9720 C   0  0  1  0  0  0  0  0  0  0  0  0
    0.7040    1.8730   -0.1110 C   0  0  0  0  0  0  0  0  0  0  0  0
    2.0730    1.3620   -0.4650 C   0  0  0  0  0  0  0  0  0  0  0  0
    3.0300    1.3850    0.7030 C   0  0  0  0  0  0  0  0  0  0  0  0
    4.3810    0.8570    0.2660 C   0  0  0  0  0  0  0  0  0  0  0  0
    4.1790   -0.5130   -0.2040 N   0  0  0  0  0  0  0  0  0  0  0  0
   -1.2560    1.6230    1.3860 C   0  0  0  0  0  0  0  0  0  0  0  0
   -1.3520    2.8130    1.7440 O   0  0  0  0  0  0  0  0  0  0  0  0
   -0.6960   -0.5260   -0.2580 H   0  0  0  0  0  0  0  0  0  0  0  0
    0.6930    1.1780    1.8900 H   0  0  0  0  0  0  0  0  0  0  0  0
    0.1160    1.9260   -1.0340 H   0  0  0  0  0  0  0  0  0  0  0  0
    0.8330    2.9040    0.2810 H   0  0  0  0  0  0  0  0  0  0  0  0
    2.5290    1.9900   -1.2560 H   0  0  0  0  0  0  0  0  0  0  0  0
    1.9630    0.3100   -0.7940 H   0  0  0  0  0  0  0  0  0  0  0  0
    2.7110    0.7500    1.5540 H   0  0  0  0  0  0  0  0  0  0  0  0
    3.2190    2.4370    1.0460 H   0  0  0  0  0  0  0  0  0  0  0  0
    4.8570    1.4850   -0.5050 H   0  0  0  0  0  0  0  0  0  0  0  0
    4.9930    0.7750    1.2000 H   0  0  0  0  0  0  0  0  0  0  0  0
    5.0720   -0.8700   -0.6530 H   0  0  0  0  0  0  0  0  0  0  0  0
    4.0260   -1.1340    0.6240 H   0  0  0  0  0  0  0  0  0  0  0  0
   -4.6060    1.1510    0.5540 C   0  0  0  0  0  0  0  0  0  0  0  0
   -3.7150    1.2360    1.7540 C   0  0  2  0  0  0  0  0  0  0  0  0
   -2.3940    0.7980    1.3720 N   0  0  0  0  0  0  0  0  0  0  0  0
   -4.2340    0.4920    2.9230 C   0  0  0  0  0  0  0  0  0  0  0  0
   -5.3490    0.7080    3.4170 O   0  0  0  0  0  0  0  0  0  0  0  0
   -3.4230   -0.4850    3.4760 O   0  0  0  0  0  0  0  0  0  0  0  0
   -4.5370    2.1050   -0.0080 H   0  0  0  0  0  0  0  0  0  0  0  0
   -5.6630    0.9860    0.8420 H   0  0  0  0  0  0  0  0  0  0  0  0
   -4.2370    0.3650   -0.1500 H   0  0  0  0  0  0  0  0  0  0  0  0
   -3.6300    2.3120    2.0420 H   0  0  0  0  0  0  0  0  0  0  0  0
   -2.3260   -0.2200    1.0680 H   0  0  0  0  0  0  0  0  0  0  0  0
  1  5  1  0  0  0  0
  2  1  1  0  0  0  0
  2  3  1  0  0  0  0
  2  9  1  0  0  0  0
  3 11  1  0  0  0  0
  3  4  1  0  0  0  0
  4  5  1  0  0  0  0
  4 14  1  0  0  0  0
  5  6  1  0  0  0  0
  5 15  1  1  0  0  0
  6  7  2  0  0  0  0
  8  1  1  0  0  0  0
 10  2  1  0  0  0  0
 12  3  1  0  0  0  0
 13  4  1  0  0  0  0
 16 17  1  0  0  0  0
 16  6  1  0  0  0  0
 17 23  1  0  0  0  0
 17 26  1  1  0  0  0
 18 28  1  0  0  0  0
 18 17  1  0  0  0  0
 19 18  1  0  0  0  0
 19 20  1  0  0  0  0
 20 32  1  0  0  0  0
 20 31  1  0  0  0  0
 21 20  1  0  0  0  0
 21 34  1  0  0  0  0
 22 21  1  0  0  0  0
 22 36  1  0  0  0  0
 23 24  2  0  0  0  0
 25 16  1  0  0  0  0
 27 18  1  0  0  0  0
 29 19  1  0  0  0  0
 30 19  1  0  0  0  0
 33 21  1  0  0  0  0
 35 22  1  0  0  0  0
 37 44  1  0  0  0  0
 37 38  1  0  0  0  0
 38 46  1  1  0  0  0
 38 40  1  0  0  0  0
 39 23  1  0  0  0  0
 39 38  1  0  0  0  0
 40 41  2  0  0  0  0
 40 42  1  0  0  0  0
 43 37  1  0  0  0  0
 45 37  1  0  0  0  0
 47 39  1  0  0  0  0
M  END
$$$$
