PKM.pdb
 OpenBabel07022419043D

 54 54  0  0  1  0  0  0  0  0999 V2000
    2.3310   -2.2510    1.8540 N   0  0  0  0  0  0  0  0  0  0  0  0
    2.4970   -2.7330    3.2140 C   0  0  0  0  0  0  0  0  0  0  0  0
    2.1870   -1.5770    4.1340 C   0  0  0  0  0  0  0  0  0  0  0  0
    1.6950   -0.4890    3.1690 C   0  0  0  0  0  0  0  0  0  0  0  0
    1.2020   -1.3360    2.0310 C   0  0  1  0  0  0  0  0  0  0  0  0
    0.8580   -0.6260    0.8090 C   0  0  0  0  0  0  0  0  0  0  0  0
    1.5240   -0.8540   -0.2310 O   0  0  0  0  0  0  0  0  0  0  0  0
    1.9730   -3.0590    1.2920 H   0  0  0  0  0  0  0  0  0  0  0  0
    1.8430   -3.6160    3.4110 H   0  0  0  0  0  0  0  0  0  0  0  0
    3.5580   -3.0660    3.3370 H   0  0  0  0  0  0  0  0  0  0  0  0
    3.0710   -1.2480    4.6940 H   0  0  0  0  0  0  0  0  0  0  0  0
    1.3390   -1.8740    4.7650 H   0  0  0  0  0  0  0  0  0  0  0  0
    0.8580    0.0330    3.6300 H   0  0  0  0  0  0  0  0  0  0  0  0
    2.5240    0.1860    2.9060 H   0  0  0  0  0  0  0  0  0  0  0  0
    0.3800   -1.9660    2.4350 H   0  0  0  0  0  0  0  0  0  0  0  0
   -0.2030    0.3140    0.7450 N   0  0  0  0  0  0  0  0  0  0  0  0
   -0.6170    1.0530   -0.3950 C   0  0  1  0  0  0  0  0  0  0  0  0
    0.5050    1.7610   -1.0710 C   0  0  0  0  0  0  0  0  0  0  0  0
    1.1430    2.7830   -0.2060 C   0  0  0  0  0  0  0  0  0  0  0  0
    1.7590    2.3600    1.0690 C   0  0  0  0  0  0  0  0  0  0  0  0
    2.3590    3.6290    1.7140 C   0  0  0  0  0  0  0  0  0  0  0  0
    2.9770    3.2640    2.9680 N   0  0  0  0  0  0  0  0  0  0  0  0
   -1.4740    0.2890   -1.3330 C   0  0  0  0  0  0  0  0  0  0  0  0
   -1.8780    0.8710   -2.3710 O   0  0  0  0  0  0  0  0  0  0  0  0
   -0.7170    0.4330    1.6750 H   0  0  0  0  0  0  0  0  0  0  0  0
   -1.2920    1.8920   -0.0220 H   0  0  0  0  0  0  0  0  0  0  0  0
    1.2790    1.0510   -1.4830 H   0  0  0  0  0  0  0  0  0  0  0  0
    0.0590    2.3040   -1.9760 H   0  0  0  0  0  0  0  0  0  0  0  0
    1.9520    3.3050   -0.7940 H   0  0  0  0  0  0  0  0  0  0  0  0
    0.4370    3.6390    0.0230 H   0  0  0  0  0  0  0  0  0  0  0  0
    2.5860    1.6350    1.0010 H   0  0  0  0  0  0  0  0  0  0  0  0
    1.0460    1.9880    1.8440 H   0  0  0  0  0  0  0  0  0  0  0  0
    1.5260    4.3340    1.9600 H   0  0  0  0  0  0  0  0  0  0  0  0
    3.0360    4.1440    1.0130 H   0  0  0  0  0  0  0  0  0  0  0  0
    3.5110    4.0880    3.2950 H   0  0  0  0  0  0  0  0  0  0  0  0
    3.6430    2.4620    2.8680 H   0  0  0  0  0  0  0  0  0  0  0  0
   -3.1760   -4.2590    0.5510 C   0  0  0  0  0  0  0  0  0  0  0  0
   -2.5620   -5.0330   -0.9220 S   0  0  0  0  0  0  0  0  0  0  0  0
   -1.5120   -4.0710   -1.9730 C   0  0  0  0  0  0  0  0  0  0  0  0
   -2.0870   -2.9490   -2.7330 C   0  0  0  0  0  0  0  0  0  0  0  0
   -2.7000   -1.8060   -2.0400 C   0  0  2  0  0  0  0  0  0  0  0  0
   -1.8720   -1.0610   -1.1380 N   0  0  0  0  0  0  0  0  0  0  0  0
   -4.0480   -2.0920   -1.5640 C   0  0  0  0  0  0  0  0  0  0  0  0
   -4.4590   -1.5900   -0.4840 O   0  0  0  0  0  0  0  0  0  0  0  0
   -4.9180   -2.9120   -2.2630 O   0  0  0  0  0  0  0  0  0  0  0  0
   -2.9890   -4.9280    1.4460 H   0  0  0  0  0  0  0  0  0  0  0  0
   -2.7400   -3.2920    0.8200 H   0  0  0  0  0  0  0  0  0  0  0  0
   -4.2810   -4.1200    0.5550 H   0  0  0  0  0  0  0  0  0  0  0  0
   -1.0170   -4.7530   -2.7470 H   0  0  0  0  0  0  0  0  0  0  0  0
   -0.6330   -3.6550   -1.4040 H   0  0  0  0  0  0  0  0  0  0  0  0
   -2.9290   -3.4060   -3.3660 H   0  0  0  0  0  0  0  0  0  0  0  0
   -1.2940   -2.6040   -3.4580 H   0  0  0  0  0  0  0  0  0  0  0  0
   -2.8900   -1.0380   -2.9140 H   0  0  0  0  0  0  0  0  0  0  0  0
   -1.5270   -1.5510   -0.2580 H   0  0  0  0  0  0  0  0  0  0  0  0
  1  5  1  0  0  0  0
  1  2  1  0  0  0  0
  2 10  1  0  0  0  0
  2  9  1  0  0  0  0
  2  3  1  0  0  0  0
  3 11  1  0  0  0  0
  3 12  1  0  0  0  0
  4 13  1  0  0  0  0
  4  3  1  0  0  0  0
  5 15  1  1  0  0  0
  5  4  1  0  0  0  0
  6  5  1  0  0  0  0
  7  6  2  0  0  0  0
  8  1  1  0  0  0  0
 14  4  1  0  0  0  0
 16  6  1  0  0  0  0
 16 25  1  0  0  0  0
 17 26  1  1  0  0  0
 17 16  1  0  0  0  0
 18 17  1  0  0  0  0
 18 19  1  0  0  0  0
 19 30  1  0  0  0  0
 19 20  1  0  0  0  0
 20 21  1  0  0  0  0
 20 32  1  0  0  0  0
 21 33  1  0  0  0  0
 21 22  1  0  0  0  0
 22 35  1  0  0  0  0
 23 42  1  0  0  0  0
 23 17  1  0  0  0  0
 24 23  2  0  0  0  0
 27 18  1  0  0  0  0
 28 18  1  0  0  0  0
 29 19  1  0  0  0  0
 31 20  1  0  0  0  0
 34 21  1  0  0  0  0
 36 22  1  0  0  0  0
 37 48  1  0  0  0  0
 37 47  1  0  0  0  0
 37 46  1  0  0  0  0
 38 37  1  0  0  0  0
 39 50  1  0  0  0  0
 39 38  1  0  0  0  0
 40 41  1  0  0  0  0
 40 39  1  0  0  0  0
 41 53  1  6  0  0  0
 41 43  1  0  0  0  0
 41 42  1  0  0  0  0
 42 54  1  0  0  0  0
 43 44  1  0  0  0  0
 45 43  2  0  0  0  0
 49 39  1  0  0  0  0
 51 40  1  0  0  0  0
 52 40  1  0  0  0  0
M  END
$$$$
