PKP.pdb
 OpenBabel07022419043D

 51 52  0  0  1  0  0  0  0  0999 V2000
    0.5720   -3.3060    0.6790 N   0  0  0  0  0  0  0  0  0  0  0  0
    1.5270   -4.3710    0.8240 C   0  0  0  0  0  0  0  0  0  0  0  0
    1.9970   -4.3540    2.2680 C   0  0  0  0  0  0  0  0  0  0  0  0
    1.7010   -2.9090    2.6570 C   0  0  0  0  0  0  0  0  0  0  0  0
    0.4080   -2.6670    1.9460 C   0  0  1  0  0  0  0  0  0  0  0  0
    0.1480   -1.2040    1.8180 C   0  0  0  0  0  0  0  0  0  0  0  0
   -0.0230   -0.4640    2.7980 O   0  0  0  0  0  0  0  0  0  0  0  0
   -0.3690   -3.6620    0.3420 H   0  0  0  0  0  0  0  0  0  0  0  0
    1.1000   -5.3610    0.5460 H   0  0  0  0  0  0  0  0  0  0  0  0
    2.4140   -4.1050    0.1980 H   0  0  0  0  0  0  0  0  0  0  0  0
    3.0730   -4.5850    2.3580 H   0  0  0  0  0  0  0  0  0  0  0  0
    1.3460   -5.0420    2.8320 H   0  0  0  0  0  0  0  0  0  0  0  0
    2.5410   -2.3060    2.2700 H   0  0  0  0  0  0  0  0  0  0  0  0
    1.6040   -2.8330    3.7740 H   0  0  0  0  0  0  0  0  0  0  0  0
   -0.4000   -3.1520    2.5240 H   0  0  0  0  0  0  0  0  0  0  0  0
    0.0850   -0.5910    0.5330 N   0  0  0  0  0  0  0  0  0  0  0  0
   -0.1480    0.7720    0.3130 C   0  0  1  0  0  0  0  0  0  0  0  0
    0.9430    1.5110   -0.4180 C   0  0  0  0  0  0  0  0  0  0  0  0
    2.2750    1.5090    0.2650 C   0  0  0  0  0  0  0  0  0  0  0  0
    2.3080    2.1450    1.6100 C   0  0  0  0  0  0  0  0  0  0  0  0
    3.7550    2.0300    2.1120 C   0  0  0  0  0  0  0  0  0  0  0  0
    3.8840    2.6270    3.4250 N   0  0  0  0  0  0  0  0  0  0  0  0
   -1.4360    1.0560   -0.3240 C   0  0  0  0  0  0  0  0  0  0  0  0
   -1.6930    2.3000   -0.5520 O   0  0  0  0  0  0  0  0  0  0  0  0
    0.2440   -1.2250   -0.2910 H   0  0  0  0  0  0  0  0  0  0  0  0
   -0.2210    1.2810    1.3310 H   0  0  0  0  0  0  0  0  0  0  0  0
    1.0590    1.2230   -1.4600 H   0  0  0  0  0  0  0  0  0  0  0  0
    0.6130    2.5930   -0.4360 H   0  0  0  0  0  0  0  0  0  0  0  0
    2.9730    2.0880   -0.3890 H   0  0  0  0  0  0  0  0  0  0  0  0
    2.7240    0.5030    0.3590 H   0  0  0  0  0  0  0  0  0  0  0  0
    1.7100    1.5630    2.3330 H   0  0  0  0  0  0  0  0  0  0  0  0
    2.0080    3.2170    1.6000 H   0  0  0  0  0  0  0  0  0  0  0  0
    4.4560    2.5420    1.4300 H   0  0  0  0  0  0  0  0  0  0  0  0
    4.0320    0.9690    2.1720 H   0  0  0  0  0  0  0  0  0  0  0  0
    3.1610    3.3760    3.5190 H   0  0  0  0  0  0  0  0  0  0  0  0
    3.7710    1.9380    4.2010 H   0  0  0  0  0  0  0  0  0  0  0  0
   -2.4000    0.1250   -0.7070 N   0  0  0  0  0  0  0  0  0  0  0  0
   -3.6640    0.5760   -1.3780 C   0  0  0  0  0  0  0  0  0  0  0  0
   -4.6970   -0.4610   -1.0410 C   0  0  0  0  0  0  0  0  0  0  0  0
   -3.9980   -1.4590   -0.1760 C   0  0  0  0  0  0  0  0  0  0  0  0
   -2.5390   -1.2960   -0.6350 C   0  0  1  0  0  0  0  0  0  0  0  0
   -2.3760   -1.9230   -1.9870 C   0  0  0  0  0  0  0  0  0  0  0  0
   -2.1510   -1.1850   -2.9700 O   0  0  0  0  0  0  0  0  0  0  0  0
   -2.4730   -3.2890   -2.1490 O   0  0  0  0  0  0  0  0  0  0  0  0
   -3.4750    0.6940   -2.4530 H   0  0  0  0  0  0  0  0  0  0  0  0
   -3.9700    1.5380   -0.9180 H   0  0  0  0  0  0  0  0  0  0  0  0
   -5.1530   -0.9240   -1.9590 H   0  0  0  0  0  0  0  0  0  0  0  0
   -5.5310   -0.0260   -0.4160 H   0  0  0  0  0  0  0  0  0  0  0  0
   -4.2630   -2.5190   -0.4600 H   0  0  0  0  0  0  0  0  0  0  0  0
   -4.0840   -1.2790    0.9020 H   0  0  0  0  0  0  0  0  0  0  0  0
   -1.9590   -1.8190    0.1250 H   0  0  0  0  0  0  0  0  0  0  0  0
  1  2  1  0  0  0  0
  1  5  1  0  0  0  0
  2  3  1  0  0  0  0
  3 11  1  0  0  0  0
  3  4  1  0  0  0  0
  3 12  1  0  0  0  0
  4 14  1  0  0  0  0
  5 15  1  1  0  0  0
  5  4  1  0  0  0  0
  6  5  1  0  0  0  0
  6  7  2  0  0  0  0
  8  1  1  0  0  0  0
  9  2  1  0  0  0  0
 10  2  1  0  0  0  0
 13  4  1  0  0  0  0
 16  6  1  0  0  0  0
 17 16  1  0  0  0  0
 17 26  1  1  0  0  0
 18 19  1  0  0  0  0
 18 17  1  0  0  0  0
 19 30  1  0  0  0  0
 19 20  1  0  0  0  0
 20 21  1  0  0  0  0
 20 31  1  0  0  0  0
 21 34  1  0  0  0  0
 21 22  1  0  0  0  0
 22 35  1  0  0  0  0
 22 36  1  0  0  0  0
 23 17  1  0  0  0  0
 24 23  2  0  0  0  0
 25 16  1  0  0  0  0
 27 18  1  0  0  0  0
 28 18  1  0  0  0  0
 29 19  1  0  0  0  0
 32 20  1  0  0  0  0
 33 21  1  0  0  0  0
 37 41  1  0  0  0  0
 37 23  1  0  0  0  0
 38 39  1  0  0  0  0
 38 46  1  0  0  0  0
 38 37  1  0  0  0  0
 39 48  1  0  0  0  0
 39 40  1  0  0  0  0
 40 50  1  0  0  0  0
 41 40  1  0  0  0  0
 41 51  1  1  0  0  0
 42 41  1  0  0  0  0
 43 42  2  0  0  0  0
 44 42  1  0  0  0  0
 45 38  1  0  0  0  0
 47 39  1  0  0  0  0
 49 40  1  0  0  0  0
M  END
$$$$
