PLC.pdb
 OpenBabel07022419043D

 46 46  0  0  1  0  0  0  0  0999 V2000
   -0.7950   -3.1650    1.1960 N   0  0  0  0  0  0  0  0  0  0  0  0
   -0.8650   -4.6220    1.0170 C   0  0  0  0  0  0  0  0  0  0  0  0
    0.3890   -4.9350    0.2410 C   0  0  0  0  0  0  0  0  0  0  0  0
    1.3990   -4.0000    0.8910 C   0  0  0  0  0  0  0  0  0  0  0  0
    0.5570   -2.9380    1.5660 C   0  0  1  0  0  0  0  0  0  0  0  0
    1.0490   -1.5750    1.2980 C   0  0  0  0  0  0  0  0  0  0  0  0
    2.2410   -1.3160    1.6060 O   0  0  0  0  0  0  0  0  0  0  0  0
   -1.0890   -2.7530    0.2940 H   0  0  0  0  0  0  0  0  0  0  0  0
   -0.8100   -5.1510    1.9740 H   0  0  0  0  0  0  0  0  0  0  0  0
   -1.7400   -4.9060    0.4050 H   0  0  0  0  0  0  0  0  0  0  0  0
    0.2970   -4.6750   -0.8330 H   0  0  0  0  0  0  0  0  0  0  0  0
    0.6830   -5.9910    0.3130 H   0  0  0  0  0  0  0  0  0  0  0  0
    1.9750   -4.6140    1.6120 H   0  0  0  0  0  0  0  0  0  0  0  0
    2.1120   -3.5870    0.1610 H   0  0  0  0  0  0  0  0  0  0  0  0
    0.6500   -3.1080    2.6630 H   0  0  0  0  0  0  0  0  0  0  0  0
    0.9130   -0.9290   -2.0910 C   0  0  0  0  0  0  0  0  0  0  0  0
    1.4340    0.4680   -1.9440 C   0  0  0  0  0  0  0  0  0  0  0  0
    2.9430    0.5030   -1.8010 C   0  0  0  0  0  0  0  0  0  0  0  0
    0.7620    1.2720   -0.8920 C   0  0  0  0  0  0  0  0  0  0  0  0
    0.8380    0.7570    0.4970 C   0  0  2  0  0  0  0  0  0  0  0  0
    0.2680   -0.5410    0.7190 N   0  0  0  0  0  0  0  0  0  0  0  0
    0.1540    1.7680    1.3850 C   0  0  0  0  0  0  0  0  0  0  0  0
    0.4920    2.9760    1.3600 O   0  0  0  0  0  0  0  0  0  0  0  0
    1.5270   -1.6890   -1.5450 H   0  0  0  0  0  0  0  0  0  0  0  0
   -0.1500   -0.9530   -1.8440 H   0  0  0  0  0  0  0  0  0  0  0  0
    1.0300   -1.2220   -3.1790 H   0  0  0  0  0  0  0  0  0  0  0  0
    1.2280    0.9990   -2.9210 H   0  0  0  0  0  0  0  0  0  0  0  0
    3.3770    1.3900   -2.3470 H   0  0  0  0  0  0  0  0  0  0  0  0
    3.3480   -0.3920   -2.3120 H   0  0  0  0  0  0  0  0  0  0  0  0
    3.2590    0.5970   -0.7540 H   0  0  0  0  0  0  0  0  0  0  0  0
    1.1440    2.3070   -0.9070 H   0  0  0  0  0  0  0  0  0  0  0  0
   -0.3230    1.3390   -1.1650 H   0  0  0  0  0  0  0  0  0  0  0  0
    1.9140    0.7740    0.8270 H   0  0  0  0  0  0  0  0  0  0  0  0
   -0.7010   -0.7530    0.4720 H   0  0  0  0  0  0  0  0  0  0  0  0
   -0.8860    1.3950    2.2720 N   0  0  0  0  0  0  0  0  0  0  0  0
   -1.5810    2.3000    3.1440 C   0  0  1  0  0  0  0  0  0  0  0  0
   -3.0350    2.3410    2.7270 C   0  0  0  0  0  0  0  0  0  0  0  0
   -3.2160    2.9050    1.0300 S   0  0  0  0  0  0  0  0  0  0  0  0
   -1.4520    1.9300    4.5730 C   0  0  0  0  0  0  0  0  0  0  0  0
   -2.0090    2.6340    5.4520 O   0  0  0  0  0  0  0  0  0  0  0  0
   -0.7260    0.8220    4.9390 O   0  0  0  0  0  0  0  0  0  0  0  0
   -1.1440    0.3650    2.2650 H   0  0  0  0  0  0  0  0  0  0  0  0
   -1.1650    3.3180    3.0000 H   0  0  0  0  0  0  0  0  0  0  0  0
   -3.5930    2.9960    3.4300 H   0  0  0  0  0  0  0  0  0  0  0  0
   -3.4530    1.3180    2.7890 H   0  0  0  0  0  0  0  0  0  0  0  0
   -2.1590    3.7360    0.6230 H   0  0  0  0  0  0  0  0  0  0  0  0
  1  5  1  0  0  0  0
  2  1  1  0  0  0  0
  2  9  1  0  0  0  0
  3 12  1  0  0  0  0
  3  4  1  0  0  0  0
  3  2  1  0  0  0  0
  4  5  1  0  0  0  0
  4 13  1  0  0  0  0
  5 15  1  1  0  0  0
  6  5  1  0  0  0  0
  6  7  2  0  0  0  0
  8  1  1  0  0  0  0
 10  2  1  0  0  0  0
 11  3  1  0  0  0  0
 14  4  1  0  0  0  0
 16 17  1  0  0  0  0
 16 25  1  0  0  0  0
 16 24  1  0  0  0  0
 17 18  1  0  0  0  0
 17 19  1  0  0  0  0
 18 30  1  0  0  0  0
 19 20  1  0  0  0  0
 20 21  1  0  0  0  0
 20 33  1  1  0  0  0
 20 22  1  0  0  0  0
 21  6  1  0  0  0  0
 22 35  1  0  0  0  0
 23 22  2  0  0  0  0
 26 16  1  0  0  0  0
 27 17  1  0  0  0  0
 28 18  1  0  0  0  0
 29 18  1  0  0  0  0
 31 19  1  0  0  0  0
 32 19  1  0  0  0  0
 34 21  1  0  0  0  0
 35 36  1  0  0  0  0
 36 43  1  6  0  0  0
 36 39  1  0  0  0  0
 37 45  1  0  0  0  0
 37 36  1  0  0  0  0
 37 44  1  0  0  0  0
 38 37  1  0  0  0  0
 39 41  2  0  0  0  0
 39 40  1  0  0  0  0
 42 35  1  0  0  0  0
 46 38  1  0  0  0  0
M  END
$$$$
