PLD.pdb
 OpenBabel07022419043D

 48 48  0  0  1  0  0  0  0  0999 V2000
    2.5400   -4.1030   -0.6090 N   0  0  0  0  0  0  0  0  0  0  0  0
    2.1920   -5.4720   -0.2110 C   0  0  0  0  0  0  0  0  0  0  0  0
    1.2970   -5.3530    1.0060 C   0  0  0  0  0  0  0  0  0  0  0  0
    1.1120   -3.8590    1.1660 C   0  0  0  0  0  0  0  0  0  0  0  0
    1.3240   -3.4060   -0.2800 C   0  0  1  0  0  0  0  0  0  0  0  0
    1.4220   -1.9510   -0.3980 C   0  0  0  0  0  0  0  0  0  0  0  0
    2.5120   -1.4310   -0.7700 O   0  0  0  0  0  0  0  0  0  0  0  0
    2.7350   -4.0590   -1.6360 H   0  0  0  0  0  0  0  0  0  0  0  0
    3.1170   -6.0520    0.0060 H   0  0  0  0  0  0  0  0  0  0  0  0
    1.6540   -5.9090   -1.0790 H   0  0  0  0  0  0  0  0  0  0  0  0
    1.7430   -5.8280    1.9020 H   0  0  0  0  0  0  0  0  0  0  0  0
    0.3020   -5.7900    0.7630 H   0  0  0  0  0  0  0  0  0  0  0  0
    0.0940   -3.6000    1.5190 H   0  0  0  0  0  0  0  0  0  0  0  0
    1.9080   -3.4820    1.8090 H   0  0  0  0  0  0  0  0  0  0  0  0
    0.5230   -3.8470   -0.9110 H   0  0  0  0  0  0  0  0  0  0  0  0
   -1.5410    2.6920   -2.5890 C   0  0  0  0  0  0  0  0  0  0  0  0
   -0.5820    2.2770   -1.4480 C   0  0  0  0  0  0  0  0  0  0  0  0
    0.7710    2.8160   -1.8540 C   0  0  0  0  0  0  0  0  0  0  0  0
   -0.5840    0.7860   -1.2980 C   0  0  0  0  0  0  0  0  0  0  0  0
    0.3580    0.3460   -0.2040 C   0  0  2  0  0  0  0  0  0  0  0  0
    0.3320   -1.1230   -0.1080 N   0  0  0  0  0  0  0  0  0  0  0  0
    0.0610    0.9450    1.1100 C   0  0  0  0  0  0  0  0  0  0  0  0
    0.1000    2.1730    1.3410 O   0  0  0  0  0  0  0  0  0  0  0  0
   -1.5660    3.7940   -2.5600 H   0  0  0  0  0  0  0  0  0  0  0  0
   -0.9970    2.4140   -3.5350 H   0  0  0  0  0  0  0  0  0  0  0  0
   -2.5130    2.2070   -2.5070 H   0  0  0  0  0  0  0  0  0  0  0  0
   -0.9060    2.7700   -0.5330 H   0  0  0  0  0  0  0  0  0  0  0  0
    1.4920    2.7970   -1.0090 H   0  0  0  0  0  0  0  0  0  0  0  0
    0.6220    3.8600   -2.1930 H   0  0  0  0  0  0  0  0  0  0  0  0
    1.1740    2.2530   -2.7320 H   0  0  0  0  0  0  0  0  0  0  0  0
   -1.6170    0.4050   -1.1150 H   0  0  0  0  0  0  0  0  0  0  0  0
   -0.2460    0.3390   -2.2440 H   0  0  0  0  0  0  0  0  0  0  0  0
    1.3750    0.6400   -0.5020 H   0  0  0  0  0  0  0  0  0  0  0  0
   -0.5640   -1.5780    0.1990 H   0  0  0  0  0  0  0  0  0  0  0  0
   -0.3070    0.1230    2.2420 N   0  0  0  0  0  0  0  0  0  0  0  0
   -0.6100    0.7480    3.5300 C   0  0  1  0  0  0  0  0  0  0  0  0
   -1.9820    0.2740    4.0210 C   0  0  0  0  0  0  0  0  0  0  0  0
   -3.0470    0.6230    3.0720 C   0  0  0  0  0  0  0  0  0  0  0  0
   -2.7600    1.2500    2.0280 O   0  0  0  0  0  0  0  0  0  0  0  0
    0.3820    0.2630    4.5200 C   0  0  0  0  0  0  0  0  0  0  0  0
    0.3830    0.6260    5.7240 O   0  0  0  0  0  0  0  0  0  0  0  0
   -4.3690    0.2820    3.2850 O   0  0  0  0  0  0  0  0  0  0  0  0
    1.3730   -0.6320    4.1520 O   0  0  0  0  0  0  0  0  0  0  0  0
   -0.3460   -0.9070    2.1000 H   0  0  0  0  0  0  0  0  0  0  0  0
   -0.5660    1.8410    3.4710 H   0  0  0  0  0  0  0  0  0  0  0  0
   -2.1230    0.7840    5.0180 H   0  0  0  0  0  0  0  0  0  0  0  0
   -1.8750   -0.7920    4.2310 H   0  0  0  0  0  0  0  0  0  0  0  0
   -4.9890    0.0090    2.5170 H   0  0  0  0  0  0  0  0  0  0  0  0
  1  5  1  0  0  0  0
  1  2  1  0  0  0  0
  2  9  1  0  0  0  0
  2  3  1  0  0  0  0
  3  4  1  0  0  0  0
  3 11  1  0  0  0  0
  4 13  1  0  0  0  0
  4 14  1  0  0  0  0
  5 15  1  6  0  0  0
  5  4  1  0  0  0  0
  6  5  1  0  0  0  0
  6 21  1  0  0  0  0
  7  6  2  0  0  0  0
  8  1  1  0  0  0  0
 10  2  1  0  0  0  0
 12  3  1  0  0  0  0
 16 24  1  0  0  0  0
 16 26  1  0  0  0  0
 16 17  1  0  0  0  0
 17 19  1  0  0  0  0
 17 27  1  0  0  0  0
 18 17  1  0  0  0  0
 18 28  1  0  0  0  0
 19 31  1  0  0  0  0
 19 20  1  0  0  0  0
 20 33  1  6  0  0  0
 20 21  1  0  0  0  0
 20 22  1  0  0  0  0
 21 34  1  0  0  0  0
 22 23  2  0  0  0  0
 22 35  1  0  0  0  0
 25 16  1  0  0  0  0
 29 18  1  0  0  0  0
 30 18  1  0  0  0  0
 32 19  1  0  0  0  0
 35 36  1  0  0  0  0
 36 45  1  6  0  0  0
 36 37  1  0  0  0  0
 36 40  1  0  0  0  0
 37 47  1  0  0  0  0
 37 46  1  0  0  0  0
 38 42  1  0  0  0  0
 38 37  1  0  0  0  0
 39 38  2  0  0  0  0
 40 41  1  0  0  0  0
 43 40  2  0  0  0  0
 44 35  1  0  0  0  0
 48 42  1  0  0  0  0
M  END
$$$$
