PLE.pdb
 OpenBabel07022419043D

 51 51  0  0  1  0  0  0  0  0999 V2000
   -4.8680    1.4590   -2.2740 N   0  0  0  0  0  0  0  0  0  0  0  0
   -4.5520    2.7320   -2.8600 C   0  0  0  0  0  0  0  0  0  0  0  0
   -3.2710    2.5610   -3.6360 C   0  0  0  0  0  0  0  0  0  0  0  0
   -3.1320    1.0600   -3.7400 C   0  0  0  0  0  0  0  0  0  0  0  0
   -3.7560    0.5820   -2.4730 C   0  0  1  0  0  0  0  0  0  0  0  0
   -2.8390    0.5090   -1.3350 C   0  0  0  0  0  0  0  0  0  0  0  0
   -3.0870    1.1910   -0.3130 O   0  0  0  0  0  0  0  0  0  0  0  0
   -5.1730    1.5300   -1.2780 H   0  0  0  0  0  0  0  0  0  0  0  0
   -5.3530    3.0340   -3.5770 H   0  0  0  0  0  0  0  0  0  0  0  0
   -4.4350    3.5390   -2.0890 H   0  0  0  0  0  0  0  0  0  0  0  0
   -3.3640    2.9520   -4.6700 H   0  0  0  0  0  0  0  0  0  0  0  0
   -2.4320    3.0240   -3.0710 H   0  0  0  0  0  0  0  0  0  0  0  0
   -2.1160    0.7180   -3.9260 H   0  0  0  0  0  0  0  0  0  0  0  0
   -3.7730    0.7230   -4.5950 H   0  0  0  0  0  0  0  0  0  0  0  0
   -4.1630   -0.4570   -2.6320 H   0  0  0  0  0  0  0  0  0  0  0  0
   -1.5360   -3.8970    1.0840 C   0  0  0  0  0  0  0  0  0  0  0  0
   -1.8610   -2.4680    0.6500 C   0  0  0  0  0  0  0  0  0  0  0  0
   -2.4560   -1.7740    1.8380 C   0  0  0  0  0  0  0  0  0  0  0  0
   -0.5830   -1.8570    0.1700 C   0  0  0  0  0  0  0  0  0  0  0  0
   -0.7480   -0.4300   -0.2960 C   0  0  2  0  0  0  0  0  0  0  0  0
   -1.6870   -0.3230   -1.3950 N   0  0  0  0  0  0  0  0  0  0  0  0
    0.5900    0.0430   -0.7740 C   0  0  0  0  0  0  0  0  0  0  0  0
    0.6860    0.4260   -1.9620 O   0  0  0  0  0  0  0  0  0  0  0  0
   -1.9110   -4.6410    0.3580 H   0  0  0  0  0  0  0  0  0  0  0  0
   -0.4390   -4.0600    1.1600 H   0  0  0  0  0  0  0  0  0  0  0  0
   -1.9820   -4.1380    2.0700 H   0  0  0  0  0  0  0  0  0  0  0  0
   -2.6160   -2.5390   -0.1330 H   0  0  0  0  0  0  0  0  0  0  0  0
   -1.7150   -1.5370    2.6290 H   0  0  0  0  0  0  0  0  0  0  0  0
   -3.2430   -2.4600    2.2640 H   0  0  0  0  0  0  0  0  0  0  0  0
   -3.0010   -0.8630    1.5060 H   0  0  0  0  0  0  0  0  0  0  0  0
   -0.2540   -2.4420   -0.7220 H   0  0  0  0  0  0  0  0  0  0  0  0
    0.1550   -1.8710    0.9690 H   0  0  0  0  0  0  0  0  0  0  0  0
   -1.0340    0.1870    0.5600 H   0  0  0  0  0  0  0  0  0  0  0  0
   -1.5530   -0.8570   -2.2820 H   0  0  0  0  0  0  0  0  0  0  0  0
    1.6960    0.0470    0.1090 N   0  0  0  0  0  0  0  0  0  0  0  0
    3.0450    0.4490   -0.1920 C   0  0  1  0  0  0  0  0  0  0  0  0
    3.4110    0.2900   -1.6640 C   0  0  0  0  0  0  0  0  0  0  0  0
    3.3600   -1.1130   -2.1560 C   0  0  0  0  0  0  0  0  0  0  0  0
    4.3180   -1.9850   -1.4110 C   0  0  0  0  0  0  0  0  0  0  0  0
    5.5390   -1.9850   -1.6510 O   0  0  0  0  0  0  0  0  0  0  0  0
    3.3760    1.8040    0.2330 C   0  0  0  0  0  0  0  0  0  0  0  0
    2.4960    2.4970    0.8110 O   0  0  0  0  0  0  0  0  0  0  0  0
    3.8140   -2.8070   -0.4310 O   0  0  0  0  0  0  0  0  0  0  0  0
    4.6120    2.4010    0.0460 O   0  0  0  0  0  0  0  0  0  0  0  0
    1.4390   -0.2960    1.0850 H   0  0  0  0  0  0  0  0  0  0  0  0
    3.7000   -0.3560    0.3030 H   0  0  0  0  0  0  0  0  0  0  0  0
    4.5050    0.6020   -1.7090 H   0  0  0  0  0  0  0  0  0  0  0  0
    2.8540    0.9620   -2.3210 H   0  0  0  0  0  0  0  0  0  0  0  0
    2.3540   -1.5370   -2.1610 H   0  0  0  0  0  0  0  0  0  0  0  0
    3.7300   -1.0970   -3.2150 H   0  0  0  0  0  0  0  0  0  0  0  0
    4.3740   -3.0500    0.3830 H   0  0  0  0  0  0  0  0  0  0  0  0
  1  8  1  0  0  0  0
  2  1  1  0  0  0  0
  2 10  1  0  0  0  0
  3 12  1  0  0  0  0
  3  2  1  0  0  0  0
  4  3  1  0  0  0  0
  4  5  1  0  0  0  0
  5 15  1  6  0  0  0
  5  1  1  0  0  0  0
  5  6  1  0  0  0  0
  6  7  2  0  0  0  0
  9  2  1  0  0  0  0
 11  3  1  0  0  0  0
 13  4  1  0  0  0  0
 14  4  1  0  0  0  0
 16 25  1  0  0  0  0
 16 26  1  0  0  0  0
 17 16  1  0  0  0  0
 17 18  1  0  0  0  0
 18 29  1  0  0  0  0
 18 28  1  0  0  0  0
 19 17  1  0  0  0  0
 19 32  1  0  0  0  0
 20 19  1  0  0  0  0
 20 33  1  1  0  0  0
 21  6  1  0  0  0  0
 21 20  1  0  0  0  0
 22 20  1  0  0  0  0
 22 35  1  0  0  0  0
 23 22  2  0  0  0  0
 24 16  1  0  0  0  0
 27 17  1  0  0  0  0
 30 18  1  0  0  0  0
 31 19  1  0  0  0  0
 34 21  1  0  0  0  0
 35 45  1  0  0  0  0
 36 35  1  0  0  0  0
 36 41  1  0  0  0  0
 36 46  1  1  0  0  0
 37 36  1  0  0  0  0
 38 37  1  0  0  0  0
 38 39  1  0  0  0  0
 39 43  1  0  0  0  0
 40 39  2  0  0  0  0
 41 42  1  0  0  0  0
 43 51  1  0  0  0  0
 44 41  2  0  0  0  0
 47 37  1  0  0  0  0
 48 37  1  0  0  0  0
 49 38  1  0  0  0  0
 50 38  1  0  0  0  0
M  END
$$$$
