PLG.pdb
 OpenBabel07022419043D

 42 42  0  0  1  0  0  0  0  0999 V2000
    1.4490   -1.2380    4.5380 N   0  0  0  0  0  0  0  0  0  0  0  0
    0.3960   -2.0850    5.0140 C   0  0  0  0  0  0  0  0  0  0  0  0
    0.6430   -3.4580    4.4770 C   0  0  0  0  0  0  0  0  0  0  0  0
    1.4450   -3.2060    3.2290 C   0  0  0  0  0  0  0  0  0  0  0  0
    1.9790   -1.7750    3.3430 C   0  0  1  0  0  0  0  0  0  0  0  0
    1.5690   -1.0860    2.0950 C   0  0  0  0  0  0  0  0  0  0  0  0
    2.0540   -1.5790    1.0440 O   0  0  0  0  0  0  0  0  0  0  0  0
    1.2670   -0.2370    4.5800 H   0  0  0  0  0  0  0  0  0  0  0  0
    0.4480   -2.0920    6.1360 H   0  0  0  0  0  0  0  0  0  0  0  0
   -0.6220   -1.6980    4.7600 H   0  0  0  0  0  0  0  0  0  0  0  0
    1.2440   -4.0730    5.1880 H   0  0  0  0  0  0  0  0  0  0  0  0
   -0.3090   -3.9820    4.2980 H   0  0  0  0  0  0  0  0  0  0  0  0
    0.7880   -3.3440    2.3700 H   0  0  0  0  0  0  0  0  0  0  0  0
    2.2610   -3.9390    3.1550 H   0  0  0  0  0  0  0  0  0  0  0  0
    3.0820   -1.8460    3.4190 H   0  0  0  0  0  0  0  0  0  0  0  0
    0.7480    2.9530   -1.4490 C   0  0  0  0  0  0  0  0  0  0  0  0
    1.6530    1.7970   -1.2110 C   0  0  0  0  0  0  0  0  0  0  0  0
    1.5940    0.8400   -2.3730 C   0  0  0  0  0  0  0  0  0  0  0  0
    1.6420    1.1650    0.1110 C   0  0  0  0  0  0  0  0  0  0  0  0
    0.4140    0.5890    0.6830 C   0  0  2  0  0  0  0  0  0  0  0  0
    0.7250    0.0150    2.0180 N   0  0  0  0  0  0  0  0  0  0  0  0
   -0.3800   -0.3470   -0.0920 C   0  0  0  0  0  0  0  0  0  0  0  0
   -0.4470   -1.5650    0.3350 O   0  0  0  0  0  0  0  0  0  0  0  0
    1.2180    3.9530   -1.3200 H   0  0  0  0  0  0  0  0  0  0  0  0
    0.4160    2.9200   -2.5070 H   0  0  0  0  0  0  0  0  0  0  0  0
   -0.2060    2.8860   -0.8470 H   0  0  0  0  0  0  0  0  0  0  0  0
    2.7130    2.2820   -1.3580 H   0  0  0  0  0  0  0  0  0  0  0  0
    0.7470    0.9940   -3.0560 H   0  0  0  0  0  0  0  0  0  0  0  0
    1.5460   -0.2310   -2.0140 H   0  0  0  0  0  0  0  0  0  0  0  0
    2.5140    0.8490   -3.0090 H   0  0  0  0  0  0  0  0  0  0  0  0
    1.9630    1.9780    0.8540 H   0  0  0  0  0  0  0  0  0  0  0  0
    2.5280    0.4730    0.1420 H   0  0  0  0  0  0  0  0  0  0  0  0
   -0.2620    1.4630    0.9260 H   0  0  0  0  0  0  0  0  0  0  0  0
    0.3300    0.4130    2.8940 H   0  0  0  0  0  0  0  0  0  0  0  0
   -1.1120   -0.1130   -1.2680 N   0  0  0  0  0  0  0  0  0  0  0  0
   -1.8550   -1.1650   -1.9320 C   0  0  0  0  0  0  0  0  0  0  0  0
   -2.8970   -1.7410   -1.0440 C   0  0  0  0  0  0  0  0  0  0  0  0
   -3.6490   -2.6660   -1.4350 O   0  0  0  0  0  0  0  0  0  0  0  0
   -3.0740   -1.2740    0.2500 O   0  0  0  0  0  0  0  0  0  0  0  0
   -1.1440    0.8400   -1.6630 H   0  0  0  0  0  0  0  0  0  0  0  0
   -2.3410   -0.7880   -2.8490 H   0  0  0  0  0  0  0  0  0  0  0  0
   -1.1450   -1.9700   -2.2800 H   0  0  0  0  0  0  0  0  0  0  0  0
  1  8  1  0  0  0  0
  1  2  1  0  0  0  0
  2  9  1  0  0  0  0
  3  2  1  0  0  0  0
  3 11  1  0  0  0  0
  4  5  1  0  0  0  0
  4  3  1  0  0  0  0
  5 15  1  1  0  0  0
  5  1  1  0  0  0  0
  6  5  1  0  0  0  0
  7  6  2  0  0  0  0
 10  2  1  0  0  0  0
 12  3  1  0  0  0  0
 13  4  1  0  0  0  0
 14  4  1  0  0  0  0
 16 24  1  0  0  0  0
 16 17  1  0  0  0  0
 16 26  1  0  0  0  0
 17 19  1  0  0  0  0
 18 29  1  0  0  0  0
 18 17  1  0  0  0  0
 19 32  1  0  0  0  0
 19 20  1  0  0  0  0
 19 31  1  0  0  0  0
 20 33  1  1  0  0  0
 20 21  1  0  0  0  0
 21  6  1  0  0  0  0
 21 34  1  0  0  0  0
 22 23  2  0  0  0  0
 22 20  1  0  0  0  0
 25 16  1  0  0  0  0
 27 17  1  0  0  0  0
 28 18  1  0  0  0  0
 30 18  1  0  0  0  0
 35 22  1  0  0  0  0
 36 35  1  0  0  0  0
 36 37  1  0  0  0  0
 37 39  1  0  0  0  0
 38 37  2  0  0  0  0
 40 35  1  0  0  0  0
 41 36  1  0  0  0  0
 42 36  1  0  0  0  0
M  END
$$$$
