PLH.pdb
 OpenBabel07022419043D

 52 53  0  0  1  0  0  0  0  0999 V2000
    3.5310   -2.8210    1.7990 N   0  0  0  0  0  0  0  0  0  0  0  0
    2.6370   -3.8840    2.2190 C   0  0  0  0  0  0  0  0  0  0  0  0
    2.2510   -4.4830    0.8650 C   0  0  0  0  0  0  0  0  0  0  0  0
    2.0000   -3.1980    0.0670 C   0  0  0  0  0  0  0  0  0  0  0  0
    2.7180   -2.1020    0.8270 C   0  0  1  0  0  0  0  0  0  0  0  0
    1.7820   -1.2380    1.5880 C   0  0  0  0  0  0  0  0  0  0  0  0
    1.7710   -1.2030    2.8560 O   0  0  0  0  0  0  0  0  0  0  0  0
    4.3330   -3.3100    1.3030 H   0  0  0  0  0  0  0  0  0  0  0  0
    3.1520   -4.6270    2.8590 H   0  0  0  0  0  0  0  0  0  0  0  0
    1.7170   -3.5330    2.6820 H   0  0  0  0  0  0  0  0  0  0  0  0
    3.1100   -5.0420    0.4950 H   0  0  0  0  0  0  0  0  0  0  0  0
    1.3330   -5.0830    0.9660 H   0  0  0  0  0  0  0  0  0  0  0  0
    0.9180   -3.0720    0.0270 H   0  0  0  0  0  0  0  0  0  0  0  0
    2.4210   -3.3570   -0.9470 H   0  0  0  0  0  0  0  0  0  0  0  0
    3.3440   -1.5220    0.1200 H   0  0  0  0  0  0  0  0  0  0  0  0
    1.8220    2.5240    2.8470 C   0  0  0  0  0  0  0  0  0  0  0  0
    1.2990    2.5470    1.4340 C   0  0  0  0  0  0  0  0  0  0  0  0
    2.3220    2.0400    0.4690 C   0  0  0  0  0  0  0  0  0  0  0  0
   -0.0270    1.8710    1.2860 C   0  0  0  0  0  0  0  0  0  0  0  0
   -0.0520    0.4290    1.6680 C   0  0  2  0  0  0  0  0  0  0  0  0
    0.8370   -0.3930    0.9040 N   0  0  0  0  0  0  0  0  0  0  0  0
   -1.4630   -0.0600    1.4590 C   0  0  0  0  0  0  0  0  0  0  0  0
   -2.4010    0.5400    2.0530 O   0  0  0  0  0  0  0  0  0  0  0  0
    2.6010    3.3100    2.9330 H   0  0  0  0  0  0  0  0  0  0  0  0
    2.3340    1.5580    3.0890 H   0  0  0  0  0  0  0  0  0  0  0  0
    1.0330    2.7720    3.5690 H   0  0  0  0  0  0  0  0  0  0  0  0
    1.1320    3.6410    1.2020 H   0  0  0  0  0  0  0  0  0  0  0  0
    1.9170    1.6970   -0.4910 H   0  0  0  0  0  0  0  0  0  0  0  0
    2.9980    2.9080    0.2130 H   0  0  0  0  0  0  0  0  0  0  0  0
    2.9950    1.3120    0.9670 H   0  0  0  0  0  0  0  0  0  0  0  0
   -0.2740    1.9080    0.1830 H   0  0  0  0  0  0  0  0  0  0  0  0
   -0.8360    2.4620    1.7610 H   0  0  0  0  0  0  0  0  0  0  0  0
    0.1330    0.3030    2.7480 H   0  0  0  0  0  0  0  0  0  0  0  0
    0.8320   -0.4100   -0.1310 H   0  0  0  0  0  0  0  0  0  0  0  0
   -1.7820   -1.1500    0.6360 N   0  0  0  0  0  0  0  0  0  0  0  0
   -3.1300   -1.6360    0.4220 C   0  0  1  0  0  0  0  0  0  0  0  0
   -3.4810   -1.6050   -1.0690 C   0  0  0  0  0  0  0  0  0  0  0  0
   -3.3920   -0.2220   -1.5940 C   0  0  0  0  0  0  0  0  0  0  0  0
   -2.2410    0.3190   -2.1280 C   0  0  0  0  0  0  0  0  0  0  0  0
   -2.4950    1.5920   -2.5120 N   0  0  0  0  0  0  0  0  0  0  0  0
   -3.7820    1.8450   -2.2240 C   0  0  0  0  0  0  0  0  0  0  0  0
   -4.3260    0.7410   -1.6660 N   0  0  0  0  0  0  0  0  0  0  0  0
   -3.2170   -3.0830    0.8290 C   0  0  0  0  0  0  0  0  0  0  0  0
   -2.2170   -3.6780    1.2720 O   0  0  0  0  0  0  0  0  0  0  0  0
   -4.4080   -3.7850    0.7210 O   0  0  0  0  0  0  0  0  0  0  0  0
   -1.0210   -1.6620    0.1340 H   0  0  0  0  0  0  0  0  0  0  0  0
   -3.8470   -1.0360    0.9870 H   0  0  0  0  0  0  0  0  0  0  0  0
   -4.5300   -1.9350   -1.1950 H   0  0  0  0  0  0  0  0  0  0  0  0
   -2.8520   -2.2860   -1.6460 H   0  0  0  0  0  0  0  0  0  0  0  0
   -1.2670   -0.1530   -2.2440 H   0  0  0  0  0  0  0  0  0  0  0  0
   -1.8200    2.2520   -2.9480 H   0  0  0  0  0  0  0  0  0  0  0  0
   -4.3220    2.7570   -2.3930 H   0  0  0  0  0  0  0  0  0  0  0  0
  1  2  1  0  0  0  0
  2 10  1  0  0  0  0
  2  9  1  0  0  0  0
  3 12  1  0  0  0  0
  3  2  1  0  0  0  0
  4  5  1  0  0  0  0
  4  3  1  0  0  0  0
  5 15  1  6  0  0  0
  5  6  1  0  0  0  0
  5  1  1  0  0  0  0
  6  7  2  0  0  0  0
  8  1  1  0  0  0  0
 11  3  1  0  0  0  0
 13  4  1  0  0  0  0
 14  4  1  0  0  0  0
 16 24  1  0  0  0  0
 16 25  1  0  0  0  0
 16 26  1  0  0  0  0
 17 16  1  0  0  0  0
 18 30  1  0  0  0  0
 18 17  1  0  0  0  0
 19 17  1  0  0  0  0
 19 20  1  0  0  0  0
 19 32  1  0  0  0  0
 20 33  1  1  0  0  0
 21  6  1  0  0  0  0
 21 20  1  0  0  0  0
 22 20  1  0  0  0  0
 22 23  2  0  0  0  0
 27 17  1  0  0  0  0
 28 18  1  0  0  0  0
 29 18  1  0  0  0  0
 31 19  1  0  0  0  0
 34 21  1  0  0  0  0
 35 22  1  0  0  0  0
 36 35  1  0  0  0  0
 36 43  1  0  0  0  0
 36 47  1  1  0  0  0
 37 36  1  0  0  0  0
 38 37  1  0  0  0  0
 39 38  2  0  0  0  0
 40 41  1  0  0  0  0
 40 39  1  0  0  0  0
 41 42  2  0  0  0  0
 42 38  1  0  0  0  0
 43 44  1  0  0  0  0
 45 43  2  0  0  0  0
 46 35  1  0  0  0  0
 48 37  1  0  0  0  0
 49 37  1  0  0  0  0
 50 39  1  0  0  0  0
 51 40  1  0  0  0  0
 52 41  1  0  0  0  0
M  END
$$$$
