PLI.pdb
 OpenBabel07022419043D

 54 54  0  0  1  0  0  0  0  0999 V2000
    3.6640   -4.0860    0.4780 N   0  0  0  0  0  0  0  0  0  0  0  0
    3.5170   -5.3860    1.1360 C   0  0  0  0  0  0  0  0  0  0  0  0
    2.2000   -5.3530    1.8380 C   0  0  0  0  0  0  0  0  0  0  0  0
    1.6480   -3.9920    1.5460 C   0  0  0  0  0  0  0  0  0  0  0  0
    2.3020   -3.6660    0.2080 C   0  0  1  0  0  0  0  0  0  0  0  0
    2.2650   -2.1990   -0.0450 C   0  0  0  0  0  0  0  0  0  0  0  0
    3.3410   -1.5580    0.0100 O   0  0  0  0  0  0  0  0  0  0  0  0
    4.2640   -4.1910   -0.3410 H   0  0  0  0  0  0  0  0  0  0  0  0
    3.5190   -6.1730    0.3280 H   0  0  0  0  0  0  0  0  0  0  0  0
    4.3310   -5.6140    1.8390 H   0  0  0  0  0  0  0  0  0  0  0  0
    2.2810   -5.5540    2.9290 H   0  0  0  0  0  0  0  0  0  0  0  0
    1.4920   -6.1120    1.3800 H   0  0  0  0  0  0  0  0  0  0  0  0
    2.0840   -3.2800    2.2770 H   0  0  0  0  0  0  0  0  0  0  0  0
    0.5500   -3.9630    1.4810 H   0  0  0  0  0  0  0  0  0  0  0  0
    1.8910   -4.2640   -0.6030 H   0  0  0  0  0  0  0  0  0  0  0  0
    0.5530    1.8860   -3.8750 C   0  0  0  0  0  0  0  0  0  0  0  0
    0.7570    1.6710   -2.3780 C   0  0  0  0  0  0  0  0  0  0  0  0
    1.9710    2.4490   -1.9400 C   0  0  0  0  0  0  0  0  0  0  0  0
    0.8210    0.2050   -2.0510 C   0  0  0  0  0  0  0  0  0  0  0  0
    1.0340   -0.0460   -0.5910 C   0  0  2  0  0  0  0  0  0  0  0  0
    1.0880   -1.5070   -0.3400 N   0  0  0  0  0  0  0  0  0  0  0  0
    0.0650    0.5880    0.3140 C   0  0  0  0  0  0  0  0  0  0  0  0
   -0.0910    1.8320    0.3720 O   0  0  0  0  0  0  0  0  0  0  0  0
    1.2380    2.6510   -4.2860 H   0  0  0  0  0  0  0  0  0  0  0  0
   -0.4760    2.2510   -4.0670 H   0  0  0  0  0  0  0  0  0  0  0  0
    0.7260    0.9410   -4.4460 H   0  0  0  0  0  0  0  0  0  0  0  0
   -0.1280    2.1440   -1.8560 H   0  0  0  0  0  0  0  0  0  0  0  0
    1.7150    3.2350   -1.1910 H   0  0  0  0  0  0  0  0  0  0  0  0
    2.3840    2.9860   -2.8040 H   0  0  0  0  0  0  0  0  0  0  0  0
    2.7940    1.7850   -1.5710 H   0  0  0  0  0  0  0  0  0  0  0  0
   -0.0680   -0.2890   -2.4720 H   0  0  0  0  0  0  0  0  0  0  0  0
    1.6930   -0.2350   -2.6030 H   0  0  0  0  0  0  0  0  0  0  0  0
    2.0590    0.3040   -0.3620 H   0  0  0  0  0  0  0  0  0  0  0  0
    0.1920   -2.0640   -0.3770 H   0  0  0  0  0  0  0  0  0  0  0  0
   -3.7600    2.5270    2.6230 C   0  0  0  0  0  0  0  0  0  0  0  0
   -4.1230    1.1040    2.3320 C   0  0  0  0  0  0  0  0  0  0  0  0
   -3.1140    0.4170    1.4640 C   0  0  2  0  0  0  0  0  0  0  0  0
   -3.5730   -0.9900    1.2380 C   0  0  0  0  0  0  0  0  0  0  0  0
   -1.7330    0.5170    2.0740 C   0  0  2  0  0  0  0  0  0  0  0  0
   -0.7750   -0.1630    1.1930 N   0  0  0  0  0  0  0  0  0  0  0  0
   -1.6510   -0.1500    3.3840 C   0  0  0  0  0  0  0  0  0  0  0  0
   -0.8980   -1.1770    3.5450 O   0  0  0  0  0  0  0  0  0  0  0  0
   -2.3580    0.2810    4.4870 O   0  0  0  0  0  0  0  0  0  0  0  0
   -3.4940    2.6380    3.7130 H   0  0  0  0  0  0  0  0  0  0  0  0
   -4.6810    3.1380    2.4460 H   0  0  0  0  0  0  0  0  0  0  0  0
   -2.9720    2.9520    1.9700 H   0  0  0  0  0  0  0  0  0  0  0  0
   -5.1550    1.0350    1.8660 H   0  0  0  0  0  0  0  0  0  0  0  0
   -4.2490    0.5350    3.2820 H   0  0  0  0  0  0  0  0  0  0  0  0
   -3.1460    0.9340    0.4710 H   0  0  0  0  0  0  0  0  0  0  0  0
   -4.2800   -0.9880    0.3790 H   0  0  0  0  0  0  0  0  0  0  0  0
   -2.7560   -1.6910    0.9930 H   0  0  0  0  0  0  0  0  0  0  0  0
   -4.1700   -1.3550    2.1170 H   0  0  0  0  0  0  0  0  0  0  0  0
   -1.4970    1.5970    2.0900 H   0  0  0  0  0  0  0  0  0  0  0  0
   -0.7330   -1.1810    1.2330 H   0  0  0  0  0  0  0  0  0  0  0  0
  1  2  1  0  0  0  0
  2  3  1  0  0  0  0
  2 10  1  0  0  0  0
  3 11  1  0  0  0  0
  4  3  1  0  0  0  0
  4 13  1  0  0  0  0
  5 15  1  6  0  0  0
  5  1  1  0  0  0  0
  5  4  1  0  0  0  0
  6  7  2  0  0  0  0
  6  5  1  0  0  0  0
  8  1  1  0  0  0  0
  9  2  1  0  0  0  0
 12  3  1  0  0  0  0
 14  4  1  0  0  0  0
 16 17  1  0  0  0  0
 17 19  1  0  0  0  0
 17 18  1  0  0  0  0
 17 27  1  0  0  0  0
 18 30  1  0  0  0  0
 18 28  1  0  0  0  0
 19 20  1  0  0  0  0
 20 33  1  1  0  0  0
 20 21  1  0  0  0  0
 20 22  1  0  0  0  0
 21  6  1  0  0  0  0
 22 23  2  0  0  0  0
 22 40  1  0  0  0  0
 24 16  1  0  0  0  0
 25 16  1  0  0  0  0
 26 16  1  0  0  0  0
 29 18  1  0  0  0  0
 31 19  1  0  0  0  0
 32 19  1  0  0  0  0
 34 21  1  0  0  0  0
 35 44  1  0  0  0  0
 36 35  1  0  0  0  0
 36 48  1  0  0  0  0
 37 49  1  6  0  0  0
 37 39  1  0  0  0  0
 37 36  1  0  0  0  0
 38 37  1  0  0  0  0
 38 52  1  0  0  0  0
 39 53  1  1  0  0  0
 39 41  1  0  0  0  0
 40 54  1  0  0  0  0
 40 39  1  0  0  0  0
 41 42  2  0  0  0  0
 41 43  1  0  0  0  0
 45 35  1  0  0  0  0
 46 35  1  0  0  0  0
 47 36  1  0  0  0  0
 50 38  1  0  0  0  0
 51 38  1  0  0  0  0
M  END
$$$$
