PLN.pdb
 OpenBabel07022419043D

 49 49  0  0  1  0  0  0  0  0999 V2000
    0.8950   -4.2970    2.8000 N   0  0  0  0  0  0  0  0  0  0  0  0
    0.9570   -5.5230    2.0720 C   0  0  0  0  0  0  0  0  0  0  0  0
    1.5810   -5.1990    0.7220 C   0  0  0  0  0  0  0  0  0  0  0  0
    1.1180   -3.7420    0.5700 C   0  0  0  0  0  0  0  0  0  0  0  0
    1.3410   -3.2170    1.9460 C   0  0  1  0  0  0  0  0  0  0  0  0
    0.5980   -1.9650    2.2250 C   0  0  0  0  0  0  0  0  0  0  0  0
   -0.2940   -1.9860    3.1320 O   0  0  0  0  0  0  0  0  0  0  0  0
    1.4910   -4.2870    3.6590 H   0  0  0  0  0  0  0  0  0  0  0  0
    1.5190   -6.2970    2.6310 H   0  0  0  0  0  0  0  0  0  0  0  0
   -0.1060   -5.8420    1.8680 H   0  0  0  0  0  0  0  0  0  0  0  0
    1.2160   -5.8360   -0.0850 H   0  0  0  0  0  0  0  0  0  0  0  0
    2.6780   -5.2570    0.8750 H   0  0  0  0  0  0  0  0  0  0  0  0
    1.7230   -3.2220   -0.2000 H   0  0  0  0  0  0  0  0  0  0  0  0
    0.0520   -3.7510    0.3380 H   0  0  0  0  0  0  0  0  0  0  0  0
    2.4370   -3.0910    2.1160 H   0  0  0  0  0  0  0  0  0  0  0  0
   -0.1810    3.6850    1.8070 C   0  0  0  0  0  0  0  0  0  0  0  0
    0.4220    2.7980    2.8250 C   0  0  0  0  0  0  0  0  0  0  0  0
   -0.6650    2.5730    3.9090 C   0  0  0  0  0  0  0  0  0  0  0  0
    0.9560    1.4860    2.4230 C   0  0  0  0  0  0  0  0  0  0  0  0
    0.0370    0.4910    1.8700 C   0  0  2  0  0  0  0  0  0  0  0  0
    0.8250   -0.7520    1.5410 N   0  0  0  0  0  0  0  0  0  0  0  0
   -0.8200    0.7530    0.7470 C   0  0  0  0  0  0  0  0  0  0  0  0
   -1.7410    1.5950    0.7970 O   0  0  0  0  0  0  0  0  0  0  0  0
    0.1460    3.3990    0.7990 H   0  0  0  0  0  0  0  0  0  0  0  0
   -1.2610    3.8980    1.9250 H   0  0  0  0  0  0  0  0  0  0  0  0
    0.2810    4.7200    1.9500 H   0  0  0  0  0  0  0  0  0  0  0  0
    1.1870    3.4060    3.4010 H   0  0  0  0  0  0  0  0  0  0  0  0
   -0.2950    1.8830    4.6770 H   0  0  0  0  0  0  0  0  0  0  0  0
   -1.6040    2.2220    3.4530 H   0  0  0  0  0  0  0  0  0  0  0  0
   -0.8900    3.5390    4.3970 H   0  0  0  0  0  0  0  0  0  0  0  0
    1.9210    1.5750    1.8370 H   0  0  0  0  0  0  0  0  0  0  0  0
    1.3580    1.0210    3.3970 H   0  0  0  0  0  0  0  0  0  0  0  0
   -0.6320    0.1490    2.7220 H   0  0  0  0  0  0  0  0  0  0  0  0
    1.5550   -0.7290    0.8030 H   0  0  0  0  0  0  0  0  0  0  0  0
    0.9910    0.2610   -4.4250 N   0  0  0  0  0  0  0  0  0  0  0  0
    0.1870   -0.1370   -3.3010 C   0  0  0  0  0  0  0  0  0  0  0  0
    0.3140   -1.2420   -2.7420 O   0  0  0  0  0  0  0  0  0  0  0  0
   -0.8090    0.8390   -2.8360 C   0  0  0  0  0  0  0  0  0  0  0  0
   -1.5290    0.3250   -1.6300 C   0  0  2  0  0  0  0  0  0  0  0  0
   -0.6720    0.0660   -0.5010 N   0  0  0  0  0  0  0  0  0  0  0  0
   -2.2480   -0.9450   -1.9270 C   0  0  0  0  0  0  0  0  0  0  0  0
   -3.0820   -0.9920   -2.8910 O   0  0  0  0  0  0  0  0  0  0  0  0
   -2.0650   -2.1010   -1.2070 O   0  0  0  0  0  0  0  0  0  0  0  0
    1.3020    1.2460   -4.5010 H   0  0  0  0  0  0  0  0  0  0  0  0
    1.2620   -0.4250   -5.1590 H   0  0  0  0  0  0  0  0  0  0  0  0
   -1.5550    1.0120   -3.6420 H   0  0  0  0  0  0  0  0  0  0  0  0
   -0.3360    1.8090   -2.5490 H   0  0  0  0  0  0  0  0  0  0  0  0
   -2.3200    1.0720   -1.3960 H   0  0  0  0  0  0  0  0  0  0  0  0
    0.0760   -0.6280   -0.5580 H   0  0  0  0  0  0  0  0  0  0  0  0
  1  8  1  0  0  0  0
  2  9  1  0  0  0  0
  2  1  1  0  0  0  0
  3 12  1  0  0  0  0
  3  2  1  0  0  0  0
  4  3  1  0  0  0  0
  4  5  1  0  0  0  0
  5 15  1  1  0  0  0
  5  6  1  0  0  0  0
  5  1  1  0  0  0  0
  6  7  2  0  0  0  0
 10  2  1  0  0  0  0
 11  3  1  0  0  0  0
 13  4  1  0  0  0  0
 14  4  1  0  0  0  0
 16 25  1  0  0  0  0
 16 26  1  0  0  0  0
 16 17  1  0  0  0  0
 17 27  1  0  0  0  0
 17 18  1  0  0  0  0
 18 30  1  0  0  0  0
 18 28  1  0  0  0  0
 19 17  1  0  0  0  0
 19 32  1  0  0  0  0
 20 19  1  0  0  0  0
 20 33  1  1  0  0  0
 21 20  1  0  0  0  0
 21  6  1  0  0  0  0
 22 23  2  0  0  0  0
 22 20  1  0  0  0  0
 24 16  1  0  0  0  0
 29 18  1  0  0  0  0
 31 19  1  0  0  0  0
 34 21  1  0  0  0  0
 35 36  1  0  0  0  0
 36 38  1  0  0  0  0
 36 37  2  0  0  0  0
 38 47  1  0  0  0  0
 38 39  1  0  0  0  0
 39 48  1  1  0  0  0
 39 40  1  0  0  0  0
 40 22  1  0  0  0  0
 41 39  1  0  0  0  0
 41 43  1  0  0  0  0
 42 41  2  0  0  0  0
 44 35  1  0  0  0  0
 45 35  1  0  0  0  0
 46 38  1  0  0  0  0
 49 40  1  0  0  0  0
M  END
$$$$
