PLP.pdb
 OpenBabel07022419043D

 49 50  0  0  1  0  0  0  0  0999 V2000
    2.6510   -4.1870   -0.2420 N   0  0  0  0  0  0  0  0  0  0  0  0
    2.0720   -5.3070   -1.0010 C   0  0  0  0  0  0  0  0  0  0  0  0
    0.6120   -5.1930   -0.6220 C   0  0  0  0  0  0  0  0  0  0  0  0
    0.4090   -3.6910   -0.5170 C   0  0  0  0  0  0  0  0  0  0  0  0
    1.7850   -3.0800   -0.6840 C   0  0  1  0  0  0  0  0  0  0  0  0
    1.8840   -1.9380    0.2540 C   0  0  0  0  0  0  0  0  0  0  0  0
    2.6270   -2.0680    1.2680 O   0  0  0  0  0  0  0  0  0  0  0  0
    2.3400   -4.3660    0.7600 H   0  0  0  0  0  0  0  0  0  0  0  0
    2.5190   -6.2650   -0.7220 H   0  0  0  0  0  0  0  0  0  0  0  0
    2.1380   -5.1240   -2.0880 H   0  0  0  0  0  0  0  0  0  0  0  0
    0.3960   -5.7200    0.3270 H   0  0  0  0  0  0  0  0  0  0  0  0
   -0.0440   -5.6060   -1.4340 H   0  0  0  0  0  0  0  0  0  0  0  0
   -0.3230   -3.3110   -1.2320 H   0  0  0  0  0  0  0  0  0  0  0  0
    0.0000   -3.5120    0.5020 H   0  0  0  0  0  0  0  0  0  0  0  0
    1.9980   -2.8050   -1.7240 H   0  0  0  0  0  0  0  0  0  0  0  0
    2.3850    3.8310   -0.3590 C   0  0  0  0  0  0  0  0  0  0  0  0
    1.8510    2.9360    0.8260 C   0  0  0  0  0  0  0  0  0  0  0  0
    0.6190    3.6790    1.2570 C   0  0  0  0  0  0  0  0  0  0  0  0
    1.6860    1.6180    0.2210 C   0  0  0  0  0  0  0  0  0  0  0  0
    1.2730    0.4140    0.9560 C   0  0  2  0  0  0  0  0  0  0  0  0
    1.1730   -0.7300    0.0300 N   0  0  0  0  0  0  0  0  0  0  0  0
    0.1270    0.6130    1.8250 C   0  0  0  0  0  0  0  0  0  0  0  0
    0.3190    1.4360    2.8090 O   0  0  0  0  0  0  0  0  0  0  0  0
    3.2280    3.3330   -0.8460 H   0  0  0  0  0  0  0  0  0  0  0  0
    1.5580    4.0490   -1.0510 H   0  0  0  0  0  0  0  0  0  0  0  0
    2.7420    4.7930    0.0520 H   0  0  0  0  0  0  0  0  0  0  0  0
    2.6450    2.9720    1.5780 H   0  0  0  0  0  0  0  0  0  0  0  0
    0.5620    3.9790    2.2950 H   0  0  0  0  0  0  0  0  0  0  0  0
   -0.3150    3.1810    0.9410 H   0  0  0  0  0  0  0  0  0  0  0  0
    0.5910    4.6710    0.6900 H   0  0  0  0  0  0  0  0  0  0  0  0
    1.0260    1.7730   -0.7090 H   0  0  0  0  0  0  0  0  0  0  0  0
    2.6900    1.3790   -0.2850 H   0  0  0  0  0  0  0  0  0  0  0  0
    2.1310    0.0820    1.6340 H   0  0  0  0  0  0  0  0  0  0  0  0
    0.6030   -0.6880   -0.8310 H   0  0  0  0  0  0  0  0  0  0  0  0
   -1.1710    0.0550    1.7750 N   0  0  0  0  0  0  0  0  0  0  0  0
   -2.1920    0.4370    2.7790 C   0  0  0  0  0  0  0  0  0  0  0  0
   -3.1250   -0.7410    2.8550 C   0  0  0  0  0  0  0  0  0  0  0  0
   -2.5100   -1.8020    1.9670 C   0  0  0  0  0  0  0  0  0  0  0  0
   -1.8440   -0.8750    0.9380 C   0  0  1  0  0  0  0  0  0  0  0  0
   -2.9290   -0.2690    0.1320 C   0  0  0  0  0  0  0  0  0  0  0  0
   -3.1590    0.9440    0.1710 O   0  0  0  0  0  0  0  0  0  0  0  0
   -3.7390   -1.0480   -0.7080 O   0  0  0  0  0  0  0  0  0  0  0  0
   -1.6970    0.6430    3.7540 H   0  0  0  0  0  0  0  0  0  0  0  0
   -2.6790    1.3440    2.3770 H   0  0  0  0  0  0  0  0  0  0  0  0
   -3.2880   -1.1080    3.8890 H   0  0  0  0  0  0  0  0  0  0  0  0
   -4.1250   -0.4930    2.3990 H   0  0  0  0  0  0  0  0  0  0  0  0
   -3.2500   -2.4630    1.5030 H   0  0  0  0  0  0  0  0  0  0  0  0
   -1.7400   -2.3300    2.5670 H   0  0  0  0  0  0  0  0  0  0  0  0
   -1.2210   -1.4670    0.2490 H   0  0  0  0  0  0  0  0  0  0  0  0
  1  8  1  0  0  0  0
  2  9  1  0  0  0  0
  2  3  1  0  0  0  0
  2  1  1  0  0  0  0
  3  4  1  0  0  0  0
  3 11  1  0  0  0  0
  4 14  1  0  0  0  0
  5 15  1  6  0  0  0
  5  4  1  0  0  0  0
  5  1  1  0  0  0  0
  5  6  1  0  0  0  0
  6  7  2  0  0  0  0
 10  2  1  0  0  0  0
 12  3  1  0  0  0  0
 13  4  1  0  0  0  0
 16 26  1  0  0  0  0
 16 17  1  0  0  0  0
 17 18  1  0  0  0  0
 17 27  1  0  0  0  0
 18 28  1  0  0  0  0
 19 17  1  0  0  0  0
 19 20  1  0  0  0  0
 20 33  1  1  0  0  0
 20 22  1  0  0  0  0
 21  6  1  0  0  0  0
 21 20  1  0  0  0  0
 22 23  2  0  0  0  0
 24 16  1  0  0  0  0
 25 16  1  0  0  0  0
 29 18  1  0  0  0  0
 30 18  1  0  0  0  0
 31 19  1  0  0  0  0
 32 19  1  0  0  0  0
 34 21  1  0  0  0  0
 35 22  1  0  0  0  0
 35 36  1  0  0  0  0
 36 37  1  0  0  0  0
 36 43  1  0  0  0  0
 37 45  1  0  0  0  0
 38 48  1  0  0  0  0
 38 37  1  0  0  0  0
 39 49  1  6  0  0  0
 39 35  1  0  0  0  0
 39 38  1  0  0  0  0
 40 41  1  0  0  0  0
 40 39  1  0  0  0  0
 42 40  2  0  0  0  0
 44 36  1  0  0  0  0
 46 37  1  0  0  0  0
 47 38  1  0  0  0  0
M  END
$$$$
