PLS.pdb
 OpenBabel07022419043D

 46 46  0  0  1  0  0  0  0  0999 V2000
    0.8530   -4.2610    2.3100 N   0  0  0  0  0  0  0  0  0  0  0  0
    1.0000   -5.1310    1.1900 C   0  0  0  0  0  0  0  0  0  0  0  0
    2.0170   -4.5690    0.2420 C   0  0  0  0  0  0  0  0  0  0  0  0
    2.6890   -3.4770    1.0470 C   0  0  0  0  0  0  0  0  0  0  0  0
    1.6770   -3.0910    2.0680 C   0  0  1  0  0  0  0  0  0  0  0  0
    0.8260   -1.9480    1.6310 C   0  0  0  0  0  0  0  0  0  0  0  0
   -0.4290   -2.0630    1.5330 O   0  0  0  0  0  0  0  0  0  0  0  0
   -0.1170   -4.0000    2.5470 H   0  0  0  0  0  0  0  0  0  0  0  0
    1.2670   -6.1820    1.4780 H   0  0  0  0  0  0  0  0  0  0  0  0
    0.0080   -5.2280    0.6600 H   0  0  0  0  0  0  0  0  0  0  0  0
    1.5860   -4.2230   -0.6980 H   0  0  0  0  0  0  0  0  0  0  0  0
    2.7720   -5.3510    0.0120 H   0  0  0  0  0  0  0  0  0  0  0  0
    3.0120   -2.6190    0.4400 H   0  0  0  0  0  0  0  0  0  0  0  0
    3.6280   -3.8990    1.5090 H   0  0  0  0  0  0  0  0  0  0  0  0
    2.1820   -2.8620    3.0500 H   0  0  0  0  0  0  0  0  0  0  0  0
    0.1340    0.1740   -2.8900 C   0  0  0  0  0  0  0  0  0  0  0  0
    0.9490    0.2250   -1.5910 C   0  0  0  0  0  0  0  0  0  0  0  0
    1.8240   -0.9770   -1.5860 C   0  0  0  0  0  0  0  0  0  0  0  0
    0.0150    0.3690   -0.4430 C   0  0  0  0  0  0  0  0  0  0  0  0
    0.6250    0.4380    0.9050 C   0  0  2  0  0  0  0  0  0  0  0  0
    1.4000   -0.6930    1.3130 N   0  0  0  0  0  0  0  0  0  0  0  0
   -0.3840    0.7690    1.9380 C   0  0  0  0  0  0  0  0  0  0  0  0
   -0.4350    0.0750    2.9790 O   0  0  0  0  0  0  0  0  0  0  0  0
    0.1100    1.1420   -3.3980 H   0  0  0  0  0  0  0  0  0  0  0  0
   -0.9290   -0.0810   -2.6330 H   0  0  0  0  0  0  0  0  0  0  0  0
    0.5270   -0.5780   -3.5900 H   0  0  0  0  0  0  0  0  0  0  0  0
    1.6130    1.1230   -1.7150 H   0  0  0  0  0  0  0  0  0  0  0  0
    2.1080   -1.2000   -2.6560 H   0  0  0  0  0  0  0  0  0  0  0  0
    1.3340   -1.8950   -1.2230 H   0  0  0  0  0  0  0  0  0  0  0  0
    2.8080   -0.7810   -1.0860 H   0  0  0  0  0  0  0  0  0  0  0  0
   -0.5520    1.3190   -0.6150 H   0  0  0  0  0  0  0  0  0  0  0  0
   -0.7600   -0.4270   -0.5070 H   0  0  0  0  0  0  0  0  0  0  0  0
    1.3210    1.3440    0.9250 H   0  0  0  0  0  0  0  0  0  0  0  0
    2.4600   -0.6360    1.3950 H   0  0  0  0  0  0  0  0  0  0  0  0
   -0.7010    3.7520    3.7120 O   0  0  0  0  0  0  0  0  0  0  0  0
   -1.9770    3.6580    3.1580 C   0  0  0  0  0  0  0  0  0  0  0  0
   -2.2960    2.2100    2.7560 C   0  0  2  0  0  0  0  0  0  0  0  0
   -1.2890    1.8420    1.7820 N   0  0  0  0  0  0  0  0  0  0  0  0
   -3.6260    2.2290    2.1060 C   0  0  0  0  0  0  0  0  0  0  0  0
   -3.7040    1.9460    0.8880 O   0  0  0  0  0  0  0  0  0  0  0  0
   -4.7960    2.5460    2.7770 O   0  0  0  0  0  0  0  0  0  0  0  0
   -0.1950    4.4660    3.2360 H   0  0  0  0  0  0  0  0  0  0  0  0
   -2.0490    4.3060    2.2630 H   0  0  0  0  0  0  0  0  0  0  0  0
   -2.6900    4.0280    3.9230 H   0  0  0  0  0  0  0  0  0  0  0  0
   -2.2720    1.5480    3.6410 H   0  0  0  0  0  0  0  0  0  0  0  0
   -1.2330    2.4130    0.9170 H   0  0  0  0  0  0  0  0  0  0  0  0
  1  8  1  0  0  0  0
  2  9  1  0  0  0  0
  2  1  1  0  0  0  0
  3  4  1  0  0  0  0
  3  2  1  0  0  0  0
  4 14  1  0  0  0  0
  4  5  1  0  0  0  0
  5  1  1  0  0  0  0
  5 15  1  1  0  0  0
  6  5  1  0  0  0  0
  7  6  2  0  0  0  0
 10  2  1  0  0  0  0
 11  3  1  0  0  0  0
 12  3  1  0  0  0  0
 13  4  1  0  0  0  0
 16 25  1  0  0  0  0
 16 17  1  0  0  0  0
 17 18  1  0  0  0  0
 17 19  1  0  0  0  0
 18 29  1  0  0  0  0
 18 30  1  0  0  0  0
 19 20  1  0  0  0  0
 20 33  1  6  0  0  0
 20 21  1  0  0  0  0
 20 22  1  0  0  0  0
 21 34  1  0  0  0  0
 21  6  1  0  0  0  0
 22 23  2  0  0  0  0
 24 16  1  0  0  0  0
 26 16  1  0  0  0  0
 27 17  1  0  0  0  0
 28 18  1  0  0  0  0
 31 19  1  0  0  0  0
 32 19  1  0  0  0  0
 36 35  1  0  0  0  0
 36 44  1  0  0  0  0
 37 36  1  0  0  0  0
 37 45  1  1  0  0  0
 38 22  1  0  0  0  0
 38 37  1  0  0  0  0
 39 37  1  0  0  0  0
 39 41  1  0  0  0  0
 40 39  2  0  0  0  0
 42 35  1  0  0  0  0
 43 36  1  0  0  0  0
 46 38  1  0  0  0  0
M  END
$$$$
