PLW.pdb
 OpenBabel07022419043D

 59 61  0  0  1  0  0  0  0  0999 V2000
    3.9660    1.2620    3.2930 N   0  0  0  0  0  0  0  0  0  0  0  0
    4.9850    2.1240    3.8750 C   0  0  0  0  0  0  0  0  0  0  0  0
    4.6790    3.5180    3.4240 C   0  0  0  0  0  0  0  0  0  0  0  0
    3.4460    3.3600    2.5640 C   0  0  0  0  0  0  0  0  0  0  0  0
    2.8090    2.1250    3.1680 C   0  0  1  0  0  0  0  0  0  0  0  0
    1.7880    1.5890    2.2580 C   0  0  0  0  0  0  0  0  0  0  0  0
    0.7260    2.2600    2.0630 O   0  0  0  0  0  0  0  0  0  0  0  0
    4.2890    1.0300    2.3070 H   0  0  0  0  0  0  0  0  0  0  0  0
    6.0160    1.8190    3.5690 H   0  0  0  0  0  0  0  0  0  0  0  0
    4.9740    2.1040    4.9820 H   0  0  0  0  0  0  0  0  0  0  0  0
    4.3770    4.1690    4.2950 H   0  0  0  0  0  0  0  0  0  0  0  0
    5.5130    4.0010    2.8750 H   0  0  0  0  0  0  0  0  0  0  0  0
    3.7570    3.0860    1.5180 H   0  0  0  0  0  0  0  0  0  0  0  0
    2.7840    4.2400    2.5860 H   0  0  0  0  0  0  0  0  0  0  0  0
    2.4430    2.3580    4.1740 H   0  0  0  0  0  0  0  0  0  0  0  0
    0.8600    1.9620   -1.5340 C   0  0  0  0  0  0  0  0  0  0  0  0
    1.8640    0.8510   -1.4040 C   0  0  0  0  0  0  0  0  0  0  0  0
    2.3410    0.5250   -2.8180 C   0  0  0  0  0  0  0  0  0  0  0  0
    1.3350   -0.3680   -0.7200 C   0  0  0  0  0  0  0  0  0  0  0  0
    0.8590   -0.1370    0.6730 C   0  0  2  0  0  0  0  0  0  0  0  0
    1.8880    0.3640    1.5670 N   0  0  0  0  0  0  0  0  0  0  0  0
    0.2440   -1.3500    1.2730 C   0  0  0  0  0  0  0  0  0  0  0  0
    0.6680   -1.7320    2.3930 O   0  0  0  0  0  0  0  0  0  0  0  0
   -0.1410    1.6080   -1.8480 H   0  0  0  0  0  0  0  0  0  0  0  0
    0.8160    2.6320   -0.6520 H   0  0  0  0  0  0  0  0  0  0  0  0
    1.2210    2.6180   -2.3730 H   0  0  0  0  0  0  0  0  0  0  0  0
    2.7490    1.2670   -0.8740 H   0  0  0  0  0  0  0  0  0  0  0  0
    2.8850   -0.4170   -2.8690 H   0  0  0  0  0  0  0  0  0  0  0  0
    2.9380    1.4150   -3.1390 H   0  0  0  0  0  0  0  0  0  0  0  0
    1.4310    0.5410   -3.4830 H   0  0  0  0  0  0  0  0  0  0  0  0
    0.4730   -0.7460   -1.3070 H   0  0  0  0  0  0  0  0  0  0  0  0
    2.1200   -1.1540   -0.7930 H   0  0  0  0  0  0  0  0  0  0  0  0
    0.0230    0.6030    0.6170 H   0  0  0  0  0  0  0  0  0  0  0  0
    2.7750   -0.1940    1.7350 H   0  0  0  0  0  0  0  0  0  0  0  0
   -0.7890   -2.0780    0.6310 N   0  0  0  0  0  0  0  0  0  0  0  0
   -1.3380   -3.2550    1.2860 C   0  0  1  0  0  0  0  0  0  0  0  0
   -2.7770   -3.0660    1.6260 C   0  0  0  0  0  0  0  0  0  0  0  0
   -3.6470   -2.7760    0.4810 C   0  0  0  0  0  0  0  0  0  0  0  0
   -3.9840   -1.4890    0.0260 C   0  0  0  0  0  0  0  0  0  0  0  0
   -4.7460   -1.5700   -1.0640 N   0  0  0  0  0  0  0  0  0  0  0  0
   -4.9250   -2.8850   -1.3460 C   0  0  0  0  0  0  0  0  0  0  0  0
   -5.6360   -3.5050   -2.3540 C   0  0  0  0  0  0  0  0  0  0  0  0
   -5.6800   -4.8780   -2.4190 C   0  0  0  0  0  0  0  0  0  0  0  0
   -5.0190   -5.6390   -1.4850 C   0  0  0  0  0  0  0  0  0  0  0  0
   -4.3070   -5.0280   -0.4760 C   0  0  0  0  0  0  0  0  0  0  0  0
   -4.2450   -3.6430   -0.3880 C   0  0  0  0  0  0  0  0  0  0  0  0
   -1.0670   -4.4800    0.5360 C   0  0  0  0  0  0  0  0  0  0  0  0
   -1.2930   -5.6480    0.9030 O   0  0  0  0  0  0  0  0  0  0  0  0
   -0.4900   -4.3450   -0.7370 O   0  0  0  0  0  0  0  0  0  0  0  0
   -1.1440   -1.7590   -0.3080 H   0  0  0  0  0  0  0  0  0  0  0  0
   -0.8010   -3.3500    2.2680 H   0  0  0  0  0  0  0  0  0  0  0  0
   -2.8790   -2.2030    2.3420 H   0  0  0  0  0  0  0  0  0  0  0  0
   -3.1520   -3.9580    2.1940 H   0  0  0  0  0  0  0  0  0  0  0  0
   -3.6510   -0.6060    0.5210 H   0  0  0  0  0  0  0  0  0  0  0  0
   -5.1550   -0.8010   -1.6340 H   0  0  0  0  0  0  0  0  0  0  0  0
   -6.1640   -2.9270   -3.1020 H   0  0  0  0  0  0  0  0  0  0  0  0
   -6.2490   -5.3500   -3.2280 H   0  0  0  0  0  0  0  0  0  0  0  0
   -5.0730   -6.7090   -1.5610 H   0  0  0  0  0  0  0  0  0  0  0  0
   -3.8040   -5.6070    0.2710 H   0  0  0  0  0  0  0  0  0  0  0  0
  1  2  1  0  0  0  0
  2 10  1  0  0  0  0
  3  2  1  0  0  0  0
  3 11  1  0  0  0  0
  4 14  1  0  0  0  0
  4  5  1  0  0  0  0
  4  3  1  0  0  0  0
  5  1  1  0  0  0  0
  5 15  1  1  0  0  0
  6  5  1  0  0  0  0
  7  6  2  0  0  0  0
  8  1  1  0  0  0  0
  9  2  1  0  0  0  0
 12  3  1  0  0  0  0
 13  4  1  0  0  0  0
 16 17  1  0  0  0  0
 16 25  1  0  0  0  0
 17 27  1  0  0  0  0
 17 19  1  0  0  0  0
 18 17  1  0  0  0  0
 19 20  1  0  0  0  0
 20 33  1  6  0  0  0
 20 22  1  0  0  0  0
 20 21  1  0  0  0  0
 21 34  1  0  0  0  0
 21  6  1  0  0  0  0
 22 23  2  0  0  0  0
 24 16  1  0  0  0  0
 26 16  1  0  0  0  0
 28 18  1  0  0  0  0
 29 18  1  0  0  0  0
 30 18  1  0  0  0  0
 31 19  1  0  0  0  0
 32 19  1  0  0  0  0
 35 22  1  0  0  0  0
 35 36  1  0  0  0  0
 36 37  1  0  0  0  0
 36 51  1  1  0  0  0
 37 53  1  0  0  0  0
 37 52  1  0  0  0  0
 38 37  1  0  0  0  0
 39 38  2  0  0  0  0
 39 54  1  0  0  0  0
 40 39  1  0  0  0  0
 41 40  1  0  0  0  0
 41 46  1  0  0  0  0
 42 41  2  0  0  0  0
 43 42  1  0  0  0  0
 43 44  2  0  0  0  0
 44 45  1  0  0  0  0
 45 46  2  0  0  0  0
 45 59  1  0  0  0  0
 46 38  1  0  0  0  0
 47 48  1  0  0  0  0
 47 36  1  0  0  0  0
 49 47  2  0  0  0  0
 50 35  1  0  0  0  0
 55 40  1  0  0  0  0
 56 42  1  0  0  0  0
 57 43  1  0  0  0  0
 58 44  1  0  0  0  0
M  END
$$$$
