PLY.pdb
 OpenBabel07022419043D

 56 57  0  0  1  0  0  0  0  0999 V2000
    4.3690   -2.6700    2.3120 N   0  0  0  0  0  0  0  0  0  0  0  0
    3.9540   -4.0090    2.6120 C   0  0  0  0  0  0  0  0  0  0  0  0
    2.6900   -4.2640    1.7960 C   0  0  0  0  0  0  0  0  0  0  0  0
    3.0300   -3.4510    0.5460 C   0  0  0  0  0  0  0  0  0  0  0  0
    3.6050   -2.2060    1.1840 C   0  0  1  0  0  0  0  0  0  0  0  0
    2.5650   -1.2750    1.6520 C   0  0  0  0  0  0  0  0  0  0  0  0
    2.4930   -1.0290    2.8950 O   0  0  0  0  0  0  0  0  0  0  0  0
    4.1830   -2.0680    3.1680 H   0  0  0  0  0  0  0  0  0  0  0  0
    3.7700   -4.2060    3.6770 H   0  0  0  0  0  0  0  0  0  0  0  0
    4.7160   -4.7510    2.2350 H   0  0  0  0  0  0  0  0  0  0  0  0
    1.8760   -3.7400    2.3030 H   0  0  0  0  0  0  0  0  0  0  0  0
    2.5260   -5.3170    1.5860 H   0  0  0  0  0  0  0  0  0  0  0  0
    2.1680   -3.2660   -0.0880 H   0  0  0  0  0  0  0  0  0  0  0  0
    3.8680   -3.9830    0.0520 H   0  0  0  0  0  0  0  0  0  0  0  0
    4.3090   -1.7130    0.4820 H   0  0  0  0  0  0  0  0  0  0  0  0
   -1.5560    2.7060    0.8410 C   0  0  0  0  0  0  0  0  0  0  0  0
   -0.0880    2.7660    1.0570 C   0  0  0  0  0  0  0  0  0  0  0  0
    0.1350    3.2700    2.4910 C   0  0  0  0  0  0  0  0  0  0  0  0
    0.7410    1.6040    0.7410 C   0  0  0  0  0  0  0  0  0  0  0  0
    0.6150    0.3040    1.4160 C   0  0  2  0  0  0  0  0  0  0  0  0
    1.6360   -0.6300    0.8290 N   0  0  0  0  0  0  0  0  0  0  0  0
   -0.7020   -0.3320    1.3270 C   0  0  0  0  0  0  0  0  0  0  0  0
   -1.7450    0.0700    1.8950 O   0  0  0  0  0  0  0  0  0  0  0  0
   -1.8670    1.9600    0.1090 H   0  0  0  0  0  0  0  0  0  0  0  0
   -2.0970    2.6410    1.7970 H   0  0  0  0  0  0  0  0  0  0  0  0
   -1.8890    3.7260    0.4050 H   0  0  0  0  0  0  0  0  0  0  0  0
    0.3030    3.6190    0.3990 H   0  0  0  0  0  0  0  0  0  0  0  0
   -0.3210    2.5150    3.1630 H   0  0  0  0  0  0  0  0  0  0  0  0
   -0.4470    4.2010    2.5800 H   0  0  0  0  0  0  0  0  0  0  0  0
    1.2050    3.3920    2.7040 H   0  0  0  0  0  0  0  0  0  0  0  0
    1.8300    1.9700    0.7600 H   0  0  0  0  0  0  0  0  0  0  0  0
    0.6260    1.4510   -0.4010 H   0  0  0  0  0  0  0  0  0  0  0  0
    0.8490    0.3740    2.5140 H   0  0  0  0  0  0  0  0  0  0  0  0
    1.6420   -0.7790   -0.1840 H   0  0  0  0  0  0  0  0  0  0  0  0
   -2.8900    2.2860   -4.1660 O   0  0  0  0  0  0  0  0  0  0  0  0
   -2.7820    1.1120   -3.3980 C   0  0  0  0  0  0  0  0  0  0  0  0
   -1.5780    0.4540   -3.2700 C   0  0  0  0  0  0  0  0  0  0  0  0
   -1.4910   -0.6950   -2.5130 C   0  0  0  0  0  0  0  0  0  0  0  0
   -2.5780   -1.2380   -1.8550 C   0  0  0  0  0  0  0  0  0  0  0  0
   -2.4670   -2.4590   -1.0560 C   0  0  0  0  0  0  0  0  0  0  0  0
   -2.1240   -2.2050    0.3950 C   0  0  2  0  0  0  0  0  0  0  0  0
   -0.8550   -1.5170    0.5340 N   0  0  0  0  0  0  0  0  0  0  0  0
   -1.9300   -3.5620    1.0140 C   0  0  0  0  0  0  0  0  0  0  0  0
   -0.8640   -3.9360    1.5210 O   0  0  0  0  0  0  0  0  0  0  0  0
   -3.7840   -0.5690   -1.9900 C   0  0  0  0  0  0  0  0  0  0  0  0
   -3.8750    0.5830   -2.7480 C   0  0  0  0  0  0  0  0  0  0  0  0
   -2.9960   -4.4750    1.0340 O   0  0  0  0  0  0  0  0  0  0  0  0
   -2.9240    2.1660   -5.1710 H   0  0  0  0  0  0  0  0  0  0  0  0
   -0.7080    0.8640   -3.7800 H   0  0  0  0  0  0  0  0  0  0  0  0
   -0.5560   -1.2110   -2.4110 H   0  0  0  0  0  0  0  0  0  0  0  0
   -1.6840   -3.1680   -1.4420 H   0  0  0  0  0  0  0  0  0  0  0  0
   -3.4190   -3.0310   -1.0620 H   0  0  0  0  0  0  0  0  0  0  0  0
   -2.9290   -1.7270    0.9500 H   0  0  0  0  0  0  0  0  0  0  0  0
   -0.0130   -1.8790    0.0520 H   0  0  0  0  0  0  0  0  0  0  0  0
   -4.6740   -0.9520   -1.4930 H   0  0  0  0  0  0  0  0  0  0  0  0
   -4.8230    1.1000   -2.8470 H   0  0  0  0  0  0  0  0  0  0  0  0
  1  2  1  0  0  0  0
  1  8  1  0  0  0  0
  2  9  1  0  0  0  0
  3 11  1  0  0  0  0
  3  2  1  0  0  0  0
  4  5  1  0  0  0  0
  4  3  1  0  0  0  0
  5 15  1  6  0  0  0
  5  6  1  0  0  0  0
  5  1  1  0  0  0  0
  6  7  2  0  0  0  0
 10  2  1  0  0  0  0
 12  3  1  0  0  0  0
 13  4  1  0  0  0  0
 14  4  1  0  0  0  0
 16 17  1  0  0  0  0
 16 25  1  0  0  0  0
 17 18  1  0  0  0  0
 18 29  1  0  0  0  0
 18 30  1  0  0  0  0
 18 28  1  0  0  0  0
 19 31  1  0  0  0  0
 19 17  1  0  0  0  0
 19 20  1  0  0  0  0
 20 33  1  1  0  0  0
 21 20  1  0  0  0  0
 21  6  1  0  0  0  0
 22 20  1  0  0  0  0
 22 23  2  0  0  0  0
 24 16  1  0  0  0  0
 26 16  1  0  0  0  0
 27 17  1  0  0  0  0
 32 19  1  0  0  0  0
 34 21  1  0  0  0  0
 35 36  1  0  0  0  0
 36 37  2  0  0  0  0
 36 46  1  0  0  0  0
 37 38  1  0  0  0  0
 38 50  1  0  0  0  0
 38 39  2  0  0  0  0
 39 40  1  0  0  0  0
 40 41  1  0  0  0  0
 41 42  1  0  0  0  0
 41 53  1  1  0  0  0
 41 43  1  0  0  0  0
 42 22  1  0  0  0  0
 43 47  2  0  0  0  0
 43 44  1  0  0  0  0
 45 39  1  0  0  0  0
 45 55  1  0  0  0  0
 46 45  2  0  0  0  0
 48 35  1  0  0  0  0
 49 37  1  0  0  0  0
 51 40  1  0  0  0  0
 52 40  1  0  0  0  0
 54 42  1  0  0  0  0
 56 46  1  0  0  0  0
M  END
$$$$
