PMA.pdb
 OpenBabel07022419043D

 43 43  0  0  1  0  0  0  0  0999 V2000
    1.1990   -3.2280    1.7590 N   0  0  0  0  0  0  0  0  0  0  0  0
    0.0330   -3.9790    1.3810 C   0  0  0  0  0  0  0  0  0  0  0  0
    0.5900   -5.1060    0.5510 C   0  0  0  0  0  0  0  0  0  0  0  0
    1.8850   -4.5750   -0.0020 C   0  0  0  0  0  0  0  0  0  0  0  0
    1.9950   -3.1890    0.5660 C   0  0  1  0  0  0  0  0  0  0  0  0
    1.6110   -2.1180   -0.3880 C   0  0  0  0  0  0  0  0  0  0  0  0
    2.2520   -2.1390   -1.4950 O   0  0  0  0  0  0  0  0  0  0  0  0
    0.9780   -2.3380    2.1980 H   0  0  0  0  0  0  0  0  0  0  0  0
   -0.5820   -3.3720    0.7130 H   0  0  0  0  0  0  0  0  0  0  0  0
   -0.5300   -4.3540    2.2690 H   0  0  0  0  0  0  0  0  0  0  0  0
    0.7270   -5.9900    1.2100 H   0  0  0  0  0  0  0  0  0  0  0  0
   -0.0690   -5.3460   -0.3220 H   0  0  0  0  0  0  0  0  0  0  0  0
    1.9030   -4.5830   -1.1130 H   0  0  0  0  0  0  0  0  0  0  0  0
    2.7490   -5.1710    0.4130 H   0  0  0  0  0  0  0  0  0  0  0  0
    3.0750   -3.0130    0.8940 H   0  0  0  0  0  0  0  0  0  0  0  0
   -3.0900    1.6580    1.8840 C   0  0  0  0  0  0  0  0  0  0  0  0
   -1.8920    1.5670    0.5250 S   0  0  0  0  0  0  0  0  0  0  0  0
   -2.1210   -0.0210   -0.3230 C   0  0  0  0  0  0  0  0  0  0  0  0
   -1.1630   -0.1860   -1.4730 C   0  0  0  0  0  0  0  0  0  0  0  0
    0.2740   -0.1360   -1.0470 C   0  0  2  0  0  0  0  0  0  0  0  0
    0.6280   -1.1600   -0.1020 N   0  0  0  0  0  0  0  0  0  0  0  0
    0.5620    1.2070   -0.5090 C   0  0  0  0  0  0  0  0  0  0  0  0
    0.3160    2.2300   -1.1970 O   0  0  0  0  0  0  0  0  0  0  0  0
   -2.7520    0.9880    2.6860 H   0  0  0  0  0  0  0  0  0  0  0  0
   -4.1030    1.3590    1.5550 H   0  0  0  0  0  0  0  0  0  0  0  0
   -3.1270    2.7200    2.2030 H   0  0  0  0  0  0  0  0  0  0  0  0
   -3.1470   -0.0090   -0.7590 H   0  0  0  0  0  0  0  0  0  0  0  0
   -2.0900   -0.8350    0.4010 H   0  0  0  0  0  0  0  0  0  0  0  0
   -1.3320    0.6650   -2.1660 H   0  0  0  0  0  0  0  0  0  0  0  0
   -1.4410   -1.1050   -2.0070 H   0  0  0  0  0  0  0  0  0  0  0  0
    0.8970   -0.2730   -1.9530 H   0  0  0  0  0  0  0  0  0  0  0  0
    0.1280   -1.1510    0.8050 H   0  0  0  0  0  0  0  0  0  0  0  0
    0.6060    2.8720    2.6210 C   0  0  0  0  0  0  0  0  0  0  0  0
    1.4180    2.6750    1.3580 C   0  0  2  0  0  0  0  0  0  0  0  0
    1.1160    1.3960    0.7810 N   0  0  0  0  0  0  0  0  0  0  0  0
    2.8520    2.7990    1.7120 C   0  0  0  0  0  0  0  0  0  0  0  0
    3.6280    1.8320    1.4880 O   0  0  0  0  0  0  0  0  0  0  0  0
    3.3660    3.9340    2.2770 O   0  0  0  0  0  0  0  0  0  0  0  0
   -0.0070    3.8040    2.5770 H   0  0  0  0  0  0  0  0  0  0  0  0
    1.2630    2.9770    3.5220 H   0  0  0  0  0  0  0  0  0  0  0  0
   -0.0350    1.9750    2.8450 H   0  0  0  0  0  0  0  0  0  0  0  0
    1.1600    3.5040    0.6610 H   0  0  0  0  0  0  0  0  0  0  0  0
    1.3150    0.5380    1.3400 H   0  0  0  0  0  0  0  0  0  0  0  0
  1  8  1  0  0  0  0
  2  1  1  0  0  0  0
  2 10  1  0  0  0  0
  3 11  1  0  0  0  0
  3  2  1  0  0  0  0
  4 14  1  0  0  0  0
  4  3  1  0  0  0  0
  4  5  1  0  0  0  0
  5 15  1  1  0  0  0
  5  1  1  0  0  0  0
  6 21  1  0  0  0  0
  6  5  1  0  0  0  0
  7  6  2  0  0  0  0
  9  2  1  0  0  0  0
 12  3  1  0  0  0  0
 13  4  1  0  0  0  0
 16 26  1  0  0  0  0
 16 24  1  0  0  0  0
 17 16  1  0  0  0  0
 18 28  1  0  0  0  0
 18 17  1  0  0  0  0
 19 20  1  0  0  0  0
 19 18  1  0  0  0  0
 20 31  1  6  0  0  0
 20 22  1  0  0  0  0
 20 21  1  0  0  0  0
 21 32  1  0  0  0  0
 22 35  1  0  0  0  0
 23 22  2  0  0  0  0
 25 16  1  0  0  0  0
 27 18  1  0  0  0  0
 29 19  1  0  0  0  0
 30 19  1  0  0  0  0
 33 41  1  0  0  0  0
 33 40  1  0  0  0  0
 34 42  1  6  0  0  0
 34 36  1  0  0  0  0
 34 33  1  0  0  0  0
 35 43  1  0  0  0  0
 35 34  1  0  0  0  0
 36 38  1  0  0  0  0
 37 36  2  0  0  0  0
 39 33  1  0  0  0  0
M  END
$$$$
