PMC.pdb
 OpenBabel07022419043D

 44 44  0  0  1  0  0  0  0  0999 V2000
    1.3550   -4.2160   -1.0360 N   0  0  0  0  0  0  0  0  0  0  0  0
    0.7400   -5.3580   -0.3520 C   0  0  0  0  0  0  0  0  0  0  0  0
    0.5090   -4.7460    1.0330 C   0  0  0  0  0  0  0  0  0  0  0  0
   -0.0990   -3.4080    0.6480 C   0  0  0  0  0  0  0  0  0  0  0  0
    0.4700   -3.1180   -0.7240 C   0  0  1  0  0  0  0  0  0  0  0  0
    1.2130   -1.8350   -0.7650 C   0  0  0  0  0  0  0  0  0  0  0  0
    2.4320   -1.8270   -1.0420 O   0  0  0  0  0  0  0  0  0  0  0  0
    2.3230   -4.0630   -0.6420 H   0  0  0  0  0  0  0  0  0  0  0  0
   -0.2160   -5.5640   -0.8660 H   0  0  0  0  0  0  0  0  0  0  0  0
    1.4090   -6.2230   -0.3140 H   0  0  0  0  0  0  0  0  0  0  0  0
    1.5190   -4.5880    1.4740 H   0  0  0  0  0  0  0  0  0  0  0  0
   -0.1500   -5.3560    1.6540 H   0  0  0  0  0  0  0  0  0  0  0  0
    0.1420   -2.6200    1.3850 H   0  0  0  0  0  0  0  0  0  0  0  0
   -1.1940   -3.5560    0.6310 H   0  0  0  0  0  0  0  0  0  0  0  0
   -0.3540   -3.1390   -1.4530 H   0  0  0  0  0  0  0  0  0  0  0  0
   -2.7660    3.2980   -0.0500 C   0  0  0  0  0  0  0  0  0  0  0  0
   -0.9950    2.8730    0.0240 S   0  0  0  0  0  0  0  0  0  0  0  0
   -0.5700    2.0340   -1.4930 C   0  0  0  0  0  0  0  0  0  0  0  0
    0.8570    1.6120   -1.5990 C   0  0  0  0  0  0  0  0  0  0  0  0
    1.3260    0.6650   -0.5410 C   0  0  2  0  0  0  0  0  0  0  0  0
    0.6080   -0.5780   -0.5020 N   0  0  0  0  0  0  0  0  0  0  0  0
    1.4220    1.2960    0.8090 C   0  0  0  0  0  0  0  0  0  0  0  0
    2.0060    2.3890    1.0140 O   0  0  0  0  0  0  0  0  0  0  0  0
   -3.3280    2.3590    0.0790 H   0  0  0  0  0  0  0  0  0  0  0  0
   -2.9730    3.6330   -1.1070 H   0  0  0  0  0  0  0  0  0  0  0  0
   -3.0350    4.0740    0.6840 H   0  0  0  0  0  0  0  0  0  0  0  0
   -0.8010    2.7180   -2.3380 H   0  0  0  0  0  0  0  0  0  0  0  0
   -1.2880    1.1780   -1.6220 H   0  0  0  0  0  0  0  0  0  0  0  0
    1.4790    2.5300   -1.6340 H   0  0  0  0  0  0  0  0  0  0  0  0
    0.9980    1.1160   -2.5810 H   0  0  0  0  0  0  0  0  0  0  0  0
    2.3750    0.3950   -0.8070 H   0  0  0  0  0  0  0  0  0  0  0  0
   -0.4320   -0.6330   -0.2700 H   0  0  0  0  0  0  0  0  0  0  0  0
    0.8360    0.6580    1.9340 N   0  0  0  0  0  0  0  0  0  0  0  0
    0.8900    1.2110    3.2720 C   0  0  1  0  0  0  0  0  0  0  0  0
   -0.4910    1.4880    3.8220 C   0  0  0  0  0  0  0  0  0  0  0  0
   -1.4940   -0.0020    3.9130 S   0  0  0  0  0  0  0  0  0  0  0  0
    1.6110    0.2900    4.1540 C   0  0  0  0  0  0  0  0  0  0  0  0
    1.8030    0.5250    5.3740 O   0  0  0  0  0  0  0  0  0  0  0  0
    2.1300   -0.9180    3.6730 O   0  0  0  0  0  0  0  0  0  0  0  0
    0.3480   -0.2560    1.7590 H   0  0  0  0  0  0  0  0  0  0  0  0
    1.4430    2.1690    3.2460 H   0  0  0  0  0  0  0  0  0  0  0  0
   -0.3690    1.9660    4.8060 H   0  0  0  0  0  0  0  0  0  0  0  0
   -1.0240    2.2230    3.1650 H   0  0  0  0  0  0  0  0  0  0  0  0
   -2.0330   -0.3280    2.6540 H   0  0  0  0  0  0  0  0  0  0  0  0
  1  5  1  0  0  0  0
  1  8  1  0  0  0  0
  1  2  1  0  0  0  0
  2 10  1  0  0  0  0
  2  3  1  0  0  0  0
  3 11  1  0  0  0  0
  3 12  1  0  0  0  0
  4  3  1  0  0  0  0
  4 13  1  0  0  0  0
  5 15  1  6  0  0  0
  5  4  1  0  0  0  0
  6  5  1  0  0  0  0
  6 21  1  0  0  0  0
  7  6  2  0  0  0  0
  9  2  1  0  0  0  0
 14  4  1  0  0  0  0
 16 17  1  0  0  0  0
 16 24  1  0  0  0  0
 16 26  1  0  0  0  0
 18 17  1  0  0  0  0
 19 18  1  0  0  0  0
 19 20  1  0  0  0  0
 20 31  1  6  0  0  0
 20 21  1  0  0  0  0
 20 22  1  0  0  0  0
 21 32  1  0  0  0  0
 22 23  2  0  0  0  0
 22 33  1  0  0  0  0
 25 16  1  0  0  0  0
 27 18  1  0  0  0  0
 28 18  1  0  0  0  0
 29 19  1  0  0  0  0
 30 19  1  0  0  0  0
 33 34  1  0  0  0  0
 34 41  1  6  0  0  0
 34 35  1  0  0  0  0
 34 37  1  0  0  0  0
 35 36  1  0  0  0  0
 35 42  1  0  0  0  0
 37 38  1  0  0  0  0
 39 37  2  0  0  0  0
 40 33  1  0  0  0  0
 43 35  1  0  0  0  0
 44 36  1  0  0  0  0
M  END
$$$$
