PME.pdb
 OpenBabel07022419043D

 49 49  0  0  1  0  0  0  0  0999 V2000
    3.9340   -1.7900   -2.0390 N   0  0  0  0  0  0  0  0  0  0  0  0
    3.2240   -3.0380   -2.0640 C   0  0  0  0  0  0  0  0  0  0  0  0
    1.7530   -2.7330   -2.1580 C   0  0  0  0  0  0  0  0  0  0  0  0
    1.7850   -1.2780   -2.6370 C   0  0  0  0  0  0  0  0  0  0  0  0
    2.9360   -0.7540   -1.7720 C   0  0  1  0  0  0  0  0  0  0  0  0
    2.5190   -0.8830   -0.3630 C   0  0  0  0  0  0  0  0  0  0  0  0
    3.0100   -1.7850    0.4000 O   0  0  0  0  0  0  0  0  0  0  0  0
    4.3320   -1.5880   -2.9830 H   0  0  0  0  0  0  0  0  0  0  0  0
    3.3910   -3.6290   -1.1300 H   0  0  0  0  0  0  0  0  0  0  0  0
    3.5020   -3.6450   -2.9520 H   0  0  0  0  0  0  0  0  0  0  0  0
    1.2830   -2.7080   -1.1450 H   0  0  0  0  0  0  0  0  0  0  0  0
    1.1920   -3.3880   -2.8200 H   0  0  0  0  0  0  0  0  0  0  0  0
    0.8780   -0.7570   -2.3170 H   0  0  0  0  0  0  0  0  0  0  0  0
    2.0140   -1.2100   -3.7100 H   0  0  0  0  0  0  0  0  0  0  0  0
    3.2640    0.2400   -2.0620 H   0  0  0  0  0  0  0  0  0  0  0  0
    3.5330    2.4930    4.9080 C   0  0  0  0  0  0  0  0  0  0  0  0
    1.7300    2.3750    4.8350 S   0  0  0  0  0  0  0  0  0  0  0  0
    1.2010    0.9130    3.8960 C   0  0  0  0  0  0  0  0  0  0  0  0
    1.5660    0.9980    2.4590 C   0  0  0  0  0  0  0  0  0  0  0  0
    1.1660   -0.1940    1.6700 C   0  0  2  0  0  0  0  0  0  0  0  0
    1.5650   -0.0440    0.2570 N   0  0  0  0  0  0  0  0  0  0  0  0
   -0.2690   -0.5630    1.7370 C   0  0  0  0  0  0  0  0  0  0  0  0
   -0.8940   -0.8060    2.7960 O   0  0  0  0  0  0  0  0  0  0  0  0
    3.9620    3.1410    4.1260 H   0  0  0  0  0  0  0  0  0  0  0  0
    3.7860    2.9780    5.8810 H   0  0  0  0  0  0  0  0  0  0  0  0
    4.0280    1.4900    4.9410 H   0  0  0  0  0  0  0  0  0  0  0  0
    1.7020    0.0340    4.3500 H   0  0  0  0  0  0  0  0  0  0  0  0
    0.0990    0.8110    4.0220 H   0  0  0  0  0  0  0  0  0  0  0  0
    2.6890    1.0770    2.3620 H   0  0  0  0  0  0  0  0  0  0  0  0
    1.1710    1.9520    2.0190 H   0  0  0  0  0  0  0  0  0  0  0  0
    1.7460   -1.0670    2.0770 H   0  0  0  0  0  0  0  0  0  0  0  0
    1.1150    0.7120   -0.2810 H   0  0  0  0  0  0  0  0  0  0  0  0
   -1.0670   -0.6690    0.5420 N   0  0  0  0  0  0  0  0  0  0  0  0
   -2.4850   -1.0310    0.5830 C   0  0  1  0  0  0  0  0  0  0  0  0
   -3.3290    0.0400   -0.0160 C   0  0  0  0  0  0  0  0  0  0  0  0
   -4.7850   -0.3250    0.0520 C   0  0  0  0  0  0  0  0  0  0  0  0
   -5.2550   -0.5200    1.4510 C   0  0  0  0  0  0  0  0  0  0  0  0
   -5.0720   -1.5900    2.0690 O   0  0  0  0  0  0  0  0  0  0  0  0
   -2.6340   -2.3020   -0.1580 C   0  0  0  0  0  0  0  0  0  0  0  0
   -3.6940   -2.9460   -0.3060 O   0  0  0  0  0  0  0  0  0  0  0  0
   -5.9230    0.4900    2.1310 O   0  0  0  0  0  0  0  0  0  0  0  0
   -1.5070   -2.8710   -0.7660 O   0  0  0  0  0  0  0  0  0  0  0  0
   -0.5910   -0.4770   -0.3580 H   0  0  0  0  0  0  0  0  0  0  0  0
   -2.8210   -1.1990    1.6240 H   0  0  0  0  0  0  0  0  0  0  0  0
   -3.0900    0.2430   -1.0840 H   0  0  0  0  0  0  0  0  0  0  0  0
   -3.2190    0.9750    0.6010 H   0  0  0  0  0  0  0  0  0  0  0  0
   -5.4100    0.5320   -0.3690 H   0  0  0  0  0  0  0  0  0  0  0  0
   -5.0830   -1.1810   -0.5710 H   0  0  0  0  0  0  0  0  0  0  0  0
   -6.4020    0.3230    3.0180 H   0  0  0  0  0  0  0  0  0  0  0  0
  1  5  1  0  0  0  0
  2  1  1  0  0  0  0
  2  9  1  0  0  0  0
  3  2  1  0  0  0  0
  3 11  1  0  0  0  0
  4 13  1  0  0  0  0
  4  3  1  0  0  0  0
  4  5  1  0  0  0  0
  5 15  1  6  0  0  0
  5  6  1  0  0  0  0
  6 21  1  0  0  0  0
  6  7  2  0  0  0  0
  8  1  1  0  0  0  0
 10  2  1  0  0  0  0
 12  3  1  0  0  0  0
 14  4  1  0  0  0  0
 16 26  1  0  0  0  0
 16 25  1  0  0  0  0
 17 16  1  0  0  0  0
 18 28  1  0  0  0  0
 18 27  1  0  0  0  0
 18 17  1  0  0  0  0
 19 18  1  0  0  0  0
 20 22  1  0  0  0  0
 20 31  1  1  0  0  0
 20 19  1  0  0  0  0
 21 20  1  0  0  0  0
 22 23  2  0  0  0  0
 24 16  1  0  0  0  0
 29 19  1  0  0  0  0
 30 19  1  0  0  0  0
 32 21  1  0  0  0  0
 33 34  1  0  0  0  0
 33 22  1  0  0  0  0
 34 44  1  1  0  0  0
 35 36  1  0  0  0  0
 35 34  1  0  0  0  0
 35 46  1  0  0  0  0
 36 37  1  0  0  0  0
 37 38  2  0  0  0  0
 37 41  1  0  0  0  0
 39 34  1  0  0  0  0
 40 39  1  0  0  0  0
 41 49  1  0  0  0  0
 42 39  2  0  0  0  0
 43 33  1  0  0  0  0
 45 35  1  0  0  0  0
 47 36  1  0  0  0  0
 48 36  1  0  0  0  0
M  END
$$$$
