PMF.pdb
 OpenBabel07022419053D

 53 54  0  0  1  0  0  0  0  0999 V2000
    4.9680   -0.6040    3.2640 N   0  0  0  0  0  0  0  0  0  0  0  0
    5.4170   -0.4890    4.6370 C   0  0  0  0  0  0  0  0  0  0  0  0
    4.2700    0.1040    5.4180 C   0  0  0  0  0  0  0  0  0  0  0  0
    3.1800    0.3290    4.3610 C   0  0  0  0  0  0  0  0  0  0  0  0
    3.5450   -0.7680    3.3810 C   0  0  1  0  0  0  0  0  0  0  0  0
    2.8490   -0.5910    2.0790 C   0  0  0  0  0  0  0  0  0  0  0  0
    3.4740   -0.3340    1.0370 O   0  0  0  0  0  0  0  0  0  0  0  0
    5.4470   -1.3440    2.7410 H   0  0  0  0  0  0  0  0  0  0  0  0
    6.3110    0.1570    4.7430 H   0  0  0  0  0  0  0  0  0  0  0  0
    5.6460   -1.5230    5.0020 H   0  0  0  0  0  0  0  0  0  0  0  0
    3.8440   -0.6690    6.1040 H   0  0  0  0  0  0  0  0  0  0  0  0
    4.5150    1.0370    5.9400 H   0  0  0  0  0  0  0  0  0  0  0  0
    2.1720    0.2020    4.7780 H   0  0  0  0  0  0  0  0  0  0  0  0
    3.3560    1.3100    3.9010 H   0  0  0  0  0  0  0  0  0  0  0  0
    3.2440   -1.7280    3.8170 H   0  0  0  0  0  0  0  0  0  0  0  0
   -1.3640    2.4550   -0.8110 C   0  0  0  0  0  0  0  0  0  0  0  0
   -0.1490    2.3910    0.5230 S   0  0  0  0  0  0  0  0  0  0  0  0
    1.3960    1.5550   -0.0570 C   0  0  0  0  0  0  0  0  0  0  0  0
    1.0710    0.1320   -0.3320 C   0  0  0  0  0  0  0  0  0  0  0  0
    0.5820   -0.5690    0.9030 C   0  0  2  0  0  0  0  0  0  0  0  0
    1.4510   -0.7120    1.9990 N   0  0  0  0  0  0  0  0  0  0  0  0
   -0.2260   -1.7630    0.6630 C   0  0  0  0  0  0  0  0  0  0  0  0
   -0.0510   -2.7650    1.4340 O   0  0  0  0  0  0  0  0  0  0  0  0
   -2.2790    1.8780   -0.5740 H   0  0  0  0  0  0  0  0  0  0  0  0
   -1.7060    3.5210   -0.9080 H   0  0  0  0  0  0  0  0  0  0  0  0
   -0.9380    2.1530   -1.7960 H   0  0  0  0  0  0  0  0  0  0  0  0
    1.6270    2.1270   -1.0110 H   0  0  0  0  0  0  0  0  0  0  0  0
    2.1930    1.8070    0.6190 H   0  0  0  0  0  0  0  0  0  0  0  0
    1.8670   -0.4190   -0.8710 H   0  0  0  0  0  0  0  0  0  0  0  0
    0.2010    0.1380   -1.0400 H   0  0  0  0  0  0  0  0  0  0  0  0
   -0.1770    0.2460    1.2840 H   0  0  0  0  0  0  0  0  0  0  0  0
    0.9660   -0.9550    2.9290 H   0  0  0  0  0  0  0  0  0  0  0  0
   -1.2020   -1.9060   -0.3660 N   0  0  0  0  0  0  0  0  0  0  0  0
   -1.9440   -3.1390   -0.5120 C   0  0  1  0  0  0  0  0  0  0  0  0
   -3.4300   -2.8360   -0.3420 C   0  0  0  0  0  0  0  0  0  0  0  0
   -3.9040   -1.8670   -1.3580 C   0  0  0  0  0  0  0  0  0  0  0  0
   -3.8490   -0.5010   -1.0880 C   0  0  0  0  0  0  0  0  0  0  0  0
   -4.2920    0.3930   -2.0340 C   0  0  0  0  0  0  0  0  0  0  0  0
   -4.7850   -0.0770   -3.2400 C   0  0  0  0  0  0  0  0  0  0  0  0
   -4.8410   -1.4360   -3.5140 C   0  0  0  0  0  0  0  0  0  0  0  0
   -4.3940   -2.3360   -2.5580 C   0  0  0  0  0  0  0  0  0  0  0  0
   -1.6850   -3.7780   -1.8260 C   0  0  0  0  0  0  0  0  0  0  0  0
   -2.2520   -4.8650   -2.1000 O   0  0  0  0  0  0  0  0  0  0  0  0
   -0.8380   -3.2290   -2.7730 O   0  0  0  0  0  0  0  0  0  0  0  0
   -1.3850   -1.1310   -1.0140 H   0  0  0  0  0  0  0  0  0  0  0  0
   -1.6000   -3.8470    0.2760 H   0  0  0  0  0  0  0  0  0  0  0  0
   -3.5300   -2.4110    0.6820 H   0  0  0  0  0  0  0  0  0  0  0  0
   -4.0310   -3.7660   -0.3640 H   0  0  0  0  0  0  0  0  0  0  0  0
   -3.4580   -0.1640   -0.1350 H   0  0  0  0  0  0  0  0  0  0  0  0
   -4.2740    1.4630   -1.8790 H   0  0  0  0  0  0  0  0  0  0  0  0
   -5.1260    0.6480   -3.9640 H   0  0  0  0  0  0  0  0  0  0  0  0
   -5.2230   -1.8220   -4.4500 H   0  0  0  0  0  0  0  0  0  0  0  0
   -4.4480   -3.3750   -2.7900 H   0  0  0  0  0  0  0  0  0  0  0  0
  1  5  1  0  0  0  0
  1  2  1  0  0  0  0
  2  9  1  0  0  0  0
  2 10  1  0  0  0  0
  2  3  1  0  0  0  0
  3 12  1  0  0  0  0
  3 11  1  0  0  0  0
  4 13  1  0  0  0  0
  4  3  1  0  0  0  0
  5 15  1  1  0  0  0
  5  4  1  0  0  0  0
  6  5  1  0  0  0  0
  7  6  2  0  0  0  0
  8  1  1  0  0  0  0
 14  4  1  0  0  0  0
 16 24  1  0  0  0  0
 16 17  1  0  0  0  0
 18 17  1  0  0  0  0
 18 28  1  0  0  0  0
 19 18  1  0  0  0  0
 19 20  1  0  0  0  0
 20 31  1  1  0  0  0
 20 21  1  0  0  0  0
 21  6  1  0  0  0  0
 21 32  1  0  0  0  0
 22 20  1  0  0  0  0
 22 23  2  0  0  0  0
 25 16  1  0  0  0  0
 26 16  1  0  0  0  0
 27 18  1  0  0  0  0
 29 19  1  0  0  0  0
 30 19  1  0  0  0  0
 33 22  1  0  0  0  0
 34 33  1  0  0  0  0
 34 35  1  0  0  0  0
 34 46  1  1  0  0  0
 35 47  1  0  0  0  0
 36 37  1  0  0  0  0
 36 35  1  0  0  0  0
 37 49  1  0  0  0  0
 38 50  1  0  0  0  0
 38 37  2  0  0  0  0
 39 38  1  0  0  0  0
 40 39  2  0  0  0  0
 40 41  1  0  0  0  0
 41 36  2  0  0  0  0
 42 34  1  0  0  0  0
 43 42  1  0  0  0  0
 44 42  2  0  0  0  0
 45 33  1  0  0  0  0
 48 35  1  0  0  0  0
 51 39  1  0  0  0  0
 52 40  1  0  0  0  0
 53 41  1  0  0  0  0
M  END
$$$$
