PMG.pdb
 OpenBabel07022419043D

 40 40  0  0  1  0  0  0  0  0999 V2000
    3.2370   -3.2940    2.4010 N   0  0  0  0  0  0  0  0  0  0  0  0
    2.3510   -3.9400    3.3500 C   0  0  0  0  0  0  0  0  0  0  0  0
    1.1400   -4.3760    2.5850 C   0  0  0  0  0  0  0  0  0  0  0  0
    1.2510   -3.7830    1.1970 C   0  0  0  0  0  0  0  0  0  0  0  0
    2.4220   -2.8890    1.2870 C   0  0  1  0  0  0  0  0  0  0  0  0
    2.0910   -1.4470    1.4370 C   0  0  0  0  0  0  0  0  0  0  0  0
    2.5520   -0.8600    2.4520 O   0  0  0  0  0  0  0  0  0  0  0  0
    3.6870   -2.4790    2.8730 H   0  0  0  0  0  0  0  0  0  0  0  0
    2.8680   -4.7870    3.8710 H   0  0  0  0  0  0  0  0  0  0  0  0
    2.0850   -3.2170    4.1650 H   0  0  0  0  0  0  0  0  0  0  0  0
    1.1390   -5.4840    2.5670 H   0  0  0  0  0  0  0  0  0  0  0  0
    0.2410   -3.9940    3.1260 H   0  0  0  0  0  0  0  0  0  0  0  0
    0.2900   -3.2850    0.9860 H   0  0  0  0  0  0  0  0  0  0  0  0
    1.4560   -4.6260    0.5020 H   0  0  0  0  0  0  0  0  0  0  0  0
    3.0370   -3.0120    0.3720 H   0  0  0  0  0  0  0  0  0  0  0  0
   -1.1240    0.0560   -2.3190 C   0  0  0  0  0  0  0  0  0  0  0  0
   -0.2210    1.5970   -2.4730 S   0  0  0  0  0  0  0  0  0  0  0  0
    1.4150    1.5790   -1.7380 C   0  0  0  0  0  0  0  0  0  0  0  0
    1.5460    1.5900   -0.2930 C   0  0  0  0  0  0  0  0  0  0  0  0
    0.9790    0.6310    0.6320 C   0  0  2  0  0  0  0  0  0  0  0  0
    1.2940   -0.7430    0.4900 N   0  0  0  0  0  0  0  0  0  0  0  0
   -0.4070    0.8310    1.1250 C   0  0  0  0  0  0  0  0  0  0  0  0
   -1.1580   -0.1770    1.3040 O   0  0  0  0  0  0  0  0  0  0  0  0
   -0.9650   -0.4920   -1.3770 H   0  0  0  0  0  0  0  0  0  0  0  0
   -2.2210    0.1820   -2.4480 H   0  0  0  0  0  0  0  0  0  0  0  0
   -0.7910   -0.6790   -3.1190 H   0  0  0  0  0  0  0  0  0  0  0  0
    1.9690    0.7710   -2.2770 H   0  0  0  0  0  0  0  0  0  0  0  0
    1.9160    2.5050   -2.1890 H   0  0  0  0  0  0  0  0  0  0  0  0
    1.2100    2.6260    0.0470 H   0  0  0  0  0  0  0  0  0  0  0  0
    2.6760    1.7070   -0.0850 H   0  0  0  0  0  0  0  0  0  0  0  0
    1.5460    0.8900    1.6430 H   0  0  0  0  0  0  0  0  0  0  0  0
    0.9830   -1.3610   -0.2990 H   0  0  0  0  0  0  0  0  0  0  0  0
   -0.9760    2.0820    1.4280 N   0  0  0  0  0  0  0  0  0  0  0  0
   -2.3060    2.3290    1.9300 C   0  0  0  0  0  0  0  0  0  0  0  0
   -3.3230    1.8290    0.9860 C   0  0  0  0  0  0  0  0  0  0  0  0
   -3.0760    1.2660   -0.1040 O   0  0  0  0  0  0  0  0  0  0  0  0
   -4.7010    1.9610    1.2680 O   0  0  0  0  0  0  0  0  0  0  0  0
   -0.3260    2.9040    1.2600 H   0  0  0  0  0  0  0  0  0  0  0  0
   -2.4170    1.8310    2.9180 H   0  0  0  0  0  0  0  0  0  0  0  0
   -2.4590    3.4150    2.1100 H   0  0  0  0  0  0  0  0  0  0  0  0
  1  8  1  0  0  0  0
  1  2  1  0  0  0  0
  2  9  1  0  0  0  0
  2 10  1  0  0  0  0
  3 12  1  0  0  0  0
  3  2  1  0  0  0  0
  4  5  1  0  0  0  0
  4  3  1  0  0  0  0
  5 15  1  6  0  0  0
  5  6  1  0  0  0  0
  5  1  1  0  0  0  0
  6  7  2  0  0  0  0
 11  3  1  0  0  0  0
 13  4  1  0  0  0  0
 14  4  1  0  0  0  0
 16 24  1  0  0  0  0
 17 16  1  0  0  0  0
 17 18  1  0  0  0  0
 18 19  1  0  0  0  0
 19 30  1  0  0  0  0
 19 29  1  0  0  0  0
 19 20  1  0  0  0  0
 20 22  1  0  0  0  0
 20 31  1  1  0  0  0
 21 20  1  0  0  0  0
 21  6  1  0  0  0  0
 22 23  2  0  0  0  0
 22 33  1  0  0  0  0
 25 16  1  0  0  0  0
 26 16  1  0  0  0  0
 27 18  1  0  0  0  0
 28 18  1  0  0  0  0
 32 21  1  0  0  0  0
 33 34  1  0  0  0  0
 34 40  1  0  0  0  0
 34 39  1  0  0  0  0
 35 37  1  0  0  0  0
 35 34  1  0  0  0  0
 36 35  2  0  0  0  0
 38 33  1  0  0  0  0
M  END
$$$$
