PML.pdb
 OpenBabel07022419053D

 52 52  0  0  1  0  0  0  0  0999 V2000
   -1.2350   -2.1090    5.3020 N   0  0  0  0  0  0  0  0  0  0  0  0
   -0.6890   -3.0880    6.2060 C   0  0  0  0  0  0  0  0  0  0  0  0
    0.7480   -3.3500    5.8070 C   0  0  0  0  0  0  0  0  0  0  0  0
    0.7330   -2.8430    4.3450 C   0  0  0  0  0  0  0  0  0  0  0  0
   -0.1330   -1.6240    4.5570 C   0  0  1  0  0  0  0  0  0  0  0  0
   -0.4530   -0.8850    3.3360 C   0  0  0  0  0  0  0  0  0  0  0  0
   -1.6600   -0.5720    3.1430 O   0  0  0  0  0  0  0  0  0  0  0  0
   -1.7750   -1.3670    5.7960 H   0  0  0  0  0  0  0  0  0  0  0  0
   -0.7710   -2.6710    7.2410 H   0  0  0  0  0  0  0  0  0  0  0  0
   -1.2830   -4.0290    6.2200 H   0  0  0  0  0  0  0  0  0  0  0  0
    1.0300   -4.4010    5.8570 H   0  0  0  0  0  0  0  0  0  0  0  0
    1.3990   -2.6290    6.3390 H   0  0  0  0  0  0  0  0  0  0  0  0
    0.2330   -3.6420    3.7690 H   0  0  0  0  0  0  0  0  0  0  0  0
    1.7520   -2.5920    4.0310 H   0  0  0  0  0  0  0  0  0  0  0  0
    0.4990   -0.9660    5.2520 H   0  0  0  0  0  0  0  0  0  0  0  0
    3.2120    3.1610   -0.9010 C   0  0  0  0  0  0  0  0  0  0  0  0
    3.6050    2.4690    0.7440 S   0  0  0  0  0  0  0  0  0  0  0  0
    2.6170    0.9420    0.9530 C   0  0  0  0  0  0  0  0  0  0  0  0
    1.1810    1.3710    1.0010 C   0  0  0  0  0  0  0  0  0  0  0  0
    0.2880    0.2110    1.1850 C   0  0  2  0  0  0  0  0  0  0  0  0
    0.5120   -0.5240    2.4030 N   0  0  0  0  0  0  0  0  0  0  0  0
    0.0890   -0.6620    0.0100 C   0  0  0  0  0  0  0  0  0  0  0  0
    0.0340   -1.9090    0.1940 O   0  0  0  0  0  0  0  0  0  0  0  0
    3.1680    2.4090   -1.6900 H   0  0  0  0  0  0  0  0  0  0  0  0
    2.2120    3.6800   -0.8880 H   0  0  0  0  0  0  0  0  0  0  0  0
    3.9390    3.9490   -1.1420 H   0  0  0  0  0  0  0  0  0  0  0  0
    2.8540    0.2810    0.1060 H   0  0  0  0  0  0  0  0  0  0  0  0
    2.8710    0.4950    1.9310 H   0  0  0  0  0  0  0  0  0  0  0  0
    0.9580    1.9900    0.1120 H   0  0  0  0  0  0  0  0  0  0  0  0
    1.1110    2.1110    1.8540 H   0  0  0  0  0  0  0  0  0  0  0  0
   -0.7690    0.6470    1.3440 H   0  0  0  0  0  0  0  0  0  0  0  0
    1.5020   -0.8300    2.6130 H   0  0  0  0  0  0  0  0  0  0  0  0
   -3.7990    0.1570   -3.1150 C   0  0  0  0  0  0  0  0  0  0  0  0
   -2.6090   -0.4260   -2.3770 C   0  0  0  0  0  0  0  0  0  0  0  0
   -2.9460   -1.8120   -1.8720 C   0  0  0  0  0  0  0  0  0  0  0  0
   -1.3860   -0.5420   -3.2580 C   0  0  0  0  0  0  0  0  0  0  0  0
   -0.2680   -1.1160   -2.4390 C   0  0  2  0  0  0  0  0  0  0  0  0
   -0.0470   -0.1900   -1.3080 N   0  0  0  0  0  0  0  0  0  0  0  0
    0.9630   -1.3200   -3.2150 C   0  0  0  0  0  0  0  0  0  0  0  0
    2.0370   -0.7330   -2.8590 O   0  0  0  0  0  0  0  0  0  0  0  0
    1.0650   -2.1170   -4.3280 O   0  0  0  0  0  0  0  0  0  0  0  0
   -3.4830    0.7540   -3.9640 H   0  0  0  0  0  0  0  0  0  0  0  0
   -4.4590   -0.6580   -3.4640 H   0  0  0  0  0  0  0  0  0  0  0  0
   -4.3270    0.8420   -2.3940 H   0  0  0  0  0  0  0  0  0  0  0  0
   -2.4110    0.2210   -1.4870 H   0  0  0  0  0  0  0  0  0  0  0  0
   -2.5130   -1.9290   -0.8530 H   0  0  0  0  0  0  0  0  0  0  0  0
   -4.0530   -1.8420   -1.8090 H   0  0  0  0  0  0  0  0  0  0  0  0
   -2.5240   -2.6180   -2.4990 H   0  0  0  0  0  0  0  0  0  0  0  0
   -1.6040   -1.1070   -4.1890 H   0  0  0  0  0  0  0  0  0  0  0  0
   -1.1180    0.4890   -3.5590 H   0  0  0  0  0  0  0  0  0  0  0  0
   -0.5580   -2.1160   -2.0540 H   0  0  0  0  0  0  0  0  0  0  0  0
    0.0100    0.8160   -1.4850 H   0  0  0  0  0  0  0  0  0  0  0  0
  1  8  1  0  0  0  0
  1  2  1  0  0  0  0
  2 10  1  0  0  0  0
  2  9  1  0  0  0  0
  3 11  1  0  0  0  0
  3  2  1  0  0  0  0
  3 12  1  0  0  0  0
  4  5  1  0  0  0  0
  4  3  1  0  0  0  0
  5 15  1  1  0  0  0
  5  1  1  0  0  0  0
  6  5  1  0  0  0  0
  7  6  2  0  0  0  0
 13  4  1  0  0  0  0
 14  4  1  0  0  0  0
 16 25  1  0  0  0  0
 16 17  1  0  0  0  0
 17 18  1  0  0  0  0
 18 19  1  0  0  0  0
 18 28  1  0  0  0  0
 19 20  1  0  0  0  0
 19 30  1  0  0  0  0
 20 31  1  1  0  0  0
 20 21  1  0  0  0  0
 21 32  1  0  0  0  0
 21  6  1  0  0  0  0
 22 23  2  0  0  0  0
 22 20  1  0  0  0  0
 24 16  1  0  0  0  0
 26 16  1  0  0  0  0
 27 18  1  0  0  0  0
 29 19  1  0  0  0  0
 33 44  1  0  0  0  0
 33 34  1  0  0  0  0
 34 35  1  0  0  0  0
 34 45  1  0  0  0  0
 35 47  1  0  0  0  0
 35 46  1  0  0  0  0
 36 37  1  0  0  0  0
 36 34  1  0  0  0  0
 37 51  1  1  0  0  0
 37 38  1  0  0  0  0
 38 22  1  0  0  0  0
 39 40  1  0  0  0  0
 39 37  1  0  0  0  0
 41 39  2  0  0  0  0
 42 33  1  0  0  0  0
 43 33  1  0  0  0  0
 48 35  1  0  0  0  0
 49 36  1  0  0  0  0
 50 36  1  0  0  0  0
 52 38  1  0  0  0  0
M  END
$$$$
