PMN.pdb
 OpenBabel07022419043D

 47 47  0  0  1  0  0  0  0  0999 V2000
    1.8750   -4.0520    3.5680 N   0  0  0  0  0  0  0  0  0  0  0  0
    2.0680   -4.3650    4.9950 C   0  0  0  0  0  0  0  0  0  0  0  0
    2.3440   -3.0330    5.6610 C   0  0  0  0  0  0  0  0  0  0  0  0
    2.0600   -1.9980    4.5630 C   0  0  0  0  0  0  0  0  0  0  0  0
    1.1910   -2.7980    3.6480 C   0  0  1  0  0  0  0  0  0  0  0  0
    0.9740   -2.1720    2.3190 C   0  0  0  0  0  0  0  0  0  0  0  0
    1.4010   -2.8060    1.3300 O   0  0  0  0  0  0  0  0  0  0  0  0
    1.3040   -4.7810    3.0980 H   0  0  0  0  0  0  0  0  0  0  0  0
    1.0950   -4.8010    5.3220 H   0  0  0  0  0  0  0  0  0  0  0  0
    2.8460   -5.1100    5.1550 H   0  0  0  0  0  0  0  0  0  0  0  0
    1.5620   -2.8940    6.4580 H   0  0  0  0  0  0  0  0  0  0  0  0
    3.3680   -2.9360    6.0440 H   0  0  0  0  0  0  0  0  0  0  0  0
    3.0040   -1.7070    4.0430 H   0  0  0  0  0  0  0  0  0  0  0  0
    1.4910   -1.1440    4.9510 H   0  0  0  0  0  0  0  0  0  0  0  0
    0.1680   -2.8820    4.1120 H   0  0  0  0  0  0  0  0  0  0  0  0
    3.0310    0.3060   -2.7680 C   0  0  0  0  0  0  0  0  0  0  0  0
    3.4860   -0.7190   -1.3160 S   0  0  0  0  0  0  0  0  0  0  0  0
    2.4580   -0.2140    0.1140 C   0  0  0  0  0  0  0  0  0  0  0  0
    1.0470   -0.5740   -0.1910 C   0  0  0  0  0  0  0  0  0  0  0  0
    0.0770   -0.2300    0.9300 C   0  0  2  0  0  0  0  0  0  0  0  0
    0.3230   -0.9310    2.1550 N   0  0  0  0  0  0  0  0  0  0  0  0
   -1.2930   -0.2140    0.4720 C   0  0  0  0  0  0  0  0  0  0  0  0
   -2.1540   -0.8600    1.1530 O   0  0  0  0  0  0  0  0  0  0  0  0
    3.6510    0.0290   -3.6430 H   0  0  0  0  0  0  0  0  0  0  0  0
    1.9760    0.1820   -3.0400 H   0  0  0  0  0  0  0  0  0  0  0  0
    3.2060    1.3910   -2.5180 H   0  0  0  0  0  0  0  0  0  0  0  0
    2.5680    0.8940    0.2730 H   0  0  0  0  0  0  0  0  0  0  0  0
    2.8330   -0.7020    1.0030 H   0  0  0  0  0  0  0  0  0  0  0  0
    0.9300   -1.6060   -0.5660 H   0  0  0  0  0  0  0  0  0  0  0  0
    0.7200    0.0730   -1.0640 H   0  0  0  0  0  0  0  0  0  0  0  0
    0.3950    0.8470    1.1590 H   0  0  0  0  0  0  0  0  0  0  0  0
   -0.0060   -0.5030    3.0860 H   0  0  0  0  0  0  0  0  0  0  0  0
   -3.4040    4.2610   -1.6220 N   0  0  0  0  0  0  0  0  0  0  0  0
   -2.9700    2.9120   -1.7170 C   0  0  0  0  0  0  0  0  0  0  0  0
   -1.9900    2.6840   -2.4650 O   0  0  0  0  0  0  0  0  0  0  0  0
   -3.6690    1.8630   -0.9580 C   0  0  0  0  0  0  0  0  0  0  0  0
   -3.1040    0.4810   -1.1320 C   0  0  2  0  0  0  0  0  0  0  0  0
   -1.7260    0.4750   -0.6830 N   0  0  0  0  0  0  0  0  0  0  0  0
   -3.2720   -0.0740   -2.4720 C   0  0  0  0  0  0  0  0  0  0  0  0
   -4.4060   -0.1340   -2.9930 O   0  0  0  0  0  0  0  0  0  0  0  0
   -2.1950   -0.5460   -3.2010 O   0  0  0  0  0  0  0  0  0  0  0  0
   -3.0080    4.8630   -0.8750 H   0  0  0  0  0  0  0  0  0  0  0  0
   -4.1180    4.6790   -2.2850 H   0  0  0  0  0  0  0  0  0  0  0  0
   -3.5510    2.1020    0.1400 H   0  0  0  0  0  0  0  0  0  0  0  0
   -4.7680    1.8900   -1.1330 H   0  0  0  0  0  0  0  0  0  0  0  0
   -3.6670   -0.1620   -0.3890 H   0  0  0  0  0  0  0  0  0  0  0  0
   -1.0180    1.0030   -1.2290 H   0  0  0  0  0  0  0  0  0  0  0  0
  1  5  1  0  0  0  0
  1  2  1  0  0  0  0
  2 10  1  0  0  0  0
  2  9  1  0  0  0  0
  2  3  1  0  0  0  0
  3 12  1  0  0  0  0
  3 11  1  0  0  0  0
  4 14  1  0  0  0  0
  4  3  1  0  0  0  0
  5 15  1  1  0  0  0
  5  4  1  0  0  0  0
  6  5  1  0  0  0  0
  7  6  2  0  0  0  0
  8  1  1  0  0  0  0
 13  4  1  0  0  0  0
 16 26  1  0  0  0  0
 16 17  1  0  0  0  0
 17 18  1  0  0  0  0
 18 27  1  0  0  0  0
 18 28  1  0  0  0  0
 19 18  1  0  0  0  0
 19 20  1  0  0  0  0
 20 31  1  1  0  0  0
 20 21  1  0  0  0  0
 21  6  1  0  0  0  0
 21 32  1  0  0  0  0
 22 20  1  0  0  0  0
 22 23  2  0  0  0  0
 24 16  1  0  0  0  0
 25 16  1  0  0  0  0
 29 19  1  0  0  0  0
 30 19  1  0  0  0  0
 33 42  1  0  0  0  0
 34 33  1  0  0  0  0
 34 36  1  0  0  0  0
 35 34  2  0  0  0  0
 36 44  1  0  0  0  0
 37 36  1  0  0  0  0
 37 38  1  0  0  0  0
 37 46  1  1  0  0  0
 38 22  1  0  0  0  0
 39 37  1  0  0  0  0
 40 39  1  0  0  0  0
 41 39  2  0  0  0  0
 43 33  1  0  0  0  0
 45 36  1  0  0  0  0
 47 38  1  0  0  0  0
M  END
$$$$
