PMP.pdb
 OpenBabel07022419053D

 47 48  0  0  1  0  0  0  0  0999 V2000
    3.4770   -3.1750    1.5160 N   0  0  0  0  0  0  0  0  0  0  0  0
    3.4650   -4.6260    1.2730 C   0  0  0  0  0  0  0  0  0  0  0  0
    1.9930   -4.9670    1.4140 C   0  0  0  0  0  0  0  0  0  0  0  0
    1.2990   -3.6740    0.9870 C   0  0  0  0  0  0  0  0  0  0  0  0
    2.4210   -2.7360    0.5990 C   0  0  1  0  0  0  0  0  0  0  0  0
    2.0930   -1.3190    0.8330 C   0  0  0  0  0  0  0  0  0  0  0  0
    2.7180   -0.7070    1.7680 O   0  0  0  0  0  0  0  0  0  0  0  0
    3.0650   -3.0510    2.4820 H   0  0  0  0  0  0  0  0  0  0  0  0
    3.7370   -4.8300    0.2060 H   0  0  0  0  0  0  0  0  0  0  0  0
    4.1020   -5.1660    1.9890 H   0  0  0  0  0  0  0  0  0  0  0  0
    1.7460   -5.2250    2.4700 H   0  0  0  0  0  0  0  0  0  0  0  0
    1.7140   -5.8180    0.7890 H   0  0  0  0  0  0  0  0  0  0  0  0
    0.5990   -3.8840    0.1570 H   0  0  0  0  0  0  0  0  0  0  0  0
    0.7510   -3.2880    1.8870 H   0  0  0  0  0  0  0  0  0  0  0  0
    2.6890   -2.9640   -0.4510 H   0  0  0  0  0  0  0  0  0  0  0  0
    0.0740    4.1270   -3.0070 C   0  0  0  0  0  0  0  0  0  0  0  0
    0.5790    2.4440   -3.3780 S   0  0  0  0  0  0  0  0  0  0  0  0
    0.2210    1.3090   -2.0080 C   0  0  0  0  0  0  0  0  0  0  0  0
    1.0900    1.6960   -0.8380 C   0  0  0  0  0  0  0  0  0  0  0  0
    0.8570    0.7950    0.3590 C   0  0  2  0  0  0  0  0  0  0  0  0
    1.1320   -0.5700    0.0980 N   0  0  0  0  0  0  0  0  0  0  0  0
   -0.4230    1.1260    1.0130 C   0  0  0  0  0  0  0  0  0  0  0  0
   -0.6660    2.4010    1.1480 O   0  0  0  0  0  0  0  0  0  0  0  0
   -0.1610    4.6410   -3.9730 H   0  0  0  0  0  0  0  0  0  0  0  0
   -0.8280    4.1870   -2.3940 H   0  0  0  0  0  0  0  0  0  0  0  0
    0.9070    4.7280   -2.5430 H   0  0  0  0  0  0  0  0  0  0  0  0
    0.5030    0.2900   -2.3350 H   0  0  0  0  0  0  0  0  0  0  0  0
   -0.8550    1.3940   -1.7880 H   0  0  0  0  0  0  0  0  0  0  0  0
    0.8890    2.7350   -0.5170 H   0  0  0  0  0  0  0  0  0  0  0  0
    2.1460    1.6560   -1.1720 H   0  0  0  0  0  0  0  0  0  0  0  0
    1.6450    1.1460    1.1140 H   0  0  0  0  0  0  0  0  0  0  0  0
    0.6450   -1.1000   -0.6840 H   0  0  0  0  0  0  0  0  0  0  0  0
   -1.4110    0.2860    1.5100 N   0  0  0  0  0  0  0  0  0  0  0  0
   -1.5010   -1.1570    1.5630 C   0  0  0  0  0  0  0  0  0  0  0  0
   -2.9430   -1.3360    1.0610 C   0  0  0  0  0  0  0  0  0  0  0  0
   -3.6620   -0.3380    1.9440 C   0  0  0  0  0  0  0  0  0  0  0  0
   -2.6590    0.7670    2.1290 C   0  0  1  0  0  0  0  0  0  0  0  0
   -2.4270    1.0010    3.5770 C   0  0  0  0  0  0  0  0  0  0  0  0
   -1.3090    0.7950    4.1080 O   0  0  0  0  0  0  0  0  0  0  0  0
   -3.4630    1.4560    4.3550 O   0  0  0  0  0  0  0  0  0  0  0  0
   -0.7920   -1.7050    0.9750 H   0  0  0  0  0  0  0  0  0  0  0  0
   -1.4960   -1.4320    2.6420 H   0  0  0  0  0  0  0  0  0  0  0  0
   -2.9760   -0.9590    0.0330 H   0  0  0  0  0  0  0  0  0  0  0  0
   -3.2970   -2.3580    1.1960 H   0  0  0  0  0  0  0  0  0  0  0  0
   -3.8670   -0.8690    2.9140 H   0  0  0  0  0  0  0  0  0  0  0  0
   -4.6120    0.0050    1.4940 H   0  0  0  0  0  0  0  0  0  0  0  0
   -3.0400    1.6590    1.6000 H   0  0  0  0  0  0  0  0  0  0  0  0
  1  8  1  0  0  0  0
  2  3  1  0  0  0  0
  2  1  1  0  0  0  0
  2 10  1  0  0  0  0
  3 11  1  0  0  0  0
  4  3  1  0  0  0  0
  4 14  1  0  0  0  0
  5 15  1  6  0  0  0
  5  6  1  0  0  0  0
  5  4  1  0  0  0  0
  5  1  1  0  0  0  0
  6  7  2  0  0  0  0
  9  2  1  0  0  0  0
 12  3  1  0  0  0  0
 13  4  1  0  0  0  0
 16 26  1  0  0  0  0
 16 25  1  0  0  0  0
 17 16  1  0  0  0  0
 17 18  1  0  0  0  0
 18 28  1  0  0  0  0
 18 19  1  0  0  0  0
 19 29  1  0  0  0  0
 19 20  1  0  0  0  0
 20 22  1  0  0  0  0
 20 31  1  1  0  0  0
 21 20  1  0  0  0  0
 21  6  1  0  0  0  0
 22 23  2  0  0  0  0
 22 33  1  0  0  0  0
 24 16  1  0  0  0  0
 27 18  1  0  0  0  0
 30 19  1  0  0  0  0
 32 21  1  0  0  0  0
 33 34  1  0  0  0  0
 33 37  1  0  0  0  0
 34 42  1  0  0  0  0
 35 44  1  0  0  0  0
 35 34  1  0  0  0  0
 35 36  1  0  0  0  0
 36 37  1  0  0  0  0
 36 45  1  0  0  0  0
 37 47  1  6  0  0  0
 37 38  1  0  0  0  0
 38 39  2  0  0  0  0
 38 40  1  0  0  0  0
 41 34  1  0  0  0  0
 43 35  1  0  0  0  0
 46 36  1  0  0  0  0
M  END
$$$$
