PMS.pdb
 OpenBabel07022419053D

 44 44  0  0  1  0  0  0  0  0999 V2000
   -0.4940   -3.1910   -0.4500 N   0  0  0  0  0  0  0  0  0  0  0  0
   -0.7690   -4.3560   -1.3220 C   0  0  0  0  0  0  0  0  0  0  0  0
    0.5390   -4.3930   -2.0870 C   0  0  0  0  0  0  0  0  0  0  0  0
    1.5590   -4.2310   -0.9830 C   0  0  0  0  0  0  0  0  0  0  0  0
    0.8330   -3.5020    0.0980 C   0  0  1  0  0  0  0  0  0  0  0  0
    1.4880   -2.2720    0.5730 C   0  0  0  0  0  0  0  0  0  0  0  0
    2.6390   -2.3780    1.0690 O   0  0  0  0  0  0  0  0  0  0  0  0
   -0.3060   -2.4200   -1.1630 H   0  0  0  0  0  0  0  0  0  0  0  0
   -0.8880   -5.2600   -0.6760 H   0  0  0  0  0  0  0  0  0  0  0  0
   -1.6420   -4.1370   -1.9370 H   0  0  0  0  0  0  0  0  0  0  0  0
    0.5570   -3.5070   -2.7470 H   0  0  0  0  0  0  0  0  0  0  0  0
    0.6660   -5.3410   -2.6400 H   0  0  0  0  0  0  0  0  0  0  0  0
    1.8160   -5.2690   -0.6450 H   0  0  0  0  0  0  0  0  0  0  0  0
    2.4740   -3.7130   -1.3340 H   0  0  0  0  0  0  0  0  0  0  0  0
    0.6910   -4.1840    0.9860 H   0  0  0  0  0  0  0  0  0  0  0  0
    1.4040    4.0210   -1.8230 C   0  0  0  0  0  0  0  0  0  0  0  0
    2.9640    3.4710   -1.0830 S   0  0  0  0  0  0  0  0  0  0  0  0
    2.5420    2.3910    0.3410 C   0  0  0  0  0  0  0  0  0  0  0  0
    1.8770    1.1350   -0.1500 C   0  0  0  0  0  0  0  0  0  0  0  0
    1.5590    0.2280    0.9800 C   0  0  2  0  0  0  0  0  0  0  0  0
    0.9130   -1.0050    0.5080 N   0  0  0  0  0  0  0  0  0  0  0  0
    0.7560    0.8060    2.0710 C   0  0  0  0  0  0  0  0  0  0  0  0
    1.1220    1.8270    2.6870 O   0  0  0  0  0  0  0  0  0  0  0  0
    0.9290    3.1650   -2.3430 H   0  0  0  0  0  0  0  0  0  0  0  0
    1.5670    4.8870   -2.5050 H   0  0  0  0  0  0  0  0  0  0  0  0
    0.6840    4.3790   -1.0600 H   0  0  0  0  0  0  0  0  0  0  0  0
    1.8420    3.0190    0.9440 H   0  0  0  0  0  0  0  0  0  0  0  0
    3.4520    2.2370    0.9200 H   0  0  0  0  0  0  0  0  0  0  0  0
    2.6150    0.6150   -0.8000 H   0  0  0  0  0  0  0  0  0  0  0  0
    0.9840    1.4650   -0.7260 H   0  0  0  0  0  0  0  0  0  0  0  0
    2.5420   -0.1120    1.4050 H   0  0  0  0  0  0  0  0  0  0  0  0
   -0.0360   -0.8830    0.1060 H   0  0  0  0  0  0  0  0  0  0  0  0
   -3.4150    0.0990    2.5990 O   0  0  0  0  0  0  0  0  0  0  0  0
   -2.6880    1.1380    3.1210 C   0  0  0  0  0  0  0  0  0  0  0  0
   -1.3040    0.7600    3.5450 C   0  0  2  0  0  0  0  0  0  0  0  0
   -0.4850    0.2470    2.4990 N   0  0  0  0  0  0  0  0  0  0  0  0
   -1.4200   -0.1910    4.6860 C   0  0  0  0  0  0  0  0  0  0  0  0
   -0.8510   -1.3110    4.6980 O   0  0  0  0  0  0  0  0  0  0  0  0
   -2.1850    0.1580    5.7890 O   0  0  0  0  0  0  0  0  0  0  0  0
   -3.5880    0.1630    1.6300 H   0  0  0  0  0  0  0  0  0  0  0  0
   -3.2310    1.4770    4.0490 H   0  0  0  0  0  0  0  0  0  0  0  0
   -2.6780    2.0480    2.4610 H   0  0  0  0  0  0  0  0  0  0  0  0
   -0.8400    1.6870    3.9880 H   0  0  0  0  0  0  0  0  0  0  0  0
   -0.8060   -0.6120    1.9920 H   0  0  0  0  0  0  0  0  0  0  0  0
  1  5  1  0  0  0  0
  2  9  1  0  0  0  0
  2  1  1  0  0  0  0
  3  2  1  0  0  0  0
  3  4  1  0  0  0  0
  4 13  1  0  0  0  0
  4  5  1  0  0  0  0
  5  6  1  0  0  0  0
  5 15  1  1  0  0  0
  6  7  2  0  0  0  0
  8  1  1  0  0  0  0
 10  2  1  0  0  0  0
 11  3  1  0  0  0  0
 12  3  1  0  0  0  0
 14  4  1  0  0  0  0
 16 17  1  0  0  0  0
 16 26  1  0  0  0  0
 17 18  1  0  0  0  0
 18 28  1  0  0  0  0
 18 27  1  0  0  0  0
 19 18  1  0  0  0  0
 19 20  1  0  0  0  0
 20 31  1  1  0  0  0
 20 22  1  0  0  0  0
 21  6  1  0  0  0  0
 21 20  1  0  0  0  0
 22 36  1  0  0  0  0
 22 23  2  0  0  0  0
 24 16  1  0  0  0  0
 25 16  1  0  0  0  0
 29 19  1  0  0  0  0
 30 19  1  0  0  0  0
 32 21  1  0  0  0  0
 33 34  1  0  0  0  0
 34 35  1  0  0  0  0
 34 41  1  0  0  0  0
 35 43  1  1  0  0  0
 35 37  1  0  0  0  0
 36 35  1  0  0  0  0
 37 38  2  0  0  0  0
 37 39  1  0  0  0  0
 40 33  1  0  0  0  0
 42 34  1  0  0  0  0
 44 36  1  0  0  0  0
M  END
$$$$
