PMV.pdb
 OpenBabel07022419053D

 49 49  0  0  1  0  0  0  0  0999 V2000
    1.2460   -2.7630   -1.6360 N   0  0  0  0  0  0  0  0  0  0  0  0
    1.8190   -3.7220   -2.5600 C   0  0  0  0  0  0  0  0  0  0  0  0
    3.2900   -3.8110   -2.2780 C   0  0  0  0  0  0  0  0  0  0  0  0
    3.4460   -2.9690   -1.0100 C   0  0  0  0  0  0  0  0  0  0  0  0
    2.0160   -2.9590   -0.4510 C   0  0  1  0  0  0  0  0  0  0  0  0
    1.8510   -1.9210    0.5710 C   0  0  0  0  0  0  0  0  0  0  0  0
    2.5180   -2.0380    1.6510 O   0  0  0  0  0  0  0  0  0  0  0  0
    0.2510   -3.0180   -1.4140 H   0  0  0  0  0  0  0  0  0  0  0  0
    1.3260   -4.7190   -2.3840 H   0  0  0  0  0  0  0  0  0  0  0  0
    1.6410   -3.3920   -3.6010 H   0  0  0  0  0  0  0  0  0  0  0  0
    3.9330   -3.3800   -3.0670 H   0  0  0  0  0  0  0  0  0  0  0  0
    3.5530   -4.8780   -2.0770 H   0  0  0  0  0  0  0  0  0  0  0  0
    4.1400   -3.5030   -0.3510 H   0  0  0  0  0  0  0  0  0  0  0  0
    3.7770   -1.9450   -1.2600 H   0  0  0  0  0  0  0  0  0  0  0  0
    1.8750   -4.0050   -0.0490 H   0  0  0  0  0  0  0  0  0  0  0  0
    3.5870    4.1870    1.5040 C   0  0  0  0  0  0  0  0  0  0  0  0
    3.5000    3.0240    0.1160 S   0  0  0  0  0  0  0  0  0  0  0  0
    2.8340    1.4550    0.6620 C   0  0  0  0  0  0  0  0  0  0  0  0
    1.3950    1.5430    1.0940 C   0  0  0  0  0  0  0  0  0  0  0  0
    0.9170    0.1790    1.5380 C   0  0  2  0  0  0  0  0  0  0  0  0
    1.0150   -0.7950    0.4720 N   0  0  0  0  0  0  0  0  0  0  0  0
   -0.4780    0.2500    2.0820 C   0  0  0  0  0  0  0  0  0  0  0  0
   -0.7370    1.0530    3.0120 O   0  0  0  0  0  0  0  0  0  0  0  0
    4.1510    5.0810    1.2160 H   0  0  0  0  0  0  0  0  0  0  0  0
    4.0080    3.7190    2.4160 H   0  0  0  0  0  0  0  0  0  0  0  0
    2.5540    4.4890    1.7390 H   0  0  0  0  0  0  0  0  0  0  0  0
    3.4210    1.1140    1.5620 H   0  0  0  0  0  0  0  0  0  0  0  0
    2.9240    0.6910   -0.1390 H   0  0  0  0  0  0  0  0  0  0  0  0
    0.7900    1.9630    0.2780 H   0  0  0  0  0  0  0  0  0  0  0  0
    1.2890    2.2290    1.9620 H   0  0  0  0  0  0  0  0  0  0  0  0
    1.5960   -0.1470    2.3490 H   0  0  0  0  0  0  0  0  0  0  0  0
    0.4550   -0.6690   -0.3990 H   0  0  0  0  0  0  0  0  0  0  0  0
   -3.5720    1.1590    0.3920 C   0  0  0  0  0  0  0  0  0  0  0  0
   -3.8720   -0.2180    0.9650 C   0  0  0  0  0  0  0  0  0  0  0  0
   -5.2600   -0.1610    1.5610 C   0  0  0  0  0  0  0  0  0  0  0  0
   -2.8830   -0.5470    2.0580 C   0  0  2  0  0  0  0  0  0  0  0  0
   -1.5220   -0.5570    1.5880 N   0  0  0  0  0  0  0  0  0  0  0  0
   -3.2090   -1.8770    2.6370 C   0  0  0  0  0  0  0  0  0  0  0  0
   -4.3530   -2.1150    3.1120 O   0  0  0  0  0  0  0  0  0  0  0  0
   -2.2910   -2.9180    2.6880 O   0  0  0  0  0  0  0  0  0  0  0  0
   -4.3960    1.5060   -0.2650 H   0  0  0  0  0  0  0  0  0  0  0  0
   -2.6810    1.0770   -0.2920 H   0  0  0  0  0  0  0  0  0  0  0  0
   -3.4300    1.9100    1.1690 H   0  0  0  0  0  0  0  0  0  0  0  0
   -3.8940   -0.9910    0.1820 H   0  0  0  0  0  0  0  0  0  0  0  0
   -5.8070    0.6740    1.0990 H   0  0  0  0  0  0  0  0  0  0  0  0
   -5.7950   -1.1310    1.4560 H   0  0  0  0  0  0  0  0  0  0  0  0
   -5.1310    0.1080    2.6460 H   0  0  0  0  0  0  0  0  0  0  0  0
   -3.0470    0.1860    2.8730 H   0  0  0  0  0  0  0  0  0  0  0  0
   -1.2730   -1.2190    0.8110 H   0  0  0  0  0  0  0  0  0  0  0  0
  1  8  1  0  0  0  0
  1  5  1  0  0  0  0
  2  9  1  0  0  0  0
  2  3  1  0  0  0  0
  2  1  1  0  0  0  0
  3 12  1  0  0  0  0
  3  4  1  0  0  0  0
  4  5  1  0  0  0  0
  4 13  1  0  0  0  0
  5 15  1  1  0  0  0
  5  6  1  0  0  0  0
  6  7  2  0  0  0  0
 10  2  1  0  0  0  0
 11  3  1  0  0  0  0
 14  4  1  0  0  0  0
 16 26  1  0  0  0  0
 16 25  1  0  0  0  0
 17 18  1  0  0  0  0
 17 16  1  0  0  0  0
 18 19  1  0  0  0  0
 18 27  1  0  0  0  0
 19 20  1  0  0  0  0
 19 30  1  0  0  0  0
 20 22  1  0  0  0  0
 20 31  1  1  0  0  0
 21  6  1  0  0  0  0
 21 20  1  0  0  0  0
 22 23  2  0  0  0  0
 24 16  1  0  0  0  0
 28 18  1  0  0  0  0
 29 19  1  0  0  0  0
 32 21  1  0  0  0  0
 33 34  1  0  0  0  0
 33 43  1  0  0  0  0
 34 35  1  0  0  0  0
 34 36  1  0  0  0  0
 35 47  1  0  0  0  0
 36 38  1  0  0  0  0
 36 48  1  1  0  0  0
 37 36  1  0  0  0  0
 37 22  1  0  0  0  0
 38 40  2  0  0  0  0
 38 39  1  0  0  0  0
 41 33  1  0  0  0  0
 42 33  1  0  0  0  0
 44 34  1  0  0  0  0
 45 35  1  0  0  0  0
 46 35  1  0  0  0  0
 49 37  1  0  0  0  0
M  END
$$$$
