PNE.pdb
 OpenBabel07022419023D

 46 46  0  0  1  0  0  0  0  0999 V2000
    3.5310   -2.6940   -0.4890 N   0  0  0  0  0  0  0  0  0  0  0  0
    3.9480   -4.0710   -0.2710 C   0  0  0  0  0  0  0  0  0  0  0  0
    3.5070   -4.4410    1.1080 C   0  0  0  0  0  0  0  0  0  0  0  0
    2.8690   -3.1770    1.6410 C   0  0  0  0  0  0  0  0  0  0  0  0
    2.3780   -2.5090    0.3790 C   0  0  1  0  0  0  0  0  0  0  0  0
    2.1600   -1.0460    0.5660 C   0  0  0  0  0  0  0  0  0  0  0  0
    2.9450   -0.2320    0.0310 O   0  0  0  0  0  0  0  0  0  0  0  0
    3.1820   -2.6480   -1.4920 H   0  0  0  0  0  0  0  0  0  0  0  0
    3.4830   -4.7500   -1.0390 H   0  0  0  0  0  0  0  0  0  0  0  0
    5.0400   -4.1850   -0.3690 H   0  0  0  0  0  0  0  0  0  0  0  0
    4.3460   -4.7460    1.7660 H   0  0  0  0  0  0  0  0  0  0  0  0
    2.7940   -5.2890    1.1000 H   0  0  0  0  0  0  0  0  0  0  0  0
    3.6670   -2.5760    2.1330 H   0  0  0  0  0  0  0  0  0  0  0  0
    2.0460   -3.4600    2.3020 H   0  0  0  0  0  0  0  0  0  0  0  0
    1.5430   -3.0580   -0.0310 H   0  0  0  0  0  0  0  0  0  0  0  0
    3.4810    3.0840    0.4730 N   0  0  0  0  0  0  0  0  0  0  0  0
    2.7310    2.1660    1.2750 C   0  0  0  0  0  0  0  0  0  0  0  0
    3.3900    1.5820    2.1810 O   0  0  0  0  0  0  0  0  0  0  0  0
    1.2970    1.9750    0.9960 C   0  0  0  0  0  0  0  0  0  0  0  0
    0.7110    0.7690    1.6630 C   0  0  2  0  0  0  0  0  0  0  0  0
    1.1090   -0.5150    1.3200 N   0  0  0  0  0  0  0  0  0  0  0  0
   -0.7240    0.8820    1.8910 C   0  0  0  0  0  0  0  0  0  0  0  0
   -1.1370    2.0290    2.3010 O   0  0  0  0  0  0  0  0  0  0  0  0
    3.1540    3.2850   -0.4960 H   0  0  0  0  0  0  0  0  0  0  0  0
    4.3410    3.5710    0.7960 H   0  0  0  0  0  0  0  0  0  0  0  0
    1.0550    2.0390   -0.0840 H   0  0  0  0  0  0  0  0  0  0  0  0
    0.7700    2.8580    1.4480 H   0  0  0  0  0  0  0  0  0  0  0  0
    1.2060    0.9160    2.7330 H   0  0  0  0  0  0  0  0  0  0  0  0
    0.4690   -1.2970    1.7360 H   0  0  0  0  0  0  0  0  0  0  0  0
   -1.7230   -0.0830    1.7250 N   0  0  0  0  0  0  0  0  0  0  0  0
   -3.1370    0.1670    1.9970 C   0  0  1  0  0  0  0  0  0  0  0  0
   -3.8580    0.0870    0.6670 C   0  0  0  0  0  0  0  0  0  0  0  0
   -3.3050    1.1320   -0.2780 C   0  0  0  0  0  0  0  0  0  0  0  0
   -4.0540    1.0060   -1.5530 C   0  0  0  0  0  0  0  0  0  0  0  0
   -4.9540    0.1530   -1.7260 O   0  0  0  0  0  0  0  0  0  0  0  0
   -3.6560   -0.8020    2.9720 C   0  0  0  0  0  0  0  0  0  0  0  0
   -2.8960   -1.6950    3.4230 O   0  0  0  0  0  0  0  0  0  0  0  0
   -3.7380    1.8710   -2.5860 O   0  0  0  0  0  0  0  0  0  0  0  0
   -4.9640   -0.7950    3.4390 O   0  0  0  0  0  0  0  0  0  0  0  0
   -1.4610   -1.0250    1.3890 H   0  0  0  0  0  0  0  0  0  0  0  0
   -3.3050    1.1850    2.3750 H   0  0  0  0  0  0  0  0  0  0  0  0
   -4.9420    0.2090    0.7580 H   0  0  0  0  0  0  0  0  0  0  0  0
   -3.6530   -0.9030    0.1990 H   0  0  0  0  0  0  0  0  0  0  0  0
   -2.2370    0.9770   -0.4940 H   0  0  0  0  0  0  0  0  0  0  0  0
   -3.4670    2.1400    0.1650 H   0  0  0  0  0  0  0  0  0  0  0  0
   -3.8750    1.6230   -3.5720 H   0  0  0  0  0  0  0  0  0  0  0  0
  1  2  1  0  0  0  0
  1  5  1  0  0  0  0
  2  3  1  0  0  0  0
  3  4  1  0  0  0  0
  3 11  1  0  0  0  0
  4 13  1  0  0  0  0
  4 14  1  0  0  0  0
  5 15  1  6  0  0  0
  5  6  1  0  0  0  0
  5  4  1  0  0  0  0
  6 21  1  0  0  0  0
  7  6  2  0  0  0  0
  8  1  1  0  0  0  0
  9  2  1  0  0  0  0
 10  2  1  0  0  0  0
 12  3  1  0  0  0  0
 16 25  1  0  0  0  0
 16 17  1  0  0  0  0
 17 18  2  0  0  0  0
 19 17  1  0  0  0  0
 19 27  1  0  0  0  0
 19 20  1  0  0  0  0
 20 22  1  0  0  0  0
 20 28  1  1  0  0  0
 21 20  1  0  0  0  0
 21 29  1  0  0  0  0
 22 23  2  0  0  0  0
 24 16  1  0  0  0  0
 26 19  1  0  0  0  0
 30 22  1  0  0  0  0
 30 31  1  0  0  0  0
 31 41  1  1  0  0  0
 31 36  1  0  0  0  0
 32 42  1  0  0  0  0
 32 31  1  0  0  0  0
 33 45  1  0  0  0  0
 33 32  1  0  0  0  0
 34 33  1  0  0  0  0
 35 34  2  0  0  0  0
 36 37  2  0  0  0  0
 36 39  1  0  0  0  0
 38 34  1  0  0  0  0
 40 30  1  0  0  0  0
 43 32  1  0  0  0  0
 44 33  1  0  0  0  0
 46 38  1  0  0  0  0
M  END
$$$$
