PNF.pdb
 OpenBabel07022419023D

 50 51  0  0  1  0  0  0  0  0999 V2000
    0.8220    1.9930   -1.9330 N   0  0  0  0  0  0  0  0  0  0  0  0
    0.5570    3.0660   -2.8390 C   0  0  0  0  0  0  0  0  0  0  0  0
    1.2180    2.7160   -4.1750 C   0  0  0  0  0  0  0  0  0  0  0  0
    1.9940    1.4400   -3.8140 C   0  0  0  0  0  0  0  0  0  0  0  0
    1.0120    0.8540   -2.7960 C   0  0  1  0  0  0  0  0  0  0  0  0
    1.5200   -0.3350   -2.1130 C   0  0  0  0  0  0  0  0  0  0  0  0
    1.7320   -1.3810   -2.7690 O   0  0  0  0  0  0  0  0  0  0  0  0
    0.0440    1.7820   -1.2810 H   0  0  0  0  0  0  0  0  0  0  0  0
   -0.5290    3.2170   -3.0000 H   0  0  0  0  0  0  0  0  0  0  0  0
    0.9890    4.0410   -2.4940 H   0  0  0  0  0  0  0  0  0  0  0  0
    1.8650    3.5090   -4.5470 H   0  0  0  0  0  0  0  0  0  0  0  0
    0.4330    2.3900   -4.8920 H   0  0  0  0  0  0  0  0  0  0  0  0
    2.8990    1.7000   -3.2400 H   0  0  0  0  0  0  0  0  0  0  0  0
    2.1380    0.7920   -4.6760 H   0  0  0  0  0  0  0  0  0  0  0  0
    0.0400    0.6930   -3.3090 H   0  0  0  0  0  0  0  0  0  0  0  0
    5.2990   -2.4300    2.1270 N   0  0  0  0  0  0  0  0  0  0  0  0
    4.1350   -2.5100    1.2860 C   0  0  0  0  0  0  0  0  0  0  0  0
    3.6630   -3.6610    1.1420 O   0  0  0  0  0  0  0  0  0  0  0  0
    3.5630   -1.3070    0.6550 C   0  0  0  0  0  0  0  0  0  0  0  0
    2.2990   -1.5880   -0.0730 C   0  0  2  0  0  0  0  0  0  0  0  0
    1.7870   -0.3620   -0.7220 N   0  0  0  0  0  0  0  0  0  0  0  0
    1.1760   -2.0500    0.8140 C   0  0  0  0  0  0  0  0  0  0  0  0
    1.2370   -3.0780    1.5180 O   0  0  0  0  0  0  0  0  0  0  0  0
    6.1220   -1.8380    1.8960 H   0  0  0  0  0  0  0  0  0  0  0  0
    5.3010   -2.9930    2.9970 H   0  0  0  0  0  0  0  0  0  0  0  0
    3.4110   -0.4820    1.4110 H   0  0  0  0  0  0  0  0  0  0  0  0
    4.3220   -0.9570   -0.0970 H   0  0  0  0  0  0  0  0  0  0  0  0
    2.4360   -2.3480   -0.8490 H   0  0  0  0  0  0  0  0  0  0  0  0
    1.6220    0.4920   -0.1500 H   0  0  0  0  0  0  0  0  0  0  0  0
   -0.0610   -1.3210    0.9080 N   0  0  0  0  0  0  0  0  0  0  0  0
   -1.1650   -1.7400    1.7520 C   0  0  1  0  0  0  0  0  0  0  0  0
   -1.4660   -0.7500    2.8220 C   0  0  0  0  0  0  0  0  0  0  0  0
   -2.5750   -1.0890    3.7220 C   0  0  0  0  0  0  0  0  0  0  0  0
   -3.8550   -0.6120    3.4010 C   0  0  0  0  0  0  0  0  0  0  0  0
   -4.9300   -0.9070    4.2120 C   0  0  0  0  0  0  0  0  0  0  0  0
   -4.7730   -1.6710    5.3480 C   0  0  0  0  0  0  0  0  0  0  0  0
   -3.5230   -2.1490    5.6800 C   0  0  0  0  0  0  0  0  0  0  0  0
   -2.4620   -1.8450    4.8610 C   0  0  0  0  0  0  0  0  0  0  0  0
   -2.3480   -2.1210    0.9610 C   0  0  0  0  0  0  0  0  0  0  0  0
   -2.3260   -2.0250   -0.2900 O   0  0  0  0  0  0  0  0  0  0  0  0
   -3.4780   -2.5840    1.5830 O   0  0  0  0  0  0  0  0  0  0  0  0
   -0.1420   -0.4560    0.3310 H   0  0  0  0  0  0  0  0  0  0  0  0
   -0.8130   -2.6910    2.2470 H   0  0  0  0  0  0  0  0  0  0  0  0
   -1.6050    0.2580    2.3440 H   0  0  0  0  0  0  0  0  0  0  0  0
   -0.5150   -0.6310    3.4200 H   0  0  0  0  0  0  0  0  0  0  0  0
   -4.0100   -0.0100    2.5160 H   0  0  0  0  0  0  0  0  0  0  0  0
   -5.9280   -0.5520    3.9890 H   0  0  0  0  0  0  0  0  0  0  0  0
   -5.6050   -1.9160    6.0010 H   0  0  0  0  0  0  0  0  0  0  0  0
   -3.4320   -2.7450    6.5770 H   0  0  0  0  0  0  0  0  0  0  0  0
   -1.4720   -2.2260    5.1290 H   0  0  0  0  0  0  0  0  0  0  0  0
  1  8  1  0  0  0  0
  2 10  1  0  0  0  0
  2  1  1  0  0  0  0
  3  4  1  0  0  0  0
  3  2  1  0  0  0  0
  4 13  1  0  0  0  0
  4  5  1  0  0  0  0
  5 15  1  6  0  0  0
  5  6  1  0  0  0  0
  5  1  1  0  0  0  0
  6 21  1  0  0  0  0
  7  6  2  0  0  0  0
  9  2  1  0  0  0  0
 11  3  1  0  0  0  0
 12  3  1  0  0  0  0
 14  4  1  0  0  0  0
 16 25  1  0  0  0  0
 17 16  1  0  0  0  0
 18 17  2  0  0  0  0
 19 17  1  0  0  0  0
 19 26  1  0  0  0  0
 20 28  1  6  0  0  0
 20 19  1  0  0  0  0
 20 22  1  0  0  0  0
 21 29  1  0  0  0  0
 21 20  1  0  0  0  0
 22 30  1  0  0  0  0
 22 23  2  0  0  0  0
 24 16  1  0  0  0  0
 27 19  1  0  0  0  0
 30 31  1  0  0  0  0
 31 43  1  1  0  0  0
 31 32  1  0  0  0  0
 32 45  1  0  0  0  0
 32 33  1  0  0  0  0
 33 38  1  0  0  0  0
 34 33  2  0  0  0  0
 34 35  1  0  0  0  0
 35 36  2  0  0  0  0
 36 37  1  0  0  0  0
 36 48  1  0  0  0  0
 37 49  1  0  0  0  0
 38 50  1  0  0  0  0
 38 37  2  0  0  0  0
 39 41  1  0  0  0  0
 39 31  1  0  0  0  0
 40 39  2  0  0  0  0
 42 30  1  0  0  0  0
 44 32  1  0  0  0  0
 46 34  1  0  0  0  0
 47 35  1  0  0  0  0
M  END
$$$$
