PNL.pdb
 OpenBabel07022419023D

 49 49  0  0  1  0  0  0  0  0999 V2000
    1.8180   -2.6360    1.6760 N   0  0  0  0  0  0  0  0  0  0  0  0
    2.3490   -3.7390    2.4560 C   0  0  0  0  0  0  0  0  0  0  0  0
    3.8430   -3.5980    2.4450 C   0  0  0  0  0  0  0  0  0  0  0  0
    4.0890   -2.2720    1.7480 C   0  0  0  0  0  0  0  0  0  0  0  0
    2.7510   -1.5840    1.9180 C   0  0  1  0  0  0  0  0  0  0  0  0
    2.5890   -0.4340    0.9990 C   0  0  0  0  0  0  0  0  0  0  0  0
    3.3580    0.5480    1.1180 O   0  0  0  0  0  0  0  0  0  0  0  0
    0.8610   -2.4570    2.0050 H   0  0  0  0  0  0  0  0  0  0  0  0
    1.9140   -3.6980    3.4800 H   0  0  0  0  0  0  0  0  0  0  0  0
    2.0030   -4.6670    1.9510 H   0  0  0  0  0  0  0  0  0  0  0  0
    4.2550   -4.4540    1.8670 H   0  0  0  0  0  0  0  0  0  0  0  0
    4.1820   -3.5860    3.5020 H   0  0  0  0  0  0  0  0  0  0  0  0
    4.8960   -1.7010    2.2520 H   0  0  0  0  0  0  0  0  0  0  0  0
    4.3170   -2.4690    0.6720 H   0  0  0  0  0  0  0  0  0  0  0  0
    2.7240   -1.2230    2.9730 H   0  0  0  0  0  0  0  0  0  0  0  0
    0.6930   -1.1310   -4.1840 N   0  0  0  0  0  0  0  0  0  0  0  0
    0.6560   -0.6590   -2.8460 C   0  0  0  0  0  0  0  0  0  0  0  0
   -0.2090   -1.1250   -2.0620 O   0  0  0  0  0  0  0  0  0  0  0  0
    1.6110    0.3660   -2.3580 C   0  0  0  0  0  0  0  0  0  0  0  0
    1.4300    0.7330   -0.9210 C   0  0  2  0  0  0  0  0  0  0  0  0
    1.5950   -0.3910   -0.0160 N   0  0  0  0  0  0  0  0  0  0  0  0
    0.1200    1.4030   -0.7180 C   0  0  0  0  0  0  0  0  0  0  0  0
   -0.2010    2.3600   -1.4500 O   0  0  0  0  0  0  0  0  0  0  0  0
    0.1160   -1.9530   -4.4550 H   0  0  0  0  0  0  0  0  0  0  0  0
    1.2900   -0.6670   -4.8960 H   0  0  0  0  0  0  0  0  0  0  0  0
    1.4380    1.2710   -2.9850 H   0  0  0  0  0  0  0  0  0  0  0  0
    2.6510    0.0470   -2.5980 H   0  0  0  0  0  0  0  0  0  0  0  0
    2.2160    1.4860   -0.6430 H   0  0  0  0  0  0  0  0  0  0  0  0
    0.9790   -1.2450   -0.0640 H   0  0  0  0  0  0  0  0  0  0  0  0
   -2.3840   -1.5610    1.0120 C   0  0  0  0  0  0  0  0  0  0  0  0
   -3.4470   -0.4980    1.1290 C   0  0  0  0  0  0  0  0  0  0  0  0
   -3.8400   -0.2580    2.5740 C   0  0  0  0  0  0  0  0  0  0  0  0
   -3.2430    0.7250    0.3460 C   0  0  0  0  0  0  0  0  0  0  0  0
   -2.0670    1.5840    0.5500 C   0  0  2  0  0  0  0  0  0  0  0  0
   -0.7750    0.9570    0.3130 N   0  0  0  0  0  0  0  0  0  0  0  0
   -2.0800    2.3910    1.7750 C   0  0  0  0  0  0  0  0  0  0  0  0
   -3.1030    2.9900    2.1240 O   0  0  0  0  0  0  0  0  0  0  0  0
   -0.9560    2.4900    2.5480 O   0  0  0  0  0  0  0  0  0  0  0  0
   -1.6940   -1.5890    1.8770 H   0  0  0  0  0  0  0  0  0  0  0  0
   -1.9250   -1.4760    0.0310 H   0  0  0  0  0  0  0  0  0  0  0  0
   -2.8430   -2.5990    1.0210 H   0  0  0  0  0  0  0  0  0  0  0  0
   -4.3770   -0.9850    0.6890 H   0  0  0  0  0  0  0  0  0  0  0  0
   -4.1260   -1.2740    2.9780 H   0  0  0  0  0  0  0  0  0  0  0  0
   -3.0200    0.1000    3.1920 H   0  0  0  0  0  0  0  0  0  0  0  0
   -4.7530    0.3360    2.5840 H   0  0  0  0  0  0  0  0  0  0  0  0
   -4.1770    1.3480    0.4350 H   0  0  0  0  0  0  0  0  0  0  0  0
   -3.2500    0.4280   -0.7450 H   0  0  0  0  0  0  0  0  0  0  0  0
   -2.1420    2.3780   -0.2660 H   0  0  0  0  0  0  0  0  0  0  0  0
   -0.4130    0.1550    0.8740 H   0  0  0  0  0  0  0  0  0  0  0  0
  1  5  1  0  0  0  0
  1  8  1  0  0  0  0
  1  2  1  0  0  0  0
  2  9  1  0  0  0  0
  3  2  1  0  0  0  0
  3 12  1  0  0  0  0
  4  5  1  0  0  0  0
  4 13  1  0  0  0  0
  4  3  1  0  0  0  0
  5 15  1  1  0  0  0
  6  7  2  0  0  0  0
  6  5  1  0  0  0  0
 10  2  1  0  0  0  0
 11  3  1  0  0  0  0
 14  4  1  0  0  0  0
 16 17  1  0  0  0  0
 17 19  1  0  0  0  0
 17 18  2  0  0  0  0
 19 20  1  0  0  0  0
 20 22  1  0  0  0  0
 20 28  1  1  0  0  0
 20 21  1  0  0  0  0
 21  6  1  0  0  0  0
 22 35  1  0  0  0  0
 23 22  2  0  0  0  0
 24 16  1  0  0  0  0
 25 16  1  0  0  0  0
 26 19  1  0  0  0  0
 27 19  1  0  0  0  0
 29 21  1  0  0  0  0
 30 41  1  0  0  0  0
 30 31  1  0  0  0  0
 30 39  1  0  0  0  0
 31 32  1  0  0  0  0
 32 45  1  0  0  0  0
 32 43  1  0  0  0  0
 32 44  1  0  0  0  0
 33 46  1  0  0  0  0
 33 34  1  0  0  0  0
 33 31  1  0  0  0  0
 34 48  1  6  0  0  0
 34 36  1  0  0  0  0
 35 34  1  0  0  0  0
 35 49  1  0  0  0  0
 36 37  2  0  0  0  0
 36 38  1  0  0  0  0
 40 30  1  0  0  0  0
 42 31  1  0  0  0  0
 47 33  1  0  0  0  0
M  END
$$$$
