PNQ.pdb
 OpenBabel07022419023D

 47 47  0  0  1  0  0  0  0  0999 V2000
    2.6520   -2.7160    2.9330 N   0  0  0  0  0  0  0  0  0  0  0  0
    2.5450   -4.1370    2.7040 C   0  0  0  0  0  0  0  0  0  0  0  0
    1.4760   -4.3430    1.6620 C   0  0  0  0  0  0  0  0  0  0  0  0
    0.9030   -2.9550    1.4920 C   0  0  0  0  0  0  0  0  0  0  0  0
    2.1500   -2.1260    1.7330 C   0  0  1  0  0  0  0  0  0  0  0  0
    1.8780   -0.6940    1.8390 C   0  0  0  0  0  0  0  0  0  0  0  0
    2.1090   -0.1030    2.9530 O   0  0  0  0  0  0  0  0  0  0  0  0
    3.6830   -2.4780    3.0260 H   0  0  0  0  0  0  0  0  0  0  0  0
    2.2220   -4.7070    3.6060 H   0  0  0  0  0  0  0  0  0  0  0  0
    3.5120   -4.5810    2.3740 H   0  0  0  0  0  0  0  0  0  0  0  0
    0.7100   -5.0790    1.9680 H   0  0  0  0  0  0  0  0  0  0  0  0
    1.9830   -4.6080    0.7030 H   0  0  0  0  0  0  0  0  0  0  0  0
    0.4950   -2.7910    0.4750 H   0  0  0  0  0  0  0  0  0  0  0  0
    0.1530   -2.8060    2.2840 H   0  0  0  0  0  0  0  0  0  0  0  0
    2.8580   -2.3850    0.9110 H   0  0  0  0  0  0  0  0  0  0  0  0
    4.1720    3.4480    0.5420 N   0  0  0  0  0  0  0  0  0  0  0  0
    3.3330    2.3840    0.2310 C   0  0  0  0  0  0  0  0  0  0  0  0
    3.8380    1.2300    0.0490 O   0  0  0  0  0  0  0  0  0  0  0  0
    1.8540    2.4680    0.0890 C   0  0  0  0  0  0  0  0  0  0  0  0
    1.1230    1.5420    0.9680 C   0  0  2  0  0  0  0  0  0  0  0  0
    1.3750    0.1420    0.8290 N   0  0  0  0  0  0  0  0  0  0  0  0
   -0.3280    1.8580    0.9090 C   0  0  0  0  0  0  0  0  0  0  0  0
   -0.7140    3.0470    1.0030 O   0  0  0  0  0  0  0  0  0  0  0  0
    3.8060    4.4130    0.6060 H   0  0  0  0  0  0  0  0  0  0  0  0
    5.1800    3.2930    0.7170 H   0  0  0  0  0  0  0  0  0  0  0  0
    1.6010    3.5140    0.4570 H   0  0  0  0  0  0  0  0  0  0  0  0
    1.5240    2.4910   -0.9710 H   0  0  0  0  0  0  0  0  0  0  0  0
    1.4180    1.8070    2.0360 H   0  0  0  0  0  0  0  0  0  0  0  0
    1.1600   -0.2840   -0.0990 H   0  0  0  0  0  0  0  0  0  0  0  0
   -3.4370   -2.7790   -2.4560 N   0  0  0  0  0  0  0  0  0  0  0  0
   -3.5980   -1.4050   -2.1220 C   0  0  0  0  0  0  0  0  0  0  0  0
   -4.1900   -0.6340   -2.9080 O   0  0  0  0  0  0  0  0  0  0  0  0
   -3.0360   -0.9490   -0.8170 C   0  0  0  0  0  0  0  0  0  0  0  0
   -3.2700    0.5390   -0.6260 C   0  0  0  0  0  0  0  0  0  0  0  0
   -2.7070    1.0280    0.6840 C   0  0  2  0  0  0  0  0  0  0  0  0
   -1.2570    0.7950    0.7480 N   0  0  0  0  0  0  0  0  0  0  0  0
   -3.3210    0.3100    1.8080 C   0  0  0  0  0  0  0  0  0  0  0  0
   -4.5570    0.3370    1.9760 O   0  0  0  0  0  0  0  0  0  0  0  0
   -2.5670   -0.4270    2.7320 O   0  0  0  0  0  0  0  0  0  0  0  0
   -4.1760   -3.2750   -3.0070 H   0  0  0  0  0  0  0  0  0  0  0  0
   -2.6090   -3.3410   -2.1800 H   0  0  0  0  0  0  0  0  0  0  0  0
   -3.4410   -1.5450    0.0260 H   0  0  0  0  0  0  0  0  0  0  0  0
   -1.9460   -1.1090   -0.8680 H   0  0  0  0  0  0  0  0  0  0  0  0
   -2.8110    1.0580   -1.4970 H   0  0  0  0  0  0  0  0  0  0  0  0
   -4.3610    0.7020   -0.6110 H   0  0  0  0  0  0  0  0  0  0  0  0
   -2.8690    2.1270    0.7390 H   0  0  0  0  0  0  0  0  0  0  0  0
   -0.8610   -0.1680    0.6740 H   0  0  0  0  0  0  0  0  0  0  0  0
  1  8  1  0  0  0  0
  2  1  1  0  0  0  0
  2  9  1  0  0  0  0
  3 11  1  0  0  0  0
  3  2  1  0  0  0  0
  4  3  1  0  0  0  0
  4  5  1  0  0  0  0
  4 14  1  0  0  0  0
  5 15  1  6  0  0  0
  5  6  1  0  0  0  0
  5  1  1  0  0  0  0
  6  7  2  0  0  0  0
 10  2  1  0  0  0  0
 12  3  1  0  0  0  0
 13  4  1  0  0  0  0
 16 24  1  0  0  0  0
 16 25  1  0  0  0  0
 17 16  1  0  0  0  0
 18 17  2  0  0  0  0
 19 17  1  0  0  0  0
 19 26  1  0  0  0  0
 19 20  1  0  0  0  0
 20 28  1  1  0  0  0
 21 20  1  0  0  0  0
 21  6  1  0  0  0  0
 22 20  1  0  0  0  0
 22 23  2  0  0  0  0
 27 19  1  0  0  0  0
 29 21  1  0  0  0  0
 30 41  1  0  0  0  0
 30 31  1  0  0  0  0
 31 33  1  0  0  0  0
 32 31  2  0  0  0  0
 33 34  1  0  0  0  0
 33 42  1  0  0  0  0
 34 45  1  0  0  0  0
 34 35  1  0  0  0  0
 35 46  1  1  0  0  0
 35 36  1  0  0  0  0
 35 37  1  0  0  0  0
 36 22  1  0  0  0  0
 37 38  2  0  0  0  0
 37 39  1  0  0  0  0
 40 30  1  0  0  0  0
 43 33  1  0  0  0  0
 44 34  1  0  0  0  0
 47 36  1  0  0  0  0
M  END
$$$$
