PNR.pdb
 OpenBabel07022419023D

 53 53  0  0  1  0  0  0  0  0999 V2000
    3.1210   -1.6090    4.7820 N   0  0  0  0  0  0  0  0  0  0  0  0
    2.6640   -2.9060    5.1920 C   0  0  0  0  0  0  0  0  0  0  0  0
    2.9930   -3.8580    4.0700 C   0  0  0  0  0  0  0  0  0  0  0  0
    3.2540   -3.0190    2.8610 C   0  0  0  0  0  0  0  0  0  0  0  0
    3.2760   -1.6040    3.3500 C   0  0  1  0  0  0  0  0  0  0  0  0
    2.1780   -0.8760    2.7010 C   0  0  0  0  0  0  0  0  0  0  0  0
    1.2920   -0.3450    3.4330 O   0  0  0  0  0  0  0  0  0  0  0  0
    2.3500   -0.9290    5.0230 H   0  0  0  0  0  0  0  0  0  0  0  0
    1.5760   -2.9380    5.4480 H   0  0  0  0  0  0  0  0  0  0  0  0
    3.1830   -3.2110    6.1380 H   0  0  0  0  0  0  0  0  0  0  0  0
    2.2090   -4.6280    3.9110 H   0  0  0  0  0  0  0  0  0  0  0  0
    3.9170   -4.4110    4.3740 H   0  0  0  0  0  0  0  0  0  0  0  0
    2.4910   -3.1700    2.0550 H   0  0  0  0  0  0  0  0  0  0  0  0
    4.2180   -3.3330    2.4000 H   0  0  0  0  0  0  0  0  0  0  0  0
    4.2500   -1.0940    3.1190 H   0  0  0  0  0  0  0  0  0  0  0  0
    3.0970    1.5820   -2.2290 N   0  0  0  0  0  0  0  0  0  0  0  0
    2.5310    0.6400   -1.3300 C   0  0  0  0  0  0  0  0  0  0  0  0
    2.8560   -0.5620   -1.4600 O   0  0  0  0  0  0  0  0  0  0  0  0
    1.5820    1.0290   -0.2610 C   0  0  0  0  0  0  0  0  0  0  0  0
    1.1090   -0.0980    0.5870 C   0  0  2  0  0  0  0  0  0  0  0  0
    2.1520   -0.7960    1.2960 N   0  0  0  0  0  0  0  0  0  0  0  0
    0.2260   -1.0440   -0.1520 C   0  0  0  0  0  0  0  0  0  0  0  0
    0.3950   -2.2890   -0.1560 O   0  0  0  0  0  0  0  0  0  0  0  0
    2.5200    2.0800   -2.9420 H   0  0  0  0  0  0  0  0  0  0  0  0
    4.1130    1.8100   -2.2080 H   0  0  0  0  0  0  0  0  0  0  0  0
    0.6890    1.5510   -0.6680 H   0  0  0  0  0  0  0  0  0  0  0  0
    2.1100    1.8090    0.3430 H   0  0  0  0  0  0  0  0  0  0  0  0
    0.4340    0.3520    1.3730 H   0  0  0  0  0  0  0  0  0  0  0  0
    2.9040   -1.2510    0.7450 H   0  0  0  0  0  0  0  0  0  0  0  0
   -2.5530    2.8380   -0.7160 N   0  0  0  0  0  0  0  0  0  0  0  0
   -3.5220    1.8160   -0.4580 C   0  0  0  0  0  0  0  0  0  0  0  0
   -4.6590    1.8530   -1.0430 N   0  0  0  0  0  0  0  0  0  0  0  0
   -3.1520    0.7930    0.4610 N   0  0  0  0  0  0  0  0  0  0  0  0
   -3.9550   -0.3500    0.6290 C   0  0  0  0  0  0  0  0  0  0  0  0
   -4.0700   -1.3280   -0.4860 C   0  0  0  0  0  0  0  0  0  0  0  0
   -2.9250   -2.0580   -0.9860 C   0  0  0  0  0  0  0  0  0  0  0  0
   -1.7390   -1.4950   -1.6260 C   0  0  2  0  0  0  0  0  0  0  0  0
   -0.9040   -0.5740   -0.9260 N   0  0  0  0  0  0  0  0  0  0  0  0
   -1.9540   -1.0140   -3.0150 C   0  0  0  0  0  0  0  0  0  0  0  0
   -1.4160    0.0560   -3.3710 O   0  0  0  0  0  0  0  0  0  0  0  0
   -2.7190   -1.6740   -3.9620 O   0  0  0  0  0  0  0  0  0  0  0  0
   -2.4670    3.2540   -1.6720 H   0  0  0  0  0  0  0  0  0  0  0  0
   -1.9090    3.2060    0.0070 H   0  0  0  0  0  0  0  0  0  0  0  0
   -4.8730    2.6280   -1.7050 H   0  0  0  0  0  0  0  0  0  0  0  0
   -2.2750    0.9030    1.0140 H   0  0  0  0  0  0  0  0  0  0  0  0
   -5.0310   -0.0220    0.8460 H   0  0  0  0  0  0  0  0  0  0  0  0
   -3.6850   -0.9390    1.5550 H   0  0  0  0  0  0  0  0  0  0  0  0
   -4.8050   -2.1160   -0.0690 H   0  0  0  0  0  0  0  0  0  0  0  0
   -4.7300   -0.9020   -1.3200 H   0  0  0  0  0  0  0  0  0  0  0  0
   -3.3330   -2.8680   -1.7070 H   0  0  0  0  0  0  0  0  0  0  0  0
   -2.5670   -2.7360   -0.1390 H   0  0  0  0  0  0  0  0  0  0  0  0
   -1.0720   -2.4480   -1.7990 H   0  0  0  0  0  0  0  0  0  0  0  0
   -1.0080    0.4660   -0.9480 H   0  0  0  0  0  0  0  0  0  0  0  0
  1  8  1  0  0  0  0
  1  2  1  0  0  0  0
  2  9  1  0  0  0  0
  2 10  1  0  0  0  0
  3 12  1  0  0  0  0
  3  2  1  0  0  0  0
  4  5  1  0  0  0  0
  4  3  1  0  0  0  0
  5 15  1  6  0  0  0
  5  1  1  0  0  0  0
  6  5  1  0  0  0  0
  6  7  2  0  0  0  0
 11  3  1  0  0  0  0
 13  4  1  0  0  0  0
 14  4  1  0  0  0  0
 16 25  1  0  0  0  0
 16 17  1  0  0  0  0
 17 19  1  0  0  0  0
 18 17  2  0  0  0  0
 19 27  1  0  0  0  0
 19 20  1  0  0  0  0
 20 21  1  0  0  0  0
 20 28  1  1  0  0  0
 21  6  1  0  0  0  0
 22 20  1  0  0  0  0
 23 22  2  0  0  0  0
 24 16  1  0  0  0  0
 26 19  1  0  0  0  0
 29 21  1  0  0  0  0
 30 31  1  0  0  0  0
 30 43  1  0  0  0  0
 31 33  1  0  0  0  0
 32 31  2  0  0  0  0
 33 34  1  0  0  0  0
 33 45  1  0  0  0  0
 34 46  1  0  0  0  0
 34 47  1  0  0  0  0
 35 48  1  0  0  0  0
 35 34  1  0  0  0  0
 36 35  1  0  0  0  0
 36 51  1  0  0  0  0
 37 52  1  6  0  0  0
 37 36  1  0  0  0  0
 37 38  1  0  0  0  0
 38 22  1  0  0  0  0
 39 37  1  0  0  0  0
 40 39  1  0  0  0  0
 41 39  2  0  0  0  0
 42 30  1  0  0  0  0
 44 32  1  0  0  0  0
 49 35  1  0  0  0  0
 50 36  1  0  0  0  0
 53 38  1  0  0  0  0
M  END
$$$$
