PNS.pdb
 OpenBabel07022419023D

 41 41  0  0  1  0  0  0  0  0999 V2000
    1.9440   -2.7770   -0.0640 N   0  0  0  0  0  0  0  0  0  0  0  0
    2.8850   -3.8750   -0.1840 C   0  0  0  0  0  0  0  0  0  0  0  0
    3.4190   -3.7100   -1.5930 C   0  0  0  0  0  0  0  0  0  0  0  0
    3.0830   -2.2650   -1.9900 C   0  0  0  0  0  0  0  0  0  0  0  0
    2.7120   -1.6810   -0.6610 C   0  0  1  0  0  0  0  0  0  0  0  0
    1.9160   -0.4470   -0.7450 C   0  0  0  0  0  0  0  0  0  0  0  0
    2.4490    0.5790   -1.2390 O   0  0  0  0  0  0  0  0  0  0  0  0
    1.1750   -2.9710   -0.7740 H   0  0  0  0  0  0  0  0  0  0  0  0
    3.6720   -3.7210    0.5900 H   0  0  0  0  0  0  0  0  0  0  0  0
    2.3440   -4.8330   -0.0550 H   0  0  0  0  0  0  0  0  0  0  0  0
    2.8960   -4.4350   -2.2230 H   0  0  0  0  0  0  0  0  0  0  0  0
    4.5130   -3.8510   -1.5290 H   0  0  0  0  0  0  0  0  0  0  0  0
    3.9960   -1.7870   -2.4380 H   0  0  0  0  0  0  0  0  0  0  0  0
    2.2210   -2.2350   -2.6910 H   0  0  0  0  0  0  0  0  0  0  0  0
    3.6470   -1.5000   -0.1010 H   0  0  0  0  0  0  0  0  0  0  0  0
   -2.2050   -1.1910    0.1680 N   0  0  0  0  0  0  0  0  0  0  0  0
   -2.3130   -0.3380   -0.9500 C   0  0  0  0  0  0  0  0  0  0  0  0
   -3.3350   -0.5090   -1.6820 O   0  0  0  0  0  0  0  0  0  0  0  0
   -1.3560    0.7090   -1.3240 C   0  0  0  0  0  0  0  0  0  0  0  0
   -0.1920    0.8900   -0.3940 C   0  0  2  0  0  0  0  0  0  0  0  0
    0.5710   -0.3350   -0.3010 N   0  0  0  0  0  0  0  0  0  0  0  0
   -0.6360    1.4220    0.9130 C   0  0  0  0  0  0  0  0  0  0  0  0
   -1.3570    2.4510    0.9020 O   0  0  0  0  0  0  0  0  0  0  0  0
   -2.3220   -0.7520    1.1020 H   0  0  0  0  0  0  0  0  0  0  0  0
   -2.0200   -2.2170    0.1320 H   0  0  0  0  0  0  0  0  0  0  0  0
   -1.0100    0.5710   -2.3900 H   0  0  0  0  0  0  0  0  0  0  0  0
   -1.9290    1.6890   -1.3870 H   0  0  0  0  0  0  0  0  0  0  0  0
    0.4970    1.7000   -0.8450 H   0  0  0  0  0  0  0  0  0  0  0  0
    0.1400   -1.1850    0.1070 H   0  0  0  0  0  0  0  0  0  0  0  0
   -2.4980   -0.2160    3.7290 O   0  0  0  0  0  0  0  0  0  0  0  0
   -1.3570    0.3170    4.2710 C   0  0  0  0  0  0  0  0  0  0  0  0
   -0.7010    1.3590    3.4370 C   0  0  2  0  0  0  0  0  0  0  0  0
   -0.2950    0.8490    2.1670 N   0  0  0  0  0  0  0  0  0  0  0  0
    0.4410    1.9460    4.1970 C   0  0  0  0  0  0  0  0  0  0  0  0
    1.6000    1.9740    3.7470 O   0  0  0  0  0  0  0  0  0  0  0  0
    0.1790    2.4720    5.4430 O   0  0  0  0  0  0  0  0  0  0  0  0
   -2.4290   -1.1740    3.4730 H   0  0  0  0  0  0  0  0  0  0  0  0
   -0.6440   -0.5310    4.4810 H   0  0  0  0  0  0  0  0  0  0  0  0
   -1.6240    0.7450    5.2620 H   0  0  0  0  0  0  0  0  0  0  0  0
   -1.4280    2.2170    3.3180 H   0  0  0  0  0  0  0  0  0  0  0  0
    0.3040   -0.0180    2.1120 H   0  0  0  0  0  0  0  0  0  0  0  0
  2  1  1  0  0  0  0
  2 10  1  0  0  0  0
  2  9  1  0  0  0  0
  3 12  1  0  0  0  0
  3  2  1  0  0  0  0
  4  3  1  0  0  0  0
  4  5  1  0  0  0  0
  5 15  1  1  0  0  0
  5  1  1  0  0  0  0
  6  5  1  0  0  0  0
  6 21  1  0  0  0  0
  7  6  2  0  0  0  0
  8  1  1  0  0  0  0
 11  3  1  0  0  0  0
 13  4  1  0  0  0  0
 14  4  1  0  0  0  0
 16 24  1  0  0  0  0
 17 16  1  0  0  0  0
 18 17  2  0  0  0  0
 19 17  1  0  0  0  0
 19 20  1  0  0  0  0
 20 28  1  6  0  0  0
 20 21  1  0  0  0  0
 20 22  1  0  0  0  0
 21 29  1  0  0  0  0
 22 33  1  0  0  0  0
 23 22  2  0  0  0  0
 25 16  1  0  0  0  0
 26 19  1  0  0  0  0
 27 19  1  0  0  0  0
 30 31  1  0  0  0  0
 31 38  1  0  0  0  0
 31 39  1  0  0  0  0
 32 40  1  6  0  0  0
 32 34  1  0  0  0  0
 32 31  1  0  0  0  0
 33 32  1  0  0  0  0
 34 36  1  0  0  0  0
 35 34  2  0  0  0  0
 37 30  1  0  0  0  0
 41 33  1  0  0  0  0
M  END
$$$$
