PNV.pdb
 OpenBabel07022419023D

 46 46  0  0  1  0  0  0  0  0999 V2000
    4.0560   -2.6750    1.0480 N   0  0  0  0  0  0  0  0  0  0  0  0
    3.7910   -4.1240    1.0630 C   0  0  0  0  0  0  0  0  0  0  0  0
    2.3760   -4.2170    1.6240 C   0  0  0  0  0  0  0  0  0  0  0  0
    1.8070   -2.8250    1.4850 C   0  0  0  0  0  0  0  0  0  0  0  0
    2.8090   -2.1820    0.5240 C   0  0  1  0  0  0  0  0  0  0  0  0
    2.6750   -0.7280    0.5810 C   0  0  0  0  0  0  0  0  0  0  0  0
    3.5880   -0.0000    1.0510 O   0  0  0  0  0  0  0  0  0  0  0  0
    4.1660   -2.4270    2.0750 H   0  0  0  0  0  0  0  0  0  0  0  0
    3.7150   -4.4350   -0.0010 H   0  0  0  0  0  0  0  0  0  0  0  0
    4.5220   -4.6770    1.6490 H   0  0  0  0  0  0  0  0  0  0  0  0
    2.3900   -4.5300    2.6910 H   0  0  0  0  0  0  0  0  0  0  0  0
    1.7420   -4.8840    0.9940 H   0  0  0  0  0  0  0  0  0  0  0  0
    0.7850   -2.7990    1.1010 H   0  0  0  0  0  0  0  0  0  0  0  0
    1.9450   -2.3000    2.4510 H   0  0  0  0  0  0  0  0  0  0  0  0
    2.6950   -2.6070   -0.4920 H   0  0  0  0  0  0  0  0  0  0  0  0
   -0.3060    1.7140   -3.3270 N   0  0  0  0  0  0  0  0  0  0  0  0
   -0.0050    1.3480   -1.9830 C   0  0  0  0  0  0  0  0  0  0  0  0
   -0.7820    0.5340   -1.4280 O   0  0  0  0  0  0  0  0  0  0  0  0
    1.1440    1.8720   -1.2470 C   0  0  0  0  0  0  0  0  0  0  0  0
    1.3180    1.3490    0.1370 C   0  0  2  0  0  0  0  0  0  0  0  0
    1.5000   -0.0800    0.1040 N   0  0  0  0  0  0  0  0  0  0  0  0
    0.0770    1.6630    0.9270 C   0  0  0  0  0  0  0  0  0  0  0  0
   -0.2950    2.8530    1.0980 O   0  0  0  0  0  0  0  0  0  0  0  0
   -0.6080    0.9590   -3.9810 H   0  0  0  0  0  0  0  0  0  0  0  0
   -0.2340    2.6960   -3.6760 H   0  0  0  0  0  0  0  0  0  0  0  0
    1.0980    2.9960   -1.1620 H   0  0  0  0  0  0  0  0  0  0  0  0
    2.0980    1.6470   -1.7990 H   0  0  0  0  0  0  0  0  0  0  0  0
    2.1960    1.8550    0.5910 H   0  0  0  0  0  0  0  0  0  0  0  0
    0.7690   -0.6990   -0.2730 H   0  0  0  0  0  0  0  0  0  0  0  0
   -2.9370   -1.2510    1.6570 C   0  0  0  0  0  0  0  0  0  0  0  0
   -3.1450    0.2470    1.6820 C   0  0  0  0  0  0  0  0  0  0  0  0
   -3.4970    0.7980    0.3370 C   0  0  0  0  0  0  0  0  0  0  0  0
   -1.9160    0.9150    2.2730 C   0  0  2  0  0  0  0  0  0  0  0  0
   -0.7250    0.6420    1.5120 N   0  0  0  0  0  0  0  0  0  0  0  0
   -1.8030    0.3950    3.6740 C   0  0  0  0  0  0  0  0  0  0  0  0
   -0.7980   -0.1930    4.0990 O   0  0  0  0  0  0  0  0  0  0  0  0
   -2.8770    0.5840    4.5280 O   0  0  0  0  0  0  0  0  0  0  0  0
   -2.6180   -1.5410    2.6830 H   0  0  0  0  0  0  0  0  0  0  0  0
   -3.8790   -1.7320    1.3390 H   0  0  0  0  0  0  0  0  0  0  0  0
   -2.1420   -1.5720    0.9700 H   0  0  0  0  0  0  0  0  0  0  0  0
   -4.0030    0.4340    2.3560 H   0  0  0  0  0  0  0  0  0  0  0  0
   -3.3050    0.0360   -0.4560 H   0  0  0  0  0  0  0  0  0  0  0  0
   -4.5800    1.0930    0.2720 H   0  0  0  0  0  0  0  0  0  0  0  0
   -2.9170    1.7100    0.1340 H   0  0  0  0  0  0  0  0  0  0  0  0
   -2.0920    2.0140    2.3200 H   0  0  0  0  0  0  0  0  0  0  0  0
   -0.4170   -0.3440    1.3710 H   0  0  0  0  0  0  0  0  0  0  0  0
  1  2  1  0  0  0  0
  1  8  1  0  0  0  0
  2  3  1  0  0  0  0
  2 10  1  0  0  0  0
  3 11  1  0  0  0  0
  4  3  1  0  0  0  0
  4 14  1  0  0  0  0
  5 15  1  6  0  0  0
  5  6  1  0  0  0  0
  5  1  1  0  0  0  0
  5  4  1  0  0  0  0
  6  7  2  0  0  0  0
  9  2  1  0  0  0  0
 12  3  1  0  0  0  0
 13  4  1  0  0  0  0
 16 17  1  0  0  0  0
 17 18  2  0  0  0  0
 17 19  1  0  0  0  0
 19 26  1  0  0  0  0
 19 20  1  0  0  0  0
 20 28  1  1  0  0  0
 20 22  1  0  0  0  0
 21 20  1  0  0  0  0
 21  6  1  0  0  0  0
 22 23  2  0  0  0  0
 22 34  1  0  0  0  0
 24 16  1  0  0  0  0
 25 16  1  0  0  0  0
 27 19  1  0  0  0  0
 29 21  1  0  0  0  0
 30 31  1  0  0  0  0
 30 38  1  0  0  0  0
 31 33  1  0  0  0  0
 31 41  1  0  0  0  0
 32 31  1  0  0  0  0
 33 45  1  1  0  0  0
 33 35  1  0  0  0  0
 34 33  1  0  0  0  0
 35 36  2  0  0  0  0
 35 37  1  0  0  0  0
 39 30  1  0  0  0  0
 40 30  1  0  0  0  0
 42 32  1  0  0  0  0
 43 32  1  0  0  0  0
 44 32  1  0  0  0  0
 46 34  1  0  0  0  0
M  END
$$$$
