PNW.pdb
 OpenBabel07022419023D

 54 56  0  0  1  0  0  0  0  0999 V2000
    2.3100   -2.1050    1.0210 N   0  0  0  0  0  0  0  0  0  0  0  0
    3.4340   -2.6080    0.2730 C   0  0  0  0  0  0  0  0  0  0  0  0
    4.5850   -2.3210    1.2270 C   0  0  0  0  0  0  0  0  0  0  0  0
    4.2470   -0.9590    1.7460 C   0  0  0  0  0  0  0  0  0  0  0  0
    2.7260   -0.9500    1.7210 C   0  0  1  0  0  0  0  0  0  0  0  0
    2.2020    0.3470    1.2490 C   0  0  0  0  0  0  0  0  0  0  0  0
    2.5650    1.4080    1.8830 O   0  0  0  0  0  0  0  0  0  0  0  0
    1.4870   -1.9500    0.4450 H   0  0  0  0  0  0  0  0  0  0  0  0
    3.2950   -3.7240    0.1560 H   0  0  0  0  0  0  0  0  0  0  0  0
    3.5730   -2.1180   -0.7130 H   0  0  0  0  0  0  0  0  0  0  0  0
    5.5680   -2.4310    0.7650 H   0  0  0  0  0  0  0  0  0  0  0  0
    4.4720   -3.0530    2.0680 H   0  0  0  0  0  0  0  0  0  0  0  0
    4.6260   -0.1190    1.1370 H   0  0  0  0  0  0  0  0  0  0  0  0
    4.6600   -0.8400    2.7630 H   0  0  0  0  0  0  0  0  0  0  0  0
    2.4000   -1.0960    2.7980 H   0  0  0  0  0  0  0  0  0  0  0  0
    3.4640    3.4420   -2.1150 N   0  0  0  0  0  0  0  0  0  0  0  0
    2.7260    2.2540   -1.8190 C   0  0  0  0  0  0  0  0  0  0  0  0
    3.3350    1.1610   -1.7080 O   0  0  0  0  0  0  0  0  0  0  0  0
    1.2520    2.2700   -1.6340 C   0  0  0  0  0  0  0  0  0  0  0  0
    0.8730    1.9040   -0.2170 C   0  0  2  0  0  0  0  0  0  0  0  0
    1.3340    0.5710    0.1650 N   0  0  0  0  0  0  0  0  0  0  0  0
   -0.5990    1.9820   -0.0320 C   0  0  0  0  0  0  0  0  0  0  0  0
   -1.2510    3.0250   -0.3030 O   0  0  0  0  0  0  0  0  0  0  0  0
    4.4400    3.5380   -1.7550 H   0  0  0  0  0  0  0  0  0  0  0  0
    3.0850    4.2350   -2.6780 H   0  0  0  0  0  0  0  0  0  0  0  0
    0.9200    3.3100   -1.8050 H   0  0  0  0  0  0  0  0  0  0  0  0
    0.7290    1.6340   -2.3650 H   0  0  0  0  0  0  0  0  0  0  0  0
    1.3030    2.6740    0.4570 H   0  0  0  0  0  0  0  0  0  0  0  0
    1.0100   -0.2500   -0.3870 H   0  0  0  0  0  0  0  0  0  0  0  0
   -1.2950    0.8510    0.4640 N   0  0  0  0  0  0  0  0  0  0  0  0
   -2.7350    0.8940    0.6570 C   0  0  1  0  0  0  0  0  0  0  0  0
   -3.4260   -0.0300   -0.3040 C   0  0  0  0  0  0  0  0  0  0  0  0
   -3.0090   -1.4470   -0.2050 C   0  0  0  0  0  0  0  0  0  0  0  0
   -2.0210   -1.9950   -1.0430 C   0  0  0  0  0  0  0  0  0  0  0  0
   -1.8570   -3.2620   -0.6660 N   0  0  0  0  0  0  0  0  0  0  0  0
   -2.6800   -3.5500    0.3560 C   0  0  0  0  0  0  0  0  0  0  0  0
   -2.8760   -4.7200    1.0680 C   0  0  0  0  0  0  0  0  0  0  0  0
   -3.8140   -4.7710    2.0970 C   0  0  0  0  0  0  0  0  0  0  0  0
   -4.5420   -3.6380    2.3920 C   0  0  0  0  0  0  0  0  0  0  0  0
   -4.3590   -2.4610    1.6900 C   0  0  0  0  0  0  0  0  0  0  0  0
   -3.4160   -2.4100    0.6590 C   0  0  0  0  0  0  0  0  0  0  0  0
   -3.0910    0.7540    2.0590 C   0  0  0  0  0  0  0  0  0  0  0  0
   -4.2830    0.8950    2.4470 O   0  0  0  0  0  0  0  0  0  0  0  0
   -2.1760    0.4610    3.0740 O   0  0  0  0  0  0  0  0  0  0  0  0
   -0.7420   -0.0040    0.6870 H   0  0  0  0  0  0  0  0  0  0  0  0
   -3.0550    1.9370    0.3280 H   0  0  0  0  0  0  0  0  0  0  0  0
   -4.5410    0.0350   -0.1460 H   0  0  0  0  0  0  0  0  0  0  0  0
   -3.2840    0.3010   -1.3510 H   0  0  0  0  0  0  0  0  0  0  0  0
   -1.5010   -1.4530   -1.8470 H   0  0  0  0  0  0  0  0  0  0  0  0
   -1.1800   -3.9300   -1.1100 H   0  0  0  0  0  0  0  0  0  0  0  0
   -2.3000   -5.6180    0.8370 H   0  0  0  0  0  0  0  0  0  0  0  0
   -3.9230   -5.7110    2.6150 H   0  0  0  0  0  0  0  0  0  0  0  0
   -5.2700   -3.6830    3.1920 H   0  0  0  0  0  0  0  0  0  0  0  0
   -4.9300   -1.5850    1.9040 H   0  0  0  0  0  0  0  0  0  0  0  0
  1  5  1  0  0  0  0
  2  1  1  0  0  0  0
  2  3  1  0  0  0  0
  3  4  1  0  0  0  0
  3 12  1  0  0  0  0
  4 14  1  0  0  0  0
  5  4  1  0  0  0  0
  5 15  1  1  0  0  0
  6  5  1  0  0  0  0
  6  7  2  0  0  0  0
  8  1  1  0  0  0  0
  9  2  1  0  0  0  0
 10  2  1  0  0  0  0
 11  3  1  0  0  0  0
 13  4  1  0  0  0  0
 16 17  1  0  0  0  0
 16 24  1  0  0  0  0
 17 18  2  0  0  0  0
 17 19  1  0  0  0  0
 19 20  1  0  0  0  0
 20 22  1  0  0  0  0
 20 21  1  0  0  0  0
 20 28  1  1  0  0  0
 21  6  1  0  0  0  0
 22 30  1  0  0  0  0
 23 22  2  0  0  0  0
 25 16  1  0  0  0  0
 26 19  1  0  0  0  0
 27 19  1  0  0  0  0
 29 21  1  0  0  0  0
 30 31  1  0  0  0  0
 30 45  1  0  0  0  0
 31 46  1  6  0  0  0
 31 42  1  0  0  0  0
 32 33  1  0  0  0  0
 32 47  1  0  0  0  0
 32 31  1  0  0  0  0
 33 41  1  0  0  0  0
 34 35  1  0  0  0  0
 34 33  2  0  0  0  0
 35 36  1  0  0  0  0
 36 41  2  0  0  0  0
 36 37  1  0  0  0  0
 37 38  2  0  0  0  0
 38 39  1  0  0  0  0
 38 52  1  0  0  0  0
 39 53  1  0  0  0  0
 40 54  1  0  0  0  0
 40 39  2  0  0  0  0
 41 40  1  0  0  0  0
 42 43  2  0  0  0  0
 42 44  1  0  0  0  0
 48 32  1  0  0  0  0
 49 34  1  0  0  0  0
 50 35  1  0  0  0  0
 51 37  1  0  0  0  0
M  END
$$$$
