PPC.pdb
 OpenBabel07022419053D

 41 42  0  0  1  0  0  0  0  0999 V2000
    0.3740   -2.5240    0.7210 N   0  0  0  0  0  0  0  0  0  0  0  0
   -0.6850   -2.5090   -0.2650 C   0  0  0  0  0  0  0  0  0  0  0  0
   -0.4760   -3.8580   -0.9220 C   0  0  0  0  0  0  0  0  0  0  0  0
    1.0390   -3.9280   -0.9890 C   0  0  0  0  0  0  0  0  0  0  0  0
    1.5500   -2.8960    0.0030 C   0  0  1  0  0  0  0  0  0  0  0  0
    2.2480   -1.7870   -0.6820 C   0  0  0  0  0  0  0  0  0  0  0  0
    3.1210   -2.2690   -1.5490 O   0  0  0  0  0  0  0  0  0  0  0  0
    0.1540   -3.2900    1.3960 H   0  0  0  0  0  0  0  0  0  0  0  0
   -0.5710   -1.6770   -0.9570 H   0  0  0  0  0  0  0  0  0  0  0  0
   -1.6600   -2.4550    0.2600 H   0  0  0  0  0  0  0  0  0  0  0  0
   -0.8780   -4.6210   -0.2240 H   0  0  0  0  0  0  0  0  0  0  0  0
   -0.9370   -3.9070   -1.9210 H   0  0  0  0  0  0  0  0  0  0  0  0
    1.3650   -3.7070   -2.0260 H   0  0  0  0  0  0  0  0  0  0  0  0
    1.4050   -4.9310   -0.6780 H   0  0  0  0  0  0  0  0  0  0  0  0
    2.3220   -3.3620    0.6720 H   0  0  0  0  0  0  0  0  0  0  0  0
    2.1110   -0.4200   -0.5470 N   0  0  0  0  0  0  0  0  0  0  0  0
    2.8140    0.5100   -1.5000 C   0  0  0  0  0  0  0  0  0  0  0  0
    1.5440    1.2630   -1.9630 C   0  0  0  0  0  0  0  0  0  0  0  0
    0.5890    1.2240   -0.7440 C   0  0  0  0  0  0  0  0  0  0  0  0
    1.4850    0.5510    0.2690 C   0  0  1  0  0  0  0  0  0  0  0  0
    0.9980    0.2930    1.5810 C   0  0  0  0  0  0  0  0  0  0  0  0
    1.6250   -0.4840    2.3480 O   0  0  0  0  0  0  0  0  0  0  0  0
    3.2920   -0.0280   -2.3070 H   0  0  0  0  0  0  0  0  0  0  0  0
    3.4480    1.1690   -0.8890 H   0  0  0  0  0  0  0  0  0  0  0  0
    1.1130    0.6360   -2.7670 H   0  0  0  0  0  0  0  0  0  0  0  0
    1.7710    2.2820   -2.2700 H   0  0  0  0  0  0  0  0  0  0  0  0
   -0.3370    0.6990   -0.9620 H   0  0  0  0  0  0  0  0  0  0  0  0
    0.4700    2.2750   -0.4340 H   0  0  0  0  0  0  0  0  0  0  0  0
    2.3370    1.3630    0.4420 H   0  0  0  0  0  0  0  0  0  0  0  0
   -0.1870    0.8680    2.1110 N   0  0  0  0  0  0  0  0  0  0  0  0
   -0.6160    0.5580    3.4490 C   0  0  1  0  0  0  0  0  0  0  0  0
   -0.8060    1.7990    4.2950 C   0  0  0  0  0  0  0  0  0  0  0  0
    0.7420    2.7170    4.4180 S   0  0  0  0  0  0  0  0  0  0  0  0
   -1.9230   -0.1810    3.4020 C   0  0  0  0  0  0  0  0  0  0  0  0
   -2.4820   -0.5520    4.4640 O   0  0  0  0  0  0  0  0  0  0  0  0
   -2.5550   -0.4800    2.2050 O   0  0  0  0  0  0  0  0  0  0  0  0
   -0.7630    1.5190    1.5440 H   0  0  0  0  0  0  0  0  0  0  0  0
    0.1070   -0.1440    3.9040 H   0  0  0  0  0  0  0  0  0  0  0  0
   -1.0400    1.4260    5.3350 H   0  0  0  0  0  0  0  0  0  0  0  0
   -1.6630    2.3950    3.9890 H   0  0  0  0  0  0  0  0  0  0  0  0
    1.0000    3.1920    5.7000 H   0  0  0  0  0  0  0  0  0  0  0  0
  1  8  1  0  0  0  0
  2 10  1  0  0  0  0
  2  1  1  0  0  0  0
  3  2  1  0  0  0  0
  3 11  1  0  0  0  0
  4  3  1  0  0  0  0
  4 14  1  0  0  0  0
  4  5  1  0  0  0  0
  5 15  1  1  0  0  0
  5  1  1  0  0  0  0
  6 16  1  0  0  0  0
  6  5  1  0  0  0  0
  7  6  2  0  0  0  0
  9  2  1  0  0  0  0
 12  3  1  0  0  0  0
 13  4  1  0  0  0  0
 16 20  1  0  0  0  0
 17 24  1  0  0  0  0
 17 16  1  0  0  0  0
 18 17  1  0  0  0  0
 18 19  1  0  0  0  0
 19 28  1  0  0  0  0
 19 20  1  0  0  0  0
 20 29  1  1  0  0  0
 20 21  1  0  0  0  0
 21 30  1  0  0  0  0
 21 22  2  0  0  0  0
 23 17  1  0  0  0  0
 25 18  1  0  0  0  0
 26 18  1  0  0  0  0
 27 19  1  0  0  0  0
 30 31  1  0  0  0  0
 31 38  1  1  0  0  0
 31 32  1  0  0  0  0
 32 33  1  0  0  0  0
 32 39  1  0  0  0  0
 33 41  1  0  0  0  0
 34 31  1  0  0  0  0
 34 35  1  0  0  0  0
 36 34  2  0  0  0  0
 37 30  1  0  0  0  0
 40 32  1  0  0  0  0
M  END
$$$$
