PPH.pdb
 OpenBabel07022419053D

 47 49  0  0  1  0  0  0  0  0999 V2000
    0.2880   -4.1400    2.2900 N   0  0  0  0  0  0  0  0  0  0  0  0
   -0.8670   -4.4540    3.1330 C   0  0  0  0  0  0  0  0  0  0  0  0
   -0.7900   -3.3220    4.1310 C   0  0  0  0  0  0  0  0  0  0  0  0
   -0.4580   -2.1340    3.2930 C   0  0  0  0  0  0  0  0  0  0  0  0
    0.2280   -2.7170    2.0730 C   0  0  1  0  0  0  0  0  0  0  0  0
    1.6080   -2.1980    1.9240 C   0  0  0  0  0  0  0  0  0  0  0  0
    2.5630   -3.0200    2.0350 O   0  0  0  0  0  0  0  0  0  0  0  0
    1.1320   -4.3900    2.8690 H   0  0  0  0  0  0  0  0  0  0  0  0
   -1.8120   -4.3810    2.5460 H   0  0  0  0  0  0  0  0  0  0  0  0
   -0.7380   -5.4270    3.6110 H   0  0  0  0  0  0  0  0  0  0  0  0
    0.0050   -3.5680    4.8660 H   0  0  0  0  0  0  0  0  0  0  0  0
   -1.7500   -3.2030    4.6750 H   0  0  0  0  0  0  0  0  0  0  0  0
    0.2830   -1.4580    3.7830 H   0  0  0  0  0  0  0  0  0  0  0  0
   -1.3760   -1.5710    3.0440 H   0  0  0  0  0  0  0  0  0  0  0  0
   -0.4050   -2.4570    1.1950 H   0  0  0  0  0  0  0  0  0  0  0  0
    1.8980   -0.8410    1.6650 N   0  0  0  0  0  0  0  0  0  0  0  0
    3.2230   -0.2950    1.5200 C   0  0  0  0  0  0  0  0  0  0  0  0
    3.1230    0.9340    2.4340 C   0  0  0  0  0  0  0  0  0  0  0  0
    1.7370    1.4290    2.0910 C   0  0  0  0  0  0  0  0  0  0  0  0
    0.9880    0.2620    1.4880 C   0  0  1  0  0  0  0  0  0  0  0  0
    0.7040    0.4890    0.0390 C   0  0  0  0  0  0  0  0  0  0  0  0
    1.1980   -0.2010   -0.8790 O   0  0  0  0  0  0  0  0  0  0  0  0
    3.4330    0.1040    0.5110 H   0  0  0  0  0  0  0  0  0  0  0  0
    4.0100   -0.9850    1.8720 H   0  0  0  0  0  0  0  0  0  0  0  0
    3.1240    0.5670    3.4730 H   0  0  0  0  0  0  0  0  0  0  0  0
    3.9190    1.6620    2.2140 H   0  0  0  0  0  0  0  0  0  0  0  0
    1.1960    1.8260    2.9530 H   0  0  0  0  0  0  0  0  0  0  0  0
    1.8210    2.2240    1.3230 H   0  0  0  0  0  0  0  0  0  0  0  0
    0.0160    0.0830    1.9810 H   0  0  0  0  0  0  0  0  0  0  0  0
   -0.1750    1.5460   -0.3270 N   0  0  0  0  0  0  0  0  0  0  0  0
   -0.5070    1.8400   -1.6860 C   0  0  1  0  0  0  0  0  0  0  0  0
   -1.9910    1.5810   -1.9750 C   0  0  0  0  0  0  0  0  0  0  0  0
   -2.2580    0.1520   -1.7030 C   0  0  0  0  0  0  0  0  0  0  0  0
   -2.1680   -0.9020   -2.5780 C   0  0  0  0  0  0  0  0  0  0  0  0
   -2.4970   -2.0580   -1.9350 N   0  0  0  0  0  0  0  0  0  0  0  0
   -2.7820   -1.6910   -0.6800 C   0  0  0  0  0  0  0  0  0  0  0  0
   -2.6420   -0.3530   -0.5230 N   0  0  0  0  0  0  0  0  0  0  0  0
   -0.0890    3.1660   -2.1370 C   0  0  0  0  0  0  0  0  0  0  0  0
    0.5150    3.9920   -1.4100 O   0  0  0  0  0  0  0  0  0  0  0  0
   -0.3690    3.5490   -3.4400 O   0  0  0  0  0  0  0  0  0  0  0  0
   -0.6100    2.1500    0.4340 H   0  0  0  0  0  0  0  0  0  0  0  0
    0.0390    1.0940   -2.3330 H   0  0  0  0  0  0  0  0  0  0  0  0
   -2.6400    2.2570   -1.3850 H   0  0  0  0  0  0  0  0  0  0  0  0
   -2.1160    1.7880   -3.0720 H   0  0  0  0  0  0  0  0  0  0  0  0
   -1.8830   -0.8770   -3.6350 H   0  0  0  0  0  0  0  0  0  0  0  0
   -2.5070   -3.0060   -2.3840 H   0  0  0  0  0  0  0  0  0  0  0  0
   -3.0830   -2.3840    0.0910 H   0  0  0  0  0  0  0  0  0  0  0  0
  1  8  1  0  0  0  0
  1  2  1  0  0  0  0
  2 10  1  0  0  0  0
  2  3  1  0  0  0  0
  3 12  1  0  0  0  0
  3 11  1  0  0  0  0
  4 13  1  0  0  0  0
  4  3  1  0  0  0  0
  5 15  1  6  0  0  0
  5  1  1  0  0  0  0
  5  4  1  0  0  0  0
  6  7  2  0  0  0  0
  6  5  1  0  0  0  0
  9  2  1  0  0  0  0
 14  4  1  0  0  0  0
 16  6  1  0  0  0  0
 17 16  1  0  0  0  0
 17 24  1  0  0  0  0
 17 18  1  0  0  0  0
 18 25  1  0  0  0  0
 19 18  1  0  0  0  0
 19 27  1  0  0  0  0
 20 16  1  0  0  0  0
 20 29  1  1  0  0  0
 20 19  1  0  0  0  0
 21 20  1  0  0  0  0
 22 21  2  0  0  0  0
 23 17  1  0  0  0  0
 26 18  1  0  0  0  0
 28 19  1  0  0  0  0
 30 21  1  0  0  0  0
 30 41  1  0  0  0  0
 31 42  1  6  0  0  0
 31 30  1  0  0  0  0
 32 33  1  0  0  0  0
 32 31  1  0  0  0  0
 32 43  1  0  0  0  0
 33 37  1  0  0  0  0
 34 35  1  0  0  0  0
 34 33  2  0  0  0  0
 35 36  1  0  0  0  0
 36 37  2  0  0  0  0
 36 47  1  0  0  0  0
 38 31  1  0  0  0  0
 38 39  1  0  0  0  0
 40 38  2  0  0  0  0
 44 32  1  0  0  0  0
 45 34  1  0  0  0  0
 46 35  1  0  0  0  0
M  END
$$$$
