PPM.pdb
 OpenBabel07022419053D

 47 48  0  0  1  0  0  0  0  0999 V2000
    3.2130   -2.3510    1.1540 N   0  0  0  0  0  0  0  0  0  0  0  0
    3.0590   -3.6660    1.7060 C   0  0  0  0  0  0  0  0  0  0  0  0
    1.5620   -3.8290    1.8070 C   0  0  0  0  0  0  0  0  0  0  0  0
    1.0510   -3.1130    0.5920 C   0  0  0  0  0  0  0  0  0  0  0  0
    2.2090   -2.2810    0.1160 C   0  0  1  0  0  0  0  0  0  0  0  0
    1.8680   -0.8570   -0.1090 C   0  0  0  0  0  0  0  0  0  0  0  0
    2.4500    0.0540    0.5510 O   0  0  0  0  0  0  0  0  0  0  0  0
    3.0240   -1.6330    1.8760 H   0  0  0  0  0  0  0  0  0  0  0  0
    3.4800   -4.4280    1.0240 H   0  0  0  0  0  0  0  0  0  0  0  0
    3.5290   -3.6970    2.7140 H   0  0  0  0  0  0  0  0  0  0  0  0
    1.1610   -3.4120    2.7520 H   0  0  0  0  0  0  0  0  0  0  0  0
    1.3680   -4.9220    1.7300 H   0  0  0  0  0  0  0  0  0  0  0  0
    0.8430   -3.8760   -0.1960 H   0  0  0  0  0  0  0  0  0  0  0  0
    0.1390   -2.5060    0.8070 H   0  0  0  0  0  0  0  0  0  0  0  0
    2.6500   -2.6930   -0.8340 H   0  0  0  0  0  0  0  0  0  0  0  0
    0.8960   -0.4580   -1.0550 N   0  0  0  0  0  0  0  0  0  0  0  0
    0.1260   -1.3940   -1.8670 C   0  0  0  0  0  0  0  0  0  0  0  0
   -0.1030   -0.6980   -3.1740 C   0  0  0  0  0  0  0  0  0  0  0  0
    0.0730    0.7690   -2.8790 C   0  0  0  0  0  0  0  0  0  0  0  0
    0.4960    0.8530   -1.4150 C   0  0  1  0  0  0  0  0  0  0  0  0
   -0.5290    1.4520   -0.5710 C   0  0  0  0  0  0  0  0  0  0  0  0
   -1.0900    2.5280   -0.9040 O   0  0  0  0  0  0  0  0  0  0  0  0
    0.6480   -2.3370   -2.0490 H   0  0  0  0  0  0  0  0  0  0  0  0
   -0.8430   -1.6450   -1.3880 H   0  0  0  0  0  0  0  0  0  0  0  0
   -1.1200   -0.8930   -3.5710 H   0  0  0  0  0  0  0  0  0  0  0  0
    0.6160   -1.0370   -3.9640 H   0  0  0  0  0  0  0  0  0  0  0  0
    0.8430    1.1740   -3.5660 H   0  0  0  0  0  0  0  0  0  0  0  0
   -0.8640    1.3270   -3.0480 H   0  0  0  0  0  0  0  0  0  0  0  0
    1.3860    1.5610   -1.4350 H   0  0  0  0  0  0  0  0  0  0  0  0
    0.1490   -0.6810    3.3690 C   0  0  0  0  0  0  0  0  0  0  0  0
   -1.5500   -1.3060    3.1680 S   0  0  0  0  0  0  0  0  0  0  0  0
   -2.7960   -0.0420    3.3010 C   0  0  0  0  0  0  0  0  0  0  0  0
   -3.0090    0.8040    2.1600 C   0  0  0  0  0  0  0  0  0  0  0  0
   -2.0220    1.5840    1.4280 C   0  0  2  0  0  0  0  0  0  0  0  0
   -0.9960    0.8990    0.6920 N   0  0  0  0  0  0  0  0  0  0  0  0
   -1.4050    2.6770    2.2850 C   0  0  0  0  0  0  0  0  0  0  0  0
   -0.1770    2.9120    2.3110 O   0  0  0  0  0  0  0  0  0  0  0  0
   -2.1810    3.4850    3.0970 O   0  0  0  0  0  0  0  0  0  0  0  0
    0.5640   -1.0690    4.3440 H   0  0  0  0  0  0  0  0  0  0  0  0
    0.0820    0.4170    3.4230 H   0  0  0  0  0  0  0  0  0  0  0  0
    0.8100   -1.0540    2.5890 H   0  0  0  0  0  0  0  0  0  0  0  0
   -3.7700   -0.6040    3.5590 H   0  0  0  0  0  0  0  0  0  0  0  0
   -2.5980    0.4930    4.2740 H   0  0  0  0  0  0  0  0  0  0  0  0
   -3.5500    0.1690    1.3460 H   0  0  0  0  0  0  0  0  0  0  0  0
   -3.9190    1.4740    2.4440 H   0  0  0  0  0  0  0  0  0  0  0  0
   -2.5730    2.2090    0.6750 H   0  0  0  0  0  0  0  0  0  0  0  0
   -0.5220    0.0100    0.9190 H   0  0  0  0  0  0  0  0  0  0  0  0
  1  2  1  0  0  0  0
  1  8  1  0  0  0  0
  2  3  1  0  0  0  0
  2 10  1  0  0  0  0
  3 11  1  0  0  0  0
  4 14  1  0  0  0  0
  4  3  1  0  0  0  0
  5 15  1  6  0  0  0
  5  4  1  0  0  0  0
  5  1  1  0  0  0  0
  6  5  1  0  0  0  0
  6  7  2  0  0  0  0
  9  2  1  0  0  0  0
 12  3  1  0  0  0  0
 13  4  1  0  0  0  0
 16  6  1  0  0  0  0
 17 24  1  0  0  0  0
 17 16  1  0  0  0  0
 18 19  1  0  0  0  0
 18 17  1  0  0  0  0
 19 20  1  0  0  0  0
 20 29  1  1  0  0  0
 20 16  1  0  0  0  0
 20 21  1  0  0  0  0
 21 35  1  0  0  0  0
 22 21  2  0  0  0  0
 23 17  1  0  0  0  0
 25 18  1  0  0  0  0
 26 18  1  0  0  0  0
 27 19  1  0  0  0  0
 28 19  1  0  0  0  0
 30 40  1  0  0  0  0
 30 39  1  0  0  0  0
 31 32  1  0  0  0  0
 31 30  1  0  0  0  0
 32 42  1  0  0  0  0
 32 43  1  0  0  0  0
 33 45  1  0  0  0  0
 33 32  1  0  0  0  0
 34 46  1  6  0  0  0
 34 33  1  0  0  0  0
 34 36  1  0  0  0  0
 35 47  1  0  0  0  0
 35 34  1  0  0  0  0
 36 37  2  0  0  0  0
 36 38  1  0  0  0  0
 41 30  1  0  0  0  0
 44 33  1  0  0  0  0
M  END
$$$$
