PPQ.pdb
 OpenBabel07022419053D

 47 48  0  0  1  0  0  0  0  0999 V2000
    0.7560   -4.4220    0.7010 N   0  0  0  0  0  0  0  0  0  0  0  0
    1.4110   -5.3240    1.5860 C   0  0  0  0  0  0  0  0  0  0  0  0
    1.9070   -4.5800    2.7770 C   0  0  0  0  0  0  0  0  0  0  0  0
    1.4230   -3.1820    2.6030 C   0  0  0  0  0  0  0  0  0  0  0  0
    0.7050   -3.1140    1.2730 C   0  0  1  0  0  0  0  0  0  0  0  0
    1.4200   -2.1180    0.4330 C   0  0  0  0  0  0  0  0  0  0  0  0
    1.9880   -2.5530   -0.5960 O   0  0  0  0  0  0  0  0  0  0  0  0
   -0.2190   -4.7980    0.5230 H   0  0  0  0  0  0  0  0  0  0  0  0
    0.7700   -6.1940    1.8730 H   0  0  0  0  0  0  0  0  0  0  0  0
    2.2950   -5.7490    1.0330 H   0  0  0  0  0  0  0  0  0  0  0  0
    3.0260   -4.6130    2.8380 H   0  0  0  0  0  0  0  0  0  0  0  0
    1.4810   -5.0150    3.7120 H   0  0  0  0  0  0  0  0  0  0  0  0
    2.3070   -2.4830    2.6350 H   0  0  0  0  0  0  0  0  0  0  0  0
    0.7770   -2.8890    3.4560 H   0  0  0  0  0  0  0  0  0  0  0  0
   -0.3380   -2.8420    1.4710 H   0  0  0  0  0  0  0  0  0  0  0  0
    1.4910   -0.7430    0.7250 N   0  0  0  0  0  0  0  0  0  0  0  0
    2.2010    0.2390   -0.0920 C   0  0  0  0  0  0  0  0  0  0  0  0
    2.7140    1.2730    0.8720 C   0  0  0  0  0  0  0  0  0  0  0  0
    1.8560    1.1250    2.0800 C   0  0  0  0  0  0  0  0  0  0  0  0
    0.9160    0.0070    1.8200 C   0  0  1  0  0  0  0  0  0  0  0  0
   -0.4700    0.4290    1.4820 C   0  0  0  0  0  0  0  0  0  0  0  0
   -1.1630    1.1500    2.2350 O   0  0  0  0  0  0  0  0  0  0  0  0
    3.0140   -0.2160   -0.6850 H   0  0  0  0  0  0  0  0  0  0  0  0
    1.4660    0.7250   -0.7360 H   0  0  0  0  0  0  0  0  0  0  0  0
    3.7980    1.1250    1.0960 H   0  0  0  0  0  0  0  0  0  0  0  0
    2.6310    2.3050    0.4570 H   0  0  0  0  0  0  0  0  0  0  0  0
    2.5360    0.8380    2.9340 H   0  0  0  0  0  0  0  0  0  0  0  0
    1.3450    2.0680    2.3790 H   0  0  0  0  0  0  0  0  0  0  0  0
    0.8490   -0.6040    2.7500 H   0  0  0  0  0  0  0  0  0  0  0  0
   -1.5420    4.4450    0.0550 N   0  0  0  0  0  0  0  0  0  0  0  0
   -2.2460    3.2850   -0.3970 C   0  0  0  0  0  0  0  0  0  0  0  0
   -3.3870    3.0600    0.0610 O   0  0  0  0  0  0  0  0  0  0  0  0
   -1.6580    2.3670   -1.3840 C   0  0  0  0  0  0  0  0  0  0  0  0
   -2.4200    1.0960   -1.4430 C   0  0  0  0  0  0  0  0  0  0  0  0
   -2.3790    0.3650   -0.1540 C   0  0  2  0  0  0  0  0  0  0  0  0
   -1.0380    0.0090    0.2690 N   0  0  0  0  0  0  0  0  0  0  0  0
   -3.2610   -0.8590   -0.1730 C   0  0  0  0  0  0  0  0  0  0  0  0
   -4.4520   -0.8240   -0.4980 O   0  0  0  0  0  0  0  0  0  0  0  0
   -2.6990   -2.0750    0.1950 O   0  0  0  0  0  0  0  0  0  0  0  0
   -0.5190    4.4770    0.0930 H   0  0  0  0  0  0  0  0  0  0  0  0
   -2.0870    5.2780    0.3550 H   0  0  0  0  0  0  0  0  0  0  0  0
   -1.7210    2.8530   -2.3980 H   0  0  0  0  0  0  0  0  0  0  0  0
   -0.5620    2.2090   -1.2140 H   0  0  0  0  0  0  0  0  0  0  0  0
   -3.5040    1.3850   -1.6030 H   0  0  0  0  0  0  0  0  0  0  0  0
   -2.1900    0.4710   -2.3310 H   0  0  0  0  0  0  0  0  0  0  0  0
   -2.7980    0.9920    0.6440 H   0  0  0  0  0  0  0  0  0  0  0  0
   -0.4810   -0.5990   -0.3800 H   0  0  0  0  0  0  0  0  0  0  0  0
  1  5  1  0  0  0  0
  1  2  1  0  0  0  0
  2  9  1  0  0  0  0
  2  3  1  0  0  0  0
  3 11  1  0  0  0  0
  3 12  1  0  0  0  0
  4 13  1  0  0  0  0
  4  3  1  0  0  0  0
  4 14  1  0  0  0  0
  5 15  1  1  0  0  0
  5  4  1  0  0  0  0
  6 16  1  0  0  0  0
  6  5  1  0  0  0  0
  7  6  2  0  0  0  0
  8  1  1  0  0  0  0
 10  2  1  0  0  0  0
 16 20  1  0  0  0  0
 17 16  1  0  0  0  0
 17 18  1  0  0  0  0
 18 25  1  0  0  0  0
 18 19  1  0  0  0  0
 19 28  1  0  0  0  0
 19 27  1  0  0  0  0
 20 19  1  0  0  0  0
 20 29  1  1  0  0  0
 21 20  1  0  0  0  0
 21 22  2  0  0  0  0
 23 17  1  0  0  0  0
 24 17  1  0  0  0  0
 26 18  1  0  0  0  0
 30 40  1  0  0  0  0
 30 41  1  0  0  0  0
 31 30  1  0  0  0  0
 31 32  2  0  0  0  0
 33 43  1  0  0  0  0
 33 31  1  0  0  0  0
 34 33  1  0  0  0  0
 34 35  1  0  0  0  0
 35 36  1  0  0  0  0
 35 46  1  1  0  0  0
 36 21  1  0  0  0  0
 37 35  1  0  0  0  0
 37 39  1  0  0  0  0
 38 37  2  0  0  0  0
 42 33  1  0  0  0  0
 44 34  1  0  0  0  0
 45 34  1  0  0  0  0
 47 36  1  0  0  0  0
M  END
$$$$
