PPT.pdb
 OpenBabel07022419053D

 44 45  0  0  1  0  0  0  0  0999 V2000
    0.4960   -3.9410   -0.9800 N   0  0  0  0  0  0  0  0  0  0  0  0
    0.7730   -4.7510   -2.1380 C   0  0  0  0  0  0  0  0  0  0  0  0
    1.8180   -3.9470   -2.8780 C   0  0  0  0  0  0  0  0  0  0  0  0
    2.7430   -3.5470   -1.7220 C   0  0  0  0  0  0  0  0  0  0  0  0
    1.7300   -3.3590   -0.6050 C   0  0  1  0  0  0  0  0  0  0  0  0
    1.6190   -1.9400   -0.2300 C   0  0  0  0  0  0  0  0  0  0  0  0
    2.6780   -1.3580    0.1520 O   0  0  0  0  0  0  0  0  0  0  0  0
    0.1400   -4.5610   -0.1780 H   0  0  0  0  0  0  0  0  0  0  0  0
    1.2380   -5.7160   -1.8240 H   0  0  0  0  0  0  0  0  0  0  0  0
   -0.1410   -4.9080   -2.7450 H   0  0  0  0  0  0  0  0  0  0  0  0
    1.3410   -3.0770   -3.3290 H   0  0  0  0  0  0  0  0  0  0  0  0
    2.3810   -4.5820   -3.6060 H   0  0  0  0  0  0  0  0  0  0  0  0
    3.4010   -4.4230   -1.5480 H   0  0  0  0  0  0  0  0  0  0  0  0
    3.3140   -2.6460   -1.9410 H   0  0  0  0  0  0  0  0  0  0  0  0
    2.1960   -3.8740    0.2770 H   0  0  0  0  0  0  0  0  0  0  0  0
    0.3810   -1.2530   -0.2950 N   0  0  0  0  0  0  0  0  0  0  0  0
   -0.8690   -1.8270   -0.7140 C   0  0  0  0  0  0  0  0  0  0  0  0
   -1.8510   -0.6830   -0.6660 C   0  0  0  0  0  0  0  0  0  0  0  0
   -0.9980    0.5360   -0.7560 C   0  0  0  0  0  0  0  0  0  0  0  0
    0.2210    0.1630    0.0600 C   0  0  1  0  0  0  0  0  0  0  0  0
    0.0340    0.3230    1.5140 C   0  0  0  0  0  0  0  0  0  0  0  0
    0.0230   -0.6880    2.2980 O   0  0  0  0  0  0  0  0  0  0  0  0
   -1.2100   -2.6390   -0.0100 H   0  0  0  0  0  0  0  0  0  0  0  0
   -0.8300   -2.1850   -1.7730 H   0  0  0  0  0  0  0  0  0  0  0  0
   -2.6110   -0.7530   -1.4730 H   0  0  0  0  0  0  0  0  0  0  0  0
   -2.4010   -0.7610    0.3020 H   0  0  0  0  0  0  0  0  0  0  0  0
   -0.6550    0.6360   -1.8090 H   0  0  0  0  0  0  0  0  0  0  0  0
   -1.4830    1.4610   -0.4060 H   0  0  0  0  0  0  0  0  0  0  0  0
    1.0990    0.7260   -0.2580 H   0  0  0  0  0  0  0  0  0  0  0  0
    0.7640    3.9400    3.7690 C   0  0  0  0  0  0  0  0  0  0  0  0
    0.7540    2.5030    4.2370 C   0  0  1  0  0  0  0  0  0  0  0  0
    0.4630    2.5240    5.6020 O   0  0  0  0  0  0  0  0  0  0  0  0
   -0.3250    1.6880    3.5660 C   0  0  2  0  0  0  0  0  0  0  0  0
   -0.1460    1.5850    2.1430 N   0  0  0  0  0  0  0  0  0  0  0  0
   -1.6430    2.2740    3.8860 C   0  0  0  0  0  0  0  0  0  0  0  0
   -1.9870    2.4470    5.0670 O   0  0  0  0  0  0  0  0  0  0  0  0
   -2.4850    2.6280    2.8530 O   0  0  0  0  0  0  0  0  0  0  0  0
   -0.2680    4.3400    3.8330 H   0  0  0  0  0  0  0  0  0  0  0  0
    1.3770    4.5100    4.4960 H   0  0  0  0  0  0  0  0  0  0  0  0
    1.2170    4.0690    2.7780 H   0  0  0  0  0  0  0  0  0  0  0  0
    1.7470    2.0260    4.1320 H   0  0  0  0  0  0  0  0  0  0  0  0
    0.6910    1.6450    6.0280 H   0  0  0  0  0  0  0  0  0  0  0  0
   -0.3020    0.6830    4.0630 H   0  0  0  0  0  0  0  0  0  0  0  0
   -0.1470    2.4510    1.5610 H   0  0  0  0  0  0  0  0  0  0  0  0
  1  5  1  0  0  0  0
  1  8  1  0  0  0  0
  2  9  1  0  0  0  0
  2  1  1  0  0  0  0
  3  2  1  0  0  0  0
  3  4  1  0  0  0  0
  4 13  1  0  0  0  0
  4  5  1  0  0  0  0
  5  6  1  0  0  0  0
  5 15  1  1  0  0  0
  6  7  2  0  0  0  0
 10  2  1  0  0  0  0
 11  3  1  0  0  0  0
 12  3  1  0  0  0  0
 14  4  1  0  0  0  0
 16  6  1  0  0  0  0
 16 20  1  0  0  0  0
 17 18  1  0  0  0  0
 17 16  1  0  0  0  0
 17 23  1  0  0  0  0
 18 26  1  0  0  0  0
 19 18  1  0  0  0  0
 19 28  1  0  0  0  0
 19 20  1  0  0  0  0
 20 29  1  6  0  0  0
 20 21  1  0  0  0  0
 21 34  1  0  0  0  0
 21 22  2  0  0  0  0
 24 17  1  0  0  0  0
 25 18  1  0  0  0  0
 27 19  1  0  0  0  0
 30 38  1  0  0  0  0
 30 31  1  0  0  0  0
 30 39  1  0  0  0  0
 31 41  1  6  0  0  0
 31 32  1  0  0  0  0
 32 42  1  0  0  0  0
 33 35  1  0  0  0  0
 33 43  1  1  0  0  0
 33 31  1  0  0  0  0
 34 33  1  0  0  0  0
 35 36  1  0  0  0  0
 37 35  2  0  0  0  0
 40 30  1  0  0  0  0
 44 34  1  0  0  0  0
M  END
$$$$
