PPV.pdb
 OpenBabel07022419053D

 46 47  0  0  1  0  0  0  0  0999 V2000
   -0.4390   -4.7160    0.5270 N   0  0  0  0  0  0  0  0  0  0  0  0
    0.0710   -5.7070   -0.4070 C   0  0  0  0  0  0  0  0  0  0  0  0
    1.5570   -5.3380   -0.5510 C   0  0  0  0  0  0  0  0  0  0  0  0
    1.8740   -5.0650    0.9020 C   0  0  0  0  0  0  0  0  0  0  0  0
    0.6470   -4.2590    1.3220 C   0  0  1  0  0  0  0  0  0  0  0  0
    1.0170   -2.8380    1.1480 C   0  0  0  0  0  0  0  0  0  0  0  0
    1.9980   -2.4420    1.8660 O   0  0  0  0  0  0  0  0  0  0  0  0
   -1.2280   -5.1380    1.0290 H   0  0  0  0  0  0  0  0  0  0  0  0
    0.0580   -6.6820    0.1230 H   0  0  0  0  0  0  0  0  0  0  0  0
   -0.4450   -5.7070   -1.3660 H   0  0  0  0  0  0  0  0  0  0  0  0
    1.6600   -4.3960   -1.1000 H   0  0  0  0  0  0  0  0  0  0  0  0
    2.1390   -6.1800   -0.9640 H   0  0  0  0  0  0  0  0  0  0  0  0
    2.7990   -4.4530    1.0050 H   0  0  0  0  0  0  0  0  0  0  0  0
    1.9370   -6.0050    1.4870 H   0  0  0  0  0  0  0  0  0  0  0  0
    0.4520   -4.4370    2.4130 H   0  0  0  0  0  0  0  0  0  0  0  0
    0.4130   -1.9070    0.2970 N   0  0  0  0  0  0  0  0  0  0  0  0
   -0.6800   -2.0130   -0.6280 C   0  0  0  0  0  0  0  0  0  0  0  0
   -0.3410   -1.0230   -1.7260 C   0  0  0  0  0  0  0  0  0  0  0  0
    0.8720   -0.2710   -1.2540 C   0  0  0  0  0  0  0  0  0  0  0  0
    0.8540   -0.5020    0.2170 C   0  0  1  0  0  0  0  0  0  0  0  0
   -0.1480    0.3020    0.9410 C   0  0  0  0  0  0  0  0  0  0  0  0
   -1.1650   -0.1620    1.5190 O   0  0  0  0  0  0  0  0  0  0  0  0
   -0.8030   -3.0370   -1.0510 H   0  0  0  0  0  0  0  0  0  0  0  0
   -1.6610   -1.6560   -0.1950 H   0  0  0  0  0  0  0  0  0  0  0  0
   -0.1360   -1.6050   -2.6580 H   0  0  0  0  0  0  0  0  0  0  0  0
   -1.1410   -0.2810   -1.9010 H   0  0  0  0  0  0  0  0  0  0  0  0
    0.8510    0.7990   -1.5400 H   0  0  0  0  0  0  0  0  0  0  0  0
    1.7620   -0.7840   -1.6720 H   0  0  0  0  0  0  0  0  0  0  0  0
    1.8500   -0.3670    0.6930 H   0  0  0  0  0  0  0  0  0  0  0  0
   -1.1220    4.0690    3.7080 C   0  0  0  0  0  0  0  0  0  0  0  0
   -0.2340    3.1670    2.9090 C   0  0  0  0  0  0  0  0  0  0  0  0
    1.0200    3.8700    2.4490 C   0  0  0  0  0  0  0  0  0  0  0  0
   -0.9390    2.5710    1.7130 C   0  0  2  0  0  0  0  0  0  0  0  0
    0.0050    1.7240    1.0200 N   0  0  0  0  0  0  0  0  0  0  0  0
   -1.5660    3.5680    0.8500 C   0  0  0  0  0  0  0  0  0  0  0  0
   -1.2740    3.6360   -0.3690 O   0  0  0  0  0  0  0  0  0  0  0  0
   -2.4980    4.4680    1.3380 O   0  0  0  0  0  0  0  0  0  0  0  0
   -0.8600    5.1170    3.4710 H   0  0  0  0  0  0  0  0  0  0  0  0
   -0.9200    3.9130    4.8080 H   0  0  0  0  0  0  0  0  0  0  0  0
   -2.1970    3.8490    3.5790 H   0  0  0  0  0  0  0  0  0  0  0  0
    0.0740    2.3210    3.5580 H   0  0  0  0  0  0  0  0  0  0  0  0
    1.3050    4.6550    3.1780 H   0  0  0  0  0  0  0  0  0  0  0  0
    1.8650    3.1650    2.3180 H   0  0  0  0  0  0  0  0  0  0  0  0
    0.8110    4.3300    1.4600 H   0  0  0  0  0  0  0  0  0  0  0  0
   -1.7360    1.8870    2.1280 H   0  0  0  0  0  0  0  0  0  0  0  0
    0.8170    2.1950    0.5700 H   0  0  0  0  0  0  0  0  0  0  0  0
  1  8  1  0  0  0  0
  1  5  1  0  0  0  0
  2  9  1  0  0  0  0
  2  1  1  0  0  0  0
  3  2  1  0  0  0  0
  3  4  1  0  0  0  0
  4 13  1  0  0  0  0
  4  5  1  0  0  0  0
  4 14  1  0  0  0  0
  5 15  1  1  0  0  0
  6  5  1  0  0  0  0
  6  7  2  0  0  0  0
 10  2  1  0  0  0  0
 11  3  1  0  0  0  0
 12  3  1  0  0  0  0
 16  6  1  0  0  0  0
 17 24  1  0  0  0  0
 17 16  1  0  0  0  0
 18 19  1  0  0  0  0
 18 17  1  0  0  0  0
 19 20  1  0  0  0  0
 20 16  1  0  0  0  0
 20 29  1  1  0  0  0
 20 21  1  0  0  0  0
 21 34  1  0  0  0  0
 21 22  2  0  0  0  0
 23 17  1  0  0  0  0
 25 18  1  0  0  0  0
 26 18  1  0  0  0  0
 27 19  1  0  0  0  0
 28 19  1  0  0  0  0
 30 39  1  0  0  0  0
 31 41  1  0  0  0  0
 31 30  1  0  0  0  0
 32 31  1  0  0  0  0
 32 42  1  0  0  0  0
 33 45  1  1  0  0  0
 33 31  1  0  0  0  0
 34 33  1  0  0  0  0
 35 37  1  0  0  0  0
 35 33  1  0  0  0  0
 36 35  2  0  0  0  0
 38 30  1  0  0  0  0
 40 30  1  0  0  0  0
 43 32  1  0  0  0  0
 44 32  1  0  0  0  0
 46 34  1  0  0  0  0
M  END
$$$$
