PQA.pdb
 OpenBabel07022419033D

 43 43  0  0  1  0  0  0  0  0999 V2000
    4.3750   -1.7800    0.0770 N   0  0  0  0  0  0  0  0  0  0  0  0
    4.6720   -1.5660    1.4570 C   0  0  0  0  0  0  0  0  0  0  0  0
    4.1370   -2.7640    2.2150 C   0  0  0  0  0  0  0  0  0  0  0  0
    3.8200   -3.7740    1.1300 C   0  0  0  0  0  0  0  0  0  0  0  0
    3.4300   -2.8540   -0.0130 C   0  0  1  0  0  0  0  0  0  0  0  0
    2.0240   -2.4470    0.2330 C   0  0  0  0  0  0  0  0  0  0  0  0
    1.0830   -3.3080    0.1670 O   0  0  0  0  0  0  0  0  0  0  0  0
    3.9600   -0.9230   -0.3270 H   0  0  0  0  0  0  0  0  0  0  0  0
    5.7930   -1.5490    1.5620 H   0  0  0  0  0  0  0  0  0  0  0  0
    4.3060   -0.6370    1.8960 H   0  0  0  0  0  0  0  0  0  0  0  0
    3.2380   -2.4920    2.8070 H   0  0  0  0  0  0  0  0  0  0  0  0
    4.9040   -3.1600    2.9020 H   0  0  0  0  0  0  0  0  0  0  0  0
    4.7560   -4.3190    0.8940 H   0  0  0  0  0  0  0  0  0  0  0  0
    3.0130   -4.4170    1.4730 H   0  0  0  0  0  0  0  0  0  0  0  0
    3.5400   -3.3860   -0.9670 H   0  0  0  0  0  0  0  0  0  0  0  0
   -2.8250    1.7100    3.1130 N   0  0  0  0  0  0  0  0  0  0  0  0
   -1.5450    1.3220    2.6260 C   0  0  0  0  0  0  0  0  0  0  0  0
   -0.8940    2.1360    1.9360 O   0  0  0  0  0  0  0  0  0  0  0  0
   -1.0120   -0.0180    2.9460 C   0  0  0  0  0  0  0  0  0  0  0  0
    0.1750   -0.4660    2.2260 C   0  0  0  0  0  0  0  0  0  0  0  0
    0.2040   -0.7470    0.7900 C   0  0  2  0  0  0  0  0  0  0  0  0
    1.6270   -1.1390    0.5450 N   0  0  0  0  0  0  0  0  0  0  0  0
   -0.2590    0.1480   -0.2200 C   0  0  0  0  0  0  0  0  0  0  0  0
    0.5600    0.7330   -1.0350 O   0  0  0  0  0  0  0  0  0  0  0  0
   -3.5080    1.0360    3.4910 H   0  0  0  0  0  0  0  0  0  0  0  0
   -3.0740    2.7150    3.0830 H   0  0  0  0  0  0  0  0  0  0  0  0
   -1.8360   -0.7850    2.9740 H   0  0  0  0  0  0  0  0  0  0  0  0
   -0.7320    0.0570    4.0510 H   0  0  0  0  0  0  0  0  0  0  0  0
    1.0370    0.2580    2.4960 H   0  0  0  0  0  0  0  0  0  0  0  0
    0.5790   -1.4140    2.7450 H   0  0  0  0  0  0  0  0  0  0  0  0
   -0.3400   -1.7430    0.6500 H   0  0  0  0  0  0  0  0  0  0  0  0
    2.2960   -0.3580    0.6280 H   0  0  0  0  0  0  0  0  0  0  0  0
   -2.6800    0.6350   -2.6730 C   0  0  0  0  0  0  0  0  0  0  0  0
   -1.9940    1.3920   -1.5390 C   0  0  2  0  0  0  0  0  0  0  0  0
   -1.6160    0.4940   -0.4700 N   0  0  0  0  0  0  0  0  0  0  0  0
   -2.9490    2.4030   -1.0910 C   0  0  0  0  0  0  0  0  0  0  0  0
   -3.3840    3.3030   -1.8720 O   0  0  0  0  0  0  0  0  0  0  0  0
   -3.4290    2.4330    0.1960 O   0  0  0  0  0  0  0  0  0  0  0  0
   -1.9230    0.3000   -3.4090 H   0  0  0  0  0  0  0  0  0  0  0  0
   -3.3350    1.3510   -3.2230 H   0  0  0  0  0  0  0  0  0  0  0  0
   -3.3180   -0.1680   -2.3060 H   0  0  0  0  0  0  0  0  0  0  0  0
   -1.0940    1.8460   -1.9890 H   0  0  0  0  0  0  0  0  0  0  0  0
   -2.3650    0.0910    0.1330 H   0  0  0  0  0  0  0  0  0  0  0  0
  1  2  1  0  0  0  0
  2  9  1  0  0  0  0
  2 10  1  0  0  0  0
  2  3  1  0  0  0  0
  3 11  1  0  0  0  0
  3 12  1  0  0  0  0
  4 14  1  0  0  0  0
  4  3  1  0  0  0  0
  5 15  1  6  0  0  0
  5  1  1  0  0  0  0
  5  6  1  0  0  0  0
  5  4  1  0  0  0  0
  6 22  1  0  0  0  0
  7  6  2  0  0  0  0
  8  1  1  0  0  0  0
 13  4  1  0  0  0  0
 16 25  1  0  0  0  0
 17 19  1  0  0  0  0
 17 16  1  0  0  0  0
 18 17  2  0  0  0  0
 19 27  1  0  0  0  0
 19 28  1  0  0  0  0
 20 29  1  0  0  0  0
 20 30  1  0  0  0  0
 20 19  1  0  0  0  0
 21 31  1  6  0  0  0
 21 20  1  0  0  0  0
 22 32  1  0  0  0  0
 22 21  1  0  0  0  0
 23 21  1  0  0  0  0
 24 23  2  0  0  0  0
 26 16  1  0  0  0  0
 33 41  1  0  0  0  0
 33 34  1  0  0  0  0
 34 42  1  6  0  0  0
 34 36  1  0  0  0  0
 34 35  1  0  0  0  0
 35 23  1  0  0  0  0
 35 43  1  0  0  0  0
 36 38  1  0  0  0  0
 37 36  2  0  0  0  0
 39 33  1  0  0  0  0
 40 33  1  0  0  0  0
M  END
$$$$
