PQG.pdb
 OpenBabel07022419033D

 40 40  0  0  1  0  0  0  0  0999 V2000
    1.2220   -2.9960    2.4950 N   0  0  0  0  0  0  0  0  0  0  0  0
    0.6100   -3.9160    1.5940 C   0  0  0  0  0  0  0  0  0  0  0  0
    1.5410   -4.2070    0.4670 C   0  0  0  0  0  0  0  0  0  0  0  0
    2.8450   -3.5690    0.8970 C   0  0  0  0  0  0  0  0  0  0  0  0
    2.4050   -2.4920    1.8900 C   0  0  1  0  0  0  0  0  0  0  0  0
    2.2020   -1.2620    1.0860 C   0  0  0  0  0  0  0  0  0  0  0  0
    3.1750   -0.6810    0.5140 O   0  0  0  0  0  0  0  0  0  0  0  0
    0.5520   -2.3610    2.8940 H   0  0  0  0  0  0  0  0  0  0  0  0
    0.3200   -4.8170    2.1740 H   0  0  0  0  0  0  0  0  0  0  0  0
   -0.3360   -3.5010    1.1380 H   0  0  0  0  0  0  0  0  0  0  0  0
    1.6370   -5.3120    0.3760 H   0  0  0  0  0  0  0  0  0  0  0  0
    1.1900   -3.8280   -0.5120 H   0  0  0  0  0  0  0  0  0  0  0  0
    3.3700   -3.1480    0.0350 H   0  0  0  0  0  0  0  0  0  0  0  0
    3.4450   -4.3510    1.4040 H   0  0  0  0  0  0  0  0  0  0  0  0
    3.1770   -2.3480    2.6800 H   0  0  0  0  0  0  0  0  0  0  0  0
   -2.1460    1.5440   -3.8760 N   0  0  0  0  0  0  0  0  0  0  0  0
   -1.6270    0.6570   -2.9000 C   0  0  0  0  0  0  0  0  0  0  0  0
   -1.9520   -0.5510   -2.9510 O   0  0  0  0  0  0  0  0  0  0  0  0
   -0.7180    1.1790   -1.8520 C   0  0  0  0  0  0  0  0  0  0  0  0
   -0.2850    0.0900   -0.9290 C   0  0  0  0  0  0  0  0  0  0  0  0
    0.6330    0.4950    0.1680 C   0  0  2  0  0  0  0  0  0  0  0  0
    0.9260   -0.7190    0.9440 N   0  0  0  0  0  0  0  0  0  0  0  0
    0.1420    1.5410    1.0590 C   0  0  0  0  0  0  0  0  0  0  0  0
   -0.1900    2.6900    0.6850 O   0  0  0  0  0  0  0  0  0  0  0  0
   -1.6750    2.4320   -4.1610 H   0  0  0  0  0  0  0  0  0  0  0  0
   -3.0560    1.3380   -4.3680 H   0  0  0  0  0  0  0  0  0  0  0  0
    0.1680    1.6060   -2.3790 H   0  0  0  0  0  0  0  0  0  0  0  0
   -1.2260    2.0200   -1.3670 H   0  0  0  0  0  0  0  0  0  0  0  0
   -1.2000   -0.3920   -0.5250 H   0  0  0  0  0  0  0  0  0  0  0  0
    0.2280   -0.6860   -1.5350 H   0  0  0  0  0  0  0  0  0  0  0  0
    1.6180    0.8210   -0.2310 H   0  0  0  0  0  0  0  0  0  0  0  0
    0.1000   -1.1570    1.3870 H   0  0  0  0  0  0  0  0  0  0  0  0
    0.0110    1.2930    2.4580 N   0  0  0  0  0  0  0  0  0  0  0  0
   -0.4790    2.3450    3.3260 C   0  0  0  0  0  0  0  0  0  0  0  0
   -0.5100    1.8110    4.7050 C   0  0  0  0  0  0  0  0  0  0  0  0
   -0.9070    2.5640    5.6240 O   0  0  0  0  0  0  0  0  0  0  0  0
   -0.1240    0.5240    5.0320 O   0  0  0  0  0  0  0  0  0  0  0  0
    0.2650    0.3540    2.8750 H   0  0  0  0  0  0  0  0  0  0  0  0
   -1.5210    2.6400    3.0730 H   0  0  0  0  0  0  0  0  0  0  0  0
    0.1890    3.2310    3.3150 H   0  0  0  0  0  0  0  0  0  0  0  0
  1  8  1  0  0  0  0
  2  9  1  0  0  0  0
  2  1  1  0  0  0  0
  3  4  1  0  0  0  0
  3  2  1  0  0  0  0
  4 14  1  0  0  0  0
  4  5  1  0  0  0  0
  5  1  1  0  0  0  0
  5 15  1  1  0  0  0
  6  5  1  0  0  0  0
  7  6  2  0  0  0  0
 10  2  1  0  0  0  0
 11  3  1  0  0  0  0
 12  3  1  0  0  0  0
 13  4  1  0  0  0  0
 16 17  1  0  0  0  0
 17 19  1  0  0  0  0
 18 17  2  0  0  0  0
 19 28  1  0  0  0  0
 19 20  1  0  0  0  0
 20 29  1  0  0  0  0
 20 21  1  0  0  0  0
 21 31  1  6  0  0  0
 21 22  1  0  0  0  0
 21 23  1  0  0  0  0
 22  6  1  0  0  0  0
 22 32  1  0  0  0  0
 23 33  1  0  0  0  0
 24 23  2  0  0  0  0
 25 16  1  0  0  0  0
 26 16  1  0  0  0  0
 27 19  1  0  0  0  0
 30 20  1  0  0  0  0
 33 38  1  0  0  0  0
 33 34  1  0  0  0  0
 34 35  1  0  0  0  0
 35 37  2  0  0  0  0
 35 36  1  0  0  0  0
 39 34  1  0  0  0  0
 40 34  1  0  0  0  0
M  END
$$$$
