PQK.pdb
 OpenBabel07022419033D

 54 54  0  0  1  0  0  0  0  0999 V2000
    2.4900   -2.6570    3.3850 N   0  0  0  0  0  0  0  0  0  0  0  0
    1.5750   -2.4950    4.4650 C   0  0  0  0  0  0  0  0  0  0  0  0
    0.3030   -3.1940    4.0220 C   0  0  0  0  0  0  0  0  0  0  0  0
    0.6350   -3.8060    2.6820 C   0  0  0  0  0  0  0  0  0  0  0  0
    1.7590   -2.9470    2.1980 C   0  0  1  0  0  0  0  0  0  0  0  0
    1.2930   -1.7520    1.4510 C   0  0  0  0  0  0  0  0  0  0  0  0
    0.6450   -1.9460    0.4070 O   0  0  0  0  0  0  0  0  0  0  0  0
    3.2460   -1.9780    3.3120 H   0  0  0  0  0  0  0  0  0  0  0  0
    2.0180   -2.9820    5.3610 H   0  0  0  0  0  0  0  0  0  0  0  0
    1.3310   -1.4580    4.7340 H   0  0  0  0  0  0  0  0  0  0  0  0
   -0.5620   -2.5120    3.9910 H   0  0  0  0  0  0  0  0  0  0  0  0
    0.0900   -3.9930    4.7810 H   0  0  0  0  0  0  0  0  0  0  0  0
    1.0350   -4.8230    2.8730 H   0  0  0  0  0  0  0  0  0  0  0  0
   -0.2220   -3.8550    2.0040 H   0  0  0  0  0  0  0  0  0  0  0  0
    2.3830   -3.5960    1.5200 H   0  0  0  0  0  0  0  0  0  0  0  0
    3.4890   -1.5570   -1.4330 N   0  0  0  0  0  0  0  0  0  0  0  0
    3.3740   -0.4650   -0.5360 C   0  0  0  0  0  0  0  0  0  0  0  0
    3.9870   -0.4640    0.5850 O   0  0  0  0  0  0  0  0  0  0  0  0
    2.5550    0.7160   -0.8470 C   0  0  0  0  0  0  0  0  0  0  0  0
    2.0930    1.4870    0.3450 C   0  0  0  0  0  0  0  0  0  0  0  0
    1.1490    0.7880    1.2640 C   0  0  2  0  0  0  0  0  0  0  0  0
    1.5470   -0.4110    1.8630 N   0  0  0  0  0  0  0  0  0  0  0  0
   -0.2580    0.9670    0.8600 C   0  0  0  0  0  0  0  0  0  0  0  0
   -0.4880    2.0070    0.1670 O   0  0  0  0  0  0  0  0  0  0  0  0
    4.2870   -1.6890   -2.0990 H   0  0  0  0  0  0  0  0  0  0  0  0
    2.7410   -2.2760   -1.4360 H   0  0  0  0  0  0  0  0  0  0  0  0
    1.6660    0.3630   -1.4240 H   0  0  0  0  0  0  0  0  0  0  0  0
    3.1310    1.3610   -1.5530 H   0  0  0  0  0  0  0  0  0  0  0  0
    1.6340    2.4400   -0.0340 H   0  0  0  0  0  0  0  0  0  0  0  0
    2.9900    1.8310    0.9390 H   0  0  0  0  0  0  0  0  0  0  0  0
    1.1490    1.5460    2.2020 H   0  0  0  0  0  0  0  0  0  0  0  0
    2.1380   -0.3570    2.7650 H   0  0  0  0  0  0  0  0  0  0  0  0
   -1.3240    0.1310    1.1680 N   0  0  0  0  0  0  0  0  0  0  0  0
   -2.6620    0.4210    0.7250 C   0  0  1  0  0  0  0  0  0  0  0  0
   -3.1730   -0.6940   -0.1390 C   0  0  0  0  0  0  0  0  0  0  0  0
   -2.4030   -0.9340   -1.3930 C   0  0  0  0  0  0  0  0  0  0  0  0
   -2.4140    0.2580   -2.3320 C   0  0  0  0  0  0  0  0  0  0  0  0
   -1.6170   -0.0430   -3.5800 C   0  0  0  0  0  0  0  0  0  0  0  0
   -1.6520    1.1170   -4.4490 N   0  0  0  0  0  0  0  0  0  0  0  0
   -3.5790    0.7140    1.8470 C   0  0  0  0  0  0  0  0  0  0  0  0
   -3.1480    0.6870    3.0120 O   0  0  0  0  0  0  0  0  0  0  0  0
   -4.8990    1.0160    1.6240 O   0  0  0  0  0  0  0  0  0  0  0  0
   -1.1960   -0.7410    1.7630 H   0  0  0  0  0  0  0  0  0  0  0  0
   -2.6120    1.3440    0.0650 H   0  0  0  0  0  0  0  0  0  0  0  0
   -3.0530   -1.6410    0.4770 H   0  0  0  0  0  0  0  0  0  0  0  0
   -4.2770   -0.5920   -0.3340 H   0  0  0  0  0  0  0  0  0  0  0  0
   -1.3790   -1.2060   -1.1610 H   0  0  0  0  0  0  0  0  0  0  0  0
   -2.8710   -1.8270   -1.9030 H   0  0  0  0  0  0  0  0  0  0  0  0
   -3.4520    0.4920   -2.6690 H   0  0  0  0  0  0  0  0  0  0  0  0
   -2.0260    1.1580   -1.8720 H   0  0  0  0  0  0  0  0  0  0  0  0
   -2.1080   -0.9160   -4.0880 H   0  0  0  0  0  0  0  0  0  0  0  0
   -0.5610   -0.3110   -3.3160 H   0  0  0  0  0  0  0  0  0  0  0  0
   -2.4510    1.7120   -4.1710 H   0  0  0  0  0  0  0  0  0  0  0  0
   -0.7710    1.6390   -4.3260 H   0  0  0  0  0  0  0  0  0  0  0  0
  1  2  1  0  0  0  0
  2 10  1  0  0  0  0
  2  9  1  0  0  0  0
  3  2  1  0  0  0  0
  3 12  1  0  0  0  0
  4 13  1  0  0  0  0
  4  3  1  0  0  0  0
  5 15  1  6  0  0  0
  5  4  1  0  0  0  0
  5  1  1  0  0  0  0
  6 22  1  0  0  0  0
  6  5  1  0  0  0  0
  7  6  2  0  0  0  0
  8  1  1  0  0  0  0
 11  3  1  0  0  0  0
 14  4  1  0  0  0  0
 16 17  1  0  0  0  0
 17 18  2  0  0  0  0
 19 17  1  0  0  0  0
 19 20  1  0  0  0  0
 20 30  1  0  0  0  0
 20 21  1  0  0  0  0
 21 22  1  0  0  0  0
 21 31  1  1  0  0  0
 22 32  1  0  0  0  0
 23 33  1  0  0  0  0
 23 21  1  0  0  0  0
 24 23  2  0  0  0  0
 25 16  1  0  0  0  0
 26 16  1  0  0  0  0
 27 19  1  0  0  0  0
 28 19  1  0  0  0  0
 29 20  1  0  0  0  0
 33 43  1  0  0  0  0
 34 44  1  6  0  0  0
 34 33  1  0  0  0  0
 34 40  1  0  0  0  0
 35 45  1  0  0  0  0
 35 34  1  0  0  0  0
 36 47  1  0  0  0  0
 36 35  1  0  0  0  0
 37 50  1  0  0  0  0
 37 36  1  0  0  0  0
 38 52  1  0  0  0  0
 38 37  1  0  0  0  0
 39 54  1  0  0  0  0
 39 53  1  0  0  0  0
 39 38  1  0  0  0  0
 40 41  1  0  0  0  0
 42 40  2  0  0  0  0
 46 35  1  0  0  0  0
 48 36  1  0  0  0  0
 49 37  1  0  0  0  0
 51 38  1  0  0  0  0
M  END
$$$$
