PQN.pdb
 OpenBabel07022419033D

 47 47  0  0  1  0  0  0  0  0999 V2000
    3.8430   -2.9710    1.7720 N   0  0  0  0  0  0  0  0  0  0  0  0
    3.0660   -4.0930    2.2020 C   0  0  0  0  0  0  0  0  0  0  0  0
    2.0160   -4.3550    1.1490 C   0  0  0  0  0  0  0  0  0  0  0  0
    2.4880   -3.5390   -0.0120 C   0  0  0  0  0  0  0  0  0  0  0  0
    3.1670   -2.3590    0.6470 C   0  0  1  0  0  0  0  0  0  0  0  0
    2.2180   -1.3650    1.1500 C   0  0  0  0  0  0  0  0  0  0  0  0
    2.0870   -1.1510    2.3820 O   0  0  0  0  0  0  0  0  0  0  0  0
    4.8340   -3.1610    1.5890 H   0  0  0  0  0  0  0  0  0  0  0  0
    3.7020   -5.0130    2.2520 H   0  0  0  0  0  0  0  0  0  0  0  0
    2.6110   -3.9850    3.1960 H   0  0  0  0  0  0  0  0  0  0  0  0
    1.0340   -3.9790    1.4740 H   0  0  0  0  0  0  0  0  0  0  0  0
    1.9310   -5.4460    0.9080 H   0  0  0  0  0  0  0  0  0  0  0  0
    1.6730   -3.2350   -0.7000 H   0  0  0  0  0  0  0  0  0  0  0  0
    3.2820   -4.1210   -0.5360 H   0  0  0  0  0  0  0  0  0  0  0  0
    3.8940   -1.9010   -0.0540 H   0  0  0  0  0  0  0  0  0  0  0  0
    4.4490    1.8160    1.3410 N   0  0  0  0  0  0  0  0  0  0  0  0
    3.2430    1.7220    0.5520 C   0  0  0  0  0  0  0  0  0  0  0  0
    3.2960    1.1300   -0.5260 O   0  0  0  0  0  0  0  0  0  0  0  0
    2.0290    2.3400    1.0800 C   0  0  0  0  0  0  0  0  0  0  0  0
    0.7520    1.8250    0.5040 C   0  0  0  0  0  0  0  0  0  0  0  0
    0.4540    0.3990    0.7780 C   0  0  2  0  0  0  0  0  0  0  0  0
    1.3820   -0.5730    0.2940 N   0  0  0  0  0  0  0  0  0  0  0  0
   -0.9160    0.0100    0.2970 C   0  0  0  0  0  0  0  0  0  0  0  0
   -1.0960   -1.0180   -0.4070 O   0  0  0  0  0  0  0  0  0  0  0  0
    4.5450    2.5440    2.0800 H   0  0  0  0  0  0  0  0  0  0  0  0
    5.2400    1.1560    1.1810 H   0  0  0  0  0  0  0  0  0  0  0  0
    1.9580    2.2260    2.1970 H   0  0  0  0  0  0  0  0  0  0  0  0
    2.1190    3.4430    0.8480 H   0  0  0  0  0  0  0  0  0  0  0  0
   -0.0650    2.4960    0.9210 H   0  0  0  0  0  0  0  0  0  0  0  0
    0.7650    2.0690   -0.5880 H   0  0  0  0  0  0  0  0  0  0  0  0
    0.4770    0.3060    1.9190 H   0  0  0  0  0  0  0  0  0  0  0  0
    1.4580   -0.7500   -0.7490 H   0  0  0  0  0  0  0  0  0  0  0  0
   -5.9920   -1.5990    0.5780 N   0  0  0  0  0  0  0  0  0  0  0  0
   -5.6420   -0.2320    0.8560 C   0  0  0  0  0  0  0  0  0  0  0  0
   -6.5420    0.6410    0.6820 O   0  0  0  0  0  0  0  0  0  0  0  0
   -4.2990    0.1160    1.3210 C   0  0  0  0  0  0  0  0  0  0  0  0
   -3.4140    0.4380    0.1670 C   0  0  2  0  0  0  0  0  0  0  0  0
   -2.0560    0.7900    0.6220 N   0  0  0  0  0  0  0  0  0  0  0  0
   -3.9120    1.4680   -0.7490 C   0  0  0  0  0  0  0  0  0  0  0  0
   -3.2110    2.5030   -1.0360 O   0  0  0  0  0  0  0  0  0  0  0  0
   -5.1450    1.4210   -1.3700 O   0  0  0  0  0  0  0  0  0  0  0  0
   -6.8990   -1.8410    0.1250 H   0  0  0  0  0  0  0  0  0  0  0  0
   -5.3570   -2.3900    0.8170 H   0  0  0  0  0  0  0  0  0  0  0  0
   -3.8690   -0.7600    1.8600 H   0  0  0  0  0  0  0  0  0  0  0  0
   -4.3810    0.9520    2.0570 H   0  0  0  0  0  0  0  0  0  0  0  0
   -3.2860   -0.4990   -0.4300 H   0  0  0  0  0  0  0  0  0  0  0  0
   -1.9250    1.6360    1.1980 H   0  0  0  0  0  0  0  0  0  0  0  0
  1  2  1  0  0  0  0
  2  9  1  0  0  0  0
  2 10  1  0  0  0  0
  3 11  1  0  0  0  0
  3  2  1  0  0  0  0
  4  5  1  0  0  0  0
  4  3  1  0  0  0  0
  5 15  1  6  0  0  0
  5  6  1  0  0  0  0
  5  1  1  0  0  0  0
  6  7  2  0  0  0  0
  8  1  1  0  0  0  0
 12  3  1  0  0  0  0
 13  4  1  0  0  0  0
 14  4  1  0  0  0  0
 16 25  1  0  0  0  0
 17 19  1  0  0  0  0
 17 16  1  0  0  0  0
 18 17  2  0  0  0  0
 19 27  1  0  0  0  0
 20 21  1  0  0  0  0
 20 29  1  0  0  0  0
 20 19  1  0  0  0  0
 21 31  1  1  0  0  0
 22 21  1  0  0  0  0
 22  6  1  0  0  0  0
 23 38  1  0  0  0  0
 23 21  1  0  0  0  0
 24 23  2  0  0  0  0
 26 16  1  0  0  0  0
 28 19  1  0  0  0  0
 30 20  1  0  0  0  0
 32 22  1  0  0  0  0
 33 43  1  0  0  0  0
 33 34  1  0  0  0  0
 34 36  1  0  0  0  0
 35 34  2  0  0  0  0
 36 44  1  0  0  0  0
 36 45  1  0  0  0  0
 37 46  1  6  0  0  0
 37 38  1  0  0  0  0
 37 36  1  0  0  0  0
 38 47  1  0  0  0  0
 39 37  1  0  0  0  0
 40 39  1  0  0  0  0
 41 39  2  0  0  0  0
 42 33  1  0  0  0  0
M  END
$$$$
