PQP.pdb
 OpenBabel07022419033D

 47 48  0  0  1  0  0  0  0  0999 V2000
    2.9600   -3.0680    1.8920 N   0  0  0  0  0  0  0  0  0  0  0  0
    3.1470   -3.6820    0.6260 C   0  0  0  0  0  0  0  0  0  0  0  0
    4.1800   -2.9250   -0.1430 C   0  0  0  0  0  0  0  0  0  0  0  0
    4.7120   -1.9150    0.8300 C   0  0  0  0  0  0  0  0  0  0  0  0
    3.6350   -1.8200    1.9310 C   0  0  1  0  0  0  0  0  0  0  0  0
    2.7170   -0.7230    1.5480 C   0  0  0  0  0  0  0  0  0  0  0  0
    3.1570    0.4880    1.5530 O   0  0  0  0  0  0  0  0  0  0  0  0
    2.0840   -3.1650    2.3730 H   0  0  0  0  0  0  0  0  0  0  0  0
    2.2050   -3.7110    0.0300 H   0  0  0  0  0  0  0  0  0  0  0  0
    3.5270   -4.7240    0.7500 H   0  0  0  0  0  0  0  0  0  0  0  0
    3.7880   -2.4700   -1.0740 H   0  0  0  0  0  0  0  0  0  0  0  0
    5.0400   -3.5690   -0.4590 H   0  0  0  0  0  0  0  0  0  0  0  0
    5.6460   -2.2390    1.3040 H   0  0  0  0  0  0  0  0  0  0  0  0
    4.8720   -0.9110    0.3750 H   0  0  0  0  0  0  0  0  0  0  0  0
    4.1240   -1.6210    2.9220 H   0  0  0  0  0  0  0  0  0  0  0  0
   -1.9260   -2.7630   -2.5920 N   0  0  0  0  0  0  0  0  0  0  0  0
   -1.2130   -1.6180   -2.1680 C   0  0  0  0  0  0  0  0  0  0  0  0
   -0.9580   -0.7000   -3.0080 O   0  0  0  0  0  0  0  0  0  0  0  0
   -0.7500   -1.4600   -0.7550 C   0  0  0  0  0  0  0  0  0  0  0  0
   -0.0230   -0.1410   -0.6160 C   0  0  0  0  0  0  0  0  0  0  0  0
    0.4690    0.0680    0.8060 C   0  0  2  0  0  0  0  0  0  0  0  0
    1.3810   -0.9980    1.1830 N   0  0  0  0  0  0  0  0  0  0  0  0
   -0.7070    0.0510    1.7150 C   0  0  0  0  0  0  0  0  0  0  0  0
   -0.7800   -0.9280    2.5340 O   0  0  0  0  0  0  0  0  0  0  0  0
   -1.6830   -3.2190   -3.4830 H   0  0  0  0  0  0  0  0  0  0  0  0
   -2.6850   -3.1360   -2.0080 H   0  0  0  0  0  0  0  0  0  0  0  0
   -0.0710   -2.3180   -0.5620 H   0  0  0  0  0  0  0  0  0  0  0  0
   -1.6360   -1.5240   -0.1200 H   0  0  0  0  0  0  0  0  0  0  0  0
   -0.7150    0.6670   -0.8960 H   0  0  0  0  0  0  0  0  0  0  0  0
    0.8230   -0.1270   -1.3330 H   0  0  0  0  0  0  0  0  0  0  0  0
    1.0090    1.0220    0.8690 H   0  0  0  0  0  0  0  0  0  0  0  0
    1.0350   -1.9700    1.1770 H   0  0  0  0  0  0  0  0  0  0  0  0
   -1.7010    1.0510    1.6920 N   0  0  0  0  0  0  0  0  0  0  0  0
   -1.7270    2.2090    0.8720 C   0  0  0  0  0  0  0  0  0  0  0  0
   -2.3150    3.2730    1.7830 C   0  0  0  0  0  0  0  0  0  0  0  0
   -2.9710    2.5030    2.9050 C   0  0  0  0  0  0  0  0  0  0  0  0
   -2.8810    1.0460    2.5020 C   0  0  1  0  0  0  0  0  0  0  0  0
   -4.1070    0.7330    1.7190 C   0  0  0  0  0  0  0  0  0  0  0  0
   -5.2150    0.6980    2.3120 O   0  0  0  0  0  0  0  0  0  0  0  0
   -4.1080    0.4740    0.3640 O   0  0  0  0  0  0  0  0  0  0  0  0
   -2.4330    2.0670    0.0230 H   0  0  0  0  0  0  0  0  0  0  0  0
   -0.7170    2.5240    0.5120 H   0  0  0  0  0  0  0  0  0  0  0  0
   -1.4660    3.9090    2.1430 H   0  0  0  0  0  0  0  0  0  0  0  0
   -3.0650    3.8860    1.2350 H   0  0  0  0  0  0  0  0  0  0  0  0
   -2.3720    2.6030    3.8550 H   0  0  0  0  0  0  0  0  0  0  0  0
   -4.0190    2.8160    3.0690 H   0  0  0  0  0  0  0  0  0  0  0  0
   -2.7820    0.3790    3.3840 H   0  0  0  0  0  0  0  0  0  0  0  0
  1  5  1  0  0  0  0
  1  8  1  0  0  0  0
  2 10  1  0  0  0  0
  2  1  1  0  0  0  0
  3  2  1  0  0  0  0
  3  4  1  0  0  0  0
  4 13  1  0  0  0  0
  4  5  1  0  0  0  0
  5 15  1  1  0  0  0
  6  7  2  0  0  0  0
  6  5  1  0  0  0  0
  9  2  1  0  0  0  0
 11  3  1  0  0  0  0
 12  3  1  0  0  0  0
 14  4  1  0  0  0  0
 16 17  1  0  0  0  0
 16 26  1  0  0  0  0
 17 19  1  0  0  0  0
 18 17  2  0  0  0  0
 19 20  1  0  0  0  0
 19 27  1  0  0  0  0
 19 28  1  0  0  0  0
 20 21  1  0  0  0  0
 21 31  1  1  0  0  0
 21 22  1  0  0  0  0
 21 23  1  0  0  0  0
 22  6  1  0  0  0  0
 23 24  2  0  0  0  0
 25 16  1  0  0  0  0
 29 20  1  0  0  0  0
 30 20  1  0  0  0  0
 32 22  1  0  0  0  0
 33 23  1  0  0  0  0
 33 37  1  0  0  0  0
 34 33  1  0  0  0  0
 34 35  1  0  0  0  0
 35 43  1  0  0  0  0
 35 36  1  0  0  0  0
 36 46  1  0  0  0  0
 36 45  1  0  0  0  0
 37 36  1  0  0  0  0
 37 47  1  1  0  0  0
 38 39  1  0  0  0  0
 38 37  1  0  0  0  0
 40 38  2  0  0  0  0
 41 34  1  0  0  0  0
 42 34  1  0  0  0  0
 44 35  1  0  0  0  0
M  END
$$$$
