PQS.pdb
 OpenBabel07022419033D

 44 44  0  0  1  0  0  0  0  0999 V2000
    3.1510   -3.0860    2.9480 N   0  0  0  0  0  0  0  0  0  0  0  0
    2.7710   -4.4550    3.3330 C   0  0  0  0  0  0  0  0  0  0  0  0
    1.2620   -4.3140    3.4170 C   0  0  0  0  0  0  0  0  0  0  0  0
    0.9240   -3.2950    2.3550 C   0  0  0  0  0  0  0  0  0  0  0  0
    2.2730   -2.8440    1.8500 C   0  0  1  0  0  0  0  0  0  0  0  0
    2.2300   -1.3950    1.4680 C   0  0  0  0  0  0  0  0  0  0  0  0
    2.9040   -0.5280    2.0690 O   0  0  0  0  0  0  0  0  0  0  0  0
    2.9100   -2.4800    3.7480 H   0  0  0  0  0  0  0  0  0  0  0  0
    2.9650   -5.1590    2.4820 H   0  0  0  0  0  0  0  0  0  0  0  0
    3.2270   -4.7660    4.2720 H   0  0  0  0  0  0  0  0  0  0  0  0
    1.0310   -3.9370    4.4410 H   0  0  0  0  0  0  0  0  0  0  0  0
    0.7340   -5.2730    3.2870 H   0  0  0  0  0  0  0  0  0  0  0  0
    0.3990   -2.4060    2.7920 H   0  0  0  0  0  0  0  0  0  0  0  0
    0.2880   -3.7320    1.5520 H   0  0  0  0  0  0  0  0  0  0  0  0
    2.5580   -3.4850    0.9930 H   0  0  0  0  0  0  0  0  0  0  0  0
    0.0920    3.9540   -2.1750 N   0  0  0  0  0  0  0  0  0  0  0  0
    0.4110    2.5770   -2.1860 C   0  0  0  0  0  0  0  0  0  0  0  0
   -0.5320    1.7510   -2.4650 O   0  0  0  0  0  0  0  0  0  0  0  0
    1.7560    2.0440   -1.9060 C   0  0  0  0  0  0  0  0  0  0  0  0
    1.8320    0.6670   -1.3670 C   0  0  0  0  0  0  0  0  0  0  0  0
    1.3490    0.4770   -0.0080 C   0  0  2  0  0  0  0  0  0  0  0  0
    1.4240   -0.9340    0.4040 N   0  0  0  0  0  0  0  0  0  0  0  0
    0.0430    0.9730    0.3370 C   0  0  0  0  0  0  0  0  0  0  0  0
   -0.2140    2.1970    0.3810 O   0  0  0  0  0  0  0  0  0  0  0  0
   -0.8780    4.2620   -1.9840 H   0  0  0  0  0  0  0  0  0  0  0  0
    0.8170    4.6680   -2.3550 H   0  0  0  0  0  0  0  0  0  0  0  0
    2.2320    2.8040   -1.2140 H   0  0  0  0  0  0  0  0  0  0  0  0
    2.3440    2.1750   -2.8510 H   0  0  0  0  0  0  0  0  0  0  0  0
    1.3160    0.0160   -2.1340 H   0  0  0  0  0  0  0  0  0  0  0  0
    2.9480    0.3940   -1.3880 H   0  0  0  0  0  0  0  0  0  0  0  0
    2.0810    1.0270    0.6780 H   0  0  0  0  0  0  0  0  0  0  0  0
    0.8390   -1.5830   -0.1480 H   0  0  0  0  0  0  0  0  0  0  0  0
   -3.1500    0.4170   -1.2630 O   0  0  0  0  0  0  0  0  0  0  0  0
   -3.3990    0.0780    0.0650 C   0  0  0  0  0  0  0  0  0  0  0  0
   -2.3170    0.6150    0.9870 C   0  0  2  0  0  0  0  0  0  0  0  0
   -1.0240    0.0920    0.6470 N   0  0  0  0  0  0  0  0  0  0  0  0
   -2.7240    0.2610    2.3700 C   0  0  0  0  0  0  0  0  0  0  0  0
   -1.9640   -0.4230    3.0950 O   0  0  0  0  0  0  0  0  0  0  0  0
   -3.9380    0.6680    2.8960 O   0  0  0  0  0  0  0  0  0  0  0  0
   -3.0450   -0.3960   -1.8190 H   0  0  0  0  0  0  0  0  0  0  0  0
   -3.4270   -1.0170    0.2200 H   0  0  0  0  0  0  0  0  0  0  0  0
   -4.3470    0.5120    0.4040 H   0  0  0  0  0  0  0  0  0  0  0  0
   -2.2970    1.7400    0.9570 H   0  0  0  0  0  0  0  0  0  0  0  0
   -0.9100   -0.9420    0.6390 H   0  0  0  0  0  0  0  0  0  0  0  0
  1  2  1  0  0  0  0
  1  8  1  0  0  0  0
  2  3  1  0  0  0  0
  2 10  1  0  0  0  0
  3 11  1  0  0  0  0
  4 13  1  0  0  0  0
  4  3  1  0  0  0  0
  5 15  1  6  0  0  0
  5  4  1  0  0  0  0
  5  1  1  0  0  0  0
  6  5  1  0  0  0  0
  6  7  2  0  0  0  0
  9  2  1  0  0  0  0
 12  3  1  0  0  0  0
 14  4  1  0  0  0  0
 16 25  1  0  0  0  0
 17 16  1  0  0  0  0
 17 19  1  0  0  0  0
 18 17  2  0  0  0  0
 19 20  1  0  0  0  0
 19 27  1  0  0  0  0
 20 21  1  0  0  0  0
 21 23  1  0  0  0  0
 21 22  1  0  0  0  0
 21 31  1  1  0  0  0
 22  6  1  0  0  0  0
 23 24  2  0  0  0  0
 23 36  1  0  0  0  0
 26 16  1  0  0  0  0
 28 19  1  0  0  0  0
 29 20  1  0  0  0  0
 30 20  1  0  0  0  0
 32 22  1  0  0  0  0
 33 34  1  0  0  0  0
 34 41  1  0  0  0  0
 34 42  1  0  0  0  0
 34 35  1  0  0  0  0
 35 43  1  6  0  0  0
 35 37  1  0  0  0  0
 36 35  1  0  0  0  0
 37 39  2  0  0  0  0
 37 38  1  0  0  0  0
 40 33  1  0  0  0  0
 44 36  1  0  0  0  0
M  END
$$$$
