PQW.pdb
 OpenBabel07022419043D

 57 59  0  0  1  0  0  0  0  0999 V2000
    2.7840   -1.8700    3.3690 N   0  0  0  0  0  0  0  0  0  0  0  0
    4.2050   -1.8270    3.3270 C   0  0  0  0  0  0  0  0  0  0  0  0
    4.6680   -0.6600    4.1660 C   0  0  0  0  0  0  0  0  0  0  0  0
    3.4130   -0.2150    4.8920 C   0  0  0  0  0  0  0  0  0  0  0  0
    2.2610   -0.7390    4.0460 C   0  0  1  0  0  0  0  0  0  0  0  0
    1.7540    0.3510    3.1970 C   0  0  0  0  0  0  0  0  0  0  0  0
    1.2830    1.3520    3.8060 O   0  0  0  0  0  0  0  0  0  0  0  0
    2.2990   -2.0510    2.4930 H   0  0  0  0  0  0  0  0  0  0  0  0
    4.5810   -1.8150    2.2940 H   0  0  0  0  0  0  0  0  0  0  0  0
    4.6070   -2.7450    3.8490 H   0  0  0  0  0  0  0  0  0  0  0  0
    5.0670    0.1140    3.4880 H   0  0  0  0  0  0  0  0  0  0  0  0
    5.4410   -0.9160    4.8950 H   0  0  0  0  0  0  0  0  0  0  0  0
    3.3820    0.8990    4.8800 H   0  0  0  0  0  0  0  0  0  0  0  0
    3.3710   -0.5320    5.9370 H   0  0  0  0  0  0  0  0  0  0  0  0
    1.4750   -1.0540    4.7960 H   0  0  0  0  0  0  0  0  0  0  0  0
    0.5950    4.1590   -2.4060 N   0  0  0  0  0  0  0  0  0  0  0  0
    1.2920    3.0870   -1.8190 C   0  0  0  0  0  0  0  0  0  0  0  0
    1.2280    1.9570   -2.3390 O   0  0  0  0  0  0  0  0  0  0  0  0
    2.0900    3.3120   -0.6070 C   0  0  0  0  0  0  0  0  0  0  0  0
    2.3080    2.1630    0.2830 C   0  0  0  0  0  0  0  0  0  0  0  0
    1.2130    1.5270    1.0100 C   0  0  2  0  0  0  0  0  0  0  0  0
    1.7470    0.3810    1.7890 N   0  0  0  0  0  0  0  0  0  0  0  0
   -0.0080    1.1010    0.3780 C   0  0  0  0  0  0  0  0  0  0  0  0
   -0.8270    1.8510   -0.2500 O   0  0  0  0  0  0  0  0  0  0  0  0
    0.4440    4.1910   -3.4330 H   0  0  0  0  0  0  0  0  0  0  0  0
    0.2160    4.9380   -1.8330 H   0  0  0  0  0  0  0  0  0  0  0  0
    3.1210    3.5910   -1.0060 H   0  0  0  0  0  0  0  0  0  0  0  0
    1.7970    4.2540   -0.0760 H   0  0  0  0  0  0  0  0  0  0  0  0
    3.0580    2.5130    1.0650 H   0  0  0  0  0  0  0  0  0  0  0  0
    2.9500    1.4250   -0.3030 H   0  0  0  0  0  0  0  0  0  0  0  0
    0.8800    2.2520    1.8380 H   0  0  0  0  0  0  0  0  0  0  0  0
    2.1390   -0.4470    1.2820 H   0  0  0  0  0  0  0  0  0  0  0  0
   -0.3780   -0.2680    0.4290 N   0  0  0  0  0  0  0  0  0  0  0  0
   -1.6200   -0.7410   -0.2060 C   0  0  1  0  0  0  0  0  0  0  0  0
   -1.3030   -1.6830   -1.3180 C   0  0  0  0  0  0  0  0  0  0  0  0
   -2.4350   -2.2590   -2.0370 C   0  0  0  0  0  0  0  0  0  0  0  0
   -2.9870   -1.7170   -3.2080 C   0  0  0  0  0  0  0  0  0  0  0  0
   -4.0340   -2.4650   -3.5930 N   0  0  0  0  0  0  0  0  0  0  0  0
   -4.2140   -3.4820   -2.7400 C   0  0  0  0  0  0  0  0  0  0  0  0
   -5.1540   -4.5030   -2.7520 C   0  0  0  0  0  0  0  0  0  0  0  0
   -5.0880   -5.4330   -1.7490 C   0  0  0  0  0  0  0  0  0  0  0  0
   -4.1110   -5.3320   -0.7760 C   0  0  0  0  0  0  0  0  0  0  0  0
   -3.1850   -4.3130   -0.7760 C   0  0  0  0  0  0  0  0  0  0  0  0
   -3.2370   -3.3640   -1.7810 C   0  0  0  0  0  0  0  0  0  0  0  0
   -2.4660   -1.2400    0.8630 C   0  0  0  0  0  0  0  0  0  0  0  0
   -3.6500   -1.5990    0.6580 O   0  0  0  0  0  0  0  0  0  0  0  0
   -2.0410   -1.3630    2.1910 O   0  0  0  0  0  0  0  0  0  0  0  0
    0.2090   -0.9980    0.9170 H   0  0  0  0  0  0  0  0  0  0  0  0
   -2.1050    0.1480   -0.6770 H   0  0  0  0  0  0  0  0  0  0  0  0
   -0.6460   -1.1860   -2.0870 H   0  0  0  0  0  0  0  0  0  0  0  0
   -0.6790   -2.5450   -0.9150 H   0  0  0  0  0  0  0  0  0  0  0  0
   -2.6200   -0.8400   -3.7100 H   0  0  0  0  0  0  0  0  0  0  0  0
   -4.6200   -2.2670   -4.4470 H   0  0  0  0  0  0  0  0  0  0  0  0
   -5.9270   -4.6080   -3.4960 H   0  0  0  0  0  0  0  0  0  0  0  0
   -5.7940   -6.2570   -1.7030 H   0  0  0  0  0  0  0  0  0  0  0  0
   -4.0830   -6.0830    0.0020 H   0  0  0  0  0  0  0  0  0  0  0  0
   -2.4220   -4.2110   -0.0400 H   0  0  0  0  0  0  0  0  0  0  0  0
  1  5  1  0  0  0  0
  2  1  1  0  0  0  0
  2 10  1  0  0  0  0
  2  3  1  0  0  0  0
  3  4  1  0  0  0  0
  3 12  1  0  0  0  0
  4 14  1  0  0  0  0
  5 15  1  1  0  0  0
  5  4  1  0  0  0  0
  6  7  2  0  0  0  0
  6  5  1  0  0  0  0
  8  1  1  0  0  0  0
  9  2  1  0  0  0  0
 11  3  1  0  0  0  0
 13  4  1  0  0  0  0
 16 26  1  0  0  0  0
 16 17  1  0  0  0  0
 17 19  1  0  0  0  0
 18 17  2  0  0  0  0
 19 28  1  0  0  0  0
 19 20  1  0  0  0  0
 20 21  1  0  0  0  0
 20 29  1  0  0  0  0
 21 22  1  0  0  0  0
 21 31  1  1  0  0  0
 22  6  1  0  0  0  0
 23 33  1  0  0  0  0
 23 21  1  0  0  0  0
 24 23  2  0  0  0  0
 25 16  1  0  0  0  0
 27 19  1  0  0  0  0
 30 20  1  0  0  0  0
 32 22  1  0  0  0  0
 33 48  1  0  0  0  0
 34 49  1  6  0  0  0
 34 33  1  0  0  0  0
 34 45  1  0  0  0  0
 35 51  1  0  0  0  0
 35 34  1  0  0  0  0
 36 44  1  0  0  0  0
 36 35  1  0  0  0  0
 37 36  2  0  0  0  0
 38 37  1  0  0  0  0
 38 39  1  0  0  0  0
 39 44  1  0  0  0  0
 40 39  2  0  0  0  0
 40 41  1  0  0  0  0
 41 55  1  0  0  0  0
 41 42  2  0  0  0  0
 42 56  1  0  0  0  0
 43 42  1  0  0  0  0
 43 57  1  0  0  0  0
 44 43  2  0  0  0  0
 45 47  1  0  0  0  0
 46 45  2  0  0  0  0
 50 35  1  0  0  0  0
 52 37  1  0  0  0  0
 53 38  1  0  0  0  0
 54 40  1  0  0  0  0
M  END
$$$$
