PQY.pdb
 OpenBabel07022419043D

 54 55  0  0  1  0  0  0  0  0999 V2000
    1.2570   -3.1690    1.0750 N   0  0  0  0  0  0  0  0  0  0  0  0
    1.5620   -4.5850    1.0120 C   0  0  0  0  0  0  0  0  0  0  0  0
    3.0340   -4.7330    1.2040 C   0  0  0  0  0  0  0  0  0  0  0  0
    3.5180   -3.3940    1.6370 C   0  0  0  0  0  0  0  0  0  0  0  0
    2.2990   -2.5770    1.8600 C   0  0  1  0  0  0  0  0  0  0  0  0
    2.4510   -1.1620    1.4780 C   0  0  0  0  0  0  0  0  0  0  0  0
    3.2930   -0.3880    2.0090 O   0  0  0  0  0  0  0  0  0  0  0  0
    0.3050   -2.9990    1.4840 H   0  0  0  0  0  0  0  0  0  0  0  0
    1.1610   -4.9990    0.0790 H   0  0  0  0  0  0  0  0  0  0  0  0
    1.0150   -5.0590    1.8560 H   0  0  0  0  0  0  0  0  0  0  0  0
    3.2420   -5.5400    1.9410 H   0  0  0  0  0  0  0  0  0  0  0  0
    3.4570   -4.9960    0.1980 H   0  0  0  0  0  0  0  0  0  0  0  0
    3.9950   -3.5370    2.6480 H   0  0  0  0  0  0  0  0  0  0  0  0
    4.2360   -2.9290    0.9270 H   0  0  0  0  0  0  0  0  0  0  0  0
    1.9680   -2.5720    2.9290 H   0  0  0  0  0  0  0  0  0  0  0  0
    0.9180    4.3060   -2.2640 N   0  0  0  0  0  0  0  0  0  0  0  0
    1.0580    2.8970   -2.2370 C   0  0  0  0  0  0  0  0  0  0  0  0
    0.0150    2.2040   -2.4720 O   0  0  0  0  0  0  0  0  0  0  0  0
    2.3220    2.1950   -1.9660 C   0  0  0  0  0  0  0  0  0  0  0  0
    2.2120    0.8450   -1.3530 C   0  0  0  0  0  0  0  0  0  0  0  0
    1.7180    0.7670    0.0350 C   0  0  2  0  0  0  0  0  0  0  0  0
    1.6240   -0.6300    0.4700 N   0  0  0  0  0  0  0  0  0  0  0  0
    0.5060    1.4460    0.4070 C   0  0  0  0  0  0  0  0  0  0  0  0
    0.3620    2.6940    0.3700 O   0  0  0  0  0  0  0  0  0  0  0  0
    0.0030    4.7420   -2.0150 H   0  0  0  0  0  0  0  0  0  0  0  0
    1.7010    4.9270   -2.5240 H   0  0  0  0  0  0  0  0  0  0  0  0
    2.9770    2.1640   -2.8890 H   0  0  0  0  0  0  0  0  0  0  0  0
    2.9130    2.9070   -1.2970 H   0  0  0  0  0  0  0  0  0  0  0  0
    1.4940    0.2600   -2.0020 H   0  0  0  0  0  0  0  0  0  0  0  0
    3.2300    0.3810   -1.4430 H   0  0  0  0  0  0  0  0  0  0  0  0
    2.5800    1.1850    0.6760 H   0  0  0  0  0  0  0  0  0  0  0  0
    0.8960   -1.2040   -0.0280 H   0  0  0  0  0  0  0  0  0  0  0  0
   -3.9170   -4.5490    0.7760 O   0  0  0  0  0  0  0  0  0  0  0  0
   -3.6660   -3.1920    0.6330 C   0  0  0  0  0  0  0  0  0  0  0  0
   -4.3370   -2.3150    1.4510 C   0  0  0  0  0  0  0  0  0  0  0  0
   -4.1310   -0.9340    1.3580 C   0  0  0  0  0  0  0  0  0  0  0  0
   -3.2470   -0.4080    0.4430 C   0  0  0  0  0  0  0  0  0  0  0  0
   -2.9960    1.0450    0.3120 C   0  0  0  0  0  0  0  0  0  0  0  0
   -1.8510    1.4390    1.2210 C   0  0  2  0  0  0  0  0  0  0  0  0
   -0.6540    0.7130    0.8590 N   0  0  0  0  0  0  0  0  0  0  0  0
   -2.2500    1.2230    2.6140 C   0  0  0  0  0  0  0  0  0  0  0  0
   -1.6530    0.4900    3.4200 O   0  0  0  0  0  0  0  0  0  0  0  0
   -2.5750   -1.3070   -0.3770 C   0  0  0  0  0  0  0  0  0  0  0  0
   -2.7800   -2.6710   -0.2840 C   0  0  0  0  0  0  0  0  0  0  0  0
   -3.3820    1.8830    3.0830 O   0  0  0  0  0  0  0  0  0  0  0  0
   -3.1590   -5.1880    0.8660 H   0  0  0  0  0  0  0  0  0  0  0  0
   -5.0460   -2.7130    2.1870 H   0  0  0  0  0  0  0  0  0  0  0  0
   -4.6760   -0.2790    2.0150 H   0  0  0  0  0  0  0  0  0  0  0  0
   -2.7320    1.2810   -0.7600 H   0  0  0  0  0  0  0  0  0  0  0  0
   -3.8830    1.6260    0.5990 H   0  0  0  0  0  0  0  0  0  0  0  0
   -1.7130    2.5310    1.0810 H   0  0  0  0  0  0  0  0  0  0  0  0
   -0.6610   -0.3330    0.9360 H   0  0  0  0  0  0  0  0  0  0  0  0
   -1.8810   -0.9010   -1.0960 H   0  0  0  0  0  0  0  0  0  0  0  0
   -2.2680   -3.3870   -0.9120 H   0  0  0  0  0  0  0  0  0  0  0  0
  1  8  1  0  0  0  0
  1  5  1  0  0  0  0
  2  1  1  0  0  0  0
  2  3  1  0  0  0  0
  2 10  1  0  0  0  0
  3  4  1  0  0  0  0
  3 11  1  0  0  0  0
  4  5  1  0  0  0  0
  4 13  1  0  0  0  0
  5 15  1  1  0  0  0
  6  5  1  0  0  0  0
  6  7  2  0  0  0  0
  9  2  1  0  0  0  0
 12  3  1  0  0  0  0
 14  4  1  0  0  0  0
 16 17  1  0  0  0  0
 16 25  1  0  0  0  0
 17 19  1  0  0  0  0
 18 17  2  0  0  0  0
 19 20  1  0  0  0  0
 19 28  1  0  0  0  0
 20 21  1  0  0  0  0
 21 23  1  0  0  0  0
 21 22  1  0  0  0  0
 21 31  1  1  0  0  0
 22  6  1  0  0  0  0
 23 40  1  0  0  0  0
 24 23  2  0  0  0  0
 26 16  1  0  0  0  0
 27 19  1  0  0  0  0
 29 20  1  0  0  0  0
 30 20  1  0  0  0  0
 32 22  1  0  0  0  0
 33 46  1  0  0  0  0
 34 33  1  0  0  0  0
 34 35  1  0  0  0  0
 35 47  1  0  0  0  0
 36 35  2  0  0  0  0
 36 48  1  0  0  0  0
 37 36  1  0  0  0  0
 38 37  1  0  0  0  0
 38 50  1  0  0  0  0
 38 39  1  0  0  0  0
 39 51  1  6  0  0  0
 39 41  1  0  0  0  0
 40 52  1  0  0  0  0
 40 39  1  0  0  0  0
 41 45  2  0  0  0  0
 41 42  1  0  0  0  0
 43 44  1  0  0  0  0
 43 37  2  0  0  0  0
 44 34  2  0  0  0  0
 49 38  1  0  0  0  0
 53 43  1  0  0  0  0
 54 44  1  0  0  0  0
M  END
$$$$
