PRA.pdb
 OpenBabel07022419023D

 49 49  0  0  1  0  0  0  0  0999 V2000
    2.6630   -4.8930    1.1380 N   0  0  0  0  0  0  0  0  0  0  0  0
    1.3550   -5.5060    1.2460 C   0  0  0  0  0  0  0  0  0  0  0  0
    0.4470   -4.8180    0.2470 C   0  0  0  0  0  0  0  0  0  0  0  0
    1.4410   -4.1190   -0.6470 C   0  0  0  0  0  0  0  0  0  0  0  0
    2.4650   -3.6610    0.3890 C   0  0  1  0  0  0  0  0  0  0  0  0
    1.8160   -2.6570    1.2590 C   0  0  0  0  0  0  0  0  0  0  0  0
    1.5060   -2.9340    2.4700 O   0  0  0  0  0  0  0  0  0  0  0  0
    3.3280   -5.4770    0.5560 H   0  0  0  0  0  0  0  0  0  0  0  0
    1.4440   -6.5670    0.9340 H   0  0  0  0  0  0  0  0  0  0  0  0
    0.9560   -5.4030    2.2810 H   0  0  0  0  0  0  0  0  0  0  0  0
   -0.1790   -4.0330    0.7430 H   0  0  0  0  0  0  0  0  0  0  0  0
   -0.2260   -5.4990   -0.2760 H   0  0  0  0  0  0  0  0  0  0  0  0
    1.0410   -3.2320   -1.1660 H   0  0  0  0  0  0  0  0  0  0  0  0
    1.9120   -4.8190   -1.3710 H   0  0  0  0  0  0  0  0  0  0  0  0
    3.3840   -3.2890   -0.0630 H   0  0  0  0  0  0  0  0  0  0  0  0
   -1.5900    4.4680   -0.1650 N   0  0  0  0  0  0  0  0  0  0  0  0
   -0.9400    4.2620    1.0700 C   0  0  0  0  0  0  0  0  0  0  0  0
   -1.3520    4.8510    2.1400 N   0  0  0  0  0  0  0  0  0  0  0  0
    0.2030    3.3930    1.1990 N   0  0  0  0  0  0  0  0  0  0  0  0
    0.4340    2.8180    2.4940 C   0  0  0  0  0  0  0  0  0  0  0  0
    1.5970    1.9380    2.6210 C   0  0  0  0  0  0  0  0  0  0  0  0
    1.7980    0.7560    1.7950 C   0  0  0  0  0  0  0  0  0  0  0  0
    0.8470   -0.3760    1.7690 C   0  0  2  0  0  0  0  0  0  0  0  0
    1.5030   -1.3590    0.8340 N   0  0  0  0  0  0  0  0  0  0  0  0
   -0.4660   -0.1540    1.1490 C   0  0  0  0  0  0  0  0  0  0  0  0
   -1.3340    0.5370    1.7180 O   0  0  0  0  0  0  0  0  0  0  0  0
   -1.5670    5.4220   -0.5820 H   0  0  0  0  0  0  0  0  0  0  0  0
   -2.0910    3.7260   -0.6870 H   0  0  0  0  0  0  0  0  0  0  0  0
   -2.1760    5.4830    2.0700 H   0  0  0  0  0  0  0  0  0  0  0  0
    0.7870    3.2350    0.3550 H   0  0  0  0  0  0  0  0  0  0  0  0
   -0.4540    2.5050    3.0480 H   0  0  0  0  0  0  0  0  0  0  0  0
    0.7460    3.7710    3.1140 H   0  0  0  0  0  0  0  0  0  0  0  0
    1.5870    1.5670    3.7100 H   0  0  0  0  0  0  0  0  0  0  0  0
    2.5710    2.5490    2.5770 H   0  0  0  0  0  0  0  0  0  0  0  0
    2.1170    1.0130    0.7260 H   0  0  0  0  0  0  0  0  0  0  0  0
    2.7790    0.2820    2.1700 H   0  0  0  0  0  0  0  0  0  0  0  0
    0.7370   -0.8520    2.7540 H   0  0  0  0  0  0  0  0  0  0  0  0
    1.7100   -1.0140   -0.1200 H   0  0  0  0  0  0  0  0  0  0  0  0
   -2.0290    0.3170   -1.9980 C   0  0  0  0  0  0  0  0  0  0  0  0
   -2.1580   -0.4560   -0.7060 C   0  0  2  0  0  0  0  0  0  0  0  0
   -0.8400   -0.6930   -0.1090 N   0  0  0  0  0  0  0  0  0  0  0  0
   -2.8960   -1.7190   -0.8770 C   0  0  0  0  0  0  0  0  0  0  0  0
   -4.0460   -1.6630   -1.3810 O   0  0  0  0  0  0  0  0  0  0  0  0
   -2.4060   -2.9660   -0.5190 O   0  0  0  0  0  0  0  0  0  0  0  0
   -2.6320   -0.2150   -2.7720 H   0  0  0  0  0  0  0  0  0  0  0  0
   -0.9530    0.3720   -2.3290 H   0  0  0  0  0  0  0  0  0  0  0  0
   -2.4380    1.3370   -1.9050 H   0  0  0  0  0  0  0  0  0  0  0  0
   -2.7190    0.1820    0.0070 H   0  0  0  0  0  0  0  0  0  0  0  0
   -0.1950   -1.2750   -0.6520 H   0  0  0  0  0  0  0  0  0  0  0  0
  1  2  1  0  0  0  0
  2 10  1  0  0  0  0
  3 11  1  0  0  0  0
  3  2  1  0  0  0  0
  4  3  1  0  0  0  0
  4  5  1  0  0  0  0
  5 15  1  6  0  0  0
  5  1  1  0  0  0  0
  5  6  1  0  0  0  0
  6  7  2  0  0  0  0
  8  1  1  0  0  0  0
  9  2  1  0  0  0  0
 12  3  1  0  0  0  0
 13  4  1  0  0  0  0
 14  4  1  0  0  0  0
 16 17  1  0  0  0  0
 17 19  1  0  0  0  0
 17 18  2  0  0  0  0
 19 20  1  0  0  0  0
 20 21  1  0  0  0  0
 20 31  1  0  0  0  0
 20 32  1  0  0  0  0
 21 33  1  0  0  0  0
 22 36  1  0  0  0  0
 22 21  1  0  0  0  0
 23 22  1  0  0  0  0
 23 37  1  1  0  0  0
 24  6  1  0  0  0  0
 24 23  1  0  0  0  0
 25 26  2  0  0  0  0
 25 23  1  0  0  0  0
 27 16  1  0  0  0  0
 28 16  1  0  0  0  0
 29 18  1  0  0  0  0
 30 19  1  0  0  0  0
 34 21  1  0  0  0  0
 35 22  1  0  0  0  0
 38 24  1  0  0  0  0
 39 47  1  0  0  0  0
 39 40  1  0  0  0  0
 40 41  1  0  0  0  0
 40 48  1  1  0  0  0
 41 25  1  0  0  0  0
 42 40  1  0  0  0  0
 42 44  1  0  0  0  0
 43 42  2  0  0  0  0
 45 39  1  0  0  0  0
 46 39  1  0  0  0  0
 49 41  1  0  0  0  0
M  END
$$$$
