PRF.pdb
 OpenBabel07022419023D

 59 60  0  0  1  0  0  0  0  0999 V2000
    1.4620   -0.5030    3.3990 N   0  0  0  0  0  0  0  0  0  0  0  0
    0.9900   -1.8400    3.5140 C   0  0  0  0  0  0  0  0  0  0  0  0
    1.5940   -2.6280    2.3720 C   0  0  0  0  0  0  0  0  0  0  0  0
    2.5630   -1.6700    1.7170 C   0  0  0  0  0  0  0  0  0  0  0  0
    2.0770   -0.2930    2.1330 C   0  0  1  0  0  0  0  0  0  0  0  0
    1.1520    0.1730    1.0640 C   0  0  0  0  0  0  0  0  0  0  0  0
    1.6680    0.3850   -0.0490 O   0  0  0  0  0  0  0  0  0  0  0  0
    0.8760    0.2430    3.7730 H   0  0  0  0  0  0  0  0  0  0  0  0
    1.3610   -2.2740    4.4580 H   0  0  0  0  0  0  0  0  0  0  0  0
   -0.1210   -1.9030    3.5240 H   0  0  0  0  0  0  0  0  0  0  0  0
    0.7560   -2.8970    1.7050 H   0  0  0  0  0  0  0  0  0  0  0  0
    2.1520   -3.5090    2.7360 H   0  0  0  0  0  0  0  0  0  0  0  0
    2.5410   -1.7890    0.6150 H   0  0  0  0  0  0  0  0  0  0  0  0
    3.5900   -1.8810    2.0880 H   0  0  0  0  0  0  0  0  0  0  0  0
    2.9370    0.3850    2.2670 H   0  0  0  0  0  0  0  0  0  0  0  0
    3.3290    5.5080   -0.0430 N   0  0  0  0  0  0  0  0  0  0  0  0
    2.6840    4.3970   -0.6380 C   0  0  0  0  0  0  0  0  0  0  0  0
    3.1730    3.2030   -0.4730 N   0  0  0  0  0  0  0  0  0  0  0  0
    1.5070    4.5170   -1.4200 N   0  0  0  0  0  0  0  0  0  0  0  0
    0.7750    3.3240   -1.7770 C   0  0  0  0  0  0  0  0  0  0  0  0
    0.1690    2.7660   -0.4920 C   0  0  0  0  0  0  0  0  0  0  0  0
   -0.5750    1.5270   -0.8630 C   0  0  0  0  0  0  0  0  0  0  0  0
   -1.2040    0.8270    0.3650 C   0  0  2  0  0  0  0  0  0  0  0  0
   -0.2320    0.3630    1.3000 N   0  0  0  0  0  0  0  0  0  0  0  0
   -2.2020   -0.1010   -0.0930 C   0  0  0  0  0  0  0  0  0  0  0  0
   -3.0920    0.3050   -0.8900 O   0  0  0  0  0  0  0  0  0  0  0  0
    3.8900    5.3880    0.8250 H   0  0  0  0  0  0  0  0  0  0  0  0
    3.2260    6.4360   -0.4970 H   0  0  0  0  0  0  0  0  0  0  0  0
    4.0340    3.0520    0.0890 H   0  0  0  0  0  0  0  0  0  0  0  0
    1.1650    5.4420   -1.7370 H   0  0  0  0  0  0  0  0  0  0  0  0
    1.4930    2.6110   -2.2240 H   0  0  0  0  0  0  0  0  0  0  0  0
   -0.0070    3.5150   -2.5350 H   0  0  0  0  0  0  0  0  0  0  0  0
    0.8240    2.7440    0.3530 H   0  0  0  0  0  0  0  0  0  0  0  0
   -0.6210    3.5600   -0.1950 H   0  0  0  0  0  0  0  0  0  0  0  0
   -1.4850    1.8740   -1.4400 H   0  0  0  0  0  0  0  0  0  0  0  0
   -0.0570    0.8350   -1.5200 H   0  0  0  0  0  0  0  0  0  0  0  0
   -1.6300    1.7760    0.8860 H   0  0  0  0  0  0  0  0  0  0  0  0
   -0.5230    0.1170    2.3040 H   0  0  0  0  0  0  0  0  0  0  0  0
   -2.3010   -1.4780    0.2640 N   0  0  0  0  0  0  0  0  0  0  0  0
   -3.2880   -2.3930   -0.1860 C   0  0  1  0  0  0  0  0  0  0  0  0
   -2.8270   -3.4480   -1.1310 C   0  0  0  0  0  0  0  0  0  0  0  0
   -1.7850   -4.3530   -0.6580 C   0  0  0  0  0  0  0  0  0  0  0  0
   -0.4640   -3.9420   -0.9230 C   0  0  0  0  0  0  0  0  0  0  0  0
    0.5930   -4.7160   -0.5300 C   0  0  0  0  0  0  0  0  0  0  0  0
    0.3870   -5.8900    0.1210 C   0  0  0  0  0  0  0  0  0  0  0  0
   -0.9150   -6.2890    0.3800 C   0  0  0  0  0  0  0  0  0  0  0  0
   -2.0010   -5.5420    0.0010 C   0  0  0  0  0  0  0  0  0  0  0  0
   -4.1030   -2.9090    0.9410 C   0  0  0  0  0  0  0  0  0  0  0  0
   -3.8380   -2.4950    2.1040 O   0  0  0  0  0  0  0  0  0  0  0  0
   -5.1330   -3.8190    0.7640 O   0  0  0  0  0  0  0  0  0  0  0  0
   -1.5710   -1.8340    0.9210 H   0  0  0  0  0  0  0  0  0  0  0  0
   -4.0090   -1.7660   -0.8030 H   0  0  0  0  0  0  0  0  0  0  0  0
   -2.5770   -2.9430   -2.0910 H   0  0  0  0  0  0  0  0  0  0  0  0
   -3.7240   -4.0780   -1.3710 H   0  0  0  0  0  0  0  0  0  0  0  0
   -0.2580   -3.0110   -1.4400 H   0  0  0  0  0  0  0  0  0  0  0  0
    1.6170   -4.3750   -0.7490 H   0  0  0  0  0  0  0  0  0  0  0  0
    1.2460   -6.4880    0.4250 H   0  0  0  0  0  0  0  0  0  0  0  0
   -1.0730   -7.2180    0.8950 H   0  0  0  0  0  0  0  0  0  0  0  0
   -3.0080   -5.8440    0.1980 H   0  0  0  0  0  0  0  0  0  0  0  0
  1  2  1  0  0  0  0
  1  8  1  0  0  0  0
  2 10  1  0  0  0  0
  2  9  1  0  0  0  0
  3 12  1  0  0  0  0
  3  2  1  0  0  0  0
  4 14  1  0  0  0  0
  4  5  1  0  0  0  0
  4  3  1  0  0  0  0
  5 15  1  1  0  0  0
  5  1  1  0  0  0  0
  6 24  1  0  0  0  0
  6  5  1  0  0  0  0
  7  6  2  0  0  0  0
 11  3  1  0  0  0  0
 13  4  1  0  0  0  0
 16 27  1  0  0  0  0
 17 18  2  0  0  0  0
 17 16  1  0  0  0  0
 18 29  1  0  0  0  0
 19 17  1  0  0  0  0
 20 19  1  0  0  0  0
 20 21  1  0  0  0  0
 21 34  1  0  0  0  0
 21 33  1  0  0  0  0
 22 21  1  0  0  0  0
 22 23  1  0  0  0  0
 23 37  1  1  0  0  0
 23 24  1  0  0  0  0
 24 38  1  0  0  0  0
 25 39  1  0  0  0  0
 25 23  1  0  0  0  0
 26 25  2  0  0  0  0
 28 16  1  0  0  0  0
 30 19  1  0  0  0  0
 31 20  1  0  0  0  0
 32 20  1  0  0  0  0
 35 22  1  0  0  0  0
 36 22  1  0  0  0  0
 39 51  1  0  0  0  0
 40 52  1  6  0  0  0
 40 39  1  0  0  0  0
 40 48  1  0  0  0  0
 41 42  1  0  0  0  0
 41 40  1  0  0  0  0
 42 47  1  0  0  0  0
 43 42  2  0  0  0  0
 43 44  1  0  0  0  0
 44 45  2  0  0  0  0
 45 46  1  0  0  0  0
 45 57  1  0  0  0  0
 46 58  1  0  0  0  0
 47 59  1  0  0  0  0
 47 46  2  0  0  0  0
 48 49  1  0  0  0  0
 50 48  2  0  0  0  0
 53 41  1  0  0  0  0
 54 41  1  0  0  0  0
 55 43  1  0  0  0  0
 56 44  1  0  0  0  0
M  END
$$$$
