PRI.pdb
 OpenBabel07022419023D

 58 58  0  0  1  0  0  0  0  0999 V2000
   -2.4560    0.1810    4.5720 N   0  0  0  0  0  0  0  0  0  0  0  0
   -2.7510   -1.1600    5.0630 C   0  0  0  0  0  0  0  0  0  0  0  0
   -2.2610   -2.0800    3.9500 C   0  0  0  0  0  0  0  0  0  0  0  0
   -0.9710   -1.3760    3.5550 C   0  0  0  0  0  0  0  0  0  0  0  0
   -1.3780    0.0720    3.6400 C   0  0  1  0  0  0  0  0  0  0  0  0
   -1.8450    0.5430    2.3200 C   0  0  0  0  0  0  0  0  0  0  0  0
   -3.0240    0.9570    2.1290 O   0  0  0  0  0  0  0  0  0  0  0  0
   -2.1980    0.8040    5.3730 H   0  0  0  0  0  0  0  0  0  0  0  0
   -3.8030   -1.3200    5.3000 H   0  0  0  0  0  0  0  0  0  0  0  0
   -2.0660   -1.3120    5.9390 H   0  0  0  0  0  0  0  0  0  0  0  0
   -2.0640   -3.0970    4.3190 H   0  0  0  0  0  0  0  0  0  0  0  0
   -2.9890   -2.0170    3.1420 H   0  0  0  0  0  0  0  0  0  0  0  0
   -0.2060   -1.5740    4.3610 H   0  0  0  0  0  0  0  0  0  0  0  0
   -0.6110   -1.6700    2.5660 H   0  0  0  0  0  0  0  0  0  0  0  0
   -0.5000    0.6350    4.0110 H   0  0  0  0  0  0  0  0  0  0  0  0
    3.4460    0.4690    1.3450 N   0  0  0  0  0  0  0  0  0  0  0  0
    2.5620    1.2230    0.5330 C   0  0  0  0  0  0  0  0  0  0  0  0
    2.5850    1.0750   -0.7280 N   0  0  0  0  0  0  0  0  0  0  0  0
    1.6480    2.1460    1.1010 N   0  0  0  0  0  0  0  0  0  0  0  0
    1.1050    3.2150    0.3670 C   0  0  0  0  0  0  0  0  0  0  0  0
    0.1680    2.9870   -0.7330 C   0  0  0  0  0  0  0  0  0  0  0  0
   -1.1290    2.3630   -0.5760 C   0  0  0  0  0  0  0  0  0  0  0  0
   -1.3850    1.0030   -0.1220 C   0  0  2  0  0  0  0  0  0  0  0  0
   -0.9820    0.5620    1.1570 N   0  0  0  0  0  0  0  0  0  0  0  0
   -1.1320   -0.0480   -1.1820 C   0  0  0  0  0  0  0  0  0  0  0  0
   -1.4020    0.1260   -2.3870 O   0  0  0  0  0  0  0  0  0  0  0  0
    4.4820    0.5290    1.1960 H   0  0  0  0  0  0  0  0  0  0  0  0
    3.1360   -0.1660    2.1100 H   0  0  0  0  0  0  0  0  0  0  0  0
    3.2540    0.4000   -1.1500 H   0  0  0  0  0  0  0  0  0  0  0  0
    1.3810    2.0100    2.0980 H   0  0  0  0  0  0  0  0  0  0  0  0
    1.9960    3.7840   -0.0660 H   0  0  0  0  0  0  0  0  0  0  0  0
    0.6440    4.0110    1.0370 H   0  0  0  0  0  0  0  0  0  0  0  0
    0.6690    2.5310   -1.6440 H   0  0  0  0  0  0  0  0  0  0  0  0
   -0.0470    4.0410   -1.1490 H   0  0  0  0  0  0  0  0  0  0  0  0
   -1.6490    2.4410   -1.6040 H   0  0  0  0  0  0  0  0  0  0  0  0
   -1.8400    3.0430    0.0320 H   0  0  0  0  0  0  0  0  0  0  0  0
   -2.5450    0.9500   -0.0600 H   0  0  0  0  0  0  0  0  0  0  0  0
   -0.0350    0.1860    1.3350 H   0  0  0  0  0  0  0  0  0  0  0  0
    1.6950   -4.9600   -2.3230 C   0  0  0  0  0  0  0  0  0  0  0  0
    1.8040   -3.5270   -2.7130 C   0  0  0  0  0  0  0  0  0  0  0  0
    1.1810   -2.5290   -1.8210 C   0  0  2  0  0  0  0  0  0  0  0  0
    1.6800   -2.5410   -0.3910 C   0  0  0  0  0  0  0  0  0  0  0  0
   -0.2990   -2.3590   -1.8340 C   0  0  2  0  0  0  0  0  0  0  0  0
   -0.5640   -1.2960   -0.8190 N   0  0  0  0  0  0  0  0  0  0  0  0
   -1.1240   -3.5260   -1.5640 C   0  0  0  0  0  0  0  0  0  0  0  0
   -1.8350   -3.6410   -0.5110 O   0  0  0  0  0  0  0  0  0  0  0  0
   -1.1960   -4.5890   -2.4390 O   0  0  0  0  0  0  0  0  0  0  0  0
    1.1840   -5.1500   -1.3720 H   0  0  0  0  0  0  0  0  0  0  0  0
    2.7370   -5.4310   -2.2290 H   0  0  0  0  0  0  0  0  0  0  0  0
    1.2010   -5.5620   -3.1100 H   0  0  0  0  0  0  0  0  0  0  0  0
    2.9060   -3.2860   -2.8190 H   0  0  0  0  0  0  0  0  0  0  0  0
    1.4120   -3.3660   -3.7660 H   0  0  0  0  0  0  0  0  0  0  0  0
    1.5510   -1.5100   -2.2860 H   0  0  0  0  0  0  0  0  0  0  0  0
    0.9660   -3.0900    0.2470 H   0  0  0  0  0  0  0  0  0  0  0  0
    2.7210   -2.9270   -0.3160 H   0  0  0  0  0  0  0  0  0  0  0  0
    1.7110   -1.4900   -0.0350 H   0  0  0  0  0  0  0  0  0  0  0  0
   -0.6270   -1.9010   -2.8090 H   0  0  0  0  0  0  0  0  0  0  0  0
   -0.3180   -1.4980    0.1720 H   0  0  0  0  0  0  0  0  0  0  0  0
  1  2  1  0  0  0  0
  1  8  1  0  0  0  0
  2  9  1  0  0  0  0
  2 10  1  0  0  0  0
  3 11  1  0  0  0  0
  3  2  1  0  0  0  0
  4  5  1  0  0  0  0
  4  3  1  0  0  0  0
  4 13  1  0  0  0  0
  5 15  1  1  0  0  0
  5  1  1  0  0  0  0
  6  5  1  0  0  0  0
  7  6  2  0  0  0  0
 12  3  1  0  0  0  0
 14  4  1  0  0  0  0
 16 28  1  0  0  0  0
 17 19  1  0  0  0  0
 17 16  1  0  0  0  0
 18 17  2  0  0  0  0
 19 30  1  0  0  0  0
 20 32  1  0  0  0  0
 20 19  1  0  0  0  0
 21 22  1  0  0  0  0
 21 20  1  0  0  0  0
 22 23  1  0  0  0  0
 22 36  1  0  0  0  0
 23 37  1  1  0  0  0
 23 24  1  0  0  0  0
 24 38  1  0  0  0  0
 24  6  1  0  0  0  0
 25 44  1  0  0  0  0
 25 23  1  0  0  0  0
 26 25  2  0  0  0  0
 27 16  1  0  0  0  0
 29 18  1  0  0  0  0
 31 20  1  0  0  0  0
 33 21  1  0  0  0  0
 34 21  1  0  0  0  0
 35 22  1  0  0  0  0
 39 49  1  0  0  0  0
 39 48  1  0  0  0  0
 40 39  1  0  0  0  0
 40 41  1  0  0  0  0
 41 53  1  6  0  0  0
 41 42  1  0  0  0  0
 42 55  1  0  0  0  0
 42 56  1  0  0  0  0
 42 54  1  0  0  0  0
 43 57  1  6  0  0  0
 43 41  1  0  0  0  0
 43 45  1  0  0  0  0
 43 44  1  0  0  0  0
 44 58  1  0  0  0  0
 45 46  1  0  0  0  0
 47 45  2  0  0  0  0
 50 39  1  0  0  0  0
 51 40  1  0  0  0  0
 52 40  1  0  0  0  0
M  END
$$$$
