PRL.pdb
 OpenBabel07022419023D

 58 58  0  0  1  0  0  0  0  0999 V2000
   -1.6180   -1.6500    2.9110 N   0  0  0  0  0  0  0  0  0  0  0  0
   -2.6860   -1.5830    3.8930 C   0  0  0  0  0  0  0  0  0  0  0  0
   -2.7550   -0.1300    4.3180 C   0  0  0  0  0  0  0  0  0  0  0  0
   -1.9090    0.6010    3.2850 C   0  0  0  0  0  0  0  0  0  0  0  0
   -1.8050   -0.4080    2.1950 C   0  0  1  0  0  0  0  0  0  0  0  0
   -0.7280   -0.1570    1.2160 C   0  0  0  0  0  0  0  0  0  0  0  0
    0.1650   -1.0270    1.1040 O   0  0  0  0  0  0  0  0  0  0  0  0
   -1.7130   -2.4390    2.2670 H   0  0  0  0  0  0  0  0  0  0  0  0
   -2.5110   -2.2660    4.7400 H   0  0  0  0  0  0  0  0  0  0  0  0
   -3.6240   -1.8980    3.3510 H   0  0  0  0  0  0  0  0  0  0  0  0
   -3.8270    0.1750    4.2490 H   0  0  0  0  0  0  0  0  0  0  0  0
   -2.3760    0.0240    5.3490 H   0  0  0  0  0  0  0  0  0  0  0  0
   -2.4150    1.5380    2.9650 H   0  0  0  0  0  0  0  0  0  0  0  0
   -0.9230    0.8010    3.7540 H   0  0  0  0  0  0  0  0  0  0  0  0
   -2.7970   -0.4740    1.6980 H   0  0  0  0  0  0  0  0  0  0  0  0
    4.4020   -0.4470    4.3160 N   0  0  0  0  0  0  0  0  0  0  0  0
    3.9480    0.7000    3.5660 C   0  0  0  0  0  0  0  0  0  0  0  0
    3.1040    1.5000    4.0990 N   0  0  0  0  0  0  0  0  0  0  0  0
    4.4240    0.9480    2.2510 N   0  0  0  0  0  0  0  0  0  0  0  0
    3.7000    1.7690    1.3070 C   0  0  0  0  0  0  0  0  0  0  0  0
    2.4100    1.0200    0.9270 C   0  0  0  0  0  0  0  0  0  0  0  0
    1.6390    1.8320   -0.0400 C   0  0  0  0  0  0  0  0  0  0  0  0
    0.3640    1.2890   -0.5520 C   0  0  2  0  0  0  0  0  0  0  0  0
   -0.6500    1.0010    0.4060 N   0  0  0  0  0  0  0  0  0  0  0  0
    0.5010    0.2840   -1.6480 C   0  0  0  0  0  0  0  0  0  0  0  0
    1.4620    0.3790   -2.4640 O   0  0  0  0  0  0  0  0  0  0  0  0
    5.1500   -1.0610    3.9330 H   0  0  0  0  0  0  0  0  0  0  0  0
    3.9880   -0.6570    5.2250 H   0  0  0  0  0  0  0  0  0  0  0  0
    2.7400    2.3340    3.6210 H   0  0  0  0  0  0  0  0  0  0  0  0
    5.3440    0.4980    1.9980 H   0  0  0  0  0  0  0  0  0  0  0  0
    4.3310    1.9230    0.4080 H   0  0  0  0  0  0  0  0  0  0  0  0
    3.3880    2.7200    1.7440 H   0  0  0  0  0  0  0  0  0  0  0  0
    2.7400    0.0810    0.4430 H   0  0  0  0  0  0  0  0  0  0  0  0
    1.9100    0.8780    1.9080 H   0  0  0  0  0  0  0  0  0  0  0  0
    2.2940    2.0920   -0.9140 H   0  0  0  0  0  0  0  0  0  0  0  0
    1.4220    2.8190    0.4360 H   0  0  0  0  0  0  0  0  0  0  0  0
   -0.0860    2.1810   -1.1560 H   0  0  0  0  0  0  0  0  0  0  0  0
   -1.4510    1.6850    0.5780 H   0  0  0  0  0  0  0  0  0  0  0  0
   -2.5080   -3.8250   -2.5910 C   0  0  0  0  0  0  0  0  0  0  0  0
   -1.1860   -3.8280   -1.8270 C   0  0  0  0  0  0  0  0  0  0  0  0
   -1.3270   -3.5650   -0.3750 C   0  0  0  0  0  0  0  0  0  0  0  0
   -0.0990   -3.1490   -2.5540 C   0  0  0  0  0  0  0  0  0  0  0  0
   -0.2130   -1.7430   -2.9430 C   0  0  2  0  0  0  0  0  0  0  0  0
   -0.3750   -0.8020   -1.8720 N   0  0  0  0  0  0  0  0  0  0  0  0
   -1.2020   -1.5040   -4.0410 C   0  0  0  0  0  0  0  0  0  0  0  0
   -2.0600   -0.5840   -4.0190 O   0  0  0  0  0  0  0  0  0  0  0  0
   -1.2180   -2.3110   -5.1720 O   0  0  0  0  0  0  0  0  0  0  0  0
   -3.2760   -4.4290   -2.0670 H   0  0  0  0  0  0  0  0  0  0  0  0
   -2.3920   -4.2720   -3.5920 H   0  0  0  0  0  0  0  0  0  0  0  0
   -2.9290   -2.7870   -2.6260 H   0  0  0  0  0  0  0  0  0  0  0  0
   -0.8880   -4.9400   -1.8710 H   0  0  0  0  0  0  0  0  0  0  0  0
   -1.7430   -4.5070    0.1080 H   0  0  0  0  0  0  0  0  0  0  0  0
   -0.3060   -3.4740    0.0480 H   0  0  0  0  0  0  0  0  0  0  0  0
   -2.0220   -2.7850   -0.0750 H   0  0  0  0  0  0  0  0  0  0  0  0
    0.8510   -3.2840   -1.9850 H   0  0  0  0  0  0  0  0  0  0  0  0
    0.0640   -3.7440   -3.5090 H   0  0  0  0  0  0  0  0  0  0  0  0
    0.7760   -1.4730   -3.4370 H   0  0  0  0  0  0  0  0  0  0  0  0
   -1.1870   -0.9170   -1.2340 H   0  0  0  0  0  0  0  0  0  0  0  0
  1  2  1  0  0  0  0
  2  3  1  0  0  0  0
  2  9  1  0  0  0  0
  3 12  1  0  0  0  0
  4 14  1  0  0  0  0
  4  3  1  0  0  0  0
  5 15  1  6  0  0  0
  5  1  1  0  0  0  0
  5  4  1  0  0  0  0
  6  5  1  0  0  0  0
  7  6  2  0  0  0  0
  8  1  1  0  0  0  0
 10  2  1  0  0  0  0
 11  3  1  0  0  0  0
 13  4  1  0  0  0  0
 16 28  1  0  0  0  0
 17 18  2  0  0  0  0
 17 16  1  0  0  0  0
 19 17  1  0  0  0  0
 20 32  1  0  0  0  0
 20 19  1  0  0  0  0
 21 20  1  0  0  0  0
 21 34  1  0  0  0  0
 22 36  1  0  0  0  0
 22 21  1  0  0  0  0
 23 37  1  6  0  0  0
 23 22  1  0  0  0  0
 23 24  1  0  0  0  0
 24 38  1  0  0  0  0
 24  6  1  0  0  0  0
 25 23  1  0  0  0  0
 26 25  2  0  0  0  0
 27 16  1  0  0  0  0
 29 18  1  0  0  0  0
 30 19  1  0  0  0  0
 31 20  1  0  0  0  0
 33 21  1  0  0  0  0
 35 22  1  0  0  0  0
 39 48  1  0  0  0  0
 39 40  1  0  0  0  0
 40 41  1  0  0  0  0
 41 54  1  0  0  0  0
 41 53  1  0  0  0  0
 41 52  1  0  0  0  0
 42 55  1  0  0  0  0
 42 40  1  0  0  0  0
 43 57  1  6  0  0  0
 43 42  1  0  0  0  0
 43 44  1  0  0  0  0
 44 25  1  0  0  0  0
 44 58  1  0  0  0  0
 45 46  1  0  0  0  0
 45 43  1  0  0  0  0
 47 45  2  0  0  0  0
 49 39  1  0  0  0  0
 50 39  1  0  0  0  0
 51 40  1  0  0  0  0
 56 42  1  0  0  0  0
M  END
$$$$
