PRQ.pdb
 OpenBabel07022419023D

 56 56  0  0  1  0  0  0  0  0999 V2000
    1.7660   -0.7620    2.6290 N   0  0  0  0  0  0  0  0  0  0  0  0
    2.5490   -1.0580    3.8400 C   0  0  0  0  0  0  0  0  0  0  0  0
    1.5440   -1.4620    4.8800 C   0  0  0  0  0  0  0  0  0  0  0  0
    0.2330   -1.5840    4.1300 C   0  0  0  0  0  0  0  0  0  0  0  0
    0.7150   -1.7810    2.7110 C   0  0  1  0  0  0  0  0  0  0  0  0
   -0.3270   -1.5770    1.7100 C   0  0  0  0  0  0  0  0  0  0  0  0
   -1.2950   -2.4320    1.6860 O   0  0  0  0  0  0  0  0  0  0  0  0
    1.2720    0.1530    2.8820 H   0  0  0  0  0  0  0  0  0  0  0  0
    3.1440   -0.1700    4.1390 H   0  0  0  0  0  0  0  0  0  0  0  0
    3.2670   -1.8770    3.6800 H   0  0  0  0  0  0  0  0  0  0  0  0
    1.4740   -0.7200    5.7060 H   0  0  0  0  0  0  0  0  0  0  0  0
    1.7560   -2.4560    5.3220 H   0  0  0  0  0  0  0  0  0  0  0  0
   -0.3480   -2.4620    4.4880 H   0  0  0  0  0  0  0  0  0  0  0  0
   -0.3450   -0.6500    4.2050 H   0  0  0  0  0  0  0  0  0  0  0  0
    1.1250   -2.8120    2.6600 H   0  0  0  0  0  0  0  0  0  0  0  0
   -3.0740   -1.0170    3.7920 N   0  0  0  0  0  0  0  0  0  0  0  0
   -3.0270    0.2390    3.1510 C   0  0  0  0  0  0  0  0  0  0  0  0
   -2.4090    1.2250    3.7890 N   0  0  0  0  0  0  0  0  0  0  0  0
   -3.6450    0.4440    1.8840 N   0  0  0  0  0  0  0  0  0  0  0  0
   -3.4960    1.6520    1.1790 C   0  0  0  0  0  0  0  0  0  0  0  0
   -2.1930    1.9800    0.5350 C   0  0  0  0  0  0  0  0  0  0  0  0
   -1.7200    1.0780   -0.5440 C   0  0  0  0  0  0  0  0  0  0  0  0
   -1.4340   -0.3410   -0.2160 C   0  0  2  0  0  0  0  0  0  0  0  0
   -0.4120   -0.5580    0.7640 N   0  0  0  0  0  0  0  0  0  0  0  0
   -1.0610   -1.0180   -1.5220 C   0  0  0  0  0  0  0  0  0  0  0  0
   -1.8540   -0.8300   -2.5030 O   0  0  0  0  0  0  0  0  0  0  0  0
   -2.7600   -1.1240    4.7820 H   0  0  0  0  0  0  0  0  0  0  0  0
   -3.4340   -1.8730    3.2660 H   0  0  0  0  0  0  0  0  0  0  0  0
   -2.3540    2.1760    3.3440 H   0  0  0  0  0  0  0  0  0  0  0  0
   -4.2250   -0.3660    1.5110 H   0  0  0  0  0  0  0  0  0  0  0  0
   -3.7620    2.5580    1.8320 H   0  0  0  0  0  0  0  0  0  0  0  0
   -4.3160    1.6660    0.3840 H   0  0  0  0  0  0  0  0  0  0  0  0
   -1.3650    2.2120    1.2690 H   0  0  0  0  0  0  0  0  0  0  0  0
   -2.3570    3.0110    0.0570 H   0  0  0  0  0  0  0  0  0  0  0  0
   -2.4810    1.1480   -1.3920 H   0  0  0  0  0  0  0  0  0  0  0  0
   -0.8100    1.5600   -1.0460 H   0  0  0  0  0  0  0  0  0  0  0  0
   -2.3890   -0.8650    0.0690 H   0  0  0  0  0  0  0  0  0  0  0  0
    0.3880    0.1530    0.7710 H   0  0  0  0  0  0  0  0  0  0  0  0
    3.9190    0.8810   -4.0870 N   0  0  0  0  0  0  0  0  0  0  0  0
    3.4940   -0.5160   -3.9400 C   0  0  0  0  0  0  0  0  0  0  0  0
    4.2870   -1.4190   -4.1610 O   0  0  0  0  0  0  0  0  0  0  0  0
    2.0990   -0.7680   -3.5200 C   0  0  0  0  0  0  0  0  0  0  0  0
    1.8240   -2.2610   -3.4030 C   0  0  0  0  0  0  0  0  0  0  0  0
    0.3970   -2.4340   -2.9630 C   0  0  2  0  0  0  0  0  0  0  0  0
    0.0850   -1.8210   -1.6950 N   0  0  0  0  0  0  0  0  0  0  0  0
    0.1190   -3.8880   -2.9910 C   0  0  0  0  0  0  0  0  0  0  0  0
    0.3530   -4.5880   -3.9530 O   0  0  0  0  0  0  0  0  0  0  0  0
   -0.4470   -4.4280   -1.8160 O   0  0  0  0  0  0  0  0  0  0  0  0
    4.9150    1.0210   -4.3860 H   0  0  0  0  0  0  0  0  0  0  0  0
    3.2660    1.6470   -3.9030 H   0  0  0  0  0  0  0  0  0  0  0  0
    1.9600   -0.3470   -2.5100 H   0  0  0  0  0  0  0  0  0  0  0  0
    1.3470   -0.3040   -4.1940 H   0  0  0  0  0  0  0  0  0  0  0  0
    1.8720   -2.7380   -4.4320 H   0  0  0  0  0  0  0  0  0  0  0  0
    2.5630   -2.7170   -2.7380 H   0  0  0  0  0  0  0  0  0  0  0  0
   -0.2500   -1.9200   -3.7410 H   0  0  0  0  0  0  0  0  0  0  0  0
    0.7210   -1.9790   -0.8910 H   0  0  0  0  0  0  0  0  0  0  0  0
  1  5  1  0  0  0  0
  1  8  1  0  0  0  0
  1  2  1  0  0  0  0
  2  9  1  0  0  0  0
  2  3  1  0  0  0  0
  3 12  1  0  0  0  0
  3 11  1  0  0  0  0
  4 14  1  0  0  0  0
  4 13  1  0  0  0  0
  4  3  1  0  0  0  0
  5 15  1  6  0  0  0
  5  4  1  0  0  0  0
  6  5  1  0  0  0  0
  7  6  2  0  0  0  0
 10  2  1  0  0  0  0
 16 27  1  0  0  0  0
 17 18  2  0  0  0  0
 17 16  1  0  0  0  0
 19 17  1  0  0  0  0
 20 31  1  0  0  0  0
 20 19  1  0  0  0  0
 21 20  1  0  0  0  0
 21 33  1  0  0  0  0
 22 23  1  0  0  0  0
 22 21  1  0  0  0  0
 23 37  1  1  0  0  0
 23 24  1  0  0  0  0
 24 38  1  0  0  0  0
 24  6  1  0  0  0  0
 25 23  1  0  0  0  0
 26 25  2  0  0  0  0
 28 16  1  0  0  0  0
 29 18  1  0  0  0  0
 30 19  1  0  0  0  0
 32 20  1  0  0  0  0
 34 21  1  0  0  0  0
 35 22  1  0  0  0  0
 36 22  1  0  0  0  0
 39 40  1  0  0  0  0
 39 50  1  0  0  0  0
 40 42  1  0  0  0  0
 41 40  2  0  0  0  0
 42 43  1  0  0  0  0
 42 51  1  0  0  0  0
 43 44  1  0  0  0  0
 43 54  1  0  0  0  0
 44 55  1  6  0  0  0
 44 45  1  0  0  0  0
 45 25  1  0  0  0  0
 45 56  1  0  0  0  0
 46 44  1  0  0  0  0
 46 48  1  0  0  0  0
 47 46  2  0  0  0  0
 49 39  1  0  0  0  0
 52 42  1  0  0  0  0
 53 43  1  0  0  0  0
M  END
$$$$
