PRR.pdb
 OpenBabel07022419023D

 62 62  0  0  1  0  0  0  0  0999 V2000
    2.6140   -1.1390    2.1670 N   0  0  0  0  0  0  0  0  0  0  0  0
    2.5500   -2.5590    2.3280 C   0  0  0  0  0  0  0  0  0  0  0  0
    2.5430   -3.1570    0.9350 C   0  0  0  0  0  0  0  0  0  0  0  0
    3.1220   -2.1060    0.0410 C   0  0  0  0  0  0  0  0  0  0  0  0
    2.9460   -0.8360    0.8060 C   0  0  1  0  0  0  0  0  0  0  0  0
    1.8720    0.0320    0.1920 C   0  0  0  0  0  0  0  0  0  0  0  0
    2.0740    0.3520   -0.9840 O   0  0  0  0  0  0  0  0  0  0  0  0
    3.2330   -0.6480    2.8480 H   0  0  0  0  0  0  0  0  0  0  0  0
    1.6620   -2.8920    2.8990 H   0  0  0  0  0  0  0  0  0  0  0  0
    3.4850   -2.8610    2.8790 H   0  0  0  0  0  0  0  0  0  0  0  0
    1.5090   -3.3980    0.6110 H   0  0  0  0  0  0  0  0  0  0  0  0
    3.1940   -4.0640    0.9500 H   0  0  0  0  0  0  0  0  0  0  0  0
    4.2090   -2.3380   -0.0930 H   0  0  0  0  0  0  0  0  0  0  0  0
    2.6460   -2.1030   -0.9660 H   0  0  0  0  0  0  0  0  0  0  0  0
    3.8830   -0.2670    0.7840 H   0  0  0  0  0  0  0  0  0  0  0  0
    4.1870    5.6320    0.6460 N   0  0  0  0  0  0  0  0  0  0  0  0
    3.0390    4.8580    0.9730 C   0  0  0  0  0  0  0  0  0  0  0  0
    3.2120    3.7810    1.6630 N   0  0  0  0  0  0  0  0  0  0  0  0
    1.7220    5.1870    0.5970 N   0  0  0  0  0  0  0  0  0  0  0  0
    0.6270    4.2010    0.5810 C   0  0  0  0  0  0  0  0  0  0  0  0
    0.9210    3.2150   -0.5340 C   0  0  0  0  0  0  0  0  0  0  0  0
   -0.0930    2.1580   -0.6800 C   0  0  0  0  0  0  0  0  0  0  0  0
   -0.3250    1.2480    0.4940 C   0  0  2  0  0  0  0  0  0  0  0  0
    0.7390    0.4310    0.9240 N   0  0  0  0  0  0  0  0  0  0  0  0
   -1.6210    0.5580    0.4600 C   0  0  0  0  0  0  0  0  0  0  0  0
   -2.6400    1.2020    0.1030 O   0  0  0  0  0  0  0  0  0  0  0  0
    4.9700    5.7590    1.3550 H   0  0  0  0  0  0  0  0  0  0  0  0
    4.2880    6.0820   -0.2760 H   0  0  0  0  0  0  0  0  0  0  0  0
    4.1590    3.4730    1.9790 H   0  0  0  0  0  0  0  0  0  0  0  0
    1.5290    6.1790    0.3200 H   0  0  0  0  0  0  0  0  0  0  0  0
    0.6090    3.7690    1.5790 H   0  0  0  0  0  0  0  0  0  0  0  0
   -0.3060    4.7150    0.3540 H   0  0  0  0  0  0  0  0  0  0  0  0
    0.8340    3.8540   -1.4720 H   0  0  0  0  0  0  0  0  0  0  0  0
    1.9320    2.8600   -0.5330 H   0  0  0  0  0  0  0  0  0  0  0  0
   -1.0720    2.6420   -0.9830 H   0  0  0  0  0  0  0  0  0  0  0  0
    0.1620    1.5270   -1.5560 H   0  0  0  0  0  0  0  0  0  0  0  0
   -0.4400    2.0520    1.3430 H   0  0  0  0  0  0  0  0  0  0  0  0
    0.7240    0.0450    1.9300 H   0  0  0  0  0  0  0  0  0  0  0  0
   -5.6610   -5.3420   -0.9820 N   0  0  0  0  0  0  0  0  0  0  0  0
   -4.4090   -5.0350   -1.5490 C   0  0  0  0  0  0  0  0  0  0  0  0
   -4.3430   -4.2710   -2.5970 N   0  0  0  0  0  0  0  0  0  0  0  0
   -3.1800   -5.5120   -1.0440 N   0  0  0  0  0  0  0  0  0  0  0  0
   -1.9670   -4.7700   -0.9740 C   0  0  0  0  0  0  0  0  0  0  0  0
   -1.9750   -3.6680    0.0400 C   0  0  0  0  0  0  0  0  0  0  0  0
   -3.0280   -2.6570   -0.2190 C   0  0  0  0  0  0  0  0  0  0  0  0
   -3.0160   -1.5260    0.7990 C   0  0  2  0  0  0  0  0  0  0  0  0
   -1.7790   -0.8160    0.8160 N   0  0  0  0  0  0  0  0  0  0  0  0
   -3.3400   -2.0100    2.1620 C   0  0  0  0  0  0  0  0  0  0  0  0
   -4.3910   -2.6600    2.3890 O   0  0  0  0  0  0  0  0  0  0  0  0
   -2.4930   -1.7620    3.2270 O   0  0  0  0  0  0  0  0  0  0  0  0
   -6.1490   -4.6440   -0.3970 H   0  0  0  0  0  0  0  0  0  0  0  0
   -6.0930   -6.2630   -1.1510 H   0  0  0  0  0  0  0  0  0  0  0  0
   -5.1790   -3.8700   -3.0460 H   0  0  0  0  0  0  0  0  0  0  0  0
   -3.1820   -6.5100   -0.6880 H   0  0  0  0  0  0  0  0  0  0  0  0
   -1.7880   -4.3500   -2.0110 H   0  0  0  0  0  0  0  0  0  0  0  0
   -1.0860   -5.4400   -0.8200 H   0  0  0  0  0  0  0  0  0  0  0  0
   -0.9550   -3.2230    0.0250 H   0  0  0  0  0  0  0  0  0  0  0  0
   -2.0550   -4.1370    1.0500 H   0  0  0  0  0  0  0  0  0  0  0  0
   -4.0320   -3.1590   -0.0820 H   0  0  0  0  0  0  0  0  0  0  0  0
   -3.0040   -2.2490   -1.2300 H   0  0  0  0  0  0  0  0  0  0  0  0
   -3.8560   -0.8460    0.4730 H   0  0  0  0  0  0  0  0  0  0  0  0
   -0.9120   -1.3180    1.1070 H   0  0  0  0  0  0  0  0  0  0  0  0
  1  2  1  0  0  0  0
  1  8  1  0  0  0  0
  2 10  1  0  0  0  0
  2  9  1  0  0  0  0
  3 12  1  0  0  0  0
  3  2  1  0  0  0  0
  4  5  1  0  0  0  0
  4  3  1  0  0  0  0
  5 15  1  6  0  0  0
  5  1  1  0  0  0  0
  6  5  1  0  0  0  0
  6 24  1  0  0  0  0
  7  6  2  0  0  0  0
 11  3  1  0  0  0  0
 13  4  1  0  0  0  0
 14  4  1  0  0  0  0
 16 17  1  0  0  0  0
 16 27  1  0  0  0  0
 17 18  2  0  0  0  0
 18 29  1  0  0  0  0
 19 17  1  0  0  0  0
 20 19  1  0  0  0  0
 20 31  1  0  0  0  0
 21 34  1  0  0  0  0
 21 20  1  0  0  0  0
 22 21  1  0  0  0  0
 22 23  1  0  0  0  0
 23 24  1  0  0  0  0
 23 37  1  1  0  0  0
 24 38  1  0  0  0  0
 25 23  1  0  0  0  0
 25 47  1  0  0  0  0
 26 25  2  0  0  0  0
 28 16  1  0  0  0  0
 30 19  1  0  0  0  0
 32 20  1  0  0  0  0
 33 21  1  0  0  0  0
 35 22  1  0  0  0  0
 36 22  1  0  0  0  0
 39 51  1  0  0  0  0
 40 42  1  0  0  0  0
 40 39  1  0  0  0  0
 41 40  2  0  0  0  0
 42 43  1  0  0  0  0
 42 54  1  0  0  0  0
 43 56  1  0  0  0  0
 43 44  1  0  0  0  0
 44 58  1  0  0  0  0
 45 59  1  0  0  0  0
 45 44  1  0  0  0  0
 45 46  1  0  0  0  0
 46 61  1  6  0  0  0
 46 47  1  0  0  0  0
 46 48  1  0  0  0  0
 47 62  1  0  0  0  0
 48 49  2  0  0  0  0
 48 50  1  0  0  0  0
 52 39  1  0  0  0  0
 53 41  1  0  0  0  0
 55 43  1  0  0  0  0
 57 44  1  0  0  0  0
 60 45  1  0  0  0  0
M  END
$$$$
