PRS.pdb
 OpenBabel07022419023D

 50 50  0  0  1  0  0  0  0  0999 V2000
   -0.7060    0.5510    4.8170 N   0  0  0  0  0  0  0  0  0  0  0  0
   -1.4070   -0.2170    5.8520 C   0  0  0  0  0  0  0  0  0  0  0  0
   -2.6300   -0.6610    5.0510 C   0  0  0  0  0  0  0  0  0  0  0  0
   -2.1370   -0.8250    3.6300 C   0  0  0  0  0  0  0  0  0  0  0  0
   -0.6870   -0.4260    3.7440 C   0  0  1  0  0  0  0  0  0  0  0  0
   -0.1730    0.1710    2.4810 C   0  0  0  0  0  0  0  0  0  0  0  0
    0.1630    1.3820    2.4410 O   0  0  0  0  0  0  0  0  0  0  0  0
   -1.3560    1.3170    4.5360 H   0  0  0  0  0  0  0  0  0  0  0  0
   -0.7630   -1.1070    6.0600 H   0  0  0  0  0  0  0  0  0  0  0  0
   -1.6540    0.3750    6.7290 H   0  0  0  0  0  0  0  0  0  0  0  0
   -3.4180    0.1250    5.1300 H   0  0  0  0  0  0  0  0  0  0  0  0
   -2.9720   -1.6200    5.4780 H   0  0  0  0  0  0  0  0  0  0  0  0
   -2.7000   -0.2000    2.9100 H   0  0  0  0  0  0  0  0  0  0  0  0
   -2.2210   -1.8940    3.3720 H   0  0  0  0  0  0  0  0  0  0  0  0
   -0.0720   -1.2690    4.0610 H   0  0  0  0  0  0  0  0  0  0  0  0
    5.9140    0.5500    0.8170 N   0  0  0  0  0  0  0  0  0  0  0  0
    5.2310    0.2900   -0.3990 C   0  0  0  0  0  0  0  0  0  0  0  0
    5.1940    1.2140   -1.2880 N   0  0  0  0  0  0  0  0  0  0  0  0
    4.6190   -0.9790   -0.5840 N   0  0  0  0  0  0  0  0  0  0  0  0
    3.7170   -1.1940   -1.6950 C   0  0  0  0  0  0  0  0  0  0  0  0
    2.4280   -0.3800   -1.4990 C   0  0  0  0  0  0  0  0  0  0  0  0
    1.7300   -0.7900   -0.2400 C   0  0  0  0  0  0  0  0  0  0  0  0
    0.4560   -0.0270    0.0370 C   0  0  2  0  0  0  0  0  0  0  0  0
   -0.0460   -0.5890    1.3030 N   0  0  0  0  0  0  0  0  0  0  0  0
   -0.5560   -0.3120   -1.0050 C   0  0  0  0  0  0  0  0  0  0  0  0
   -0.3740    0.0840   -2.2060 O   0  0  0  0  0  0  0  0  0  0  0  0
    5.8310   -0.0620    1.6630 H   0  0  0  0  0  0  0  0  0  0  0  0
    6.5420    1.3790    0.9280 H   0  0  0  0  0  0  0  0  0  0  0  0
    5.6470    2.1360   -1.1370 H   0  0  0  0  0  0  0  0  0  0  0  0
    4.8220   -1.7520    0.0840 H   0  0  0  0  0  0  0  0  0  0  0  0
    3.4090   -2.2730   -1.7110 H   0  0  0  0  0  0  0  0  0  0  0  0
    4.1740   -0.9690   -2.6630 H   0  0  0  0  0  0  0  0  0  0  0  0
    2.6040    0.6940   -1.5360 H   0  0  0  0  0  0  0  0  0  0  0  0
    1.8010   -0.6750   -2.3910 H   0  0  0  0  0  0  0  0  0  0  0  0
    2.4660   -0.6740    0.5950 H   0  0  0  0  0  0  0  0  0  0  0  0
    1.5030   -1.8870   -0.2540 H   0  0  0  0  0  0  0  0  0  0  0  0
    0.6890    1.0500    0.1560 H   0  0  0  0  0  0  0  0  0  0  0  0
   -0.3040   -1.5940    1.2800 H   0  0  0  0  0  0  0  0  0  0  0  0
   -3.8350   -2.9610   -3.0570 O   0  0  0  0  0  0  0  0  0  0  0  0
   -2.9100   -2.7660   -2.0540 C   0  0  0  0  0  0  0  0  0  0  0  0
   -2.7290   -1.2750   -1.8360 C   0  0  2  0  0  0  0  0  0  0  0  0
   -1.7630   -1.0150   -0.7860 N   0  0  0  0  0  0  0  0  0  0  0  0
   -4.0250   -0.6110   -1.5640 C   0  0  0  0  0  0  0  0  0  0  0  0
   -4.9940   -0.7030   -2.3370 O   0  0  0  0  0  0  0  0  0  0  0  0
   -4.1840    0.1530   -0.3970 O   0  0  0  0  0  0  0  0  0  0  0  0
   -3.5540   -2.4200   -3.8300 H   0  0  0  0  0  0  0  0  0  0  0  0
   -3.2340   -3.1990   -1.0830 H   0  0  0  0  0  0  0  0  0  0  0  0
   -1.9420   -3.1990   -2.4000 H   0  0  0  0  0  0  0  0  0  0  0  0
   -2.3130   -0.8230   -2.7620 H   0  0  0  0  0  0  0  0  0  0  0  0
   -1.9750   -1.3620    0.1610 H   0  0  0  0  0  0  0  0  0  0  0  0
  1  2  1  0  0  0  0
  2  9  1  0  0  0  0
  2 10  1  0  0  0  0
  3 11  1  0  0  0  0
  3 12  1  0  0  0  0
  3  2  1  0  0  0  0
  4  5  1  0  0  0  0
  4  3  1  0  0  0  0
  5 15  1  1  0  0  0
  5  1  1  0  0  0  0
  6  5  1  0  0  0  0
  7  6  2  0  0  0  0
  8  1  1  0  0  0  0
 13  4  1  0  0  0  0
 14  4  1  0  0  0  0
 16 28  1  0  0  0  0
 16 27  1  0  0  0  0
 17 16  1  0  0  0  0
 18 29  1  0  0  0  0
 18 17  2  0  0  0  0
 19 17  1  0  0  0  0
 19 30  1  0  0  0  0
 20 21  1  0  0  0  0
 20 19  1  0  0  0  0
 21 22  1  0  0  0  0
 22 23  1  0  0  0  0
 22 35  1  0  0  0  0
 23 37  1  1  0  0  0
 23 24  1  0  0  0  0
 24  6  1  0  0  0  0
 25 42  1  0  0  0  0
 25 23  1  0  0  0  0
 26 25  2  0  0  0  0
 31 20  1  0  0  0  0
 32 20  1  0  0  0  0
 33 21  1  0  0  0  0
 34 21  1  0  0  0  0
 36 22  1  0  0  0  0
 38 24  1  0  0  0  0
 39 40  1  0  0  0  0
 40 41  1  0  0  0  0
 40 47  1  0  0  0  0
 41 49  1  6  0  0  0
 41 43  1  0  0  0  0
 41 42  1  0  0  0  0
 42 50  1  0  0  0  0
 43 45  1  0  0  0  0
 44 43  2  0  0  0  0
 46 39  1  0  0  0  0
 48 40  1  0  0  0  0
M  END
$$$$
