PRT.pdb
 OpenBabel07022419023D

 53 53  0  0  1  0  0  0  0  0999 V2000
    3.3000   -2.7990    3.3090 N   0  0  0  0  0  0  0  0  0  0  0  0
    2.8020   -4.1360    3.2000 C   0  0  0  0  0  0  0  0  0  0  0  0
    2.7800   -4.4730    1.7220 C   0  0  0  0  0  0  0  0  0  0  0  0
    3.0310   -3.1590    0.9890 C   0  0  0  0  0  0  0  0  0  0  0  0
    2.9040   -2.1480    2.0920 C   0  0  1  0  0  0  0  0  0  0  0  0
    1.4970   -1.6780    2.1280 C   0  0  0  0  0  0  0  0  0  0  0  0
    0.8520   -1.8990    3.2030 O   0  0  0  0  0  0  0  0  0  0  0  0
    4.3370   -2.8290    3.3460 H   0  0  0  0  0  0  0  0  0  0  0  0
    3.4610   -4.8460    3.7520 H   0  0  0  0  0  0  0  0  0  0  0  0
    1.7710   -4.1700    3.6460 H   0  0  0  0  0  0  0  0  0  0  0  0
    3.5980   -5.1640    1.4530 H   0  0  0  0  0  0  0  0  0  0  0  0
    1.7890   -4.8820    1.4920 H   0  0  0  0  0  0  0  0  0  0  0  0
    4.0290   -3.1650    0.5070 H   0  0  0  0  0  0  0  0  0  0  0  0
    2.2480   -3.0610    0.2260 H   0  0  0  0  0  0  0  0  0  0  0  0
    3.6150   -1.2790    1.9760 H   0  0  0  0  0  0  0  0  0  0  0  0
    2.8480    3.4830    2.4030 N   0  0  0  0  0  0  0  0  0  0  0  0
    2.1560    3.2360    1.1690 C   0  0  0  0  0  0  0  0  0  0  0  0
    2.8580    2.8680    0.1590 N   0  0  0  0  0  0  0  0  0  0  0  0
    0.7610    3.3860    1.0480 N   0  0  0  0  0  0  0  0  0  0  0  0
    0.0490    2.9780   -0.1430 C   0  0  0  0  0  0  0  0  0  0  0  0
    0.1200    1.4600   -0.2060 C   0  0  0  0  0  0  0  0  0  0  0  0
   -0.5290    0.9380    1.0440 C   0  0  0  0  0  0  0  0  0  0  0  0
   -0.5360   -0.5640    1.1290 C   0  0  2  0  0  0  0  0  0  0  0  0
    0.8200   -1.0210    1.1010 N   0  0  0  0  0  0  0  0  0  0  0  0
   -1.4330   -1.2180    0.1640 C   0  0  0  0  0  0  0  0  0  0  0  0
   -1.0830   -2.0950   -0.6460 O   0  0  0  0  0  0  0  0  0  0  0  0
    2.8190    4.4140    2.8720 H   0  0  0  0  0  0  0  0  0  0  0  0
    3.3880    2.7080    2.8260 H   0  0  0  0  0  0  0  0  0  0  0  0
    3.8900    2.7360    0.1720 H   0  0  0  0  0  0  0  0  0  0  0  0
    0.2300    3.8090    1.8540 H   0  0  0  0  0  0  0  0  0  0  0  0
   -0.9990    3.3480   -0.1080 H   0  0  0  0  0  0  0  0  0  0  0  0
    0.6120    3.4260   -1.0140 H   0  0  0  0  0  0  0  0  0  0  0  0
   -0.4760    1.1710   -1.1170 H   0  0  0  0  0  0  0  0  0  0  0  0
    1.1860    1.2020   -0.2940 H   0  0  0  0  0  0  0  0  0  0  0  0
   -1.5550    1.3680    1.0890 H   0  0  0  0  0  0  0  0  0  0  0  0
    0.0150    1.3690    1.9090 H   0  0  0  0  0  0  0  0  0  0  0  0
   -0.9480   -0.8160    2.1470 H   0  0  0  0  0  0  0  0  0  0  0  0
    1.3620   -0.8400    0.2070 H   0  0  0  0  0  0  0  0  0  0  0  0
   -4.5090   -1.4910   -3.1210 C   0  0  0  0  0  0  0  0  0  0  0  0
   -3.4830   -0.9580   -2.1500 C   0  0  1  0  0  0  0  0  0  0  0  0
   -3.5500    0.4470   -2.1900 O   0  0  0  0  0  0  0  0  0  0  0  0
   -3.7780   -1.3890   -0.7340 C   0  0  2  0  0  0  0  0  0  0  0  0
   -2.7970   -0.8170    0.1600 N   0  0  0  0  0  0  0  0  0  0  0  0
   -3.8250   -2.8730   -0.6230 C   0  0  0  0  0  0  0  0  0  0  0  0
   -3.0940   -3.4800    0.1920 O   0  0  0  0  0  0  0  0  0  0  0  0
   -4.6760   -3.6340   -1.4150 O   0  0  0  0  0  0  0  0  0  0  0  0
   -5.4660   -1.7690   -2.6170 H   0  0  0  0  0  0  0  0  0  0  0  0
   -4.7560   -0.7190   -3.8630 H   0  0  0  0  0  0  0  0  0  0  0  0
   -4.1140   -2.3760   -3.6890 H   0  0  0  0  0  0  0  0  0  0  0  0
   -2.4700   -1.3000   -2.4390 H   0  0  0  0  0  0  0  0  0  0  0  0
   -2.8310    0.8130   -1.6070 H   0  0  0  0  0  0  0  0  0  0  0  0
   -4.7890   -1.0100   -0.4030 H   0  0  0  0  0  0  0  0  0  0  0  0
   -3.1020   -0.0630    0.8480 H   0  0  0  0  0  0  0  0  0  0  0  0
  1  8  1  0  0  0  0
  2  1  1  0  0  0  0
  2 10  1  0  0  0  0
  2  9  1  0  0  0  0
  3  2  1  0  0  0  0
  4  3  1  0  0  0  0
  4  5  1  0  0  0  0
  5 15  1  6  0  0  0
  5  6  1  0  0  0  0
  5  1  1  0  0  0  0
  6  7  2  0  0  0  0
 11  3  1  0  0  0  0
 12  3  1  0  0  0  0
 13  4  1  0  0  0  0
 14  4  1  0  0  0  0
 16 28  1  0  0  0  0
 16 27  1  0  0  0  0
 17 16  1  0  0  0  0
 18 29  1  0  0  0  0
 18 17  2  0  0  0  0
 19 17  1  0  0  0  0
 19 30  1  0  0  0  0
 20 31  1  0  0  0  0
 20 19  1  0  0  0  0
 21 20  1  0  0  0  0
 21 22  1  0  0  0  0
 22 35  1  0  0  0  0
 22 23  1  0  0  0  0
 22 36  1  0  0  0  0
 23 37  1  1  0  0  0
 24 23  1  0  0  0  0
 24  6  1  0  0  0  0
 25 23  1  0  0  0  0
 26 25  2  0  0  0  0
 32 20  1  0  0  0  0
 33 21  1  0  0  0  0
 34 21  1  0  0  0  0
 38 24  1  0  0  0  0
 39 47  1  0  0  0  0
 39 40  1  0  0  0  0
 40 50  1  6  0  0  0
 40 42  1  0  0  0  0
 41 40  1  0  0  0  0
 41 51  1  0  0  0  0
 42 44  1  0  0  0  0
 42 52  1  1  0  0  0
 42 43  1  0  0  0  0
 43 25  1  0  0  0  0
 43 53  1  0  0  0  0
 44 45  1  0  0  0  0
 46 44  2  0  0  0  0
 48 39  1  0  0  0  0
 49 39  1  0  0  0  0
M  END
$$$$
