PSE.pdb
 OpenBabel07022419053D

 43 43  0  0  1  0  0  0  0  0999 V2000
    3.5110   -3.3210   -0.2100 N   0  0  0  0  0  0  0  0  0  0  0  0
    3.1430   -4.5100    0.5200 C   0  0  0  0  0  0  0  0  0  0  0  0
    2.2710   -3.9670    1.6260 C   0  0  0  0  0  0  0  0  0  0  0  0
    1.5750   -2.7850    1.0020 C   0  0  0  0  0  0  0  0  0  0  0  0
    2.2340   -2.6550   -0.3640 C   0  0  1  0  0  0  0  0  0  0  0  0
    2.4030   -1.2300   -0.7440 C   0  0  0  0  0  0  0  0  0  0  0  0
    3.5320   -0.7310   -0.8950 O   0  0  0  0  0  0  0  0  0  0  0  0
    4.1510   -2.7710    0.4250 H   0  0  0  0  0  0  0  0  0  0  0  0
    2.5360   -5.2140   -0.0740 H   0  0  0  0  0  0  0  0  0  0  0  0
    4.0460   -5.0200    0.9170 H   0  0  0  0  0  0  0  0  0  0  0  0
    2.9440   -3.6650    2.4600 H   0  0  0  0  0  0  0  0  0  0  0  0
    1.5280   -4.7420    1.9740 H   0  0  0  0  0  0  0  0  0  0  0  0
    0.5040   -3.0340    0.8670 H   0  0  0  0  0  0  0  0  0  0  0  0
    1.7070   -1.8660    1.6080 H   0  0  0  0  0  0  0  0  0  0  0  0
    1.6390   -3.2240   -1.0780 H   0  0  0  0  0  0  0  0  0  0  0  0
    0.5630    2.4290   -3.0940 O   0  0  0  0  0  0  0  0  0  0  0  0
    0.5780    1.1280   -2.6190 C   0  0  0  0  0  0  0  0  0  0  0  0
    1.3340    0.9940   -1.3130 C   0  0  2  0  0  0  0  0  0  0  0  0
    1.2660   -0.4030   -0.9420 N   0  0  0  0  0  0  0  0  0  0  0  0
    0.6240    1.8270   -0.2810 C   0  0  0  0  0  0  0  0  0  0  0  0
    0.5590    3.0760   -0.4020 O   0  0  0  0  0  0  0  0  0  0  0  0
    1.2890    2.4800   -3.7900 H   0  0  0  0  0  0  0  0  0  0  0  0
    1.0350    0.4160   -3.3600 H   0  0  0  0  0  0  0  0  0  0  0  0
   -0.4440    0.7250   -2.4270 H   0  0  0  0  0  0  0  0  0  0  0  0
    2.3900    1.3240   -1.4180 H   0  0  0  0  0  0  0  0  0  0  0  0
    0.3200   -0.8220   -0.8160 H   0  0  0  0  0  0  0  0  0  0  0  0
    0.0030    1.2570    0.8610 N   0  0  0  0  0  0  0  0  0  0  0  0
   -0.6820    2.0540    1.8580 C   0  0  1  0  0  0  0  0  0  0  0  0
   -2.1290    1.6300    1.8800 C   0  0  0  0  0  0  0  0  0  0  0  0
   -2.2420    0.1480    2.2350 C   0  0  0  0  0  0  0  0  0  0  0  0
   -3.6930   -0.2510    2.2540 C   0  0  0  0  0  0  0  0  0  0  0  0
   -4.6250    0.5280    2.0140 O   0  0  0  0  0  0  0  0  0  0  0  0
   -0.1010    1.8690    3.2110 C   0  0  0  0  0  0  0  0  0  0  0  0
    0.8720    1.1080    3.4480 O   0  0  0  0  0  0  0  0  0  0  0  0
   -3.9710   -1.5710    2.5610 O   0  0  0  0  0  0  0  0  0  0  0  0
   -0.6890    2.5920    4.2420 O   0  0  0  0  0  0  0  0  0  0  0  0
    0.0550    0.2230    0.9660 H   0  0  0  0  0  0  0  0  0  0  0  0
   -0.6350    3.1340    1.6090 H   0  0  0  0  0  0  0  0  0  0  0  0
   -2.5600    1.7220    0.8500 H   0  0  0  0  0  0  0  0  0  0  0  0
   -2.7640    2.2430    2.5320 H   0  0  0  0  0  0  0  0  0  0  0  0
   -1.7570   -0.0890    3.1930 H   0  0  0  0  0  0  0  0  0  0  0  0
   -1.7840   -0.4810    1.4530 H   0  0  0  0  0  0  0  0  0  0  0  0
   -4.8490   -1.8700    2.9730 H   0  0  0  0  0  0  0  0  0  0  0  0
  1  8  1  0  0  0  0
  1  2  1  0  0  0  0
  2 10  1  0  0  0  0
  2  3  1  0  0  0  0
  3 12  1  0  0  0  0
  3 11  1  0  0  0  0
  4 14  1  0  0  0  0
  4  3  1  0  0  0  0
  5 15  1  6  0  0  0
  5  1  1  0  0  0  0
  5  4  1  0  0  0  0
  6  5  1  0  0  0  0
  7  6  2  0  0  0  0
  9  2  1  0  0  0  0
 13  4  1  0  0  0  0
 16 17  1  0  0  0  0
 17 24  1  0  0  0  0
 17 18  1  0  0  0  0
 18 25  1  6  0  0  0
 18 19  1  0  0  0  0
 18 20  1  0  0  0  0
 19 26  1  0  0  0  0
 19  6  1  0  0  0  0
 20 27  1  0  0  0  0
 21 20  2  0  0  0  0
 22 16  1  0  0  0  0
 23 17  1  0  0  0  0
 27 37  1  0  0  0  0
 27 28  1  0  0  0  0
 28 38  1  6  0  0  0
 28 29  1  0  0  0  0
 28 33  1  0  0  0  0
 29 30  1  0  0  0  0
 29 40  1  0  0  0  0
 30 31  1  0  0  0  0
 30 41  1  0  0  0  0
 31 35  1  0  0  0  0
 32 31  2  0  0  0  0
 33 34  2  0  0  0  0
 33 36  1  0  0  0  0
 35 43  1  0  0  0  0
 39 29  1  0  0  0  0
 42 30  1  0  0  0  0
M  END
$$$$
