PSF.pdb
 OpenBabel07022419053D

 47 48  0  0  1  0  0  0  0  0999 V2000
    5.1330   -2.4250    0.2690 N   0  0  0  0  0  0  0  0  0  0  0  0
    5.3820   -3.7710    0.7120 C   0  0  0  0  0  0  0  0  0  0  0  0
    4.0280   -4.4430    0.6880 C   0  0  0  0  0  0  0  0  0  0  0  0
    3.3950   -3.8250   -0.5440 C   0  0  0  0  0  0  0  0  0  0  0  0
    3.9920   -2.4500   -0.6010 C   0  0  1  0  0  0  0  0  0  0  0  0
    3.0090   -1.3960   -0.1930 C   0  0  0  0  0  0  0  0  0  0  0  0
    3.2660   -0.6580    0.7910 O   0  0  0  0  0  0  0  0  0  0  0  0
    4.9080   -1.8570    1.1360 H   0  0  0  0  0  0  0  0  0  0  0  0
    6.0380   -4.3360    0.0360 H   0  0  0  0  0  0  0  0  0  0  0  0
    5.7430   -3.8140    1.7550 H   0  0  0  0  0  0  0  0  0  0  0  0
    3.4230   -4.2090    1.5990 H   0  0  0  0  0  0  0  0  0  0  0  0
    4.1130   -5.5420    0.5340 H   0  0  0  0  0  0  0  0  0  0  0  0
    2.3050   -3.8250   -0.3790 H   0  0  0  0  0  0  0  0  0  0  0  0
    3.5970   -4.4240   -1.4480 H   0  0  0  0  0  0  0  0  0  0  0  0
    4.3500   -2.2780   -1.6370 H   0  0  0  0  0  0  0  0  0  0  0  0
   -0.0870    1.9230   -1.0580 O   0  0  0  0  0  0  0  0  0  0  0  0
    0.7730    0.9290   -1.5030 C   0  0  0  0  0  0  0  0  0  0  0  0
    0.8880   -0.1540   -0.4250 C   0  0  2  0  0  0  0  0  0  0  0  0
    1.7880   -1.1940   -0.8780 N   0  0  0  0  0  0  0  0  0  0  0  0
   -0.4190   -0.7700   -0.1340 C   0  0  0  0  0  0  0  0  0  0  0  0
   -0.5560   -1.9980   -0.3360 O   0  0  0  0  0  0  0  0  0  0  0  0
    0.4060    2.5410   -0.4380 H   0  0  0  0  0  0  0  0  0  0  0  0
    0.4110    0.5010   -2.4530 H   0  0  0  0  0  0  0  0  0  0  0  0
    1.7750    1.3920   -1.6120 H   0  0  0  0  0  0  0  0  0  0  0  0
    1.3380    0.3470    0.4470 H   0  0  0  0  0  0  0  0  0  0  0  0
    1.5680   -1.8020   -1.6960 H   0  0  0  0  0  0  0  0  0  0  0  0
   -1.5640   -0.0910    0.3630 N   0  0  0  0  0  0  0  0  0  0  0  0
   -2.8290   -0.7220    0.6360 C   0  0  1  0  0  0  0  0  0  0  0  0
   -3.0240   -0.6350    2.1590 C   0  0  0  0  0  0  0  0  0  0  0  0
   -3.0370    0.7810    2.6120 C   0  0  0  0  0  0  0  0  0  0  0  0
   -1.9080    1.4610    2.9860 C   0  0  0  0  0  0  0  0  0  0  0  0
   -1.9740    2.7740    3.3990 C   0  0  0  0  0  0  0  0  0  0  0  0
   -3.1900    3.4180    3.4380 C   0  0  0  0  0  0  0  0  0  0  0  0
   -4.3410    2.7670    3.0700 C   0  0  0  0  0  0  0  0  0  0  0  0
   -4.2440    1.4470    2.6590 C   0  0  0  0  0  0  0  0  0  0  0  0
   -3.9760   -0.1320   -0.0400 C   0  0  0  0  0  0  0  0  0  0  0  0
   -5.1160   -0.6220    0.1420 O   0  0  0  0  0  0  0  0  0  0  0  0
   -3.9430    0.9540   -0.8940 O   0  0  0  0  0  0  0  0  0  0  0  0
   -1.4400    0.9290    0.5320 H   0  0  0  0  0  0  0  0  0  0  0  0
   -2.8220   -1.8110    0.4160 H   0  0  0  0  0  0  0  0  0  0  0  0
   -2.1770   -1.1390    2.6710 H   0  0  0  0  0  0  0  0  0  0  0  0
   -3.9550   -1.1400    2.4710 H   0  0  0  0  0  0  0  0  0  0  0  0
   -0.9540    0.9690    2.9600 H   0  0  0  0  0  0  0  0  0  0  0  0
   -1.0940    3.3370    3.7020 H   0  0  0  0  0  0  0  0  0  0  0  0
   -3.2330    4.4600    3.7670 H   0  0  0  0  0  0  0  0  0  0  0  0
   -5.2850    3.3000    3.1110 H   0  0  0  0  0  0  0  0  0  0  0  0
   -5.1750    0.9740    2.3790 H   0  0  0  0  0  0  0  0  0  0  0  0
  1  2  1  0  0  0  0
  1  8  1  0  0  0  0
  2 10  1  0  0  0  0
  3  2  1  0  0  0  0
  3 11  1  0  0  0  0
  4 13  1  0  0  0  0
  4  3  1  0  0  0  0
  5 15  1  6  0  0  0
  5  4  1  0  0  0  0
  5  6  1  0  0  0  0
  5  1  1  0  0  0  0
  6  7  2  0  0  0  0
  9  2  1  0  0  0  0
 12  3  1  0  0  0  0
 14  4  1  0  0  0  0
 16 22  1  0  0  0  0
 17 16  1  0  0  0  0
 17 18  1  0  0  0  0
 18 20  1  0  0  0  0
 18 25  1  1  0  0  0
 19 18  1  0  0  0  0
 19  6  1  0  0  0  0
 20 27  1  0  0  0  0
 21 20  2  0  0  0  0
 23 17  1  0  0  0  0
 24 17  1  0  0  0  0
 26 19  1  0  0  0  0
 27 39  1  0  0  0  0
 27 28  1  0  0  0  0
 28 40  1  6  0  0  0
 28 29  1  0  0  0  0
 29 42  1  0  0  0  0
 29 30  1  0  0  0  0
 29 41  1  0  0  0  0
 30 35  2  0  0  0  0
 30 31  1  0  0  0  0
 31 32  2  0  0  0  0
 32 33  1  0  0  0  0
 32 44  1  0  0  0  0
 33 45  1  0  0  0  0
 34 46  1  0  0  0  0
 34 33  2  0  0  0  0
 35 34  1  0  0  0  0
 36 37  1  0  0  0  0
 36 28  1  0  0  0  0
 38 36  2  0  0  0  0
 43 31  1  0  0  0  0
 47 35  1  0  0  0  0
M  END
$$$$
