PSH.pdb
 OpenBabel07022419053D

 44 45  0  0  1  0  0  0  0  0999 V2000
    2.7620   -4.4800   -1.1090 N   0  0  0  0  0  0  0  0  0  0  0  0
    2.5000   -5.6950   -0.3660 C   0  0  0  0  0  0  0  0  0  0  0  0
    1.5330   -5.2140    0.6980 C   0  0  0  0  0  0  0  0  0  0  0  0
    0.5860   -4.3620   -0.1580 C   0  0  0  0  0  0  0  0  0  0  0  0
    1.5730   -3.6820   -1.0780 C   0  0  1  0  0  0  0  0  0  0  0  0
    1.8660   -2.2980   -0.6800 C   0  0  0  0  0  0  0  0  0  0  0  0
    3.0550   -1.9810   -0.4250 O   0  0  0  0  0  0  0  0  0  0  0  0
    3.5840   -4.0200   -0.6540 H   0  0  0  0  0  0  0  0  0  0  0  0
    1.9500   -6.4140   -1.0010 H   0  0  0  0  0  0  0  0  0  0  0  0
    3.4180   -6.1310    0.0760 H   0  0  0  0  0  0  0  0  0  0  0  0
    2.0400   -4.5870    1.4650 H   0  0  0  0  0  0  0  0  0  0  0  0
    0.9890   -6.0570    1.1690 H   0  0  0  0  0  0  0  0  0  0  0  0
   -0.0130   -3.6790    0.4370 H   0  0  0  0  0  0  0  0  0  0  0  0
   -0.0750   -5.0750   -0.6820 H   0  0  0  0  0  0  0  0  0  0  0  0
    1.1120   -3.6610   -2.0890 H   0  0  0  0  0  0  0  0  0  0  0  0
    1.1110    2.3430   -1.0170 O   0  0  0  0  0  0  0  0  0  0  0  0
    0.8440    1.0280   -1.2770 C   0  0  0  0  0  0  0  0  0  0  0  0
    1.2080    0.0700   -0.1680 C   0  0  2  0  0  0  0  0  0  0  0  0
    0.8810   -1.2840   -0.5640 N   0  0  0  0  0  0  0  0  0  0  0  0
    0.5070    0.3880    1.1070 C   0  0  0  0  0  0  0  0  0  0  0  0
   -0.2220   -0.5020    1.5910 O   0  0  0  0  0  0  0  0  0  0  0  0
    0.5020    2.9160   -1.5600 H   0  0  0  0  0  0  0  0  0  0  0  0
   -0.2390    0.8760   -1.4950 H   0  0  0  0  0  0  0  0  0  0  0  0
    1.4000    0.7230   -2.1870 H   0  0  0  0  0  0  0  0  0  0  0  0
    2.2990    0.1320    0.0070 H   0  0  0  0  0  0  0  0  0  0  0  0
   -0.1320   -1.5210   -0.7730 H   0  0  0  0  0  0  0  0  0  0  0  0
    0.6290    1.6170    1.7680 N   0  0  0  0  0  0  0  0  0  0  0  0
    0.0220    2.0630    2.9670 C   0  0  1  0  0  0  0  0  0  0  0  0
   -1.4410    1.6060    3.0450 C   0  0  0  0  0  0  0  0  0  0  0  0
   -2.2500    2.1430    1.9240 C   0  0  0  0  0  0  0  0  0  0  0  0
   -2.5490    1.6500    0.6830 C   0  0  0  0  0  0  0  0  0  0  0  0
   -3.3530    2.5150   -0.0010 N   0  0  0  0  0  0  0  0  0  0  0  0
   -3.5450    3.5390    0.8290 C   0  0  0  0  0  0  0  0  0  0  0  0
   -2.9060    3.3490    1.9740 N   0  0  0  0  0  0  0  0  0  0  0  0
    0.7070    1.6720    4.2070 C   0  0  0  0  0  0  0  0  0  0  0  0
    1.7520    0.9930    4.1780 O   0  0  0  0  0  0  0  0  0  0  0  0
    0.1860    2.0630    5.4190 O   0  0  0  0  0  0  0  0  0  0  0  0
    1.2880    2.3290    1.2980 H   0  0  0  0  0  0  0  0  0  0  0  0
   -0.0770    3.2020    2.9190 H   0  0  0  0  0  0  0  0  0  0  0  0
   -1.4470    0.5170    3.0850 H   0  0  0  0  0  0  0  0  0  0  0  0
   -1.8720    1.9480    4.0290 H   0  0  0  0  0  0  0  0  0  0  0  0
   -2.2220    0.7220    0.2740 H   0  0  0  0  0  0  0  0  0  0  0  0
   -3.7440    2.4180   -0.9610 H   0  0  0  0  0  0  0  0  0  0  0  0
   -4.1530    4.4100    0.5750 H   0  0  0  0  0  0  0  0  0  0  0  0
  1  5  1  0  0  0  0
  1  8  1  0  0  0  0
  1  2  1  0  0  0  0
  2 10  1  0  0  0  0
  2  3  1  0  0  0  0
  3 12  1  0  0  0  0
  3 11  1  0  0  0  0
  4 13  1  0  0  0  0
  4  3  1  0  0  0  0
  5 15  1  6  0  0  0
  5  6  1  0  0  0  0
  5  4  1  0  0  0  0
  6 19  1  0  0  0  0
  6  7  2  0  0  0  0
  9  2  1  0  0  0  0
 14  4  1  0  0  0  0
 17 16  1  0  0  0  0
 17 18  1  0  0  0  0
 18 25  1  1  0  0  0
 18 20  1  0  0  0  0
 19 18  1  0  0  0  0
 20 21  2  0  0  0  0
 20 27  1  0  0  0  0
 22 16  1  0  0  0  0
 23 17  1  0  0  0  0
 24 17  1  0  0  0  0
 26 19  1  0  0  0  0
 27 28  1  0  0  0  0
 28 39  1  6  0  0  0
 28 29  1  0  0  0  0
 28 35  1  0  0  0  0
 29 40  1  0  0  0  0
 29 41  1  0  0  0  0
 30 34  1  0  0  0  0
 30 29  1  0  0  0  0
 31 30  2  0  0  0  0
 32 31  1  0  0  0  0
 32 33  1  0  0  0  0
 33 34  2  0  0  0  0
 35 37  1  0  0  0  0
 36 35  2  0  0  0  0
 38 27  1  0  0  0  0
 42 31  1  0  0  0  0
 43 32  1  0  0  0  0
 44 33  1  0  0  0  0
M  END
$$$$
