PSI.pdb
 OpenBabel07022419053D

 46 46  0  0  1  0  0  0  0  0999 V2000
    3.0040   -1.5880   -0.5400 N   0  0  0  0  0  0  0  0  0  0  0  0
    4.3430   -2.0630   -0.8850 C   0  0  0  0  0  0  0  0  0  0  0  0
    4.0540   -2.7760   -2.2030 C   0  0  0  0  0  0  0  0  0  0  0  0
    3.1420   -1.7650   -2.8860 C   0  0  0  0  0  0  0  0  0  0  0  0
    2.5630   -0.9520   -1.7440 C   0  0  1  0  0  0  0  0  0  0  0  0
    1.0810   -0.8350   -1.8370 C   0  0  0  0  0  0  0  0  0  0  0  0
    0.5780   -0.2960   -2.8490 O   0  0  0  0  0  0  0  0  0  0  0  0
    2.4640   -2.4530   -0.3000 H   0  0  0  0  0  0  0  0  0  0  0  0
    5.0360   -1.2410   -1.0790 H   0  0  0  0  0  0  0  0  0  0  0  0
    4.7680   -2.7310   -0.1370 H   0  0  0  0  0  0  0  0  0  0  0  0
    3.5210   -3.7120   -1.9760 H   0  0  0  0  0  0  0  0  0  0  0  0
    5.0040   -2.8930   -2.7250 H   0  0  0  0  0  0  0  0  0  0  0  0
    3.8180   -1.1340   -3.5150 H   0  0  0  0  0  0  0  0  0  0  0  0
    2.3700   -2.2520   -3.4850 H   0  0  0  0  0  0  0  0  0  0  0  0
    3.0300    0.0690   -1.7710 H   0  0  0  0  0  0  0  0  0  0  0  0
   -3.3210   -2.1630   -1.2120 O   0  0  0  0  0  0  0  0  0  0  0  0
   -1.9550   -2.4700   -1.0420 C   0  0  0  0  0  0  0  0  0  0  0  0
   -1.2160   -1.1540   -1.0040 C   0  0  2  0  0  0  0  0  0  0  0  0
    0.1960   -1.3060   -0.8340 N   0  0  0  0  0  0  0  0  0  0  0  0
   -1.8030   -0.2760    0.0610 C   0  0  0  0  0  0  0  0  0  0  0  0
   -3.0290   -0.0110    0.0980 O   0  0  0  0  0  0  0  0  0  0  0  0
   -3.7230   -2.9350   -1.7020 H   0  0  0  0  0  0  0  0  0  0  0  0
   -1.6380   -3.0170   -1.9300 H   0  0  0  0  0  0  0  0  0  0  0  0
   -1.8800   -3.0350   -0.1030 H   0  0  0  0  0  0  0  0  0  0  0  0
   -1.4150   -0.6510   -1.9680 H   0  0  0  0  0  0  0  0  0  0  0  0
    0.5770   -1.7610    0.0230 H   0  0  0  0  0  0  0  0  0  0  0  0
   -1.9750    0.5530    5.8540 C   0  0  0  0  0  0  0  0  0  0  0  0
   -1.9700    1.3980    4.5710 C   0  0  0  0  0  0  0  0  0  0  0  0
   -1.4130    0.5150    3.4790 C   0  0  2  0  0  0  0  0  0  0  0  0
   -0.0220    0.1090    3.8650 C   0  0  0  0  0  0  0  0  0  0  0  0
   -1.5330    1.1540    2.1290 C   0  0  2  0  0  0  0  0  0  0  0  0
   -0.9910    0.2930    1.0770 N   0  0  0  0  0  0  0  0  0  0  0  0
   -1.0090    2.5190    2.0330 C   0  0  0  0  0  0  0  0  0  0  0  0
   -0.1680    2.7740    1.1130 O   0  0  0  0  0  0  0  0  0  0  0  0
   -1.3460    3.5740    2.8580 O   0  0  0  0  0  0  0  0  0  0  0  0
   -1.2070   -0.2280    5.7710 H   0  0  0  0  0  0  0  0  0  0  0  0
   -2.9890    0.1070    6.0100 H   0  0  0  0  0  0  0  0  0  0  0  0
   -1.7090    1.2420    6.6820 H   0  0  0  0  0  0  0  0  0  0  0  0
   -2.9590    1.8190    4.3460 H   0  0  0  0  0  0  0  0  0  0  0  0
   -1.2080    2.2210    4.7130 H   0  0  0  0  0  0  0  0  0  0  0  0
   -2.0530   -0.4210    3.4740 H   0  0  0  0  0  0  0  0  0  0  0  0
    0.0400   -0.9690    4.1210 H   0  0  0  0  0  0  0  0  0  0  0  0
    0.7310    0.3820    3.0750 H   0  0  0  0  0  0  0  0  0  0  0  0
    0.3470    0.6480    4.7840 H   0  0  0  0  0  0  0  0  0  0  0  0
   -2.6300    1.2170    1.9130 H   0  0  0  0  0  0  0  0  0  0  0  0
    0.0460    0.0640    1.0390 H   0  0  0  0  0  0  0  0  0  0  0  0
  1  8  1  0  0  0  0
  2  1  1  0  0  0  0
  2 10  1  0  0  0  0
  3 11  1  0  0  0  0
  3  2  1  0  0  0  0
  4  3  1  0  0  0  0
  4  5  1  0  0  0  0
  5 15  1  6  0  0  0
  5  1  1  0  0  0  0
  6  5  1  0  0  0  0
  6 19  1  0  0  0  0
  7  6  2  0  0  0  0
  9  2  1  0  0  0  0
 12  3  1  0  0  0  0
 13  4  1  0  0  0  0
 14  4  1  0  0  0  0
 16 17  1  0  0  0  0
 17 18  1  0  0  0  0
 17 24  1  0  0  0  0
 18 25  1  6  0  0  0
 18 19  1  0  0  0  0
 18 20  1  0  0  0  0
 19 26  1  0  0  0  0
 20 21  2  0  0  0  0
 20 32  1  0  0  0  0
 22 16  1  0  0  0  0
 23 17  1  0  0  0  0
 27 37  1  0  0  0  0
 27 38  1  0  0  0  0
 28 40  1  0  0  0  0
 28 27  1  0  0  0  0
 29 41  1  6  0  0  0
 29 30  1  0  0  0  0
 29 28  1  0  0  0  0
 30 42  1  0  0  0  0
 30 44  1  0  0  0  0
 31 45  1  6  0  0  0
 31 29  1  0  0  0  0
 32 31  1  0  0  0  0
 33 31  1  0  0  0  0
 33 35  1  0  0  0  0
 34 33  2  0  0  0  0
 36 27  1  0  0  0  0
 39 28  1  0  0  0  0
 43 30  1  0  0  0  0
 46 32  1  0  0  0  0
M  END
$$$$
