PSK.pdb
 OpenBabel07022419053D

 48 48  0  0  1  0  0  0  0  0999 V2000
    3.4240   -3.1190   -1.8360 N   0  0  0  0  0  0  0  0  0  0  0  0
    3.0760   -4.5340   -1.6340 C   0  0  0  0  0  0  0  0  0  0  0  0
    2.1110   -4.5150   -0.4430 C   0  0  0  0  0  0  0  0  0  0  0  0
    1.7480   -3.0570   -0.2670 C   0  0  0  0  0  0  0  0  0  0  0  0
    2.1400   -2.4920   -1.6380 C   0  0  1  0  0  0  0  0  0  0  0  0
    2.2440   -1.0170   -1.5580 C   0  0  0  0  0  0  0  0  0  0  0  0
    3.3760   -0.4830   -1.6620 O   0  0  0  0  0  0  0  0  0  0  0  0
    4.0660   -2.8860   -1.0250 H   0  0  0  0  0  0  0  0  0  0  0  0
    2.5510   -4.9090   -2.5400 H   0  0  0  0  0  0  0  0  0  0  0  0
    3.9540   -5.1470   -1.4250 H   0  0  0  0  0  0  0  0  0  0  0  0
    2.6420   -4.8600    0.4670 H   0  0  0  0  0  0  0  0  0  0  0  0
    1.2180   -5.1400   -0.6610 H   0  0  0  0  0  0  0  0  0  0  0  0
    0.6970   -2.8870   -0.0320 H   0  0  0  0  0  0  0  0  0  0  0  0
    2.4580   -2.5930    0.4630 H   0  0  0  0  0  0  0  0  0  0  0  0
    1.4500   -2.8530   -2.4010 H   0  0  0  0  0  0  0  0  0  0  0  0
   -0.8420    1.6630   -2.4330 O   0  0  0  0  0  0  0  0  0  0  0  0
    0.5090    1.9500   -2.4220 C   0  0  0  0  0  0  0  0  0  0  0  0
    1.2480    1.2810   -1.2900 C   0  0  2  0  0  0  0  0  0  0  0  0
    1.1310   -0.1630   -1.3670 N   0  0  0  0  0  0  0  0  0  0  0  0
    0.7890    1.7820    0.0380 C   0  0  0  0  0  0  0  0  0  0  0  0
    0.8170    3.0130    0.2930 O   0  0  0  0  0  0  0  0  0  0  0  0
   -1.1890    1.5680   -3.3460 H   0  0  0  0  0  0  0  0  0  0  0  0
    0.9820    1.6270   -3.3650 H   0  0  0  0  0  0  0  0  0  0  0  0
    0.6560    3.0320   -2.3240 H   0  0  0  0  0  0  0  0  0  0  0  0
    2.3210    1.5290   -1.4050 H   0  0  0  0  0  0  0  0  0  0  0  0
    0.1920   -0.6190   -1.2820 H   0  0  0  0  0  0  0  0  0  0  0  0
    0.3090    0.9220    1.0620 N   0  0  0  0  0  0  0  0  0  0  0  0
   -0.1370    1.3870    2.3480 C   0  0  1  0  0  0  0  0  0  0  0  0
   -1.6160    1.1270    2.5680 C   0  0  0  0  0  0  0  0  0  0  0  0
   -1.9180   -0.3550    2.4920 C   0  0  0  0  0  0  0  0  0  0  0  0
   -3.3650   -0.6560    2.7030 C   0  0  0  0  0  0  0  0  0  0  0  0
   -3.8880   -0.2110    4.0290 C   0  0  0  0  0  0  0  0  0  0  0  0
   -5.3090   -0.5770    4.0770 N   0  0  0  0  0  0  0  0  0  0  0  0
    0.6800    0.8550    3.4590 C   0  0  0  0  0  0  0  0  0  0  0  0
    0.4670    1.1330    4.6650 O   0  0  0  0  0  0  0  0  0  0  0  0
    1.7360    0.0080    3.1670 O   0  0  0  0  0  0  0  0  0  0  0  0
    0.2740   -0.1030    0.8800 H   0  0  0  0  0  0  0  0  0  0  0  0
   -0.0300    2.5110    2.3730 H   0  0  0  0  0  0  0  0  0  0  0  0
   -1.8670    1.4470    3.5990 H   0  0  0  0  0  0  0  0  0  0  0  0
   -2.2410    1.6640    1.8320 H   0  0  0  0  0  0  0  0  0  0  0  0
   -1.6760   -0.6550    1.4320 H   0  0  0  0  0  0  0  0  0  0  0  0
   -1.2300   -0.9510    3.1210 H   0  0  0  0  0  0  0  0  0  0  0  0
   -3.9360   -0.1640    1.8870 H   0  0  0  0  0  0  0  0  0  0  0  0
   -3.5060   -1.7450    2.6180 H   0  0  0  0  0  0  0  0  0  0  0  0
   -3.4110   -0.7890    4.8500 H   0  0  0  0  0  0  0  0  0  0  0  0
   -3.7970    0.8820    4.1890 H   0  0  0  0  0  0  0  0  0  0  0  0
   -5.3560   -1.5970    3.8570 H   0  0  0  0  0  0  0  0  0  0  0  0
   -5.7450   -0.0730    3.2490 H   0  0  0  0  0  0  0  0  0  0  0  0
  1  5  1  0  0  0  0
  1  2  1  0  0  0  0
  1  8  1  0  0  0  0
  2 10  1  0  0  0  0
  2  3  1  0  0  0  0
  3  4  1  0  0  0  0
  3 11  1  0  0  0  0
  4 13  1  0  0  0  0
  4 14  1  0  0  0  0
  5 15  1  6  0  0  0
  5  6  1  0  0  0  0
  5  4  1  0  0  0  0
  6 19  1  0  0  0  0
  7  6  2  0  0  0  0
  9  2  1  0  0  0  0
 12  3  1  0  0  0  0
 16 17  1  0  0  0  0
 17 24  1  0  0  0  0
 17 18  1  0  0  0  0
 18 25  1  6  0  0  0
 18 20  1  0  0  0  0
 19 18  1  0  0  0  0
 19 26  1  0  0  0  0
 20 21  2  0  0  0  0
 20 27  1  0  0  0  0
 22 16  1  0  0  0  0
 23 17  1  0  0  0  0
 27 28  1  0  0  0  0
 28 38  1  1  0  0  0
 28 29  1  0  0  0  0
 28 34  1  0  0  0  0
 29 39  1  0  0  0  0
 30 29  1  0  0  0  0
 30 31  1  0  0  0  0
 30 42  1  0  0  0  0
 31 32  1  0  0  0  0
 32 33  1  0  0  0  0
 32 46  1  0  0  0  0
 32 45  1  0  0  0  0
 34 35  1  0  0  0  0
 36 34  2  0  0  0  0
 37 27  1  0  0  0  0
 40 29  1  0  0  0  0
 41 30  1  0  0  0  0
 43 31  1  0  0  0  0
 44 31  1  0  0  0  0
 47 33  1  0  0  0  0
 48 33  1  0  0  0  0
M  END
$$$$
