PSL.pdb
 OpenBabel07022419053D

 46 46  0  0  1  0  0  0  0  0999 V2000
   -0.4590   -4.0510    0.2180 N   0  0  0  0  0  0  0  0  0  0  0  0
   -0.0000   -5.3810   -0.1250 C   0  0  0  0  0  0  0  0  0  0  0  0
    1.0010   -5.1960   -1.2170 C   0  0  0  0  0  0  0  0  0  0  0  0
    1.4080   -3.7560   -1.2070 C   0  0  0  0  0  0  0  0  0  0  0  0
    0.5980   -3.1420   -0.0940 C   0  0  1  0  0  0  0  0  0  0  0  0
    0.0080   -1.8250   -0.4930 C   0  0  0  0  0  0  0  0  0  0  0  0
   -1.2330   -1.6850   -0.5060 O   0  0  0  0  0  0  0  0  0  0  0  0
   -1.3690   -3.8090   -0.2540 H   0  0  0  0  0  0  0  0  0  0  0  0
    0.3780   -5.9480    0.7480 H   0  0  0  0  0  0  0  0  0  0  0  0
   -0.8860   -5.9550   -0.5030 H   0  0  0  0  0  0  0  0  0  0  0  0
    0.5210   -5.4500   -2.1940 H   0  0  0  0  0  0  0  0  0  0  0  0
    1.8560   -5.8760   -1.0150 H   0  0  0  0  0  0  0  0  0  0  0  0
    1.1460   -3.2490   -2.1570 H   0  0  0  0  0  0  0  0  0  0  0  0
    2.5120   -3.6240   -1.0250 H   0  0  0  0  0  0  0  0  0  0  0  0
    1.2450   -3.0300    0.7930 H   0  0  0  0  0  0  0  0  0  0  0  0
   -1.4760   -0.2700   -2.6610 O   0  0  0  0  0  0  0  0  0  0  0  0
   -0.3770    0.5670   -2.5450 C   0  0  0  0  0  0  0  0  0  0  0  0
    0.3250    0.5100   -1.2330 C   0  0  2  0  0  0  0  0  0  0  0  0
    0.8620   -0.7510   -0.8510 N   0  0  0  0  0  0  0  0  0  0  0  0
   -0.4150    1.2180   -0.1320 C   0  0  0  0  0  0  0  0  0  0  0  0
   -1.0200    2.2960   -0.3670 O   0  0  0  0  0  0  0  0  0  0  0  0
   -2.3410    0.2040   -2.5620 H   0  0  0  0  0  0  0  0  0  0  0  0
   -0.7860    1.6090   -2.7030 H   0  0  0  0  0  0  0  0  0  0  0  0
    0.3380    0.4380   -3.3940 H   0  0  0  0  0  0  0  0  0  0  0  0
    1.2440    1.1860   -1.3670 H   0  0  0  0  0  0  0  0  0  0  0  0
    1.9110   -0.9560   -0.8140 H   0  0  0  0  0  0  0  0  0  0  0  0
    1.5540    2.3790    4.8250 C   0  0  0  0  0  0  0  0  0  0  0  0
    0.8360    1.4050    3.8710 C   0  0  0  0  0  0  0  0  0  0  0  0
    1.8980    1.0050    2.8630 C   0  0  0  0  0  0  0  0  0  0  0  0
   -0.3380    2.0830    3.2410 C   0  0  0  0  0  0  0  0  0  0  0  0
   -1.1080    1.2290    2.3130 C   0  0  2  0  0  0  0  0  0  0  0  0
   -0.4460    0.6930    1.1860 N   0  0  0  0  0  0  0  0  0  0  0  0
   -2.4800    1.7970    2.0300 C   0  0  0  0  0  0  0  0  0  0  0  0
   -3.0360    1.7050    0.9300 O   0  0  0  0  0  0  0  0  0  0  0  0
   -3.1720    2.4610    3.0400 O   0  0  0  0  0  0  0  0  0  0  0  0
    1.8500    3.2740    4.2450 H   0  0  0  0  0  0  0  0  0  0  0  0
    0.9440    2.6000    5.6990 H   0  0  0  0  0  0  0  0  0  0  0  0
    2.5180    1.8560    5.0750 H   0  0  0  0  0  0  0  0  0  0  0  0
    0.5380    0.5270    4.4770 H   0  0  0  0  0  0  0  0  0  0  0  0
    1.6670    1.4970    1.8990 H   0  0  0  0  0  0  0  0  0  0  0  0
    2.9330    1.3220    3.1910 H   0  0  0  0  0  0  0  0  0  0  0  0
    1.9780   -0.0990    2.7910 H   0  0  0  0  0  0  0  0  0  0  0  0
   -1.0370    2.3440    4.0920 H   0  0  0  0  0  0  0  0  0  0  0  0
   -0.0490    3.0690    2.8290 H   0  0  0  0  0  0  0  0  0  0  0  0
   -1.4270    0.2980    2.9310 H   0  0  0  0  0  0  0  0  0  0  0  0
    0.1100   -0.2200    1.3350 H   0  0  0  0  0  0  0  0  0  0  0  0
  2  1  1  0  0  0  0
  2  9  1  0  0  0  0
  3  4  1  0  0  0  0
  3 12  1  0  0  0  0
  3  2  1  0  0  0  0
  4 14  1  0  0  0  0
  4  5  1  0  0  0  0
  5  1  1  0  0  0  0
  5 15  1  1  0  0  0
  6  5  1  0  0  0  0
  7  6  2  0  0  0  0
  8  1  1  0  0  0  0
 10  2  1  0  0  0  0
 11  3  1  0  0  0  0
 13  4  1  0  0  0  0
 16 22  1  0  0  0  0
 16 17  1  0  0  0  0
 17 18  1  0  0  0  0
 18 25  1  6  0  0  0
 18 19  1  0  0  0  0
 18 20  1  0  0  0  0
 19 26  1  0  0  0  0
 19  6  1  0  0  0  0
 20 32  1  0  0  0  0
 21 20  2  0  0  0  0
 23 17  1  0  0  0  0
 24 17  1  0  0  0  0
 27 38  1  0  0  0  0
 27 37  1  0  0  0  0
 28 39  1  0  0  0  0
 28 27  1  0  0  0  0
 29 41  1  0  0  0  0
 29 28  1  0  0  0  0
 30 28  1  0  0  0  0
 30 43  1  0  0  0  0
 31 45  1  1  0  0  0
 31 30  1  0  0  0  0
 32 46  1  0  0  0  0
 32 31  1  0  0  0  0
 33 31  1  0  0  0  0
 33 35  1  0  0  0  0
 34 33  2  0  0  0  0
 36 27  1  0  0  0  0
 40 29  1  0  0  0  0
 42 29  1  0  0  0  0
 44 30  1  0  0  0  0
M  END
$$$$
