PSP.pdb
 OpenBabel07022419053D

 41 42  0  0  1  0  0  0  0  0999 V2000
   -2.0130   -3.1360    2.7430 N   0  0  0  0  0  0  0  0  0  0  0  0
   -3.3200   -3.6150    2.4850 C   0  0  0  0  0  0  0  0  0  0  0  0
   -3.2170   -4.6910    1.4270 C   0  0  0  0  0  0  0  0  0  0  0  0
   -1.8350   -4.5530    0.8560 C   0  0  0  0  0  0  0  0  0  0  0  0
   -1.0750   -3.6860    1.8640 C   0  0  1  0  0  0  0  0  0  0  0  0
   -0.2580   -2.7490    1.0820 C   0  0  0  0  0  0  0  0  0  0  0  0
    0.5840   -3.3170    0.2970 O   0  0  0  0  0  0  0  0  0  0  0  0
   -1.9050   -2.1880    3.0790 H   0  0  0  0  0  0  0  0  0  0  0  0
   -4.0550   -2.8770    2.1690 H   0  0  0  0  0  0  0  0  0  0  0  0
   -3.7240   -4.1340    3.4040 H   0  0  0  0  0  0  0  0  0  0  0  0
   -3.3000   -5.7180    1.8570 H   0  0  0  0  0  0  0  0  0  0  0  0
   -3.9820   -4.5680    0.6440 H   0  0  0  0  0  0  0  0  0  0  0  0
   -1.8790   -4.0690   -0.1340 H   0  0  0  0  0  0  0  0  0  0  0  0
   -1.2980   -5.5060    0.7430 H   0  0  0  0  0  0  0  0  0  0  0  0
   -0.3630   -4.3350    2.4530 H   0  0  0  0  0  0  0  0  0  0  0  0
   -1.4320    0.9620    0.0910 O   0  0  0  0  0  0  0  0  0  0  0  0
   -0.4790    0.2460   -0.6290 C   0  0  0  0  0  0  0  0  0  0  0  0
    0.5020   -0.4450    0.3350 C   0  0  2  0  0  0  0  0  0  0  0  0
   -0.3360   -1.3440    1.1360 N   0  0  0  0  0  0  0  0  0  0  0  0
    1.1110    0.6060    1.1660 C   0  0  0  0  0  0  0  0  0  0  0  0
    0.7450    0.6620    2.4020 O   0  0  0  0  0  0  0  0  0  0  0  0
   -2.1560    0.3330    0.3830 H   0  0  0  0  0  0  0  0  0  0  0  0
   -1.0260   -0.5520   -1.2160 H   0  0  0  0  0  0  0  0  0  0  0  0
    0.0800    0.8350   -1.3610 H   0  0  0  0  0  0  0  0  0  0  0  0
    1.1510   -1.0540   -0.2660 H   0  0  0  0  0  0  0  0  0  0  0  0
   -1.0150   -0.9070    1.7700 H   0  0  0  0  0  0  0  0  0  0  0  0
    2.0630    1.5790    0.7780 N   0  0  0  0  0  0  0  0  0  0  0  0
    2.5300    2.5620    1.7450 C   0  0  0  0  0  0  0  0  0  0  0  0
    3.1260    3.6900    0.9440 C   0  0  0  0  0  0  0  0  0  0  0  0
    3.7060    2.9440   -0.2300 C   0  0  0  0  0  0  0  0  0  0  0  0
    2.7250    1.8160   -0.4500 C   0  0  1  0  0  0  0  0  0  0  0  0
    3.5490    0.6870   -0.9410 C   0  0  0  0  0  0  0  0  0  0  0  0
    3.7710   -0.3860   -0.3880 O   0  0  0  0  0  0  0  0  0  0  0  0
    4.1470    0.8830   -2.2040 O   0  0  0  0  0  0  0  0  0  0  0  0
    1.6520    2.9890    2.2890 H   0  0  0  0  0  0  0  0  0  0  0  0
    3.2710    2.1160    2.4150 H   0  0  0  0  0  0  0  0  0  0  0  0
    3.8990    4.1650    1.5530 H   0  0  0  0  0  0  0  0  0  0  0  0
    2.3930    4.4150    0.5720 H   0  0  0  0  0  0  0  0  0  0  0  0
    4.7010    2.5200    0.0040 H   0  0  0  0  0  0  0  0  0  0  0  0
    3.8280    3.5770   -1.1210 H   0  0  0  0  0  0  0  0  0  0  0  0
    2.0060    2.1030   -1.2690 H   0  0  0  0  0  0  0  0  0  0  0  0
  1  8  1  0  0  0  0
  2  1  1  0  0  0  0
  2 10  1  0  0  0  0
  3 11  1  0  0  0  0
  3  2  1  0  0  0  0
  4  3  1  0  0  0  0
  4  5  1  0  0  0  0
  5 15  1  1  0  0  0
  5  1  1  0  0  0  0
  6 19  1  0  0  0  0
  6  5  1  0  0  0  0
  7  6  2  0  0  0  0
  9  2  1  0  0  0  0
 12  3  1  0  0  0  0
 13  4  1  0  0  0  0
 14  4  1  0  0  0  0
 16 22  1  0  0  0  0
 17 16  1  0  0  0  0
 17 18  1  0  0  0  0
 18 25  1  6  0  0  0
 18 19  1  0  0  0  0
 18 20  1  0  0  0  0
 19 26  1  0  0  0  0
 20 21  2  0  0  0  0
 23 17  1  0  0  0  0
 24 17  1  0  0  0  0
 27 20  1  0  0  0  0
 27 28  1  0  0  0  0
 28 35  1  0  0  0  0
 28 36  1  0  0  0  0
 29 37  1  0  0  0  0
 29 28  1  0  0  0  0
 30 39  1  0  0  0  0
 30 29  1  0  0  0  0
 31 41  1  6  0  0  0
 31 30  1  0  0  0  0
 31 27  1  0  0  0  0
 32 31  1  0  0  0  0
 32 33  1  0  0  0  0
 34 32  2  0  0  0  0
 38 29  1  0  0  0  0
 40 30  1  0  0  0  0
M  END
$$$$
