PSR.pdb
 OpenBabel07022419053D

 50 50  0  0  1  0  0  0  0  0999 V2000
    3.7210   -3.8080   -2.1270 N   0  0  0  0  0  0  0  0  0  0  0  0
    3.0640   -4.6530   -1.1470 C   0  0  0  0  0  0  0  0  0  0  0  0
    1.6410   -4.1970   -1.0230 C   0  0  0  0  0  0  0  0  0  0  0  0
    1.4600   -3.3040   -2.2270 C   0  0  0  0  0  0  0  0  0  0  0  0
    2.8500   -2.6600   -2.2980 C   0  0  1  0  0  0  0  0  0  0  0  0
    2.9960   -1.7180   -1.1720 C   0  0  0  0  0  0  0  0  0  0  0  0
    3.8100   -2.0030   -0.2350 O   0  0  0  0  0  0  0  0  0  0  0  0
    3.7590   -4.3510   -3.0260 H   0  0  0  0  0  0  0  0  0  0  0  0
    3.5660   -4.5170   -0.1450 H   0  0  0  0  0  0  0  0  0  0  0  0
    3.1650   -5.7250   -1.3940 H   0  0  0  0  0  0  0  0  0  0  0  0
    0.9640   -5.0740   -1.0900 H   0  0  0  0  0  0  0  0  0  0  0  0
    1.4920   -3.6010   -0.0940 H   0  0  0  0  0  0  0  0  0  0  0  0
    1.2380   -3.8780   -3.1380 H   0  0  0  0  0  0  0  0  0  0  0  0
    0.7070   -2.5290   -2.0030 H   0  0  0  0  0  0  0  0  0  0  0  0
    3.0480   -2.1890   -3.2590 H   0  0  0  0  0  0  0  0  0  0  0  0
    3.1840    2.4540    0.8380 O   0  0  0  0  0  0  0  0  0  0  0  0
    3.0510    1.7130   -0.3380 C   0  0  0  0  0  0  0  0  0  0  0  0
    2.4650    0.3780    0.0600 C   0  0  2  0  0  0  0  0  0  0  0  0
    2.2730   -0.4990   -1.0750 N   0  0  0  0  0  0  0  0  0  0  0  0
    1.2070    0.5740    0.8280 C   0  0  0  0  0  0  0  0  0  0  0  0
    1.2610    1.3010    1.8360 O   0  0  0  0  0  0  0  0  0  0  0  0
    3.6510    1.8570    1.4970 H   0  0  0  0  0  0  0  0  0  0  0  0
    4.0730    1.5310   -0.7280 H   0  0  0  0  0  0  0  0  0  0  0  0
    2.4060    2.2690   -1.0420 H   0  0  0  0  0  0  0  0  0  0  0  0
    3.1920   -0.0840    0.7590 H   0  0  0  0  0  0  0  0  0  0  0  0
    1.6110   -0.2720   -1.8430 H   0  0  0  0  0  0  0  0  0  0  0  0
   -1.9660    0.5850    5.0870 N   0  0  0  0  0  0  0  0  0  0  0  0
   -3.0450    1.0440    4.2610 C   0  0  0  0  0  0  0  0  0  0  0  0
   -4.2250    0.6160    4.4720 N   0  0  0  0  0  0  0  0  0  0  0  0
   -2.8420    1.9670    3.2080 N   0  0  0  0  0  0  0  0  0  0  0  0
   -3.6720    2.0060    2.0740 C   0  0  0  0  0  0  0  0  0  0  0  0
   -3.6620    0.9180    1.0790 C   0  0  0  0  0  0  0  0  0  0  0  0
   -2.3770    0.6460    0.3630 C   0  0  0  0  0  0  0  0  0  0  0  0
   -1.2710    0.1840    1.2360 C   0  0  2  0  0  0  0  0  0  0  0  0
   -0.0270   -0.0090    0.4800 N   0  0  0  0  0  0  0  0  0  0  0  0
   -1.6030   -1.2030    1.7380 C   0  0  0  0  0  0  0  0  0  0  0  0
   -0.8160   -2.1760    1.4550 O   0  0  0  0  0  0  0  0  0  0  0  0
   -2.6890   -1.5400    2.4850 O   0  0  0  0  0  0  0  0  0  0  0  0
   -1.8210   -0.4280    5.2950 H   0  0  0  0  0  0  0  0  0  0  0  0
   -1.2890    1.2640    5.5060 H   0  0  0  0  0  0  0  0  0  0  0  0
   -4.3860   -0.0620    5.2440 H   0  0  0  0  0  0  0  0  0  0  0  0
   -2.0420    2.6310    3.3060 H   0  0  0  0  0  0  0  0  0  0  0  0
   -4.7600    2.1850    2.3820 H   0  0  0  0  0  0  0  0  0  0  0  0
   -3.4820    2.9630    1.4730 H   0  0  0  0  0  0  0  0  0  0  0  0
   -4.4580    1.2110    0.3060 H   0  0  0  0  0  0  0  0  0  0  0  0
   -4.0570   -0.0510    1.4520 H   0  0  0  0  0  0  0  0  0  0  0  0
   -2.6310   -0.1740   -0.3860 H   0  0  0  0  0  0  0  0  0  0  0  0
   -2.0860    1.4830   -0.3190 H   0  0  0  0  0  0  0  0  0  0  0  0
   -1.1170    0.8040    2.1230 H   0  0  0  0  0  0  0  0  0  0  0  0
   -0.0490   -0.6100   -0.3630 H   0  0  0  0  0  0  0  0  0  0  0  0
  1  2  1  0  0  0  0
  2  3  1  0  0  0  0
  2  9  1  0  0  0  0
  3 12  1  0  0  0  0
  4 14  1  0  0  0  0
  4  3  1  0  0  0  0
  5 15  1  6  0  0  0
  5  4  1  0  0  0  0
  5  1  1  0  0  0  0
  5  6  1  0  0  0  0
  6 19  1  0  0  0  0
  6  7  2  0  0  0  0
  8  1  1  0  0  0  0
 10  2  1  0  0  0  0
 11  3  1  0  0  0  0
 13  4  1  0  0  0  0
 16 22  1  0  0  0  0
 17 18  1  0  0  0  0
 17 16  1  0  0  0  0
 18 25  1  1  0  0  0
 18 20  1  0  0  0  0
 19 18  1  0  0  0  0
 20 21  2  0  0  0  0
 23 17  1  0  0  0  0
 24 17  1  0  0  0  0
 26 19  1  0  0  0  0
 27 39  1  0  0  0  0
 27 40  1  0  0  0  0
 28 29  2  0  0  0  0
 28 27  1  0  0  0  0
 29 41  1  0  0  0  0
 30 42  1  0  0  0  0
 30 28  1  0  0  0  0
 31 43  1  0  0  0  0
 31 30  1  0  0  0  0
 32 46  1  0  0  0  0
 32 31  1  0  0  0  0
 33 32  1  0  0  0  0
 33 34  1  0  0  0  0
 34 36  1  0  0  0  0
 34 49  1  1  0  0  0
 35 20  1  0  0  0  0
 35 34  1  0  0  0  0
 36 38  1  0  0  0  0
 37 36  2  0  0  0  0
 44 31  1  0  0  0  0
 45 32  1  0  0  0  0
 47 33  1  0  0  0  0
 48 33  1  0  0  0  0
 50 35  1  0  0  0  0
M  END
$$$$
