PST.pdb
 OpenBabel07022419053D

 41 41  0  0  1  0  0  0  0  0999 V2000
    0.3110   -3.0150    1.7230 N   0  0  0  0  0  0  0  0  0  0  0  0
   -0.9310   -3.7310    1.7770 C   0  0  0  0  0  0  0  0  0  0  0  0
   -0.6040   -5.0750    1.1660 C   0  0  0  0  0  0  0  0  0  0  0  0
    0.4900   -4.7920    0.1440 C   0  0  0  0  0  0  0  0  0  0  0  0
    0.8990   -3.4000    0.4650 C   0  0  1  0  0  0  0  0  0  0  0  0
    0.6040   -2.4180   -0.6120 C   0  0  0  0  0  0  0  0  0  0  0  0
    1.0000   -2.5340   -1.7830 O   0  0  0  0  0  0  0  0  0  0  0  0
    0.9540   -3.2240    2.5170 H   0  0  0  0  0  0  0  0  0  0  0  0
   -1.6930   -3.1970    1.1790 H   0  0  0  0  0  0  0  0  0  0  0  0
   -1.2630   -3.8310    2.8370 H   0  0  0  0  0  0  0  0  0  0  0  0
   -0.2600   -5.7640    1.9650 H   0  0  0  0  0  0  0  0  0  0  0  0
   -1.4790   -5.4960    0.6520 H   0  0  0  0  0  0  0  0  0  0  0  0
    0.1290   -4.9300   -0.8910 H   0  0  0  0  0  0  0  0  0  0  0  0
    1.3280   -5.4770    0.3770 H   0  0  0  0  0  0  0  0  0  0  0  0
    2.0160   -3.3450    0.6190 H   0  0  0  0  0  0  0  0  0  0  0  0
   -2.5500    0.3720   -0.1190 O   0  0  0  0  0  0  0  0  0  0  0  0
   -2.0200   -0.0270   -1.3450 C   0  0  0  0  0  0  0  0  0  0  0  0
   -0.5290   -0.2550   -1.2530 C   0  0  2  0  0  0  0  0  0  0  0  0
   -0.1760   -1.2750   -0.2970 N   0  0  0  0  0  0  0  0  0  0  0  0
    0.0890    1.0330   -0.8110 C   0  0  0  0  0  0  0  0  0  0  0  0
   -0.0670    2.0980   -1.4800 O   0  0  0  0  0  0  0  0  0  0  0  0
   -3.4620    0.0360    0.0400 H   0  0  0  0  0  0  0  0  0  0  0  0
   -2.1640    0.8310   -2.0410 H   0  0  0  0  0  0  0  0  0  0  0  0
   -2.5680   -0.9230   -1.6640 H   0  0  0  0  0  0  0  0  0  0  0  0
   -0.0970   -0.5240   -2.2210 H   0  0  0  0  0  0  0  0  0  0  0  0
   -0.5140   -1.1680    0.6840 H   0  0  0  0  0  0  0  0  0  0  0  0
    1.4780    1.6870    3.2190 C   0  0  0  0  0  0  0  0  0  0  0  0
    1.0310    2.7380    2.2100 C   0  0  1  0  0  0  0  0  0  0  0  0
    1.6720    3.9230    2.5400 O   0  0  0  0  0  0  0  0  0  0  0  0
    1.4790    2.3570    0.8140 C   0  0  2  0  0  0  0  0  0  0  0  0
    0.8720    1.1330    0.3630 N   0  0  0  0  0  0  0  0  0  0  0  0
    2.9430    2.1550    0.8780 C   0  0  0  0  0  0  0  0  0  0  0  0
    3.4170    1.0410    0.5590 O   0  0  0  0  0  0  0  0  0  0  0  0
    3.8390    3.1420    1.2770 O   0  0  0  0  0  0  0  0  0  0  0  0
    1.0810    0.6990    2.9200 H   0  0  0  0  0  0  0  0  0  0  0  0
    2.6010    1.6710    3.2590 H   0  0  0  0  0  0  0  0  0  0  0  0
    1.1290    1.9270    4.2360 H   0  0  0  0  0  0  0  0  0  0  0  0
   -0.0500    2.8820    2.2700 H   0  0  0  0  0  0  0  0  0  0  0  0
    1.8760    4.4430    1.7220 H   0  0  0  0  0  0  0  0  0  0  0  0
    1.2040    3.1350    0.0730 H   0  0  0  0  0  0  0  0  0  0  0  0
    1.0150    0.2770    0.9270 H   0  0  0  0  0  0  0  0  0  0  0  0
  1  2  1  0  0  0  0
  1  8  1  0  0  0  0
  2 10  1  0  0  0  0
  3  2  1  0  0  0  0
  3 11  1  0  0  0  0
  4 14  1  0  0  0  0
  4  5  1  0  0  0  0
  4  3  1  0  0  0  0
  5 15  1  1  0  0  0
  5  1  1  0  0  0  0
  6 19  1  0  0  0  0
  6  5  1  0  0  0  0
  7  6  2  0  0  0  0
  9  2  1  0  0  0  0
 12  3  1  0  0  0  0
 13  4  1  0  0  0  0
 16 22  1  0  0  0  0
 17 18  1  0  0  0  0
 17 16  1  0  0  0  0
 18 25  1  6  0  0  0
 18 20  1  0  0  0  0
 18 19  1  0  0  0  0
 19 26  1  0  0  0  0
 20 31  1  0  0  0  0
 21 20  2  0  0  0  0
 23 17  1  0  0  0  0
 24 17  1  0  0  0  0
 27 36  1  0  0  0  0
 27 37  1  0  0  0  0
 28 38  1  1  0  0  0
 28 29  1  0  0  0  0
 28 27  1  0  0  0  0
 30 40  1  6  0  0  0
 30 32  1  0  0  0  0
 30 28  1  0  0  0  0
 31 30  1  0  0  0  0
 31 41  1  0  0  0  0
 32 34  1  0  0  0  0
 33 32  2  0  0  0  0
 35 27  1  0  0  0  0
 39 29  1  0  0  0  0
M  END
$$$$
