PSW.pdb
 OpenBabel07022419053D

 51 53  0  0  1  0  0  0  0  0999 V2000
    3.7270   -1.7860   -1.4410 N   0  0  0  0  0  0  0  0  0  0  0  0
    4.5510   -2.4650   -0.4450 C   0  0  0  0  0  0  0  0  0  0  0  0
    3.8930   -3.7980   -0.1650 C   0  0  0  0  0  0  0  0  0  0  0  0
    3.0730   -3.9870   -1.4400 C   0  0  0  0  0  0  0  0  0  0  0  0
    2.5490   -2.5760   -1.6320 C   0  0  1  0  0  0  0  0  0  0  0  0
    1.5210   -2.3450   -0.5870 C   0  0  0  0  0  0  0  0  0  0  0  0
    0.4390   -2.9940   -0.6380 O   0  0  0  0  0  0  0  0  0  0  0  0
    4.2340   -1.6090   -2.3130 H   0  0  0  0  0  0  0  0  0  0  0  0
    4.7270   -1.8690    0.4500 H   0  0  0  0  0  0  0  0  0  0  0  0
    5.5580   -2.7000   -0.8890 H   0  0  0  0  0  0  0  0  0  0  0  0
    3.1770   -3.7100    0.6780 H   0  0  0  0  0  0  0  0  0  0  0  0
    4.6180   -4.6200   -0.0490 H   0  0  0  0  0  0  0  0  0  0  0  0
    2.2120   -4.6650   -1.2820 H   0  0  0  0  0  0  0  0  0  0  0  0
    3.7470   -4.3120   -2.2420 H   0  0  0  0  0  0  0  0  0  0  0  0
    2.1380   -2.5200   -2.6580 H   0  0  0  0  0  0  0  0  0  0  0  0
    2.4060   -0.7490    3.0790 O   0  0  0  0  0  0  0  0  0  0  0  0
    1.3020   -1.5560    2.8310 C   0  0  0  0  0  0  0  0  0  0  0  0
    0.6560   -1.2200    1.4950 C   0  0  2  0  0  0  0  0  0  0  0  0
    1.6670   -1.4360    0.4800 N   0  0  0  0  0  0  0  0  0  0  0  0
    0.1740    0.1850    1.4990 C   0  0  0  0  0  0  0  0  0  0  0  0
    0.6470    1.0200    0.6840 O   0  0  0  0  0  0  0  0  0  0  0  0
    2.1370    0.0820    3.5770 H   0  0  0  0  0  0  0  0  0  0  0  0
    0.5750   -1.3560    3.6370 H   0  0  0  0  0  0  0  0  0  0  0  0
    1.6490   -2.6070    2.8560 H   0  0  0  0  0  0  0  0  0  0  0  0
   -0.2260   -1.8650    1.3570 H   0  0  0  0  0  0  0  0  0  0  0  0
    2.5450   -0.8790    0.5590 H   0  0  0  0  0  0  0  0  0  0  0  0
   -0.8160    0.6620    2.3910 N   0  0  0  0  0  0  0  0  0  0  0  0
   -1.3180    2.0100    2.4350 C   0  0  1  0  0  0  0  0  0  0  0  0
   -2.7400    2.1010    1.9290 C   0  0  0  0  0  0  0  0  0  0  0  0
   -2.9260    1.6650    0.5440 C   0  0  0  0  0  0  0  0  0  0  0  0
   -2.9760    2.4840   -0.5940 C   0  0  0  0  0  0  0  0  0  0  0  0
   -3.1240    1.7230   -1.6850 N   0  0  0  0  0  0  0  0  0  0  0  0
   -3.1710    0.4280   -1.2840 C   0  0  0  0  0  0  0  0  0  0  0  0
   -3.3180   -0.7360   -2.0050 C   0  0  0  0  0  0  0  0  0  0  0  0
   -3.3510   -1.9760   -1.4040 C   0  0  0  0  0  0  0  0  0  0  0  0
   -3.2290   -1.9830   -0.0280 C   0  0  0  0  0  0  0  0  0  0  0  0
   -3.0820   -0.8590    0.7330 C   0  0  0  0  0  0  0  0  0  0  0  0
   -3.0510    0.3730    0.0960 C   0  0  0  0  0  0  0  0  0  0  0  0
   -1.2040    2.6220    3.7710 C   0  0  0  0  0  0  0  0  0  0  0  0
   -1.6060    3.8000    3.9440 O   0  0  0  0  0  0  0  0  0  0  0  0
   -0.6730    1.9810    4.8810 O   0  0  0  0  0  0  0  0  0  0  0  0
   -1.2100   -0.0180    3.0760 H   0  0  0  0  0  0  0  0  0  0  0  0
   -0.7320    2.6330    1.6880 H   0  0  0  0  0  0  0  0  0  0  0  0
   -2.9990    3.1990    1.9690 H   0  0  0  0  0  0  0  0  0  0  0  0
   -3.4610    1.6310    2.6310 H   0  0  0  0  0  0  0  0  0  0  0  0
   -2.9060    3.5620   -0.5830 H   0  0  0  0  0  0  0  0  0  0  0  0
   -3.1950    2.0100   -2.6870 H   0  0  0  0  0  0  0  0  0  0  0  0
   -3.4140   -0.7110   -3.1000 H   0  0  0  0  0  0  0  0  0  0  0  0
   -3.4660   -2.9040   -1.9580 H   0  0  0  0  0  0  0  0  0  0  0  0
   -3.2490   -2.9410    0.5110 H   0  0  0  0  0  0  0  0  0  0  0  0
   -3.0010   -0.8910    1.8030 H   0  0  0  0  0  0  0  0  0  0  0  0
  1  2  1  0  0  0  0
  2  3  1  0  0  0  0
  2  9  1  0  0  0  0
  3 12  1  0  0  0  0
  3 11  1  0  0  0  0
  4 13  1  0  0  0  0
  4  3  1  0  0  0  0
  5 15  1  6  0  0  0
  5  1  1  0  0  0  0
  5  4  1  0  0  0  0
  5  6  1  0  0  0  0
  6 19  1  0  0  0  0
  7  6  2  0  0  0  0
  8  1  1  0  0  0  0
 10  2  1  0  0  0  0
 14  4  1  0  0  0  0
 16 22  1  0  0  0  0
 17 24  1  0  0  0  0
 17 16  1  0  0  0  0
 17 23  1  0  0  0  0
 18 25  1  6  0  0  0
 18 20  1  0  0  0  0
 18 17  1  0  0  0  0
 19 26  1  0  0  0  0
 19 18  1  0  0  0  0
 20 27  1  0  0  0  0
 21 20  2  0  0  0  0
 27 28  1  0  0  0  0
 27 42  1  0  0  0  0
 28 43  1  6  0  0  0
 28 39  1  0  0  0  0
 29 44  1  0  0  0  0
 29 28  1  0  0  0  0
 29 45  1  0  0  0  0
 30 29  1  0  0  0  0
 31 46  1  0  0  0  0
 31 30  2  0  0  0  0
 32 33  1  0  0  0  0
 32 31  1  0  0  0  0
 33 38  1  0  0  0  0
 34 35  1  0  0  0  0
 34 33  2  0  0  0  0
 35 36  2  0  0  0  0
 36 50  1  0  0  0  0
 36 37  1  0  0  0  0
 37 51  1  0  0  0  0
 38 30  1  0  0  0  0
 38 37  2  0  0  0  0
 39 40  2  0  0  0  0
 39 41  1  0  0  0  0
 47 32  1  0  0  0  0
 48 34  1  0  0  0  0
 49 35  1  0  0  0  0
M  END
$$$$
