PSY.pdb
 OpenBabel07022419053D

 48 49  0  0  1  0  0  0  0  0999 V2000
    4.8850   -3.3250   -0.1570 N   0  0  0  0  0  0  0  0  0  0  0  0
    4.3320   -4.6600   -0.1190 C   0  0  0  0  0  0  0  0  0  0  0  0
    3.3020   -4.7550   -1.1930 C   0  0  0  0  0  0  0  0  0  0  0  0
    3.3510   -3.4520   -1.9570 C   0  0  0  0  0  0  0  0  0  0  0  0
    4.0430   -2.5290   -0.9860 C   0  0  1  0  0  0  0  0  0  0  0  0
    3.1160   -1.7310   -0.1850 C   0  0  0  0  0  0  0  0  0  0  0  0
    3.1490   -1.8180    1.0690 O   0  0  0  0  0  0  0  0  0  0  0  0
    5.8940   -3.3590   -0.4820 H   0  0  0  0  0  0  0  0  0  0  0  0
    3.8730   -4.8030    0.8960 H   0  0  0  0  0  0  0  0  0  0  0  0
    5.0980   -5.4520   -0.2550 H   0  0  0  0  0  0  0  0  0  0  0  0
    2.3060   -4.9250   -0.7300 H   0  0  0  0  0  0  0  0  0  0  0  0
    3.4730   -5.6210   -1.8780 H   0  0  0  0  0  0  0  0  0  0  0  0
    2.3780   -3.0990   -2.2960 H   0  0  0  0  0  0  0  0  0  0  0  0
    4.0690   -3.6150   -2.8010 H   0  0  0  0  0  0  0  0  0  0  0  0
    4.7030   -1.8240   -1.5610 H   0  0  0  0  0  0  0  0  0  0  0  0
    2.8020    1.7570    0.3340 O   0  0  0  0  0  0  0  0  0  0  0  0
    1.5020    1.4220   -0.0400 C   0  0  0  0  0  0  0  0  0  0  0  0
    1.2530   -0.0660    0.0980 C   0  0  2  0  0  0  0  0  0  0  0  0
    2.1530   -0.8370   -0.7340 N   0  0  0  0  0  0  0  0  0  0  0  0
   -0.1290   -0.3910   -0.2770 C   0  0  0  0  0  0  0  0  0  0  0  0
   -0.3570   -1.2230   -1.1900 O   0  0  0  0  0  0  0  0  0  0  0  0
    2.8140    1.9450    1.3100 H   0  0  0  0  0  0  0  0  0  0  0  0
    0.8090    1.9210    0.6840 H   0  0  0  0  0  0  0  0  0  0  0  0
    1.2560    1.7370   -1.0720 H   0  0  0  0  0  0  0  0  0  0  0  0
    1.4850   -0.3240    1.1590 H   0  0  0  0  0  0  0  0  0  0  0  0
    2.1000   -0.7410   -1.7750 H   0  0  0  0  0  0  0  0  0  0  0  0
   -3.3070    3.0060    5.4600 O   0  0  0  0  0  0  0  0  0  0  0  0
   -3.2510    2.0620    4.4320 C   0  0  0  0  0  0  0  0  0  0  0  0
   -2.1940    1.2040    4.2700 C   0  0  0  0  0  0  0  0  0  0  0  0
   -2.2100    0.3050    3.2380 C   0  0  0  0  0  0  0  0  0  0  0  0
   -3.2550    0.2090    2.3280 C   0  0  0  0  0  0  0  0  0  0  0  0
   -3.2810   -0.7520    1.2170 C   0  0  0  0  0  0  0  0  0  0  0  0
   -2.6390   -0.1350   -0.0330 C   0  0  2  0  0  0  0  0  0  0  0  0
   -1.2760    0.1870    0.3390 N   0  0  0  0  0  0  0  0  0  0  0  0
   -3.4080    1.0360   -0.4530 C   0  0  0  0  0  0  0  0  0  0  0  0
   -2.9280    2.1930   -0.4840 O   0  0  0  0  0  0  0  0  0  0  0  0
   -4.3080    1.0950    2.5240 C   0  0  0  0  0  0  0  0  0  0  0  0
   -4.3170    2.0100    3.5550 C   0  0  0  0  0  0  0  0  0  0  0  0
   -4.7280    0.8630   -0.8350 O   0  0  0  0  0  0  0  0  0  0  0  0
   -2.8700    2.8390    6.3660 H   0  0  0  0  0  0  0  0  0  0  0  0
   -1.3760    1.2800    4.9850 H   0  0  0  0  0  0  0  0  0  0  0  0
   -1.3620   -0.3540    3.1410 H   0  0  0  0  0  0  0  0  0  0  0  0
   -2.6020   -1.6040    1.5010 H   0  0  0  0  0  0  0  0  0  0  0  0
   -4.2720   -1.1570    1.0020 H   0  0  0  0  0  0  0  0  0  0  0  0
   -2.6550   -0.8820   -0.8510 H   0  0  0  0  0  0  0  0  0  0  0  0
   -1.1120    0.8790    1.0970 H   0  0  0  0  0  0  0  0  0  0  0  0
   -5.1650    1.0970    1.8690 H   0  0  0  0  0  0  0  0  0  0  0  0
   -5.1560    2.6930    3.6870 H   0  0  0  0  0  0  0  0  0  0  0  0
  1  2  1  0  0  0  0
  2  9  1  0  0  0  0
  3 11  1  0  0  0  0
  3  2  1  0  0  0  0
  4  3  1  0  0  0  0
  4  5  1  0  0  0  0
  5 15  1  6  0  0  0
  5  6  1  0  0  0  0
  5  1  1  0  0  0  0
  6  7  2  0  0  0  0
  8  1  1  0  0  0  0
 10  2  1  0  0  0  0
 12  3  1  0  0  0  0
 13  4  1  0  0  0  0
 14  4  1  0  0  0  0
 16 22  1  0  0  0  0
 17 18  1  0  0  0  0
 17 16  1  0  0  0  0
 17 23  1  0  0  0  0
 18 25  1  1  0  0  0
 19  6  1  0  0  0  0
 19 18  1  0  0  0  0
 20 18  1  0  0  0  0
 20 34  1  0  0  0  0
 21 20  2  0  0  0  0
 24 17  1  0  0  0  0
 26 19  1  0  0  0  0
 27 40  1  0  0  0  0
 28 27  1  0  0  0  0
 29 28  1  0  0  0  0
 29 41  1  0  0  0  0
 30 29  2  0  0  0  0
 31 37  2  0  0  0  0
 31 30  1  0  0  0  0
 32 43  1  0  0  0  0
 32 31  1  0  0  0  0
 33 45  1  6  0  0  0
 33 34  1  0  0  0  0
 33 32  1  0  0  0  0
 34 46  1  0  0  0  0
 35 33  1  0  0  0  0
 36 35  1  0  0  0  0
 37 38  1  0  0  0  0
 38 48  1  0  0  0  0
 38 28  2  0  0  0  0
 39 35  2  0  0  0  0
 42 30  1  0  0  0  0
 44 32  1  0  0  0  0
 47 37  1  0  0  0  0
M  END
$$$$
