PTA.pdb
 OpenBabel07022419053D

 40 40  0  0  1  0  0  0  0  0999 V2000
    1.7840   -3.5190    1.7700 N   0  0  0  0  0  0  0  0  0  0  0  0
    2.4260   -4.8050    1.9950 C   0  0  0  0  0  0  0  0  0  0  0  0
    2.8990   -5.1430    0.5900 C   0  0  0  0  0  0  0  0  0  0  0  0
    3.0630   -3.7940   -0.0990 C   0  0  0  0  0  0  0  0  0  0  0  0
    2.7710   -2.7860    0.9610 C   0  0  1  0  0  0  0  0  0  0  0  0
    2.1190   -1.5960    0.4240 C   0  0  0  0  0  0  0  0  0  0  0  0
    2.8140   -0.8450   -0.3120 O   0  0  0  0  0  0  0  0  0  0  0  0
    0.9650   -3.6520    1.1010 H   0  0  0  0  0  0  0  0  0  0  0  0
    3.2750   -4.6430    2.6770 H   0  0  0  0  0  0  0  0  0  0  0  0
    1.6940   -5.5330    2.3560 H   0  0  0  0  0  0  0  0  0  0  0  0
    3.8490   -5.6860    0.6690 H   0  0  0  0  0  0  0  0  0  0  0  0
    2.0790   -5.7430    0.1280 H   0  0  0  0  0  0  0  0  0  0  0  0
    4.0930   -3.7550   -0.4890 H   0  0  0  0  0  0  0  0  0  0  0  0
    2.2840   -3.7290   -0.8860 H   0  0  0  0  0  0  0  0  0  0  0  0
    3.6280   -2.5750    1.6260 H   0  0  0  0  0  0  0  0  0  0  0  0
   -1.9670   -1.1770   -0.3490 C   0  0  0  0  0  0  0  0  0  0  0  0
   -0.8870   -0.2850   -0.9110 C   0  0  1  0  0  0  0  0  0  0  0  0
   -1.4610    0.8490   -1.4750 O   0  0  0  0  0  0  0  0  0  0  0  0
    0.2040    0.0160    0.0670 C   0  0  2  0  0  0  0  0  0  0  0  0
    0.7870   -1.1870    0.6380 N   0  0  0  0  0  0  0  0  0  0  0  0
   -0.1280    0.9460    1.1360 C   0  0  0  0  0  0  0  0  0  0  0  0
    0.1020    0.5890    2.3340 O   0  0  0  0  0  0  0  0  0  0  0  0
   -2.0560   -2.1390   -0.9000 H   0  0  0  0  0  0  0  0  0  0  0  0
   -1.7570   -1.4450    0.7060 H   0  0  0  0  0  0  0  0  0  0  0  0
   -2.9530   -0.6780   -0.4590 H   0  0  0  0  0  0  0  0  0  0  0  0
   -0.4290   -0.8360   -1.7610 H   0  0  0  0  0  0  0  0  0  0  0  0
   -0.8720    1.3210   -2.0990 H   0  0  0  0  0  0  0  0  0  0  0  0
    1.0350    0.4880   -0.5380 H   0  0  0  0  0  0  0  0  0  0  0  0
    0.1880   -1.7880    1.2450 H   0  0  0  0  0  0  0  0  0  0  0  0
   -0.1280    4.3020    2.0200 C   0  0  0  0  0  0  0  0  0  0  0  0
   -0.9690    3.0470    2.1140 C   0  0  2  0  0  0  0  0  0  0  0  0
   -0.6910    2.2310    0.9640 N   0  0  0  0  0  0  0  0  0  0  0  0
   -2.4020    3.3970    2.2340 C   0  0  0  0  0  0  0  0  0  0  0  0
   -2.7420    4.1100    3.2130 O   0  0  0  0  0  0  0  0  0  0  0  0
   -3.3690    2.9950    1.3550 O   0  0  0  0  0  0  0  0  0  0  0  0
    0.4540    4.4850    2.9570 H   0  0  0  0  0  0  0  0  0  0  0  0
   -0.8080    5.1510    1.7940 H   0  0  0  0  0  0  0  0  0  0  0  0
    0.5880    4.2500    1.1570 H   0  0  0  0  0  0  0  0  0  0  0  0
   -0.6850    2.5220    3.0440 H   0  0  0  0  0  0  0  0  0  0  0  0
   -0.8860    2.5470   -0.0110 H   0  0  0  0  0  0  0  0  0  0  0  0
  1  2  1  0  0  0  0
  2 10  1  0  0  0  0
  2  9  1  0  0  0  0
  3 11  1  0  0  0  0
  3  2  1  0  0  0  0
  4  3  1  0  0  0  0
  4  5  1  0  0  0  0
  5 15  1  1  0  0  0
  5  1  1  0  0  0  0
  6 20  1  0  0  0  0
  6  5  1  0  0  0  0
  7  6  2  0  0  0  0
  8  1  1  0  0  0  0
 12  3  1  0  0  0  0
 13  4  1  0  0  0  0
 14  4  1  0  0  0  0
 16 24  1  0  0  0  0
 17 26  1  6  0  0  0
 17 16  1  0  0  0  0
 17 19  1  0  0  0  0
 18 17  1  0  0  0  0
 19 28  1  6  0  0  0
 19 20  1  0  0  0  0
 19 21  1  0  0  0  0
 20 29  1  0  0  0  0
 21 22  2  0  0  0  0
 23 16  1  0  0  0  0
 25 16  1  0  0  0  0
 27 18  1  0  0  0  0
 30 31  1  0  0  0  0
 30 36  1  0  0  0  0
 31 33  1  0  0  0  0
 31 39  1  1  0  0  0
 32 21  1  0  0  0  0
 32 31  1  0  0  0  0
 33 34  1  0  0  0  0
 35 33  2  0  0  0  0
 37 30  1  0  0  0  0
 38 30  1  0  0  0  0
 40 32  1  0  0  0  0
M  END
$$$$
