PTC.pdb
 OpenBabel07022419053D

 41 41  0  0  1  0  0  0  0  0999 V2000
   -1.7370   -2.3340    0.6460 N   0  0  0  0  0  0  0  0  0  0  0  0
   -2.3450   -2.8650   -0.5360 C   0  0  0  0  0  0  0  0  0  0  0  0
   -2.2270   -4.3680   -0.3150 C   0  0  0  0  0  0  0  0  0  0  0  0
   -0.8340   -4.4940    0.2970 C   0  0  0  0  0  0  0  0  0  0  0  0
   -0.6780   -3.2010    1.0540 C   0  0  1  0  0  0  0  0  0  0  0  0
    0.6620   -2.5960    0.8990 C   0  0  0  0  0  0  0  0  0  0  0  0
    1.6660   -3.2730    1.2280 O   0  0  0  0  0  0  0  0  0  0  0  0
   -2.3910   -2.0630    1.3940 H   0  0  0  0  0  0  0  0  0  0  0  0
   -1.8040   -2.5450   -1.4510 H   0  0  0  0  0  0  0  0  0  0  0  0
   -3.4380   -2.6330   -0.6090 H   0  0  0  0  0  0  0  0  0  0  0  0
   -2.9890   -4.6530    0.4490 H   0  0  0  0  0  0  0  0  0  0  0  0
   -2.3240   -4.9250   -1.2570 H   0  0  0  0  0  0  0  0  0  0  0  0
   -0.0980   -4.6120   -0.5070 H   0  0  0  0  0  0  0  0  0  0  0  0
   -0.8520   -5.3730    0.9780 H   0  0  0  0  0  0  0  0  0  0  0  0
   -0.8010   -3.4120    2.1530 H   0  0  0  0  0  0  0  0  0  0  0  0
    1.3730    0.5990   -1.6940 C   0  0  0  0  0  0  0  0  0  0  0  0
    2.4230   -0.3640   -1.2210 C   0  0  1  0  0  0  0  0  0  0  0  0
    3.6880    0.1840   -1.4160 O   0  0  0  0  0  0  0  0  0  0  0  0
    2.2110   -0.7170    0.2550 C   0  0  2  0  0  0  0  0  0  0  0  0
    0.8840   -1.2800    0.3950 N   0  0  0  0  0  0  0  0  0  0  0  0
    2.2860    0.5290    1.0610 C   0  0  0  0  0  0  0  0  0  0  0  0
    3.3420    1.2070    1.0980 O   0  0  0  0  0  0  0  0  0  0  0  0
    0.5080    0.0790   -2.1690 H   0  0  0  0  0  0  0  0  0  0  0  0
    1.0440    1.2630   -0.8890 H   0  0  0  0  0  0  0  0  0  0  0  0
    1.8170    1.2190   -2.5220 H   0  0  0  0  0  0  0  0  0  0  0  0
    2.3700   -1.2740   -1.8450 H   0  0  0  0  0  0  0  0  0  0  0  0
    3.6240    0.9590   -2.0260 H   0  0  0  0  0  0  0  0  0  0  0  0
    2.9330   -1.4780    0.5870 H   0  0  0  0  0  0  0  0  0  0  0  0
    0.0130   -0.7510    0.1310 H   0  0  0  0  0  0  0  0  0  0  0  0
    1.1880    0.9920    1.8070 N   0  0  0  0  0  0  0  0  0  0  0  0
    1.1460    2.1630    2.6100 C   0  0  1  0  0  0  0  0  0  0  0  0
    0.1240    3.1780    2.2390 C   0  0  0  0  0  0  0  0  0  0  0  0
    0.3540    3.8010    0.5500 S   0  0  0  0  0  0  0  0  0  0  0  0
    0.9680    1.8020    4.0390 C   0  0  0  0  0  0  0  0  0  0  0  0
    0.9050    2.6900    4.9210 O   0  0  0  0  0  0  0  0  0  0  0  0
    0.8720    0.4670    4.3970 O   0  0  0  0  0  0  0  0  0  0  0  0
    0.3080    0.4160    1.7700 H   0  0  0  0  0  0  0  0  0  0  0  0
    2.1510    2.6570    2.5420 H   0  0  0  0  0  0  0  0  0  0  0  0
    0.2940    4.0660    2.9060 H   0  0  0  0  0  0  0  0  0  0  0  0
   -0.9170    2.8640    2.4290 H   0  0  0  0  0  0  0  0  0  0  0  0
    1.7020    4.1210    0.3710 H   0  0  0  0  0  0  0  0  0  0  0  0
  1  5  1  0  0  0  0
  1  8  1  0  0  0  0
  2  3  1  0  0  0  0
  2  1  1  0  0  0  0
  3  4  1  0  0  0  0
  3 11  1  0  0  0  0
  4 14  1  0  0  0  0
  4  5  1  0  0  0  0
  5 15  1  1  0  0  0
  6  5  1  0  0  0  0
  6  7  2  0  0  0  0
  9  2  1  0  0  0  0
 10  2  1  0  0  0  0
 12  3  1  0  0  0  0
 13  4  1  0  0  0  0
 16 17  1  0  0  0  0
 16 24  1  0  0  0  0
 17 26  1  6  0  0  0
 17 19  1  0  0  0  0
 18 17  1  0  0  0  0
 19 20  1  0  0  0  0
 19 28  1  1  0  0  0
 19 21  1  0  0  0  0
 20  6  1  0  0  0  0
 21 22  2  0  0  0  0
 21 30  1  0  0  0  0
 23 16  1  0  0  0  0
 25 16  1  0  0  0  0
 27 18  1  0  0  0  0
 29 20  1  0  0  0  0
 30 31  1  0  0  0  0
 31 38  1  6  0  0  0
 31 34  1  0  0  0  0
 32 40  1  0  0  0  0
 32 31  1  0  0  0  0
 32 39  1  0  0  0  0
 33 32  1  0  0  0  0
 34 36  2  0  0  0  0
 34 35  1  0  0  0  0
 37 30  1  0  0  0  0
 41 33  1  0  0  0  0
M  END
$$$$
