PTM.pdb
 OpenBabel07022419053D

 47 47  0  0  1  0  0  0  0  0999 V2000
    4.3530   -0.6730   -0.2670 N   0  0  0  0  0  0  0  0  0  0  0  0
    5.0990   -1.4100    0.7320 C   0  0  0  0  0  0  0  0  0  0  0  0
    4.2010   -1.3770    1.9320 C   0  0  0  0  0  0  0  0  0  0  0  0
    2.7890   -1.2850    1.3960 C   0  0  0  0  0  0  0  0  0  0  0  0
    3.0260   -1.2290   -0.0910 C   0  0  1  0  0  0  0  0  0  0  0  0
    2.0660   -0.3990   -0.8160 C   0  0  0  0  0  0  0  0  0  0  0  0
    2.4190    0.6110   -1.4570 O   0  0  0  0  0  0  0  0  0  0  0  0
    4.3090    0.3230    0.0290 H   0  0  0  0  0  0  0  0  0  0  0  0
    5.2790   -2.4530    0.3660 H   0  0  0  0  0  0  0  0  0  0  0  0
    6.0540   -0.8670    0.8930 H   0  0  0  0  0  0  0  0  0  0  0  0
    4.4200   -0.4620    2.5100 H   0  0  0  0  0  0  0  0  0  0  0  0
    4.3350   -2.2800    2.5770 H   0  0  0  0  0  0  0  0  0  0  0  0
    2.2720   -2.2300    1.6320 H   0  0  0  0  0  0  0  0  0  0  0  0
    2.2850   -0.3810    1.7830 H   0  0  0  0  0  0  0  0  0  0  0  0
    3.0280   -2.2670   -0.5180 H   0  0  0  0  0  0  0  0  0  0  0  0
   -2.0310    0.2460   -3.2390 C   0  0  0  0  0  0  0  0  0  0  0  0
   -1.0850   -0.7180   -2.5520 C   0  0  1  0  0  0  0  0  0  0  0  0
   -0.1980   -1.1740   -3.5250 O   0  0  0  0  0  0  0  0  0  0  0  0
   -0.3310    0.0510   -1.5060 C   0  0  2  0  0  0  0  0  0  0  0  0
    0.6710   -0.6980   -0.8310 N   0  0  0  0  0  0  0  0  0  0  0  0
   -1.2350    0.6370   -0.4850 C   0  0  0  0  0  0  0  0  0  0  0  0
   -2.2250    1.3570   -0.7860 O   0  0  0  0  0  0  0  0  0  0  0  0
   -2.1620   -0.1290   -4.2840 H   0  0  0  0  0  0  0  0  0  0  0  0
   -3.0060    0.2920   -2.7100 H   0  0  0  0  0  0  0  0  0  0  0  0
   -1.5390    1.2220   -3.3130 H   0  0  0  0  0  0  0  0  0  0  0  0
   -1.7060   -1.5280   -2.1340 H   0  0  0  0  0  0  0  0  0  0  0  0
    0.5540   -0.5320   -3.5450 H   0  0  0  0  0  0  0  0  0  0  0  0
    0.1670    0.9090   -2.0180 H   0  0  0  0  0  0  0  0  0  0  0  0
    0.3800   -1.5480   -0.2900 H   0  0  0  0  0  0  0  0  0  0  0  0
   -3.7010   -3.3100    3.1260 C   0  0  0  0  0  0  0  0  0  0  0  0
   -2.7620   -2.2830    4.2810 S   0  0  0  0  0  0  0  0  0  0  0  0
   -1.7260   -1.0700    3.4060 C   0  0  0  0  0  0  0  0  0  0  0  0
   -2.6340   -0.1010    2.7080 C   0  0  0  0  0  0  0  0  0  0  0  0
   -1.8870    0.9660    1.9390 C   0  0  2  0  0  0  0  0  0  0  0  0
   -1.0340    0.4150    0.9180 N   0  0  0  0  0  0  0  0  0  0  0  0
   -1.1870    1.9330    2.8160 C   0  0  0  0  0  0  0  0  0  0  0  0
    0.0330    2.2320    2.6730 O   0  0  0  0  0  0  0  0  0  0  0  0
   -1.8340    2.5780    3.8620 O   0  0  0  0  0  0  0  0  0  0  0  0
   -3.7590   -4.3330    3.5510 H   0  0  0  0  0  0  0  0  0  0  0  0
   -3.2400   -3.3790    2.1380 H   0  0  0  0  0  0  0  0  0  0  0  0
   -4.7590   -2.9550    3.0470 H   0  0  0  0  0  0  0  0  0  0  0  0
   -1.1770   -0.5090    4.1930 H   0  0  0  0  0  0  0  0  0  0  0  0
   -1.0050   -1.5660    2.7710 H   0  0  0  0  0  0  0  0  0  0  0  0
   -3.2880   -0.6250    2.0000 H   0  0  0  0  0  0  0  0  0  0  0  0
   -3.2940    0.3370    3.4860 H   0  0  0  0  0  0  0  0  0  0  0  0
   -2.6750    1.5550    1.4070 H   0  0  0  0  0  0  0  0  0  0  0  0
   -0.1940   -0.1960    1.1440 H   0  0  0  0  0  0  0  0  0  0  0  0
  1  5  1  0  0  0  0
  1  8  1  0  0  0  0
  1  2  1  0  0  0  0
  2 10  1  0  0  0  0
  2  3  1  0  0  0  0
  3 11  1  0  0  0  0
  3 12  1  0  0  0  0
  4 13  1  0  0  0  0
  4 14  1  0  0  0  0
  4  3  1  0  0  0  0
  5 15  1  6  0  0  0
  5  4  1  0  0  0  0
  6  5  1  0  0  0  0
  7  6  2  0  0  0  0
  9  2  1  0  0  0  0
 16 24  1  0  0  0  0
 16 17  1  0  0  0  0
 17 26  1  1  0  0  0
 17 19  1  0  0  0  0
 18 17  1  0  0  0  0
 19 28  1  6  0  0  0
 19 20  1  0  0  0  0
 19 21  1  0  0  0  0
 20  6  1  0  0  0  0
 20 29  1  0  0  0  0
 21 35  1  0  0  0  0
 22 21  2  0  0  0  0
 23 16  1  0  0  0  0
 25 16  1  0  0  0  0
 27 18  1  0  0  0  0
 30 39  1  0  0  0  0
 30 31  1  0  0  0  0
 32 42  1  0  0  0  0
 32 31  1  0  0  0  0
 33 32  1  0  0  0  0
 33 45  1  0  0  0  0
 34 46  1  6  0  0  0
 34 33  1  0  0  0  0
 34 36  1  0  0  0  0
 35 47  1  0  0  0  0
 35 34  1  0  0  0  0
 36 38  1  0  0  0  0
 37 36  2  0  0  0  0
 40 30  1  0  0  0  0
 41 30  1  0  0  0  0
 43 32  1  0  0  0  0
 44 33  1  0  0  0  0
M  END
$$$$
