PTN.pdb
 OpenBabel07022419053D

 44 44  0  0  1  0  0  0  0  0999 V2000
    1.8260   -4.5850   -0.3500 N   0  0  0  0  0  0  0  0  0  0  0  0
    1.3290   -5.7890    0.3400 C   0  0  0  0  0  0  0  0  0  0  0  0
    1.0170   -5.1830    1.7020 C   0  0  0  0  0  0  0  0  0  0  0  0
    0.4460   -3.8080    1.3380 C   0  0  0  0  0  0  0  0  0  0  0  0
    0.6790   -3.7150   -0.1550 C   0  0  1  0  0  0  0  0  0  0  0  0
    0.9380   -2.3360   -0.5820 C   0  0  0  0  0  0  0  0  0  0  0  0
    2.0850   -2.0520   -1.0300 O   0  0  0  0  0  0  0  0  0  0  0  0
    1.8170   -4.8680   -1.3760 H   0  0  0  0  0  0  0  0  0  0  0  0
    0.3490   -6.0730   -0.1090 H   0  0  0  0  0  0  0  0  0  0  0  0
    2.0600   -6.5930    0.3720 H   0  0  0  0  0  0  0  0  0  0  0  0
    1.9920   -5.0280    2.2070 H   0  0  0  0  0  0  0  0  0  0  0  0
    0.3060   -5.7770    2.2740 H   0  0  0  0  0  0  0  0  0  0  0  0
   -0.6400   -3.7690    1.5470 H   0  0  0  0  0  0  0  0  0  0  0  0
    1.0100   -3.0190    1.8940 H   0  0  0  0  0  0  0  0  0  0  0  0
   -0.1770   -4.1910   -0.6740 H   0  0  0  0  0  0  0  0  0  0  0  0
   -0.2480    1.9420   -2.4220 C   0  0  0  0  0  0  0  0  0  0  0  0
   -0.6890    0.5400   -2.0370 C   0  0  1  0  0  0  0  0  0  0  0  0
   -0.5430   -0.2430   -3.1950 O   0  0  0  0  0  0  0  0  0  0  0  0
    0.2260    0.0690   -0.9430 C   0  0  2  0  0  0  0  0  0  0  0  0
    0.0060   -1.2820   -0.5370 N   0  0  0  0  0  0  0  0  0  0  0  0
    0.0120    0.9910    0.2310 C   0  0  0  0  0  0  0  0  0  0  0  0
    0.1590    2.2360    0.1000 O   0  0  0  0  0  0  0  0  0  0  0  0
   -0.4230    2.0940   -3.5250 H   0  0  0  0  0  0  0  0  0  0  0  0
   -0.8670    2.7300   -1.9400 H   0  0  0  0  0  0  0  0  0  0  0  0
    0.8080    2.1050   -2.1550 H   0  0  0  0  0  0  0  0  0  0  0  0
   -1.7510    0.6230   -1.7300 H   0  0  0  0  0  0  0  0  0  0  0  0
    0.3350   -0.0650   -3.6070 H   0  0  0  0  0  0  0  0  0  0  0  0
    1.2500    0.1970   -1.2940 H   0  0  0  0  0  0  0  0  0  0  0  0
   -0.9470   -1.5200   -0.1660 H   0  0  0  0  0  0  0  0  0  0  0  0
    1.7890    3.5150    4.7850 N   0  0  0  0  0  0  0  0  0  0  0  0
    0.6370    2.7900    4.3250 C   0  0  0  0  0  0  0  0  0  0  0  0
   -0.4000    2.9700    5.0330 O   0  0  0  0  0  0  0  0  0  0  0  0
    0.7070    1.9300    3.1340 C   0  0  0  0  0  0  0  0  0  0  0  0
   -0.5800    1.3520    2.6700 C   0  0  2  0  0  0  0  0  0  0  0  0
   -0.3570    0.4790    1.5010 N   0  0  0  0  0  0  0  0  0  0  0  0
   -1.6320    2.3380    2.3370 C   0  0  0  0  0  0  0  0  0  0  0  0
   -1.9940    3.1950    3.1450 O   0  0  0  0  0  0  0  0  0  0  0  0
   -2.2340    2.3090    1.0940 O   0  0  0  0  0  0  0  0  0  0  0  0
    2.3430    3.1520    5.5750 H   0  0  0  0  0  0  0  0  0  0  0  0
    2.0630    4.3970    4.3270 H   0  0  0  0  0  0  0  0  0  0  0  0
    1.4560    1.1160    3.3830 H   0  0  0  0  0  0  0  0  0  0  0  0
    1.2440    2.4910    2.3060 H   0  0  0  0  0  0  0  0  0  0  0  0
   -1.0070    0.7090    3.4610 H   0  0  0  0  0  0  0  0  0  0  0  0
   -0.4680   -0.5540    1.5880 H   0  0  0  0  0  0  0  0  0  0  0  0
  1  5  1  0  0  0  0
  1  2  1  0  0  0  0
  2 10  1  0  0  0  0
  2  3  1  0  0  0  0
  3 11  1  0  0  0  0
  3 12  1  0  0  0  0
  4 13  1  0  0  0  0
  4  3  1  0  0  0  0
  4 14  1  0  0  0  0
  5 15  1  6  0  0  0
  5  4  1  0  0  0  0
  6 20  1  0  0  0  0
  6  5  1  0  0  0  0
  7  6  2  0  0  0  0
  8  1  1  0  0  0  0
  9  2  1  0  0  0  0
 16 25  1  0  0  0  0
 16 17  1  0  0  0  0
 16 24  1  0  0  0  0
 17 26  1  1  0  0  0
 17 19  1  0  0  0  0
 18 17  1  0  0  0  0
 19 28  1  6  0  0  0
 19 20  1  0  0  0  0
 19 21  1  0  0  0  0
 20 29  1  0  0  0  0
 21 35  1  0  0  0  0
 22 21  2  0  0  0  0
 23 16  1  0  0  0  0
 27 18  1  0  0  0  0
 30 39  1  0  0  0  0
 31 30  1  0  0  0  0
 31 32  2  0  0  0  0
 33 41  1  0  0  0  0
 33 31  1  0  0  0  0
 34 33  1  0  0  0  0
 34 43  1  1  0  0  0
 35 44  1  0  0  0  0
 35 34  1  0  0  0  0
 36 34  1  0  0  0  0
 36 37  1  0  0  0  0
 38 36  2  0  0  0  0
 40 30  1  0  0  0  0
 42 33  1  0  0  0  0
M  END
$$$$
