PTW.pdb
 OpenBabel07022419053D

 54 56  0  0  1  0  0  0  0  0999 V2000
    1.5050   -3.7670    0.9740 N   0  0  0  0  0  0  0  0  0  0  0  0
    2.1030   -4.6980    0.0350 C   0  0  0  0  0  0  0  0  0  0  0  0
    3.4820   -4.1410   -0.2550 C   0  0  0  0  0  0  0  0  0  0  0  0
    3.8730   -3.5810    1.0940 C   0  0  0  0  0  0  0  0  0  0  0  0
    2.5680   -3.0970    1.6510 C   0  0  1  0  0  0  0  0  0  0  0  0
    2.4600   -1.6370    1.5650 C   0  0  0  0  0  0  0  0  0  0  0  0
    3.3210   -0.9040    2.1150 O   0  0  0  0  0  0  0  0  0  0  0  0
    0.8280   -4.2480    1.6280 H   0  0  0  0  0  0  0  0  0  0  0  0
    1.4880   -4.7290   -0.8840 H   0  0  0  0  0  0  0  0  0  0  0  0
    2.1430   -5.7300    0.4410 H   0  0  0  0  0  0  0  0  0  0  0  0
    4.1610   -4.9670   -0.5220 H   0  0  0  0  0  0  0  0  0  0  0  0
    3.4040   -3.3580   -1.0140 H   0  0  0  0  0  0  0  0  0  0  0  0
    4.3170   -4.3530    1.7410 H   0  0  0  0  0  0  0  0  0  0  0  0
    4.5550   -2.7100    0.9490 H   0  0  0  0  0  0  0  0  0  0  0  0
    2.5200   -3.3780    2.7400 H   0  0  0  0  0  0  0  0  0  0  0  0
    1.4120    2.4720   -0.4970 C   0  0  0  0  0  0  0  0  0  0  0  0
    1.3900    0.9490   -0.5990 C   0  0  1  0  0  0  0  0  0  0  0  0
    2.5930    0.5970   -1.2200 O   0  0  0  0  0  0  0  0  0  0  0  0
    1.3180    0.4080    0.8030 C   0  0  2  0  0  0  0  0  0  0  0  0
    1.4050   -1.0120    0.8740 N   0  0  0  0  0  0  0  0  0  0  0  0
    0.1100    0.9210    1.4680 C   0  0  0  0  0  0  0  0  0  0  0  0
   -0.1360    2.1460    1.5200 O   0  0  0  0  0  0  0  0  0  0  0  0
    0.4250    2.9220   -0.6520 H   0  0  0  0  0  0  0  0  0  0  0  0
    2.1090    2.9120   -1.2600 H   0  0  0  0  0  0  0  0  0  0  0  0
    1.8530    2.7950    0.4880 H   0  0  0  0  0  0  0  0  0  0  0  0
    0.4990    0.6890   -1.2020 H   0  0  0  0  0  0  0  0  0  0  0  0
    2.7110    1.2690   -1.9600 H   0  0  0  0  0  0  0  0  0  0  0  0
    2.1850    0.8470    1.3490 H   0  0  0  0  0  0  0  0  0  0  0  0
    0.6430   -1.5610    0.3850 H   0  0  0  0  0  0  0  0  0  0  0  0
   -0.8210    0.0350    2.0770 N   0  0  0  0  0  0  0  0  0  0  0  0
   -2.0140    0.5070    2.7410 C   0  0  1  0  0  0  0  0  0  0  0  0
   -3.2690    0.0990    2.0580 C   0  0  0  0  0  0  0  0  0  0  0  0
   -3.3910    0.5930    0.6770 C   0  0  0  0  0  0  0  0  0  0  0  0
   -4.1040    1.7150    0.2640 C   0  0  0  0  0  0  0  0  0  0  0  0
   -3.9630    1.8680   -1.0640 N   0  0  0  0  0  0  0  0  0  0  0  0
   -3.1760    0.8750   -1.5390 C   0  0  0  0  0  0  0  0  0  0  0  0
   -2.7490    0.5990   -2.8260 C   0  0  0  0  0  0  0  0  0  0  0  0
   -1.9420   -0.4970   -3.0630 C   0  0  0  0  0  0  0  0  0  0  0  0
   -1.5750   -1.2970   -2.0260 C   0  0  0  0  0  0  0  0  0  0  0  0
   -2.0140   -1.0040   -0.7420 C   0  0  0  0  0  0  0  0  0  0  0  0
   -2.8140    0.0710   -0.4510 C   0  0  0  0  0  0  0  0  0  0  0  0
   -2.0710    0.0400    4.1490 C   0  0  0  0  0  0  0  0  0  0  0  0
   -3.0450    0.3660    4.8640 O   0  0  0  0  0  0  0  0  0  0  0  0
   -1.0790   -0.7450    4.6960 O   0  0  0  0  0  0  0  0  0  0  0  0
   -0.5770   -0.9900    2.0170 H   0  0  0  0  0  0  0  0  0  0  0  0
   -1.9420    1.6240    2.7210 H   0  0  0  0  0  0  0  0  0  0  0  0
   -4.1260    0.5010    2.6630 H   0  0  0  0  0  0  0  0  0  0  0  0
   -3.3270   -1.0120    2.0560 H   0  0  0  0  0  0  0  0  0  0  0  0
   -4.6710    2.3410    0.9420 H   0  0  0  0  0  0  0  0  0  0  0  0
   -4.3720    2.6150   -1.6800 H   0  0  0  0  0  0  0  0  0  0  0  0
   -3.0140    1.2030   -3.6740 H   0  0  0  0  0  0  0  0  0  0  0  0
   -1.5880   -0.7400   -4.0690 H   0  0  0  0  0  0  0  0  0  0  0  0
   -0.9470   -2.1580   -2.1850 H   0  0  0  0  0  0  0  0  0  0  0  0
   -1.7210   -1.6570    0.0640 H   0  0  0  0  0  0  0  0  0  0  0  0
  1  8  1  0  0  0  0
  1  5  1  0  0  0  0
  2 10  1  0  0  0  0
  2  1  1  0  0  0  0
  3  2  1  0  0  0  0
  3  4  1  0  0  0  0
  4  5  1  0  0  0  0
  4 13  1  0  0  0  0
  5 15  1  1  0  0  0
  6  5  1  0  0  0  0
  6  7  2  0  0  0  0
  9  2  1  0  0  0  0
 11  3  1  0  0  0  0
 12  3  1  0  0  0  0
 14  4  1  0  0  0  0
 16 25  1  0  0  0  0
 17 26  1  6  0  0  0
 17 16  1  0  0  0  0
 17 19  1  0  0  0  0
 18 17  1  0  0  0  0
 19 20  1  0  0  0  0
 19 28  1  1  0  0  0
 19 21  1  0  0  0  0
 20  6  1  0  0  0  0
 21 22  2  0  0  0  0
 21 30  1  0  0  0  0
 23 16  1  0  0  0  0
 24 16  1  0  0  0  0
 27 18  1  0  0  0  0
 29 20  1  0  0  0  0
 30 31  1  0  0  0  0
 31 46  1  1  0  0  0
 31 42  1  0  0  0  0
 32 47  1  0  0  0  0
 32 31  1  0  0  0  0
 33 32  1  0  0  0  0
 34 33  2  0  0  0  0
 34 49  1  0  0  0  0
 35 34  1  0  0  0  0
 36 35  1  0  0  0  0
 36 41  1  0  0  0  0
 37 36  2  0  0  0  0
 38 37  1  0  0  0  0
 38 39  2  0  0  0  0
 39 40  1  0  0  0  0
 40 41  2  0  0  0  0
 40 54  1  0  0  0  0
 41 33  1  0  0  0  0
 42 44  2  0  0  0  0
 42 43  1  0  0  0  0
 45 30  1  0  0  0  0
 48 32  1  0  0  0  0
 50 35  1  0  0  0  0
 51 37  1  0  0  0  0
 52 38  1  0  0  0  0
 53 39  1  0  0  0  0
M  END
$$$$
