PVC.pdb
 OpenBabel07022419063D

 43 43  0  0  1  0  0  0  0  0999 V2000
   -0.3150   -2.4030    3.1510 N   0  0  0  0  0  0  0  0  0  0  0  0
   -1.1250   -3.3740    2.4890 C   0  0  0  0  0  0  0  0  0  0  0  0
   -0.2830   -4.6340    2.5810 C   0  0  0  0  0  0  0  0  0  0  0  0
    1.1130   -4.0950    2.4580 C   0  0  0  0  0  0  0  0  0  0  0  0
    1.0320   -2.6090    2.7570 C   0  0  1  0  0  0  0  0  0  0  0  0
    1.4490   -1.8860    1.5550 C   0  0  0  0  0  0  0  0  0  0  0  0
    2.6340   -2.0300    1.1570 O   0  0  0  0  0  0  0  0  0  0  0  0
   -0.6610   -1.4410    3.1420 H   0  0  0  0  0  0  0  0  0  0  0  0
   -1.2610   -3.1670    1.4100 H   0  0  0  0  0  0  0  0  0  0  0  0
   -2.1010   -3.5100    3.0110 H   0  0  0  0  0  0  0  0  0  0  0  0
   -0.4650   -5.2090    3.4960 H   0  0  0  0  0  0  0  0  0  0  0  0
   -0.5170   -5.2870    1.6930 H   0  0  0  0  0  0  0  0  0  0  0  0
    1.4910   -4.2900    1.4230 H   0  0  0  0  0  0  0  0  0  0  0  0
    1.7740   -4.6390    3.1370 H   0  0  0  0  0  0  0  0  0  0  0  0
    1.7310   -2.4360    3.6170 H   0  0  0  0  0  0  0  0  0  0  0  0
   -1.1820   -0.4870   -1.5430 C   0  0  0  0  0  0  0  0  0  0  0  0
    0.2950   -0.7390   -1.6240 C   0  0  0  0  0  0  0  0  0  0  0  0
    0.5710   -2.1990   -1.9360 C   0  0  0  0  0  0  0  0  0  0  0  0
    1.0350   -0.3290   -0.3760 C   0  0  2  0  0  0  0  0  0  0  0  0
    0.5910   -1.0210    0.7980 N   0  0  0  0  0  0  0  0  0  0  0  0
    0.9350    1.1450   -0.2520 C   0  0  0  0  0  0  0  0  0  0  0  0
    1.2880    1.8770   -1.2020 O   0  0  0  0  0  0  0  0  0  0  0  0
   -1.4750    0.5470   -1.7960 H   0  0  0  0  0  0  0  0  0  0  0  0
   -1.6640   -1.1340   -2.3220 H   0  0  0  0  0  0  0  0  0  0  0  0
   -1.6310   -0.7800   -0.5800 H   0  0  0  0  0  0  0  0  0  0  0  0
    0.6820   -0.1590   -2.4870 H   0  0  0  0  0  0  0  0  0  0  0  0
    0.6740   -2.7390   -0.9770 H   0  0  0  0  0  0  0  0  0  0  0  0
    1.5750   -2.2290   -2.4220 H   0  0  0  0  0  0  0  0  0  0  0  0
   -0.2100   -2.6290   -2.5950 H   0  0  0  0  0  0  0  0  0  0  0  0
    2.1050   -0.6060   -0.5360 H   0  0  0  0  0  0  0  0  0  0  0  0
   -0.3880   -0.9430    1.1830 H   0  0  0  0  0  0  0  0  0  0  0  0
    0.4480    1.7690    0.9180 N   0  0  0  0  0  0  0  0  0  0  0  0
    0.3430    3.2070    1.0450 C   0  0  1  0  0  0  0  0  0  0  0  0
    1.6930    3.8360    1.2290 C   0  0  0  0  0  0  0  0  0  0  0  0
    2.3990    3.1170    2.7620 S   0  0  0  0  0  0  0  0  0  0  0  0
   -0.4510    3.8250   -0.0510 C   0  0  0  0  0  0  0  0  0  0  0  0
   -0.9670    3.1110   -0.9210 O   0  0  0  0  0  0  0  0  0  0  0  0
   -0.6130    5.1930   -0.0970 O   0  0  0  0  0  0  0  0  0  0  0  0
    0.1590    1.1300    1.7100 H   0  0  0  0  0  0  0  0  0  0  0  0
   -0.2380    3.4150    2.0010 H   0  0  0  0  0  0  0  0  0  0  0  0
    2.3720    3.6520    0.3740 H   0  0  0  0  0  0  0  0  0  0  0  0
    1.6550    4.9150    1.3860 H   0  0  0  0  0  0  0  0  0  0  0  0
    1.7780    1.8900    3.0440 H   0  0  0  0  0  0  0  0  0  0  0  0
  2  3  1  0  0  0  0
  2 10  1  0  0  0  0
  2  1  1  0  0  0  0
  3 11  1  0  0  0  0
  4  3  1  0  0  0  0
  4  5  1  0  0  0  0
  4 14  1  0  0  0  0
  5  1  1  0  0  0  0
  5 15  1  1  0  0  0
  6  5  1  0  0  0  0
  7  6  2  0  0  0  0
  8  1  1  0  0  0  0
  9  2  1  0  0  0  0
 12  3  1  0  0  0  0
 13  4  1  0  0  0  0
 16 25  1  0  0  0  0
 17 16  1  0  0  0  0
 17 19  1  0  0  0  0
 18 17  1  0  0  0  0
 18 27  1  0  0  0  0
 19 30  1  6  0  0  0
 19 21  1  0  0  0  0
 19 20  1  0  0  0  0
 20 31  1  0  0  0  0
 20  6  1  0  0  0  0
 21 32  1  0  0  0  0
 22 21  2  0  0  0  0
 23 16  1  0  0  0  0
 24 16  1  0  0  0  0
 26 17  1  0  0  0  0
 28 18  1  0  0  0  0
 29 18  1  0  0  0  0
 32 33  1  0  0  0  0
 32 39  1  0  0  0  0
 33 34  1  0  0  0  0
 33 40  1  1  0  0  0
 34 42  1  0  0  0  0
 34 35  1  0  0  0  0
 35 43  1  0  0  0  0
 36 33  1  0  0  0  0
 37 36  2  0  0  0  0
 38 36  1  0  0  0  0
 41 34  1  0  0  0  0
M  END
$$$$
