PVD.pdb
 OpenBabel07022419063D

 45 45  0  0  1  0  0  0  0  0999 V2000
    2.3210   -4.0710    1.0710 N   0  0  0  0  0  0  0  0  0  0  0  0
    1.4290   -5.2070    1.3500 C   0  0  0  0  0  0  0  0  0  0  0  0
    0.3550   -4.5150    2.1680 C   0  0  0  0  0  0  0  0  0  0  0  0
    0.2350   -3.1760    1.4410 C   0  0  0  0  0  0  0  0  0  0  0  0
    1.4100   -3.1380    0.4890 C   0  0  1  0  0  0  0  0  0  0  0  0
    1.9540   -1.7930    0.2780 C   0  0  0  0  0  0  0  0  0  0  0  0
    3.1220   -1.4400    0.5670 O   0  0  0  0  0  0  0  0  0  0  0  0
    2.6400   -3.7330    1.9970 H   0  0  0  0  0  0  0  0  0  0  0  0
    0.9560   -5.5420    0.3970 H   0  0  0  0  0  0  0  0  0  0  0  0
    1.9300   -6.0030    1.8990 H   0  0  0  0  0  0  0  0  0  0  0  0
    0.7660   -4.3440    3.2020 H   0  0  0  0  0  0  0  0  0  0  0  0
   -0.5890   -5.0670    2.1940 H   0  0  0  0  0  0  0  0  0  0  0  0
   -0.7330   -3.1460    0.9080 H   0  0  0  0  0  0  0  0  0  0  0  0
    0.3200   -2.3720    2.2040 H   0  0  0  0  0  0  0  0  0  0  0  0
    1.0320   -3.5130   -0.4920 H   0  0  0  0  0  0  0  0  0  0  0  0
   -0.0820    1.0670   -2.4590 C   0  0  0  0  0  0  0  0  0  0  0  0
    1.3200    1.1020   -1.9210 C   0  0  0  0  0  0  0  0  0  0  0  0
    2.3470    0.6670   -2.9260 C   0  0  0  0  0  0  0  0  0  0  0  0
    1.4760    0.5370   -0.5670 C   0  0  2  0  0  0  0  0  0  0  0  0
    1.1510   -0.7870   -0.2870 N   0  0  0  0  0  0  0  0  0  0  0  0
    0.6900    1.4100    0.3470 C   0  0  0  0  0  0  0  0  0  0  0  0
    0.7700    2.6650    0.3210 O   0  0  0  0  0  0  0  0  0  0  0  0
   -0.5130    0.0660   -2.5430 H   0  0  0  0  0  0  0  0  0  0  0  0
   -0.7310    1.6890   -1.7980 H   0  0  0  0  0  0  0  0  0  0  0  0
   -0.0550    1.6120   -3.4440 H   0  0  0  0  0  0  0  0  0  0  0  0
    1.5050    2.2030   -1.7760 H   0  0  0  0  0  0  0  0  0  0  0  0
    1.8460    0.2860   -3.8650 H   0  0  0  0  0  0  0  0  0  0  0  0
    3.0540   -0.0960   -2.5190 H   0  0  0  0  0  0  0  0  0  0  0  0
    3.0030    1.4870   -3.2930 H   0  0  0  0  0  0  0  0  0  0  0  0
    2.5520    0.7090   -0.2640 H   0  0  0  0  0  0  0  0  0  0  0  0
    0.1540   -1.0800   -0.5360 H   0  0  0  0  0  0  0  0  0  0  0  0
   -0.1890    0.8240    1.2930 N   0  0  0  0  0  0  0  0  0  0  0  0
   -0.9800    1.6770    2.2140 C   0  0  1  0  0  0  0  0  0  0  0  0
   -2.4130    1.3130    2.0330 C   0  0  0  0  0  0  0  0  0  0  0  0
   -3.3470    2.0930    2.8590 C   0  0  0  0  0  0  0  0  0  0  0  0
   -3.0180    3.0450    3.6060 O   0  0  0  0  0  0  0  0  0  0  0  0
   -0.5530    1.2940    3.5780 C   0  0  0  0  0  0  0  0  0  0  0  0
   -1.0140    1.8340    4.6160 O   0  0  0  0  0  0  0  0  0  0  0  0
   -4.7300    1.8050    2.8600 O   0  0  0  0  0  0  0  0  0  0  0  0
    0.4010    0.2900    3.7300 O   0  0  0  0  0  0  0  0  0  0  0  0
   -0.3100   -0.2120    1.3750 H   0  0  0  0  0  0  0  0  0  0  0  0
   -0.7570    2.7320    1.9860 H   0  0  0  0  0  0  0  0  0  0  0  0
   -2.5170    0.2210    2.3020 H   0  0  0  0  0  0  0  0  0  0  0  0
   -2.7540    1.3750    0.9740 H   0  0  0  0  0  0  0  0  0  0  0  0
   -5.3180    2.0860    3.6570 H   0  0  0  0  0  0  0  0  0  0  0  0
  1  2  1  0  0  0  0
  1  8  1  0  0  0  0
  2 10  1  0  0  0  0
  2  3  1  0  0  0  0
  3 12  1  0  0  0  0
  3 11  1  0  0  0  0
  4  3  1  0  0  0  0
  4 14  1  0  0  0  0
  5 15  1  6  0  0  0
  5  1  1  0  0  0  0
  5  4  1  0  0  0  0
  6  5  1  0  0  0  0
  6  7  2  0  0  0  0
  9  2  1  0  0  0  0
 13  4  1  0  0  0  0
 16 17  1  0  0  0  0
 16 24  1  0  0  0  0
 17 26  1  0  0  0  0
 17 19  1  0  0  0  0
 18 28  1  0  0  0  0
 18 17  1  0  0  0  0
 19 20  1  0  0  0  0
 19 30  1  1  0  0  0
 19 21  1  0  0  0  0
 20  6  1  0  0  0  0
 21 32  1  0  0  0  0
 22 21  2  0  0  0  0
 23 16  1  0  0  0  0
 25 16  1  0  0  0  0
 27 18  1  0  0  0  0
 29 18  1  0  0  0  0
 31 20  1  0  0  0  0
 32 41  1  0  0  0  0
 32 33  1  0  0  0  0
 33 42  1  6  0  0  0
 33 37  1  0  0  0  0
 34 33  1  0  0  0  0
 34 43  1  0  0  0  0
 34 35  1  0  0  0  0
 35 39  1  0  0  0  0
 35 36  2  0  0  0  0
 37 40  2  0  0  0  0
 37 38  1  0  0  0  0
 39 45  1  0  0  0  0
 44 34  1  0  0  0  0
M  END
$$$$
