PVF.pdb
 OpenBabel07022419063D

 52 53  0  0  1  0  0  0  0  0999 V2000
    3.0690   -3.0170    3.7640 N   0  0  0  0  0  0  0  0  0  0  0  0
    2.0170   -3.5550    4.5770 C   0  0  0  0  0  0  0  0  0  0  0  0
    0.8710   -3.9020    3.6840 C   0  0  0  0  0  0  0  0  0  0  0  0
    1.3880   -3.6200    2.3090 C   0  0  0  0  0  0  0  0  0  0  0  0
    2.5250   -2.6270    2.5040 C   0  0  1  0  0  0  0  0  0  0  0  0
    1.8870   -1.2740    2.5550 C   0  0  0  0  0  0  0  0  0  0  0  0
    1.8880   -0.6490    3.6230 O   0  0  0  0  0  0  0  0  0  0  0  0
    3.7840   -3.7730    3.5740 H   0  0  0  0  0  0  0  0  0  0  0  0
    2.3700   -4.5060    5.0500 H   0  0  0  0  0  0  0  0  0  0  0  0
    1.7290   -2.8840    5.4070 H   0  0  0  0  0  0  0  0  0  0  0  0
   -0.0400   -3.3190    3.9440 H   0  0  0  0  0  0  0  0  0  0  0  0
    0.5580   -4.9830    3.7880 H   0  0  0  0  0  0  0  0  0  0  0  0
    1.7460   -4.5450    1.8100 H   0  0  0  0  0  0  0  0  0  0  0  0
    0.5660   -3.1960    1.7030 H   0  0  0  0  0  0  0  0  0  0  0  0
    3.2600   -2.6940    1.6910 H   0  0  0  0  0  0  0  0  0  0  0  0
    0.9100    2.8960    0.4090 C   0  0  0  0  0  0  0  0  0  0  0  0
    1.4980    1.5080    0.5110 C   0  0  0  0  0  0  0  0  0  0  0  0
    2.9210    1.5810    0.9590 C   0  0  0  0  0  0  0  0  0  0  0  0
    0.6580    0.5970    1.3910 C   0  0  2  0  0  0  0  0  0  0  0  0
    1.2830   -0.6790    1.4290 N   0  0  0  0  0  0  0  0  0  0  0  0
   -0.7440    0.5930    0.9770 C   0  0  0  0  0  0  0  0  0  0  0  0
   -1.3500    1.6920    0.9240 O   0  0  0  0  0  0  0  0  0  0  0  0
    0.1670    2.9290   -0.3890 H   0  0  0  0  0  0  0  0  0  0  0  0
    1.7470    3.5690    0.1070 H   0  0  0  0  0  0  0  0  0  0  0  0
    0.4740    3.2200    1.3790 H   0  0  0  0  0  0  0  0  0  0  0  0
    1.4840    1.0770   -0.5120 H   0  0  0  0  0  0  0  0  0  0  0  0
    3.0590    2.0240    1.9540 H   0  0  0  0  0  0  0  0  0  0  0  0
    3.4670    2.2190    0.2340 H   0  0  0  0  0  0  0  0  0  0  0  0
    3.3620    0.5660    0.8640 H   0  0  0  0  0  0  0  0  0  0  0  0
    0.7370    1.0380    2.4280 H   0  0  0  0  0  0  0  0  0  0  0  0
    1.3010   -1.2400    0.5330 H   0  0  0  0  0  0  0  0  0  0  0  0
   -1.4930   -0.5590    0.6220 N   0  0  0  0  0  0  0  0  0  0  0  0
   -2.8690   -0.5330    0.2190 C   0  0  1  0  0  0  0  0  0  0  0  0
   -3.1100   -1.1680   -1.1260 C   0  0  0  0  0  0  0  0  0  0  0  0
   -2.3540   -0.4940   -2.2160 C   0  0  0  0  0  0  0  0  0  0  0  0
   -1.0850   -0.9130   -2.5420 C   0  0  0  0  0  0  0  0  0  0  0  0
   -0.3480   -0.3210   -3.5410 C   0  0  0  0  0  0  0  0  0  0  0  0
   -0.8940    0.7360   -4.2510 C   0  0  0  0  0  0  0  0  0  0  0  0
   -2.1690    1.1540   -3.9210 C   0  0  0  0  0  0  0  0  0  0  0  0
   -2.8990    0.5560   -2.9200 C   0  0  0  0  0  0  0  0  0  0  0  0
   -3.6870   -1.2950    1.2090 C   0  0  0  0  0  0  0  0  0  0  0  0
   -3.2200   -1.8500    2.2110 O   0  0  0  0  0  0  0  0  0  0  0  0
   -5.0660   -1.3900    0.9960 O   0  0  0  0  0  0  0  0  0  0  0  0
   -1.0020   -1.5020    0.6590 H   0  0  0  0  0  0  0  0  0  0  0  0
   -3.2320    0.4950    0.2290 H   0  0  0  0  0  0  0  0  0  0  0  0
   -4.1850   -1.0380   -1.3700 H   0  0  0  0  0  0  0  0  0  0  0  0
   -2.8940   -2.2380   -1.1500 H   0  0  0  0  0  0  0  0  0  0  0  0
   -0.6460   -1.7360   -1.9970 H   0  0  0  0  0  0  0  0  0  0  0  0
    0.6610   -0.6940   -3.7620 H   0  0  0  0  0  0  0  0  0  0  0  0
   -0.3260    1.2130   -5.0410 H   0  0  0  0  0  0  0  0  0  0  0  0
   -2.5660    1.9800   -4.4920 H   0  0  0  0  0  0  0  0  0  0  0  0
   -3.8900    0.9290   -2.7090 H   0  0  0  0  0  0  0  0  0  0  0  0
  1  2  1  0  0  0  0
  2  9  1  0  0  0  0
  2 10  1  0  0  0  0
  3 12  1  0  0  0  0
  3 11  1  0  0  0  0
  3  2  1  0  0  0  0
  4  5  1  0  0  0  0
  4  3  1  0  0  0  0
  5 15  1  6  0  0  0
  5  6  1  0  0  0  0
  5  1  1  0  0  0  0
  6  7  2  0  0  0  0
  8  1  1  0  0  0  0
 13  4  1  0  0  0  0
 14  4  1  0  0  0  0
 16 17  1  0  0  0  0
 16 25  1  0  0  0  0
 17 18  1  0  0  0  0
 17 19  1  0  0  0  0
 18 27  1  0  0  0  0
 19 20  1  0  0  0  0
 19 30  1  1  0  0  0
 20  6  1  0  0  0  0
 21 19  1  0  0  0  0
 22 21  2  0  0  0  0
 23 16  1  0  0  0  0
 24 16  1  0  0  0  0
 26 17  1  0  0  0  0
 28 18  1  0  0  0  0
 29 18  1  0  0  0  0
 31 20  1  0  0  0  0
 32 44  1  0  0  0  0
 32 21  1  0  0  0  0
 33 45  1  6  0  0  0
 33 32  1  0  0  0  0
 33 41  1  0  0  0  0
 34 33  1  0  0  0  0
 35 34  1  0  0  0  0
 36 35  1  0  0  0  0
 36 48  1  0  0  0  0
 37 36  2  0  0  0  0
 38 39  2  0  0  0  0
 38 37  1  0  0  0  0
 39 40  1  0  0  0  0
 40 52  1  0  0  0  0
 40 35  2  0  0  0  0
 41 42  1  0  0  0  0
 43 41  2  0  0  0  0
 46 34  1  0  0  0  0
 47 34  1  0  0  0  0
 49 37  1  0  0  0  0
 50 38  1  0  0  0  0
 51 39  1  0  0  0  0
M  END
$$$$
