PVG.pdb
 OpenBabel07022419063D

 39 39  0  0  1  0  0  0  0  0999 V2000
    0.2930   -2.7720    1.7720 N   0  0  0  0  0  0  0  0  0  0  0  0
    0.1250   -4.1800    2.1790 C   0  0  0  0  0  0  0  0  0  0  0  0
    0.8140   -4.9880    1.1120 C   0  0  0  0  0  0  0  0  0  0  0  0
    1.4080   -3.9560    0.1700 C   0  0  0  0  0  0  0  0  0  0  0  0
    1.5630   -2.7520    1.0690 C   0  0  1  0  0  0  0  0  0  0  0  0
    1.7370   -1.4900    0.3320 C   0  0  0  0  0  0  0  0  0  0  0  0
    2.7420   -1.2280   -0.3740 O   0  0  0  0  0  0  0  0  0  0  0  0
   -0.5110   -2.6130    1.1210 H   0  0  0  0  0  0  0  0  0  0  0  0
    0.5590   -4.3190    3.1820 H   0  0  0  0  0  0  0  0  0  0  0  0
   -0.9510   -4.4550    2.2150 H   0  0  0  0  0  0  0  0  0  0  0  0
    1.6450   -5.5420    1.5770 H   0  0  0  0  0  0  0  0  0  0  0  0
    0.1030   -5.6580    0.5710 H   0  0  0  0  0  0  0  0  0  0  0  0
    0.6850   -3.6720   -0.6270 H   0  0  0  0  0  0  0  0  0  0  0  0
    2.3830   -4.2850   -0.2470 H   0  0  0  0  0  0  0  0  0  0  0  0
    2.3620   -2.9120    1.8250 H   0  0  0  0  0  0  0  0  0  0  0  0
   -1.6480    1.0210   -0.5520 C   0  0  0  0  0  0  0  0  0  0  0  0
   -0.3160    1.0110   -1.2440 C   0  0  0  0  0  0  0  0  0  0  0  0
   -0.2870    0.0480   -2.4170 C   0  0  0  0  0  0  0  0  0  0  0  0
    0.8290    0.7690   -0.2920 C   0  0  2  0  0  0  0  0  0  0  0  0
    0.7340   -0.4940    0.4010 N   0  0  0  0  0  0  0  0  0  0  0  0
    0.8160    1.8370    0.7320 C   0  0  0  0  0  0  0  0  0  0  0  0
    0.8870    3.0290    0.3650 O   0  0  0  0  0  0  0  0  0  0  0  0
   -2.3530    0.2570   -0.9280 H   0  0  0  0  0  0  0  0  0  0  0  0
   -2.1770    2.0010   -0.6610 H   0  0  0  0  0  0  0  0  0  0  0  0
   -1.4500    0.9170    0.5390 H   0  0  0  0  0  0  0  0  0  0  0  0
   -0.1620    2.0240   -1.6740 H   0  0  0  0  0  0  0  0  0  0  0  0
    0.7500   -0.2600   -2.6580 H   0  0  0  0  0  0  0  0  0  0  0  0
   -0.9440   -0.8420   -2.2220 H   0  0  0  0  0  0  0  0  0  0  0  0
   -0.6960    0.5090   -3.3410 H   0  0  0  0  0  0  0  0  0  0  0  0
    1.7720    0.8580   -0.8800 H   0  0  0  0  0  0  0  0  0  0  0  0
   -0.1300   -0.6390    0.9700 H   0  0  0  0  0  0  0  0  0  0  0  0
    0.7250    1.5550    2.1180 N   0  0  0  0  0  0  0  0  0  0  0  0
    0.7100    2.5550    3.1430 C   0  0  0  0  0  0  0  0  0  0  0  0
   -0.4580    3.4910    2.9780 C   0  0  0  0  0  0  0  0  0  0  0  0
   -0.5940    4.4180    3.8110 O   0  0  0  0  0  0  0  0  0  0  0  0
   -1.3660    3.3420    1.9390 O   0  0  0  0  0  0  0  0  0  0  0  0
    0.6660    0.5450    2.4260 H   0  0  0  0  0  0  0  0  0  0  0  0
    1.6460    3.1380    3.2140 H   0  0  0  0  0  0  0  0  0  0  0  0
    0.5600    2.0780    4.1290 H   0  0  0  0  0  0  0  0  0  0  0  0
  1  2  1  0  0  0  0
  2 10  1  0  0  0  0
  2  9  1  0  0  0  0
  3 11  1  0  0  0  0
  3  2  1  0  0  0  0
  4  5  1  0  0  0  0
  4  3  1  0  0  0  0
  5  1  1  0  0  0  0
  5 15  1  1  0  0  0
  6 20  1  0  0  0  0
  6  5  1  0  0  0  0
  7  6  2  0  0  0  0
  8  1  1  0  0  0  0
 12  3  1  0  0  0  0
 13  4  1  0  0  0  0
 14  4  1  0  0  0  0
 16 25  1  0  0  0  0
 17 16  1  0  0  0  0
 17 19  1  0  0  0  0
 18 28  1  0  0  0  0
 18 17  1  0  0  0  0
 19 30  1  6  0  0  0
 19 20  1  0  0  0  0
 19 21  1  0  0  0  0
 20 31  1  0  0  0  0
 21 32  1  0  0  0  0
 22 21  2  0  0  0  0
 23 16  1  0  0  0  0
 24 16  1  0  0  0  0
 26 17  1  0  0  0  0
 27 18  1  0  0  0  0
 29 18  1  0  0  0  0
 32 37  1  0  0  0  0
 32 33  1  0  0  0  0
 33 38  1  0  0  0  0
 33 39  1  0  0  0  0
 34 33  1  0  0  0  0
 34 35  1  0  0  0  0
 36 34  2  0  0  0  0
M  END
$$$$
