PVM.pdb
 OpenBabel07022419063D

 49 49  0  0  1  0  0  0  0  0999 V2000
    0.4210   -1.5030    3.4010 N   0  0  0  0  0  0  0  0  0  0  0  0
    0.7230   -2.1280    4.6940 C   0  0  0  0  0  0  0  0  0  0  0  0
    2.2360   -1.9120    4.7430 C   0  0  0  0  0  0  0  0  0  0  0  0
    2.3120   -0.4520    4.3240 C   0  0  0  0  0  0  0  0  0  0  0  0
    1.0520   -0.2280    3.5220 C   0  0  1  0  0  0  0  0  0  0  0  0
    1.4190    0.3760    2.2270 C   0  0  0  0  0  0  0  0  0  0  0  0
    1.9990    1.5000    2.2130 O   0  0  0  0  0  0  0  0  0  0  0  0
    0.8310   -2.1360    2.6860 H   0  0  0  0  0  0  0  0  0  0  0  0
    0.2950   -1.5530    5.5390 H   0  0  0  0  0  0  0  0  0  0  0  0
    0.4690   -3.1990    4.7010 H   0  0  0  0  0  0  0  0  0  0  0  0
    2.6820   -2.5520    3.9560 H   0  0  0  0  0  0  0  0  0  0  0  0
    2.6460   -2.0870    5.7420 H   0  0  0  0  0  0  0  0  0  0  0  0
    2.3610    0.2160    5.2130 H   0  0  0  0  0  0  0  0  0  0  0  0
    3.2290   -0.3000    3.7240 H   0  0  0  0  0  0  0  0  0  0  0  0
    0.3780    0.4190    4.1220 H   0  0  0  0  0  0  0  0  0  0  0  0
    2.6800    0.2980   -2.4410 C   0  0  0  0  0  0  0  0  0  0  0  0
    2.3690   -0.4790   -1.1740 C   0  0  0  0  0  0  0  0  0  0  0  0
    3.6740   -0.8170   -0.5090 C   0  0  0  0  0  0  0  0  0  0  0  0
    1.5450    0.4090   -0.2980 C   0  0  2  0  0  0  0  0  0  0  0  0
    1.1710   -0.2070    0.9600 N   0  0  0  0  0  0  0  0  0  0  0  0
    0.2650    0.7710   -1.0080 C   0  0  0  0  0  0  0  0  0  0  0  0
    0.2950    1.3290   -2.1340 O   0  0  0  0  0  0  0  0  0  0  0  0
    2.6800    1.3930   -2.2590 H   0  0  0  0  0  0  0  0  0  0  0  0
    3.6960    0.0340   -2.8120 H   0  0  0  0  0  0  0  0  0  0  0  0
    1.9100    0.0350   -3.2180 H   0  0  0  0  0  0  0  0  0  0  0  0
    1.8680   -1.4410   -1.4130 H   0  0  0  0  0  0  0  0  0  0  0  0
    4.5260   -0.6370   -1.1980 H   0  0  0  0  0  0  0  0  0  0  0  0
    3.8180   -0.1040    0.3340 H   0  0  0  0  0  0  0  0  0  0  0  0
    3.6940   -1.8680   -0.1340 H   0  0  0  0  0  0  0  0  0  0  0  0
    2.0690    1.3730   -0.1680 H   0  0  0  0  0  0  0  0  0  0  0  0
    0.6960   -1.1280    0.9260 H   0  0  0  0  0  0  0  0  0  0  0  0
   -3.2390   -3.8020   -1.8700 C   0  0  0  0  0  0  0  0  0  0  0  0
   -4.2550   -2.7650   -0.7690 S   0  0  0  0  0  0  0  0  0  0  0  0
   -3.3170   -1.3160   -0.1860 C   0  0  0  0  0  0  0  0  0  0  0  0
   -3.0520   -0.4530   -1.4000 C   0  0  0  0  0  0  0  0  0  0  0  0
   -2.2660    0.8000   -1.0240 C   0  0  2  0  0  0  0  0  0  0  0  0
   -0.9980    0.5010   -0.4430 N   0  0  0  0  0  0  0  0  0  0  0  0
   -3.0760    1.7470   -0.2490 C   0  0  0  0  0  0  0  0  0  0  0  0
   -4.2030    2.0770   -0.6590 O   0  0  0  0  0  0  0  0  0  0  0  0
   -2.5950    2.2690    0.9290 O   0  0  0  0  0  0  0  0  0  0  0  0
   -3.8490   -4.3030   -2.6350 H   0  0  0  0  0  0  0  0  0  0  0  0
   -2.6930   -4.5110   -1.2350 H   0  0  0  0  0  0  0  0  0  0  0  0
   -2.5430   -3.1020   -2.3890 H   0  0  0  0  0  0  0  0  0  0  0  0
   -2.3890   -1.6670    0.2910 H   0  0  0  0  0  0  0  0  0  0  0  0
   -3.9440   -0.8030    0.5530 H   0  0  0  0  0  0  0  0  0  0  0  0
   -4.0480   -0.0890   -1.7450 H   0  0  0  0  0  0  0  0  0  0  0  0
   -2.5240   -0.9770   -2.1930 H   0  0  0  0  0  0  0  0  0  0  0  0
   -2.0510    1.3040   -2.0120 H   0  0  0  0  0  0  0  0  0  0  0  0
   -0.9950    0.0300    0.5060 H   0  0  0  0  0  0  0  0  0  0  0  0
  1  5  1  0  0  0  0
  1  2  1  0  0  0  0
  2 10  1  0  0  0  0
  2  3  1  0  0  0  0
  2  9  1  0  0  0  0
  3 12  1  0  0  0  0
  4  3  1  0  0  0  0
  4 13  1  0  0  0  0
  5 15  1  1  0  0  0
  5  4  1  0  0  0  0
  6  5  1  0  0  0  0
  7  6  2  0  0  0  0
  8  1  1  0  0  0  0
 11  3  1  0  0  0  0
 14  4  1  0  0  0  0
 16 23  1  0  0  0  0
 16 17  1  0  0  0  0
 17 18  1  0  0  0  0
 17 19  1  0  0  0  0
 18 29  1  0  0  0  0
 18 28  1  0  0  0  0
 19 30  1  1  0  0  0
 19 20  1  0  0  0  0
 20  6  1  0  0  0  0
 21 37  1  0  0  0  0
 21 19  1  0  0  0  0
 22 21  2  0  0  0  0
 24 16  1  0  0  0  0
 25 16  1  0  0  0  0
 26 17  1  0  0  0  0
 27 18  1  0  0  0  0
 31 20  1  0  0  0  0
 32 42  1  0  0  0  0
 32 33  1  0  0  0  0
 33 34  1  0  0  0  0
 34 44  1  0  0  0  0
 34 45  1  0  0  0  0
 35 36  1  0  0  0  0
 35 34  1  0  0  0  0
 36 48  1  6  0  0  0
 36 37  1  0  0  0  0
 36 38  1  0  0  0  0
 37 49  1  0  0  0  0
 38 40  1  0  0  0  0
 39 38  2  0  0  0  0
 41 32  1  0  0  0  0
 43 32  1  0  0  0  0
 46 35  1  0  0  0  0
 47 35  1  0  0  0  0
M  END
$$$$
