PVR.pdb
 OpenBabel07022419063D

 55 55  0  0  1  0  0  0  0  0999 V2000
    2.0980   -2.6700    3.9900 N   0  0  0  0  0  0  0  0  0  0  0  0
    2.6720   -2.9580    5.2660 C   0  0  0  0  0  0  0  0  0  0  0  0
    1.5850   -2.7240    6.3000 C   0  0  0  0  0  0  0  0  0  0  0  0
    0.7370   -1.6580    5.5850 C   0  0  0  0  0  0  0  0  0  0  0  0
    0.7650   -2.2150    4.1840 C   0  0  1  0  0  0  0  0  0  0  0  0
    0.3380   -1.2280    3.1630 C   0  0  0  0  0  0  0  0  0  0  0  0
   -0.8050   -0.7460    3.2360 O   0  0  0  0  0  0  0  0  0  0  0  0
    2.0710   -3.5330    3.3870 H   0  0  0  0  0  0  0  0  0  0  0  0
    3.0780   -3.9740    5.3700 H   0  0  0  0  0  0  0  0  0  0  0  0
    3.5310   -2.2600    5.4780 H   0  0  0  0  0  0  0  0  0  0  0  0
    1.0100   -3.6460    6.4770 H   0  0  0  0  0  0  0  0  0  0  0  0
    2.0260   -2.3540    7.2240 H   0  0  0  0  0  0  0  0  0  0  0  0
    1.3100   -0.7280    5.6870 H   0  0  0  0  0  0  0  0  0  0  0  0
   -0.2740   -1.6320    6.0250 H   0  0  0  0  0  0  0  0  0  0  0  0
    0.0890   -3.1070    4.1910 H   0  0  0  0  0  0  0  0  0  0  0  0
    1.3970    2.0560    2.4600 C   0  0  0  0  0  0  0  0  0  0  0  0
    1.5130    1.4110    1.0640 C   0  0  0  0  0  0  0  0  0  0  0  0
    2.9540    1.3350    0.7560 C   0  0  0  0  0  0  0  0  0  0  0  0
    0.7310    0.1620    1.1230 C   0  0  2  0  0  0  0  0  0  0  0  0
    1.1640   -0.7950    2.0980 N   0  0  0  0  0  0  0  0  0  0  0  0
    0.3080   -0.4370   -0.1590 C   0  0  0  0  0  0  0  0  0  0  0  0
    0.3070   -1.7070   -0.3450 O   0  0  0  0  0  0  0  0  0  0  0  0
    1.5020    3.1470    2.3970 H   0  0  0  0  0  0  0  0  0  0  0  0
    0.3710    1.8490    2.8090 H   0  0  0  0  0  0  0  0  0  0  0  0
    2.0970    1.5750    3.1650 H   0  0  0  0  0  0  0  0  0  0  0  0
    1.0620    2.1650    0.3840 H   0  0  0  0  0  0  0  0  0  0  0  0
    3.5970    0.9140    1.5470 H   0  0  0  0  0  0  0  0  0  0  0  0
    3.1090    0.8580   -0.2360 H   0  0  0  0  0  0  0  0  0  0  0  0
    3.3180    2.3840    0.6220 H   0  0  0  0  0  0  0  0  0  0  0  0
   -0.2710    0.5170    1.5280 H   0  0  0  0  0  0  0  0  0  0  0  0
    2.1430   -1.2360    2.0730 H   0  0  0  0  0  0  0  0  0  0  0  0
   -4.7430   -1.1710   -1.2350 N   0  0  0  0  0  0  0  0  0  0  0  0
   -3.7630   -1.8400   -2.0040 C   0  0  0  0  0  0  0  0  0  0  0  0
   -2.7720   -2.3870   -1.3650 N   0  0  0  0  0  0  0  0  0  0  0  0
   -3.8520   -1.9310   -3.4140 N   0  0  0  0  0  0  0  0  0  0  0  0
   -2.7240   -1.6620   -4.2560 C   0  0  0  0  0  0  0  0  0  0  0  0
   -2.2930   -0.2310   -4.3070 C   0  0  0  0  0  0  0  0  0  0  0  0
   -1.8020    0.3660   -3.0480 C   0  0  0  0  0  0  0  0  0  0  0  0
   -0.5590   -0.2720   -2.5410 C   0  0  2  0  0  0  0  0  0  0  0  0
   -0.1280    0.3200   -1.2760 N   0  0  0  0  0  0  0  0  0  0  0  0
    0.5580    0.0840   -3.5080 C   0  0  0  0  0  0  0  0  0  0  0  0
    1.5400    0.7910   -3.1680 O   0  0  0  0  0  0  0  0  0  0  0  0
    0.5650   -0.3500   -4.8230 O   0  0  0  0  0  0  0  0  0  0  0  0
   -4.6530   -0.1650   -1.0440 H   0  0  0  0  0  0  0  0  0  0  0  0
   -5.5490   -1.6960   -0.8660 H   0  0  0  0  0  0  0  0  0  0  0  0
   -2.7170   -2.3290   -0.3450 H   0  0  0  0  0  0  0  0  0  0  0  0
   -4.7850   -2.1990   -3.8240 H   0  0  0  0  0  0  0  0  0  0  0  0
   -1.8580   -2.3500   -4.0120 H   0  0  0  0  0  0  0  0  0  0  0  0
   -2.9650   -1.9530   -5.3220 H   0  0  0  0  0  0  0  0  0  0  0  0
   -3.2270    0.3440   -4.6020 H   0  0  0  0  0  0  0  0  0  0  0  0
   -1.6390   -0.1130   -5.1980 H   0  0  0  0  0  0  0  0  0  0  0  0
   -1.5740    1.4500   -3.2220 H   0  0  0  0  0  0  0  0  0  0  0  0
   -2.6440    0.3410   -2.3150 H   0  0  0  0  0  0  0  0  0  0  0  0
   -0.6100   -1.3460   -2.5560 H   0  0  0  0  0  0  0  0  0  0  0  0
   -0.1330    1.3480   -1.1630 H   0  0  0  0  0  0  0  0  0  0  0  0
  1  5  1  0  0  0  0
  1  2  1  0  0  0  0
  2  9  1  0  0  0  0
  2 10  1  0  0  0  0
  2  3  1  0  0  0  0
  3 11  1  0  0  0  0
  3 12  1  0  0  0  0
  4 13  1  0  0  0  0
  4 14  1  0  0  0  0
  4  3  1  0  0  0  0
  5 15  1  6  0  0  0
  5  4  1  0  0  0  0
  6  7  2  0  0  0  0
  6  5  1  0  0  0  0
  8  1  1  0  0  0  0
 16 24  1  0  0  0  0
 16 25  1  0  0  0  0
 17 19  1  0  0  0  0
 17 16  1  0  0  0  0
 18 17  1  0  0  0  0
 18 27  1  0  0  0  0
 19 30  1  1  0  0  0
 19 20  1  0  0  0  0
 20  6  1  0  0  0  0
 21 19  1  0  0  0  0
 22 21  2  0  0  0  0
 23 16  1  0  0  0  0
 26 17  1  0  0  0  0
 28 18  1  0  0  0  0
 29 18  1  0  0  0  0
 31 20  1  0  0  0  0
 32 44  1  0  0  0  0
 32 45  1  0  0  0  0
 33 34  2  0  0  0  0
 33 32  1  0  0  0  0
 34 46  1  0  0  0  0
 35 33  1  0  0  0  0
 36 48  1  0  0  0  0
 36 35  1  0  0  0  0
 37 36  1  0  0  0  0
 37 38  1  0  0  0  0
 38 39  1  0  0  0  0
 38 53  1  0  0  0  0
 39 54  1  1  0  0  0
 39 40  1  0  0  0  0
 40 55  1  0  0  0  0
 40 21  1  0  0  0  0
 41 42  1  0  0  0  0
 41 39  1  0  0  0  0
 43 41  2  0  0  0  0
 47 35  1  0  0  0  0
 49 36  1  0  0  0  0
 50 37  1  0  0  0  0
 51 37  1  0  0  0  0
 52 38  1  0  0  0  0
M  END
$$$$
