PVV.pdb
 OpenBabel07022419063D

 48 48  0  0  1  0  0  0  0  0999 V2000
    1.7960   -3.1610    1.5060 N   0  0  0  0  0  0  0  0  0  0  0  0
    2.4270   -4.2950    0.9230 C   0  0  0  0  0  0  0  0  0  0  0  0
    3.7430   -3.8350    0.3390 C   0  0  0  0  0  0  0  0  0  0  0  0
    4.0530   -2.6230    1.1570 C   0  0  0  0  0  0  0  0  0  0  0  0
    2.7410   -2.0940    1.6260 C   0  0  1  0  0  0  0  0  0  0  0  0
    2.3210   -0.8550    0.9290 C   0  0  0  0  0  0  0  0  0  0  0  0
    3.0660    0.1200    0.9730 O   0  0  0  0  0  0  0  0  0  0  0  0
    1.2180   -3.3410    2.3320 H   0  0  0  0  0  0  0  0  0  0  0  0
    2.6880   -5.0240    1.7440 H   0  0  0  0  0  0  0  0  0  0  0  0
    1.8370   -4.8160    0.1490 H   0  0  0  0  0  0  0  0  0  0  0  0
    3.6070   -3.6130   -0.7500 H   0  0  0  0  0  0  0  0  0  0  0  0
    4.5580   -4.5740    0.4970 H   0  0  0  0  0  0  0  0  0  0  0  0
    4.7670   -2.8270    1.9860 H   0  0  0  0  0  0  0  0  0  0  0  0
    4.4990   -1.8630    0.4660 H   0  0  0  0  0  0  0  0  0  0  0  0
    2.8330   -1.8720    2.7290 H   0  0  0  0  0  0  0  0  0  0  0  0
   -0.3290   -0.6790   -2.6210 C   0  0  0  0  0  0  0  0  0  0  0  0
    0.5040    0.3240   -1.9330 C   0  0  0  0  0  0  0  0  0  0  0  0
    1.9020    0.2810   -2.5140 C   0  0  0  0  0  0  0  0  0  0  0  0
    0.6040    0.3840   -0.4790 C   0  0  2  0  0  0  0  0  0  0  0  0
    1.1080   -0.7590    0.2270 N   0  0  0  0  0  0  0  0  0  0  0  0
   -0.5410    1.0190    0.2460 C   0  0  0  0  0  0  0  0  0  0  0  0
   -1.1120    2.0400   -0.2280 O   0  0  0  0  0  0  0  0  0  0  0  0
   -0.1440   -1.7340   -2.4300 H   0  0  0  0  0  0  0  0  0  0  0  0
   -0.1420   -0.5440   -3.7130 H   0  0  0  0  0  0  0  0  0  0  0  0
   -1.4290   -0.5180   -2.5160 H   0  0  0  0  0  0  0  0  0  0  0  0
    0.0510    1.2780   -2.2970 H   0  0  0  0  0  0  0  0  0  0  0  0
    1.8980    0.5490   -3.6110 H   0  0  0  0  0  0  0  0  0  0  0  0
    2.3210   -0.7660   -2.5000 H   0  0  0  0  0  0  0  0  0  0  0  0
    2.5850    1.0090   -2.0430 H   0  0  0  0  0  0  0  0  0  0  0  0
    1.4230    1.1360   -0.3120 H   0  0  0  0  0  0  0  0  0  0  0  0
    0.5360   -1.6390    0.2420 H   0  0  0  0  0  0  0  0  0  0  0  0
   -4.5010    0.6620    2.9260 C   0  0  0  0  0  0  0  0  0  0  0  0
   -3.3020    0.1460    2.1840 C   0  0  0  0  0  0  0  0  0  0  0  0
   -3.7160   -0.0210    0.7270 C   0  0  0  0  0  0  0  0  0  0  0  0
   -2.1500    1.1280    2.1980 C   0  0  2  0  0  0  0  0  0  0  0  0
   -1.0590    0.5530    1.4710 N   0  0  0  0  0  0  0  0  0  0  0  0
   -1.8140    1.6100    3.5320 C   0  0  0  0  0  0  0  0  0  0  0  0
   -0.6570    1.5130    3.9730 O   0  0  0  0  0  0  0  0  0  0  0  0
   -2.7860    2.1800    4.3160 O   0  0  0  0  0  0  0  0  0  0  0  0
   -5.3890    0.0580    2.5980 H   0  0  0  0  0  0  0  0  0  0  0  0
   -4.4300    0.5190    4.0220 H   0  0  0  0  0  0  0  0  0  0  0  0
   -4.7510    1.7100    2.6520 H   0  0  0  0  0  0  0  0  0  0  0  0
   -2.9520   -0.7820    2.6360 H   0  0  0  0  0  0  0  0  0  0  0  0
   -2.8600   -0.1350    0.0600 H   0  0  0  0  0  0  0  0  0  0  0  0
   -4.3720   -0.9120    0.5910 H   0  0  0  0  0  0  0  0  0  0  0  0
   -4.2400    0.9080    0.4470 H   0  0  0  0  0  0  0  0  0  0  0  0
   -2.5070    2.0180    1.6020 H   0  0  0  0  0  0  0  0  0  0  0  0
   -0.5960   -0.2880    1.8720 H   0  0  0  0  0  0  0  0  0  0  0  0
  1  5  1  0  0  0  0
  1  8  1  0  0  0  0
  2  1  1  0  0  0  0
  2  9  1  0  0  0  0
  3 12  1  0  0  0  0
  3  2  1  0  0  0  0
  3  4  1  0  0  0  0
  4  5  1  0  0  0  0
  4 13  1  0  0  0  0
  5 15  1  1  0  0  0
  6  7  2  0  0  0  0
  6  5  1  0  0  0  0
 10  2  1  0  0  0  0
 11  3  1  0  0  0  0
 14  4  1  0  0  0  0
 16 25  1  0  0  0  0
 16 23  1  0  0  0  0
 16 17  1  0  0  0  0
 17 19  1  0  0  0  0
 18 28  1  0  0  0  0
 18 29  1  0  0  0  0
 18 17  1  0  0  0  0
 19 30  1  1  0  0  0
 19 20  1  0  0  0  0
 19 21  1  0  0  0  0
 20 31  1  0  0  0  0
 20  6  1  0  0  0  0
 21 36  1  0  0  0  0
 22 21  2  0  0  0  0
 24 16  1  0  0  0  0
 26 17  1  0  0  0  0
 27 18  1  0  0  0  0
 32 41  1  0  0  0  0
 33 35  1  0  0  0  0
 33 43  1  0  0  0  0
 33 32  1  0  0  0  0
 34 33  1  0  0  0  0
 35 47  1  6  0  0  0
 35 37  1  0  0  0  0
 36 48  1  0  0  0  0
 36 35  1  0  0  0  0
 37 38  2  0  0  0  0
 37 39  1  0  0  0  0
 40 32  1  0  0  0  0
 42 32  1  0  0  0  0
 44 34  1  0  0  0  0
 45 34  1  0  0  0  0
 46 34  1  0  0  0  0
M  END
$$$$
