PWA.pdb
 OpenBabel07022419053D

 50 52  0  0  1  0  0  0  0  0999 V2000
    0.8560   -3.5140    3.0090 N   0  0  0  0  0  0  0  0  0  0  0  0
    0.8850   -4.9570    2.7700 C   0  0  0  0  0  0  0  0  0  0  0  0
   -0.2260   -5.2210    1.7790 C   0  0  0  0  0  0  0  0  0  0  0  0
   -0.6040   -3.8500    1.2580 C   0  0  0  0  0  0  0  0  0  0  0  0
    0.6050   -3.0270    1.6640 C   0  0  1  0  0  0  0  0  0  0  0  0
    0.2970   -1.5830    1.6450 C   0  0  0  0  0  0  0  0  0  0  0  0
    0.2870   -0.9750    2.7380 O   0  0  0  0  0  0  0  0  0  0  0  0
    1.7700   -3.1450    3.3240 H   0  0  0  0  0  0  0  0  0  0  0  0
    1.8520   -5.2170    2.3190 H   0  0  0  0  0  0  0  0  0  0  0  0
    0.6900   -5.5190    3.7020 H   0  0  0  0  0  0  0  0  0  0  0  0
    0.1280   -5.8150    0.9120 H   0  0  0  0  0  0  0  0  0  0  0  0
   -1.1070   -5.6890    2.2660 H   0  0  0  0  0  0  0  0  0  0  0  0
   -0.7470   -3.8540    0.1540 H   0  0  0  0  0  0  0  0  0  0  0  0
   -1.5060   -3.4550    1.7530 H   0  0  0  0  0  0  0  0  0  0  0  0
    1.4590   -3.2280    0.9830 H   0  0  0  0  0  0  0  0  0  0  0  0
    0.0240   -0.8900    0.4720 N   0  0  0  0  0  0  0  0  0  0  0  0
   -0.2830    0.4970    0.3410 C   0  0  1  0  0  0  0  0  0  0  0  0
    0.5810    1.2740   -0.5830 C   0  0  0  0  0  0  0  0  0  0  0  0
    2.0060    1.3030   -0.2500 C   0  0  0  0  0  0  0  0  0  0  0  0
    3.0100    0.5970   -0.8540 C   0  0  0  0  0  0  0  0  0  0  0  0
    4.1460    0.9300   -0.2310 N   0  0  0  0  0  0  0  0  0  0  0  0
    3.9080    1.8190    0.7470 C   0  0  0  0  0  0  0  0  0  0  0  0
    4.7670    2.4520    1.6570 C   0  0  0  0  0  0  0  0  0  0  0  0
    4.2390    3.3460    2.5770 C   0  0  0  0  0  0  0  0  0  0  0  0
    2.8800    3.5740    2.5540 C   0  0  0  0  0  0  0  0  0  0  0  0
    2.0250    2.9640    1.6710 C   0  0  0  0  0  0  0  0  0  0  0  0
    2.5560    2.0640    0.7450 C   0  0  0  0  0  0  0  0  0  0  0  0
   -1.6840    0.6200   -0.1510 C   0  0  0  0  0  0  0  0  0  0  0  0
   -2.2150    1.7590   -0.3480 O   0  0  0  0  0  0  0  0  0  0  0  0
    0.0400   -1.4330   -0.4340 H   0  0  0  0  0  0  0  0  0  0  0  0
   -0.2690    0.9540    1.3530 H   0  0  0  0  0  0  0  0  0  0  0  0
    0.3920    0.9280   -1.6390 H   0  0  0  0  0  0  0  0  0  0  0  0
    0.2160    2.3270   -0.5670 H   0  0  0  0  0  0  0  0  0  0  0  0
    2.8970   -0.1110   -1.6950 H   0  0  0  0  0  0  0  0  0  0  0  0
    5.0810    0.5420   -0.4820 H   0  0  0  0  0  0  0  0  0  0  0  0
    5.8180    2.2140    1.6050 H   0  0  0  0  0  0  0  0  0  0  0  0
    4.9290    3.8160    3.2630 H   0  0  0  0  0  0  0  0  0  0  0  0
    2.4790    4.2800    3.2840 H   0  0  0  0  0  0  0  0  0  0  0  0
    0.9550    3.1290    1.6370 H   0  0  0  0  0  0  0  0  0  0  0  0
   -3.9880   -0.9080   -2.3380 C   0  0  0  0  0  0  0  0  0  0  0  0
   -3.8830   -0.3820   -0.9120 C   0  0  2  0  0  0  0  0  0  0  0  0
   -2.5090   -0.5090   -0.4290 N   0  0  0  0  0  0  0  0  0  0  0  0
   -4.8390   -1.0440   -0.0180 C   0  0  0  0  0  0  0  0  0  0  0  0
   -4.4220   -1.6260    1.0080 O   0  0  0  0  0  0  0  0  0  0  0  0
   -6.1920   -1.0220   -0.3080 O   0  0  0  0  0  0  0  0  0  0  0  0
   -3.6160   -0.1070   -3.0160 H   0  0  0  0  0  0  0  0  0  0  0  0
   -5.0470   -1.1120   -2.5600 H   0  0  0  0  0  0  0  0  0  0  0  0
   -3.3760   -1.8440   -2.4510 H   0  0  0  0  0  0  0  0  0  0  0  0
   -4.0760    0.7210   -0.9810 H   0  0  0  0  0  0  0  0  0  0  0  0
   -2.1080   -1.4700   -0.2800 H   0  0  0  0  0  0  0  0  0  0  0  0
  1  8  1  0  0  0  0
  2  1  1  0  0  0  0
  2 10  1  0  0  0  0
  3 12  1  0  0  0  0
  3  2  1  0  0  0  0
  4  5  1  0  0  0  0
  4 14  1  0  0  0  0
  4  3  1  0  0  0  0
  5 15  1  6  0  0  0
  5  1  1  0  0  0  0
  6  5  1  0  0  0  0
  6  7  2  0  0  0  0
  9  2  1  0  0  0  0
 11  3  1  0  0  0  0
 13  4  1  0  0  0  0
 16  6  1  0  0  0  0
 17 16  1  0  0  0  0
 17 31  1  1  0  0  0
 18 33  1  0  0  0  0
 18 19  1  0  0  0  0
 18 17  1  0  0  0  0
 19 27  1  0  0  0  0
 20 19  2  0  0  0  0
 20 21  1  0  0  0  0
 21 22  1  0  0  0  0
 22 23  1  0  0  0  0
 23 24  2  0  0  0  0
 24 37  1  0  0  0  0
 25 24  1  0  0  0  0
 25 38  1  0  0  0  0
 26 25  2  0  0  0  0
 27 22  2  0  0  0  0
 27 26  1  0  0  0  0
 28 17  1  0  0  0  0
 29 28  2  0  0  0  0
 30 16  1  0  0  0  0
 32 18  1  0  0  0  0
 34 20  1  0  0  0  0
 35 21  1  0  0  0  0
 36 23  1  0  0  0  0
 39 26  1  0  0  0  0
 40 41  1  0  0  0  0
 41 49  1  6  0  0  0
 41 42  1  0  0  0  0
 41 43  1  0  0  0  0
 42 50  1  0  0  0  0
 42 28  1  0  0  0  0
 43 44  1  0  0  0  0
 45 43  2  0  0  0  0
 46 40  1  0  0  0  0
 47 40  1  0  0  0  0
 48 40  1  0  0  0  0
M  END
$$$$
