PWC.pdb
 OpenBabel07022419063D

 51 53  0  0  1  0  0  0  0  0999 V2000
    2.1170   -1.4970    3.7270 N   0  0  0  0  0  0  0  0  0  0  0  0
    1.7840   -2.7990    4.2000 C   0  0  0  0  0  0  0  0  0  0  0  0
    2.1840   -3.7990    3.1680 C   0  0  0  0  0  0  0  0  0  0  0  0
    3.3110   -3.0780    2.4350 C   0  0  0  0  0  0  0  0  0  0  0  0
    2.9320   -1.5940    2.5620 C   0  0  1  0  0  0  0  0  0  0  0  0
    2.1520   -1.2770    1.3470 C   0  0  0  0  0  0  0  0  0  0  0  0
    2.6100   -1.2720    0.1860 O   0  0  0  0  0  0  0  0  0  0  0  0
    2.4880   -0.8510    4.4560 H   0  0  0  0  0  0  0  0  0  0  0  0
    0.6850   -2.8260    4.4270 H   0  0  0  0  0  0  0  0  0  0  0  0
    2.3800   -3.0080    5.1290 H   0  0  0  0  0  0  0  0  0  0  0  0
    2.5790   -4.7440    3.6420 H   0  0  0  0  0  0  0  0  0  0  0  0
    1.3760   -4.1150    2.5030 H   0  0  0  0  0  0  0  0  0  0  0  0
    3.3650   -3.3750    1.3730 H   0  0  0  0  0  0  0  0  0  0  0  0
    4.2320   -3.2940    3.0040 H   0  0  0  0  0  0  0  0  0  0  0  0
    3.8610   -0.9750    2.6420 H   0  0  0  0  0  0  0  0  0  0  0  0
    0.7770   -0.9520    1.5040 N   0  0  0  0  0  0  0  0  0  0  0  0
   -0.1280   -0.6060    0.4730 C   0  0  1  0  0  0  0  0  0  0  0  0
    0.4130    0.1180   -0.7260 C   0  0  0  0  0  0  0  0  0  0  0  0
    0.9670    1.4340   -0.2820 C   0  0  0  0  0  0  0  0  0  0  0  0
    2.2300    1.8870   -0.1000 C   0  0  0  0  0  0  0  0  0  0  0  0
    2.2100    3.1650    0.3120 N   0  0  0  0  0  0  0  0  0  0  0  0
    0.9390    3.5920    0.4140 C   0  0  0  0  0  0  0  0  0  0  0  0
    0.4010    4.8270    0.7940 C   0  0  0  0  0  0  0  0  0  0  0  0
   -0.9600    5.0140    0.8100 C   0  0  0  0  0  0  0  0  0  0  0  0
   -1.7590    3.9550    0.4430 C   0  0  0  0  0  0  0  0  0  0  0  0
   -1.2190    2.7270    0.0660 C   0  0  0  0  0  0  0  0  0  0  0  0
    0.1460    2.5290    0.0470 C   0  0  0  0  0  0  0  0  0  0  0  0
   -0.9340   -1.7710    0.1030 C   0  0  0  0  0  0  0  0  0  0  0  0
   -0.7630   -2.8690    0.6850 O   0  0  0  0  0  0  0  0  0  0  0  0
    0.3610   -0.9700    2.5010 H   0  0  0  0  0  0  0  0  0  0  0  0
   -0.8500    0.1480    0.9710 H   0  0  0  0  0  0  0  0  0  0  0  0
    1.0820   -0.4520   -1.3590 H   0  0  0  0  0  0  0  0  0  0  0  0
   -0.4680    0.3770   -1.3700 H   0  0  0  0  0  0  0  0  0  0  0  0
    3.1300    1.3110   -0.2670 H   0  0  0  0  0  0  0  0  0  0  0  0
    3.0510    3.7380    0.5220 H   0  0  0  0  0  0  0  0  0  0  0  0
    1.0340    5.6520    1.0790 H   0  0  0  0  0  0  0  0  0  0  0  0
   -1.4010    5.9770    1.1050 H   0  0  0  0  0  0  0  0  0  0  0  0
   -2.8290    4.0980    0.4550 H   0  0  0  0  0  0  0  0  0  0  0  0
   -1.8510    1.9020   -0.2280 H   0  0  0  0  0  0  0  0  0  0  0  0
   -1.9330   -1.7270   -0.9130 N   0  0  0  0  0  0  0  0  0  0  0  0
   -2.7210   -2.9060   -1.2600 C   0  0  1  0  0  0  0  0  0  0  0  0
   -4.2130   -2.6090   -1.1530 C   0  0  0  0  0  0  0  0  0  0  0  0
   -5.0910   -4.1340   -1.6030 S   0  0  0  0  0  0  0  0  0  0  0  0
   -2.4460   -3.2960   -2.6660 C   0  0  0  0  0  0  0  0  0  0  0  0
   -1.6300   -2.6110   -3.3320 O   0  0  0  0  0  0  0  0  0  0  0  0
   -3.0360   -4.3700   -3.2860 O   0  0  0  0  0  0  0  0  0  0  0  0
   -2.1080   -0.8350   -1.4220 H   0  0  0  0  0  0  0  0  0  0  0  0
   -2.4250   -3.7720   -0.6340 H   0  0  0  0  0  0  0  0  0  0  0  0
   -4.4630   -2.2820   -0.1410 H   0  0  0  0  0  0  0  0  0  0  0  0
   -4.4370   -1.7970   -1.8750 H   0  0  0  0  0  0  0  0  0  0  0  0
   -5.2460   -4.9740   -0.4920 H   0  0  0  0  0  0  0  0  0  0  0  0
  1  2  1  0  0  0  0
  1  8  1  0  0  0  0
  2  9  1  0  0  0  0
  2 10  1  0  0  0  0
  3 11  1  0  0  0  0
  3  2  1  0  0  0  0
  4  5  1  0  0  0  0
  4 14  1  0  0  0  0
  4  3  1  0  0  0  0
  5 15  1  1  0  0  0
  5  1  1  0  0  0  0
  6 16  1  0  0  0  0
  6  5  1  0  0  0  0
  7  6  2  0  0  0  0
 12  3  1  0  0  0  0
 13  4  1  0  0  0  0
 16 30  1  0  0  0  0
 17 31  1  1  0  0  0
 17 16  1  0  0  0  0
 18 19  1  0  0  0  0
 18 17  1  0  0  0  0
 19 20  2  0  0  0  0
 19 27  1  0  0  0  0
 20 21  1  0  0  0  0
 21 22  1  0  0  0  0
 21 35  1  0  0  0  0
 22 23  1  0  0  0  0
 23 24  2  0  0  0  0
 23 36  1  0  0  0  0
 24 37  1  0  0  0  0
 25 38  1  0  0  0  0
 25 24  1  0  0  0  0
 26 25  2  0  0  0  0
 27 26  1  0  0  0  0
 27 22  2  0  0  0  0
 28 17  1  0  0  0  0
 28 29  2  0  0  0  0
 32 18  1  0  0  0  0
 33 18  1  0  0  0  0
 34 20  1  0  0  0  0
 39 26  1  0  0  0  0
 40 28  1  0  0  0  0
 41 42  1  0  0  0  0
 41 40  1  0  0  0  0
 41 48  1  1  0  0  0
 42 49  1  0  0  0  0
 43 42  1  0  0  0  0
 43 51  1  0  0  0  0
 44 41  1  0  0  0  0
 45 44  2  0  0  0  0
 46 44  1  0  0  0  0
 47 40  1  0  0  0  0
 50 42  1  0  0  0  0
M  END
$$$$
