PWG.pdb
 OpenBabel07022419063D

 47 49  0  0  1  0  0  0  0  0999 V2000
    2.4320   -2.5270   -0.1490 N   0  0  0  0  0  0  0  0  0  0  0  0
    2.9960   -2.9250    1.1130 C   0  0  0  0  0  0  0  0  0  0  0  0
    2.0260   -3.9240    1.7120 C   0  0  0  0  0  0  0  0  0  0  0  0
    1.4970   -4.5720    0.4530 C   0  0  0  0  0  0  0  0  0  0  0  0
    1.3440   -3.3890   -0.4670 C   0  0  1  0  0  0  0  0  0  0  0  0
    0.0200   -2.7760   -0.2140 C   0  0  0  0  0  0  0  0  0  0  0  0
   -1.0300   -3.4640   -0.3620 O   0  0  0  0  0  0  0  0  0  0  0  0
    3.1170   -2.3590   -0.8880 H   0  0  0  0  0  0  0  0  0  0  0  0
    3.9320   -3.5240    0.9000 H   0  0  0  0  0  0  0  0  0  0  0  0
    3.2590   -2.1020    1.7800 H   0  0  0  0  0  0  0  0  0  0  0  0
    1.2020   -3.4070    2.2400 H   0  0  0  0  0  0  0  0  0  0  0  0
    2.5460   -4.6560    2.3680 H   0  0  0  0  0  0  0  0  0  0  0  0
    2.2940   -5.2670    0.1090 H   0  0  0  0  0  0  0  0  0  0  0  0
    0.5270   -5.0860    0.6100 H   0  0  0  0  0  0  0  0  0  0  0  0
    1.4110   -3.7450   -1.5390 H   0  0  0  0  0  0  0  0  0  0  0  0
   -0.1770   -1.4160    0.1950 N   0  0  0  0  0  0  0  0  0  0  0  0
   -1.5010   -0.8930    0.4190 C   0  0  1  0  0  0  0  0  0  0  0  0
   -1.6520   -0.3230    1.7640 C   0  0  0  0  0  0  0  0  0  0  0  0
   -0.7830    0.8100    2.1130 C   0  0  0  0  0  0  0  0  0  0  0  0
   -1.1990    2.1470    1.9950 C   0  0  0  0  0  0  0  0  0  0  0  0
   -0.1880    2.9680    2.3600 N   0  0  0  0  0  0  0  0  0  0  0  0
    0.8950    2.2180    2.7200 C   0  0  0  0  0  0  0  0  0  0  0  0
    2.1590    2.5580    3.1770 C   0  0  0  0  0  0  0  0  0  0  0  0
    3.0830    1.5910    3.4940 C   0  0  0  0  0  0  0  0  0  0  0  0
    2.6970    0.2570    3.3370 C   0  0  0  0  0  0  0  0  0  0  0  0
    1.4420   -0.0690    2.8830 C   0  0  0  0  0  0  0  0  0  0  0  0
    0.5070    0.9190    2.5620 C   0  0  0  0  0  0  0  0  0  0  0  0
   -1.8640    0.0440   -0.6780 C   0  0  0  0  0  0  0  0  0  0  0  0
   -1.0250    0.2340   -1.5840 O   0  0  0  0  0  0  0  0  0  0  0  0
    0.7000   -0.8700    0.2950 H   0  0  0  0  0  0  0  0  0  0  0  0
   -2.2720   -1.7230    0.3230 H   0  0  0  0  0  0  0  0  0  0  0  0
   -2.7160   -0.1310    2.0610 H   0  0  0  0  0  0  0  0  0  0  0  0
   -1.3610   -1.1540    2.4920 H   0  0  0  0  0  0  0  0  0  0  0  0
   -2.1740    2.4700    1.6640 H   0  0  0  0  0  0  0  0  0  0  0  0
   -0.2650    4.0060    2.3520 H   0  0  0  0  0  0  0  0  0  0  0  0
    2.3960    3.5890    3.2770 H   0  0  0  0  0  0  0  0  0  0  0  0
    4.0440    1.8840    3.8420 H   0  0  0  0  0  0  0  0  0  0  0  0
    3.4450   -0.4870    3.5950 H   0  0  0  0  0  0  0  0  0  0  0  0
    1.1720   -1.1080    2.7730 H   0  0  0  0  0  0  0  0  0  0  0  0
   -3.1010    0.7220   -0.7410 N   0  0  0  0  0  0  0  0  0  0  0  0
   -3.4660    1.6350   -1.7990 C   0  0  0  0  0  0  0  0  0  0  0  0
   -3.4620    0.9820   -3.1240 C   0  0  0  0  0  0  0  0  0  0  0  0
   -3.1580   -0.2260   -3.2030 O   0  0  0  0  0  0  0  0  0  0  0  0
   -3.7850    1.6750   -4.2700 O   0  0  0  0  0  0  0  0  0  0  0  0
   -3.7650    0.5150    0.0600 H   0  0  0  0  0  0  0  0  0  0  0  0
   -4.4940    2.0020   -1.5980 H   0  0  0  0  0  0  0  0  0  0  0  0
   -2.7780    2.5190   -1.8280 H   0  0  0  0  0  0  0  0  0  0  0  0
  1  2  1  0  0  0  0
  2  3  1  0  0  0  0
  2 10  1  0  0  0  0
  3 11  1  0  0  0  0
  3 12  1  0  0  0  0
  4 14  1  0  0  0  0
  4  3  1  0  0  0  0
  5 15  1  6  0  0  0
  5  6  1  0  0  0  0
  5  1  1  0  0  0  0
  5  4  1  0  0  0  0
  6 16  1  0  0  0  0
  7  6  2  0  0  0  0
  8  1  1  0  0  0  0
  9  2  1  0  0  0  0
 13  4  1  0  0  0  0
 16 30  1  0  0  0  0
 16 17  1  0  0  0  0
 17 31  1  6  0  0  0
 17 18  1  0  0  0  0
 18 32  1  0  0  0  0
 18 19  1  0  0  0  0
 18 33  1  0  0  0  0
 19 27  1  0  0  0  0
 20 19  2  0  0  0  0
 20 21  1  0  0  0  0
 21 22  1  0  0  0  0
 22 23  1  0  0  0  0
 23 36  1  0  0  0  0
 23 24  2  0  0  0  0
 24 37  1  0  0  0  0
 25 24  1  0  0  0  0
 25 38  1  0  0  0  0
 26 25  2  0  0  0  0
 27 22  2  0  0  0  0
 27 26  1  0  0  0  0
 28 17  1  0  0  0  0
 29 28  2  0  0  0  0
 34 20  1  0  0  0  0
 35 21  1  0  0  0  0
 39 26  1  0  0  0  0
 40 28  1  0  0  0  0
 40 45  1  0  0  0  0
 41 46  1  0  0  0  0
 41 40  1  0  0  0  0
 42 41  1  0  0  0  0
 43 42  1  0  0  0  0
 44 42  2  0  0  0  0
 47 41  1  0  0  0  0
M  END
$$$$
