PWP.pdb
 OpenBabel07022419063D

 54 57  0  0  1  0  0  0  0  0999 V2000
    3.0900   -4.1220    2.0140 N   0  0  0  0  0  0  0  0  0  0  0  0
    4.5050   -4.2230    2.3170 C   0  0  0  0  0  0  0  0  0  0  0  0
    4.8650   -2.9000    2.9570 C   0  0  0  0  0  0  0  0  0  0  0  0
    3.6170   -2.5790    3.7460 C   0  0  0  0  0  0  0  0  0  0  0  0
    2.5180   -3.2270    2.9690 C   0  0  1  0  0  0  0  0  0  0  0  0
    1.5720   -2.2530    2.3700 C   0  0  0  0  0  0  0  0  0  0  0  0
    1.0120   -1.4100    3.1360 O   0  0  0  0  0  0  0  0  0  0  0  0
    2.6170   -5.0520    1.9560 H   0  0  0  0  0  0  0  0  0  0  0  0
    5.0620   -4.3700    1.3740 H   0  0  0  0  0  0  0  0  0  0  0  0
    4.6500   -5.0610    3.0080 H   0  0  0  0  0  0  0  0  0  0  0  0
    5.7320   -3.0640    3.6190 H   0  0  0  0  0  0  0  0  0  0  0  0
    5.0840   -2.1350    2.1880 H   0  0  0  0  0  0  0  0  0  0  0  0
    3.5170   -1.4760    3.8090 H   0  0  0  0  0  0  0  0  0  0  0  0
    3.7400   -2.9900    4.7630 H   0  0  0  0  0  0  0  0  0  0  0  0
    1.9250   -3.8590    3.6940 H   0  0  0  0  0  0  0  0  0  0  0  0
    1.2440   -2.1860    1.0200 N   0  0  0  0  0  0  0  0  0  0  0  0
    0.2920   -1.1890    0.4800 C   0  0  1  0  0  0  0  0  0  0  0  0
    1.0160   -0.4360   -0.6120 C   0  0  0  0  0  0  0  0  0  0  0  0
    0.2800    0.6120   -1.2580 C   0  0  0  0  0  0  0  0  0  0  0  0
   -0.3940    0.6400   -2.4610 C   0  0  0  0  0  0  0  0  0  0  0  0
   -0.9420    1.8480   -2.6740 N   0  0  0  0  0  0  0  0  0  0  0  0
   -0.6580    2.6450   -1.6430 C   0  0  0  0  0  0  0  0  0  0  0  0
   -0.9900    3.9730   -1.3910 C   0  0  0  0  0  0  0  0  0  0  0  0
   -0.5300    4.5170   -0.2090 C   0  0  0  0  0  0  0  0  0  0  0  0
    0.2270    3.8040    0.7010 C   0  0  0  0  0  0  0  0  0  0  0  0
    0.5420    2.4810    0.4220 C   0  0  0  0  0  0  0  0  0  0  0  0
    0.0980    1.9080   -0.7510 C   0  0  0  0  0  0  0  0  0  0  0  0
   -0.8440   -1.9810   -0.0310 C   0  0  0  0  0  0  0  0  0  0  0  0
   -0.6240   -3.2000   -0.2950 O   0  0  0  0  0  0  0  0  0  0  0  0
    1.6520   -2.8320    0.3310 H   0  0  0  0  0  0  0  0  0  0  0  0
   -0.0370   -0.5930    1.3220 H   0  0  0  0  0  0  0  0  0  0  0  0
    1.9520   -0.0520   -0.1500 H   0  0  0  0  0  0  0  0  0  0  0  0
    1.2500   -1.2220   -1.3880 H   0  0  0  0  0  0  0  0  0  0  0  0
   -0.4900   -0.1760   -3.1630 H   0  0  0  0  0  0  0  0  0  0  0  0
   -1.5140    2.1650   -3.5060 H   0  0  0  0  0  0  0  0  0  0  0  0
   -1.5790    4.5610   -2.0780 H   0  0  0  0  0  0  0  0  0  0  0  0
   -0.7800    5.5660    0.0120 H   0  0  0  0  0  0  0  0  0  0  0  0
    0.5890    4.2170    1.6230 H   0  0  0  0  0  0  0  0  0  0  0  0
    1.1390    1.8750    1.1120 H   0  0  0  0  0  0  0  0  0  0  0  0
   -2.1260   -1.4690   -0.2310 N   0  0  0  0  0  0  0  0  0  0  0  0
   -3.1960   -2.3190   -0.8290 C   0  0  0  0  0  0  0  0  0  0  0  0
   -4.2350   -1.3900   -1.3560 C   0  0  0  0  0  0  0  0  0  0  0  0
   -3.7470    0.0200   -1.0860 C   0  0  0  0  0  0  0  0  0  0  0  0
   -2.7850   -0.2240    0.0620 C   0  0  1  0  0  0  0  0  0  0  0  0
   -3.6270   -0.3670    1.3160 C   0  0  0  0  0  0  0  0  0  0  0  0
   -3.6690   -1.4660    1.9190 O   0  0  0  0  0  0  0  0  0  0  0  0
   -4.3530    0.6980    1.8080 O   0  0  0  0  0  0  0  0  0  0  0  0
   -2.7360   -2.8340   -1.7170 H   0  0  0  0  0  0  0  0  0  0  0  0
   -3.5510   -3.0710   -0.1100 H   0  0  0  0  0  0  0  0  0  0  0  0
   -4.4260   -1.5020   -2.4450 H   0  0  0  0  0  0  0  0  0  0  0  0
   -5.2120   -1.5620   -0.8490 H   0  0  0  0  0  0  0  0  0  0  0  0
   -4.5910    0.6070   -0.7030 H   0  0  0  0  0  0  0  0  0  0  0  0
   -3.2370    0.4420   -1.9490 H   0  0  0  0  0  0  0  0  0  0  0  0
   -2.1790    0.6490    0.2080 H   0  0  0  0  0  0  0  0  0  0  0  0
  1  2  1  0  0  0  0
  1  5  1  0  0  0  0
  2  3  1  0  0  0  0
  2 10  1  0  0  0  0
  3 11  1  0  0  0  0
  3  4  1  0  0  0  0
  4 13  1  0  0  0  0
  4 14  1  0  0  0  0
  5 15  1  1  0  0  0
  5  4  1  0  0  0  0
  6  5  1  0  0  0  0
  6  7  2  0  0  0  0
  8  1  1  0  0  0  0
  9  2  1  0  0  0  0
 12  3  1  0  0  0  0
 16  6  1  0  0  0  0
 17 16  1  0  0  0  0
 17 31  1  1  0  0  0
 18 32  1  0  0  0  0
 18 17  1  0  0  0  0
 19 27  1  0  0  0  0
 19 18  1  0  0  0  0
 20 19  2  0  0  0  0
 21 20  1  0  0  0  0
 21 22  1  0  0  0  0
 22 23  2  0  0  0  0
 22 27  1  0  0  0  0
 23 24  1  0  0  0  0
 24 37  1  0  0  0  0
 24 25  2  0  0  0  0
 25 38  1  0  0  0  0
 26 25  1  0  0  0  0
 26 39  1  0  0  0  0
 27 26  2  0  0  0  0
 28 17  1  0  0  0  0
 29 28  2  0  0  0  0
 30 16  1  0  0  0  0
 33 18  1  0  0  0  0
 34 20  1  0  0  0  0
 35 21  1  0  0  0  0
 36 23  1  0  0  0  0
 40 28  1  0  0  0  0
 40 44  1  0  0  0  0
 41 40  1  0  0  0  0
 41 49  1  0  0  0  0
 42 43  1  0  0  0  0
 42 51  1  0  0  0  0
 42 41  1  0  0  0  0
 43 52  1  0  0  0  0
 43 44  1  0  0  0  0
 44 54  1  1  0  0  0
 44 45  1  0  0  0  0
 45 47  2  0  0  0  0
 45 46  1  0  0  0  0
 48 41  1  0  0  0  0
 50 42  1  0  0  0  0
 53 43  1  0  0  0  0
M  END
$$$$
