PWQ.pdb
 OpenBabel07022419063D

 57 59  0  0  1  0  0  0  0  0999 V2000
    3.5330   -2.8970    3.7590 N   0  0  0  0  0  0  0  0  0  0  0  0
    4.8270   -2.7800    3.1670 C   0  0  0  0  0  0  0  0  0  0  0  0
    4.9200   -1.4430    2.5100 C   0  0  0  0  0  0  0  0  0  0  0  0
    3.7510   -0.6250    3.0510 C   0  0  0  0  0  0  0  0  0  0  0  0
    2.7940   -1.7140    3.4660 C   0  0  1  0  0  0  0  0  0  0  0  0
    1.8910   -1.9590    2.3090 C   0  0  0  0  0  0  0  0  0  0  0  0
    1.8920   -3.0790    1.7600 O   0  0  0  0  0  0  0  0  0  0  0  0
    3.5530   -3.1610    4.7700 H   0  0  0  0  0  0  0  0  0  0  0  0
    5.0140   -3.5860    2.4290 H   0  0  0  0  0  0  0  0  0  0  0  0
    5.6230   -2.9190    3.9480 H   0  0  0  0  0  0  0  0  0  0  0  0
    5.8910   -0.9840    2.7810 H   0  0  0  0  0  0  0  0  0  0  0  0
    4.8010   -1.5270    1.4050 H   0  0  0  0  0  0  0  0  0  0  0  0
    4.1370   -0.0340    3.8960 H   0  0  0  0  0  0  0  0  0  0  0  0
    3.3110   -0.0100    2.2390 H   0  0  0  0  0  0  0  0  0  0  0  0
    2.1970   -1.4200    4.3640 H   0  0  0  0  0  0  0  0  0  0  0  0
    1.0280   -0.9390    1.8220 N   0  0  0  0  0  0  0  0  0  0  0  0
    0.1670   -1.2230    0.6960 C   0  0  1  0  0  0  0  0  0  0  0  0
   -1.2870   -1.1660    0.9920 C   0  0  0  0  0  0  0  0  0  0  0  0
   -1.7510    0.1340    1.4670 C   0  0  0  0  0  0  0  0  0  0  0  0
   -1.1280    1.3390    1.4580 C   0  0  0  0  0  0  0  0  0  0  0  0
   -1.9440    2.3010    2.0000 N   0  0  0  0  0  0  0  0  0  0  0  0
   -3.0810    1.7080    2.3490 C   0  0  0  0  0  0  0  0  0  0  0  0
   -4.2470    2.1930    2.9350 C   0  0  0  0  0  0  0  0  0  0  0  0
   -5.2860    1.3060    3.1810 C   0  0  0  0  0  0  0  0  0  0  0  0
   -5.1900   -0.0230    2.8630 C   0  0  0  0  0  0  0  0  0  0  0  0
   -4.0340   -0.4860    2.2860 C   0  0  0  0  0  0  0  0  0  0  0  0
   -3.0140    0.3820    2.0440 C   0  0  0  0  0  0  0  0  0  0  0  0
    0.5540   -0.4120   -0.4860 C   0  0  0  0  0  0  0  0  0  0  0  0
    1.5880    0.3450   -0.4320 O   0  0  0  0  0  0  0  0  0  0  0  0
    1.0410    0.0080    2.3060 H   0  0  0  0  0  0  0  0  0  0  0  0
    0.3670   -2.3110    0.3920 H   0  0  0  0  0  0  0  0  0  0  0  0
   -1.8770   -1.4780    0.0910 H   0  0  0  0  0  0  0  0  0  0  0  0
   -1.5480   -1.9680    1.7430 H   0  0  0  0  0  0  0  0  0  0  0  0
   -0.1600    1.6190    1.1080 H   0  0  0  0  0  0  0  0  0  0  0  0
   -1.7320    3.3080    2.1220 H   0  0  0  0  0  0  0  0  0  0  0  0
   -4.3560    3.2370    3.1980 H   0  0  0  0  0  0  0  0  0  0  0  0
   -6.1890    1.6690    3.6310 H   0  0  0  0  0  0  0  0  0  0  0  0
   -5.9890   -0.7200    3.0490 H   0  0  0  0  0  0  0  0  0  0  0  0
   -3.9520   -1.5370    2.0320 H   0  0  0  0  0  0  0  0  0  0  0  0
   -1.2420   -3.7550   -3.6200 N   0  0  0  0  0  0  0  0  0  0  0  0
   -0.2000   -2.8110   -3.4810 C   0  0  0  0  0  0  0  0  0  0  0  0
    0.5510   -2.9680   -2.4610 O   0  0  0  0  0  0  0  0  0  0  0  0
    0.0500   -1.7070   -4.4240 C   0  0  0  0  0  0  0  0  0  0  0  0
    0.7790   -0.5390   -3.8910 C   0  0  0  0  0  0  0  0  0  0  0  0
    0.0930    0.2600   -2.8180 C   0  0  2  0  0  0  0  0  0  0  0  0
   -0.2330   -0.4920   -1.6600 N   0  0  0  0  0  0  0  0  0  0  0  0
   -1.0110    1.0510   -3.3680 C   0  0  0  0  0  0  0  0  0  0  0  0
   -0.8330    1.7490   -4.3840 O   0  0  0  0  0  0  0  0  0  0  0  0
   -2.2520    1.0370   -2.7780 O   0  0  0  0  0  0  0  0  0  0  0  0
   -2.2200   -3.5210   -3.3560 H   0  0  0  0  0  0  0  0  0  0  0  0
   -1.0470   -4.7010   -3.9890 H   0  0  0  0  0  0  0  0  0  0  0  0
    0.6240   -2.1660   -5.2850 H   0  0  0  0  0  0  0  0  0  0  0  0
   -0.9380   -1.4420   -4.8700 H   0  0  0  0  0  0  0  0  0  0  0  0
    1.7490   -0.9180   -3.4670 H   0  0  0  0  0  0  0  0  0  0  0  0
    1.0110    0.1720   -4.7140 H   0  0  0  0  0  0  0  0  0  0  0  0
    0.8850    1.0340   -2.5120 H   0  0  0  0  0  0  0  0  0  0  0  0
   -1.1070   -1.0950   -1.7130 H   0  0  0  0  0  0  0  0  0  0  0  0
  1  8  1  0  0  0  0
  2  1  1  0  0  0  0
  2 10  1  0  0  0  0
  3 11  1  0  0  0  0
  3  4  1  0  0  0  0
  3  2  1  0  0  0  0
  4  5  1  0  0  0  0
  4 13  1  0  0  0  0
  5  1  1  0  0  0  0
  5 15  1  1  0  0  0
  6  5  1  0  0  0  0
  7  6  2  0  0  0  0
  9  2  1  0  0  0  0
 12  3  1  0  0  0  0
 14  4  1  0  0  0  0
 16 30  1  0  0  0  0
 16  6  1  0  0  0  0
 17 31  1  6  0  0  0
 17 18  1  0  0  0  0
 17 16  1  0  0  0  0
 18 19  1  0  0  0  0
 18 33  1  0  0  0  0
 19 27  1  0  0  0  0
 20 19  2  0  0  0  0
 20 21  1  0  0  0  0
 21 35  1  0  0  0  0
 21 22  1  0  0  0  0
 22 23  1  0  0  0  0
 23 24  2  0  0  0  0
 23 36  1  0  0  0  0
 24 37  1  0  0  0  0
 25 38  1  0  0  0  0
 25 24  1  0  0  0  0
 26 25  2  0  0  0  0
 27 26  1  0  0  0  0
 27 22  2  0  0  0  0
 28 29  2  0  0  0  0
 28 17  1  0  0  0  0
 32 18  1  0  0  0  0
 34 20  1  0  0  0  0
 39 26  1  0  0  0  0
 40 41  1  0  0  0  0
 40 50  1  0  0  0  0
 41 42  2  0  0  0  0
 43 44  1  0  0  0  0
 43 41  1  0  0  0  0
 44 54  1  0  0  0  0
 44 45  1  0  0  0  0
 45 56  1  1  0  0  0
 45 46  1  0  0  0  0
 46 28  1  0  0  0  0
 47 45  1  0  0  0  0
 47 49  1  0  0  0  0
 48 47  2  0  0  0  0
 51 40  1  0  0  0  0
 52 43  1  0  0  0  0
 53 43  1  0  0  0  0
 55 44  1  0  0  0  0
 57 46  1  0  0  0  0
M  END
$$$$
