PWT.pdb
 OpenBabel07022419063D

 54 56  0  0  1  0  0  0  0  0999 V2000
    0.7800   -2.2600   -3.0560 N   0  0  0  0  0  0  0  0  0  0  0  0
    0.0100   -2.1520   -4.2580 C   0  0  0  0  0  0  0  0  0  0  0  0
    0.4470   -0.9330   -4.9930 C   0  0  0  0  0  0  0  0  0  0  0  0
    1.7150   -0.4920   -4.3440 C   0  0  0  0  0  0  0  0  0  0  0  0
    1.8240   -1.2880   -3.0910 C   0  0  1  0  0  0  0  0  0  0  0  0
    1.6780   -0.3650   -1.9320 C   0  0  0  0  0  0  0  0  0  0  0  0
    2.4980    0.5840   -1.7740 O   0  0  0  0  0  0  0  0  0  0  0  0
    1.0650   -3.2090   -2.7970 H   0  0  0  0  0  0  0  0  0  0  0  0
    0.1500   -3.0770   -4.8820 H   0  0  0  0  0  0  0  0  0  0  0  0
   -1.0810   -2.1050   -4.0500 H   0  0  0  0  0  0  0  0  0  0  0  0
    0.6350   -1.2190   -6.0620 H   0  0  0  0  0  0  0  0  0  0  0  0
   -0.3420   -0.1520   -5.0030 H   0  0  0  0  0  0  0  0  0  0  0  0
    1.7200    0.6020   -4.1380 H   0  0  0  0  0  0  0  0  0  0  0  0
    2.6050   -0.7130   -4.9930 H   0  0  0  0  0  0  0  0  0  0  0  0
    2.8290   -1.7970   -3.0270 H   0  0  0  0  0  0  0  0  0  0  0  0
    0.6380   -0.5140   -0.9850 N   0  0  0  0  0  0  0  0  0  0  0  0
    0.4830    0.4010    0.1720 C   0  0  1  0  0  0  0  0  0  0  0  0
   -0.8260    1.0550   -0.0210 C   0  0  0  0  0  0  0  0  0  0  0  0
   -1.2420    2.0210    1.0070 C   0  0  0  0  0  0  0  0  0  0  0  0
   -1.0450    3.4010    0.9220 C   0  0  0  0  0  0  0  0  0  0  0  0
   -1.5140    3.9860    2.0320 N   0  0  0  0  0  0  0  0  0  0  0  0
   -2.0240    3.0480    2.8690 C   0  0  0  0  0  0  0  0  0  0  0  0
   -2.6220    3.1660    4.1050 C   0  0  0  0  0  0  0  0  0  0  0  0
   -3.0740    2.0410    4.7440 C   0  0  0  0  0  0  0  0  0  0  0  0
   -2.9100    0.8260    4.1150 C   0  0  0  0  0  0  0  0  0  0  0  0
   -2.3110    0.7270    2.8820 C   0  0  0  0  0  0  0  0  0  0  0  0
   -1.8500    1.8380    2.2230 C   0  0  0  0  0  0  0  0  0  0  0  0
    0.6890   -0.4020    1.3770 C   0  0  0  0  0  0  0  0  0  0  0  0
    0.7250    0.0630    2.5610 O   0  0  0  0  0  0  0  0  0  0  0  0
   -0.0290   -1.3020   -1.1320 H   0  0  0  0  0  0  0  0  0  0  0  0
    1.3120    1.1710    0.0440 H   0  0  0  0  0  0  0  0  0  0  0  0
   -0.7820    1.5570   -1.0390 H   0  0  0  0  0  0  0  0  0  0  0  0
   -1.6010    0.2550   -0.1620 H   0  0  0  0  0  0  0  0  0  0  0  0
   -0.5800    3.8800    0.0700 H   0  0  0  0  0  0  0  0  0  0  0  0
   -1.5060    5.0080    2.2570 H   0  0  0  0  0  0  0  0  0  0  0  0
   -2.7470    4.1170    4.5900 H   0  0  0  0  0  0  0  0  0  0  0  0
   -3.5570    2.0930    5.7320 H   0  0  0  0  0  0  0  0  0  0  0  0
   -3.2710   -0.0530    4.6280 H   0  0  0  0  0  0  0  0  0  0  0  0
   -2.1740   -0.2270    2.3690 H   0  0  0  0  0  0  0  0  0  0  0  0
   -1.3320   -3.2730    2.7120 C   0  0  0  0  0  0  0  0  0  0  0  0
    0.1010   -3.7580    2.6350 C   0  0  1  0  0  0  0  0  0  0  0  0
    0.1620   -4.6450    1.5630 O   0  0  0  0  0  0  0  0  0  0  0  0
    1.0780   -2.6340    2.5010 C   0  0  2  0  0  0  0  0  0  0  0  0
    0.8750   -1.8360    1.3210 N   0  0  0  0  0  0  0  0  0  0  0  0
    2.4470   -3.2600    2.4950 C   0  0  0  0  0  0  0  0  0  0  0  0
    3.2660   -3.0760    1.5580 O   0  0  0  0  0  0  0  0  0  0  0  0
    2.8410   -4.0690    3.5440 O   0  0  0  0  0  0  0  0  0  0  0  0
   -1.5340   -2.8160    3.7020 H   0  0  0  0  0  0  0  0  0  0  0  0
   -2.0370   -4.1090    2.5260 H   0  0  0  0  0  0  0  0  0  0  0  0
   -1.4510   -2.4740    1.9550 H   0  0  0  0  0  0  0  0  0  0  0  0
    0.3480   -4.3220    3.5560 H   0  0  0  0  0  0  0  0  0  0  0  0
    0.8440   -5.3590    1.7120 H   0  0  0  0  0  0  0  0  0  0  0  0
    1.0570   -2.0030    3.4080 H   0  0  0  0  0  0  0  0  0  0  0  0
    0.8610   -2.3030    0.3900 H   0  0  0  0  0  0  0  0  0  0  0  0
  1  8  1  0  0  0  0
  2 10  1  0  0  0  0
  2  1  1  0  0  0  0
  3  4  1  0  0  0  0
  3  2  1  0  0  0  0
  4 13  1  0  0  0  0
  4  5  1  0  0  0  0
  5  1  1  0  0  0  0
  5 15  1  1  0  0  0
  5  6  1  0  0  0  0
  6  7  2  0  0  0  0
  6 16  1  0  0  0  0
  9  2  1  0  0  0  0
 11  3  1  0  0  0  0
 12  3  1  0  0  0  0
 14  4  1  0  0  0  0
 16 17  1  0  0  0  0
 17 31  1  6  0  0  0
 17 28  1  0  0  0  0
 18 17  1  0  0  0  0
 18 19  1  0  0  0  0
 19 27  1  0  0  0  0
 20 19  2  0  0  0  0
 20 21  1  0  0  0  0
 21 35  1  0  0  0  0
 21 22  1  0  0  0  0
 22 23  1  0  0  0  0
 23 36  1  0  0  0  0
 23 24  2  0  0  0  0
 24 37  1  0  0  0  0
 25 38  1  0  0  0  0
 25 24  1  0  0  0  0
 26 25  2  0  0  0  0
 27 22  2  0  0  0  0
 27 26  1  0  0  0  0
 28 29  2  0  0  0  0
 30 16  1  0  0  0  0
 32 18  1  0  0  0  0
 33 18  1  0  0  0  0
 34 20  1  0  0  0  0
 39 26  1  0  0  0  0
 40 48  1  0  0  0  0
 41 40  1  0  0  0  0
 41 51  1  1  0  0  0
 42 52  1  0  0  0  0
 42 41  1  0  0  0  0
 43 41  1  0  0  0  0
 43 53  1  1  0  0  0
 44 28  1  0  0  0  0
 44 43  1  0  0  0  0
 45 43  1  0  0  0  0
 45 47  1  0  0  0  0
 46 45  2  0  0  0  0
 49 40  1  0  0  0  0
 50 40  1  0  0  0  0
 54 44  1  0  0  0  0
M  END
$$$$
