PYD.pdb
 OpenBabel07022419063D

 50 51  0  0  1  0  0  0  0  0999 V2000
    2.9600   -3.3990    0.5310 N   0  0  0  0  0  0  0  0  0  0  0  0
    3.2120   -3.1870   -0.8540 C   0  0  0  0  0  0  0  0  0  0  0  0
    4.0920   -1.9480   -0.9750 C   0  0  0  0  0  0  0  0  0  0  0  0
    4.7600   -2.0040    0.4100 C   0  0  0  0  0  0  0  0  0  0  0  0
    3.5200   -2.2740    1.2400 C   0  0  1  0  0  0  0  0  0  0  0  0
    2.6130   -1.1060    1.2250 C   0  0  0  0  0  0  0  0  0  0  0  0
    3.0150   -0.0470    1.8070 O   0  0  0  0  0  0  0  0  0  0  0  0
    1.9940   -3.6240    0.7840 H   0  0  0  0  0  0  0  0  0  0  0  0
    2.3120   -3.1470   -1.4680 H   0  0  0  0  0  0  0  0  0  0  0  0
    3.8300   -4.0270   -1.2940 H   0  0  0  0  0  0  0  0  0  0  0  0
    4.8140   -2.0100   -1.7850 H   0  0  0  0  0  0  0  0  0  0  0  0
    3.4940   -1.0140   -0.9510 H   0  0  0  0  0  0  0  0  0  0  0  0
    5.4200   -2.8720    0.4160 H   0  0  0  0  0  0  0  0  0  0  0  0
    5.2340   -1.0470    0.6550 H   0  0  0  0  0  0  0  0  0  0  0  0
    3.8350   -2.5450    2.2730 H   0  0  0  0  0  0  0  0  0  0  0  0
   -3.1260    5.1840   -0.6350 O   0  0  0  0  0  0  0  0  0  0  0  0
   -2.3450    4.0240   -0.6720 C   0  0  0  0  0  0  0  0  0  0  0  0
   -0.9840    4.1240   -0.5140 C   0  0  0  0  0  0  0  0  0  0  0  0
   -0.1990    2.9920   -0.5470 C   0  0  0  0  0  0  0  0  0  0  0  0
   -0.7330    1.7140   -0.7390 C   0  0  0  0  0  0  0  0  0  0  0  0
    0.1850    0.5580   -0.7820 C   0  0  0  0  0  0  0  0  0  0  0  0
    0.4420    0.0480    0.5870 C   0  0  2  0  0  0  0  0  0  0  0  0
    1.3400   -1.0920    0.6090 N   0  0  0  0  0  0  0  0  0  0  0  0
   -0.7860   -0.2270    1.3740 C   0  0  0  0  0  0  0  0  0  0  0  0
   -1.7150    0.5930    1.5650 O   0  0  0  0  0  0  0  0  0  0  0  0
   -2.0870    1.6530   -0.8930 C   0  0  0  0  0  0  0  0  0  0  0  0
   -2.9000    2.7770   -0.8640 C   0  0  0  0  0  0  0  0  0  0  0  0
   -3.0890    5.8050    0.1460 H   0  0  0  0  0  0  0  0  0  0  0  0
   -0.5560    5.1040   -0.3640 H   0  0  0  0  0  0  0  0  0  0  0  0
    0.8670    3.1300   -0.4160 H   0  0  0  0  0  0  0  0  0  0  0  0
   -0.2710   -0.1960   -1.4590 H   0  0  0  0  0  0  0  0  0  0  0  0
    1.1520    0.9450   -1.2120 H   0  0  0  0  0  0  0  0  0  0  0  0
    0.9840    0.8630    1.1480 H   0  0  0  0  0  0  0  0  0  0  0  0
    1.0110   -1.9560    0.1370 H   0  0  0  0  0  0  0  0  0  0  0  0
   -2.5370    0.6760   -1.0470 H   0  0  0  0  0  0  0  0  0  0  0  0
   -3.9700    2.6690   -0.9920 H   0  0  0  0  0  0  0  0  0  0  0  0
   -0.9910   -1.5110    1.9920 N   0  0  0  0  0  0  0  0  0  0  0  0
   -2.1490   -1.8550    2.7660 C   0  0  1  0  0  0  0  0  0  0  0  0
   -2.8130   -3.0930    2.2240 C   0  0  0  0  0  0  0  0  0  0  0  0
   -3.2650   -2.9350    0.8180 C   0  0  0  0  0  0  0  0  0  0  0  0
   -3.8440   -3.8640    0.1920 O   0  0  0  0  0  0  0  0  0  0  0  0
   -1.7600   -2.1520    4.1860 C   0  0  0  0  0  0  0  0  0  0  0  0
   -2.6860   -2.4680    4.9680 O   0  0  0  0  0  0  0  0  0  0  0  0
   -3.0770   -1.7600    0.1080 O   0  0  0  0  0  0  0  0  0  0  0  0
   -0.4490   -2.0850    4.6240 O   0  0  0  0  0  0  0  0  0  0  0  0
   -0.2480   -2.2190    1.8610 H   0  0  0  0  0  0  0  0  0  0  0  0
   -2.8920   -1.0410    2.7840 H   0  0  0  0  0  0  0  0  0  0  0  0
   -3.7000   -3.3860    2.8100 H   0  0  0  0  0  0  0  0  0  0  0  0
   -2.0880   -3.9570    2.2080 H   0  0  0  0  0  0  0  0  0  0  0  0
   -3.3340   -1.6530   -0.8590 H   0  0  0  0  0  0  0  0  0  0  0  0
  1  8  1  0  0  0  0
  1  5  1  0  0  0  0
  2  1  1  0  0  0  0
  3 12  1  0  0  0  0
  3  2  1  0  0  0  0
  3  4  1  0  0  0  0
  4 13  1  0  0  0  0
  4 14  1  0  0  0  0
  4  5  1  0  0  0  0
  5 15  1  1  0  0  0
  6  5  1  0  0  0  0
  6  7  2  0  0  0  0
  9  2  1  0  0  0  0
 10  2  1  0  0  0  0
 11  3  1  0  0  0  0
 16 28  1  0  0  0  0
 17 16  1  0  0  0  0
 17 18  1  0  0  0  0
 18 29  1  0  0  0  0
 19 18  2  0  0  0  0
 19 30  1  0  0  0  0
 20 19  1  0  0  0  0
 21 20  1  0  0  0  0
 21 22  1  0  0  0  0
 22 23  1  0  0  0  0
 22 33  1  1  0  0  0
 22 24  1  0  0  0  0
 23  6  1  0  0  0  0
 24 25  2  0  0  0  0
 24 37  1  0  0  0  0
 26 27  1  0  0  0  0
 26 20  2  0  0  0  0
 27 17  2  0  0  0  0
 31 21  1  0  0  0  0
 32 21  1  0  0  0  0
 34 23  1  0  0  0  0
 35 26  1  0  0  0  0
 36 27  1  0  0  0  0
 37 38  1  0  0  0  0
 38 47  1  6  0  0  0
 38 42  1  0  0  0  0
 39 38  1  0  0  0  0
 39 48  1  0  0  0  0
 40 39  1  0  0  0  0
 41 40  2  0  0  0  0
 42 45  2  0  0  0  0
 42 43  1  0  0  0  0
 44 40  1  0  0  0  0
 46 37  1  0  0  0  0
 49 39  1  0  0  0  0
 50 44  1  0  0  0  0
M  END
$$$$
