PYG.pdb
 OpenBabel07022419063D

 44 45  0  0  1  0  0  0  0  0999 V2000
    0.1600   -2.5880    3.7000 N   0  0  0  0  0  0  0  0  0  0  0  0
    0.5640   -3.6260    4.6330 C   0  0  0  0  0  0  0  0  0  0  0  0
    1.9410   -3.3000    5.1060 C   0  0  0  0  0  0  0  0  0  0  0  0
    2.3410   -2.1290    4.2350 C   0  0  0  0  0  0  0  0  0  0  0  0
    1.0060   -1.4440    3.9970 C   0  0  1  0  0  0  0  0  0  0  0  0
    1.0960   -0.5710    2.7930 C   0  0  0  0  0  0  0  0  0  0  0  0
    1.7820    0.4740    2.8430 O   0  0  0  0  0  0  0  0  0  0  0  0
   -0.8390   -2.3810    3.8000 H   0  0  0  0  0  0  0  0  0  0  0  0
    0.5440   -4.6290    4.1630 H   0  0  0  0  0  0  0  0  0  0  0  0
   -0.1430   -3.6700    5.4910 H   0  0  0  0  0  0  0  0  0  0  0  0
    1.9870   -2.9510    6.1580 H   0  0  0  0  0  0  0  0  0  0  0  0
    2.6610   -4.1370    4.9660 H   0  0  0  0  0  0  0  0  0  0  0  0
    3.0730   -1.4720    4.7190 H   0  0  0  0  0  0  0  0  0  0  0  0
    2.7350   -2.5740    3.2830 H   0  0  0  0  0  0  0  0  0  0  0  0
    0.7140   -0.9150    4.9030 H   0  0  0  0  0  0  0  0  0  0  0  0
    1.8230    2.4840   -5.3240 O   0  0  0  0  0  0  0  0  0  0  0  0
    1.6890    1.7130   -4.1950 C   0  0  0  0  0  0  0  0  0  0  0  0
    2.6510    1.7740   -3.2080 C   0  0  0  0  0  0  0  0  0  0  0  0
    2.5490    1.0200   -2.0720 C   0  0  0  0  0  0  0  0  0  0  0  0
    1.4490    0.1700   -1.9050 C   0  0  0  0  0  0  0  0  0  0  0  0
    1.2910   -0.6700   -0.7090 C   0  0  0  0  0  0  0  0  0  0  0  0
    0.5580    0.0320    0.4200 C   0  0  2  0  0  0  0  0  0  0  0  0
    0.4370   -0.8620    1.5770 N   0  0  0  0  0  0  0  0  0  0  0  0
   -0.7340    0.6010    0.0360 C   0  0  0  0  0  0  0  0  0  0  0  0
   -0.8710    1.4090   -0.9140 O   0  0  0  0  0  0  0  0  0  0  0  0
    0.4940    0.1240   -2.9100 C   0  0  0  0  0  0  0  0  0  0  0  0
    0.5900    0.8800   -4.0570 C   0  0  0  0  0  0  0  0  0  0  0  0
    1.0490    2.9050   -5.8240 H   0  0  0  0  0  0  0  0  0  0  0  0
    3.5060    2.4390   -3.3450 H   0  0  0  0  0  0  0  0  0  0  0  0
    3.2840    1.0380   -1.2680 H   0  0  0  0  0  0  0  0  0  0  0  0
    0.7380   -1.6000   -0.9520 H   0  0  0  0  0  0  0  0  0  0  0  0
    2.2980   -0.9910   -0.3720 H   0  0  0  0  0  0  0  0  0  0  0  0
    1.2140    0.8740    0.7270 H   0  0  0  0  0  0  0  0  0  0  0  0
   -0.1390   -1.7330    1.5260 H   0  0  0  0  0  0  0  0  0  0  0  0
   -0.3620   -0.5400   -2.7780 H   0  0  0  0  0  0  0  0  0  0  0  0
   -0.1850    0.8160   -4.8260 H   0  0  0  0  0  0  0  0  0  0  0  0
   -1.9600    0.2730    0.7250 N   0  0  0  0  0  0  0  0  0  0  0  0
   -3.2270    0.8490    0.3250 C   0  0  0  0  0  0  0  0  0  0  0  0
   -4.2830    0.3400    1.1940 C   0  0  0  0  0  0  0  0  0  0  0  0
   -5.4590    0.7130    1.0200 O   0  0  0  0  0  0  0  0  0  0  0  0
   -3.9790   -0.5530    2.2070 O   0  0  0  0  0  0  0  0  0  0  0  0
   -1.8700   -0.4020    1.5230 H   0  0  0  0  0  0  0  0  0  0  0  0
   -3.4830    0.5270   -0.7260 H   0  0  0  0  0  0  0  0  0  0  0  0
   -3.1580    1.9570    0.2980 H   0  0  0  0  0  0  0  0  0  0  0  0
  1  8  1  0  0  0  0
  1  5  1  0  0  0  0
  1  2  1  0  0  0  0
  2  3  1  0  0  0  0
  2 10  1  0  0  0  0
  3 11  1  0  0  0  0
  4 13  1  0  0  0  0
  4  3  1  0  0  0  0
  5  4  1  0  0  0  0
  5 15  1  1  0  0  0
  6  7  2  0  0  0  0
  6  5  1  0  0  0  0
  9  2  1  0  0  0  0
 12  3  1  0  0  0  0
 14  4  1  0  0  0  0
 16 17  1  0  0  0  0
 17 27  2  0  0  0  0
 17 18  1  0  0  0  0
 18 19  2  0  0  0  0
 19 20  1  0  0  0  0
 19 30  1  0  0  0  0
 20 21  1  0  0  0  0
 21 32  1  0  0  0  0
 21 22  1  0  0  0  0
 22 33  1  1  0  0  0
 22 23  1  0  0  0  0
 23  6  1  0  0  0  0
 24 22  1  0  0  0  0
 24 37  1  0  0  0  0
 25 24  2  0  0  0  0
 26 35  1  0  0  0  0
 26 20  2  0  0  0  0
 27 26  1  0  0  0  0
 28 16  1  0  0  0  0
 29 18  1  0  0  0  0
 31 21  1  0  0  0  0
 34 23  1  0  0  0  0
 36 27  1  0  0  0  0
 37 42  1  0  0  0  0
 38 37  1  0  0  0  0
 38 39  1  0  0  0  0
 39 41  1  0  0  0  0
 40 39  2  0  0  0  0
 43 38  1  0  0  0  0
 44 38  1  0  0  0  0
M  END
$$$$
