PYM.pdb
 OpenBabel07022419063D

 54 55  0  0  1  0  0  0  0  0999 V2000
    3.3580   -3.0340   -0.1010 N   0  0  0  0  0  0  0  0  0  0  0  0
    3.7780   -3.3100   -1.4620 C   0  0  0  0  0  0  0  0  0  0  0  0
    5.2030   -2.7990   -1.4560 C   0  0  0  0  0  0  0  0  0  0  0  0
    5.0270   -1.4640   -0.7440 C   0  0  0  0  0  0  0  0  0  0  0  0
    3.9890   -1.8230    0.3220 C   0  0  1  0  0  0  0  0  0  0  0  0
    3.0350   -0.6840    0.3590 C   0  0  0  0  0  0  0  0  0  0  0  0
    3.4350    0.4510    0.7080 O   0  0  0  0  0  0  0  0  0  0  0  0
    3.5740   -3.8640    0.4730 H   0  0  0  0  0  0  0  0  0  0  0  0
    3.7230   -4.3870   -1.6730 H   0  0  0  0  0  0  0  0  0  0  0  0
    3.2010   -2.6990   -2.1990 H   0  0  0  0  0  0  0  0  0  0  0  0
    5.6090   -2.6790   -2.4750 H   0  0  0  0  0  0  0  0  0  0  0  0
    5.7940   -3.4660   -0.8170 H   0  0  0  0  0  0  0  0  0  0  0  0
    4.6110   -0.7200   -1.4720 H   0  0  0  0  0  0  0  0  0  0  0  0
    5.9560   -1.1080   -0.2860 H   0  0  0  0  0  0  0  0  0  0  0  0
    4.4920   -1.9630    1.3140 H   0  0  0  0  0  0  0  0  0  0  0  0
   -3.4210    5.0510   -1.0770 O   0  0  0  0  0  0  0  0  0  0  0  0
   -2.5270    3.9750   -1.1290 C   0  0  0  0  0  0  0  0  0  0  0  0
   -1.1740    4.1580   -1.2940 C   0  0  0  0  0  0  0  0  0  0  0  0
   -0.3100    3.0890   -1.3430 C   0  0  0  0  0  0  0  0  0  0  0  0
   -0.7410    1.7820   -1.2310 C   0  0  0  0  0  0  0  0  0  0  0  0
    0.1890    0.6340   -1.3020 C   0  0  0  0  0  0  0  0  0  0  0  0
    0.7360    0.3360    0.0540 C   0  0  2  0  0  0  0  0  0  0  0  0
    1.6630   -0.8020    0.0140 N   0  0  0  0  0  0  0  0  0  0  0  0
   -0.2750    0.1460    1.1120 C   0  0  0  0  0  0  0  0  0  0  0  0
   -1.1410    1.0100    1.3920 O   0  0  0  0  0  0  0  0  0  0  0  0
   -2.1150    1.6090   -1.0650 C   0  0  0  0  0  0  0  0  0  0  0  0
   -2.9850    2.6790   -1.0150 C   0  0  0  0  0  0  0  0  0  0  0  0
   -4.2900    4.9860   -0.5340 H   0  0  0  0  0  0  0  0  0  0  0  0
   -0.7930    5.1600   -1.3860 H   0  0  0  0  0  0  0  0  0  0  0  0
    0.7760    3.2180   -1.4750 H   0  0  0  0  0  0  0  0  0  0  0  0
    1.0320    0.8170   -1.9990 H   0  0  0  0  0  0  0  0  0  0  0  0
   -0.3580   -0.2390   -1.7100 H   0  0  0  0  0  0  0  0  0  0  0  0
    1.3520    1.2140    0.3710 H   0  0  0  0  0  0  0  0  0  0  0  0
    1.3200   -1.7400   -0.2760 H   0  0  0  0  0  0  0  0  0  0  0  0
   -2.4470    0.5710   -0.9790 H   0  0  0  0  0  0  0  0  0  0  0  0
   -4.0460    2.5170   -0.8850 H   0  0  0  0  0  0  0  0  0  0  0  0
   -5.5630   -3.4960    2.0500 C   0  0  0  0  0  0  0  0  0  0  0  0
   -4.1900   -3.3780    0.8820 S   0  0  0  0  0  0  0  0  0  0  0  0
   -3.0330   -2.0810    1.3110 C   0  0  0  0  0  0  0  0  0  0  0  0
   -2.2920   -2.3540    2.6010 C   0  0  0  0  0  0  0  0  0  0  0  0
   -1.3260   -1.2350    2.9310 C   0  0  2  0  0  0  0  0  0  0  0  0
   -0.3350   -1.0580    1.9000 N   0  0  0  0  0  0  0  0  0  0  0  0
   -0.7150   -1.4780    4.2580 C   0  0  0  0  0  0  0  0  0  0  0  0
    0.5360   -1.5000    4.3400 O   0  0  0  0  0  0  0  0  0  0  0  0
   -1.4450   -1.6830    5.4140 O   0  0  0  0  0  0  0  0  0  0  0  0
   -5.2860   -3.2120    3.0850 H   0  0  0  0  0  0  0  0  0  0  0  0
   -6.3250   -2.7500    1.7260 H   0  0  0  0  0  0  0  0  0  0  0  0
   -6.0630   -4.4850    2.0000 H   0  0  0  0  0  0  0  0  0  0  0  0
   -3.5650   -1.1170    1.4330 H   0  0  0  0  0  0  0  0  0  0  0  0
   -2.3050   -1.9590    0.4880 H   0  0  0  0  0  0  0  0  0  0  0  0
   -3.0480   -2.4170    3.4090 H   0  0  0  0  0  0  0  0  0  0  0  0
   -1.7410   -3.3110    2.5840 H   0  0  0  0  0  0  0  0  0  0  0  0
   -1.9220   -0.2820    2.9810 H   0  0  0  0  0  0  0  0  0  0  0  0
    0.3680   -1.7910    1.6930 H   0  0  0  0  0  0  0  0  0  0  0  0
  1  5  1  0  0  0  0
  1  8  1  0  0  0  0
  2  3  1  0  0  0  0
  2  1  1  0  0  0  0
  3 12  1  0  0  0  0
  3  4  1  0  0  0  0
  4 14  1  0  0  0  0
  4  5  1  0  0  0  0
  5  6  1  0  0  0  0
  5 15  1  1  0  0  0
  6  7  2  0  0  0  0
  9  2  1  0  0  0  0
 10  2  1  0  0  0  0
 11  3  1  0  0  0  0
 13  4  1  0  0  0  0
 16 28  1  0  0  0  0
 17 16  1  0  0  0  0
 17 27  1  0  0  0  0
 18 17  2  0  0  0  0
 19 18  1  0  0  0  0
 19 20  2  0  0  0  0
 20 26  1  0  0  0  0
 21 20  1  0  0  0  0
 21 22  1  0  0  0  0
 22 33  1  1  0  0  0
 22 24  1  0  0  0  0
 23 22  1  0  0  0  0
 23  6  1  0  0  0  0
 24 25  2  0  0  0  0
 24 42  1  0  0  0  0
 26 27  2  0  0  0  0
 26 35  1  0  0  0  0
 27 36  1  0  0  0  0
 29 18  1  0  0  0  0
 30 19  1  0  0  0  0
 31 21  1  0  0  0  0
 32 21  1  0  0  0  0
 34 23  1  0  0  0  0
 37 46  1  0  0  0  0
 38 39  1  0  0  0  0
 38 37  1  0  0  0  0
 39 49  1  0  0  0  0
 39 40  1  0  0  0  0
 40 41  1  0  0  0  0
 40 51  1  0  0  0  0
 41 53  1  1  0  0  0
 41 43  1  0  0  0  0
 42 41  1  0  0  0  0
 43 44  2  0  0  0  0
 43 45  1  0  0  0  0
 47 37  1  0  0  0  0
 48 37  1  0  0  0  0
 50 39  1  0  0  0  0
 52 40  1  0  0  0  0
 54 42  1  0  0  0  0
M  END
$$$$
