PYP.pdb
 OpenBabel07022419063D

 51 53  0  0  1  0  0  0  0  0999 V2000
    3.8470   -4.2200    1.6900 N   0  0  0  0  0  0  0  0  0  0  0  0
    3.8000   -5.5280    2.3140 C   0  0  0  0  0  0  0  0  0  0  0  0
    2.3390   -5.7040    2.6420 C   0  0  0  0  0  0  0  0  0  0  0  0
    1.6470   -5.0660    1.4720 C   0  0  0  0  0  0  0  0  0  0  0  0
    2.6390   -4.1150    0.8960 C   0  0  1  0  0  0  0  0  0  0  0  0
    2.1810   -2.7050    0.8990 C   0  0  0  0  0  0  0  0  0  0  0  0
    2.7700   -1.7950    1.5190 O   0  0  0  0  0  0  0  0  0  0  0  0
    3.8770   -3.4650    2.4080 H   0  0  0  0  0  0  0  0  0  0  0  0
    4.4380   -5.5640    3.2230 H   0  0  0  0  0  0  0  0  0  0  0  0
    4.0590   -6.3060    1.5740 H   0  0  0  0  0  0  0  0  0  0  0  0
    2.0610   -6.7720    2.7620 H   0  0  0  0  0  0  0  0  0  0  0  0
    2.1210   -5.1050    3.5460 H   0  0  0  0  0  0  0  0  0  0  0  0
    1.3230   -5.8540    0.7370 H   0  0  0  0  0  0  0  0  0  0  0  0
    0.7210   -4.5770    1.8470 H   0  0  0  0  0  0  0  0  0  0  0  0
    2.7870   -4.3930   -0.1690 H   0  0  0  0  0  0  0  0  0  0  0  0
   -0.9460    4.7860   -2.4360 O   0  0  0  0  0  0  0  0  0  0  0  0
   -0.5510    3.4970   -2.1540 C   0  0  0  0  0  0  0  0  0  0  0  0
   -1.3750    2.4100   -2.4260 C   0  0  0  0  0  0  0  0  0  0  0  0
   -0.9380    1.1390   -2.1280 C   0  0  0  0  0  0  0  0  0  0  0  0
    0.3050    0.8870   -1.5590 C   0  0  0  0  0  0  0  0  0  0  0  0
    0.7360   -0.4720   -1.2700 C   0  0  0  0  0  0  0  0  0  0  0  0
    0.5100   -0.9680    0.1280 C   0  0  2  0  0  0  0  0  0  0  0  0
    1.0250   -2.3810    0.1640 N   0  0  0  0  0  0  0  0  0  0  0  0
   -0.8660   -1.0670    0.5860 C   0  0  0  0  0  0  0  0  0  0  0  0
   -1.4760   -2.2080    0.5620 O   0  0  0  0  0  0  0  0  0  0  0  0
    1.0990    1.9820   -1.3010 C   0  0  0  0  0  0  0  0  0  0  0  0
    0.6850    3.2640   -1.5900 C   0  0  0  0  0  0  0  0  0  0  0  0
   -0.7620    5.5710   -1.8190 H   0  0  0  0  0  0  0  0  0  0  0  0
   -2.3330    2.6380   -2.8690 H   0  0  0  0  0  0  0  0  0  0  0  0
   -1.5640    0.2990   -2.3340 H   0  0  0  0  0  0  0  0  0  0  0  0
    1.8660   -0.4650   -1.3950 H   0  0  0  0  0  0  0  0  0  0  0  0
    0.3230   -1.1860   -2.0300 H   0  0  0  0  0  0  0  0  0  0  0  0
    1.2030   -0.4100    0.7830 H   0  0  0  0  0  0  0  0  0  0  0  0
    0.4510   -3.0420   -0.3900 H   0  0  0  0  0  0  0  0  0  0  0  0
    2.0760    1.8580   -0.8600 H   0  0  0  0  0  0  0  0  0  0  0  0
    1.3250    4.1320   -1.3800 H   0  0  0  0  0  0  0  0  0  0  0  0
   -1.5740    0.0590    1.0740 N   0  0  0  0  0  0  0  0  0  0  0  0
   -1.1080    1.4150    1.2150 C   0  0  0  0  0  0  0  0  0  0  0  0
   -1.6380    1.7960    2.6210 C   0  0  0  0  0  0  0  0  0  0  0  0
   -2.6880    0.7580    2.9500 C   0  0  0  0  0  0  0  0  0  0  0  0
   -2.9300    0.1130    1.5900 C   0  0  1  0  0  0  0  0  0  0  0  0
   -3.8890    0.8440    0.7880 C   0  0  0  0  0  0  0  0  0  0  0  0
   -3.5630    1.3990   -0.2760 O   0  0  0  0  0  0  0  0  0  0  0  0
   -5.2030    0.9290    1.2100 O   0  0  0  0  0  0  0  0  0  0  0  0
   -1.4890    2.1270    0.4780 H   0  0  0  0  0  0  0  0  0  0  0  0
   -0.0090    1.3730    1.2970 H   0  0  0  0  0  0  0  0  0  0  0  0
   -2.0140    2.8260    2.6360 H   0  0  0  0  0  0  0  0  0  0  0  0
   -0.8140    1.6350    3.3730 H   0  0  0  0  0  0  0  0  0  0  0  0
   -2.3560    0.0200    3.6850 H   0  0  0  0  0  0  0  0  0  0  0  0
   -3.5920    1.2990    3.2760 H   0  0  0  0  0  0  0  0  0  0  0  0
   -3.2310   -0.9380    1.7850 H   0  0  0  0  0  0  0  0  0  0  0  0
  1  2  1  0  0  0  0
  1  8  1  0  0  0  0
  2  3  1  0  0  0  0
  2  9  1  0  0  0  0
  3 11  1  0  0  0  0
  3 12  1  0  0  0  0
  4 14  1  0  0  0  0
  4  3  1  0  0  0  0
  5 15  1  6  0  0  0
  5  6  1  0  0  0  0
  5  4  1  0  0  0  0
  5  1  1  0  0  0  0
  6  7  2  0  0  0  0
 10  2  1  0  0  0  0
 13  4  1  0  0  0  0
 16 17  1  0  0  0  0
 16 28  1  0  0  0  0
 17 27  1  0  0  0  0
 18 17  2  0  0  0  0
 18 19  1  0  0  0  0
 19 20  2  0  0  0  0
 20 26  1  0  0  0  0
 20 21  1  0  0  0  0
 21 22  1  0  0  0  0
 22 23  1  0  0  0  0
 22 24  1  0  0  0  0
 22 33  1  1  0  0  0
 23  6  1  0  0  0  0
 24 37  1  0  0  0  0
 25 24  2  0  0  0  0
 26 35  1  0  0  0  0
 27 36  1  0  0  0  0
 27 26  2  0  0  0  0
 29 18  1  0  0  0  0
 30 19  1  0  0  0  0
 31 21  1  0  0  0  0
 32 21  1  0  0  0  0
 34 23  1  0  0  0  0
 37 38  1  0  0  0  0
 37 41  1  0  0  0  0
 38 46  1  0  0  0  0
 38 39  1  0  0  0  0
 39 47  1  0  0  0  0
 39 40  1  0  0  0  0
 39 48  1  0  0  0  0
 40 50  1  0  0  0  0
 40 49  1  0  0  0  0
 41 51  1  1  0  0  0
 41 40  1  0  0  0  0
 42 44  1  0  0  0  0
 42 41  1  0  0  0  0
 43 42  2  0  0  0  0
 45 38  1  0  0  0  0
M  END
$$$$
