PYS.pdb
 OpenBabel07022419063D

 48 49  0  0  1  0  0  0  0  0999 V2000
    2.2540   -2.9490    2.2290 N   0  0  0  0  0  0  0  0  0  0  0  0
    2.8770   -4.1590    2.7850 C   0  0  0  0  0  0  0  0  0  0  0  0
    1.7600   -5.1680    2.9120 C   0  0  0  0  0  0  0  0  0  0  0  0
    0.5950   -4.5370    2.1660 C   0  0  0  0  0  0  0  0  0  0  0  0
    1.3210   -3.5360    1.2850 C   0  0  1  0  0  0  0  0  0  0  0  0
    0.3910   -2.5260    0.7130 C   0  0  0  0  0  0  0  0  0  0  0  0
   -0.4500   -2.9340   -0.1120 O   0  0  0  0  0  0  0  0  0  0  0  0
    2.9520   -2.3470    1.7650 H   0  0  0  0  0  0  0  0  0  0  0  0
    3.6350   -4.4690    2.0400 H   0  0  0  0  0  0  0  0  0  0  0  0
    3.3800   -3.9470    3.7490 H   0  0  0  0  0  0  0  0  0  0  0  0
    2.0420   -6.0730    2.3410 H   0  0  0  0  0  0  0  0  0  0  0  0
    1.4960   -5.3930    3.9650 H   0  0  0  0  0  0  0  0  0  0  0  0
    0.0350   -5.2800    1.5750 H   0  0  0  0  0  0  0  0  0  0  0  0
   -0.0240   -4.0280    2.9250 H   0  0  0  0  0  0  0  0  0  0  0  0
    1.8870   -4.0720    0.5150 H   0  0  0  0  0  0  0  0  0  0  0  0
    5.0700    2.8600    0.8280 O   0  0  0  0  0  0  0  0  0  0  0  0
    3.8680    2.2890    0.4730 C   0  0  0  0  0  0  0  0  0  0  0  0
    2.7080    3.0230    0.6370 C   0  0  0  0  0  0  0  0  0  0  0  0
    1.4930    2.4760    0.2900 C   0  0  0  0  0  0  0  0  0  0  0  0
    1.4200    1.1880   -0.2270 C   0  0  0  0  0  0  0  0  0  0  0  0
    0.1090    0.5770   -0.6110 C   0  0  0  0  0  0  0  0  0  0  0  0
   -0.4170   -0.1200    0.5850 C   0  0  2  0  0  0  0  0  0  0  0  0
    0.4510   -1.1610    1.0790 N   0  0  0  0  0  0  0  0  0  0  0  0
   -1.8550   -0.5040    0.5260 C   0  0  0  0  0  0  0  0  0  0  0  0
   -2.2910   -1.6250    0.9300 O   0  0  0  0  0  0  0  0  0  0  0  0
    2.5840    0.4660   -0.3870 C   0  0  0  0  0  0  0  0  0  0  0  0
    3.8020    1.0100   -0.0400 C   0  0  0  0  0  0  0  0  0  0  0  0
    5.8180    2.2810    1.1850 H   0  0  0  0  0  0  0  0  0  0  0  0
    2.7880    4.0390    1.0480 H   0  0  0  0  0  0  0  0  0  0  0  0
    0.5710    3.0520    0.4180 H   0  0  0  0  0  0  0  0  0  0  0  0
    0.2290   -0.0460   -1.5030 H   0  0  0  0  0  0  0  0  0  0  0  0
   -0.5450    1.4290   -0.8710 H   0  0  0  0  0  0  0  0  0  0  0  0
   -0.4250    0.6530    1.4370 H   0  0  0  0  0  0  0  0  0  0  0  0
    1.2270   -0.9270    1.7890 H   0  0  0  0  0  0  0  0  0  0  0  0
    2.5640   -0.5390   -0.7870 H   0  0  0  0  0  0  0  0  0  0  0  0
    4.7220    0.4310   -0.1700 H   0  0  0  0  0  0  0  0  0  0  0  0
   -4.8770    2.3490    0.4560 O   0  0  0  0  0  0  0  0  0  0  0  0
   -5.0010    1.0190    0.8180 C   0  0  0  0  0  0  0  0  0  0  0  0
   -4.1850    0.1010   -0.0860 C   0  0  2  0  0  0  0  0  0  0  0  0
   -2.7690    0.4520   -0.0150 N   0  0  0  0  0  0  0  0  0  0  0  0
   -4.6770    0.2100   -1.4790 C   0  0  0  0  0  0  0  0  0  0  0  0
   -5.8620   -0.0500   -1.7400 O   0  0  0  0  0  0  0  0  0  0  0  0
   -3.7820    0.6060   -2.4610 O   0  0  0  0  0  0  0  0  0  0  0  0
   -4.6080    2.9270    1.2270 H   0  0  0  0  0  0  0  0  0  0  0  0
   -6.0700    0.7270    0.6400 H   0  0  0  0  0  0  0  0  0  0  0  0
   -4.7320    0.9080    1.8660 H   0  0  0  0  0  0  0  0  0  0  0  0
   -4.3420   -0.9240    0.3180 H   0  0  0  0  0  0  0  0  0  0  0  0
   -2.4570    1.3810   -0.3520 H   0  0  0  0  0  0  0  0  0  0  0  0
  1  2  1  0  0  0  0
  2  3  1  0  0  0  0
  2 10  1  0  0  0  0
  3 12  1  0  0  0  0
  4  3  1  0  0  0  0
  4 14  1  0  0  0  0
  5 15  1  6  0  0  0
  5  4  1  0  0  0  0
  5  1  1  0  0  0  0
  6 23  1  0  0  0  0
  6  5  1  0  0  0  0
  7  6  2  0  0  0  0
  8  1  1  0  0  0  0
  9  2  1  0  0  0  0
 11  3  1  0  0  0  0
 13  4  1  0  0  0  0
 16 28  1  0  0  0  0
 17 18  1  0  0  0  0
 17 16  1  0  0  0  0
 18 29  1  0  0  0  0
 19 30  1  0  0  0  0
 19 18  2  0  0  0  0
 20 19  1  0  0  0  0
 21 20  1  0  0  0  0
 21 22  1  0  0  0  0
 22 23  1  0  0  0  0
 22 33  1  1  0  0  0
 23 34  1  0  0  0  0
 24 22  1  0  0  0  0
 24 25  2  0  0  0  0
 26 20  2  0  0  0  0
 26 27  1  0  0  0  0
 27 17  2  0  0  0  0
 31 21  1  0  0  0  0
 32 21  1  0  0  0  0
 35 26  1  0  0  0  0
 36 27  1  0  0  0  0
 37 38  1  0  0  0  0
 37 44  1  0  0  0  0
 38 46  1  0  0  0  0
 39 40  1  0  0  0  0
 39 47  1  1  0  0  0
 39 38  1  0  0  0  0
 40 24  1  0  0  0  0
 41 39  1  0  0  0  0
 42 41  1  0  0  0  0
 43 41  2  0  0  0  0
 45 38  1  0  0  0  0
 48 40  1  0  0  0  0
M  END
$$$$
