PYV.pdb
 OpenBabel07022419063D

 53 54  0  0  1  0  0  0  0  0999 V2000
   -1.8040    0.5410    4.9150 N   0  0  0  0  0  0  0  0  0  0  0  0
   -1.7830   -0.5940    5.8200 C   0  0  0  0  0  0  0  0  0  0  0  0
   -1.6340   -1.8320    4.9580 C   0  0  0  0  0  0  0  0  0  0  0  0
   -1.5560   -1.2800    3.5470 C   0  0  0  0  0  0  0  0  0  0  0  0
   -0.9710    0.1050    3.8390 C   0  0  1  0  0  0  0  0  0  0  0  0
   -0.9930    0.9700    2.6610 C   0  0  0  0  0  0  0  0  0  0  0  0
   -1.6950    2.0000    2.6340 O   0  0  0  0  0  0  0  0  0  0  0  0
   -1.4780    1.3900    5.4000 H   0  0  0  0  0  0  0  0  0  0  0  0
   -2.7280   -0.6800    6.3960 H   0  0  0  0  0  0  0  0  0  0  0  0
   -0.9130   -0.4770    6.4800 H   0  0  0  0  0  0  0  0  0  0  0  0
   -2.4500   -2.5480    5.0880 H   0  0  0  0  0  0  0  0  0  0  0  0
   -0.6400   -2.2950    5.1640 H   0  0  0  0  0  0  0  0  0  0  0  0
   -2.5860   -1.2180    3.1610 H   0  0  0  0  0  0  0  0  0  0  0  0
   -0.8820   -1.8710    2.9040 H   0  0  0  0  0  0  0  0  0  0  0  0
    0.0470   -0.0840    4.2340 H   0  0  0  0  0  0  0  0  0  0  0  0
    5.3810   -1.7500   -0.7580 O   0  0  0  0  0  0  0  0  0  0  0  0
    4.3650   -0.8330   -0.5000 C   0  0  0  0  0  0  0  0  0  0  0  0
    3.6010   -0.4030   -1.5570 C   0  0  0  0  0  0  0  0  0  0  0  0
    2.5690    0.5130   -1.3680 C   0  0  0  0  0  0  0  0  0  0  0  0
    2.2850    1.0150   -0.1140 C   0  0  0  0  0  0  0  0  0  0  0  0
    1.1960    1.9680    0.0330 C   0  0  0  0  0  0  0  0  0  0  0  0
   -0.1460    1.4040    0.3250 C   0  0  2  0  0  0  0  0  0  0  0  0
   -0.2140    0.6400    1.5430 N   0  0  0  0  0  0  0  0  0  0  0  0
   -0.6580    0.6980   -0.8590 C   0  0  0  0  0  0  0  0  0  0  0  0
   -0.6480    1.3140   -1.9590 O   0  0  0  0  0  0  0  0  0  0  0  0
    3.0780    0.5560    0.9180 C   0  0  0  0  0  0  0  0  0  0  0  0
    4.0960   -0.3430    0.7570 C   0  0  0  0  0  0  0  0  0  0  0  0
    6.3520   -1.4940   -0.7510 H   0  0  0  0  0  0  0  0  0  0  0  0
    3.7790   -0.7610   -2.5550 H   0  0  0  0  0  0  0  0  0  0  0  0
    2.0160    0.8020   -2.2510 H   0  0  0  0  0  0  0  0  0  0  0  0
    1.1120    2.5420   -0.9260 H   0  0  0  0  0  0  0  0  0  0  0  0
    1.4970    2.7620    0.7810 H   0  0  0  0  0  0  0  0  0  0  0  0
   -0.8350    2.2860    0.4820 H   0  0  0  0  0  0  0  0  0  0  0  0
    0.3660   -0.2260    1.5860 H   0  0  0  0  0  0  0  0  0  0  0  0
    2.8850    0.9270    1.9110 H   0  0  0  0  0  0  0  0  0  0  0  0
    4.7150   -0.7000    1.5660 H   0  0  0  0  0  0  0  0  0  0  0  0
   -0.7890   -3.4470   -1.3450 C   0  0  0  0  0  0  0  0  0  0  0  0
   -0.7620   -2.4040   -2.4100 C   0  0  0  0  0  0  0  0  0  0  0  0
   -1.0870   -2.9270   -3.7820 C   0  0  0  0  0  0  0  0  0  0  0  0
   -1.6380   -1.2110   -2.0950 C   0  0  2  0  0  0  0  0  0  0  0  0
   -1.1600   -0.6190   -0.8610 N   0  0  0  0  0  0  0  0  0  0  0  0
   -3.0710   -1.5840   -1.9980 C   0  0  0  0  0  0  0  0  0  0  0  0
   -3.7090   -2.1110   -2.9310 O   0  0  0  0  0  0  0  0  0  0  0  0
   -3.7520   -1.3410   -0.8110 O   0  0  0  0  0  0  0  0  0  0  0  0
   -0.6050   -4.4460   -1.8090 H   0  0  0  0  0  0  0  0  0  0  0  0
   -1.7470   -3.4050   -0.7880 H   0  0  0  0  0  0  0  0  0  0  0  0
    0.0350   -3.2600   -0.6290 H   0  0  0  0  0  0  0  0  0  0  0  0
    0.2870   -1.9920   -2.4750 H   0  0  0  0  0  0  0  0  0  0  0  0
   -1.1050   -2.0470   -4.4700 H   0  0  0  0  0  0  0  0  0  0  0  0
   -2.0370   -3.4550   -3.8570 H   0  0  0  0  0  0  0  0  0  0  0  0
   -0.2190   -3.5410   -4.1220 H   0  0  0  0  0  0  0  0  0  0  0  0
   -1.5480   -0.5130   -2.9530 H   0  0  0  0  0  0  0  0  0  0  0  0
   -1.1830   -1.1530    0.0180 H   0  0  0  0  0  0  0  0  0  0  0  0
  1  8  1  0  0  0  0
  1  2  1  0  0  0  0
  2  9  1  0  0  0  0
  2 10  1  0  0  0  0
  3 11  1  0  0  0  0
  3 12  1  0  0  0  0
  3  2  1  0  0  0  0
  4  5  1  0  0  0  0
  4  3  1  0  0  0  0
  5 15  1  1  0  0  0
  5  1  1  0  0  0  0
  6  5  1  0  0  0  0
  7  6  2  0  0  0  0
 13  4  1  0  0  0  0
 14  4  1  0  0  0  0
 16 28  1  0  0  0  0
 16 17  1  0  0  0  0
 17 27  1  0  0  0  0
 18 19  1  0  0  0  0
 18 17  2  0  0  0  0
 19 20  2  0  0  0  0
 20 21  1  0  0  0  0
 20 26  1  0  0  0  0
 21 22  1  0  0  0  0
 21 32  1  0  0  0  0
 22 33  1  1  0  0  0
 22 23  1  0  0  0  0
 23 34  1  0  0  0  0
 23  6  1  0  0  0  0
 24 22  1  0  0  0  0
 25 24  2  0  0  0  0
 26 35  1  0  0  0  0
 27 26  2  0  0  0  0
 27 36  1  0  0  0  0
 29 18  1  0  0  0  0
 30 19  1  0  0  0  0
 31 21  1  0  0  0  0
 37 46  1  0  0  0  0
 37 47  1  0  0  0  0
 38 40  1  0  0  0  0
 38 37  1  0  0  0  0
 39 38  1  0  0  0  0
 40 52  1  6  0  0  0
 40 42  1  0  0  0  0
 40 41  1  0  0  0  0
 41 24  1  0  0  0  0
 41 53  1  0  0  0  0
 42 44  1  0  0  0  0
 43 42  2  0  0  0  0
 45 37  1  0  0  0  0
 48 38  1  0  0  0  0
 49 39  1  0  0  0  0
 50 39  1  0  0  0  0
 51 39  1  0  0  0  0
M  END
$$$$
