QAC.pdb
 OpenBabel07022418303D

 40 39  0  0  1  0  0  0  0  0999 V2000
   -2.1890   -6.1160    0.2190 N   0  0  0  0  0  0  0  0  0  0  0  0
   -1.8100   -4.8330   -0.2580 C   0  0  0  0  0  0  0  0  0  0  0  0
   -2.5990   -3.8860   -0.0880 O   0  0  0  0  0  0  0  0  0  0  0  0
   -0.5200   -4.6490   -0.9340 C   0  0  0  0  0  0  0  0  0  0  0  0
   -0.0800   -3.2600   -1.1850 C   0  0  0  0  0  0  0  0  0  0  0  0
    0.1520   -2.3800   -0.0150 C   0  0  2  0  0  0  0  0  0  0  0  0
   -0.9410   -2.1270    0.8520 N   0  0  0  0  0  0  0  0  0  0  0  0
    0.7320   -1.1070   -0.5360 C   0  0  0  0  0  0  0  0  0  0  0  0
    1.7140   -1.1770   -1.3450 O   0  0  0  0  0  0  0  0  0  0  0  0
   -2.2190   -6.2900    1.2480 H   0  0  0  0  0  0  0  0  0  0  0  0
   -2.4480   -6.9180   -0.3960 H   0  0  0  0  0  0  0  0  0  0  0  0
    0.2980   -5.2400   -0.4480 H   0  0  0  0  0  0  0  0  0  0  0  0
   -0.6430   -5.1580   -1.9410 H   0  0  0  0  0  0  0  0  0  0  0  0
    0.9150   -3.3300   -1.7240 H   0  0  0  0  0  0  0  0  0  0  0  0
   -0.7520   -2.8040   -1.9520 H   0  0  0  0  0  0  0  0  0  0  0  0
    0.9700   -2.8580    0.5970 H   0  0  0  0  0  0  0  0  0  0  0  0
   -0.5990   -2.0020    1.8270 H   0  0  0  0  0  0  0  0  0  0  0  0
   -1.6080   -1.4140    0.5480 H   0  0  0  0  0  0  0  0  0  0  0  0
   -0.1070    2.2460   -1.4810 C   0  0  0  0  0  0  0  0  0  0  0  0
    0.8850    1.3800   -0.7460 C   0  0  2  0  0  0  0  0  0  0  0  0
    0.2860    0.1840   -0.2110 N   0  0  0  0  0  0  0  0  0  0  0  0
    1.4100    2.1750    0.3950 C   0  0  0  0  0  0  0  0  0  0  0  0
    1.9950    3.2900    0.2160 O   0  0  0  0  0  0  0  0  0  0  0  0
   -1.1130    2.2400   -1.0020 H   0  0  0  0  0  0  0  0  0  0  0  0
   -0.1560    1.9740   -2.5540 H   0  0  0  0  0  0  0  0  0  0  0  0
    0.2600    3.2920   -1.4090 H   0  0  0  0  0  0  0  0  0  0  0  0
    1.7120    1.1600   -1.4230 H   0  0  0  0  0  0  0  0  0  0  0  0
   -0.5110    0.2870    0.4450 H   0  0  0  0  0  0  0  0  0  0  0  0
    1.2950    1.7460    1.7540 N   0  0  0  0  0  0  0  0  0  0  0  0
    1.8120    2.5310    2.8530 C   0  0  1  0  0  0  0  0  0  0  0  0
    0.7250    2.8260    3.8730 C   0  0  0  0  0  0  0  0  0  0  0  0
    0.1190    1.2120    4.4900 S   0  0  0  0  0  0  0  0  0  0  0  0
    2.8480    1.7380    3.5450 C   0  0  0  0  0  0  0  0  0  0  0  0
    3.1140    0.5910    3.1190 O   0  0  0  0  0  0  0  0  0  0  0  0
    3.5540    2.1900    4.6500 O   0  0  0  0  0  0  0  0  0  0  0  0
    0.8160    0.8320    1.9030 H   0  0  0  0  0  0  0  0  0  0  0  0
    2.2850    3.4700    2.4870 H   0  0  0  0  0  0  0  0  0  0  0  0
   -0.0770    3.4390    3.4580 H   0  0  0  0  0  0  0  0  0  0  0  0
    1.1320    3.3490    4.7600 H   0  0  0  0  0  0  0  0  0  0  0  0
   -0.8690    0.7870    3.5840 H   0  0  0  0  0  0  0  0  0  0  0  0
  1 10  1  0  0  0  0
  2  3  2  0  0  0  0
  2  1  1  0  0  0  0
  4 12  1  0  0  0  0
  4  2  1  0  0  0  0
  5  4  1  0  0  0  0
  5  6  1  0  0  0  0
  6 16  1  1  0  0  0
  6  7  1  0  0  0  0
  7 17  1  0  0  0  0
  8 21  1  0  0  0  0
  8  6  1  0  0  0  0
  9  8  2  0  0  0  0
 11  1  1  0  0  0  0
 13  4  1  0  0  0  0
 14  5  1  0  0  0  0
 15  5  1  0  0  0  0
 18  7  1  0  0  0  0
 19 26  1  0  0  0  0
 19 24  1  0  0  0  0
 19 20  1  0  0  0  0
 20 27  1  6  0  0  0
 20 21  1  0  0  0  0
 20 22  1  0  0  0  0
 21 28  1  0  0  0  0
 22 29  1  0  0  0  0
 23 22  2  0  0  0  0
 25 19  1  0  0  0  0
 29 36  1  0  0  0  0
 29 30  1  0  0  0  0
 30 37  1  6  0  0  0
 30 33  1  0  0  0  0
 30 31  1  0  0  0  0
 31 32  1  0  0  0  0
 31 39  1  0  0  0  0
 33 35  1  0  0  0  0
 34 33  2  0  0  0  0
 38 31  1  0  0  0  0
 40 32  1  0  0  0  0
M  END
$$$$
