QAD.pdb
 OpenBabel07022418303D

 42 41  0  0  1  0  0  0  0  0999 V2000
    2.9260   -6.7270    2.1140 N   0  0  0  0  0  0  0  0  0  0  0  0
    2.5390   -5.3860    1.9220 C   0  0  0  0  0  0  0  0  0  0  0  0
    1.9950   -4.7480    2.8440 O   0  0  0  0  0  0  0  0  0  0  0  0
    2.7800   -4.7350    0.6240 C   0  0  0  0  0  0  0  0  0  0  0  0
    2.3100   -3.2880    0.6230 C   0  0  0  0  0  0  0  0  0  0  0  0
    2.6030   -2.7130   -0.7510 C   0  0  2  0  0  0  0  0  0  0  0  0
    4.0130   -2.7840   -1.0040 N   0  0  0  0  0  0  0  0  0  0  0  0
    2.0850   -1.3230   -0.8570 C   0  0  0  0  0  0  0  0  0  0  0  0
    2.9140   -0.4170   -1.1270 O   0  0  0  0  0  0  0  0  0  0  0  0
    3.1600   -7.1030    3.0780 H   0  0  0  0  0  0  0  0  0  0  0  0
    3.0040   -7.4230    1.3300 H   0  0  0  0  0  0  0  0  0  0  0  0
    2.1870   -5.3010   -0.1320 H   0  0  0  0  0  0  0  0  0  0  0  0
    3.8390   -4.8050    0.3220 H   0  0  0  0  0  0  0  0  0  0  0  0
    2.9160   -2.7630    1.3880 H   0  0  0  0  0  0  0  0  0  0  0  0
    1.2260   -3.2480    0.8340 H   0  0  0  0  0  0  0  0  0  0  0  0
    2.0620   -3.3270   -1.4950 H   0  0  0  0  0  0  0  0  0  0  0  0
    4.1820   -3.2600   -1.9070 H   0  0  0  0  0  0  0  0  0  0  0  0
    4.3550   -1.7860   -1.0900 H   0  0  0  0  0  0  0  0  0  0  0  0
   -0.6810    0.5240   -1.9750 C   0  0  0  0  0  0  0  0  0  0  0  0
    0.2330    0.3850   -0.7750 C   0  0  2  0  0  0  0  0  0  0  0  0
    0.7350   -0.9720   -0.6730 N   0  0  0  0  0  0  0  0  0  0  0  0
   -0.4630    0.7070    0.4910 C   0  0  0  0  0  0  0  0  0  0  0  0
   -0.5420   -0.1630    1.3930 O   0  0  0  0  0  0  0  0  0  0  0  0
   -1.4590    1.3020   -1.8270 H   0  0  0  0  0  0  0  0  0  0  0  0
   -1.2320   -0.4200   -2.1880 H   0  0  0  0  0  0  0  0  0  0  0  0
   -0.0810    0.7440   -2.8820 H   0  0  0  0  0  0  0  0  0  0  0  0
    1.1020    1.0440   -0.9880 H   0  0  0  0  0  0  0  0  0  0  0  0
    0.0620   -1.7640   -0.4450 H   0  0  0  0  0  0  0  0  0  0  0  0
   -1.0630    1.9740    0.7560 N   0  0  0  0  0  0  0  0  0  0  0  0
   -1.7440    2.2430    2.0280 C   0  0  1  0  0  0  0  0  0  0  0  0
   -1.2510    3.5120    2.6440 C   0  0  0  0  0  0  0  0  0  0  0  0
   -1.8960    3.7520    3.9390 C   0  0  0  0  0  0  0  0  0  0  0  0
   -2.6540    2.9270    4.4820 O   0  0  0  0  0  0  0  0  0  0  0  0
   -3.1760    2.4650    1.6130 C   0  0  0  0  0  0  0  0  0  0  0  0
   -3.5300    2.4150    0.3930 O   0  0  0  0  0  0  0  0  0  0  0  0
   -1.6550    4.9510    4.5960 O   0  0  0  0  0  0  0  0  0  0  0  0
   -4.1830    2.7310    2.5080 O   0  0  0  0  0  0  0  0  0  0  0  0
   -0.9830    2.6760   -0.0040 H   0  0  0  0  0  0  0  0  0  0  0  0
   -1.7520    1.3720    2.6960 H   0  0  0  0  0  0  0  0  0  0  0  0
   -1.5140    4.4110    2.0070 H   0  0  0  0  0  0  0  0  0  0  0  0
   -0.1410    3.5610    2.7050 H   0  0  0  0  0  0  0  0  0  0  0  0
   -2.2010    5.1760    5.4400 H   0  0  0  0  0  0  0  0  0  0  0  0
  1 10  1  0  0  0  0
  2  1  1  0  0  0  0
  2  3  2  0  0  0  0
  4  2  1  0  0  0  0
  5  4  1  0  0  0  0
  5 15  1  0  0  0  0
  5 14  1  0  0  0  0
  6 16  1  6  0  0  0
  6  5  1  0  0  0  0
  7  6  1  0  0  0  0
  8  6  1  0  0  0  0
  8 21  1  0  0  0  0
  9  8  2  0  0  0  0
 11  1  1  0  0  0  0
 12  4  1  0  0  0  0
 13  4  1  0  0  0  0
 17  7  1  0  0  0  0
 18  7  1  0  0  0  0
 19 24  1  0  0  0  0
 19 20  1  0  0  0  0
 20 27  1  6  0  0  0
 20 21  1  0  0  0  0
 20 22  1  0  0  0  0
 21 28  1  0  0  0  0
 22 29  1  0  0  0  0
 22 23  2  0  0  0  0
 25 19  1  0  0  0  0
 26 19  1  0  0  0  0
 29 30  1  0  0  0  0
 30 31  1  0  0  0  0
 30 39  1  1  0  0  0
 31 41  1  0  0  0  0
 31 32  1  0  0  0  0
 32 33  2  0  0  0  0
 32 36  1  0  0  0  0
 34 30  1  0  0  0  0
 34 37  1  0  0  0  0
 35 34  2  0  0  0  0
 36 42  1  0  0  0  0
 38 29  1  0  0  0  0
 40 31  1  0  0  0  0
M  END
$$$$
