QAF.pdb
 OpenBabel07022418303D

 49 49  0  0  1  0  0  0  0  0999 V2000
    2.3760   -1.7550    6.6820 N   0  0  0  0  0  0  0  0  0  0  0  0
    2.3990   -0.5510    5.9330 C   0  0  0  0  0  0  0  0  0  0  0  0
    2.9010    0.4640    6.4450 O   0  0  0  0  0  0  0  0  0  0  0  0
    1.8430   -0.4580    4.5580 C   0  0  0  0  0  0  0  0  0  0  0  0
    2.0100    0.9350    4.0170 C   0  0  0  0  0  0  0  0  0  0  0  0
    1.4410    1.0130    2.6120 C   0  0  2  0  0  0  0  0  0  0  0  0
    0.0410    0.6890    2.5840 N   0  0  0  0  0  0  0  0  0  0  0  0
    2.1670    0.1220    1.6810 C   0  0  0  0  0  0  0  0  0  0  0  0
    3.4150    0.1740    1.5190 O   0  0  0  0  0  0  0  0  0  0  0  0
    1.4340   -2.1150    6.9890 H   0  0  0  0  0  0  0  0  0  0  0  0
    3.2330   -2.2760    6.9290 H   0  0  0  0  0  0  0  0  0  0  0  0
    0.7650   -0.7130    4.6380 H   0  0  0  0  0  0  0  0  0  0  0  0
    2.3630   -1.2070    3.9100 H   0  0  0  0  0  0  0  0  0  0  0  0
    1.4120    1.6250    4.6470 H   0  0  0  0  0  0  0  0  0  0  0  0
    3.0870    1.1890    4.0340 H   0  0  0  0  0  0  0  0  0  0  0  0
    1.5300    2.0890    2.2670 H   0  0  0  0  0  0  0  0  0  0  0  0
   -0.1020   -0.3020    2.8540 H   0  0  0  0  0  0  0  0  0  0  0  0
   -0.3110    0.8560    1.6180 H   0  0  0  0  0  0  0  0  0  0  0  0
    1.9590   -3.1330    0.6000 C   0  0  0  0  0  0  0  0  0  0  0  0
    2.1180   -1.7290    0.0100 C   0  0  2  0  0  0  0  0  0  0  0  0
    1.4470   -0.8330    0.9350 N   0  0  0  0  0  0  0  0  0  0  0  0
    1.4700   -1.7140   -1.3210 C   0  0  0  0  0  0  0  0  0  0  0  0
    1.9780   -2.4660   -2.2220 O   0  0  0  0  0  0  0  0  0  0  0  0
    1.5990   -3.1060    1.6470 H   0  0  0  0  0  0  0  0  0  0  0  0
    2.9190   -3.6870    0.5980 H   0  0  0  0  0  0  0  0  0  0  0  0
    1.2170   -3.7330    0.0230 H   0  0  0  0  0  0  0  0  0  0  0  0
    3.1960   -1.5350   -0.0110 H   0  0  0  0  0  0  0  0  0  0  0  0
    0.4120   -0.9490    1.0010 H   0  0  0  0  0  0  0  0  0  0  0  0
    0.3330   -0.9270   -1.6530 N   0  0  0  0  0  0  0  0  0  0  0  0
   -0.2690   -0.9440   -2.9700 C   0  0  1  0  0  0  0  0  0  0  0  0
   -1.6580   -1.5010   -2.9650 C   0  0  0  0  0  0  0  0  0  0  0  0
   -2.6200   -0.7960   -2.1460 C   0  0  0  0  0  0  0  0  0  0  0  0
   -2.7690   -1.1850   -0.8300 C   0  0  0  0  0  0  0  0  0  0  0  0
   -3.6680   -0.5600    0.0160 C   0  0  0  0  0  0  0  0  0  0  0  0
   -4.4540    0.4860   -0.4400 C   0  0  0  0  0  0  0  0  0  0  0  0
   -4.3120    0.8770   -1.7410 C   0  0  0  0  0  0  0  0  0  0  0  0
   -3.4130    0.2510   -2.5860 C   0  0  0  0  0  0  0  0  0  0  0  0
   -0.1570    0.3490   -3.6590 C   0  0  0  0  0  0  0  0  0  0  0  0
   -0.6330    0.4740   -4.8020 O   0  0  0  0  0  0  0  0  0  0  0  0
    0.4770    1.3980   -3.0150 O   0  0  0  0  0  0  0  0  0  0  0  0
   -0.0530   -0.3240   -0.8830 H   0  0  0  0  0  0  0  0  0  0  0  0
    0.3480   -1.6700   -3.5760 H   0  0  0  0  0  0  0  0  0  0  0  0
   -2.0140   -1.5200   -4.0160 H   0  0  0  0  0  0  0  0  0  0  0  0
   -1.5930   -2.5580   -2.6320 H   0  0  0  0  0  0  0  0  0  0  0  0
   -2.1850   -2.0050   -0.3890 H   0  0  0  0  0  0  0  0  0  0  0  0
   -3.7610   -0.8910    1.0500 H   0  0  0  0  0  0  0  0  0  0  0  0
   -5.1430    0.9440    0.2610 H   0  0  0  0  0  0  0  0  0  0  0  0
   -4.9080    1.6840   -2.1200 H   0  0  0  0  0  0  0  0  0  0  0  0
   -3.2710    0.5300   -3.6220 H   0  0  0  0  0  0  0  0  0  0  0  0
  1 11  1  0  0  0  0
  1 10  1  0  0  0  0
  2  3  2  0  0  0  0
  2  1  1  0  0  0  0
  4 12  1  0  0  0  0
  4  2  1  0  0  0  0
  5 15  1  0  0  0  0
  5  4  1  0  0  0  0
  5 14  1  0  0  0  0
  6 16  1  6  0  0  0
  6  5  1  0  0  0  0
  7  6  1  0  0  0  0
  7 17  1  0  0  0  0
  8  6  1  0  0  0  0
  9  8  2  0  0  0  0
 13  4  1  0  0  0  0
 18  7  1  0  0  0  0
 19 24  1  0  0  0  0
 20 27  1  6  0  0  0
 20 19  1  0  0  0  0
 20 21  1  0  0  0  0
 21 28  1  0  0  0  0
 21  8  1  0  0  0  0
 22 20  1  0  0  0  0
 23 22  2  0  0  0  0
 25 19  1  0  0  0  0
 26 19  1  0  0  0  0
 29 22  1  0  0  0  0
 29 41  1  0  0  0  0
 30 42  1  6  0  0  0
 30 31  1  0  0  0  0
 30 29  1  0  0  0  0
 31 44  1  0  0  0  0
 31 32  1  0  0  0  0
 32 33  1  0  0  0  0
 33 45  1  0  0  0  0
 33 34  2  0  0  0  0
 34 46  1  0  0  0  0
 35 34  1  0  0  0  0
 35 47  1  0  0  0  0
 36 35  2  0  0  0  0
 37 32  2  0  0  0  0
 37 36  1  0  0  0  0
 38 40  1  0  0  0  0
 38 30  1  0  0  0  0
 39 38  2  0  0  0  0
 43 31  1  0  0  0  0
 48 36  1  0  0  0  0
 49 37  1  0  0  0  0
M  END
$$$$
