QAH.pdb
 OpenBabel07022418303D

 46 46  0  0  1  0  0  0  0  0999 V2000
    1.9500   -1.8370    5.1920 N   0  0  0  0  0  0  0  0  0  0  0  0
    2.8130   -1.6650    4.0830 C   0  0  0  0  0  0  0  0  0  0  0  0
    2.9040   -0.4960    3.5910 O   0  0  0  0  0  0  0  0  0  0  0  0
    3.5940   -2.7440    3.4920 C   0  0  0  0  0  0  0  0  0  0  0  0
    3.9230   -2.6210    2.0460 C   0  0  0  0  0  0  0  0  0  0  0  0
    2.8000   -2.6940    1.0710 C   0  0  2  0  0  0  0  0  0  0  0  0
    3.3740   -2.5040   -0.2670 N   0  0  0  0  0  0  0  0  0  0  0  0
    1.7160   -1.7850    1.3600 C   0  0  0  0  0  0  0  0  0  0  0  0
    0.8140   -2.0240    2.2380 O   0  0  0  0  0  0  0  0  0  0  0  0
    0.9990   -1.3940    5.1950 H   0  0  0  0  0  0  0  0  0  0  0  0
    2.2050   -2.3910    6.0280 H   0  0  0  0  0  0  0  0  0  0  0  0
    4.5870   -2.8530    4.0290 H   0  0  0  0  0  0  0  0  0  0  0  0
    3.0530   -3.7280    3.6120 H   0  0  0  0  0  0  0  0  0  0  0  0
    4.5920   -1.7450    1.8380 H   0  0  0  0  0  0  0  0  0  0  0  0
    4.5890   -3.5140    1.8090 H   0  0  0  0  0  0  0  0  0  0  0  0
    2.4670   -3.7700    1.0610 H   0  0  0  0  0  0  0  0  0  0  0  0
    3.7330   -3.3910   -0.6670 H   0  0  0  0  0  0  0  0  0  0  0  0
    4.0780   -1.7320   -0.2620 H   0  0  0  0  0  0  0  0  0  0  0  0
    1.0640    1.7550    1.3620 C   0  0  0  0  0  0  0  0  0  0  0  0
    0.4950    0.3920    0.9480 C   0  0  2  0  0  0  0  0  0  0  0  0
    1.5730   -0.5370    0.6770 N   0  0  0  0  0  0  0  0  0  0  0  0
   -0.3540    0.6070   -0.2590 C   0  0  0  0  0  0  0  0  0  0  0  0
   -0.1620    0.0590   -1.3590 O   0  0  0  0  0  0  0  0  0  0  0  0
    1.6140    2.2140    0.5150 H   0  0  0  0  0  0  0  0  0  0  0  0
    1.7950    1.5650    2.1520 H   0  0  0  0  0  0  0  0  0  0  0  0
    0.2840    2.4250    1.7160 H   0  0  0  0  0  0  0  0  0  0  0  0
   -0.1800    0.0220    1.7400 H   0  0  0  0  0  0  0  0  0  0  0  0
    2.2760   -0.2890   -0.0460 H   0  0  0  0  0  0  0  0  0  0  0  0
   -1.4520    1.5020   -0.1210 N   0  0  0  0  0  0  0  0  0  0  0  0
   -2.3350    1.7730   -1.2430 C   0  0  1  0  0  0  0  0  0  0  0  0
   -3.7260    1.2460   -0.8650 C   0  0  0  0  0  0  0  0  0  0  0  0
   -3.6570   -0.2240   -0.6000 C   0  0  0  0  0  0  0  0  0  0  0  0
   -3.8250   -1.2720   -1.4790 C   0  0  0  0  0  0  0  0  0  0  0  0
   -3.6860   -2.4510   -0.8490 N   0  0  0  0  0  0  0  0  0  0  0  0
   -3.4270   -2.1660    0.4390 C   0  0  0  0  0  0  0  0  0  0  0  0
   -3.4080   -0.8280    0.5990 N   0  0  0  0  0  0  0  0  0  0  0  0
   -2.4830    3.2250   -1.4510 C   0  0  0  0  0  0  0  0  0  0  0  0
   -3.1940    3.7060   -2.3600 O   0  0  0  0  0  0  0  0  0  0  0  0
   -1.8110    4.0940   -0.6090 O   0  0  0  0  0  0  0  0  0  0  0  0
   -1.6570    1.9900    0.7880 H   0  0  0  0  0  0  0  0  0  0  0  0
   -2.0480    1.2260   -2.1460 H   0  0  0  0  0  0  0  0  0  0  0  0
   -4.4760    1.5090   -1.6150 H   0  0  0  0  0  0  0  0  0  0  0  0
   -4.0270    1.7350    0.0880 H   0  0  0  0  0  0  0  0  0  0  0  0
   -4.0390   -1.1510   -2.5300 H   0  0  0  0  0  0  0  0  0  0  0  0
   -3.7570   -3.4130   -1.2450 H   0  0  0  0  0  0  0  0  0  0  0  0
   -3.2550   -2.8530    1.2560 H   0  0  0  0  0  0  0  0  0  0  0  0
  1 10  1  0  0  0  0
  1 11  1  0  0  0  0
  2  1  1  0  0  0  0
  3  2  2  0  0  0  0
  4 13  1  0  0  0  0
  4 12  1  0  0  0  0
  4  2  1  0  0  0  0
  5  4  1  0  0  0  0
  6 16  1  1  0  0  0
  6  8  1  0  0  0  0
  6  5  1  0  0  0  0
  7 18  1  0  0  0  0
  7  6  1  0  0  0  0
  8  9  2  0  0  0  0
 14  5  1  0  0  0  0
 15  5  1  0  0  0  0
 17  7  1  0  0  0  0
 19 26  1  0  0  0  0
 19 25  1  0  0  0  0
 20 19  1  0  0  0  0
 20 27  1  1  0  0  0
 21 20  1  0  0  0  0
 21  8  1  0  0  0  0
 22 29  1  0  0  0  0
 22 20  1  0  0  0  0
 23 22  2  0  0  0  0
 24 19  1  0  0  0  0
 28 21  1  0  0  0  0
 29 40  1  0  0  0  0
 30 41  1  6  0  0  0
 30 31  1  0  0  0  0
 30 29  1  0  0  0  0
 31 32  1  0  0  0  0
 31 43  1  0  0  0  0
 32 36  1  0  0  0  0
 33 34  1  0  0  0  0
 33 32  2  0  0  0  0
 34 35  1  0  0  0  0
 35 36  2  0  0  0  0
 35 46  1  0  0  0  0
 37 30  1  0  0  0  0
 37 39  1  0  0  0  0
 38 37  2  0  0  0  0
 42 31  1  0  0  0  0
 44 33  1  0  0  0  0
 45 34  1  0  0  0  0
M  END
$$$$
