QAM.pdb
 OpenBabel07022418303D

 46 45  0  0  1  0  0  0  0  0999 V2000
    0.4750   -5.3170   -4.0970 N   0  0  0  0  0  0  0  0  0  0  0  0
    0.5530   -4.1220   -3.3390 C   0  0  0  0  0  0  0  0  0  0  0  0
    1.0970   -3.1250   -3.8610 O   0  0  0  0  0  0  0  0  0  0  0  0
    0.0110   -4.0530   -1.9840 C   0  0  0  0  0  0  0  0  0  0  0  0
    0.3050   -2.7850   -1.2310 C   0  0  0  0  0  0  0  0  0  0  0  0
    1.7720   -2.5630   -1.0300 C   0  0  2  0  0  0  0  0  0  0  0  0
    2.3220   -3.6950   -0.2630 N   0  0  0  0  0  0  0  0  0  0  0  0
    2.0820   -1.3140   -0.3280 C   0  0  0  0  0  0  0  0  0  0  0  0
    2.7260   -1.3590    0.7460 O   0  0  0  0  0  0  0  0  0  0  0  0
   -0.1560   -5.4060   -4.9310 H   0  0  0  0  0  0  0  0  0  0  0  0
    1.0410   -6.1720   -3.8680 H   0  0  0  0  0  0  0  0  0  0  0  0
   -1.1130   -4.1740   -2.0440 H   0  0  0  0  0  0  0  0  0  0  0  0
    0.4140   -4.9070   -1.3780 H   0  0  0  0  0  0  0  0  0  0  0  0
   -0.2730   -2.7660   -0.2870 H   0  0  0  0  0  0  0  0  0  0  0  0
   -0.1370   -1.9520   -1.8500 H   0  0  0  0  0  0  0  0  0  0  0  0
    2.2860   -2.5990   -1.9920 H   0  0  0  0  0  0  0  0  0  0  0  0
    3.2970   -3.3810    0.0010 H   0  0  0  0  0  0  0  0  0  0  0  0
    2.4340   -4.4890   -0.9110 H   0  0  0  0  0  0  0  0  0  0  0  0
    2.8000    2.1020   -1.1010 C   0  0  0  0  0  0  0  0  0  0  0  0
    1.9410    1.2080   -0.1940 C   0  0  2  0  0  0  0  0  0  0  0  0
    1.6690   -0.0570   -0.8360 N   0  0  0  0  0  0  0  0  0  0  0  0
    0.6840    1.9810    0.0400 C   0  0  0  0  0  0  0  0  0  0  0  0
    0.7550    3.1000    0.5950 O   0  0  0  0  0  0  0  0  0  0  0  0
    3.7600    1.6460   -1.3430 H   0  0  0  0  0  0  0  0  0  0  0  0
    2.1960    2.3680   -2.0160 H   0  0  0  0  0  0  0  0  0  0  0  0
    2.9100    3.0610   -0.5510 H   0  0  0  0  0  0  0  0  0  0  0  0
    2.5020    1.0630    0.7330 H   0  0  0  0  0  0  0  0  0  0  0  0
    1.1310   -0.0730   -1.7420 H   0  0  0  0  0  0  0  0  0  0  0  0
   -5.5540    0.6840   -1.4470 C   0  0  0  0  0  0  0  0  0  0  0  0
   -3.8530    0.0940   -1.5170 S   0  0  0  0  0  0  0  0  0  0  0  0
   -2.7100    1.2420   -2.2630 C   0  0  0  0  0  0  0  0  0  0  0  0
   -2.4440    2.4930   -1.4910 C   0  0  0  0  0  0  0  0  0  0  0  0
   -1.8310    2.2070   -0.1390 C   0  0  2  0  0  0  0  0  0  0  0  0
   -0.5890    1.4980   -0.3430 N   0  0  0  0  0  0  0  0  0  0  0  0
   -2.8240    1.4760    0.6720 C   0  0  0  0  0  0  0  0  0  0  0  0
   -2.6610    0.3150    1.1130 O   0  0  0  0  0  0  0  0  0  0  0  0
   -4.0210    2.1070    0.9750 O   0  0  0  0  0  0  0  0  0  0  0  0
   -5.5820    1.7850   -1.3240 H   0  0  0  0  0  0  0  0  0  0  0  0
   -6.1350    0.3620   -2.3480 H   0  0  0  0  0  0  0  0  0  0  0  0
   -6.0590    0.2270   -0.5590 H   0  0  0  0  0  0  0  0  0  0  0  0
   -1.7660    0.6710   -2.4840 H   0  0  0  0  0  0  0  0  0  0  0  0
   -3.1120    1.4910   -3.2870 H   0  0  0  0  0  0  0  0  0  0  0  0
   -1.8230    3.2210   -2.0330 H   0  0  0  0  0  0  0  0  0  0  0  0
   -3.4480    2.9630   -1.2660 H   0  0  0  0  0  0  0  0  0  0  0  0
   -1.6770    3.1850    0.3730 H   0  0  0  0  0  0  0  0  0  0  0  0
   -0.6190    0.5620   -0.8040 H   0  0  0  0  0  0  0  0  0  0  0  0
  1 11  1  0  0  0  0
  1  2  1  0  0  0  0
  2  4  1  0  0  0  0
  3  2  2  0  0  0  0
  4 13  1  0  0  0  0
  4  5  1  0  0  0  0
  5  6  1  0  0  0  0
  5 14  1  0  0  0  0
  6 16  1  6  0  0  0
  6  8  1  0  0  0  0
  6  7  1  0  0  0  0
  7 17  1  0  0  0  0
  8  9  2  0  0  0  0
 10  1  1  0  0  0  0
 12  4  1  0  0  0  0
 15  5  1  0  0  0  0
 18  7  1  0  0  0  0
 19 26  1  0  0  0  0
 19 20  1  0  0  0  0
 20 22  1  0  0  0  0
 20 27  1  1  0  0  0
 21  8  1  0  0  0  0
 21 20  1  0  0  0  0
 22 23  2  0  0  0  0
 24 19  1  0  0  0  0
 25 19  1  0  0  0  0
 28 21  1  0  0  0  0
 29 38  1  0  0  0  0
 29 40  1  0  0  0  0
 30 29  1  0  0  0  0
 31 30  1  0  0  0  0
 31 32  1  0  0  0  0
 32 44  1  0  0  0  0
 32 33  1  0  0  0  0
 33 45  1  1  0  0  0
 33 35  1  0  0  0  0
 34 33  1  0  0  0  0
 34 22  1  0  0  0  0
 35 37  2  0  0  0  0
 35 36  1  0  0  0  0
 39 29  1  0  0  0  0
 41 31  1  0  0  0  0
 42 31  1  0  0  0  0
 43 32  1  0  0  0  0
 46 34  1  0  0  0  0
M  END
$$$$
