QAP.pdb
 OpenBabel07022418303D

 43 43  0  0  1  0  0  0  0  0999 V2000
    1.1520   -7.3800    2.3180 N   0  0  0  0  0  0  0  0  0  0  0  0
    1.5930   -6.0420    2.1050 C   0  0  0  0  0  0  0  0  0  0  0  0
    2.8200   -5.8370    2.1130 O   0  0  0  0  0  0  0  0  0  0  0  0
    0.6380   -4.9270    1.8800 C   0  0  0  0  0  0  0  0  0  0  0  0
    1.3930   -3.6340    1.6770 C   0  0  0  0  0  0  0  0  0  0  0  0
    0.4880   -2.4650    1.4450 C   0  0  2  0  0  0  0  0  0  0  0  0
   -0.3520   -2.5670    0.3160 N   0  0  0  0  0  0  0  0  0  0  0  0
    1.3320   -1.2510    1.3360 C   0  0  0  0  0  0  0  0  0  0  0  0
    2.1600   -0.9860    2.2550 O   0  0  0  0  0  0  0  0  0  0  0  0
    0.1480   -7.5320    2.6180 H   0  0  0  0  0  0  0  0  0  0  0  0
    1.7610   -8.2050    2.1950 H   0  0  0  0  0  0  0  0  0  0  0  0
    0.0050   -4.8820    2.8130 H   0  0  0  0  0  0  0  0  0  0  0  0
   -0.0270   -5.1790    1.0520 H   0  0  0  0  0  0  0  0  0  0  0  0
    2.1180   -3.7900    0.8620 H   0  0  0  0  0  0  0  0  0  0  0  0
    1.9760   -3.4290    2.5990 H   0  0  0  0  0  0  0  0  0  0  0  0
   -0.1660   -2.3820    2.3560 H   0  0  0  0  0  0  0  0  0  0  0  0
   -1.2970   -2.1490    0.4060 H   0  0  0  0  0  0  0  0  0  0  0  0
   -0.3350   -3.4710   -0.1870 H   0  0  0  0  0  0  0  0  0  0  0  0
    2.8660    0.6500   -1.2010 C   0  0  0  0  0  0  0  0  0  0  0  0
    1.9880    0.7740    0.0510 C   0  0  2  0  0  0  0  0  0  0  0  0
    1.1960   -0.4020    0.1950 N   0  0  0  0  0  0  0  0  0  0  0  0
    1.2830    2.0470   -0.0420 C   0  0  0  0  0  0  0  0  0  0  0  0
    2.0300    3.0840   -0.1900 O   0  0  0  0  0  0  0  0  0  0  0  0
    2.2070    0.1860   -1.9730 H   0  0  0  0  0  0  0  0  0  0  0  0
    3.1130    1.6660   -1.5960 H   0  0  0  0  0  0  0  0  0  0  0  0
    3.7520    0.0370   -1.0090 H   0  0  0  0  0  0  0  0  0  0  0  0
    2.7430    0.8660    0.8970 H   0  0  0  0  0  0  0  0  0  0  0  0
    0.5010   -0.6960   -0.5180 H   0  0  0  0  0  0  0  0  0  0  0  0
   -0.1120    2.2820    0.0110 N   0  0  0  0  0  0  0  0  0  0  0  0
   -1.1030    1.2740    0.1650 C   0  0  0  0  0  0  0  0  0  0  0  0
   -2.3860    2.0490    0.4430 C   0  0  0  0  0  0  0  0  0  0  0  0
   -2.1500    3.3560   -0.3430 C   0  0  0  0  0  0  0  0  0  0  0  0
   -0.7100    3.5720   -0.0770 C   0  0  1  0  0  0  0  0  0  0  0  0
   -0.4600    4.4010    1.1380 C   0  0  0  0  0  0  0  0  0  0  0  0
    0.2180    3.8820    2.0500 O   0  0  0  0  0  0  0  0  0  0  0  0
   -0.9540    5.6740    1.2390 O   0  0  0  0  0  0  0  0  0  0  0  0
   -0.9050    0.5330    0.9650 H   0  0  0  0  0  0  0  0  0  0  0  0
   -1.2650    0.8180   -0.8400 H   0  0  0  0  0  0  0  0  0  0  0  0
   -2.4200    2.2390    1.5280 H   0  0  0  0  0  0  0  0  0  0  0  0
   -3.2680    1.5240    0.0440 H   0  0  0  0  0  0  0  0  0  0  0  0
   -2.7850    4.1470    0.1170 H   0  0  0  0  0  0  0  0  0  0  0  0
   -2.4160    3.1840   -1.3850 H   0  0  0  0  0  0  0  0  0  0  0  0
   -0.2720    4.0640   -0.9820 H   0  0  0  0  0  0  0  0  0  0  0  0
  1 10  1  0  0  0  0
  2  3  2  0  0  0  0
  2  1  1  0  0  0  0
  4  2  1  0  0  0  0
  4 12  1  0  0  0  0
  5  4  1  0  0  0  0
  5 15  1  0  0  0  0
  6  5  1  0  0  0  0
  6 16  1  1  0  0  0
  7 17  1  0  0  0  0
  7  6  1  0  0  0  0
  8  6  1  0  0  0  0
  8  9  2  0  0  0  0
 11  1  1  0  0  0  0
 13  4  1  0  0  0  0
 14  5  1  0  0  0  0
 18  7  1  0  0  0  0
 19 26  1  0  0  0  0
 19 20  1  0  0  0  0
 20 21  1  0  0  0  0
 20 27  1  1  0  0  0
 21  8  1  0  0  0  0
 22 29  1  0  0  0  0
 22 20  1  0  0  0  0
 23 22  2  0  0  0  0
 24 19  1  0  0  0  0
 25 19  1  0  0  0  0
 28 21  1  0  0  0  0
 29 30  1  0  0  0  0
 30 31  1  0  0  0  0
 30 37  1  0  0  0  0
 31 39  1  0  0  0  0
 32 33  1  0  0  0  0
 32 41  1  0  0  0  0
 32 31  1  0  0  0  0
 33 43  1  6  0  0  0
 33 29  1  0  0  0  0
 33 34  1  0  0  0  0
 34 36  2  0  0  0  0
 34 35  1  0  0  0  0
 38 30  1  0  0  0  0
 40 31  1  0  0  0  0
 42 32  1  0  0  0  0
M  END
$$$$
