QAS.pdb
 OpenBabel07022418303D

 40 39  0  0  1  0  0  0  0  0999 V2000
   -0.1090   -5.9770    3.6310 N   0  0  0  0  0  0  0  0  0  0  0  0
   -0.0570   -5.2200    2.4160 C   0  0  0  0  0  0  0  0  0  0  0  0
   -1.1390   -4.7220    2.0540 O   0  0  0  0  0  0  0  0  0  0  0  0
    1.1520   -5.0320    1.6400 C   0  0  0  0  0  0  0  0  0  0  0  0
    1.2040   -3.9770    0.6180 C   0  0  0  0  0  0  0  0  0  0  0  0
    1.0560   -2.5610    1.0550 C   0  0  2  0  0  0  0  0  0  0  0  0
   -0.2080   -2.3350    1.6860 N   0  0  0  0  0  0  0  0  0  0  0  0
    1.1720   -1.6170   -0.0970 C   0  0  0  0  0  0  0  0  0  0  0  0
    2.1810   -1.6890   -0.8840 O   0  0  0  0  0  0  0  0  0  0  0  0
    0.7030   -5.8770    4.2790 H   0  0  0  0  0  0  0  0  0  0  0  0
   -0.9010   -6.5920    3.8680 H   0  0  0  0  0  0  0  0  0  0  0  0
    2.0130   -4.9680    2.3780 H   0  0  0  0  0  0  0  0  0  0  0  0
    1.3720   -6.0130    1.1140 H   0  0  0  0  0  0  0  0  0  0  0  0
    0.5320   -4.2320   -0.2410 H   0  0  0  0  0  0  0  0  0  0  0  0
    2.2370   -4.0340    0.1470 H   0  0  0  0  0  0  0  0  0  0  0  0
    1.9140   -2.2970    1.7390 H   0  0  0  0  0  0  0  0  0  0  0  0
   -0.2100   -1.3850    2.1470 H   0  0  0  0  0  0  0  0  0  0  0  0
   -0.9440   -2.2820    0.9200 H   0  0  0  0  0  0  0  0  0  0  0  0
   -0.7240    0.1940   -2.5320 C   0  0  0  0  0  0  0  0  0  0  0  0
    0.4000    0.2830   -1.5470 C   0  0  2  0  0  0  0  0  0  0  0  0
    0.2470   -0.6100   -0.4190 N   0  0  0  0  0  0  0  0  0  0  0  0
    0.4340    1.6740   -1.0240 C   0  0  0  0  0  0  0  0  0  0  0  0
    0.5630    2.6100   -1.8540 O   0  0  0  0  0  0  0  0  0  0  0  0
   -1.7150    0.1830   -2.0090 H   0  0  0  0  0  0  0  0  0  0  0  0
   -0.6230   -0.6130   -3.2650 H   0  0  0  0  0  0  0  0  0  0  0  0
   -0.7190    1.1520   -3.1200 H   0  0  0  0  0  0  0  0  0  0  0  0
    1.3400    0.0440   -2.0940 H   0  0  0  0  0  0  0  0  0  0  0  0
   -0.5990   -0.4740    0.1690 H   0  0  0  0  0  0  0  0  0  0  0  0
   -1.1170    4.8180    2.0410 O   0  0  0  0  0  0  0  0  0  0  0  0
   -1.0270    3.5630    1.4870 C   0  0  0  0  0  0  0  0  0  0  0  0
    0.3570    3.3110    0.8920 C   0  0  2  0  0  0  0  0  0  0  0  0
    0.3290    1.9700    0.3430 N   0  0  0  0  0  0  0  0  0  0  0  0
    1.4120    3.4800    1.9000 C   0  0  0  0  0  0  0  0  0  0  0  0
    2.1470    2.4990    2.1750 O   0  0  0  0  0  0  0  0  0  0  0  0
    1.6330    4.6740    2.5640 O   0  0  0  0  0  0  0  0  0  0  0  0
   -0.6760    4.8330    2.9130 H   0  0  0  0  0  0  0  0  0  0  0  0
   -1.7840    3.3750    0.7080 H   0  0  0  0  0  0  0  0  0  0  0  0
   -1.2410    2.8130    2.2990 H   0  0  0  0  0  0  0  0  0  0  0  0
    0.4740    4.0560    0.0690 H   0  0  0  0  0  0  0  0  0  0  0  0
    0.2220    1.1860    1.0240 H   0  0  0  0  0  0  0  0  0  0  0  0
  1 11  1  0  0  0  0
  1 10  1  0  0  0  0
  2  1  1  0  0  0  0
  3  2  2  0  0  0  0
  4 12  1  0  0  0  0
  4  2  1  0  0  0  0
  5  6  1  0  0  0  0
  5  4  1  0  0  0  0
  6  7  1  0  0  0  0
  6 16  1  1  0  0  0
  7 17  1  0  0  0  0
  8  6  1  0  0  0  0
  9  8  2  0  0  0  0
 13  4  1  0  0  0  0
 14  5  1  0  0  0  0
 15  5  1  0  0  0  0
 18  7  1  0  0  0  0
 19 24  1  0  0  0  0
 19 20  1  0  0  0  0
 20 27  1  6  0  0  0
 20 22  1  0  0  0  0
 20 21  1  0  0  0  0
 21  8  1  0  0  0  0
 21 28  1  0  0  0  0
 22 32  1  0  0  0  0
 23 22  2  0  0  0  0
 25 19  1  0  0  0  0
 26 19  1  0  0  0  0
 29 36  1  0  0  0  0
 30 29  1  0  0  0  0
 30 38  1  0  0  0  0
 31 39  1  6  0  0  0
 31 30  1  0  0  0  0
 31 33  1  0  0  0  0
 32 31  1  0  0  0  0
 32 40  1  0  0  0  0
 33 34  2  0  0  0  0
 33 35  1  0  0  0  0
 37 30  1  0  0  0  0
M  END
$$$$
