QAY.pdb
 OpenBabel07022418303D

 50 50  0  0  1  0  0  0  0  0999 V2000
    3.9880   -1.1820    4.9570 N   0  0  0  0  0  0  0  0  0  0  0  0
    3.8620   -0.7040    3.6270 C   0  0  0  0  0  0  0  0  0  0  0  0
    3.1800    0.3170    3.4060 O   0  0  0  0  0  0  0  0  0  0  0  0
    4.5370   -1.4060    2.5240 C   0  0  0  0  0  0  0  0  0  0  0  0
    3.9410   -1.2470    1.1750 C   0  0  0  0  0  0  0  0  0  0  0  0
    2.5990   -1.8860    1.0420 C   0  0  2  0  0  0  0  0  0  0  0  0
    2.1060   -1.6240   -0.3260 N   0  0  0  0  0  0  0  0  0  0  0  0
    1.6200   -1.5500    2.0510 C   0  0  0  0  0  0  0  0  0  0  0  0
    1.6040   -2.1540    3.1870 O   0  0  0  0  0  0  0  0  0  0  0  0
    4.3640   -2.1520    5.1500 H   0  0  0  0  0  0  0  0  0  0  0  0
    3.7090   -0.5720    5.7510 H   0  0  0  0  0  0  0  0  0  0  0  0
    5.6320   -1.1090    2.5360 H   0  0  0  0  0  0  0  0  0  0  0  0
    4.5930   -2.5060    2.7920 H   0  0  0  0  0  0  0  0  0  0  0  0
    4.6340   -1.5900    0.3610 H   0  0  0  0  0  0  0  0  0  0  0  0
    3.7780   -0.1460    0.9620 H   0  0  0  0  0  0  0  0  0  0  0  0
    2.7780   -2.9940    1.0710 H   0  0  0  0  0  0  0  0  0  0  0  0
    2.7710   -2.1200   -0.9560 H   0  0  0  0  0  0  0  0  0  0  0  0
    2.2470   -0.6000   -0.4800 H   0  0  0  0  0  0  0  0  0  0  0  0
   -0.0180    1.2020    3.3860 C   0  0  0  0  0  0  0  0  0  0  0  0
   -0.3670   -0.2160    2.9060 C   0  0  2  0  0  0  0  0  0  0  0  0
    0.6020   -0.5500    1.9040 N   0  0  0  0  0  0  0  0  0  0  0  0
   -1.7590   -0.2110    2.4180 C   0  0  0  0  0  0  0  0  0  0  0  0
   -2.6680    0.0640    3.2380 O   0  0  0  0  0  0  0  0  0  0  0  0
    0.4930    1.7600    2.5490 H   0  0  0  0  0  0  0  0  0  0  0  0
   -0.9270    1.7890    3.6250 H   0  0  0  0  0  0  0  0  0  0  0  0
    0.6020    1.1880    4.2950 H   0  0  0  0  0  0  0  0  0  0  0  0
   -0.2840   -0.8390    3.8230 H   0  0  0  0  0  0  0  0  0  0  0  0
    0.5820   -0.0390    0.9970 H   0  0  0  0  0  0  0  0  0  0  0  0
    0.0970   -0.3310   -4.7420 O   0  0  0  0  0  0  0  0  0  0  0  0
   -0.8220   -0.1390   -3.7250 C   0  0  0  0  0  0  0  0  0  0  0  0
   -0.4490    0.6210   -2.6400 C   0  0  0  0  0  0  0  0  0  0  0  0
   -1.3450    0.8280   -1.6140 C   0  0  0  0  0  0  0  0  0  0  0  0
   -2.6140    0.2950   -1.6360 C   0  0  0  0  0  0  0  0  0  0  0  0
   -3.5260    0.5420   -0.5200 C   0  0  0  0  0  0  0  0  0  0  0  0
   -3.4420   -0.5060    0.5680 C   0  0  2  0  0  0  0  0  0  0  0  0
   -2.0800   -0.5050    1.0740 N   0  0  0  0  0  0  0  0  0  0  0  0
   -3.7830   -1.8600    0.0620 C   0  0  0  0  0  0  0  0  0  0  0  0
   -2.9320   -2.8060    0.1120 O   0  0  0  0  0  0  0  0  0  0  0  0
   -2.9720   -0.4620   -2.7280 C   0  0  0  0  0  0  0  0  0  0  0  0
   -2.0880   -0.6780   -3.7610 C   0  0  0  0  0  0  0  0  0  0  0  0
   -5.0140   -2.1800   -0.4860 O   0  0  0  0  0  0  0  0  0  0  0  0
    0.5570   -1.2000   -4.9160 H   0  0  0  0  0  0  0  0  0  0  0  0
    0.5310    1.0530   -2.5850 H   0  0  0  0  0  0  0  0  0  0  0  0
   -1.0080    1.4420   -0.7640 H   0  0  0  0  0  0  0  0  0  0  0  0
   -3.3370    1.5260   -0.0220 H   0  0  0  0  0  0  0  0  0  0  0  0
   -4.5830    0.6170   -0.9010 H   0  0  0  0  0  0  0  0  0  0  0  0
   -4.1310   -0.2450    1.3680 H   0  0  0  0  0  0  0  0  0  0  0  0
   -1.2630   -0.7300    0.4440 H   0  0  0  0  0  0  0  0  0  0  0  0
   -3.9710   -0.9210   -2.8120 H   0  0  0  0  0  0  0  0  0  0  0  0
   -2.3840   -1.2840   -4.6300 H   0  0  0  0  0  0  0  0  0  0  0  0
  1 10  1  0  0  0  0
  1 11  1  0  0  0  0
  2  1  1  0  0  0  0
  3  2  2  0  0  0  0
  4 12  1  0  0  0  0
  4 13  1  0  0  0  0
  4  2  1  0  0  0  0
  5  4  1  0  0  0  0
  6 16  1  1  0  0  0
  6  5  1  0  0  0  0
  6  8  1  0  0  0  0
  7  6  1  0  0  0  0
  8  9  2  0  0  0  0
 14  5  1  0  0  0  0
 15  5  1  0  0  0  0
 17  7  1  0  0  0  0
 18  7  1  0  0  0  0
 19 25  1  0  0  0  0
 19 26  1  0  0  0  0
 20 19  1  0  0  0  0
 20 27  1  1  0  0  0
 21  8  1  0  0  0  0
 21 20  1  0  0  0  0
 22 20  1  0  0  0  0
 22 23  2  0  0  0  0
 24 19  1  0  0  0  0
 28 21  1  0  0  0  0
 29 30  1  0  0  0  0
 30 31  1  0  0  0  0
 31 43  1  0  0  0  0
 31 32  2  0  0  0  0
 32 44  1  0  0  0  0
 33 32  1  0  0  0  0
 33 34  1  0  0  0  0
 34 45  1  0  0  0  0
 34 35  1  0  0  0  0
 35 36  1  0  0  0  0
 35 47  1  1  0  0  0
 36 22  1  0  0  0  0
 37 38  1  0  0  0  0
 37 35  1  0  0  0  0
 39 33  2  0  0  0  0
 40 30  2  0  0  0  0
 40 39  1  0  0  0  0
 41 37  2  0  0  0  0
 42 29  1  0  0  0  0
 46 34  1  0  0  0  0
 48 36  1  0  0  0  0
 49 39  1  0  0  0  0
 50 40  1  0  0  0  0
M  END
$$$$
