QCA.pdb
 OpenBabel07022418313D

 40 39  0  0  1  0  0  0  0  0999 V2000
   -3.8310   -4.0620    1.5000 N   0  0  0  0  0  0  0  0  0  0  0  0
   -2.6310   -3.3180    1.3010 C   0  0  0  0  0  0  0  0  0  0  0  0
   -2.1390   -2.7000    2.2710 O   0  0  0  0  0  0  0  0  0  0  0  0
   -1.9730   -3.2680   -0.0190 C   0  0  0  0  0  0  0  0  0  0  0  0
   -0.7420   -2.4220    0.0500 C   0  0  0  0  0  0  0  0  0  0  0  0
   -0.0260   -2.3370   -1.2790 C   0  0  2  0  0  0  0  0  0  0  0  0
    0.3810   -3.6350   -1.7340 N   0  0  0  0  0  0  0  0  0  0  0  0
    1.1590   -1.4530   -1.1360 C   0  0  0  0  0  0  0  0  0  0  0  0
    2.3230   -1.9010   -1.4090 O   0  0  0  0  0  0  0  0  0  0  0  0
   -4.6260   -3.6350    2.0440 H   0  0  0  0  0  0  0  0  0  0  0  0
   -3.9260   -5.0300    1.1090 H   0  0  0  0  0  0  0  0  0  0  0  0
   -1.6850   -4.2640   -0.3920 H   0  0  0  0  0  0  0  0  0  0  0  0
   -2.6610   -2.7790   -0.7690 H   0  0  0  0  0  0  0  0  0  0  0  0
   -0.0400   -2.8500    0.8240 H   0  0  0  0  0  0  0  0  0  0  0  0
   -0.9450   -1.3820    0.3830 H   0  0  0  0  0  0  0  0  0  0  0  0
   -0.7530   -1.9360   -2.0190 H   0  0  0  0  0  0  0  0  0  0  0  0
   -0.3880   -4.2150   -2.1010 H   0  0  0  0  0  0  0  0  0  0  0  0
    1.0190   -4.0910   -1.0750 H   0  0  0  0  0  0  0  0  0  0  0  0
    1.0280   -0.1060   -0.6970 N   0  0  0  0  0  0  0  0  0  0  0  0
    2.1850    0.7850   -0.5480 C   0  0  1  0  0  0  0  0  0  0  0  0
    1.9640    1.9300   -1.5130 C   0  0  0  0  0  0  0  0  0  0  0  0
    3.2810    3.1420   -1.4840 S   0  0  0  0  0  0  0  0  0  0  0  0
    2.2190    1.3680    0.8220 C   0  0  0  0  0  0  0  0  0  0  0  0
    3.1600    2.1500    1.0830 O   0  0  0  0  0  0  0  0  0  0  0  0
    0.0620    0.2230   -0.4830 H   0  0  0  0  0  0  0  0  0  0  0  0
    3.1100    0.2610   -0.8180 H   0  0  0  0  0  0  0  0  0  0  0  0
    1.8720    1.5430   -2.5660 H   0  0  0  0  0  0  0  0  0  0  0  0
    0.9510    2.3780   -1.3040 H   0  0  0  0  0  0  0  0  0  0  0  0
    4.4870    2.6210   -0.9850 H   0  0  0  0  0  0  0  0  0  0  0  0
    0.1310    2.5780    3.4060 C   0  0  0  0  0  0  0  0  0  0  0  0
    1.3160    1.6660    3.1460 C   0  0  2  0  0  0  0  0  0  0  0  0
    1.2630    1.0880    1.8190 N   0  0  0  0  0  0  0  0  0  0  0  0
    1.4550    0.6330    4.1940 C   0  0  0  0  0  0  0  0  0  0  0  0
    1.5110   -0.5710    3.8630 O   0  0  0  0  0  0  0  0  0  0  0  0
    1.5240    0.9620    5.5310 O   0  0  0  0  0  0  0  0  0  0  0  0
    0.3170    3.5800    2.9860 H   0  0  0  0  0  0  0  0  0  0  0  0
   -0.0210    2.7030    4.4980 H   0  0  0  0  0  0  0  0  0  0  0  0
   -0.8110    2.1520    3.0070 H   0  0  0  0  0  0  0  0  0  0  0  0
    2.2220    2.3380    3.1970 H   0  0  0  0  0  0  0  0  0  0  0  0
    0.4900    0.4320    1.5710 H   0  0  0  0  0  0  0  0  0  0  0  0
  1 10  1  0  0  0  0
  2  1  1  0  0  0  0
  2  3  2  0  0  0  0
  4  5  1  0  0  0  0
  4  2  1  0  0  0  0
  5 15  1  0  0  0  0
  5 14  1  0  0  0  0
  6 16  1  6  0  0  0
  6  8  1  0  0  0  0
  6  5  1  0  0  0  0
  7  6  1  0  0  0  0
  7 18  1  0  0  0  0
  8 19  1  0  0  0  0
  9  8  2  0  0  0  0
 11  1  1  0  0  0  0
 12  4  1  0  0  0  0
 13  4  1  0  0  0  0
 17  7  1  0  0  0  0
 19 20  1  0  0  0  0
 19 25  1  0  0  0  0
 20 26  1  6  0  0  0
 20 23  1  0  0  0  0
 21 22  1  0  0  0  0
 21 28  1  0  0  0  0
 21 20  1  0  0  0  0
 22 29  1  0  0  0  0
 23 24  2  0  0  0  0
 23 32  1  0  0  0  0
 27 21  1  0  0  0  0
 30 37  1  0  0  0  0
 31 39  1  1  0  0  0
 31 30  1  0  0  0  0
 31 33  1  0  0  0  0
 32 31  1  0  0  0  0
 33 35  1  0  0  0  0
 34 33  2  0  0  0  0
 36 30  1  0  0  0  0
 38 30  1  0  0  0  0
 40 32  1  0  0  0  0
M  END
$$$$
