QCE.pdb
 OpenBabel07022418313D

 46 45  0  0  1  0  0  0  0  0999 V2000
    3.6620   -5.8920    0.7170 N   0  0  0  0  0  0  0  0  0  0  0  0
    3.4410   -4.7200   -0.0830 C   0  0  0  0  0  0  0  0  0  0  0  0
    2.4720   -4.7670   -0.8550 O   0  0  0  0  0  0  0  0  0  0  0  0
    4.3430   -3.5840    0.0500 C   0  0  0  0  0  0  0  0  0  0  0  0
    3.7790   -2.2860   -0.3660 C   0  0  0  0  0  0  0  0  0  0  0  0
    2.6270   -1.8530    0.4880 C   0  0  2  0  0  0  0  0  0  0  0  0
    1.5350   -2.7720    0.4430 N   0  0  0  0  0  0  0  0  0  0  0  0
    2.1540   -0.5100    0.0650 C   0  0  0  0  0  0  0  0  0  0  0  0
    3.0300    0.3820   -0.0610 O   0  0  0  0  0  0  0  0  0  0  0  0
    3.0800   -6.7350    0.6100 H   0  0  0  0  0  0  0  0  0  0  0  0
    4.4190   -5.8850    1.4100 H   0  0  0  0  0  0  0  0  0  0  0  0
    5.2830   -3.8070   -0.5500 H   0  0  0  0  0  0  0  0  0  0  0  0
    4.6870   -3.5380    1.1270 H   0  0  0  0  0  0  0  0  0  0  0  0
    3.4170   -2.3540   -1.4210 H   0  0  0  0  0  0  0  0  0  0  0  0
    4.5940   -1.5130   -0.3180 H   0  0  0  0  0  0  0  0  0  0  0  0
    3.0080   -1.7930    1.5610 H   0  0  0  0  0  0  0  0  0  0  0  0
    0.9330   -2.6180   -0.3920 H   0  0  0  0  0  0  0  0  0  0  0  0
    0.9460   -2.7450    1.2950 H   0  0  0  0  0  0  0  0  0  0  0  0
    0.8230   -0.1380   -0.2080 N   0  0  0  0  0  0  0  0  0  0  0  0
    0.4060    1.1700   -0.6170 C   0  0  1  0  0  0  0  0  0  0  0  0
   -0.1870    1.1960   -2.0070 C   0  0  0  0  0  0  0  0  0  0  0  0
   -0.6990    2.8740   -2.4750 S   0  0  0  0  0  0  0  0  0  0  0  0
   -0.4910    1.8020    0.3820 C   0  0  0  0  0  0  0  0  0  0  0  0
   -0.9480    2.9550    0.1770 O   0  0  0  0  0  0  0  0  0  0  0  0
    0.0870   -0.8620   -0.1010 H   0  0  0  0  0  0  0  0  0  0  0  0
    1.3270    1.8090   -0.6740 H   0  0  0  0  0  0  0  0  0  0  0  0
   -1.1320    0.5850   -1.9600 H   0  0  0  0  0  0  0  0  0  0  0  0
    0.5020    0.8540   -2.7770 H   0  0  0  0  0  0  0  0  0  0  0  0
    0.0690    3.8620   -1.8850 H   0  0  0  0  0  0  0  0  0  0  0  0
   -0.8840    1.1740    1.5970 N   0  0  0  0  0  0  0  0  0  0  0  0
   -1.7590    1.8170    2.5500 C   0  0  1  0  0  0  0  0  0  0  0  0
   -3.0130    1.0170    2.6940 C   0  0  0  0  0  0  0  0  0  0  0  0
   -3.7480    0.8940    1.3760 C   0  0  0  0  0  0  0  0  0  0  0  0
   -4.9900    0.0960    1.5380 C   0  0  0  0  0  0  0  0  0  0  0  0
   -5.7060   -0.0930    0.5400 O   0  0  0  0  0  0  0  0  0  0  0  0
   -1.1220    2.0060    3.8650 C   0  0  0  0  0  0  0  0  0  0  0  0
    0.0420    1.6580    4.1520 O   0  0  0  0  0  0  0  0  0  0  0  0
   -5.3990   -0.4510    2.7410 O   0  0  0  0  0  0  0  0  0  0  0  0
   -1.8710    2.6150    4.8620 O   0  0  0  0  0  0  0  0  0  0  0  0
   -0.5300    0.2330    1.7970 H   0  0  0  0  0  0  0  0  0  0  0  0
   -2.0420    2.8250    2.1700 H   0  0  0  0  0  0  0  0  0  0  0  0
   -3.6840    1.5200    3.4070 H   0  0  0  0  0  0  0  0  0  0  0  0
   -2.7630   -0.0360    3.0120 H   0  0  0  0  0  0  0  0  0  0  0  0
   -3.1410    0.4480    0.5810 H   0  0  0  0  0  0  0  0  0  0  0  0
   -4.0540    1.9080    1.0150 H   0  0  0  0  0  0  0  0  0  0  0  0
   -6.1720   -1.1220    2.7970 H   0  0  0  0  0  0  0  0  0  0  0  0
  1 11  1  0  0  0  0
  2  4  1  0  0  0  0
  2  1  1  0  0  0  0
  3  2  2  0  0  0  0
  4 13  1  0  0  0  0
  5 15  1  0  0  0  0
  5  4  1  0  0  0  0
  5  6  1  0  0  0  0
  6 16  1  1  0  0  0
  7  6  1  0  0  0  0
  7 18  1  0  0  0  0
  8  6  1  0  0  0  0
  9  8  2  0  0  0  0
 10  1  1  0  0  0  0
 12  4  1  0  0  0  0
 14  5  1  0  0  0  0
 17  7  1  0  0  0  0
 19 25  1  0  0  0  0
 19  8  1  0  0  0  0
 20 26  1  6  0  0  0
 20 19  1  0  0  0  0
 20 23  1  0  0  0  0
 21 27  1  0  0  0  0
 21 20  1  0  0  0  0
 22 21  1  0  0  0  0
 22 29  1  0  0  0  0
 23 30  1  0  0  0  0
 24 23  2  0  0  0  0
 28 21  1  0  0  0  0
 30 40  1  0  0  0  0
 30 31  1  0  0  0  0
 31 41  1  6  0  0  0
 31 32  1  0  0  0  0
 31 36  1  0  0  0  0
 32 43  1  0  0  0  0
 32 42  1  0  0  0  0
 33 34  1  0  0  0  0
 33 32  1  0  0  0  0
 34 38  1  0  0  0  0
 35 34  2  0  0  0  0
 36 37  2  0  0  0  0
 36 39  1  0  0  0  0
 38 46  1  0  0  0  0
 44 33  1  0  0  0  0
 45 33  1  0  0  0  0
M  END
$$$$
