QCF.pdb
 OpenBabel07022418313D

 50 50  0  0  1  0  0  0  0  0999 V2000
    3.6110    6.1390    3.0840 N   0  0  0  0  0  0  0  0  0  0  0  0
    2.5200    5.4090    3.6280 C   0  0  0  0  0  0  0  0  0  0  0  0
    2.2730    5.4180    4.8580 O   0  0  0  0  0  0  0  0  0  0  0  0
    1.6610    4.6170    2.6780 C   0  0  0  0  0  0  0  0  0  0  0  0
    0.5740    3.9260    3.4500 C   0  0  0  0  0  0  0  0  0  0  0  0
   -0.3450    3.1310    2.5830 C   0  0  2  0  0  0  0  0  0  0  0  0
   -1.3840    2.4950    3.4010 N   0  0  0  0  0  0  0  0  0  0  0  0
    0.3980    2.0170    1.9320 C   0  0  0  0  0  0  0  0  0  0  0  0
    1.2620    2.2580    1.0530 O   0  0  0  0  0  0  0  0  0  0  0  0
    4.5950    5.8140    3.1910 H   0  0  0  0  0  0  0  0  0  0  0  0
    3.4130    7.0200    2.5660 H   0  0  0  0  0  0  0  0  0  0  0  0
    2.3090    3.9130    2.1500 H   0  0  0  0  0  0  0  0  0  0  0  0
    1.1720    5.3630    2.0100 H   0  0  0  0  0  0  0  0  0  0  0  0
    0.0090    4.6760    4.0690 H   0  0  0  0  0  0  0  0  0  0  0  0
    1.0830    3.2660    4.2070 H   0  0  0  0  0  0  0  0  0  0  0  0
   -0.8640    3.7910    1.8680 H   0  0  0  0  0  0  0  0  0  0  0  0
   -2.2300    3.0750    3.4680 H   0  0  0  0  0  0  0  0  0  0  0  0
   -1.0010    2.2210    4.3400 H   0  0  0  0  0  0  0  0  0  0  0  0
    0.1610    0.6570    2.2750 N   0  0  0  0  0  0  0  0  0  0  0  0
    0.9230   -0.3730    1.5980 C   0  0  1  0  0  0  0  0  0  0  0  0
    1.8170   -1.0470    2.6360 C   0  0  0  0  0  0  0  0  0  0  0  0
    2.8310   -2.3550    1.9120 S   0  0  0  0  0  0  0  0  0  0  0  0
   -0.0440   -1.3010    0.9860 C   0  0  0  0  0  0  0  0  0  0  0  0
   -1.2980   -1.1210    1.1680 O   0  0  0  0  0  0  0  0  0  0  0  0
   -0.5510    0.4140    3.0030 H   0  0  0  0  0  0  0  0  0  0  0  0
    1.5980    0.0980    0.8880 H   0  0  0  0  0  0  0  0  0  0  0  0
    1.2320   -1.4810    3.4620 H   0  0  0  0  0  0  0  0  0  0  0  0
    2.5020   -0.2840    3.0420 H   0  0  0  0  0  0  0  0  0  0  0  0
    3.6830   -1.8600    0.9090 H   0  0  0  0  0  0  0  0  0  0  0  0
    0.2650   -2.4200    0.1830 N   0  0  0  0  0  0  0  0  0  0  0  0
   -0.7620   -3.2990   -0.3890 C   0  0  1  0  0  0  0  0  0  0  0  0
   -0.5460   -3.2710   -1.8660 C   0  0  0  0  0  0  0  0  0  0  0  0
   -1.4550   -4.0810   -2.6700 C   0  0  0  0  0  0  0  0  0  0  0  0
   -2.6580   -3.6170   -3.1590 C   0  0  0  0  0  0  0  0  0  0  0  0
   -3.5000   -4.4020   -3.9220 C   0  0  0  0  0  0  0  0  0  0  0  0
   -3.1450   -5.7070   -4.2210 C   0  0  0  0  0  0  0  0  0  0  0  0
   -1.9510   -6.1930   -3.7460 C   0  0  0  0  0  0  0  0  0  0  0  0
   -1.1200   -5.3810   -2.9780 C   0  0  0  0  0  0  0  0  0  0  0  0
   -0.6370   -4.6680    0.1470 C   0  0  0  0  0  0  0  0  0  0  0  0
   -1.4500   -5.5380   -0.2310 O   0  0  0  0  0  0  0  0  0  0  0  0
    0.3460   -5.0170    1.0500 O   0  0  0  0  0  0  0  0  0  0  0  0
    1.2610   -2.6310   -0.0190 H   0  0  0  0  0  0  0  0  0  0  0  0
   -1.7580   -2.9230   -0.0790 H   0  0  0  0  0  0  0  0  0  0  0  0
   -0.5500   -2.2360   -2.2660 H   0  0  0  0  0  0  0  0  0  0  0  0
    0.5050   -3.6400   -2.0420 H   0  0  0  0  0  0  0  0  0  0  0  0
   -2.9840   -2.6070   -2.9550 H   0  0  0  0  0  0  0  0  0  0  0  0
   -4.4460   -4.0460   -4.3090 H   0  0  0  0  0  0  0  0  0  0  0  0
   -3.8000   -6.3280   -4.8180 H   0  0  0  0  0  0  0  0  0  0  0  0
   -1.6970   -7.2160   -3.9940 H   0  0  0  0  0  0  0  0  0  0  0  0
   -0.1970   -5.8320   -2.6430 H   0  0  0  0  0  0  0  0  0  0  0  0
  1 10  1  0  0  0  0
  1  2  1  0  0  0  0
  2  3  2  0  0  0  0
  4  5  1  0  0  0  0
  4  2  1  0  0  0  0
  5 14  1  0  0  0  0
  5 15  1  0  0  0  0
  6 16  1  6  0  0  0
  6  7  1  0  0  0  0
  6  5  1  0  0  0  0
  7 17  1  0  0  0  0
  7 18  1  0  0  0  0
  8 19  1  0  0  0  0
  8  6  1  0  0  0  0
  9  8  2  0  0  0  0
 11  1  1  0  0  0  0
 12  4  1  0  0  0  0
 13  4  1  0  0  0  0
 19 25  1  0  0  0  0
 20 26  1  6  0  0  0
 20 19  1  0  0  0  0
 20 21  1  0  0  0  0
 21 28  1  0  0  0  0
 21 27  1  0  0  0  0
 22 21  1  0  0  0  0
 23 24  2  0  0  0  0
 23 20  1  0  0  0  0
 29 22  1  0  0  0  0
 30 23  1  0  0  0  0
 31 43  1  1  0  0  0
 31 39  1  0  0  0  0
 31 30  1  0  0  0  0
 32 31  1  0  0  0  0
 33 32  1  0  0  0  0
 34 46  1  0  0  0  0
 34 33  2  0  0  0  0
 35 34  1  0  0  0  0
 36 35  2  0  0  0  0
 36 37  1  0  0  0  0
 37 38  2  0  0  0  0
 38 33  1  0  0  0  0
 38 50  1  0  0  0  0
 39 41  1  0  0  0  0
 40 39  2  0  0  0  0
 42 30  1  0  0  0  0
 44 32  1  0  0  0  0
 45 32  1  0  0  0  0
 47 35  1  0  0  0  0
 48 36  1  0  0  0  0
 49 37  1  0  0  0  0
M  END
$$$$
