QCL.pdb
 OpenBabel07022418313D

 49 48  0  0  1  0  0  0  0  0999 V2000
    2.0060   -6.3860   -1.0330 N   0  0  0  0  0  0  0  0  0  0  0  0
    1.5390   -5.0680   -0.7780 C   0  0  0  0  0  0  0  0  0  0  0  0
    1.0440   -4.4290   -1.7300 O   0  0  0  0  0  0  0  0  0  0  0  0
    1.6240   -4.4570    0.5570 C   0  0  0  0  0  0  0  0  0  0  0  0
    1.3430   -2.9790    0.5750 C   0  0  0  0  0  0  0  0  0  0  0  0
    2.3720   -2.2800   -0.2520 C   0  0  2  0  0  0  0  0  0  0  0  0
    3.6770   -2.5820    0.3680 N   0  0  0  0  0  0  0  0  0  0  0  0
    2.2270   -0.8120   -0.2580 C   0  0  0  0  0  0  0  0  0  0  0  0
    3.1150   -0.0800    0.2460 O   0  0  0  0  0  0  0  0  0  0  0  0
    1.6490   -7.1830   -0.4780 H   0  0  0  0  0  0  0  0  0  0  0  0
    2.7120   -6.6060   -1.7720 H   0  0  0  0  0  0  0  0  0  0  0  0
    2.6850   -4.6250    0.9120 H   0  0  0  0  0  0  0  0  0  0  0  0
    1.0180   -5.0040    1.3170 H   0  0  0  0  0  0  0  0  0  0  0  0
    0.3250   -2.8370    0.1130 H   0  0  0  0  0  0  0  0  0  0  0  0
    1.3470   -2.6490    1.6380 H   0  0  0  0  0  0  0  0  0  0  0  0
    2.4240   -2.7270   -1.2410 H   0  0  0  0  0  0  0  0  0  0  0  0
    4.1290   -3.3950   -0.0720 H   0  0  0  0  0  0  0  0  0  0  0  0
    4.3270   -1.7620    0.2390 H   0  0  0  0  0  0  0  0  0  0  0  0
    1.1120   -0.1240   -0.8170 N   0  0  0  0  0  0  0  0  0  0  0  0
    0.9790    1.3130   -0.8230 C   0  0  1  0  0  0  0  0  0  0  0  0
    0.9710    1.8760   -2.2280 C   0  0  0  0  0  0  0  0  0  0  0  0
    0.8000    3.6790   -2.0870 S   0  0  0  0  0  0  0  0  0  0  0  0
   -0.3000    1.7070   -0.1790 C   0  0  0  0  0  0  0  0  0  0  0  0
   -0.6290    2.9200   -0.0940 O   0  0  0  0  0  0  0  0  0  0  0  0
    0.3620   -0.6940   -1.2410 H   0  0  0  0  0  0  0  0  0  0  0  0
    1.8300    1.8080   -0.3090 H   0  0  0  0  0  0  0  0  0  0  0  0
    1.9140    1.6760   -2.7500 H   0  0  0  0  0  0  0  0  0  0  0  0
    0.0690    1.5190   -2.7810 H   0  0  0  0  0  0  0  0  0  0  0  0
    0.0180    4.2090   -3.1380 H   0  0  0  0  0  0  0  0  0  0  0  0
   -0.4490   -0.3030    2.8800 C   0  0  0  0  0  0  0  0  0  0  0  0
   -1.8270    0.1450    3.2550 C   0  0  0  0  0  0  0  0  0  0  0  0
   -1.9090    0.5200    4.7310 C   0  0  0  0  0  0  0  0  0  0  0  0
   -2.3540    1.2920    2.4540 C   0  0  0  0  0  0  0  0  0  0  0  0
   -2.4680    1.0480    0.9870 C   0  0  2  0  0  0  0  0  0  0  0  0
   -1.2250    0.7590    0.3730 N   0  0  0  0  0  0  0  0  0  0  0  0
   -3.3170    2.0530    0.2990 C   0  0  0  0  0  0  0  0  0  0  0  0
   -4.3800    2.4060    0.8610 O   0  0  0  0  0  0  0  0  0  0  0  0
   -2.9760    2.5910   -0.9120 O   0  0  0  0  0  0  0  0  0  0  0  0
    0.1340    0.4430    2.3380 H   0  0  0  0  0  0  0  0  0  0  0  0
   -0.4720   -1.2940    2.3640 H   0  0  0  0  0  0  0  0  0  0  0  0
    0.1060   -0.4760    3.8460 H   0  0  0  0  0  0  0  0  0  0  0  0
   -2.4990   -0.7350    3.1350 H   0  0  0  0  0  0  0  0  0  0  0  0
   -0.9060    0.8020    5.0890 H   0  0  0  0  0  0  0  0  0  0  0  0
   -2.5800    1.3890    4.8620 H   0  0  0  0  0  0  0  0  0  0  0  0
   -2.2420   -0.3350    5.3400 H   0  0  0  0  0  0  0  0  0  0  0  0
   -3.3620    1.6080    2.8130 H   0  0  0  0  0  0  0  0  0  0  0  0
   -1.6350    2.1640    2.5770 H   0  0  0  0  0  0  0  0  0  0  0  0
   -3.0790    0.0630    0.8910 H   0  0  0  0  0  0  0  0  0  0  0  0
   -0.8930   -0.2510    0.2840 H   0  0  0  0  0  0  0  0  0  0  0  0
  1  2  1  0  0  0  0
  1 10  1  0  0  0  0
  2  4  1  0  0  0  0
  3  2  2  0  0  0  0
  4  5  1  0  0  0  0
  4 12  1  0  0  0  0
  4 13  1  0  0  0  0
  5 15  1  0  0  0  0
  6 16  1  6  0  0  0
  6  7  1  0  0  0  0
  6  5  1  0  0  0  0
  8  6  1  0  0  0  0
  8  9  2  0  0  0  0
 11  1  1  0  0  0  0
 14  5  1  0  0  0  0
 17  7  1  0  0  0  0
 18  7  1  0  0  0  0
 19  8  1  0  0  0  0
 20 19  1  0  0  0  0
 20 26  1  1  0  0  0
 20 23  1  0  0  0  0
 21 22  1  0  0  0  0
 21 20  1  0  0  0  0
 23 24  2  0  0  0  0
 23 35  1  0  0  0  0
 25 19  1  0  0  0  0
 27 21  1  0  0  0  0
 28 21  1  0  0  0  0
 29 22  1  0  0  0  0
 30 31  1  0  0  0  0
 30 41  1  0  0  0  0
 31 32  1  0  0  0  0
 32 44  1  0  0  0  0
 32 43  1  0  0  0  0
 32 45  1  0  0  0  0
 33 47  1  0  0  0  0
 33 46  1  0  0  0  0
 33 31  1  0  0  0  0
 34 48  1  6  0  0  0
 34 33  1  0  0  0  0
 35 34  1  0  0  0  0
 36 37  1  0  0  0  0
 36 34  1  0  0  0  0
 38 36  2  0  0  0  0
 39 30  1  0  0  0  0
 40 30  1  0  0  0  0
 42 31  1  0  0  0  0
 49 35  1  0  0  0  0
M  END
$$$$
