QCQ.pdb
 OpenBabel07022418313D

 47 46  0  0  1  0  0  0  0  0999 V2000
    3.9510   -4.7250   -0.1420 N   0  0  0  0  0  0  0  0  0  0  0  0
    3.1140   -3.5850    0.0170 C   0  0  0  0  0  0  0  0  0  0  0  0
    2.6280   -3.0260   -0.9990 O   0  0  0  0  0  0  0  0  0  0  0  0
    2.8150   -3.0630    1.3690 C   0  0  0  0  0  0  0  0  0  0  0  0
    2.0940   -1.7450    1.3510 C   0  0  0  0  0  0  0  0  0  0  0  0
    2.8560   -0.6670    0.7210 C   0  0  2  0  0  0  0  0  0  0  0  0
    4.1090   -0.4970    1.4780 N   0  0  0  0  0  0  0  0  0  0  0  0
    2.1750    0.6200    0.5840 C   0  0  0  0  0  0  0  0  0  0  0  0
    2.6980    1.6420    1.0910 O   0  0  0  0  0  0  0  0  0  0  0  0
    3.6980   -5.6040    0.3550 H   0  0  0  0  0  0  0  0  0  0  0  0
    4.7870   -4.6760   -0.7360 H   0  0  0  0  0  0  0  0  0  0  0  0
    2.1860   -3.8460    1.8660 H   0  0  0  0  0  0  0  0  0  0  0  0
    3.7730   -2.9880    1.9550 H   0  0  0  0  0  0  0  0  0  0  0  0
    1.8960   -1.4750    2.4320 H   0  0  0  0  0  0  0  0  0  0  0  0
    1.0870   -1.9420    0.9380 H   0  0  0  0  0  0  0  0  0  0  0  0
    3.1950   -0.9530   -0.2920 H   0  0  0  0  0  0  0  0  0  0  0  0
    4.9040   -0.2610    0.8540 H   0  0  0  0  0  0  0  0  0  0  0  0
    3.9970    0.2250    2.2300 H   0  0  0  0  0  0  0  0  0  0  0  0
    0.9400    0.7380   -0.1070 N   0  0  0  0  0  0  0  0  0  0  0  0
    0.2320    1.9750   -0.2700 C   0  0  1  0  0  0  0  0  0  0  0  0
    0.1480    2.4310   -1.6990 C   0  0  0  0  0  0  0  0  0  0  0  0
   -0.7040    1.2090   -2.7240 S   0  0  0  0  0  0  0  0  0  0  0  0
   -1.0630    1.9970    0.4430 C   0  0  0  0  0  0  0  0  0  0  0  0
   -1.8200    3.0010    0.3960 O   0  0  0  0  0  0  0  0  0  0  0  0
    0.5800   -0.1830   -0.5000 H   0  0  0  0  0  0  0  0  0  0  0  0
    0.8610    2.7590    0.2510 H   0  0  0  0  0  0  0  0  0  0  0  0
    1.1240    2.7200   -2.0950 H   0  0  0  0  0  0  0  0  0  0  0  0
   -0.4840    3.3630   -1.7420 H   0  0  0  0  0  0  0  0  0  0  0  0
   -1.1510    1.8710   -3.8840 H   0  0  0  0  0  0  0  0  0  0  0  0
   -2.1170   -3.0040    0.1980 N   0  0  0  0  0  0  0  0  0  0  0  0
   -2.7100   -1.7130    0.1800 C   0  0  0  0  0  0  0  0  0  0  0  0
   -2.3010   -0.9160   -0.7000 O   0  0  0  0  0  0  0  0  0  0  0  0
   -3.7540   -1.2850    1.1160 C   0  0  0  0  0  0  0  0  0  0  0  0
   -3.9290    0.1700    1.3080 C   0  0  0  0  0  0  0  0  0  0  0  0
   -2.8060    0.9340    1.9180 C   0  0  2  0  0  0  0  0  0  0  0  0
   -1.5480    0.8990    1.2300 N   0  0  0  0  0  0  0  0  0  0  0  0
   -2.6650    0.6540    3.3720 C   0  0  0  0  0  0  0  0  0  0  0  0
   -3.7090    0.6600    4.0720 O   0  0  0  0  0  0  0  0  0  0  0  0
   -1.4640    0.3900    3.9940 O   0  0  0  0  0  0  0  0  0  0  0  0
   -1.1370   -3.1990   -0.1020 H   0  0  0  0  0  0  0  0  0  0  0  0
   -2.6760   -3.8270    0.5280 H   0  0  0  0  0  0  0  0  0  0  0  0
   -4.7270   -1.6700    0.6790 H   0  0  0  0  0  0  0  0  0  0  0  0
   -3.6940   -1.8440    2.0950 H   0  0  0  0  0  0  0  0  0  0  0  0
   -4.2350    0.6030    0.3230 H   0  0  0  0  0  0  0  0  0  0  0  0
   -4.8520    0.3040    1.9530 H   0  0  0  0  0  0  0  0  0  0  0  0
   -3.1550    2.0280    1.8800 H   0  0  0  0  0  0  0  0  0  0  0  0
   -0.9490    0.0710    1.3130 H   0  0  0  0  0  0  0  0  0  0  0  0
  1  2  1  0  0  0  0
  1 10  1  0  0  0  0
  2  4  1  0  0  0  0
  3  2  2  0  0  0  0
  4 12  1  0  0  0  0
  4 13  1  0  0  0  0
  5  4  1  0  0  0  0
  5 14  1  0  0  0  0
  6 16  1  6  0  0  0
  6  5  1  0  0  0  0
  6  7  1  0  0  0  0
  7 18  1  0  0  0  0
  8  6  1  0  0  0  0
  8  9  2  0  0  0  0
 11  1  1  0  0  0  0
 15  5  1  0  0  0  0
 17  7  1  0  0  0  0
 19  8  1  0  0  0  0
 20 19  1  0  0  0  0
 20 26  1  1  0  0  0
 20 23  1  0  0  0  0
 21 20  1  0  0  0  0
 22 21  1  0  0  0  0
 23 36  1  0  0  0  0
 24 23  2  0  0  0  0
 25 19  1  0  0  0  0
 27 21  1  0  0  0  0
 28 21  1  0  0  0  0
 29 22  1  0  0  0  0
 30 41  1  0  0  0  0
 31 30  1  0  0  0  0
 31 33  1  0  0  0  0
 32 31  2  0  0  0  0
 33 34  1  0  0  0  0
 33 43  1  0  0  0  0
 34 35  1  0  0  0  0
 34 45  1  0  0  0  0
 35 46  1  6  0  0  0
 35 37  1  0  0  0  0
 36 47  1  0  0  0  0
 36 35  1  0  0  0  0
 37 39  2  0  0  0  0
 37 38  1  0  0  0  0
 40 30  1  0  0  0  0
 42 33  1  0  0  0  0
 44 34  1  0  0  0  0
M  END
$$$$
