QCT.pdb
 OpenBabel07022418313D

 44 43  0  0  1  0  0  0  0  0999 V2000
   -3.3670   -4.9090   -2.5720 N   0  0  0  0  0  0  0  0  0  0  0  0
   -2.2010   -4.4900   -1.8760 C   0  0  0  0  0  0  0  0  0  0  0  0
   -2.1590   -4.7580   -0.6500 O   0  0  0  0  0  0  0  0  0  0  0  0
   -1.0920   -3.7850   -2.5220 C   0  0  0  0  0  0  0  0  0  0  0  0
    0.0020   -3.3430   -1.6000 C   0  0  0  0  0  0  0  0  0  0  0  0
   -0.4330   -2.3800   -0.5290 C   0  0  2  0  0  0  0  0  0  0  0  0
   -0.9630   -1.2080   -1.1960 N   0  0  0  0  0  0  0  0  0  0  0  0
    0.7820   -2.0210    0.2830 C   0  0  0  0  0  0  0  0  0  0  0  0
    1.3420   -2.9370    0.9190 O   0  0  0  0  0  0  0  0  0  0  0  0
   -4.2890   -4.8320   -2.0900 H   0  0  0  0  0  0  0  0  0  0  0  0
   -3.3430   -5.2910   -3.5440 H   0  0  0  0  0  0  0  0  0  0  0  0
   -1.4330   -2.9510   -3.1830 H   0  0  0  0  0  0  0  0  0  0  0  0
   -0.6060   -4.5110   -3.2390 H   0  0  0  0  0  0  0  0  0  0  0  0
    0.8910   -2.9580   -2.1580 H   0  0  0  0  0  0  0  0  0  0  0  0
    0.3930   -4.2870   -1.1130 H   0  0  0  0  0  0  0  0  0  0  0  0
   -1.2080   -2.8010    0.1060 H   0  0  0  0  0  0  0  0  0  0  0  0
   -1.9910   -1.1940   -1.2720 H   0  0  0  0  0  0  0  0  0  0  0  0
   -0.4580   -0.9820   -2.0790 H   0  0  0  0  0  0  0  0  0  0  0  0
    1.3060   -0.7200    0.3570 N   0  0  0  0  0  0  0  0  0  0  0  0
    2.4670   -0.4090    1.1410 C   0  0  1  0  0  0  0  0  0  0  0  0
    3.6060    0.0570    0.2550 C   0  0  0  0  0  0  0  0  0  0  0  0
    4.0130   -1.2600   -0.9090 S   0  0  0  0  0  0  0  0  0  0  0  0
    2.1820    0.5690    2.2190 C   0  0  0  0  0  0  0  0  0  0  0  0
    3.1360    0.9100    2.9660 O   0  0  0  0  0  0  0  0  0  0  0  0
    0.8430    0.0490   -0.1710 H   0  0  0  0  0  0  0  0  0  0  0  0
    2.8160   -1.3410    1.6290 H   0  0  0  0  0  0  0  0  0  0  0  0
    4.4540    0.3110    0.9250 H   0  0  0  0  0  0  0  0  0  0  0  0
    3.2450    0.9230   -0.3220 H   0  0  0  0  0  0  0  0  0  0  0  0
    5.4150   -1.5070   -0.9340 H   0  0  0  0  0  0  0  0  0  0  0  0
   -1.0480    3.4330    2.3780 C   0  0  0  0  0  0  0  0  0  0  0  0
    0.2960    3.4470    3.0730 C   0  0  1  0  0  0  0  0  0  0  0  0
    0.1450    4.2250    4.2360 O   0  0  0  0  0  0  0  0  0  0  0  0
    0.7280    2.0750    3.5210 C   0  0  2  0  0  0  0  0  0  0  0  0
    0.9310    1.1450    2.4730 N   0  0  0  0  0  0  0  0  0  0  0  0
   -0.2070    1.5990    4.5670 C   0  0  0  0  0  0  0  0  0  0  0  0
   -0.4690    2.3340    5.5480 O   0  0  0  0  0  0  0  0  0  0  0  0
   -0.8180    0.3580    4.5140 O   0  0  0  0  0  0  0  0  0  0  0  0
   -1.2620    2.4690    1.8870 H   0  0  0  0  0  0  0  0  0  0  0  0
   -1.0680    4.2890    1.6470 H   0  0  0  0  0  0  0  0  0  0  0  0
   -1.8880    3.6240    3.0770 H   0  0  0  0  0  0  0  0  0  0  0  0
    1.0830    3.9550    2.4760 H   0  0  0  0  0  0  0  0  0  0  0  0
    0.9940    4.4090    4.6800 H   0  0  0  0  0  0  0  0  0  0  0  0
    1.7060    2.2280    4.0450 H   0  0  0  0  0  0  0  0  0  0  0  0
    0.1190    0.8800    1.8680 H   0  0  0  0  0  0  0  0  0  0  0  0
  1 10  1  0  0  0  0
  1  2  1  0  0  0  0
  2  3  2  0  0  0  0
  4  2  1  0  0  0  0
  4  5  1  0  0  0  0
  5 15  1  0  0  0  0
  5  6  1  0  0  0  0
  6 16  1  1  0  0  0
  6  8  1  0  0  0  0
  7  6  1  0  0  0  0
  8 19  1  0  0  0  0
  8  9  2  0  0  0  0
 11  1  1  0  0  0  0
 12  4  1  0  0  0  0
 13  4  1  0  0  0  0
 14  5  1  0  0  0  0
 17  7  1  0  0  0  0
 18  7  1  0  0  0  0
 19 20  1  0  0  0  0
 20 26  1  1  0  0  0
 20 23  1  0  0  0  0
 21 27  1  0  0  0  0
 21 20  1  0  0  0  0
 22 21  1  0  0  0  0
 23 34  1  0  0  0  0
 23 24  2  0  0  0  0
 25 19  1  0  0  0  0
 28 21  1  0  0  0  0
 29 22  1  0  0  0  0
 30 31  1  0  0  0  0
 30 40  1  0  0  0  0
 31 41  1  6  0  0  0
 31 33  1  0  0  0  0
 31 32  1  0  0  0  0
 32 42  1  0  0  0  0
 33 43  1  1  0  0  0
 33 35  1  0  0  0  0
 34 33  1  0  0  0  0
 35 36  1  0  0  0  0
 37 35  2  0  0  0  0
 38 30  1  0  0  0  0
 39 30  1  0  0  0  0
 44 34  1  0  0  0  0
M  END
$$$$
