QCV.pdb
 OpenBabel07022418313D

 46 45  0  0  1  0  0  0  0  0999 V2000
    2.8360   -7.1050    1.7570 N   0  0  0  0  0  0  0  0  0  0  0  0
    2.9740   -5.6870    1.8930 C   0  0  0  0  0  0  0  0  0  0  0  0
    4.1000   -5.2420    2.1590 O   0  0  0  0  0  0  0  0  0  0  0  0
    1.7570   -4.8590    1.7050 C   0  0  0  0  0  0  0  0  0  0  0  0
    2.0840   -3.3910    1.8840 C   0  0  0  0  0  0  0  0  0  0  0  0
    0.8570   -2.5230    1.6970 C   0  0  2  0  0  0  0  0  0  0  0  0
    0.2800   -2.6620    0.3940 N   0  0  0  0  0  0  0  0  0  0  0  0
    1.3100   -1.1110    1.9500 C   0  0  0  0  0  0  0  0  0  0  0  0
    1.8430   -0.8120    3.0490 O   0  0  0  0  0  0  0  0  0  0  0  0
    2.3360   -7.6640    2.4840 H   0  0  0  0  0  0  0  0  0  0  0  0
    3.2520   -7.5420    0.9130 H   0  0  0  0  0  0  0  0  0  0  0  0
    1.0060   -5.2130    2.4150 H   0  0  0  0  0  0  0  0  0  0  0  0
    1.4100   -5.0320    0.6700 H   0  0  0  0  0  0  0  0  0  0  0  0
    2.9040   -3.1150    1.2030 H   0  0  0  0  0  0  0  0  0  0  0  0
    2.4530   -3.2770    2.9240 H   0  0  0  0  0  0  0  0  0  0  0  0
    0.1240   -2.8470    2.4570 H   0  0  0  0  0  0  0  0  0  0  0  0
   -0.7160   -2.9680    0.4650 H   0  0  0  0  0  0  0  0  0  0  0  0
    0.8060   -3.3030   -0.2270 H   0  0  0  0  0  0  0  0  0  0  0  0
    1.1650   -0.0810    0.9940 N   0  0  0  0  0  0  0  0  0  0  0  0
    1.6060    1.2750    1.2520 C   0  0  1  0  0  0  0  0  0  0  0  0
    2.6770    1.7260    0.2810 C   0  0  0  0  0  0  0  0  0  0  0  0
    2.1070    1.6880   -1.4260 S   0  0  0  0  0  0  0  0  0  0  0  0
    0.4210    2.1690    1.2090 C   0  0  0  0  0  0  0  0  0  0  0  0
    0.5210    3.4210    1.4000 O   0  0  0  0  0  0  0  0  0  0  0  0
    0.7300   -0.3130    0.0880 H   0  0  0  0  0  0  0  0  0  0  0  0
    2.0610    1.3650    2.2740 H   0  0  0  0  0  0  0  0  0  0  0  0
    2.9800    2.7440    0.5900 H   0  0  0  0  0  0  0  0  0  0  0  0
    3.5860    1.0960    0.3520 H   0  0  0  0  0  0  0  0  0  0  0  0
    2.8880    2.5240   -2.2330 H   0  0  0  0  0  0  0  0  0  0  0  0
   -3.2520    0.8340   -0.4570 C   0  0  0  0  0  0  0  0  0  0  0  0
   -2.8380    2.2800   -0.3810 C   0  0  0  0  0  0  0  0  0  0  0  0
   -2.0420    2.6380   -1.6080 C   0  0  0  0  0  0  0  0  0  0  0  0
   -2.0680    2.4810    0.8960 C   0  0  2  0  0  0  0  0  0  0  0  0
   -0.8780    1.6450    0.9480 N   0  0  0  0  0  0  0  0  0  0  0  0
   -2.9640    2.0460    2.0130 C   0  0  0  0  0  0  0  0  0  0  0  0
   -2.6510    1.1120    2.8010 O   0  0  0  0  0  0  0  0  0  0  0  0
   -4.1610    2.6920    2.1720 O   0  0  0  0  0  0  0  0  0  0  0  0
   -2.6180    0.3230   -1.2000 H   0  0  0  0  0  0  0  0  0  0  0  0
   -4.3110    0.7530   -0.7740 H   0  0  0  0  0  0  0  0  0  0  0  0
   -3.0770    0.3150    0.5140 H   0  0  0  0  0  0  0  0  0  0  0  0
   -3.7080    2.9680   -0.3470 H   0  0  0  0  0  0  0  0  0  0  0  0
   -2.4410    1.9940   -2.4410 H   0  0  0  0  0  0  0  0  0  0  0  0
   -1.0000    2.3460   -1.4620 H   0  0  0  0  0  0  0  0  0  0  0  0
   -2.1800    3.6790   -1.9320 H   0  0  0  0  0  0  0  0  0  0  0  0
   -1.8310    3.5420    1.0800 H   0  0  0  0  0  0  0  0  0  0  0  0
   -0.9400    0.6160    0.7940 H   0  0  0  0  0  0  0  0  0  0  0  0
  1  2  1  0  0  0  0
  1 10  1  0  0  0  0
  2  3  2  0  0  0  0
  4  5  1  0  0  0  0
  4  2  1  0  0  0  0
  4 12  1  0  0  0  0
  5 15  1  0  0  0  0
  6  5  1  0  0  0  0
  6  8  1  0  0  0  0
  6 16  1  1  0  0  0
  7 17  1  0  0  0  0
  7  6  1  0  0  0  0
  8  9  2  0  0  0  0
 11  1  1  0  0  0  0
 13  4  1  0  0  0  0
 14  5  1  0  0  0  0
 18  7  1  0  0  0  0
 19 20  1  0  0  0  0
 19  8  1  0  0  0  0
 20 26  1  1  0  0  0
 21 28  1  0  0  0  0
 21 27  1  0  0  0  0
 21 20  1  0  0  0  0
 22 21  1  0  0  0  0
 23 20  1  0  0  0  0
 23 24  2  0  0  0  0
 25 19  1  0  0  0  0
 29 22  1  0  0  0  0
 30 31  1  0  0  0  0
 30 40  1  0  0  0  0
 31 41  1  0  0  0  0
 31 33  1  0  0  0  0
 32 43  1  0  0  0  0
 32 31  1  0  0  0  0
 33 34  1  0  0  0  0
 33 45  1  1  0  0  0
 33 35  1  0  0  0  0
 34 23  1  0  0  0  0
 35 37  2  0  0  0  0
 35 36  1  0  0  0  0
 38 30  1  0  0  0  0
 39 30  1  0  0  0  0
 42 32  1  0  0  0  0
 44 32  1  0  0  0  0
 46 34  1  0  0  0  0
M  END
$$$$
