QDA.pdb
 OpenBabel07022418313D

 42 41  0  0  1  0  0  0  0  0999 V2000
   -3.8170   -3.7220    2.0350 N   0  0  0  0  0  0  0  0  0  0  0  0
   -2.6290   -3.1330    1.5330 C   0  0  0  0  0  0  0  0  0  0  0  0
   -1.6360   -3.0620    2.3110 O   0  0  0  0  0  0  0  0  0  0  0  0
   -2.5850   -2.6240    0.1270 C   0  0  0  0  0  0  0  0  0  0  0  0
   -1.2550   -1.9790   -0.0570 C   0  0  0  0  0  0  0  0  0  0  0  0
   -1.0000   -1.4070   -1.4290 C   0  0  2  0  0  0  0  0  0  0  0  0
   -1.0730   -2.4040   -2.4680 N   0  0  0  0  0  0  0  0  0  0  0  0
    0.4120   -0.9150   -1.3930 C   0  0  0  0  0  0  0  0  0  0  0  0
    1.2710   -1.4660   -2.1520 O   0  0  0  0  0  0  0  0  0  0  0  0
   -3.9000   -4.0710    3.0230 H   0  0  0  0  0  0  0  0  0  0  0  0
   -4.6810   -3.8450    1.4530 H   0  0  0  0  0  0  0  0  0  0  0  0
   -3.4630   -1.9580    0.0160 H   0  0  0  0  0  0  0  0  0  0  0  0
   -2.6530   -3.5190   -0.5710 H   0  0  0  0  0  0  0  0  0  0  0  0
   -0.4550   -2.6870    0.2330 H   0  0  0  0  0  0  0  0  0  0  0  0
   -1.1880   -1.1380    0.6690 H   0  0  0  0  0  0  0  0  0  0  0  0
   -1.6930   -0.5740   -1.6340 H   0  0  0  0  0  0  0  0  0  0  0  0
   -1.9540   -2.4710   -2.9780 H   0  0  0  0  0  0  0  0  0  0  0  0
   -0.5720   -3.2740   -2.2790 H   0  0  0  0  0  0  0  0  0  0  0  0
    0.8190    0.1520   -0.5300 N   0  0  0  0  0  0  0  0  0  0  0  0
    2.1800    0.5590   -0.5440 C   0  0  1  0  0  0  0  0  0  0  0  0
    2.4110    1.9440   -1.1440 C   0  0  0  0  0  0  0  0  0  0  0  0
    1.6720    2.9770   -0.3880 C   0  0  0  0  0  0  0  0  0  0  0  0
    0.4670    2.7980   -0.1190 O   0  0  0  0  0  0  0  0  0  0  0  0
    2.7100    0.5330    0.8570 C   0  0  0  0  0  0  0  0  0  0  0  0
    3.9080    0.8290    1.1100 O   0  0  0  0  0  0  0  0  0  0  0  0
    2.3070    4.1250    0.0200 O   0  0  0  0  0  0  0  0  0  0  0  0
    0.0550    0.5500    0.0550 H   0  0  0  0  0  0  0  0  0  0  0  0
    2.7680   -0.1280   -1.1850 H   0  0  0  0  0  0  0  0  0  0  0  0
    2.1110    1.9210   -2.2120 H   0  0  0  0  0  0  0  0  0  0  0  0
    3.4940    2.1690   -1.1260 H   0  0  0  0  0  0  0  0  0  0  0  0
    1.7780    4.8540    0.4710 H   0  0  0  0  0  0  0  0  0  0  0  0
    1.7100    1.2390    4.1440 C   0  0  0  0  0  0  0  0  0  0  0  0
    2.3470    0.1440    3.3160 C   0  0  2  0  0  0  0  0  0  0  0  0
    1.8950    0.1790    1.9430 N   0  0  0  0  0  0  0  0  0  0  0  0
    2.1390   -1.1950    3.8660 C   0  0  0  0  0  0  0  0  0  0  0  0
    2.4700   -1.4480    5.0440 O   0  0  0  0  0  0  0  0  0  0  0  0
    1.5780   -2.1970    3.1020 O   0  0  0  0  0  0  0  0  0  0  0  0
    1.8980    0.9820    5.2140 H   0  0  0  0  0  0  0  0  0  0  0  0
    2.2370    2.1800    3.9410 H   0  0  0  0  0  0  0  0  0  0  0  0
    0.6070    1.2790    4.0150 H   0  0  0  0  0  0  0  0  0  0  0  0
    3.4490    0.3990    3.2880 H   0  0  0  0  0  0  0  0  0  0  0  0
    0.8940   -0.0810    1.7940 H   0  0  0  0  0  0  0  0  0  0  0  0
  1 10  1  0  0  0  0
  2  1  1  0  0  0  0
  2  3  2  0  0  0  0
  4  2  1  0  0  0  0
  5  4  1  0  0  0  0
  5 14  1  0  0  0  0
  5 15  1  0  0  0  0
  6 16  1  6  0  0  0
  6  8  1  0  0  0  0
  6  5  1  0  0  0  0
  7 18  1  0  0  0  0
  7  6  1  0  0  0  0
  8 19  1  0  0  0  0
  9  8  2  0  0  0  0
 11  1  1  0  0  0  0
 12  4  1  0  0  0  0
 13  4  1  0  0  0  0
 17  7  1  0  0  0  0
 19 27  1  0  0  0  0
 20 28  1  6  0  0  0
 20 19  1  0  0  0  0
 20 24  1  0  0  0  0
 21 30  1  0  0  0  0
 21 20  1  0  0  0  0
 21 22  1  0  0  0  0
 22 23  2  0  0  0  0
 22 26  1  0  0  0  0
 24 25  2  0  0  0  0
 24 34  1  0  0  0  0
 26 31  1  0  0  0  0
 29 21  1  0  0  0  0
 32 38  1  0  0  0  0
 33 41  1  6  0  0  0
 33 35  1  0  0  0  0
 33 32  1  0  0  0  0
 34 33  1  0  0  0  0
 35 36  1  0  0  0  0
 37 35  2  0  0  0  0
 39 32  1  0  0  0  0
 40 32  1  0  0  0  0
 42 34  1  0  0  0  0
M  END
$$$$
