QDC.pdb
 OpenBabel07022418313D

 43 42  0  0  1  0  0  0  0  0999 V2000
   -0.7830   -4.5880   -0.6960 N   0  0  0  0  0  0  0  0  0  0  0  0
    0.4510   -4.5370    0.0050 C   0  0  0  0  0  0  0  0  0  0  0  0
    1.4670   -4.9600   -0.5960 O   0  0  0  0  0  0  0  0  0  0  0  0
    0.5080   -4.0030    1.3860 C   0  0  0  0  0  0  0  0  0  0  0  0
    1.8710   -3.9450    1.9700 C   0  0  0  0  0  0  0  0  0  0  0  0
    2.8780   -3.1010    1.2650 C   0  0  2  0  0  0  0  0  0  0  0  0
    4.1110   -3.1960    1.9950 N   0  0  0  0  0  0  0  0  0  0  0  0
    2.5370   -1.6580    1.1910 C   0  0  0  0  0  0  0  0  0  0  0  0
    3.1850   -0.8210    1.9170 O   0  0  0  0  0  0  0  0  0  0  0  0
   -1.3670   -3.7560   -0.9030 H   0  0  0  0  0  0  0  0  0  0  0  0
   -1.1080   -5.5310   -1.0160 H   0  0  0  0  0  0  0  0  0  0  0  0
   -0.0740   -4.7320    2.0420 H   0  0  0  0  0  0  0  0  0  0  0  0
   -0.0440   -3.0450    1.4060 H   0  0  0  0  0  0  0  0  0  0  0  0
    1.8820   -3.7000    3.0510 H   0  0  0  0  0  0  0  0  0  0  0  0
    2.2780   -5.0010    1.9280 H   0  0  0  0  0  0  0  0  0  0  0  0
    3.0690   -3.5360    0.2630 H   0  0  0  0  0  0  0  0  0  0  0  0
    4.0590   -3.6750    2.8940 H   0  0  0  0  0  0  0  0  0  0  0  0
    4.9570   -3.2450    1.4560 H   0  0  0  0  0  0  0  0  0  0  0  0
    1.5330   -1.0980    0.3680 N   0  0  0  0  0  0  0  0  0  0  0  0
    1.2210    0.3350    0.3180 C   0  0  1  0  0  0  0  0  0  0  0  0
    1.6230    0.8930   -1.0250 C   0  0  0  0  0  0  0  0  0  0  0  0
    1.3610    2.3250   -1.2130 C   0  0  0  0  0  0  0  0  0  0  0  0
    0.3270    2.7130   -1.8250 O   0  0  0  0  0  0  0  0  0  0  0  0
   -0.1940    0.5020    0.6540 C   0  0  0  0  0  0  0  0  0  0  0  0
   -0.9140   -0.5350    0.7810 O   0  0  0  0  0  0  0  0  0  0  0  0
    2.2050    3.3280   -0.7470 O   0  0  0  0  0  0  0  0  0  0  0  0
    0.9850   -1.7170   -0.2450 H   0  0  0  0  0  0  0  0  0  0  0  0
    1.9270    0.8010    1.0570 H   0  0  0  0  0  0  0  0  0  0  0  0
    2.6850    0.7090   -1.2490 H   0  0  0  0  0  0  0  0  0  0  0  0
    1.0120    0.3290   -1.7840 H   0  0  0  0  0  0  0  0  0  0  0  0
    2.2740    4.2300   -1.2060 H   0  0  0  0  0  0  0  0  0  0  0  0
   -0.8760    1.7280    0.8650 N   0  0  0  0  0  0  0  0  0  0  0  0
   -2.2740    1.8100    1.1940 C   0  0  1  0  0  0  0  0  0  0  0  0
   -2.3260    2.4080    2.6090 C   0  0  0  0  0  0  0  0  0  0  0  0
   -1.5470    4.0310    2.5640 S   0  0  0  0  0  0  0  0  0  0  0  0
   -3.0490    2.6840    0.2880 C   0  0  0  0  0  0  0  0  0  0  0  0
   -4.3050    2.8080    0.5000 O   0  0  0  0  0  0  0  0  0  0  0  0
   -2.4870    3.3710   -0.7680 O   0  0  0  0  0  0  0  0  0  0  0  0
   -0.3230    2.6050    0.7840 H   0  0  0  0  0  0  0  0  0  0  0  0
   -2.7690    0.8190    1.2120 H   0  0  0  0  0  0  0  0  0  0  0  0
   -3.3810    2.4390    2.9690 H   0  0  0  0  0  0  0  0  0  0  0  0
   -1.7850    1.6820    3.2480 H   0  0  0  0  0  0  0  0  0  0  0  0
   -2.3620    5.0240    3.1480 H   0  0  0  0  0  0  0  0  0  0  0  0
  1  2  1  0  0  0  0
  2  4  1  0  0  0  0
  3  2  2  0  0  0  0
  4 13  1  0  0  0  0
  4  5  1  0  0  0  0
  4 12  1  0  0  0  0
  5 14  1  0  0  0  0
  6 16  1  6  0  0  0
  6  5  1  0  0  0  0
  6  7  1  0  0  0  0
  7 17  1  0  0  0  0
  8  6  1  0  0  0  0
  8  9  2  0  0  0  0
 10  1  1  0  0  0  0
 11  1  1  0  0  0  0
 15  5  1  0  0  0  0
 18  7  1  0  0  0  0
 19  8  1  0  0  0  0
 20 19  1  0  0  0  0
 20 24  1  0  0  0  0
 20 28  1  1  0  0  0
 21 20  1  0  0  0  0
 22 21  1  0  0  0  0
 22 26  1  0  0  0  0
 23 22  2  0  0  0  0
 24 25  2  0  0  0  0
 24 32  1  0  0  0  0
 27 19  1  0  0  0  0
 29 21  1  0  0  0  0
 30 21  1  0  0  0  0
 31 26  1  0  0  0  0
 32 33  1  0  0  0  0
 33 40  1  1  0  0  0
 33 34  1  0  0  0  0
 34 41  1  0  0  0  0
 34 42  1  0  0  0  0
 35 34  1  0  0  0  0
 35 43  1  0  0  0  0
 36 37  1  0  0  0  0
 36 33  1  0  0  0  0
 38 36  2  0  0  0  0
 39 32  1  0  0  0  0
M  END
$$$$
