QDF.pdb
 OpenBabel07022418313D

 52 52  0  0  1  0  0  0  0  0999 V2000
    1.2260   -4.3110    3.2550 N   0  0  0  0  0  0  0  0  0  0  0  0
    2.1370   -3.5560    2.4470 C   0  0  0  0  0  0  0  0  0  0  0  0
    3.3520   -3.7000    2.7030 O   0  0  0  0  0  0  0  0  0  0  0  0
    1.5960   -2.6970    1.4090 C   0  0  0  0  0  0  0  0  0  0  0  0
    2.4950   -1.7180    0.7650 C   0  0  0  0  0  0  0  0  0  0  0  0
    3.0880   -0.6560    1.6140 C   0  0  2  0  0  0  0  0  0  0  0  0
    3.8840   -1.1920    2.6620 N   0  0  0  0  0  0  0  0  0  0  0  0
    2.0440    0.2530    2.1940 C   0  0  0  0  0  0  0  0  0  0  0  0
    2.0180    0.4050    3.4390 O   0  0  0  0  0  0  0  0  0  0  0  0
    1.2580   -5.3520    3.3250 H   0  0  0  0  0  0  0  0  0  0  0  0
    0.5100   -3.8000    3.7870 H   0  0  0  0  0  0  0  0  0  0  0  0
    0.6550   -2.1890    1.7490 H   0  0  0  0  0  0  0  0  0  0  0  0
    1.2310   -3.3890    0.5870 H   0  0  0  0  0  0  0  0  0  0  0  0
    1.9430   -1.2610   -0.0970 H   0  0  0  0  0  0  0  0  0  0  0  0
    3.3420   -2.2690    0.2570 H   0  0  0  0  0  0  0  0  0  0  0  0
    3.7870   -0.0440    0.9600 H   0  0  0  0  0  0  0  0  0  0  0  0
    4.8990   -1.1310    2.5270 H   0  0  0  0  0  0  0  0  0  0  0  0
    3.6330   -0.8900    3.6130 H   0  0  0  0  0  0  0  0  0  0  0  0
    1.0970    0.9390    1.4160 N   0  0  0  0  0  0  0  0  0  0  0  0
    0.1040    1.8080    2.0070 C   0  0  1  0  0  0  0  0  0  0  0  0
    0.2620    3.2490    1.6090 C   0  0  0  0  0  0  0  0  0  0  0  0
    0.1600    3.4840    0.1630 C   0  0  0  0  0  0  0  0  0  0  0  0
   -0.0390    2.6010   -0.7020 O   0  0  0  0  0  0  0  0  0  0  0  0
   -1.2690    1.3370    1.6840 C   0  0  0  0  0  0  0  0  0  0  0  0
   -2.2820    1.9620    2.0980 O   0  0  0  0  0  0  0  0  0  0  0  0
    0.2940    4.7880   -0.2870 O   0  0  0  0  0  0  0  0  0  0  0  0
    1.1010    0.8250    0.3720 H   0  0  0  0  0  0  0  0  0  0  0  0
    0.2800    1.7830    3.1210 H   0  0  0  0  0  0  0  0  0  0  0  0
   -0.5840    3.8020    2.1040 H   0  0  0  0  0  0  0  0  0  0  0  0
    1.1800    3.7070    2.0030 H   0  0  0  0  0  0  0  0  0  0  0  0
    0.6650    5.0350   -1.2020 H   0  0  0  0  0  0  0  0  0  0  0  0
   -1.5320    0.1750    0.9030 N   0  0  0  0  0  0  0  0  0  0  0  0
   -2.8880   -0.2480    0.6120 C   0  0  1  0  0  0  0  0  0  0  0  0
   -3.1800   -0.2820   -0.8560 C   0  0  0  0  0  0  0  0  0  0  0  0
   -2.3290   -1.1860   -1.6340 C   0  0  0  0  0  0  0  0  0  0  0  0
   -1.1460   -0.7070   -2.1630 C   0  0  0  0  0  0  0  0  0  0  0  0
   -0.3410   -1.5400   -2.8940 C   0  0  0  0  0  0  0  0  0  0  0  0
   -0.6650   -2.8610   -3.1300 C   0  0  0  0  0  0  0  0  0  0  0  0
   -1.8520   -3.3080   -2.5890 C   0  0  0  0  0  0  0  0  0  0  0  0
   -2.6830   -2.4870   -1.8480 C   0  0  0  0  0  0  0  0  0  0  0  0
   -3.0590   -1.5970    1.2070 C   0  0  0  0  0  0  0  0  0  0  0  0
   -2.1380   -2.1950    1.8230 O   0  0  0  0  0  0  0  0  0  0  0  0
   -4.2710   -2.2620    1.1000 O   0  0  0  0  0  0  0  0  0  0  0  0
   -0.7330   -0.3750    0.5370 H   0  0  0  0  0  0  0  0  0  0  0  0
   -3.6020    0.4790    1.0710 H   0  0  0  0  0  0  0  0  0  0  0  0
   -3.2270    0.7370   -1.2990 H   0  0  0  0  0  0  0  0  0  0  0  0
   -4.2350   -0.6740   -0.9520 H   0  0  0  0  0  0  0  0  0  0  0  0
   -0.8210    0.3230   -2.0200 H   0  0  0  0  0  0  0  0  0  0  0  0
    0.5880   -1.1760   -3.3120 H   0  0  0  0  0  0  0  0  0  0  0  0
   -0.0380   -3.5270   -3.7050 H   0  0  0  0  0  0  0  0  0  0  0  0
   -2.1110   -4.3480   -2.7730 H   0  0  0  0  0  0  0  0  0  0  0  0
   -3.5950   -2.9360   -1.4680 H   0  0  0  0  0  0  0  0  0  0  0  0
  1 10  1  0  0  0  0
  1 11  1  0  0  0  0
  2  3  2  0  0  0  0
  2  1  1  0  0  0  0
  4 12  1  0  0  0  0
  4  2  1  0  0  0  0
  5  4  1  0  0  0  0
  5  6  1  0  0  0  0
  6 16  1  6  0  0  0
  6  8  1  0  0  0  0
  6  7  1  0  0  0  0
  7 18  1  0  0  0  0
  8  9  2  0  0  0  0
 13  4  1  0  0  0  0
 14  5  1  0  0  0  0
 15  5  1  0  0  0  0
 17  7  1  0  0  0  0
 19 20  1  0  0  0  0
 19  8  1  0  0  0  0
 20 28  1  1  0  0  0
 21 30  1  0  0  0  0
 21 20  1  0  0  0  0
 21 29  1  0  0  0  0
 22 21  1  0  0  0  0
 23 22  2  0  0  0  0
 24 20  1  0  0  0  0
 24 25  2  0  0  0  0
 26 22  1  0  0  0  0
 27 19  1  0  0  0  0
 31 26  1  0  0  0  0
 32 24  1  0  0  0  0
 33 32  1  0  0  0  0
 33 45  1  1  0  0  0
 33 41  1  0  0  0  0
 34 33  1  0  0  0  0
 35 34  1  0  0  0  0
 36 48  1  0  0  0  0
 36 35  2  0  0  0  0
 37 36  1  0  0  0  0
 38 37  2  0  0  0  0
 38 39  1  0  0  0  0
 39 40  2  0  0  0  0
 40 35  1  0  0  0  0
 40 52  1  0  0  0  0
 41 42  1  0  0  0  0
 43 41  2  0  0  0  0
 44 32  1  0  0  0  0
 46 34  1  0  0  0  0
 47 34  1  0  0  0  0
 49 37  1  0  0  0  0
 50 38  1  0  0  0  0
 51 39  1  0  0  0  0
M  END
$$$$
