QDG.pdb
 OpenBabel07022418313D

 39 38  0  0  1  0  0  0  0  0999 V2000
   -0.0510   -5.5210    2.7130 N   0  0  0  0  0  0  0  0  0  0  0  0
    0.2980   -4.1940    2.3670 C   0  0  0  0  0  0  0  0  0  0  0  0
    0.3090   -3.3200    3.2610 O   0  0  0  0  0  0  0  0  0  0  0  0
    0.6440   -3.8300    0.9940 C   0  0  0  0  0  0  0  0  0  0  0  0
    0.9830   -2.3670    0.8390 C   0  0  0  0  0  0  0  0  0  0  0  0
    1.3260   -2.0770   -0.6030 C   0  0  2  0  0  0  0  0  0  0  0  0
    2.4650   -2.8680   -1.0260 N   0  0  0  0  0  0  0  0  0  0  0  0
    1.5060   -0.6530   -0.8840 C   0  0  0  0  0  0  0  0  0  0  0  0
    2.5050   -0.1390   -1.4260 O   0  0  0  0  0  0  0  0  0  0  0  0
   -1.0270   -5.9060    2.5400 H   0  0  0  0  0  0  0  0  0  0  0  0
    0.6490   -6.1770    3.1570 H   0  0  0  0  0  0  0  0  0  0  0  0
   -0.1250   -4.1600    0.2670 H   0  0  0  0  0  0  0  0  0  0  0  0
    1.5790   -4.4030    0.7280 H   0  0  0  0  0  0  0  0  0  0  0  0
    1.9260   -2.2060    1.4380 H   0  0  0  0  0  0  0  0  0  0  0  0
    0.2430   -1.6860    1.2520 H   0  0  0  0  0  0  0  0  0  0  0  0
    0.4570   -2.4380   -1.2240 H   0  0  0  0  0  0  0  0  0  0  0  0
    3.2400   -2.6640   -0.3580 H   0  0  0  0  0  0  0  0  0  0  0  0
    2.7900   -2.5080   -1.9540 H   0  0  0  0  0  0  0  0  0  0  0  0
    0.4520    0.2410   -0.5120 N   0  0  0  0  0  0  0  0  0  0  0  0
    0.5020    1.6560   -0.7320 C   0  0  1  0  0  0  0  0  0  0  0  0
   -0.5000    2.0000   -1.8070 C   0  0  0  0  0  0  0  0  0  0  0  0
   -1.8870    1.6570   -1.4850 C   0  0  0  0  0  0  0  0  0  0  0  0
   -2.2950    1.1350   -0.4260 O   0  0  0  0  0  0  0  0  0  0  0  0
    0.3760    2.4620    0.4690 C   0  0  0  0  0  0  0  0  0  0  0  0
    0.4060    3.7140    0.3950 O   0  0  0  0  0  0  0  0  0  0  0  0
   -2.8780    1.9340   -2.4450 O   0  0  0  0  0  0  0  0  0  0  0  0
   -0.4000   -0.1460   -0.0560 H   0  0  0  0  0  0  0  0  0  0  0  0
    1.5070    1.8560   -1.2170 H   0  0  0  0  0  0  0  0  0  0  0  0
   -0.2130    1.3660   -2.6980 H   0  0  0  0  0  0  0  0  0  0  0  0
   -0.3750    3.0450   -2.1610 H   0  0  0  0  0  0  0  0  0  0  0  0
   -3.7640    1.4470   -2.3900 H   0  0  0  0  0  0  0  0  0  0  0  0
    0.2160    1.8860    1.7530 N   0  0  0  0  0  0  0  0  0  0  0  0
    0.0910    2.7120    2.9460 C   0  0  0  0  0  0  0  0  0  0  0  0
   -0.0660    1.8780    4.1600 C   0  0  0  0  0  0  0  0  0  0  0  0
   -0.1910    2.3860    5.3030 O   0  0  0  0  0  0  0  0  0  0  0  0
   -0.0810    0.4880    4.0870 O   0  0  0  0  0  0  0  0  0  0  0  0
    0.1820    0.8500    1.8820 H   0  0  0  0  0  0  0  0  0  0  0  0
   -0.8370    3.3430    2.8670 H   0  0  0  0  0  0  0  0  0  0  0  0
    0.9270    3.4370    3.0240 H   0  0  0  0  0  0  0  0  0  0  0  0
  1 11  1  0  0  0  0
  2  1  1  0  0  0  0
  2  3  2  0  0  0  0
  4  2  1  0  0  0  0
  5  4  1  0  0  0  0
  5 15  1  0  0  0  0
  5 14  1  0  0  0  0
  6 16  1  6  0  0  0
  6  5  1  0  0  0  0
  7  6  1  0  0  0  0
  7 17  1  0  0  0  0
  8  6  1  0  0  0  0
  8 19  1  0  0  0  0
  9  8  2  0  0  0  0
 10  1  1  0  0  0  0
 12  4  1  0  0  0  0
 13  4  1  0  0  0  0
 18  7  1  0  0  0  0
 19 27  1  0  0  0  0
 20 28  1  6  0  0  0
 20 19  1  0  0  0  0
 20 24  1  0  0  0  0
 21 22  1  0  0  0  0
 21 20  1  0  0  0  0
 22 23  2  0  0  0  0
 24 32  1  0  0  0  0
 25 24  2  0  0  0  0
 26 31  1  0  0  0  0
 26 22  1  0  0  0  0
 29 21  1  0  0  0  0
 30 21  1  0  0  0  0
 32 37  1  0  0  0  0
 32 33  1  0  0  0  0
 33 39  1  0  0  0  0
 33 34  1  0  0  0  0
 34 35  1  0  0  0  0
 36 34  2  0  0  0  0
 38 33  1  0  0  0  0
M  END
$$$$
