QDL.pdb
 OpenBabel07022418313D

 51 50  0  0  1  0  0  0  0  0999 V2000
    4.4640   -3.3750    2.7490 N   0  0  0  0  0  0  0  0  0  0  0  0
    4.6430   -1.9480    2.7590 C   0  0  0  0  0  0  0  0  0  0  0  0
    5.2530   -1.4630    3.7250 O   0  0  0  0  0  0  0  0  0  0  0  0
    4.0970   -1.1490    1.6310 C   0  0  0  0  0  0  0  0  0  0  0  0
    4.3910    0.3050    1.9120 C   0  0  0  0  0  0  0  0  0  0  0  0
    3.8870    1.2210    0.8530 C   0  0  2  0  0  0  0  0  0  0  0  0
    4.2350    2.5890    1.2080 N   0  0  0  0  0  0  0  0  0  0  0  0
    2.4250    1.2140    0.6610 C   0  0  0  0  0  0  0  0  0  0  0  0
    1.9820    1.6600   -0.4230 O   0  0  0  0  0  0  0  0  0  0  0  0
    4.4400   -3.8520    1.8080 H   0  0  0  0  0  0  0  0  0  0  0  0
    4.3620   -3.9240    3.6250 H   0  0  0  0  0  0  0  0  0  0  0  0
    3.0490   -1.4010    1.4980 H   0  0  0  0  0  0  0  0  0  0  0  0
    4.6390   -1.4210    0.6970 H   0  0  0  0  0  0  0  0  0  0  0  0
    5.4940    0.4180    1.9510 H   0  0  0  0  0  0  0  0  0  0  0  0
    4.0120    0.5890    2.9230 H   0  0  0  0  0  0  0  0  0  0  0  0
    4.4350    0.9770   -0.0870 H   0  0  0  0  0  0  0  0  0  0  0  0
    4.0840    3.2080    0.3640 H   0  0  0  0  0  0  0  0  0  0  0  0
    3.5640    2.8770    1.9680 H   0  0  0  0  0  0  0  0  0  0  0  0
    1.5880    0.7170    1.6860 N   0  0  0  0  0  0  0  0  0  0  0  0
    0.1130    0.7070    1.4780 C   0  0  1  0  0  0  0  0  0  0  0  0
   -0.3600    2.1220    1.3870 C   0  0  0  0  0  0  0  0  0  0  0  0
   -1.8020    2.2450    1.1760 C   0  0  0  0  0  0  0  0  0  0  0  0
   -2.2680    2.4840    0.0410 O   0  0  0  0  0  0  0  0  0  0  0  0
   -0.2040   -0.1550    0.3250 C   0  0  0  0  0  0  0  0  0  0  0  0
    0.7320   -0.6400   -0.4100 O   0  0  0  0  0  0  0  0  0  0  0  0
   -2.6700    2.0970    2.2390 O   0  0  0  0  0  0  0  0  0  0  0  0
    1.9270    0.3510    2.6050 H   0  0  0  0  0  0  0  0  0  0  0  0
   -0.3610    0.2400    2.3660 H   0  0  0  0  0  0  0  0  0  0  0  0
   -0.1510    2.5780    2.4010 H   0  0  0  0  0  0  0  0  0  0  0  0
    0.2370    2.7340    0.6750 H   0  0  0  0  0  0  0  0  0  0  0  0
   -3.6780    2.1040    2.0890 H   0  0  0  0  0  0  0  0  0  0  0  0
   -3.7730   -4.2630    0.2730 C   0  0  0  0  0  0  0  0  0  0  0  0
   -3.5080   -2.7710   -0.0260 C   0  0  0  0  0  0  0  0  0  0  0  0
   -4.7320   -2.3000   -0.7610 C   0  0  0  0  0  0  0  0  0  0  0  0
   -2.2460   -2.7310   -0.8130 C   0  0  0  0  0  0  0  0  0  0  0  0
   -1.7520   -1.3860   -1.2250 C   0  0  2  0  0  0  0  0  0  0  0  0
   -1.5110   -0.5240   -0.0700 N   0  0  0  0  0  0  0  0  0  0  0  0
   -2.6330   -0.7650   -2.1980 C   0  0  0  0  0  0  0  0  0  0  0  0
   -3.1530    0.3780   -2.0040 O   0  0  0  0  0  0  0  0  0  0  0  0
   -2.9490   -1.3960   -3.3970 O   0  0  0  0  0  0  0  0  0  0  0  0
   -4.4310   -4.6850   -0.4940 H   0  0  0  0  0  0  0  0  0  0  0  0
   -2.7910   -4.7980    0.3570 H   0  0  0  0  0  0  0  0  0  0  0  0
   -4.2680   -4.3230    1.2640 H   0  0  0  0  0  0  0  0  0  0  0  0
   -3.4110   -2.2690    0.9730 H   0  0  0  0  0  0  0  0  0  0  0  0
   -4.7540   -2.5960   -1.8060 H   0  0  0  0  0  0  0  0  0  0  0  0
   -4.9150   -1.2080   -0.6780 H   0  0  0  0  0  0  0  0  0  0  0  0
   -5.6150   -2.8260   -0.2840 H   0  0  0  0  0  0  0  0  0  0  0  0
   -2.4170   -3.3900   -1.7140 H   0  0  0  0  0  0  0  0  0  0  0  0
   -1.4660   -3.2660   -0.1950 H   0  0  0  0  0  0  0  0  0  0  0  0
   -0.7290   -1.5580   -1.7070 H   0  0  0  0  0  0  0  0  0  0  0  0
   -2.3310   -0.1690    0.4970 H   0  0  0  0  0  0  0  0  0  0  0  0
  1  2  1  0  0  0  0
  1 11  1  0  0  0  0
  2  3  2  0  0  0  0
  4  5  1  0  0  0  0
  4  2  1  0  0  0  0
  5 14  1  0  0  0  0
  5 15  1  0  0  0  0
  6 16  1  6  0  0  0
  6  7  1  0  0  0  0
  6  5  1  0  0  0  0
  7 18  1  0  0  0  0
  8  6  1  0  0  0  0
  8 19  1  0  0  0  0
  9  8  2  0  0  0  0
 10  1  1  0  0  0  0
 12  4  1  0  0  0  0
 13  4  1  0  0  0  0
 17  7  1  0  0  0  0
 19 27  1  0  0  0  0
 20 19  1  0  0  0  0
 20 28  1  1  0  0  0
 21 20  1  0  0  0  0
 21 29  1  0  0  0  0
 22 21  1  0  0  0  0
 22 26  1  0  0  0  0
 23 22  2  0  0  0  0
 24 20  1  0  0  0  0
 25 24  2  0  0  0  0
 30 21  1  0  0  0  0
 31 26  1  0  0  0  0
 32 42  1  0  0  0  0
 32 43  1  0  0  0  0
 33 32  1  0  0  0  0
 33 44  1  0  0  0  0
 34 46  1  0  0  0  0
 34 47  1  0  0  0  0
 34 33  1  0  0  0  0
 35 49  1  0  0  0  0
 35 33  1  0  0  0  0
 36 50  1  6  0  0  0
 36 35  1  0  0  0  0
 36 37  1  0  0  0  0
 37 24  1  0  0  0  0
 37 51  1  0  0  0  0
 38 39  1  0  0  0  0
 38 36  1  0  0  0  0
 40 38  2  0  0  0  0
 41 32  1  0  0  0  0
 45 34  1  0  0  0  0
 48 35  1  0  0  0  0
M  END
$$$$
