QDM.pdb
 OpenBabel07022418313D

 49 48  0  0  1  0  0  0  0  0999 V2000
   -0.2240   -4.3970    3.6700 N   0  0  0  0  0  0  0  0  0  0  0  0
    0.9110   -3.5540    3.5230 C   0  0  0  0  0  0  0  0  0  0  0  0
    1.7820   -3.5480    4.4090 O   0  0  0  0  0  0  0  0  0  0  0  0
    1.0960   -2.6700    2.3370 C   0  0  0  0  0  0  0  0  0  0  0  0
    2.3630   -1.9040    2.4540 C   0  0  0  0  0  0  0  0  0  0  0  0
    2.6590   -0.9810    1.3340 C   0  0  2  0  0  0  0  0  0  0  0  0
    3.9450   -0.3020    1.5660 N   0  0  0  0  0  0  0  0  0  0  0  0
    1.6260    0.0050    1.0080 C   0  0  0  0  0  0  0  0  0  0  0  0
    1.4710    0.5220   -0.1160 O   0  0  0  0  0  0  0  0  0  0  0  0
   -0.0930   -5.4350    3.7180 H   0  0  0  0  0  0  0  0  0  0  0  0
   -1.2040   -4.0120    3.7340 H   0  0  0  0  0  0  0  0  0  0  0  0
    0.1760   -2.1090    2.2100 H   0  0  0  0  0  0  0  0  0  0  0  0
    1.1920   -3.3950    1.4690 H   0  0  0  0  0  0  0  0  0  0  0  0
    3.1890   -2.6510    2.5890 H   0  0  0  0  0  0  0  0  0  0  0  0
    2.3530   -1.3490    3.4380 H   0  0  0  0  0  0  0  0  0  0  0  0
    2.8390   -1.6200    0.4210 H   0  0  0  0  0  0  0  0  0  0  0  0
    4.2870    0.1310    0.6830 H   0  0  0  0  0  0  0  0  0  0  0  0
    3.9070    0.3350    2.3730 H   0  0  0  0  0  0  0  0  0  0  0  0
    0.7290    0.4120    2.0430 N   0  0  0  0  0  0  0  0  0  0  0  0
   -0.3310    1.3480    1.8990 C   0  0  1  0  0  0  0  0  0  0  0  0
    0.1800    2.7500    2.0890 C   0  0  0  0  0  0  0  0  0  0  0  0
    1.2190    3.0770    1.1120 C   0  0  0  0  0  0  0  0  0  0  0  0
    2.4350    2.9060    1.4660 O   0  0  0  0  0  0  0  0  0  0  0  0
   -1.2960    1.1590    0.8400 C   0  0  0  0  0  0  0  0  0  0  0  0
   -2.1070    2.1210    0.6170 O   0  0  0  0  0  0  0  0  0  0  0  0
    0.9440    3.5550   -0.1570 O   0  0  0  0  0  0  0  0  0  0  0  0
    0.8750   -0.0150    3.0150 H   0  0  0  0  0  0  0  0  0  0  0  0
   -0.9510    1.1780    2.9030 H   0  0  0  0  0  0  0  0  0  0  0  0
   -0.7040    3.4230    2.0170 H   0  0  0  0  0  0  0  0  0  0  0  0
    0.6050    2.7840    3.1290 H   0  0  0  0  0  0  0  0  0  0  0  0
    1.6140    4.1310   -0.6580 H   0  0  0  0  0  0  0  0  0  0  0  0
    1.3600   -1.5550   -2.5250 C   0  0  0  0  0  0  0  0  0  0  0  0
   -0.0510   -2.3440   -1.6970 S   0  0  0  0  0  0  0  0  0  0  0  0
   -1.5980   -1.9310   -2.4600 C   0  0  0  0  0  0  0  0  0  0  0  0
   -2.1070   -0.5580   -2.3200 C   0  0  0  0  0  0  0  0  0  0  0  0
   -2.4700   -0.0510   -0.9920 C   0  0  2  0  0  0  0  0  0  0  0  0
   -1.4420    0.0120    0.0280 N   0  0  0  0  0  0  0  0  0  0  0  0
   -3.6270   -0.8000   -0.3920 C   0  0  0  0  0  0  0  0  0  0  0  0
   -3.5280   -1.2070    0.7720 O   0  0  0  0  0  0  0  0  0  0  0  0
   -4.7780   -1.0370   -1.1030 O   0  0  0  0  0  0  0  0  0  0  0  0
    2.2390   -1.6770   -1.8750 H   0  0  0  0  0  0  0  0  0  0  0  0
    1.5980   -2.0480   -3.4890 H   0  0  0  0  0  0  0  0  0  0  0  0
    1.1400   -0.4960   -2.6350 H   0  0  0  0  0  0  0  0  0  0  0  0
   -1.5910   -2.1660   -3.5700 H   0  0  0  0  0  0  0  0  0  0  0  0
   -2.3760   -2.6290   -2.0640 H   0  0  0  0  0  0  0  0  0  0  0  0
   -3.0140   -0.4810   -3.0010 H   0  0  0  0  0  0  0  0  0  0  0  0
   -1.3800    0.1470   -2.8410 H   0  0  0  0  0  0  0  0  0  0  0  0
   -2.8930    1.0000   -1.0920 H   0  0  0  0  0  0  0  0  0  0  0  0
   -0.7940   -0.8160    0.1870 H   0  0  0  0  0  0  0  0  0  0  0  0
  1 10  1  0  0  0  0
  1 11  1  0  0  0  0
  2  1  1  0  0  0  0
  2  3  2  0  0  0  0
  4  5  1  0  0  0  0
  4  2  1  0  0  0  0
  5 14  1  0  0  0  0
  5 15  1  0  0  0  0
  6 16  1  6  0  0  0
  6  7  1  0  0  0  0
  6  5  1  0  0  0  0
  7 18  1  0  0  0  0
  8  6  1  0  0  0  0
  8 19  1  0  0  0  0
  9  8  2  0  0  0  0
 12  4  1  0  0  0  0
 13  4  1  0  0  0  0
 17  7  1  0  0  0  0
 19 27  1  0  0  0  0
 20 19  1  0  0  0  0
 20 21  1  0  0  0  0
 20 28  1  1  0  0  0
 21 30  1  0  0  0  0
 22 23  2  0  0  0  0
 22 21  1  0  0  0  0
 24 20  1  0  0  0  0
 25 24  2  0  0  0  0
 26 22  1  0  0  0  0
 29 21  1  0  0  0  0
 31 26  1  0  0  0  0
 32 41  1  0  0  0  0
 32 33  1  0  0  0  0
 34 35  1  0  0  0  0
 34 45  1  0  0  0  0
 34 33  1  0  0  0  0
 35 36  1  0  0  0  0
 36 48  1  6  0  0  0
 36 38  1  0  0  0  0
 36 37  1  0  0  0  0
 37 49  1  0  0  0  0
 37 24  1  0  0  0  0
 38 39  1  0  0  0  0
 40 38  2  0  0  0  0
 42 32  1  0  0  0  0
 43 32  1  0  0  0  0
 44 34  1  0  0  0  0
 46 35  1  0  0  0  0
 47 35  1  0  0  0  0
M  END
$$$$
