QDR.pdb
 OpenBabel07022418313D

 55 54  0  0  1  0  0  0  0  0999 V2000
    0.7420   -3.1780    4.5640 N   0  0  0  0  0  0  0  0  0  0  0  0
    1.8350   -2.2540    4.3890 C   0  0  0  0  0  0  0  0  0  0  0  0
    2.2870   -1.7240    5.4240 O   0  0  0  0  0  0  0  0  0  0  0  0
    2.3540   -1.9850    3.0620 C   0  0  0  0  0  0  0  0  0  0  0  0
    3.2170   -0.7960    2.8740 C   0  0  0  0  0  0  0  0  0  0  0  0
    2.6220    0.5390    3.1320 C   0  0  2  0  0  0  0  0  0  0  0  0
    2.1720    0.6510    4.4910 N   0  0  0  0  0  0  0  0  0  0  0  0
    1.4460    0.8320    2.2510 C   0  0  0  0  0  0  0  0  0  0  0  0
    0.3410    1.1990    2.7290 O   0  0  0  0  0  0  0  0  0  0  0  0
    0.8630   -4.2110    4.4970 H   0  0  0  0  0  0  0  0  0  0  0  0
   -0.1940   -2.7990    4.7640 H   0  0  0  0  0  0  0  0  0  0  0  0
    1.5190   -2.0180    2.3100 H   0  0  0  0  0  0  0  0  0  0  0  0
    2.9850   -2.8810    2.7490 H   0  0  0  0  0  0  0  0  0  0  0  0
    3.6910   -0.8540    1.8660 H   0  0  0  0  0  0  0  0  0  0  0  0
    4.0720   -0.9050    3.6140 H   0  0  0  0  0  0  0  0  0  0  0  0
    3.4300    1.2950    2.9550 H   0  0  0  0  0  0  0  0  0  0  0  0
    2.7140    1.2870    5.0830 H   0  0  0  0  0  0  0  0  0  0  0  0
    1.1520    0.7150    4.5830 H   0  0  0  0  0  0  0  0  0  0  0  0
    1.5200    0.7120    0.8390 N   0  0  0  0  0  0  0  0  0  0  0  0
    0.4230    0.9870   -0.0550 C   0  0  1  0  0  0  0  0  0  0  0  0
    0.8030    2.0140   -1.1080 C   0  0  0  0  0  0  0  0  0  0  0  0
    1.2020    3.2940   -0.5250 C   0  0  0  0  0  0  0  0  0  0  0  0
    2.3420    3.4410   -0.0310 O   0  0  0  0  0  0  0  0  0  0  0  0
    0.1180   -0.2670   -0.8170 C   0  0  0  0  0  0  0  0  0  0  0  0
    0.7320   -1.3540   -0.6140 O   0  0  0  0  0  0  0  0  0  0  0  0
    0.3330    4.3710   -0.5040 O   0  0  0  0  0  0  0  0  0  0  0  0
    2.4510    0.4000    0.4520 H   0  0  0  0  0  0  0  0  0  0  0  0
   -0.4680    1.3650    0.4680 H   0  0  0  0  0  0  0  0  0  0  0  0
   -0.0520    2.0820   -1.8130 H   0  0  0  0  0  0  0  0  0  0  0  0
    1.6340    1.5570   -1.7220 H   0  0  0  0  0  0  0  0  0  0  0  0
    0.4630    5.1530    0.1560 H   0  0  0  0  0  0  0  0  0  0  0  0
   -1.1950   -2.0140    1.7070 N   0  0  0  0  0  0  0  0  0  0  0  0
   -2.3800   -1.9180    0.9320 C   0  0  0  0  0  0  0  0  0  0  0  0
   -3.2360   -1.0110    1.2160 N   0  0  0  0  0  0  0  0  0  0  0  0
   -2.6430   -2.8200   -0.1470 N   0  0  0  0  0  0  0  0  0  0  0  0
   -3.7260   -2.7040   -1.0550 C   0  0  0  0  0  0  0  0  0  0  0  0
   -3.7040   -1.6000   -2.0470 C   0  0  0  0  0  0  0  0  0  0  0  0
   -2.6140   -1.5950   -3.0460 C   0  0  0  0  0  0  0  0  0  0  0  0
   -1.2240   -1.4940   -2.5820 C   0  0  2  0  0  0  0  0  0  0  0  0
   -0.8900   -0.3010   -1.8250 N   0  0  0  0  0  0  0  0  0  0  0  0
   -0.3230   -1.5590   -3.8030 C   0  0  0  0  0  0  0  0  0  0  0  0
    0.5240   -0.6520   -3.9920 O   0  0  0  0  0  0  0  0  0  0  0  0
   -0.4240   -2.5910   -4.6990 O   0  0  0  0  0  0  0  0  0  0  0  0
   -0.8820   -1.2120    2.2600 H   0  0  0  0  0  0  0  0  0  0  0  0
   -0.6310   -2.9100    1.7170 H   0  0  0  0  0  0  0  0  0  0  0  0
   -4.1250   -0.8210    0.7560 H   0  0  0  0  0  0  0  0  0  0  0  0
   -1.9440   -3.6110   -0.2200 H   0  0  0  0  0  0  0  0  0  0  0  0
   -4.6650   -2.6750   -0.4180 H   0  0  0  0  0  0  0  0  0  0  0  0
   -3.8310   -3.6760   -1.6040 H   0  0  0  0  0  0  0  0  0  0  0  0
   -4.6690   -1.7160   -2.6470 H   0  0  0  0  0  0  0  0  0  0  0  0
   -3.8610   -0.5900   -1.5700 H   0  0  0  0  0  0  0  0  0  0  0  0
   -2.6950   -2.5980   -3.5900 H   0  0  0  0  0  0  0  0  0  0  0  0
   -2.8740   -0.8190   -3.8240 H   0  0  0  0  0  0  0  0  0  0  0  0
   -0.9200   -2.3690   -1.9870 H   0  0  0  0  0  0  0  0  0  0  0  0
   -1.4070    0.5610   -2.0270 H   0  0  0  0  0  0  0  0  0  0  0  0
  1 11  1  0  0  0  0
  2  1  1  0  0  0  0
  2  3  2  0  0  0  0
  4  2  1  0  0  0  0
  5  4  1  0  0  0  0
  5  6  1  0  0  0  0
  5 15  1  0  0  0  0
  6 16  1  6  0  0  0
  6  7  1  0  0  0  0
  7 18  1  0  0  0  0
  7 17  1  0  0  0  0
  8  9  2  0  0  0  0
  8  6  1  0  0  0  0
 10  1  1  0  0  0  0
 12  4  1  0  0  0  0
 13  4  1  0  0  0  0
 14  5  1  0  0  0  0
 19  8  1  0  0  0  0
 20 28  1  1  0  0  0
 20 19  1  0  0  0  0
 21 22  1  0  0  0  0
 21 20  1  0  0  0  0
 22 26  1  0  0  0  0
 22 23  2  0  0  0  0
 24 25  2  0  0  0  0
 24 20  1  0  0  0  0
 26 31  1  0  0  0  0
 27 19  1  0  0  0  0
 29 21  1  0  0  0  0
 30 21  1  0  0  0  0
 32 45  1  0  0  0  0
 32 44  1  0  0  0  0
 33 34  2  0  0  0  0
 33 32  1  0  0  0  0
 35 33  1  0  0  0  0
 36 48  1  0  0  0  0
 36 35  1  0  0  0  0
 37 51  1  0  0  0  0
 37 36  1  0  0  0  0
 38 39  1  0  0  0  0
 38 37  1  0  0  0  0
 39 54  1  1  0  0  0
 39 40  1  0  0  0  0
 40 24  1  0  0  0  0
 41 39  1  0  0  0  0
 42 41  1  0  0  0  0
 43 41  2  0  0  0  0
 46 34  1  0  0  0  0
 47 35  1  0  0  0  0
 49 36  1  0  0  0  0
 50 37  1  0  0  0  0
 52 38  1  0  0  0  0
 53 38  1  0  0  0  0
 55 40  1  0  0  0  0
M  END
$$$$
