QEA.pdb
 OpenBabel07022418313D

 45 44  0  0  1  0  0  0  0  0999 V2000
    3.3490   -5.5960    1.0810 N   0  0  0  0  0  0  0  0  0  0  0  0
    2.9100   -4.2320    1.2320 C   0  0  0  0  0  0  0  0  0  0  0  0
    1.7630   -4.0630    1.6770 O   0  0  0  0  0  0  0  0  0  0  0  0
    3.7740   -3.1030    0.8810 C   0  0  0  0  0  0  0  0  0  0  0  0
    2.9940   -1.8180    0.8830 C   0  0  0  0  0  0  0  0  0  0  0  0
    1.9070   -1.8190   -0.1270 C   0  0  2  0  0  0  0  0  0  0  0  0
    2.5510   -2.0030   -1.4370 N   0  0  0  0  0  0  0  0  0  0  0  0
    1.1670   -0.5190   -0.1770 C   0  0  0  0  0  0  0  0  0  0  0  0
    1.1900    0.1680   -1.2220 O   0  0  0  0  0  0  0  0  0  0  0  0
    3.2990   -6.2870    1.8590 H   0  0  0  0  0  0  0  0  0  0  0  0
    3.7290   -5.8960    0.1650 H   0  0  0  0  0  0  0  0  0  0  0  0
    4.2240   -3.3200   -0.1160 H   0  0  0  0  0  0  0  0  0  0  0  0
    4.6380   -3.0570    1.5810 H   0  0  0  0  0  0  0  0  0  0  0  0
    3.7210   -0.9710    0.7070 H   0  0  0  0  0  0  0  0  0  0  0  0
    2.6430   -1.6520    1.9230 H   0  0  0  0  0  0  0  0  0  0  0  0
    1.2490   -2.6730   -0.0130 H   0  0  0  0  0  0  0  0  0  0  0  0
    1.9640   -2.6200   -2.0610 H   0  0  0  0  0  0  0  0  0  0  0  0
    2.5750   -1.0750   -1.9560 H   0  0  0  0  0  0  0  0  0  0  0  0
    0.4300   -0.0290    0.9260 N   0  0  0  0  0  0  0  0  0  0  0  0
   -0.3030    1.1710    1.0590 C   0  0  1  0  0  0  0  0  0  0  0  0
    0.0470    2.3210    0.1690 C   0  0  0  0  0  0  0  0  0  0  0  0
    1.4000    2.9050    0.2910 C   0  0  0  0  0  0  0  0  0  0  0  0
    1.7510    3.4960    1.5840 C   0  0  0  0  0  0  0  0  0  0  0  0
    0.9370    3.5560    2.5170 O   0  0  0  0  0  0  0  0  0  0  0  0
   -1.7750    1.0370    1.0960 C   0  0  0  0  0  0  0  0  0  0  0  0
   -2.4700    2.1030    1.2170 O   0  0  0  0  0  0  0  0  0  0  0  0
    3.0230    4.0010    1.7660 O   0  0  0  0  0  0  0  0  0  0  0  0
    0.4520   -0.6940    1.7740 H   0  0  0  0  0  0  0  0  0  0  0  0
   -0.0180    1.5420    2.1290 H   0  0  0  0  0  0  0  0  0  0  0  0
   -0.7680    3.0920    0.3460 H   0  0  0  0  0  0  0  0  0  0  0  0
   -0.1100    2.0520   -0.9080 H   0  0  0  0  0  0  0  0  0  0  0  0
    2.1880    2.2360   -0.0750 H   0  0  0  0  0  0  0  0  0  0  0  0
    1.4160    3.7840   -0.4450 H   0  0  0  0  0  0  0  0  0  0  0  0
    3.3740    4.2030    2.6980 H   0  0  0  0  0  0  0  0  0  0  0  0
   -4.3770   -0.7410   -0.2890 C   0  0  0  0  0  0  0  0  0  0  0  0
   -3.9090   -0.1840    1.0550 C   0  0  2  0  0  0  0  0  0  0  0  0
   -2.4650   -0.1770    1.0080 N   0  0  0  0  0  0  0  0  0  0  0  0
   -4.4250   -1.0100    2.1700 C   0  0  0  0  0  0  0  0  0  0  0  0
   -3.6040   -1.5840    2.9140 O   0  0  0  0  0  0  0  0  0  0  0  0
   -5.7800   -1.1670    2.4150 O   0  0  0  0  0  0  0  0  0  0  0  0
   -5.4020   -0.3770   -0.5040 H   0  0  0  0  0  0  0  0  0  0  0  0
   -3.6640   -0.3950   -1.0620 H   0  0  0  0  0  0  0  0  0  0  0  0
   -4.3130   -1.8430   -0.2100 H   0  0  0  0  0  0  0  0  0  0  0  0
   -4.3400    0.8200    1.1610 H   0  0  0  0  0  0  0  0  0  0  0  0
   -1.9440   -1.0700    0.9090 H   0  0  0  0  0  0  0  0  0  0  0  0
  1  2  1  0  0  0  0
  1 10  1  0  0  0  0
  2  3  2  0  0  0  0
  4  5  1  0  0  0  0
  4  2  1  0  0  0  0
  4 13  1  0  0  0  0
  5 15  1  0  0  0  0
  6 16  1  1  0  0  0
  6  5  1  0  0  0  0
  7  6  1  0  0  0  0
  8  6  1  0  0  0  0
  8 19  1  0  0  0  0
  9  8  2  0  0  0  0
 11  1  1  0  0  0  0
 12  4  1  0  0  0  0
 14  5  1  0  0  0  0
 17  7  1  0  0  0  0
 18  7  1  0  0  0  0
 19 20  1  0  0  0  0
 19 28  1  0  0  0  0
 20 25  1  0  0  0  0
 20 29  1  1  0  0  0
 21 22  1  0  0  0  0
 21 30  1  0  0  0  0
 21 20  1  0  0  0  0
 22 23  1  0  0  0  0
 23 27  1  0  0  0  0
 23 24  2  0  0  0  0
 25 26  2  0  0  0  0
 27 34  1  0  0  0  0
 31 21  1  0  0  0  0
 32 22  1  0  0  0  0
 33 22  1  0  0  0  0
 35 43  1  0  0  0  0
 35 36  1  0  0  0  0
 36 44  1  1  0  0  0
 36 38  1  0  0  0  0
 37 36  1  0  0  0  0
 37 25  1  0  0  0  0
 38 40  2  0  0  0  0
 38 39  1  0  0  0  0
 41 35  1  0  0  0  0
 42 35  1  0  0  0  0
 45 37  1  0  0  0  0
M  END
$$$$
