QEC.pdb
 OpenBabel07022418313D

 46 45  0  0  1  0  0  0  0  0999 V2000
    5.0960   -5.2980    1.9100 N   0  0  0  0  0  0  0  0  0  0  0  0
    3.8200   -4.6310    2.0070 C   0  0  0  0  0  0  0  0  0  0  0  0
    3.3430   -4.5530    3.1620 O   0  0  0  0  0  0  0  0  0  0  0  0
    3.1800   -4.1100    0.8120 C   0  0  0  0  0  0  0  0  0  0  0  0
    2.1170   -3.0810    1.0020 C   0  0  0  0  0  0  0  0  0  0  0  0
    2.6400   -1.8320    1.6090 C   0  0  2  0  0  0  0  0  0  0  0  0
    3.2200   -2.0370    2.9000 N   0  0  0  0  0  0  0  0  0  0  0  0
    1.5720   -0.7830    1.7370 C   0  0  0  0  0  0  0  0  0  0  0  0
    1.3430   -0.2540    2.8520 O   0  0  0  0  0  0  0  0  0  0  0  0
    5.1840   -6.2160    1.4570 H   0  0  0  0  0  0  0  0  0  0  0  0
    5.9370   -4.8360    2.3090 H   0  0  0  0  0  0  0  0  0  0  0  0
    2.7890   -4.9520    0.1810 H   0  0  0  0  0  0  0  0  0  0  0  0
    3.9750   -3.6520    0.1480 H   0  0  0  0  0  0  0  0  0  0  0  0
    1.6200   -2.7980    0.0450 H   0  0  0  0  0  0  0  0  0  0  0  0
    1.3130   -3.5560    1.6150 H   0  0  0  0  0  0  0  0  0  0  0  0
    3.4700   -1.4370    0.9550 H   0  0  0  0  0  0  0  0  0  0  0  0
    2.4860   -1.8440    3.6300 H   0  0  0  0  0  0  0  0  0  0  0  0
    4.0030   -1.3550    3.0570 H   0  0  0  0  0  0  0  0  0  0  0  0
    0.7980   -0.3550    0.6410 N   0  0  0  0  0  0  0  0  0  0  0  0
   -0.2420    0.6610    0.7440 C   0  0  1  0  0  0  0  0  0  0  0  0
    0.0650    1.8080   -0.1860 C   0  0  0  0  0  0  0  0  0  0  0  0
    1.3550    2.5030    0.0690 C   0  0  0  0  0  0  0  0  0  0  0  0
    1.4990    3.1330    1.3830 C   0  0  0  0  0  0  0  0  0  0  0  0
    0.5660    3.1040    2.2090 O   0  0  0  0  0  0  0  0  0  0  0  0
   -1.5520    0.0930    0.2540 C   0  0  0  0  0  0  0  0  0  0  0  0
   -1.5920   -1.0940   -0.1520 O   0  0  0  0  0  0  0  0  0  0  0  0
    2.6770    3.7700    1.7220 O   0  0  0  0  0  0  0  0  0  0  0  0
    0.9730   -0.7820   -0.2910 H   0  0  0  0  0  0  0  0  0  0  0  0
   -0.3380    1.0530    1.7590 H   0  0  0  0  0  0  0  0  0  0  0  0
   -0.7780    2.5300   -0.1050 H   0  0  0  0  0  0  0  0  0  0  0  0
    0.0430    1.4520   -1.2370 H   0  0  0  0  0  0  0  0  0  0  0  0
    1.4270    3.3250   -0.7000 H   0  0  0  0  0  0  0  0  0  0  0  0
    2.2350    1.8440   -0.1520 H   0  0  0  0  0  0  0  0  0  0  0  0
    2.9780    3.8730    2.6930 H   0  0  0  0  0  0  0  0  0  0  0  0
   -2.7360    0.8520    0.2370 N   0  0  0  0  0  0  0  0  0  0  0  0
   -4.0100    0.3880   -0.2100 C   0  0  1  0  0  0  0  0  0  0  0  0
   -5.0330    0.3600    0.9340 C   0  0  0  0  0  0  0  0  0  0  0  0
   -6.6320   -0.2230    0.3680 S   0  0  0  0  0  0  0  0  0  0  0  0
   -4.5710    1.1620   -1.3230 C   0  0  0  0  0  0  0  0  0  0  0  0
   -3.9990    2.1490   -1.8520 O   0  0  0  0  0  0  0  0  0  0  0  0
   -5.8070    0.7930   -1.8340 O   0  0  0  0  0  0  0  0  0  0  0  0
   -2.6520    1.8520    0.5900 H   0  0  0  0  0  0  0  0  0  0  0  0
   -3.9130   -0.6790   -0.5420 H   0  0  0  0  0  0  0  0  0  0  0  0
   -5.0790    1.3560    1.4200 H   0  0  0  0  0  0  0  0  0  0  0  0
   -4.6350   -0.3670    1.6710 H   0  0  0  0  0  0  0  0  0  0  0  0
   -7.5210   -0.1770    1.4510 H   0  0  0  0  0  0  0  0  0  0  0  0
  1  2  1  0  0  0  0
  1 11  1  0  0  0  0
  2  3  2  0  0  0  0
  4  5  1  0  0  0  0
  4  2  1  0  0  0  0
  5  6  1  0  0  0  0
  5 15  1  0  0  0  0
  6 16  1  6  0  0  0
  6  8  1  0  0  0  0
  6  7  1  0  0  0  0
  7 18  1  0  0  0  0
  7 17  1  0  0  0  0
  8  9  2  0  0  0  0
 10  1  1  0  0  0  0
 12  4  1  0  0  0  0
 13  4  1  0  0  0  0
 14  5  1  0  0  0  0
 19 20  1  0  0  0  0
 19  8  1  0  0  0  0
 20 29  1  1  0  0  0
 21 30  1  0  0  0  0
 21 22  1  0  0  0  0
 21 20  1  0  0  0  0
 22 23  1  0  0  0  0
 23 27  1  0  0  0  0
 23 24  2  0  0  0  0
 25 20  1  0  0  0  0
 26 25  2  0  0  0  0
 27 34  1  0  0  0  0
 28 19  1  0  0  0  0
 31 21  1  0  0  0  0
 32 22  1  0  0  0  0
 33 22  1  0  0  0  0
 35 25  1  0  0  0  0
 35 42  1  0  0  0  0
 36 43  1  6  0  0  0
 36 35  1  0  0  0  0
 36 37  1  0  0  0  0
 37 44  1  0  0  0  0
 37 45  1  0  0  0  0
 38 37  1  0  0  0  0
 38 46  1  0  0  0  0
 39 36  1  0  0  0  0
 40 39  2  0  0  0  0
 41 39  1  0  0  0  0
M  END
$$$$
