QED.pdb
 OpenBabel07022418313D

 48 47  0  0  1  0  0  0  0  0999 V2000
    0.7310   -5.3520    0.5630 N   0  0  0  0  0  0  0  0  0  0  0  0
    1.0370   -4.1910   -0.2060 C   0  0  0  0  0  0  0  0  0  0  0  0
    0.6590   -4.1450   -1.3920 O   0  0  0  0  0  0  0  0  0  0  0  0
    1.7870   -3.0420    0.3630 C   0  0  0  0  0  0  0  0  0  0  0  0
    1.9980   -1.9850   -0.6720 C   0  0  0  0  0  0  0  0  0  0  0  0
    2.7580   -0.7850   -0.1650 C   0  0  2  0  0  0  0  0  0  0  0  0
    4.0740   -1.1210    0.3190 N   0  0  0  0  0  0  0  0  0  0  0  0
    1.9840   -0.0180    0.8470 C   0  0  0  0  0  0  0  0  0  0  0  0
    2.4400    0.1290    2.0280 O   0  0  0  0  0  0  0  0  0  0  0  0
    1.3860   -5.6480    1.3070 H   0  0  0  0  0  0  0  0  0  0  0  0
   -0.1350   -5.8790    0.3620 H   0  0  0  0  0  0  0  0  0  0  0  0
    1.2310   -2.6920    1.2520 H   0  0  0  0  0  0  0  0  0  0  0  0
    2.7550   -3.4450    0.7150 H   0  0  0  0  0  0  0  0  0  0  0  0
    2.5360   -2.4390   -1.5280 H   0  0  0  0  0  0  0  0  0  0  0  0
    1.0230   -1.6220   -1.0580 H   0  0  0  0  0  0  0  0  0  0  0  0
    2.9050   -0.1190   -1.0320 H   0  0  0  0  0  0  0  0  0  0  0  0
    4.7620   -0.3910    0.0460 H   0  0  0  0  0  0  0  0  0  0  0  0
    4.3740   -2.0870    0.1950 H   0  0  0  0  0  0  0  0  0  0  0  0
    0.7390    0.5880    0.6060 N   0  0  0  0  0  0  0  0  0  0  0  0
   -0.0180    1.3250    1.5750 C   0  0  1  0  0  0  0  0  0  0  0  0
   -0.2600    2.7520    1.2590 C   0  0  0  0  0  0  0  0  0  0  0  0
    0.9440    3.6160    1.0820 C   0  0  0  0  0  0  0  0  0  0  0  0
    1.7600    3.6850    2.2900 C   0  0  0  0  0  0  0  0  0  0  0  0
    1.4640    3.1230    3.3580 O   0  0  0  0  0  0  0  0  0  0  0  0
   -1.3660    0.6980    1.8170 C   0  0  0  0  0  0  0  0  0  0  0  0
   -2.1770    1.1570    2.6510 O   0  0  0  0  0  0  0  0  0  0  0  0
    2.9550    4.4220    2.2680 O   0  0  0  0  0  0  0  0  0  0  0  0
    0.3310    0.4990   -0.3510 H   0  0  0  0  0  0  0  0  0  0  0  0
    0.5130    1.2640    2.5370 H   0  0  0  0  0  0  0  0  0  0  0  0
   -0.7800    3.1630    2.1860 H   0  0  0  0  0  0  0  0  0  0  0  0
   -1.0320    2.9210    0.4680 H   0  0  0  0  0  0  0  0  0  0  0  0
    1.6070    3.2860    0.2540 H   0  0  0  0  0  0  0  0  0  0  0  0
    0.5840    4.6270    0.7710 H   0  0  0  0  0  0  0  0  0  0  0  0
    3.6380    4.2180    2.9930 H   0  0  0  0  0  0  0  0  0  0  0  0
   -1.7770   -0.4620    1.0920 N   0  0  0  0  0  0  0  0  0  0  0  0
   -3.0650   -1.0650    1.3240 C   0  0  1  0  0  0  0  0  0  0  0  0
   -3.9930   -0.9870    0.1290 C   0  0  0  0  0  0  0  0  0  0  0  0
   -3.4360   -1.6590   -1.0400 C   0  0  0  0  0  0  0  0  0  0  0  0
   -2.2970   -1.3750   -1.4860 O   0  0  0  0  0  0  0  0  0  0  0  0
   -2.9390   -2.5010    1.7200 C   0  0  0  0  0  0  0  0  0  0  0  0
   -3.9220   -3.2010    1.9940 O   0  0  0  0  0  0  0  0  0  0  0  0
   -4.1600   -2.6600   -1.7160 O   0  0  0  0  0  0  0  0  0  0  0  0
   -1.6760   -3.0680    1.7820 O   0  0  0  0  0  0  0  0  0  0  0  0
   -1.0910   -0.8460    0.3930 H   0  0  0  0  0  0  0  0  0  0  0  0
   -3.5660   -0.5330    2.1610 H   0  0  0  0  0  0  0  0  0  0  0  0
   -4.2240    0.0750   -0.1110 H   0  0  0  0  0  0  0  0  0  0  0  0
   -4.9440   -1.4900    0.3960 H   0  0  0  0  0  0  0  0  0  0  0  0
   -3.9940   -2.7900   -2.7250 H   0  0  0  0  0  0  0  0  0  0  0  0
  1 10  1  0  0  0  0
  2  4  1  0  0  0  0
  2  1  1  0  0  0  0
  3  2  2  0  0  0  0
  4 13  1  0  0  0  0
  4 12  1  0  0  0  0
  5  6  1  0  0  0  0
  5  4  1  0  0  0  0
  6 16  1  6  0  0  0
  6  7  1  0  0  0  0
  6  8  1  0  0  0  0
  8  9  2  0  0  0  0
 11  1  1  0  0  0  0
 14  5  1  0  0  0  0
 15  5  1  0  0  0  0
 17  7  1  0  0  0  0
 18  7  1  0  0  0  0
 19  8  1  0  0  0  0
 19 20  1  0  0  0  0
 20 25  1  0  0  0  0
 20 29  1  1  0  0  0
 21 20  1  0  0  0  0
 21 30  1  0  0  0  0
 22 21  1  0  0  0  0
 22 23  1  0  0  0  0
 23 24  2  0  0  0  0
 25 26  2  0  0  0  0
 27 23  1  0  0  0  0
 27 34  1  0  0  0  0
 28 19  1  0  0  0  0
 31 21  1  0  0  0  0
 32 22  1  0  0  0  0
 33 22  1  0  0  0  0
 35 36  1  0  0  0  0
 35 25  1  0  0  0  0
 36 40  1  0  0  0  0
 36 45  1  1  0  0  0
 37 47  1  0  0  0  0
 37 36  1  0  0  0  0
 38 37  1  0  0  0  0
 39 38  2  0  0  0  0
 40 43  2  0  0  0  0
 40 41  1  0  0  0  0
 42 38  1  0  0  0  0
 44 35  1  0  0  0  0
 46 37  1  0  0  0  0
 48 42  1  0  0  0  0
M  END
$$$$
