QEE.pdb
 OpenBabel07022418313D

 51 50  0  0  1  0  0  0  0  0999 V2000
    1.7930   -4.4200    1.4830 N   0  0  0  0  0  0  0  0  0  0  0  0
    2.6710   -3.3120    1.4530 C   0  0  0  0  0  0  0  0  0  0  0  0
    3.4100   -3.1660    2.4710 O   0  0  0  0  0  0  0  0  0  0  0  0
    2.7280   -2.3950    0.3260 C   0  0  0  0  0  0  0  0  0  0  0  0
    3.4390   -1.1160    0.5040 C   0  0  0  0  0  0  0  0  0  0  0  0
    2.8910   -0.1560    1.5220 C   0  0  2  0  0  0  0  0  0  0  0  0
    2.8140   -0.6420    2.8570 N   0  0  0  0  0  0  0  0  0  0  0  0
    1.7170    0.5650    1.0160 C   0  0  0  0  0  0  0  0  0  0  0  0
    1.8630    1.1340   -0.1120 O   0  0  0  0  0  0  0  0  0  0  0  0
    1.0840   -4.4840    2.2320 H   0  0  0  0  0  0  0  0  0  0  0  0
    1.8490   -5.1680    0.7720 H   0  0  0  0  0  0  0  0  0  0  0  0
    1.6710   -2.2410   -0.0370 H   0  0  0  0  0  0  0  0  0  0  0  0
    3.2150   -2.9130   -0.5560 H   0  0  0  0  0  0  0  0  0  0  0  0
    4.5190   -1.2510    0.6590 H   0  0  0  0  0  0  0  0  0  0  0  0
    3.3650   -0.5730   -0.4880 H   0  0  0  0  0  0  0  0  0  0  0  0
    3.7090    0.6540    1.5720 H   0  0  0  0  0  0  0  0  0  0  0  0
    2.9860    0.1860    3.5120 H   0  0  0  0  0  0  0  0  0  0  0  0
    1.9070   -1.0220    3.1700 H   0  0  0  0  0  0  0  0  0  0  0  0
    0.4810    0.6800    1.6570 N   0  0  0  0  0  0  0  0  0  0  0  0
   -0.6750    1.3820    1.2530 C   0  0  1  0  0  0  0  0  0  0  0  0
   -0.4260    2.5160    0.2530 C   0  0  0  0  0  0  0  0  0  0  0  0
    0.4450    3.6030    0.8160 C   0  0  0  0  0  0  0  0  0  0  0  0
    0.6710    4.6640   -0.2160 C   0  0  0  0  0  0  0  0  0  0  0  0
   -0.2250    5.4490   -0.5920 O   0  0  0  0  0  0  0  0  0  0  0  0
   -1.8490    0.6620    0.8220 C   0  0  0  0  0  0  0  0  0  0  0  0
   -2.9120    1.3220    0.5060 O   0  0  0  0  0  0  0  0  0  0  0  0
    1.9520    4.7570   -0.7660 O   0  0  0  0  0  0  0  0  0  0  0  0
    0.4090    0.1570    2.5910 H   0  0  0  0  0  0  0  0  0  0  0  0
   -0.9690    2.0240    2.1740 H   0  0  0  0  0  0  0  0  0  0  0  0
   -0.1270    2.1590   -0.7340 H   0  0  0  0  0  0  0  0  0  0  0  0
   -1.4460    2.9860    0.1120 H   0  0  0  0  0  0  0  0  0  0  0  0
    1.4080    3.3080    1.2280 H   0  0  0  0  0  0  0  0  0  0  0  0
   -0.0890    4.0910    1.7030 H   0  0  0  0  0  0  0  0  0  0  0  0
    2.1400    5.2280   -1.6200 H   0  0  0  0  0  0  0  0  0  0  0  0
   -1.9800   -0.7470    0.6960 N   0  0  0  0  0  0  0  0  0  0  0  0
   -3.2160   -1.3710    0.2450 C   0  0  1  0  0  0  0  0  0  0  0  0
   -3.0610   -1.8780   -1.1780 C   0  0  0  0  0  0  0  0  0  0  0  0
   -1.9810   -2.8830   -1.3630 C   0  0  0  0  0  0  0  0  0  0  0  0
   -2.0940   -4.1380   -0.6420 C   0  0  0  0  0  0  0  0  0  0  0  0
   -3.1310   -4.8430   -0.6960 O   0  0  0  0  0  0  0  0  0  0  0  0
   -3.7520   -2.3780    1.1540 C   0  0  0  0  0  0  0  0  0  0  0  0
   -4.8640   -2.8970    0.8530 O   0  0  0  0  0  0  0  0  0  0  0  0
   -1.0390   -4.5980    0.1380 O   0  0  0  0  0  0  0  0  0  0  0  0
   -3.1520   -2.8170    2.3170 O   0  0  0  0  0  0  0  0  0  0  0  0
   -1.1360   -1.3240    0.9470 H   0  0  0  0  0  0  0  0  0  0  0  0
   -3.9710   -0.5380    0.1540 H   0  0  0  0  0  0  0  0  0  0  0  0
   -4.0220   -2.2700   -1.5050 H   0  0  0  0  0  0  0  0  0  0  0  0
   -2.7810   -0.9850   -1.7850 H   0  0  0  0  0  0  0  0  0  0  0  0
   -0.9850   -2.4180   -1.1490 H   0  0  0  0  0  0  0  0  0  0  0  0
   -1.9280   -3.0610   -2.4860 H   0  0  0  0  0  0  0  0  0  0  0  0
   -0.9490   -5.5840    0.3150 H   0  0  0  0  0  0  0  0  0  0  0  0
  1 10  1  0  0  0  0
  2  1  1  0  0  0  0
  2  3  2  0  0  0  0
  4  5  1  0  0  0  0
  4  2  1  0  0  0  0
  5 14  1  0  0  0  0
  5  6  1  0  0  0  0
  6 16  1  1  0  0  0
  6  7  1  0  0  0  0
  7 18  1  0  0  0  0
  7 17  1  0  0  0  0
  8  6  1  0  0  0  0
  8 19  1  0  0  0  0
  9  8  2  0  0  0  0
 11  1  1  0  0  0  0
 12  4  1  0  0  0  0
 13  4  1  0  0  0  0
 15  5  1  0  0  0  0
 19 28  1  0  0  0  0
 20 19  1  0  0  0  0
 20 29  1  1  0  0  0
 21 22  1  0  0  0  0
 21 20  1  0  0  0  0
 22 32  1  0  0  0  0
 22 33  1  0  0  0  0
 23 22  1  0  0  0  0
 24 23  2  0  0  0  0
 25 20  1  0  0  0  0
 26 25  2  0  0  0  0
 27 23  1  0  0  0  0
 30 21  1  0  0  0  0
 31 21  1  0  0  0  0
 34 27  1  0  0  0  0
 35 25  1  0  0  0  0
 35 45  1  0  0  0  0
 36 46  1  6  0  0  0
 36 35  1  0  0  0  0
 36 41  1  0  0  0  0
 37 36  1  0  0  0  0
 38 37  1  0  0  0  0
 38 49  1  0  0  0  0
 38 39  1  0  0  0  0
 39 43  1  0  0  0  0
 40 39  2  0  0  0  0
 41 44  1  0  0  0  0
 42 41  2  0  0  0  0
 43 51  1  0  0  0  0
 47 37  1  0  0  0  0
 48 37  1  0  0  0  0
 50 38  1  0  0  0  0
M  END
$$$$
