QEF.pdb
 OpenBabel07022418313D

 55 55  0  0  1  0  0  0  0  0999 V2000
   -0.3260   -1.5590    5.7690 N   0  0  0  0  0  0  0  0  0  0  0  0
    1.0830   -1.3360    5.5320 C   0  0  0  0  0  0  0  0  0  0  0  0
    1.7220   -0.8320    6.4770 O   0  0  0  0  0  0  0  0  0  0  0  0
    1.6650   -1.7060    4.2380 C   0  0  0  0  0  0  0  0  0  0  0  0
    2.9750   -1.1130    3.9000 C   0  0  0  0  0  0  0  0  0  0  0  0
    2.9520    0.3600    3.7700 C   0  0  2  0  0  0  0  0  0  0  0  0
    2.5470    1.0300    4.9650 N   0  0  0  0  0  0  0  0  0  0  0  0
    2.0670    0.8330    2.6670 C   0  0  0  0  0  0  0  0  0  0  0  0
    1.1570    1.6810    2.8750 O   0  0  0  0  0  0  0  0  0  0  0  0
   -0.7310   -2.5190    5.6190 H   0  0  0  0  0  0  0  0  0  0  0  0
   -0.9420   -0.7830    6.0860 H   0  0  0  0  0  0  0  0  0  0  0  0
    1.7960   -2.8330    4.1930 H   0  0  0  0  0  0  0  0  0  0  0  0
    0.9050   -1.5280    3.4280 H   0  0  0  0  0  0  0  0  0  0  0  0
    3.7330   -1.3740    4.6980 H   0  0  0  0  0  0  0  0  0  0  0  0
    3.3290   -1.5300    2.9130 H   0  0  0  0  0  0  0  0  0  0  0  0
    3.9640    0.7750    3.5100 H   0  0  0  0  0  0  0  0  0  0  0  0
    1.6780    1.5950    4.8790 H   0  0  0  0  0  0  0  0  0  0  0  0
    3.2970    1.4540    5.5170 H   0  0  0  0  0  0  0  0  0  0  0  0
    2.1970    0.3620    1.3340 N   0  0  0  0  0  0  0  0  0  0  0  0
    1.2910    0.8580    0.2500 C   0  0  1  0  0  0  0  0  0  0  0  0
    2.1560    1.5740   -0.7340 C   0  0  0  0  0  0  0  0  0  0  0  0
    1.4870    2.1800   -1.8980 C   0  0  0  0  0  0  0  0  0  0  0  0
    0.4830    3.2110   -1.5730 C   0  0  0  0  0  0  0  0  0  0  0  0
   -0.1560    3.7690   -2.4990 O   0  0  0  0  0  0  0  0  0  0  0  0
    0.5450   -0.3010   -0.2840 C   0  0  0  0  0  0  0  0  0  0  0  0
    0.8920   -1.4650    0.0920 O   0  0  0  0  0  0  0  0  0  0  0  0
    0.1910    3.6160   -0.2820 O   0  0  0  0  0  0  0  0  0  0  0  0
    2.9310   -0.3400    1.1010 H   0  0  0  0  0  0  0  0  0  0  0  0
    0.6220    1.5770    0.7420 H   0  0  0  0  0  0  0  0  0  0  0  0
    2.7050    2.3630   -0.1620 H   0  0  0  0  0  0  0  0  0  0  0  0
    2.9890    0.9110   -1.1130 H   0  0  0  0  0  0  0  0  0  0  0  0
    2.2800    2.7090   -2.5390 H   0  0  0  0  0  0  0  0  0  0  0  0
    1.0830    1.4220   -2.5680 H   0  0  0  0  0  0  0  0  0  0  0  0
   -0.7410    3.9710   -0.1060 H   0  0  0  0  0  0  0  0  0  0  0  0
   -0.5350   -0.2090   -1.1860 N   0  0  0  0  0  0  0  0  0  0  0  0
   -1.2390   -1.3870   -1.6860 C   0  0  1  0  0  0  0  0  0  0  0  0
   -2.6510   -1.4320   -1.2260 C   0  0  0  0  0  0  0  0  0  0  0  0
   -3.3310   -2.6300   -1.7480 C   0  0  0  0  0  0  0  0  0  0  0  0
   -3.2580   -3.8170   -1.0250 C   0  0  0  0  0  0  0  0  0  0  0  0
   -3.8770   -4.9780   -1.4360 C   0  0  0  0  0  0  0  0  0  0  0  0
   -4.5990   -4.9400   -2.6220 C   0  0  0  0  0  0  0  0  0  0  0  0
   -4.6850   -3.7880   -3.3480 C   0  0  0  0  0  0  0  0  0  0  0  0
   -4.0590   -2.6480   -2.9150 C   0  0  0  0  0  0  0  0  0  0  0  0
   -1.0060   -1.4950   -3.1190 C   0  0  0  0  0  0  0  0  0  0  0  0
   -1.4860   -2.4590   -3.7640 O   0  0  0  0  0  0  0  0  0  0  0  0
   -0.2660   -0.5790   -3.8520 O   0  0  0  0  0  0  0  0  0  0  0  0
   -0.8550    0.7230   -1.4940 H   0  0  0  0  0  0  0  0  0  0  0  0
   -0.7250   -2.2720   -1.2070 H   0  0  0  0  0  0  0  0  0  0  0  0
   -2.6360   -1.5220   -0.1120 H   0  0  0  0  0  0  0  0  0  0  0  0
   -3.2510   -0.5480   -1.5220 H   0  0  0  0  0  0  0  0  0  0  0  0
   -2.6800   -3.8030   -0.0980 H   0  0  0  0  0  0  0  0  0  0  0  0
   -3.8190   -5.8910   -0.8780 H   0  0  0  0  0  0  0  0  0  0  0  0
   -5.1030   -5.8230   -2.9880 H   0  0  0  0  0  0  0  0  0  0  0  0
   -5.2400   -3.7390   -4.2710 H   0  0  0  0  0  0  0  0  0  0  0  0
   -4.1180   -1.7310   -3.4760 H   0  0  0  0  0  0  0  0  0  0  0  0
  1 11  1  0  0  0  0
  2  1  1  0  0  0  0
  2  3  2  0  0  0  0
  4  2  1  0  0  0  0
  5  4  1  0  0  0  0
  5 14  1  0  0  0  0
  6 16  1  6  0  0  0
  6  5  1  0  0  0  0
  6  7  1  0  0  0  0
  7 18  1  0  0  0  0
  8  9  2  0  0  0  0
  8  6  1  0  0  0  0
 10  1  1  0  0  0  0
 12  4  1  0  0  0  0
 13  4  1  0  0  0  0
 15  5  1  0  0  0  0
 17  7  1  0  0  0  0
 19  8  1  0  0  0  0
 20 29  1  1  0  0  0
 20 19  1  0  0  0  0
 21 30  1  0  0  0  0
 21 20  1  0  0  0  0
 22 23  1  0  0  0  0
 22 21  1  0  0  0  0
 23 27  1  0  0  0  0
 24 23  2  0  0  0  0
 25 26  2  0  0  0  0
 25 20  1  0  0  0  0
 27 34  1  0  0  0  0
 28 19  1  0  0  0  0
 31 21  1  0  0  0  0
 32 22  1  0  0  0  0
 33 22  1  0  0  0  0
 35 25  1  0  0  0  0
 36 37  1  0  0  0  0
 36 48  1  1  0  0  0
 36 35  1  0  0  0  0
 37 49  1  0  0  0  0
 38 37  1  0  0  0  0
 38 39  1  0  0  0  0
 39 51  1  0  0  0  0
 40 39  2  0  0  0  0
 40 52  1  0  0  0  0
 41 40  1  0  0  0  0
 42 43  1  0  0  0  0
 42 41  2  0  0  0  0
 43 38  2  0  0  0  0
 44 36  1  0  0  0  0
 45 44  1  0  0  0  0
 46 44  2  0  0  0  0
 47 35  1  0  0  0  0
 50 37  1  0  0  0  0
 53 41  1  0  0  0  0
 54 42  1  0  0  0  0
 55 43  1  0  0  0  0
M  END
$$$$
