QEM.pdb
 OpenBabel07022418313D

 52 51  0  0  1  0  0  0  0  0999 V2000
    0.9920   -4.2560   -3.1790 N   0  0  0  0  0  0  0  0  0  0  0  0
    1.4420   -3.8320   -1.9030 C   0  0  0  0  0  0  0  0  0  0  0  0
    1.3230   -4.6600   -0.9610 O   0  0  0  0  0  0  0  0  0  0  0  0
    2.0240   -2.4820   -1.6770 C   0  0  0  0  0  0  0  0  0  0  0  0
    2.3810   -2.3630   -0.2250 C   0  0  0  0  0  0  0  0  0  0  0  0
    3.0000   -1.0130    0.1330 C   0  0  2  0  0  0  0  0  0  0  0  0
    3.2810   -1.0820    1.5500 N   0  0  0  0  0  0  0  0  0  0  0  0
    1.9500    0.0680   -0.0420 C   0  0  0  0  0  0  0  0  0  0  0  0
    1.5820    0.3880   -1.1970 O   0  0  0  0  0  0  0  0  0  0  0  0
    0.1840   -4.9220   -3.2650 H   0  0  0  0  0  0  0  0  0  0  0  0
    1.4470   -3.9220   -4.0520 H   0  0  0  0  0  0  0  0  0  0  0  0
    1.2670   -1.7510   -1.9960 H   0  0  0  0  0  0  0  0  0  0  0  0
    2.9720   -2.4040   -2.2660 H   0  0  0  0  0  0  0  0  0  0  0  0
    3.0870   -3.1730    0.0280 H   0  0  0  0  0  0  0  0  0  0  0  0
    1.4880   -2.4700    0.4320 H   0  0  0  0  0  0  0  0  0  0  0  0
    3.8890   -0.8100   -0.4660 H   0  0  0  0  0  0  0  0  0  0  0  0
    2.4660   -1.5010    2.0330 H   0  0  0  0  0  0  0  0  0  0  0  0
    3.6540   -0.2120    1.9490 H   0  0  0  0  0  0  0  0  0  0  0  0
    1.3870    0.7130    1.0690 N   0  0  0  0  0  0  0  0  0  0  0  0
    0.4130    1.7580    1.1330 C   0  0  1  0  0  0  0  0  0  0  0  0
    0.3910    2.5580   -0.1520 C   0  0  0  0  0  0  0  0  0  0  0  0
    1.6790    3.2680   -0.4330 C   0  0  0  0  0  0  0  0  0  0  0  0
    1.9730    4.3230    0.5610 C   0  0  0  0  0  0  0  0  0  0  0  0
    1.1570    4.6530    1.4340 O   0  0  0  0  0  0  0  0  0  0  0  0
   -0.9090    1.3150    1.5630 C   0  0  0  0  0  0  0  0  0  0  0  0
   -1.8980    2.0880    1.6930 O   0  0  0  0  0  0  0  0  0  0  0  0
    3.2070    5.0020    0.5550 O   0  0  0  0  0  0  0  0  0  0  0  0
    1.7220    0.3810    2.0370 H   0  0  0  0  0  0  0  0  0  0  0  0
    0.8890    2.5180    1.8570 H   0  0  0  0  0  0  0  0  0  0  0  0
    0.0520    1.9670   -1.0130 H   0  0  0  0  0  0  0  0  0  0  0  0
   -0.3730    3.3850    0.0400 H   0  0  0  0  0  0  0  0  0  0  0  0
    1.5900    3.6930   -1.4670 H   0  0  0  0  0  0  0  0  0  0  0  0
    2.5770    2.5850   -0.3950 H   0  0  0  0  0  0  0  0  0  0  0  0
    3.4060    5.6390    1.3080 H   0  0  0  0  0  0  0  0  0  0  0  0
   -3.9850   -4.5510    0.1950 C   0  0  0  0  0  0  0  0  0  0  0  0
   -5.0480   -3.0920    0.3070 S   0  0  0  0  0  0  0  0  0  0  0  0
   -4.3950   -2.0230    1.6290 C   0  0  0  0  0  0  0  0  0  0  0  0
   -3.0450   -1.4680    1.2590 C   0  0  0  0  0  0  0  0  0  0  0  0
   -2.4580   -0.5620    2.3010 C   0  0  2  0  0  0  0  0  0  0  0  0
   -1.1510   -0.0640    1.8660 N   0  0  0  0  0  0  0  0  0  0  0  0
   -2.3690   -1.1440    3.6520 C   0  0  0  0  0  0  0  0  0  0  0  0
   -1.2490   -1.2300    4.2690 O   0  0  0  0  0  0  0  0  0  0  0  0
   -3.4470   -1.6370    4.3650 O   0  0  0  0  0  0  0  0  0  0  0  0
   -3.1360   -4.4680    0.9010 H   0  0  0  0  0  0  0  0  0  0  0  0
   -4.5370   -5.4820    0.4950 H   0  0  0  0  0  0  0  0  0  0  0  0
   -3.5530   -4.6610   -0.8270 H   0  0  0  0  0  0  0  0  0  0  0  0
   -4.2630   -2.6880    2.5340 H   0  0  0  0  0  0  0  0  0  0  0  0
   -5.1160   -1.2420    1.9320 H   0  0  0  0  0  0  0  0  0  0  0  0
   -3.1660   -0.9690    0.2800 H   0  0  0  0  0  0  0  0  0  0  0  0
   -2.3720   -2.3540    1.1030 H   0  0  0  0  0  0  0  0  0  0  0  0
   -3.1130    0.3350    2.3640 H   0  0  0  0  0  0  0  0  0  0  0  0
   -0.3590   -0.7350    1.7710 H   0  0  0  0  0  0  0  0  0  0  0  0
  1  2  1  0  0  0  0
  2  4  1  0  0  0  0
  2  3  2  0  0  0  0
  4  5  1  0  0  0  0
  5 14  1  0  0  0  0
  5  6  1  0  0  0  0
  5 15  1  0  0  0  0
  6 16  1  6  0  0  0
  6  7  1  0  0  0  0
  7 18  1  0  0  0  0
  7 17  1  0  0  0  0
  8  6  1  0  0  0  0
  8 19  1  0  0  0  0
  9  8  2  0  0  0  0
 10  1  1  0  0  0  0
 11  1  1  0  0  0  0
 12  4  1  0  0  0  0
 13  4  1  0  0  0  0
 19 20  1  0  0  0  0
 19 28  1  0  0  0  0
 20 25  1  0  0  0  0
 20 29  1  1  0  0  0
 21 31  1  0  0  0  0
 21 20  1  0  0  0  0
 22 33  1  0  0  0  0
 22 21  1  0  0  0  0
 22 23  1  0  0  0  0
 23 24  2  0  0  0  0
 25 26  2  0  0  0  0
 25 40  1  0  0  0  0
 27 23  1  0  0  0  0
 27 34  1  0  0  0  0
 30 21  1  0  0  0  0
 32 22  1  0  0  0  0
 35 36  1  0  0  0  0
 35 45  1  0  0  0  0
 35 44  1  0  0  0  0
 36 37  1  0  0  0  0
 37 48  1  0  0  0  0
 37 47  1  0  0  0  0
 38 37  1  0  0  0  0
 38 39  1  0  0  0  0
 39 51  1  1  0  0  0
 39 41  1  0  0  0  0
 40 39  1  0  0  0  0
 41 42  2  0  0  0  0
 41 43  1  0  0  0  0
 46 35  1  0  0  0  0
 49 38  1  0  0  0  0
 50 38  1  0  0  0  0
 52 40  1  0  0  0  0
M  END
$$$$
