QEQ.pdb
 OpenBabel07022418313D

 52 51  0  0  1  0  0  0  0  0999 V2000
    1.6840   -2.1380    5.3330 N   0  0  0  0  0  0  0  0  0  0  0  0
    2.4590   -1.1890    4.6130 C   0  0  0  0  0  0  0  0  0  0  0  0
    2.9290   -0.2190    5.2370 O   0  0  0  0  0  0  0  0  0  0  0  0
    2.6720   -1.3870    3.1930 C   0  0  0  0  0  0  0  0  0  0  0  0
    3.3030   -0.2950    2.4210 C   0  0  0  0  0  0  0  0  0  0  0  0
    2.6040    1.0090    2.3470 C   0  0  2  0  0  0  0  0  0  0  0  0
    2.3610    1.6870    3.5780 N   0  0  0  0  0  0  0  0  0  0  0  0
    1.3670    0.9310    1.5010 C   0  0  0  0  0  0  0  0  0  0  0  0
    0.2700    1.4280    1.9140 O   0  0  0  0  0  0  0  0  0  0  0  0
    1.2460   -1.8890    6.2400 H   0  0  0  0  0  0  0  0  0  0  0  0
    1.5160   -3.1200    4.9940 H   0  0  0  0  0  0  0  0  0  0  0  0
    1.7570   -1.7750    2.6590 H   0  0  0  0  0  0  0  0  0  0  0  0
    3.3820   -2.2710    3.1020 H   0  0  0  0  0  0  0  0  0  0  0  0
    4.3410   -0.1190    2.7860 H   0  0  0  0  0  0  0  0  0  0  0  0
    3.4200   -0.6720    1.3660 H   0  0  0  0  0  0  0  0  0  0  0  0
    3.2920    1.6900    1.7570 H   0  0  0  0  0  0  0  0  0  0  0  0
    1.4620    2.2370    3.5820 H   0  0  0  0  0  0  0  0  0  0  0  0
    3.1160    2.3370    3.8150 H   0  0  0  0  0  0  0  0  0  0  0  0
    1.3270    0.3210    0.2240 N   0  0  0  0  0  0  0  0  0  0  0  0
    0.0990    0.2590   -0.5840 C   0  0  1  0  0  0  0  0  0  0  0  0
    0.4050    0.9450   -1.8660 C   0  0  0  0  0  0  0  0  0  0  0  0
    0.8030    2.3710   -1.6510 C   0  0  0  0  0  0  0  0  0  0  0  0
   -0.2390    3.2060   -1.0320 C   0  0  0  0  0  0  0  0  0  0  0  0
   -1.3710    2.7800   -0.7680 O   0  0  0  0  0  0  0  0  0  0  0  0
   -0.3660   -1.1220   -0.7410 C   0  0  0  0  0  0  0  0  0  0  0  0
    0.2690   -2.0580   -0.2240 O   0  0  0  0  0  0  0  0  0  0  0  0
    0.0560    4.5190   -0.7310 O   0  0  0  0  0  0  0  0  0  0  0  0
    2.2070   -0.0950   -0.1480 H   0  0  0  0  0  0  0  0  0  0  0  0
   -0.6640    0.7840    0.0220 H   0  0  0  0  0  0  0  0  0  0  0  0
   -0.3700    0.8250   -2.6460 H   0  0  0  0  0  0  0  0  0  0  0  0
    1.3160    0.4350   -2.2990 H   0  0  0  0  0  0  0  0  0  0  0  0
    1.7010    2.4590   -0.9970 H   0  0  0  0  0  0  0  0  0  0  0  0
    1.1270    2.8240   -2.6290 H   0  0  0  0  0  0  0  0  0  0  0  0
   -0.4080    5.0440    0.0110 H   0  0  0  0  0  0  0  0  0  0  0  0
   -3.1180   -3.1590    2.5420 N   0  0  0  0  0  0  0  0  0  0  0  0
   -2.9930   -3.4150    1.1460 C   0  0  0  0  0  0  0  0  0  0  0  0
   -2.2920   -4.3740    0.7620 O   0  0  0  0  0  0  0  0  0  0  0  0
   -3.7050   -2.5240    0.2230 C   0  0  0  0  0  0  0  0  0  0  0  0
   -3.4740   -2.8240   -1.2190 C   0  0  0  0  0  0  0  0  0  0  0  0
   -2.0610   -2.7290   -1.6800 C   0  0  2  0  0  0  0  0  0  0  0  0
   -1.5330   -1.3900   -1.4770 N   0  0  0  0  0  0  0  0  0  0  0  0
   -2.0480   -2.9960   -3.1530 C   0  0  0  0  0  0  0  0  0  0  0  0
   -1.6340   -2.1500   -3.9890 O   0  0  0  0  0  0  0  0  0  0  0  0
   -2.5020   -4.2110   -3.6530 O   0  0  0  0  0  0  0  0  0  0  0  0
   -2.2970   -3.4020    3.1510 H   0  0  0  0  0  0  0  0  0  0  0  0
   -3.9770   -2.7550    2.9290 H   0  0  0  0  0  0  0  0  0  0  0  0
   -3.4830   -1.4720    0.5010 H   0  0  0  0  0  0  0  0  0  0  0  0
   -4.8020   -2.6470    0.4110 H   0  0  0  0  0  0  0  0  0  0  0  0
   -3.8570   -3.8460   -1.4200 H   0  0  0  0  0  0  0  0  0  0  0  0
   -4.1250   -2.1300   -1.8130 H   0  0  0  0  0  0  0  0  0  0  0  0
   -1.4400   -3.4960   -1.2010 H   0  0  0  0  0  0  0  0  0  0  0  0
   -2.0490   -0.6060   -1.9000 H   0  0  0  0  0  0  0  0  0  0  0  0
  1 10  1  0  0  0  0
  2  3  2  0  0  0  0
  2  1  1  0  0  0  0
  4  2  1  0  0  0  0
  5 14  1  0  0  0  0
  5  4  1  0  0  0  0
  6 16  1  6  0  0  0
  6  5  1  0  0  0  0
  6  7  1  0  0  0  0
  7 17  1  0  0  0  0
  7 18  1  0  0  0  0
  8  9  2  0  0  0  0
  8  6  1  0  0  0  0
 11  1  1  0  0  0  0
 12  4  1  0  0  0  0
 13  4  1  0  0  0  0
 15  5  1  0  0  0  0
 19  8  1  0  0  0  0
 20 29  1  1  0  0  0
 20 19  1  0  0  0  0
 21 22  1  0  0  0  0
 21 20  1  0  0  0  0
 22 23  1  0  0  0  0
 22 32  1  0  0  0  0
 23 24  2  0  0  0  0
 23 27  1  0  0  0  0
 25 20  1  0  0  0  0
 25 26  2  0  0  0  0
 27 34  1  0  0  0  0
 28 19  1  0  0  0  0
 30 21  1  0  0  0  0
 31 21  1  0  0  0  0
 33 22  1  0  0  0  0
 35 46  1  0  0  0  0
 35 45  1  0  0  0  0
 36 35  1  0  0  0  0
 37 36  2  0  0  0  0
 38 48  1  0  0  0  0
 38 47  1  0  0  0  0
 38 36  1  0  0  0  0
 39 38  1  0  0  0  0
 40 41  1  0  0  0  0
 40 39  1  0  0  0  0
 40 51  1  1  0  0  0
 41 25  1  0  0  0  0
 42 40  1  0  0  0  0
 43 42  2  0  0  0  0
 44 42  1  0  0  0  0
 49 39  1  0  0  0  0
 50 39  1  0  0  0  0
 52 41  1  0  0  0  0
M  END
$$$$
