QER.pdb
 OpenBabel07022418313D

 58 57  0  0  1  0  0  0  0  0999 V2000
   -0.5720   -3.0090    5.4710 N   0  0  0  0  0  0  0  0  0  0  0  0
    0.5450   -2.1210    5.3320 C   0  0  0  0  0  0  0  0  0  0  0  0
    1.5790   -2.3160    6.0020 O   0  0  0  0  0  0  0  0  0  0  0  0
    0.4860   -0.9680    4.3980 C   0  0  0  0  0  0  0  0  0  0  0  0
    1.7650   -0.2280    4.4550 C   0  0  0  0  0  0  0  0  0  0  0  0
    1.8630    0.9630    3.5700 C   0  0  2  0  0  0  0  0  0  0  0  0
    0.8840    1.9690    3.8350 N   0  0  0  0  0  0  0  0  0  0  0  0
    1.9320    0.6100    2.1160 C   0  0  0  0  0  0  0  0  0  0  0  0
    2.7340   -0.2750    1.7060 O   0  0  0  0  0  0  0  0  0  0  0  0
   -1.5330   -2.6730    5.6890 H   0  0  0  0  0  0  0  0  0  0  0  0
   -0.3420   -4.0270    5.3340 H   0  0  0  0  0  0  0  0  0  0  0  0
    0.3810   -1.4100    3.3750 H   0  0  0  0  0  0  0  0  0  0  0  0
   -0.4060   -0.3770    4.6830 H   0  0  0  0  0  0  0  0  0  0  0  0
    2.5940   -0.9270    4.2740 H   0  0  0  0  0  0  0  0  0  0  0  0
    1.9090    0.1400    5.5080 H   0  0  0  0  0  0  0  0  0  0  0  0
    2.8680    1.4390    3.7860 H   0  0  0  0  0  0  0  0  0  0  0  0
   -0.0500    1.6360    4.0820 H   0  0  0  0  0  0  0  0  0  0  0  0
    1.2150    2.5810    4.6270 H   0  0  0  0  0  0  0  0  0  0  0  0
    1.0630    1.3100    1.2440 N   0  0  0  0  0  0  0  0  0  0  0  0
    1.0610    1.0300   -0.2210 C   0  0  1  0  0  0  0  0  0  0  0  0
    2.4280    1.3800   -0.7540 C   0  0  0  0  0  0  0  0  0  0  0  0
    2.6190    1.1730   -2.2230 C   0  0  0  0  0  0  0  0  0  0  0  0
    1.7410    1.9510   -3.0960 C   0  0  0  0  0  0  0  0  0  0  0  0
    0.9250    2.7650   -2.6120 O   0  0  0  0  0  0  0  0  0  0  0  0
    0.6280   -0.3470   -0.4070 C   0  0  0  0  0  0  0  0  0  0  0  0
    0.4860   -1.0950    0.6340 O   0  0  0  0  0  0  0  0  0  0  0  0
    1.7490    1.8450   -4.4820 O   0  0  0  0  0  0  0  0  0  0  0  0
    0.4200    2.0280    1.6370 H   0  0  0  0  0  0  0  0  0  0  0  0
    0.3690    1.7870   -0.6410 H   0  0  0  0  0  0  0  0  0  0  0  0
    2.5870    2.4800   -0.5390 H   0  0  0  0  0  0  0  0  0  0  0  0
    3.2520    0.8740   -0.1970 H   0  0  0  0  0  0  0  0  0  0  0  0
    2.6080    0.1100   -2.5100 H   0  0  0  0  0  0  0  0  0  0  0  0
    3.7070    1.4850   -2.4350 H   0  0  0  0  0  0  0  0  0  0  0  0
    0.8660    1.9980   -4.9590 H   0  0  0  0  0  0  0  0  0  0  0  0
   -3.7040   -1.0690    1.8320 N   0  0  0  0  0  0  0  0  0  0  0  0
   -3.7660   -1.9760    0.7470 C   0  0  0  0  0  0  0  0  0  0  0  0
   -4.5210   -3.0310    0.7260 N   0  0  0  0  0  0  0  0  0  0  0  0
   -2.9540   -1.7520   -0.4370 N   0  0  0  0  0  0  0  0  0  0  0  0
   -3.3810   -2.2240   -1.7020 C   0  0  0  0  0  0  0  0  0  0  0  0
   -2.4110   -2.0070   -2.7870 C   0  0  0  0  0  0  0  0  0  0  0  0
   -1.0990   -2.6540   -2.7630 C   0  0  0  0  0  0  0  0  0  0  0  0
   -0.1110   -2.3970   -1.7100 C   0  0  2  0  0  0  0  0  0  0  0  0
    0.3210   -1.0150   -1.6090 N   0  0  0  0  0  0  0  0  0  0  0  0
    1.1190   -3.2260   -2.0470 C   0  0  0  0  0  0  0  0  0  0  0  0
    1.0400   -4.4600   -2.2010 O   0  0  0  0  0  0  0  0  0  0  0  0
    2.3180   -2.5810   -2.1780 O   0  0  0  0  0  0  0  0  0  0  0  0
   -2.8110   -0.8820    2.3750 H   0  0  0  0  0  0  0  0  0  0  0  0
   -4.5320   -0.5310    2.1620 H   0  0  0  0  0  0  0  0  0  0  0  0
   -5.1070   -3.1770    1.6000 H   0  0  0  0  0  0  0  0  0  0  0  0
   -2.0810   -1.2180   -0.2720 H   0  0  0  0  0  0  0  0  0  0  0  0
   -3.7950   -3.2650   -1.6700 H   0  0  0  0  0  0  0  0  0  0  0  0
   -4.3050   -1.6100   -1.9600 H   0  0  0  0  0  0  0  0  0  0  0  0
   -2.9270   -2.3020   -3.7660 H   0  0  0  0  0  0  0  0  0  0  0  0
   -2.3240   -0.8750   -2.9380 H   0  0  0  0  0  0  0  0  0  0  0  0
   -0.6100   -2.4390   -3.7760 H   0  0  0  0  0  0  0  0  0  0  0  0
   -1.2630   -3.7850   -2.8530 H   0  0  0  0  0  0  0  0  0  0  0  0
   -0.3690   -2.7210   -0.6760 H   0  0  0  0  0  0  0  0  0  0  0  0
    0.3850   -0.4950   -2.5020 H   0  0  0  0  0  0  0  0  0  0  0  0
  1 10  1  0  0  0  0
  2  1  1  0  0  0  0
  2  3  2  0  0  0  0
  4  5  1  0  0  0  0
  4 13  1  0  0  0  0
  4  2  1  0  0  0  0
  5 15  1  0  0  0  0
  6 16  1  1  0  0  0
  6  7  1  0  0  0  0
  6  5  1  0  0  0  0
  7 17  1  0  0  0  0
  7 18  1  0  0  0  0
  8  6  1  0  0  0  0
  9  8  2  0  0  0  0
 11  1  1  0  0  0  0
 12  4  1  0  0  0  0
 14  5  1  0  0  0  0
 19 28  1  0  0  0  0
 19  8  1  0  0  0  0
 20 29  1  6  0  0  0
 20 19  1  0  0  0  0
 21 30  1  0  0  0  0
 21 20  1  0  0  0  0
 21 31  1  0  0  0  0
 22 21  1  0  0  0  0
 23 24  2  0  0  0  0
 23 22  1  0  0  0  0
 25 20  1  0  0  0  0
 25 26  2  0  0  0  0
 27 23  1  0  0  0  0
 32 22  1  0  0  0  0
 33 22  1  0  0  0  0
 34 27  1  0  0  0  0
 35 48  1  0  0  0  0
 35 47  1  0  0  0  0
 36 35  1  0  0  0  0
 37 36  2  0  0  0  0
 37 49  1  0  0  0  0
 38 50  1  0  0  0  0
 38 36  1  0  0  0  0
 39 51  1  0  0  0  0
 39 38  1  0  0  0  0
 40 41  1  0  0  0  0
 40 39  1  0  0  0  0
 41 42  1  0  0  0  0
 42 43  1  0  0  0  0
 42 57  1  1  0  0  0
 43 25  1  0  0  0  0
 44 42  1  0  0  0  0
 45 44  2  0  0  0  0
 46 44  1  0  0  0  0
 52 39  1  0  0  0  0
 53 40  1  0  0  0  0
 54 40  1  0  0  0  0
 55 41  1  0  0  0  0
 56 41  1  0  0  0  0
 58 43  1  0  0  0  0
M  END
$$$$
