QEW.pdb
 OpenBabel07022418313D

 59 60  0  0  1  0  0  0  0  0999 V2000
    6.4710   -3.0070    3.0120 N   0  0  0  0  0  0  0  0  0  0  0  0
    5.1560   -2.6680    2.5690 C   0  0  0  0  0  0  0  0  0  0  0  0
    4.2200   -2.8990    3.3710 O   0  0  0  0  0  0  0  0  0  0  0  0
    4.8720   -2.0850    1.2640 C   0  0  0  0  0  0  0  0  0  0  0  0
    3.5500   -1.4800    1.0430 C   0  0  0  0  0  0  0  0  0  0  0  0
    3.1960   -0.2900    1.8900 C   0  0  2  0  0  0  0  0  0  0  0  0
    3.1890   -0.5560    3.3050 N   0  0  0  0  0  0  0  0  0  0  0  0
    1.8200    0.2110    1.5410 C   0  0  0  0  0  0  0  0  0  0  0  0
    0.9370    0.3080    2.4250 O   0  0  0  0  0  0  0  0  0  0  0  0
    7.1430   -3.3480    2.3050 H   0  0  0  0  0  0  0  0  0  0  0  0
    6.7780   -2.9290    3.9950 H   0  0  0  0  0  0  0  0  0  0  0  0
    4.9860   -2.9280    0.5130 H   0  0  0  0  0  0  0  0  0  0  0  0
    5.6570   -1.3570    0.9300 H   0  0  0  0  0  0  0  0  0  0  0  0
    2.7710   -2.2650    1.3040 H   0  0  0  0  0  0  0  0  0  0  0  0
    3.3350   -1.2280   -0.0180 H   0  0  0  0  0  0  0  0  0  0  0  0
    3.9470    0.5250    1.7230 H   0  0  0  0  0  0  0  0  0  0  0  0
    3.6200    0.1950    3.8830 H   0  0  0  0  0  0  0  0  0  0  0  0
    2.2200   -0.7930    3.6080 H   0  0  0  0  0  0  0  0  0  0  0  0
    1.4740    0.5860    0.2270 N   0  0  0  0  0  0  0  0  0  0  0  0
    0.1000    1.0800   -0.0940 C   0  0  1  0  0  0  0  0  0  0  0  0
    0.2100    2.4750   -0.5990 C   0  0  0  0  0  0  0  0  0  0  0  0
   -1.0930    3.0990   -0.9630 C   0  0  0  0  0  0  0  0  0  0  0  0
   -2.0440    3.2070    0.1360 C   0  0  0  0  0  0  0  0  0  0  0  0
   -1.7970    2.8640    1.3120 O   0  0  0  0  0  0  0  0  0  0  0  0
   -0.4750    0.0940   -1.0210 C   0  0  0  0  0  0  0  0  0  0  0  0
    0.3130   -0.7790   -1.5130 O   0  0  0  0  0  0  0  0  0  0  0  0
   -3.3390    3.7210   -0.0730 O   0  0  0  0  0  0  0  0  0  0  0  0
    2.2030    0.5070   -0.5060 H   0  0  0  0  0  0  0  0  0  0  0  0
   -0.5080    1.0700    0.8270 H   0  0  0  0  0  0  0  0  0  0  0  0
    0.6200    3.0860    0.2540 H   0  0  0  0  0  0  0  0  0  0  0  0
    0.9820    2.6000   -1.3910 H   0  0  0  0  0  0  0  0  0  0  0  0
   -0.8950    4.1660   -1.3520 H   0  0  0  0  0  0  0  0  0  0  0  0
   -1.5830    2.5960   -1.8330 H   0  0  0  0  0  0  0  0  0  0  0  0
   -4.0850    3.3740    0.5270 H   0  0  0  0  0  0  0  0  0  0  0  0
   -1.8060   -0.0190   -1.4430 N   0  0  0  0  0  0  0  0  0  0  0  0
   -2.3150   -0.9930   -2.3560 C   0  0  1  0  0  0  0  0  0  0  0  0
   -3.3070   -1.9670   -1.8290 C   0  0  0  0  0  0  0  0  0  0  0  0
   -2.8010   -2.8120   -0.7130 C   0  0  0  0  0  0  0  0  0  0  0  0
   -2.3540   -4.1240   -0.8230 C   0  0  0  0  0  0  0  0  0  0  0  0
   -1.9600   -4.5560    0.3840 N   0  0  0  0  0  0  0  0  0  0  0  0
   -2.1440   -3.5560    1.2660 C   0  0  0  0  0  0  0  0  0  0  0  0
   -1.8970   -3.5110    2.6190 C   0  0  0  0  0  0  0  0  0  0  0  0
   -2.1720   -2.3560    3.3460 C   0  0  0  0  0  0  0  0  0  0  0  0
   -2.6940   -1.2630    2.6920 C   0  0  0  0  0  0  0  0  0  0  0  0
   -2.9380   -1.3290    1.3150 C   0  0  0  0  0  0  0  0  0  0  0  0
   -2.6680   -2.4590    0.6010 C   0  0  0  0  0  0  0  0  0  0  0  0
   -2.9300   -0.2850   -3.5070 C   0  0  0  0  0  0  0  0  0  0  0  0
   -2.9600    0.9850   -3.5900 O   0  0  0  0  0  0  0  0  0  0  0  0
   -3.5090   -0.9940   -4.5610 O   0  0  0  0  0  0  0  0  0  0  0  0
   -2.5140    0.6440   -1.0660 H   0  0  0  0  0  0  0  0  0  0  0  0
   -1.4450   -1.5820   -2.7320 H   0  0  0  0  0  0  0  0  0  0  0  0
   -4.2890   -1.5040   -1.5690 H   0  0  0  0  0  0  0  0  0  0  0  0
   -3.5520   -2.6620   -2.6610 H   0  0  0  0  0  0  0  0  0  0  0  0
   -2.3280   -4.6970   -1.7300 H   0  0  0  0  0  0  0  0  0  0  0  0
   -1.5820   -5.5090    0.5680 H   0  0  0  0  0  0  0  0  0  0  0  0
   -1.4870   -4.3480    3.1760 H   0  0  0  0  0  0  0  0  0  0  0  0
   -1.9790   -2.3090    4.4230 H   0  0  0  0  0  0  0  0  0  0  0  0
   -2.9170   -0.3500    3.2380 H   0  0  0  0  0  0  0  0  0  0  0  0
   -3.3500   -0.4540    0.8480 H   0  0  0  0  0  0  0  0  0  0  0  0
  1 11  1  0  0  0  0
  2  1  1  0  0  0  0
  2  3  2  0  0  0  0
  4  2  1  0  0  0  0
  5  4  1  0  0  0  0
  5 14  1  0  0  0  0
  5  6  1  0  0  0  0
  6 16  1  6  0  0  0
  6  7  1  0  0  0  0
  7 18  1  0  0  0  0
  7 17  1  0  0  0  0
  8  6  1  0  0  0  0
  8  9  2  0  0  0  0
 10  1  1  0  0  0  0
 12  4  1  0  0  0  0
 13  4  1  0  0  0  0
 15  5  1  0  0  0  0
 19  8  1  0  0  0  0
 20 19  1  0  0  0  0
 20 29  1  1  0  0  0
 21 20  1  0  0  0  0
 21 30  1  0  0  0  0
 22 21  1  0  0  0  0
 22 23  1  0  0  0  0
 23 24  2  0  0  0  0
 25 20  1  0  0  0  0
 26 25  2  0  0  0  0
 27 23  1  0  0  0  0
 27 34  1  0  0  0  0
 28 19  1  0  0  0  0
 31 21  1  0  0  0  0
 32 22  1  0  0  0  0
 33 22  1  0  0  0  0
 35 50  1  0  0  0  0
 35 25  1  0  0  0  0
 36 51  1  6  0  0  0
 36 37  1  0  0  0  0
 36 35  1  0  0  0  0
 37 52  1  0  0  0  0
 37 38  1  0  0  0  0
 38 46  1  0  0  0  0
 39 38  2  0  0  0  0
 39 40  1  0  0  0  0
 40 55  1  0  0  0  0
 40 41  1  0  0  0  0
 41 42  1  0  0  0  0
 42 56  1  0  0  0  0
 42 43  2  0  0  0  0
 43 57  1  0  0  0  0
 44 58  1  0  0  0  0
 44 43  1  0  0  0  0
 45 44  2  0  0  0  0
 46 41  2  0  0  0  0
 46 45  1  0  0  0  0
 47 36  1  0  0  0  0
 48 47  1  0  0  0  0
 49 47  2  0  0  0  0
 53 37  1  0  0  0  0
 54 39  1  0  0  0  0
 59 45  1  0  0  0  0
M  END
$$$$
