QFC.pdb
 OpenBabel07022418333D

 50 50  0  0  1  0  0  0  0  0999 V2000
    5.9490   -1.1910    1.0940 N   0  0  0  0  0  0  0  0  0  0  0  0
    5.1330   -0.4680    0.1540 C   0  0  0  0  0  0  0  0  0  0  0  0
    5.2460   -0.7460   -1.0490 O   0  0  0  0  0  0  0  0  0  0  0  0
    4.2350    0.5450    0.7440 C   0  0  0  0  0  0  0  0  0  0  0  0
    3.3700    1.2610   -0.2280 C   0  0  0  0  0  0  0  0  0  0  0  0
    2.4380    0.3720   -1.0130 C   0  0  2  0  0  0  0  0  0  0  0  0
    1.6930    1.2610   -1.8930 N   0  0  0  0  0  0  0  0  0  0  0  0
    1.5520   -0.4430   -0.1710 C   0  0  0  0  0  0  0  0  0  0  0  0
    2.0480   -1.3040    0.6030 O   0  0  0  0  0  0  0  0  0  0  0  0
    6.9200   -0.9170    1.3210 H   0  0  0  0  0  0  0  0  0  0  0  0
    5.5130   -2.0200    1.5470 H   0  0  0  0  0  0  0  0  0  0  0  0
    4.8690    1.3300    1.2450 H   0  0  0  0  0  0  0  0  0  0  0  0
    3.6390    0.0720    1.5350 H   0  0  0  0  0  0  0  0  0  0  0  0
    4.0120    1.8310   -0.9320 H   0  0  0  0  0  0  0  0  0  0  0  0
    2.7550    2.0070    0.3160 H   0  0  0  0  0  0  0  0  0  0  0  0
    3.0570   -0.2870   -1.6550 H   0  0  0  0  0  0  0  0  0  0  0  0
    2.2070    1.4960   -2.7580 H   0  0  0  0  0  0  0  0  0  0  0  0
    1.2480    2.0420   -1.4040 H   0  0  0  0  0  0  0  0  0  0  0  0
    0.1500   -0.2330   -0.2560 N   0  0  0  0  0  0  0  0  0  0  0  0
   -0.7840   -0.9950    0.5400 C   0  0  1  0  0  0  0  0  0  0  0  0
   -1.6940   -0.1060    1.3460 C   0  0  0  0  0  0  0  0  0  0  0  0
   -0.9900    0.7660    2.2840 C   0  0  0  0  0  0  0  0  0  0  0  0
   -0.6930    0.4170    3.5850 C   0  0  0  0  0  0  0  0  0  0  0  0
   -0.0240    1.3100    4.3970 C   0  0  0  0  0  0  0  0  0  0  0  0
    0.3660    2.5510    3.9560 C   0  0  0  0  0  0  0  0  0  0  0  0
    0.0710    2.9030    2.6560 C   0  0  0  0  0  0  0  0  0  0  0  0
   -0.6010    2.0120    1.8350 C   0  0  0  0  0  0  0  0  0  0  0  0
   -1.6350   -1.7820   -0.3770 C   0  0  0  0  0  0  0  0  0  0  0  0
   -1.4470   -1.6890   -1.6110 O   0  0  0  0  0  0  0  0  0  0  0  0
   -0.1850    0.4940   -0.9160 H   0  0  0  0  0  0  0  0  0  0  0  0
   -0.2430   -1.7200    1.1820 H   0  0  0  0  0  0  0  0  0  0  0  0
   -2.3710   -0.7670    1.9290 H   0  0  0  0  0  0  0  0  0  0  0  0
   -2.2730    0.5060    0.6360 H   0  0  0  0  0  0  0  0  0  0  0  0
   -0.9950   -0.5730    3.9620 H   0  0  0  0  0  0  0  0  0  0  0  0
    0.2060    1.0190    5.4310 H   0  0  0  0  0  0  0  0  0  0  0  0
    0.8940    3.2650    4.5830 H   0  0  0  0  0  0  0  0  0  0  0  0
    0.3730    3.8840    2.2870 H   0  0  0  0  0  0  0  0  0  0  0  0
   -0.7970    2.3610    0.8240 H   0  0  0  0  0  0  0  0  0  0  0  0
   -2.6680   -2.6500    0.0750 N   0  0  0  0  0  0  0  0  0  0  0  0
   -3.4690   -3.3940   -0.8610 C   0  0  1  0  0  0  0  0  0  0  0  0
   -3.3580   -4.8840   -0.5970 C   0  0  0  0  0  0  0  0  0  0  0  0
   -3.9380   -5.2340    1.0870 S   0  0  0  0  0  0  0  0  0  0  0  0
   -4.8970   -2.9990   -0.7740 C   0  0  0  0  0  0  0  0  0  0  0  0
   -5.6950   -3.5890   -1.5530 O   0  0  0  0  0  0  0  0  0  0  0  0
   -5.3440   -2.0290    0.1160 O   0  0  0  0  0  0  0  0  0  0  0  0
   -2.8270   -2.7290    1.1120 H   0  0  0  0  0  0  0  0  0  0  0  0
   -3.1350   -3.1630   -1.8880 H   0  0  0  0  0  0  0  0  0  0  0  0
   -2.3180   -5.2320   -0.7220 H   0  0  0  0  0  0  0  0  0  0  0  0
   -4.0110   -5.4390   -1.2940 H   0  0  0  0  0  0  0  0  0  0  0  0
   -3.0240   -6.0810    1.7580 H   0  0  0  0  0  0  0  0  0  0  0  0
  1 10  1  0  0  0  0
  1 11  1  0  0  0  0
  2  4  1  0  0  0  0
  2  1  1  0  0  0  0
  3  2  2  0  0  0  0
  4 12  1  0  0  0  0
  4 13  1  0  0  0  0
  5 15  1  0  0  0  0
  5  4  1  0  0  0  0
  6 16  1  6  0  0  0
  6  5  1  0  0  0  0
  6  8  1  0  0  0  0
  7 18  1  0  0  0  0
  7  6  1  0  0  0  0
  8  9  2  0  0  0  0
 14  5  1  0  0  0  0
 17  7  1  0  0  0  0
 19  8  1  0  0  0  0
 19 20  1  0  0  0  0
 20 31  1  1  0  0  0
 20 21  1  0  0  0  0
 21 32  1  0  0  0  0
 21 22  1  0  0  0  0
 22 23  1  0  0  0  0
 23 34  1  0  0  0  0
 23 24  2  0  0  0  0
 24 35  1  0  0  0  0
 25 24  1  0  0  0  0
 25 36  1  0  0  0  0
 26 25  2  0  0  0  0
 27 22  2  0  0  0  0
 27 26  1  0  0  0  0
 28 39  1  0  0  0  0
 28 20  1  0  0  0  0
 29 28  2  0  0  0  0
 30 19  1  0  0  0  0
 33 21  1  0  0  0  0
 37 26  1  0  0  0  0
 38 27  1  0  0  0  0
 39 46  1  0  0  0  0
 40 47  1  6  0  0  0
 40 43  1  0  0  0  0
 40 41  1  0  0  0  0
 40 39  1  0  0  0  0
 41 42  1  0  0  0  0
 42 50  1  0  0  0  0
 43 45  1  0  0  0  0
 44 43  2  0  0  0  0
 48 41  1  0  0  0  0
 49 41  1  0  0  0  0
M  END
$$$$
