QFH.pdb
 OpenBabel07022418333D

 56 57  0  0  1  0  0  0  0  0999 V2000
    6.6130   -2.7200    3.6210 N   0  0  0  0  0  0  0  0  0  0  0  0
    5.3880   -2.7040    2.8640 C   0  0  0  0  0  0  0  0  0  0  0  0
    4.8670   -3.8000    2.6390 O   0  0  0  0  0  0  0  0  0  0  0  0
    4.8470   -1.4180    2.4140 C   0  0  0  0  0  0  0  0  0  0  0  0
    3.4400   -1.4090    1.9560 C   0  0  0  0  0  0  0  0  0  0  0  0
    2.4330   -1.7590    2.9860 C   0  0  2  0  0  0  0  0  0  0  0  0
    2.5980   -3.0570    3.5320 N   0  0  0  0  0  0  0  0  0  0  0  0
    1.0570   -1.6920    2.4040 C   0  0  0  0  0  0  0  0  0  0  0  0
    0.2570   -2.6630    2.4390 O   0  0  0  0  0  0  0  0  0  0  0  0
    7.3280   -2.0120    3.3590 H   0  0  0  0  0  0  0  0  0  0  0  0
    6.7990   -3.3830    4.3850 H   0  0  0  0  0  0  0  0  0  0  0  0
    4.9770   -0.6580    3.2440 H   0  0  0  0  0  0  0  0  0  0  0  0
    5.5100   -1.0330    1.5790 H   0  0  0  0  0  0  0  0  0  0  0  0
    3.2240   -0.4380    1.4480 H   0  0  0  0  0  0  0  0  0  0  0  0
    3.3550   -2.1660    1.1230 H   0  0  0  0  0  0  0  0  0  0  0  0
    2.5070   -1.0300    3.8330 H   0  0  0  0  0  0  0  0  0  0  0  0
    2.2280   -3.0750    4.5100 H   0  0  0  0  0  0  0  0  0  0  0  0
    2.0240   -3.7460    2.9950 H   0  0  0  0  0  0  0  0  0  0  0  0
    0.6370   -0.5060    1.7970 N   0  0  0  0  0  0  0  0  0  0  0  0
   -0.7040   -0.3190    1.1850 C   0  0  1  0  0  0  0  0  0  0  0  0
   -1.3780    0.7720    1.9040 C   0  0  0  0  0  0  0  0  0  0  0  0
   -2.7050    1.1940    1.5410 C   0  0  0  0  0  0  0  0  0  0  0  0
   -2.8480    2.2460    0.6560 C   0  0  0  0  0  0  0  0  0  0  0  0
   -4.0710    2.7230    0.2450 C   0  0  0  0  0  0  0  0  0  0  0  0
   -5.2220    2.1500    0.7170 C   0  0  0  0  0  0  0  0  0  0  0  0
   -5.1210    1.1080    1.5950 C   0  0  0  0  0  0  0  0  0  0  0  0
   -3.8860    0.6440    1.9950 C   0  0  0  0  0  0  0  0  0  0  0  0
   -0.4390   -0.1200   -0.2520 C   0  0  0  0  0  0  0  0  0  0  0  0
    0.7530   -0.0380   -0.7190 O   0  0  0  0  0  0  0  0  0  0  0  0
    1.2940    0.3160    1.7590 H   0  0  0  0  0  0  0  0  0  0  0  0
   -1.1850   -1.3280    1.3620 H   0  0  0  0  0  0  0  0  0  0  0  0
   -0.6970    1.6770    1.8350 H   0  0  0  0  0  0  0  0  0  0  0  0
   -1.3770    0.5090    3.0100 H   0  0  0  0  0  0  0  0  0  0  0  0
   -1.9690    2.7460    0.2450 H   0  0  0  0  0  0  0  0  0  0  0  0
   -4.1330    3.5640   -0.4630 H   0  0  0  0  0  0  0  0  0  0  0  0
   -6.1760    2.5560    0.3690 H   0  0  0  0  0  0  0  0  0  0  0  0
   -6.0430    0.6540    1.9690 H   0  0  0  0  0  0  0  0  0  0  0  0
   -3.8210   -0.1700    2.6790 H   0  0  0  0  0  0  0  0  0  0  0  0
   -1.4450   -0.0020   -1.2640 N   0  0  0  0  0  0  0  0  0  0  0  0
   -1.1110    0.1790   -2.6680 C   0  0  1  0  0  0  0  0  0  0  0  0
   -1.8020   -0.9210   -3.4390 C   0  0  0  0  0  0  0  0  0  0  0  0
   -1.3420   -2.2360   -2.9750 C   0  0  0  0  0  0  0  0  0  0  0  0
   -1.7940   -3.4600   -3.4910 C   0  0  0  0  0  0  0  0  0  0  0  0
   -1.1890   -4.4800   -2.8630 N   0  0  0  0  0  0  0  0  0  0  0  0
   -0.3580   -3.9320   -1.9540 C   0  0  0  0  0  0  0  0  0  0  0  0
   -0.4580   -2.5930   -2.0310 N   0  0  0  0  0  0  0  0  0  0  0  0
   -1.5040    1.5010   -3.2000 C   0  0  0  0  0  0  0  0  0  0  0  0
   -2.0650    2.3240   -2.4610 O   0  0  0  0  0  0  0  0  0  0  0  0
   -1.2490    1.8250   -4.5130 O   0  0  0  0  0  0  0  0  0  0  0  0
   -2.4440   -0.0560   -0.9820 H   0  0  0  0  0  0  0  0  0  0  0  0
   -0.0130    0.0970   -2.8310 H   0  0  0  0  0  0  0  0  0  0  0  0
   -1.5810   -0.7460   -4.5120 H   0  0  0  0  0  0  0  0  0  0  0  0
   -2.9100   -0.8070   -3.3180 H   0  0  0  0  0  0  0  0  0  0  0  0
   -2.5350   -3.5380   -4.2910 H   0  0  0  0  0  0  0  0  0  0  0  0
   -1.3590   -5.4920   -3.0700 H   0  0  0  0  0  0  0  0  0  0  0  0
    0.2620   -4.5390   -1.3010 H   0  0  0  0  0  0  0  0  0  0  0  0
  1 11  1  0  0  0  0
  2  1  1  0  0  0  0
  3  2  2  0  0  0  0
  4  2  1  0  0  0  0
  4 12  1  0  0  0  0
  5  4  1  0  0  0  0
  5  6  1  0  0  0  0
  6  7  1  0  0  0  0
  6 16  1  1  0  0  0
  7 17  1  0  0  0  0
  8  9  2  0  0  0  0
  8  6  1  0  0  0  0
 10  1  1  0  0  0  0
 13  4  1  0  0  0  0
 14  5  1  0  0  0  0
 15  5  1  0  0  0  0
 18  7  1  0  0  0  0
 19  8  1  0  0  0  0
 20 31  1  1  0  0  0
 20 19  1  0  0  0  0
 20 21  1  0  0  0  0
 21 33  1  0  0  0  0
 22 21  1  0  0  0  0
 22 27  1  0  0  0  0
 23 22  2  0  0  0  0
 24 23  1  0  0  0  0
 24 25  2  0  0  0  0
 25 26  1  0  0  0  0
 26 37  1  0  0  0  0
 26 27  2  0  0  0  0
 27 38  1  0  0  0  0
 28 20  1  0  0  0  0
 29 28  2  0  0  0  0
 30 19  1  0  0  0  0
 32 21  1  0  0  0  0
 34 23  1  0  0  0  0
 35 24  1  0  0  0  0
 36 25  1  0  0  0  0
 39 50  1  0  0  0  0
 39 28  1  0  0  0  0
 40 51  1  6  0  0  0
 40 39  1  0  0  0  0
 41 53  1  0  0  0  0
 41 42  1  0  0  0  0
 41 40  1  0  0  0  0
 42 46  1  0  0  0  0
 43 42  2  0  0  0  0
 43 44  1  0  0  0  0
 44 45  1  0  0  0  0
 45 56  1  0  0  0  0
 46 45  2  0  0  0  0
 47 40  1  0  0  0  0
 47 48  1  0  0  0  0
 49 47  2  0  0  0  0
 52 41  1  0  0  0  0
 54 43  1  0  0  0  0
 55 44  1  0  0  0  0
M  END
$$$$
