QFM.pdb
 OpenBabel07022418333D

 56 56  0  0  1  0  0  0  0  0999 V2000
    3.8760   -4.2470    2.3080 N   0  0  0  0  0  0  0  0  0  0  0  0
    4.2440   -2.9950    1.7430 C   0  0  0  0  0  0  0  0  0  0  0  0
    5.2850   -2.4530    2.1510 O   0  0  0  0  0  0  0  0  0  0  0  0
    3.4060   -2.4050    0.7230 C   0  0  0  0  0  0  0  0  0  0  0  0
    3.6150   -0.9920    0.3500 C   0  0  0  0  0  0  0  0  0  0  0  0
    3.3990    0.0470    1.3850 C   0  0  2  0  0  0  0  0  0  0  0  0
    4.2680   -0.1370    2.4950 N   0  0  0  0  0  0  0  0  0  0  0  0
    1.9660    0.0810    1.8540 C   0  0  0  0  0  0  0  0  0  0  0  0
    1.7400   -0.0760    3.0800 O   0  0  0  0  0  0  0  0  0  0  0  0
    3.5810   -5.0680    1.7360 H   0  0  0  0  0  0  0  0  0  0  0  0
    3.8810   -4.4120    3.3510 H   0  0  0  0  0  0  0  0  0  0  0  0
    3.5820   -3.0050   -0.2280 H   0  0  0  0  0  0  0  0  0  0  0  0
    2.3380   -2.6350    0.9760 H   0  0  0  0  0  0  0  0  0  0  0  0
    4.6480   -0.9010   -0.0700 H   0  0  0  0  0  0  0  0  0  0  0  0
    2.9530   -0.7690   -0.5190 H   0  0  0  0  0  0  0  0  0  0  0  0
    3.6650    1.0440    0.9350 H   0  0  0  0  0  0  0  0  0  0  0  0
    3.8450    0.1540    3.4140 H   0  0  0  0  0  0  0  0  0  0  0  0
    5.2100    0.3110    2.3710 H   0  0  0  0  0  0  0  0  0  0  0  0
    0.8750    0.2780    0.9960 N   0  0  0  0  0  0  0  0  0  0  0  0
   -0.4870    0.3010    1.4970 C   0  0  1  0  0  0  0  0  0  0  0  0
   -1.1170    1.6370    1.3260 C   0  0  0  0  0  0  0  0  0  0  0  0
   -2.4880    1.7200    1.8050 C   0  0  0  0  0  0  0  0  0  0  0  0
   -3.5260    1.5210    0.8930 C   0  0  0  0  0  0  0  0  0  0  0  0
   -4.8490    1.5730    1.2510 C   0  0  0  0  0  0  0  0  0  0  0  0
   -5.1410    1.8310    2.5540 C   0  0  0  0  0  0  0  0  0  0  0  0
   -4.1640    2.0330    3.4870 C   0  0  0  0  0  0  0  0  0  0  0  0
   -2.8480    1.9760    3.1040 C   0  0  0  0  0  0  0  0  0  0  0  0
   -1.3100   -0.7280    0.8190 C   0  0  0  0  0  0  0  0  0  0  0  0
   -2.5110   -0.9740    1.0910 O   0  0  0  0  0  0  0  0  0  0  0  0
    1.0370    0.4130   -0.0330 H   0  0  0  0  0  0  0  0  0  0  0  0
   -0.4230    0.1140    2.5990 H   0  0  0  0  0  0  0  0  0  0  0  0
   -0.5460    2.4650    1.7940 H   0  0  0  0  0  0  0  0  0  0  0  0
   -1.1060    1.8480    0.2140 H   0  0  0  0  0  0  0  0  0  0  0  0
   -3.3160    1.3180   -0.1530 H   0  0  0  0  0  0  0  0  0  0  0  0
   -5.6620    1.4190    0.5400 H   0  0  0  0  0  0  0  0  0  0  0  0
   -6.1920    1.8720    2.8370 H   0  0  0  0  0  0  0  0  0  0  0  0
   -4.4450    2.2390    4.5330 H   0  0  0  0  0  0  0  0  0  0  0  0
   -2.0680    2.1340    3.8320 H   0  0  0  0  0  0  0  0  0  0  0  0
   -0.5380   -0.5850   -5.1330 C   0  0  0  0  0  0  0  0  0  0  0  0
   -2.2190   -0.6730   -4.4660 S   0  0  0  0  0  0  0  0  0  0  0  0
   -2.1500   -0.9910   -2.6820 C   0  0  0  0  0  0  0  0  0  0  0  0
   -1.5770   -2.3770   -2.3970 C   0  0  0  0  0  0  0  0  0  0  0  0
   -1.5640   -2.5360   -0.8900 C   0  0  2  0  0  0  0  0  0  0  0  0
   -0.7620   -1.5440   -0.2390 N   0  0  0  0  0  0  0  0  0  0  0  0
   -0.9980   -3.8970   -0.6190 C   0  0  0  0  0  0  0  0  0  0  0  0
   -1.6210   -4.8580   -1.1420 O   0  0  0  0  0  0  0  0  0  0  0  0
    0.1270   -4.0920    0.1490 O   0  0  0  0  0  0  0  0  0  0  0  0
   -0.4930   -0.0770   -6.1020 H   0  0  0  0  0  0  0  0  0  0  0  0
    0.1530   -0.0650   -4.4290 H   0  0  0  0  0  0  0  0  0  0  0  0
   -0.1290   -1.6080   -5.2790 H   0  0  0  0  0  0  0  0  0  0  0  0
   -1.5820   -0.2070   -2.1450 H   0  0  0  0  0  0  0  0  0  0  0  0
   -3.1810   -0.9910   -2.2730 H   0  0  0  0  0  0  0  0  0  0  0  0
   -2.2850   -3.0860   -2.8740 H   0  0  0  0  0  0  0  0  0  0  0  0
   -0.6020   -2.5370   -2.8520 H   0  0  0  0  0  0  0  0  0  0  0  0
   -2.5930   -2.5580   -0.4780 H   0  0  0  0  0  0  0  0  0  0  0  0
    0.2320   -1.3920   -0.5160 H   0  0  0  0  0  0  0  0  0  0  0  0
  1 11  1  0  0  0  0
  2  3  2  0  0  0  0
  2  1  1  0  0  0  0
  4 13  1  0  0  0  0
  4  2  1  0  0  0  0
  5  4  1  0  0  0  0
  5  6  1  0  0  0  0
  6 16  1  6  0  0  0
  6  8  1  0  0  0  0
  6  7  1  0  0  0  0
  7 17  1  0  0  0  0
  8  9  2  0  0  0  0
 10  1  1  0  0  0  0
 12  4  1  0  0  0  0
 14  5  1  0  0  0  0
 15  5  1  0  0  0  0
 18  7  1  0  0  0  0
 19 20  1  0  0  0  0
 19  8  1  0  0  0  0
 20 31  1  1  0  0  0
 21 20  1  0  0  0  0
 21 32  1  0  0  0  0
 21 22  1  0  0  0  0
 22 27  1  0  0  0  0
 23 24  1  0  0  0  0
 23 22  2  0  0  0  0
 24 25  2  0  0  0  0
 25 36  1  0  0  0  0
 25 26  1  0  0  0  0
 26 37  1  0  0  0  0
 27 26  2  0  0  0  0
 27 38  1  0  0  0  0
 28 29  2  0  0  0  0
 28 20  1  0  0  0  0
 30 19  1  0  0  0  0
 33 21  1  0  0  0  0
 34 23  1  0  0  0  0
 35 24  1  0  0  0  0
 39 40  1  0  0  0  0
 39 49  1  0  0  0  0
 40 41  1  0  0  0  0
 41 42  1  0  0  0  0
 41 52  1  0  0  0  0
 41 51  1  0  0  0  0
 42 43  1  0  0  0  0
 43 45  1  0  0  0  0
 43 55  1  1  0  0  0
 43 44  1  0  0  0  0
 44 28  1  0  0  0  0
 45 47  1  0  0  0  0
 46 45  2  0  0  0  0
 48 39  1  0  0  0  0
 50 39  1  0  0  0  0
 53 42  1  0  0  0  0
 54 42  1  0  0  0  0
 56 44  1  0  0  0  0
M  END
$$$$
