QFP.pdb
 OpenBabel07022418333D

 53 54  0  0  1  0  0  0  0  0999 V2000
    5.2680   -2.7480   -0.5030 N   0  0  0  0  0  0  0  0  0  0  0  0
    5.0640   -1.4090   -0.0900 C   0  0  0  0  0  0  0  0  0  0  0  0
    5.9310   -0.9250    0.6730 O   0  0  0  0  0  0  0  0  0  0  0  0
    3.9150   -0.5970   -0.5130 C   0  0  0  0  0  0  0  0  0  0  0  0
    3.6510    0.6430    0.2490 C   0  0  0  0  0  0  0  0  0  0  0  0
    3.3100    0.5100    1.6900 C   0  0  2  0  0  0  0  0  0  0  0  0
    4.3230   -0.1190    2.4970 N   0  0  0  0  0  0  0  0  0  0  0  0
    2.0470   -0.2530    1.8520 C   0  0  0  0  0  0  0  0  0  0  0  0
    2.0420   -1.2520    2.6050 O   0  0  0  0  0  0  0  0  0  0  0  0
    5.6080   -3.4380    0.1840 H   0  0  0  0  0  0  0  0  0  0  0  0
    5.0790   -3.0260   -1.4750 H   0  0  0  0  0  0  0  0  0  0  0  0
    3.0020   -1.2340   -0.6530 H   0  0  0  0  0  0  0  0  0  0  0  0
    4.1570   -0.2710   -1.5740 H   0  0  0  0  0  0  0  0  0  0  0  0
    2.7670    1.1530   -0.2390 H   0  0  0  0  0  0  0  0  0  0  0  0
    4.5150    1.3340    0.0700 H   0  0  0  0  0  0  0  0  0  0  0  0
    3.1840    1.5640    2.0790 H   0  0  0  0  0  0  0  0  0  0  0  0
    5.0570    0.5500    2.8230 H   0  0  0  0  0  0  0  0  0  0  0  0
    3.8450   -0.5890    3.3010 H   0  0  0  0  0  0  0  0  0  0  0  0
    0.8370    0.0890    1.1980 N   0  0  0  0  0  0  0  0  0  0  0  0
   -0.3830   -0.7190    1.4090 C   0  0  1  0  0  0  0  0  0  0  0  0
   -1.4340    0.1640    2.0660 C   0  0  0  0  0  0  0  0  0  0  0  0
   -1.7820    1.3250    1.2410 C   0  0  0  0  0  0  0  0  0  0  0  0
   -1.1070    2.5160    1.3530 C   0  0  0  0  0  0  0  0  0  0  0  0
   -1.4490    3.6180    0.5590 C   0  0  0  0  0  0  0  0  0  0  0  0
   -2.4770    3.5130   -0.3500 C   0  0  0  0  0  0  0  0  0  0  0  0
   -3.1580    2.3250   -0.4690 C   0  0  0  0  0  0  0  0  0  0  0  0
   -2.8070    1.2280    0.3300 C   0  0  0  0  0  0  0  0  0  0  0  0
   -0.8050   -1.2760    0.1160 C   0  0  0  0  0  0  0  0  0  0  0  0
   -0.1800   -0.8550   -0.9300 O   0  0  0  0  0  0  0  0  0  0  0  0
    0.8340    0.9160    0.5720 H   0  0  0  0  0  0  0  0  0  0  0  0
   -0.1650   -1.5400    2.1010 H   0  0  0  0  0  0  0  0  0  0  0  0
   -0.9380    0.5390    3.0160 H   0  0  0  0  0  0  0  0  0  0  0  0
   -2.2570   -0.4480    2.4020 H   0  0  0  0  0  0  0  0  0  0  0  0
   -0.2900    2.6740    2.0430 H   0  0  0  0  0  0  0  0  0  0  0  0
   -0.9300    4.5620    0.6330 H   0  0  0  0  0  0  0  0  0  0  0  0
   -2.7830    4.3330   -0.9880 H   0  0  0  0  0  0  0  0  0  0  0  0
   -3.9630    2.2220   -1.1730 H   0  0  0  0  0  0  0  0  0  0  0  0
   -3.3910    0.3320    0.1750 H   0  0  0  0  0  0  0  0  0  0  0  0
   -1.8210   -2.2270   -0.1090 N   0  0  0  0  0  0  0  0  0  0  0  0
   -2.2050   -2.7000   -1.4340 C   0  0  0  0  0  0  0  0  0  0  0  0
   -3.7210   -2.5630   -1.3680 C   0  0  0  0  0  0  0  0  0  0  0  0
   -4.0390   -2.8000    0.0920 C   0  0  0  0  0  0  0  0  0  0  0  0
   -2.6780   -2.9630    0.7820 C   0  0  1  0  0  0  0  0  0  0  0  0
   -2.3170   -4.4170    0.8420 C   0  0  0  0  0  0  0  0  0  0  0  0
   -1.3660   -4.9360    0.2320 O   0  0  0  0  0  0  0  0  0  0  0  0
   -3.1120   -5.2240    1.6400 O   0  0  0  0  0  0  0  0  0  0  0  0
   -1.9170   -3.7230   -1.6530 H   0  0  0  0  0  0  0  0  0  0  0  0
   -1.7790   -2.0540   -2.2290 H   0  0  0  0  0  0  0  0  0  0  0  0
   -4.2220   -3.3160   -2.0120 H   0  0  0  0  0  0  0  0  0  0  0  0
   -3.9520   -1.5350   -1.6920 H   0  0  0  0  0  0  0  0  0  0  0  0
   -4.5220   -1.9240    0.5550 H   0  0  0  0  0  0  0  0  0  0  0  0
   -4.6380   -3.7170    0.2010 H   0  0  0  0  0  0  0  0  0  0  0  0
   -2.7090   -2.6260    1.8140 H   0  0  0  0  0  0  0  0  0  0  0  0
  1  2  1  0  0  0  0
  1 10  1  0  0  0  0
  2  3  2  0  0  0  0
  4  2  1  0  0  0  0
  4  5  1  0  0  0  0
  5  6  1  0  0  0  0
  6  8  1  0  0  0  0
  6 16  1  1  0  0  0
  6  7  1  0  0  0  0
  7 17  1  0  0  0  0
  7 18  1  0  0  0  0
  8  9  2  0  0  0  0
 11  1  1  0  0  0  0
 12  4  1  0  0  0  0
 13  4  1  0  0  0  0
 14  5  1  0  0  0  0
 15  5  1  0  0  0  0
 19 20  1  0  0  0  0
 19  8  1  0  0  0  0
 20 21  1  0  0  0  0
 20 31  1  1  0  0  0
 21 33  1  0  0  0  0
 21 32  1  0  0  0  0
 22 23  1  0  0  0  0
 22 21  1  0  0  0  0
 23 34  1  0  0  0  0
 24 35  1  0  0  0  0
 24 23  2  0  0  0  0
 25 24  1  0  0  0  0
 26 25  2  0  0  0  0
 26 27  1  0  0  0  0
 27 22  2  0  0  0  0
 28 20  1  0  0  0  0
 29 28  2  0  0  0  0
 30 19  1  0  0  0  0
 36 25  1  0  0  0  0
 37 26  1  0  0  0  0
 38 27  1  0  0  0  0
 39 28  1  0  0  0  0
 39 43  1  0  0  0  0
 40 41  1  0  0  0  0
 40 39  1  0  0  0  0
 41 42  1  0  0  0  0
 42 52  1  0  0  0  0
 42 51  1  0  0  0  0
 42 43  1  0  0  0  0
 43 44  1  0  0  0  0
 43 53  1  1  0  0  0
 44 46  1  0  0  0  0
 45 44  2  0  0  0  0
 47 40  1  0  0  0  0
 48 40  1  0  0  0  0
 49 41  1  0  0  0  0
 50 41  1  0  0  0  0
M  END
$$$$
