QFS.pdb
 OpenBabel07022418333D

 50 50  0  0  1  0  0  0  0  0999 V2000
    3.7910   -1.6260    2.9740 N   0  0  0  0  0  0  0  0  0  0  0  0
    3.5530   -1.5340    1.5750 C   0  0  0  0  0  0  0  0  0  0  0  0
    3.6240   -2.5720    0.8910 O   0  0  0  0  0  0  0  0  0  0  0  0
    3.2330   -0.1900    1.0290 C   0  0  0  0  0  0  0  0  0  0  0  0
    2.9930   -0.1560   -0.4280 C   0  0  0  0  0  0  0  0  0  0  0  0
    1.8540   -0.9480   -0.9700 C   0  0  2  0  0  0  0  0  0  0  0  0
    1.8990   -0.7380   -2.4340 N   0  0  0  0  0  0  0  0  0  0  0  0
    0.5150   -0.5010   -0.4770 C   0  0  0  0  0  0  0  0  0  0  0  0
   -0.2380    0.1400   -1.2870 O   0  0  0  0  0  0  0  0  0  0  0  0
    4.7550   -1.8260    3.3660 H   0  0  0  0  0  0  0  0  0  0  0  0
    3.0240   -1.5000    3.6580 H   0  0  0  0  0  0  0  0  0  0  0  0
    2.4650    0.3110    1.6430 H   0  0  0  0  0  0  0  0  0  0  0  0
    4.1700    0.4170    1.2160 H   0  0  0  0  0  0  0  0  0  0  0  0
    2.9160    0.9210   -0.7260 H   0  0  0  0  0  0  0  0  0  0  0  0
    3.9170   -0.5170   -0.9440 H   0  0  0  0  0  0  0  0  0  0  0  0
    1.9450   -2.0130   -0.7840 H   0  0  0  0  0  0  0  0  0  0  0  0
    0.9570   -0.8430   -2.8460 H   0  0  0  0  0  0  0  0  0  0  0  0
    2.3990    0.1220   -2.6820 H   0  0  0  0  0  0  0  0  0  0  0  0
    0.1300   -0.7980    0.8440 N   0  0  0  0  0  0  0  0  0  0  0  0
   -1.1330   -0.3850    1.3550 C   0  0  1  0  0  0  0  0  0  0  0  0
   -1.4760    1.0770    1.1560 C   0  0  0  0  0  0  0  0  0  0  0  0
   -0.5030    1.9560    1.8260 C   0  0  0  0  0  0  0  0  0  0  0  0
    0.5730    2.4660    1.1560 C   0  0  0  0  0  0  0  0  0  0  0  0
    1.4980    3.2930    1.8150 C   0  0  0  0  0  0  0  0  0  0  0  0
    1.3430    3.6060    3.1380 C   0  0  0  0  0  0  0  0  0  0  0  0
    0.2580    3.0930    3.8150 C   0  0  0  0  0  0  0  0  0  0  0  0
   -0.6460    2.2840    3.1700 C   0  0  0  0  0  0  0  0  0  0  0  0
   -2.2500   -1.2790    0.9620 C   0  0  0  0  0  0  0  0  0  0  0  0
   -3.4060   -1.0390    1.3380 O   0  0  0  0  0  0  0  0  0  0  0  0
    0.7540   -1.3490    1.5080 H   0  0  0  0  0  0  0  0  0  0  0  0
   -1.0660   -0.4740    2.4970 H   0  0  0  0  0  0  0  0  0  0  0  0
   -2.4460    1.2200    1.7170 H   0  0  0  0  0  0  0  0  0  0  0  0
   -1.5620    1.3920    0.1150 H   0  0  0  0  0  0  0  0  0  0  0  0
    0.7560    2.2690    0.1020 H   0  0  0  0  0  0  0  0  0  0  0  0
    2.3450    3.6920    1.2820 H   0  0  0  0  0  0  0  0  0  0  0  0
    2.0630    4.2520    3.6570 H   0  0  0  0  0  0  0  0  0  0  0  0
    0.1750    3.3690    4.8680 H   0  0  0  0  0  0  0  0  0  0  0  0
   -1.4790    1.9010    3.7250 H   0  0  0  0  0  0  0  0  0  0  0  0
   -3.6080   -2.0840   -2.2280 O   0  0  0  0  0  0  0  0  0  0  0  0
   -3.2390   -3.3380   -1.7740 C   0  0  0  0  0  0  0  0  0  0  0  0
   -3.0430   -3.3370   -0.2690 C   0  0  2  0  0  0  0  0  0  0  0  0
   -2.0290   -2.4250    0.1540 N   0  0  0  0  0  0  0  0  0  0  0  0
   -2.7840   -4.7310    0.1380 C   0  0  0  0  0  0  0  0  0  0  0  0
   -1.7530   -4.9950    0.7880 O   0  0  0  0  0  0  0  0  0  0  0  0
   -3.6590   -5.7440   -0.1860 O   0  0  0  0  0  0  0  0  0  0  0  0
   -4.5700   -1.9340   -2.2810 H   0  0  0  0  0  0  0  0  0  0  0  0
   -4.0150   -4.0700   -2.0330 H   0  0  0  0  0  0  0  0  0  0  0  0
   -2.2920   -3.6750   -2.2190 H   0  0  0  0  0  0  0  0  0  0  0  0
   -4.0210   -2.9720    0.1570 H   0  0  0  0  0  0  0  0  0  0  0  0
   -1.0260   -2.5880   -0.1410 H   0  0  0  0  0  0  0  0  0  0  0  0
  1 10  1  0  0  0  0
  1 11  1  0  0  0  0
  2  1  1  0  0  0  0
  3  2  2  0  0  0  0
  4 13  1  0  0  0  0
  4  2  1  0  0  0  0
  4 12  1  0  0  0  0
  5  4  1  0  0  0  0
  6 16  1  1  0  0  0
  6  8  1  0  0  0  0
  6  5  1  0  0  0  0
  7  6  1  0  0  0  0
  8 19  1  0  0  0  0
  9  8  2  0  0  0  0
 14  5  1  0  0  0  0
 15  5  1  0  0  0  0
 17  7  1  0  0  0  0
 18  7  1  0  0  0  0
 19 20  1  0  0  0  0
 19 30  1  0  0  0  0
 20 31  1  1  0  0  0
 21 20  1  0  0  0  0
 21 32  1  0  0  0  0
 21 22  1  0  0  0  0
 22 27  1  0  0  0  0
 23 24  1  0  0  0  0
 23 22  2  0  0  0  0
 24 25  2  0  0  0  0
 25 36  1  0  0  0  0
 25 26  1  0  0  0  0
 26 37  1  0  0  0  0
 27 38  1  0  0  0  0
 27 26  2  0  0  0  0
 28 29  2  0  0  0  0
 28 20  1  0  0  0  0
 33 21  1  0  0  0  0
 34 23  1  0  0  0  0
 35 24  1  0  0  0  0
 39 40  1  0  0  0  0
 40 41  1  0  0  0  0
 41 43  1  0  0  0  0
 41 42  1  0  0  0  0
 41 49  1  1  0  0  0
 42 28  1  0  0  0  0
 43 44  1  0  0  0  0
 45 43  2  0  0  0  0
 46 39  1  0  0  0  0
 47 40  1  0  0  0  0
 48 40  1  0  0  0  0
 50 42  1  0  0  0  0
M  END
$$$$
