QFW.pdb
 OpenBabel07022418333D

 63 65  0  0  1  0  0  0  0  0999 V2000
   -1.0120   -2.8490    3.8250 N   0  0  0  0  0  0  0  0  0  0  0  0
    0.2300   -2.2940    3.4330 C   0  0  0  0  0  0  0  0  0  0  0  0
    1.0910   -3.0270    2.9180 O   0  0  0  0  0  0  0  0  0  0  0  0
    0.5260   -0.8550    3.6250 C   0  0  0  0  0  0  0  0  0  0  0  0
    1.8380   -0.4280    3.0770 C   0  0  0  0  0  0  0  0  0  0  0  0
    2.0070   -0.6260    1.5900 C   0  0  2  0  0  0  0  0  0  0  0  0
    3.3770   -0.1370    1.3200 N   0  0  0  0  0  0  0  0  0  0  0  0
    1.0280    0.2600    0.8940 C   0  0  0  0  0  0  0  0  0  0  0  0
    1.4800    1.3460    0.4210 O   0  0  0  0  0  0  0  0  0  0  0  0
   -1.7640   -2.2540    4.2470 H   0  0  0  0  0  0  0  0  0  0  0  0
   -1.2200   -3.8610    3.7100 H   0  0  0  0  0  0  0  0  0  0  0  0
    0.5960   -0.7150    4.7490 H   0  0  0  0  0  0  0  0  0  0  0  0
   -0.2650   -0.1800    3.2780 H   0  0  0  0  0  0  0  0  0  0  0  0
    1.9470    0.6720    3.2440 H   0  0  0  0  0  0  0  0  0  0  0  0
    2.6950   -0.8930    3.6330 H   0  0  0  0  0  0  0  0  0  0  0  0
    1.9490   -1.6570    1.2640 H   0  0  0  0  0  0  0  0  0  0  0  0
    4.0250   -0.3960    2.0780 H   0  0  0  0  0  0  0  0  0  0  0  0
    3.7030   -0.4610    0.3850 H   0  0  0  0  0  0  0  0  0  0  0  0
   -0.3350    0.0050    0.7140 N   0  0  0  0  0  0  0  0  0  0  0  0
   -1.2120    0.8930    0.0570 C   0  0  1  0  0  0  0  0  0  0  0  0
   -1.1430    2.3450    0.4320 C   0  0  0  0  0  0  0  0  0  0  0  0
   -1.4490    2.6110    1.8550 C   0  0  0  0  0  0  0  0  0  0  0  0
   -0.4880    2.6670    2.8360 C   0  0  0  0  0  0  0  0  0  0  0  0
   -0.8340    2.9110    4.1540 C   0  0  0  0  0  0  0  0  0  0  0  0
   -2.1410    3.1090    4.5430 C   0  0  0  0  0  0  0  0  0  0  0  0
   -3.0910    3.0490    3.5470 C   0  0  0  0  0  0  0  0  0  0  0  0
   -2.7770    2.8080    2.2350 C   0  0  0  0  0  0  0  0  0  0  0  0
   -1.1950    0.7890   -1.4450 C   0  0  0  0  0  0  0  0  0  0  0  0
   -1.9080    1.5620   -2.1280 O   0  0  0  0  0  0  0  0  0  0  0  0
   -0.7050   -0.9100    1.0860 H   0  0  0  0  0  0  0  0  0  0  0  0
   -2.2750    0.5920    0.3520 H   0  0  0  0  0  0  0  0  0  0  0  0
   -1.9740    2.8350   -0.1620 H   0  0  0  0  0  0  0  0  0  0  0  0
   -0.2290    2.8500    0.0640 H   0  0  0  0  0  0  0  0  0  0  0  0
    0.5470    2.5320    2.6400 H   0  0  0  0  0  0  0  0  0  0  0  0
   -0.0740    2.9580    4.9420 H   0  0  0  0  0  0  0  0  0  0  0  0
   -2.4010    3.3010    5.5870 H   0  0  0  0  0  0  0  0  0  0  0  0
   -4.1260    3.2010    3.8290 H   0  0  0  0  0  0  0  0  0  0  0  0
   -3.5330    2.7610    1.4400 H   0  0  0  0  0  0  0  0  0  0  0  0
   -0.3830   -0.1690   -2.0470 N   0  0  0  0  0  0  0  0  0  0  0  0
   -0.1150   -0.5190   -3.3760 C   0  0  1  0  0  0  0  0  0  0  0  0
   -0.4520   -1.8940   -3.8340 C   0  0  0  0  0  0  0  0  0  0  0  0
    0.2460   -2.9100   -3.0630 C   0  0  0  0  0  0  0  0  0  0  0  0
    1.4100   -3.5360   -3.4350 C   0  0  0  0  0  0  0  0  0  0  0  0
    1.7410   -4.3830   -2.4640 N   0  0  0  0  0  0  0  0  0  0  0  0
    0.8380   -4.3340   -1.4730 C   0  0  0  0  0  0  0  0  0  0  0  0
    0.7250   -5.0210   -0.2560 C   0  0  0  0  0  0  0  0  0  0  0  0
   -0.3260   -4.8000    0.6090 C   0  0  0  0  0  0  0  0  0  0  0  0
   -1.2760   -3.8810    0.2560 C   0  0  0  0  0  0  0  0  0  0  0  0
   -1.1560   -3.2120   -0.9410 C   0  0  0  0  0  0  0  0  0  0  0  0
   -0.1060   -3.4150   -1.8320 C   0  0  0  0  0  0  0  0  0  0  0  0
   -0.4240    0.4860   -4.4450 C   0  0  0  0  0  0  0  0  0  0  0  0
   -0.3380    0.1250   -5.6570 O   0  0  0  0  0  0  0  0  0  0  0  0
   -0.7820    1.7570   -4.1750 O   0  0  0  0  0  0  0  0  0  0  0  0
    0.1810   -0.7700   -1.3250 H   0  0  0  0  0  0  0  0  0  0  0  0
    1.0620   -0.4620   -3.4350 H   0  0  0  0  0  0  0  0  0  0  0  0
   -1.5470   -2.0720   -3.9210 H   0  0  0  0  0  0  0  0  0  0  0  0
   -0.0960   -1.9590   -4.9060 H   0  0  0  0  0  0  0  0  0  0  0  0
    1.9890   -3.3910   -4.3550 H   0  0  0  0  0  0  0  0  0  0  0  0
    2.5870   -5.0130   -2.4510 H   0  0  0  0  0  0  0  0  0  0  0  0
    1.5220   -5.7450   -0.0330 H   0  0  0  0  0  0  0  0  0  0  0  0
   -0.3550   -5.3660    1.5380 H   0  0  0  0  0  0  0  0  0  0  0  0
   -2.1060   -3.6970    0.9230 H   0  0  0  0  0  0  0  0  0  0  0  0
   -1.9060   -2.4700   -1.2480 H   0  0  0  0  0  0  0  0  0  0  0  0
  1 10  1  0  0  0  0
  2  4  1  0  0  0  0
  2  1  1  0  0  0  0
  3  2  2  0  0  0  0
  4 12  1  0  0  0  0
  5 14  1  0  0  0  0
  5  4  1  0  0  0  0
  5 15  1  0  0  0  0
  6 16  1  6  0  0  0
  6  5  1  0  0  0  0
  7  6  1  0  0  0  0
  7 17  1  0  0  0  0
  8  6  1  0  0  0  0
  9  8  2  0  0  0  0
 11  1  1  0  0  0  0
 13  4  1  0  0  0  0
 18  7  1  0  0  0  0
 19  8  1  0  0  0  0
 19 30  1  0  0  0  0
 20 31  1  1  0  0  0
 20 21  1  0  0  0  0
 20 19  1  0  0  0  0
 21 22  1  0  0  0  0
 22 27  2  0  0  0  0
 22 23  1  0  0  0  0
 23 24  2  0  0  0  0
 24 25  1  0  0  0  0
 24 35  1  0  0  0  0
 25 36  1  0  0  0  0
 26 37  1  0  0  0  0
 26 25  2  0  0  0  0
 27 26  1  0  0  0  0
 28 20  1  0  0  0  0
 29 28  2  0  0  0  0
 32 21  1  0  0  0  0
 33 21  1  0  0  0  0
 34 23  1  0  0  0  0
 38 27  1  0  0  0  0
 39 28  1  0  0  0  0
 39 54  1  0  0  0  0
 40 55  1  6  0  0  0
 40 39  1  0  0  0  0
 41 40  1  0  0  0  0
 41 42  1  0  0  0  0
 42 50  1  0  0  0  0
 43 42  2  0  0  0  0
 43 44  1  0  0  0  0
 44 59  1  0  0  0  0
 44 45  1  0  0  0  0
 45 46  1  0  0  0  0
 46 60  1  0  0  0  0
 46 47  2  0  0  0  0
 47 61  1  0  0  0  0
 48 47  1  0  0  0  0
 48 62  1  0  0  0  0
 49 48  2  0  0  0  0
 50 45  2  0  0  0  0
 50 49  1  0  0  0  0
 51 53  1  0  0  0  0
 51 40  1  0  0  0  0
 52 51  2  0  0  0  0
 56 41  1  0  0  0  0
 57 41  1  0  0  0  0
 58 43  1  0  0  0  0
 63 49  1  0  0  0  0
M  END
$$$$
