QGC.pdb
 OpenBabel07022418313D

 37 36  0  0  1  0  0  0  0  0999 V2000
   -0.2270   -5.5220    3.4190 N   0  0  0  0  0  0  0  0  0  0  0  0
   -0.4300   -4.1820    2.9310 C   0  0  0  0  0  0  0  0  0  0  0  0
   -1.5170   -3.6580    3.2720 O   0  0  0  0  0  0  0  0  0  0  0  0
    0.5810   -3.5160    2.1040 C   0  0  0  0  0  0  0  0  0  0  0  0
    0.1520   -2.1630    1.6070 C   0  0  0  0  0  0  0  0  0  0  0  0
   -1.0630   -2.1910    0.7450 C   0  0  2  0  0  0  0  0  0  0  0  0
   -0.7710   -3.0250   -0.4070 N   0  0  0  0  0  0  0  0  0  0  0  0
   -1.3380   -0.8010    0.2520 C   0  0  0  0  0  0  0  0  0  0  0  0
   -1.2880   -0.5420   -0.9900 O   0  0  0  0  0  0  0  0  0  0  0  0
    0.6740   -5.8170    3.8460 H   0  0  0  0  0  0  0  0  0  0  0  0
   -0.9960   -6.2280    3.3500 H   0  0  0  0  0  0  0  0  0  0  0  0
    0.8540   -4.1410    1.2020 H   0  0  0  0  0  0  0  0  0  0  0  0
    1.5670   -3.4110    2.6420 H   0  0  0  0  0  0  0  0  0  0  0  0
    1.0040   -1.6270    1.1360 H   0  0  0  0  0  0  0  0  0  0  0  0
   -0.1000   -1.5330    2.5090 H   0  0  0  0  0  0  0  0  0  0  0  0
   -1.9410   -2.5360    1.3170 H   0  0  0  0  0  0  0  0  0  0  0  0
    0.2560   -2.9940   -0.5860 H   0  0  0  0  0  0  0  0  0  0  0  0
   -1.0740   -3.9940   -0.2530 H   0  0  0  0  0  0  0  0  0  0  0  0
   -1.6510    0.2030    1.2060 N   0  0  0  0  0  0  0  0  0  0  0  0
   -1.9150    1.5420    0.8060 C   0  0  0  0  0  0  0  0  0  0  0  0
   -0.8260    2.2530    0.1410 C   0  0  0  0  0  0  0  0  0  0  0  0
   -1.0480    3.4500   -0.2550 O   0  0  0  0  0  0  0  0  0  0  0  0
   -1.6830   -0.0700    2.2120 H   0  0  0  0  0  0  0  0  0  0  0  0
   -2.7780    1.5000    0.0790 H   0  0  0  0  0  0  0  0  0  0  0  0
   -2.3110    2.1730    1.6440 H   0  0  0  0  0  0  0  0  0  0  0  0
    0.4720    1.7690   -0.1230 N   0  0  0  0  0  0  0  0  0  0  0  0
    1.4790    2.5940   -0.8080 C   0  0  1  0  0  0  0  0  0  0  0  0
    2.6670    2.8350    0.1000 C   0  0  0  0  0  0  0  0  0  0  0  0
    2.1540    3.6970    1.6140 S   0  0  0  0  0  0  0  0  0  0  0  0
    1.9510    1.8950   -2.0220 C   0  0  0  0  0  0  0  0  0  0  0  0
    2.8060    2.3860   -2.7760 O   0  0  0  0  0  0  0  0  0  0  0  0
    1.4360    0.6550   -2.3410 O   0  0  0  0  0  0  0  0  0  0  0  0
    0.7150    0.8100    0.1870 H   0  0  0  0  0  0  0  0  0  0  0  0
    1.0080    3.5700   -1.0340 H   0  0  0  0  0  0  0  0  0  0  0  0
    3.1770    1.8780    0.3310 H   0  0  0  0  0  0  0  0  0  0  0  0
    3.3880    3.5030   -0.4130 H   0  0  0  0  0  0  0  0  0  0  0  0
    2.7250    3.0920    2.7380 H   0  0  0  0  0  0  0  0  0  0  0  0
  1 10  1  0  0  0  0
  2  3  2  0  0  0  0
  2  1  1  0  0  0  0
  4 13  1  0  0  0  0
  4  2  1  0  0  0  0
  5  4  1  0  0  0  0
  5 15  1  0  0  0  0
  6 16  1  1  0  0  0
  6  5  1  0  0  0  0
  7 18  1  0  0  0  0
  7  6  1  0  0  0  0
  8  6  1  0  0  0  0
  8 19  1  0  0  0  0
  9  8  2  0  0  0  0
 11  1  1  0  0  0  0
 12  4  1  0  0  0  0
 14  5  1  0  0  0  0
 17  7  1  0  0  0  0
 19 23  1  0  0  0  0
 20 19  1  0  0  0  0
 20 25  1  0  0  0  0
 21 20  1  0  0  0  0
 22 21  2  0  0  0  0
 24 20  1  0  0  0  0
 26 21  1  0  0  0  0
 26 33  1  0  0  0  0
 27 34  1  6  0  0  0
 27 26  1  0  0  0  0
 27 28  1  0  0  0  0
 28 35  1  0  0  0  0
 28 29  1  0  0  0  0
 29 37  1  0  0  0  0
 30 27  1  0  0  0  0
 31 30  2  0  0  0  0
 32 30  1  0  0  0  0
 36 28  1  0  0  0  0
M  END
$$$$
