QGE.pdb
 OpenBabel07022418313D

 42 41  0  0  1  0  0  0  0  0999 V2000
    2.6640   -5.8980   -0.2750 N   0  0  0  0  0  0  0  0  0  0  0  0
    2.8930   -4.6210    0.2900 C   0  0  0  0  0  0  0  0  0  0  0  0
    2.2460   -4.3380    1.3200 O   0  0  0  0  0  0  0  0  0  0  0  0
    3.8370   -3.6510   -0.2740 C   0  0  0  0  0  0  0  0  0  0  0  0
    3.7760   -2.2760    0.3210 C   0  0  0  0  0  0  0  0  0  0  0  0
    2.4400   -1.6700    0.0930 C   0  0  2  0  0  0  0  0  0  0  0  0
    2.1970   -1.5800   -1.3340 N   0  0  0  0  0  0  0  0  0  0  0  0
    2.2750   -0.3470    0.7400 C   0  0  0  0  0  0  0  0  0  0  0  0
    2.0080    0.6410    0.0220 O   0  0  0  0  0  0  0  0  0  0  0  0
    3.4600   -6.4340   -0.6580 H   0  0  0  0  0  0  0  0  0  0  0  0
    1.7110   -6.2940   -0.3060 H   0  0  0  0  0  0  0  0  0  0  0  0
    3.6710   -3.6410   -1.3810 H   0  0  0  0  0  0  0  0  0  0  0  0
    4.8650   -4.0970   -0.1570 H   0  0  0  0  0  0  0  0  0  0  0  0
    4.5930   -1.6650   -0.1580 H   0  0  0  0  0  0  0  0  0  0  0  0
    4.0590   -2.3450    1.3950 H   0  0  0  0  0  0  0  0  0  0  0  0
    1.6520   -2.3230    0.5030 H   0  0  0  0  0  0  0  0  0  0  0  0
    1.1690   -1.6410   -1.5220 H   0  0  0  0  0  0  0  0  0  0  0  0
    2.5350   -0.7010   -1.7570 H   0  0  0  0  0  0  0  0  0  0  0  0
    2.4150   -0.1910    2.1420 N   0  0  0  0  0  0  0  0  0  0  0  0
    2.2320    1.1170    2.7140 C   0  0  0  0  0  0  0  0  0  0  0  0
    0.8610    1.6450    2.5390 C   0  0  0  0  0  0  0  0  0  0  0  0
    0.5660    2.8210    2.9520 O   0  0  0  0  0  0  0  0  0  0  0  0
    2.6540   -1.0350    2.7580 H   0  0  0  0  0  0  0  0  0  0  0  0
    2.9420    1.8640    2.2970 H   0  0  0  0  0  0  0  0  0  0  0  0
    2.4180    1.1040    3.8270 H   0  0  0  0  0  0  0  0  0  0  0  0
   -0.1860    0.9140    1.9280 N   0  0  0  0  0  0  0  0  0  0  0  0
   -1.5480    1.4440    1.7470 C   0  0  1  0  0  0  0  0  0  0  0  0
   -1.7900    1.7510    0.3210 C   0  0  0  0  0  0  0  0  0  0  0  0
   -3.1500    2.2220   -0.0480 C   0  0  0  0  0  0  0  0  0  0  0  0
   -4.1620    1.1500    0.0490 C   0  0  0  0  0  0  0  0  0  0  0  0
   -3.7740   -0.0670    0.1180 O   0  0  0  0  0  0  0  0  0  0  0  0
   -2.5750    0.7290    2.4420 C   0  0  0  0  0  0  0  0  0  0  0  0
   -2.3600   -0.4490    2.8960 O   0  0  0  0  0  0  0  0  0  0  0  0
   -5.5220    1.3760    0.0700 O   0  0  0  0  0  0  0  0  0  0  0  0
   -3.8750    1.1980    2.7140 O   0  0  0  0  0  0  0  0  0  0  0  0
    0.0180   -0.0590    1.6090 H   0  0  0  0  0  0  0  0  0  0  0  0
   -1.4750    2.4710    2.2680 H   0  0  0  0  0  0  0  0  0  0  0  0
   -1.6240    0.8030   -0.2990 H   0  0  0  0  0  0  0  0  0  0  0  0
   -1.0070    2.4420   -0.1050 H   0  0  0  0  0  0  0  0  0  0  0  0
   -3.1770    2.7120   -1.0520 H   0  0  0  0  0  0  0  0  0  0  0  0
   -3.4500    2.9760    0.7420 H   0  0  0  0  0  0  0  0  0  0  0  0
   -6.1850    0.6640   -0.1630 H   0  0  0  0  0  0  0  0  0  0  0  0
  1  2  1  0  0  0  0
  2  3  2  0  0  0  0
  4 13  1  0  0  0  0
  4  2  1  0  0  0  0
  4  5  1  0  0  0  0
  5 15  1  0  0  0  0
  6  5  1  0  0  0  0
  6 16  1  1  0  0  0
  6  8  1  0  0  0  0
  7  6  1  0  0  0  0
  8 19  1  0  0  0  0
  9  8  2  0  0  0  0
 10  1  1  0  0  0  0
 11  1  1  0  0  0  0
 12  4  1  0  0  0  0
 14  5  1  0  0  0  0
 17  7  1  0  0  0  0
 18  7  1  0  0  0  0
 19 20  1  0  0  0  0
 19 23  1  0  0  0  0
 20 25  1  0  0  0  0
 21 20  1  0  0  0  0
 21 22  2  0  0  0  0
 24 20  1  0  0  0  0
 26 21  1  0  0  0  0
 27 26  1  0  0  0  0
 27 37  1  1  0  0  0
 27 32  1  0  0  0  0
 28 27  1  0  0  0  0
 29 30  1  0  0  0  0
 29 28  1  0  0  0  0
 29 41  1  0  0  0  0
 30 34  1  0  0  0  0
 30 31  2  0  0  0  0
 32 35  2  0  0  0  0
 32 33  1  0  0  0  0
 36 26  1  0  0  0  0
 38 28  1  0  0  0  0
 39 28  1  0  0  0  0
 40 29  1  0  0  0  0
 42 34  1  0  0  0  0
M  END
$$$$
