QGN.pdb
 OpenBabel07022418313D

 40 39  0  0  1  0  0  0  0  0999 V2000
   -0.6510   -6.5610   -2.5090 N   0  0  0  0  0  0  0  0  0  0  0  0
    0.1520   -5.6500   -1.7860 C   0  0  0  0  0  0  0  0  0  0  0  0
    1.2890   -6.0160   -1.4150 O   0  0  0  0  0  0  0  0  0  0  0  0
   -0.3320   -4.3090   -1.4780 C   0  0  0  0  0  0  0  0  0  0  0  0
    0.6640   -3.4900   -0.6910 C   0  0  0  0  0  0  0  0  0  0  0  0
    0.0480   -2.1140   -0.4300 C   0  0  2  0  0  0  0  0  0  0  0  0
   -0.2300   -1.4900   -1.7080 N   0  0  0  0  0  0  0  0  0  0  0  0
    1.0620   -1.2740    0.2840 C   0  0  0  0  0  0  0  0  0  0  0  0
    1.4580   -1.6240    1.4200 O   0  0  0  0  0  0  0  0  0  0  0  0
   -0.8360   -7.5470   -2.2010 H   0  0  0  0  0  0  0  0  0  0  0  0
   -1.1020   -6.2700   -3.4050 H   0  0  0  0  0  0  0  0  0  0  0  0
   -1.2790   -4.3250   -0.8740 H   0  0  0  0  0  0  0  0  0  0  0  0
   -0.4910   -3.7580   -2.4480 H   0  0  0  0  0  0  0  0  0  0  0  0
    1.6240   -3.3730   -1.2260 H   0  0  0  0  0  0  0  0  0  0  0  0
    0.9110   -3.9790    0.2790 H   0  0  0  0  0  0  0  0  0  0  0  0
   -0.8780   -2.2080    0.1710 H   0  0  0  0  0  0  0  0  0  0  0  0
    0.5990   -1.5050   -2.3370 H   0  0  0  0  0  0  0  0  0  0  0  0
   -1.1070   -1.8260   -2.1330 H   0  0  0  0  0  0  0  0  0  0  0  0
    1.5990   -0.0820   -0.2870 N   0  0  0  0  0  0  0  0  0  0  0  0
    2.5580    0.7620    0.3500 C   0  0  0  0  0  0  0  0  0  0  0  0
    2.0930    1.3850    1.5960 C   0  0  0  0  0  0  0  0  0  0  0  0
    2.8890    2.1160    2.2570 O   0  0  0  0  0  0  0  0  0  0  0  0
    1.2230    0.1470   -1.2560 H   0  0  0  0  0  0  0  0  0  0  0  0
    3.5440    0.2360    0.4920 H   0  0  0  0  0  0  0  0  0  0  0  0
    2.7930    1.6110   -0.3530 H   0  0  0  0  0  0  0  0  0  0  0  0
   -0.2150    5.1510    2.7000 N   0  0  0  0  0  0  0  0  0  0  0  0
   -0.5130    3.8700    2.1990 C   0  0  0  0  0  0  0  0  0  0  0  0
   -0.5350    3.6960    0.9620 O   0  0  0  0  0  0  0  0  0  0  0  0
   -0.7940    2.7560    3.0990 C   0  0  0  0  0  0  0  0  0  0  0  0
    0.3570    1.8080    3.2960 C   0  0  2  0  0  0  0  0  0  0  0  0
    0.7950    1.1900    2.0650 N   0  0  0  0  0  0  0  0  0  0  0  0
   -0.0610    0.7810    4.2580 C   0  0  0  0  0  0  0  0  0  0  0  0
   -0.0190   -0.4410    3.9830 O   0  0  0  0  0  0  0  0  0  0  0  0
   -0.5180    1.1480    5.5110 O   0  0  0  0  0  0  0  0  0  0  0  0
   -0.2790    5.9960    2.0970 H   0  0  0  0  0  0  0  0  0  0  0  0
    0.0770    5.2780    3.6850 H   0  0  0  0  0  0  0  0  0  0  0  0
   -1.7190    2.1810    2.8000 H   0  0  0  0  0  0  0  0  0  0  0  0
   -1.0430    3.1680    4.1020 H   0  0  0  0  0  0  0  0  0  0  0  0
    1.2060    2.3930    3.6980 H   0  0  0  0  0  0  0  0  0  0  0  0
    0.0440    0.6180    1.5870 H   0  0  0  0  0  0  0  0  0  0  0  0
  1 10  1  0  0  0  0
  1  2  1  0  0  0  0
  2  4  1  0  0  0  0
  2  3  2  0  0  0  0
  4 12  1  0  0  0  0
  4  5  1  0  0  0  0
  5  6  1  0  0  0  0
  5 15  1  0  0  0  0
  6 16  1  1  0  0  0
  6  8  1  0  0  0  0
  7  6  1  0  0  0  0
  8  9  2  0  0  0  0
 11  1  1  0  0  0  0
 13  4  1  0  0  0  0
 14  5  1  0  0  0  0
 17  7  1  0  0  0  0
 18  7  1  0  0  0  0
 19  8  1  0  0  0  0
 19 20  1  0  0  0  0
 20 24  1  0  0  0  0
 20 21  1  0  0  0  0
 21 31  1  0  0  0  0
 21 22  2  0  0  0  0
 23 19  1  0  0  0  0
 25 20  1  0  0  0  0
 26 36  1  0  0  0  0
 27 26  1  0  0  0  0
 27 29  1  0  0  0  0
 28 27  2  0  0  0  0
 29 30  1  0  0  0  0
 29 38  1  0  0  0  0
 30 39  1  1  0  0  0
 30 32  1  0  0  0  0
 31 30  1  0  0  0  0
 32 34  1  0  0  0  0
 33 32  2  0  0  0  0
 35 26  1  0  0  0  0
 37 29  1  0  0  0  0
 40 31  1  0  0  0  0
M  END
$$$$
