QGR.pdb
 OpenBabel07022418313D

 49 48  0  0  1  0  0  0  0  0999 V2000
    4.0930   -4.6140    4.0770 N   0  0  0  0  0  0  0  0  0  0  0  0
    3.6280   -3.4290    3.4370 C   0  0  0  0  0  0  0  0  0  0  0  0
    2.4520   -3.0880    3.7000 O   0  0  0  0  0  0  0  0  0  0  0  0
    4.4440   -2.6330    2.5250 C   0  0  0  0  0  0  0  0  0  0  0  0
    3.7200   -1.5590    1.7690 C   0  0  0  0  0  0  0  0  0  0  0  0
    2.6720   -2.1660    0.8970 C   0  0  2  0  0  0  0  0  0  0  0  0
    3.2550   -3.0940   -0.0720 N   0  0  0  0  0  0  0  0  0  0  0  0
    1.8730   -1.1160    0.1790 C   0  0  0  0  0  0  0  0  0  0  0  0
    1.2730   -0.2140    0.8150 O   0  0  0  0  0  0  0  0  0  0  0  0
    3.5060   -5.4730    3.9570 H   0  0  0  0  0  0  0  0  0  0  0  0
    4.9620   -4.6670    4.6420 H   0  0  0  0  0  0  0  0  0  0  0  0
    5.3630   -2.2170    3.0390 H   0  0  0  0  0  0  0  0  0  0  0  0
    4.8610   -3.3350    1.7440 H   0  0  0  0  0  0  0  0  0  0  0  0
    4.5040   -1.0370    1.1540 H   0  0  0  0  0  0  0  0  0  0  0  0
    3.2130   -0.8320    2.4430 H   0  0  0  0  0  0  0  0  0  0  0  0
    1.9860   -2.7710    1.5130 H   0  0  0  0  0  0  0  0  0  0  0  0
    3.9750   -2.6670   -0.6640 H   0  0  0  0  0  0  0  0  0  0  0  0
    2.5250   -3.6370   -0.5440 H   0  0  0  0  0  0  0  0  0  0  0  0
    1.8140   -1.1680   -1.2310 N   0  0  0  0  0  0  0  0  0  0  0  0
    1.1060   -0.2820   -2.0720 C   0  0  0  0  0  0  0  0  0  0  0  0
   -0.3420   -0.2170   -1.9990 C   0  0  0  0  0  0  0  0  0  0  0  0
   -0.8770    0.6270   -2.8250 O   0  0  0  0  0  0  0  0  0  0  0  0
    2.3620   -1.9600   -1.6930 H   0  0  0  0  0  0  0  0  0  0  0  0
    1.5180    0.7790   -1.9930 H   0  0  0  0  0  0  0  0  0  0  0  0
    1.3520   -0.5340   -3.1530 H   0  0  0  0  0  0  0  0  0  0  0  0
   -2.4590    3.2320    4.0230 N   0  0  0  0  0  0  0  0  0  0  0  0
   -2.1300    2.8490    2.6940 C   0  0  0  0  0  0  0  0  0  0  0  0
   -2.2200    3.7330    1.7670 N   0  0  0  0  0  0  0  0  0  0  0  0
   -1.7210    1.5160    2.4560 N   0  0  0  0  0  0  0  0  0  0  0  0
   -1.6950    1.0510    1.0590 C   0  0  0  0  0  0  0  0  0  0  0  0
   -3.0780    0.9580    0.5170 C   0  0  0  0  0  0  0  0  0  0  0  0
   -3.1920    0.5340   -0.9090 C   0  0  0  0  0  0  0  0  0  0  0  0
   -2.6220   -0.7670   -1.2830 C   0  0  2  0  0  0  0  0  0  0  0  0
   -1.2020   -0.9710   -1.1420 N   0  0  0  0  0  0  0  0  0  0  0  0
   -3.0530   -1.0690   -2.7060 C   0  0  0  0  0  0  0  0  0  0  0  0
   -2.2250   -1.4660   -3.5540 O   0  0  0  0  0  0  0  0  0  0  0  0
   -4.3680   -0.9150   -3.1020 O   0  0  0  0  0  0  0  0  0  0  0  0
   -3.1970    3.9220    4.2390 H   0  0  0  0  0  0  0  0  0  0  0  0
   -1.9370    2.8010    4.8020 H   0  0  0  0  0  0  0  0  0  0  0  0
   -2.5210    4.7040    1.9560 H   0  0  0  0  0  0  0  0  0  0  0  0
   -1.4580    0.9180    3.2410 H   0  0  0  0  0  0  0  0  0  0  0  0
   -1.3230   -0.0100    1.1140 H   0  0  0  0  0  0  0  0  0  0  0  0
   -1.0380    1.6430    0.4400 H   0  0  0  0  0  0  0  0  0  0  0  0
   -3.5550    1.9680    0.6200 H   0  0  0  0  0  0  0  0  0  0  0  0
   -3.7250    0.3100    1.1860 H   0  0  0  0  0  0  0  0  0  0  0  0
   -4.3080    0.5910   -1.1440 H   0  0  0  0  0  0  0  0  0  0  0  0
   -2.7530    1.3630   -1.5340 H   0  0  0  0  0  0  0  0  0  0  0  0
   -3.1770   -1.5580   -0.6630 H   0  0  0  0  0  0  0  0  0  0  0  0
   -0.7380   -1.6240   -0.4790 H   0  0  0  0  0  0  0  0  0  0  0  0
  1 11  1  0  0  0  0
  2  3  2  0  0  0  0
  2  1  1  0  0  0  0
  4 12  1  0  0  0  0
  4  2  1  0  0  0  0
  5 15  1  0  0  0  0
  5  4  1  0  0  0  0
  6 16  1  1  0  0  0
  6  5  1  0  0  0  0
  7  6  1  0  0  0  0
  8  9  2  0  0  0  0
  8  6  1  0  0  0  0
 10  1  1  0  0  0  0
 13  4  1  0  0  0  0
 14  5  1  0  0  0  0
 17  7  1  0  0  0  0
 18  7  1  0  0  0  0
 19  8  1  0  0  0  0
 20 21  1  0  0  0  0
 20 24  1  0  0  0  0
 20 19  1  0  0  0  0
 21 34  1  0  0  0  0
 22 21  2  0  0  0  0
 23 19  1  0  0  0  0
 25 20  1  0  0  0  0
 26 38  1  0  0  0  0
 26 39  1  0  0  0  0
 27 26  1  0  0  0  0
 28 40  1  0  0  0  0
 28 27  2  0  0  0  0
 29 27  1  0  0  0  0
 29 41  1  0  0  0  0
 30 42  1  0  0  0  0
 30 29  1  0  0  0  0
 31 44  1  0  0  0  0
 31 30  1  0  0  0  0
 31 45  1  0  0  0  0
 32 31  1  0  0  0  0
 33 34  1  0  0  0  0
 33 32  1  0  0  0  0
 33 48  1  1  0  0  0
 34 49  1  0  0  0  0
 35 33  1  0  0  0  0
 36 35  2  0  0  0  0
 37 35  1  0  0  0  0
 43 30  1  0  0  0  0
 46 32  1  0  0  0  0
 47 32  1  0  0  0  0
M  END
$$$$
