QGT.pdb
 OpenBabel07022418313D

 40 39  0  0  1  0  0  0  0  0999 V2000
   -3.7720   -1.3170    1.1180 N   0  0  0  0  0  0  0  0  0  0  0  0
   -2.5980   -1.9890    1.5070 C   0  0  0  0  0  0  0  0  0  0  0  0
   -2.4100   -2.2890    2.6940 O   0  0  0  0  0  0  0  0  0  0  0  0
   -1.5940   -2.3310    0.4830 C   0  0  0  0  0  0  0  0  0  0  0  0
   -0.4610   -3.0280    1.1440 C   0  0  0  0  0  0  0  0  0  0  0  0
    0.6590   -3.4710    0.2450 C   0  0  2  0  0  0  0  0  0  0  0  0
    1.6170   -4.1140    1.1750 N   0  0  0  0  0  0  0  0  0  0  0  0
    1.3970   -2.3410   -0.3740 C   0  0  0  0  0  0  0  0  0  0  0  0
    2.5400   -1.9670    0.0670 O   0  0  0  0  0  0  0  0  0  0  0  0
   -4.5320   -1.7910    0.5670 H   0  0  0  0  0  0  0  0  0  0  0  0
   -3.9690   -0.3060    1.3480 H   0  0  0  0  0  0  0  0  0  0  0  0
   -2.0610   -2.9490   -0.3250 H   0  0  0  0  0  0  0  0  0  0  0  0
   -1.3010   -1.3700    0.0010 H   0  0  0  0  0  0  0  0  0  0  0  0
   -0.8680   -3.9170    1.6720 H   0  0  0  0  0  0  0  0  0  0  0  0
   -0.0510   -2.3430    1.9230 H   0  0  0  0  0  0  0  0  0  0  0  0
    0.3670   -4.2500   -0.4630 H   0  0  0  0  0  0  0  0  0  0  0  0
    2.1670   -4.8430    0.6710 H   0  0  0  0  0  0  0  0  0  0  0  0
    2.2030   -3.3710    1.6070 H   0  0  0  0  0  0  0  0  0  0  0  0
    0.9010   -1.5950   -1.4930 N   0  0  0  0  0  0  0  0  0  0  0  0
    1.6400   -0.5130   -2.0380 C   0  0  0  0  0  0  0  0  0  0  0  0
    1.8520    0.6290   -1.1370 C   0  0  0  0  0  0  0  0  0  0  0  0
    2.5290    1.6460   -1.4720 O   0  0  0  0  0  0  0  0  0  0  0  0
   -0.0300   -1.8820   -1.9060 H   0  0  0  0  0  0  0  0  0  0  0  0
    1.0640   -0.1020   -2.9190 H   0  0  0  0  0  0  0  0  0  0  0  0
    2.6110   -0.8260   -2.4920 H   0  0  0  0  0  0  0  0  0  0  0  0
   -0.5630    1.6350    2.3660 C   0  0  0  0  0  0  0  0  0  0  0  0
    0.3150    2.5210    1.5070 C   0  0  1  0  0  0  0  0  0  0  0  0
    0.7460    3.5650    2.3330 O   0  0  0  0  0  0  0  0  0  0  0  0
    1.5370    1.8070    1.0340 C   0  0  2  0  0  0  0  0  0  0  0  0
    1.3230    0.7020    0.1750 N   0  0  0  0  0  0  0  0  0  0  0  0
    2.2970    1.3620    2.2210 C   0  0  0  0  0  0  0  0  0  0  0  0
    2.6290    0.1580    2.3120 O   0  0  0  0  0  0  0  0  0  0  0  0
    2.6740    2.2060    3.2580 O   0  0  0  0  0  0  0  0  0  0  0  0
   -0.3640    1.7990    3.4470 H   0  0  0  0  0  0  0  0  0  0  0  0
   -0.3910    0.5630    2.1380 H   0  0  0  0  0  0  0  0  0  0  0  0
   -1.6420    1.8850    2.2160 H   0  0  0  0  0  0  0  0  0  0  0  0
   -0.2580    3.0120    0.6970 H   0  0  0  0  0  0  0  0  0  0  0  0
    1.6020    3.9720    1.9930 H   0  0  0  0  0  0  0  0  0  0  0  0
    2.1790    2.5800    0.5220 H   0  0  0  0  0  0  0  0  0  0  0  0
    0.7340   -0.0760    0.5400 H   0  0  0  0  0  0  0  0  0  0  0  0
  1 11  1  0  0  0  0
  1  2  1  0  0  0  0
  2  3  2  0  0  0  0
  4  5  1  0  0  0  0
  4  2  1  0  0  0  0
  5 14  1  0  0  0  0
  5 15  1  0  0  0  0
  6 16  1  6  0  0  0
  6  5  1  0  0  0  0
  6  7  1  0  0  0  0
  7 18  1  0  0  0  0
  8  9  2  0  0  0  0
  8  6  1  0  0  0  0
 10  1  1  0  0  0  0
 12  4  1  0  0  0  0
 13  4  1  0  0  0  0
 17  7  1  0  0  0  0
 19  8  1  0  0  0  0
 20 19  1  0  0  0  0
 20 21  1  0  0  0  0
 21 30  1  0  0  0  0
 22 21  2  0  0  0  0
 23 19  1  0  0  0  0
 24 20  1  0  0  0  0
 25 20  1  0  0  0  0
 26 34  1  0  0  0  0
 27 37  1  6  0  0  0
 27 28  1  0  0  0  0
 27 26  1  0  0  0  0
 29 39  1  6  0  0  0
 29 27  1  0  0  0  0
 29 31  1  0  0  0  0
 30 40  1  0  0  0  0
 30 29  1  0  0  0  0
 31 32  2  0  0  0  0
 31 33  1  0  0  0  0
 35 26  1  0  0  0  0
 36 26  1  0  0  0  0
 38 28  1  0  0  0  0
M  END
$$$$
