QGY.pdb
 OpenBabel07022418313D

 47 47  0  0  1  0  0  0  0  0999 V2000
    4.7480    3.1460    1.7790 N   0  0  0  0  0  0  0  0  0  0  0  0
    4.4400    1.7620    1.7750 C   0  0  0  0  0  0  0  0  0  0  0  0
    5.4150    0.9700    1.8230 O   0  0  0  0  0  0  0  0  0  0  0  0
    3.0250    1.3410    1.7170 C   0  0  0  0  0  0  0  0  0  0  0  0
    2.7980   -0.0950    1.5110 C   0  0  0  0  0  0  0  0  0  0  0  0
    3.2800   -0.7370    0.2710 C   0  0  2  0  0  0  0  0  0  0  0  0
    4.6670   -0.7060   -0.0080 N   0  0  0  0  0  0  0  0  0  0  0  0
    2.5150   -0.2690   -0.9460 C   0  0  0  0  0  0  0  0  0  0  0  0
    3.1120    0.1090   -1.9870 O   0  0  0  0  0  0  0  0  0  0  0  0
    5.5170    3.4900    2.3670 H   0  0  0  0  0  0  0  0  0  0  0  0
    4.1980    3.7880    1.1960 H   0  0  0  0  0  0  0  0  0  0  0  0
    2.6120    1.5990    2.7410 H   0  0  0  0  0  0  0  0  0  0  0  0
    2.4570    2.0130    1.0400 H   0  0  0  0  0  0  0  0  0  0  0  0
    1.7160   -0.3760    1.6430 H   0  0  0  0  0  0  0  0  0  0  0  0
    3.2890   -0.6380    2.3810 H   0  0  0  0  0  0  0  0  0  0  0  0
    2.9710   -1.8240    0.3440 H   0  0  0  0  0  0  0  0  0  0  0  0
    5.0670   -1.6610    0.0060 H   0  0  0  0  0  0  0  0  0  0  0  0
    4.9880   -0.0860   -0.7490 H   0  0  0  0  0  0  0  0  0  0  0  0
    1.0900   -0.2510   -0.9300 N   0  0  0  0  0  0  0  0  0  0  0  0
    0.3060    0.1810   -2.0500 C   0  0  0  0  0  0  0  0  0  0  0  0
   -1.1490    0.1420   -1.8790 C   0  0  0  0  0  0  0  0  0  0  0  0
   -1.8820    0.5240   -2.8660 O   0  0  0  0  0  0  0  0  0  0  0  0
    0.6510   -0.5720   -0.0580 H   0  0  0  0  0  0  0  0  0  0  0  0
    0.6210   -0.4280   -2.9580 H   0  0  0  0  0  0  0  0  0  0  0  0
    0.6290    1.2280   -2.3660 H   0  0  0  0  0  0  0  0  0  0  0  0
   -1.6530   -3.9560    4.3680 O   0  0  0  0  0  0  0  0  0  0  0  0
   -2.1520   -3.4090    3.1890 C   0  0  0  0  0  0  0  0  0  0  0  0
   -1.4890   -3.5600    1.9920 C   0  0  0  0  0  0  0  0  0  0  0  0
   -2.0210   -3.0010    0.8490 C   0  0  0  0  0  0  0  0  0  0  0  0
   -3.1990   -2.2980    0.8870 C   0  0  0  0  0  0  0  0  0  0  0  0
   -3.7490   -1.7080   -0.3490 C   0  0  0  0  0  0  0  0  0  0  0  0
   -3.2610   -0.3040   -0.5950 C   0  0  2  0  0  0  0  0  0  0  0  0
   -1.7850   -0.2830   -0.7170 N   0  0  0  0  0  0  0  0  0  0  0  0
   -3.6550    0.6110    0.5000 C   0  0  0  0  0  0  0  0  0  0  0  0
   -4.8460    0.8030    0.8420 O   0  0  0  0  0  0  0  0  0  0  0  0
   -3.8380   -2.1630    2.0950 C   0  0  0  0  0  0  0  0  0  0  0  0
   -3.3350   -2.7100    3.2640 C   0  0  0  0  0  0  0  0  0  0  0  0
   -2.6910    1.3280    1.2300 O   0  0  0  0  0  0  0  0  0  0  0  0
   -1.6990   -3.3900    5.2260 H   0  0  0  0  0  0  0  0  0  0  0  0
   -0.5480   -4.1240    1.9680 H   0  0  0  0  0  0  0  0  0  0  0  0
   -1.4650   -3.1420   -0.0900 H   0  0  0  0  0  0  0  0  0  0  0  0
   -3.5480   -2.3900   -1.1760 H   0  0  0  0  0  0  0  0  0  0  0  0
   -4.8720   -1.6230   -0.2870 H   0  0  0  0  0  0  0  0  0  0  0  0
   -3.7450    0.0540   -1.5250 H   0  0  0  0  0  0  0  0  0  0  0  0
   -1.2580   -0.5990    0.1040 H   0  0  0  0  0  0  0  0  0  0  0  0
   -4.7680   -1.6160    2.1620 H   0  0  0  0  0  0  0  0  0  0  0  0
   -3.8220   -2.6160    4.2230 H   0  0  0  0  0  0  0  0  0  0  0  0
  1 10  1  0  0  0  0
  2  1  1  0  0  0  0
  2  3  2  0  0  0  0
  4  2  1  0  0  0  0
  4 12  1  0  0  0  0
  5 14  1  0  0  0  0
  5  4  1  0  0  0  0
  5 15  1  0  0  0  0
  6 16  1  1  0  0  0
  6  5  1  0  0  0  0
  7 17  1  0  0  0  0
  7  6  1  0  0  0  0
  8 19  1  0  0  0  0
  8  6  1  0  0  0  0
  9  8  2  0  0  0  0
 11  1  1  0  0  0  0
 13  4  1  0  0  0  0
 18  7  1  0  0  0  0
 19 23  1  0  0  0  0
 20 21  1  0  0  0  0
 20 19  1  0  0  0  0
 21 33  1  0  0  0  0
 22 21  2  0  0  0  0
 24 20  1  0  0  0  0
 25 20  1  0  0  0  0
 26 39  1  0  0  0  0
 27 37  1  0  0  0  0
 27 26  1  0  0  0  0
 28 27  2  0  0  0  0
 29 30  2  0  0  0  0
 29 28  1  0  0  0  0
 30 36  1  0  0  0  0
 31 43  1  0  0  0  0
 31 30  1  0  0  0  0
 32 44  1  6  0  0  0
 32 31  1  0  0  0  0
 32 34  1  0  0  0  0
 33 32  1  0  0  0  0
 33 45  1  0  0  0  0
 34 35  2  0  0  0  0
 34 38  1  0  0  0  0
 36 46  1  0  0  0  0
 36 37  2  0  0  0  0
 37 47  1  0  0  0  0
 40 28  1  0  0  0  0
 41 29  1  0  0  0  0
 42 31  1  0  0  0  0
M  END
$$$$
