QHA.pdb
 OpenBabel07022418323D

 46 46  0  0  1  0  0  0  0  0999 V2000
    5.1460   -3.1640    0.3420 N   0  0  0  0  0  0  0  0  0  0  0  0
    4.4170   -2.2900   -0.5390 C   0  0  0  0  0  0  0  0  0  0  0  0
    4.3080   -2.6650   -1.7290 O   0  0  0  0  0  0  0  0  0  0  0  0
    3.8320   -1.0080   -0.0290 C   0  0  0  0  0  0  0  0  0  0  0  0
    3.1460   -0.3500   -1.2050 C   0  0  0  0  0  0  0  0  0  0  0  0
    2.5030    0.9580   -0.8570 C   0  0  2  0  0  0  0  0  0  0  0  0
    3.4680    1.9130   -0.3640 N   0  0  0  0  0  0  0  0  0  0  0  0
    1.4140    0.8190    0.1420 C   0  0  0  0  0  0  0  0  0  0  0  0
    1.5030    1.5050    1.1810 O   0  0  0  0  0  0  0  0  0  0  0  0
    4.6820   -3.6950    1.1110 H   0  0  0  0  0  0  0  0  0  0  0  0
    6.1780   -3.2840    0.2200 H   0  0  0  0  0  0  0  0  0  0  0  0
    4.6970   -0.4070    0.3210 H   0  0  0  0  0  0  0  0  0  0  0  0
    3.1770   -1.1630    0.8310 H   0  0  0  0  0  0  0  0  0  0  0  0
    3.9280   -0.1430   -1.9640 H   0  0  0  0  0  0  0  0  0  0  0  0
    2.4080   -1.0260   -1.6780 H   0  0  0  0  0  0  0  0  0  0  0  0
    2.0600    1.3690   -1.7790 H   0  0  0  0  0  0  0  0  0  0  0  0
    3.5260    1.7980    0.6760 H   0  0  0  0  0  0  0  0  0  0  0  0
    3.0280    2.8720   -0.5020 H   0  0  0  0  0  0  0  0  0  0  0  0
    0.3180   -0.0270   -0.0260 N   0  0  0  0  0  0  0  0  0  0  0  0
   -0.7870   -0.3190    0.7930 C   0  0  1  0  0  0  0  0  0  0  0  0
   -0.9440    0.4180    2.0910 C   0  0  0  0  0  0  0  0  0  0  0  0
    0.1240    0.1060    3.0580 C   0  0  0  0  0  0  0  0  0  0  0  0
    0.1880    0.7340    4.3080 C   0  0  0  0  0  0  0  0  0  0  0  0
    1.2680    0.2130    4.9060 N   0  0  0  0  0  0  0  0  0  0  0  0
    1.8580   -0.6860    4.1010 C   0  0  0  0  0  0  0  0  0  0  0  0
    1.1360   -0.7310    2.9760 N   0  0  0  0  0  0  0  0  0  0  0  0
   -2.0030   -0.5280    0.0500 C   0  0  0  0  0  0  0  0  0  0  0  0
   -1.9600   -0.4230   -1.2250 O   0  0  0  0  0  0  0  0  0  0  0  0
    0.3210   -0.5590   -0.9670 H   0  0  0  0  0  0  0  0  0  0  0  0
   -0.4840   -1.3800    1.2350 H   0  0  0  0  0  0  0  0  0  0  0  0
   -1.8920    0.0640    2.5490 H   0  0  0  0  0  0  0  0  0  0  0  0
   -1.0810    1.5120    1.9480 H   0  0  0  0  0  0  0  0  0  0  0  0
   -0.4860    1.4820    4.7120 H   0  0  0  0  0  0  0  0  0  0  0  0
    1.6530    0.4320    5.8650 H   0  0  0  0  0  0  0  0  0  0  0  0
    2.7650   -1.2690    4.3360 H   0  0  0  0  0  0  0  0  0  0  0  0
   -4.9340   -2.4590   -0.0480 C   0  0  0  0  0  0  0  0  0  0  0  0
   -4.4230   -1.0300   -0.2600 C   0  0  2  0  0  0  0  0  0  0  0  0
   -3.2730   -0.8440    0.5860 N   0  0  0  0  0  0  0  0  0  0  0  0
   -5.5180   -0.0900    0.1410 C   0  0  0  0  0  0  0  0  0  0  0  0
   -6.6100   -0.0840   -0.4670 O   0  0  0  0  0  0  0  0  0  0  0  0
   -5.3610    0.8030    1.1940 O   0  0  0  0  0  0  0  0  0  0  0  0
   -4.0280   -3.1200    0.0100 H   0  0  0  0  0  0  0  0  0  0  0  0
   -5.4940   -2.5410    0.8910 H   0  0  0  0  0  0  0  0  0  0  0  0
   -5.5090   -2.7580   -0.9450 H   0  0  0  0  0  0  0  0  0  0  0  0
   -4.1640   -0.8910   -1.3260 H   0  0  0  0  0  0  0  0  0  0  0  0
   -3.3750   -0.9420    1.5970 H   0  0  0  0  0  0  0  0  0  0  0  0
  1 10  1  0  0  0  0
  2  4  1  0  0  0  0
  2  1  1  0  0  0  0
  3  2  2  0  0  0  0
  4 12  1  0  0  0  0
  4 13  1  0  0  0  0
  5  6  1  0  0  0  0
  5  4  1  0  0  0  0
  6 16  1  6  0  0  0
  6  7  1  0  0  0  0
  6  8  1  0  0  0  0
  7 17  1  0  0  0  0
  8  9  2  0  0  0  0
 11  1  1  0  0  0  0
 14  5  1  0  0  0  0
 15  5  1  0  0  0  0
 18  7  1  0  0  0  0
 19  8  1  0  0  0  0
 19 20  1  0  0  0  0
 20 30  1  1  0  0  0
 20 21  1  0  0  0  0
 21 31  1  0  0  0  0
 21 22  1  0  0  0  0
 22 23  2  0  0  0  0
 23 33  1  0  0  0  0
 23 24  1  0  0  0  0
 24 34  1  0  0  0  0
 25 35  1  0  0  0  0
 25 24  1  0  0  0  0
 26 22  1  0  0  0  0
 26 25  2  0  0  0  0
 27 38  1  0  0  0  0
 27 20  1  0  0  0  0
 28 27  2  0  0  0  0
 29 19  1  0  0  0  0
 32 21  1  0  0  0  0
 36 42  1  0  0  0  0
 36 43  1  0  0  0  0
 37 45  1  6  0  0  0
 37 36  1  0  0  0  0
 37 39  1  0  0  0  0
 37 38  1  0  0  0  0
 38 46  1  0  0  0  0
 39 41  1  0  0  0  0
 40 39  2  0  0  0  0
 44 36  1  0  0  0  0
M  END
$$$$
