QHG.pdb
 OpenBabel07022418323D

 43 43  0  0  1  0  0  0  0  0999 V2000
   -1.5450   -5.0030    2.0000 N   0  0  0  0  0  0  0  0  0  0  0  0
   -0.7810   -4.5400    0.8790 C   0  0  0  0  0  0  0  0  0  0  0  0
   -1.2980   -4.7240   -0.2700 O   0  0  0  0  0  0  0  0  0  0  0  0
    0.5410   -3.8830    1.0580 C   0  0  0  0  0  0  0  0  0  0  0  0
    1.0570   -3.5280   -0.3140 C   0  0  0  0  0  0  0  0  0  0  0  0
    2.4100   -2.8470   -0.2510 C   0  0  2  0  0  0  0  0  0  0  0  0
    3.3940   -3.6800    0.3630 N   0  0  0  0  0  0  0  0  0  0  0  0
    2.2370   -1.5480    0.4940 C   0  0  0  0  0  0  0  0  0  0  0  0
    2.9060   -1.2840    1.5270 O   0  0  0  0  0  0  0  0  0  0  0  0
   -1.5840   -4.4410    2.9010 H   0  0  0  0  0  0  0  0  0  0  0  0
   -2.0500   -5.8890    1.9050 H   0  0  0  0  0  0  0  0  0  0  0  0
    1.2150   -4.5580    1.6070 H   0  0  0  0  0  0  0  0  0  0  0  0
    0.3670   -2.9920    1.6900 H   0  0  0  0  0  0  0  0  0  0  0  0
    1.2170   -4.4840   -0.8610 H   0  0  0  0  0  0  0  0  0  0  0  0
    0.3510   -2.8600   -0.8060 H   0  0  0  0  0  0  0  0  0  0  0  0
    2.6980   -2.6040   -1.2820 H   0  0  0  0  0  0  0  0  0  0  0  0
    3.1330   -4.6860    0.1660 H   0  0  0  0  0  0  0  0  0  0  0  0
    4.3330   -3.5490   -0.0810 H   0  0  0  0  0  0  0  0  0  0  0  0
    1.3100   -0.5690    0.0590 N   0  0  0  0  0  0  0  0  0  0  0  0
    1.1230    0.7040    0.7690 C   0  0  1  0  0  0  0  0  0  0  0  0
    1.4470    1.8620   -0.1540 C   0  0  0  0  0  0  0  0  0  0  0  0
    1.2740    3.1660    0.5230 C   0  0  0  0  0  0  0  0  0  0  0  0
    2.2850    3.8160    1.2270 C   0  0  0  0  0  0  0  0  0  0  0  0
    1.8080    4.9840    1.7250 N   0  0  0  0  0  0  0  0  0  0  0  0
    0.5280    5.0680    1.3450 C   0  0  0  0  0  0  0  0  0  0  0  0
    0.2120    3.9790    0.6260 N   0  0  0  0  0  0  0  0  0  0  0  0
   -0.3000    0.7600    1.1710 C   0  0  0  0  0  0  0  0  0  0  0  0
   -0.6920    1.7710    1.8020 O   0  0  0  0  0  0  0  0  0  0  0  0
    0.7420   -0.7530   -0.7920 H   0  0  0  0  0  0  0  0  0  0  0  0
    1.8090    0.7700    1.6380 H   0  0  0  0  0  0  0  0  0  0  0  0
    0.7850    1.8090   -1.0440 H   0  0  0  0  0  0  0  0  0  0  0  0
    2.4900    1.7920   -0.5390 H   0  0  0  0  0  0  0  0  0  0  0  0
    3.2940    3.4720    1.3700 H   0  0  0  0  0  0  0  0  0  0  0  0
    2.3740    5.6500    2.2900 H   0  0  0  0  0  0  0  0  0  0  0  0
   -0.1520    5.8650    1.5670 H   0  0  0  0  0  0  0  0  0  0  0  0
   -1.2270   -0.2640    0.8780 N   0  0  0  0  0  0  0  0  0  0  0  0
   -2.6210   -0.1260    1.3140 C   0  0  0  0  0  0  0  0  0  0  0  0
   -3.2280    1.0890    0.7010 C   0  0  0  0  0  0  0  0  0  0  0  0
   -4.4090    1.4360    0.9140 O   0  0  0  0  0  0  0  0  0  0  0  0
   -2.4590    1.8750   -0.1440 O   0  0  0  0  0  0  0  0  0  0  0  0
   -0.8930   -1.0940    0.3580 H   0  0  0  0  0  0  0  0  0  0  0  0
   -3.1760   -1.0410    1.0480 H   0  0  0  0  0  0  0  0  0  0  0  0
   -2.6650    0.0030    2.4140 H   0  0  0  0  0  0  0  0  0  0  0  0
  1 10  1  0  0  0  0
  2  4  1  0  0  0  0
  2  1  1  0  0  0  0
  3  2  2  0  0  0  0
  4 12  1  0  0  0  0
  4 13  1  0  0  0  0
  5  6  1  0  0  0  0
  5  4  1  0  0  0  0
  6 16  1  6  0  0  0
  6  7  1  0  0  0  0
  6  8  1  0  0  0  0
  8  9  2  0  0  0  0
 11  1  1  0  0  0  0
 14  5  1  0  0  0  0
 15  5  1  0  0  0  0
 17  7  1  0  0  0  0
 18  7  1  0  0  0  0
 19  8  1  0  0  0  0
 19 20  1  0  0  0  0
 20 27  1  0  0  0  0
 20 30  1  1  0  0  0
 21 22  1  0  0  0  0
 21 20  1  0  0  0  0
 22 26  1  0  0  0  0
 22 23  2  0  0  0  0
 23 33  1  0  0  0  0
 23 24  1  0  0  0  0
 24 34  1  0  0  0  0
 25 35  1  0  0  0  0
 25 24  1  0  0  0  0
 26 25  2  0  0  0  0
 27 28  2  0  0  0  0
 29 19  1  0  0  0  0
 31 21  1  0  0  0  0
 32 21  1  0  0  0  0
 36 27  1  0  0  0  0
 36 37  1  0  0  0  0
 37 43  1  0  0  0  0
 38 39  1  0  0  0  0
 38 37  1  0  0  0  0
 40 38  2  0  0  0  0
 41 36  1  0  0  0  0
 42 37  1  0  0  0  0
M  END
$$$$
