QHH.pdb
 OpenBabel07022418323D

 53 54  0  0  1  0  0  0  0  0999 V2000
   -4.2650    0.8530    5.1600 N   0  0  0  0  0  0  0  0  0  0  0  0
   -2.9010    0.4960    5.1300 C   0  0  0  0  0  0  0  0  0  0  0  0
   -2.0600    0.9040    5.9560 O   0  0  0  0  0  0  0  0  0  0  0  0
   -2.4150   -0.4240    4.0520 C   0  0  0  0  0  0  0  0  0  0  0  0
   -0.9580   -0.6940    4.1670 C   0  0  0  0  0  0  0  0  0  0  0  0
   -0.4870   -1.6420    3.0960 C   0  0  2  0  0  0  0  0  0  0  0  0
    0.9420   -1.8200    3.3340 N   0  0  0  0  0  0  0  0  0  0  0  0
   -0.7240   -1.0290    1.7690 C   0  0  0  0  0  0  0  0  0  0  0  0
   -1.8710   -0.9080    1.2750 O   0  0  0  0  0  0  0  0  0  0  0  0
   -4.5020    1.8780    5.2620 H   0  0  0  0  0  0  0  0  0  0  0  0
   -5.0190    0.1540    5.0870 H   0  0  0  0  0  0  0  0  0  0  0  0
   -3.0540   -1.3180    4.0600 H   0  0  0  0  0  0  0  0  0  0  0  0
   -2.6590    0.1360    3.1040 H   0  0  0  0  0  0  0  0  0  0  0  0
   -0.4200    0.2680    3.9780 H   0  0  0  0  0  0  0  0  0  0  0  0
   -0.6420   -1.0110    5.1810 H   0  0  0  0  0  0  0  0  0  0  0  0
   -0.9390   -2.6540    3.1920 H   0  0  0  0  0  0  0  0  0  0  0  0
    1.2420   -2.8010    3.2270 H   0  0  0  0  0  0  0  0  0  0  0  0
    1.2940   -1.3370    4.1630 H   0  0  0  0  0  0  0  0  0  0  0  0
    0.3980   -0.5440    0.9930 N   0  0  0  0  0  0  0  0  0  0  0  0
    0.1640    0.0490   -0.2920 C   0  0  1  0  0  0  0  0  0  0  0  0
    0.6630    1.4980   -0.3500 C   0  0  0  0  0  0  0  0  0  0  0  0
   -0.0340    2.3280    0.6660 C   0  0  0  0  0  0  0  0  0  0  0  0
    0.3420    2.5670    1.9780 C   0  0  0  0  0  0  0  0  0  0  0  0
   -0.5510    3.3720    2.5820 N   0  0  0  0  0  0  0  0  0  0  0  0
   -1.4920    3.6460    1.6600 C   0  0  0  0  0  0  0  0  0  0  0  0
   -1.1820    3.0170    0.5050 N   0  0  0  0  0  0  0  0  0  0  0  0
    0.8200   -0.7340   -1.4000 C   0  0  0  0  0  0  0  0  0  0  0  0
    0.6650   -0.2820   -2.5430 O   0  0  0  0  0  0  0  0  0  0  0  0
    1.3310   -0.6600    1.4300 H   0  0  0  0  0  0  0  0  0  0  0  0
   -0.9140    0.0650   -0.5470 H   0  0  0  0  0  0  0  0  0  0  0  0
    0.5130    1.8920   -1.3620 H   0  0  0  0  0  0  0  0  0  0  0  0
    1.7360    1.4500   -0.0530 H   0  0  0  0  0  0  0  0  0  0  0  0
    1.2370    2.1490    2.4270 H   0  0  0  0  0  0  0  0  0  0  0  0
   -0.5100    3.7120    3.5750 H   0  0  0  0  0  0  0  0  0  0  0  0
   -2.3400    4.2830    1.8870 H   0  0  0  0  0  0  0  0  0  0  0  0
    1.5610   -1.9020   -1.1560 N   0  0  0  0  0  0  0  0  0  0  0  0
    2.2190   -2.7690   -2.0670 C   0  0  1  0  0  0  0  0  0  0  0  0
    2.0490   -2.4330   -3.5400 C   0  0  0  0  0  0  0  0  0  0  0  0
    0.6350   -2.5890   -3.9130 C   0  0  0  0  0  0  0  0  0  0  0  0
   -0.3930   -3.0710   -3.1260 C   0  0  0  0  0  0  0  0  0  0  0  0
   -1.5140   -3.1060   -3.8540 N   0  0  0  0  0  0  0  0  0  0  0  0
   -1.1910   -2.6540   -5.0720 C   0  0  0  0  0  0  0  0  0  0  0  0
    0.1050   -2.3370   -5.1240 N   0  0  0  0  0  0  0  0  0  0  0  0
    3.6140   -3.0910   -1.7950 C   0  0  0  0  0  0  0  0  0  0  0  0
    4.1910   -2.6080   -0.7870 O   0  0  0  0  0  0  0  0  0  0  0  0
    4.3530   -3.9260   -2.6180 O   0  0  0  0  0  0  0  0  0  0  0  0
    1.6130   -2.1420   -0.0970 H   0  0  0  0  0  0  0  0  0  0  0  0
    1.6120   -3.7510   -2.0080 H   0  0  0  0  0  0  0  0  0  0  0  0
    2.3600   -1.3830   -3.6730 H   0  0  0  0  0  0  0  0  0  0  0  0
    2.7070   -3.0830   -4.1520 H   0  0  0  0  0  0  0  0  0  0  0  0
   -0.3750   -3.3850   -2.0930 H   0  0  0  0  0  0  0  0  0  0  0  0
   -2.4690   -3.4310   -3.5180 H   0  0  0  0  0  0  0  0  0  0  0  0
   -1.9190   -2.5680   -5.8940 H   0  0  0  0  0  0  0  0  0  0  0  0
  1 10  1  0  0  0  0
  2  1  1  0  0  0  0
  2  3  2  0  0  0  0
  4 12  1  0  0  0  0
  4  5  1  0  0  0  0
  4  2  1  0  0  0  0
  5 15  1  0  0  0  0
  6 16  1  1  0  0  0
  6  7  1  0  0  0  0
  6  5  1  0  0  0  0
  7 18  1  0  0  0  0
  8  6  1  0  0  0  0
  9  8  2  0  0  0  0
 11  1  1  0  0  0  0
 13  4  1  0  0  0  0
 14  5  1  0  0  0  0
 17  7  1  0  0  0  0
 19 29  1  0  0  0  0
 19  8  1  0  0  0  0
 20 30  1  6  0  0  0
 20 19  1  0  0  0  0
 21 20  1  0  0  0  0
 21 32  1  0  0  0  0
 21 22  1  0  0  0  0
 22 23  2  0  0  0  0
 23 33  1  0  0  0  0
 23 24  1  0  0  0  0
 24 34  1  0  0  0  0
 25 35  1  0  0  0  0
 25 24  1  0  0  0  0
 26 22  1  0  0  0  0
 26 25  2  0  0  0  0
 27 36  1  0  0  0  0
 27 20  1  0  0  0  0
 28 27  2  0  0  0  0
 31 21  1  0  0  0  0
 36 47  1  0  0  0  0
 37 48  1  1  0  0  0
 37 44  1  0  0  0  0
 37 36  1  0  0  0  0
 38 37  1  0  0  0  0
 39 38  1  0  0  0  0
 39 40  2  0  0  0  0
 40 51  1  0  0  0  0
 41 52  1  0  0  0  0
 41 40  1  0  0  0  0
 42 41  1  0  0  0  0
 43 42  2  0  0  0  0
 43 39  1  0  0  0  0
 44 45  1  0  0  0  0
 46 44  2  0  0  0  0
 49 38  1  0  0  0  0
 50 38  1  0  0  0  0
 53 42  1  0  0  0  0
M  END
$$$$
