QHI.pdb
 OpenBabel07022418323D

 55 55  0  0  1  0  0  0  0  0999 V2000
    3.0190   -5.1200    1.1090 N   0  0  0  0  0  0  0  0  0  0  0  0
    3.4650   -3.7800    0.9470 C   0  0  0  0  0  0  0  0  0  0  0  0
    4.6540   -3.5560    1.2800 O   0  0  0  0  0  0  0  0  0  0  0  0
    2.5780   -2.7350    0.4170 C   0  0  0  0  0  0  0  0  0  0  0  0
    3.0280   -1.3320    0.5720 C   0  0  0  0  0  0  0  0  0  0  0  0
    3.1950   -0.8090    1.9480 C   0  0  2  0  0  0  0  0  0  0  0  0
    4.1480   -1.5080    2.7420 N   0  0  0  0  0  0  0  0  0  0  0  0
    1.8780   -0.6860    2.6320 C   0  0  0  0  0  0  0  0  0  0  0  0
    1.6590   -1.1890    3.7620 O   0  0  0  0  0  0  0  0  0  0  0  0
    3.3120   -5.6730    1.9330 H   0  0  0  0  0  0  0  0  0  0  0  0
    2.3990   -5.5530    0.4060 H   0  0  0  0  0  0  0  0  0  0  0  0
    1.5490   -2.8870    0.8330 H   0  0  0  0  0  0  0  0  0  0  0  0
    2.4250   -2.8960   -0.6960 H   0  0  0  0  0  0  0  0  0  0  0  0
    2.2700   -0.6710    0.0510 H   0  0  0  0  0  0  0  0  0  0  0  0
    3.9840   -1.1250    0.0230 H   0  0  0  0  0  0  0  0  0  0  0  0
    3.5830    0.2500    1.8400 H   0  0  0  0  0  0  0  0  0  0  0  0
    5.0910   -1.1330    2.5690 H   0  0  0  0  0  0  0  0  0  0  0  0
    3.8800   -1.6270    3.7260 H   0  0  0  0  0  0  0  0  0  0  0  0
    0.8420    0.0250    1.9800 N   0  0  0  0  0  0  0  0  0  0  0  0
   -0.4600    0.1520    2.6480 C   0  0  1  0  0  0  0  0  0  0  0  0
   -0.6320    1.6290    2.9390 C   0  0  0  0  0  0  0  0  0  0  0  0
   -0.6060    2.4160    1.6640 C   0  0  0  0  0  0  0  0  0  0  0  0
    0.4620    2.9690    1.0260 C   0  0  0  0  0  0  0  0  0  0  0  0
    0.0070    3.5830   -0.0860 N   0  0  0  0  0  0  0  0  0  0  0  0
   -1.3170    3.3970   -0.1080 C   0  0  0  0  0  0  0  0  0  0  0  0
   -1.7210    2.6870    0.9490 N   0  0  0  0  0  0  0  0  0  0  0  0
   -1.5310   -0.3550    1.7590 C   0  0  0  0  0  0  0  0  0  0  0  0
   -2.7100   -0.2910    2.2320 O   0  0  0  0  0  0  0  0  0  0  0  0
    0.9270    0.4800    1.0400 H   0  0  0  0  0  0  0  0  0  0  0  0
   -0.4350   -0.3710    3.6200 H   0  0  0  0  0  0  0  0  0  0  0  0
   -1.5960    1.8130    3.4630 H   0  0  0  0  0  0  0  0  0  0  0  0
    0.2090    1.9850    3.5440 H   0  0  0  0  0  0  0  0  0  0  0  0
    1.4870    2.9240    1.3510 H   0  0  0  0  0  0  0  0  0  0  0  0
    0.5580    4.1050   -0.8010 H   0  0  0  0  0  0  0  0  0  0  0  0
   -1.9640    3.7840   -0.8970 H   0  0  0  0  0  0  0  0  0  0  0  0
   -4.8100   -1.0020   -1.7920 C   0  0  0  0  0  0  0  0  0  0  0  0
   -3.4700   -0.9900   -2.5140 C   0  0  0  0  0  0  0  0  0  0  0  0
   -2.3790   -0.5150   -1.6190 C   0  0  2  0  0  0  0  0  0  0  0  0
   -1.0920   -0.5270   -2.4080 C   0  0  0  0  0  0  0  0  0  0  0  0
   -2.2930   -1.3560   -0.3710 C   0  0  2  0  0  0  0  0  0  0  0  0
   -1.2220   -0.8590    0.5000 N   0  0  0  0  0  0  0  0  0  0  0  0
   -2.0670   -2.8010   -0.6400 C   0  0  0  0  0  0  0  0  0  0  0  0
   -2.8490   -3.4750   -1.3410 O   0  0  0  0  0  0  0  0  0  0  0  0
   -0.9640   -3.4590   -0.1130 O   0  0  0  0  0  0  0  0  0  0  0  0
   -5.1410   -2.0200   -1.5380 H   0  0  0  0  0  0  0  0  0  0  0  0
   -5.6060   -0.5410   -2.4180 H   0  0  0  0  0  0  0  0  0  0  0  0
   -4.7780   -0.4110   -0.8570 H   0  0  0  0  0  0  0  0  0  0  0  0
   -3.2420   -1.9430   -2.9980 H   0  0  0  0  0  0  0  0  0  0  0  0
   -3.5930   -0.2480   -3.3660 H   0  0  0  0  0  0  0  0  0  0  0  0
   -2.5840    0.5100   -1.3150 H   0  0  0  0  0  0  0  0  0  0  0  0
   -0.5870   -1.5020   -2.4140 H   0  0  0  0  0  0  0  0  0  0  0  0
   -1.3620   -0.2590   -3.4580 H   0  0  0  0  0  0  0  0  0  0  0  0
   -0.3990    0.2600   -2.0590 H   0  0  0  0  0  0  0  0  0  0  0  0
   -3.2380   -1.2210    0.1830 H   0  0  0  0  0  0  0  0  0  0  0  0
   -0.2580   -0.9050    0.1310 H   0  0  0  0  0  0  0  0  0  0  0  0
  1 10  1  0  0  0  0
  2  1  1  0  0  0  0
  2  3  2  0  0  0  0
  4  5  1  0  0  0  0
  4 12  1  0  0  0  0
  4  2  1  0  0  0  0
  5  6  1  0  0  0  0
  6 16  1  6  0  0  0
  6  8  1  0  0  0  0
  6  7  1  0  0  0  0
  7 18  1  0  0  0  0
  8  9  2  0  0  0  0
 11  1  1  0  0  0  0
 13  4  1  0  0  0  0
 14  5  1  0  0  0  0
 15  5  1  0  0  0  0
 17  7  1  0  0  0  0
 19  8  1  0  0  0  0
 19 20  1  0  0  0  0
 20 21  1  0  0  0  0
 20 30  1  1  0  0  0
 21 31  1  0  0  0  0
 21 32  1  0  0  0  0
 22 21  1  0  0  0  0
 23 33  1  0  0  0  0
 23 22  2  0  0  0  0
 24 23  1  0  0  0  0
 25 24  1  0  0  0  0
 25 26  2  0  0  0  0
 26 22  1  0  0  0  0
 27 28  2  0  0  0  0
 27 20  1  0  0  0  0
 29 19  1  0  0  0  0
 34 24  1  0  0  0  0
 35 25  1  0  0  0  0
 36 45  1  0  0  0  0
 36 47  1  0  0  0  0
 37 36  1  0  0  0  0
 37 38  1  0  0  0  0
 38 50  1  1  0  0  0
 38 40  1  0  0  0  0
 39 53  1  0  0  0  0
 39 38  1  0  0  0  0
 40 54  1  1  0  0  0
 40 41  1  0  0  0  0
 41 27  1  0  0  0  0
 42 40  1  0  0  0  0
 42 44  1  0  0  0  0
 43 42  2  0  0  0  0
 46 36  1  0  0  0  0
 48 37  1  0  0  0  0
 49 37  1  0  0  0  0
 51 39  1  0  0  0  0
 52 39  1  0  0  0  0
 55 41  1  0  0  0  0
M  END
$$$$
