QHK.pdb
 OpenBabel07022418323D

 57 57  0  0  1  0  0  0  0  0999 V2000
    2.5090   -4.0760    1.1570 N   0  0  0  0  0  0  0  0  0  0  0  0
    3.3160   -3.0470    1.7560 C   0  0  0  0  0  0  0  0  0  0  0  0
    3.5440   -3.1690    2.9750 O   0  0  0  0  0  0  0  0  0  0  0  0
    3.7840   -1.9760    0.8760 C   0  0  0  0  0  0  0  0  0  0  0  0
    4.3220   -0.7630    1.5160 C   0  0  0  0  0  0  0  0  0  0  0  0
    3.4120    0.0500    2.3680 C   0  0  2  0  0  0  0  0  0  0  0  0
    2.9290   -0.7010    3.4690 N   0  0  0  0  0  0  0  0  0  0  0  0
    2.2970    0.6490    1.5470 C   0  0  0  0  0  0  0  0  0  0  0  0
    2.5860    1.4580    0.6600 O   0  0  0  0  0  0  0  0  0  0  0  0
    2.9240   -4.7590    0.4900 H   0  0  0  0  0  0  0  0  0  0  0  0
    1.5160   -4.1340    1.3920 H   0  0  0  0  0  0  0  0  0  0  0  0
    2.9940   -1.7690    0.1070 H   0  0  0  0  0  0  0  0  0  0  0  0
    4.6240   -2.4090    0.2490 H   0  0  0  0  0  0  0  0  0  0  0  0
    5.2030   -1.1030    2.1500 H   0  0  0  0  0  0  0  0  0  0  0  0
    4.8480   -0.1040    0.7540 H   0  0  0  0  0  0  0  0  0  0  0  0
    4.0230    0.8990    2.7850 H   0  0  0  0  0  0  0  0  0  0  0  0
    3.7640   -0.7740    4.1540 H   0  0  0  0  0  0  0  0  0  0  0  0
    2.1840   -0.2100    4.0270 H   0  0  0  0  0  0  0  0  0  0  0  0
    0.9810    0.2680    1.8180 N   0  0  0  0  0  0  0  0  0  0  0  0
   -0.2490    0.6810    1.2380 C   0  0  1  0  0  0  0  0  0  0  0  0
   -0.2070    1.6060    0.0630 C   0  0  0  0  0  0  0  0  0  0  0  0
    0.3220    2.9560    0.3580 C   0  0  0  0  0  0  0  0  0  0  0  0
    0.5300    3.9880   -0.5430 C   0  0  0  0  0  0  0  0  0  0  0  0
    1.0160    5.0300    0.1290 N   0  0  0  0  0  0  0  0  0  0  0  0
    1.1310    4.7060    1.4400 C   0  0  0  0  0  0  0  0  0  0  0  0
    0.7010    3.4370    1.5550 N   0  0  0  0  0  0  0  0  0  0  0  0
   -1.1770   -0.4470    1.1310 C   0  0  0  0  0  0  0  0  0  0  0  0
   -0.8140   -1.6170    1.5200 O   0  0  0  0  0  0  0  0  0  0  0  0
    0.8690   -0.4720    2.5920 H   0  0  0  0  0  0  0  0  0  0  0  0
   -0.6270    1.4700    2.0370 H   0  0  0  0  0  0  0  0  0  0  0  0
    0.3670    1.2200   -0.7950 H   0  0  0  0  0  0  0  0  0  0  0  0
   -1.2430    1.7550   -0.3000 H   0  0  0  0  0  0  0  0  0  0  0  0
    0.3200    3.9120   -1.5920 H   0  0  0  0  0  0  0  0  0  0  0  0
    1.2860    5.9660   -0.2220 H   0  0  0  0  0  0  0  0  0  0  0  0
    1.4960    5.3430    2.2400 H   0  0  0  0  0  0  0  0  0  0  0  0
   -2.4910   -0.3660    0.6180 N   0  0  0  0  0  0  0  0  0  0  0  0
   -3.4500   -1.3950    0.4560 C   0  0  1  0  0  0  0  0  0  0  0  0
   -2.9260   -2.8030    0.3220 C   0  0  0  0  0  0  0  0  0  0  0  0
   -2.0680   -3.0670   -0.8610 C   0  0  0  0  0  0  0  0  0  0  0  0
   -2.8010   -2.8330   -2.1950 C   0  0  0  0  0  0  0  0  0  0  0  0
   -1.7780   -3.1670   -3.2860 C   0  0  0  0  0  0  0  0  0  0  0  0
   -2.3930   -2.9710   -4.5870 N   0  0  0  0  0  0  0  0  0  0  0  0
   -4.5290   -1.3740    1.4500 C   0  0  0  0  0  0  0  0  0  0  0  0
   -5.4600   -2.2190    1.4500 O   0  0  0  0  0  0  0  0  0  0  0  0
   -4.5910   -0.4070    2.4710 O   0  0  0  0  0  0  0  0  0  0  0  0
   -2.7890    0.6170    0.3170 H   0  0  0  0  0  0  0  0  0  0  0  0
   -3.9150   -1.2270   -0.5780 H   0  0  0  0  0  0  0  0  0  0  0  0
   -3.8610   -3.4290    0.1750 H   0  0  0  0  0  0  0  0  0  0  0  0
   -2.5110   -3.1970    1.2720 H   0  0  0  0  0  0  0  0  0  0  0  0
   -1.8350   -4.1750   -0.8760 H   0  0  0  0  0  0  0  0  0  0  0  0
   -1.1150   -2.5440   -0.8640 H   0  0  0  0  0  0  0  0  0  0  0  0
   -3.6680   -3.4990   -2.2800 H   0  0  0  0  0  0  0  0  0  0  0  0
   -3.1350   -1.7820   -2.3060 H   0  0  0  0  0  0  0  0  0  0  0  0
   -1.4980   -4.2350   -3.1880 H   0  0  0  0  0  0  0  0  0  0  0  0
   -0.8760   -2.5400   -3.1690 H   0  0  0  0  0  0  0  0  0  0  0  0
   -3.3380   -3.3650   -4.6220 H   0  0  0  0  0  0  0  0  0  0  0  0
   -1.7510   -3.2740   -5.3320 H   0  0  0  0  0  0  0  0  0  0  0  0
  1 11  1  0  0  0  0
  1  2  1  0  0  0  0
  2  3  2  0  0  0  0
  4  5  1  0  0  0  0
  4  2  1  0  0  0  0
  5 14  1  0  0  0  0
  5  6  1  0  0  0  0
  6 16  1  1  0  0  0
  6  7  1  0  0  0  0
  7 18  1  0  0  0  0
  7 17  1  0  0  0  0
  8 19  1  0  0  0  0
  8  6  1  0  0  0  0
  9  8  2  0  0  0  0
 10  1  1  0  0  0  0
 12  4  1  0  0  0  0
 13  4  1  0  0  0  0
 15  5  1  0  0  0  0
 19 29  1  0  0  0  0
 20 19  1  0  0  0  0
 20 30  1  1  0  0  0
 21 22  1  0  0  0  0
 21 20  1  0  0  0  0
 22 26  1  0  0  0  0
 23 24  1  0  0  0  0
 23 22  2  0  0  0  0
 24 25  1  0  0  0  0
 25 26  2  0  0  0  0
 25 35  1  0  0  0  0
 27 20  1  0  0  0  0
 27 28  2  0  0  0  0
 31 21  1  0  0  0  0
 32 21  1  0  0  0  0
 33 23  1  0  0  0  0
 34 24  1  0  0  0  0
 36 27  1  0  0  0  0
 37 47  1  6  0  0  0
 37 36  1  0  0  0  0
 37 43  1  0  0  0  0
 38 37  1  0  0  0  0
 38 49  1  0  0  0  0
 39 38  1  0  0  0  0
 40 39  1  0  0  0  0
 41 54  1  0  0  0  0
 41 55  1  0  0  0  0
 41 40  1  0  0  0  0
 42 41  1  0  0  0  0
 43 44  2  0  0  0  0
 43 45  1  0  0  0  0
 46 36  1  0  0  0  0
 48 38  1  0  0  0  0
 50 39  1  0  0  0  0
 51 39  1  0  0  0  0
 52 40  1  0  0  0  0
 53 40  1  0  0  0  0
 56 42  1  0  0  0  0
 57 42  1  0  0  0  0
M  END
$$$$
