QHL.pdb
 OpenBabel07022418323D

 55 55  0  0  1  0  0  0  0  0999 V2000
    5.8830   -1.8580   -3.2610 N   0  0  0  0  0  0  0  0  0  0  0  0
    5.2070   -1.4720   -2.0620 C   0  0  0  0  0  0  0  0  0  0  0  0
    5.1440   -2.3620   -1.1740 O   0  0  0  0  0  0  0  0  0  0  0  0
    4.6400   -0.1250   -1.9050 C   0  0  0  0  0  0  0  0  0  0  0  0
    3.8540    0.0580   -0.6360 C   0  0  0  0  0  0  0  0  0  0  0  0
    2.6580   -0.8550   -0.5230 C   0  0  2  0  0  0  0  0  0  0  0  0
    1.7430   -0.6170   -1.6300 N   0  0  0  0  0  0  0  0  0  0  0  0
    1.9730   -0.5320    0.7810 C   0  0  0  0  0  0  0  0  0  0  0  0
    2.5900   -0.6730    1.8650 O   0  0  0  0  0  0  0  0  0  0  0  0
    5.3090   -2.2970   -4.0060 H   0  0  0  0  0  0  0  0  0  0  0  0
    6.8890   -1.7230   -3.4140 H   0  0  0  0  0  0  0  0  0  0  0  0
    3.9770    0.1370   -2.7680 H   0  0  0  0  0  0  0  0  0  0  0  0
    5.4660    0.6130   -1.9100 H   0  0  0  0  0  0  0  0  0  0  0  0
    4.5870   -0.1520    0.1990 H   0  0  0  0  0  0  0  0  0  0  0  0
    3.5730    1.1250   -0.4700 H   0  0  0  0  0  0  0  0  0  0  0  0
    3.0010   -1.9020   -0.5330 H   0  0  0  0  0  0  0  0  0  0  0  0
    1.5710    0.4080   -1.7190 H   0  0  0  0  0  0  0  0  0  0  0  0
    2.1880   -0.9720   -2.5040 H   0  0  0  0  0  0  0  0  0  0  0  0
    0.6450   -0.0700    0.8070 N   0  0  0  0  0  0  0  0  0  0  0  0
   -0.0640    0.2570    2.0350 C   0  0  1  0  0  0  0  0  0  0  0  0
   -0.3700    1.7550    2.0760 C   0  0  0  0  0  0  0  0  0  0  0  0
    0.8870    2.5450    2.0260 C   0  0  0  0  0  0  0  0  0  0  0  0
    1.6460    2.9680    3.1030 C   0  0  0  0  0  0  0  0  0  0  0  0
    2.7220    3.6640    2.6590 N   0  0  0  0  0  0  0  0  0  0  0  0
    2.6320    3.6710    1.3300 C   0  0  0  0  0  0  0  0  0  0  0  0
    1.5270    2.9980    0.9340 N   0  0  0  0  0  0  0  0  0  0  0  0
   -1.3290   -0.5140    2.1400 C   0  0  0  0  0  0  0  0  0  0  0  0
   -2.0480   -0.3390    3.1480 O   0  0  0  0  0  0  0  0  0  0  0  0
    0.1620    0.0350   -0.1330 H   0  0  0  0  0  0  0  0  0  0  0  0
    0.6300    0.0680    2.8760 H   0  0  0  0  0  0  0  0  0  0  0  0
   -1.0290    1.9800    1.1950 H   0  0  0  0  0  0  0  0  0  0  0  0
   -0.9600    1.9450    2.9840 H   0  0  0  0  0  0  0  0  0  0  0  0
    1.4210    2.7770    4.1450 H   0  0  0  0  0  0  0  0  0  0  0  0
    3.4560    4.0950    3.2570 H   0  0  0  0  0  0  0  0  0  0  0  0
    3.3230    4.1370    0.6440 H   0  0  0  0  0  0  0  0  0  0  0  0
   -5.3080   -3.8380   -0.3150 C   0  0  0  0  0  0  0  0  0  0  0  0
   -5.2090   -2.3960    0.0040 C   0  0  0  0  0  0  0  0  0  0  0  0
   -6.1430   -2.0300    1.1840 C   0  0  0  0  0  0  0  0  0  0  0  0
   -3.8970   -1.7670    0.1560 C   0  0  0  0  0  0  0  0  0  0  0  0
   -2.9890   -2.2100    1.2220 C   0  0  2  0  0  0  0  0  0  0  0  0
   -1.7370   -1.4160    1.1650 N   0  0  0  0  0  0  0  0  0  0  0  0
   -2.5490   -3.5950    1.2910 C   0  0  0  0  0  0  0  0  0  0  0  0
   -1.3190   -3.9070    1.0940 O   0  0  0  0  0  0  0  0  0  0  0  0
   -3.3480   -4.6780    1.5680 O   0  0  0  0  0  0  0  0  0  0  0  0
   -5.7520   -4.3860    0.5470 H   0  0  0  0  0  0  0  0  0  0  0  0
   -6.1320   -3.9920   -1.1130 H   0  0  0  0  0  0  0  0  0  0  0  0
   -4.4430   -4.3020   -0.7870 H   0  0  0  0  0  0  0  0  0  0  0  0
   -5.7230   -1.8510   -0.8610 H   0  0  0  0  0  0  0  0  0  0  0  0
   -7.1910   -2.1200    0.8470 H   0  0  0  0  0  0  0  0  0  0  0  0
   -5.9370   -0.9540    1.3770 H   0  0  0  0  0  0  0  0  0  0  0  0
   -5.9180   -2.6620    2.0550 H   0  0  0  0  0  0  0  0  0  0  0  0
   -3.3950   -1.8030   -0.8600 H   0  0  0  0  0  0  0  0  0  0  0  0
   -4.1190   -0.6620    0.3790 H   0  0  0  0  0  0  0  0  0  0  0  0
   -3.4490   -1.8820    2.2050 H   0  0  0  0  0  0  0  0  0  0  0  0
   -1.1630   -1.5810    0.3220 H   0  0  0  0  0  0  0  0  0  0  0  0
  1  2  1  0  0  0  0
  2  4  1  0  0  0  0
  2  3  2  0  0  0  0
  4  5  1  0  0  0  0
  5  6  1  0  0  0  0
  5 15  1  0  0  0  0
  5 14  1  0  0  0  0
  6 16  1  6  0  0  0
  6  8  1  0  0  0  0
  7  6  1  0  0  0  0
  8 19  1  0  0  0  0
  8  9  2  0  0  0  0
 10  1  1  0  0  0  0
 11  1  1  0  0  0  0
 12  4  1  0  0  0  0
 13  4  1  0  0  0  0
 17  7  1  0  0  0  0
 18  7  1  0  0  0  0
 19 20  1  0  0  0  0
 20 21  1  0  0  0  0
 20 27  1  0  0  0  0
 20 30  1  1  0  0  0
 21 32  1  0  0  0  0
 22 21  1  0  0  0  0
 22 23  2  0  0  0  0
 23 33  1  0  0  0  0
 24 23  1  0  0  0  0
 24 34  1  0  0  0  0
 25 24  1  0  0  0  0
 26 25  2  0  0  0  0
 26 22  1  0  0  0  0
 27 28  2  0  0  0  0
 29 19  1  0  0  0  0
 31 21  1  0  0  0  0
 35 25  1  0  0  0  0
 36 37  1  0  0  0  0
 36 45  1  0  0  0  0
 37 39  1  0  0  0  0
 37 38  1  0  0  0  0
 38 50  1  0  0  0  0
 38 51  1  0  0  0  0
 39 53  1  0  0  0  0
 39 40  1  0  0  0  0
 40 42  1  0  0  0  0
 40 54  1  1  0  0  0
 41 40  1  0  0  0  0
 41 27  1  0  0  0  0
 42 44  1  0  0  0  0
 43 42  2  0  0  0  0
 46 36  1  0  0  0  0
 47 36  1  0  0  0  0
 48 37  1  0  0  0  0
 49 38  1  0  0  0  0
 52 39  1  0  0  0  0
 55 41  1  0  0  0  0
M  END
$$$$
