QHQ.pdb
 OpenBabel07022418323D

 53 53  0  0  1  0  0  0  0  0999 V2000
   -0.7170   -2.7970    5.9370 N   0  0  0  0  0  0  0  0  0  0  0  0
   -0.4660   -2.5380    4.5540 C   0  0  0  0  0  0  0  0  0  0  0  0
   -1.4680   -2.3410    3.8260 O   0  0  0  0  0  0  0  0  0  0  0  0
    0.8930   -2.5100    4.0350 C   0  0  0  0  0  0  0  0  0  0  0  0
    1.1190   -1.8760    2.7210 C   0  0  0  0  0  0  0  0  0  0  0  0
    0.8310   -0.4060    2.6190 C   0  0  2  0  0  0  0  0  0  0  0  0
   -0.5190   -0.0210    2.9260 N   0  0  0  0  0  0  0  0  0  0  0  0
    1.1110    0.0280    1.2010 C   0  0  0  0  0  0  0  0  0  0  0  0
    2.3140    0.0130    0.8670 O   0  0  0  0  0  0  0  0  0  0  0  0
   -0.1960   -3.5690    6.3930 H   0  0  0  0  0  0  0  0  0  0  0  0
   -1.3950   -2.2510    6.5050 H   0  0  0  0  0  0  0  0  0  0  0  0
    1.2530   -3.5650    3.9640 H   0  0  0  0  0  0  0  0  0  0  0  0
    1.5490   -2.0100    4.7820 H   0  0  0  0  0  0  0  0  0  0  0  0
    0.6520   -2.4260    1.8670 H   0  0  0  0  0  0  0  0  0  0  0  0
    2.2280   -1.9800    2.5090 H   0  0  0  0  0  0  0  0  0  0  0  0
    1.5240    0.1990    3.2630 H   0  0  0  0  0  0  0  0  0  0  0  0
   -0.6650    0.9650    2.5520 H   0  0  0  0  0  0  0  0  0  0  0  0
   -0.5640    0.1430    3.9890 H   0  0  0  0  0  0  0  0  0  0  0  0
    0.0940    0.4170    0.3250 N   0  0  0  0  0  0  0  0  0  0  0  0
    0.2500    0.8560   -1.0190 C   0  0  1  0  0  0  0  0  0  0  0  0
    1.4560    1.7230   -1.2150 C   0  0  0  0  0  0  0  0  0  0  0  0
    1.3080    2.9360   -0.3800 C   0  0  0  0  0  0  0  0  0  0  0  0
    1.7100    3.2480    0.8880 C   0  0  0  0  0  0  0  0  0  0  0  0
    1.3360    4.5290    1.1930 N   0  0  0  0  0  0  0  0  0  0  0  0
    0.7060    5.0200    0.1280 C   0  0  0  0  0  0  0  0  0  0  0  0
    0.6810    4.0750   -0.8250 N   0  0  0  0  0  0  0  0  0  0  0  0
    0.0830   -0.2280   -1.9930 C   0  0  0  0  0  0  0  0  0  0  0  0
    0.1860   -0.0350   -3.2400 O   0  0  0  0  0  0  0  0  0  0  0  0
   -0.9020    0.3550    0.7300 H   0  0  0  0  0  0  0  0  0  0  0  0
   -0.6170    1.5960   -1.2100 H   0  0  0  0  0  0  0  0  0  0  0  0
    2.4230    1.2540   -0.9990 H   0  0  0  0  0  0  0  0  0  0  0  0
    1.5380    2.0690   -2.2860 H   0  0  0  0  0  0  0  0  0  0  0  0
    2.2500    2.6060    1.5690 H   0  0  0  0  0  0  0  0  0  0  0  0
    1.5400    4.9730    2.1060 H   0  0  0  0  0  0  0  0  0  0  0  0
    0.2950    6.0220    0.0790 H   0  0  0  0  0  0  0  0  0  0  0  0
   -3.3310   -2.3810    0.7550 N   0  0  0  0  0  0  0  0  0  0  0  0
   -2.9150   -2.2270   -0.6140 C   0  0  0  0  0  0  0  0  0  0  0  0
   -2.8220   -1.0410   -1.0050 O   0  0  0  0  0  0  0  0  0  0  0  0
   -2.6310   -3.3690   -1.4720 C   0  0  0  0  0  0  0  0  0  0  0  0
   -1.7600   -3.1120   -2.6630 C   0  0  0  0  0  0  0  0  0  0  0  0
   -0.3840   -2.6980   -2.2710 C   0  0  2  0  0  0  0  0  0  0  0  0
   -0.2030   -1.5320   -1.5090 N   0  0  0  0  0  0  0  0  0  0  0  0
    0.5560   -2.8420   -3.4480 C   0  0  0  0  0  0  0  0  0  0  0  0
    0.3860   -3.8040   -4.2640 O   0  0  0  0  0  0  0  0  0  0  0  0
    1.6010   -2.0040   -3.7100 O   0  0  0  0  0  0  0  0  0  0  0  0
   -4.2400   -2.0400    1.1070 H   0  0  0  0  0  0  0  0  0  0  0  0
   -2.6890   -2.8560    1.4160 H   0  0  0  0  0  0  0  0  0  0  0  0
   -3.6200   -3.7600   -1.8330 H   0  0  0  0  0  0  0  0  0  0  0  0
   -2.2340   -4.2090   -0.8450 H   0  0  0  0  0  0  0  0  0  0  0  0
   -1.6330   -4.0940   -3.2160 H   0  0  0  0  0  0  0  0  0  0  0  0
   -2.2400   -2.3940   -3.3710 H   0  0  0  0  0  0  0  0  0  0  0  0
   -0.0090   -3.6000   -1.6220 H   0  0  0  0  0  0  0  0  0  0  0  0
   -0.2750   -1.6250   -0.4380 H   0  0  0  0  0  0  0  0  0  0  0  0
  1 10  1  0  0  0  0
  1 11  1  0  0  0  0
  2  1  1  0  0  0  0
  3  2  2  0  0  0  0
  4  2  1  0  0  0  0
  4 13  1  0  0  0  0
  5  4  1  0  0  0  0
  6  5  1  0  0  0  0
  6  7  1  0  0  0  0
  6 16  1  1  0  0  0
  7 18  1  0  0  0  0
  8  6  1  0  0  0  0
  9  8  2  0  0  0  0
 12  4  1  0  0  0  0
 14  5  1  0  0  0  0
 15  5  1  0  0  0  0
 17  7  1  0  0  0  0
 19 29  1  0  0  0  0
 19  8  1  0  0  0  0
 20 30  1  6  0  0  0
 20 19  1  0  0  0  0
 21 20  1  0  0  0  0
 21 31  1  0  0  0  0
 21 22  1  0  0  0  0
 22 23  2  0  0  0  0
 23 24  1  0  0  0  0
 23 33  1  0  0  0  0
 24 34  1  0  0  0  0
 25 24  1  0  0  0  0
 26 22  1  0  0  0  0
 26 25  2  0  0  0  0
 27 42  1  0  0  0  0
 27 20  1  0  0  0  0
 28 27  2  0  0  0  0
 32 21  1  0  0  0  0
 35 25  1  0  0  0  0
 36 46  1  0  0  0  0
 36 47  1  0  0  0  0
 37 36  1  0  0  0  0
 38 37  2  0  0  0  0
 39 49  1  0  0  0  0
 39 37  1  0  0  0  0
 40 41  1  0  0  0  0
 40 39  1  0  0  0  0
 41 52  1  1  0  0  0
 41 42  1  0  0  0  0
 42 53  1  0  0  0  0
 43 41  1  0  0  0  0
 44 43  2  0  0  0  0
 45 43  1  0  0  0  0
 48 39  1  0  0  0  0
 50 40  1  0  0  0  0
 51 40  1  0  0  0  0
M  END
$$$$
