QHR.pdb
 OpenBabel07022418323D

 59 59  0  0  1  0  0  0  0  0999 V2000
   -4.4230    1.7900    4.2920 N   0  0  0  0  0  0  0  0  0  0  0  0
   -3.4560    0.7780    4.0410 C   0  0  0  0  0  0  0  0  0  0  0  0
   -3.9010   -0.3280    3.6490 O   0  0  0  0  0  0  0  0  0  0  0  0
   -2.0030    1.0040    4.2280 C   0  0  0  0  0  0  0  0  0  0  0  0
   -1.1440   -0.1580    3.9050 C   0  0  0  0  0  0  0  0  0  0  0  0
   -1.1830   -0.6730    2.5130 C   0  0  2  0  0  0  0  0  0  0  0  0
   -0.3020   -1.8280    2.3400 N   0  0  0  0  0  0  0  0  0  0  0  0
   -0.7400    0.4270    1.5850 C   0  0  0  0  0  0  0  0  0  0  0  0
   -1.3150    1.5350    1.5100 O   0  0  0  0  0  0  0  0  0  0  0  0
   -5.1130    2.1250    3.5820 H   0  0  0  0  0  0  0  0  0  0  0  0
   -4.4900    2.2660    5.2310 H   0  0  0  0  0  0  0  0  0  0  0  0
   -1.7270    1.9550    3.7360 H   0  0  0  0  0  0  0  0  0  0  0  0
   -1.8940    1.2340    5.3340 H   0  0  0  0  0  0  0  0  0  0  0  0
   -1.3630   -1.0110    4.6130 H   0  0  0  0  0  0  0  0  0  0  0  0
   -0.0910    0.1370    4.2030 H   0  0  0  0  0  0  0  0  0  0  0  0
   -2.1970   -1.0330    2.2780 H   0  0  0  0  0  0  0  0  0  0  0  0
    0.6620   -1.6140    2.5950 H   0  0  0  0  0  0  0  0  0  0  0  0
   -0.3370   -2.2170    1.3780 H   0  0  0  0  0  0  0  0  0  0  0  0
    0.3860    0.2560    0.7220 N   0  0  0  0  0  0  0  0  0  0  0  0
    0.8780    1.2430   -0.1880 C   0  0  1  0  0  0  0  0  0  0  0  0
    2.3160    1.6410    0.0610 C   0  0  0  0  0  0  0  0  0  0  0  0
    2.4630    2.2070    1.4370 C   0  0  0  0  0  0  0  0  0  0  0  0
    2.7530    1.5130    2.5830 C   0  0  0  0  0  0  0  0  0  0  0  0
    2.7880    2.3950    3.5880 N   0  0  0  0  0  0  0  0  0  0  0  0
    2.5330    3.6230    3.1270 C   0  0  0  0  0  0  0  0  0  0  0  0
    2.3340    3.4980    1.7990 N   0  0  0  0  0  0  0  0  0  0  0  0
    0.6460    0.8170   -1.5810 C   0  0  0  0  0  0  0  0  0  0  0  0
    1.0150    1.4240   -2.6050 O   0  0  0  0  0  0  0  0  0  0  0  0
    0.8640   -0.6950    0.7960 H   0  0  0  0  0  0  0  0  0  0  0  0
    0.3040    2.2140   -0.1050 H   0  0  0  0  0  0  0  0  0  0  0  0
    3.0220    0.8260   -0.1220 H   0  0  0  0  0  0  0  0  0  0  0  0
    2.5530    2.4470   -0.6650 H   0  0  0  0  0  0  0  0  0  0  0  0
    2.9280    0.4340    2.6990 H   0  0  0  0  0  0  0  0  0  0  0  0
    2.9900    2.1470    4.6000 H   0  0  0  0  0  0  0  0  0  0  0  0
    2.4890    4.5620    3.7040 H   0  0  0  0  0  0  0  0  0  0  0  0
   -0.1380   -6.7870   -1.1960 N   0  0  0  0  0  0  0  0  0  0  0  0
    0.0180   -5.3930   -0.9990 C   0  0  0  0  0  0  0  0  0  0  0  0
   -0.9780   -4.6530   -0.6490 N   0  0  0  0  0  0  0  0  0  0  0  0
    1.2880   -4.7520   -1.1910 N   0  0  0  0  0  0  0  0  0  0  0  0
    1.2550   -3.3060   -1.5630 C   0  0  0  0  0  0  0  0  0  0  0  0
    0.6820   -3.2800   -2.9410 C   0  0  0  0  0  0  0  0  0  0  0  0
    0.5340   -1.9900   -3.6060 C   0  0  0  0  0  0  0  0  0  0  0  0
   -0.3590   -0.9270   -3.0860 C   0  0  2  0  0  0  0  0  0  0  0  0
   -0.0760   -0.4160   -1.7860 N   0  0  0  0  0  0  0  0  0  0  0  0
   -1.7930   -1.2580   -3.1830 C   0  0  0  0  0  0  0  0  0  0  0  0
   -2.5500   -1.0700   -2.2140 O   0  0  0  0  0  0  0  0  0  0  0  0
   -2.2950   -1.7780   -4.3540 O   0  0  0  0  0  0  0  0  0  0  0  0
    0.1840   -7.1910   -2.0960 H   0  0  0  0  0  0  0  0  0  0  0  0
   -0.5620   -7.3860   -0.4690 H   0  0  0  0  0  0  0  0  0  0  0  0
   -1.9340   -5.0440   -0.4950 H   0  0  0  0  0  0  0  0  0  0  0  0
    2.1670   -5.2550   -1.0810 H   0  0  0  0  0  0  0  0  0  0  0  0
    2.2990   -2.9430   -1.5990 H   0  0  0  0  0  0  0  0  0  0  0  0
    0.6830   -2.7920   -0.7940 H   0  0  0  0  0  0  0  0  0  0  0  0
    1.4330   -3.8760   -3.5760 H   0  0  0  0  0  0  0  0  0  0  0  0
   -0.2490   -3.9190   -2.9830 H   0  0  0  0  0  0  0  0  0  0  0  0
    0.3610   -2.1340   -4.7270 H   0  0  0  0  0  0  0  0  0  0  0  0
    1.5790   -1.5090   -3.6330 H   0  0  0  0  0  0  0  0  0  0  0  0
   -0.1350   -0.0310   -3.7950 H   0  0  0  0  0  0  0  0  0  0  0  0
   -0.4360   -0.9340   -0.9430 H   0  0  0  0  0  0  0  0  0  0  0  0
  1 11  1  0  0  0  0
  2  4  1  0  0  0  0
  2  1  1  0  0  0  0
  3  2  2  0  0  0  0
  4 13  1  0  0  0  0
  5 15  1  0  0  0  0
  5  4  1  0  0  0  0
  5 14  1  0  0  0  0
  6 16  1  6  0  0  0
  6  5  1  0  0  0  0
  7  6  1  0  0  0  0
  7 17  1  0  0  0  0
  8  6  1  0  0  0  0
  9  8  2  0  0  0  0
 10  1  1  0  0  0  0
 12  4  1  0  0  0  0
 18  7  1  0  0  0  0
 19 29  1  0  0  0  0
 19  8  1  0  0  0  0
 20 30  1  1  0  0  0
 20 21  1  0  0  0  0
 20 19  1  0  0  0  0
 21 22  1  0  0  0  0
 22 26  1  0  0  0  0
 22 23  2  0  0  0  0
 23 33  1  0  0  0  0
 23 24  1  0  0  0  0
 24 34  1  0  0  0  0
 25 24  1  0  0  0  0
 25 35  1  0  0  0  0
 26 25  2  0  0  0  0
 27 20  1  0  0  0  0
 28 27  2  0  0  0  0
 31 21  1  0  0  0  0
 32 21  1  0  0  0  0
 36 37  1  0  0  0  0
 36 49  1  0  0  0  0
 37 38  2  0  0  0  0
 38 50  1  0  0  0  0
 39 51  1  0  0  0  0
 39 37  1  0  0  0  0
 40 39  1  0  0  0  0
 40 53  1  0  0  0  0
 41 40  1  0  0  0  0
 42 43  1  0  0  0  0
 42 41  1  0  0  0  0
 43 58  1  6  0  0  0
 43 44  1  0  0  0  0
 44 27  1  0  0  0  0
 44 59  1  0  0  0  0
 45 43  1  0  0  0  0
 45 46  1  0  0  0  0
 47 45  2  0  0  0  0
 48 36  1  0  0  0  0
 52 40  1  0  0  0  0
 54 41  1  0  0  0  0
 55 41  1  0  0  0  0
 56 42  1  0  0  0  0
 57 42  1  0  0  0  0
M  END
$$$$
