QHV.pdb
 OpenBabel07022418323D

 52 52  0  0  1  0  0  0  0  0999 V2000
    4.6890   -3.0270    3.8240 N   0  0  0  0  0  0  0  0  0  0  0  0
    4.3920   -2.4470    2.5680 C   0  0  0  0  0  0  0  0  0  0  0  0
    4.4360   -3.1620    1.5460 O   0  0  0  0  0  0  0  0  0  0  0  0
    4.0380   -1.0260    2.4610 C   0  0  0  0  0  0  0  0  0  0  0  0
    3.6490   -0.5610    1.1030 C   0  0  0  0  0  0  0  0  0  0  0  0
    2.4450   -1.2360    0.5060 C   0  0  2  0  0  0  0  0  0  0  0  0
    2.2560   -0.6280   -0.8080 N   0  0  0  0  0  0  0  0  0  0  0  0
    1.2090   -1.0300    1.3390 C   0  0  0  0  0  0  0  0  0  0  0  0
    1.0830   -1.4940    2.4960 O   0  0  0  0  0  0  0  0  0  0  0  0
    5.4860   -2.6650    4.3650 H   0  0  0  0  0  0  0  0  0  0  0  0
    4.1000   -3.8070    4.1790 H   0  0  0  0  0  0  0  0  0  0  0  0
    4.9350   -0.4250    2.8040 H   0  0  0  0  0  0  0  0  0  0  0  0
    3.1890   -0.8410    3.1630 H   0  0  0  0  0  0  0  0  0  0  0  0
    4.5010   -0.7440    0.4120 H   0  0  0  0  0  0  0  0  0  0  0  0
    3.4140    0.5420    1.1080 H   0  0  0  0  0  0  0  0  0  0  0  0
    2.6200   -2.3040    0.4420 H   0  0  0  0  0  0  0  0  0  0  0  0
    1.7280   -1.3360   -1.3960 H   0  0  0  0  0  0  0  0  0  0  0  0
    3.2230   -0.6040   -1.2430 H   0  0  0  0  0  0  0  0  0  0  0  0
    0.1060   -0.2840    0.8440 N   0  0  0  0  0  0  0  0  0  0  0  0
   -1.0820   -0.0680    1.6050 C   0  0  1  0  0  0  0  0  0  0  0  0
   -1.2200    1.4290    1.8930 C   0  0  0  0  0  0  0  0  0  0  0  0
   -0.0550    1.9300    2.6610 C   0  0  0  0  0  0  0  0  0  0  0  0
    1.1030    2.4310    2.1100 C   0  0  0  0  0  0  0  0  0  0  0  0
    1.9540    2.7960    3.1100 N   0  0  0  0  0  0  0  0  0  0  0  0
    1.3220    2.5200    4.2700 C   0  0  0  0  0  0  0  0  0  0  0  0
    0.1140    1.9980    3.9910 N   0  0  0  0  0  0  0  0  0  0  0  0
   -2.3060   -0.5530    0.9610 C   0  0  0  0  0  0  0  0  0  0  0  0
   -3.4000   -0.4030    1.5630 O   0  0  0  0  0  0  0  0  0  0  0  0
    0.1830    0.1130   -0.1120 H   0  0  0  0  0  0  0  0  0  0  0  0
   -1.0260   -0.5500    2.6130 H   0  0  0  0  0  0  0  0  0  0  0  0
   -2.1270    1.6220    2.5100 H   0  0  0  0  0  0  0  0  0  0  0  0
   -1.3110    2.0120    0.9600 H   0  0  0  0  0  0  0  0  0  0  0  0
    1.2840    2.5130    1.0500 H   0  0  0  0  0  0  0  0  0  0  0  0
    2.9070    3.2080    3.0160 H   0  0  0  0  0  0  0  0  0  0  0  0
    1.7240    2.6900    5.2660 H   0  0  0  0  0  0  0  0  0  0  0  0
   -5.0910   -1.3130   -2.8630 C   0  0  0  0  0  0  0  0  0  0  0  0
   -3.8120   -0.8730   -2.1770 C   0  0  0  0  0  0  0  0  0  0  0  0
   -2.6940   -1.0460   -3.1750 C   0  0  0  0  0  0  0  0  0  0  0  0
   -3.5680   -1.6520   -0.9100 C   0  0  2  0  0  0  0  0  0  0  0  0
   -2.3440   -1.1890   -0.3110 N   0  0  0  0  0  0  0  0  0  0  0  0
   -3.5760   -3.0980   -1.1680 C   0  0  0  0  0  0  0  0  0  0  0  0
   -4.6020   -3.6020   -1.6910 O   0  0  0  0  0  0  0  0  0  0  0  0
   -2.5230   -3.9530   -0.8730 O   0  0  0  0  0  0  0  0  0  0  0  0
   -5.4900   -0.4300   -3.4160 H   0  0  0  0  0  0  0  0  0  0  0  0
   -4.8830   -2.0790   -3.6510 H   0  0  0  0  0  0  0  0  0  0  0  0
   -5.8590   -1.6530   -2.1660 H   0  0  0  0  0  0  0  0  0  0  0  0
   -3.8510    0.1960   -1.9120 H   0  0  0  0  0  0  0  0  0  0  0  0
   -2.6470   -2.1070   -3.5500 H   0  0  0  0  0  0  0  0  0  0  0  0
   -1.7190   -0.7350   -2.7720 H   0  0  0  0  0  0  0  0  0  0  0  0
   -2.9820   -0.4490   -4.0770 H   0  0  0  0  0  0  0  0  0  0  0  0
   -4.4390   -1.4360   -0.2380 H   0  0  0  0  0  0  0  0  0  0  0  0
   -1.4550   -1.3300   -0.8390 H   0  0  0  0  0  0  0  0  0  0  0  0
  1 11  1  0  0  0  0
  1 10  1  0  0  0  0
  2  1  1  0  0  0  0
  3  2  2  0  0  0  0
  4  2  1  0  0  0  0
  4 12  1  0  0  0  0
  4 13  1  0  0  0  0
  5 15  1  0  0  0  0
  5  4  1  0  0  0  0
  6 16  1  6  0  0  0
  6  5  1  0  0  0  0
  6  8  1  0  0  0  0
  7  6  1  0  0  0  0
  8  9  2  0  0  0  0
 14  5  1  0  0  0  0
 17  7  1  0  0  0  0
 18  7  1  0  0  0  0
 19  8  1  0  0  0  0
 19 20  1  0  0  0  0
 20 21  1  0  0  0  0
 20 30  1  1  0  0  0
 21 31  1  0  0  0  0
 21 22  1  0  0  0  0
 22 26  1  0  0  0  0
 23 22  2  0  0  0  0
 23 24  1  0  0  0  0
 24 25  1  0  0  0  0
 25 35  1  0  0  0  0
 26 25  2  0  0  0  0
 27 28  2  0  0  0  0
 27 20  1  0  0  0  0
 29 19  1  0  0  0  0
 32 21  1  0  0  0  0
 33 23  1  0  0  0  0
 34 24  1  0  0  0  0
 36 37  1  0  0  0  0
 36 46  1  0  0  0  0
 37 47  1  0  0  0  0
 37 39  1  0  0  0  0
 38 49  1  0  0  0  0
 38 37  1  0  0  0  0
 39 40  1  0  0  0  0
 39 51  1  1  0  0  0
 40 27  1  0  0  0  0
 41 39  1  0  0  0  0
 41 43  1  0  0  0  0
 42 41  2  0  0  0  0
 44 36  1  0  0  0  0
 45 36  1  0  0  0  0
 48 38  1  0  0  0  0
 50 38  1  0  0  0  0
 52 40  1  0  0  0  0
M  END
$$$$
