QHW.pdb
 OpenBabel07022418323D

 60 62  0  0  1  0  0  0  0  0999 V2000
    3.3330    1.0700    6.5360 N   0  0  0  0  0  0  0  0  0  0  0  0
    3.8340    0.3270    5.4370 C   0  0  0  0  0  0  0  0  0  0  0  0
    4.4750   -0.7250    5.6800 O   0  0  0  0  0  0  0  0  0  0  0  0
    3.5710    0.8390    4.0700 C   0  0  0  0  0  0  0  0  0  0  0  0
    4.1470   -0.0420    3.0110 C   0  0  0  0  0  0  0  0  0  0  0  0
    3.9270    0.4040    1.6120 C   0  0  2  0  0  0  0  0  0  0  0  0
    4.4750    1.7060    1.3140 N   0  0  0  0  0  0  0  0  0  0  0  0
    2.5470    0.2530    1.1000 C   0  0  0  0  0  0  0  0  0  0  0  0
    2.0400    1.2290    0.4720 O   0  0  0  0  0  0  0  0  0  0  0  0
    3.3120    2.1200    6.4880 H   0  0  0  0  0  0  0  0  0  0  0  0
    2.9790    0.6170    7.4040 H   0  0  0  0  0  0  0  0  0  0  0  0
    2.4790    0.9130    3.9510 H   0  0  0  0  0  0  0  0  0  0  0  0
    3.9730    1.8730    4.0450 H   0  0  0  0  0  0  0  0  0  0  0  0
    3.7720   -1.0790    3.1270 H   0  0  0  0  0  0  0  0  0  0  0  0
    5.2520   -0.1210    3.2330 H   0  0  0  0  0  0  0  0  0  0  0  0
    4.5420   -0.3060    0.9620 H   0  0  0  0  0  0  0  0  0  0  0  0
    5.5040    1.6470    1.2810 H   0  0  0  0  0  0  0  0  0  0  0  0
    4.0940    2.4670    1.8970 H   0  0  0  0  0  0  0  0  0  0  0  0
    1.7820   -0.9300    1.2810 N   0  0  0  0  0  0  0  0  0  0  0  0
    0.4620   -1.1820    0.8060 C   0  0  1  0  0  0  0  0  0  0  0  0
   -0.6530   -0.8130    1.7090 C   0  0  0  0  0  0  0  0  0  0  0  0
   -0.7490    0.5910    2.0970 C   0  0  0  0  0  0  0  0  0  0  0  0
   -1.4190    1.6300    1.5050 C   0  0  0  0  0  0  0  0  0  0  0  0
   -1.2090    2.7400    2.2410 N   0  0  0  0  0  0  0  0  0  0  0  0
   -0.4320    2.4230    3.2670 C   0  0  0  0  0  0  0  0  0  0  0  0
   -0.1580    1.1280    3.1770 N   0  0  0  0  0  0  0  0  0  0  0  0
    0.2490   -0.8230   -0.6270 C   0  0  0  0  0  0  0  0  0  0  0  0
    1.2160   -0.3730   -1.2760 O   0  0  0  0  0  0  0  0  0  0  0  0
    2.3120   -1.6760    1.8470 H   0  0  0  0  0  0  0  0  0  0  0  0
    0.4140   -2.3430    0.7410 H   0  0  0  0  0  0  0  0  0  0  0  0
   -1.6130   -1.0820    1.1840 H   0  0  0  0  0  0  0  0  0  0  0  0
   -0.6170   -1.5050    2.5840 H   0  0  0  0  0  0  0  0  0  0  0  0
   -2.0190    1.5970    0.6080 H   0  0  0  0  0  0  0  0  0  0  0  0
   -1.5880    3.7010    2.0470 H   0  0  0  0  0  0  0  0  0  0  0  0
   -0.0540    3.0630    4.0720 H   0  0  0  0  0  0  0  0  0  0  0  0
   -0.9500   -0.9460   -1.3340 N   0  0  0  0  0  0  0  0  0  0  0  0
   -1.1590   -0.6180   -2.6920 C   0  0  1  0  0  0  0  0  0  0  0  0
   -1.4290   -1.6950   -3.6580 C   0  0  0  0  0  0  0  0  0  0  0  0
   -2.6190   -2.5330   -3.4250 C   0  0  0  0  0  0  0  0  0  0  0  0
   -3.8650   -2.4810   -4.0220 C   0  0  0  0  0  0  0  0  0  0  0  0
   -4.6540   -3.4270   -3.4930 N   0  0  0  0  0  0  0  0  0  0  0  0
   -3.9770   -4.1150   -2.5570 C   0  0  0  0  0  0  0  0  0  0  0  0
   -4.3190   -5.1640   -1.7400 C   0  0  0  0  0  0  0  0  0  0  0  0
   -3.4250   -5.7140   -0.8430 C   0  0  0  0  0  0  0  0  0  0  0  0
   -2.1680   -5.1380   -0.8240 C   0  0  0  0  0  0  0  0  0  0  0  0
   -1.8100   -4.0890   -1.6340 C   0  0  0  0  0  0  0  0  0  0  0  0
   -2.7160   -3.5620   -2.5150 C   0  0  0  0  0  0  0  0  0  0  0  0
   -2.1370    0.4740   -2.9450 C   0  0  0  0  0  0  0  0  0  0  0  0
   -2.3960    0.8680   -4.1240 O   0  0  0  0  0  0  0  0  0  0  0  0
   -2.8260    1.1310   -1.9400 O   0  0  0  0  0  0  0  0  0  0  0  0
   -1.7980   -1.3230   -0.8100 H   0  0  0  0  0  0  0  0  0  0  0  0
   -0.1730   -0.1410   -3.0050 H   0  0  0  0  0  0  0  0  0  0  0  0
   -0.5240   -2.3200   -3.9230 H   0  0  0  0  0  0  0  0  0  0  0  0
   -1.6200   -1.1920   -4.6520 H   0  0  0  0  0  0  0  0  0  0  0  0
   -4.1870   -1.8010   -4.7940 H   0  0  0  0  0  0  0  0  0  0  0  0
   -5.6580   -3.6420   -3.7360 H   0  0  0  0  0  0  0  0  0  0  0  0
   -5.3150   -5.6150   -1.7600 H   0  0  0  0  0  0  0  0  0  0  0  0
   -3.6840   -6.5490   -0.1880 H   0  0  0  0  0  0  0  0  0  0  0  0
   -1.4250   -5.5420   -0.1270 H   0  0  0  0  0  0  0  0  0  0  0  0
   -0.8330   -3.7060   -1.5650 H   0  0  0  0  0  0  0  0  0  0  0  0
  1 11  1  0  0  0  0
  2  3  2  0  0  0  0
  2  1  1  0  0  0  0
  4  2  1  0  0  0  0
  5 14  1  0  0  0  0
  5 15  1  0  0  0  0
  5  4  1  0  0  0  0
  6 16  1  6  0  0  0
  6  5  1  0  0  0  0
  7  6  1  0  0  0  0
  7 18  1  0  0  0  0
  8 19  1  0  0  0  0
  8  6  1  0  0  0  0
  9  8  2  0  0  0  0
 10  1  1  0  0  0  0
 12  4  1  0  0  0  0
 13  4  1  0  0  0  0
 17  7  1  0  0  0  0
 19 29  1  0  0  0  0
 20 30  1  6  0  0  0
 20 19  1  0  0  0  0
 20 21  1  0  0  0  0
 21 22  1  0  0  0  0
 21 32  1  0  0  0  0
 22 26  1  0  0  0  0
 23 22  2  0  0  0  0
 23 24  1  0  0  0  0
 24 25  1  0  0  0  0
 25 35  1  0  0  0  0
 26 25  2  0  0  0  0
 27 20  1  0  0  0  0
 28 27  2  0  0  0  0
 31 21  1  0  0  0  0
 33 23  1  0  0  0  0
 34 24  1  0  0  0  0
 36 51  1  0  0  0  0
 36 27  1  0  0  0  0
 37 52  1  6  0  0  0
 37 36  1  0  0  0  0
 38 39  1  0  0  0  0
 38 37  1  0  0  0  0
 39 47  1  0  0  0  0
 40 41  1  0  0  0  0
 40 39  2  0  0  0  0
 41 42  1  0  0  0  0
 42 47  2  0  0  0  0
 42 43  1  0  0  0  0
 43 44  2  0  0  0  0
 44 45  1  0  0  0  0
 44 58  1  0  0  0  0
 45 59  1  0  0  0  0
 46 60  1  0  0  0  0
 46 45  2  0  0  0  0
 47 46  1  0  0  0  0
 48 37  1  0  0  0  0
 48 50  1  0  0  0  0
 49 48  2  0  0  0  0
 53 38  1  0  0  0  0
 54 38  1  0  0  0  0
 55 40  1  0  0  0  0
 56 41  1  0  0  0  0
 57 43  1  0  0  0  0
M  END
$$$$
