QIE.pdb
 OpenBabel07022418323D

 54 53  0  0  1  0  0  0  0  0999 V2000
    0.9990   -4.3220    4.0860 N   0  0  0  0  0  0  0  0  0  0  0  0
    1.8680   -3.5520    3.2750 C   0  0  0  0  0  0  0  0  0  0  0  0
    2.8790   -4.1200    2.7910 O   0  0  0  0  0  0  0  0  0  0  0  0
    1.5880   -2.1090    3.0040 C   0  0  0  0  0  0  0  0  0  0  0  0
    2.6340   -1.5000    2.1290 C   0  0  0  0  0  0  0  0  0  0  0  0
    2.3230   -0.0620    1.8780 C   0  0  2  0  0  0  0  0  0  0  0  0
    2.2720    0.6250    3.1420 N   0  0  0  0  0  0  0  0  0  0  0  0
    1.1830    0.1860    0.9890 C   0  0  0  0  0  0  0  0  0  0  0  0
    1.1720   -0.3540   -0.1260 O   0  0  0  0  0  0  0  0  0  0  0  0
    1.2610   -4.7450    4.9990 H   0  0  0  0  0  0  0  0  0  0  0  0
    0.0160   -4.4910    3.7620 H   0  0  0  0  0  0  0  0  0  0  0  0
    0.5750   -1.9940    2.5900 H   0  0  0  0  0  0  0  0  0  0  0  0
    1.5610   -1.6090    4.0010 H   0  0  0  0  0  0  0  0  0  0  0  0
    3.6140   -1.5310    2.6700 H   0  0  0  0  0  0  0  0  0  0  0  0
    2.7940   -2.0800    1.1990 H   0  0  0  0  0  0  0  0  0  0  0  0
    3.2230    0.3840    1.3320 H   0  0  0  0  0  0  0  0  0  0  0  0
    2.5420    1.6170    2.9800 H   0  0  0  0  0  0  0  0  0  0  0  0
    2.9910    0.2030    3.7710 H   0  0  0  0  0  0  0  0  0  0  0  0
    1.3020    3.0060   -0.6100 C   0  0  0  0  0  0  0  0  0  0  0  0
   -0.0380    2.7900   -1.2850 C   0  0  0  0  0  0  0  0  0  0  0  0
   -1.0980    2.5570   -0.2580 C   0  0  2  0  0  0  0  0  0  0  0  0
   -1.2190    3.7410    0.6800 C   0  0  0  0  0  0  0  0  0  0  0  0
   -1.0610    1.3060    0.5170 C   0  0  2  0  0  0  0  0  0  0  0  0
    0.0660    1.0190    1.3140 N   0  0  0  0  0  0  0  0  0  0  0  0
   -1.8270    0.1840   -0.0740 C   0  0  0  0  0  0  0  0  0  0  0  0
   -2.7530    0.4200   -0.9390 O   0  0  0  0  0  0  0  0  0  0  0  0
    2.0100    2.2020   -0.9160 H   0  0  0  0  0  0  0  0  0  0  0  0
    1.2310    3.0380    0.4890 H   0  0  0  0  0  0  0  0  0  0  0  0
    1.8010    3.9540   -0.9090 H   0  0  0  0  0  0  0  0  0  0  0  0
   -0.2210    3.7400   -1.8380 H   0  0  0  0  0  0  0  0  0  0  0  0
    0.0040    2.0250   -2.0740 H   0  0  0  0  0  0  0  0  0  0  0  0
   -2.0690    2.5620   -0.8310 H   0  0  0  0  0  0  0  0  0  0  0  0
   -1.0030    4.7010    0.1890 H   0  0  0  0  0  0  0  0  0  0  0  0
   -2.2860    3.8130    1.0400 H   0  0  0  0  0  0  0  0  0  0  0  0
   -0.6080    3.6190    1.5930 H   0  0  0  0  0  0  0  0  0  0  0  0
   -1.8380    1.5640    1.3590 H   0  0  0  0  0  0  0  0  0  0  0  0
    0.2090    1.4280    2.3080 H   0  0  0  0  0  0  0  0  0  0  0  0
   -1.6620   -1.1820    0.2100 N   0  0  0  0  0  0  0  0  0  0  0  0
   -2.4580   -2.2260   -0.4160 C   0  0  1  0  0  0  0  0  0  0  0  0
   -1.6430   -3.1510   -1.2890 C   0  0  0  0  0  0  0  0  0  0  0  0
   -0.9990   -2.3570   -2.3880 C   0  0  0  0  0  0  0  0  0  0  0  0
   -0.1770   -3.2000   -3.2880 C   0  0  0  0  0  0  0  0  0  0  0  0
    0.4080   -2.6320   -4.2450 O   0  0  0  0  0  0  0  0  0  0  0  0
   -3.1680   -2.9580    0.6570 C   0  0  0  0  0  0  0  0  0  0  0  0
   -3.0220   -2.6360    1.8570 O   0  0  0  0  0  0  0  0  0  0  0  0
   -0.0260   -4.5560   -3.1290 O   0  0  0  0  0  0  0  0  0  0  0  0
   -4.0160   -4.0220    0.3840 O   0  0  0  0  0  0  0  0  0  0  0  0
   -0.9680   -1.4700    0.8990 H   0  0  0  0  0  0  0  0  0  0  0  0
   -3.2140   -1.7650   -1.0980 H   0  0  0  0  0  0  0  0  0  0  0  0
   -2.3190   -3.8990   -1.7330 H   0  0  0  0  0  0  0  0  0  0  0  0
   -0.8790   -3.7090   -0.6870 H   0  0  0  0  0  0  0  0  0  0  0  0
   -0.4280   -1.5090   -2.0090 H   0  0  0  0  0  0  0  0  0  0  0  0
   -1.8370   -1.9650   -3.0270 H   0  0  0  0  0  0  0  0  0  0  0  0
    0.3930   -5.1290   -3.8460 H   0  0  0  0  0  0  0  0  0  0  0  0
  1 10  1  0  0  0  0
  2  1  1  0  0  0  0
  3  2  2  0  0  0  0
  4  2  1  0  0  0  0
  4 13  1  0  0  0  0
  5 14  1  0  0  0  0
  5  4  1  0  0  0  0
  6 16  1  6  0  0  0
  6  5  1  0  0  0  0
  6  7  1  0  0  0  0
  7 18  1  0  0  0  0
  8 24  1  0  0  0  0
  8  6  1  0  0  0  0
  9  8  2  0  0  0  0
 11  1  1  0  0  0  0
 12  4  1  0  0  0  0
 15  5  1  0  0  0  0
 17  7  1  0  0  0  0
 19 28  1  0  0  0  0
 20 19  1  0  0  0  0
 20 21  1  0  0  0  0
 21 32  1  6  0  0  0
 21 23  1  0  0  0  0
 21 22  1  0  0  0  0
 22 34  1  0  0  0  0
 22 35  1  0  0  0  0
 23 24  1  0  0  0  0
 23 36  1  1  0  0  0
 24 37  1  0  0  0  0
 25 38  1  0  0  0  0
 25 23  1  0  0  0  0
 26 25  2  0  0  0  0
 27 19  1  0  0  0  0
 29 19  1  0  0  0  0
 30 20  1  0  0  0  0
 31 20  1  0  0  0  0
 33 22  1  0  0  0  0
 38 48  1  0  0  0  0
 39 49  1  6  0  0  0
 39 38  1  0  0  0  0
 39 44  1  0  0  0  0
 40 51  1  0  0  0  0
 40 39  1  0  0  0  0
 41 52  1  0  0  0  0
 41 40  1  0  0  0  0
 42 46  1  0  0  0  0
 42 41  1  0  0  0  0
 43 42  2  0  0  0  0
 44 45  1  0  0  0  0
 47 44  2  0  0  0  0
 50 40  1  0  0  0  0
 53 41  1  0  0  0  0
 54 46  1  0  0  0  0
M  END
$$$$
