QIF.pdb
 OpenBabel07022418323D

 58 58  0  0  1  0  0  0  0  0999 V2000
    1.5990   -3.8610    3.8550 N   0  0  0  0  0  0  0  0  0  0  0  0
    2.3060   -3.1220    2.8800 C   0  0  0  0  0  0  0  0  0  0  0  0
    3.5100   -2.8770    3.1280 O   0  0  0  0  0  0  0  0  0  0  0  0
    1.6840   -2.6640    1.6470 C   0  0  0  0  0  0  0  0  0  0  0  0
    2.4330   -1.7190    0.7960 C   0  0  0  0  0  0  0  0  0  0  0  0
    2.7830   -0.3940    1.3470 C   0  0  2  0  0  0  0  0  0  0  0  0
    3.5970   -0.3600    2.5150 N   0  0  0  0  0  0  0  0  0  0  0  0
    1.6290    0.5150    1.5230 C   0  0  0  0  0  0  0  0  0  0  0  0
    1.5160    1.1400    2.6070 O   0  0  0  0  0  0  0  0  0  0  0  0
    0.8280   -3.4190    4.3780 H   0  0  0  0  0  0  0  0  0  0  0  0
    1.8470   -4.8420    4.0510 H   0  0  0  0  0  0  0  0  0  0  0  0
    1.4010   -3.5380    0.9810 H   0  0  0  0  0  0  0  0  0  0  0  0
    0.6660   -2.2570    1.9340 H   0  0  0  0  0  0  0  0  0  0  0  0
    1.8260   -1.5370   -0.1390 H   0  0  0  0  0  0  0  0  0  0  0  0
    3.3630   -2.2140    0.3820 H   0  0  0  0  0  0  0  0  0  0  0  0
    3.4140    0.1140    0.5410 H   0  0  0  0  0  0  0  0  0  0  0  0
    4.6110   -0.5080    2.2630 H   0  0  0  0  0  0  0  0  0  0  0  0
    3.5460    0.6020    2.9190 H   0  0  0  0  0  0  0  0  0  0  0  0
    1.9840    3.0400   -0.4940 C   0  0  0  0  0  0  0  0  0  0  0  0
    0.6640    3.6650   -0.2630 C   0  0  0  0  0  0  0  0  0  0  0  0
   -0.5010    2.7360   -0.2880 C   0  0  2  0  0  0  0  0  0  0  0  0
   -1.7790    3.5760   -0.0520 C   0  0  0  0  0  0  0  0  0  0  0  0
   -0.4770    1.6090    0.6920 C   0  0  2  0  0  0  0  0  0  0  0  0
    0.6330    0.7250    0.5260 N   0  0  0  0  0  0  0  0  0  0  0  0
   -1.7720    0.8760    0.6130 C   0  0  0  0  0  0  0  0  0  0  0  0
   -2.8720    1.4400    0.7560 O   0  0  0  0  0  0  0  0  0  0  0  0
    2.5780    2.9670    0.4630 H   0  0  0  0  0  0  0  0  0  0  0  0
    1.9130    2.0660   -0.9640 H   0  0  0  0  0  0  0  0  0  0  0  0
    2.6190    3.7490   -1.1080 H   0  0  0  0  0  0  0  0  0  0  0  0
    0.4970    4.4100   -1.1010 H   0  0  0  0  0  0  0  0  0  0  0  0
    0.6960    4.2470    0.6950 H   0  0  0  0  0  0  0  0  0  0  0  0
   -0.5990    2.3260   -1.3060 H   0  0  0  0  0  0  0  0  0  0  0  0
   -2.6150    3.2190   -0.6600 H   0  0  0  0  0  0  0  0  0  0  0  0
   -2.0500    3.5650    1.0030 H   0  0  0  0  0  0  0  0  0  0  0  0
   -1.5350    4.6420   -0.3010 H   0  0  0  0  0  0  0  0  0  0  0  0
   -0.4270    2.0000    1.7390 H   0  0  0  0  0  0  0  0  0  0  0  0
    0.7350    0.1780   -0.3580 H   0  0  0  0  0  0  0  0  0  0  0  0
   -1.7540   -0.5320    0.3620 N   0  0  0  0  0  0  0  0  0  0  0  0
   -2.9810   -1.2970    0.2700 C   0  0  1  0  0  0  0  0  0  0  0  0
   -3.0600   -1.9770   -1.0720 C   0  0  0  0  0  0  0  0  0  0  0  0
   -1.8900   -2.8860   -1.2400 C   0  0  0  0  0  0  0  0  0  0  0  0
   -0.7200   -2.4160   -1.7900 C   0  0  0  0  0  0  0  0  0  0  0  0
    0.3510   -3.2420   -1.9540 C   0  0  0  0  0  0  0  0  0  0  0  0
    0.3000   -4.5720   -1.5750 C   0  0  0  0  0  0  0  0  0  0  0  0
   -0.8480   -5.0510   -1.0310 C   0  0  0  0  0  0  0  0  0  0  0  0
   -1.9310   -4.2230   -0.8640 C   0  0  0  0  0  0  0  0  0  0  0  0
   -3.0090   -2.3090    1.3450 C   0  0  0  0  0  0  0  0  0  0  0  0
   -2.0500   -2.4100    2.1270 O   0  0  0  0  0  0  0  0  0  0  0  0
   -4.0960   -3.1710    1.5170 O   0  0  0  0  0  0  0  0  0  0  0  0
   -0.8540   -1.0270    0.2440 H   0  0  0  0  0  0  0  0  0  0  0  0
   -3.8640   -0.6120    0.4090 H   0  0  0  0  0  0  0  0  0  0  0  0
   -4.0090   -2.5420   -1.1150 H   0  0  0  0  0  0  0  0  0  0  0  0
   -3.0410   -1.1790   -1.8430 H   0  0  0  0  0  0  0  0  0  0  0  0
   -0.6210   -1.3810   -2.1080 H   0  0  0  0  0  0  0  0  0  0  0  0
    1.2710   -2.8440   -2.3930 H   0  0  0  0  0  0  0  0  0  0  0  0
    1.1990   -5.1730   -1.7360 H   0  0  0  0  0  0  0  0  0  0  0  0
   -0.9250   -6.0740   -0.7260 H   0  0  0  0  0  0  0  0  0  0  0  0
   -2.8560   -4.5910   -0.4360 H   0  0  0  0  0  0  0  0  0  0  0  0
  1 11  1  0  0  0  0
  1 10  1  0  0  0  0
  2  3  2  0  0  0  0
  2  1  1  0  0  0  0
  4 13  1  0  0  0  0
  4  2  1  0  0  0  0
  5  6  1  0  0  0  0
  5  4  1  0  0  0  0
  6 16  1  6  0  0  0
  6  8  1  0  0  0  0
  6  7  1  0  0  0  0
  7 18  1  0  0  0  0
  8  9  2  0  0  0  0
 12  4  1  0  0  0  0
 14  5  1  0  0  0  0
 15  5  1  0  0  0  0
 17  7  1  0  0  0  0
 19 20  1  0  0  0  0
 19 27  1  0  0  0  0
 20 31  1  0  0  0  0
 21 32  1  6  0  0  0
 21 20  1  0  0  0  0
 21 22  1  0  0  0  0
 21 23  1  0  0  0  0
 22 34  1  0  0  0  0
 23 36  1  1  0  0  0
 24 23  1  0  0  0  0
 24  8  1  0  0  0  0
 25 23  1  0  0  0  0
 25 26  2  0  0  0  0
 28 19  1  0  0  0  0
 29 19  1  0  0  0  0
 30 20  1  0  0  0  0
 33 22  1  0  0  0  0
 35 22  1  0  0  0  0
 37 24  1  0  0  0  0
 38 25  1  0  0  0  0
 39 38  1  0  0  0  0
 39 51  1  1  0  0  0
 39 47  1  0  0  0  0
 40 39  1  0  0  0  0
 41 40  1  0  0  0  0
 41 46  1  0  0  0  0
 42 41  2  0  0  0  0
 43 42  1  0  0  0  0
 43 44  2  0  0  0  0
 44 45  1  0  0  0  0
 45 46  2  0  0  0  0
 45 57  1  0  0  0  0
 46 58  1  0  0  0  0
 47 49  2  0  0  0  0
 47 48  1  0  0  0  0
 50 38  1  0  0  0  0
 52 40  1  0  0  0  0
 53 40  1  0  0  0  0
 54 42  1  0  0  0  0
 55 43  1  0  0  0  0
 56 44  1  0  0  0  0
M  END
$$$$
