QIH.pdb
 OpenBabel07022418323D

 55 55  0  0  1  0  0  0  0  0999 V2000
    5.1110    1.1360    2.4120 N   0  0  0  0  0  0  0  0  0  0  0  0
    3.7220    1.4290    2.6830 C   0  0  0  0  0  0  0  0  0  0  0  0
    3.2270    0.7210    3.5800 O   0  0  0  0  0  0  0  0  0  0  0  0
    2.9970    2.4720    1.9500 C   0  0  0  0  0  0  0  0  0  0  0  0
    1.5670    2.6540    2.2210 C   0  0  0  0  0  0  0  0  0  0  0  0
    0.6160    1.5550    1.9510 C   0  0  2  0  0  0  0  0  0  0  0  0
    0.8080    0.3320    2.6620 N   0  0  0  0  0  0  0  0  0  0  0  0
    0.3730    1.3390    0.4940 C   0  0  0  0  0  0  0  0  0  0  0  0
    0.1650    2.2820   -0.3090 O   0  0  0  0  0  0  0  0  0  0  0  0
    5.2860    0.2680    1.8630 H   0  0  0  0  0  0  0  0  0  0  0  0
    5.8810    1.7300    2.7290 H   0  0  0  0  0  0  0  0  0  0  0  0
    3.4860    3.4800    2.1720 H   0  0  0  0  0  0  0  0  0  0  0  0
    3.2420    2.3500    0.8600 H   0  0  0  0  0  0  0  0  0  0  0  0
    1.4580    2.9090    3.3150 H   0  0  0  0  0  0  0  0  0  0  0  0
    1.2030    3.5510    1.6660 H   0  0  0  0  0  0  0  0  0  0  0  0
   -0.3940    1.9440    2.3200 H   0  0  0  0  0  0  0  0  0  0  0  0
    0.5540    0.5460    3.6800 H   0  0  0  0  0  0  0  0  0  0  0  0
    0.0210   -0.3210    2.3810 H   0  0  0  0  0  0  0  0  0  0  0  0
    2.0350   -1.9280   -4.2360 C   0  0  0  0  0  0  0  0  0  0  0  0
    0.8370   -1.2350   -3.5550 C   0  0  0  0  0  0  0  0  0  0  0  0
    1.1590   -1.0500   -2.0910 C   0  0  2  0  0  0  0  0  0  0  0  0
    1.3750   -2.4300   -1.5130 C   0  0  0  0  0  0  0  0  0  0  0  0
    0.1370   -0.2310   -1.4390 C   0  0  2  0  0  0  0  0  0  0  0  0
    0.3720    0.0220   -0.0240 N   0  0  0  0  0  0  0  0  0  0  0  0
   -1.1910   -0.8800   -1.5050 C   0  0  0  0  0  0  0  0  0  0  0  0
   -1.7950   -1.2290   -2.5440 O   0  0  0  0  0  0  0  0  0  0  0  0
    2.0770   -2.9820   -3.9410 H   0  0  0  0  0  0  0  0  0  0  0  0
    2.9780   -1.4310   -3.9470 H   0  0  0  0  0  0  0  0  0  0  0  0
    1.8920   -1.8360   -5.3370 H   0  0  0  0  0  0  0  0  0  0  0  0
    0.7320   -0.2240   -4.0030 H   0  0  0  0  0  0  0  0  0  0  0  0
   -0.0720   -1.8110   -3.7580 H   0  0  0  0  0  0  0  0  0  0  0  0
    2.1840   -0.5910   -2.1010 H   0  0  0  0  0  0  0  0  0  0  0  0
    2.4500   -2.7670   -1.6080 H   0  0  0  0  0  0  0  0  0  0  0  0
    0.8040   -3.2070   -2.0930 H   0  0  0  0  0  0  0  0  0  0  0  0
    1.1240   -2.5320   -0.4570 H   0  0  0  0  0  0  0  0  0  0  0  0
    0.0190    0.7530   -1.9400 H   0  0  0  0  0  0  0  0  0  0  0  0
    0.5350   -0.8480    0.5290 H   0  0  0  0  0  0  0  0  0  0  0  0
   -1.9230   -1.1720   -0.2890 N   0  0  0  0  0  0  0  0  0  0  0  0
   -3.2160   -1.8040   -0.2760 C   0  0  1  0  0  0  0  0  0  0  0  0
   -3.2980   -3.0590    0.5280 C   0  0  0  0  0  0  0  0  0  0  0  0
   -2.9710   -2.8380    1.9640 C   0  0  0  0  0  0  0  0  0  0  0  0
   -2.9960   -3.8220    2.9280 C   0  0  0  0  0  0  0  0  0  0  0  0
   -2.6560   -3.2230    4.0810 N   0  0  0  0  0  0  0  0  0  0  0  0
   -2.4240   -1.9220    3.8600 C   0  0  0  0  0  0  0  0  0  0  0  0
   -2.6220   -1.7050    2.5580 N   0  0  0  0  0  0  0  0  0  0  0  0
   -4.3070   -0.9100    0.1120 C   0  0  0  0  0  0  0  0  0  0  0  0
   -4.1550    0.2960    0.4090 O   0  0  0  0  0  0  0  0  0  0  0  0
   -5.5900   -1.4250    0.1540 O   0  0  0  0  0  0  0  0  0  0  0  0
   -1.5060   -0.9170    0.6300 H   0  0  0  0  0  0  0  0  0  0  0  0
   -3.4300   -2.0840   -1.3510 H   0  0  0  0  0  0  0  0  0  0  0  0
   -4.3350   -3.4360    0.4560 H   0  0  0  0  0  0  0  0  0  0  0  0
   -2.6450   -3.8690    0.1510 H   0  0  0  0  0  0  0  0  0  0  0  0
   -3.2460   -4.8510    2.7490 H   0  0  0  0  0  0  0  0  0  0  0  0
   -2.5890   -3.7260    5.0020 H   0  0  0  0  0  0  0  0  0  0  0  0
   -2.1280   -1.1910    4.6210 H   0  0  0  0  0  0  0  0  0  0  0  0
  1  2  1  0  0  0  0
  1 11  1  0  0  0  0
  2  3  2  0  0  0  0
  4 12  1  0  0  0  0
  4  5  1  0  0  0  0
  4  2  1  0  0  0  0
  5 14  1  0  0  0  0
  6  5  1  0  0  0  0
  6 16  1  1  0  0  0
  6  7  1  0  0  0  0
  7 17  1  0  0  0  0
  8  6  1  0  0  0  0
  9  8  2  0  0  0  0
 10  1  1  0  0  0  0
 13  4  1  0  0  0  0
 15  5  1  0  0  0  0
 18  7  1  0  0  0  0
 19 28  1  0  0  0  0
 19 27  1  0  0  0  0
 19 20  1  0  0  0  0
 20 21  1  0  0  0  0
 21 32  1  1  0  0  0
 21 22  1  0  0  0  0
 21 23  1  0  0  0  0
 22 35  1  0  0  0  0
 23 36  1  6  0  0  0
 23 24  1  0  0  0  0
 24  8  1  0  0  0  0
 24 37  1  0  0  0  0
 25 23  1  0  0  0  0
 25 38  1  0  0  0  0
 26 25  2  0  0  0  0
 29 19  1  0  0  0  0
 30 20  1  0  0  0  0
 31 20  1  0  0  0  0
 33 22  1  0  0  0  0
 34 22  1  0  0  0  0
 38 39  1  0  0  0  0
 38 49  1  0  0  0  0
 39 50  1  6  0  0  0
 39 46  1  0  0  0  0
 39 40  1  0  0  0  0
 40 41  1  0  0  0  0
 41 45  1  0  0  0  0
 41 42  2  0  0  0  0
 42 43  1  0  0  0  0
 43 54  1  0  0  0  0
 44 43  1  0  0  0  0
 44 55  1  0  0  0  0
 45 44  2  0  0  0  0
 46 48  2  0  0  0  0
 46 47  1  0  0  0  0
 51 40  1  0  0  0  0
 52 40  1  0  0  0  0
 53 42  1  0  0  0  0
M  END
$$$$
