QIL.pdb
 OpenBabel07022418323D

 57 56  0  0  1  0  0  0  0  0999 V2000
   -2.0110   -0.7200    7.7180 N   0  0  0  0  0  0  0  0  0  0  0  0
   -1.8320   -0.2090    6.3850 C   0  0  0  0  0  0  0  0  0  0  0  0
   -2.8220   -0.3200    5.6200 O   0  0  0  0  0  0  0  0  0  0  0  0
   -0.5430    0.4030    5.9890 C   0  0  0  0  0  0  0  0  0  0  0  0
   -0.4450    0.7970    4.5600 C   0  0  0  0  0  0  0  0  0  0  0  0
   -0.5930   -0.3690    3.6080 C   0  0  2  0  0  0  0  0  0  0  0  0
    0.4290   -1.3690    3.8300 N   0  0  0  0  0  0  0  0  0  0  0  0
   -0.5620    0.0950    2.1880 C   0  0  0  0  0  0  0  0  0  0  0  0
   -1.3600    0.9660    1.7530 O   0  0  0  0  0  0  0  0  0  0  0  0
   -2.0270   -1.7330    7.8990 H   0  0  0  0  0  0  0  0  0  0  0  0
   -2.1230   -0.0470    8.4820 H   0  0  0  0  0  0  0  0  0  0  0  0
    0.2560   -0.3290    6.2770 H   0  0  0  0  0  0  0  0  0  0  0  0
   -0.3860    1.2630    6.6870 H   0  0  0  0  0  0  0  0  0  0  0  0
    0.5930    1.1910    4.3940 H   0  0  0  0  0  0  0  0  0  0  0  0
   -1.1290    1.6240    4.3110 H   0  0  0  0  0  0  0  0  0  0  0  0
   -1.5930   -0.8040    3.7490 H   0  0  0  0  0  0  0  0  0  0  0  0
    1.3520   -0.9420    3.6530 H   0  0  0  0  0  0  0  0  0  0  0  0
    0.2180   -2.1800    3.2160 H   0  0  0  0  0  0  0  0  0  0  0  0
    3.5450    2.2060    0.3270 C   0  0  0  0  0  0  0  0  0  0  0  0
    2.1810    1.6300    0.6040 C   0  0  0  0  0  0  0  0  0  0  0  0
    1.8900    0.4780   -0.3580 C   0  0  2  0  0  0  0  0  0  0  0  0
    1.9580    1.0960   -1.7370 C   0  0  0  0  0  0  0  0  0  0  0  0
    0.4560   -0.0270   -0.1120 C   0  0  2  0  0  0  0  0  0  0  0  0
    0.3920   -0.4610    1.3060 N   0  0  0  0  0  0  0  0  0  0  0  0
    0.3020   -1.2590   -0.9180 C   0  0  0  0  0  0  0  0  0  0  0  0
    0.3200   -2.3700   -0.2790 O   0  0  0  0  0  0  0  0  0  0  0  0
    3.4910    3.1820   -0.2200 H   0  0  0  0  0  0  0  0  0  0  0  0
    4.1260    2.3830    1.2750 H   0  0  0  0  0  0  0  0  0  0  0  0
    4.1810    1.5460   -0.2920 H   0  0  0  0  0  0  0  0  0  0  0  0
    2.1870    1.2230    1.6390 H   0  0  0  0  0  0  0  0  0  0  0  0
    1.4340    2.4290    0.4520 H   0  0  0  0  0  0  0  0  0  0  0  0
    2.5680   -0.3570   -0.2100 H   0  0  0  0  0  0  0  0  0  0  0  0
    2.7760    1.8940   -1.7470 H   0  0  0  0  0  0  0  0  0  0  0  0
    0.9970    1.5680   -2.0300 H   0  0  0  0  0  0  0  0  0  0  0  0
    2.2610    0.4090   -2.5300 H   0  0  0  0  0  0  0  0  0  0  0  0
   -0.2860    0.7240   -0.3490 H   0  0  0  0  0  0  0  0  0  0  0  0
    1.0490   -1.1800    1.6650 H   0  0  0  0  0  0  0  0  0  0  0  0
   -2.7270   -3.6240   -2.0010 C   0  0  0  0  0  0  0  0  0  0  0  0
   -2.5020   -2.6670   -3.1500 C   0  0  0  0  0  0  0  0  0  0  0  0
   -2.7120   -1.2650   -2.6500 C   0  0  0  0  0  0  0  0  0  0  0  0
   -1.1810   -2.8130   -3.8090 C   0  0  0  0  0  0  0  0  0  0  0  0
    0.0060   -2.6150   -2.9460 C   0  0  2  0  0  0  0  0  0  0  0  0
    0.1350   -1.3220   -2.3220 N   0  0  0  0  0  0  0  0  0  0  0  0
    1.2360   -2.9000   -3.7800 C   0  0  0  0  0  0  0  0  0  0  0  0
    1.2660   -3.9870   -4.3820 O   0  0  0  0  0  0  0  0  0  0  0  0
    2.2760   -1.9950   -3.8710 O   0  0  0  0  0  0  0  0  0  0  0  0
   -2.3730   -3.2030   -1.0310 H   0  0  0  0  0  0  0  0  0  0  0  0
   -3.8210   -3.7710   -1.8880 H   0  0  0  0  0  0  0  0  0  0  0  0
   -2.2880   -4.6210   -2.1910 H   0  0  0  0  0  0  0  0  0  0  0  0
   -3.2760   -2.9050   -3.9330 H   0  0  0  0  0  0  0  0  0  0  0  0
   -2.4770   -1.1320   -1.5780 H   0  0  0  0  0  0  0  0  0  0  0  0
   -3.8350   -1.0920   -2.7300 H   0  0  0  0  0  0  0  0  0  0  0  0
   -2.2160   -0.5140   -3.3050 H   0  0  0  0  0  0  0  0  0  0  0  0
   -1.1210   -3.8170   -4.3290 H   0  0  0  0  0  0  0  0  0  0  0  0
   -1.1740   -2.0910   -4.6730 H   0  0  0  0  0  0  0  0  0  0  0  0
    0.0180   -3.4200   -2.1810 H   0  0  0  0  0  0  0  0  0  0  0  0
    0.1050   -0.4290   -2.8570 H   0  0  0  0  0  0  0  0  0  0  0  0
  1 10  1  0  0  0  0
  1 11  1  0  0  0  0
  2  1  1  0  0  0  0
  3  2  2  0  0  0  0
  4 12  1  0  0  0  0
  4  2  1  0  0  0  0
  4 13  1  0  0  0  0
  5  4  1  0  0  0  0
  6 16  1  1  0  0  0
  6  7  1  0  0  0  0
  6  5  1  0  0  0  0
  8  6  1  0  0  0  0
  9  8  2  0  0  0  0
 14  5  1  0  0  0  0
 15  5  1  0  0  0  0
 17  7  1  0  0  0  0
 18  7  1  0  0  0  0
 19 20  1  0  0  0  0
 19 28  1  0  0  0  0
 20 30  1  0  0  0  0
 21 32  1  1  0  0  0
 21 23  1  0  0  0  0
 21 20  1  0  0  0  0
 22 21  1  0  0  0  0
 23 36  1  6  0  0  0
 23 24  1  0  0  0  0
 24 37  1  0  0  0  0
 24  8  1  0  0  0  0
 25 26  2  0  0  0  0
 25 23  1  0  0  0  0
 27 19  1  0  0  0  0
 29 19  1  0  0  0  0
 31 20  1  0  0  0  0
 33 22  1  0  0  0  0
 34 22  1  0  0  0  0
 35 22  1  0  0  0  0
 38 48  1  0  0  0  0
 38 47  1  0  0  0  0
 39 40  1  0  0  0  0
 39 38  1  0  0  0  0
 40 51  1  0  0  0  0
 41 39  1  0  0  0  0
 41 42  1  0  0  0  0
 42 43  1  0  0  0  0
 42 56  1  1  0  0  0
 43 25  1  0  0  0  0
 44 42  1  0  0  0  0
 45 44  2  0  0  0  0
 46 44  1  0  0  0  0
 49 38  1  0  0  0  0
 50 39  1  0  0  0  0
 52 40  1  0  0  0  0
 53 40  1  0  0  0  0
 54 41  1  0  0  0  0
 55 41  1  0  0  0  0
 57 43  1  0  0  0  0
M  END
$$$$
