QIN.pdb
 OpenBabel07022418323D

 52 51  0  0  1  0  0  0  0  0999 V2000
    4.8460   -3.2770    1.6040 N   0  0  0  0  0  0  0  0  0  0  0  0
    3.5290   -3.3750    2.1050 C   0  0  0  0  0  0  0  0  0  0  0  0
    2.9320   -4.4720    2.1010 O   0  0  0  0  0  0  0  0  0  0  0  0
    2.8310   -2.1830    2.6440 C   0  0  0  0  0  0  0  0  0  0  0  0
    1.4460   -2.5240    3.1090 C   0  0  0  0  0  0  0  0  0  0  0  0
    0.6960   -1.3610    3.6590 C   0  0  2  0  0  0  0  0  0  0  0  0
   -0.6240   -1.7940    4.0910 N   0  0  0  0  0  0  0  0  0  0  0  0
    0.6130   -0.1930    2.7590 C   0  0  0  0  0  0  0  0  0  0  0  0
    0.5390    0.9420    3.2600 O   0  0  0  0  0  0  0  0  0  0  0  0
    5.0490   -2.5370    0.9040 H   0  0  0  0  0  0  0  0  0  0  0  0
    5.5620   -3.9380    1.9440 H   0  0  0  0  0  0  0  0  0  0  0  0
    2.8330   -1.3970    1.8750 H   0  0  0  0  0  0  0  0  0  0  0  0
    3.3840   -1.7890    3.5330 H   0  0  0  0  0  0  0  0  0  0  0  0
    0.9260   -3.0270    2.2680 H   0  0  0  0  0  0  0  0  0  0  0  0
    1.5570   -3.3060    3.8930 H   0  0  0  0  0  0  0  0  0  0  0  0
    1.2000   -1.0140    4.6080 H   0  0  0  0  0  0  0  0  0  0  0  0
   -0.7030   -1.9090    5.1200 H   0  0  0  0  0  0  0  0  0  0  0  0
   -1.3860   -1.2230    3.6640 H   0  0  0  0  0  0  0  0  0  0  0  0
    1.4310    3.2890   -0.6190 C   0  0  0  0  0  0  0  0  0  0  0  0
    1.5070    2.0130   -1.4430 C   0  0  0  0  0  0  0  0  0  0  0  0
    1.6540    0.8230   -0.5280 C   0  0  2  0  0  0  0  0  0  0  0  0
    1.7240   -0.3910   -1.4350 C   0  0  0  0  0  0  0  0  0  0  0  0
    0.5360    0.7720    0.4330 C   0  0  2  0  0  0  0  0  0  0  0  0
    0.6140   -0.3330    1.3720 N   0  0  0  0  0  0  0  0  0  0  0  0
   -0.7990    0.6950   -0.2110 C   0  0  0  0  0  0  0  0  0  0  0  0
   -1.2390    1.5440   -1.0410 O   0  0  0  0  0  0  0  0  0  0  0  0
    1.8670    3.0770    0.3940 H   0  0  0  0  0  0  0  0  0  0  0  0
    0.4010    3.6490   -0.4960 H   0  0  0  0  0  0  0  0  0  0  0  0
    2.0170    4.1130   -1.0890 H   0  0  0  0  0  0  0  0  0  0  0  0
    0.6750    1.9690   -2.1420 H   0  0  0  0  0  0  0  0  0  0  0  0
    2.4570    2.1460   -2.0550 H   0  0  0  0  0  0  0  0  0  0  0  0
    2.6070    0.9900    0.0170 H   0  0  0  0  0  0  0  0  0  0  0  0
    1.3900   -1.3170   -0.9770 H   0  0  0  0  0  0  0  0  0  0  0  0
    2.7720   -0.4230   -1.8320 H   0  0  0  0  0  0  0  0  0  0  0  0
    1.0770   -0.2110   -2.3370 H   0  0  0  0  0  0  0  0  0  0  0  0
    0.5240    1.7000    1.0350 H   0  0  0  0  0  0  0  0  0  0  0  0
    0.6720   -1.2740    0.9220 H   0  0  0  0  0  0  0  0  0  0  0  0
   -5.3560   -0.9710   -2.0060 N   0  0  0  0  0  0  0  0  0  0  0  0
   -4.3560   -1.9750   -1.9250 C   0  0  0  0  0  0  0  0  0  0  0  0
   -4.7040   -3.1000   -2.4470 O   0  0  0  0  0  0  0  0  0  0  0  0
   -3.0250   -1.8140   -1.3170 C   0  0  0  0  0  0  0  0  0  0  0  0
   -2.9900   -0.5720   -0.4650 C   0  0  2  0  0  0  0  0  0  0  0  0
   -1.6540   -0.3890    0.1070 N   0  0  0  0  0  0  0  0  0  0  0  0
   -3.8990   -0.7800    0.6830 C   0  0  0  0  0  0  0  0  0  0  0  0
   -3.4110   -0.7720    1.8500 O   0  0  0  0  0  0  0  0  0  0  0  0
   -5.2510   -0.9830    0.5650 O   0  0  0  0  0  0  0  0  0  0  0  0
   -5.1290    0.0440   -2.1450 H   0  0  0  0  0  0  0  0  0  0  0  0
   -6.3820   -1.2260   -1.9270 H   0  0  0  0  0  0  0  0  0  0  0  0
   -2.8210   -2.7070   -0.6900 H   0  0  0  0  0  0  0  0  0  0  0  0
   -2.2970   -1.7390   -2.1710 H   0  0  0  0  0  0  0  0  0  0  0  0
   -3.2230    0.2740   -1.1060 H   0  0  0  0  0  0  0  0  0  0  0  0
   -1.3320   -1.1010    0.7820 H   0  0  0  0  0  0  0  0  0  0  0  0
  1 11  1  0  0  0  0
  1  2  1  0  0  0  0
  2  4  1  0  0  0  0
  3  2  2  0  0  0  0
  4  5  1  0  0  0  0
  4 13  1  0  0  0  0
  5  6  1  0  0  0  0
  5 15  1  0  0  0  0
  6  7  1  0  0  0  0
  6 16  1  1  0  0  0
  7 17  1  0  0  0  0
  8  9  2  0  0  0  0
  8  6  1  0  0  0  0
 10  1  1  0  0  0  0
 12  4  1  0  0  0  0
 14  5  1  0  0  0  0
 18  7  1  0  0  0  0
 19 28  1  0  0  0  0
 19 27  1  0  0  0  0
 20 19  1  0  0  0  0
 20 21  1  0  0  0  0
 21 32  1  1  0  0  0
 21 23  1  0  0  0  0
 22 33  1  0  0  0  0
 22 21  1  0  0  0  0
 23 36  1  1  0  0  0
 23 24  1  0  0  0  0
 24  8  1  0  0  0  0
 25 43  1  0  0  0  0
 25 23  1  0  0  0  0
 26 25  2  0  0  0  0
 29 19  1  0  0  0  0
 30 20  1  0  0  0  0
 31 20  1  0  0  0  0
 34 22  1  0  0  0  0
 35 22  1  0  0  0  0
 37 24  1  0  0  0  0
 38 48  1  0  0  0  0
 38 39  1  0  0  0  0
 39 41  1  0  0  0  0
 40 39  2  0  0  0  0
 41 49  1  0  0  0  0
 41 42  1  0  0  0  0
 42 51  1  6  0  0  0
 42 43  1  0  0  0  0
 42 44  1  0  0  0  0
 43 52  1  0  0  0  0
 44 45  1  0  0  0  0
 46 44  2  0  0  0  0
 47 38  1  0  0  0  0
 50 41  1  0  0  0  0
M  END
$$$$
