QIR.pdb
 OpenBabel07022418323D

 61 60  0  0  1  0  0  0  0  0999 V2000
    4.9770   -3.4650    4.6570 N   0  0  0  0  0  0  0  0  0  0  0  0
    3.7760   -2.7850    4.2910 C   0  0  0  0  0  0  0  0  0  0  0  0
    3.1030   -2.3240    5.2410 O   0  0  0  0  0  0  0  0  0  0  0  0
    3.3250   -2.6200    2.9180 C   0  0  0  0  0  0  0  0  0  0  0  0
    2.2450   -1.6420    2.6580 C   0  0  0  0  0  0  0  0  0  0  0  0
    2.5220   -0.2160    2.9660 C   0  0  2  0  0  0  0  0  0  0  0  0
    2.8410    0.0630    4.3250 N   0  0  0  0  0  0  0  0  0  0  0  0
    1.3680    0.6610    2.5830 C   0  0  0  0  0  0  0  0  0  0  0  0
    0.8200    1.4420    3.3780 O   0  0  0  0  0  0  0  0  0  0  0  0
    5.0480   -3.9930    5.5550 H   0  0  0  0  0  0  0  0  0  0  0  0
    5.8030   -3.4460    4.0340 H   0  0  0  0  0  0  0  0  0  0  0  0
    4.1980   -2.3420    2.2720 H   0  0  0  0  0  0  0  0  0  0  0  0
    2.9500   -3.6210    2.5750 H   0  0  0  0  0  0  0  0  0  0  0  0
    1.3030   -2.0180    3.1190 H   0  0  0  0  0  0  0  0  0  0  0  0
    2.0270   -1.7000    1.5490 H   0  0  0  0  0  0  0  0  0  0  0  0
    3.4090    0.1280    2.3560 H   0  0  0  0  0  0  0  0  0  0  0  0
    2.0110    0.2960    4.8830 H   0  0  0  0  0  0  0  0  0  0  0  0
    3.5620    0.7850    4.4800 H   0  0  0  0  0  0  0  0  0  0  0  0
    2.6340    2.4470   -0.0450 C   0  0  0  0  0  0  0  0  0  0  0  0
    1.3100    3.0320   -0.4190 C   0  0  0  0  0  0  0  0  0  0  0  0
    0.1700    2.0820   -0.5070 C   0  0  2  0  0  0  0  0  0  0  0  0
   -1.1110    2.8290   -0.9260 C   0  0  0  0  0  0  0  0  0  0  0  0
   -0.1960    1.3600    0.7530 C   0  0  2  0  0  0  0  0  0  0  0  0
    0.9090    0.5610    1.2250 N   0  0  0  0  0  0  0  0  0  0  0  0
   -1.3700    0.4610    0.4180 C   0  0  0  0  0  0  0  0  0  0  0  0
   -2.4670    0.9440    0.0050 O   0  0  0  0  0  0  0  0  0  0  0  0
    2.7840    1.4370   -0.4660 H   0  0  0  0  0  0  0  0  0  0  0  0
    3.4520    3.0560   -0.5630 H   0  0  0  0  0  0  0  0  0  0  0  0
    2.8540    2.5120    1.0530 H   0  0  0  0  0  0  0  0  0  0  0  0
    1.0740    3.9220    0.2320 H   0  0  0  0  0  0  0  0  0  0  0  0
    1.4500    3.4850   -1.4500 H   0  0  0  0  0  0  0  0  0  0  0  0
    0.4270    1.3120   -1.2660 H   0  0  0  0  0  0  0  0  0  0  0  0
   -1.6720    2.2950   -1.6900 H   0  0  0  0  0  0  0  0  0  0  0  0
   -1.7140    3.1300   -0.0550 H   0  0  0  0  0  0  0  0  0  0  0  0
   -0.7590    3.7940   -1.3860 H   0  0  0  0  0  0  0  0  0  0  0  0
   -0.5140    2.0520    1.5680 H   0  0  0  0  0  0  0  0  0  0  0  0
    1.3440   -0.0920    0.5390 H   0  0  0  0  0  0  0  0  0  0  0  0
   -5.8450   -3.0090   -3.9300 N   0  0  0  0  0  0  0  0  0  0  0  0
   -4.8420   -2.0870   -3.4780 C   0  0  0  0  0  0  0  0  0  0  0  0
   -4.9770   -0.8200   -3.6180 N   0  0  0  0  0  0  0  0  0  0  0  0
   -3.6480   -2.5620   -2.8500 N   0  0  0  0  0  0  0  0  0  0  0  0
   -2.4800   -1.7270   -2.6860 C   0  0  0  0  0  0  0  0  0  0  0  0
   -1.3970   -2.5120   -1.9810 C   0  0  0  0  0  0  0  0  0  0  0  0
   -1.8610   -2.9560   -0.6400 C   0  0  0  0  0  0  0  0  0  0  0  0
   -2.2420   -1.8550    0.2940 C   0  0  2  0  0  0  0  0  0  0  0  0
   -1.1840   -0.9370    0.5870 N   0  0  0  0  0  0  0  0  0  0  0  0
   -2.7010   -2.5220    1.5650 C   0  0  0  0  0  0  0  0  0  0  0  0
   -3.6310   -3.3680    1.5120 O   0  0  0  0  0  0  0  0  0  0  0  0
   -2.1520   -2.2530    2.7910 O   0  0  0  0  0  0  0  0  0  0  0  0
   -5.6430   -3.5330   -4.8040 H   0  0  0  0  0  0  0  0  0  0  0  0
   -6.7300   -3.1570   -3.4250 H   0  0  0  0  0  0  0  0  0  0  0  0
   -4.2340   -0.1810   -3.2800 H   0  0  0  0  0  0  0  0  0  0  0  0
   -3.6480   -3.5400   -2.5130 H   0  0  0  0  0  0  0  0  0  0  0  0
   -2.7880   -0.8910   -2.0120 H   0  0  0  0  0  0  0  0  0  0  0  0
   -2.1250   -1.3120   -3.6540 H   0  0  0  0  0  0  0  0  0  0  0  0
   -1.2110   -3.4080   -2.6420 H   0  0  0  0  0  0  0  0  0  0  0  0
   -0.4300   -1.9770   -1.9680 H   0  0  0  0  0  0  0  0  0  0  0  0
   -2.7190   -3.6520   -0.7180 H   0  0  0  0  0  0  0  0  0  0  0  0
   -1.0340   -3.5910   -0.2050 H   0  0  0  0  0  0  0  0  0  0  0  0
   -3.1230   -1.2820   -0.0490 H   0  0  0  0  0  0  0  0  0  0  0  0
   -0.2600   -1.2770    0.9300 H   0  0  0  0  0  0  0  0  0  0  0  0
  1 10  1  0  0  0  0
  2  1  1  0  0  0  0
  2  3  2  0  0  0  0
  4  2  1  0  0  0  0
  5  4  1  0  0  0  0
  5  6  1  0  0  0  0
  5 14  1  0  0  0  0
  6 16  1  6  0  0  0
  6  7  1  0  0  0  0
  7 18  1  0  0  0  0
  7 17  1  0  0  0  0
  8  6  1  0  0  0  0
  8  9  2  0  0  0  0
 11  1  1  0  0  0  0
 12  4  1  0  0  0  0
 13  4  1  0  0  0  0
 15  5  1  0  0  0  0
 19 29  1  0  0  0  0
 20 19  1  0  0  0  0
 20 30  1  0  0  0  0
 21 32  1  6  0  0  0
 21 20  1  0  0  0  0
 21 23  1  0  0  0  0
 22 21  1  0  0  0  0
 22 34  1  0  0  0  0
 23 24  1  0  0  0  0
 23 36  1  1  0  0  0
 24  8  1  0  0  0  0
 25 46  1  0  0  0  0
 25 23  1  0  0  0  0
 26 25  2  0  0  0  0
 27 19  1  0  0  0  0
 28 19  1  0  0  0  0
 31 20  1  0  0  0  0
 33 22  1  0  0  0  0
 35 22  1  0  0  0  0
 37 24  1  0  0  0  0
 38 39  1  0  0  0  0
 38 51  1  0  0  0  0
 39 41  1  0  0  0  0
 40 39  2  0  0  0  0
 40 52  1  0  0  0  0
 41 42  1  0  0  0  0
 41 53  1  0  0  0  0
 42 54  1  0  0  0  0
 42 43  1  0  0  0  0
 43 57  1  0  0  0  0
 43 44  1  0  0  0  0
 44 59  1  0  0  0  0
 44 45  1  0  0  0  0
 45 60  1  6  0  0  0
 45 46  1  0  0  0  0
 45 47  1  0  0  0  0
 46 61  1  0  0  0  0
 47 49  1  0  0  0  0
 48 47  2  0  0  0  0
 50 38  1  0  0  0  0
 55 42  1  0  0  0  0
 56 43  1  0  0  0  0
 58 44  1  0  0  0  0
M  END
$$$$
