QIT.pdb
 OpenBabel07022418323D

 52 51  0  0  1  0  0  0  0  0999 V2000
   -0.0220   -3.6760    6.9590 N   0  0  0  0  0  0  0  0  0  0  0  0
   -0.1530   -2.9590    5.7280 C   0  0  0  0  0  0  0  0  0  0  0  0
   -0.8320   -3.4690    4.8030 O   0  0  0  0  0  0  0  0  0  0  0  0
    0.4930   -1.6400    5.5330 C   0  0  0  0  0  0  0  0  0  0  0  0
    0.1770   -1.1370    4.1540 C   0  0  0  0  0  0  0  0  0  0  0  0
    0.8050    0.2120    3.8780 C   0  0  2  0  0  0  0  0  0  0  0  0
    0.2890    1.1540    4.8490 N   0  0  0  0  0  0  0  0  0  0  0  0
    0.3760    0.6270    2.5220 C   0  0  0  0  0  0  0  0  0  0  0  0
   -0.3160    1.6510    2.3860 O   0  0  0  0  0  0  0  0  0  0  0  0
   -0.6890   -4.4370    7.2160 H   0  0  0  0  0  0  0  0  0  0  0  0
    0.7400   -3.4660    7.6390 H   0  0  0  0  0  0  0  0  0  0  0  0
    1.6040   -1.8400    5.5470 H   0  0  0  0  0  0  0  0  0  0  0  0
    0.2410   -0.9360    6.3260 H   0  0  0  0  0  0  0  0  0  0  0  0
    0.4580   -1.8480    3.3750 H   0  0  0  0  0  0  0  0  0  0  0  0
   -0.9350   -0.9950    4.1060 H   0  0  0  0  0  0  0  0  0  0  0  0
    1.9140    0.1550    3.9620 H   0  0  0  0  0  0  0  0  0  0  0  0
   -0.7280    0.9380    5.0130 H   0  0  0  0  0  0  0  0  0  0  0  0
    0.3310    2.1340    4.5150 H   0  0  0  0  0  0  0  0  0  0  0  0
    3.6090    2.0960   -0.6260 C   0  0  0  0  0  0  0  0  0  0  0  0
    2.3130    1.7280    0.0510 C   0  0  0  0  0  0  0  0  0  0  0  0
    1.5990    0.6210   -0.7200 C   0  0  2  0  0  0  0  0  0  0  0  0
    1.3510    1.2020   -2.1030 C   0  0  0  0  0  0  0  0  0  0  0  0
    0.2980    0.3100    0.0150 C   0  0  2  0  0  0  0  0  0  0  0  0
    0.7270   -0.1080    1.3570 N   0  0  0  0  0  0  0  0  0  0  0  0
   -0.4380   -0.7910   -0.6350 C   0  0  0  0  0  0  0  0  0  0  0  0
   -0.5380   -1.9030   -0.0120 O   0  0  0  0  0  0  0  0  0  0  0  0
    3.5050    3.0070   -1.2620 H   0  0  0  0  0  0  0  0  0  0  0  0
    3.9390    1.2690   -1.3090 H   0  0  0  0  0  0  0  0  0  0  0  0
    4.4270    2.2620    0.1020 H   0  0  0  0  0  0  0  0  0  0  0  0
    1.6820    2.6400    0.0690 H   0  0  0  0  0  0  0  0  0  0  0  0
    2.5120    1.4410    1.0910 H   0  0  0  0  0  0  0  0  0  0  0  0
    2.2180   -0.2820   -0.7460 H   0  0  0  0  0  0  0  0  0  0  0  0
    1.3000    0.4040   -2.8460 H   0  0  0  0  0  0  0  0  0  0  0  0
    0.4990    1.8990   -2.0780 H   0  0  0  0  0  0  0  0  0  0  0  0
    2.2470    1.8240   -2.4150 H   0  0  0  0  0  0  0  0  0  0  0  0
   -0.2980    1.2210    0.0290 H   0  0  0  0  0  0  0  0  0  0  0  0
    1.2980   -0.9530    1.4700 H   0  0  0  0  0  0  0  0  0  0  0  0
   -3.8960   -2.8460   -3.1840 C   0  0  0  0  0  0  0  0  0  0  0  0
   -3.2280   -1.6040   -2.6340 C   0  0  1  0  0  0  0  0  0  0  0  0
   -3.8410   -1.2880   -1.4440 O   0  0  0  0  0  0  0  0  0  0  0  0
   -1.7500   -1.8790   -2.4420 C   0  0  2  0  0  0  0  0  0  0  0  0
   -1.0550   -0.7390   -1.8970 N   0  0  0  0  0  0  0  0  0  0  0  0
   -1.1300   -2.3710   -3.6910 C   0  0  0  0  0  0  0  0  0  0  0  0
   -0.1190   -1.7880   -4.1340 O   0  0  0  0  0  0  0  0  0  0  0  0
   -1.6240   -3.4570   -4.3950 O   0  0  0  0  0  0  0  0  0  0  0  0
   -4.9140   -2.9660   -2.7530 H   0  0  0  0  0  0  0  0  0  0  0  0
   -3.3100   -3.7170   -2.7960 H   0  0  0  0  0  0  0  0  0  0  0  0
   -3.8950   -2.8830   -4.2840 H   0  0  0  0  0  0  0  0  0  0  0  0
   -3.3620   -0.7980   -3.3910 H   0  0  0  0  0  0  0  0  0  0  0  0
   -4.4740   -0.5210   -1.5600 H   0  0  0  0  0  0  0  0  0  0  0  0
   -1.6830   -2.7040   -1.7070 H   0  0  0  0  0  0  0  0  0  0  0  0
   -1.0250    0.1260   -2.4590 H   0  0  0  0  0  0  0  0  0  0  0  0
  1 10  1  0  0  0  0
  1 11  1  0  0  0  0
  2  1  1  0  0  0  0
  3  2  2  0  0  0  0
  4 12  1  0  0  0  0
  4  2  1  0  0  0  0
  4 13  1  0  0  0  0
  5  4  1  0  0  0  0
  6 16  1  1  0  0  0
  6  5  1  0  0  0  0
  6  7  1  0  0  0  0
  7 17  1  0  0  0  0
  8  6  1  0  0  0  0
  9  8  2  0  0  0  0
 14  5  1  0  0  0  0
 15  5  1  0  0  0  0
 18  7  1  0  0  0  0
 19 20  1  0  0  0  0
 19 29  1  0  0  0  0
 20 30  1  0  0  0  0
 20 31  1  0  0  0  0
 21 32  1  6  0  0  0
 21 23  1  0  0  0  0
 21 20  1  0  0  0  0
 22 34  1  0  0  0  0
 22 21  1  0  0  0  0
 23 36  1  1  0  0  0
 23 24  1  0  0  0  0
 24 37  1  0  0  0  0
 24  8  1  0  0  0  0
 25 26  2  0  0  0  0
 25 23  1  0  0  0  0
 27 19  1  0  0  0  0
 28 19  1  0  0  0  0
 33 22  1  0  0  0  0
 35 22  1  0  0  0  0
 38 47  1  0  0  0  0
 38 46  1  0  0  0  0
 38 39  1  0  0  0  0
 39 49  1  6  0  0  0
 39 41  1  0  0  0  0
 39 40  1  0  0  0  0
 41 42  1  0  0  0  0
 41 51  1  1  0  0  0
 42 25  1  0  0  0  0
 43 41  1  0  0  0  0
 44 43  1  0  0  0  0
 45 43  2  0  0  0  0
 48 38  1  0  0  0  0
 50 40  1  0  0  0  0
 52 42  1  0  0  0  0
M  END
$$$$
