QIV.pdb
 OpenBabel07022418323D

 54 53  0  0  1  0  0  0  0  0999 V2000
   -0.4190   -0.3250    8.1410 N   0  0  0  0  0  0  0  0  0  0  0  0
   -0.5410    0.0860    6.7860 C   0  0  0  0  0  0  0  0  0  0  0  0
   -1.7070    0.1790    6.2780 O   0  0  0  0  0  0  0  0  0  0  0  0
    0.6350    0.4010    5.9740 C   0  0  0  0  0  0  0  0  0  0  0  0
    0.3870    0.7400    4.5530 C   0  0  0  0  0  0  0  0  0  0  0  0
   -0.2620   -0.3160    3.7250 C   0  0  2  0  0  0  0  0  0  0  0  0
    0.6060   -1.4940    3.7350 N   0  0  0  0  0  0  0  0  0  0  0  0
   -0.4320    0.1320    2.3060 C   0  0  0  0  0  0  0  0  0  0  0  0
   -1.1370    1.1320    2.0210 O   0  0  0  0  0  0  0  0  0  0  0  0
   -1.1430   -0.1250    8.8520 H   0  0  0  0  0  0  0  0  0  0  0  0
    0.4290   -0.8470    8.4310 H   0  0  0  0  0  0  0  0  0  0  0  0
    1.3820   -0.4190    6.0810 H   0  0  0  0  0  0  0  0  0  0  0  0
    1.1270    1.2990    6.4450 H   0  0  0  0  0  0  0  0  0  0  0  0
    1.3940    0.9430    4.0870 H   0  0  0  0  0  0  0  0  0  0  0  0
   -0.1530    1.7140    4.5100 H   0  0  0  0  0  0  0  0  0  0  0  0
   -1.2620   -0.5400    4.1380 H   0  0  0  0  0  0  0  0  0  0  0  0
    0.1280   -2.2150    3.1560 H   0  0  0  0  0  0  0  0  0  0  0  0
    1.5080   -1.2030    3.3000 H   0  0  0  0  0  0  0  0  0  0  0  0
    3.0950   -0.8670    0.6350 C   0  0  0  0  0  0  0  0  0  0  0  0
    2.4880   -0.5400   -0.6980 C   0  0  0  0  0  0  0  0  0  0  0  0
    1.3270    0.3810   -0.6750 C   0  0  2  0  0  0  0  0  0  0  0  0
    1.7460    1.6960   -0.0420 C   0  0  0  0  0  0  0  0  0  0  0  0
    0.0370   -0.1300   -0.1510 C   0  0  2  0  0  0  0  0  0  0  0  0
    0.1940   -0.5520    1.2200 N   0  0  0  0  0  0  0  0  0  0  0  0
   -0.5170   -1.2650   -0.9200 C   0  0  0  0  0  0  0  0  0  0  0  0
   -0.7520   -2.3400   -0.3280 O   0  0  0  0  0  0  0  0  0  0  0  0
    2.7870   -0.1520    1.4190 H   0  0  0  0  0  0  0  0  0  0  0  0
    4.2130   -0.6990    0.5420 H   0  0  0  0  0  0  0  0  0  0  0  0
    3.0130   -1.9350    0.9260 H   0  0  0  0  0  0  0  0  0  0  0  0
    2.3090   -1.4670   -1.2940 H   0  0  0  0  0  0  0  0  0  0  0  0
    3.2920   -0.0140   -1.2980 H   0  0  0  0  0  0  0  0  0  0  0  0
    1.0920    0.6940   -1.7570 H   0  0  0  0  0  0  0  0  0  0  0  0
    1.7580    1.6410    1.0640 H   0  0  0  0  0  0  0  0  0  0  0  0
    2.6600    2.1000   -0.4760 H   0  0  0  0  0  0  0  0  0  0  0  0
    0.9120    2.4170   -0.2850 H   0  0  0  0  0  0  0  0  0  0  0  0
   -0.7460    0.7070   -0.1570 H   0  0  0  0  0  0  0  0  0  0  0  0
    0.7760   -1.3920    1.4060 H   0  0  0  0  0  0  0  0  0  0  0  0
   -3.6940   -1.6100   -2.6380 C   0  0  0  0  0  0  0  0  0  0  0  0
   -2.6760   -2.0020   -3.6940 C   0  0  0  0  0  0  0  0  0  0  0  0
   -2.5250   -0.8830   -4.6780 C   0  0  0  0  0  0  0  0  0  0  0  0
   -1.3500   -2.3460   -3.0530 C   0  0  2  0  0  0  0  0  0  0  0  0
   -0.8080   -1.2260   -2.3110 N   0  0  0  0  0  0  0  0  0  0  0  0
   -0.4090   -2.7750   -4.1140 C   0  0  0  0  0  0  0  0  0  0  0  0
   -0.7290   -3.7400   -4.8520 O   0  0  0  0  0  0  0  0  0  0  0  0
    0.8110   -2.1600   -4.3310 O   0  0  0  0  0  0  0  0  0  0  0  0
   -3.5190   -0.5720   -2.2990 H   0  0  0  0  0  0  0  0  0  0  0  0
   -3.6510   -2.2680   -1.7640 H   0  0  0  0  0  0  0  0  0  0  0  0
   -4.6950   -1.7450   -3.1070 H   0  0  0  0  0  0  0  0  0  0  0  0
   -3.0930   -2.8850   -4.2170 H   0  0  0  0  0  0  0  0  0  0  0  0
   -1.4810   -0.9310   -5.0760 H   0  0  0  0  0  0  0  0  0  0  0  0
   -2.6910    0.0690   -4.1330 H   0  0  0  0  0  0  0  0  0  0  0  0
   -3.2640   -1.0320   -5.4900 H   0  0  0  0  0  0  0  0  0  0  0  0
   -1.4750   -3.1780   -2.3310 H   0  0  0  0  0  0  0  0  0  0  0  0
   -0.6250   -0.3470   -2.8400 H   0  0  0  0  0  0  0  0  0  0  0  0
  1 11  1  0  0  0  0
  1 10  1  0  0  0  0
  2  1  1  0  0  0  0
  3  2  2  0  0  0  0
  4 12  1  0  0  0  0
  4 13  1  0  0  0  0
  4  2  1  0  0  0  0
  5  4  1  0  0  0  0
  6  7  1  0  0  0  0
  6 16  1  1  0  0  0
  6  5  1  0  0  0  0
  8  6  1  0  0  0  0
  9  8  2  0  0  0  0
 14  5  1  0  0  0  0
 15  5  1  0  0  0  0
 17  7  1  0  0  0  0
 18  7  1  0  0  0  0
 19 29  1  0  0  0  0
 19 27  1  0  0  0  0
 20 21  1  0  0  0  0
 20 19  1  0  0  0  0
 21 32  1  6  0  0  0
 21 23  1  0  0  0  0
 21 22  1  0  0  0  0
 22 33  1  0  0  0  0
 23 36  1  6  0  0  0
 23 24  1  0  0  0  0
 24 37  1  0  0  0  0
 24  8  1  0  0  0  0
 25 26  2  0  0  0  0
 25 23  1  0  0  0  0
 28 19  1  0  0  0  0
 30 20  1  0  0  0  0
 31 20  1  0  0  0  0
 34 22  1  0  0  0  0
 35 22  1  0  0  0  0
 38 46  1  0  0  0  0
 38 47  1  0  0  0  0
 39 41  1  0  0  0  0
 39 38  1  0  0  0  0
 40 51  1  0  0  0  0
 40 39  1  0  0  0  0
 41 53  1  1  0  0  0
 41 42  1  0  0  0  0
 42 25  1  0  0  0  0
 43 41  1  0  0  0  0
 44 43  2  0  0  0  0
 45 43  1  0  0  0  0
 48 38  1  0  0  0  0
 49 39  1  0  0  0  0
 50 40  1  0  0  0  0
 52 40  1  0  0  0  0
 54 42  1  0  0  0  0
M  END
$$$$
