QKA.pdb
 OpenBabel07022418323D

 50 49  0  0  1  0  0  0  0  0999 V2000
   -0.2360   -4.0770    1.1750 N   0  0  0  0  0  0  0  0  0  0  0  0
    1.1540   -3.7130    1.1600 C   0  0  0  0  0  0  0  0  0  0  0  0
    1.5220   -3.0220    2.1420 O   0  0  0  0  0  0  0  0  0  0  0  0
    1.9690   -4.1740    0.0440 C   0  0  0  0  0  0  0  0  0  0  0  0
    3.2580   -3.5150   -0.2030 C   0  0  0  0  0  0  0  0  0  0  0  0
    3.2550   -2.1010   -0.6470 C   0  0  2  0  0  0  0  0  0  0  0  0
    4.6440   -1.6210   -0.7960 N   0  0  0  0  0  0  0  0  0  0  0  0
    2.4720   -1.2010    0.1870 C   0  0  0  0  0  0  0  0  0  0  0  0
    3.0010   -0.5910    1.1790 O   0  0  0  0  0  0  0  0  0  0  0  0
   -0.9600   -3.5110    1.6690 H   0  0  0  0  0  0  0  0  0  0  0  0
   -0.5420   -4.9360    0.6770 H   0  0  0  0  0  0  0  0  0  0  0  0
    1.3170   -4.0480   -0.8830 H   0  0  0  0  0  0  0  0  0  0  0  0
    2.0910   -5.3030    0.0790 H   0  0  0  0  0  0  0  0  0  0  0  0
    3.8770   -4.1250   -0.9340 H   0  0  0  0  0  0  0  0  0  0  0  0
    3.8770   -3.5850    0.7400 H   0  0  0  0  0  0  0  0  0  0  0  0
    2.8820   -2.1110   -1.7210 H   0  0  0  0  0  0  0  0  0  0  0  0
    5.0760   -2.2550   -1.5020 H   0  0  0  0  0  0  0  0  0  0  0  0
    4.5470   -0.6850   -1.2570 H   0  0  0  0  0  0  0  0  0  0  0  0
    1.0820   -0.9090   -0.0160 N   0  0  0  0  0  0  0  0  0  0  0  0
    0.3710    0.0000    0.8620 C   0  0  1  0  0  0  0  0  0  0  0  0
    0.6090    1.4410    0.3170 C   0  0  0  0  0  0  0  0  0  0  0  0
   -0.0720    2.4800    1.1490 C   0  0  0  0  0  0  0  0  0  0  0  0
    0.3980    2.5200    2.5630 C   0  0  0  0  0  0  0  0  0  0  0  0
   -0.3140    3.5900    3.3730 C   0  0  0  0  0  0  0  0  0  0  0  0
   -0.0790    4.9030    2.7930 N   0  0  0  0  0  0  0  0  0  0  0  0
   -1.0720   -0.2500    0.9460 C   0  0  0  0  0  0  0  0  0  0  0  0
   -1.8100    0.3800    1.7880 O   0  0  0  0  0  0  0  0  0  0  0  0
    0.6190   -1.3710   -0.8160 H   0  0  0  0  0  0  0  0  0  0  0  0
    0.8170    0.0500    1.8670 H   0  0  0  0  0  0  0  0  0  0  0  0
    0.3240    1.4890   -0.7500 H   0  0  0  0  0  0  0  0  0  0  0  0
    1.7010    1.6320    0.3750 H   0  0  0  0  0  0  0  0  0  0  0  0
    0.2170    3.4850    0.7010 H   0  0  0  0  0  0  0  0  0  0  0  0
   -1.1800    2.4780    1.0570 H   0  0  0  0  0  0  0  0  0  0  0  0
    0.2790    1.5510    3.0690 H   0  0  0  0  0  0  0  0  0  0  0  0
    1.4870    2.7730    2.6480 H   0  0  0  0  0  0  0  0  0  0  0  0
    0.0700    3.6180    4.4120 H   0  0  0  0  0  0  0  0  0  0  0  0
   -1.4090    3.3990    3.4400 H   0  0  0  0  0  0  0  0  0  0  0  0
    0.7310    4.8680    2.1160 H   0  0  0  0  0  0  0  0  0  0  0  0
   -0.9470    5.2360    2.3190 H   0  0  0  0  0  0  0  0  0  0  0  0
   -3.8380   -0.5270   -0.8900 C   0  0  0  0  0  0  0  0  0  0  0  0
   -3.2560   -1.3240    0.3130 C   0  0  2  0  0  0  0  0  0  0  0  0
   -1.8180   -1.1710    0.1460 N   0  0  0  0  0  0  0  0  0  0  0  0
   -3.7470   -2.6950    0.1050 C   0  0  0  0  0  0  0  0  0  0  0  0
   -2.9350   -3.5880   -0.2360 O   0  0  0  0  0  0  0  0  0  0  0  0
   -5.0950   -3.0210    0.2780 O   0  0  0  0  0  0  0  0  0  0  0  0
   -3.8480   -1.1850   -1.7830 H   0  0  0  0  0  0  0  0  0  0  0  0
   -4.8560   -0.1890   -0.6550 H   0  0  0  0  0  0  0  0  0  0  0  0
   -3.1720    0.3260   -1.1320 H   0  0  0  0  0  0  0  0  0  0  0  0
   -3.6240   -0.8230    1.2250 H   0  0  0  0  0  0  0  0  0  0  0  0
   -1.3160   -1.7350   -0.5620 H   0  0  0  0  0  0  0  0  0  0  0  0
  1 10  1  0  0  0  0
  2  1  1  0  0  0  0
  2  3  2  0  0  0  0
  4 13  1  0  0  0  0
  4  2  1  0  0  0  0
  5  4  1  0  0  0  0
  5 15  1  0  0  0  0
  6 16  1  6  0  0  0
  6  5  1  0  0  0  0
  6  8  1  0  0  0  0
  7  6  1  0  0  0  0
  8  9  2  0  0  0  0
 11  1  1  0  0  0  0
 12  4  1  0  0  0  0
 14  5  1  0  0  0  0
 17  7  1  0  0  0  0
 18  7  1  0  0  0  0
 19  8  1  0  0  0  0
 19 20  1  0  0  0  0
 20 26  1  0  0  0  0
 20 29  1  1  0  0  0
 21 31  1  0  0  0  0
 21 20  1  0  0  0  0
 21 22  1  0  0  0  0
 22 23  1  0  0  0  0
 23 35  1  0  0  0  0
 23 34  1  0  0  0  0
 23 24  1  0  0  0  0
 24 37  1  0  0  0  0
 24 36  1  0  0  0  0
 25 24  1  0  0  0  0
 26 27  2  0  0  0  0
 28 19  1  0  0  0  0
 30 21  1  0  0  0  0
 32 22  1  0  0  0  0
 33 22  1  0  0  0  0
 38 25  1  0  0  0  0
 39 25  1  0  0  0  0
 40 47  1  0  0  0  0
 40 41  1  0  0  0  0
 41 49  1  1  0  0  0
 42 41  1  0  0  0  0
 42 26  1  0  0  0  0
 43 45  1  0  0  0  0
 43 41  1  0  0  0  0
 44 43  2  0  0  0  0
 46 40  1  0  0  0  0
 48 40  1  0  0  0  0
 50 42  1  0  0  0  0
M  END
$$$$
