QKE.pdb
 OpenBabel07022418323D

 56 55  0  0  1  0  0  0  0  0999 V2000
    1.8650   -4.6610   -0.3700 N   0  0  0  0  0  0  0  0  0  0  0  0
    2.8070   -3.8390    0.2970 C   0  0  0  0  0  0  0  0  0  0  0  0
    3.7970   -4.3470    0.8890 O   0  0  0  0  0  0  0  0  0  0  0  0
    2.6610   -2.3370    0.3240 C   0  0  0  0  0  0  0  0  0  0  0  0
    3.8130   -1.7220    1.0710 C   0  0  0  0  0  0  0  0  0  0  0  0
    3.7580   -0.2130    1.1330 C   0  0  2  0  0  0  0  0  0  0  0  0
    4.9360    0.2410    1.8900 N   0  0  0  0  0  0  0  0  0  0  0  0
    2.5170    0.1920    1.8190 C   0  0  0  0  0  0  0  0  0  0  0  0
    2.5990    0.4850    3.0500 O   0  0  0  0  0  0  0  0  0  0  0  0
    1.2050   -5.3140    0.1050 H   0  0  0  0  0  0  0  0  0  0  0  0
    1.8320   -4.6070   -1.4140 H   0  0  0  0  0  0  0  0  0  0  0  0
    1.7140   -2.1690    0.8850 H   0  0  0  0  0  0  0  0  0  0  0  0
    2.6480   -1.9820   -0.7030 H   0  0  0  0  0  0  0  0  0  0  0  0
    4.7880   -2.0380    0.6120 H   0  0  0  0  0  0  0  0  0  0  0  0
    3.8190   -2.1780    2.0830 H   0  0  0  0  0  0  0  0  0  0  0  0
    3.8670    0.2180    0.1180 H   0  0  0  0  0  0  0  0  0  0  0  0
    5.6900   -0.4610    1.7170 H   0  0  0  0  0  0  0  0  0  0  0  0
    4.7180    0.3390    2.9050 H   0  0  0  0  0  0  0  0  0  0  0  0
    1.2440    0.2870    1.2250 N   0  0  0  0  0  0  0  0  0  0  0  0
    0.0660    0.7060    1.9940 C   0  0  1  0  0  0  0  0  0  0  0  0
   -0.1210    2.1940    1.8030 C   0  0  0  0  0  0  0  0  0  0  0  0
   -0.3200    2.6900    0.4430 C   0  0  0  0  0  0  0  0  0  0  0  0
   -1.4880    2.2710   -0.3460 C   0  0  0  0  0  0  0  0  0  0  0  0
   -2.8290    2.6470    0.2190 C   0  0  0  0  0  0  0  0  0  0  0  0
   -3.8360    2.1320   -0.7070 N   0  0  0  0  0  0  0  0  0  0  0  0
   -1.1030   -0.1240    1.7480 C   0  0  0  0  0  0  0  0  0  0  0  0
   -2.1760    0.0200    2.4420 O   0  0  0  0  0  0  0  0  0  0  0  0
    1.1500    0.0570    0.2180 H   0  0  0  0  0  0  0  0  0  0  0  0
    0.3330    0.6390    3.1030 H   0  0  0  0  0  0  0  0  0  0  0  0
   -0.9030    2.6000    2.4950 H   0  0  0  0  0  0  0  0  0  0  0  0
    0.8370    2.6570    2.1890 H   0  0  0  0  0  0  0  0  0  0  0  0
    0.6060    2.5360   -0.1730 H   0  0  0  0  0  0  0  0  0  0  0  0
   -0.3600    3.8240    0.5200 H   0  0  0  0  0  0  0  0  0  0  0  0
   -1.4660    1.2130   -0.6750 H   0  0  0  0  0  0  0  0  0  0  0  0
   -1.4360    2.8350   -1.3330 H   0  0  0  0  0  0  0  0  0  0  0  0
   -3.0630    2.2370    1.2070 H   0  0  0  0  0  0  0  0  0  0  0  0
   -2.9780    3.7510    0.2370 H   0  0  0  0  0  0  0  0  0  0  0  0
   -4.4530    2.8750   -1.0870 H   0  0  0  0  0  0  0  0  0  0  0  0
   -4.4940    1.4560   -0.2190 H   0  0  0  0  0  0  0  0  0  0  0  0
   -1.1660   -1.1270    0.7600 N   0  0  0  0  0  0  0  0  0  0  0  0
   -2.3230   -1.9400    0.5300 C   0  0  1  0  0  0  0  0  0  0  0  0
   -3.0430   -1.6770   -0.7370 C   0  0  0  0  0  0  0  0  0  0  0  0
   -2.3090   -1.8480   -2.0080 C   0  0  0  0  0  0  0  0  0  0  0  0
   -1.7770   -3.1960   -2.2790 C   0  0  0  0  0  0  0  0  0  0  0  0
   -0.6290   -3.4730   -1.8570 O   0  0  0  0  0  0  0  0  0  0  0  0
   -2.1210   -3.3830    0.7380 C   0  0  0  0  0  0  0  0  0  0  0  0
   -3.1080   -4.1330    0.5150 O   0  0  0  0  0  0  0  0  0  0  0  0
   -2.4540   -4.1890   -2.9710 O   0  0  0  0  0  0  0  0  0  0  0  0
   -0.9550   -3.9820    1.1530 O   0  0  0  0  0  0  0  0  0  0  0  0
   -0.3450   -1.3010    0.1510 H   0  0  0  0  0  0  0  0  0  0  0  0
   -3.0620   -1.6370    1.3500 H   0  0  0  0  0  0  0  0  0  0  0  0
   -3.4800   -0.6570   -0.7360 H   0  0  0  0  0  0  0  0  0  0  0  0
   -3.9250   -2.3710   -0.7600 H   0  0  0  0  0  0  0  0  0  0  0  0
   -1.4860   -1.1130   -2.1570 H   0  0  0  0  0  0  0  0  0  0  0  0
   -3.0410   -1.5880   -2.8320 H   0  0  0  0  0  0  0  0  0  0  0  0
   -2.0240   -5.0560   -3.2820 H   0  0  0  0  0  0  0  0  0  0  0  0
  1 10  1  0  0  0  0
  1  2  1  0  0  0  0
  2  4  1  0  0  0  0
  2  3  2  0  0  0  0
  4 12  1  0  0  0  0
  4  5  1  0  0  0  0
  5  6  1  0  0  0  0
  5 15  1  0  0  0  0
  6 16  1  6  0  0  0
  6  8  1  0  0  0  0
  6  7  1  0  0  0  0
  7 18  1  0  0  0  0
  8  9  2  0  0  0  0
 11  1  1  0  0  0  0
 13  4  1  0  0  0  0
 14  5  1  0  0  0  0
 17  7  1  0  0  0  0
 19  8  1  0  0  0  0
 19 20  1  0  0  0  0
 20 29  1  1  0  0  0
 21 20  1  0  0  0  0
 21 31  1  0  0  0  0
 21 30  1  0  0  0  0
 22 33  1  0  0  0  0
 22 21  1  0  0  0  0
 23 24  1  0  0  0  0
 23 22  1  0  0  0  0
 24 37  1  0  0  0  0
 24 36  1  0  0  0  0
 25 39  1  0  0  0  0
 25 24  1  0  0  0  0
 26 20  1  0  0  0  0
 26 27  2  0  0  0  0
 28 19  1  0  0  0  0
 32 22  1  0  0  0  0
 34 23  1  0  0  0  0
 35 23  1  0  0  0  0
 38 25  1  0  0  0  0
 40 26  1  0  0  0  0
 41 46  1  0  0  0  0
 41 40  1  0  0  0  0
 41 51  1  1  0  0  0
 42 52  1  0  0  0  0
 42 41  1  0  0  0  0
 43 42  1  0  0  0  0
 44 43  1  0  0  0  0
 44 45  2  0  0  0  0
 46 49  1  0  0  0  0
 47 46  2  0  0  0  0
 48 44  1  0  0  0  0
 50 40  1  0  0  0  0
 53 42  1  0  0  0  0
 54 43  1  0  0  0  0
 55 43  1  0  0  0  0
 56 48  1  0  0  0  0
M  END
$$$$
