QKG.pdb
 OpenBabel07022418323D

 47 46  0  0  1  0  0  0  0  0999 V2000
   -2.4070   -6.7060   -0.5680 N   0  0  0  0  0  0  0  0  0  0  0  0
   -1.8690   -5.5160   -0.0090 C   0  0  0  0  0  0  0  0  0  0  0  0
   -2.5970   -4.9240    0.8520 O   0  0  0  0  0  0  0  0  0  0  0  0
   -0.5400   -4.9890   -0.3990 C   0  0  0  0  0  0  0  0  0  0  0  0
   -0.2150   -3.7110    0.3480 C   0  0  0  0  0  0  0  0  0  0  0  0
    1.1470   -3.1750   -0.0540 C   0  0  2  0  0  0  0  0  0  0  0  0
    2.1090   -4.2050    0.2750 N   0  0  0  0  0  0  0  0  0  0  0  0
    1.3890   -1.9350    0.7390 C   0  0  0  0  0  0  0  0  0  0  0  0
    2.3310   -1.9340    1.5400 O   0  0  0  0  0  0  0  0  0  0  0  0
   -3.4390   -6.8520   -0.6720 H   0  0  0  0  0  0  0  0  0  0  0  0
   -1.7750   -7.4710   -0.8920 H   0  0  0  0  0  0  0  0  0  0  0  0
   -0.5620   -4.8320   -1.4910 H   0  0  0  0  0  0  0  0  0  0  0  0
    0.2090   -5.7550   -0.1410 H   0  0  0  0  0  0  0  0  0  0  0  0
   -0.2750   -3.9040    1.4340 H   0  0  0  0  0  0  0  0  0  0  0  0
   -1.0260   -2.9970    0.0970 H   0  0  0  0  0  0  0  0  0  0  0  0
    1.1690   -2.9460   -1.1360 H   0  0  0  0  0  0  0  0  0  0  0  0
    1.7400   -4.8860    0.9800 H   0  0  0  0  0  0  0  0  0  0  0  0
    2.3200   -4.7580   -0.5930 H   0  0  0  0  0  0  0  0  0  0  0  0
    0.5850   -0.7740    0.6070 N   0  0  0  0  0  0  0  0  0  0  0  0
    0.8330    0.4400    1.3920 C   0  0  1  0  0  0  0  0  0  0  0  0
    0.9190    1.6370    0.4850 C   0  0  0  0  0  0  0  0  0  0  0  0
    1.2010    2.8790    1.2540 C   0  0  0  0  0  0  0  0  0  0  0  0
    1.3170    4.1450    0.4730 C   0  0  0  0  0  0  0  0  0  0  0  0
    2.3880    4.2230   -0.5480 C   0  0  0  0  0  0  0  0  0  0  0  0
    2.2000    3.2340   -1.5700 N   0  0  0  0  0  0  0  0  0  0  0  0
   -0.3140    0.5870    2.3030 C   0  0  0  0  0  0  0  0  0  0  0  0
   -0.4270    1.4710    3.2030 O   0  0  0  0  0  0  0  0  0  0  0  0
   -0.1930   -0.8220   -0.0840 H   0  0  0  0  0  0  0  0  0  0  0  0
    1.7330    0.3350    2.0200 H   0  0  0  0  0  0  0  0  0  0  0  0
   -0.0850    1.8000   -0.0110 H   0  0  0  0  0  0  0  0  0  0  0  0
    1.6010    1.4500   -0.3700 H   0  0  0  0  0  0  0  0  0  0  0  0
    2.1880    2.7840    1.8130 H   0  0  0  0  0  0  0  0  0  0  0  0
    0.4530    3.0740    2.0590 H   0  0  0  0  0  0  0  0  0  0  0  0
    1.5520    4.9470    1.2390 H   0  0  0  0  0  0  0  0  0  0  0  0
    0.3170    4.4870    0.0740 H   0  0  0  0  0  0  0  0  0  0  0  0
    3.4110    4.1860   -0.1030 H   0  0  0  0  0  0  0  0  0  0  0  0
    2.3860    5.2170   -1.0920 H   0  0  0  0  0  0  0  0  0  0  0  0
    3.0680    2.7070   -1.8000 H   0  0  0  0  0  0  0  0  0  0  0  0
    1.8080    3.6380   -2.4700 H   0  0  0  0  0  0  0  0  0  0  0  0
   -1.4230   -0.3280    2.2010 N   0  0  0  0  0  0  0  0  0  0  0  0
   -2.5550   -0.1790    3.0990 C   0  0  0  0  0  0  0  0  0  0  0  0
   -3.1870    1.1320    2.9260 C   0  0  0  0  0  0  0  0  0  0  0  0
   -4.1830    1.4740    3.6200 O   0  0  0  0  0  0  0  0  0  0  0  0
   -2.6800    2.0120    1.9810 O   0  0  0  0  0  0  0  0  0  0  0  0
   -1.4070   -1.0860    1.4900 H   0  0  0  0  0  0  0  0  0  0  0  0
   -3.3000   -0.9660    2.8640 H   0  0  0  0  0  0  0  0  0  0  0  0
   -2.2450   -0.3720    4.1580 H   0  0  0  0  0  0  0  0  0  0  0  0
  1  2  1  0  0  0  0
  2  3  2  0  0  0  0
  4 13  1  0  0  0  0
  4  2  1  0  0  0  0
  4  5  1  0  0  0  0
  5 14  1  0  0  0  0
  6 16  1  6  0  0  0
  6  7  1  0  0  0  0
  6  5  1  0  0  0  0
  6  8  1  0  0  0  0
  7 17  1  0  0  0  0
  8  9  2  0  0  0  0
 10  1  1  0  0  0  0
 11  1  1  0  0  0  0
 12  4  1  0  0  0  0
 15  5  1  0  0  0  0
 18  7  1  0  0  0  0
 19  8  1  0  0  0  0
 19 20  1  0  0  0  0
 20 29  1  1  0  0  0
 20 26  1  0  0  0  0
 21 22  1  0  0  0  0
 21 20  1  0  0  0  0
 22 32  1  0  0  0  0
 22 33  1  0  0  0  0
 23 34  1  0  0  0  0
 23 22  1  0  0  0  0
 24 36  1  0  0  0  0
 24 23  1  0  0  0  0
 25 24  1  0  0  0  0
 26 27  2  0  0  0  0
 28 19  1  0  0  0  0
 30 21  1  0  0  0  0
 31 21  1  0  0  0  0
 35 23  1  0  0  0  0
 37 24  1  0  0  0  0
 38 25  1  0  0  0  0
 39 25  1  0  0  0  0
 40 26  1  0  0  0  0
 40 41  1  0  0  0  0
 41 47  1  0  0  0  0
 42 41  1  0  0  0  0
 42 43  1  0  0  0  0
 44 42  2  0  0  0  0
 45 40  1  0  0  0  0
 46 41  1  0  0  0  0
M  END
$$$$
