QKN.pdb
 OpenBabel07022418323D

 54 53  0  0  1  0  0  0  0  0999 V2000
    3.9960   -5.1040   -0.1830 N   0  0  0  0  0  0  0  0  0  0  0  0
    4.3880   -3.7210   -0.0850 C   0  0  0  0  0  0  0  0  0  0  0  0
    5.4960   -3.5140    0.4500 O   0  0  0  0  0  0  0  0  0  0  0  0
    3.4900   -2.7050   -0.6030 C   0  0  0  0  0  0  0  0  0  0  0  0
    3.8050   -1.2870   -0.2990 C   0  0  0  0  0  0  0  0  0  0  0  0
    3.8080   -0.8920    1.1350 C   0  0  2  0  0  0  0  0  0  0  0  0
    4.7370   -1.5690    1.9780 N   0  0  0  0  0  0  0  0  0  0  0  0
    2.4300   -0.9150    1.7260 C   0  0  0  0  0  0  0  0  0  0  0  0
    2.1810   -1.4940    2.8090 O   0  0  0  0  0  0  0  0  0  0  0  0
    3.9840   -5.6410    0.7070 H   0  0  0  0  0  0  0  0  0  0  0  0
    3.7410   -5.5450   -1.0760 H   0  0  0  0  0  0  0  0  0  0  0  0
    3.4840   -2.8010   -1.7250 H   0  0  0  0  0  0  0  0  0  0  0  0
    2.4250   -2.8910   -0.2960 H   0  0  0  0  0  0  0  0  0  0  0  0
    4.7660   -0.9430   -0.7500 H   0  0  0  0  0  0  0  0  0  0  0  0
    3.0090   -0.6680   -0.8120 H   0  0  0  0  0  0  0  0  0  0  0  0
    4.1080    0.2020    1.1540 H   0  0  0  0  0  0  0  0  0  0  0  0
    4.4120   -1.7490    2.9360 H   0  0  0  0  0  0  0  0  0  0  0  0
    5.6510   -1.1080    1.9480 H   0  0  0  0  0  0  0  0  0  0  0  0
    1.3690   -0.2670    1.0520 N   0  0  0  0  0  0  0  0  0  0  0  0
    0.0380   -0.2900    1.6230 C   0  0  1  0  0  0  0  0  0  0  0  0
   -0.4590    1.0630    1.9930 C   0  0  0  0  0  0  0  0  0  0  0  0
   -0.5540    2.0520    0.8840 C   0  0  0  0  0  0  0  0  0  0  0  0
   -1.0590    3.3990    1.3710 C   0  0  0  0  0  0  0  0  0  0  0  0
   -2.4190    3.3160    1.9910 C   0  0  0  0  0  0  0  0  0  0  0  0
   -3.4220    2.8220    1.0730 N   0  0  0  0  0  0  0  0  0  0  0  0
   -0.8460   -1.0810    0.7490 C   0  0  0  0  0  0  0  0  0  0  0  0
   -0.3570   -1.5880   -0.2810 O   0  0  0  0  0  0  0  0  0  0  0  0
    1.4740    0.2430    0.1470 H   0  0  0  0  0  0  0  0  0  0  0  0
    0.0630   -0.8740    2.6030 H   0  0  0  0  0  0  0  0  0  0  0  0
    0.2450    1.4690    2.7590 H   0  0  0  0  0  0  0  0  0  0  0  0
   -1.4360    0.9370    2.5070 H   0  0  0  0  0  0  0  0  0  0  0  0
   -1.1520    1.7550    0.0270 H   0  0  0  0  0  0  0  0  0  0  0  0
    0.4790    2.2560    0.4860 H   0  0  0  0  0  0  0  0  0  0  0  0
   -0.3170    3.8630    2.0240 H   0  0  0  0  0  0  0  0  0  0  0  0
   -1.1690    4.0350    0.4500 H   0  0  0  0  0  0  0  0  0  0  0  0
   -2.7110    4.3350    2.3020 H   0  0  0  0  0  0  0  0  0  0  0  0
   -2.4370    2.6780    2.9020 H   0  0  0  0  0  0  0  0  0  0  0  0
   -3.6050    3.5570    0.3640 H   0  0  0  0  0  0  0  0  0  0  0  0
   -4.2580    2.5680    1.6300 H   0  0  0  0  0  0  0  0  0  0  0  0
   -3.4480   -0.7970   -2.9360 N   0  0  0  0  0  0  0  0  0  0  0  0
   -3.6340   -0.4590   -1.5920 C   0  0  0  0  0  0  0  0  0  0  0  0
   -3.3170    0.7330   -1.2640 O   0  0  0  0  0  0  0  0  0  0  0  0
   -4.1480   -1.3190   -0.5360 C   0  0  0  0  0  0  0  0  0  0  0  0
   -3.1660   -2.0590    0.2840 C   0  0  2  0  0  0  0  0  0  0  0  0
   -2.2210   -1.2960    1.0240 N   0  0  0  0  0  0  0  0  0  0  0  0
   -2.6620   -3.2970   -0.3560 C   0  0  0  0  0  0  0  0  0  0  0  0
   -3.4280   -3.9080   -1.1330 O   0  0  0  0  0  0  0  0  0  0  0  0
   -1.4160   -3.7710   -0.1170 O   0  0  0  0  0  0  0  0  0  0  0  0
   -4.2100   -1.1630   -3.5380 H   0  0  0  0  0  0  0  0  0  0  0  0
   -2.5090   -0.6800   -3.3630 H   0  0  0  0  0  0  0  0  0  0  0  0
   -4.7880   -0.7180    0.1790 H   0  0  0  0  0  0  0  0  0  0  0  0
   -4.8860   -2.0200   -1.0070 H   0  0  0  0  0  0  0  0  0  0  0  0
   -3.8220   -2.5430    1.1340 H   0  0  0  0  0  0  0  0  0  0  0  0
   -2.5640   -0.7960    1.9230 H   0  0  0  0  0  0  0  0  0  0  0  0
  1  2  1  0  0  0  0
  1 10  1  0  0  0  0
  2  3  2  0  0  0  0
  4  5  1  0  0  0  0
  4 13  1  0  0  0  0
  4  2  1  0  0  0  0
  5  6  1  0  0  0  0
  6 16  1  1  0  0  0
  6  8  1  0  0  0  0
  6  7  1  0  0  0  0
  7 17  1  0  0  0  0
  8  9  2  0  0  0  0
 11  1  1  0  0  0  0
 12  4  1  0  0  0  0
 14  5  1  0  0  0  0
 15  5  1  0  0  0  0
 18  7  1  0  0  0  0
 19 20  1  0  0  0  0
 19  8  1  0  0  0  0
 20 21  1  0  0  0  0
 20 29  1  1  0  0  0
 21 31  1  0  0  0  0
 21 30  1  0  0  0  0
 22 23  1  0  0  0  0
 22 21  1  0  0  0  0
 23 24  1  0  0  0  0
 23 34  1  0  0  0  0
 24 36  1  0  0  0  0
 24 37  1  0  0  0  0
 25 39  1  0  0  0  0
 25 24  1  0  0  0  0
 26 45  1  0  0  0  0
 26 20  1  0  0  0  0
 27 26  2  0  0  0  0
 28 19  1  0  0  0  0
 32 22  1  0  0  0  0
 33 22  1  0  0  0  0
 35 23  1  0  0  0  0
 38 25  1  0  0  0  0
 40 41  1  0  0  0  0
 41 42  2  0  0  0  0
 41 43  1  0  0  0  0
 43 51  1  0  0  0  0
 43 44  1  0  0  0  0
 44 45  1  0  0  0  0
 44 53  1  1  0  0  0
 45 54  1  0  0  0  0
 46 48  1  0  0  0  0
 46 44  1  0  0  0  0
 47 46  2  0  0  0  0
 49 40  1  0  0  0  0
 50 40  1  0  0  0  0
 52 43  1  0  0  0  0
M  END
$$$$
