QKQ.pdb
 OpenBabel07022418323D

 57 56  0  0  1  0  0  0  0  0999 V2000
    2.5230   -3.3180   -0.6250 N   0  0  0  0  0  0  0  0  0  0  0  0
    3.2380   -2.6910    0.4410 C   0  0  0  0  0  0  0  0  0  0  0  0
    2.8380   -2.8710    1.6120 O   0  0  0  0  0  0  0  0  0  0  0  0
    4.4230   -1.8570    0.1910 C   0  0  0  0  0  0  0  0  0  0  0  0
    4.8820   -0.9550    1.2450 C   0  0  0  0  0  0  0  0  0  0  0  0
    4.0280    0.2040    1.5990 C   0  0  2  0  0  0  0  0  0  0  0  0
    4.7200    0.9520    2.6970 N   0  0  0  0  0  0  0  0  0  0  0  0
    2.6740   -0.1210    2.0090 C   0  0  0  0  0  0  0  0  0  0  0  0
    2.4170   -0.3640    3.2440 O   0  0  0  0  0  0  0  0  0  0  0  0
    1.6430   -3.8180   -0.3960 H   0  0  0  0  0  0  0  0  0  0  0  0
    2.8390   -3.2980   -1.6160 H   0  0  0  0  0  0  0  0  0  0  0  0
    4.2030   -1.2800   -0.7750 H   0  0  0  0  0  0  0  0  0  0  0  0
    5.2970   -2.5000   -0.1350 H   0  0  0  0  0  0  0  0  0  0  0  0
    5.9650   -0.6400    1.1050 H   0  0  0  0  0  0  0  0  0  0  0  0
    4.9420   -1.5770    2.2180 H   0  0  0  0  0  0  0  0  0  0  0  0
    4.0740    0.9180    0.7370 H   0  0  0  0  0  0  0  0  0  0  0  0
    5.7170    1.0190    2.3440 H   0  0  0  0  0  0  0  0  0  0  0  0
    4.3140    1.9140    2.6510 H   0  0  0  0  0  0  0  0  0  0  0  0
    1.5150   -0.1980    1.1680 N   0  0  0  0  0  0  0  0  0  0  0  0
    0.2050   -0.5170    1.7130 C   0  0  1  0  0  0  0  0  0  0  0  0
   -0.5660    0.7880    1.9890 C   0  0  0  0  0  0  0  0  0  0  0  0
   -0.7600    1.5970    0.7600 C   0  0  0  0  0  0  0  0  0  0  0  0
   -1.4980    2.8710    0.9540 C   0  0  0  0  0  0  0  0  0  0  0  0
   -2.8860    2.7280    1.4910 C   0  0  0  0  0  0  0  0  0  0  0  0
   -3.7590    1.9560    0.6720 N   0  0  0  0  0  0  0  0  0  0  0  0
   -0.5590   -1.3740    0.7770 C   0  0  0  0  0  0  0  0  0  0  0  0
   -0.0320   -1.6420   -0.3280 O   0  0  0  0  0  0  0  0  0  0  0  0
    1.6770   -0.0130    0.1580 H   0  0  0  0  0  0  0  0  0  0  0  0
    0.2940   -0.9590    2.7270 H   0  0  0  0  0  0  0  0  0  0  0  0
    0.0540    1.3400    2.7230 H   0  0  0  0  0  0  0  0  0  0  0  0
   -1.4940    0.4990    2.5070 H   0  0  0  0  0  0  0  0  0  0  0  0
    0.2690    1.8760    0.3880 H   0  0  0  0  0  0  0  0  0  0  0  0
   -1.2240    1.0490   -0.0780 H   0  0  0  0  0  0  0  0  0  0  0  0
   -1.5620    3.4480    0.0090 H   0  0  0  0  0  0  0  0  0  0  0  0
   -0.9510    3.5570    1.6670 H   0  0  0  0  0  0  0  0  0  0  0  0
   -2.8780    2.3770    2.5650 H   0  0  0  0  0  0  0  0  0  0  0  0
   -3.3170    3.7600    1.5490 H   0  0  0  0  0  0  0  0  0  0  0  0
   -4.5000    1.4410    1.1860 H   0  0  0  0  0  0  0  0  0  0  0  0
   -3.3090    1.4270   -0.0830 H   0  0  0  0  0  0  0  0  0  0  0  0
   -2.0630   -0.7250   -4.2720 N   0  0  0  0  0  0  0  0  0  0  0  0
   -2.0600   -1.7980   -3.3530 C   0  0  0  0  0  0  0  0  0  0  0  0
   -1.7270   -2.9450   -3.7430 O   0  0  0  0  0  0  0  0  0  0  0  0
   -2.4520   -1.5910   -1.9120 C   0  0  0  0  0  0  0  0  0  0  0  0
   -2.3580   -2.8780   -1.1820 C   0  0  0  0  0  0  0  0  0  0  0  0
   -2.6930   -2.7020    0.2840 C   0  0  2  0  0  0  0  0  0  0  0  0
   -1.8290   -1.8970    1.0560 N   0  0  0  0  0  0  0  0  0  0  0  0
   -3.1340   -3.9010    0.9630 C   0  0  0  0  0  0  0  0  0  0  0  0
   -3.9050   -4.7700    0.4810 O   0  0  0  0  0  0  0  0  0  0  0  0
   -2.6680   -4.1250    2.2730 O   0  0  0  0  0  0  0  0  0  0  0  0
   -2.9590   -0.2010   -4.3870 H   0  0  0  0  0  0  0  0  0  0  0  0
   -1.2140   -0.4440   -4.8270 H   0  0  0  0  0  0  0  0  0  0  0  0
   -3.5940   -1.3880   -2.0270 H   0  0  0  0  0  0  0  0  0  0  0  0
   -2.0600   -0.7050   -1.4630 H   0  0  0  0  0  0  0  0  0  0  0  0
   -1.4030   -3.4190   -1.3320 H   0  0  0  0  0  0  0  0  0  0  0  0
   -3.1500   -3.5590   -1.5860 H   0  0  0  0  0  0  0  0  0  0  0  0
   -3.6560   -2.0310    0.1530 H   0  0  0  0  0  0  0  0  0  0  0  0
   -2.1920   -1.6300    2.0310 H   0  0  0  0  0  0  0  0  0  0  0  0
  1 10  1  0  0  0  0
  1  2  1  0  0  0  0
  2  3  2  0  0  0  0
  4  2  1  0  0  0  0
  4  5  1  0  0  0  0
  5  6  1  0  0  0  0
  5 15  1  0  0  0  0
  6 16  1  6  0  0  0
  6  8  1  0  0  0  0
  6  7  1  0  0  0  0
  8  9  2  0  0  0  0
 11  1  1  0  0  0  0
 12  4  1  0  0  0  0
 13  4  1  0  0  0  0
 14  5  1  0  0  0  0
 17  7  1  0  0  0  0
 18  7  1  0  0  0  0
 19 20  1  0  0  0  0
 19  8  1  0  0  0  0
 20 21  1  0  0  0  0
 20 29  1  1  0  0  0
 21 31  1  0  0  0  0
 21 30  1  0  0  0  0
 22 23  1  0  0  0  0
 22 21  1  0  0  0  0
 23 24  1  0  0  0  0
 23 35  1  0  0  0  0
 24 37  1  0  0  0  0
 24 36  1  0  0  0  0
 25 38  1  0  0  0  0
 25 24  1  0  0  0  0
 26 46  1  0  0  0  0
 26 20  1  0  0  0  0
 27 26  2  0  0  0  0
 28 19  1  0  0  0  0
 32 22  1  0  0  0  0
 33 22  1  0  0  0  0
 34 23  1  0  0  0  0
 39 25  1  0  0  0  0
 40 41  1  0  0  0  0
 41 43  1  0  0  0  0
 42 41  2  0  0  0  0
 43 53  1  0  0  0  0
 43 44  1  0  0  0  0
 44 45  1  0  0  0  0
 45 56  1  6  0  0  0
 45 47  1  0  0  0  0
 45 46  1  0  0  0  0
 46 57  1  0  0  0  0
 47 49  1  0  0  0  0
 48 47  2  0  0  0  0
 50 40  1  0  0  0  0
 51 40  1  0  0  0  0
 52 43  1  0  0  0  0
 54 44  1  0  0  0  0
 55 44  1  0  0  0  0
M  END
$$$$
