QKT.pdb
 OpenBabel07022418333D

 54 53  0  0  1  0  0  0  0  0999 V2000
    2.6480   -4.9130    1.3100 N   0  0  0  0  0  0  0  0  0  0  0  0
    3.2690   -3.6920    1.7240 C   0  0  0  0  0  0  0  0  0  0  0  0
    3.9100   -3.7070    2.7910 O   0  0  0  0  0  0  0  0  0  0  0  0
    3.1550   -2.4810    0.9220 C   0  0  0  0  0  0  0  0  0  0  0  0
    3.4560   -1.1890    1.5680 C   0  0  0  0  0  0  0  0  0  0  0  0
    2.5780   -0.7630    2.6980 C   0  0  2  0  0  0  0  0  0  0  0  0
    2.6400   -1.7340    3.7590 N   0  0  0  0  0  0  0  0  0  0  0  0
    1.1850   -0.7450    2.1810 C   0  0  0  0  0  0  0  0  0  0  0  0
    0.3670   -1.5450    2.6860 O   0  0  0  0  0  0  0  0  0  0  0  0
    2.9580   -5.4230    0.4470 H   0  0  0  0  0  0  0  0  0  0  0  0
    1.8770   -5.2810    1.8940 H   0  0  0  0  0  0  0  0  0  0  0  0
    3.8990   -2.5980    0.0760 H   0  0  0  0  0  0  0  0  0  0  0  0
    2.1710   -2.4930    0.3860 H   0  0  0  0  0  0  0  0  0  0  0  0
    4.5230   -1.2490    1.9440 H   0  0  0  0  0  0  0  0  0  0  0  0
    3.4520   -0.4090    0.7520 H   0  0  0  0  0  0  0  0  0  0  0  0
    2.8710    0.2590    3.0680 H   0  0  0  0  0  0  0  0  0  0  0  0
    1.7640   -1.8580    4.2820 H   0  0  0  0  0  0  0  0  0  0  0  0
    3.3550   -1.3780    4.4480 H   0  0  0  0  0  0  0  0  0  0  0  0
    0.7410    0.1300    1.1500 N   0  0  0  0  0  0  0  0  0  0  0  0
   -0.6030    0.0920    0.7080 C   0  0  1  0  0  0  0  0  0  0  0  0
   -1.3380    1.3640    0.5560 C   0  0  0  0  0  0  0  0  0  0  0  0
   -1.5060    2.2150    1.7700 C   0  0  0  0  0  0  0  0  0  0  0  0
   -0.2450    2.7240    2.3920 C   0  0  0  0  0  0  0  0  0  0  0  0
   -0.5370    3.5920    3.6120 C   0  0  0  0  0  0  0  0  0  0  0  0
   -1.2460    2.8820    4.6310 N   0  0  0  0  0  0  0  0  0  0  0  0
   -0.6080   -0.6190   -0.6310 C   0  0  0  0  0  0  0  0  0  0  0  0
    0.4390   -1.0510   -1.1700 O   0  0  0  0  0  0  0  0  0  0  0  0
    1.4160    0.7960    0.7250 H   0  0  0  0  0  0  0  0  0  0  0  0
   -1.1890   -0.5670    1.4230 H   0  0  0  0  0  0  0  0  0  0  0  0
   -2.3970    1.1510    0.1960 H   0  0  0  0  0  0  0  0  0  0  0  0
   -0.8710    1.9850   -0.2520 H   0  0  0  0  0  0  0  0  0  0  0  0
   -2.1950    3.0510    1.4780 H   0  0  0  0  0  0  0  0  0  0  0  0
   -2.0600    1.6810    2.5800 H   0  0  0  0  0  0  0  0  0  0  0  0
    0.4290    1.9170    2.6390 H   0  0  0  0  0  0  0  0  0  0  0  0
    0.2220    3.4260    1.6460 H   0  0  0  0  0  0  0  0  0  0  0  0
   -1.1170    4.4590    3.2770 H   0  0  0  0  0  0  0  0  0  0  0  0
    0.4560    3.8990    4.0140 H   0  0  0  0  0  0  0  0  0  0  0  0
   -1.2200    1.8580    4.4650 H   0  0  0  0  0  0  0  0  0  0  0  0
   -2.2110    3.2630    4.7700 H   0  0  0  0  0  0  0  0  0  0  0  0
   -2.6500   -3.3270   -4.0220 C   0  0  0  0  0  0  0  0  0  0  0  0
   -2.7450   -2.7130   -2.6400 C   0  0  1  0  0  0  0  0  0  0  0  0
   -2.3130   -3.6410   -1.7260 O   0  0  0  0  0  0  0  0  0  0  0  0
   -1.8590   -1.5010   -2.6160 C   0  0  2  0  0  0  0  0  0  0  0  0
   -1.8130   -0.8360   -1.3530 N   0  0  0  0  0  0  0  0  0  0  0  0
   -2.2930   -0.5210   -3.6500 C   0  0  0  0  0  0  0  0  0  0  0  0
   -2.5520    0.6810   -3.3490 O   0  0  0  0  0  0  0  0  0  0  0  0
   -2.4340   -0.8700   -4.9890 O   0  0  0  0  0  0  0  0  0  0  0  0
   -2.7840   -4.4200   -3.9060 H   0  0  0  0  0  0  0  0  0  0  0  0
   -3.4870   -2.9890   -4.6760 H   0  0  0  0  0  0  0  0  0  0  0  0
   -1.6630   -3.1640   -4.4870 H   0  0  0  0  0  0  0  0  0  0  0  0
   -3.8020   -2.4030   -2.5090 H   0  0  0  0  0  0  0  0  0  0  0  0
   -1.3590   -3.5930   -1.5540 H   0  0  0  0  0  0  0  0  0  0  0  0
   -0.8180   -1.7890   -2.8840 H   0  0  0  0  0  0  0  0  0  0  0  0
   -2.7320   -0.4970   -0.9550 H   0  0  0  0  0  0  0  0  0  0  0  0
  1  2  1  0  0  0  0
  1 11  1  0  0  0  0
  2  3  2  0  0  0  0
  4  5  1  0  0  0  0
  4  2  1  0  0  0  0
  5 14  1  0  0  0  0
  5  6  1  0  0  0  0
  6 16  1  1  0  0  0
  6  7  1  0  0  0  0
  7 17  1  0  0  0  0
  7 18  1  0  0  0  0
  8  9  2  0  0  0  0
  8  6  1  0  0  0  0
 10  1  1  0  0  0  0
 12  4  1  0  0  0  0
 13  4  1  0  0  0  0
 15  5  1  0  0  0  0
 19  8  1  0  0  0  0
 20 19  1  0  0  0  0
 20 29  1  1  0  0  0
 21 20  1  0  0  0  0
 21 22  1  0  0  0  0
 22 23  1  0  0  0  0
 22 33  1  0  0  0  0
 23 34  1  0  0  0  0
 23 24  1  0  0  0  0
 24 37  1  0  0  0  0
 24 25  1  0  0  0  0
 25 39  1  0  0  0  0
 26 20  1  0  0  0  0
 27 26  2  0  0  0  0
 28 19  1  0  0  0  0
 30 21  1  0  0  0  0
 31 21  1  0  0  0  0
 32 22  1  0  0  0  0
 35 23  1  0  0  0  0
 36 24  1  0  0  0  0
 38 25  1  0  0  0  0
 40 48  1  0  0  0  0
 40 41  1  0  0  0  0
 41 43  1  0  0  0  0
 41 51  1  1  0  0  0
 41 42  1  0  0  0  0
 42 52  1  0  0  0  0
 43 53  1  6  0  0  0
 43 44  1  0  0  0  0
 44 54  1  0  0  0  0
 44 26  1  0  0  0  0
 45 46  1  0  0  0  0
 45 43  1  0  0  0  0
 47 45  2  0  0  0  0
 49 40  1  0  0  0  0
 50 40  1  0  0  0  0
M  END
$$$$
