QKW.pdb
 OpenBabel07022418333D

 64 65  0  0  1  0  0  0  0  0999 V2000
    7.7940   -3.6330    1.2300 N   0  0  0  0  0  0  0  0  0  0  0  0
    6.4720   -3.0910    1.1750 C   0  0  0  0  0  0  0  0  0  0  0  0
    5.8460   -3.3280    0.0980 O   0  0  0  0  0  0  0  0  0  0  0  0
    5.9440   -2.3310    2.3170 C   0  0  0  0  0  0  0  0  0  0  0  0
    4.6370   -1.6430    2.0270 C   0  0  0  0  0  0  0  0  0  0  0  0
    4.8480   -0.6390    0.9390 C   0  0  2  0  0  0  0  0  0  0  0  0
    5.8490    0.3310    1.4160 N   0  0  0  0  0  0  0  0  0  0  0  0
    3.6120    0.1100    0.6040 C   0  0  0  0  0  0  0  0  0  0  0  0
    3.5480    1.3540    0.8440 O   0  0  0  0  0  0  0  0  0  0  0  0
    8.0200   -4.6140    0.9660 H   0  0  0  0  0  0  0  0  0  0  0  0
    8.5980   -3.0460    1.5450 H   0  0  0  0  0  0  0  0  0  0  0  0
    5.8670   -2.9200    3.2620 H   0  0  0  0  0  0  0  0  0  0  0  0
    6.6850   -1.4930    2.4890 H   0  0  0  0  0  0  0  0  0  0  0  0
    3.9360   -2.4240    1.6070 H   0  0  0  0  0  0  0  0  0  0  0  0
    4.1860   -1.2070    2.9430 H   0  0  0  0  0  0  0  0  0  0  0  0
    5.2910   -1.1360    0.0690 H   0  0  0  0  0  0  0  0  0  0  0  0
    6.3790    0.6350    0.5740 H   0  0  0  0  0  0  0  0  0  0  0  0
    5.3170    1.1610    1.7630 H   0  0  0  0  0  0  0  0  0  0  0  0
    2.4710   -0.4680    0.0230 N   0  0  0  0  0  0  0  0  0  0  0  0
    1.2440    0.2960   -0.3070 C   0  0  1  0  0  0  0  0  0  0  0  0
    1.1190    0.3030   -1.8240 C   0  0  0  0  0  0  0  0  0  0  0  0
   -0.1060    1.0400   -2.2710 C   0  0  0  0  0  0  0  0  0  0  0  0
   -0.1560    1.0790   -3.8030 C   0  0  0  0  0  0  0  0  0  0  0  0
   -0.2070   -0.3090   -4.3900 C   0  0  0  0  0  0  0  0  0  0  0  0
   -0.2630   -0.1700   -5.8540 N   0  0  0  0  0  0  0  0  0  0  0  0
    0.1100   -0.3490    0.3850 C   0  0  0  0  0  0  0  0  0  0  0  0
    0.2700   -1.4860    0.9640 O   0  0  0  0  0  0  0  0  0  0  0  0
    2.4490   -1.4740   -0.2010 H   0  0  0  0  0  0  0  0  0  0  0  0
    1.3830    1.3080    0.0730 H   0  0  0  0  0  0  0  0  0  0  0  0
    2.0160    0.8220   -2.2060 H   0  0  0  0  0  0  0  0  0  0  0  0
    1.0280   -0.7540   -2.1800 H   0  0  0  0  0  0  0  0  0  0  0  0
   -0.2200    2.0290   -1.8420 H   0  0  0  0  0  0  0  0  0  0  0  0
   -0.9680    0.3350   -2.0280 H   0  0  0  0  0  0  0  0  0  0  0  0
    0.7790    1.5650   -4.1290 H   0  0  0  0  0  0  0  0  0  0  0  0
   -1.0740    1.5990   -4.1130 H   0  0  0  0  0  0  0  0  0  0  0  0
    0.7030   -0.9180   -4.1520 H   0  0  0  0  0  0  0  0  0  0  0  0
   -1.0920   -0.8880   -4.0600 H   0  0  0  0  0  0  0  0  0  0  0  0
   -0.4280   -1.1040   -6.2950 H   0  0  0  0  0  0  0  0  0  0  0  0
    0.6520    0.1760   -6.2170 H   0  0  0  0  0  0  0  0  0  0  0  0
   -1.1780    0.1880    0.4740 N   0  0  0  0  0  0  0  0  0  0  0  0
   -2.2930   -0.4560    1.1500 C   0  0  1  0  0  0  0  0  0  0  0  0
   -2.8360    0.3770    2.2420 C   0  0  0  0  0  0  0  0  0  0  0  0
   -4.0050   -0.2000    2.9120 C   0  0  0  0  0  0  0  0  0  0  0  0
   -3.9890   -1.0430    4.0300 C   0  0  0  0  0  0  0  0  0  0  0  0
   -5.2420   -1.4090    4.3400 N   0  0  0  0  0  0  0  0  0  0  0  0
   -6.0960   -0.8470    3.4790 C   0  0  0  0  0  0  0  0  0  0  0  0
   -7.4640   -0.8810    3.3670 C   0  0  0  0  0  0  0  0  0  0  0  0
   -8.1380   -0.1730    2.3740 C   0  0  0  0  0  0  0  0  0  0  0  0
   -7.3640    0.5640    1.5100 C   0  0  0  0  0  0  0  0  0  0  0  0
   -6.0080    0.6210    1.5890 C   0  0  0  0  0  0  0  0  0  0  0  0
   -5.3670   -0.0990    2.5930 C   0  0  0  0  0  0  0  0  0  0  0  0
   -3.3110   -0.9350    0.2210 C   0  0  0  0  0  0  0  0  0  0  0  0
   -3.3070   -0.6250   -0.9980 O   0  0  0  0  0  0  0  0  0  0  0  0
   -4.3450   -1.7690    0.6220 O   0  0  0  0  0  0  0  0  0  0  0  0
   -1.4120    1.1340    0.0580 H   0  0  0  0  0  0  0  0  0  0  0  0
   -1.8290   -1.4060    1.5940 H   0  0  0  0  0  0  0  0  0  0  0  0
   -2.0590    0.5260    3.0540 H   0  0  0  0  0  0  0  0  0  0  0  0
   -3.1520    1.3660    1.8350 H   0  0  0  0  0  0  0  0  0  0  0  0
   -3.0860   -1.3370    4.5430 H   0  0  0  0  0  0  0  0  0  0  0  0
   -5.5300   -2.0320    5.1240 H   0  0  0  0  0  0  0  0  0  0  0  0
   -8.0060   -1.4870    4.0890 H   0  0  0  0  0  0  0  0  0  0  0  0
   -9.2160   -0.2280    2.3230 H   0  0  0  0  0  0  0  0  0  0  0  0
   -7.8570    1.1330    0.7210 H   0  0  0  0  0  0  0  0  0  0  0  0
   -5.4200    1.2200    0.8810 H   0  0  0  0  0  0  0  0  0  0  0  0
  1 11  1  0  0  0  0
  2  1  1  0  0  0  0
  2  4  1  0  0  0  0
  3  2  2  0  0  0  0
  4 13  1  0  0  0  0
  4 12  1  0  0  0  0
  5  4  1  0  0  0  0
  5 15  1  0  0  0  0
  6 16  1  6  0  0  0
  6  7  1  0  0  0  0
  6  5  1  0  0  0  0
  7 18  1  0  0  0  0
  8  9  2  0  0  0  0
  8  6  1  0  0  0  0
 10  1  1  0  0  0  0
 14  5  1  0  0  0  0
 17  7  1  0  0  0  0
 19  8  1  0  0  0  0
 20 19  1  0  0  0  0
 20 29  1  1  0  0  0
 20 26  1  0  0  0  0
 21 20  1  0  0  0  0
 22 33  1  0  0  0  0
 22 32  1  0  0  0  0
 22 21  1  0  0  0  0
 23 22  1  0  0  0  0
 24 36  1  0  0  0  0
 24 37  1  0  0  0  0
 24 23  1  0  0  0  0
 25 24  1  0  0  0  0
 26 40  1  0  0  0  0
 26 27  2  0  0  0  0
 28 19  1  0  0  0  0
 30 21  1  0  0  0  0
 31 21  1  0  0  0  0
 34 23  1  0  0  0  0
 35 23  1  0  0  0  0
 38 25  1  0  0  0  0
 39 25  1  0  0  0  0
 40 41  1  0  0  0  0
 41 56  1  1  0  0  0
 41 42  1  0  0  0  0
 42 43  1  0  0  0  0
 42 57  1  0  0  0  0
 43 44  2  0  0  0  0
 44 45  1  0  0  0  0
 44 59  1  0  0  0  0
 45 60  1  0  0  0  0
 46 45  1  0  0  0  0
 47 46  1  0  0  0  0
 47 61  1  0  0  0  0
 48 47  2  0  0  0  0
 49 50  2  0  0  0  0
 49 48  1  0  0  0  0
 50 51  1  0  0  0  0
 51 43  1  0  0  0  0
 51 46  2  0  0  0  0
 52 54  1  0  0  0  0
 52 41  1  0  0  0  0
 53 52  2  0  0  0  0
 55 40  1  0  0  0  0
 58 42  1  0  0  0  0
 62 48  1  0  0  0  0
 63 49  1  0  0  0  0
 64 50  1  0  0  0  0
M  END
$$$$
