QKY.pdb
 OpenBabel07022418333D

 61 61  0  0  1  0  0  0  0  0999 V2000
    5.7210   -1.9220    4.5630 N   0  0  0  0  0  0  0  0  0  0  0  0
    4.9700   -0.8360    4.0000 C   0  0  0  0  0  0  0  0  0  0  0  0
    5.1120   -0.6090    2.7640 O   0  0  0  0  0  0  0  0  0  0  0  0
    4.0730   -0.0060    4.8070 C   0  0  0  0  0  0  0  0  0  0  0  0
    2.9470    0.6720    4.1130 C   0  0  0  0  0  0  0  0  0  0  0  0
    1.9870   -0.2860    3.5070 C   0  0  2  0  0  0  0  0  0  0  0  0
    2.6230   -1.1060    2.5260 N   0  0  0  0  0  0  0  0  0  0  0  0
    0.7840    0.3960    2.9440 C   0  0  0  0  0  0  0  0  0  0  0  0
    0.0660    1.1620    3.6430 O   0  0  0  0  0  0  0  0  0  0  0  0
    5.7320   -2.8360    4.0920 H   0  0  0  0  0  0  0  0  0  0  0  0
    6.2440   -1.7820    5.4380 H   0  0  0  0  0  0  0  0  0  0  0  0
    4.7010    0.7480    5.3840 H   0  0  0  0  0  0  0  0  0  0  0  0
    3.6550   -0.6800    5.6110 H   0  0  0  0  0  0  0  0  0  0  0  0
    3.3250    1.3440    3.3040 H   0  0  0  0  0  0  0  0  0  0  0  0
    2.3900    1.2510    4.8870 H   0  0  0  0  0  0  0  0  0  0  0  0
    1.6070   -1.0010    4.2980 H   0  0  0  0  0  0  0  0  0  0  0  0
    2.6980   -0.7290    1.5800 H   0  0  0  0  0  0  0  0  0  0  0  0
    2.3250   -2.1010    2.4950 H   0  0  0  0  0  0  0  0  0  0  0  0
    0.3720    0.2390    1.6230 N   0  0  0  0  0  0  0  0  0  0  0  0
   -0.8160    0.9060    1.0300 C   0  0  1  0  0  0  0  0  0  0  0  0
   -0.4500    1.8080   -0.0220 C   0  0  0  0  0  0  0  0  0  0  0  0
   -1.4500    2.6090   -0.7370 C   0  0  0  0  0  0  0  0  0  0  0  0
   -2.5010    2.0150   -1.5720 C   0  0  0  0  0  0  0  0  0  0  0  0
   -1.9510    1.1300   -2.6810 C   0  0  0  0  0  0  0  0  0  0  0  0
   -3.0760    0.6170   -3.4330 N   0  0  0  0  0  0  0  0  0  0  0  0
   -1.7640   -0.1840    0.8060 C   0  0  0  0  0  0  0  0  0  0  0  0
   -2.9390   -0.0830    0.4000 O   0  0  0  0  0  0  0  0  0  0  0  0
    0.8790   -0.3630    0.9520 H   0  0  0  0  0  0  0  0  0  0  0  0
   -1.2350    1.4990    1.8980 H   0  0  0  0  0  0  0  0  0  0  0  0
    0.1910    1.2360   -0.8150 H   0  0  0  0  0  0  0  0  0  0  0  0
    0.2780    2.5900    0.4010 H   0  0  0  0  0  0  0  0  0  0  0  0
   -0.9250    3.3800   -1.4320 H   0  0  0  0  0  0  0  0  0  0  0  0
   -1.9750    3.3430   -0.0370 H   0  0  0  0  0  0  0  0  0  0  0  0
   -3.4460    1.7030   -1.1450 H   0  0  0  0  0  0  0  0  0  0  0  0
   -2.8780    2.9370   -2.2160 H   0  0  0  0  0  0  0  0  0  0  0  0
   -1.3000    0.3370   -2.2920 H   0  0  0  0  0  0  0  0  0  0  0  0
   -1.3300    1.7350   -3.3960 H   0  0  0  0  0  0  0  0  0  0  0  0
   -2.7100    0.1940   -4.3190 H   0  0  0  0  0  0  0  0  0  0  0  0
   -3.7850    1.3360   -3.6540 H   0  0  0  0  0  0  0  0  0  0  0  0
   -0.6520   -1.5740   -5.1750 O   0  0  0  0  0  0  0  0  0  0  0  0
   -0.9390   -2.1150   -3.9120 C   0  0  0  0  0  0  0  0  0  0  0  0
    0.0270   -2.1950   -2.9330 C   0  0  0  0  0  0  0  0  0  0  0  0
   -0.2130   -2.7210   -1.6730 C   0  0  0  0  0  0  0  0  0  0  0  0
   -1.4710   -3.1950   -1.3600 C   0  0  0  0  0  0  0  0  0  0  0  0
   -1.8220   -3.7690   -0.0270 C   0  0  0  0  0  0  0  0  0  0  0  0
   -2.3440   -2.6630    0.8390 C   0  0  2  0  0  0  0  0  0  0  0  0
   -1.4070   -1.5820    1.0550 N   0  0  0  0  0  0  0  0  0  0  0  0
   -2.7060   -3.2210    2.1810 C   0  0  0  0  0  0  0  0  0  0  0  0
   -3.5180   -4.1740    2.2970 O   0  0  0  0  0  0  0  0  0  0  0  0
   -2.4380   -3.1140   -2.3490 C   0  0  0  0  0  0  0  0  0  0  0  0
   -2.2010   -2.5900   -3.6020 C   0  0  0  0  0  0  0  0  0  0  0  0
   -2.1280   -2.6630    3.2990 O   0  0  0  0  0  0  0  0  0  0  0  0
   -1.3550   -1.5300   -5.9010 H   0  0  0  0  0  0  0  0  0  0  0  0
    1.0200   -1.8240   -3.1680 H   0  0  0  0  0  0  0  0  0  0  0  0
    0.5580   -2.7750   -0.9220 H   0  0  0  0  0  0  0  0  0  0  0  0
   -2.6930   -4.4590   -0.2130 H   0  0  0  0  0  0  0  0  0  0  0  0
   -0.9810   -4.3150    0.4010 H   0  0  0  0  0  0  0  0  0  0  0  0
   -3.3120   -2.2950    0.4220 H   0  0  0  0  0  0  0  0  0  0  0  0
   -0.4660   -1.7790    1.3940 H   0  0  0  0  0  0  0  0  0  0  0  0
   -3.4280   -3.4850   -2.1060 H   0  0  0  0  0  0  0  0  0  0  0  0
   -2.9580   -2.5250   -4.3790 H   0  0  0  0  0  0  0  0  0  0  0  0
  1 11  1  0  0  0  0
  2  1  1  0  0  0  0
  2  4  1  0  0  0  0
  3  2  2  0  0  0  0
  4 12  1  0  0  0  0
  4 13  1  0  0  0  0
  5  4  1  0  0  0  0
  5 15  1  0  0  0  0
  6  5  1  0  0  0  0
  6 16  1  1  0  0  0
  7  6  1  0  0  0  0
  8  6  1  0  0  0  0
  8  9  2  0  0  0  0
 10  1  1  0  0  0  0
 14  5  1  0  0  0  0
 17  7  1  0  0  0  0
 18  7  1  0  0  0  0
 19  8  1  0  0  0  0
 20 19  1  0  0  0  0
 20 29  1  1  0  0  0
 21 31  1  0  0  0  0
 21 20  1  0  0  0  0
 22 33  1  0  0  0  0
 22 21  1  0  0  0  0
 23 34  1  0  0  0  0
 23 22  1  0  0  0  0
 24 36  1  0  0  0  0
 24 23  1  0  0  0  0
 25 24  1  0  0  0  0
 26 20  1  0  0  0  0
 26 47  1  0  0  0  0
 27 26  2  0  0  0  0
 28 19  1  0  0  0  0
 30 21  1  0  0  0  0
 32 22  1  0  0  0  0
 35 23  1  0  0  0  0
 37 24  1  0  0  0  0
 38 25  1  0  0  0  0
 39 25  1  0  0  0  0
 40 41  1  0  0  0  0
 41 51  2  0  0  0  0
 41 42  1  0  0  0  0
 42 43  2  0  0  0  0
 43 44  1  0  0  0  0
 43 55  1  0  0  0  0
 44 45  1  0  0  0  0
 45 57  1  0  0  0  0
 45 46  1  0  0  0  0
 46 58  1  6  0  0  0
 46 47  1  0  0  0  0
 46 48  1  0  0  0  0
 47 59  1  0  0  0  0
 48 49  2  0  0  0  0
 48 52  1  0  0  0  0
 50 60  1  0  0  0  0
 50 44  2  0  0  0  0
 51 50  1  0  0  0  0
 53 40  1  0  0  0  0
 54 42  1  0  0  0  0
 56 45  1  0  0  0  0
 61 51  1  0  0  0  0
M  END
$$$$
