QLA.pdb
 OpenBabel07022418323D

 48 47  0  0  1  0  0  0  0  0999 V2000
   -0.1540   -6.0130   -1.1020 N   0  0  0  0  0  0  0  0  0  0  0  0
    0.0570   -4.6760   -0.6730 C   0  0  0  0  0  0  0  0  0  0  0  0
   -0.5040   -3.7540   -1.2970 O   0  0  0  0  0  0  0  0  0  0  0  0
    0.9120   -4.3760    0.4800 C   0  0  0  0  0  0  0  0  0  0  0  0
    1.1660   -2.9330    0.7410 C   0  0  0  0  0  0  0  0  0  0  0  0
    1.8720   -2.2050   -0.3760 C   0  0  2  0  0  0  0  0  0  0  0  0
    3.1730   -2.7990   -0.6470 N   0  0  0  0  0  0  0  0  0  0  0  0
    1.9790   -0.7590   -0.1070 C   0  0  0  0  0  0  0  0  0  0  0  0
    3.0610   -0.1160   -0.1110 O   0  0  0  0  0  0  0  0  0  0  0  0
    0.5450   -6.5190   -1.6850 H   0  0  0  0  0  0  0  0  0  0  0  0
   -1.0360   -6.5210   -0.8320 H   0  0  0  0  0  0  0  0  0  0  0  0
    1.8740   -4.9270    0.3080 H   0  0  0  0  0  0  0  0  0  0  0  0
    0.4780   -4.8280    1.4050 H   0  0  0  0  0  0  0  0  0  0  0  0
    1.7770   -2.7970    1.6510 H   0  0  0  0  0  0  0  0  0  0  0  0
    0.1800   -2.4420    0.9420 H   0  0  0  0  0  0  0  0  0  0  0  0
    1.2880   -2.3450   -1.3040 H   0  0  0  0  0  0  0  0  0  0  0  0
    3.1870   -3.3780   -1.5020 H   0  0  0  0  0  0  0  0  0  0  0  0
    3.5530   -3.3150    0.1770 H   0  0  0  0  0  0  0  0  0  0  0  0
   -1.6550    0.7470   -1.4400 C   0  0  0  0  0  0  0  0  0  0  0  0
   -1.3190    2.0860   -0.8350 C   0  0  0  0  0  0  0  0  0  0  0  0
   -1.7720    3.1440   -1.8580 C   0  0  0  0  0  0  0  0  0  0  0  0
    0.1160    2.2720   -0.5190 C   0  0  0  0  0  0  0  0  0  0  0  0
    0.7570    1.3630    0.4490 C   0  0  2  0  0  0  0  0  0  0  0  0
    0.7860   -0.0280    0.1780 N   0  0  0  0  0  0  0  0  0  0  0  0
    0.1690    1.5880    1.7960 C   0  0  0  0  0  0  0  0  0  0  0  0
    0.0260    2.7450    2.2820 O   0  0  0  0  0  0  0  0  0  0  0  0
   -2.3900    0.8750   -2.3020 H   0  0  0  0  0  0  0  0  0  0  0  0
   -2.1660    0.0550   -0.7310 H   0  0  0  0  0  0  0  0  0  0  0  0
   -0.7810    0.2750   -1.8920 H   0  0  0  0  0  0  0  0  0  0  0  0
   -1.9860    2.2250    0.0470 H   0  0  0  0  0  0  0  0  0  0  0  0
   -2.0640    4.0760   -1.3700 H   0  0  0  0  0  0  0  0  0  0  0  0
   -2.5390    2.7240   -2.5400 H   0  0  0  0  0  0  0  0  0  0  0  0
   -0.8710    3.3240   -2.5150 H   0  0  0  0  0  0  0  0  0  0  0  0
    0.2020    3.3100   -0.0620 H   0  0  0  0  0  0  0  0  0  0  0  0
    0.7360    2.3880   -1.4540 H   0  0  0  0  0  0  0  0  0  0  0  0
    1.8300    1.7150    0.5360 H   0  0  0  0  0  0  0  0  0  0  0  0
   -0.1010   -0.5690    0.1960 H   0  0  0  0  0  0  0  0  0  0  0  0
   -2.2440    0.1070    3.8910 C   0  0  0  0  0  0  0  0  0  0  0  0
   -0.8410    0.6830    3.9170 C   0  0  2  0  0  0  0  0  0  0  0  0
   -0.2670    0.5060    2.6100 N   0  0  0  0  0  0  0  0  0  0  0  0
   -0.0420   -0.0380    4.9100 C   0  0  0  0  0  0  0  0  0  0  0  0
   -0.3500   -0.0310    6.1380 O   0  0  0  0  0  0  0  0  0  0  0  0
    1.0760   -0.7460    4.5150 O   0  0  0  0  0  0  0  0  0  0  0  0
   -2.8400    0.6390    3.1450 H   0  0  0  0  0  0  0  0  0  0  0  0
   -2.6510    0.2210    4.9270 H   0  0  0  0  0  0  0  0  0  0  0  0
   -2.1390   -0.9670    3.6430 H   0  0  0  0  0  0  0  0  0  0  0  0
   -0.8650    1.7840    4.1300 H   0  0  0  0  0  0  0  0  0  0  0  0
   -0.1660   -0.4740    2.2430 H   0  0  0  0  0  0  0  0  0  0  0  0
  1 11  1  0  0  0  0
  1  2  1  0  0  0  0
  2  4  1  0  0  0  0
  3  2  2  0  0  0  0
  4  5  1  0  0  0  0
  4 13  1  0  0  0  0
  5 15  1  0  0  0  0
  5 14  1  0  0  0  0
  6 16  1  6  0  0  0
  6  8  1  0  0  0  0
  6  5  1  0  0  0  0
  7  6  1  0  0  0  0
  7 18  1  0  0  0  0
  8 24  1  0  0  0  0
  9  8  2  0  0  0  0
 10  1  1  0  0  0  0
 12  4  1  0  0  0  0
 17  7  1  0  0  0  0
 19 20  1  0  0  0  0
 19 28  1  0  0  0  0
 20 22  1  0  0  0  0
 20 30  1  0  0  0  0
 21 31  1  0  0  0  0
 21 20  1  0  0  0  0
 22 34  1  0  0  0  0
 22 23  1  0  0  0  0
 23 36  1  1  0  0  0
 23 25  1  0  0  0  0
 24 37  1  0  0  0  0
 24 23  1  0  0  0  0
 25 26  2  0  0  0  0
 25 40  1  0  0  0  0
 27 19  1  0  0  0  0
 29 19  1  0  0  0  0
 32 21  1  0  0  0  0
 33 21  1  0  0  0  0
 35 22  1  0  0  0  0
 38 39  1  0  0  0  0
 38 45  1  0  0  0  0
 39 47  1  1  0  0  0
 39 41  1  0  0  0  0
 40 39  1  0  0  0  0
 41 42  1  0  0  0  0
 43 41  2  0  0  0  0
 44 38  1  0  0  0  0
 46 38  1  0  0  0  0
 48 40  1  0  0  0  0
M  END
$$$$
