QLC.pdb
 OpenBabel07022418323D

 49 48  0  0  1  0  0  0  0  0999 V2000
   -2.1040   -1.9700    6.0440 N   0  0  0  0  0  0  0  0  0  0  0  0
   -1.3710   -1.2500    5.0780 C   0  0  0  0  0  0  0  0  0  0  0  0
   -2.0250   -0.5190    4.2660 O   0  0  0  0  0  0  0  0  0  0  0  0
    0.0970   -1.3170    4.9830 C   0  0  0  0  0  0  0  0  0  0  0  0
    0.6440   -0.8270    3.6430 C   0  0  0  0  0  0  0  0  0  0  0  0
    0.0720   -1.7220    2.5830 C   0  0  2  0  0  0  0  0  0  0  0  0
    0.5360   -3.0770    2.9440 N   0  0  0  0  0  0  0  0  0  0  0  0
    0.6130   -1.4240    1.2100 C   0  0  0  0  0  0  0  0  0  0  0  0
    1.3090   -2.3130    0.6660 O   0  0  0  0  0  0  0  0  0  0  0  0
   -2.6550   -1.4480    6.7720 H   0  0  0  0  0  0  0  0  0  0  0  0
   -2.1270   -3.0150    6.0710 H   0  0  0  0  0  0  0  0  0  0  0  0
    0.3770   -2.3740    5.1950 H   0  0  0  0  0  0  0  0  0  0  0  0
    0.5850   -0.7410    5.8240 H   0  0  0  0  0  0  0  0  0  0  0  0
    0.2910    0.2260    3.5570 H   0  0  0  0  0  0  0  0  0  0  0  0
    1.7410   -0.8730    3.6970 H   0  0  0  0  0  0  0  0  0  0  0  0
   -1.0110   -1.6680    2.5620 H   0  0  0  0  0  0  0  0  0  0  0  0
    1.5700   -3.0440    2.8050 H   0  0  0  0  0  0  0  0  0  0  0  0
    0.1320   -3.7200    2.2320 H   0  0  0  0  0  0  0  0  0  0  0  0
    4.4880   -0.8710   -0.7690 C   0  0  0  0  0  0  0  0  0  0  0  0
    3.2300   -0.1600   -0.2660 C   0  0  0  0  0  0  0  0  0  0  0  0
    3.5820    1.3300   -0.3160 C   0  0  0  0  0  0  0  0  0  0  0  0
    2.0990   -0.4820   -1.1830 C   0  0  0  0  0  0  0  0  0  0  0  0
    0.8130    0.2050   -0.7220 C   0  0  2  0  0  0  0  0  0  0  0  0
    0.3570   -0.2130    0.5590 N   0  0  0  0  0  0  0  0  0  0  0  0
   -0.2180    0.2790   -1.7600 C   0  0  0  0  0  0  0  0  0  0  0  0
    0.0290    0.5570   -2.9670 O   0  0  0  0  0  0  0  0  0  0  0  0
    4.9840   -0.2290   -1.5280 H   0  0  0  0  0  0  0  0  0  0  0  0
    5.1880   -1.0110    0.0820 H   0  0  0  0  0  0  0  0  0  0  0  0
    4.1700   -1.8370   -1.2030 H   0  0  0  0  0  0  0  0  0  0  0  0
    3.0280   -0.4330    0.7680 H   0  0  0  0  0  0  0  0  0  0  0  0
    3.1790    1.8320   -1.2060 H   0  0  0  0  0  0  0  0  0  0  0  0
    3.1540    1.7880    0.6150 H   0  0  0  0  0  0  0  0  0  0  0  0
    4.6850    1.4940   -0.2990 H   0  0  0  0  0  0  0  0  0  0  0  0
    2.0010   -1.5610   -1.3290 H   0  0  0  0  0  0  0  0  0  0  0  0
    2.3130   -0.0650   -2.2240 H   0  0  0  0  0  0  0  0  0  0  0  0
    1.2180    1.2850   -0.6020 H   0  0  0  0  0  0  0  0  0  0  0  0
   -0.2590    0.4920    1.0820 H   0  0  0  0  0  0  0  0  0  0  0  0
   -1.5700    0.0310   -1.4110 N   0  0  0  0  0  0  0  0  0  0  0  0
   -2.6740    0.0650   -2.3460 C   0  0  1  0  0  0  0  0  0  0  0  0
   -3.6710   -1.0020   -2.0030 C   0  0  0  0  0  0  0  0  0  0  0  0
   -2.9010   -2.6360   -2.0750 S   0  0  0  0  0  0  0  0  0  0  0  0
   -3.3090    1.4180   -2.3800 C   0  0  0  0  0  0  0  0  0  0  0  0
   -4.2680    1.5990   -3.1590 O   0  0  0  0  0  0  0  0  0  0  0  0
   -2.8760    2.4640   -1.5920 O   0  0  0  0  0  0  0  0  0  0  0  0
   -1.8050   -0.2030   -0.3990 H   0  0  0  0  0  0  0  0  0  0  0  0
   -2.2590   -0.1310   -3.3580 H   0  0  0  0  0  0  0  0  0  0  0  0
   -4.0660   -0.8160   -0.9800 H   0  0  0  0  0  0  0  0  0  0  0  0
   -4.5390   -0.9570   -2.7150 H   0  0  0  0  0  0  0  0  0  0  0  0
   -3.0550   -3.2230   -3.3300 H   0  0  0  0  0  0  0  0  0  0  0  0
  1 11  1  0  0  0  0
  1 10  1  0  0  0  0
  2  1  1  0  0  0  0
  3  2  2  0  0  0  0
  4  2  1  0  0  0  0
  4 12  1  0  0  0  0
  4 13  1  0  0  0  0
  5 15  1  0  0  0  0
  5  4  1  0  0  0  0
  6 16  1  1  0  0  0
  6  7  1  0  0  0  0
  6  5  1  0  0  0  0
  8  6  1  0  0  0  0
  9  8  2  0  0  0  0
 14  5  1  0  0  0  0
 17  7  1  0  0  0  0
 18  7  1  0  0  0  0
 19 20  1  0  0  0  0
 19 28  1  0  0  0  0
 20 30  1  0  0  0  0
 21 33  1  0  0  0  0
 21 20  1  0  0  0  0
 21 32  1  0  0  0  0
 22 23  1  0  0  0  0
 22 20  1  0  0  0  0
 23 36  1  1  0  0  0
 23 24  1  0  0  0  0
 24 37  1  0  0  0  0
 24  8  1  0  0  0  0
 25 38  1  0  0  0  0
 25 23  1  0  0  0  0
 26 25  2  0  0  0  0
 27 19  1  0  0  0  0
 29 19  1  0  0  0  0
 31 21  1  0  0  0  0
 34 22  1  0  0  0  0
 35 22  1  0  0  0  0
 38 45  1  0  0  0  0
 39 46  1  6  0  0  0
 39 40  1  0  0  0  0
 39 38  1  0  0  0  0
 40 47  1  0  0  0  0
 41 40  1  0  0  0  0
 42 39  1  0  0  0  0
 42 44  1  0  0  0  0
 43 42  2  0  0  0  0
 48 40  1  0  0  0  0
 49 41  1  0  0  0  0
M  END
$$$$
