QLE.pdb
 OpenBabel07022418323D

 54 53  0  0  1  0  0  0  0  0999 V2000
   -0.2440   -4.7660    1.7630 N   0  0  0  0  0  0  0  0  0  0  0  0
    0.8370   -3.8510    1.6190 C   0  0  0  0  0  0  0  0  0  0  0  0
    0.6890   -2.7190    2.1250 O   0  0  0  0  0  0  0  0  0  0  0  0
    2.0820   -4.2320    0.9070 C   0  0  0  0  0  0  0  0  0  0  0  0
    2.9830   -3.1040    0.5800 C   0  0  0  0  0  0  0  0  0  0  0  0
    2.5640   -2.0880   -0.3990 C   0  0  2  0  0  0  0  0  0  0  0  0
    3.7010   -1.1160   -0.4390 N   0  0  0  0  0  0  0  0  0  0  0  0
    1.3590   -1.3000   -0.1900 C   0  0  0  0  0  0  0  0  0  0  0  0
    0.2520   -1.7520   -0.6740 O   0  0  0  0  0  0  0  0  0  0  0  0
   -0.0120   -5.7150    2.1620 H   0  0  0  0  0  0  0  0  0  0  0  0
   -1.2210   -4.5460    1.5040 H   0  0  0  0  0  0  0  0  0  0  0  0
    2.6050   -4.9780    1.5700 H   0  0  0  0  0  0  0  0  0  0  0  0
    1.8190   -4.8370   -0.0000 H   0  0  0  0  0  0  0  0  0  0  0  0
    3.1470   -2.5390    1.5680 H   0  0  0  0  0  0  0  0  0  0  0  0
    4.0300   -3.4800    0.3710 H   0  0  0  0  0  0  0  0  0  0  0  0
    2.5810   -2.5770   -1.4110 H   0  0  0  0  0  0  0  0  0  0  0  0
    3.3720   -0.2300   -0.8460 H   0  0  0  0  0  0  0  0  0  0  0  0
    3.9480   -0.9470    0.5610 H   0  0  0  0  0  0  0  0  0  0  0  0
    1.7830    2.8840    2.6010 C   0  0  0  0  0  0  0  0  0  0  0  0
    1.7310    2.9210    1.0900 C   0  0  0  0  0  0  0  0  0  0  0  0
    3.0190    2.6190    0.4340 C   0  0  0  0  0  0  0  0  0  0  0  0
    0.5330    2.2840    0.4820 C   0  0  0  0  0  0  0  0  0  0  0  0
    0.2930    0.8290    0.8260 C   0  0  2  0  0  0  0  0  0  0  0  0
    1.2760   -0.0760    0.4920 N   0  0  0  0  0  0  0  0  0  0  0  0
   -1.1540    0.5550    0.8640 C   0  0  0  0  0  0  0  0  0  0  0  0
   -1.9440    1.6130    0.8540 O   0  0  0  0  0  0  0  0  0  0  0  0
    1.9360    1.8780    3.0190 H   0  0  0  0  0  0  0  0  0  0  0  0
    2.7000    3.4720    2.8820 H   0  0  0  0  0  0  0  0  0  0  0  0
    0.9480    3.4320    3.0330 H   0  0  0  0  0  0  0  0  0  0  0  0
    1.5450    4.0540    0.8700 H   0  0  0  0  0  0  0  0  0  0  0  0
    3.7230    2.0480    1.0980 H   0  0  0  0  0  0  0  0  0  0  0  0
    2.8570    2.0600   -0.5110 H   0  0  0  0  0  0  0  0  0  0  0  0
    3.5150    3.5730    0.0980 H   0  0  0  0  0  0  0  0  0  0  0  0
    0.6610    2.4160   -0.6310 H   0  0  0  0  0  0  0  0  0  0  0  0
   -0.4120    2.8730    0.7000 H   0  0  0  0  0  0  0  0  0  0  0  0
    0.4460    0.8930    2.0280 H   0  0  0  0  0  0  0  0  0  0  0  0
    2.3130    0.2060    0.8530 H   0  0  0  0  0  0  0  0  0  0  0  0
   -1.8820   -0.6250    0.9170 N   0  0  0  0  0  0  0  0  0  0  0  0
   -3.3400   -0.6790    0.9370 C   0  0  1  0  0  0  0  0  0  0  0  0
   -3.7970   -1.2900   -0.3670 C   0  0  0  0  0  0  0  0  0  0  0  0
   -3.3800   -0.5050   -1.5800 C   0  0  0  0  0  0  0  0  0  0  0  0
   -3.9000   -1.1860   -2.7890 C   0  0  0  0  0  0  0  0  0  0  0  0
   -4.5650   -2.2330   -2.6530 O   0  0  0  0  0  0  0  0  0  0  0  0
   -3.8940   -1.4400    2.0530 C   0  0  0  0  0  0  0  0  0  0  0  0
   -5.1580   -1.5150    2.1230 O   0  0  0  0  0  0  0  0  0  0  0  0
   -3.6830   -0.7150   -4.0660 O   0  0  0  0  0  0  0  0  0  0  0  0
   -3.1790   -2.0890    3.0440 O   0  0  0  0  0  0  0  0  0  0  0  0
   -1.3900   -1.5030    0.9850 H   0  0  0  0  0  0  0  0  0  0  0  0
   -3.7760    0.3410    0.9590 H   0  0  0  0  0  0  0  0  0  0  0  0
   -4.8880   -1.4820   -0.4010 H   0  0  0  0  0  0  0  0  0  0  0  0
   -3.3350   -2.3260   -0.5030 H   0  0  0  0  0  0  0  0  0  0  0  0
   -2.2680   -0.4460   -1.6750 H   0  0  0  0  0  0  0  0  0  0  0  0
   -3.7690    0.5370   -1.4860 H   0  0  0  0  0  0  0  0  0  0  0  0
   -4.4620   -0.6550   -4.7340 H   0  0  0  0  0  0  0  0  0  0  0  0
  1 10  1  0  0  0  0
  2  1  1  0  0  0  0
  2  3  2  0  0  0  0
  4 12  1  0  0  0  0
  4  2  1  0  0  0  0
  5  4  1  0  0  0  0
  5 14  1  0  0  0  0
  6 16  1  6  0  0  0
  6  8  1  0  0  0  0
  6  5  1  0  0  0  0
  7  6  1  0  0  0  0
  7 18  1  0  0  0  0
  8 24  1  0  0  0  0
  9  8  2  0  0  0  0
 11  1  1  0  0  0  0
 13  4  1  0  0  0  0
 15  5  1  0  0  0  0
 17  7  1  0  0  0  0
 19 28  1  0  0  0  0
 19 27  1  0  0  0  0
 19 29  1  0  0  0  0
 20 19  1  0  0  0  0
 21 20  1  0  0  0  0
 21 31  1  0  0  0  0
 22 35  1  0  0  0  0
 22 23  1  0  0  0  0
 22 20  1  0  0  0  0
 23 25  1  0  0  0  0
 23 36  1  1  0  0  0
 24 23  1  0  0  0  0
 24 37  1  0  0  0  0
 25 38  1  0  0  0  0
 26 25  2  0  0  0  0
 30 20  1  0  0  0  0
 32 21  1  0  0  0  0
 33 21  1  0  0  0  0
 34 22  1  0  0  0  0
 38 39  1  0  0  0  0
 38 48  1  0  0  0  0
 39 49  1  1  0  0  0
 39 44  1  0  0  0  0
 40 39  1  0  0  0  0
 41 53  1  0  0  0  0
 41 40  1  0  0  0  0
 42 43  2  0  0  0  0
 42 41  1  0  0  0  0
 44 45  2  0  0  0  0
 44 47  1  0  0  0  0
 46 42  1  0  0  0  0
 50 40  1  0  0  0  0
 51 40  1  0  0  0  0
 52 41  1  0  0  0  0
 54 46  1  0  0  0  0
M  END
$$$$
