QLF.pdb
 OpenBabel07022418323D

 58 58  0  0  1  0  0  0  0  0999 V2000
    0.4190   -0.7310    4.2260 N   0  0  0  0  0  0  0  0  0  0  0  0
   -0.3940    0.3590    3.7890 C   0  0  0  0  0  0  0  0  0  0  0  0
    0.1420    1.4920    3.7920 O   0  0  0  0  0  0  0  0  0  0  0  0
   -1.7860    0.1910    3.3560 C   0  0  0  0  0  0  0  0  0  0  0  0
   -2.4380    1.4180    2.8230 C   0  0  0  0  0  0  0  0  0  0  0  0
   -1.8020    2.0410    1.6190 C   0  0  2  0  0  0  0  0  0  0  0  0
   -2.6410    3.2180    1.3040 N   0  0  0  0  0  0  0  0  0  0  0  0
   -1.8130    1.2230    0.3990 C   0  0  0  0  0  0  0  0  0  0  0  0
   -2.7140    1.3640   -0.4570 O   0  0  0  0  0  0  0  0  0  0  0  0
    1.3370   -0.8670    3.7420 H   0  0  0  0  0  0  0  0  0  0  0  0
    0.1660   -1.3850    4.9770 H   0  0  0  0  0  0  0  0  0  0  0  0
   -1.8890   -0.6870    2.6970 H   0  0  0  0  0  0  0  0  0  0  0  0
   -2.3570   -0.0500    4.3190 H   0  0  0  0  0  0  0  0  0  0  0  0
   -3.5410    1.3020    2.7070 H   0  0  0  0  0  0  0  0  0  0  0  0
   -2.3420    2.1970    3.6410 H   0  0  0  0  0  0  0  0  0  0  0  0
   -0.7800    2.3800    1.9000 H   0  0  0  0  0  0  0  0  0  0  0  0
   -2.1190    3.8750    0.6690 H   0  0  0  0  0  0  0  0  0  0  0  0
   -3.4520    2.8750    0.7300 H   0  0  0  0  0  0  0  0  0  0  0  0
   -0.9010    1.6800   -3.1310 C   0  0  0  0  0  0  0  0  0  0  0  0
    0.3350    1.2840   -2.3390 C   0  0  0  0  0  0  0  0  0  0  0  0
    0.6960    2.2640   -1.2660 C   0  0  0  0  0  0  0  0  0  0  0  0
    0.3520   -0.1470   -1.9520 C   0  0  0  0  0  0  0  0  0  0  0  0
   -0.8450   -0.5340   -1.1040 C   0  0  2  0  0  0  0  0  0  0  0  0
   -0.8200    0.2410    0.1080 N   0  0  0  0  0  0  0  0  0  0  0  0
   -0.6760   -1.9610   -0.8020 C   0  0  0  0  0  0  0  0  0  0  0  0
   -0.7360   -2.8410   -1.7150 O   0  0  0  0  0  0  0  0  0  0  0  0
   -1.4120    2.5030   -2.5750 H   0  0  0  0  0  0  0  0  0  0  0  0
   -0.6140    2.1100   -4.1320 H   0  0  0  0  0  0  0  0  0  0  0  0
   -1.5590    0.8140   -3.3290 H   0  0  0  0  0  0  0  0  0  0  0  0
    1.1980    1.3660   -3.1080 H   0  0  0  0  0  0  0  0  0  0  0  0
    1.0650    1.7480   -0.3740 H   0  0  0  0  0  0  0  0  0  0  0  0
    1.5770    2.8790   -1.6250 H   0  0  0  0  0  0  0  0  0  0  0  0
   -0.1300    2.9870   -1.0530 H   0  0  0  0  0  0  0  0  0  0  0  0
    0.4150   -0.7640   -2.8740 H   0  0  0  0  0  0  0  0  0  0  0  0
    1.3050   -0.3420   -1.4140 H   0  0  0  0  0  0  0  0  0  0  0  0
   -1.7920   -0.3410   -1.6840 H   0  0  0  0  0  0  0  0  0  0  0  0
   -0.0810    0.0990    0.7970 H   0  0  0  0  0  0  0  0  0  0  0  0
   -0.4400   -2.3900    0.5180 N   0  0  0  0  0  0  0  0  0  0  0  0
   -0.2670   -3.8200    0.8320 C   0  0  1  0  0  0  0  0  0  0  0  0
    1.0690   -3.9200    1.5370 C   0  0  0  0  0  0  0  0  0  0  0  0
    2.1350   -3.4320    0.6420 C   0  0  0  0  0  0  0  0  0  0  0  0
    2.5620   -2.1280    0.5770 C   0  0  0  0  0  0  0  0  0  0  0  0
    3.5710   -1.7680   -0.2960 C   0  0  0  0  0  0  0  0  0  0  0  0
    4.1780   -2.6790   -1.1200 C   0  0  0  0  0  0  0  0  0  0  0  0
    3.7640   -3.9940   -1.0690 C   0  0  0  0  0  0  0  0  0  0  0  0
    2.7570   -4.3600   -0.2000 C   0  0  0  0  0  0  0  0  0  0  0  0
   -1.3300   -4.1930    1.7810 C   0  0  0  0  0  0  0  0  0  0  0  0
   -2.1700   -3.3480    2.1590 O   0  0  0  0  0  0  0  0  0  0  0  0
   -1.4660   -5.4780    2.3050 O   0  0  0  0  0  0  0  0  0  0  0  0
   -0.3600   -1.7770    1.3550 H   0  0  0  0  0  0  0  0  0  0  0  0
   -0.3080   -4.4170   -0.1040 H   0  0  0  0  0  0  0  0  0  0  0  0
    1.0180   -3.2060    2.3940 H   0  0  0  0  0  0  0  0  0  0  0  0
    1.2640   -4.9420    1.9190 H   0  0  0  0  0  0  0  0  0  0  0  0
    2.0950   -1.3940    1.2200 H   0  0  0  0  0  0  0  0  0  0  0  0
    3.8970   -0.7220   -0.3320 H   0  0  0  0  0  0  0  0  0  0  0  0
    4.9630   -2.4240   -1.8060 H   0  0  0  0  0  0  0  0  0  0  0  0
    4.2010   -4.7740   -1.6960 H   0  0  0  0  0  0  0  0  0  0  0  0
    2.4320   -5.4010   -0.1630 H   0  0  0  0  0  0  0  0  0  0  0  0
  1 11  1  0  0  0  0
  2  3  2  0  0  0  0
  2  1  1  0  0  0  0
  4  2  1  0  0  0  0
  4 13  1  0  0  0  0
  5  4  1  0  0  0  0
  5 15  1  0  0  0  0
  6 16  1  1  0  0  0
  6  5  1  0  0  0  0
  7  6  1  0  0  0  0
  8  6  1  0  0  0  0
  9  8  2  0  0  0  0
 10  1  1  0  0  0  0
 12  4  1  0  0  0  0
 14  5  1  0  0  0  0
 17  7  1  0  0  0  0
 18  7  1  0  0  0  0
 19 27  1  0  0  0  0
 19 20  1  0  0  0  0
 20 22  1  0  0  0  0
 20 21  1  0  0  0  0
 21 33  1  0  0  0  0
 21 31  1  0  0  0  0
 22 35  1  0  0  0  0
 22 23  1  0  0  0  0
 23 36  1  6  0  0  0
 23 25  1  0  0  0  0
 23 24  1  0  0  0  0
 24  8  1  0  0  0  0
 24 37  1  0  0  0  0
 25 38  1  0  0  0  0
 26 25  2  0  0  0  0
 28 19  1  0  0  0  0
 29 19  1  0  0  0  0
 30 20  1  0  0  0  0
 32 21  1  0  0  0  0
 34 22  1  0  0  0  0
 38 39  1  0  0  0  0
 38 50  1  0  0  0  0
 39 51  1  6  0  0  0
 39 40  1  0  0  0  0
 39 47  1  0  0  0  0
 40 53  1  0  0  0  0
 40 52  1  0  0  0  0
 41 40  1  0  0  0  0
 42 41  1  0  0  0  0
 42 54  1  0  0  0  0
 43 42  2  0  0  0  0
 44 45  2  0  0  0  0
 44 43  1  0  0  0  0
 45 46  1  0  0  0  0
 46 58  1  0  0  0  0
 46 41  2  0  0  0  0
 47 48  2  0  0  0  0
 47 49  1  0  0  0  0
 55 43  1  0  0  0  0
 56 44  1  0  0  0  0
 57 45  1  0  0  0  0
M  END
$$$$
