QLK.pdb
 OpenBabel07022418323D

 59 58  0  0  1  0  0  0  0  0999 V2000
    2.5510   -4.0260    1.0620 N   0  0  0  0  0  0  0  0  0  0  0  0
    2.8500   -3.1950   -0.0420 C   0  0  0  0  0  0  0  0  0  0  0  0
    2.5110   -3.5620   -1.1860 O   0  0  0  0  0  0  0  0  0  0  0  0
    3.5530   -1.9100    0.1460 C   0  0  0  0  0  0  0  0  0  0  0  0
    3.7420   -1.1420   -1.1330 C   0  0  0  0  0  0  0  0  0  0  0  0
    2.5000   -0.7550   -1.8520 C   0  0  2  0  0  0  0  0  0  0  0  0
    2.9600   -0.0260   -3.0600 N   0  0  0  0  0  0  0  0  0  0  0  0
    1.6800    0.2600   -1.0890 C   0  0  0  0  0  0  0  0  0  0  0  0
    1.7200    1.4710   -1.4190 O   0  0  0  0  0  0  0  0  0  0  0  0
    3.3290   -4.3040    1.7050 H   0  0  0  0  0  0  0  0  0  0  0  0
    1.6060   -4.3910    1.2930 H   0  0  0  0  0  0  0  0  0  0  0  0
    4.5710   -2.1280    0.6080 H   0  0  0  0  0  0  0  0  0  0  0  0
    3.0810   -1.2630    0.9430 H   0  0  0  0  0  0  0  0  0  0  0  0
    4.3440   -1.8070   -1.8190 H   0  0  0  0  0  0  0  0  0  0  0  0
    4.4050   -0.2640   -0.9710 H   0  0  0  0  0  0  0  0  0  0  0  0
    1.9030   -1.5850   -2.2270 H   0  0  0  0  0  0  0  0  0  0  0  0
    3.5500   -0.7300   -3.5920 H   0  0  0  0  0  0  0  0  0  0  0  0
    3.6510    0.6760   -2.6880 H   0  0  0  0  0  0  0  0  0  0  0  0
    2.1800    3.8630    1.4250 C   0  0  0  0  0  0  0  0  0  0  0  0
    1.7860    2.3790    1.4110 C   0  0  0  0  0  0  0  0  0  0  0  0
    1.8150    1.9830    2.8980 C   0  0  0  0  0  0  0  0  0  0  0  0
    0.4120    2.1970    0.8500 C   0  0  0  0  0  0  0  0  0  0  0  0
    0.0520    0.7060    0.8290 C   0  0  2  0  0  0  0  0  0  0  0  0
    0.8560   -0.1010   -0.0040 N   0  0  0  0  0  0  0  0  0  0  0  0
   -1.3830    0.5180    0.7980 C   0  0  0  0  0  0  0  0  0  0  0  0
   -2.1410    1.2290    1.5360 O   0  0  0  0  0  0  0  0  0  0  0  0
    3.0210    3.9490    2.1360 H   0  0  0  0  0  0  0  0  0  0  0  0
    1.3450    4.4830    1.7920 H   0  0  0  0  0  0  0  0  0  0  0  0
    2.5310    4.1790    0.4440 H   0  0  0  0  0  0  0  0  0  0  0  0
    2.5730    1.8250    0.9440 H   0  0  0  0  0  0  0  0  0  0  0  0
    2.1260    0.9230    3.0070 H   0  0  0  0  0  0  0  0  0  0  0  0
    2.5330    2.6030    3.4640 H   0  0  0  0  0  0  0  0  0  0  0  0
    0.8260    2.1000    3.3600 H   0  0  0  0  0  0  0  0  0  0  0  0
    0.2840    2.6880   -0.1120 H   0  0  0  0  0  0  0  0  0  0  0  0
   -0.2880    2.6380    1.6280 H   0  0  0  0  0  0  0  0  0  0  0  0
    0.4340    0.4320    1.9030 H   0  0  0  0  0  0  0  0  0  0  0  0
    0.8470   -1.1560    0.1970 H   0  0  0  0  0  0  0  0  0  0  0  0
   -2.0190   -0.4450   -0.0350 N   0  0  0  0  0  0  0  0  0  0  0  0
   -3.4450   -0.6660   -0.1070 C   0  0  1  0  0  0  0  0  0  0  0  0
   -3.9520   -1.4240    1.0780 C   0  0  0  0  0  0  0  0  0  0  0  0
   -3.3250   -2.7830    1.2320 C   0  0  0  0  0  0  0  0  0  0  0  0
   -3.5550   -3.6970    0.0650 C   0  0  0  0  0  0  0  0  0  0  0  0
   -2.8680   -5.0260    0.3680 C   0  0  0  0  0  0  0  0  0  0  0  0
   -3.4530   -5.5730    1.5740 N   0  0  0  0  0  0  0  0  0  0  0  0
   -4.2070    0.6010   -0.3280 C   0  0  0  0  0  0  0  0  0  0  0  0
   -5.4580    0.5530   -0.3580 O   0  0  0  0  0  0  0  0  0  0  0  0
   -3.5870    1.8180   -0.5030 O   0  0  0  0  0  0  0  0  0  0  0  0
   -1.3370   -1.0160   -0.6270 H   0  0  0  0  0  0  0  0  0  0  0  0
   -3.6160   -1.2980   -1.0190 H   0  0  0  0  0  0  0  0  0  0  0  0
   -3.6700   -0.8470    1.9960 H   0  0  0  0  0  0  0  0  0  0  0  0
   -5.0580   -1.4920    1.0300 H   0  0  0  0  0  0  0  0  0  0  0  0
   -2.2360   -2.6190    1.3860 H   0  0  0  0  0  0  0  0  0  0  0  0
   -3.7040   -3.2340    2.1610 H   0  0  0  0  0  0  0  0  0  0  0  0
   -4.6310   -3.9330   -0.0470 H   0  0  0  0  0  0  0  0  0  0  0  0
   -3.2040   -3.2780   -0.8860 H   0  0  0  0  0  0  0  0  0  0  0  0
   -2.9050   -5.7200   -0.4850 H   0  0  0  0  0  0  0  0  0  0  0  0
   -1.7850   -4.8110    0.5600 H   0  0  0  0  0  0  0  0  0  0  0  0
   -3.3490   -6.6220    1.6160 H   0  0  0  0  0  0  0  0  0  0  0  0
   -2.9780   -5.1820    2.4280 H   0  0  0  0  0  0  0  0  0  0  0  0
  1 11  1  0  0  0  0
  1 10  1  0  0  0  0
  2  4  1  0  0  0  0
  2  1  1  0  0  0  0
  3  2  2  0  0  0  0
  4 12  1  0  0  0  0
  4 13  1  0  0  0  0
  5 15  1  0  0  0  0
  5  4  1  0  0  0  0
  6 16  1  6  0  0  0
  6  5  1  0  0  0  0
  6  8  1  0  0  0  0
  7 18  1  0  0  0  0
  7  6  1  0  0  0  0
  8 24  1  0  0  0  0
  9  8  2  0  0  0  0
 14  5  1  0  0  0  0
 17  7  1  0  0  0  0
 19 28  1  0  0  0  0
 19 27  1  0  0  0  0
 20 19  1  0  0  0  0
 20 21  1  0  0  0  0
 21 31  1  0  0  0  0
 21 33  1  0  0  0  0
 21 32  1  0  0  0  0
 22 20  1  0  0  0  0
 22 35  1  0  0  0  0
 23 22  1  0  0  0  0
 23 36  1  1  0  0  0
 24 37  1  0  0  0  0
 24 23  1  0  0  0  0
 25 23  1  0  0  0  0
 25 26  2  0  0  0  0
 29 19  1  0  0  0  0
 30 20  1  0  0  0  0
 34 22  1  0  0  0  0
 38 25  1  0  0  0  0
 39 49  1  6  0  0  0
 39 38  1  0  0  0  0
 39 40  1  0  0  0  0
 40 41  1  0  0  0  0
 40 50  1  0  0  0  0
 41 52  1  0  0  0  0
 41 53  1  0  0  0  0
 42 43  1  0  0  0  0
 42 41  1  0  0  0  0
 43 57  1  0  0  0  0
 43 44  1  0  0  0  0
 44 58  1  0  0  0  0
 44 59  1  0  0  0  0
 45 39  1  0  0  0  0
 46 45  1  0  0  0  0
 47 45  2  0  0  0  0
 48 38  1  0  0  0  0
 51 40  1  0  0  0  0
 54 42  1  0  0  0  0
 55 42  1  0  0  0  0
 56 43  1  0  0  0  0
M  END
$$$$
