QLM.pdb
 OpenBabel07022418323D

 55 54  0  0  1  0  0  0  0  0999 V2000
    1.5270   -4.1440   -0.1490 N   0  0  0  0  0  0  0  0  0  0  0  0
    1.1690   -3.6710    1.1350 C   0  0  0  0  0  0  0  0  0  0  0  0
    2.0430   -3.6860    2.0330 O   0  0  0  0  0  0  0  0  0  0  0  0
   -0.2190   -3.1840    1.3560 C   0  0  0  0  0  0  0  0  0  0  0  0
   -0.4490   -2.6710    2.7330 C   0  0  0  0  0  0  0  0  0  0  0  0
    0.3700   -1.5410    3.2040 C   0  0  2  0  0  0  0  0  0  0  0  0
   -0.0800   -1.2830    4.5990 N   0  0  0  0  0  0  0  0  0  0  0  0
    0.3110   -0.2730    2.5030 C   0  0  0  0  0  0  0  0  0  0  0  0
   -0.1170    0.7540    3.1560 O   0  0  0  0  0  0  0  0  0  0  0  0
    1.0430   -3.7640   -0.9780 H   0  0  0  0  0  0  0  0  0  0  0  0
    2.2590   -4.8570   -0.2610 H   0  0  0  0  0  0  0  0  0  0  0  0
   -0.8790   -4.1180    1.2770 H   0  0  0  0  0  0  0  0  0  0  0  0
   -0.5370   -2.5490    0.5290 H   0  0  0  0  0  0  0  0  0  0  0  0
   -1.5390   -2.5040    2.8940 H   0  0  0  0  0  0  0  0  0  0  0  0
   -0.2310   -3.5520    3.4180 H   0  0  0  0  0  0  0  0  0  0  0  0
    1.4510   -1.8520    3.3080 H   0  0  0  0  0  0  0  0  0  0  0  0
   -0.3710   -2.1910    5.0270 H   0  0  0  0  0  0  0  0  0  0  0  0
   -0.9400   -0.6910    4.5780 H   0  0  0  0  0  0  0  0  0  0  0  0
    3.4490    0.7840    1.6200 C   0  0  0  0  0  0  0  0  0  0  0  0
    2.9760    2.0590    0.9950 C   0  0  0  0  0  0  0  0  0  0  0  0
    2.7530    3.1520    2.0250 C   0  0  0  0  0  0  0  0  0  0  0  0
    1.8450    1.8950    0.0640 C   0  0  0  0  0  0  0  0  0  0  0  0
    0.5740    1.3260    0.6110 C   0  0  2  0  0  0  0  0  0  0  0  0
    0.6700    0.0100    1.1650 N   0  0  0  0  0  0  0  0  0  0  0  0
   -0.4310    1.4770   -0.4720 C   0  0  0  0  0  0  0  0  0  0  0  0
   -0.5710    2.5940   -1.0250 O   0  0  0  0  0  0  0  0  0  0  0  0
    4.5810    0.7890    1.7080 H   0  0  0  0  0  0  0  0  0  0  0  0
    3.0350    0.6220    2.6400 H   0  0  0  0  0  0  0  0  0  0  0  0
    3.2480   -0.0750    0.9490 H   0  0  0  0  0  0  0  0  0  0  0  0
    3.8450    2.4400    0.3770 H   0  0  0  0  0  0  0  0  0  0  0  0
    1.6730    3.2820    2.2110 H   0  0  0  0  0  0  0  0  0  0  0  0
    3.3120    2.8310    2.9360 H   0  0  0  0  0  0  0  0  0  0  0  0
    3.1480    4.1340    1.6910 H   0  0  0  0  0  0  0  0  0  0  0  0
    1.5750    2.9070   -0.3490 H   0  0  0  0  0  0  0  0  0  0  0  0
    2.2010    1.3240   -0.8260 H   0  0  0  0  0  0  0  0  0  0  0  0
    0.2310    2.0450    1.4320 H   0  0  0  0  0  0  0  0  0  0  0  0
    1.0120   -0.7650    0.5770 H   0  0  0  0  0  0  0  0  0  0  0  0
   -3.2910   -4.1570   -1.6700 C   0  0  0  0  0  0  0  0  0  0  0  0
   -3.3640   -2.4170   -2.1090 S   0  0  0  0  0  0  0  0  0  0  0  0
   -1.8070   -1.8210   -2.7650 C   0  0  0  0  0  0  0  0  0  0  0  0
   -1.8890   -0.3670   -3.1260 C   0  0  0  0  0  0  0  0  0  0  0  0
   -2.2270    0.5240   -1.9600 C   0  0  2  0  0  0  0  0  0  0  0  0
   -1.2260    0.4180   -0.8970 N   0  0  0  0  0  0  0  0  0  0  0  0
   -3.5240    0.1480   -1.3860 C   0  0  0  0  0  0  0  0  0  0  0  0
   -4.5450    0.1660   -2.1030 O   0  0  0  0  0  0  0  0  0  0  0  0
   -3.6420   -0.2270   -0.0700 O   0  0  0  0  0  0  0  0  0  0  0  0
   -2.5480   -4.7140   -2.2590 H   0  0  0  0  0  0  0  0  0  0  0  0
   -4.3130   -4.5950   -1.8400 H   0  0  0  0  0  0  0  0  0  0  0  0
   -3.0660   -4.3290   -0.5980 H   0  0  0  0  0  0  0  0  0  0  0  0
   -1.5910   -2.3700   -3.7190 H   0  0  0  0  0  0  0  0  0  0  0  0
   -0.9410   -2.0500   -2.1030 H   0  0  0  0  0  0  0  0  0  0  0  0
   -2.6890   -0.2610   -3.8870 H   0  0  0  0  0  0  0  0  0  0  0  0
   -0.9470   -0.0900   -3.6220 H   0  0  0  0  0  0  0  0  0  0  0  0
   -2.2060    1.5750   -2.3250 H   0  0  0  0  0  0  0  0  0  0  0  0
   -1.0940   -0.4990   -0.4220 H   0  0  0  0  0  0  0  0  0  0  0  0
  1  2  1  0  0  0  0
  2  4  1  0  0  0  0
  2  3  2  0  0  0  0
  4  5  1  0  0  0  0
  5 14  1  0  0  0  0
  5  6  1  0  0  0  0
  5 15  1  0  0  0  0
  6 16  1  1  0  0  0
  6  7  1  0  0  0  0
  7 17  1  0  0  0  0
  8  9  2  0  0  0  0
  8  6  1  0  0  0  0
 10  1  1  0  0  0  0
 11  1  1  0  0  0  0
 12  4  1  0  0  0  0
 13  4  1  0  0  0  0
 18  7  1  0  0  0  0
 19 27  1  0  0  0  0
 19 28  1  0  0  0  0
 20 19  1  0  0  0  0
 20 21  1  0  0  0  0
 21 31  1  0  0  0  0
 21 32  1  0  0  0  0
 22 23  1  0  0  0  0
 22 20  1  0  0  0  0
 23 24  1  0  0  0  0
 23 36  1  1  0  0  0
 24  8  1  0  0  0  0
 25 23  1  0  0  0  0
 26 25  2  0  0  0  0
 29 19  1  0  0  0  0
 30 20  1  0  0  0  0
 33 21  1  0  0  0  0
 34 22  1  0  0  0  0
 35 22  1  0  0  0  0
 37 24  1  0  0  0  0
 38 49  1  0  0  0  0
 39 38  1  0  0  0  0
 40 39  1  0  0  0  0
 40 51  1  0  0  0  0
 41 40  1  0  0  0  0
 41 42  1  0  0  0  0
 42 54  1  6  0  0  0
 42 44  1  0  0  0  0
 42 43  1  0  0  0  0
 43 25  1  0  0  0  0
 43 55  1  0  0  0  0
 44 46  1  0  0  0  0
 45 44  2  0  0  0  0
 47 38  1  0  0  0  0
 48 38  1  0  0  0  0
 50 40  1  0  0  0  0
 52 41  1  0  0  0  0
 53 41  1  0  0  0  0
M  END
$$$$
