QLQ.pdb
 OpenBabel07022418323D

 55 54  0  0  1  0  0  0  0  0999 V2000
    0.9860   -1.0090    7.4360 N   0  0  0  0  0  0  0  0  0  0  0  0
    1.0610   -0.6830    6.0440 C   0  0  0  0  0  0  0  0  0  0  0  0
    1.0050    0.5430    5.7550 O   0  0  0  0  0  0  0  0  0  0  0  0
    1.1980   -1.7560    5.0220 C   0  0  0  0  0  0  0  0  0  0  0  0
    1.2250   -1.0570    3.6650 C   0  0  0  0  0  0  0  0  0  0  0  0
    1.3610   -2.0430    2.5570 C   0  0  2  0  0  0  0  0  0  0  0  0
    2.5880   -2.7980    2.6980 N   0  0  0  0  0  0  0  0  0  0  0  0
    1.3160   -1.3300    1.2370 C   0  0  0  0  0  0  0  0  0  0  0  0
    2.2430   -1.4770    0.4250 O   0  0  0  0  0  0  0  0  0  0  0  0
    1.7010   -1.5030    7.9760 H   0  0  0  0  0  0  0  0  0  0  0  0
    0.0970   -0.6940    7.9060 H   0  0  0  0  0  0  0  0  0  0  0  0
    2.2080   -2.2200    5.1410 H   0  0  0  0  0  0  0  0  0  0  0  0
    0.3950   -2.5100    5.0780 H   0  0  0  0  0  0  0  0  0  0  0  0
    0.2940   -0.4820    3.5720 H   0  0  0  0  0  0  0  0  0  0  0  0
    2.1300   -0.3970    3.7040 H   0  0  0  0  0  0  0  0  0  0  0  0
    0.4840   -2.7280    2.5370 H   0  0  0  0  0  0  0  0  0  0  0  0
    3.2160   -2.2540    3.3520 H   0  0  0  0  0  0  0  0  0  0  0  0
    3.0910   -2.7880    1.7760 H   0  0  0  0  0  0  0  0  0  0  0  0
    1.8050    2.7240   -0.1150 C   0  0  0  0  0  0  0  0  0  0  0  0
    2.2840    1.3290   -0.5190 C   0  0  0  0  0  0  0  0  0  0  0  0
    3.3020    1.5960   -1.6440 C   0  0  0  0  0  0  0  0  0  0  0  0
    1.2060    0.5180   -1.1190 C   0  0  0  0  0  0  0  0  0  0  0  0
    0.0120    0.2600   -0.2390 C   0  0  2  0  0  0  0  0  0  0  0  0
    0.2150   -0.5010    0.9400 N   0  0  0  0  0  0  0  0  0  0  0  0
   -1.2110    0.0190   -0.9860 C   0  0  0  0  0  0  0  0  0  0  0  0
   -1.4630    0.6470   -2.0460 O   0  0  0  0  0  0  0  0  0  0  0  0
    1.3460    2.6420    0.9040 H   0  0  0  0  0  0  0  0  0  0  0  0
    1.0610    3.1380   -0.7960 H   0  0  0  0  0  0  0  0  0  0  0  0
    2.6620    3.4180   -0.0040 H   0  0  0  0  0  0  0  0  0  0  0  0
    2.8560    0.9680    0.3110 H   0  0  0  0  0  0  0  0  0  0  0  0
    4.2450    1.9870   -1.2110 H   0  0  0  0  0  0  0  0  0  0  0  0
    3.5470    0.6340   -2.1380 H   0  0  0  0  0  0  0  0  0  0  0  0
    2.8150    2.3070   -2.3490 H   0  0  0  0  0  0  0  0  0  0  0  0
    0.8080    1.0970   -1.9970 H   0  0  0  0  0  0  0  0  0  0  0  0
    1.6380   -0.4020   -1.5500 H   0  0  0  0  0  0  0  0  0  0  0  0
   -0.1090    1.3530    0.1970 H   0  0  0  0  0  0  0  0  0  0  0  0
   -0.5320   -0.4670    1.7160 H   0  0  0  0  0  0  0  0  0  0  0  0
   -1.1540   -1.9690   -4.7790 N   0  0  0  0  0  0  0  0  0  0  0  0
   -2.3120   -2.0380   -3.9210 C   0  0  0  0  0  0  0  0  0  0  0  0
   -3.2800   -1.3410   -4.2670 O   0  0  0  0  0  0  0  0  0  0  0  0
   -2.3240   -2.8890   -2.7160 C   0  0  0  0  0  0  0  0  0  0  0  0
   -3.4910   -2.5830   -1.8220 C   0  0  0  0  0  0  0  0  0  0  0  0
   -3.4120   -1.1640   -1.3250 C   0  0  2  0  0  0  0  0  0  0  0  0
   -2.1920   -0.9290   -0.5730 N   0  0  0  0  0  0  0  0  0  0  0  0
   -4.6140   -0.9000   -0.4940 C   0  0  0  0  0  0  0  0  0  0  0  0
   -4.4500   -0.5430    0.6900 O   0  0  0  0  0  0  0  0  0  0  0  0
   -5.8950   -1.0350   -0.9840 O   0  0  0  0  0  0  0  0  0  0  0  0
   -0.8090   -1.0460   -5.0610 H   0  0  0  0  0  0  0  0  0  0  0  0
   -0.7470   -2.8740   -5.0520 H   0  0  0  0  0  0  0  0  0  0  0  0
   -1.3650   -2.6710   -2.1660 H   0  0  0  0  0  0  0  0  0  0  0  0
   -2.3150   -3.9720   -2.9740 H   0  0  0  0  0  0  0  0  0  0  0  0
   -4.4620   -2.6960   -2.3820 H   0  0  0  0  0  0  0  0  0  0  0  0
   -3.5070   -3.3220   -0.9940 H   0  0  0  0  0  0  0  0  0  0  0  0
   -3.4050   -0.4900   -2.1970 H   0  0  0  0  0  0  0  0  0  0  0  0
   -2.0000   -1.4540    0.3020 H   0  0  0  0  0  0  0  0  0  0  0  0
  1 11  1  0  0  0  0
  1 10  1  0  0  0  0
  2  1  1  0  0  0  0
  3  2  2  0  0  0  0
  4 13  1  0  0  0  0
  4 12  1  0  0  0  0
  4  2  1  0  0  0  0
  5 15  1  0  0  0  0
  5  4  1  0  0  0  0
  6 16  1  1  0  0  0
  6  7  1  0  0  0  0
  6  5  1  0  0  0  0
  7 17  1  0  0  0  0
  8  6  1  0  0  0  0
  9  8  2  0  0  0  0
 14  5  1  0  0  0  0
 18  7  1  0  0  0  0
 19 29  1  0  0  0  0
 19 27  1  0  0  0  0
 20 19  1  0  0  0  0
 20 30  1  0  0  0  0
 21 31  1  0  0  0  0
 21 20  1  0  0  0  0
 22 20  1  0  0  0  0
 22 23  1  0  0  0  0
 23 36  1  1  0  0  0
 23 24  1  0  0  0  0
 24  8  1  0  0  0  0
 24 37  1  0  0  0  0
 25 44  1  0  0  0  0
 25 23  1  0  0  0  0
 26 25  2  0  0  0  0
 28 19  1  0  0  0  0
 32 21  1  0  0  0  0
 33 21  1  0  0  0  0
 34 22  1  0  0  0  0
 35 22  1  0  0  0  0
 38 39  1  0  0  0  0
 39 41  1  0  0  0  0
 40 39  2  0  0  0  0
 41 50  1  0  0  0  0
 41 42  1  0  0  0  0
 42 43  1  0  0  0  0
 42 53  1  0  0  0  0
 43 54  1  6  0  0  0
 43 44  1  0  0  0  0
 43 45  1  0  0  0  0
 44 55  1  0  0  0  0
 45 46  1  0  0  0  0
 47 45  2  0  0  0  0
 48 38  1  0  0  0  0
 49 38  1  0  0  0  0
 51 41  1  0  0  0  0
 52 42  1  0  0  0  0
M  END
$$$$
