QLS.pdb
 OpenBabel07022418323D

 49 48  0  0  1  0  0  0  0  0999 V2000
   -0.6330   -4.4040    6.7800 N   0  0  0  0  0  0  0  0  0  0  0  0
   -0.5460   -3.3020    5.8920 C   0  0  0  0  0  0  0  0  0  0  0  0
   -1.5820   -2.6580    5.6370 O   0  0  0  0  0  0  0  0  0  0  0  0
    0.7740   -2.9780    5.3190 C   0  0  0  0  0  0  0  0  0  0  0  0
    0.7470   -1.8760    4.2920 C   0  0  0  0  0  0  0  0  0  0  0  0
   -0.0810   -2.1770    3.1030 C   0  0  2  0  0  0  0  0  0  0  0  0
    0.4550   -3.3800    2.4480 N   0  0  0  0  0  0  0  0  0  0  0  0
   -0.1830   -1.0680    2.1310 C   0  0  0  0  0  0  0  0  0  0  0  0
   -0.6290    0.0310    2.5530 O   0  0  0  0  0  0  0  0  0  0  0  0
   -1.2270   -4.4030    7.6350 H   0  0  0  0  0  0  0  0  0  0  0  0
   -0.0700   -5.2470    6.5520 H   0  0  0  0  0  0  0  0  0  0  0  0
    1.1620   -3.9360    4.8900 H   0  0  0  0  0  0  0  0  0  0  0  0
    1.5060   -2.7480    6.1420 H   0  0  0  0  0  0  0  0  0  0  0  0
    0.3670   -0.9650    4.8440 H   0  0  0  0  0  0  0  0  0  0  0  0
    1.8040   -1.6310    4.0670 H   0  0  0  0  0  0  0  0  0  0  0  0
   -1.1040   -2.4450    3.4140 H   0  0  0  0  0  0  0  0  0  0  0  0
    1.3780   -3.2000    2.0200 H   0  0  0  0  0  0  0  0  0  0  0  0
   -0.2500   -3.7670    1.7680 H   0  0  0  0  0  0  0  0  0  0  0  0
    3.6750    1.1120   -0.4640 C   0  0  0  0  0  0  0  0  0  0  0  0
    2.4080    0.7350    0.2770 C   0  0  0  0  0  0  0  0  0  0  0  0
    1.9050    1.9880    0.9620 C   0  0  0  0  0  0  0  0  0  0  0  0
    1.3790    0.3340   -0.7450 C   0  0  0  0  0  0  0  0  0  0  0  0
    0.0660   -0.0650   -0.1300 C   0  0  2  0  0  0  0  0  0  0  0  0
    0.1900   -1.1820    0.7650 N   0  0  0  0  0  0  0  0  0  0  0  0
   -0.8840   -0.3600   -1.2480 C   0  0  0  0  0  0  0  0  0  0  0  0
   -1.4480   -1.4820   -1.3090 O   0  0  0  0  0  0  0  0  0  0  0  0
    3.8400    0.4630   -1.3510 H   0  0  0  0  0  0  0  0  0  0  0  0
    3.7040    2.1920   -0.7070 H   0  0  0  0  0  0  0  0  0  0  0  0
    4.5380    0.9280    0.2130 H   0  0  0  0  0  0  0  0  0  0  0  0
    2.6630   -0.0630    0.9770 H   0  0  0  0  0  0  0  0  0  0  0  0
    1.0240    2.4180    0.4360 H   0  0  0  0  0  0  0  0  0  0  0  0
    1.6070    1.8110    2.0090 H   0  0  0  0  0  0  0  0  0  0  0  0
    2.6690    2.8000    0.9760 H   0  0  0  0  0  0  0  0  0  0  0  0
    1.8100   -0.4800   -1.3630 H   0  0  0  0  0  0  0  0  0  0  0  0
    1.2250    1.2090   -1.4090 H   0  0  0  0  0  0  0  0  0  0  0  0
   -0.3410    0.8020    0.4240 H   0  0  0  0  0  0  0  0  0  0  0  0
    0.5530   -2.1150    0.4680 H   0  0  0  0  0  0  0  0  0  0  0  0
   -4.1030    1.1390   -4.2420 O   0  0  0  0  0  0  0  0  0  0  0  0
   -3.2160    1.3620   -3.1800 C   0  0  0  0  0  0  0  0  0  0  0  0
   -2.0620    0.3830   -3.3460 C   0  0  2  0  0  0  0  0  0  0  0  0
   -1.1480    0.6220   -2.2410 N   0  0  0  0  0  0  0  0  0  0  0  0
   -1.4080    0.5310   -4.6530 C   0  0  0  0  0  0  0  0  0  0  0  0
   -2.1040    0.3460   -5.6820 O   0  0  0  0  0  0  0  0  0  0  0  0
   -0.0720    0.8600   -4.8330 O   0  0  0  0  0  0  0  0  0  0  0  0
   -4.0800    0.1500   -4.3930 H   0  0  0  0  0  0  0  0  0  0  0  0
   -2.8700    2.4010   -3.1250 H   0  0  0  0  0  0  0  0  0  0  0  0
   -3.7680    1.0560   -2.2500 H   0  0  0  0  0  0  0  0  0  0  0  0
   -2.5010   -0.6310   -3.3030 H   0  0  0  0  0  0  0  0  0  0  0  0
   -0.6500    1.5320   -2.1350 H   0  0  0  0  0  0  0  0  0  0  0  0
  1 10  1  0  0  0  0
  2  1  1  0  0  0  0
  3  2  2  0  0  0  0
  4  2  1  0  0  0  0
  4 13  1  0  0  0  0
  5 14  1  0  0  0  0
  5  4  1  0  0  0  0
  6 16  1  1  0  0  0
  6  5  1  0  0  0  0
  7  6  1  0  0  0  0
  8  9  2  0  0  0  0
  8  6  1  0  0  0  0
 11  1  1  0  0  0  0
 12  4  1  0  0  0  0
 15  5  1  0  0  0  0
 17  7  1  0  0  0  0
 18  7  1  0  0  0  0
 19 29  1  0  0  0  0
 19 20  1  0  0  0  0
 20 21  1  0  0  0  0
 20 30  1  0  0  0  0
 21 33  1  0  0  0  0
 21 32  1  0  0  0  0
 22 23  1  0  0  0  0
 22 20  1  0  0  0  0
 23 36  1  1  0  0  0
 23 24  1  0  0  0  0
 24  8  1  0  0  0  0
 25 23  1  0  0  0  0
 26 25  2  0  0  0  0
 27 19  1  0  0  0  0
 28 19  1  0  0  0  0
 31 21  1  0  0  0  0
 34 22  1  0  0  0  0
 35 22  1  0  0  0  0
 37 24  1  0  0  0  0
 38 39  1  0  0  0  0
 39 46  1  0  0  0  0
 39 47  1  0  0  0  0
 40 48  1  1  0  0  0
 40 39  1  0  0  0  0
 40 41  1  0  0  0  0
 41 49  1  0  0  0  0
 41 25  1  0  0  0  0
 42 40  1  0  0  0  0
 43 42  2  0  0  0  0
 44 42  1  0  0  0  0
 45 38  1  0  0  0  0
M  END
$$$$
