QLT.pdb
 OpenBabel07022418323D

 52 51  0  0  1  0  0  0  0  0999 V2000
    0.9160   -4.6350    6.1720 N   0  0  0  0  0  0  0  0  0  0  0  0
    0.4980   -3.8460    5.0750 C   0  0  0  0  0  0  0  0  0  0  0  0
    0.5810   -4.3880    3.9290 O   0  0  0  0  0  0  0  0  0  0  0  0
   -0.0100   -2.4740    5.2230 C   0  0  0  0  0  0  0  0  0  0  0  0
   -0.3600   -1.9230    3.8490 C   0  0  0  0  0  0  0  0  0  0  0  0
   -0.8900   -0.5000    3.9740 C   0  0  2  0  0  0  0  0  0  0  0  0
   -2.0600   -0.5340    4.7970 N   0  0  0  0  0  0  0  0  0  0  0  0
   -1.2050    0.0130    2.6170 C   0  0  0  0  0  0  0  0  0  0  0  0
   -2.3850    0.3380    2.3690 O   0  0  0  0  0  0  0  0  0  0  0  0
    0.2450   -4.8880    6.9190 H   0  0  0  0  0  0  0  0  0  0  0  0
    1.8950   -4.9580    6.2240 H   0  0  0  0  0  0  0  0  0  0  0  0
    0.8300   -1.8550    5.6250 H   0  0  0  0  0  0  0  0  0  0  0  0
   -0.8670   -2.3930    5.9150 H   0  0  0  0  0  0  0  0  0  0  0  0
    0.5110   -1.9870    3.1790 H   0  0  0  0  0  0  0  0  0  0  0  0
   -1.1790   -2.5410    3.4260 H   0  0  0  0  0  0  0  0  0  0  0  0
   -0.1170    0.1030    4.4820 H   0  0  0  0  0  0  0  0  0  0  0  0
   -2.9220   -0.8470    4.2950 H   0  0  0  0  0  0  0  0  0  0  0  0
   -2.2360    0.4020    5.2580 H   0  0  0  0  0  0  0  0  0  0  0  0
    2.3220    1.0350   -0.9420 C   0  0  0  0  0  0  0  0  0  0  0  0
    1.6510    2.0100    0.0170 C   0  0  0  0  0  0  0  0  0  0  0  0
    2.2910    1.9420    1.3480 C   0  0  0  0  0  0  0  0  0  0  0  0
    0.1790    1.9180   -0.0260 C   0  0  0  0  0  0  0  0  0  0  0  0
   -0.4690    0.6220    0.3140 C   0  0  2  0  0  0  0  0  0  0  0  0
   -0.1960    0.1340    1.6230 N   0  0  0  0  0  0  0  0  0  0  0  0
   -0.3030   -0.4170   -0.7370 C   0  0  0  0  0  0  0  0  0  0  0  0
    0.0650   -1.5980   -0.4360 O   0  0  0  0  0  0  0  0  0  0  0  0
    3.4040    1.3370   -0.9450 H   0  0  0  0  0  0  0  0  0  0  0  0
    1.9100    1.2500   -1.9300 H   0  0  0  0  0  0  0  0  0  0  0  0
    2.2850   -0.0010   -0.6090 H   0  0  0  0  0  0  0  0  0  0  0  0
    1.8960    3.0250   -0.4250 H   0  0  0  0  0  0  0  0  0  0  0  0
    1.5760    2.1650    2.1620 H   0  0  0  0  0  0  0  0  0  0  0  0
    3.0880    2.7110    1.4180 H   0  0  0  0  0  0  0  0  0  0  0  0
    2.8390    0.9710    1.5310 H   0  0  0  0  0  0  0  0  0  0  0  0
   -0.1330    2.1550   -1.0890 H   0  0  0  0  0  0  0  0  0  0  0  0
   -0.2440    2.7670    0.5620 H   0  0  0  0  0  0  0  0  0  0  0  0
   -1.5840    0.8510    0.2880 H   0  0  0  0  0  0  0  0  0  0  0  0
    0.7670   -0.1630    1.9220 H   0  0  0  0  0  0  0  0  0  0  0  0
   -2.5920   -2.2150   -2.5960 C   0  0  0  0  0  0  0  0  0  0  0  0
   -1.7380   -1.6220   -3.6850 C   0  0  1  0  0  0  0  0  0  0  0  0
   -2.3360   -0.5130   -4.2670 O   0  0  0  0  0  0  0  0  0  0  0  0
   -0.3700   -1.2080   -3.1090 C   0  0  2  0  0  0  0  0  0  0  0  0
   -0.5340   -0.1870   -2.1190 N   0  0  0  0  0  0  0  0  0  0  0  0
    0.4580   -0.8220   -4.2540 C   0  0  0  0  0  0  0  0  0  0  0  0
    0.9480    0.3280   -4.3160 O   0  0  0  0  0  0  0  0  0  0  0  0
    0.6900   -1.7390   -5.2630 O   0  0  0  0  0  0  0  0  0  0  0  0
   -2.7700   -1.4160   -1.8470 H   0  0  0  0  0  0  0  0  0  0  0  0
   -2.0110   -3.0120   -2.0950 H   0  0  0  0  0  0  0  0  0  0  0  0
   -3.5290   -2.5600   -3.0560 H   0  0  0  0  0  0  0  0  0  0  0  0
   -1.6010   -2.3900   -4.4720 H   0  0  0  0  0  0  0  0  0  0  0  0
   -2.1940   -0.4760   -5.2430 H   0  0  0  0  0  0  0  0  0  0  0  0
    0.0040   -2.1310   -2.5740 H   0  0  0  0  0  0  0  0  0  0  0  0
   -0.8380    0.7660   -2.4360 H   0  0  0  0  0  0  0  0  0  0  0  0
  1 11  1  0  0  0  0
  1 10  1  0  0  0  0
  2  4  1  0  0  0  0
  2  1  1  0  0  0  0
  3  2  2  0  0  0  0
  4 12  1  0  0  0  0
  4 13  1  0  0  0  0
  5  6  1  0  0  0  0
  5  4  1  0  0  0  0
  6 16  1  1  0  0  0
  6  7  1  0  0  0  0
  7 18  1  0  0  0  0
  8  6  1  0  0  0  0
  9  8  2  0  0  0  0
 14  5  1  0  0  0  0
 15  5  1  0  0  0  0
 17  7  1  0  0  0  0
 19 29  1  0  0  0  0
 19 20  1  0  0  0  0
 20 21  1  0  0  0  0
 21 32  1  0  0  0  0
 21 33  1  0  0  0  0
 21 31  1  0  0  0  0
 22 20  1  0  0  0  0
 22 23  1  0  0  0  0
 22 35  1  0  0  0  0
 23 36  1  1  0  0  0
 23 24  1  0  0  0  0
 24 37  1  0  0  0  0
 24  8  1  0  0  0  0
 25 26  2  0  0  0  0
 25 23  1  0  0  0  0
 27 19  1  0  0  0  0
 28 19  1  0  0  0  0
 30 20  1  0  0  0  0
 34 22  1  0  0  0  0
 38 47  1  0  0  0  0
 38 46  1  0  0  0  0
 39 49  1  6  0  0  0
 39 41  1  0  0  0  0
 39 38  1  0  0  0  0
 40 39  1  0  0  0  0
 41 51  1  1  0  0  0
 41 42  1  0  0  0  0
 42 25  1  0  0  0  0
 43 41  1  0  0  0  0
 44 43  1  0  0  0  0
 45 43  2  0  0  0  0
 48 38  1  0  0  0  0
 50 40  1  0  0  0  0
 52 42  1  0  0  0  0
M  END
$$$$
