QLV.pdb
 OpenBabel07022418323D

 54 53  0  0  1  0  0  0  0  0999 V2000
   -0.7010   -1.6010    7.9710 N   0  0  0  0  0  0  0  0  0  0  0  0
   -0.7420   -0.7710    6.7970 C   0  0  0  0  0  0  0  0  0  0  0  0
   -1.8390   -0.4360    6.3160 O   0  0  0  0  0  0  0  0  0  0  0  0
    0.5070   -0.3150    6.1650 C   0  0  0  0  0  0  0  0  0  0  0  0
    0.2600    0.3280    4.8320 C   0  0  0  0  0  0  0  0  0  0  0  0
   -0.3460   -0.6420    3.8810 C   0  0  2  0  0  0  0  0  0  0  0  0
    0.5950   -1.7520    3.7320 N   0  0  0  0  0  0  0  0  0  0  0  0
   -0.6430   -0.0290    2.5530 C   0  0  0  0  0  0  0  0  0  0  0  0
   -1.4300    0.9430    2.4420 O   0  0  0  0  0  0  0  0  0  0  0  0
   -1.4840   -1.5190    8.6490 H   0  0  0  0  0  0  0  0  0  0  0  0
    0.0950   -2.2450    8.1020 H   0  0  0  0  0  0  0  0  0  0  0  0
    1.0620    0.4020    6.8180 H   0  0  0  0  0  0  0  0  0  0  0  0
    1.1410   -1.2260    6.0120 H   0  0  0  0  0  0  0  0  0  0  0  0
    1.2040    0.7770    4.4620 H   0  0  0  0  0  0  0  0  0  0  0  0
   -0.4980    1.1560    4.9720 H   0  0  0  0  0  0  0  0  0  0  0  0
   -1.2860   -1.0940    4.2300 H   0  0  0  0  0  0  0  0  0  0  0  0
    0.1870   -2.5320    3.2090 H   0  0  0  0  0  0  0  0  0  0  0  0
    1.5250   -1.4390    3.4020 H   0  0  0  0  0  0  0  0  0  0  0  0
    3.2780    1.1270   -1.0390 C   0  0  0  0  0  0  0  0  0  0  0  0
    2.2390    0.1010   -0.5060 C   0  0  0  0  0  0  0  0  0  0  0  0
    2.8150   -0.2790    0.8630 C   0  0  0  0  0  0  0  0  0  0  0  0
    0.9190    0.7660   -0.3840 C   0  0  0  0  0  0  0  0  0  0  0  0
   -0.2390   -0.0430    0.0760 C   0  0  2  0  0  0  0  0  0  0  0  0
    0.0010   -0.5850    1.3920 N   0  0  0  0  0  0  0  0  0  0  0  0
   -0.5310   -1.1140   -0.9150 C   0  0  0  0  0  0  0  0  0  0  0  0
   -0.5310   -2.3000   -0.4980 O   0  0  0  0  0  0  0  0  0  0  0  0
    3.2210    2.0550   -0.4490 H   0  0  0  0  0  0  0  0  0  0  0  0
    3.1150    1.2480   -2.1090 H   0  0  0  0  0  0  0  0  0  0  0  0
    4.2970    0.7100   -0.9000 H   0  0  0  0  0  0  0  0  0  0  0  0
    2.2780   -0.7350   -1.2260 H   0  0  0  0  0  0  0  0  0  0  0  0
    2.3000    0.2130    1.6960 H   0  0  0  0  0  0  0  0  0  0  0  0
    3.8890    0.0860    0.9620 H   0  0  0  0  0  0  0  0  0  0  0  0
    2.8750   -1.3650    1.0050 H   0  0  0  0  0  0  0  0  0  0  0  0
    0.6780    1.3330   -1.3340 H   0  0  0  0  0  0  0  0  0  0  0  0
    1.0330    1.6140    0.3660 H   0  0  0  0  0  0  0  0  0  0  0  0
   -1.1410    0.6550    0.1490 H   0  0  0  0  0  0  0  0  0  0  0  0
    0.6210   -1.4030    1.5620 H   0  0  0  0  0  0  0  0  0  0  0  0
   -3.5350   -1.9120   -2.7320 C   0  0  0  0  0  0  0  0  0  0  0  0
   -2.4720   -1.7840   -3.8220 C   0  0  0  0  0  0  0  0  0  0  0  0
   -2.7250   -0.4980   -4.5460 C   0  0  0  0  0  0  0  0  0  0  0  0
   -1.0850   -1.8820   -3.2460 C   0  0  2  0  0  0  0  0  0  0  0  0
   -0.8020   -0.8650   -2.2770 N   0  0  0  0  0  0  0  0  0  0  0  0
   -0.1270   -1.8650   -4.3650 C   0  0  0  0  0  0  0  0  0  0  0  0
   -0.2450   -2.6920   -5.2880 O   0  0  0  0  0  0  0  0  0  0  0  0
    0.8950   -0.9460   -4.4030 O   0  0  0  0  0  0  0  0  0  0  0  0
   -3.2020   -1.3000   -1.8560 H   0  0  0  0  0  0  0  0  0  0  0  0
   -3.6560   -2.9460   -2.3830 H   0  0  0  0  0  0  0  0  0  0  0  0
   -4.4930   -1.4600   -3.0600 H   0  0  0  0  0  0  0  0  0  0  0  0
   -2.6700   -2.6150   -4.5290 H   0  0  0  0  0  0  0  0  0  0  0  0
   -1.9450   -0.2690   -5.3030 H   0  0  0  0  0  0  0  0  0  0  0  0
   -2.8900    0.3660   -3.8750 H   0  0  0  0  0  0  0  0  0  0  0  0
   -3.6730   -0.6270   -5.1270 H   0  0  0  0  0  0  0  0  0  0  0  0
   -1.0440   -2.8660   -2.7000 H   0  0  0  0  0  0  0  0  0  0  0  0
   -0.7960    0.1320   -2.6030 H   0  0  0  0  0  0  0  0  0  0  0  0
  1 11  1  0  0  0  0
  1 10  1  0  0  0  0
  2  1  1  0  0  0  0
  3  2  2  0  0  0  0
  4  2  1  0  0  0  0
  4 12  1  0  0  0  0
  5 15  1  0  0  0  0
  5  4  1  0  0  0  0
  6 16  1  1  0  0  0
  6  5  1  0  0  0  0
  7  6  1  0  0  0  0
  8  6  1  0  0  0  0
  9  8  2  0  0  0  0
 13  4  1  0  0  0  0
 14  5  1  0  0  0  0
 17  7  1  0  0  0  0
 18  7  1  0  0  0  0
 19 29  1  0  0  0  0
 19 20  1  0  0  0  0
 19 27  1  0  0  0  0
 20 22  1  0  0  0  0
 20 21  1  0  0  0  0
 21 32  1  0  0  0  0
 21 33  1  0  0  0  0
 21 31  1  0  0  0  0
 22 23  1  0  0  0  0
 22 35  1  0  0  0  0
 23 36  1  1  0  0  0
 23 24  1  0  0  0  0
 24 37  1  0  0  0  0
 24  8  1  0  0  0  0
 25 26  2  0  0  0  0
 25 23  1  0  0  0  0
 28 19  1  0  0  0  0
 30 20  1  0  0  0  0
 34 22  1  0  0  0  0
 38 47  1  0  0  0  0
 38 46  1  0  0  0  0
 39 41  1  0  0  0  0
 39 38  1  0  0  0  0
 40 51  1  0  0  0  0
 40 39  1  0  0  0  0
 41 53  1  1  0  0  0
 41 42  1  0  0  0  0
 42 25  1  0  0  0  0
 43 41  1  0  0  0  0
 44 43  2  0  0  0  0
 45 43  1  0  0  0  0
 48 38  1  0  0  0  0
 49 39  1  0  0  0  0
 50 40  1  0  0  0  0
 52 40  1  0  0  0  0
 54 42  1  0  0  0  0
M  END
$$$$
