QLW.pdb
 OpenBabel07022418323D

 62 63  0  0  1  0  0  0  0  0999 V2000
   -2.3470    3.3600    5.1980 N   0  0  0  0  0  0  0  0  0  0  0  0
   -2.5790    1.9620    4.9770 C   0  0  0  0  0  0  0  0  0  0  0  0
   -3.4400    1.7270    4.0610 O   0  0  0  0  0  0  0  0  0  0  0  0
   -1.9510    0.8940    5.6860 C   0  0  0  0  0  0  0  0  0  0  0  0
   -0.8630    0.0560    5.1590 C   0  0  0  0  0  0  0  0  0  0  0  0
   -0.9730   -0.6730    3.8900 C   0  0  2  0  0  0  0  0  0  0  0  0
    0.2900   -1.5270    3.8560 N   0  0  0  0  0  0  0  0  0  0  0  0
   -0.7980    0.1830    2.6460 C   0  0  0  0  0  0  0  0  0  0  0  0
   -1.2290    1.3270    2.5090 O   0  0  0  0  0  0  0  0  0  0  0  0
   -2.0430    3.9140    4.3670 H   0  0  0  0  0  0  0  0  0  0  0  0
   -2.4810    3.7810    6.1430 H   0  0  0  0  0  0  0  0  0  0  0  0
   -2.7480    0.2070    6.1760 H   0  0  0  0  0  0  0  0  0  0  0  0
   -1.5330    1.3750    6.6570 H   0  0  0  0  0  0  0  0  0  0  0  0
   -0.6060   -0.6700    6.0220 H   0  0  0  0  0  0  0  0  0  0  0  0
    0.0950    0.6960    5.1840 H   0  0  0  0  0  0  0  0  0  0  0  0
   -1.8210   -1.3200    3.8310 H   0  0  0  0  0  0  0  0  0  0  0  0
    1.0640   -0.9790    3.4730 H   0  0  0  0  0  0  0  0  0  0  0  0
   -0.0060   -2.3680    3.3470 H   0  0  0  0  0  0  0  0  0  0  0  0
    1.9300    0.7330   -2.4020 C   0  0  0  0  0  0  0  0  0  0  0  0
    2.2140    1.2040   -1.0110 C   0  0  0  0  0  0  0  0  0  0  0  0
    2.1330    2.7270   -0.8980 C   0  0  0  0  0  0  0  0  0  0  0  0
    1.5620    0.5040    0.0970 C   0  0  0  0  0  0  0  0  0  0  0  0
    0.1330    0.4110    0.2970 C   0  0  2  0  0  0  0  0  0  0  0  0
   -0.0700   -0.3790    1.5260 N   0  0  0  0  0  0  0  0  0  0  0  0
   -0.7670   -0.1000   -0.7220 C   0  0  0  0  0  0  0  0  0  0  0  0
   -0.9290    0.3680   -1.8780 O   0  0  0  0  0  0  0  0  0  0  0  0
    1.6130   -0.3280   -2.4470 H   0  0  0  0  0  0  0  0  0  0  0  0
    2.8810    0.7160   -3.0360 H   0  0  0  0  0  0  0  0  0  0  0  0
    1.2870    1.4260   -2.9940 H   0  0  0  0  0  0  0  0  0  0  0  0
    3.3270    1.0020   -0.8670 H   0  0  0  0  0  0  0  0  0  0  0  0
    1.8380    3.0370    0.1260 H   0  0  0  0  0  0  0  0  0  0  0  0
    3.1060    3.2250   -1.0910 H   0  0  0  0  0  0  0  0  0  0  0  0
    1.4370    3.1400   -1.6760 H   0  0  0  0  0  0  0  0  0  0  0  0
    2.0170   -0.5420    0.1080 H   0  0  0  0  0  0  0  0  0  0  0  0
    2.0190    0.9340    1.0460 H   0  0  0  0  0  0  0  0  0  0  0  0
   -0.2790    1.4360    0.5620 H   0  0  0  0  0  0  0  0  0  0  0  0
    0.2840   -1.3300    1.6350 H   0  0  0  0  0  0  0  0  0  0  0  0
   -1.5670   -1.2420   -0.4300 N   0  0  0  0  0  0  0  0  0  0  0  0
   -2.4740   -1.7870   -1.3870 C   0  0  1  0  0  0  0  0  0  0  0  0
   -2.1200   -3.1460   -1.8960 C   0  0  0  0  0  0  0  0  0  0  0  0
   -0.8220   -3.1600   -2.5560 C   0  0  0  0  0  0  0  0  0  0  0  0
   -0.6290   -3.0710   -3.9050 C   0  0  0  0  0  0  0  0  0  0  0  0
    0.6880   -3.0810   -4.1340 N   0  0  0  0  0  0  0  0  0  0  0  0
    1.3690   -3.1740   -2.9850 C   0  0  0  0  0  0  0  0  0  0  0  0
    2.7190   -3.2290   -2.6790 C   0  0  0  0  0  0  0  0  0  0  0  0
    3.1690   -3.3350   -1.3920 C   0  0  0  0  0  0  0  0  0  0  0  0
    2.2030   -3.3860   -0.4000 C   0  0  0  0  0  0  0  0  0  0  0  0
    0.8550   -3.3330   -0.6720 C   0  0  0  0  0  0  0  0  0  0  0  0
    0.4160   -3.2260   -1.9700 C   0  0  0  0  0  0  0  0  0  0  0  0
   -3.8790   -1.8040   -0.9210 C   0  0  0  0  0  0  0  0  0  0  0  0
   -4.7450   -2.2640   -1.7040 O   0  0  0  0  0  0  0  0  0  0  0  0
   -4.3090   -1.3500    0.3100 O   0  0  0  0  0  0  0  0  0  0  0  0
   -1.5100   -1.7160    0.5300 H   0  0  0  0  0  0  0  0  0  0  0  0
   -2.4650   -1.1130   -2.2900 H   0  0  0  0  0  0  0  0  0  0  0  0
   -2.2270   -3.9350   -1.1130 H   0  0  0  0  0  0  0  0  0  0  0  0
   -2.9090   -3.4160   -2.6510 H   0  0  0  0  0  0  0  0  0  0  0  0
   -1.3760   -3.0020   -4.6920 H   0  0  0  0  0  0  0  0  0  0  0  0
    1.1510   -3.0260   -5.0740 H   0  0  0  0  0  0  0  0  0  0  0  0
    3.4270   -3.1820   -3.5100 H   0  0  0  0  0  0  0  0  0  0  0  0
    4.2120   -3.3800   -1.1200 H   0  0  0  0  0  0  0  0  0  0  0  0
    2.4950   -3.4710    0.6450 H   0  0  0  0  0  0  0  0  0  0  0  0
    0.1090   -3.3860    0.1300 H   0  0  0  0  0  0  0  0  0  0  0  0
  1 11  1  0  0  0  0
  2  1  1  0  0  0  0
  2  4  1  0  0  0  0
  3  2  2  0  0  0  0
  4 12  1  0  0  0  0
  4 13  1  0  0  0  0
  5 15  1  0  0  0  0
  5  4  1  0  0  0  0
  5 14  1  0  0  0  0
  6 16  1  6  0  0  0
  6  5  1  0  0  0  0
  7  6  1  0  0  0  0
  8  6  1  0  0  0  0
  9  8  2  0  0  0  0
 10  1  1  0  0  0  0
 17  7  1  0  0  0  0
 18  7  1  0  0  0  0
 19 20  1  0  0  0  0
 20 21  1  0  0  0  0
 20 30  1  0  0  0  0
 20 22  1  0  0  0  0
 21 31  1  0  0  0  0
 22 34  1  0  0  0  0
 22 23  1  0  0  0  0
 22 35  1  0  0  0  0
 23 36  1  1  0  0  0
 23 24  1  0  0  0  0
 24 37  1  0  0  0  0
 24  8  1  0  0  0  0
 25 38  1  0  0  0  0
 25 23  1  0  0  0  0
 26 25  2  0  0  0  0
 27 19  1  0  0  0  0
 28 19  1  0  0  0  0
 29 19  1  0  0  0  0
 32 21  1  0  0  0  0
 33 21  1  0  0  0  0
 38 53  1  0  0  0  0
 39 54  1  6  0  0  0
 39 50  1  0  0  0  0
 39 38  1  0  0  0  0
 40 39  1  0  0  0  0
 40 55  1  0  0  0  0
 41 49  1  0  0  0  0
 41 40  1  0  0  0  0
 42 41  2  0  0  0  0
 43 42  1  0  0  0  0
 43 44  1  0  0  0  0
 44 45  2  0  0  0  0
 44 49  1  0  0  0  0
 45 46  1  0  0  0  0
 46 60  1  0  0  0  0
 46 47  2  0  0  0  0
 47 61  1  0  0  0  0
 48 47  1  0  0  0  0
 48 62  1  0  0  0  0
 49 48  2  0  0  0  0
 50 52  1  0  0  0  0
 51 50  2  0  0  0  0
 56 40  1  0  0  0  0
 57 42  1  0  0  0  0
 58 43  1  0  0  0  0
 59 45  1  0  0  0  0
M  END
$$$$
