QMC.pdb
 OpenBabel07022418333D

 47 46  0  0  1  0  0  0  0  0999 V2000
    1.0650   -3.4410    4.8950 N   0  0  0  0  0  0  0  0  0  0  0  0
    0.0970   -2.5080    4.4570 C   0  0  0  0  0  0  0  0  0  0  0  0
   -1.1370   -2.7470    4.6420 O   0  0  0  0  0  0  0  0  0  0  0  0
    0.5460   -1.2490    3.7790 C   0  0  0  0  0  0  0  0  0  0  0  0
   -0.6600   -0.4630    3.4340 C   0  0  0  0  0  0  0  0  0  0  0  0
   -0.3990    0.8380    2.7420 C   0  0  2  0  0  0  0  0  0  0  0  0
   -1.6820    1.4560    2.4900 N   0  0  0  0  0  0  0  0  0  0  0  0
    0.3780    0.6770    1.4800 C   0  0  0  0  0  0  0  0  0  0  0  0
    1.5180    0.2000    1.4480 O   0  0  0  0  0  0  0  0  0  0  0  0
    0.7950   -4.2090    5.5280 H   0  0  0  0  0  0  0  0  0  0  0  0
    2.0400   -3.3480    4.5780 H   0  0  0  0  0  0  0  0  0  0  0  0
    1.1030   -1.6070    2.8640 H   0  0  0  0  0  0  0  0  0  0  0  0
    1.2350   -0.7570    4.4940 H   0  0  0  0  0  0  0  0  0  0  0  0
   -1.2130   -0.2420    4.3700 H   0  0  0  0  0  0  0  0  0  0  0  0
   -1.3350   -1.1150    2.8380 H   0  0  0  0  0  0  0  0  0  0  0  0
    0.1790    1.5200    3.3950 H   0  0  0  0  0  0  0  0  0  0  0  0
   -1.9040    2.2250    3.1560 H   0  0  0  0  0  0  0  0  0  0  0  0
   -2.4540    0.7660    2.3890 H   0  0  0  0  0  0  0  0  0  0  0  0
    4.8300    0.1670    0.3930 C   0  0  0  0  0  0  0  0  0  0  0  0
    4.4100    1.6000   -0.6320 S   0  0  0  0  0  0  0  0  0  0  0  0
    2.6190    1.9800   -0.5010 C   0  0  0  0  0  0  0  0  0  0  0  0
    1.8250    0.8750   -1.0960 C   0  0  0  0  0  0  0  0  0  0  0  0
    0.3230    1.0510   -1.0130 C   0  0  2  0  0  0  0  0  0  0  0  0
   -0.2370    1.0940    0.2890 N   0  0  0  0  0  0  0  0  0  0  0  0
   -0.3250    0.0730   -1.8870 C   0  0  0  0  0  0  0  0  0  0  0  0
   -0.0170   -0.1410   -3.0720 O   0  0  0  0  0  0  0  0  0  0  0  0
    4.8840    0.4930    1.4700 H   0  0  0  0  0  0  0  0  0  0  0  0
    5.8750   -0.1140    0.1320 H   0  0  0  0  0  0  0  0  0  0  0  0
    4.1800   -0.6930    0.2340 H   0  0  0  0  0  0  0  0  0  0  0  0
    2.3280    2.4010    0.4440 H   0  0  0  0  0  0  0  0  0  0  0  0
    2.5140    2.8730   -1.2300 H   0  0  0  0  0  0  0  0  0  0  0  0
    2.1000    0.8210   -2.2010 H   0  0  0  0  0  0  0  0  0  0  0  0
    2.1790   -0.0930   -0.7030 H   0  0  0  0  0  0  0  0  0  0  0  0
    0.1930    2.0850   -1.5200 H   0  0  0  0  0  0  0  0  0  0  0  0
   -1.2390    1.4940    0.3420 H   0  0  0  0  0  0  0  0  0  0  0  0
   -1.3930   -0.6960   -1.3400 N   0  0  0  0  0  0  0  0  0  0  0  0
   -2.1250   -1.6960   -2.0800 C   0  0  1  0  0  0  0  0  0  0  0  0
   -1.9110   -3.0130   -1.3500 C   0  0  0  0  0  0  0  0  0  0  0  0
   -2.5560   -2.8130    0.3420 S   0  0  0  0  0  0  0  0  0  0  0  0
   -3.5820   -1.4360   -2.0720 C   0  0  0  0  0  0  0  0  0  0  0  0
   -4.0450   -0.4390   -1.4710 O   0  0  0  0  0  0  0  0  0  0  0  0
   -4.4510   -2.2870   -2.7270 O   0  0  0  0  0  0  0  0  0  0  0  0
   -1.6840   -0.5460   -0.3440 H   0  0  0  0  0  0  0  0  0  0  0  0
   -1.7730   -1.7810   -3.1270 H   0  0  0  0  0  0  0  0  0  0  0  0
   -0.8300   -3.2420   -1.2540 H   0  0  0  0  0  0  0  0  0  0  0  0
   -2.4820   -3.8010   -1.8720 H   0  0  0  0  0  0  0  0  0  0  0  0
   -1.6170   -3.3030    1.2970 H   0  0  0  0  0  0  0  0  0  0  0  0
  1 10  1  0  0  0  0
  2  3  2  0  0  0  0
  2  1  1  0  0  0  0
  4  2  1  0  0  0  0
  4 13  1  0  0  0  0
  5  4  1  0  0  0  0
  5 14  1  0  0  0  0
  6 16  1  1  0  0  0
  6  5  1  0  0  0  0
  7  6  1  0  0  0  0
  7 17  1  0  0  0  0
  8  6  1  0  0  0  0
  9  8  2  0  0  0  0
 11  1  1  0  0  0  0
 12  4  1  0  0  0  0
 15  5  1  0  0  0  0
 18  7  1  0  0  0  0
 19 27  1  0  0  0  0
 20 21  1  0  0  0  0
 20 19  1  0  0  0  0
 21 30  1  0  0  0  0
 22 23  1  0  0  0  0
 22 33  1  0  0  0  0
 22 21  1  0  0  0  0
 23 34  1  6  0  0  0
 23 24  1  0  0  0  0
 24 35  1  0  0  0  0
 24  8  1  0  0  0  0
 25 36  1  0  0  0  0
 25 23  1  0  0  0  0
 26 25  2  0  0  0  0
 28 19  1  0  0  0  0
 29 19  1  0  0  0  0
 31 21  1  0  0  0  0
 32 22  1  0  0  0  0
 36 43  1  0  0  0  0
 37 44  1  6  0  0  0
 37 40  1  0  0  0  0
 37 38  1  0  0  0  0
 37 36  1  0  0  0  0
 38 45  1  0  0  0  0
 38 39  1  0  0  0  0
 39 47  1  0  0  0  0
 40 41  1  0  0  0  0
 42 40  2  0  0  0  0
 46 38  1  0  0  0  0
M  END
$$$$
