QME.pdb
 OpenBabel07022418333D

 52 51  0  0  1  0  0  0  0  0999 V2000
    2.3790   -4.8400    2.6110 N   0  0  0  0  0  0  0  0  0  0  0  0
    2.8140   -3.8740    1.6710 C   0  0  0  0  0  0  0  0  0  0  0  0
    4.0380   -3.6540    1.5960 O   0  0  0  0  0  0  0  0  0  0  0  0
    1.8400   -3.1900    0.8400 C   0  0  0  0  0  0  0  0  0  0  0  0
    2.2500   -1.9500    0.1470 C   0  0  0  0  0  0  0  0  0  0  0  0
    2.6300   -0.7900    1.0500 C   0  0  2  0  0  0  0  0  0  0  0  0
    3.7260   -1.1340    1.8960 N   0  0  0  0  0  0  0  0  0  0  0  0
    1.4600   -0.2770    1.7930 C   0  0  0  0  0  0  0  0  0  0  0  0
    1.3750   -0.5040    3.0160 O   0  0  0  0  0  0  0  0  0  0  0  0
    2.5530   -5.8400    2.4060 H   0  0  0  0  0  0  0  0  0  0  0  0
    1.8950   -4.5930    3.4950 H   0  0  0  0  0  0  0  0  0  0  0  0
    0.9320   -3.0250    1.5060 H   0  0  0  0  0  0  0  0  0  0  0  0
    1.4190   -3.8750    0.0420 H   0  0  0  0  0  0  0  0  0  0  0  0
    3.1820   -2.1760   -0.4300 H   0  0  0  0  0  0  0  0  0  0  0  0
    1.4950   -1.6780   -0.5930 H   0  0  0  0  0  0  0  0  0  0  0  0
    2.9600    0.0130    0.3520 H   0  0  0  0  0  0  0  0  0  0  0  0
    3.5750   -0.9230    2.9110 H   0  0  0  0  0  0  0  0  0  0  0  0
    4.6070   -0.6350    1.6100 H   0  0  0  0  0  0  0  0  0  0  0  0
    2.7100    2.7360    2.0900 C   0  0  0  0  0  0  0  0  0  0  0  0
    1.5150    3.6570    1.1470 S   0  0  0  0  0  0  0  0  0  0  0  0
   -0.1760    3.5320    1.6510 C   0  0  0  0  0  0  0  0  0  0  0  0
   -1.0080    2.3780    1.3380 C   0  0  0  0  0  0  0  0  0  0  0  0
   -0.7160    0.9870    1.7230 C   0  0  2  0  0  0  0  0  0  0  0  0
    0.4660    0.4510    1.1330 N   0  0  0  0  0  0  0  0  0  0  0  0
   -1.8790    0.1060    1.2670 C   0  0  0  0  0  0  0  0  0  0  0  0
   -3.0490    0.4070    1.6700 O   0  0  0  0  0  0  0  0  0  0  0  0
    3.2580    1.9900    1.5130 H   0  0  0  0  0  0  0  0  0  0  0  0
    2.1940    2.2190    2.9390 H   0  0  0  0  0  0  0  0  0  0  0  0
    3.5030    3.3910    2.5460 H   0  0  0  0  0  0  0  0  0  0  0  0
   -0.7080    4.4360    1.1710 H   0  0  0  0  0  0  0  0  0  0  0  0
   -0.2400    3.7790    2.7800 H   0  0  0  0  0  0  0  0  0  0  0  0
   -1.0950    2.3940    0.1680 H   0  0  0  0  0  0  0  0  0  0  0  0
   -2.1140    2.6180    1.6370 H   0  0  0  0  0  0  0  0  0  0  0  0
   -0.6780    0.9000    2.8560 H   0  0  0  0  0  0  0  0  0  0  0  0
    0.5750    0.6390    0.0850 H   0  0  0  0  0  0  0  0  0  0  0  0
   -1.7110   -1.0060    0.4290 N   0  0  0  0  0  0  0  0  0  0  0  0
   -2.8660   -1.8170    0.0030 C   0  0  1  0  0  0  0  0  0  0  0  0
   -2.8920   -1.7690   -1.5080 C   0  0  0  0  0  0  0  0  0  0  0  0
   -3.0480   -0.2960   -1.8940 C   0  0  0  0  0  0  0  0  0  0  0  0
   -3.0810   -0.2340   -3.3730 C   0  0  0  0  0  0  0  0  0  0  0  0
   -2.0610   -0.3200   -4.0740 O   0  0  0  0  0  0  0  0  0  0  0  0
   -2.6760   -3.1980    0.4900 C   0  0  0  0  0  0  0  0  0  0  0  0
   -1.6910   -3.5590    1.1690 O   0  0  0  0  0  0  0  0  0  0  0  0
   -4.3100   -0.0720   -3.9920 O   0  0  0  0  0  0  0  0  0  0  0  0
   -3.6120   -4.2010    0.2130 O   0  0  0  0  0  0  0  0  0  0  0  0
   -0.7560   -1.2630    0.1030 H   0  0  0  0  0  0  0  0  0  0  0  0
   -3.7940   -1.3560    0.4240 H   0  0  0  0  0  0  0  0  0  0  0  0
   -1.9060   -2.1600   -1.8490 H   0  0  0  0  0  0  0  0  0  0  0  0
   -3.7340   -2.3840   -1.8580 H   0  0  0  0  0  0  0  0  0  0  0  0
   -2.1640    0.2330   -1.4780 H   0  0  0  0  0  0  0  0  0  0  0  0
   -3.9800    0.0870   -1.4510 H   0  0  0  0  0  0  0  0  0  0  0  0
   -4.4630   -0.2140   -4.9730 H   0  0  0  0  0  0  0  0  0  0  0  0
  1 11  1  0  0  0  0
  2  1  1  0  0  0  0
  3  2  2  0  0  0  0
  4 12  1  0  0  0  0
  4  2  1  0  0  0  0
  5  4  1  0  0  0  0
  5  6  1  0  0  0  0
  6 16  1  6  0  0  0
  6  8  1  0  0  0  0
  6  7  1  0  0  0  0
  7 17  1  0  0  0  0
  8  9  2  0  0  0  0
 10  1  1  0  0  0  0
 13  4  1  0  0  0  0
 14  5  1  0  0  0  0
 15  5  1  0  0  0  0
 18  7  1  0  0  0  0
 19 29  1  0  0  0  0
 19 28  1  0  0  0  0
 20 21  1  0  0  0  0
 20 19  1  0  0  0  0
 21 31  1  0  0  0  0
 22 33  1  0  0  0  0
 22 21  1  0  0  0  0
 22 23  1  0  0  0  0
 23 34  1  1  0  0  0
 24 23  1  0  0  0  0
 24  8  1  0  0  0  0
 25 26  2  0  0  0  0
 25 23  1  0  0  0  0
 27 19  1  0  0  0  0
 30 21  1  0  0  0  0
 32 22  1  0  0  0  0
 35 24  1  0  0  0  0
 36 25  1  0  0  0  0
 37 47  1  1  0  0  0
 37 36  1  0  0  0  0
 37 42  1  0  0  0  0
 38 37  1  0  0  0  0
 39 38  1  0  0  0  0
 39 50  1  0  0  0  0
 39 51  1  0  0  0  0
 40 39  1  0  0  0  0
 41 40  2  0  0  0  0
 42 43  1  0  0  0  0
 44 40  1  0  0  0  0
 45 42  2  0  0  0  0
 46 36  1  0  0  0  0
 48 38  1  0  0  0  0
 49 38  1  0  0  0  0
 52 44  1  0  0  0  0
M  END
$$$$
