QMI.pdb
 OpenBabel07022418333D

 55 54  0  0  1  0  0  0  0  0999 V2000
    3.3100   -2.6970    6.6960 N   0  0  0  0  0  0  0  0  0  0  0  0
    2.3240   -2.0160    5.9340 C   0  0  0  0  0  0  0  0  0  0  0  0
    1.8300   -0.9840    6.4090 O   0  0  0  0  0  0  0  0  0  0  0  0
    1.9250   -2.5480    4.6320 C   0  0  0  0  0  0  0  0  0  0  0  0
    1.2860   -1.5740    3.6940 C   0  0  0  0  0  0  0  0  0  0  0  0
    2.1960   -0.4680    3.2780 C   0  0  2  0  0  0  0  0  0  0  0  0
    2.6420    0.2930    4.3910 N   0  0  0  0  0  0  0  0  0  0  0  0
    1.5250    0.4040    2.2450 C   0  0  0  0  0  0  0  0  0  0  0  0
    1.4100    1.6360    2.4260 O   0  0  0  0  0  0  0  0  0  0  0  0
    3.9040   -3.4290    6.2440 H   0  0  0  0  0  0  0  0  0  0  0  0
    3.4540   -2.4800    7.7090 H   0  0  0  0  0  0  0  0  0  0  0  0
    1.2200   -3.4080    4.8510 H   0  0  0  0  0  0  0  0  0  0  0  0
    2.7860   -3.0600    4.1130 H   0  0  0  0  0  0  0  0  0  0  0  0
    0.3480   -1.1820    4.1850 H   0  0  0  0  0  0  0  0  0  0  0  0
    0.9790   -2.1420    2.7780 H   0  0  0  0  0  0  0  0  0  0  0  0
    3.0510   -0.9300    2.7040 H   0  0  0  0  0  0  0  0  0  0  0  0
    2.4910    1.3180    4.3210 H   0  0  0  0  0  0  0  0  0  0  0  0
    3.6610    0.1450    4.5790 H   0  0  0  0  0  0  0  0  0  0  0  0
    4.1480   -0.5760   -2.7340 C   0  0  0  0  0  0  0  0  0  0  0  0
    3.7010    1.1100   -2.2700 S   0  0  0  0  0  0  0  0  0  0  0  0
    2.5650    1.1350   -0.8560 C   0  0  0  0  0  0  0  0  0  0  0  0
    1.2120    0.5180   -1.2320 C   0  0  0  0  0  0  0  0  0  0  0  0
    0.3600    0.5950    0.0150 C   0  0  2  0  0  0  0  0  0  0  0  0
    1.0140   -0.1500    1.0570 N   0  0  0  0  0  0  0  0  0  0  0  0
   -1.0290    0.1100   -0.2450 C   0  0  0  0  0  0  0  0  0  0  0  0
   -1.4050   -0.8380    0.4520 O   0  0  0  0  0  0  0  0  0  0  0  0
    4.6210   -0.5340   -3.7380 H   0  0  0  0  0  0  0  0  0  0  0  0
    3.2830   -1.2640   -2.7690 H   0  0  0  0  0  0  0  0  0  0  0  0
    4.9330   -0.9160   -2.0320 H   0  0  0  0  0  0  0  0  0  0  0  0
    2.4240    2.2120   -0.5800 H   0  0  0  0  0  0  0  0  0  0  0  0
    2.9960    0.6380    0.0160 H   0  0  0  0  0  0  0  0  0  0  0  0
    1.4340   -0.5160   -1.5410 H   0  0  0  0  0  0  0  0  0  0  0  0
    0.7550    1.1170   -2.0450 H   0  0  0  0  0  0  0  0  0  0  0  0
    0.3130    1.6620    0.2980 H   0  0  0  0  0  0  0  0  0  0  0  0
    1.1130   -1.1840    0.9100 H   0  0  0  0  0  0  0  0  0  0  0  0
   -5.1070   -2.4370   -2.3250 C   0  0  0  0  0  0  0  0  0  0  0  0
   -4.5200   -1.2990   -3.0680 C   0  0  0  0  0  0  0  0  0  0  0  0
   -3.2540   -0.7200   -2.6070 C   0  0  2  0  0  0  0  0  0  0  0  0
   -2.0950   -1.7290   -2.5540 C   0  0  0  0  0  0  0  0  0  0  0  0
   -3.2240    0.2890   -1.5290 C   0  0  2  0  0  0  0  0  0  0  0  0
   -1.8490    0.7050   -1.2280 N   0  0  0  0  0  0  0  0  0  0  0  0
   -4.0650    0.0890   -0.3470 C   0  0  0  0  0  0  0  0  0  0  0  0
   -3.6150    0.2470    0.8040 O   0  0  0  0  0  0  0  0  0  0  0  0
   -5.3920   -0.2770   -0.4270 O   0  0  0  0  0  0  0  0  0  0  0  0
   -6.1730   -2.2200   -2.1160 H   0  0  0  0  0  0  0  0  0  0  0  0
   -5.1670   -3.3770   -2.9600 H   0  0  0  0  0  0  0  0  0  0  0  0
   -4.6350   -2.6730   -1.3520 H   0  0  0  0  0  0  0  0  0  0  0  0
   -5.2700   -0.4940   -3.1920 H   0  0  0  0  0  0  0  0  0  0  0  0
   -4.3610   -1.6690   -4.1310 H   0  0  0  0  0  0  0  0  0  0  0  0
   -2.9000   -0.1130   -3.5520 H   0  0  0  0  0  0  0  0  0  0  0  0
   -2.0410   -2.2660   -3.5230 H   0  0  0  0  0  0  0  0  0  0  0  0
   -1.1560   -1.1200   -2.4880 H   0  0  0  0  0  0  0  0  0  0  0  0
   -2.2110   -2.4580   -1.7620 H   0  0  0  0  0  0  0  0  0  0  0  0
   -3.6630    1.2870   -1.9410 H   0  0  0  0  0  0  0  0  0  0  0  0
   -1.3770    1.5050   -1.7540 H   0  0  0  0  0  0  0  0  0  0  0  0
  1 11  1  0  0  0  0
  2  3  2  0  0  0  0
  2  1  1  0  0  0  0
  4 12  1  0  0  0  0
  4  2  1  0  0  0  0
  5 14  1  0  0  0  0
  5  4  1  0  0  0  0
  6 16  1  6  0  0  0
  6  5  1  0  0  0  0
  6  7  1  0  0  0  0
  7 18  1  0  0  0  0
  8  9  2  0  0  0  0
  8  6  1  0  0  0  0
 10  1  1  0  0  0  0
 13  4  1  0  0  0  0
 15  5  1  0  0  0  0
 17  7  1  0  0  0  0
 19 20  1  0  0  0  0
 19 29  1  0  0  0  0
 20 21  1  0  0  0  0
 21 30  1  0  0  0  0
 21 31  1  0  0  0  0
 22 21  1  0  0  0  0
 22 23  1  0  0  0  0
 23 34  1  1  0  0  0
 23 24  1  0  0  0  0
 24  8  1  0  0  0  0
 25 23  1  0  0  0  0
 25 26  2  0  0  0  0
 27 19  1  0  0  0  0
 28 19  1  0  0  0  0
 32 22  1  0  0  0  0
 33 22  1  0  0  0  0
 35 24  1  0  0  0  0
 36 45  1  0  0  0  0
 36 47  1  0  0  0  0
 37 38  1  0  0  0  0
 37 36  1  0  0  0  0
 38 50  1  6  0  0  0
 38 39  1  0  0  0  0
 38 40  1  0  0  0  0
 39 52  1  0  0  0  0
 39 53  1  0  0  0  0
 40 54  1  6  0  0  0
 40 41  1  0  0  0  0
 40 42  1  0  0  0  0
 41 25  1  0  0  0  0
 42 43  1  0  0  0  0
 44 42  2  0  0  0  0
 46 36  1  0  0  0  0
 48 37  1  0  0  0  0
 49 37  1  0  0  0  0
 51 39  1  0  0  0  0
 55 41  1  0  0  0  0
M  END
$$$$
