QML.pdb
 OpenBabel07022418333D

 55 54  0  0  1  0  0  0  0  0999 V2000
   -0.1150   -1.8390    6.2040 N   0  0  0  0  0  0  0  0  0  0  0  0
    0.5480   -2.3530    5.0290 C   0  0  0  0  0  0  0  0  0  0  0  0
    0.0300   -3.3750    4.5350 O   0  0  0  0  0  0  0  0  0  0  0  0
    1.7510   -1.6710    4.4990 C   0  0  0  0  0  0  0  0  0  0  0  0
    2.1980   -2.2410    3.1900 C   0  0  0  0  0  0  0  0  0  0  0  0
    1.1710   -2.1010    2.1330 C   0  0  2  0  0  0  0  0  0  0  0  0
    1.7030   -2.6830    0.9040 N   0  0  0  0  0  0  0  0  0  0  0  0
    0.6810   -0.7540    1.8680 C   0  0  0  0  0  0  0  0  0  0  0  0
    0.1330    0.0120    2.6950 O   0  0  0  0  0  0  0  0  0  0  0  0
   -0.3200   -2.5290    6.9560 H   0  0  0  0  0  0  0  0  0  0  0  0
   -0.3700   -0.8430    6.2870 H   0  0  0  0  0  0  0  0  0  0  0  0
    2.6000   -1.8290    5.2240 H   0  0  0  0  0  0  0  0  0  0  0  0
    1.5150   -0.5890    4.4420 H   0  0  0  0  0  0  0  0  0  0  0  0
    2.3140   -3.3530    3.3720 H   0  0  0  0  0  0  0  0  0  0  0  0
    3.1970   -1.8680    2.8770 H   0  0  0  0  0  0  0  0  0  0  0  0
    0.2790   -2.7260    2.3820 H   0  0  0  0  0  0  0  0  0  0  0  0
    2.5990   -2.2650    0.6230 H   0  0  0  0  0  0  0  0  0  0  0  0
    1.7250   -3.7210    0.9930 H   0  0  0  0  0  0  0  0  0  0  0  0
    4.7580    2.5510   -1.1750 C   0  0  0  0  0  0  0  0  0  0  0  0
    3.3650    2.4500   -2.3270 S   0  0  0  0  0  0  0  0  0  0  0  0
    2.0790    1.3580   -1.6610 C   0  0  0  0  0  0  0  0  0  0  0  0
    1.4520    1.9450   -0.4140 C   0  0  0  0  0  0  0  0  0  0  0  0
    0.3900    1.0710    0.1620 C   0  0  2  0  0  0  0  0  0  0  0  0
    0.8260   -0.2290    0.5500 N   0  0  0  0  0  0  0  0  0  0  0  0
   -0.7420    0.9190   -0.8270 C   0  0  0  0  0  0  0  0  0  0  0  0
   -1.2890    1.9380   -1.3100 O   0  0  0  0  0  0  0  0  0  0  0  0
    5.6840    2.7150   -1.7620 H   0  0  0  0  0  0  0  0  0  0  0  0
    4.8220    1.6250   -0.5890 H   0  0  0  0  0  0  0  0  0  0  0  0
    4.6540    3.3910   -0.4510 H   0  0  0  0  0  0  0  0  0  0  0  0
    1.3310    1.2190   -2.4660 H   0  0  0  0  0  0  0  0  0  0  0  0
    2.5070    0.3400   -1.4740 H   0  0  0  0  0  0  0  0  0  0  0  0
    2.2110    2.2190    0.3220 H   0  0  0  0  0  0  0  0  0  0  0  0
    0.9610    2.8970   -0.7390 H   0  0  0  0  0  0  0  0  0  0  0  0
   -0.0610    1.5920    1.0270 H   0  0  0  0  0  0  0  0  0  0  0  0
    1.2820   -0.8230   -0.2050 H   0  0  0  0  0  0  0  0  0  0  0  0
   -2.7830   -1.7790    0.7380 C   0  0  0  0  0  0  0  0  0  0  0  0
   -3.6760   -1.8970   -0.4500 C   0  0  0  0  0  0  0  0  0  0  0  0
   -3.5330   -3.2940   -1.0080 C   0  0  0  0  0  0  0  0  0  0  0  0
   -3.5520   -0.8360   -1.4780 C   0  0  0  0  0  0  0  0  0  0  0  0
   -2.2410   -0.6710   -2.1430 C   0  0  2  0  0  0  0  0  0  0  0  0
   -1.2090   -0.3560   -1.2280 N   0  0  0  0  0  0  0  0  0  0  0  0
   -2.3110    0.1760   -3.3650 C   0  0  0  0  0  0  0  0  0  0  0  0
   -1.4720    1.0450   -3.6250 O   0  0  0  0  0  0  0  0  0  0  0  0
   -3.3650   -0.0260   -4.2390 O   0  0  0  0  0  0  0  0  0  0  0  0
   -3.3270   -1.9930    1.7000 H   0  0  0  0  0  0  0  0  0  0  0  0
   -1.9410   -2.5240    0.7190 H   0  0  0  0  0  0  0  0  0  0  0  0
   -2.4050   -0.7520    0.8330 H   0  0  0  0  0  0  0  0  0  0  0  0
   -4.7340   -1.8220   -0.0490 H   0  0  0  0  0  0  0  0  0  0  0  0
   -4.3170   -3.9450   -0.5760 H   0  0  0  0  0  0  0  0  0  0  0  0
   -3.6380   -3.3390   -2.1070 H   0  0  0  0  0  0  0  0  0  0  0  0
   -2.5620   -3.7330   -0.6590 H   0  0  0  0  0  0  0  0  0  0  0  0
   -4.3150   -0.9960   -2.2850 H   0  0  0  0  0  0  0  0  0  0  0  0
   -3.9000    0.1240   -0.9920 H   0  0  0  0  0  0  0  0  0  0  0  0
   -1.9590   -1.7190   -2.5510 H   0  0  0  0  0  0  0  0  0  0  0  0
   -0.6810   -1.1650   -0.7570 H   0  0  0  0  0  0  0  0  0  0  0  0
  1 11  1  0  0  0  0
  1 10  1  0  0  0  0
  2  1  1  0  0  0  0
  3  2  2  0  0  0  0
  4  2  1  0  0  0  0
  4 12  1  0  0  0  0
  5 14  1  0  0  0  0
  5  4  1  0  0  0  0
  6 16  1  1  0  0  0
  6  5  1  0  0  0  0
  7 18  1  0  0  0  0
  7  6  1  0  0  0  0
  8  6  1  0  0  0  0
  8  9  2  0  0  0  0
 13  4  1  0  0  0  0
 15  5  1  0  0  0  0
 17  7  1  0  0  0  0
 19 28  1  0  0  0  0
 19 29  1  0  0  0  0
 20 21  1  0  0  0  0
 20 19  1  0  0  0  0
 21 31  1  0  0  0  0
 21 22  1  0  0  0  0
 22 23  1  0  0  0  0
 22 32  1  0  0  0  0
 23 24  1  0  0  0  0
 23 34  1  1  0  0  0
 24  8  1  0  0  0  0
 25 23  1  0  0  0  0
 26 25  2  0  0  0  0
 27 19  1  0  0  0  0
 30 21  1  0  0  0  0
 33 22  1  0  0  0  0
 35 24  1  0  0  0  0
 36 47  1  0  0  0  0
 36 45  1  0  0  0  0
 37 48  1  0  0  0  0
 37 36  1  0  0  0  0
 38 51  1  0  0  0  0
 38 49  1  0  0  0  0
 38 37  1  0  0  0  0
 39 53  1  0  0  0  0
 39 37  1  0  0  0  0
 40 54  1  6  0  0  0
 40 39  1  0  0  0  0
 40 41  1  0  0  0  0
 41 25  1  0  0  0  0
 41 55  1  0  0  0  0
 42 40  1  0  0  0  0
 43 42  1  0  0  0  0
 44 42  2  0  0  0  0
 46 36  1  0  0  0  0
 50 38  1  0  0  0  0
 52 39  1  0  0  0  0
M  END
$$$$
