QMQ.pdb
 OpenBabel07022418333D

 53 52  0  0  1  0  0  0  0  0999 V2000
    0.1330   -4.1820    2.9950 N   0  0  0  0  0  0  0  0  0  0  0  0
    0.9680   -3.0430    3.0910 C   0  0  0  0  0  0  0  0  0  0  0  0
    0.8160   -2.3070    4.0830 O   0  0  0  0  0  0  0  0  0  0  0  0
    1.9630   -2.7520    2.0700 C   0  0  0  0  0  0  0  0  0  0  0  0
    2.7620   -1.5220    2.2070 C   0  0  0  0  0  0  0  0  0  0  0  0
    2.0750   -0.2090    2.1550 C   0  0  2  0  0  0  0  0  0  0  0  0
    1.0740    0.0750    3.1020 N   0  0  0  0  0  0  0  0  0  0  0  0
    1.7250    0.1470    0.7340 C   0  0  0  0  0  0  0  0  0  0  0  0
    2.5170   -0.3480   -0.1340 O   0  0  0  0  0  0  0  0  0  0  0  0
   -0.6980   -4.3360    3.6130 H   0  0  0  0  0  0  0  0  0  0  0  0
    0.3500   -4.9020    2.2800 H   0  0  0  0  0  0  0  0  0  0  0  0
    2.7010   -3.6040    1.9360 H   0  0  0  0  0  0  0  0  0  0  0  0
    1.4580   -2.7150    1.0620 H   0  0  0  0  0  0  0  0  0  0  0  0
    3.4230   -1.5840    3.1270 H   0  0  0  0  0  0  0  0  0  0  0  0
    3.5030   -1.5200    1.3470 H   0  0  0  0  0  0  0  0  0  0  0  0
    2.9190    0.5510    2.3770 H   0  0  0  0  0  0  0  0  0  0  0  0
    0.1370   -0.0620    2.6590 H   0  0  0  0  0  0  0  0  0  0  0  0
    1.1020    1.0530    3.4260 H   0  0  0  0  0  0  0  0  0  0  0  0
    2.0530    3.4320    1.1970 C   0  0  0  0  0  0  0  0  0  0  0  0
    3.1220    2.8220   -0.1050 S   0  0  0  0  0  0  0  0  0  0  0  0
    2.3510    2.5870   -1.6840 C   0  0  0  0  0  0  0  0  0  0  0  0
    1.4620    1.4570   -1.9500 C   0  0  0  0  0  0  0  0  0  0  0  0
    0.3250    1.2840   -1.0140 C   0  0  2  0  0  0  0  0  0  0  0  0
    0.6440    0.9440    0.3450 N   0  0  0  0  0  0  0  0  0  0  0  0
   -0.8600    0.6200   -1.5710 C   0  0  0  0  0  0  0  0  0  0  0  0
   -1.2420    0.7860   -2.7680 O   0  0  0  0  0  0  0  0  0  0  0  0
    2.0310    2.7070    2.0250 H   0  0  0  0  0  0  0  0  0  0  0  0
    1.0190    3.6380    0.8320 H   0  0  0  0  0  0  0  0  0  0  0  0
    2.4670    4.3720    1.6620 H   0  0  0  0  0  0  0  0  0  0  0  0
    3.2250    2.5330   -2.4420 H   0  0  0  0  0  0  0  0  0  0  0  0
    1.8600    3.5820   -2.0210 H   0  0  0  0  0  0  0  0  0  0  0  0
    2.0850    0.5440   -2.1190 H   0  0  0  0  0  0  0  0  0  0  0  0
    0.9710    1.6780   -2.9710 H   0  0  0  0  0  0  0  0  0  0  0  0
   -0.0250    2.4190   -0.9060 H   0  0  0  0  0  0  0  0  0  0  0  0
    0.0380    1.3060    1.1520 H   0  0  0  0  0  0  0  0  0  0  0  0
   -2.4080   -5.1170    1.3390 N   0  0  0  0  0  0  0  0  0  0  0  0
   -2.4360   -4.3600    0.1360 C   0  0  0  0  0  0  0  0  0  0  0  0
   -2.3640   -5.0190   -0.9370 O   0  0  0  0  0  0  0  0  0  0  0  0
   -2.5460   -2.8820    0.2010 C   0  0  0  0  0  0  0  0  0  0  0  0
   -2.6960   -2.3890   -1.2160 C   0  0  0  0  0  0  0  0  0  0  0  0
   -2.8310   -0.9100   -1.3300 C   0  0  2  0  0  0  0  0  0  0  0  0
   -1.6490   -0.2490   -0.7910 N   0  0  0  0  0  0  0  0  0  0  0  0
   -4.0690   -0.3930   -0.7080 C   0  0  0  0  0  0  0  0  0  0  0  0
   -5.1640   -0.8640   -1.0560 O   0  0  0  0  0  0  0  0  0  0  0  0
   -4.0120    0.5950    0.2410 O   0  0  0  0  0  0  0  0  0  0  0  0
   -2.7790   -4.6810    2.2010 H   0  0  0  0  0  0  0  0  0  0  0  0
   -2.0220   -6.0990    1.3710 H   0  0  0  0  0  0  0  0  0  0  0  0
   -1.6180   -2.5160    0.6900 H   0  0  0  0  0  0  0  0  0  0  0  0
   -3.4540   -2.6460    0.7890 H   0  0  0  0  0  0  0  0  0  0  0  0
   -1.8360   -2.7100   -1.8490 H   0  0  0  0  0  0  0  0  0  0  0  0
   -3.5860   -2.8950   -1.6570 H   0  0  0  0  0  0  0  0  0  0  0  0
   -2.8850   -0.6420   -2.4050 H   0  0  0  0  0  0  0  0  0  0  0  0
   -1.4180   -0.4530    0.1970 H   0  0  0  0  0  0  0  0  0  0  0  0
  1  2  1  0  0  0  0
  1 10  1  0  0  0  0
  2  3  2  0  0  0  0
  4  5  1  0  0  0  0
  4  2  1  0  0  0  0
  5 14  1  0  0  0  0
  6  5  1  0  0  0  0
  6 16  1  1  0  0  0
  6  7  1  0  0  0  0
  7 18  1  0  0  0  0
  8  6  1  0  0  0  0
  9  8  2  0  0  0  0
 11  1  1  0  0  0  0
 12  4  1  0  0  0  0
 13  4  1  0  0  0  0
 15  5  1  0  0  0  0
 17  7  1  0  0  0  0
 19 29  1  0  0  0  0
 19 27  1  0  0  0  0
 20 19  1  0  0  0  0
 21 20  1  0  0  0  0
 22 21  1  0  0  0  0
 22 23  1  0  0  0  0
 23 34  1  1  0  0  0
 23 24  1  0  0  0  0
 24  8  1  0  0  0  0
 24 35  1  0  0  0  0
 25 23  1  0  0  0  0
 25 42  1  0  0  0  0
 26 25  2  0  0  0  0
 28 19  1  0  0  0  0
 30 21  1  0  0  0  0
 31 21  1  0  0  0  0
 32 22  1  0  0  0  0
 33 22  1  0  0  0  0
 36 47  1  0  0  0  0
 36 46  1  0  0  0  0
 37 39  1  0  0  0  0
 37 36  1  0  0  0  0
 38 37  2  0  0  0  0
 39 48  1  0  0  0  0
 39 49  1  0  0  0  0
 40 39  1  0  0  0  0
 41 52  1  6  0  0  0
 41 40  1  0  0  0  0
 41 42  1  0  0  0  0
 41 43  1  0  0  0  0
 42 53  1  0  0  0  0
 43 45  1  0  0  0  0
 44 43  2  0  0  0  0
 50 40  1  0  0  0  0
 51 40  1  0  0  0  0
M  END
$$$$
