QMW.pdb
 OpenBabel07022418333D

 60 61  0  0  1  0  0  0  0  0999 V2000
    1.9070   -4.5330    4.1360 N   0  0  0  0  0  0  0  0  0  0  0  0
    1.4580   -3.4110    3.4120 C   0  0  0  0  0  0  0  0  0  0  0  0
    0.2320   -3.1740    3.2700 O   0  0  0  0  0  0  0  0  0  0  0  0
    2.4430   -2.4930    2.8050 C   0  0  0  0  0  0  0  0  0  0  0  0
    1.7750   -1.3520    2.0780 C   0  0  0  0  0  0  0  0  0  0  0  0
    2.8530   -0.4510    1.4790 C   0  0  2  0  0  0  0  0  0  0  0  0
    3.7030    0.0760    2.5270 N   0  0  0  0  0  0  0  0  0  0  0  0
    2.2420    0.6620    0.7120 C   0  0  0  0  0  0  0  0  0  0  0  0
    2.5150    1.8630    1.0360 O   0  0  0  0  0  0  0  0  0  0  0  0
    2.2480   -5.3620    3.6010 H   0  0  0  0  0  0  0  0  0  0  0  0
    1.8790   -4.4870    5.1820 H   0  0  0  0  0  0  0  0  0  0  0  0
    3.1110   -2.1310    3.6200 H   0  0  0  0  0  0  0  0  0  0  0  0
    3.0450   -3.0920    2.0790 H   0  0  0  0  0  0  0  0  0  0  0  0
    1.1640   -0.7940    2.8070 H   0  0  0  0  0  0  0  0  0  0  0  0
    1.1190   -1.7600    1.3050 H   0  0  0  0  0  0  0  0  0  0  0  0
    3.4910   -1.0540    0.8040 H   0  0  0  0  0  0  0  0  0  0  0  0
    4.1810    0.9540    2.2120 H   0  0  0  0  0  0  0  0  0  0  0  0
    4.4550   -0.6050    2.7570 H   0  0  0  0  0  0  0  0  0  0  0  0
    3.0900    4.2700   -2.8950 C   0  0  0  0  0  0  0  0  0  0  0  0
    1.2860    4.1050   -2.7340 S   0  0  0  0  0  0  0  0  0  0  0  0
    0.7340    2.5010   -3.3760 C   0  0  0  0  0  0  0  0  0  0  0  0
    1.2640    1.4050   -2.5210 C   0  0  0  0  0  0  0  0  0  0  0  0
    0.7820    1.5590   -1.1020 C   0  0  2  0  0  0  0  0  0  0  0  0
    1.3680    0.4390   -0.3670 N   0  0  0  0  0  0  0  0  0  0  0  0
   -0.6860    1.5230   -0.9650 C   0  0  0  0  0  0  0  0  0  0  0  0
   -1.4140    2.4270   -1.4870 O   0  0  0  0  0  0  0  0  0  0  0  0
    3.5330    4.5310   -1.9040 H   0  0  0  0  0  0  0  0  0  0  0  0
    3.4840    3.2730   -3.1820 H   0  0  0  0  0  0  0  0  0  0  0  0
    3.3560    5.0540   -3.6220 H   0  0  0  0  0  0  0  0  0  0  0  0
   -0.3490    2.5340   -3.5020 H   0  0  0  0  0  0  0  0  0  0  0  0
    1.1960    2.3470   -4.4030 H   0  0  0  0  0  0  0  0  0  0  0  0
    1.0330    0.4000   -2.9310 H   0  0  0  0  0  0  0  0  0  0  0  0
    2.3780    1.5100   -2.4790 H   0  0  0  0  0  0  0  0  0  0  0  0
    1.1510    2.5300   -0.7060 H   0  0  0  0  0  0  0  0  0  0  0  0
    1.1140   -0.5110   -0.6730 H   0  0  0  0  0  0  0  0  0  0  0  0
   -1.3100    0.4710   -0.2450 N   0  0  0  0  0  0  0  0  0  0  0  0
   -2.7470    0.3560   -0.0610 C   0  0  1  0  0  0  0  0  0  0  0  0
   -3.3060   -0.8250   -0.7920 C   0  0  0  0  0  0  0  0  0  0  0  0
   -2.7750   -2.1270   -0.4570 C   0  0  0  0  0  0  0  0  0  0  0  0
   -1.7730   -2.7410   -1.2170 C   0  0  0  0  0  0  0  0  0  0  0  0
   -1.4540   -3.9040   -0.6730 N   0  0  0  0  0  0  0  0  0  0  0  0
   -2.2300   -4.0750    0.4370 C   0  0  0  0  0  0  0  0  0  0  0  0
   -2.2970   -5.1080    1.3470 C   0  0  0  0  0  0  0  0  0  0  0  0
   -3.1800   -5.0580    2.3980 C   0  0  0  0  0  0  0  0  0  0  0  0
   -4.0090   -3.9600    2.5450 C   0  0  0  0  0  0  0  0  0  0  0  0
   -3.9400   -2.9400    1.6430 C   0  0  0  0  0  0  0  0  0  0  0  0
   -3.0480   -2.9760    0.5710 C   0  0  0  0  0  0  0  0  0  0  0  0
   -3.1910    0.4890    1.3260 C   0  0  0  0  0  0  0  0  0  0  0  0
   -4.4090    0.5330    1.6030 O   0  0  0  0  0  0  0  0  0  0  0  0
   -2.2760    0.5670    2.3600 O   0  0  0  0  0  0  0  0  0  0  0  0
   -0.7090   -0.2580    0.1760 H   0  0  0  0  0  0  0  0  0  0  0  0
   -3.1650    1.2840   -0.5870 H   0  0  0  0  0  0  0  0  0  0  0  0
   -4.4220   -0.8330   -0.6080 H   0  0  0  0  0  0  0  0  0  0  0  0
   -3.2440   -0.6240   -1.9040 H   0  0  0  0  0  0  0  0  0  0  0  0
   -1.3010   -2.3530   -2.1240 H   0  0  0  0  0  0  0  0  0  0  0  0
   -0.7410   -4.5950   -1.0080 H   0  0  0  0  0  0  0  0  0  0  0  0
   -1.6430   -5.9630    1.2220 H   0  0  0  0  0  0  0  0  0  0  0  0
   -3.2380   -5.8610    3.1130 H   0  0  0  0  0  0  0  0  0  0  0  0
   -4.7090   -3.9470    3.4000 H   0  0  0  0  0  0  0  0  0  0  0  0
   -4.5810   -2.0820    1.7280 H   0  0  0  0  0  0  0  0  0  0  0  0
  1 11  1  0  0  0  0
  2  1  1  0  0  0  0
  3  2  2  0  0  0  0
  4  2  1  0  0  0  0
  4 12  1  0  0  0  0
  5  4  1  0  0  0  0
  5 14  1  0  0  0  0
  6 16  1  6  0  0  0
  6  5  1  0  0  0  0
  6  7  1  0  0  0  0
  7 18  1  0  0  0  0
  8  9  2  0  0  0  0
  8  6  1  0  0  0  0
 10  1  1  0  0  0  0
 13  4  1  0  0  0  0
 15  5  1  0  0  0  0
 17  7  1  0  0  0  0
 19 20  1  0  0  0  0
 19 27  1  0  0  0  0
 21 20  1  0  0  0  0
 21 22  1  0  0  0  0
 22 33  1  0  0  0  0
 22 23  1  0  0  0  0
 23 25  1  0  0  0  0
 23 34  1  1  0  0  0
 23 24  1  0  0  0  0
 24  8  1  0  0  0  0
 25 36  1  0  0  0  0
 26 25  2  0  0  0  0
 28 19  1  0  0  0  0
 29 19  1  0  0  0  0
 30 21  1  0  0  0  0
 31 21  1  0  0  0  0
 32 22  1  0  0  0  0
 35 24  1  0  0  0  0
 36 37  1  0  0  0  0
 36 51  1  0  0  0  0
 37 52  1  6  0  0  0
 37 48  1  0  0  0  0
 38 53  1  0  0  0  0
 38 39  1  0  0  0  0
 38 37  1  0  0  0  0
 39 47  1  0  0  0  0
 40 41  1  0  0  0  0
 40 39  2  0  0  0  0
 41 42  1  0  0  0  0
 42 47  2  0  0  0  0
 42 43  1  0  0  0  0
 43 44  2  0  0  0  0
 44 45  1  0  0  0  0
 44 58  1  0  0  0  0
 45 59  1  0  0  0  0
 46 60  1  0  0  0  0
 46 45  2  0  0  0  0
 47 46  1  0  0  0  0
 48 49  2  0  0  0  0
 48 50  1  0  0  0  0
 54 38  1  0  0  0  0
 55 40  1  0  0  0  0
 56 41  1  0  0  0  0
 57 43  1  0  0  0  0
M  END
$$$$
