QNA.pdb
 OpenBabel07022418303D

 43 42  0  0  1  0  0  0  0  0999 V2000
    2.6400   -5.7570    1.9440 N   0  0  0  0  0  0  0  0  0  0  0  0
    2.1080   -4.5010    1.5540 C   0  0  0  0  0  0  0  0  0  0  0  0
    2.1670   -4.1280    0.3790 O   0  0  0  0  0  0  0  0  0  0  0  0
    1.4870   -3.6670    2.5930 C   0  0  0  0  0  0  0  0  0  0  0  0
    1.1200   -2.2790    2.1590 C   0  0  0  0  0  0  0  0  0  0  0  0
    2.3360   -1.5260    1.7550 C   0  0  2  0  0  0  0  0  0  0  0  0
    3.2320   -1.4620    2.9000 N   0  0  0  0  0  0  0  0  0  0  0  0
    2.0270   -0.1240    1.3350 C   0  0  0  0  0  0  0  0  0  0  0  0
    2.5080    0.8620    1.9660 O   0  0  0  0  0  0  0  0  0  0  0  0
    3.4350   -5.7480    2.6240 H   0  0  0  0  0  0  0  0  0  0  0  0
    2.2860   -6.6700    1.5960 H   0  0  0  0  0  0  0  0  0  0  0  0
    2.2380   -3.6440    3.4430 H   0  0  0  0  0  0  0  0  0  0  0  0
    0.6160   -4.2000    3.0450 H   0  0  0  0  0  0  0  0  0  0  0  0
    0.5900   -1.7590    2.9920 H   0  0  0  0  0  0  0  0  0  0  0  0
    0.3720   -2.3870    1.3440 H   0  0  0  0  0  0  0  0  0  0  0  0
    2.8780   -2.0710    0.9690 H   0  0  0  0  0  0  0  0  0  0  0  0
    3.8970   -2.2470    2.9470 H   0  0  0  0  0  0  0  0  0  0  0  0
    2.7610   -1.2160    3.7830 H   0  0  0  0  0  0  0  0  0  0  0  0
    1.5500    3.4050   -3.4940 N   0  0  0  0  0  0  0  0  0  0  0  0
    1.1760    3.1040   -2.1450 C   0  0  0  0  0  0  0  0  0  0  0  0
    0.6670    4.0320   -1.4750 O   0  0  0  0  0  0  0  0  0  0  0  0
    1.3900    1.7570   -1.5910 C   0  0  0  0  0  0  0  0  0  0  0  0
    0.8730    1.5280   -0.2080 C   0  0  2  0  0  0  0  0  0  0  0  0
    1.1900    0.1460    0.2220 N   0  0  0  0  0  0  0  0  0  0  0  0
   -0.5650    1.7550   -0.0280 C   0  0  0  0  0  0  0  0  0  0  0  0
   -1.1980    2.8060   -0.2810 O   0  0  0  0  0  0  0  0  0  0  0  0
    0.7960    3.6180   -4.1730 H   0  0  0  0  0  0  0  0  0  0  0  0
    2.5410    3.4180   -3.8130 H   0  0  0  0  0  0  0  0  0  0  0  0
    2.5050    1.5880   -1.6240 H   0  0  0  0  0  0  0  0  0  0  0  0
    0.9990    0.9780   -2.3100 H   0  0  0  0  0  0  0  0  0  0  0  0
    1.4150    2.1960    0.4910 H   0  0  0  0  0  0  0  0  0  0  0  0
    0.8050   -0.6760   -0.2860 H   0  0  0  0  0  0  0  0  0  0  0  0
   -3.5240   -0.1950   -0.1190 C   0  0  0  0  0  0  0  0  0  0  0  0
   -2.7820    0.8090    0.7010 C   0  0  2  0  0  0  0  0  0  0  0  0
   -1.3540    0.6650    0.4950 N   0  0  0  0  0  0  0  0  0  0  0  0
   -3.1280    0.7430    2.1480 C   0  0  0  0  0  0  0  0  0  0  0  0
   -2.2820    0.5870    3.0610 O   0  0  0  0  0  0  0  0  0  0  0  0
   -4.4690    0.8620    2.4880 O   0  0  0  0  0  0  0  0  0  0  0  0
   -3.8820    0.2250   -1.0900 H   0  0  0  0  0  0  0  0  0  0  0  0
   -4.4280   -0.5770    0.4030 H   0  0  0  0  0  0  0  0  0  0  0  0
   -2.8630   -1.0660   -0.3310 H   0  0  0  0  0  0  0  0  0  0  0  0
   -3.0710    1.8310    0.3730 H   0  0  0  0  0  0  0  0  0  0  0  0
   -0.8990   -0.2370    0.7300 H   0  0  0  0  0  0  0  0  0  0  0  0
  1 10  1  0  0  0  0
  2  1  1  0  0  0  0
  2  4  1  0  0  0  0
  3  2  2  0  0  0  0
  4 13  1  0  0  0  0
  4 12  1  0  0  0  0
  5  4  1  0  0  0  0
  5 14  1  0  0  0  0
  6 16  1  6  0  0  0
  6  5  1  0  0  0  0
  6  7  1  0  0  0  0
  7 17  1  0  0  0  0
  7 18  1  0  0  0  0
  8  6  1  0  0  0  0
  8  9  2  0  0  0  0
 11  1  1  0  0  0  0
 15  5  1  0  0  0  0
 19 20  1  0  0  0  0
 20 22  1  0  0  0  0
 20 21  2  0  0  0  0
 22 23  1  0  0  0  0
 23 25  1  0  0  0  0
 23 24  1  0  0  0  0
 23 31  1  1  0  0  0
 24  8  1  0  0  0  0
 25 35  1  0  0  0  0
 26 25  2  0  0  0  0
 27 19  1  0  0  0  0
 28 19  1  0  0  0  0
 29 22  1  0  0  0  0
 30 22  1  0  0  0  0
 32 24  1  0  0  0  0
 33 40  1  0  0  0  0
 33 34  1  0  0  0  0
 34 42  1  6  0  0  0
 34 36  1  0  0  0  0
 35 34  1  0  0  0  0
 35 43  1  0  0  0  0
 36 38  2  0  0  0  0
 36 37  1  0  0  0  0
 39 33  1  0  0  0  0
 41 33  1  0  0  0  0
M  END
$$$$
