QNC.pdb
 OpenBabel07022418303D

 44 43  0  0  1  0  0  0  0  0999 V2000
    0.8680   -6.2570    2.1140 N   0  0  0  0  0  0  0  0  0  0  0  0
    0.6570   -4.8640    2.0020 C   0  0  0  0  0  0  0  0  0  0  0  0
   -0.4950   -4.4200    2.2290 O   0  0  0  0  0  0  0  0  0  0  0  0
    1.7240   -3.9120    1.6340 C   0  0  0  0  0  0  0  0  0  0  0  0
    1.1920   -2.4830    1.5610 C   0  0  0  0  0  0  0  0  0  0  0  0
    2.3620   -1.5970    1.1920 C   0  0  2  0  0  0  0  0  0  0  0  0
    3.3400   -1.7880    2.2750 N   0  0  0  0  0  0  0  0  0  0  0  0
    2.0240   -0.1750    1.1800 C   0  0  0  0  0  0  0  0  0  0  0  0
    2.4870    0.6610    2.0210 O   0  0  0  0  0  0  0  0  0  0  0  0
    0.1060   -6.9640    2.0880 H   0  0  0  0  0  0  0  0  0  0  0  0
    1.8440   -6.6020    2.2280 H   0  0  0  0  0  0  0  0  0  0  0  0
    2.1460   -4.2130    0.6370 H   0  0  0  0  0  0  0  0  0  0  0  0
    2.5670   -3.9790    2.3550 H   0  0  0  0  0  0  0  0  0  0  0  0
    0.3610   -2.4450    0.8330 H   0  0  0  0  0  0  0  0  0  0  0  0
    0.7880   -2.2460    2.5670 H   0  0  0  0  0  0  0  0  0  0  0  0
    2.8220   -2.0060    0.2900 H   0  0  0  0  0  0  0  0  0  0  0  0
    4.0010   -2.5570    2.0780 H   0  0  0  0  0  0  0  0  0  0  0  0
    3.8130   -0.8920    2.5250 H   0  0  0  0  0  0  0  0  0  0  0  0
    3.0140    3.0970   -2.6030 N   0  0  0  0  0  0  0  0  0  0  0  0
    2.4840    2.4900   -1.4350 C   0  0  0  0  0  0  0  0  0  0  0  0
    3.2860    1.8680   -0.6970 O   0  0  0  0  0  0  0  0  0  0  0  0
    1.0650    2.5510   -1.0500 C   0  0  0  0  0  0  0  0  0  0  0  0
    0.8190    1.8250    0.2230 C   0  0  2  0  0  0  0  0  0  0  0  0
    1.1440    0.4400    0.2320 N   0  0  0  0  0  0  0  0  0  0  0  0
   -0.6340    1.9060    0.6150 C   0  0  0  0  0  0  0  0  0  0  0  0
   -1.1300    3.0540    0.6920 O   0  0  0  0  0  0  0  0  0  0  0  0
    3.4030    4.0560   -2.5180 H   0  0  0  0  0  0  0  0  0  0  0  0
    3.0200    2.6170   -3.5060 H   0  0  0  0  0  0  0  0  0  0  0  0
    0.3600    2.3050   -1.8610 H   0  0  0  0  0  0  0  0  0  0  0  0
    0.8660    3.6440   -0.8300 H   0  0  0  0  0  0  0  0  0  0  0  0
    1.3790    2.3310    1.0330 H   0  0  0  0  0  0  0  0  0  0  0  0
    0.7130   -0.1670   -0.4980 H   0  0  0  0  0  0  0  0  0  0  0  0
   -1.4340    0.7740    0.8880 N   0  0  0  0  0  0  0  0  0  0  0  0
   -2.8260    0.8360    1.2630 C   0  0  1  0  0  0  0  0  0  0  0  0
   -3.7220    0.1800    0.2340 C   0  0  0  0  0  0  0  0  0  0  0  0
   -3.5390    1.0160   -1.3710 S   0  0  0  0  0  0  0  0  0  0  0  0
   -3.0510    0.1710    2.5680 C   0  0  0  0  0  0  0  0  0  0  0  0
   -2.1410   -0.3780    3.2510 O   0  0  0  0  0  0  0  0  0  0  0  0
   -4.3630    0.1520    3.0790 O   0  0  0  0  0  0  0  0  0  0  0  0
   -0.9770   -0.1610    0.8110 H   0  0  0  0  0  0  0  0  0  0  0  0
   -3.1960    1.8770    1.3560 H   0  0  0  0  0  0  0  0  0  0  0  0
   -3.5910   -0.9050    0.1750 H   0  0  0  0  0  0  0  0  0  0  0  0
   -4.7730    0.3670    0.5650 H   0  0  0  0  0  0  0  0  0  0  0  0
   -3.2630    0.0490   -2.3450 H   0  0  0  0  0  0  0  0  0  0  0  0
  1 11  1  0  0  0  0
  2  1  1  0  0  0  0
  2  3  2  0  0  0  0
  4  2  1  0  0  0  0
  4 13  1  0  0  0  0
  5  4  1  0  0  0  0
  5 15  1  0  0  0  0
  6 16  1  6  0  0  0
  6  5  1  0  0  0  0
  6  7  1  0  0  0  0
  7 18  1  0  0  0  0
  8  6  1  0  0  0  0
  8  9  2  0  0  0  0
 10  1  1  0  0  0  0
 12  4  1  0  0  0  0
 14  5  1  0  0  0  0
 17  7  1  0  0  0  0
 19 27  1  0  0  0  0
 19 20  1  0  0  0  0
 20 22  1  0  0  0  0
 20 21  2  0  0  0  0
 22 30  1  0  0  0  0
 22 23  1  0  0  0  0
 23 24  1  0  0  0  0
 23 25  1  0  0  0  0
 23 31  1  1  0  0  0
 24  8  1  0  0  0  0
 25 26  2  0  0  0  0
 25 33  1  0  0  0  0
 28 19  1  0  0  0  0
 29 22  1  0  0  0  0
 32 24  1  0  0  0  0
 33 34  1  0  0  0  0
 34 41  1  1  0  0  0
 34 37  1  0  0  0  0
 35 43  1  0  0  0  0
 35 34  1  0  0  0  0
 36 35  1  0  0  0  0
 37 39  2  0  0  0  0
 37 38  1  0  0  0  0
 40 33  1  0  0  0  0
 42 35  1  0  0  0  0
 44 36  1  0  0  0  0
M  END
$$$$
