QND.pdb
 OpenBabel07022418303D

 46 45  0  0  1  0  0  0  0  0999 V2000
    1.3980   -4.3330    5.8470 N   0  0  0  0  0  0  0  0  0  0  0  0
    1.8940   -3.6670    4.6940 C   0  0  0  0  0  0  0  0  0  0  0  0
    2.1490   -2.4530    4.7650 O   0  0  0  0  0  0  0  0  0  0  0  0
    2.1150   -4.3980    3.4100 C   0  0  0  0  0  0  0  0  0  0  0  0
    2.2550   -3.3880    2.3140 C   0  0  0  0  0  0  0  0  0  0  0  0
    1.0220   -2.5490    2.0860 C   0  0  2  0  0  0  0  0  0  0  0  0
   -0.0790   -3.3660    1.6870 N   0  0  0  0  0  0  0  0  0  0  0  0
    1.3780   -1.4350    1.2050 C   0  0  0  0  0  0  0  0  0  0  0  0
    2.4830   -0.8540    1.4700 O   0  0  0  0  0  0  0  0  0  0  0  0
    1.8170   -4.1840    6.7730 H   0  0  0  0  0  0  0  0  0  0  0  0
    0.6000   -4.9760    5.7430 H   0  0  0  0  0  0  0  0  0  0  0  0
    1.2490   -5.0620    3.1770 H   0  0  0  0  0  0  0  0  0  0  0  0
    3.0350   -5.0140    3.4560 H   0  0  0  0  0  0  0  0  0  0  0  0
    3.0990   -2.6780    2.4540 H   0  0  0  0  0  0  0  0  0  0  0  0
    2.5110   -3.9250    1.3520 H   0  0  0  0  0  0  0  0  0  0  0  0
    0.7180   -2.0920    3.1040 H   0  0  0  0  0  0  0  0  0  0  0  0
    0.2130   -4.1600    1.1040 H   0  0  0  0  0  0  0  0  0  0  0  0
   -0.8850   -2.8610    1.3100 H   0  0  0  0  0  0  0  0  0  0  0  0
   -0.0870   -0.6570   -4.1520 N   0  0  0  0  0  0  0  0  0  0  0  0
   -0.0370   -0.3690   -2.7760 C   0  0  0  0  0  0  0  0  0  0  0  0
   -1.1210   -0.4040   -2.1330 O   0  0  0  0  0  0  0  0  0  0  0  0
    1.2140   -0.0420   -2.1070 C   0  0  0  0  0  0  0  0  0  0  0  0
    1.1560    0.2210   -0.6660 C   0  0  2  0  0  0  0  0  0  0  0  0
    0.6500   -0.9280    0.1150 N   0  0  0  0  0  0  0  0  0  0  0  0
    0.3800    1.3980   -0.2280 C   0  0  0  0  0  0  0  0  0  0  0  0
    0.8210    2.5220   -0.5190 O   0  0  0  0  0  0  0  0  0  0  0  0
   -0.2760    0.1050   -4.8300 H   0  0  0  0  0  0  0  0  0  0  0  0
    0.0620   -1.6130   -4.5070 H   0  0  0  0  0  0  0  0  0  0  0  0
    1.7280    0.7410   -2.6940 H   0  0  0  0  0  0  0  0  0  0  0  0
    1.9210   -0.9300   -2.2440 H   0  0  0  0  0  0  0  0  0  0  0  0
    2.1880    0.3780   -0.2980 H   0  0  0  0  0  0  0  0  0  0  0  0
   -0.2510   -1.3820   -0.1190 H   0  0  0  0  0  0  0  0  0  0  0  0
   -0.8310    1.3230    0.4990 N   0  0  0  0  0  0  0  0  0  0  0  0
   -1.6180    2.4190    0.9810 C   0  0  1  0  0  0  0  0  0  0  0  0
   -2.7150    2.8370    0.0170 C   0  0  0  0  0  0  0  0  0  0  0  0
   -1.9940    3.2870   -1.2110 C   0  0  0  0  0  0  0  0  0  0  0  0
   -1.7680    2.6110   -2.2160 O   0  0  0  0  0  0  0  0  0  0  0  0
   -2.2110    2.1510    2.2860 C   0  0  0  0  0  0  0  0  0  0  0  0
   -2.0450    1.0560    2.9120 O   0  0  0  0  0  0  0  0  0  0  0  0
   -1.5270    4.6080   -1.2180 O   0  0  0  0  0  0  0  0  0  0  0  0
   -3.0150    3.0860    2.9540 O   0  0  0  0  0  0  0  0  0  0  0  0
   -1.2440    0.3790    0.7180 H   0  0  0  0  0  0  0  0  0  0  0  0
   -0.8920    3.2850    1.0810 H   0  0  0  0  0  0  0  0  0  0  0  0
   -3.4290    2.0160   -0.1710 H   0  0  0  0  0  0  0  0  0  0  0  0
   -3.2990    3.6940    0.3780 H   0  0  0  0  0  0  0  0  0  0  0  0
   -0.5770    4.8670   -1.4520 H   0  0  0  0  0  0  0  0  0  0  0  0
  1 10  1  0  0  0  0
  2  3  2  0  0  0  0
  2  1  1  0  0  0  0
  4 13  1  0  0  0  0
  4  2  1  0  0  0  0
  5 14  1  0  0  0  0
  5  4  1  0  0  0  0
  6  5  1  0  0  0  0
  6 16  1  1  0  0  0
  7  6  1  0  0  0  0
  8  9  2  0  0  0  0
  8  6  1  0  0  0  0
 11  1  1  0  0  0  0
 12  4  1  0  0  0  0
 15  5  1  0  0  0  0
 17  7  1  0  0  0  0
 18  7  1  0  0  0  0
 19 20  1  0  0  0  0
 20 21  2  0  0  0  0
 20 22  1  0  0  0  0
 22 23  1  0  0  0  0
 23 31  1  1  0  0  0
 23 25  1  0  0  0  0
 23 24  1  0  0  0  0
 24  8  1  0  0  0  0
 25 33  1  0  0  0  0
 26 25  2  0  0  0  0
 27 19  1  0  0  0  0
 28 19  1  0  0  0  0
 29 22  1  0  0  0  0
 30 22  1  0  0  0  0
 32 24  1  0  0  0  0
 33 42  1  0  0  0  0
 33 34  1  0  0  0  0
 34 43  1  1  0  0  0
 34 38  1  0  0  0  0
 35 45  1  0  0  0  0
 35 34  1  0  0  0  0
 36 35  1  0  0  0  0
 37 36  2  0  0  0  0
 38 39  2  0  0  0  0
 38 41  1  0  0  0  0
 40 36  1  0  0  0  0
 44 35  1  0  0  0  0
 46 40  1  0  0  0  0
M  END
$$$$
