QNE.pdb
 OpenBabel07022418303D

 49 48  0  0  1  0  0  0  0  0999 V2000
    0.6770   -3.8260    1.9160 N   0  0  0  0  0  0  0  0  0  0  0  0
    1.8020   -3.5460    1.0590 C   0  0  0  0  0  0  0  0  0  0  0  0
    1.9490   -4.2480    0.0370 O   0  0  0  0  0  0  0  0  0  0  0  0
    2.7260   -2.4650    1.4060 C   0  0  0  0  0  0  0  0  0  0  0  0
    3.7420   -2.2300    0.3520 C   0  0  0  0  0  0  0  0  0  0  0  0
    3.2420   -1.8410   -0.9980 C   0  0  2  0  0  0  0  0  0  0  0  0
    4.4130   -1.6490   -1.9050 N   0  0  0  0  0  0  0  0  0  0  0  0
    2.4860   -0.5740   -1.0590 C   0  0  0  0  0  0  0  0  0  0  0  0
    3.0350    0.4970   -1.4930 O   0  0  0  0  0  0  0  0  0  0  0  0
    0.6580   -3.5140    2.9110 H   0  0  0  0  0  0  0  0  0  0  0  0
   -0.1340   -4.3450    1.5470 H   0  0  0  0  0  0  0  0  0  0  0  0
    3.3170   -2.7470    2.3430 H   0  0  0  0  0  0  0  0  0  0  0  0
    2.1730   -1.5640    1.7140 H   0  0  0  0  0  0  0  0  0  0  0  0
    4.5590   -1.5380    0.6720 H   0  0  0  0  0  0  0  0  0  0  0  0
    4.2790   -3.2170    0.2060 H   0  0  0  0  0  0  0  0  0  0  0  0
    2.7040   -2.6850   -1.4620 H   0  0  0  0  0  0  0  0  0  0  0  0
    4.7600   -2.5950   -2.2290 H   0  0  0  0  0  0  0  0  0  0  0  0
    4.1010   -1.0490   -2.7160 H   0  0  0  0  0  0  0  0  0  0  0  0
   -2.0980    2.2550   -3.2340 N   0  0  0  0  0  0  0  0  0  0  0  0
   -1.0850    2.1550   -2.2100 C   0  0  0  0  0  0  0  0  0  0  0  0
   -0.8580    3.2270   -1.6090 O   0  0  0  0  0  0  0  0  0  0  0  0
   -0.4480    0.8630   -1.9830 C   0  0  0  0  0  0  0  0  0  0  0  0
    0.4600    0.8900   -0.7720 C   0  0  2  0  0  0  0  0  0  0  0  0
    1.1110   -0.4300   -0.6570 N   0  0  0  0  0  0  0  0  0  0  0  0
   -0.2430    1.2300    0.4770 C   0  0  0  0  0  0  0  0  0  0  0  0
   -0.7840    2.3860    0.6740 O   0  0  0  0  0  0  0  0  0  0  0  0
   -2.7680    3.0430   -3.2780 H   0  0  0  0  0  0  0  0  0  0  0  0
   -2.1580    1.5200   -3.9480 H   0  0  0  0  0  0  0  0  0  0  0  0
    0.2020    0.6100   -2.8490 H   0  0  0  0  0  0  0  0  0  0  0  0
   -1.1830    0.0290   -1.9150 H   0  0  0  0  0  0  0  0  0  0  0  0
    1.2360    1.6250   -0.9810 H   0  0  0  0  0  0  0  0  0  0  0  0
    0.6380   -1.2780   -0.3130 H   0  0  0  0  0  0  0  0  0  0  0  0
   -0.3420    0.2650    1.5140 N   0  0  0  0  0  0  0  0  0  0  0  0
   -1.0310    0.5980    2.7330 C   0  0  1  0  0  0  0  0  0  0  0  0
   -2.2720   -0.2560    2.9240 C   0  0  0  0  0  0  0  0  0  0  0  0
   -3.2430   -0.0660    1.7830 C   0  0  0  0  0  0  0  0  0  0  0  0
   -4.4520   -0.8960    1.9580 C   0  0  0  0  0  0  0  0  0  0  0  0
   -5.3700   -0.8700    1.0820 O   0  0  0  0  0  0  0  0  0  0  0  0
   -0.1930    0.4780    3.9280 C   0  0  0  0  0  0  0  0  0  0  0  0
   -0.6930    0.7330    5.0520 O   0  0  0  0  0  0  0  0  0  0  0  0
   -4.6820   -1.7380    3.0420 O   0  0  0  0  0  0  0  0  0  0  0  0
    1.1390    0.0930    3.8870 O   0  0  0  0  0  0  0  0  0  0  0  0
    0.0500   -0.6740    1.4390 H   0  0  0  0  0  0  0  0  0  0  0  0
   -1.4050    1.6480    2.6750 H   0  0  0  0  0  0  0  0  0  0  0  0
   -2.7700    0.1130    3.8440 H   0  0  0  0  0  0  0  0  0  0  0  0
   -2.0570   -1.3170    3.0540 H   0  0  0  0  0  0  0  0  0  0  0  0
   -3.5630    0.9990    1.7120 H   0  0  0  0  0  0  0  0  0  0  0  0
   -2.6890   -0.3120    0.8430 H   0  0  0  0  0  0  0  0  0  0  0  0
   -5.5980   -2.0620    3.3020 H   0  0  0  0  0  0  0  0  0  0  0  0
  1 10  1  0  0  0  0
  2  4  1  0  0  0  0
  2  1  1  0  0  0  0
  3  2  2  0  0  0  0
  4 13  1  0  0  0  0
  4 12  1  0  0  0  0
  5 14  1  0  0  0  0
  5  4  1  0  0  0  0
  6 16  1  6  0  0  0
  6  5  1  0  0  0  0
  7  6  1  0  0  0  0
  8  6  1  0  0  0  0
  8 24  1  0  0  0  0
  9  8  2  0  0  0  0
 11  1  1  0  0  0  0
 15  5  1  0  0  0  0
 17  7  1  0  0  0  0
 18  7  1  0  0  0  0
 19 20  1  0  0  0  0
 20 22  1  0  0  0  0
 20 21  2  0  0  0  0
 22 30  1  0  0  0  0
 22 23  1  0  0  0  0
 23 31  1  6  0  0  0
 23 24  1  0  0  0  0
 23 25  1  0  0  0  0
 24 32  1  0  0  0  0
 25 26  2  0  0  0  0
 25 33  1  0  0  0  0
 27 19  1  0  0  0  0
 28 19  1  0  0  0  0
 29 22  1  0  0  0  0
 33 34  1  0  0  0  0
 34 44  1  6  0  0  0
 34 35  1  0  0  0  0
 34 39  1  0  0  0  0
 35 46  1  0  0  0  0
 35 45  1  0  0  0  0
 36 37  1  0  0  0  0
 36 35  1  0  0  0  0
 37 41  1  0  0  0  0
 38 37  2  0  0  0  0
 39 40  1  0  0  0  0
 41 49  1  0  0  0  0
 42 39  2  0  0  0  0
 43 33  1  0  0  0  0
 47 36  1  0  0  0  0
 48 36  1  0  0  0  0
M  END
$$$$
