QNF.pdb
 OpenBabel07022418303D

 53 53  0  0  1  0  0  0  0  0999 V2000
    1.1750   -3.9990    3.6920 N   0  0  0  0  0  0  0  0  0  0  0  0
    1.4930   -2.7530    4.2540 C   0  0  0  0  0  0  0  0  0  0  0  0
    1.3670   -2.5850    5.4940 O   0  0  0  0  0  0  0  0  0  0  0  0
    1.9820   -1.5990    3.4260 C   0  0  0  0  0  0  0  0  0  0  0  0
    2.2030   -0.4130    4.3270 C   0  0  0  0  0  0  0  0  0  0  0  0
    2.7140    0.8120    3.6610 C   0  0  2  0  0  0  0  0  0  0  0  0
    2.8510    1.8320    4.7050 N   0  0  0  0  0  0  0  0  0  0  0  0
    1.9280    1.3660    2.5710 C   0  0  0  0  0  0  0  0  0  0  0  0
    1.2820    2.4500    2.8010 O   0  0  0  0  0  0  0  0  0  0  0  0
    0.5880   -4.6660    4.2300 H   0  0  0  0  0  0  0  0  0  0  0  0
    1.5020   -4.2920    2.7490 H   0  0  0  0  0  0  0  0  0  0  0  0
    2.9270   -1.9310    2.9620 H   0  0  0  0  0  0  0  0  0  0  0  0
    1.1960   -1.3100    2.6850 H   0  0  0  0  0  0  0  0  0  0  0  0
    1.3150   -0.2300    4.9720 H   0  0  0  0  0  0  0  0  0  0  0  0
    3.0060   -0.7320    5.0560 H   0  0  0  0  0  0  0  0  0  0  0  0
    3.7350    0.5690    3.2460 H   0  0  0  0  0  0  0  0  0  0  0  0
    2.3750    1.5440    5.5870 H   0  0  0  0  0  0  0  0  0  0  0  0
    3.8570    2.0570    4.8610 H   0  0  0  0  0  0  0  0  0  0  0  0
    1.9270    3.4460   -2.9290 N   0  0  0  0  0  0  0  0  0  0  0  0
    1.2160    2.9560   -1.7860 C   0  0  0  0  0  0  0  0  0  0  0  0
   -0.0020    3.2260   -1.6930 O   0  0  0  0  0  0  0  0  0  0  0  0
    1.8820    2.1620   -0.7510 C   0  0  0  0  0  0  0  0  0  0  0  0
    0.9610    1.5460    0.2880 C   0  0  2  0  0  0  0  0  0  0  0  0
    1.7890    0.8490    1.2580 N   0  0  0  0  0  0  0  0  0  0  0  0
    0.0270    0.5950   -0.3860 C   0  0  0  0  0  0  0  0  0  0  0  0
   -0.8830    0.9810   -1.1700 O   0  0  0  0  0  0  0  0  0  0  0  0
    2.7030    4.1370   -2.8150 H   0  0  0  0  0  0  0  0  0  0  0  0
    1.7120    3.1470   -3.9090 H   0  0  0  0  0  0  0  0  0  0  0  0
    2.4230    1.3370   -1.2620 H   0  0  0  0  0  0  0  0  0  0  0  0
    2.6140    2.8660   -0.2510 H   0  0  0  0  0  0  0  0  0  0  0  0
    0.4520    2.3770    0.7850 H   0  0  0  0  0  0  0  0  0  0  0  0
    2.2880   -0.0180    1.0030 H   0  0  0  0  0  0  0  0  0  0  0  0
    0.0670   -0.8230   -0.2170 N   0  0  0  0  0  0  0  0  0  0  0  0
   -0.8620   -1.7130   -0.8910 C   0  0  1  0  0  0  0  0  0  0  0  0
   -2.2390   -1.5450   -0.3580 C   0  0  0  0  0  0  0  0  0  0  0  0
   -3.2560   -2.3920   -0.9630 C   0  0  0  0  0  0  0  0  0  0  0  0
   -3.5580   -3.6710   -0.5250 C   0  0  0  0  0  0  0  0  0  0  0  0
   -4.5230   -4.4710   -1.0730 C   0  0  0  0  0  0  0  0  0  0  0  0
   -5.2710   -3.9910   -2.1500 C   0  0  0  0  0  0  0  0  0  0  0  0
   -4.9960   -2.7220   -2.6110 C   0  0  0  0  0  0  0  0  0  0  0  0
   -4.0060   -1.9370   -2.0280 C   0  0  0  0  0  0  0  0  0  0  0  0
   -0.8320   -1.5820   -2.3480 C   0  0  0  0  0  0  0  0  0  0  0  0
   -0.0230   -0.7450   -2.8620 O   0  0  0  0  0  0  0  0  0  0  0  0
   -1.6040   -2.2870   -3.2360 O   0  0  0  0  0  0  0  0  0  0  0  0
    0.7960   -1.1940    0.4050 H   0  0  0  0  0  0  0  0  0  0  0  0
   -0.4580   -2.7590   -0.6550 H   0  0  0  0  0  0  0  0  0  0  0  0
   -2.2650   -1.6060    0.7760 H   0  0  0  0  0  0  0  0  0  0  0  0
   -2.5510   -0.4810   -0.5490 H   0  0  0  0  0  0  0  0  0  0  0  0
   -2.9870   -4.0470    0.3040 H   0  0  0  0  0  0  0  0  0  0  0  0
   -4.6950   -5.4510   -0.6730 H   0  0  0  0  0  0  0  0  0  0  0  0
   -6.0300   -4.6320   -2.5730 H   0  0  0  0  0  0  0  0  0  0  0  0
   -5.5920   -2.3750   -3.4490 H   0  0  0  0  0  0  0  0  0  0  0  0
   -3.8840   -0.9590   -2.4770 H   0  0  0  0  0  0  0  0  0  0  0  0
  1 10  1  0  0  0  0
  1  2  1  0  0  0  0
  2  3  2  0  0  0  0
  4  2  1  0  0  0  0
  4  5  1  0  0  0  0
  5 14  1  0  0  0  0
  5 15  1  0  0  0  0
  6 16  1  6  0  0  0
  6  5  1  0  0  0  0
  6  7  1  0  0  0  0
  7 18  1  0  0  0  0
  7 17  1  0  0  0  0
  8  9  2  0  0  0  0
  8  6  1  0  0  0  0
 11  1  1  0  0  0  0
 12  4  1  0  0  0  0
 13  4  1  0  0  0  0
 19 27  1  0  0  0  0
 19 20  1  0  0  0  0
 20 21  2  0  0  0  0
 20 22  1  0  0  0  0
 22 30  1  0  0  0  0
 22 23  1  0  0  0  0
 23 31  1  1  0  0  0
 23 24  1  0  0  0  0
 24  8  1  0  0  0  0
 25 33  1  0  0  0  0
 25 23  1  0  0  0  0
 26 25  2  0  0  0  0
 28 19  1  0  0  0  0
 29 22  1  0  0  0  0
 32 24  1  0  0  0  0
 33 45  1  0  0  0  0
 34 46  1  1  0  0  0
 34 35  1  0  0  0  0
 34 33  1  0  0  0  0
 35 47  1  0  0  0  0
 36 37  1  0  0  0  0
 36 35  1  0  0  0  0
 37 49  1  0  0  0  0
 38 50  1  0  0  0  0
 38 37  2  0  0  0  0
 39 38  1  0  0  0  0
 40 39  2  0  0  0  0
 40 41  1  0  0  0  0
 41 36  2  0  0  0  0
 42 34  1  0  0  0  0
 43 42  1  0  0  0  0
 44 42  2  0  0  0  0
 48 35  1  0  0  0  0
 51 39  1  0  0  0  0
 52 40  1  0  0  0  0
 53 41  1  0  0  0  0
M  END
$$$$
