QNR.pdb
 OpenBabel07022418303D

 56 55  0  0  1  0  0  0  0  0999 V2000
    3.1410   -0.1600    7.7690 N   0  0  0  0  0  0  0  0  0  0  0  0
    3.3880   -0.5230    6.4010 C   0  0  0  0  0  0  0  0  0  0  0  0
    3.1500   -1.7010    6.0620 O   0  0  0  0  0  0  0  0  0  0  0  0
    3.9040    0.4690    5.4490 C   0  0  0  0  0  0  0  0  0  0  0  0
    3.8160    0.0850    4.0220 C   0  0  0  0  0  0  0  0  0  0  0  0
    2.4450   -0.1170    3.4710 C   0  0  2  0  0  0  0  0  0  0  0  0
    1.6450   -1.1230    4.0640 N   0  0  0  0  0  0  0  0  0  0  0  0
    2.4830   -0.2680    1.9900 C   0  0  0  0  0  0  0  0  0  0  0  0
    3.1590    0.5750    1.3120 O   0  0  0  0  0  0  0  0  0  0  0  0
    3.1980   -0.8040    8.5650 H   0  0  0  0  0  0  0  0  0  0  0  0
    2.8880    0.8340    7.9440 H   0  0  0  0  0  0  0  0  0  0  0  0
    4.9870    0.6580    5.6870 H   0  0  0  0  0  0  0  0  0  0  0  0
    3.3750    1.4420    5.6320 H   0  0  0  0  0  0  0  0  0  0  0  0
    4.3810   -0.8790    3.8570 H   0  0  0  0  0  0  0  0  0  0  0  0
    4.3990    0.8250    3.3970 H   0  0  0  0  0  0  0  0  0  0  0  0
    1.9050    0.8680    3.6560 H   0  0  0  0  0  0  0  0  0  0  0  0
    1.7800   -2.0840    3.7210 H   0  0  0  0  0  0  0  0  0  0  0  0
    0.6860   -0.8640    4.3070 H   0  0  0  0  0  0  0  0  0  0  0  0
    3.3720   -4.3700   -2.0940 N   0  0  0  0  0  0  0  0  0  0  0  0
    2.8730   -3.0170   -1.8830 C   0  0  0  0  0  0  0  0  0  0  0  0
    2.7390   -2.2860   -2.8650 O   0  0  0  0  0  0  0  0  0  0  0  0
    2.5770   -2.6500   -0.5260 C   0  0  0  0  0  0  0  0  0  0  0  0
    1.9300   -1.3390   -0.2240 C   0  0  2  0  0  0  0  0  0  0  0  0
    1.8220   -1.2840    1.2770 N   0  0  0  0  0  0  0  0  0  0  0  0
    0.5300   -1.2010   -0.6730 C   0  0  0  0  0  0  0  0  0  0  0  0
   -0.3880   -1.3590    0.2180 O   0  0  0  0  0  0  0  0  0  0  0  0
    3.7710   -4.9420   -1.3320 H   0  0  0  0  0  0  0  0  0  0  0  0
    3.3290   -4.7840   -3.0450 H   0  0  0  0  0  0  0  0  0  0  0  0
    1.9780   -3.4620   -0.0040 H   0  0  0  0  0  0  0  0  0  0  0  0
    3.5570   -2.6720    0.0450 H   0  0  0  0  0  0  0  0  0  0  0  0
    2.5260   -0.5090   -0.5830 H   0  0  0  0  0  0  0  0  0  0  0  0
    1.2560   -2.0010    1.7630 H   0  0  0  0  0  0  0  0  0  0  0  0
   -7.8020   -0.1400   -1.8530 N   0  0  0  0  0  0  0  0  0  0  0  0
   -6.5420    0.2900   -1.3630 C   0  0  0  0  0  0  0  0  0  0  0  0
   -6.3440    0.4190   -0.0820 N   0  0  0  0  0  0  0  0  0  0  0  0
   -5.4660    0.5900   -2.2390 N   0  0  0  0  0  0  0  0  0  0  0  0
   -4.0830    0.3840   -1.8260 C   0  0  0  0  0  0  0  0  0  0  0  0
   -3.1700    0.7930   -2.9680 C   0  0  0  0  0  0  0  0  0  0  0  0
   -1.7210    0.6140   -2.6190 C   0  0  0  0  0  0  0  0  0  0  0  0
   -1.3770   -0.8090   -2.2740 C   0  0  2  0  0  0  0  0  0  0  0  0
    0.0500   -0.9130   -1.9490 N   0  0  0  0  0  0  0  0  0  0  0  0
   -1.6290   -1.7030   -3.4270 C   0  0  0  0  0  0  0  0  0  0  0  0
   -0.6910   -2.3830   -3.9710 O   0  0  0  0  0  0  0  0  0  0  0  0
   -2.8710   -1.8900   -4.0180 O   0  0  0  0  0  0  0  0  0  0  0  0
   -8.3360    0.4750   -2.4940 H   0  0  0  0  0  0  0  0  0  0  0  0
   -8.1780   -1.0630   -1.5670 H   0  0  0  0  0  0  0  0  0  0  0  0
   -7.1300    0.2000    0.5880 H   0  0  0  0  0  0  0  0  0  0  0  0
   -5.6900    0.9590   -3.1820 H   0  0  0  0  0  0  0  0  0  0  0  0
   -3.9750   -0.7070   -1.6250 H   0  0  0  0  0  0  0  0  0  0  0  0
   -3.8380    0.9220   -0.9050 H   0  0  0  0  0  0  0  0  0  0  0  0
   -3.4650    0.3510   -3.9170 H   0  0  0  0  0  0  0  0  0  0  0  0
   -3.3470    1.9020   -3.0860 H   0  0  0  0  0  0  0  0  0  0  0  0
   -1.0570    1.0160   -3.3960 H   0  0  0  0  0  0  0  0  0  0  0  0
   -1.5460    1.2210   -1.6910 H   0  0  0  0  0  0  0  0  0  0  0  0
   -1.9970   -1.0610   -1.3810 H   0  0  0  0  0  0  0  0  0  0  0  0
    0.7130   -0.7380   -2.7200 H   0  0  0  0  0  0  0  0  0  0  0  0
  1 11  1  0  0  0  0
  1 10  1  0  0  0  0
  2  1  1  0  0  0  0
  3  2  2  0  0  0  0
  4 13  1  0  0  0  0
  4 12  1  0  0  0  0
  4  2  1  0  0  0  0
  5  4  1  0  0  0  0
  6 16  1  1  0  0  0
  6  5  1  0  0  0  0
  6  7  1  0  0  0  0
  7 18  1  0  0  0  0
  8  6  1  0  0  0  0
  9  8  2  0  0  0  0
 14  5  1  0  0  0  0
 15  5  1  0  0  0  0
 17  7  1  0  0  0  0
 19 20  1  0  0  0  0
 19 27  1  0  0  0  0
 20 22  1  0  0  0  0
 21 20  2  0  0  0  0
 22 23  1  0  0  0  0
 22 29  1  0  0  0  0
 22 30  1  0  0  0  0
 23 31  1  6  0  0  0
 23 24  1  0  0  0  0
 24 32  1  0  0  0  0
 24  8  1  0  0  0  0
 25 23  1  0  0  0  0
 25 26  2  0  0  0  0
 28 19  1  0  0  0  0
 33 46  1  0  0  0  0
 33 34  1  0  0  0  0
 34 35  2  0  0  0  0
 35 47  1  0  0  0  0
 36 37  1  0  0  0  0
 36 34  1  0  0  0  0
 37 49  1  0  0  0  0
 37 50  1  0  0  0  0
 38 39  1  0  0  0  0
 38 37  1  0  0  0  0
 39 40  1  0  0  0  0
 39 54  1  0  0  0  0
 40 41  1  0  0  0  0
 40 55  1  1  0  0  0
 41 25  1  0  0  0  0
 42 40  1  0  0  0  0
 43 42  1  0  0  0  0
 44 42  2  0  0  0  0
 45 33  1  0  0  0  0
 48 36  1  0  0  0  0
 51 38  1  0  0  0  0
 52 38  1  0  0  0  0
 53 39  1  0  0  0  0
 56 41  1  0  0  0  0
M  END
$$$$
