QNY.pdb
 OpenBabel07022418313D

 54 54  0  0  1  0  0  0  0  0999 V2000
   -3.4060    2.1850    3.8410 N   0  0  0  0  0  0  0  0  0  0  0  0
   -2.0590    2.6110    3.8080 C   0  0  0  0  0  0  0  0  0  0  0  0
   -1.3850    2.5860    4.8750 O   0  0  0  0  0  0  0  0  0  0  0  0
   -1.4000    3.0900    2.5640 C   0  0  0  0  0  0  0  0  0  0  0  0
    0.0440    3.4770    2.8380 C   0  0  0  0  0  0  0  0  0  0  0  0
    0.7400    3.9640    1.6070 C   0  0  2  0  0  0  0  0  0  0  0  0
    0.0470    5.1160    1.1110 N   0  0  0  0  0  0  0  0  0  0  0  0
    0.8090    2.8740    0.5740 C   0  0  0  0  0  0  0  0  0  0  0  0
    0.2990    3.0220   -0.5660 O   0  0  0  0  0  0  0  0  0  0  0  0
   -4.1940    2.7190    4.2540 H   0  0  0  0  0  0  0  0  0  0  0  0
   -3.6790    1.2480    3.4200 H   0  0  0  0  0  0  0  0  0  0  0  0
   -1.9410    4.0260    2.2740 H   0  0  0  0  0  0  0  0  0  0  0  0
   -1.4910    2.3940    1.7300 H   0  0  0  0  0  0  0  0  0  0  0  0
    0.6030    2.6160    3.2780 H   0  0  0  0  0  0  0  0  0  0  0  0
    0.0760    4.2950    3.5870 H   0  0  0  0  0  0  0  0  0  0  0  0
    1.7580    4.2910    1.9060 H   0  0  0  0  0  0  0  0  0  0  0  0
   -0.2930    5.0360    0.1420 H   0  0  0  0  0  0  0  0  0  0  0  0
    0.4950    6.0190    1.3410 H   0  0  0  0  0  0  0  0  0  0  0  0
    5.1490    1.0980   -1.2240 N   0  0  0  0  0  0  0  0  0  0  0  0
    3.7870    1.3060   -0.9250 C   0  0  0  0  0  0  0  0  0  0  0  0
    3.2610    2.4130   -1.1290 O   0  0  0  0  0  0  0  0  0  0  0  0
    2.9900    0.2030   -0.3670 C   0  0  0  0  0  0  0  0  0  0  0  0
    1.5480    0.5690   -0.0970 C   0  0  2  0  0  0  0  0  0  0  0  0
    1.4450    1.6490    0.8430 N   0  0  0  0  0  0  0  0  0  0  0  0
    0.8480   -0.6440    0.3120 C   0  0  0  0  0  0  0  0  0  0  0  0
    0.2300   -0.6930    1.3900 O   0  0  0  0  0  0  0  0  0  0  0  0
    5.7320    0.5560   -0.5520 H   0  0  0  0  0  0  0  0  0  0  0  0
    5.6260    1.4510   -2.0820 H   0  0  0  0  0  0  0  0  0  0  0  0
    3.0470   -0.6970   -1.0480 H   0  0  0  0  0  0  0  0  0  0  0  0
    3.4270   -0.1750    0.5930 H   0  0  0  0  0  0  0  0  0  0  0  0
    1.1150    0.9640   -1.0640 H   0  0  0  0  0  0  0  0  0  0  0  0
    1.8790    1.4910    1.7860 H   0  0  0  0  0  0  0  0  0  0  0  0
   -4.3150   -7.6170   -0.1360 O   0  0  0  0  0  0  0  0  0  0  0  0
   -3.4570   -6.5370   -0.3880 C   0  0  0  0  0  0  0  0  0  0  0  0
   -3.7600   -5.2780    0.0910 C   0  0  0  0  0  0  0  0  0  0  0  0
   -2.8990   -4.2370   -0.1710 C   0  0  0  0  0  0  0  0  0  0  0  0
   -1.7380   -4.3990   -0.8970 C   0  0  0  0  0  0  0  0  0  0  0  0
   -0.8890   -3.2390   -1.1320 C   0  0  0  0  0  0  0  0  0  0  0  0
    0.1450   -2.9740   -0.0560 C   0  0  2  0  0  0  0  0  0  0  0  0
    0.8600   -1.7870   -0.5090 N   0  0  0  0  0  0  0  0  0  0  0  0
    1.0780   -4.1170   -0.0010 C   0  0  0  0  0  0  0  0  0  0  0  0
    0.7590   -5.2640    0.3720 O   0  0  0  0  0  0  0  0  0  0  0  0
   -1.4290   -5.6480   -1.3770 C   0  0  0  0  0  0  0  0  0  0  0  0
   -2.2930   -6.6910   -1.1140 C   0  0  0  0  0  0  0  0  0  0  0  0
    2.3970   -3.9290   -0.3820 O   0  0  0  0  0  0  0  0  0  0  0  0
   -5.3120   -7.3930   -0.1880 H   0  0  0  0  0  0  0  0  0  0  0  0
   -4.6480   -5.1180    0.6540 H   0  0  0  0  0  0  0  0  0  0  0  0
   -3.1910   -3.2580    0.2340 H   0  0  0  0  0  0  0  0  0  0  0  0
   -1.5350   -2.3120   -1.1580 H   0  0  0  0  0  0  0  0  0  0  0  0
   -0.3420   -3.3260   -2.1040 H   0  0  0  0  0  0  0  0  0  0  0  0
   -0.3350   -2.8010    0.9310 H   0  0  0  0  0  0  0  0  0  0  0  0
    1.3450   -1.8560   -1.4300 H   0  0  0  0  0  0  0  0  0  0  0  0
   -0.5220   -5.8420   -1.9650 H   0  0  0  0  0  0  0  0  0  0  0  0
   -2.0800   -7.6870   -1.4760 H   0  0  0  0  0  0  0  0  0  0  0  0
  1 10  1  0  0  0  0
  2  1  1  0  0  0  0
  2  3  2  0  0  0  0
  4  5  1  0  0  0  0
  4  2  1  0  0  0  0
  5 14  1  0  0  0  0
  5 15  1  0  0  0  0
  6 16  1  1  0  0  0
  6  5  1  0  0  0  0
  7 18  1  0  0  0  0
  7  6  1  0  0  0  0
  8 24  1  0  0  0  0
  8  6  1  0  0  0  0
  9  8  2  0  0  0  0
 11  1  1  0  0  0  0
 12  4  1  0  0  0  0
 13  4  1  0  0  0  0
 17  7  1  0  0  0  0
 19 20  1  0  0  0  0
 19 27  1  0  0  0  0
 20 22  1  0  0  0  0
 21 20  2  0  0  0  0
 22 23  1  0  0  0  0
 22 30  1  0  0  0  0
 23 31  1  6  0  0  0
 23 25  1  0  0  0  0
 23 24  1  0  0  0  0
 24 32  1  0  0  0  0
 25 26  2  0  0  0  0
 28 19  1  0  0  0  0
 29 22  1  0  0  0  0
 34 33  1  0  0  0  0
 34 35  1  0  0  0  0
 35 47  1  0  0  0  0
 36 35  2  0  0  0  0
 36 48  1  0  0  0  0
 37 36  1  0  0  0  0
 38 37  1  0  0  0  0
 38 39  1  0  0  0  0
 39 41  1  0  0  0  0
 39 51  1  1  0  0  0
 40 39  1  0  0  0  0
 40 25  1  0  0  0  0
 41 42  1  0  0  0  0
 43 44  1  0  0  0  0
 43 37  2  0  0  0  0
 44 34  2  0  0  0  0
 45 41  2  0  0  0  0
 46 33  1  0  0  0  0
 49 38  1  0  0  0  0
 50 38  1  0  0  0  0
 52 40  1  0  0  0  0
 53 43  1  0  0  0  0
 54 44  1  0  0  0  0
M  END
$$$$
