QPC.pdb
 OpenBabel07022418333D

 44 44  0  0  1  0  0  0  0  0999 V2000
    2.3120   -5.6590    1.6530 N   0  0  0  0  0  0  0  0  0  0  0  0
    2.6260   -4.2880    1.5150 C   0  0  0  0  0  0  0  0  0  0  0  0
    3.4100   -3.7650    2.3470 O   0  0  0  0  0  0  0  0  0  0  0  0
    2.0130   -3.5200    0.3850 C   0  0  0  0  0  0  0  0  0  0  0  0
    2.4980   -2.0630    0.4400 C   0  0  0  0  0  0  0  0  0  0  0  0
    1.8540   -1.3360   -0.7140 C   0  0  2  0  0  0  0  0  0  0  0  0
    2.3080   -2.0320   -1.9260 N   0  0  0  0  0  0  0  0  0  0  0  0
    2.1280    0.0970   -0.7770 C   0  0  0  0  0  0  0  0  0  0  0  0
    2.8810    0.4570   -1.7570 O   0  0  0  0  0  0  0  0  0  0  0  0
    2.1730   -6.1060    2.5820 H   0  0  0  0  0  0  0  0  0  0  0  0
    2.2190   -6.2330    0.7870 H   0  0  0  0  0  0  0  0  0  0  0  0
    0.9300   -3.4750    0.5980 H   0  0  0  0  0  0  0  0  0  0  0  0
    2.2800   -4.0090   -0.5510 H   0  0  0  0  0  0  0  0  0  0  0  0
    3.5810   -2.1070    0.2400 H   0  0  0  0  0  0  0  0  0  0  0  0
    2.2310   -1.7110    1.4260 H   0  0  0  0  0  0  0  0  0  0  0  0
    0.7660   -1.4990   -0.6530 H   0  0  0  0  0  0  0  0  0  0  0  0
    1.8620   -1.5880   -2.7630 H   0  0  0  0  0  0  0  0  0  0  0  0
    3.3420   -2.0020   -1.9940 H   0  0  0  0  0  0  0  0  0  0  0  0
    1.6770    1.1050    0.0870 N   0  0  0  0  0  0  0  0  0  0  0  0
    2.0390    2.5230   -0.0720 C   0  0  0  0  0  0  0  0  0  0  0  0
    1.1560    3.3220    0.8210 C   0  0  0  0  0  0  0  0  0  0  0  0
    0.8440    2.3420    1.9260 C   0  0  0  0  0  0  0  0  0  0  0  0
    0.8050    0.9830    1.2340 C   0  0  1  0  0  0  0  0  0  0  0  0
   -0.5930    0.7330    0.7280 C   0  0  0  0  0  0  0  0  0  0  0  0
   -0.8580    0.6920   -0.5040 O   0  0  0  0  0  0  0  0  0  0  0  0
    3.1160    2.6870    0.1090 H   0  0  0  0  0  0  0  0  0  0  0  0
    1.8470    2.8600   -1.1240 H   0  0  0  0  0  0  0  0  0  0  0  0
    1.6880    4.1990    1.2320 H   0  0  0  0  0  0  0  0  0  0  0  0
    0.2020    3.6340    0.3620 H   0  0  0  0  0  0  0  0  0  0  0  0
   -0.1110    2.5050    2.4190 H   0  0  0  0  0  0  0  0  0  0  0  0
    1.6490    2.4030    2.6840 H   0  0  0  0  0  0  0  0  0  0  0  0
    1.1220    0.2710    1.9950 H   0  0  0  0  0  0  0  0  0  0  0  0
   -1.6690    0.5320    1.6180 N   0  0  0  0  0  0  0  0  0  0  0  0
   -3.0160    0.2900    1.1630 C   0  0  1  0  0  0  0  0  0  0  0  0
   -3.5600   -1.0210    1.6990 C   0  0  0  0  0  0  0  0  0  0  0  0
   -2.4770   -2.3650    1.1060 S   0  0  0  0  0  0  0  0  0  0  0  0
   -3.9030    1.3720    1.6890 C   0  0  0  0  0  0  0  0  0  0  0  0
   -3.4790    2.3120    2.4080 O   0  0  0  0  0  0  0  0  0  0  0  0
   -5.2540    1.3280    1.3650 O   0  0  0  0  0  0  0  0  0  0  0  0
   -1.4880    0.5580    2.6380 H   0  0  0  0  0  0  0  0  0  0  0  0
   -3.0040    0.2990    0.0620 H   0  0  0  0  0  0  0  0  0  0  0  0
   -4.5750   -1.2290    1.3060 H   0  0  0  0  0  0  0  0  0  0  0  0
   -3.6050   -1.0200    2.8050 H   0  0  0  0  0  0  0  0  0  0  0  0
   -3.1670   -3.6040    1.1770 H   0  0  0  0  0  0  0  0  0  0  0  0
  1 10  1  0  0  0  0
  2  1  1  0  0  0  0
  2  3  2  0  0  0  0
  4  5  1  0  0  0  0
  4 12  1  0  0  0  0
  4  2  1  0  0  0  0
  5 15  1  0  0  0  0
  6 16  1  1  0  0  0
  6  5  1  0  0  0  0
  7  6  1  0  0  0  0
  8  6  1  0  0  0  0
  8 19  1  0  0  0  0
  9  8  2  0  0  0  0
 11  1  1  0  0  0  0
 13  4  1  0  0  0  0
 14  5  1  0  0  0  0
 17  7  1  0  0  0  0
 18  7  1  0  0  0  0
 19 23  1  0  0  0  0
 20 19  1  0  0  0  0
 20 26  1  0  0  0  0
 20 21  1  0  0  0  0
 21 28  1  0  0  0  0
 21 22  1  0  0  0  0
 22 30  1  0  0  0  0
 22 31  1  0  0  0  0
 23 22  1  0  0  0  0
 23 32  1  1  0  0  0
 24 23  1  0  0  0  0
 24 33  1  0  0  0  0
 25 24  2  0  0  0  0
 27 20  1  0  0  0  0
 29 21  1  0  0  0  0
 33 40  1  0  0  0  0
 34 41  1  6  0  0  0
 34 33  1  0  0  0  0
 34 37  1  0  0  0  0
 34 35  1  0  0  0  0
 35 43  1  0  0  0  0
 36 44  1  0  0  0  0
 36 35  1  0  0  0  0
 37 38  1  0  0  0  0
 39 37  2  0  0  0  0
 42 35  1  0  0  0  0
M  END
$$$$
