QPH.pdb
 OpenBabel07022418333D

 50 51  0  0  1  0  0  0  0  0999 V2000
    0.3800   -3.4730    3.1720 N   0  0  0  0  0  0  0  0  0  0  0  0
    1.2720   -2.8870    2.2200 C   0  0  0  0  0  0  0  0  0  0  0  0
    2.2510   -2.2760    2.7060 O   0  0  0  0  0  0  0  0  0  0  0  0
    1.0040   -3.0310    0.7940 C   0  0  0  0  0  0  0  0  0  0  0  0
    1.7830   -2.2790   -0.1710 C   0  0  0  0  0  0  0  0  0  0  0  0
    1.8150   -0.8000   -0.2270 C   0  0  2  0  0  0  0  0  0  0  0  0
    2.7800   -0.5600   -1.3900 N   0  0  0  0  0  0  0  0  0  0  0  0
    2.3100   -0.0770    0.9260 C   0  0  0  0  0  0  0  0  0  0  0  0
    3.6160   -0.1360    1.0140 O   0  0  0  0  0  0  0  0  0  0  0  0
    0.7640   -3.8870    4.0420 H   0  0  0  0  0  0  0  0  0  0  0  0
   -0.6460   -3.5020    3.0270 H   0  0  0  0  0  0  0  0  0  0  0  0
   -0.1110   -3.0490    0.6430 H   0  0  0  0  0  0  0  0  0  0  0  0
    1.2480   -4.1420    0.5870 H   0  0  0  0  0  0  0  0  0  0  0  0
    1.4500   -2.6180   -1.2080 H   0  0  0  0  0  0  0  0  0  0  0  0
    2.8500   -2.6900   -0.1530 H   0  0  0  0  0  0  0  0  0  0  0  0
    0.9130   -0.3260   -0.6360 H   0  0  0  0  0  0  0  0  0  0  0  0
    3.5980   -1.1360   -1.1360 H   0  0  0  0  0  0  0  0  0  0  0  0
    2.2850   -1.0720   -2.1710 H   0  0  0  0  0  0  0  0  0  0  0  0
    1.6860    0.6600    1.9400 N   0  0  0  0  0  0  0  0  0  0  0  0
    2.5780    1.2280    3.0630 C   0  0  0  0  0  0  0  0  0  0  0  0
    2.0970    2.6320    3.1850 C   0  0  0  0  0  0  0  0  0  0  0  0
    0.8260    2.7100    2.3710 C   0  0  0  0  0  0  0  0  0  0  0  0
    0.4590    1.1750    2.3620 C   0  0  1  0  0  0  0  0  0  0  0  0
   -0.8280    0.9950    1.8130 C   0  0  0  0  0  0  0  0  0  0  0  0
   -1.6850    1.9500    2.0900 O   0  0  0  0  0  0  0  0  0  0  0  0
    3.6110    1.1150    2.7660 H   0  0  0  0  0  0  0  0  0  0  0  0
    2.2930    0.6050    3.9290 H   0  0  0  0  0  0  0  0  0  0  0  0
    2.8640    3.3540    2.8750 H   0  0  0  0  0  0  0  0  0  0  0  0
    1.8180    2.8540    4.2560 H   0  0  0  0  0  0  0  0  0  0  0  0
    0.0230    3.2270    2.8980 H   0  0  0  0  0  0  0  0  0  0  0  0
    0.9860    3.0380    1.3360 H   0  0  0  0  0  0  0  0  0  0  0  0
    0.4240    0.9850    3.5160 H   0  0  0  0  0  0  0  0  0  0  0  0
   -1.3620   -0.0050    1.0380 N   0  0  0  0  0  0  0  0  0  0  0  0
   -2.7220   -0.0530    0.5330 C   0  0  1  0  0  0  0  0  0  0  0  0
   -2.8740    0.1280   -0.9280 C   0  0  0  0  0  0  0  0  0  0  0  0
   -2.1980   -0.8540   -1.7880 C   0  0  0  0  0  0  0  0  0  0  0  0
   -2.2670   -0.7890   -3.1640 C   0  0  0  0  0  0  0  0  0  0  0  0
   -1.5640   -1.8030   -3.6780 N   0  0  0  0  0  0  0  0  0  0  0  0
   -1.0570   -2.5000   -2.6530 C   0  0  0  0  0  0  0  0  0  0  0  0
   -1.4500   -1.9120   -1.5110 N   0  0  0  0  0  0  0  0  0  0  0  0
   -3.4080   -1.2260    1.0980 C   0  0  0  0  0  0  0  0  0  0  0  0
   -4.5970   -1.5450    0.8510 O   0  0  0  0  0  0  0  0  0  0  0  0
   -2.7090   -2.0440    1.9630 O   0  0  0  0  0  0  0  0  0  0  0  0
   -0.7890   -0.8230    0.7900 H   0  0  0  0  0  0  0  0  0  0  0  0
   -3.2290    0.8490    1.0010 H   0  0  0  0  0  0  0  0  0  0  0  0
   -3.9590    0.0760   -1.1590 H   0  0  0  0  0  0  0  0  0  0  0  0
   -2.5620    1.1630   -1.1880 H   0  0  0  0  0  0  0  0  0  0  0  0
   -2.7880   -0.0600   -3.7680 H   0  0  0  0  0  0  0  0  0  0  0  0
   -1.4260   -2.0230   -4.7000 H   0  0  0  0  0  0  0  0  0  0  0  0
   -0.4410   -3.3810   -2.7920 H   0  0  0  0  0  0  0  0  0  0  0  0
  1 10  1  0  0  0  0
  2  3  2  0  0  0  0
  2  1  1  0  0  0  0
  4  2  1  0  0  0  0
  5 15  1  0  0  0  0
  5  4  1  0  0  0  0
  6 16  1  6  0  0  0
  6  5  1  0  0  0  0
  6  8  1  0  0  0  0
  7 17  1  0  0  0  0
  7  6  1  0  0  0  0
  8  9  2  0  0  0  0
  8 19  1  0  0  0  0
 11  1  1  0  0  0  0
 12  4  1  0  0  0  0
 13  4  1  0  0  0  0
 14  5  1  0  0  0  0
 18  7  1  0  0  0  0
 19 23  1  0  0  0  0
 19 20  1  0  0  0  0
 20 21  1  0  0  0  0
 20 27  1  0  0  0  0
 21 29  1  0  0  0  0
 22 30  1  0  0  0  0
 22 21  1  0  0  0  0
 23 22  1  0  0  0  0
 23 32  1  1  0  0  0
 24 25  2  0  0  0  0
 24 23  1  0  0  0  0
 26 20  1  0  0  0  0
 28 21  1  0  0  0  0
 31 22  1  0  0  0  0
 33 24  1  0  0  0  0
 34 45  1  1  0  0  0
 34 33  1  0  0  0  0
 34 41  1  0  0  0  0
 35 34  1  0  0  0  0
 36 40  1  0  0  0  0
 36 35  1  0  0  0  0
 37 36  2  0  0  0  0
 38 37  1  0  0  0  0
 38 39  1  0  0  0  0
 39 40  2  0  0  0  0
 41 43  1  0  0  0  0
 42 41  2  0  0  0  0
 44 33  1  0  0  0  0
 46 35  1  0  0  0  0
 47 35  1  0  0  0  0
 48 37  1  0  0  0  0
 49 38  1  0  0  0  0
 50 39  1  0  0  0  0
M  END
$$$$
