QPI.pdb
 OpenBabel07022418333D

 52 52  0  0  1  0  0  0  0  0999 V2000
    7.0360    0.6220    3.6800 N   0  0  0  0  0  0  0  0  0  0  0  0
    5.7000    0.4010    3.2110 C   0  0  0  0  0  0  0  0  0  0  0  0
    4.8030    0.2860    4.0820 O   0  0  0  0  0  0  0  0  0  0  0  0
    5.3900    0.3120    1.7730 C   0  0  0  0  0  0  0  0  0  0  0  0
    3.9130    0.0770    1.6030 C   0  0  0  0  0  0  0  0  0  0  0  0
    3.5310   -0.0250    0.1320 C   0  0  2  0  0  0  0  0  0  0  0  0
    3.9240    1.2660   -0.4380 N   0  0  0  0  0  0  0  0  0  0  0  0
    2.0340   -0.1590    0.0150 C   0  0  0  0  0  0  0  0  0  0  0  0
    1.4450    0.9100   -0.2710 O   0  0  0  0  0  0  0  0  0  0  0  0
    7.3380    0.0560    4.5000 H   0  0  0  0  0  0  0  0  0  0  0  0
    7.6840    1.3070    3.2380 H   0  0  0  0  0  0  0  0  0  0  0  0
    5.7470    1.1910    1.2100 H   0  0  0  0  0  0  0  0  0  0  0  0
    5.9200   -0.5990    1.3770 H   0  0  0  0  0  0  0  0  0  0  0  0
    3.3890    0.9810    2.0360 H   0  0  0  0  0  0  0  0  0  0  0  0
    3.5210   -0.7650    2.1880 H   0  0  0  0  0  0  0  0  0  0  0  0
    3.9770   -0.8810   -0.3830 H   0  0  0  0  0  0  0  0  0  0  0  0
    3.1170    1.7070   -0.9300 H   0  0  0  0  0  0  0  0  0  0  0  0
    4.6780    1.0590   -1.1500 H   0  0  0  0  0  0  0  0  0  0  0  0
    1.4160   -1.3960    0.2180 N   0  0  0  0  0  0  0  0  0  0  0  0
    2.1710   -2.6350    0.5050 C   0  0  0  0  0  0  0  0  0  0  0  0
    1.4070   -3.1450    1.6800 C   0  0  0  0  0  0  0  0  0  0  0  0
    0.0000   -2.6120    1.5560 C   0  0  0  0  0  0  0  0  0  0  0  0
    0.0710   -1.8340    0.2270 C   0  0  1  0  0  0  0  0  0  0  0  0
   -1.0020   -0.8500    0.1510 C   0  0  0  0  0  0  0  0  0  0  0  0
   -0.9490    0.3830    0.1270 O   0  0  0  0  0  0  0  0  0  0  0  0
    3.2340   -2.4830    0.6250 H   0  0  0  0  0  0  0  0  0  0  0  0
    2.0610   -3.3360   -0.3690 H   0  0  0  0  0  0  0  0  0  0  0  0
    1.4060   -4.2680    1.6400 H   0  0  0  0  0  0  0  0  0  0  0  0
    1.8700   -2.8280    2.6470 H   0  0  0  0  0  0  0  0  0  0  0  0
   -0.1850   -1.8680    2.3470 H   0  0  0  0  0  0  0  0  0  0  0  0
   -0.7530   -3.4050    1.5040 H   0  0  0  0  0  0  0  0  0  0  0  0
   -0.0300   -2.6390   -0.5500 H   0  0  0  0  0  0  0  0  0  0  0  0
   -5.1600    1.6290   -1.0770 C   0  0  0  0  0  0  0  0  0  0  0  0
   -5.5630    0.1700   -1.1060 C   0  0  0  0  0  0  0  0  0  0  0  0
   -4.3800   -0.7640   -1.1340 C   0  0  2  0  0  0  0  0  0  0  0  0
   -4.9780   -2.1750   -1.1410 C   0  0  0  0  0  0  0  0  0  0  0  0
   -3.5110   -0.5320    0.0150 C   0  0  2  0  0  0  0  0  0  0  0  0
   -2.3370   -1.3620    0.0930 N   0  0  0  0  0  0  0  0  0  0  0  0
   -4.2430   -0.7160    1.2870 C   0  0  0  0  0  0  0  0  0  0  0  0
   -3.8060   -1.5630    2.1490 O   0  0  0  0  0  0  0  0  0  0  0  0
   -5.3870   -0.0540    1.6700 O   0  0  0  0  0  0  0  0  0  0  0  0
   -6.1220    2.2050   -1.0710 H   0  0  0  0  0  0  0  0  0  0  0  0
   -4.6310    1.9190   -0.1590 H   0  0  0  0  0  0  0  0  0  0  0  0
   -4.6150    1.8810   -2.0080 H   0  0  0  0  0  0  0  0  0  0  0  0
   -6.3240   -0.0810   -0.3530 H   0  0  0  0  0  0  0  0  0  0  0  0
   -6.0670    0.0610   -2.1340 H   0  0  0  0  0  0  0  0  0  0  0  0
   -3.9030   -0.5540   -2.1280 H   0  0  0  0  0  0  0  0  0  0  0  0
   -5.4150   -2.4020   -2.1360 H   0  0  0  0  0  0  0  0  0  0  0  0
   -5.8330   -2.1390   -0.4330 H   0  0  0  0  0  0  0  0  0  0  0  0
   -4.2770   -2.9240   -0.7770 H   0  0  0  0  0  0  0  0  0  0  0  0
   -3.1520    0.5250    0.0110 H   0  0  0  0  0  0  0  0  0  0  0  0
   -2.4910   -2.3840    0.1070 H   0  0  0  0  0  0  0  0  0  0  0  0
  1 10  1  0  0  0  0
  2  1  1  0  0  0  0
  2  3  2  0  0  0  0
  4  2  1  0  0  0  0
  5  4  1  0  0  0  0
  5 14  1  0  0  0  0
  5 15  1  0  0  0  0
  6 16  1  6  0  0  0
  6  5  1  0  0  0  0
  7  6  1  0  0  0  0
  8  6  1  0  0  0  0
  8 19  1  0  0  0  0
  9  8  2  0  0  0  0
 11  1  1  0  0  0  0
 12  4  1  0  0  0  0
 13  4  1  0  0  0  0
 17  7  1  0  0  0  0
 18  7  1  0  0  0  0
 19 23  1  0  0  0  0
 19 20  1  0  0  0  0
 20 26  1  0  0  0  0
 20 21  1  0  0  0  0
 21 29  1  0  0  0  0
 22 21  1  0  0  0  0
 22 30  1  0  0  0  0
 23 32  1  6  0  0  0
 23 22  1  0  0  0  0
 24 23  1  0  0  0  0
 25 24  2  0  0  0  0
 27 20  1  0  0  0  0
 28 21  1  0  0  0  0
 31 22  1  0  0  0  0
 33 42  1  0  0  0  0
 33 43  1  0  0  0  0
 34 33  1  0  0  0  0
 34 45  1  0  0  0  0
 35 47  1  6  0  0  0
 35 34  1  0  0  0  0
 35 37  1  0  0  0  0
 36 35  1  0  0  0  0
 36 50  1  0  0  0  0
 36 49  1  0  0  0  0
 37 51  1  6  0  0  0
 37 38  1  0  0  0  0
 37 39  1  0  0  0  0
 38 52  1  0  0  0  0
 38 24  1  0  0  0  0
 39 41  2  0  0  0  0
 39 40  1  0  0  0  0
 44 33  1  0  0  0  0
 46 34  1  0  0  0  0
 48 36  1  0  0  0  0
M  END
$$$$
