QPK.pdb
 OpenBabel07022418333D

 54 54  0  0  1  0  0  0  0  0999 V2000
    2.5910   -5.3620    3.3370 N   0  0  0  0  0  0  0  0  0  0  0  0
    1.9620   -4.6210    2.3110 C   0  0  0  0  0  0  0  0  0  0  0  0
    0.7280   -4.6910    2.1750 O   0  0  0  0  0  0  0  0  0  0  0  0
    2.7720   -3.7790    1.4200 C   0  0  0  0  0  0  0  0  0  0  0  0
    1.8280   -3.1150    0.4310 C   0  0  0  0  0  0  0  0  0  0  0  0
    2.5960   -2.2230   -0.5290 C   0  0  2  0  0  0  0  0  0  0  0  0
    3.5460   -3.1370   -1.1980 N   0  0  0  0  0  0  0  0  0  0  0  0
    3.2820   -1.1750    0.2330 C   0  0  0  0  0  0  0  0  0  0  0  0
    4.5450   -1.4600    0.4220 O   0  0  0  0  0  0  0  0  0  0  0  0
    2.9740   -6.3170    3.1330 H   0  0  0  0  0  0  0  0  0  0  0  0
    2.7100   -5.0240    4.3200 H   0  0  0  0  0  0  0  0  0  0  0  0
    3.5260   -4.4090    0.9090 H   0  0  0  0  0  0  0  0  0  0  0  0
    3.2260   -2.9730    2.0340 H   0  0  0  0  0  0  0  0  0  0  0  0
    1.2660   -3.8880   -0.1270 H   0  0  0  0  0  0  0  0  0  0  0  0
    1.1980   -2.4580    1.0610 H   0  0  0  0  0  0  0  0  0  0  0  0
    2.0260   -1.8050   -1.3390 H   0  0  0  0  0  0  0  0  0  0  0  0
    3.9080   -2.6790   -2.0590 H   0  0  0  0  0  0  0  0  0  0  0  0
    3.1020   -4.0240   -1.4440 H   0  0  0  0  0  0  0  0  0  0  0  0
    2.7910    0.0230    0.7540 N   0  0  0  0  0  0  0  0  0  0  0  0
    3.7570    0.8860    1.5520 C   0  0  0  0  0  0  0  0  0  0  0  0
    3.5420    2.2290    0.8910 C   0  0  0  0  0  0  0  0  0  0  0  0
    2.2020    2.1370    0.1990 C   0  0  0  0  0  0  0  0  0  0  0  0
    1.6630    0.8340    0.8360 C   0  0  1  0  0  0  0  0  0  0  0  0
    0.3530    0.5180    0.3700 C   0  0  0  0  0  0  0  0  0  0  0  0
    0.0550   -0.4940   -0.2670 O   0  0  0  0  0  0  0  0  0  0  0  0
    3.4420    0.8660    2.6080 H   0  0  0  0  0  0  0  0  0  0  0  0
    4.7780    0.5460    1.4290 H   0  0  0  0  0  0  0  0  0  0  0  0
    3.5000    2.9970    1.7050 H   0  0  0  0  0  0  0  0  0  0  0  0
    4.3650    2.4450    0.1780 H   0  0  0  0  0  0  0  0  0  0  0  0
    2.3880    1.9320   -0.8700 H   0  0  0  0  0  0  0  0  0  0  0  0
    1.5430    2.9810    0.3990 H   0  0  0  0  0  0  0  0  0  0  0  0
    1.5660    1.1500    1.9370 H   0  0  0  0  0  0  0  0  0  0  0  0
   -0.7450    1.4240    0.6400 N   0  0  0  0  0  0  0  0  0  0  0  0
   -2.0570    1.0620    0.1470 C   0  0  1  0  0  0  0  0  0  0  0  0
   -3.0830    0.9990    1.2170 C   0  0  0  0  0  0  0  0  0  0  0  0
   -4.4410    0.6260    0.7630 C   0  0  0  0  0  0  0  0  0  0  0  0
   -4.5050   -0.7260    0.0880 C   0  0  0  0  0  0  0  0  0  0  0  0
   -5.9680   -0.9480   -0.3120 C   0  0  0  0  0  0  0  0  0  0  0  0
   -6.1340   -2.2180   -0.9670 N   0  0  0  0  0  0  0  0  0  0  0  0
   -2.4830    2.0750   -0.8550 C   0  0  0  0  0  0  0  0  0  0  0  0
   -3.5630    2.0020   -1.4830 O   0  0  0  0  0  0  0  0  0  0  0  0
   -1.6870    3.1870   -1.1560 O   0  0  0  0  0  0  0  0  0  0  0  0
   -0.6100    2.3080    1.1690 H   0  0  0  0  0  0  0  0  0  0  0  0
   -2.0470    0.0990   -0.3940 H   0  0  0  0  0  0  0  0  0  0  0  0
   -3.1640    2.0390    1.6520 H   0  0  0  0  0  0  0  0  0  0  0  0
   -2.8160    0.3620    2.0800 H   0  0  0  0  0  0  0  0  0  0  0  0
   -5.0560    0.4810    1.7140 H   0  0  0  0  0  0  0  0  0  0  0  0
   -4.9890    1.3440    0.1550 H   0  0  0  0  0  0  0  0  0  0  0  0
   -4.2020   -1.5570    0.7560 H   0  0  0  0  0  0  0  0  0  0  0  0
   -3.8890   -0.7900   -0.8170 H   0  0  0  0  0  0  0  0  0  0  0  0
   -6.3080   -0.1620   -1.0110 H   0  0  0  0  0  0  0  0  0  0  0  0
   -6.6030   -0.8510    0.5950 H   0  0  0  0  0  0  0  0  0  0  0  0
   -6.1830   -2.1730   -1.9900 H   0  0  0  0  0  0  0  0  0  0  0  0
   -5.5720   -2.9820   -0.5770 H   0  0  0  0  0  0  0  0  0  0  0  0
  1 11  1  0  0  0  0
  2  1  1  0  0  0  0
  3  2  2  0  0  0  0
  4 13  1  0  0  0  0
  4  2  1  0  0  0  0
  5 15  1  0  0  0  0
  5  4  1  0  0  0  0
  6 16  1  6  0  0  0
  6  8  1  0  0  0  0
  6  5  1  0  0  0  0
  7  6  1  0  0  0  0
  8  9  2  0  0  0  0
  8 19  1  0  0  0  0
 10  1  1  0  0  0  0
 12  4  1  0  0  0  0
 14  5  1  0  0  0  0
 17  7  1  0  0  0  0
 18  7  1  0  0  0  0
 19 23  1  0  0  0  0
 19 20  1  0  0  0  0
 20 26  1  0  0  0  0
 21 20  1  0  0  0  0
 21 28  1  0  0  0  0
 22 31  1  0  0  0  0
 22 23  1  0  0  0  0
 22 21  1  0  0  0  0
 23 32  1  1  0  0  0
 24 33  1  0  0  0  0
 24 23  1  0  0  0  0
 25 24  2  0  0  0  0
 27 20  1  0  0  0  0
 29 21  1  0  0  0  0
 30 22  1  0  0  0  0
 33 43  1  0  0  0  0
 34 44  1  6  0  0  0
 34 33  1  0  0  0  0
 34 35  1  0  0  0  0
 35 45  1  0  0  0  0
 35 46  1  0  0  0  0
 36 35  1  0  0  0  0
 36 47  1  0  0  0  0
 37 49  1  0  0  0  0
 37 36  1  0  0  0  0
 38 37  1  0  0  0  0
 38 52  1  0  0  0  0
 39 54  1  0  0  0  0
 39 38  1  0  0  0  0
 40 34  1  0  0  0  0
 41 40  2  0  0  0  0
 42 40  1  0  0  0  0
 48 36  1  0  0  0  0
 50 37  1  0  0  0  0
 51 38  1  0  0  0  0
 53 39  1  0  0  0  0
M  END
$$$$
