QPM.pdb
 OpenBabel07022418333D

 50 50  0  0  1  0  0  0  0  0999 V2000
    0.5770   -3.0550    6.0950 N   0  0  0  0  0  0  0  0  0  0  0  0
    0.0700   -2.8620    4.7920 C   0  0  0  0  0  0  0  0  0  0  0  0
   -1.1460   -2.6140    4.6410 O   0  0  0  0  0  0  0  0  0  0  0  0
    0.9510   -2.9510    3.6180 C   0  0  0  0  0  0  0  0  0  0  0  0
    0.1480   -2.7080    2.3680 C   0  0  0  0  0  0  0  0  0  0  0  0
    1.0490   -2.7940    1.1220 C   0  0  2  0  0  0  0  0  0  0  0  0
    1.5770   -4.1720    1.1780 N   0  0  0  0  0  0  0  0  0  0  0  0
    2.1450   -1.8230    1.1940 C   0  0  0  0  0  0  0  0  0  0  0  0
    3.2930   -2.3260    1.4910 O   0  0  0  0  0  0  0  0  0  0  0  0
    0.5770   -2.2390    6.7570 H   0  0  0  0  0  0  0  0  0  0  0  0
    0.9580   -3.9600    6.4550 H   0  0  0  0  0  0  0  0  0  0  0  0
    1.8000   -2.2300    3.6870 H   0  0  0  0  0  0  0  0  0  0  0  0
    1.4300   -3.9590    3.6090 H   0  0  0  0  0  0  0  0  0  0  0  0
   -0.3160   -1.7250    2.4090 H   0  0  0  0  0  0  0  0  0  0  0  0
   -0.6770   -3.4520    2.2840 H   0  0  0  0  0  0  0  0  0  0  0  0
    0.4000   -2.7500    0.2570 H   0  0  0  0  0  0  0  0  0  0  0  0
    1.0080   -4.8120    0.6040 H   0  0  0  0  0  0  0  0  0  0  0  0
    2.5430   -4.1720    0.7820 H   0  0  0  0  0  0  0  0  0  0  0  0
    2.0560   -0.4270    0.9710 N   0  0  0  0  0  0  0  0  0  0  0  0
    3.2350    0.4570    1.1010 C   0  0  0  0  0  0  0  0  0  0  0  0
    2.6270    1.7720    1.5600 C   0  0  0  0  0  0  0  0  0  0  0  0
    1.4340    1.8280    0.6450 C   0  0  0  0  0  0  0  0  0  0  0  0
    0.9640    0.3950    0.6040 C   0  0  1  0  0  0  0  0  0  0  0  0
    0.4290    0.1100   -0.7510 C   0  0  0  0  0  0  0  0  0  0  0  0
    0.9390   -0.7460   -1.4940 O   0  0  0  0  0  0  0  0  0  0  0  0
    3.6790    0.6180    0.1020 H   0  0  0  0  0  0  0  0  0  0  0  0
    3.9330    0.0670    1.8440 H   0  0  0  0  0  0  0  0  0  0  0  0
    2.2400    1.6230    2.5940 H   0  0  0  0  0  0  0  0  0  0  0  0
    3.3130    2.6090    1.4450 H   0  0  0  0  0  0  0  0  0  0  0  0
    0.6460    2.5160    1.0140 H   0  0  0  0  0  0  0  0  0  0  0  0
    1.8110    2.1240   -0.3570 H   0  0  0  0  0  0  0  0  0  0  0  0
    0.1310    0.3140    1.3380 H   0  0  0  0  0  0  0  0  0  0  0  0
   -3.4030    0.2350    0.8520 C   0  0  0  0  0  0  0  0  0  0  0  0
   -2.2650   -0.9340    0.0310 S   0  0  0  0  0  0  0  0  0  0  0  0
   -2.8470   -1.1310   -1.6760 C   0  0  0  0  0  0  0  0  0  0  0  0
   -2.7010    0.1600   -2.4520 C   0  0  0  0  0  0  0  0  0  0  0  0
   -1.2590    0.6070   -2.5060 C   0  0  2  0  0  0  0  0  0  0  0  0
   -0.6930    0.8400   -1.1960 N   0  0  0  0  0  0  0  0  0  0  0  0
   -1.0960    1.7990   -3.3840 C   0  0  0  0  0  0  0  0  0  0  0  0
   -1.5540    1.7220   -4.5530 O   0  0  0  0  0  0  0  0  0  0  0  0
   -0.4680    2.9560   -2.9510 O   0  0  0  0  0  0  0  0  0  0  0  0
   -4.4250   -0.1480    0.9120 H   0  0  0  0  0  0  0  0  0  0  0  0
   -3.0050    0.4540    1.8810 H   0  0  0  0  0  0  0  0  0  0  0  0
   -3.4390    1.1710    0.2290 H   0  0  0  0  0  0  0  0  0  0  0  0
   -3.8990   -1.4670   -1.6320 H   0  0  0  0  0  0  0  0  0  0  0  0
   -2.2220   -1.9320   -2.1340 H   0  0  0  0  0  0  0  0  0  0  0  0
   -3.3620    0.9250   -1.9990 H   0  0  0  0  0  0  0  0  0  0  0  0
   -3.0100   -0.0620   -3.4950 H   0  0  0  0  0  0  0  0  0  0  0  0
   -0.6770   -0.2060   -2.9830 H   0  0  0  0  0  0  0  0  0  0  0  0
   -1.1470    1.5790   -0.5760 H   0  0  0  0  0  0  0  0  0  0  0  0
  1 11  1  0  0  0  0
  1 10  1  0  0  0  0
  2  1  1  0  0  0  0
  3  2  2  0  0  0  0
  4 12  1  0  0  0  0
  4  2  1  0  0  0  0
  5 14  1  0  0  0  0
  5  4  1  0  0  0  0
  6 16  1  6  0  0  0
  6  7  1  0  0  0  0
  6  8  1  0  0  0  0
  6  5  1  0  0  0  0
  8  9  2  0  0  0  0
 13  4  1  0  0  0  0
 15  5  1  0  0  0  0
 17  7  1  0  0  0  0
 18  7  1  0  0  0  0
 19 20  1  0  0  0  0
 19  8  1  0  0  0  0
 20 21  1  0  0  0  0
 20 27  1  0  0  0  0
 21 28  1  0  0  0  0
 22 30  1  0  0  0  0
 22 21  1  0  0  0  0
 23 22  1  0  0  0  0
 23 19  1  0  0  0  0
 23 32  1  1  0  0  0
 24 23  1  0  0  0  0
 25 24  2  0  0  0  0
 26 20  1  0  0  0  0
 29 21  1  0  0  0  0
 31 22  1  0  0  0  0
 33 42  1  0  0  0  0
 33 43  1  0  0  0  0
 34 33  1  0  0  0  0
 35 45  1  0  0  0  0
 35 34  1  0  0  0  0
 36 47  1  0  0  0  0
 36 35  1  0  0  0  0
 37 49  1  6  0  0  0
 37 36  1  0  0  0  0
 37 38  1  0  0  0  0
 38 24  1  0  0  0  0
 38 50  1  0  0  0  0
 39 41  1  0  0  0  0
 39 37  1  0  0  0  0
 40 39  2  0  0  0  0
 44 33  1  0  0  0  0
 46 35  1  0  0  0  0
 48 36  1  0  0  0  0
M  END
$$$$
