QPS.pdb
 OpenBabel07022418333D

 44 44  0  0  1  0  0  0  0  0999 V2000
    2.1290   -3.1690    5.5520 N   0  0  0  0  0  0  0  0  0  0  0  0
    2.4780   -2.4230    4.4120 C   0  0  0  0  0  0  0  0  0  0  0  0
    3.4630   -1.6640    4.4400 O   0  0  0  0  0  0  0  0  0  0  0  0
    1.6780   -2.5390    3.1810 C   0  0  0  0  0  0  0  0  0  0  0  0
    2.2400   -1.6370    2.0700 C   0  0  0  0  0  0  0  0  0  0  0  0
    1.3440   -1.8470    0.8850 C   0  0  2  0  0  0  0  0  0  0  0  0
    1.4500   -3.2860    0.5810 N   0  0  0  0  0  0  0  0  0  0  0  0
    1.6640   -1.0450   -0.3020 C   0  0  0  0  0  0  0  0  0  0  0  0
    2.1400   -1.7160   -1.2880 O   0  0  0  0  0  0  0  0  0  0  0  0
    1.9500   -2.6750    6.4500 H   0  0  0  0  0  0  0  0  0  0  0  0
    2.0340   -4.2130    5.5630 H   0  0  0  0  0  0  0  0  0  0  0  0
    0.6440   -2.1720    3.4400 H   0  0  0  0  0  0  0  0  0  0  0  0
    1.5830   -3.5870    2.8260 H   0  0  0  0  0  0  0  0  0  0  0  0
    3.2650   -2.0170    1.8740 H   0  0  0  0  0  0  0  0  0  0  0  0
    2.2670   -0.6460    2.4970 H   0  0  0  0  0  0  0  0  0  0  0  0
    0.3020   -1.6700    1.2000 H   0  0  0  0  0  0  0  0  0  0  0  0
    1.1930   -3.3950   -0.4130 H   0  0  0  0  0  0  0  0  0  0  0  0
    2.4330   -3.5920    0.7560 H   0  0  0  0  0  0  0  0  0  0  0  0
    1.5060    0.3340   -0.4600 N   0  0  0  0  0  0  0  0  0  0  0  0
    1.8800    1.0330   -1.7010 C   0  0  0  0  0  0  0  0  0  0  0  0
    2.2900    2.4150   -1.2590 C   0  0  0  0  0  0  0  0  0  0  0  0
    1.3900    2.6900   -0.1090 C   0  0  0  0  0  0  0  0  0  0  0  0
    0.9850    1.3430    0.4320 C   0  0  1  0  0  0  0  0  0  0  0  0
   -0.4830    1.2280    0.6120 C   0  0  0  0  0  0  0  0  0  0  0  0
   -1.0860    2.0230    1.3790 O   0  0  0  0  0  0  0  0  0  0  0  0
    2.6390    0.4970   -2.2670 H   0  0  0  0  0  0  0  0  0  0  0  0
    0.9560    1.0890   -2.3150 H   0  0  0  0  0  0  0  0  0  0  0  0
    2.0500    3.1100   -2.1030 H   0  0  0  0  0  0  0  0  0  0  0  0
    3.3640    2.4800   -1.0220 H   0  0  0  0  0  0  0  0  0  0  0  0
    0.5300    3.2960   -0.4490 H   0  0  0  0  0  0  0  0  0  0  0  0
    1.9400    3.3190    0.6190 H   0  0  0  0  0  0  0  0  0  0  0  0
    1.4530    1.2800    1.4320 H   0  0  0  0  0  0  0  0  0  0  0  0
   -4.8500    0.3400   -0.9080 O   0  0  0  0  0  0  0  0  0  0  0  0
   -3.4810    0.4340   -1.1290 C   0  0  0  0  0  0  0  0  0  0  0  0
   -2.7190    0.1650    0.1530 C   0  0  2  0  0  0  0  0  0  0  0  0
   -1.2950    0.2540   -0.0380 N   0  0  0  0  0  0  0  0  0  0  0  0
   -3.1600   -1.1630    0.6440 C   0  0  0  0  0  0  0  0  0  0  0  0
   -2.3860   -2.1260    0.8740 O   0  0  0  0  0  0  0  0  0  0  0  0
   -4.5150   -1.3570    0.8640 O   0  0  0  0  0  0  0  0  0  0  0  0
   -5.2580   -0.3390   -1.5030 H   0  0  0  0  0  0  0  0  0  0  0  0
   -3.1240   -0.2920   -1.8990 H   0  0  0  0  0  0  0  0  0  0  0  0
   -3.2470    1.4440   -1.4610 H   0  0  0  0  0  0  0  0  0  0  0  0
   -3.0730    0.9570    0.8770 H   0  0  0  0  0  0  0  0  0  0  0  0
   -0.8460   -0.4210   -0.6780 H   0  0  0  0  0  0  0  0  0  0  0  0
  1 11  1  0  0  0  0
  1 10  1  0  0  0  0
  2  3  2  0  0  0  0
  2  1  1  0  0  0  0
  4 12  1  0  0  0  0
  4  2  1  0  0  0  0
  5 15  1  0  0  0  0
  5  4  1  0  0  0  0
  6 16  1  1  0  0  0
  6  5  1  0  0  0  0
  7 18  1  0  0  0  0
  7  6  1  0  0  0  0
  8  6  1  0  0  0  0
  9  8  2  0  0  0  0
 13  4  1  0  0  0  0
 14  5  1  0  0  0  0
 17  7  1  0  0  0  0
 19  8  1  0  0  0  0
 19 23  1  0  0  0  0
 20 21  1  0  0  0  0
 20 19  1  0  0  0  0
 21 29  1  0  0  0  0
 21 22  1  0  0  0  0
 22 23  1  0  0  0  0
 22 31  1  0  0  0  0
 23 24  1  0  0  0  0
 23 32  1  1  0  0  0
 24 25  2  0  0  0  0
 26 20  1  0  0  0  0
 27 20  1  0  0  0  0
 28 21  1  0  0  0  0
 30 22  1  0  0  0  0
 34 33  1  0  0  0  0
 34 35  1  0  0  0  0
 35 37  1  0  0  0  0
 35 43  1  1  0  0  0
 36 35  1  0  0  0  0
 36 24  1  0  0  0  0
 37 39  2  0  0  0  0
 37 38  1  0  0  0  0
 40 33  1  0  0  0  0
 41 34  1  0  0  0  0
 42 34  1  0  0  0  0
 44 36  1  0  0  0  0
M  END
$$$$
