QQC.pdb
 OpenBabel07022418323D

 47 46  0  0  1  0  0  0  0  0999 V2000
    2.0970   -5.4860   -1.5450 N   0  0  0  0  0  0  0  0  0  0  0  0
    1.7240   -4.2620   -0.9350 C   0  0  0  0  0  0  0  0  0  0  0  0
    1.4570   -3.2890   -1.6700 O   0  0  0  0  0  0  0  0  0  0  0  0
    1.6470   -4.1260    0.5260 C   0  0  0  0  0  0  0  0  0  0  0  0
    1.4230   -2.7220    1.0170 C   0  0  0  0  0  0  0  0  0  0  0  0
    2.5620   -1.8320    0.6070 C   0  0  2  0  0  0  0  0  0  0  0  0
    3.8260   -2.2980    1.1460 N   0  0  0  0  0  0  0  0  0  0  0  0
    2.2550   -0.4640    1.1170 C   0  0  0  0  0  0  0  0  0  0  0  0
    3.0110    0.1630    1.9000 O   0  0  0  0  0  0  0  0  0  0  0  0
    1.8010   -6.3920   -1.1140 H   0  0  0  0  0  0  0  0  0  0  0  0
    2.6700   -5.5230   -2.4300 H   0  0  0  0  0  0  0  0  0  0  0  0
    0.7860   -4.7280    0.9500 H   0  0  0  0  0  0  0  0  0  0  0  0
    2.6010   -4.5350    0.9490 H   0  0  0  0  0  0  0  0  0  0  0  0
    1.2960   -2.7050    2.1250 H   0  0  0  0  0  0  0  0  0  0  0  0
    0.4610   -2.3640    0.5920 H   0  0  0  0  0  0  0  0  0  0  0  0
    2.6450   -1.7620   -0.4870 H   0  0  0  0  0  0  0  0  0  0  0  0
    4.5400   -2.3910    0.3950 H   0  0  0  0  0  0  0  0  0  0  0  0
    4.0940   -1.6650    1.9160 H   0  0  0  0  0  0  0  0  0  0  0  0
   -1.3170    2.9940   -3.2730 N   0  0  0  0  0  0  0  0  0  0  0  0
   -0.4990    3.0830   -2.1380 C   0  0  0  0  0  0  0  0  0  0  0  0
    0.2500    4.1080   -2.0030 O   0  0  0  0  0  0  0  0  0  0  0  0
   -0.4570    2.0400   -1.0770 C   0  0  0  0  0  0  0  0  0  0  0  0
    0.5090    2.4410   -0.0190 C   0  0  0  0  0  0  0  0  0  0  0  0
    0.6330    1.4600    1.1040 C   0  0  2  0  0  0  0  0  0  0  0  0
    1.0690    0.1560    0.7060 N   0  0  0  0  0  0  0  0  0  0  0  0
   -0.6180    1.3440    1.8990 C   0  0  0  0  0  0  0  0  0  0  0  0
   -1.2000    2.3830    2.3660 O   0  0  0  0  0  0  0  0  0  0  0  0
   -0.9110    3.1530   -4.2130 H   0  0  0  0  0  0  0  0  0  0  0  0
   -2.3210    2.7710   -3.1910 H   0  0  0  0  0  0  0  0  0  0  0  0
   -0.2400    1.0690   -1.5340 H   0  0  0  0  0  0  0  0  0  0  0  0
   -1.4850    2.0620   -0.6060 H   0  0  0  0  0  0  0  0  0  0  0  0
    0.2160    3.4160    0.4250 H   0  0  0  0  0  0  0  0  0  0  0  0
    1.5390    2.6120   -0.4330 H   0  0  0  0  0  0  0  0  0  0  0  0
    1.4230    1.8740    1.7980 H   0  0  0  0  0  0  0  0  0  0  0  0
    0.4230   -0.3700    0.0430 H   0  0  0  0  0  0  0  0  0  0  0  0
   -1.2500    0.1110    2.1960 N   0  0  0  0  0  0  0  0  0  0  0  0
   -2.4720    0.0090    2.9740 C   0  0  1  0  0  0  0  0  0  0  0  0
   -3.5900   -0.6300    2.1810 C   0  0  0  0  0  0  0  0  0  0  0  0
   -3.9960    0.3070    0.6930 S   0  0  0  0  0  0  0  0  0  0  0  0
   -2.2350   -0.7820    4.1910 C   0  0  0  0  0  0  0  0  0  0  0  0
   -1.1080   -1.2500    4.4220 O   0  0  0  0  0  0  0  0  0  0  0  0
   -3.2600   -1.0060    5.0750 O   0  0  0  0  0  0  0  0  0  0  0  0
   -0.8200   -0.7680    1.8410 H   0  0  0  0  0  0  0  0  0  0  0  0
   -2.8350    1.0070    3.2950 H   0  0  0  0  0  0  0  0  0  0  0  0
   -3.4050   -1.6930    1.9810 H   0  0  0  0  0  0  0  0  0  0  0  0
   -4.4940   -0.5920    2.8410 H   0  0  0  0  0  0  0  0  0  0  0  0
   -4.4620    1.5800    1.0630 H   0  0  0  0  0  0  0  0  0  0  0  0
  1 10  1  0  0  0  0
  1  2  1  0  0  0  0
  2  4  1  0  0  0  0
  3  2  2  0  0  0  0
  4 13  1  0  0  0  0
  4 12  1  0  0  0  0
  4  5  1  0  0  0  0
  5 14  1  0  0  0  0
  6 16  1  6  0  0  0
  6  5  1  0  0  0  0
  6  8  1  0  0  0  0
  6  7  1  0  0  0  0
  7 18  1  0  0  0  0
  8  9  2  0  0  0  0
 11  1  1  0  0  0  0
 15  5  1  0  0  0  0
 17  7  1  0  0  0  0
 19 29  1  0  0  0  0
 19 20  1  0  0  0  0
 20 21  2  0  0  0  0
 20 22  1  0  0  0  0
 22 31  1  0  0  0  0
 22 23  1  0  0  0  0
 23 32  1  0  0  0  0
 23 24  1  0  0  0  0
 24 34  1  1  0  0  0
 24 26  1  0  0  0  0
 25 24  1  0  0  0  0
 25  8  1  0  0  0  0
 26 36  1  0  0  0  0
 26 27  2  0  0  0  0
 28 19  1  0  0  0  0
 30 22  1  0  0  0  0
 33 23  1  0  0  0  0
 35 25  1  0  0  0  0
 36 37  1  0  0  0  0
 37 44  1  1  0  0  0
 37 40  1  0  0  0  0
 38 46  1  0  0  0  0
 38 37  1  0  0  0  0
 39 47  1  0  0  0  0
 39 38  1  0  0  0  0
 40 41  2  0  0  0  0
 40 42  1  0  0  0  0
 43 36  1  0  0  0  0
 45 38  1  0  0  0  0
M  END
$$$$
