QQG.pdb
 OpenBabel07022418323D

 43 42  0  0  1  0  0  0  0  0999 V2000
    0.5960   -6.4500    1.7360 N   0  0  0  0  0  0  0  0  0  0  0  0
    0.6340   -5.0410    1.8030 C   0  0  0  0  0  0  0  0  0  0  0  0
   -0.1750   -4.4320    2.5300 O   0  0  0  0  0  0  0  0  0  0  0  0
    1.6260   -4.2990    1.0150 C   0  0  0  0  0  0  0  0  0  0  0  0
    1.4850   -2.7890    1.2120 C   0  0  0  0  0  0  0  0  0  0  0  0
    2.5170   -2.0630    0.3990 C   0  0  2  0  0  0  0  0  0  0  0  0
    3.8660   -2.4210    0.7680 N   0  0  0  0  0  0  0  0  0  0  0  0
    2.3670   -0.5990    0.4470 C   0  0  0  0  0  0  0  0  0  0  0  0
    3.3630    0.1020    0.7610 O   0  0  0  0  0  0  0  0  0  0  0  0
    0.1650   -6.9770    2.5140 H   0  0  0  0  0  0  0  0  0  0  0  0
    0.9990   -6.9570    0.9090 H   0  0  0  0  0  0  0  0  0  0  0  0
    1.3550   -4.4770   -0.0690 H   0  0  0  0  0  0  0  0  0  0  0  0
    2.6570   -4.6290    1.1170 H   0  0  0  0  0  0  0  0  0  0  0  0
    1.7190   -2.5970    2.2820 H   0  0  0  0  0  0  0  0  0  0  0  0
    0.4640   -2.4490    1.0370 H   0  0  0  0  0  0  0  0  0  0  0  0
    2.3730   -2.3780   -0.6590 H   0  0  0  0  0  0  0  0  0  0  0  0
    4.0780   -3.3550    0.3190 H   0  0  0  0  0  0  0  0  0  0  0  0
    4.5100   -1.7320    0.3110 H   0  0  0  0  0  0  0  0  0  0  0  0
   -2.7810    1.2090   -2.0210 N   0  0  0  0  0  0  0  0  0  0  0  0
   -1.6720    1.9600   -1.5080 C   0  0  0  0  0  0  0  0  0  0  0  0
   -1.9480    2.8160   -0.6570 O   0  0  0  0  0  0  0  0  0  0  0  0
   -0.3010    1.7290   -1.9700 C   0  0  0  0  0  0  0  0  0  0  0  0
    0.8230    2.1300   -1.1050 C   0  0  0  0  0  0  0  0  0  0  0  0
    1.0130    1.4820    0.2020 C   0  0  2  0  0  0  0  0  0  0  0  0
    1.1560    0.0590    0.1560 N   0  0  0  0  0  0  0  0  0  0  0  0
    0.2600    1.9980    1.3610 C   0  0  0  0  0  0  0  0  0  0  0  0
    0.0600    3.2250    1.5140 O   0  0  0  0  0  0  0  0  0  0  0  0
   -3.6570    1.7130   -2.2370 H   0  0  0  0  0  0  0  0  0  0  0  0
   -2.7150    0.2000   -2.1730 H   0  0  0  0  0  0  0  0  0  0  0  0
   -0.2080    2.3510   -2.9240 H   0  0  0  0  0  0  0  0  0  0  0  0
   -0.1850    0.6820   -2.3760 H   0  0  0  0  0  0  0  0  0  0  0  0
    0.6850    3.2520   -0.9190 H   0  0  0  0  0  0  0  0  0  0  0  0
    1.8040    2.1500   -1.6970 H   0  0  0  0  0  0  0  0  0  0  0  0
    2.1120    1.8490    0.5010 H   0  0  0  0  0  0  0  0  0  0  0  0
    0.3330   -0.5550   -0.1060 H   0  0  0  0  0  0  0  0  0  0  0  0
   -0.2580    1.1170    2.3570 N   0  0  0  0  0  0  0  0  0  0  0  0
   -0.9510    1.5640    3.5050 C   0  0  0  0  0  0  0  0  0  0  0  0
   -2.1960    2.3030    3.3250 C   0  0  0  0  0  0  0  0  0  0  0  0
   -2.7650    2.7130    4.3990 O   0  0  0  0  0  0  0  0  0  0  0  0
   -2.8450    2.6200    2.1640 O   0  0  0  0  0  0  0  0  0  0  0  0
   -0.0920    0.0900    2.1890 H   0  0  0  0  0  0  0  0  0  0  0  0
   -1.2390    0.6270    4.0940 H   0  0  0  0  0  0  0  0  0  0  0  0
   -0.2680    2.0870    4.2410 H   0  0  0  0  0  0  0  0  0  0  0  0
  1  2  1  0  0  0  0
  1 10  1  0  0  0  0
  2  3  2  0  0  0  0
  4 13  1  0  0  0  0
  4  5  1  0  0  0  0
  4  2  1  0  0  0  0
  5 14  1  0  0  0  0
  6 16  1  6  0  0  0
  6  8  1  0  0  0  0
  6  7  1  0  0  0  0
  6  5  1  0  0  0  0
  8  9  2  0  0  0  0
 11  1  1  0  0  0  0
 12  4  1  0  0  0  0
 15  5  1  0  0  0  0
 17  7  1  0  0  0  0
 18  7  1  0  0  0  0
 19 20  1  0  0  0  0
 20 21  2  0  0  0  0
 22 20  1  0  0  0  0
 22 23  1  0  0  0  0
 23 32  1  0  0  0  0
 23 24  1  0  0  0  0
 24 34  1  1  0  0  0
 24 26  1  0  0  0  0
 25 24  1  0  0  0  0
 25  8  1  0  0  0  0
 26 27  2  0  0  0  0
 26 36  1  0  0  0  0
 28 19  1  0  0  0  0
 29 19  1  0  0  0  0
 30 22  1  0  0  0  0
 31 22  1  0  0  0  0
 33 23  1  0  0  0  0
 35 25  1  0  0  0  0
 36 37  1  0  0  0  0
 37 42  1  0  0  0  0
 37 43  1  0  0  0  0
 38 37  1  0  0  0  0
 38 39  1  0  0  0  0
 40 38  2  0  0  0  0
 41 36  1  0  0  0  0
M  END
$$$$
