QQK.pdb
 OpenBabel07022418323D

 57 56  0  0  1  0  0  0  0  0999 V2000
   -4.4090    0.5860    4.2210 N   0  0  0  0  0  0  0  0  0  0  0  0
   -4.1110    0.9290    2.8780 C   0  0  0  0  0  0  0  0  0  0  0  0
   -4.1710    0.0300    1.9720 O   0  0  0  0  0  0  0  0  0  0  0  0
   -3.7370    2.2870    2.4670 C   0  0  0  0  0  0  0  0  0  0  0  0
   -2.9100    2.3690    1.2400 C   0  0  0  0  0  0  0  0  0  0  0  0
   -1.5430    1.8030    1.2760 C   0  0  2  0  0  0  0  0  0  0  0  0
   -0.9990    1.9990   -0.0900 N   0  0  0  0  0  0  0  0  0  0  0  0
   -1.3450    0.4550    1.7730 C   0  0  0  0  0  0  0  0  0  0  0  0
   -1.4120    0.1120    2.9800 O   0  0  0  0  0  0  0  0  0  0  0  0
   -4.1390    1.2140    4.9920 H   0  0  0  0  0  0  0  0  0  0  0  0
   -4.9020   -0.3040    4.4320 H   0  0  0  0  0  0  0  0  0  0  0  0
   -4.7100    2.8150    2.2310 H   0  0  0  0  0  0  0  0  0  0  0  0
   -3.3040    2.8740    3.3180 H   0  0  0  0  0  0  0  0  0  0  0  0
   -2.7990    3.4630    0.9890 H   0  0  0  0  0  0  0  0  0  0  0  0
   -3.5250    1.9750    0.3910 H   0  0  0  0  0  0  0  0  0  0  0  0
   -0.9290    2.5170    1.9260 H   0  0  0  0  0  0  0  0  0  0  0  0
   -1.7700    1.6450   -0.7250 H   0  0  0  0  0  0  0  0  0  0  0  0
   -0.9470    3.0190   -0.2490 H   0  0  0  0  0  0  0  0  0  0  0  0
   -1.2990   -5.9200    3.1310 N   0  0  0  0  0  0  0  0  0  0  0  0
   -1.6070   -4.6540    2.5820 C   0  0  0  0  0  0  0  0  0  0  0  0
   -2.0120   -3.7620    3.3550 O   0  0  0  0  0  0  0  0  0  0  0  0
   -1.4530   -4.4070    1.1450 C   0  0  0  0  0  0  0  0  0  0  0  0
   -1.6960   -2.9930    0.7050 C   0  0  0  0  0  0  0  0  0  0  0  0
   -0.8370   -1.9860    1.2890 C   0  0  2  0  0  0  0  0  0  0  0  0
   -1.0490   -0.6180    0.8910 N   0  0  0  0  0  0  0  0  0  0  0  0
    0.6030   -2.2490    1.0740 C   0  0  0  0  0  0  0  0  0  0  0  0
    1.2060   -3.3140    1.3550 O   0  0  0  0  0  0  0  0  0  0  0  0
   -1.9420   -6.2990    3.8540 H   0  0  0  0  0  0  0  0  0  0  0  0
   -0.4810   -6.5050    2.8710 H   0  0  0  0  0  0  0  0  0  0  0  0
   -2.1220   -5.1240    0.5740 H   0  0  0  0  0  0  0  0  0  0  0  0
   -0.4360   -4.7420    0.8440 H   0  0  0  0  0  0  0  0  0  0  0  0
   -1.5010   -3.0140   -0.4160 H   0  0  0  0  0  0  0  0  0  0  0  0
   -2.7890   -2.8330    0.7500 H   0  0  0  0  0  0  0  0  0  0  0  0
   -0.9640   -1.9690    2.4020 H   0  0  0  0  0  0  0  0  0  0  0  0
   -0.9690   -0.4530   -0.1400 H   0  0  0  0  0  0  0  0  0  0  0  0
    1.4260   -1.2280    0.4970 N   0  0  0  0  0  0  0  0  0  0  0  0
    2.8440   -1.4590    0.2740 C   0  0  1  0  0  0  0  0  0  0  0  0
    3.2470   -1.2730   -1.1730 C   0  0  0  0  0  0  0  0  0  0  0  0
    2.9530    0.1240   -1.6360 C   0  0  0  0  0  0  0  0  0  0  0  0
    3.3310    0.3760   -3.0640 C   0  0  0  0  0  0  0  0  0  0  0  0
    2.6300   -0.5060   -4.0490 C   0  0  0  0  0  0  0  0  0  0  0  0
    3.0960   -0.1470   -5.3770 N   0  0  0  0  0  0  0  0  0  0  0  0
    3.6180   -0.4820    1.0830 C   0  0  0  0  0  0  0  0  0  0  0  0
    4.8760   -0.4760    1.0640 O   0  0  0  0  0  0  0  0  0  0  0  0
    2.9970    0.4660    1.8950 O   0  0  0  0  0  0  0  0  0  0  0  0
    1.0320   -0.3190    0.2310 H   0  0  0  0  0  0  0  0  0  0  0  0
    3.1460   -2.4750    0.6240 H   0  0  0  0  0  0  0  0  0  0  0  0
    2.8580   -2.0530   -1.8270 H   0  0  0  0  0  0  0  0  0  0  0  0
    4.3700   -1.4020   -1.1750 H   0  0  0  0  0  0  0  0  0  0  0  0
    3.5220    0.8470   -1.0140 H   0  0  0  0  0  0  0  0  0  0  0  0
    1.8790    0.3600   -1.4820 H   0  0  0  0  0  0  0  0  0  0  0  0
    4.4240    0.2650   -3.2120 H   0  0  0  0  0  0  0  0  0  0  0  0
    3.0920    1.4360   -3.2880 H   0  0  0  0  0  0  0  0  0  0  0  0
    2.9370   -1.5750   -3.8870 H   0  0  0  0  0  0  0  0  0  0  0  0
    1.5460   -0.4290   -4.0470 H   0  0  0  0  0  0  0  0  0  0  0  0
    3.1130   -0.9800   -6.0160 H   0  0  0  0  0  0  0  0  0  0  0  0
    2.4440    0.5370   -5.8320 H   0  0  0  0  0  0  0  0  0  0  0  0
  1 11  1  0  0  0  0
  1 10  1  0  0  0  0
  2  1  1  0  0  0  0
  3  2  2  0  0  0  0
  4  2  1  0  0  0  0
  4 13  1  0  0  0  0
  5  6  1  0  0  0  0
  5  4  1  0  0  0  0
  6  8  1  0  0  0  0
  6 16  1  1  0  0  0
  7  6  1  0  0  0  0
  8  9  2  0  0  0  0
 12  4  1  0  0  0  0
 14  5  1  0  0  0  0
 15  5  1  0  0  0  0
 17  7  1  0  0  0  0
 18  7  1  0  0  0  0
 19 28  1  0  0  0  0
 20 19  1  0  0  0  0
 20 21  2  0  0  0  0
 22 20  1  0  0  0  0
 23 33  1  0  0  0  0
 23 22  1  0  0  0  0
 23 24  1  0  0  0  0
 24 34  1  1  0  0  0
 25 24  1  0  0  0  0
 25  8  1  0  0  0  0
 26 24  1  0  0  0  0
 26 27  2  0  0  0  0
 29 19  1  0  0  0  0
 30 22  1  0  0  0  0
 31 22  1  0  0  0  0
 32 23  1  0  0  0  0
 35 25  1  0  0  0  0
 36 26  1  0  0  0  0
 37 36  1  0  0  0  0
 37 47  1  1  0  0  0
 37 43  1  0  0  0  0
 38 37  1  0  0  0  0
 39 51  1  0  0  0  0
 39 38  1  0  0  0  0
 39 50  1  0  0  0  0
 40 39  1  0  0  0  0
 41 55  1  0  0  0  0
 41 54  1  0  0  0  0
 41 40  1  0  0  0  0
 42 41  1  0  0  0  0
 43 45  1  0  0  0  0
 44 43  2  0  0  0  0
 46 36  1  0  0  0  0
 48 38  1  0  0  0  0
 49 38  1  0  0  0  0
 52 40  1  0  0  0  0
 53 40  1  0  0  0  0
 56 42  1  0  0  0  0
 57 42  1  0  0  0  0
M  END
$$$$
