QQQ.pdb
 OpenBabel07022418323D

 53 52  0  0  1  0  0  0  0  0999 V2000
   -2.2450   -1.3800    5.8850 N   0  0  0  0  0  0  0  0  0  0  0  0
   -1.7610   -0.0860    5.5140 C   0  0  0  0  0  0  0  0  0  0  0  0
   -2.4130    0.8830    5.9550 O   0  0  0  0  0  0  0  0  0  0  0  0
   -0.5910    0.1120    4.6840 C   0  0  0  0  0  0  0  0  0  0  0  0
   -0.2820    1.4380    4.1550 C   0  0  0  0  0  0  0  0  0  0  0  0
   -1.2080    2.1200    3.2450 C   0  0  2  0  0  0  0  0  0  0  0  0
   -2.5050    2.3500    3.8310 N   0  0  0  0  0  0  0  0  0  0  0  0
   -1.3730    1.4870    1.9220 C   0  0  0  0  0  0  0  0  0  0  0  0
   -2.5310    1.2470    1.5050 O   0  0  0  0  0  0  0  0  0  0  0  0
   -3.2670   -1.5440    5.7540 H   0  0  0  0  0  0  0  0  0  0  0  0
   -1.6650   -2.1360    6.2610 H   0  0  0  0  0  0  0  0  0  0  0  0
   -0.6060   -0.6820    3.8770 H   0  0  0  0  0  0  0  0  0  0  0  0
    0.2980   -0.2220    5.3100 H   0  0  0  0  0  0  0  0  0  0  0  0
    0.7270    1.3720    3.6410 H   0  0  0  0  0  0  0  0  0  0  0  0
   -0.0530    2.1460    5.0110 H   0  0  0  0  0  0  0  0  0  0  0  0
   -0.8120    3.1610    3.0180 H   0  0  0  0  0  0  0  0  0  0  0  0
   -2.6590    3.3110    4.1610 H   0  0  0  0  0  0  0  0  0  0  0  0
   -3.2880    1.9920    3.2610 H   0  0  0  0  0  0  0  0  0  0  0  0
    2.5830    3.6410   -0.4720 N   0  0  0  0  0  0  0  0  0  0  0  0
    1.2420    3.1520   -0.5800 C   0  0  0  0  0  0  0  0  0  0  0  0
    0.4460    3.6440    0.2710 O   0  0  0  0  0  0  0  0  0  0  0  0
    0.8500    2.1620   -1.6100 C   0  0  0  0  0  0  0  0  0  0  0  0
   -0.3970    1.4210   -1.3750 C   0  0  0  0  0  0  0  0  0  0  0  0
   -0.4960    0.5070   -0.2140 C   0  0  2  0  0  0  0  0  0  0  0  0
   -0.2900    1.1230    1.0700 N   0  0  0  0  0  0  0  0  0  0  0  0
    0.2750   -0.7450   -0.3730 C   0  0  0  0  0  0  0  0  0  0  0  0
    1.0250   -1.2060    0.5260 O   0  0  0  0  0  0  0  0  0  0  0  0
    3.1520    3.9710   -1.2760 H   0  0  0  0  0  0  0  0  0  0  0  0
    3.0210    3.6690    0.4710 H   0  0  0  0  0  0  0  0  0  0  0  0
    0.7220    2.7750   -2.5540 H   0  0  0  0  0  0  0  0  0  0  0  0
    1.7230    1.5000   -1.8820 H   0  0  0  0  0  0  0  0  0  0  0  0
   -1.2440    2.1660   -1.3710 H   0  0  0  0  0  0  0  0  0  0  0  0
   -0.6060    0.8100   -2.3080 H   0  0  0  0  0  0  0  0  0  0  0  0
   -1.5940    0.1810   -0.1830 H   0  0  0  0  0  0  0  0  0  0  0  0
    0.6810    1.3030    1.4310 H   0  0  0  0  0  0  0  0  0  0  0  0
   -0.2560   -7.5930   -2.1590 N   0  0  0  0  0  0  0  0  0  0  0  0
   -0.5600   -6.2230   -2.0110 C   0  0  0  0  0  0  0  0  0  0  0  0
   -1.7690   -5.8750   -1.9160 O   0  0  0  0  0  0  0  0  0  0  0  0
    0.5380   -5.2120   -1.9690 C   0  0  0  0  0  0  0  0  0  0  0  0
   -0.0610   -3.8360   -1.8060 C   0  0  0  0  0  0  0  0  0  0  0  0
    0.9570   -2.7340   -1.7340 C   0  0  2  0  0  0  0  0  0  0  0  0
    0.1970   -1.4980   -1.5770 N   0  0  0  0  0  0  0  0  0  0  0  0
    1.9070   -2.6670   -2.8280 C   0  0  0  0  0  0  0  0  0  0  0  0
    1.9750   -1.6370   -3.5430 O   0  0  0  0  0  0  0  0  0  0  0  0
    2.7570   -3.7130   -3.1180 O   0  0  0  0  0  0  0  0  0  0  0  0
    0.5090   -7.9850   -2.7300 H   0  0  0  0  0  0  0  0  0  0  0  0
   -0.8710   -8.2760   -1.6330 H   0  0  0  0  0  0  0  0  0  0  0  0
    1.1210   -5.2930   -2.9130 H   0  0  0  0  0  0  0  0  0  0  0  0
    1.1840   -5.4150   -1.0930 H   0  0  0  0  0  0  0  0  0  0  0  0
   -0.8230   -3.6500   -2.6050 H   0  0  0  0  0  0  0  0  0  0  0  0
   -0.6210   -3.8690   -0.8270 H   0  0  0  0  0  0  0  0  0  0  0  0
    1.5410   -2.9090   -0.7840 H   0  0  0  0  0  0  0  0  0  0  0  0
   -0.3870   -1.2150   -2.3810 H   0  0  0  0  0  0  0  0  0  0  0  0
  1 11  1  0  0  0  0
  2  1  1  0  0  0  0
  2  3  2  0  0  0  0
  4 13  1  0  0  0  0
  4  2  1  0  0  0  0
  5  4  1  0  0  0  0
  5 15  1  0  0  0  0
  6 16  1  6  0  0  0
  6  7  1  0  0  0  0
  6  5  1  0  0  0  0
  7 17  1  0  0  0  0
  8  6  1  0  0  0  0
  9  8  2  0  0  0  0
 10  1  1  0  0  0  0
 12  4  1  0  0  0  0
 14  5  1  0  0  0  0
 18  7  1  0  0  0  0
 19 29  1  0  0  0  0
 20 19  1  0  0  0  0
 20 21  2  0  0  0  0
 22 23  1  0  0  0  0
 22 20  1  0  0  0  0
 23 32  1  0  0  0  0
 23 24  1  0  0  0  0
 24 34  1  1  0  0  0
 24 25  1  0  0  0  0
 25 35  1  0  0  0  0
 25  8  1  0  0  0  0
 26 24  1  0  0  0  0
 26 27  2  0  0  0  0
 28 19  1  0  0  0  0
 30 22  1  0  0  0  0
 31 22  1  0  0  0  0
 33 23  1  0  0  0  0
 36 37  1  0  0  0  0
 36 47  1  0  0  0  0
 37 39  1  0  0  0  0
 37 38  2  0  0  0  0
 39 40  1  0  0  0  0
 39 49  1  0  0  0  0
 40 41  1  0  0  0  0
 40 51  1  0  0  0  0
 41 42  1  0  0  0  0
 41 52  1  1  0  0  0
 42 26  1  0  0  0  0
 43 41  1  0  0  0  0
 44 43  2  0  0  0  0
 45 43  1  0  0  0  0
 46 36  1  0  0  0  0
 48 39  1  0  0  0  0
 50 40  1  0  0  0  0
 53 42  1  0  0  0  0
M  END
$$$$
