QQR.pdb
 OpenBabel07022418313D

 59 58  0  0  1  0  0  0  0  0999 V2000
   -2.2150    0.9620   -3.6080 N   0  0  0  0  0  0  0  0  0  0  0  0
   -1.8980    0.8700   -2.1950 C   0  0  0  0  0  0  0  0  0  0  0  0
   -0.8450    0.2490   -1.9390 O   0  0  0  0  0  0  0  0  0  0  0  0
   -2.8130    1.4900   -1.2290 C   0  0  0  0  0  0  0  0  0  0  0  0
   -2.3870    1.5950    0.1820 C   0  0  0  0  0  0  0  0  0  0  0  0
   -1.1940    2.4080    0.4980 C   0  0  2  0  0  0  0  0  0  0  0  0
   -1.4750    3.7680   -0.0060 N   0  0  0  0  0  0  0  0  0  0  0  0
    0.1090    1.9990    0.0190 C   0  0  0  0  0  0  0  0  0  0  0  0
    0.7110    2.6630   -0.8840 O   0  0  0  0  0  0  0  0  0  0  0  0
   -3.1500    0.6210   -3.8850 H   0  0  0  0  0  0  0  0  0  0  0  0
   -1.5720    1.3370   -4.3140 H   0  0  0  0  0  0  0  0  0  0  0  0
   -3.7820    0.8960   -1.3300 H   0  0  0  0  0  0  0  0  0  0  0  0
   -3.1020    2.4830   -1.6680 H   0  0  0  0  0  0  0  0  0  0  0  0
   -3.2540    2.0840    0.7360 H   0  0  0  0  0  0  0  0  0  0  0  0
   -2.3510    0.5740    0.6820 H   0  0  0  0  0  0  0  0  0  0  0  0
   -1.1690    2.5990    1.6340 H   0  0  0  0  0  0  0  0  0  0  0  0
   -1.5780    3.7440   -1.0490 H   0  0  0  0  0  0  0  0  0  0  0  0
   -0.6240    4.3780    0.1700 H   0  0  0  0  0  0  0  0  0  0  0  0
    4.1190    3.7230    3.2630 N   0  0  0  0  0  0  0  0  0  0  0  0
    3.9860    2.4010    2.7470 C   0  0  0  0  0  0  0  0  0  0  0  0
    4.6490    1.4380    3.2580 O   0  0  0  0  0  0  0  0  0  0  0  0
    3.0690    2.1470    1.6060 C   0  0  0  0  0  0  0  0  0  0  0  0
    3.0730    0.6830    1.2170 C   0  0  0  0  0  0  0  0  0  0  0  0
    2.1160    0.4470    0.0360 C   0  0  2  0  0  0  0  0  0  0  0  0
    0.8250    0.8520    0.5000 N   0  0  0  0  0  0  0  0  0  0  0  0
    2.2260   -0.9910   -0.3010 C   0  0  0  0  0  0  0  0  0  0  0  0
    3.3310   -1.4730   -0.7290 O   0  0  0  0  0  0  0  0  0  0  0  0
    3.4310    4.1570    3.9010 H   0  0  0  0  0  0  0  0  0  0  0  0
    4.9540    4.2740    2.9770 H   0  0  0  0  0  0  0  0  0  0  0  0
    2.0470    2.5190    1.8310 H   0  0  0  0  0  0  0  0  0  0  0  0
    3.4670    2.7490    0.7560 H   0  0  0  0  0  0  0  0  0  0  0  0
    4.1200    0.4330    0.9460 H   0  0  0  0  0  0  0  0  0  0  0  0
    2.8030    0.0830    2.0880 H   0  0  0  0  0  0  0  0  0  0  0  0
    2.5180    1.1110   -0.7660 H   0  0  0  0  0  0  0  0  0  0  0  0
    0.3380    0.3000    1.2390 H   0  0  0  0  0  0  0  0  0  0  0  0
   -4.4290   -4.6110    1.8840 N   0  0  0  0  0  0  0  0  0  0  0  0
   -3.1200   -5.1360    1.8130 C   0  0  0  0  0  0  0  0  0  0  0  0
   -2.8240   -6.0610    0.9450 N   0  0  0  0  0  0  0  0  0  0  0  0
   -2.0630   -4.7100    2.6570 N   0  0  0  0  0  0  0  0  0  0  0  0
   -0.6880   -4.9050    2.2540 C   0  0  0  0  0  0  0  0  0  0  0  0
   -0.3500   -4.0210    1.0610 C   0  0  0  0  0  0  0  0  0  0  0  0
    1.0830   -4.2260    0.6270 C   0  0  0  0  0  0  0  0  0  0  0  0
    1.3640   -3.3390   -0.5440 C   0  0  2  0  0  0  0  0  0  0  0  0
    1.1680   -1.9380   -0.1900 N   0  0  0  0  0  0  0  0  0  0  0  0
    0.4100   -3.7170   -1.6230 C   0  0  0  0  0  0  0  0  0  0  0  0
    0.3820   -4.8760   -2.1170 O   0  0  0  0  0  0  0  0  0  0  0  0
   -0.4990   -2.8080   -2.1430 O   0  0  0  0  0  0  0  0  0  0  0  0
   -4.8600   -4.1690    1.0200 H   0  0  0  0  0  0  0  0  0  0  0  0
   -5.0200   -4.6270    2.7530 H   0  0  0  0  0  0  0  0  0  0  0  0
   -3.5360   -6.4220    0.3000 H   0  0  0  0  0  0  0  0  0  0  0  0
   -2.2870   -4.2600    3.5630 H   0  0  0  0  0  0  0  0  0  0  0  0
   -0.4820   -5.9780    2.0280 H   0  0  0  0  0  0  0  0  0  0  0  0
   -0.0020   -4.5860    3.0770 H   0  0  0  0  0  0  0  0  0  0  0  0
   -0.5440   -2.9820    1.4060 H   0  0  0  0  0  0  0  0  0  0  0  0
   -1.0430   -4.2780    0.2410 H   0  0  0  0  0  0  0  0  0  0  0  0
    1.1340   -5.2870    0.2510 H   0  0  0  0  0  0  0  0  0  0  0  0
    1.7930   -4.0980    1.4670 H   0  0  0  0  0  0  0  0  0  0  0  0
    2.4260   -3.4750   -0.8960 H   0  0  0  0  0  0  0  0  0  0  0  0
    0.2500   -1.5860    0.1530 H   0  0  0  0  0  0  0  0  0  0  0  0
  1  2  1  0  0  0  0
  2  3  2  0  0  0  0
  2  4  1  0  0  0  0
  4  5  1  0  0  0  0
  5  6  1  0  0  0  0
  5 15  1  0  0  0  0
  5 14  1  0  0  0  0
  6 16  1  1  0  0  0
  7 18  1  0  0  0  0
  7  6  1  0  0  0  0
  8  6  1  0  0  0  0
  8 25  1  0  0  0  0
  9  8  2  0  0  0  0
 10  1  1  0  0  0  0
 11  1  1  0  0  0  0
 12  4  1  0  0  0  0
 13  4  1  0  0  0  0
 17  7  1  0  0  0  0
 19 28  1  0  0  0  0
 20 21  2  0  0  0  0
 20 19  1  0  0  0  0
 22 30  1  0  0  0  0
 22 20  1  0  0  0  0
 23 22  1  0  0  0  0
 23 33  1  0  0  0  0
 24 34  1  6  0  0  0
 24 25  1  0  0  0  0
 24 23  1  0  0  0  0
 25 35  1  0  0  0  0
 26 44  1  0  0  0  0
 26 24  1  0  0  0  0
 27 26  2  0  0  0  0
 29 19  1  0  0  0  0
 31 22  1  0  0  0  0
 32 23  1  0  0  0  0
 36 49  1  0  0  0  0
 37 36  1  0  0  0  0
 37 39  1  0  0  0  0
 38 37  2  0  0  0  0
 39 51  1  0  0  0  0
 40 39  1  0  0  0  0
 40 53  1  0  0  0  0
 41 54  1  0  0  0  0
 41 40  1  0  0  0  0
 42 41  1  0  0  0  0
 42 57  1  0  0  0  0
 43 58  1  6  0  0  0
 43 44  1  0  0  0  0
 43 42  1  0  0  0  0
 44 59  1  0  0  0  0
 45 43  1  0  0  0  0
 46 45  1  0  0  0  0
 47 45  2  0  0  0  0
 48 36  1  0  0  0  0
 50 38  1  0  0  0  0
 52 40  1  0  0  0  0
 55 41  1  0  0  0  0
 56 42  1  0  0  0  0
M  END
$$$$
