QQS.pdb
 OpenBabel07022418323D

 47 46  0  0  1  0  0  0  0  0999 V2000
    1.7500   -4.5370    0.2600 N   0  0  0  0  0  0  0  0  0  0  0  0
    2.6900   -3.5760    0.7140 C   0  0  0  0  0  0  0  0  0  0  0  0
    3.6880   -3.3500   -0.0080 O   0  0  0  0  0  0  0  0  0  0  0  0
    2.5050   -2.8700    1.9860 C   0  0  0  0  0  0  0  0  0  0  0  0
    3.5440   -1.8500    2.2820 C   0  0  0  0  0  0  0  0  0  0  0  0
    3.6940   -0.7320    1.3140 C   0  0  2  0  0  0  0  0  0  0  0  0
    4.7720    0.1250    1.8240 N   0  0  0  0  0  0  0  0  0  0  0  0
    2.5100    0.1430    1.1690 C   0  0  0  0  0  0  0  0  0  0  0  0
    2.5090    1.3420    1.6180 O   0  0  0  0  0  0  0  0  0  0  0  0
    1.0320   -4.2430   -0.4420 H   0  0  0  0  0  0  0  0  0  0  0  0
    1.7170   -5.5270    0.5750 H   0  0  0  0  0  0  0  0  0  0  0  0
    2.5140   -3.6850    2.7840 H   0  0  0  0  0  0  0  0  0  0  0  0
    1.5030   -2.4120    2.1170 H   0  0  0  0  0  0  0  0  0  0  0  0
    4.5240   -2.3900    2.4210 H   0  0  0  0  0  0  0  0  0  0  0  0
    3.3750   -1.3780    3.2940 H   0  0  0  0  0  0  0  0  0  0  0  0
    4.0680   -1.0980    0.3370 H   0  0  0  0  0  0  0  0  0  0  0  0
    5.6700   -0.0630    1.3580 H   0  0  0  0  0  0  0  0  0  0  0  0
    4.4960    1.1080    1.9140 H   0  0  0  0  0  0  0  0  0  0  0  0
   -1.4050   -0.3890   -4.2450 N   0  0  0  0  0  0  0  0  0  0  0  0
   -0.9820    0.4410   -3.1770 C   0  0  0  0  0  0  0  0  0  0  0  0
   -0.9230    1.6770   -3.3840 O   0  0  0  0  0  0  0  0  0  0  0  0
   -0.6120   -0.0880   -1.8430 C   0  0  0  0  0  0  0  0  0  0  0  0
   -0.2180    1.0380   -0.9570 C   0  0  0  0  0  0  0  0  0  0  0  0
    0.1830    0.6620    0.4270 C   0  0  2  0  0  0  0  0  0  0  0  0
    1.2920   -0.2130    0.5460 N   0  0  0  0  0  0  0  0  0  0  0  0
   -0.9170    0.1600    1.2590 C   0  0  0  0  0  0  0  0  0  0  0  0
   -0.7480   -0.8920    1.9170 O   0  0  0  0  0  0  0  0  0  0  0  0
   -1.0360   -0.3000   -5.2240 H   0  0  0  0  0  0  0  0  0  0  0  0
   -2.1150   -1.1280   -4.0710 H   0  0  0  0  0  0  0  0  0  0  0  0
    0.1340   -0.9040   -1.9030 H   0  0  0  0  0  0  0  0  0  0  0  0
   -1.5470   -0.5880   -1.4550 H   0  0  0  0  0  0  0  0  0  0  0  0
   -1.1270    1.6990   -0.8550 H   0  0  0  0  0  0  0  0  0  0  0  0
    0.5580    1.6960   -1.3780 H   0  0  0  0  0  0  0  0  0  0  0  0
    0.4830    1.6380    0.9120 H   0  0  0  0  0  0  0  0  0  0  0  0
    1.1890   -1.1740    0.1360 H   0  0  0  0  0  0  0  0  0  0  0  0
   -2.5050    1.4510    4.0990 O   0  0  0  0  0  0  0  0  0  0  0  0
   -3.6100    1.1560    3.3210 C   0  0  0  0  0  0  0  0  0  0  0  0
   -3.1800    0.2310    2.2040 C   0  0  2  0  0  0  0  0  0  0  0  0
   -2.1800    0.8100    1.3620 N   0  0  0  0  0  0  0  0  0  0  0  0
   -4.3450   -0.1850    1.3910 C   0  0  0  0  0  0  0  0  0  0  0  0
   -4.3170    0.0060    0.1520 O   0  0  0  0  0  0  0  0  0  0  0  0
   -5.4260   -0.7690    2.0230 O   0  0  0  0  0  0  0  0  0  0  0  0
   -2.7250    1.2670    5.0290 H   0  0  0  0  0  0  0  0  0  0  0  0
   -4.0990    2.0470    2.9020 H   0  0  0  0  0  0  0  0  0  0  0  0
   -4.3750    0.6080    3.9080 H   0  0  0  0  0  0  0  0  0  0  0  0
   -2.7850   -0.6870    2.6780 H   0  0  0  0  0  0  0  0  0  0  0  0
   -2.3260    1.6960    0.8090 H   0  0  0  0  0  0  0  0  0  0  0  0
  1 11  1  0  0  0  0
  1  2  1  0  0  0  0
  2  4  1  0  0  0  0
  3  2  2  0  0  0  0
  4 13  1  0  0  0  0
  4  5  1  0  0  0  0
  4 12  1  0  0  0  0
  5 14  1  0  0  0  0
  5 15  1  0  0  0  0
  6 16  1  6  0  0  0
  6  7  1  0  0  0  0
  6  5  1  0  0  0  0
  7 18  1  0  0  0  0
  8  6  1  0  0  0  0
  8  9  2  0  0  0  0
 10  1  1  0  0  0  0
 17  7  1  0  0  0  0
 19 29  1  0  0  0  0
 19 20  1  0  0  0  0
 20 22  1  0  0  0  0
 21 20  2  0  0  0  0
 22 31  1  0  0  0  0
 22 23  1  0  0  0  0
 23 32  1  0  0  0  0
 23 24  1  0  0  0  0
 24 25  1  0  0  0  0
 24 34  1  1  0  0  0
 24 26  1  0  0  0  0
 25  8  1  0  0  0  0
 26 39  1  0  0  0  0
 26 27  2  0  0  0  0
 28 19  1  0  0  0  0
 30 22  1  0  0  0  0
 33 23  1  0  0  0  0
 35 25  1  0  0  0  0
 36 43  1  0  0  0  0
 37 45  1  0  0  0  0
 37 36  1  0  0  0  0
 38 46  1  1  0  0  0
 38 37  1  0  0  0  0
 39 38  1  0  0  0  0
 40 42  1  0  0  0  0
 40 38  1  0  0  0  0
 41 40  2  0  0  0  0
 44 37  1  0  0  0  0
 47 39  1  0  0  0  0
M  END
$$$$
