QQT.pdb
 OpenBabel07022418323D

 50 49  0  0  1  0  0  0  0  0999 V2000
    1.0640   -5.1690    1.0120 N   0  0  0  0  0  0  0  0  0  0  0  0
    1.0240   -3.9930    0.1850 C   0  0  0  0  0  0  0  0  0  0  0  0
    0.3190   -3.0380    0.5980 O   0  0  0  0  0  0  0  0  0  0  0  0
    1.7710   -3.9280   -1.0790 C   0  0  0  0  0  0  0  0  0  0  0  0
    2.0870   -2.6050   -1.6340 C   0  0  0  0  0  0  0  0  0  0  0  0
    2.9730   -1.6950   -0.8520 C   0  0  2  0  0  0  0  0  0  0  0  0
    4.2340   -2.3870   -0.6240 N   0  0  0  0  0  0  0  0  0  0  0  0
    2.3700   -1.1680    0.3650 C   0  0  0  0  0  0  0  0  0  0  0  0
    2.7340   -1.5280    1.5380 O   0  0  0  0  0  0  0  0  0  0  0  0
    1.9420   -5.6820    1.1020 H   0  0  0  0  0  0  0  0  0  0  0  0
    0.2070   -5.4580    1.4880 H   0  0  0  0  0  0  0  0  0  0  0  0
    1.1120   -4.4880   -1.8250 H   0  0  0  0  0  0  0  0  0  0  0  0
    2.6650   -4.6070   -1.0050 H   0  0  0  0  0  0  0  0  0  0  0  0
    1.0860   -2.0860   -1.8180 H   0  0  0  0  0  0  0  0  0  0  0  0
    2.4720   -2.7380   -2.6960 H   0  0  0  0  0  0  0  0  0  0  0  0
    3.2340   -0.7860   -1.4990 H   0  0  0  0  0  0  0  0  0  0  0  0
    5.0210   -1.7050   -0.5460 H   0  0  0  0  0  0  0  0  0  0  0  0
    4.4150   -2.9430   -1.4960 H   0  0  0  0  0  0  0  0  0  0  0  0
    0.4080    1.9900    5.5510 N   0  0  0  0  0  0  0  0  0  0  0  0
    1.0220    1.6250    4.3220 C   0  0  0  0  0  0  0  0  0  0  0  0
    1.8420    0.6860    4.3410 O   0  0  0  0  0  0  0  0  0  0  0  0
    0.6850    2.3480    3.0860 C   0  0  0  0  0  0  0  0  0  0  0  0
    1.2330    1.7360    1.8390 C   0  0  0  0  0  0  0  0  0  0  0  0
    0.7220    0.3280    1.5860 C   0  0  2  0  0  0  0  0  0  0  0  0
    1.3100   -0.1870    0.3520 N   0  0  0  0  0  0  0  0  0  0  0  0
   -0.7420    0.2530    1.4860 C   0  0  0  0  0  0  0  0  0  0  0  0
   -1.4540    0.5960    2.4930 O   0  0  0  0  0  0  0  0  0  0  0  0
    0.1940    2.9770    5.7910 H   0  0  0  0  0  0  0  0  0  0  0  0
    0.1530    1.2680    6.2550 H   0  0  0  0  0  0  0  0  0  0  0  0
   -0.4130    2.5320    3.0730 H   0  0  0  0  0  0  0  0  0  0  0  0
    1.1320    3.4040    3.1160 H   0  0  0  0  0  0  0  0  0  0  0  0
    2.3410    1.6090    2.0230 H   0  0  0  0  0  0  0  0  0  0  0  0
    1.0980    2.3890    0.9690 H   0  0  0  0  0  0  0  0  0  0  0  0
    1.0480   -0.2650    2.4600 H   0  0  0  0  0  0  0  0  0  0  0  0
    0.9860    0.1430   -0.5560 H   0  0  0  0  0  0  0  0  0  0  0  0
   -2.9770    2.1400   -0.4330 C   0  0  0  0  0  0  0  0  0  0  0  0
   -3.4550    0.7310   -0.7550 C   0  0  1  0  0  0  0  0  0  0  0  0
   -3.0090    0.3760   -2.0060 O   0  0  0  0  0  0  0  0  0  0  0  0
   -2.9200   -0.2090    0.3240 C   0  0  2  0  0  0  0  0  0  0  0  0
   -1.4660   -0.1770    0.3390 N   0  0  0  0  0  0  0  0  0  0  0  0
   -3.3830   -1.5570   -0.0380 C   0  0  0  0  0  0  0  0  0  0  0  0
   -2.5480   -2.4540   -0.2880 O   0  0  0  0  0  0  0  0  0  0  0  0
   -4.7260   -1.9030   -0.1200 O   0  0  0  0  0  0  0  0  0  0  0  0
   -1.8970    2.2690   -0.5990 H   0  0  0  0  0  0  0  0  0  0  0  0
   -3.5050    2.8830   -1.0630 H   0  0  0  0  0  0  0  0  0  0  0  0
   -3.2440    2.3520    0.6340 H   0  0  0  0  0  0  0  0  0  0  0  0
   -4.5510    0.7640   -0.7530 H   0  0  0  0  0  0  0  0  0  0  0  0
   -3.0650   -0.6010   -2.1710 H   0  0  0  0  0  0  0  0  0  0  0  0
   -3.3400    0.0680    1.3100 H   0  0  0  0  0  0  0  0  0  0  0  0
   -0.9190   -0.4710   -0.4930 H   0  0  0  0  0  0  0  0  0  0  0  0
  1 10  1  0  0  0  0
  1 11  1  0  0  0  0
  2  3  2  0  0  0  0
  2  1  1  0  0  0  0
  4 13  1  0  0  0  0
  4  2  1  0  0  0  0
  5  4  1  0  0  0  0
  5  6  1  0  0  0  0
  6 16  1  6  0  0  0
  6  7  1  0  0  0  0
  6  8  1  0  0  0  0
  7 17  1  0  0  0  0
  8  9  2  0  0  0  0
 12  4  1  0  0  0  0
 14  5  1  0  0  0  0
 15  5  1  0  0  0  0
 18  7  1  0  0  0  0
 19 28  1  0  0  0  0
 19 29  1  0  0  0  0
 20 21  2  0  0  0  0
 20 19  1  0  0  0  0
 22 31  1  0  0  0  0
 22 20  1  0  0  0  0
 23 32  1  0  0  0  0
 23 22  1  0  0  0  0
 24 23  1  0  0  0  0
 24 34  1  1  0  0  0
 25  8  1  0  0  0  0
 25 24  1  0  0  0  0
 26 24  1  0  0  0  0
 26 27  2  0  0  0  0
 30 22  1  0  0  0  0
 33 23  1  0  0  0  0
 35 25  1  0  0  0  0
 36 46  1  0  0  0  0
 37 47  1  1  0  0  0
 37 36  1  0  0  0  0
 37 39  1  0  0  0  0
 38 37  1  0  0  0  0
 39 40  1  0  0  0  0
 39 49  1  1  0  0  0
 40 26  1  0  0  0  0
 41 39  1  0  0  0  0
 42 41  2  0  0  0  0
 43 41  1  0  0  0  0
 44 36  1  0  0  0  0
 45 36  1  0  0  0  0
 48 38  1  0  0  0  0
 50 40  1  0  0  0  0
M  END
$$$$
