QQV.pdb
 OpenBabel07022418323D

 52 51  0  0  1  0  0  0  0  0999 V2000
   -0.1800   -5.8880   -2.4960 N   0  0  0  0  0  0  0  0  0  0  0  0
    0.0220   -4.7670   -1.6450 C   0  0  0  0  0  0  0  0  0  0  0  0
   -0.9300   -4.3510   -0.9440 O   0  0  0  0  0  0  0  0  0  0  0  0
    1.3400   -4.0970   -1.5850 C   0  0  0  0  0  0  0  0  0  0  0  0
    1.2420   -2.9520   -0.6010 C   0  0  0  0  0  0  0  0  0  0  0  0
    2.5660   -2.2180   -0.4910 C   0  0  2  0  0  0  0  0  0  0  0  0
    3.5550   -3.1500   -0.0410 N   0  0  0  0  0  0  0  0  0  0  0  0
    2.3530   -1.1110    0.4970 C   0  0  0  0  0  0  0  0  0  0  0  0
    3.0300   -1.1170    1.5570 O   0  0  0  0  0  0  0  0  0  0  0  0
    0.0140   -5.8080   -3.5180 H   0  0  0  0  0  0  0  0  0  0  0  0
   -0.5190   -6.8180   -2.1660 H   0  0  0  0  0  0  0  0  0  0  0  0
    2.0430   -4.8550   -1.1300 H   0  0  0  0  0  0  0  0  0  0  0  0
    1.6940   -3.7640   -2.5710 H   0  0  0  0  0  0  0  0  0  0  0  0
    0.9000   -3.2920    0.3850 H   0  0  0  0  0  0  0  0  0  0  0  0
    0.4880   -2.2000   -0.9670 H   0  0  0  0  0  0  0  0  0  0  0  0
    2.8770   -1.8210   -1.4610 H   0  0  0  0  0  0  0  0  0  0  0  0
    4.3690   -2.6740    0.4460 H   0  0  0  0  0  0  0  0  0  0  0  0
    3.9870   -3.5990   -0.8940 H   0  0  0  0  0  0  0  0  0  0  0  0
    2.0090    4.5410    3.7390 N   0  0  0  0  0  0  0  0  0  0  0  0
    2.1720    3.5480    2.7340 C   0  0  0  0  0  0  0  0  0  0  0  0
    3.0610    2.6880    2.9120 O   0  0  0  0  0  0  0  0  0  0  0  0
    1.3390    3.5270    1.5360 C   0  0  0  0  0  0  0  0  0  0  0  0
    1.5250    2.3470    0.6320 C   0  0  0  0  0  0  0  0  0  0  0  0
    1.2220    1.0130    1.2540 C   0  0  2  0  0  0  0  0  0  0  0  0
    1.4320   -0.0640    0.2990 N   0  0  0  0  0  0  0  0  0  0  0  0
   -0.1680    0.9260    1.7720 C   0  0  0  0  0  0  0  0  0  0  0  0
   -0.6300    1.7270    2.6380 O   0  0  0  0  0  0  0  0  0  0  0  0
    2.0850    5.5650    3.4630 H   0  0  0  0  0  0  0  0  0  0  0  0
    1.8190    4.3310    4.7350 H   0  0  0  0  0  0  0  0  0  0  0  0
    1.5720    4.4310    0.8860 H   0  0  0  0  0  0  0  0  0  0  0  0
    0.2490    3.6770    1.7690 H   0  0  0  0  0  0  0  0  0  0  0  0
    0.8740    2.4950   -0.2560 H   0  0  0  0  0  0  0  0  0  0  0  0
    2.5940    2.3450    0.2700 H   0  0  0  0  0  0  0  0  0  0  0  0
    1.8730    0.9000    2.1440 H   0  0  0  0  0  0  0  0  0  0  0  0
    0.8750   -0.0680   -0.5820 H   0  0  0  0  0  0  0  0  0  0  0  0
   -4.7630   -0.1640    0.9310 C   0  0  0  0  0  0  0  0  0  0  0  0
   -3.3240   -0.0210    0.5470 C   0  0  0  0  0  0  0  0  0  0  0  0
   -3.0140   -1.0040   -0.5570 C   0  0  0  0  0  0  0  0  0  0  0  0
   -2.3930   -0.2580    1.7280 C   0  0  2  0  0  0  0  0  0  0  0  0
   -1.0280   -0.1020    1.2780 N   0  0  0  0  0  0  0  0  0  0  0  0
   -2.5590   -1.6240    2.2650 C   0  0  0  0  0  0  0  0  0  0  0  0
   -1.5770   -2.4030    2.2590 O   0  0  0  0  0  0  0  0  0  0  0  0
   -3.7540   -2.1040    2.7820 O   0  0  0  0  0  0  0  0  0  0  0  0
   -5.3710    0.7240    0.5910 H   0  0  0  0  0  0  0  0  0  0  0  0
   -4.9290   -0.2280    2.0300 H   0  0  0  0  0  0  0  0  0  0  0  0
   -5.2490   -1.0370    0.4170 H   0  0  0  0  0  0  0  0  0  0  0  0
   -3.1100    0.9870    0.1630 H   0  0  0  0  0  0  0  0  0  0  0  0
   -3.8560   -1.1410   -1.2530 H   0  0  0  0  0  0  0  0  0  0  0  0
   -2.7860   -2.0250   -0.1370 H   0  0  0  0  0  0  0  0  0  0  0  0
   -2.1060   -0.7090   -1.1390 H   0  0  0  0  0  0  0  0  0  0  0  0
   -2.6560    0.5180    2.4880 H   0  0  0  0  0  0  0  0  0  0  0  0
   -0.6900   -0.7840    0.5640 H   0  0  0  0  0  0  0  0  0  0  0  0
  1 11  1  0  0  0  0
  1  2  1  0  0  0  0
  2  4  1  0  0  0  0
  2  3  2  0  0  0  0
  4 12  1  0  0  0  0
  4  5  1  0  0  0  0
  5  6  1  0  0  0  0
  5 14  1  0  0  0  0
  6 16  1  6  0  0  0
  6  7  1  0  0  0  0
  6  8  1  0  0  0  0
  7 17  1  0  0  0  0
  8  9  2  0  0  0  0
 10  1  1  0  0  0  0
 13  4  1  0  0  0  0
 15  5  1  0  0  0  0
 18  7  1  0  0  0  0
 19 29  1  0  0  0  0
 20 21  2  0  0  0  0
 20 19  1  0  0  0  0
 22 31  1  0  0  0  0
 22 20  1  0  0  0  0
 23 24  1  0  0  0  0
 23 22  1  0  0  0  0
 24 26  1  0  0  0  0
 24 34  1  1  0  0  0
 25  8  1  0  0  0  0
 25 24  1  0  0  0  0
 26 27  2  0  0  0  0
 28 19  1  0  0  0  0
 30 22  1  0  0  0  0
 32 23  1  0  0  0  0
 33 23  1  0  0  0  0
 35 25  1  0  0  0  0
 36 45  1  0  0  0  0
 37 36  1  0  0  0  0
 37 39  1  0  0  0  0
 38 49  1  0  0  0  0
 38 37  1  0  0  0  0
 39 41  1  0  0  0  0
 39 51  1  1  0  0  0
 40 39  1  0  0  0  0
 40 26  1  0  0  0  0
 41 43  1  0  0  0  0
 42 41  2  0  0  0  0
 44 36  1  0  0  0  0
 46 36  1  0  0  0  0
 47 37  1  0  0  0  0
 48 38  1  0  0  0  0
 50 38  1  0  0  0  0
 52 40  1  0  0  0  0
M  END
$$$$
