QRH.pdb
 OpenBabel07022418303D

 59 59  0  0  1  0  0  0  0  0999 V2000
    1.6130    1.1250    6.5680 N   0  0  0  0  0  0  0  0  0  0  0  0
    1.7340    0.0460    5.6620 C   0  0  0  0  0  0  0  0  0  0  0  0
    1.2320   -1.0520    5.9220 O   0  0  0  0  0  0  0  0  0  0  0  0
    2.4740    0.2640    4.4050 C   0  0  0  0  0  0  0  0  0  0  0  0
    2.4760   -0.9010    3.4750 C   0  0  0  0  0  0  0  0  0  0  0  0
    1.1150   -1.3400    2.9950 C   0  0  2  0  0  0  0  0  0  0  0  0
    1.3750   -2.4830    2.0990 N   0  0  0  0  0  0  0  0  0  0  0  0
    0.4390   -0.2440    2.2630 C   0  0  0  0  0  0  0  0  0  0  0  0
    0.0600    0.7800    2.8630 O   0  0  0  0  0  0  0  0  0  0  0  0
    2.4200    1.7480    6.7270 H   0  0  0  0  0  0  0  0  0  0  0  0
    0.7160    1.2730    7.0570 H   0  0  0  0  0  0  0  0  0  0  0  0
    2.0810    1.1900    3.9220 H   0  0  0  0  0  0  0  0  0  0  0  0
    3.5300    0.5200    4.7330 H   0  0  0  0  0  0  0  0  0  0  0  0
    3.1390   -0.7560    2.5980 H   0  0  0  0  0  0  0  0  0  0  0  0
    2.9090   -1.7770    4.0180 H   0  0  0  0  0  0  0  0  0  0  0  0
    0.5070   -1.7090    3.8450 H   0  0  0  0  0  0  0  0  0  0  0  0
    0.5190   -2.7990    1.6350 H   0  0  0  0  0  0  0  0  0  0  0  0
    2.0430   -2.1360    1.3880 H   0  0  0  0  0  0  0  0  0  0  0  0
    2.1850   -0.2480   -3.8620 N   0  0  0  0  0  0  0  0  0  0  0  0
    2.3180    1.0080   -3.2460 C   0  0  0  0  0  0  0  0  0  0  0  0
    3.2650    1.2440   -2.3960 N   0  0  0  0  0  0  0  0  0  0  0  0
    1.4340    2.0740   -3.5260 N   0  0  0  0  0  0  0  0  0  0  0  0
    0.9290    3.0160   -2.5830 C   0  0  0  0  0  0  0  0  0  0  0  0
   -0.0650    2.4150   -1.6430 C   0  0  0  0  0  0  0  0  0  0  0  0
    0.5290    1.2970   -0.8580 C   0  0  0  0  0  0  0  0  0  0  0  0
   -0.4440    0.7260    0.1670 C   0  0  2  0  0  0  0  0  0  0  0  0
    0.2210   -0.3520    0.8830 N   0  0  0  0  0  0  0  0  0  0  0  0
   -1.6890    0.2060   -0.4140 C   0  0  0  0  0  0  0  0  0  0  0  0
   -2.4930    0.9000   -1.0890 O   0  0  0  0  0  0  0  0  0  0  0  0
    1.9930   -1.0950   -3.2600 H   0  0  0  0  0  0  0  0  0  0  0  0
    2.2750   -0.3480   -4.9140 H   0  0  0  0  0  0  0  0  0  0  0  0
    3.4180    2.1370   -1.9110 H   0  0  0  0  0  0  0  0  0  0  0  0
    1.1100    2.1850   -4.5350 H   0  0  0  0  0  0  0  0  0  0  0  0
    0.4960    3.8900   -3.1400 H   0  0  0  0  0  0  0  0  0  0  0  0
    1.8250    3.3840   -2.0050 H   0  0  0  0  0  0  0  0  0  0  0  0
   -0.5070    3.2100   -0.9910 H   0  0  0  0  0  0  0  0  0  0  0  0
   -0.9260    2.0660   -2.2890 H   0  0  0  0  0  0  0  0  0  0  0  0
    1.4220    1.6570   -0.3280 H   0  0  0  0  0  0  0  0  0  0  0  0
    0.7620    0.4710   -1.5710 H   0  0  0  0  0  0  0  0  0  0  0  0
   -0.6940    1.5430    0.8810 H   0  0  0  0  0  0  0  0  0  0  0  0
    0.5430   -1.2060    0.3770 H   0  0  0  0  0  0  0  0  0  0  0  0
   -2.0620   -1.1330   -0.2420 N   0  0  0  0  0  0  0  0  0  0  0  0
   -3.2160   -1.7770   -0.7340 C   0  0  1  0  0  0  0  0  0  0  0  0
   -3.0140   -2.9430   -1.6380 C   0  0  0  0  0  0  0  0  0  0  0  0
   -2.2530   -4.0450   -0.9960 C   0  0  0  0  0  0  0  0  0  0  0  0
   -2.7240   -5.1230   -0.2760 C   0  0  0  0  0  0  0  0  0  0  0  0
   -1.7000   -5.9000    0.1380 N   0  0  0  0  0  0  0  0  0  0  0  0
   -0.5890   -5.3050   -0.3250 C   0  0  0  0  0  0  0  0  0  0  0  0
   -0.9160   -4.1980   -1.0030 N   0  0  0  0  0  0  0  0  0  0  0  0
   -4.0400   -2.2250    0.4090 C   0  0  0  0  0  0  0  0  0  0  0  0
   -3.6380   -1.9980    1.5750 O   0  0  0  0  0  0  0  0  0  0  0  0
   -5.2530   -2.8940    0.2910 O   0  0  0  0  0  0  0  0  0  0  0  0
   -1.4000   -1.7430    0.3290 H   0  0  0  0  0  0  0  0  0  0  0  0
   -3.8220   -1.0250   -1.3120 H   0  0  0  0  0  0  0  0  0  0  0  0
   -2.6430   -2.6920   -2.6500 H   0  0  0  0  0  0  0  0  0  0  0  0
   -4.0460   -3.3660   -1.8280 H   0  0  0  0  0  0  0  0  0  0  0  0
   -3.7810   -5.3290   -0.0630 H   0  0  0  0  0  0  0  0  0  0  0  0
   -1.7980   -6.7750    0.7000 H   0  0  0  0  0  0  0  0  0  0  0  0
    0.4030   -5.7350   -0.1280 H   0  0  0  0  0  0  0  0  0  0  0  0
  1 10  1  0  0  0  0
  1 11  1  0  0  0  0
  2  3  2  0  0  0  0
  2  1  1  0  0  0  0
  4 13  1  0  0  0  0
  4  2  1  0  0  0  0
  5 15  1  0  0  0  0
  5  4  1  0  0  0  0
  6  5  1  0  0  0  0
  6 16  1  1  0  0  0
  7  6  1  0  0  0  0
  8  9  2  0  0  0  0
  8  6  1  0  0  0  0
 12  4  1  0  0  0  0
 14  5  1  0  0  0  0
 17  7  1  0  0  0  0
 18  7  1  0  0  0  0
 19 30  1  0  0  0  0
 19 20  1  0  0  0  0
 20 21  2  0  0  0  0
 21 32  1  0  0  0  0
 22 20  1  0  0  0  0
 22 23  1  0  0  0  0
 23 35  1  0  0  0  0
 23 24  1  0  0  0  0
 24 36  1  0  0  0  0
 24 25  1  0  0  0  0
 25 38  1  0  0  0  0
 25 26  1  0  0  0  0
 26 40  1  1  0  0  0
 26 27  1  0  0  0  0
 27  8  1  0  0  0  0
 28 42  1  0  0  0  0
 28 26  1  0  0  0  0
 29 28  2  0  0  0  0
 31 19  1  0  0  0  0
 33 22  1  0  0  0  0
 34 23  1  0  0  0  0
 37 24  1  0  0  0  0
 39 25  1  0  0  0  0
 41 27  1  0  0  0  0
 42 53  1  0  0  0  0
 43 54  1  6  0  0  0
 43 42  1  0  0  0  0
 43 50  1  0  0  0  0
 44 45  1  0  0  0  0
 44 43  1  0  0  0  0
 45 46  2  0  0  0  0
 46 57  1  0  0  0  0
 46 47  1  0  0  0  0
 47 58  1  0  0  0  0
 48 59  1  0  0  0  0
 48 47  1  0  0  0  0
 49 45  1  0  0  0  0
 49 48  2  0  0  0  0
 50 51  1  0  0  0  0
 52 50  2  0  0  0  0
 55 44  1  0  0  0  0
 56 44  1  0  0  0  0
M  END
$$$$
