QRM.pdb
 OpenBabel07022418303D

 59 58  0  0  1  0  0  0  0  0999 V2000
    1.8480   -5.3670    1.4560 N   0  0  0  0  0  0  0  0  0  0  0  0
    2.5500   -4.4260    2.2830 C   0  0  0  0  0  0  0  0  0  0  0  0
    3.1180   -4.8260    3.3050 O   0  0  0  0  0  0  0  0  0  0  0  0
    2.5340   -2.9920    1.8240 C   0  0  0  0  0  0  0  0  0  0  0  0
    3.3250   -2.1510    2.7930 C   0  0  0  0  0  0  0  0  0  0  0  0
    3.3860   -0.6930    2.3940 C   0  0  2  0  0  0  0  0  0  0  0  0
    4.1780   -0.0480    3.4500 N   0  0  0  0  0  0  0  0  0  0  0  0
    2.0290   -0.1280    2.3830 C   0  0  0  0  0  0  0  0  0  0  0  0
    1.6570    0.5420    3.4000 O   0  0  0  0  0  0  0  0  0  0  0  0
    1.2190   -6.0890    1.8530 H   0  0  0  0  0  0  0  0  0  0  0  0
    1.9880   -5.3060    0.4420 H   0  0  0  0  0  0  0  0  0  0  0  0
    2.8880   -2.9580    0.7900 H   0  0  0  0  0  0  0  0  0  0  0  0
    1.4630   -2.6640    1.9510 H   0  0  0  0  0  0  0  0  0  0  0  0
    4.3290   -2.6020    2.9240 H   0  0  0  0  0  0  0  0  0  0  0  0
    2.7820   -2.2090    3.7790 H   0  0  0  0  0  0  0  0  0  0  0  0
    3.9200   -0.5390    1.4530 H   0  0  0  0  0  0  0  0  0  0  0  0
    4.8040    0.6720    3.0670 H   0  0  0  0  0  0  0  0  0  0  0  0
    3.5140    0.3760    4.1270 H   0  0  0  0  0  0  0  0  0  0  0  0
    0.1740    2.0440   -3.1070 N   0  0  0  0  0  0  0  0  0  0  0  0
    0.0190    3.0210   -2.0680 C   0  0  0  0  0  0  0  0  0  0  0  0
    1.0590    3.5670   -1.5390 N   0  0  0  0  0  0  0  0  0  0  0  0
   -1.2550    3.4190   -1.6000 N   0  0  0  0  0  0  0  0  0  0  0  0
   -1.5060    3.6480   -0.2120 C   0  0  0  0  0  0  0  0  0  0  0  0
   -1.5020    2.3830    0.5970 C   0  0  0  0  0  0  0  0  0  0  0  0
   -0.2460    1.6290    0.5840 C   0  0  0  0  0  0  0  0  0  0  0  0
   -0.2420    0.3580    1.4370 C   0  0  2  0  0  0  0  0  0  0  0  0
    1.0860   -0.2670    1.3140 N   0  0  0  0  0  0  0  0  0  0  0  0
   -1.3080   -0.5690    1.0680 C   0  0  0  0  0  0  0  0  0  0  0  0
   -2.4980   -0.2320    1.2610 O   0  0  0  0  0  0  0  0  0  0  0  0
    0.5720    1.1290   -2.8500 H   0  0  0  0  0  0  0  0  0  0  0  0
   -0.1200    2.3080   -4.0520 H   0  0  0  0  0  0  0  0  0  0  0  0
    1.0440    4.2680   -0.7970 H   0  0  0  0  0  0  0  0  0  0  0  0
   -2.0300    3.5390   -2.3260 H   0  0  0  0  0  0  0  0  0  0  0  0
   -0.7800    4.4000    0.1870 H   0  0  0  0  0  0  0  0  0  0  0  0
   -2.5520    4.0620   -0.1260 H   0  0  0  0  0  0  0  0  0  0  0  0
   -1.7360    2.6640    1.6700 H   0  0  0  0  0  0  0  0  0  0  0  0
   -2.4000    1.8150    0.2650 H   0  0  0  0  0  0  0  0  0  0  0  0
    0.5930    2.2850    0.8840 H   0  0  0  0  0  0  0  0  0  0  0  0
    0.0000    1.2520   -0.4410 H   0  0  0  0  0  0  0  0  0  0  0  0
   -0.3090    0.7390    2.4750 H   0  0  0  0  0  0  0  0  0  0  0  0
    1.3680   -0.8020    0.4670 H   0  0  0  0  0  0  0  0  0  0  0  0
   -3.4690   -0.4780   -1.8220 C   0  0  0  0  0  0  0  0  0  0  0  0
   -3.2230   -1.9130   -2.8470 S   0  0  0  0  0  0  0  0  0  0  0  0
   -1.7770   -2.8310   -2.3960 C   0  0  0  0  0  0  0  0  0  0  0  0
   -1.8800   -3.5560   -1.0910 C   0  0  0  0  0  0  0  0  0  0  0  0
   -2.0670   -2.7870    0.1190 C   0  0  2  0  0  0  0  0  0  0  0  0
   -1.0860   -1.8250    0.5040 N   0  0  0  0  0  0  0  0  0  0  0  0
   -2.1290   -3.7950    1.2630 C   0  0  0  0  0  0  0  0  0  0  0  0
   -1.3770   -3.6140    2.2360 O   0  0  0  0  0  0  0  0  0  0  0  0
   -2.9920   -4.8720    1.2170 O   0  0  0  0  0  0  0  0  0  0  0  0
   -4.1960   -0.6650   -1.0270 H   0  0  0  0  0  0  0  0  0  0  0  0
   -3.9440    0.3270   -2.4600 H   0  0  0  0  0  0  0  0  0  0  0  0
   -2.5020   -0.0500   -1.4640 H   0  0  0  0  0  0  0  0  0  0  0  0
   -1.6020   -3.5940   -3.2270 H   0  0  0  0  0  0  0  0  0  0  0  0
   -0.8520   -2.2030   -2.4590 H   0  0  0  0  0  0  0  0  0  0  0  0
   -1.1280   -4.3920   -1.0210 H   0  0  0  0  0  0  0  0  0  0  0  0
   -2.8380   -4.1720   -1.2190 H   0  0  0  0  0  0  0  0  0  0  0  0
   -3.0610   -2.3100    0.1600 H   0  0  0  0  0  0  0  0  0  0  0  0
   -0.1080   -2.1390    0.3150 H   0  0  0  0  0  0  0  0  0  0  0  0
  1 10  1  0  0  0  0
  1  2  1  0  0  0  0
  2  3  2  0  0  0  0
  4 13  1  0  0  0  0
  4  2  1  0  0  0  0
  4  5  1  0  0  0  0
  5 14  1  0  0  0  0
  5 15  1  0  0  0  0
  6 16  1  6  0  0  0
  6  5  1  0  0  0  0
  6  7  1  0  0  0  0
  7 18  1  0  0  0  0
  8  6  1  0  0  0  0
  8  9  2  0  0  0  0
 11  1  1  0  0  0  0
 12  4  1  0  0  0  0
 17  7  1  0  0  0  0
 19 30  1  0  0  0  0
 19 20  1  0  0  0  0
 20 22  1  0  0  0  0
 20 21  2  0  0  0  0
 21 32  1  0  0  0  0
 22 23  1  0  0  0  0
 23 35  1  0  0  0  0
 23 34  1  0  0  0  0
 23 24  1  0  0  0  0
 24 36  1  0  0  0  0
 25 24  1  0  0  0  0
 25 38  1  0  0  0  0
 25 26  1  0  0  0  0
 26 40  1  1  0  0  0
 27 26  1  0  0  0  0
 27  8  1  0  0  0  0
 28 29  2  0  0  0  0
 28 26  1  0  0  0  0
 31 19  1  0  0  0  0
 33 22  1  0  0  0  0
 37 24  1  0  0  0  0
 39 25  1  0  0  0  0
 41 27  1  0  0  0  0
 42 53  1  0  0  0  0
 42 51  1  0  0  0  0
 43 44  1  0  0  0  0
 43 42  1  0  0  0  0
 44 45  1  0  0  0  0
 45 56  1  0  0  0  0
 45 46  1  0  0  0  0
 46 58  1  6  0  0  0
 46 47  1  0  0  0  0
 46 48  1  0  0  0  0
 47 28  1  0  0  0  0
 48 49  1  0  0  0  0
 50 48  2  0  0  0  0
 52 42  1  0  0  0  0
 54 44  1  0  0  0  0
 55 44  1  0  0  0  0
 57 45  1  0  0  0  0
 59 47  1  0  0  0  0
M  END
$$$$
