QRS.pdb
 OpenBabel07022418303D

 53 52  0  0  1  0  0  0  0  0999 V2000
    6.5270   -2.7600    2.1240 N   0  0  0  0  0  0  0  0  0  0  0  0
    5.2720   -2.0990    2.1510 C   0  0  0  0  0  0  0  0  0  0  0  0
    4.6000   -2.2150    3.2010 O   0  0  0  0  0  0  0  0  0  0  0  0
    4.8090   -1.3230    0.9870 C   0  0  0  0  0  0  0  0  0  0  0  0
    3.4770   -0.6620    1.1720 C   0  0  0  0  0  0  0  0  0  0  0  0
    2.3460   -1.6140    1.4310 C   0  0  2  0  0  0  0  0  0  0  0  0
    2.1660   -2.5540    0.3440 N   0  0  0  0  0  0  0  0  0  0  0  0
    1.1070   -0.7980    1.5900 C   0  0  0  0  0  0  0  0  0  0  0  0
    1.0520    0.0360    2.5070 O   0  0  0  0  0  0  0  0  0  0  0  0
    6.9510   -2.9710    1.2090 H   0  0  0  0  0  0  0  0  0  0  0  0
    7.0440   -3.0430    2.9840 H   0  0  0  0  0  0  0  0  0  0  0  0
    5.5720   -0.5210    0.7730 H   0  0  0  0  0  0  0  0  0  0  0  0
    4.7930   -1.9650    0.0580 H   0  0  0  0  0  0  0  0  0  0  0  0
    3.2510   -0.0000    0.3050 H   0  0  0  0  0  0  0  0  0  0  0  0
    3.5940    0.0360    2.0500 H   0  0  0  0  0  0  0  0  0  0  0  0
    2.4560   -2.1890    2.3610 H   0  0  0  0  0  0  0  0  0  0  0  0
    2.1460   -2.1340   -0.5900 H   0  0  0  0  0  0  0  0  0  0  0  0
    2.7290   -3.4040    0.4620 H   0  0  0  0  0  0  0  0  0  0  0  0
    0.0410    4.8840   -0.8620 N   0  0  0  0  0  0  0  0  0  0  0  0
   -1.2500    4.3320   -1.0300 C   0  0  0  0  0  0  0  0  0  0  0  0
   -2.2660    4.8300   -0.4220 N   0  0  0  0  0  0  0  0  0  0  0  0
   -1.4820    3.2050   -1.8760 N   0  0  0  0  0  0  0  0  0  0  0  0
   -2.6040    2.3380   -1.7100 C   0  0  0  0  0  0  0  0  0  0  0  0
   -2.5370    1.5070   -0.4330 C   0  0  0  0  0  0  0  0  0  0  0  0
   -1.3320    0.6340   -0.3970 C   0  0  0  0  0  0  0  0  0  0  0  0
   -1.2060   -0.1910    0.8380 C   0  0  2  0  0  0  0  0  0  0  0  0
    0.0260   -0.9780    0.7090 N   0  0  0  0  0  0  0  0  0  0  0  0
   -2.3360   -1.1350    0.9590 C   0  0  0  0  0  0  0  0  0  0  0  0
   -3.5470   -0.7620    1.1160 O   0  0  0  0  0  0  0  0  0  0  0  0
    0.5220    4.9780    0.0480 H   0  0  0  0  0  0  0  0  0  0  0  0
    0.5620    5.2250   -1.7070 H   0  0  0  0  0  0  0  0  0  0  0  0
   -2.1130    5.6520    0.1980 H   0  0  0  0  0  0  0  0  0  0  0  0
   -0.7800    3.0270   -2.6480 H   0  0  0  0  0  0  0  0  0  0  0  0
   -2.6880    1.6710   -2.5730 H   0  0  0  0  0  0  0  0  0  0  0  0
   -3.5100    2.9930   -1.5940 H   0  0  0  0  0  0  0  0  0  0  0  0
   -2.6620    2.1410    0.4430 H   0  0  0  0  0  0  0  0  0  0  0  0
   -3.4480    0.8430   -0.5010 H   0  0  0  0  0  0  0  0  0  0  0  0
   -1.3110   -0.0050   -1.3190 H   0  0  0  0  0  0  0  0  0  0  0  0
   -0.4390    1.3090   -0.5140 H   0  0  0  0  0  0  0  0  0  0  0  0
   -1.0800    0.4730    1.7140 H   0  0  0  0  0  0  0  0  0  0  0  0
    0.1190   -1.6900   -0.0480 H   0  0  0  0  0  0  0  0  0  0  0  0
   -3.5370   -3.7220   -1.3460 O   0  0  0  0  0  0  0  0  0  0  0  0
   -3.4280   -4.3870   -0.1480 C   0  0  0  0  0  0  0  0  0  0  0  0
   -3.3420   -3.4400    1.0370 C   0  0  2  0  0  0  0  0  0  0  0  0
   -2.1720   -2.5650    0.9120 N   0  0  0  0  0  0  0  0  0  0  0  0
   -3.1600   -4.2780    2.2480 C   0  0  0  0  0  0  0  0  0  0  0  0
   -4.0640   -5.1010    2.5350 O   0  0  0  0  0  0  0  0  0  0  0  0
   -2.0560   -4.2100    3.0820 O   0  0  0  0  0  0  0  0  0  0  0  0
   -2.7830   -4.0160   -1.9270 H   0  0  0  0  0  0  0  0  0  0  0  0
   -2.5780   -5.0830   -0.1020 H   0  0  0  0  0  0  0  0  0  0  0  0
   -4.3480   -4.9820    0.0120 H   0  0  0  0  0  0  0  0  0  0  0  0
   -4.2630   -2.8710    1.1610 H   0  0  0  0  0  0  0  0  0  0  0  0
   -1.2160   -2.9590    0.7910 H   0  0  0  0  0  0  0  0  0  0  0  0
  1  2  1  0  0  0  0
  1 11  1  0  0  0  0
  2  3  2  0  0  0  0
  4  5  1  0  0  0  0
  4  2  1  0  0  0  0
  5  6  1  0  0  0  0
  5 15  1  0  0  0  0
  6  8  1  0  0  0  0
  6 16  1  1  0  0  0
  7 18  1  0  0  0  0
  7  6  1  0  0  0  0
  8  9  2  0  0  0  0
 10  1  1  0  0  0  0
 12  4  1  0  0  0  0
 13  4  1  0  0  0  0
 14  5  1  0  0  0  0
 17  7  1  0  0  0  0
 19 30  1  0  0  0  0
 20 19  1  0  0  0  0
 20 21  2  0  0  0  0
 21 32  1  0  0  0  0
 22 23  1  0  0  0  0
 22 20  1  0  0  0  0
 23 35  1  0  0  0  0
 23 24  1  0  0  0  0
 24 25  1  0  0  0  0
 24 36  1  0  0  0  0
 25 26  1  0  0  0  0
 26 28  1  0  0  0  0
 26 40  1  1  0  0  0
 27 26  1  0  0  0  0
 27  8  1  0  0  0  0
 28 29  2  0  0  0  0
 31 19  1  0  0  0  0
 33 22  1  0  0  0  0
 34 23  1  0  0  0  0
 37 24  1  0  0  0  0
 38 25  1  0  0  0  0
 39 25  1  0  0  0  0
 41 27  1  0  0  0  0
 42 43  1  0  0  0  0
 43 50  1  0  0  0  0
 43 51  1  0  0  0  0
 43 44  1  0  0  0  0
 44 52  1  1  0  0  0
 44 46  1  0  0  0  0
 45 28  1  0  0  0  0
 45 44  1  0  0  0  0
 46 47  2  0  0  0  0
 46 48  1  0  0  0  0
 49 42  1  0  0  0  0
 53 45  1  0  0  0  0
M  END
$$$$
