QRW.pdb
 OpenBabel07022418303D

 66 67  0  0  1  0  0  0  0  0999 V2000
    5.6400    0.6880    4.2720 N   0  0  0  0  0  0  0  0  0  0  0  0
    5.0940   -0.1400    3.2660 C   0  0  0  0  0  0  0  0  0  0  0  0
    4.8060   -1.3270    3.5060 O   0  0  0  0  0  0  0  0  0  0  0  0
    4.8670    0.4130    1.9200 C   0  0  0  0  0  0  0  0  0  0  0  0
    4.2170   -0.5150    0.9530 C   0  0  0  0  0  0  0  0  0  0  0  0
    2.8570   -0.9930    1.3290 C   0  0  2  0  0  0  0  0  0  0  0  0
    2.3930   -1.8820    0.2720 N   0  0  0  0  0  0  0  0  0  0  0  0
    1.8870    0.1090    1.5070 C   0  0  0  0  0  0  0  0  0  0  0  0
    2.1170    0.9910    2.3490 O   0  0  0  0  0  0  0  0  0  0  0  0
    6.4610    0.3830    4.8730 H   0  0  0  0  0  0  0  0  0  0  0  0
    5.2840    1.6490    4.4980 H   0  0  0  0  0  0  0  0  0  0  0  0
    4.3820    1.4140    1.9510 H   0  0  0  0  0  0  0  0  0  0  0  0
    5.8960    0.6260    1.5020 H   0  0  0  0  0  0  0  0  0  0  0  0
    4.1910    0.0260   -0.0340 H   0  0  0  0  0  0  0  0  0  0  0  0
    4.8880   -1.3910    0.8180 H   0  0  0  0  0  0  0  0  0  0  0  0
    2.8900   -1.5690    2.2650 H   0  0  0  0  0  0  0  0  0  0  0  0
    3.1840   -2.5580    0.0450 H   0  0  0  0  0  0  0  0  0  0  0  0
    2.2780   -1.3340   -0.6210 H   0  0  0  0  0  0  0  0  0  0  0  0
   -3.2950    1.0950   -3.6600 N   0  0  0  0  0  0  0  0  0  0  0  0
   -3.0210    2.2540   -2.9100 C   0  0  0  0  0  0  0  0  0  0  0  0
   -3.9210    2.9010   -2.2730 N   0  0  0  0  0  0  0  0  0  0  0  0
   -1.6790    2.7680   -2.8330 N   0  0  0  0  0  0  0  0  0  0  0  0
   -1.3550    3.7270   -1.8150 C   0  0  0  0  0  0  0  0  0  0  0  0
   -1.4050    3.0730   -0.4300 C   0  0  0  0  0  0  0  0  0  0  0  0
   -0.3980    1.9720   -0.4490 C   0  0  0  0  0  0  0  0  0  0  0  0
   -0.2920    1.2100    0.8410 C   0  0  2  0  0  0  0  0  0  0  0  0
    0.7140    0.1600    0.7310 N   0  0  0  0  0  0  0  0  0  0  0  0
   -1.5720    0.6340    1.3030 C   0  0  0  0  0  0  0  0  0  0  0  0
   -2.6310    1.2490    1.4980 O   0  0  0  0  0  0  0  0  0  0  0  0
   -4.1870    0.5900   -3.5280 H   0  0  0  0  0  0  0  0  0  0  0  0
   -2.6160    0.7220   -4.3570 H   0  0  0  0  0  0  0  0  0  0  0  0
   -4.9250    2.6750   -2.2220 H   0  0  0  0  0  0  0  0  0  0  0  0
   -0.9790    2.4190   -3.5310 H   0  0  0  0  0  0  0  0  0  0  0  0
   -0.3190    4.1030   -2.0050 H   0  0  0  0  0  0  0  0  0  0  0  0
   -2.0660    4.5800   -1.8760 H   0  0  0  0  0  0  0  0  0  0  0  0
   -1.1820    3.8250    0.3410 H   0  0  0  0  0  0  0  0  0  0  0  0
   -2.4440    2.6910   -0.3050 H   0  0  0  0  0  0  0  0  0  0  0  0
   -0.6430    1.3050   -1.3010 H   0  0  0  0  0  0  0  0  0  0  0  0
    0.6010    2.4050   -0.6560 H   0  0  0  0  0  0  0  0  0  0  0  0
    0.0900    1.9280    1.6260 H   0  0  0  0  0  0  0  0  0  0  0  0
    0.4960   -0.5790    0.0110 H   0  0  0  0  0  0  0  0  0  0  0  0
   -1.6060   -0.7830    1.5540 N   0  0  0  0  0  0  0  0  0  0  0  0
   -2.7900   -1.4200    2.0000 C   0  0  1  0  0  0  0  0  0  0  0  0
   -3.3670   -2.5020    1.1690 C   0  0  0  0  0  0  0  0  0  0  0  0
   -2.4730   -3.6580    0.9440 C   0  0  0  0  0  0  0  0  0  0  0  0
   -2.4900   -4.8690    1.6300 C   0  0  0  0  0  0  0  0  0  0  0  0
   -1.5190   -5.6540    1.1510 N   0  0  0  0  0  0  0  0  0  0  0  0
   -0.8570   -5.0060    0.1680 C   0  0  0  0  0  0  0  0  0  0  0  0
    0.2190   -5.3860   -0.6460 C   0  0  0  0  0  0  0  0  0  0  0  0
    0.7080   -4.5190   -1.6000 C   0  0  0  0  0  0  0  0  0  0  0  0
    0.1270   -3.2840   -1.7380 C   0  0  0  0  0  0  0  0  0  0  0  0
   -0.9260   -2.9170   -0.9380 C   0  0  0  0  0  0  0  0  0  0  0  0
   -1.4430   -3.7700    0.0340 C   0  0  0  0  0  0  0  0  0  0  0  0
   -2.4940   -2.0170    3.3540 C   0  0  0  0  0  0  0  0  0  0  0  0
   -3.3830   -2.6520    3.9870 O   0  0  0  0  0  0  0  0  0  0  0  0
   -1.2520   -1.8980    3.9550 O   0  0  0  0  0  0  0  0  0  0  0  0
   -0.7480   -1.3650    1.4230 H   0  0  0  0  0  0  0  0  0  0  0  0
   -3.6180   -0.6730    2.2120 H   0  0  0  0  0  0  0  0  0  0  0  0
   -3.8390   -2.1480    0.2250 H   0  0  0  0  0  0  0  0  0  0  0  0
   -4.2510   -2.8960    1.7570 H   0  0  0  0  0  0  0  0  0  0  0  0
   -3.1960   -5.1210    2.4340 H   0  0  0  0  0  0  0  0  0  0  0  0
   -1.2820   -6.6240    1.4660 H   0  0  0  0  0  0  0  0  0  0  0  0
    0.6430   -6.3640   -0.5030 H   0  0  0  0  0  0  0  0  0  0  0  0
    1.5490   -4.7900   -2.2510 H   0  0  0  0  0  0  0  0  0  0  0  0
    0.5310   -2.6200   -2.4980 H   0  0  0  0  0  0  0  0  0  0  0  0
   -1.3990   -1.9410   -1.0350 H   0  0  0  0  0  0  0  0  0  0  0  0
  1 11  1  0  0  0  0
  1 10  1  0  0  0  0
  2  3  2  0  0  0  0
  2  1  1  0  0  0  0
  4 12  1  0  0  0  0
  4  2  1  0  0  0  0
  5  6  1  0  0  0  0
  5  4  1  0  0  0  0
  6  8  1  0  0  0  0
  6 16  1  1  0  0  0
  7  6  1  0  0  0  0
  8  9  2  0  0  0  0
 13  4  1  0  0  0  0
 14  5  1  0  0  0  0
 15  5  1  0  0  0  0
 17  7  1  0  0  0  0
 18  7  1  0  0  0  0
 19 30  1  0  0  0  0
 19 20  1  0  0  0  0
 20 22  1  0  0  0  0
 20 21  2  0  0  0  0
 21 32  1  0  0  0  0
 22 23  1  0  0  0  0
 23 24  1  0  0  0  0
 24 37  1  0  0  0  0
 24 36  1  0  0  0  0
 25 24  1  0  0  0  0
 25 26  1  0  0  0  0
 26 28  1  0  0  0  0
 26 40  1  1  0  0  0
 27 26  1  0  0  0  0
 27  8  1  0  0  0  0
 28 29  2  0  0  0  0
 28 42  1  0  0  0  0
 31 19  1  0  0  0  0
 33 22  1  0  0  0  0
 34 23  1  0  0  0  0
 35 23  1  0  0  0  0
 38 25  1  0  0  0  0
 39 25  1  0  0  0  0
 41 27  1  0  0  0  0
 42 43  1  0  0  0  0
 43 58  1  1  0  0  0
 43 54  1  0  0  0  0
 44 60  1  0  0  0  0
 44 43  1  0  0  0  0
 45 44  1  0  0  0  0
 45 46  2  0  0  0  0
 46 61  1  0  0  0  0
 47 62  1  0  0  0  0
 47 46  1  0  0  0  0
 48 47  1  0  0  0  0
 49 63  1  0  0  0  0
 49 48  2  0  0  0  0
 50 49  1  0  0  0  0
 51 50  2  0  0  0  0
 51 52  1  0  0  0  0
 52 53  2  0  0  0  0
 53 48  1  0  0  0  0
 53 45  1  0  0  0  0
 54 56  2  0  0  0  0
 54 55  1  0  0  0  0
 57 42  1  0  0  0  0
 59 44  1  0  0  0  0
 64 50  1  0  0  0  0
 65 51  1  0  0  0  0
 66 52  1  0  0  0  0
M  END
$$$$
