QSH.pdb
 OpenBabel07022418333D

 47 47  0  0  1  0  0  0  0  0999 V2000
    1.2990   -6.7000   -0.3830 N   0  0  0  0  0  0  0  0  0  0  0  0
    0.1170   -6.0570    0.0610 C   0  0  0  0  0  0  0  0  0  0  0  0
   -0.8330   -6.7750    0.4560 O   0  0  0  0  0  0  0  0  0  0  0  0
   -0.0620   -4.5860    0.0840 C   0  0  0  0  0  0  0  0  0  0  0  0
   -1.4250   -4.2190    0.6070 C   0  0  0  0  0  0  0  0  0  0  0  0
   -1.5350   -2.6910    0.6000 C   0  0  2  0  0  0  0  0  0  0  0  0
   -1.3790   -2.1480   -0.7030 N   0  0  0  0  0  0  0  0  0  0  0  0
   -0.6030   -2.1700    1.6080 C   0  0  0  0  0  0  0  0  0  0  0  0
   -0.7080   -2.6290    2.7830 O   0  0  0  0  0  0  0  0  0  0  0  0
    1.7090   -6.5200   -1.3270 H   0  0  0  0  0  0  0  0  0  0  0  0
    1.8300   -7.3950    0.2130 H   0  0  0  0  0  0  0  0  0  0  0  0
    0.0380   -4.1620   -0.9510 H   0  0  0  0  0  0  0  0  0  0  0  0
    0.7420   -4.1670    0.7150 H   0  0  0  0  0  0  0  0  0  0  0  0
   -1.4790   -4.5950    1.6490 H   0  0  0  0  0  0  0  0  0  0  0  0
   -2.2420   -4.6780    0.0530 H   0  0  0  0  0  0  0  0  0  0  0  0
   -2.5830   -2.4770    0.9370 H   0  0  0  0  0  0  0  0  0  0  0  0
   -1.4370   -2.8530   -1.4740 H   0  0  0  0  0  0  0  0  0  0  0  0
   -1.9560   -1.3030   -0.8960 H   0  0  0  0  0  0  0  0  0  0  0  0
    2.9910   -0.6440    0.7800 O   0  0  0  0  0  0  0  0  0  0  0  0
    2.6940   -1.1820    2.0460 C   0  0  0  0  0  0  0  0  0  0  0  0
    1.2980   -0.7110    2.3970 C   0  0  2  0  0  0  0  0  0  0  0  0
    0.3960   -1.2040    1.3830 N   0  0  0  0  0  0  0  0  0  0  0  0
    1.2480    0.7490    2.5520 C   0  0  0  0  0  0  0  0  0  0  0  0
    1.9990    1.2760    3.4120 O   0  0  0  0  0  0  0  0  0  0  0  0
    3.9100   -0.3090    0.7370 H   0  0  0  0  0  0  0  0  0  0  0  0
    3.4270   -0.7870    2.8030 H   0  0  0  0  0  0  0  0  0  0  0  0
    2.6890   -2.2810    2.0370 H   0  0  0  0  0  0  0  0  0  0  0  0
    1.0260   -1.2510    3.3470 H   0  0  0  0  0  0  0  0  0  0  0  0
    0.4990   -0.8130    0.4200 H   0  0  0  0  0  0  0  0  0  0  0  0
    0.4130    1.6190    1.8010 N   0  0  0  0  0  0  0  0  0  0  0  0
    0.3920    3.0560    1.9830 C   0  0  1  0  0  0  0  0  0  0  0  0
    0.7190    3.7950    0.7070 C   0  0  0  0  0  0  0  0  0  0  0  0
   -0.2520    3.4810   -0.3710 C   0  0  0  0  0  0  0  0  0  0  0  0
   -0.1330    2.4590   -1.2810 C   0  0  0  0  0  0  0  0  0  0  0  0
   -1.2030    2.4770   -2.1120 N   0  0  0  0  0  0  0  0  0  0  0  0
   -1.9830    3.4940   -1.7290 C   0  0  0  0  0  0  0  0  0  0  0  0
   -1.4150    4.1110   -0.6730 N   0  0  0  0  0  0  0  0  0  0  0  0
   -0.9840    3.4450    2.3710 C   0  0  0  0  0  0  0  0  0  0  0  0
   -1.2910    4.6390    2.5930 O   0  0  0  0  0  0  0  0  0  0  0  0
   -1.9770    2.4880    2.4990 O   0  0  0  0  0  0  0  0  0  0  0  0
   -0.2120    1.1980    1.0880 H   0  0  0  0  0  0  0  0  0  0  0  0
    1.1130    3.3490    2.7820 H   0  0  0  0  0  0  0  0  0  0  0  0
    0.6180    4.8830    0.9430 H   0  0  0  0  0  0  0  0  0  0  0  0
    1.7550    3.6360    0.3690 H   0  0  0  0  0  0  0  0  0  0  0  0
    0.6650    1.7220   -1.3750 H   0  0  0  0  0  0  0  0  0  0  0  0
   -1.4130    1.8370   -2.9080 H   0  0  0  0  0  0  0  0  0  0  0  0
   -2.9250    3.7740   -2.2000 H   0  0  0  0  0  0  0  0  0  0  0  0
  1  2  1  0  0  0  0
  1 11  1  0  0  0  0
  2  4  1  0  0  0  0
  2  3  2  0  0  0  0
  4  5  1  0  0  0  0
  4 13  1  0  0  0  0
  5 14  1  0  0  0  0
  6  5  1  0  0  0  0
  6 16  1  1  0  0  0
  6  8  1  0  0  0  0
  7  6  1  0  0  0  0
  8  9  2  0  0  0  0
 10  1  1  0  0  0  0
 12  4  1  0  0  0  0
 15  5  1  0  0  0  0
 17  7  1  0  0  0  0
 18  7  1  0  0  0  0
 19 20  1  0  0  0  0
 20 21  1  0  0  0  0
 20 26  1  0  0  0  0
 21 23  1  0  0  0  0
 21 28  1  1  0  0  0
 22  8  1  0  0  0  0
 22 21  1  0  0  0  0
 23 24  2  0  0  0  0
 25 19  1  0  0  0  0
 27 20  1  0  0  0  0
 29 22  1  0  0  0  0
 30 31  1  0  0  0  0
 30 23  1  0  0  0  0
 31 38  1  0  0  0  0
 31 42  1  1  0  0  0
 32 43  1  0  0  0  0
 32 31  1  0  0  0  0
 33 32  1  0  0  0  0
 34 33  2  0  0  0  0
 35 36  1  0  0  0  0
 35 34  1  0  0  0  0
 36 37  2  0  0  0  0
 37 33  1  0  0  0  0
 38 40  2  0  0  0  0
 38 39  1  0  0  0  0
 41 30  1  0  0  0  0
 44 32  1  0  0  0  0
 45 34  1  0  0  0  0
 46 35  1  0  0  0  0
 47 36  1  0  0  0  0
M  END
$$$$
