QSI.pdb
 OpenBabel07022418333D

 49 48  0  0  1  0  0  0  0  0999 V2000
    3.2040   -5.5270    0.8910 N   0  0  0  0  0  0  0  0  0  0  0  0
    2.9250   -4.6360    1.9840 C   0  0  0  0  0  0  0  0  0  0  0  0
    2.0420   -4.9960    2.7850 O   0  0  0  0  0  0  0  0  0  0  0  0
    3.6310   -3.3730    2.1660 C   0  0  0  0  0  0  0  0  0  0  0  0
    2.9970   -2.3890    3.0920 C   0  0  0  0  0  0  0  0  0  0  0  0
    1.6540   -1.8700    2.6980 C   0  0  2  0  0  0  0  0  0  0  0  0
    0.6130   -2.8290    2.5730 N   0  0  0  0  0  0  0  0  0  0  0  0
    1.7450   -1.0140    1.4800 C   0  0  0  0  0  0  0  0  0  0  0  0
    2.5260   -0.0150    1.4960 O   0  0  0  0  0  0  0  0  0  0  0  0
    2.3840   -5.7350    0.2740 H   0  0  0  0  0  0  0  0  0  0  0  0
    4.1260   -5.9400    0.7080 H   0  0  0  0  0  0  0  0  0  0  0  0
    3.9370   -2.9040    1.1960 H   0  0  0  0  0  0  0  0  0  0  0  0
    4.6340   -3.6470    2.6280 H   0  0  0  0  0  0  0  0  0  0  0  0
    2.9210   -2.9170    4.0920 H   0  0  0  0  0  0  0  0  0  0  0  0
    3.7010   -1.5380    3.3250 H   0  0  0  0  0  0  0  0  0  0  0  0
    1.3380   -1.1830    3.5470 H   0  0  0  0  0  0  0  0  0  0  0  0
   -0.2130   -2.4900    2.0250 H   0  0  0  0  0  0  0  0  0  0  0  0
    0.2590   -3.1320    3.5270 H   0  0  0  0  0  0  0  0  0  0  0  0
    1.7430    0.0720   -3.0670 O   0  0  0  0  0  0  0  0  0  0  0  0
    1.6880   -0.9550   -2.0930 C   0  0  0  0  0  0  0  0  0  0  0  0
    1.1730   -0.3370   -0.8510 C   0  0  2  0  0  0  0  0  0  0  0  0
    1.0340   -1.2070    0.2790 N   0  0  0  0  0  0  0  0  0  0  0  0
   -0.0850    0.4590   -1.1100 C   0  0  0  0  0  0  0  0  0  0  0  0
   -0.0840    1.2600   -2.0800 O   0  0  0  0  0  0  0  0  0  0  0  0
    2.2030   -0.2410   -3.8770 H   0  0  0  0  0  0  0  0  0  0  0  0
    2.7320   -1.3220   -2.0210 H   0  0  0  0  0  0  0  0  0  0  0  0
    1.0900   -1.7570   -2.5260 H   0  0  0  0  0  0  0  0  0  0  0  0
    1.9090    0.4480   -0.5690 H   0  0  0  0  0  0  0  0  0  0  0  0
    0.3900   -2.0240    0.2270 H   0  0  0  0  0  0  0  0  0  0  0  0
   -1.0970    1.5790    2.2440 C   0  0  0  0  0  0  0  0  0  0  0  0
   -2.4770    2.0290    1.8550 C   0  0  0  0  0  0  0  0  0  0  0  0
   -2.6400    2.2110    0.3620 C   0  0  2  0  0  0  0  0  0  0  0  0
   -4.0920    2.6740    0.1780 C   0  0  0  0  0  0  0  0  0  0  0  0
   -2.4580    0.9520   -0.3990 C   0  0  2  0  0  0  0  0  0  0  0  0
   -1.2050    0.2970   -0.2860 N   0  0  0  0  0  0  0  0  0  0  0  0
   -2.9680    1.0070   -1.8100 C   0  0  0  0  0  0  0  0  0  0  0  0
   -3.9800    1.6260   -2.1770 O   0  0  0  0  0  0  0  0  0  0  0  0
   -2.2690    0.3190   -2.7810 O   0  0  0  0  0  0  0  0  0  0  0  0
   -0.3370    1.7200    1.4620 H   0  0  0  0  0  0  0  0  0  0  0  0
   -1.1120    0.5560    2.6830 H   0  0  0  0  0  0  0  0  0  0  0  0
   -0.7640    2.2360    3.1050 H   0  0  0  0  0  0  0  0  0  0  0  0
   -2.7040    2.9740    2.3850 H   0  0  0  0  0  0  0  0  0  0  0  0
   -3.1970    1.2850    2.2590 H   0  0  0  0  0  0  0  0  0  0  0  0
   -2.0130    3.0440    0.0580 H   0  0  0  0  0  0  0  0  0  0  0  0
   -4.2240    3.3460   -0.6720 H   0  0  0  0  0  0  0  0  0  0  0  0
   -4.7000    1.7650    0.0100 H   0  0  0  0  0  0  0  0  0  0  0  0
   -4.4390    3.2040    1.1150 H   0  0  0  0  0  0  0  0  0  0  0  0
   -3.2150    0.1990    0.0500 H   0  0  0  0  0  0  0  0  0  0  0  0
   -1.0740   -0.4030    0.5080 H   0  0  0  0  0  0  0  0  0  0  0  0
  1  2  1  0  0  0  0
  2  4  1  0  0  0  0
  2  3  2  0  0  0  0
  4 13  1  0  0  0  0
  4  5  1  0  0  0  0
  5 15  1  0  0  0  0
  5 14  1  0  0  0  0
  6  5  1  0  0  0  0
  6 16  1  1  0  0  0
  7  6  1  0  0  0  0
  7 18  1  0  0  0  0
  8  9  2  0  0  0  0
  8  6  1  0  0  0  0
 10  1  1  0  0  0  0
 11  1  1  0  0  0  0
 12  4  1  0  0  0  0
 17  7  1  0  0  0  0
 19 20  1  0  0  0  0
 20 26  1  0  0  0  0
 20 21  1  0  0  0  0
 21 28  1  1  0  0  0
 21 22  1  0  0  0  0
 22  8  1  0  0  0  0
 23 21  1  0  0  0  0
 23 35  1  0  0  0  0
 24 23  2  0  0  0  0
 25 19  1  0  0  0  0
 27 20  1  0  0  0  0
 29 22  1  0  0  0  0
 30 40  1  0  0  0  0
 30 41  1  0  0  0  0
 31 30  1  0  0  0  0
 31 43  1  0  0  0  0
 31 42  1  0  0  0  0
 32 44  1  6  0  0  0
 32 31  1  0  0  0  0
 33 32  1  0  0  0  0
 33 47  1  0  0  0  0
 34 35  1  0  0  0  0
 34 48  1  1  0  0  0
 34 32  1  0  0  0  0
 35 49  1  0  0  0  0
 36 34  1  0  0  0  0
 37 36  1  0  0  0  0
 38 36  2  0  0  0  0
 39 30  1  0  0  0  0
 45 33  1  0  0  0  0
 46 33  1  0  0  0  0
M  END
$$$$
