QSS.pdb
 OpenBabel07022418333D

 41 40  0  0  1  0  0  0  0  0999 V2000
   -2.4020   -4.2230   -2.1910 N   0  0  0  0  0  0  0  0  0  0  0  0
   -1.5330   -3.4980   -1.3360 C   0  0  0  0  0  0  0  0  0  0  0  0
   -1.8840   -3.2920   -0.1470 O   0  0  0  0  0  0  0  0  0  0  0  0
   -0.2380   -3.0120   -1.8910 C   0  0  0  0  0  0  0  0  0  0  0  0
    0.5020   -2.2710   -0.7860 C   0  0  0  0  0  0  0  0  0  0  0  0
    1.8260   -1.7620   -1.3120 C   0  0  2  0  0  0  0  0  0  0  0  0
    2.6730   -2.8280   -1.7770 N   0  0  0  0  0  0  0  0  0  0  0  0
    2.4890   -0.8700   -0.3310 C   0  0  0  0  0  0  0  0  0  0  0  0
    3.6740   -1.0500    0.0400 O   0  0  0  0  0  0  0  0  0  0  0  0
   -2.7980   -3.7840   -3.0370 H   0  0  0  0  0  0  0  0  0  0  0  0
   -2.6410   -5.2030   -1.9630 H   0  0  0  0  0  0  0  0  0  0  0  0
   -0.4620   -2.3410   -2.7340 H   0  0  0  0  0  0  0  0  0  0  0  0
    0.3580   -3.8900   -2.2240 H   0  0  0  0  0  0  0  0  0  0  0  0
    0.6040   -2.8950    0.1200 H   0  0  0  0  0  0  0  0  0  0  0  0
   -0.1240   -1.3980   -0.5150 H   0  0  0  0  0  0  0  0  0  0  0  0
    1.5810   -1.1260   -2.1980 H   0  0  0  0  0  0  0  0  0  0  0  0
    2.2690   -3.1870   -2.6670 H   0  0  0  0  0  0  0  0  0  0  0  0
    3.6120   -2.4350   -2.0090 H   0  0  0  0  0  0  0  0  0  0  0  0
    1.0620    2.9120    0.1980 O   0  0  0  0  0  0  0  0  0  0  0  0
    2.3580    2.5140    0.5140 C   0  0  0  0  0  0  0  0  0  0  0  0
    2.3510    1.1240    1.1610 C   0  0  2  0  0  0  0  0  0  0  0  0
    1.7690    0.2100    0.1980 N   0  0  0  0  0  0  0  0  0  0  0  0
    1.5110    1.2280    2.3690 C   0  0  0  0  0  0  0  0  0  0  0  0
    1.8780    1.9840    3.3050 O   0  0  0  0  0  0  0  0  0  0  0  0
    0.8720    2.8700   -0.7710 H   0  0  0  0  0  0  0  0  0  0  0  0
    3.0310    2.5430   -0.3640 H   0  0  0  0  0  0  0  0  0  0  0  0
    2.7500    3.2760    1.2320 H   0  0  0  0  0  0  0  0  0  0  0  0
    3.3920    0.8570    1.4020 H   0  0  0  0  0  0  0  0  0  0  0  0
    0.7830    0.3790   -0.0960 H   0  0  0  0  0  0  0  0  0  0  0  0
   -1.6230    2.5280    2.9340 O   0  0  0  0  0  0  0  0  0  0  0  0
   -1.8600    1.2610    3.4610 C   0  0  0  0  0  0  0  0  0  0  0  0
   -0.5150    0.6350    3.7420 C   0  0  2  0  0  0  0  0  0  0  0  0
    0.2890    0.5140    2.5480 N   0  0  0  0  0  0  0  0  0  0  0  0
   -0.6220   -0.6300    4.4870 C   0  0  0  0  0  0  0  0  0  0  0  0
   -1.2790   -0.6950    5.5400 O   0  0  0  0  0  0  0  0  0  0  0  0
    0.0170   -1.7460    4.0030 O   0  0  0  0  0  0  0  0  0  0  0  0
   -0.8630    2.9230    3.4290 H   0  0  0  0  0  0  0  0  0  0  0  0
   -2.4280    0.6070    2.7780 H   0  0  0  0  0  0  0  0  0  0  0  0
   -2.3580    1.4140    4.4410 H   0  0  0  0  0  0  0  0  0  0  0  0
    0.0210    1.3620    4.4210 H   0  0  0  0  0  0  0  0  0  0  0  0
    0.0050   -0.1070    1.7580 H   0  0  0  0  0  0  0  0  0  0  0  0
  1 11  1  0  0  0  0
  1  2  1  0  0  0  0
  2  3  2  0  0  0  0
  4  2  1  0  0  0  0
  4  5  1  0  0  0  0
  5 15  1  0  0  0  0
  5 14  1  0  0  0  0
  6 16  1  6  0  0  0
  6  5  1  0  0  0  0
  6  8  1  0  0  0  0
  7  6  1  0  0  0  0
  8  9  2  0  0  0  0
  8 22  1  0  0  0  0
 10  1  1  0  0  0  0
 12  4  1  0  0  0  0
 13  4  1  0  0  0  0
 17  7  1  0  0  0  0
 18  7  1  0  0  0  0
 19 20  1  0  0  0  0
 20 21  1  0  0  0  0
 20 27  1  0  0  0  0
 21 28  1  1  0  0  0
 21 23  1  0  0  0  0
 22 21  1  0  0  0  0
 23 33  1  0  0  0  0
 23 24  2  0  0  0  0
 25 19  1  0  0  0  0
 26 20  1  0  0  0  0
 29 22  1  0  0  0  0
 30 37  1  0  0  0  0
 30 31  1  0  0  0  0
 31 32  1  0  0  0  0
 31 39  1  0  0  0  0
 32 40  1  1  0  0  0
 32 34  1  0  0  0  0
 33 32  1  0  0  0  0
 34 35  1  0  0  0  0
 36 34  2  0  0  0  0
 38 31  1  0  0  0  0
 41 33  1  0  0  0  0
M  END
$$$$
