QST.pdb
 OpenBabel07022418333D

 44 43  0  0  1  0  0  0  0  0999 V2000
   -1.6500   -5.9300    1.9220 N   0  0  0  0  0  0  0  0  0  0  0  0
   -1.0620   -4.6830    1.6340 C   0  0  0  0  0  0  0  0  0  0  0  0
   -0.9320   -3.8400    2.5340 O   0  0  0  0  0  0  0  0  0  0  0  0
   -0.5960   -4.3670    0.2610 C   0  0  0  0  0  0  0  0  0  0  0  0
   -0.0070   -2.9750    0.2150 C   0  0  0  0  0  0  0  0  0  0  0  0
    0.4550   -2.7040   -1.2150 C   0  0  2  0  0  0  0  0  0  0  0  0
    1.4430   -3.6410   -1.6440 N   0  0  0  0  0  0  0  0  0  0  0  0
    0.9120   -1.3010   -1.2740 C   0  0  0  0  0  0  0  0  0  0  0  0
    2.0780   -1.0620   -1.6770 O   0  0  0  0  0  0  0  0  0  0  0  0
   -1.2950   -6.4590    2.7510 H   0  0  0  0  0  0  0  0  0  0  0  0
   -2.4130   -6.2890    1.3110 H   0  0  0  0  0  0  0  0  0  0  0  0
   -1.4920   -4.3870   -0.3960 H   0  0  0  0  0  0  0  0  0  0  0  0
    0.1970   -5.0630   -0.0800 H   0  0  0  0  0  0  0  0  0  0  0  0
    0.7860   -2.8160    0.9460 H   0  0  0  0  0  0  0  0  0  0  0  0
   -0.8290   -2.2620    0.4200 H   0  0  0  0  0  0  0  0  0  0  0  0
   -0.4570   -2.8580   -1.8480 H   0  0  0  0  0  0  0  0  0  0  0  0
    1.0650   -4.3340   -2.3220 H   0  0  0  0  0  0  0  0  0  0  0  0
    2.3290   -3.2420   -1.9650 H   0  0  0  0  0  0  0  0  0  0  0  0
   -0.2580    1.4680   -3.1960 O   0  0  0  0  0  0  0  0  0  0  0  0
   -0.2290    1.9740   -1.9130 C   0  0  0  0  0  0  0  0  0  0  0  0
    0.6130    1.1370   -0.9800 C   0  0  2  0  0  0  0  0  0  0  0  0
    0.1050   -0.1990   -0.8980 N   0  0  0  0  0  0  0  0  0  0  0  0
    0.6170    1.7850    0.3850 C   0  0  0  0  0  0  0  0  0  0  0  0
    1.0180    2.9660    0.5250 O   0  0  0  0  0  0  0  0  0  0  0  0
   -0.7570    0.6120   -3.2060 H   0  0  0  0  0  0  0  0  0  0  0  0
   -1.2780    1.9950   -1.4970 H   0  0  0  0  0  0  0  0  0  0  0  0
    0.1080    3.0180   -1.9680 H   0  0  0  0  0  0  0  0  0  0  0  0
    1.6560    1.1230   -1.3850 H   0  0  0  0  0  0  0  0  0  0  0  0
   -0.8560   -0.3930   -0.5680 H   0  0  0  0  0  0  0  0  0  0  0  0
    2.5830    1.9810    2.9860 C   0  0  0  0  0  0  0  0  0  0  0  0
    1.3690    1.3730    3.6090 C   0  0  1  0  0  0  0  0  0  0  0  0
    1.1790    1.9510    4.8630 O   0  0  0  0  0  0  0  0  0  0  0  0
    0.1180    1.5710    2.8150 C   0  0  2  0  0  0  0  0  0  0  0  0
    0.1580    1.0260    1.4910 N   0  0  0  0  0  0  0  0  0  0  0  0
   -0.4740    2.9140    2.9350 C   0  0  0  0  0  0  0  0  0  0  0  0
   -0.4560    3.4860    4.0430 O   0  0  0  0  0  0  0  0  0  0  0  0
   -1.0400    3.5380    1.8600 O   0  0  0  0  0  0  0  0  0  0  0  0
    2.4980    3.0730    2.9480 H   0  0  0  0  0  0  0  0  0  0  0  0
    2.8570    1.5240    2.0160 H   0  0  0  0  0  0  0  0  0  0  0  0
    3.4460    1.7620    3.6700 H   0  0  0  0  0  0  0  0  0  0  0  0
    1.5010    0.2740    3.7520 H   0  0  0  0  0  0  0  0  0  0  0  0
    0.3420    1.6120    5.2980 H   0  0  0  0  0  0  0  0  0  0  0  0
   -0.6760    0.9150    3.3470 H   0  0  0  0  0  0  0  0  0  0  0  0
   -0.1570    0.0200    1.2870 H   0  0  0  0  0  0  0  0  0  0  0  0
  1 10  1  0  0  0  0
  2  1  1  0  0  0  0
  2  3  2  0  0  0  0
  4  2  1  0  0  0  0
  5  4  1  0  0  0  0
  5 15  1  0  0  0  0
  5 14  1  0  0  0  0
  6 16  1  6  0  0  0
  6  5  1  0  0  0  0
  7  6  1  0  0  0  0
  8  6  1  0  0  0  0
  8 22  1  0  0  0  0
  9  8  2  0  0  0  0
 11  1  1  0  0  0  0
 12  4  1  0  0  0  0
 13  4  1  0  0  0  0
 17  7  1  0  0  0  0
 18  7  1  0  0  0  0
 19 20  1  0  0  0  0
 20 26  1  0  0  0  0
 20 21  1  0  0  0  0
 21 28  1  6  0  0  0
 21 22  1  0  0  0  0
 21 23  1  0  0  0  0
 22 29  1  0  0  0  0
 23 24  2  0  0  0  0
 23 34  1  0  0  0  0
 25 19  1  0  0  0  0
 27 20  1  0  0  0  0
 30 31  1  0  0  0  0
 30 40  1  0  0  0  0
 31 41  1  1  0  0  0
 31 32  1  0  0  0  0
 32 42  1  0  0  0  0
 33 35  1  0  0  0  0
 33 43  1  1  0  0  0
 33 31  1  0  0  0  0
 34 33  1  0  0  0  0
 35 36  1  0  0  0  0
 37 35  2  0  0  0  0
 38 30  1  0  0  0  0
 39 30  1  0  0  0  0
 44 34  1  0  0  0  0
M  END
$$$$
