QSY.pdb
 OpenBabel07022418343D

 51 51  0  0  1  0  0  0  0  0999 V2000
    1.7670   -4.2510    3.9060 N   0  0  0  0  0  0  0  0  0  0  0  0
    1.9450   -3.4500    2.7350 C   0  0  0  0  0  0  0  0  0  0  0  0
    1.1010   -2.5410    2.5780 O   0  0  0  0  0  0  0  0  0  0  0  0
    3.0190   -3.6600    1.7810 C   0  0  0  0  0  0  0  0  0  0  0  0
    3.2830   -2.6400    0.7490 C   0  0  0  0  0  0  0  0  0  0  0  0
    3.6810   -1.2820    1.1840 C   0  0  2  0  0  0  0  0  0  0  0  0
    4.9030   -1.3770    2.0020 N   0  0  0  0  0  0  0  0  0  0  0  0
    2.7170   -0.4220    1.8220 C   0  0  0  0  0  0  0  0  0  0  0  0
    2.8370   -0.0480    3.0300 O   0  0  0  0  0  0  0  0  0  0  0  0
    2.4510   -4.2890    4.6810 H   0  0  0  0  0  0  0  0  0  0  0  0
    0.9020   -4.8170    3.9670 H   0  0  0  0  0  0  0  0  0  0  0  0
    2.7500   -4.6150    1.2180 H   0  0  0  0  0  0  0  0  0  0  0  0
    3.9730   -3.9690    2.3130 H   0  0  0  0  0  0  0  0  0  0  0  0
    4.1020   -3.0590    0.0810 H   0  0  0  0  0  0  0  0  0  0  0  0
    2.3970   -2.6330    0.0580 H   0  0  0  0  0  0  0  0  0  0  0  0
    4.0580   -0.7160    0.2650 H   0  0  0  0  0  0  0  0  0  0  0  0
    5.7420   -1.5110    1.4090 H   0  0  0  0  0  0  0  0  0  0  0  0
    4.7980   -2.0750    2.7610 H   0  0  0  0  0  0  0  0  0  0  0  0
    0.4250    2.0980   -0.3360 O   0  0  0  0  0  0  0  0  0  0  0  0
    0.6850    2.2760    1.0100 C   0  0  0  0  0  0  0  0  0  0  0  0
    0.5900    0.9240    1.7180 C   0  0  2  0  0  0  0  0  0  0  0  0
    1.5630    0.0680    1.1220 N   0  0  0  0  0  0  0  0  0  0  0  0
   -0.7940    0.4590    1.6120 C   0  0  0  0  0  0  0  0  0  0  0  0
   -1.7050    1.1800    2.1240 O   0  0  0  0  0  0  0  0  0  0  0  0
   -0.0310    2.8980   -0.7360 H   0  0  0  0  0  0  0  0  0  0  0  0
    1.7330    2.6330    1.1420 H   0  0  0  0  0  0  0  0  0  0  0  0
   -0.0080    3.0190    1.4610 H   0  0  0  0  0  0  0  0  0  0  0  0
    0.8640    1.1130    2.7790 H   0  0  0  0  0  0  0  0  0  0  0  0
    1.4530   -0.2300    0.1350 H   0  0  0  0  0  0  0  0  0  0  0  0
   -2.6210    3.4020   -3.6390 O   0  0  0  0  0  0  0  0  0  0  0  0
   -2.7020    2.2420   -2.8820 C   0  0  0  0  0  0  0  0  0  0  0  0
   -3.8430    1.9720   -2.1710 C   0  0  0  0  0  0  0  0  0  0  0  0
   -3.9740    0.8410   -1.4090 C   0  0  0  0  0  0  0  0  0  0  0  0
   -2.9490   -0.0900   -1.3210 C   0  0  0  0  0  0  0  0  0  0  0  0
   -3.0810   -1.3080   -0.5040 C   0  0  0  0  0  0  0  0  0  0  0  0
   -2.6080   -1.1140    0.9250 C   0  0  2  0  0  0  0  0  0  0  0  0
   -1.2210   -0.7320    0.9850 N   0  0  0  0  0  0  0  0  0  0  0  0
   -2.8730   -2.3810    1.6400 C   0  0  0  0  0  0  0  0  0  0  0  0
   -4.0700   -2.7950    1.6390 O   0  0  0  0  0  0  0  0  0  0  0  0
   -1.7990    0.1880   -2.0410 C   0  0  0  0  0  0  0  0  0  0  0  0
   -1.6770    1.3230   -2.8020 C   0  0  0  0  0  0  0  0  0  0  0  0
   -1.9240   -3.1330    2.2980 O   0  0  0  0  0  0  0  0  0  0  0  0
   -2.5180    3.3400   -4.6570 H   0  0  0  0  0  0  0  0  0  0  0  0
   -4.6750    2.6590   -2.2000 H   0  0  0  0  0  0  0  0  0  0  0  0
   -4.8830    0.6220   -0.8400 H   0  0  0  0  0  0  0  0  0  0  0  0
   -2.6220   -2.2050   -0.9650 H   0  0  0  0  0  0  0  0  0  0  0  0
   -4.1820   -1.5370   -0.4350 H   0  0  0  0  0  0  0  0  0  0  0  0
   -3.2110   -0.3330    1.4360 H   0  0  0  0  0  0  0  0  0  0  0  0
   -0.5030   -1.3520    0.5540 H   0  0  0  0  0  0  0  0  0  0  0  0
   -0.9800   -0.5270   -1.9880 H   0  0  0  0  0  0  0  0  0  0  0  0
   -0.7760    1.5460   -3.3690 H   0  0  0  0  0  0  0  0  0  0  0  0
  1 11  1  0  0  0  0
  1 10  1  0  0  0  0
  2  1  1  0  0  0  0
  3  2  2  0  0  0  0
  4 13  1  0  0  0  0
  4  2  1  0  0  0  0
  5  6  1  0  0  0  0
  5  4  1  0  0  0  0
  6 16  1  6  0  0  0
  6  8  1  0  0  0  0
  6  7  1  0  0  0  0
  7 18  1  0  0  0  0
  8  9  2  0  0  0  0
 12  4  1  0  0  0  0
 14  5  1  0  0  0  0
 15  5  1  0  0  0  0
 17  7  1  0  0  0  0
 19 20  1  0  0  0  0
 20 26  1  0  0  0  0
 20 27  1  0  0  0  0
 20 21  1  0  0  0  0
 21 28  1  1  0  0  0
 22 21  1  0  0  0  0
 22  8  1  0  0  0  0
 23 21  1  0  0  0  0
 23 24  2  0  0  0  0
 25 19  1  0  0  0  0
 29 22  1  0  0  0  0
 30 31  1  0  0  0  0
 31 41  2  0  0  0  0
 31 32  1  0  0  0  0
 32 33  2  0  0  0  0
 33 34  1  0  0  0  0
 33 45  1  0  0  0  0
 34 35  1  0  0  0  0
 35 47  1  0  0  0  0
 35 36  1  0  0  0  0
 36 37  1  0  0  0  0
 36 48  1  1  0  0  0
 36 38  1  0  0  0  0
 37 23  1  0  0  0  0
 38 42  1  0  0  0  0
 39 38  2  0  0  0  0
 40 50  1  0  0  0  0
 40 34  2  0  0  0  0
 41 40  1  0  0  0  0
 43 30  1  0  0  0  0
 44 32  1  0  0  0  0
 46 35  1  0  0  0  0
 49 37  1  0  0  0  0
 51 41  1  0  0  0  0
M  END
$$$$
