QTA.pdb
 OpenBabel07022418343D

 43 42  0  0  1  0  0  0  0  0999 V2000
    2.2630   -6.8990   -0.2140 N   0  0  0  0  0  0  0  0  0  0  0  0
    2.5520   -5.5430    0.0560 C   0  0  0  0  0  0  0  0  0  0  0  0
    3.7270   -5.1100   -0.0180 O   0  0  0  0  0  0  0  0  0  0  0  0
    1.4620   -4.6300    0.4280 C   0  0  0  0  0  0  0  0  0  0  0  0
    2.0170   -3.2520    0.6630 C   0  0  0  0  0  0  0  0  0  0  0  0
    0.8670   -2.3520    1.0410 C   0  0  2  0  0  0  0  0  0  0  0  0
   -0.1380   -2.2690    0.0300 N   0  0  0  0  0  0  0  0  0  0  0  0
    1.3920   -1.0210    1.3420 C   0  0  0  0  0  0  0  0  0  0  0  0
    2.2930   -0.7910    2.1970 O   0  0  0  0  0  0  0  0  0  0  0  0
    1.4700   -7.1780   -0.8120 H   0  0  0  0  0  0  0  0  0  0  0  0
    2.8640   -7.6300    0.2000 H   0  0  0  0  0  0  0  0  0  0  0  0
    0.9460   -4.9380    1.3620 H   0  0  0  0  0  0  0  0  0  0  0  0
    0.6700   -4.5660   -0.3490 H   0  0  0  0  0  0  0  0  0  0  0  0
    2.6150   -2.8670   -0.1710 H   0  0  0  0  0  0  0  0  0  0  0  0
    2.6850   -3.2960    1.5680 H   0  0  0  0  0  0  0  0  0  0  0  0
    0.3860   -2.8370    1.9410 H   0  0  0  0  0  0  0  0  0  0  0  0
    0.2420   -1.8470   -0.8440 H   0  0  0  0  0  0  0  0  0  0  0  0
   -0.9140   -1.6550    0.3540 H   0  0  0  0  0  0  0  0  0  0  0  0
    1.0550    1.8490   -1.5500 C   0  0  0  0  0  0  0  0  0  0  0  0
    1.9900    1.9370   -0.3840 C   0  0  1  0  0  0  0  0  0  0  0  0
    2.4620    3.2500   -0.1720 O   0  0  0  0  0  0  0  0  0  0  0  0
    1.3690    1.4550    0.9120 C   0  0  2  0  0  0  0  0  0  0  0  0
    0.8950    0.1080    0.6640 N   0  0  0  0  0  0  0  0  0  0  0  0
    0.2560    2.2790    1.3630 C   0  0  0  0  0  0  0  0  0  0  0  0
    0.3530    3.5070    1.6580 O   0  0  0  0  0  0  0  0  0  0  0  0
    0.0130    1.7000   -1.2270 H   0  0  0  0  0  0  0  0  0  0  0  0
    1.3260    0.9880   -2.2100 H   0  0  0  0  0  0  0  0  0  0  0  0
    1.1780    2.7590   -2.1680 H   0  0  0  0  0  0  0  0  0  0  0  0
    2.8940    1.3390   -0.6220 H   0  0  0  0  0  0  0  0  0  0  0  0
    3.1640    3.4910   -0.8280 H   0  0  0  0  0  0  0  0  0  0  0  0
    2.1640    1.4800    1.6850 H   0  0  0  0  0  0  0  0  0  0  0  0
    0.1470    0.0280   -0.0650 H   0  0  0  0  0  0  0  0  0  0  0  0
   -3.2800    2.4880    0.8990 C   0  0  0  0  0  0  0  0  0  0  0  0
   -2.1790    2.5240    1.9490 C   0  0  2  0  0  0  0  0  0  0  0  0
   -1.0400    1.7150    1.4970 N   0  0  0  0  0  0  0  0  0  0  0  0
   -2.7330    1.8660    3.1650 C   0  0  0  0  0  0  0  0  0  0  0  0
   -3.7220    2.3930    3.7250 O   0  0  0  0  0  0  0  0  0  0  0  0
   -2.2080    0.7050    3.7040 O   0  0  0  0  0  0  0  0  0  0  0  0
   -4.1800    2.9480    1.3430 H   0  0  0  0  0  0  0  0  0  0  0  0
   -2.9670    3.0800    0.0110 H   0  0  0  0  0  0  0  0  0  0  0  0
   -3.5230    1.4370    0.6500 H   0  0  0  0  0  0  0  0  0  0  0  0
   -1.8680    3.5510    2.1470 H   0  0  0  0  0  0  0  0  0  0  0  0
   -1.2250    0.7070    1.2780 H   0  0  0  0  0  0  0  0  0  0  0  0
  1  2  1  0  0  0  0
  1 11  1  0  0  0  0
  2  4  1  0  0  0  0
  3  2  2  0  0  0  0
  4  5  1  0  0  0  0
  4 12  1  0  0  0  0
  5  6  1  0  0  0  0
  5 15  1  0  0  0  0
  6  8  1  0  0  0  0
  6 16  1  1  0  0  0
  7 18  1  0  0  0  0
  7  6  1  0  0  0  0
  8  9  2  0  0  0  0
 10  1  1  0  0  0  0
 13  4  1  0  0  0  0
 14  5  1  0  0  0  0
 17  7  1  0  0  0  0
 19 26  1  0  0  0  0
 19 20  1  0  0  0  0
 20 29  1  6  0  0  0
 20 21  1  0  0  0  0
 20 22  1  0  0  0  0
 22 24  1  0  0  0  0
 22 31  1  1  0  0  0
 23 22  1  0  0  0  0
 23  8  1  0  0  0  0
 24 35  1  0  0  0  0
 24 25  2  0  0  0  0
 27 19  1  0  0  0  0
 28 19  1  0  0  0  0
 30 21  1  0  0  0  0
 32 23  1  0  0  0  0
 33 39  1  0  0  0  0
 33 34  1  0  0  0  0
 34 42  1  1  0  0  0
 34 36  1  0  0  0  0
 35 34  1  0  0  0  0
 36 38  2  0  0  0  0
 36 37  1  0  0  0  0
 40 33  1  0  0  0  0
 41 33  1  0  0  0  0
 43 35  1  0  0  0  0
M  END
$$$$
