QTC.pdb
 OpenBabel07022418343D

 44 43  0  0  1  0  0  0  0  0999 V2000
    0.0090   -6.3960    1.6210 N   0  0  0  0  0  0  0  0  0  0  0  0
   -0.0010   -4.9930    1.4400 C   0  0  0  0  0  0  0  0  0  0  0  0
   -0.6930   -4.4950    0.5340 O   0  0  0  0  0  0  0  0  0  0  0  0
    0.8040   -4.1420    2.3280 C   0  0  0  0  0  0  0  0  0  0  0  0
    0.9150   -2.7020    1.8970 C   0  0  0  0  0  0  0  0  0  0  0  0
    1.6040   -2.6560    0.5600 C   0  0  2  0  0  0  0  0  0  0  0  0
    2.9230   -3.2720    0.8060 N   0  0  0  0  0  0  0  0  0  0  0  0
    1.7800   -1.2830    0.0520 C   0  0  0  0  0  0  0  0  0  0  0  0
    2.9450   -0.8490   -0.0950 O   0  0  0  0  0  0  0  0  0  0  0  0
    0.3070   -6.7940    2.5280 H   0  0  0  0  0  0  0  0  0  0  0  0
   -0.2730   -7.0680    0.8750 H   0  0  0  0  0  0  0  0  0  0  0  0
    1.8280   -4.6290    2.3550 H   0  0  0  0  0  0  0  0  0  0  0  0
    0.4720   -4.2240    3.3990 H   0  0  0  0  0  0  0  0  0  0  0  0
    1.5540   -2.2100    2.6890 H   0  0  0  0  0  0  0  0  0  0  0  0
   -0.0910   -2.2310    1.8700 H   0  0  0  0  0  0  0  0  0  0  0  0
    1.1080   -3.3220   -0.1410 H   0  0  0  0  0  0  0  0  0  0  0  0
    3.2410   -3.6970   -0.0940 H   0  0  0  0  0  0  0  0  0  0  0  0
    3.5750   -2.4580    0.9660 H   0  0  0  0  0  0  0  0  0  0  0  0
    0.4190    2.3500   -2.7680 C   0  0  0  0  0  0  0  0  0  0  0  0
    0.2860    0.9860   -2.1810 C   0  0  1  0  0  0  0  0  0  0  0  0
    1.0390    0.1030   -2.9660 O   0  0  0  0  0  0  0  0  0  0  0  0
    0.8210    0.8990   -0.7730 C   0  0  2  0  0  0  0  0  0  0  0  0
    0.6910   -0.4560   -0.2710 N   0  0  0  0  0  0  0  0  0  0  0  0
    0.1900    1.8810    0.1400 C   0  0  0  0  0  0  0  0  0  0  0  0
    0.1910    3.1140   -0.1050 O   0  0  0  0  0  0  0  0  0  0  0  0
   -0.5660    2.8840   -2.7060 H   0  0  0  0  0  0  0  0  0  0  0  0
    0.6290    2.2540   -3.8560 H   0  0  0  0  0  0  0  0  0  0  0  0
    1.1490    2.9920   -2.2500 H   0  0  0  0  0  0  0  0  0  0  0  0
   -0.7610    0.6670   -2.2680 H   0  0  0  0  0  0  0  0  0  0  0  0
    1.9540    0.4640   -3.1350 H   0  0  0  0  0  0  0  0  0  0  0  0
    1.9060    1.1230   -0.8360 H   0  0  0  0  0  0  0  0  0  0  0  0
   -0.2710   -0.8900   -0.1220 H   0  0  0  0  0  0  0  0  0  0  0  0
   -0.4470    1.4810    1.3390 N   0  0  0  0  0  0  0  0  0  0  0  0
   -1.0780    2.3340    2.2790 C   0  0  1  0  0  0  0  0  0  0  0  0
   -2.5430    2.0810    2.4880 C   0  0  0  0  0  0  0  0  0  0  0  0
   -3.4830    2.2880    0.9390 S   0  0  0  0  0  0  0  0  0  0  0  0
   -0.4090    2.2800    3.6040 C   0  0  0  0  0  0  0  0  0  0  0  0
    0.5910    1.5660    3.8530 O   0  0  0  0  0  0  0  0  0  0  0  0
   -0.9150    3.0690    4.6440 O   0  0  0  0  0  0  0  0  0  0  0  0
   -0.4430    0.4410    1.5380 H   0  0  0  0  0  0  0  0  0  0  0  0
   -0.9870    3.3950    1.9240 H   0  0  0  0  0  0  0  0  0  0  0  0
   -2.7600    1.1180    2.9750 H   0  0  0  0  0  0  0  0  0  0  0  0
   -2.9130    2.8730    3.1740 H   0  0  0  0  0  0  0  0  0  0  0  0
   -2.6210    1.9990   -0.1520 H   0  0  0  0  0  0  0  0  0  0  0  0
  1 10  1  0  0  0  0
  2  1  1  0  0  0  0
  2  4  1  0  0  0  0
  3  2  2  0  0  0  0
  4 12  1  0  0  0  0
  4 13  1  0  0  0  0
  5  4  1  0  0  0  0
  5 14  1  0  0  0  0
  6 16  1  6  0  0  0
  6  7  1  0  0  0  0
  6  5  1  0  0  0  0
  7 18  1  0  0  0  0
  8  6  1  0  0  0  0
  9  8  2  0  0  0  0
 11  1  1  0  0  0  0
 15  5  1  0  0  0  0
 17  7  1  0  0  0  0
 19 26  1  0  0  0  0
 19 28  1  0  0  0  0
 19 20  1  0  0  0  0
 20 29  1  6  0  0  0
 20 22  1  0  0  0  0
 21 20  1  0  0  0  0
 22 31  1  6  0  0  0
 22 23  1  0  0  0  0
 22 24  1  0  0  0  0
 23 32  1  0  0  0  0
 23  8  1  0  0  0  0
 24 33  1  0  0  0  0
 25 24  2  0  0  0  0
 27 19  1  0  0  0  0
 30 21  1  0  0  0  0
 33 40  1  0  0  0  0
 33 34  1  0  0  0  0
 34 41  1  6  0  0  0
 34 35  1  0  0  0  0
 34 37  1  0  0  0  0
 35 42  1  0  0  0  0
 35 43  1  0  0  0  0
 36 35  1  0  0  0  0
 37 38  2  0  0  0  0
 37 39  1  0  0  0  0
 44 36  1  0  0  0  0
M  END
$$$$
