QTD.pdb
 OpenBabel07022418343D

 46 45  0  0  1  0  0  0  0  0999 V2000
    2.2630   -4.4940    2.9190 N   0  0  0  0  0  0  0  0  0  0  0  0
    0.9310   -4.0120    2.6600 C   0  0  0  0  0  0  0  0  0  0  0  0
    0.5180   -3.0950    3.3760 O   0  0  0  0  0  0  0  0  0  0  0  0
    0.2190   -4.6850    1.5620 C   0  0  0  0  0  0  0  0  0  0  0  0
   -1.0460   -4.0850    1.0890 C   0  0  0  0  0  0  0  0  0  0  0  0
   -1.0240   -2.7310    0.5090 C   0  0  2  0  0  0  0  0  0  0  0  0
   -0.1120   -2.7510   -0.6310 N   0  0  0  0  0  0  0  0  0  0  0  0
   -0.8810   -1.5850    1.3850 C   0  0  0  0  0  0  0  0  0  0  0  0
   -1.6810   -1.3880    2.3370 O   0  0  0  0  0  0  0  0  0  0  0  0
    2.5750   -4.7300    3.8610 H   0  0  0  0  0  0  0  0  0  0  0  0
    2.8890   -4.5910    2.1060 H   0  0  0  0  0  0  0  0  0  0  0  0
    0.9350   -4.9000    0.7000 H   0  0  0  0  0  0  0  0  0  0  0  0
    0.0380   -5.7400    1.9530 H   0  0  0  0  0  0  0  0  0  0  0  0
   -1.4380   -4.7720    0.2690 H   0  0  0  0  0  0  0  0  0  0  0  0
   -1.8350   -4.2120    1.8870 H   0  0  0  0  0  0  0  0  0  0  0  0
   -2.0530   -2.6370   -0.0280 H   0  0  0  0  0  0  0  0  0  0  0  0
   -0.3290   -1.9520   -1.2960 H   0  0  0  0  0  0  0  0  0  0  0  0
   -0.2380   -3.6220   -1.1890 H   0  0  0  0  0  0  0  0  0  0  0  0
    2.0720   -0.3010    3.6750 C   0  0  0  0  0  0  0  0  0  0  0  0
    1.6060    0.7590    2.7320 C   0  0  1  0  0  0  0  0  0  0  0  0
    2.6030    0.9640    1.7820 O   0  0  0  0  0  0  0  0  0  0  0  0
    0.2630    0.5360    2.1320 C   0  0  2  0  0  0  0  0  0  0  0  0
    0.1590   -0.5960    1.2460 N   0  0  0  0  0  0  0  0  0  0  0  0
   -0.2410    1.7710    1.4330 C   0  0  0  0  0  0  0  0  0  0  0  0
   -0.2640    2.9030    1.9500 O   0  0  0  0  0  0  0  0  0  0  0  0
    2.8560    0.0840    4.3890 H   0  0  0  0  0  0  0  0  0  0  0  0
    2.4930   -1.1910    3.2120 H   0  0  0  0  0  0  0  0  0  0  0  0
    1.2470   -0.6430    4.3670 H   0  0  0  0  0  0  0  0  0  0  0  0
    1.6060    1.7180    3.3410 H   0  0  0  0  0  0  0  0  0  0  0  0
    2.6050    1.9190    1.5330 H   0  0  0  0  0  0  0  0  0  0  0  0
   -0.4720    0.4190    2.9860 H   0  0  0  0  0  0  0  0  0  0  0  0
    0.8260   -0.7480    0.4710 H   0  0  0  0  0  0  0  0  0  0  0  0
   -0.7150    1.6180    0.1110 N   0  0  0  0  0  0  0  0  0  0  0  0
   -1.2300    2.7030   -0.6870 C   0  0  1  0  0  0  0  0  0  0  0  0
   -0.5120    2.7010   -2.0120 C   0  0  0  0  0  0  0  0  0  0  0  0
    0.9480    2.8830   -1.8300 C   0  0  0  0  0  0  0  0  0  0  0  0
    1.3900    3.0140   -0.6660 O   0  0  0  0  0  0  0  0  0  0  0  0
   -2.6620    2.3460   -0.9980 C   0  0  0  0  0  0  0  0  0  0  0  0
   -3.3680    3.1240   -1.6900 O   0  0  0  0  0  0  0  0  0  0  0  0
    1.8400    2.9130   -2.8840 O   0  0  0  0  0  0  0  0  0  0  0  0
   -3.2550    1.1770   -0.5500 O   0  0  0  0  0  0  0  0  0  0  0  0
   -0.7110    0.6690   -0.3640 H   0  0  0  0  0  0  0  0  0  0  0  0
   -1.1940    3.6690   -0.1780 H   0  0  0  0  0  0  0  0  0  0  0  0
   -0.8900    3.5410   -2.6650 H   0  0  0  0  0  0  0  0  0  0  0  0
   -0.6450    1.7380   -2.5450 H   0  0  0  0  0  0  0  0  0  0  0  0
    2.6920    3.4620   -2.8620 H   0  0  0  0  0  0  0  0  0  0  0  0
  1 10  1  0  0  0  0
  2  1  1  0  0  0  0
  2  3  2  0  0  0  0
  4 13  1  0  0  0  0
  4  2  1  0  0  0  0
  5  4  1  0  0  0  0
  5 15  1  0  0  0  0
  6 16  1  6  0  0  0
  6  5  1  0  0  0  0
  6  8  1  0  0  0  0
  7  6  1  0  0  0  0
  8  9  2  0  0  0  0
 11  1  1  0  0  0  0
 12  4  1  0  0  0  0
 14  5  1  0  0  0  0
 17  7  1  0  0  0  0
 18  7  1  0  0  0  0
 19 28  1  0  0  0  0
 19 26  1  0  0  0  0
 20 29  1  1  0  0  0
 20 19  1  0  0  0  0
 21 20  1  0  0  0  0
 22 20  1  0  0  0  0
 22 31  1  1  0  0  0
 23  8  1  0  0  0  0
 23 22  1  0  0  0  0
 24 25  2  0  0  0  0
 24 22  1  0  0  0  0
 27 19  1  0  0  0  0
 30 21  1  0  0  0  0
 32 23  1  0  0  0  0
 33 24  1  0  0  0  0
 34 43  1  1  0  0  0
 34 33  1  0  0  0  0
 35 36  1  0  0  0  0
 35 34  1  0  0  0  0
 36 37  2  0  0  0  0
 38 34  1  0  0  0  0
 38 41  1  0  0  0  0
 39 38  2  0  0  0  0
 40 46  1  0  0  0  0
 40 36  1  0  0  0  0
 42 33  1  0  0  0  0
 44 35  1  0  0  0  0
 45 35  1  0  0  0  0
M  END
$$$$
