QTE.pdb
 OpenBabel07022418343D

 49 48  0  0  1  0  0  0  0  0999 V2000
    4.0690   -0.6380    4.2800 N   0  0  0  0  0  0  0  0  0  0  0  0
    2.8210    0.0010    4.0780 C   0  0  0  0  0  0  0  0  0  0  0  0
    1.9330   -0.1240    4.9420 O   0  0  0  0  0  0  0  0  0  0  0  0
    2.5700    0.8040    2.8620 C   0  0  0  0  0  0  0  0  0  0  0  0
    1.1560    1.3710    2.8630 C   0  0  0  0  0  0  0  0  0  0  0  0
    0.9100    2.1790    1.6230 C   0  0  2  0  0  0  0  0  0  0  0  0
   -0.3960    2.7680    1.5400 N   0  0  0  0  0  0  0  0  0  0  0  0
    1.1030    1.3820    0.3680 C   0  0  0  0  0  0  0  0  0  0  0  0
    1.4420    2.0250   -0.6820 O   0  0  0  0  0  0  0  0  0  0  0  0
    4.2320   -1.6230    3.9980 H   0  0  0  0  0  0  0  0  0  0  0  0
    4.8600   -0.1250    4.7230 H   0  0  0  0  0  0  0  0  0  0  0  0
    3.2930    1.6630    2.8240 H   0  0  0  0  0  0  0  0  0  0  0  0
    2.7410    0.2340    1.9380 H   0  0  0  0  0  0  0  0  0  0  0  0
    0.9820    1.9710    3.7780 H   0  0  0  0  0  0  0  0  0  0  0  0
    0.4170    0.5340    2.9250 H   0  0  0  0  0  0  0  0  0  0  0  0
    1.6990    2.9790    1.5880 H   0  0  0  0  0  0  0  0  0  0  0  0
   -0.3370    3.7340    1.1340 H   0  0  0  0  0  0  0  0  0  0  0  0
   -0.8580    2.8470    2.4930 H   0  0  0  0  0  0  0  0  0  0  0  0
    2.4060   -2.4130   -2.1390 C   0  0  0  0  0  0  0  0  0  0  0  0
    2.1860   -1.8180   -0.7600 C   0  0  1  0  0  0  0  0  0  0  0  0
    3.3710   -1.1530   -0.3960 O   0  0  0  0  0  0  0  0  0  0  0  0
    1.1230   -0.7510   -0.8960 C   0  0  2  0  0  0  0  0  0  0  0  0
    0.9190   -0.0240    0.3400 N   0  0  0  0  0  0  0  0  0  0  0  0
   -0.1420   -1.3100   -1.4250 C   0  0  0  0  0  0  0  0  0  0  0  0
   -0.1070   -1.9880   -2.4700 O   0  0  0  0  0  0  0  0  0  0  0  0
    3.4980   -2.6340   -2.2500 H   0  0  0  0  0  0  0  0  0  0  0  0
    1.8030   -3.3240   -2.2340 H   0  0  0  0  0  0  0  0  0  0  0  0
    2.1570   -1.7120   -2.9530 H   0  0  0  0  0  0  0  0  0  0  0  0
    1.9190   -2.5820   -0.0110 H   0  0  0  0  0  0  0  0  0  0  0  0
    3.4310   -0.3410   -0.9850 H   0  0  0  0  0  0  0  0  0  0  0  0
    1.4790   -0.0370   -1.6900 H   0  0  0  0  0  0  0  0  0  0  0  0
    0.6300   -0.5350    1.2080 H   0  0  0  0  0  0  0  0  0  0  0  0
   -1.4200   -1.1220   -0.8100 N   0  0  0  0  0  0  0  0  0  0  0  0
   -2.6350   -1.6560   -1.3120 C   0  0  1  0  0  0  0  0  0  0  0  0
   -3.1960   -2.7130   -0.4470 C   0  0  0  0  0  0  0  0  0  0  0  0
   -3.5730   -2.3990    0.9390 C   0  0  0  0  0  0  0  0  0  0  0  0
   -2.4910   -1.9150    1.8130 C   0  0  0  0  0  0  0  0  0  0  0  0
   -2.5510   -0.7950    2.4230 O   0  0  0  0  0  0  0  0  0  0  0  0
   -3.6210   -0.6240   -1.7130 C   0  0  0  0  0  0  0  0  0  0  0  0
   -4.7220   -1.0170   -2.1710 O   0  0  0  0  0  0  0  0  0  0  0  0
   -1.3660   -2.7150    1.9710 O   0  0  0  0  0  0  0  0  0  0  0  0
   -3.4170    0.7400   -1.6210 O   0  0  0  0  0  0  0  0  0  0  0  0
   -1.4230   -0.5470    0.0460 H   0  0  0  0  0  0  0  0  0  0  0  0
   -2.3610   -2.1720   -2.2890 H   0  0  0  0  0  0  0  0  0  0  0  0
   -2.4040   -3.5270   -0.3880 H   0  0  0  0  0  0  0  0  0  0  0  0
   -4.0330   -3.2410   -0.9930 H   0  0  0  0  0  0  0  0  0  0  0  0
   -3.9880   -3.3310    1.4390 H   0  0  0  0  0  0  0  0  0  0  0  0
   -4.4130   -1.6720    1.0360 H   0  0  0  0  0  0  0  0  0  0  0  0
   -0.7890   -2.6390    2.8020 H   0  0  0  0  0  0  0  0  0  0  0  0
  1 11  1  0  0  0  0
  2  1  1  0  0  0  0
  2  3  2  0  0  0  0
  4  5  1  0  0  0  0
  4  2  1  0  0  0  0
  5 15  1  0  0  0  0
  5 14  1  0  0  0  0
  6 16  1  6  0  0  0
  6  5  1  0  0  0  0
  7  6  1  0  0  0  0
  7 18  1  0  0  0  0
  8  6  1  0  0  0  0
  9  8  2  0  0  0  0
 10  1  1  0  0  0  0
 12  4  1  0  0  0  0
 13  4  1  0  0  0  0
 17  7  1  0  0  0  0
 19 20  1  0  0  0  0
 20 21  1  0  0  0  0
 20 29  1  1  0  0  0
 22 31  1  6  0  0  0
 22 20  1  0  0  0  0
 22 23  1  0  0  0  0
 23  8  1  0  0  0  0
 23 32  1  0  0  0  0
 24 22  1  0  0  0  0
 24 33  1  0  0  0  0
 25 24  2  0  0  0  0
 26 19  1  0  0  0  0
 27 19  1  0  0  0  0
 28 19  1  0  0  0  0
 30 21  1  0  0  0  0
 33 43  1  0  0  0  0
 34 44  1  6  0  0  0
 34 33  1  0  0  0  0
 34 35  1  0  0  0  0
 35 45  1  0  0  0  0
 35 36  1  0  0  0  0
 36 48  1  0  0  0  0
 36 47  1  0  0  0  0
 36 37  1  0  0  0  0
 37 41  1  0  0  0  0
 37 38  2  0  0  0  0
 39 42  1  0  0  0  0
 39 34  1  0  0  0  0
 40 39  2  0  0  0  0
 41 49  1  0  0  0  0
 46 35  1  0  0  0  0
M  END
$$$$
