QTN.pdb
 OpenBabel07022418343D

 47 46  0  0  1  0  0  0  0  0999 V2000
    4.4710   -3.0840    5.1460 N   0  0  0  0  0  0  0  0  0  0  0  0
    3.1300   -2.7200    4.8500 C   0  0  0  0  0  0  0  0  0  0  0  0
    2.1540   -3.4150    5.2310 O   0  0  0  0  0  0  0  0  0  0  0  0
    2.8970   -1.4630    4.0530 C   0  0  0  0  0  0  0  0  0  0  0  0
    1.4250   -1.2410    3.9430 C   0  0  0  0  0  0  0  0  0  0  0  0
    1.0760    0.0030    3.1320 C   0  0  2  0  0  0  0  0  0  0  0  0
   -0.3980    0.0360    3.1470 N   0  0  0  0  0  0  0  0  0  0  0  0
    1.4730   -0.1900    1.7160 C   0  0  0  0  0  0  0  0  0  0  0  0
    2.6510   -0.0580    1.2870 O   0  0  0  0  0  0  0  0  0  0  0  0
    4.9660   -3.8910    4.7190 H   0  0  0  0  0  0  0  0  0  0  0  0
    4.9940   -2.5040    5.8350 H   0  0  0  0  0  0  0  0  0  0  0  0
    3.4100   -0.5910    4.5190 H   0  0  0  0  0  0  0  0  0  0  0  0
    3.2800   -1.6960    3.0350 H   0  0  0  0  0  0  0  0  0  0  0  0
    0.9030   -1.1610    4.9080 H   0  0  0  0  0  0  0  0  0  0  0  0
    0.9870   -2.1250    3.4200 H   0  0  0  0  0  0  0  0  0  0  0  0
    1.4590    0.9170    3.5950 H   0  0  0  0  0  0  0  0  0  0  0  0
   -0.7600   -0.9470    3.0920 H   0  0  0  0  0  0  0  0  0  0  0  0
   -0.7350    0.4290    4.0520 H   0  0  0  0  0  0  0  0  0  0  0  0
    1.3810   -2.2400   -2.4830 C   0  0  0  0  0  0  0  0  0  0  0  0
    0.9210   -2.1970   -1.0350 C   0  0  1  0  0  0  0  0  0  0  0  0
    1.9100   -2.8610   -0.3070 O   0  0  0  0  0  0  0  0  0  0  0  0
    0.8000   -0.7490   -0.6300 C   0  0  2  0  0  0  0  0  0  0  0  0
    0.4930   -0.5510    0.7640 N   0  0  0  0  0  0  0  0  0  0  0  0
   -0.2150   -0.1160   -1.4920 C   0  0  0  0  0  0  0  0  0  0  0  0
   -0.3110   -0.2270   -2.7300 O   0  0  0  0  0  0  0  0  0  0  0  0
    1.7610   -1.2150   -2.7460 H   0  0  0  0  0  0  0  0  0  0  0  0
    0.5630   -2.4700   -3.1830 H   0  0  0  0  0  0  0  0  0  0  0  0
    2.2080   -2.9700   -2.6380 H   0  0  0  0  0  0  0  0  0  0  0  0
    0.0030   -2.7730   -0.9760 H   0  0  0  0  0  0  0  0  0  0  0  0
    1.5920   -3.7620   -0.0200 H   0  0  0  0  0  0  0  0  0  0  0  0
    1.8080   -0.3010   -0.8410 H   0  0  0  0  0  0  0  0  0  0  0  0
   -0.5230   -0.6910    1.0760 H   0  0  0  0  0  0  0  0  0  0  0  0
   -5.4350   -0.0030   -0.1540 N   0  0  0  0  0  0  0  0  0  0  0  0
   -4.1630    0.0570   -0.7700 C   0  0  0  0  0  0  0  0  0  0  0  0
   -3.5380   -0.9920   -0.9950 O   0  0  0  0  0  0  0  0  0  0  0  0
   -3.6110    1.3640   -1.1330 C   0  0  0  0  0  0  0  0  0  0  0  0
   -2.2570    1.3540   -1.7660 C   0  0  2  0  0  0  0  0  0  0  0  0
   -1.2490    0.7470   -0.9140 N   0  0  0  0  0  0  0  0  0  0  0  0
   -1.8570    2.7440   -2.1580 C   0  0  0  0  0  0  0  0  0  0  0  0
   -2.6320    3.4190   -2.9230 O   0  0  0  0  0  0  0  0  0  0  0  0
   -0.6770    3.2790   -1.7010 O   0  0  0  0  0  0  0  0  0  0  0  0
   -6.3090    0.4260   -0.5170 H   0  0  0  0  0  0  0  0  0  0  0  0
   -5.5550   -0.5290    0.7660 H   0  0  0  0  0  0  0  0  0  0  0  0
   -4.2900    1.9240   -1.8430 H   0  0  0  0  0  0  0  0  0  0  0  0
   -3.6210    1.9940   -0.1920 H   0  0  0  0  0  0  0  0  0  0  0  0
   -2.2930    0.7920   -2.7180 H   0  0  0  0  0  0  0  0  0  0  0  0
   -1.1990    0.8850    0.1090 H   0  0  0  0  0  0  0  0  0  0  0  0
  1 11  1  0  0  0  0
  2  1  1  0  0  0  0
  2  3  2  0  0  0  0
  4 12  1  0  0  0  0
  4  2  1  0  0  0  0
  5  4  1  0  0  0  0
  5 14  1  0  0  0  0
  6  7  1  0  0  0  0
  6 16  1  1  0  0  0
  6  5  1  0  0  0  0
  7 18  1  0  0  0  0
  8  6  1  0  0  0  0
  9  8  2  0  0  0  0
 10  1  1  0  0  0  0
 13  4  1  0  0  0  0
 15  5  1  0  0  0  0
 17  7  1  0  0  0  0
 19 20  1  0  0  0  0
 20 29  1  1  0  0  0
 20 22  1  0  0  0  0
 20 21  1  0  0  0  0
 21 30  1  0  0  0  0
 22 31  1  6  0  0  0
 22 23  1  0  0  0  0
 23 32  1  0  0  0  0
 23  8  1  0  0  0  0
 24 38  1  0  0  0  0
 24 22  1  0  0  0  0
 25 24  2  0  0  0  0
 26 19  1  0  0  0  0
 27 19  1  0  0  0  0
 28 19  1  0  0  0  0
 33 43  1  0  0  0  0
 34 33  1  0  0  0  0
 35 34  2  0  0  0  0
 36 34  1  0  0  0  0
 36 45  1  0  0  0  0
 37 46  1  6  0  0  0
 37 36  1  0  0  0  0
 37 38  1  0  0  0  0
 38 47  1  0  0  0  0
 39 37  1  0  0  0  0
 39 41  1  0  0  0  0
 40 39  2  0  0  0  0
 42 33  1  0  0  0  0
 44 36  1  0  0  0  0
M  END
$$$$
