QTP.pdb
 OpenBabel07022418343D

 47 47  0  0  1  0  0  0  0  0999 V2000
    1.6750   -4.2740    3.1060 N   0  0  0  0  0  0  0  0  0  0  0  0
    2.5900   -3.4470    2.4020 C   0  0  0  0  0  0  0  0  0  0  0  0
    2.6790   -2.2180    2.7140 O   0  0  0  0  0  0  0  0  0  0  0  0
    3.4590   -3.9420    1.3170 C   0  0  0  0  0  0  0  0  0  0  0  0
    3.9040   -2.8780    0.3610 C   0  0  0  0  0  0  0  0  0  0  0  0
    2.8810   -2.2340   -0.4680 C   0  0  2  0  0  0  0  0  0  0  0  0
    3.4720   -1.1770   -1.3240 N   0  0  0  0  0  0  0  0  0  0  0  0
    1.6430   -1.7480    0.0880 C   0  0  0  0  0  0  0  0  0  0  0  0
    0.8110   -2.6490    0.4770 O   0  0  0  0  0  0  0  0  0  0  0  0
    0.8390   -3.8830    3.5860 H   0  0  0  0  0  0  0  0  0  0  0  0
    1.8000   -5.3140    3.1730 H   0  0  0  0  0  0  0  0  0  0  0  0
    2.9410   -4.7820    0.7870 H   0  0  0  0  0  0  0  0  0  0  0  0
    4.3280   -4.4410    1.8190 H   0  0  0  0  0  0  0  0  0  0  0  0
    4.5870   -2.1760    0.8950 H   0  0  0  0  0  0  0  0  0  0  0  0
    4.6110   -3.4100   -0.3540 H   0  0  0  0  0  0  0  0  0  0  0  0
    2.5840   -3.0120   -1.2570 H   0  0  0  0  0  0  0  0  0  0  0  0
    4.2810   -1.6270   -1.8010 H   0  0  0  0  0  0  0  0  0  0  0  0
    2.7750   -0.8800   -2.0440 H   0  0  0  0  0  0  0  0  0  0  0  0
    1.1940    1.8330    1.7950 C   0  0  0  0  0  0  0  0  0  0  0  0
    0.3000    0.6540    2.1150 C   0  0  1  0  0  0  0  0  0  0  0  0
   -0.7320    1.0780    2.8780 O   0  0  0  0  0  0  0  0  0  0  0  0
   -0.0680   -0.1080    0.8430 C   0  0  2  0  0  0  0  0  0  0  0  0
    1.2540   -0.4150    0.2470 N   0  0  0  0  0  0  0  0  0  0  0  0
   -0.8030    0.7460   -0.1040 C   0  0  0  0  0  0  0  0  0  0  0  0
   -0.1400    1.2960   -1.0510 O   0  0  0  0  0  0  0  0  0  0  0  0
    1.1030    2.5570    2.6330 H   0  0  0  0  0  0  0  0  0  0  0  0
    0.8090    2.3170    0.8840 H   0  0  0  0  0  0  0  0  0  0  0  0
    2.2610    1.5490    1.7160 H   0  0  0  0  0  0  0  0  0  0  0  0
    0.9500   -0.0640    2.6940 H   0  0  0  0  0  0  0  0  0  0  0  0
   -0.4900    1.9180    3.3440 H   0  0  0  0  0  0  0  0  0  0  0  0
   -0.5470   -1.0590    1.0720 H   0  0  0  0  0  0  0  0  0  0  0  0
    1.8860    0.3320   -0.0490 H   0  0  0  0  0  0  0  0  0  0  0  0
   -2.1730    0.9970   -0.0450 N   0  0  0  0  0  0  0  0  0  0  0  0
   -2.9360    1.9010   -0.9210 C   0  0  0  0  0  0  0  0  0  0  0  0
   -3.7630    2.6460    0.1050 C   0  0  0  0  0  0  0  0  0  0  0  0
   -4.1330    1.5690    1.0800 C   0  0  0  0  0  0  0  0  0  0  0  0
   -3.1580    0.4170    0.8200 C   0  0  1  0  0  0  0  0  0  0  0  0
   -3.9680   -0.6310    0.0800 C   0  0  0  0  0  0  0  0  0  0  0  0
   -4.9230   -1.1960    0.6700 O   0  0  0  0  0  0  0  0  0  0  0  0
   -3.7020   -0.9980   -1.2230 O   0  0  0  0  0  0  0  0  0  0  0  0
   -3.5290    1.2630   -1.5890 H   0  0  0  0  0  0  0  0  0  0  0  0
   -2.2560    2.5870   -1.4620 H   0  0  0  0  0  0  0  0  0  0  0  0
   -3.0610    3.4020    0.5650 H   0  0  0  0  0  0  0  0  0  0  0  0
   -4.6310    3.1640   -0.3290 H   0  0  0  0  0  0  0  0  0  0  0  0
   -4.0890    1.9060    2.1350 H   0  0  0  0  0  0  0  0  0  0  0  0
   -5.1850    1.2760    0.8880 H   0  0  0  0  0  0  0  0  0  0  0  0
   -2.8030   -0.0320    1.7430 H   0  0  0  0  0  0  0  0  0  0  0  0
  1 11  1  0  0  0  0
  1 10  1  0  0  0  0
  2  3  2  0  0  0  0
  2  1  1  0  0  0  0
  4 13  1  0  0  0  0
  4  2  1  0  0  0  0
  5 14  1  0  0  0  0
  5  4  1  0  0  0  0
  6 16  1  6  0  0  0
  6  8  1  0  0  0  0
  6  5  1  0  0  0  0
  7  6  1  0  0  0  0
  8 23  1  0  0  0  0
  8  9  2  0  0  0  0
 12  4  1  0  0  0  0
 15  5  1  0  0  0  0
 17  7  1  0  0  0  0
 18  7  1  0  0  0  0
 19 20  1  0  0  0  0
 19 26  1  0  0  0  0
 20 29  1  1  0  0  0
 20 21  1  0  0  0  0
 21 30  1  0  0  0  0
 22 31  1  1  0  0  0
 22 20  1  0  0  0  0
 23 22  1  0  0  0  0
 24 33  1  0  0  0  0
 24 22  1  0  0  0  0
 25 24  2  0  0  0  0
 27 19  1  0  0  0  0
 28 19  1  0  0  0  0
 32 23  1  0  0  0  0
 33 37  1  0  0  0  0
 34 33  1  0  0  0  0
 34 35  1  0  0  0  0
 35 43  1  0  0  0  0
 35 36  1  0  0  0  0
 36 45  1  0  0  0  0
 37 36  1  0  0  0  0
 37 47  1  1  0  0  0
 38 39  1  0  0  0  0
 38 37  1  0  0  0  0
 40 38  2  0  0  0  0
 41 34  1  0  0  0  0
 42 34  1  0  0  0  0
 44 35  1  0  0  0  0
 46 36  1  0  0  0  0
M  END
$$$$
