QTQ.pdb
 OpenBabel07022418343D

 50 49  0  0  1  0  0  0  0  0999 V2000
    1.8720   -0.7430   -3.3000 N   0  0  0  0  0  0  0  0  0  0  0  0
    2.5630   -0.7310   -2.0780 C   0  0  0  0  0  0  0  0  0  0  0  0
    3.2710    0.2430   -1.7650 O   0  0  0  0  0  0  0  0  0  0  0  0
    2.4560   -1.8730   -1.1540 C   0  0  0  0  0  0  0  0  0  0  0  0
    3.2670   -1.6960    0.0980 C   0  0  0  0  0  0  0  0  0  0  0  0
    3.0650   -2.9400    0.9530 C   0  0  2  0  0  0  0  0  0  0  0  0
    3.4850   -4.1300    0.2910 N   0  0  0  0  0  0  0  0  0  0  0  0
    1.6400   -3.0400    1.3530 C   0  0  0  0  0  0  0  0  0  0  0  0
    0.9420   -4.0730    1.1040 O   0  0  0  0  0  0  0  0  0  0  0  0
    0.9720   -1.2040   -3.4980 H   0  0  0  0  0  0  0  0  0  0  0  0
    2.3060   -0.2290   -4.1210 H   0  0  0  0  0  0  0  0  0  0  0  0
    1.3760   -1.9440   -0.8580 H   0  0  0  0  0  0  0  0  0  0  0  0
    2.7960   -2.7800   -1.6950 H   0  0  0  0  0  0  0  0  0  0  0  0
    2.9040   -0.7940    0.6080 H   0  0  0  0  0  0  0  0  0  0  0  0
    4.3390   -1.5620   -0.1530 H   0  0  0  0  0  0  0  0  0  0  0  0
    3.6780   -2.8460    1.8910 H   0  0  0  0  0  0  0  0  0  0  0  0
    4.5140   -4.1580    0.1320 H   0  0  0  0  0  0  0  0  0  0  0  0
    2.9110   -4.4310   -0.5020 H   0  0  0  0  0  0  0  0  0  0  0  0
    0.0790   -3.3420    4.4460 C   0  0  0  0  0  0  0  0  0  0  0  0
   -0.5710   -2.0660    3.9320 C   0  0  1  0  0  0  0  0  0  0  0  0
   -0.0850   -0.9340    4.5390 O   0  0  0  0  0  0  0  0  0  0  0  0
   -0.4000   -2.0710    2.4280 C   0  0  2  0  0  0  0  0  0  0  0  0
    0.9860   -1.9800    2.0360 N   0  0  0  0  0  0  0  0  0  0  0  0
   -1.2540   -1.0630    1.7550 C   0  0  0  0  0  0  0  0  0  0  0  0
   -2.4770   -1.0720    2.0510 O   0  0  0  0  0  0  0  0  0  0  0  0
    1.0910   -3.4760    4.0040 H   0  0  0  0  0  0  0  0  0  0  0  0
   -0.5540   -4.1910    4.1140 H   0  0  0  0  0  0  0  0  0  0  0  0
    0.0730   -3.3490    5.5470 H   0  0  0  0  0  0  0  0  0  0  0  0
   -1.6750   -2.1960    4.1090 H   0  0  0  0  0  0  0  0  0  0  0  0
   -0.0640   -1.1000    5.5100 H   0  0  0  0  0  0  0  0  0  0  0  0
   -0.7730   -3.0650    2.0880 H   0  0  0  0  0  0  0  0  0  0  0  0
    1.5740   -1.1190    2.2420 H   0  0  0  0  0  0  0  0  0  0  0  0
   -4.4450    4.2350   -0.0930 N   0  0  0  0  0  0  0  0  0  0  0  0
   -3.5200    3.3050    0.4480 C   0  0  0  0  0  0  0  0  0  0  0  0
   -3.8940    2.5320    1.3420 O   0  0  0  0  0  0  0  0  0  0  0  0
   -2.1420    3.2990   -0.0800 C   0  0  0  0  0  0  0  0  0  0  0  0
   -1.2670    2.2290    0.4850 C   0  0  0  0  0  0  0  0  0  0  0  0
   -1.7330    0.8260    0.2300 C   0  0  2  0  0  0  0  0  0  0  0  0
   -0.7940   -0.1210    0.8300 N   0  0  0  0  0  0  0  0  0  0  0  0
   -1.8270    0.5390   -1.2440 C   0  0  0  0  0  0  0  0  0  0  0  0
   -2.5690    1.2010   -2.0080 O   0  0  0  0  0  0  0  0  0  0  0  0
   -1.0830   -0.4860   -1.8180 O   0  0  0  0  0  0  0  0  0  0  0  0
   -5.1650    4.7230    0.5160 H   0  0  0  0  0  0  0  0  0  0  0  0
   -4.4820    4.5000   -1.1060 H   0  0  0  0  0  0  0  0  0  0  0  0
   -2.1210    3.3370   -1.1920 H   0  0  0  0  0  0  0  0  0  0  0  0
   -1.7100    4.3000    0.2240 H   0  0  0  0  0  0  0  0  0  0  0  0
   -1.2250    2.3820    1.5840 H   0  0  0  0  0  0  0  0  0  0  0  0
   -0.2470    2.3110    0.0250 H   0  0  0  0  0  0  0  0  0  0  0  0
   -2.7460    0.6740    0.6300 H   0  0  0  0  0  0  0  0  0  0  0  0
    0.1910   -0.0870    0.5680 H   0  0  0  0  0  0  0  0  0  0  0  0
  1  2  1  0  0  0  0
  2  3  2  0  0  0  0
  2  4  1  0  0  0  0
  4 12  1  0  0  0  0
  4  5  1  0  0  0  0
  5 14  1  0  0  0  0
  5  6  1  0  0  0  0
  6  8  1  0  0  0  0
  6 16  1  1  0  0  0
  7  6  1  0  0  0  0
  8 23  1  0  0  0  0
  9  8  2  0  0  0  0
 10  1  1  0  0  0  0
 11  1  1  0  0  0  0
 13  4  1  0  0  0  0
 15  5  1  0  0  0  0
 17  7  1  0  0  0  0
 18  7  1  0  0  0  0
 19 28  1  0  0  0  0
 20 29  1  1  0  0  0
 20 19  1  0  0  0  0
 20 21  1  0  0  0  0
 21 30  1  0  0  0  0
 22 31  1  6  0  0  0
 22 20  1  0  0  0  0
 23 32  1  0  0  0  0
 23 22  1  0  0  0  0
 24 25  2  0  0  0  0
 24 22  1  0  0  0  0
 26 19  1  0  0  0  0
 27 19  1  0  0  0  0
 33 34  1  0  0  0  0
 33 43  1  0  0  0  0
 34 35  2  0  0  0  0
 36 46  1  0  0  0  0
 36 34  1  0  0  0  0
 36 37  1  0  0  0  0
 37 47  1  0  0  0  0
 38 37  1  0  0  0  0
 38 49  1  1  0  0  0
 38 39  1  0  0  0  0
 39 24  1  0  0  0  0
 40 38  1  0  0  0  0
 41 40  2  0  0  0  0
 42 40  1  0  0  0  0
 44 33  1  0  0  0  0
 45 36  1  0  0  0  0
 48 37  1  0  0  0  0
 50 39  1  0  0  0  0
M  END
$$$$
