QTS.pdb
 OpenBabel07022418343D

 44 43  0  0  1  0  0  0  0  0999 V2000
    3.7080   -5.1250    3.6470 N   0  0  0  0  0  0  0  0  0  0  0  0
    3.5840   -3.8290    3.0770 C   0  0  0  0  0  0  0  0  0  0  0  0
    3.4430   -2.8550    3.8460 O   0  0  0  0  0  0  0  0  0  0  0  0
    3.6280   -3.6860    1.6150 C   0  0  0  0  0  0  0  0  0  0  0  0
    3.3400   -2.3000    1.1380 C   0  0  0  0  0  0  0  0  0  0  0  0
    1.9750   -1.8320    1.5150 C   0  0  2  0  0  0  0  0  0  0  0  0
    0.9830   -2.7410    0.9180 N   0  0  0  0  0  0  0  0  0  0  0  0
    1.7220   -0.4550    0.9740 C   0  0  0  0  0  0  0  0  0  0  0  0
    2.4480    0.4940    1.3430 O   0  0  0  0  0  0  0  0  0  0  0  0
    3.2990   -5.3190    4.5860 H   0  0  0  0  0  0  0  0  0  0  0  0
    4.1960   -5.9170    3.1740 H   0  0  0  0  0  0  0  0  0  0  0  0
    2.8910   -4.4130    1.1630 H   0  0  0  0  0  0  0  0  0  0  0  0
    4.6380   -4.0390    1.2580 H   0  0  0  0  0  0  0  0  0  0  0  0
    3.5050   -2.2530    0.0260 H   0  0  0  0  0  0  0  0  0  0  0  0
    4.1130   -1.5940    1.5580 H   0  0  0  0  0  0  0  0  0  0  0  0
    1.8210   -1.8650    2.5880 H   0  0  0  0  0  0  0  0  0  0  0  0
    1.3570   -2.9680   -0.0340 H   0  0  0  0  0  0  0  0  0  0  0  0
    1.0270   -3.6400    1.4590 H   0  0  0  0  0  0  0  0  0  0  0  0
    0.4590    2.5780   -2.5240 C   0  0  0  0  0  0  0  0  0  0  0  0
    0.6230    1.1940   -1.9700 C   0  0  1  0  0  0  0  0  0  0  0  0
    1.9540    0.8120   -2.2160 O   0  0  0  0  0  0  0  0  0  0  0  0
    0.4350    1.1460   -0.4740 C   0  0  2  0  0  0  0  0  0  0  0  0
    0.6760   -0.1850    0.0470 N   0  0  0  0  0  0  0  0  0  0  0  0
   -0.8960    1.6060   -0.0420 C   0  0  0  0  0  0  0  0  0  0  0  0
   -1.3090    2.7530   -0.3870 O   0  0  0  0  0  0  0  0  0  0  0  0
   -0.6260    2.8340   -2.6870 H   0  0  0  0  0  0  0  0  0  0  0  0
    0.9580    3.3390   -1.8940 H   0  0  0  0  0  0  0  0  0  0  0  0
    0.9540    2.6120   -3.5200 H   0  0  0  0  0  0  0  0  0  0  0  0
   -0.0190    0.5010   -2.5170 H   0  0  0  0  0  0  0  0  0  0  0  0
    2.5810    1.5580   -2.0600 H   0  0  0  0  0  0  0  0  0  0  0  0
    1.1880    1.8200   -0.0150 H   0  0  0  0  0  0  0  0  0  0  0  0
    0.0920   -1.0050   -0.2370 H   0  0  0  0  0  0  0  0  0  0  0  0
   -5.4020    0.9020    1.1400 O   0  0  0  0  0  0  0  0  0  0  0  0
   -4.1920    0.3970    0.6440 C   0  0  0  0  0  0  0  0  0  0  0  0
   -3.0620    1.2370    1.1950 C   0  0  2  0  0  0  0  0  0  0  0  0
   -1.7730    0.8200    0.7630 N   0  0  0  0  0  0  0  0  0  0  0  0
   -3.1830    1.3520    2.6700 C   0  0  0  0  0  0  0  0  0  0  0  0
   -2.2270    1.1040    3.4620 O   0  0  0  0  0  0  0  0  0  0  0  0
   -4.3790    1.7470    3.2510 O   0  0  0  0  0  0  0  0  0  0  0  0
   -6.1090    0.2930    0.7940 H   0  0  0  0  0  0  0  0  0  0  0  0
   -4.1040   -0.6690    0.8610 H   0  0  0  0  0  0  0  0  0  0  0  0
   -4.2690    0.4920   -0.4660 H   0  0  0  0  0  0  0  0  0  0  0  0
   -3.2300    2.2760    0.7860 H   0  0  0  0  0  0  0  0  0  0  0  0
   -1.3910   -0.1360    1.0320 H   0  0  0  0  0  0  0  0  0  0  0  0
  1 10  1  0  0  0  0
  2  1  1  0  0  0  0
  2  3  2  0  0  0  0
  4  2  1  0  0  0  0
  5  6  1  0  0  0  0
  5 15  1  0  0  0  0
  5  4  1  0  0  0  0
  6 16  1  1  0  0  0
  7 18  1  0  0  0  0
  7  6  1  0  0  0  0
  8  9  2  0  0  0  0
  8  6  1  0  0  0  0
 11  1  1  0  0  0  0
 12  4  1  0  0  0  0
 13  4  1  0  0  0  0
 14  5  1  0  0  0  0
 17  7  1  0  0  0  0
 19 20  1  0  0  0  0
 19 27  1  0  0  0  0
 20 29  1  6  0  0  0
 20 22  1  0  0  0  0
 21 30  1  0  0  0  0
 21 20  1  0  0  0  0
 22 24  1  0  0  0  0
 22 31  1  1  0  0  0
 22 23  1  0  0  0  0
 23  8  1  0  0  0  0
 24 36  1  0  0  0  0
 25 24  2  0  0  0  0
 26 19  1  0  0  0  0
 28 19  1  0  0  0  0
 32 23  1  0  0  0  0
 34 41  1  0  0  0  0
 34 33  1  0  0  0  0
 34 35  1  0  0  0  0
 35 43  1  6  0  0  0
 35 37  1  0  0  0  0
 36 44  1  0  0  0  0
 36 35  1  0  0  0  0
 37 39  2  0  0  0  0
 37 38  1  0  0  0  0
 40 33  1  0  0  0  0
 42 34  1  0  0  0  0
M  END
$$$$
