QTY.pdb
 OpenBabel07022418343D

 54 54  0  0  1  0  0  0  0  0999 V2000
    6.1840   -2.7390    0.6630 N   0  0  0  0  0  0  0  0  0  0  0  0
    5.8270   -1.9520    1.8130 C   0  0  0  0  0  0  0  0  0  0  0  0
    5.6190   -2.5540    2.8830 O   0  0  0  0  0  0  0  0  0  0  0  0
    5.7250   -0.5110    1.7010 C   0  0  0  0  0  0  0  0  0  0  0  0
    5.0350    0.2370    2.7820 C   0  0  0  0  0  0  0  0  0  0  0  0
    3.5910   -0.0720    2.9830 C   0  0  2  0  0  0  0  0  0  0  0  0
    3.3240   -1.4400    3.3320 N   0  0  0  0  0  0  0  0  0  0  0  0
    2.7710    0.3790    1.8070 C   0  0  0  0  0  0  0  0  0  0  0  0
    2.7800    1.5770    1.4290 O   0  0  0  0  0  0  0  0  0  0  0  0
    6.8690   -2.4080   -0.0250 H   0  0  0  0  0  0  0  0  0  0  0  0
    5.7340   -3.6580    0.5340 H   0  0  0  0  0  0  0  0  0  0  0  0
    5.2160   -0.2580    0.7320 H   0  0  0  0  0  0  0  0  0  0  0  0
    6.7510   -0.0630    1.5820 H   0  0  0  0  0  0  0  0  0  0  0  0
    5.2300    1.3250    2.6410 H   0  0  0  0  0  0  0  0  0  0  0  0
    5.5900   -0.0040    3.7380 H   0  0  0  0  0  0  0  0  0  0  0  0
    3.2320    0.5680    3.8420 H   0  0  0  0  0  0  0  0  0  0  0  0
    2.2620   -1.5510    3.3980 H   0  0  0  0  0  0  0  0  0  0  0  0
    3.5950   -1.5570    4.3660 H   0  0  0  0  0  0  0  0  0  0  0  0
    3.1300   -0.6300   -1.4220 C   0  0  0  0  0  0  0  0  0  0  0  0
    1.6700   -0.9670   -1.2140 C   0  0  1  0  0  0  0  0  0  0  0  0
    1.5070   -2.3150   -0.9030 O   0  0  0  0  0  0  0  0  0  0  0  0
    1.1590   -0.1630   -0.0370 C   0  0  2  0  0  0  0  0  0  0  0  0
    1.9760   -0.5670    1.1170 N   0  0  0  0  0  0  0  0  0  0  0  0
   -0.2420   -0.4980    0.2800 C   0  0  0  0  0  0  0  0  0  0  0  0
   -0.5580   -1.0250    1.3620 O   0  0  0  0  0  0  0  0  0  0  0  0
    3.7990   -1.4070   -0.9830 H   0  0  0  0  0  0  0  0  0  0  0  0
    3.3680    0.3820   -1.0390 H   0  0  0  0  0  0  0  0  0  0  0  0
    3.3510   -0.6240   -2.5080 H   0  0  0  0  0  0  0  0  0  0  0  0
    1.1390   -0.7060   -2.1500 H   0  0  0  0  0  0  0  0  0  0  0  0
    0.7370   -2.7160   -1.4050 H   0  0  0  0  0  0  0  0  0  0  0  0
    1.3130    0.9160   -0.1710 H   0  0  0  0  0  0  0  0  0  0  0  0
    1.9700   -1.5780    1.4290 H   0  0  0  0  0  0  0  0  0  0  0  0
   -8.9980   -0.5480    0.6940 O   0  0  0  0  0  0  0  0  0  0  0  0
   -7.6530   -0.2440    0.4280 C   0  0  0  0  0  0  0  0  0  0  0  0
   -7.1940   -0.1320   -0.8640 C   0  0  0  0  0  0  0  0  0  0  0  0
   -5.8790    0.1650   -1.1490 C   0  0  0  0  0  0  0  0  0  0  0  0
   -4.9540    0.3670   -0.1380 C   0  0  0  0  0  0  0  0  0  0  0  0
   -3.5310    0.6900   -0.3700 C   0  0  0  0  0  0  0  0  0  0  0  0
   -2.6830   -0.5270   -0.4170 C   0  0  2  0  0  0  0  0  0  0  0  0
   -1.2810   -0.2300   -0.6460 N   0  0  0  0  0  0  0  0  0  0  0  0
   -3.1290   -1.5870   -1.3350 C   0  0  0  0  0  0  0  0  0  0  0  0
   -2.3250   -2.0470   -2.1820 O   0  0  0  0  0  0  0  0  0  0  0  0
   -5.4360    0.2510    1.1660 C   0  0  0  0  0  0  0  0  0  0  0  0
   -6.7490   -0.0470    1.4470 C   0  0  0  0  0  0  0  0  0  0  0  0
   -4.4070   -2.0950   -1.2920 O   0  0  0  0  0  0  0  0  0  0  0  0
   -9.1700   -1.4950    1.0250 H   0  0  0  0  0  0  0  0  0  0  0  0
   -7.9130   -0.2890   -1.6550 H   0  0  0  0  0  0  0  0  0  0  0  0
   -5.5640    0.2430   -2.1620 H   0  0  0  0  0  0  0  0  0  0  0  0
   -3.2280    1.3540    0.4640 H   0  0  0  0  0  0  0  0  0  0  0  0
   -3.4600    1.3190   -1.2910 H   0  0  0  0  0  0  0  0  0  0  0  0
   -2.7150   -0.9850    0.6160 H   0  0  0  0  0  0  0  0  0  0  0  0
   -1.0180    0.2110   -1.5520 H   0  0  0  0  0  0  0  0  0  0  0  0
   -4.6960    0.4120    1.9630 H   0  0  0  0  0  0  0  0  0  0  0  0
   -7.0850   -0.1280    2.4570 H   0  0  0  0  0  0  0  0  0  0  0  0
  1  2  1  0  0  0  0
  2  3  2  0  0  0  0
  4  2  1  0  0  0  0
  4  5  1  0  0  0  0
  5  6  1  0  0  0  0
  5 15  1  0  0  0  0
  6  7  1  0  0  0  0
  6 16  1  1  0  0  0
  7 17  1  0  0  0  0
  7 18  1  0  0  0  0
  8  6  1  0  0  0  0
  9  8  2  0  0  0  0
 10  1  1  0  0  0  0
 11  1  1  0  0  0  0
 12  4  1  0  0  0  0
 13  4  1  0  0  0  0
 14  5  1  0  0  0  0
 19 20  1  0  0  0  0
 19 27  1  0  0  0  0
 19 26  1  0  0  0  0
 20 29  1  6  0  0  0
 20 21  1  0  0  0  0
 20 22  1  0  0  0  0
 22 31  1  6  0  0  0
 22 24  1  0  0  0  0
 22 23  1  0  0  0  0
 23 32  1  0  0  0  0
 23  8  1  0  0  0  0
 24 25  2  0  0  0  0
 28 19  1  0  0  0  0
 30 21  1  0  0  0  0
 33 46  1  0  0  0  0
 34 33  1  0  0  0  0
 34 44  1  0  0  0  0
 35 34  2  0  0  0  0
 36 35  1  0  0  0  0
 36 37  2  0  0  0  0
 37 43  1  0  0  0  0
 38 37  1  0  0  0  0
 38 49  1  0  0  0  0
 39 38  1  0  0  0  0
 39 51  1  1  0  0  0
 40 39  1  0  0  0  0
 40 24  1  0  0  0  0
 41 45  1  0  0  0  0
 41 39  1  0  0  0  0
 42 41  2  0  0  0  0
 43 44  2  0  0  0  0
 43 53  1  0  0  0  0
 44 54  1  0  0  0  0
 47 35  1  0  0  0  0
 48 36  1  0  0  0  0
 50 38  1  0  0  0  0
 52 40  1  0  0  0  0
M  END
$$$$
