QVF.pdb
 OpenBabel07022418343D

 55 55  0  0  1  0  0  0  0  0999 V2000
    4.7080   -3.8590    1.5740 N   0  0  0  0  0  0  0  0  0  0  0  0
    4.9200   -2.4800    1.3470 C   0  0  0  0  0  0  0  0  0  0  0  0
    5.8950   -1.9470    1.9120 O   0  0  0  0  0  0  0  0  0  0  0  0
    4.0240   -1.7360    0.4840 C   0  0  0  0  0  0  0  0  0  0  0  0
    4.1780   -0.2680    0.4110 C   0  0  0  0  0  0  0  0  0  0  0  0
    3.9840    0.5250    1.6430 C   0  0  2  0  0  0  0  0  0  0  0  0
    4.8230    0.2740    2.7490 N   0  0  0  0  0  0  0  0  0  0  0  0
    2.5590    0.5480    2.1020 C   0  0  0  0  0  0  0  0  0  0  0  0
    2.2690    0.3580    3.3070 O   0  0  0  0  0  0  0  0  0  0  0  0
    4.5540   -4.2190    2.5320 H   0  0  0  0  0  0  0  0  0  0  0  0
    4.7050   -4.5280    0.7840 H   0  0  0  0  0  0  0  0  0  0  0  0
    2.9310   -1.9480    0.7110 H   0  0  0  0  0  0  0  0  0  0  0  0
    4.0990   -2.1120   -0.5860 H   0  0  0  0  0  0  0  0  0  0  0  0
    5.1880    0.0340   -0.0060 H   0  0  0  0  0  0  0  0  0  0  0  0
    3.4720    0.1690   -0.3580 H   0  0  0  0  0  0  0  0  0  0  0  0
    4.1780    1.6020    1.3400 H   0  0  0  0  0  0  0  0  0  0  0  0
    5.6420    0.8680    2.8710 H   0  0  0  0  0  0  0  0  0  0  0  0
    4.3970   -0.1240    3.5880 H   0  0  0  0  0  0  0  0  0  0  0  0
    0.2040    3.2520    2.1850 C   0  0  0  0  0  0  0  0  0  0  0  0
   -0.5250    2.1300    1.4640 C   0  0  0  0  0  0  0  0  0  0  0  0
   -0.7060    2.4830    0.0260 C   0  0  0  0  0  0  0  0  0  0  0  0
    0.1530    0.7950    1.6720 C   0  0  2  0  0  0  0  0  0  0  0  0
    1.5040    0.7830    1.1890 N   0  0  0  0  0  0  0  0  0  0  0  0
   -0.6840   -0.2230    0.9920 C   0  0  0  0  0  0  0  0  0  0  0  0
   -0.1570   -0.9450    0.1220 O   0  0  0  0  0  0  0  0  0  0  0  0
   -0.3630    4.1830    1.9440 H   0  0  0  0  0  0  0  0  0  0  0  0
    0.0720    3.0810    3.2650 H   0  0  0  0  0  0  0  0  0  0  0  0
    1.2500    3.3300    1.8690 H   0  0  0  0  0  0  0  0  0  0  0  0
   -1.5280    2.0640    1.9340 H   0  0  0  0  0  0  0  0  0  0  0  0
    0.1570    2.9920   -0.4100 H   0  0  0  0  0  0  0  0  0  0  0  0
   -0.9940    1.5780   -0.5410 H   0  0  0  0  0  0  0  0  0  0  0  0
   -1.5580    3.2230   -0.0250 H   0  0  0  0  0  0  0  0  0  0  0  0
    0.1460    0.6070    2.7520 H   0  0  0  0  0  0  0  0  0  0  0  0
    1.6650    0.9480    0.1780 H   0  0  0  0  0  0  0  0  0  0  0  0
   -2.0400   -0.3740    1.3210 N   0  0  0  0  0  0  0  0  0  0  0  0
   -2.8360   -1.3760    0.6500 C   0  0  1  0  0  0  0  0  0  0  0  0
   -3.0350   -0.9470   -0.7650 C   0  0  0  0  0  0  0  0  0  0  0  0
   -3.8270   -1.8620   -1.5910 C   0  0  0  0  0  0  0  0  0  0  0  0
   -5.2140   -1.7280   -1.6310 C   0  0  0  0  0  0  0  0  0  0  0  0
   -5.9820   -2.5570   -2.3950 C   0  0  0  0  0  0  0  0  0  0  0  0
   -5.4190   -3.5580   -3.1580 C   0  0  0  0  0  0  0  0  0  0  0  0
   -4.0560   -3.7110   -3.1370 C   0  0  0  0  0  0  0  0  0  0  0  0
   -3.2780   -2.8620   -2.3550 C   0  0  0  0  0  0  0  0  0  0  0  0
   -2.2290   -2.7290    0.7640 C   0  0  0  0  0  0  0  0  0  0  0  0
   -1.1630   -2.9490    1.3860 O   0  0  0  0  0  0  0  0  0  0  0  0
   -2.8250   -3.8390    0.1760 O   0  0  0  0  0  0  0  0  0  0  0  0
   -2.4500    0.2480    2.0510 H   0  0  0  0  0  0  0  0  0  0  0  0
   -3.8310   -1.4500    1.1730 H   0  0  0  0  0  0  0  0  0  0  0  0
   -2.0250   -0.8200   -1.2490 H   0  0  0  0  0  0  0  0  0  0  0  0
   -3.4890    0.0650   -0.8260 H   0  0  0  0  0  0  0  0  0  0  0  0
   -5.6910   -0.9490   -1.0410 H   0  0  0  0  0  0  0  0  0  0  0  0
   -7.0650   -2.4720   -2.4420 H   0  0  0  0  0  0  0  0  0  0  0  0
   -6.0000   -4.2330   -3.7760 H   0  0  0  0  0  0  0  0  0  0  0  0
   -3.5560   -4.4700   -3.7070 H   0  0  0  0  0  0  0  0  0  0  0  0
   -2.2010   -2.9820   -2.3420 H   0  0  0  0  0  0  0  0  0  0  0  0
  1 10  1  0  0  0  0
  2  1  1  0  0  0  0
  2  3  2  0  0  0  0
  4 12  1  0  0  0  0
  4  2  1  0  0  0  0
  5  4  1  0  0  0  0
  5  6  1  0  0  0  0
  6 16  1  6  0  0  0
  6  8  1  0  0  0  0
  6  7  1  0  0  0  0
  7 17  1  0  0  0  0
  7 18  1  0  0  0  0
  8  9  2  0  0  0  0
 11  1  1  0  0  0  0
 13  4  1  0  0  0  0
 14  5  1  0  0  0  0
 15  5  1  0  0  0  0
 19 27  1  0  0  0  0
 20 22  1  0  0  0  0
 20 29  1  0  0  0  0
 20 19  1  0  0  0  0
 21 20  1  0  0  0  0
 22 33  1  1  0  0  0
 23 22  1  0  0  0  0
 23  8  1  0  0  0  0
 24 35  1  0  0  0  0
 24 22  1  0  0  0  0
 25 24  2  0  0  0  0
 26 19  1  0  0  0  0
 28 19  1  0  0  0  0
 30 21  1  0  0  0  0
 31 21  1  0  0  0  0
 32 21  1  0  0  0  0
 34 23  1  0  0  0  0
 35 47  1  0  0  0  0
 36 44  1  0  0  0  0
 36 48  1  1  0  0  0
 36 35  1  0  0  0  0
 37 36  1  0  0  0  0
 38 37  1  0  0  0  0
 39 38  1  0  0  0  0
 39 51  1  0  0  0  0
 40 39  2  0  0  0  0
 41 42  2  0  0  0  0
 41 40  1  0  0  0  0
 42 43  1  0  0  0  0
 43 55  1  0  0  0  0
 43 38  2  0  0  0  0
 44 45  1  0  0  0  0
 46 44  2  0  0  0  0
 49 37  1  0  0  0  0
 50 37  1  0  0  0  0
 52 40  1  0  0  0  0
 53 41  1  0  0  0  0
 54 42  1  0  0  0  0
M  END
$$$$
