QVG.pdb
 OpenBabel07022418343D

 42 41  0  0  1  0  0  0  0  0999 V2000
   -0.5930   -5.4480    4.2000 N   0  0  0  0  0  0  0  0  0  0  0  0
    0.2360   -4.3160    3.8510 C   0  0  0  0  0  0  0  0  0  0  0  0
    0.2190   -3.3800    4.6860 O   0  0  0  0  0  0  0  0  0  0  0  0
    1.0170   -4.3280    2.5970 C   0  0  0  0  0  0  0  0  0  0  0  0
    1.6870   -3.0200    2.2900 C   0  0  0  0  0  0  0  0  0  0  0  0
    0.6600   -1.9590    2.1200 C   0  0  2  0  0  0  0  0  0  0  0  0
   -0.2040   -2.3770    1.0040 N   0  0  0  0  0  0  0  0  0  0  0  0
    1.2270   -0.6520    1.7050 C   0  0  0  0  0  0  0  0  0  0  0  0
    2.0170   -0.0120    2.4360 O   0  0  0  0  0  0  0  0  0  0  0  0
   -1.5560   -5.3200    4.5800 H   0  0  0  0  0  0  0  0  0  0  0  0
   -0.2340   -6.4250    4.0730 H   0  0  0  0  0  0  0  0  0  0  0  0
    1.7300   -5.1810    2.6020 H   0  0  0  0  0  0  0  0  0  0  0  0
    0.2610   -4.4940    1.7730 H   0  0  0  0  0  0  0  0  0  0  0  0
    2.3740   -2.7870    3.1560 H   0  0  0  0  0  0  0  0  0  0  0  0
    2.3450   -3.1510    1.4050 H   0  0  0  0  0  0  0  0  0  0  0  0
    0.0580   -1.8570    3.0120 H   0  0  0  0  0  0  0  0  0  0  0  0
    0.3380   -2.5590    0.1450 H   0  0  0  0  0  0  0  0  0  0  0  0
   -1.0100   -1.7550    0.8900 H   0  0  0  0  0  0  0  0  0  0  0  0
    1.2670    0.9060   -2.4900 C   0  0  0  0  0  0  0  0  0  0  0  0
    2.0950    1.3220   -1.3050 C   0  0  0  0  0  0  0  0  0  0  0  0
    3.5070    0.8000   -1.3530 C   0  0  0  0  0  0  0  0  0  0  0  0
    1.4230    1.2070   -0.0020 C   0  0  2  0  0  0  0  0  0  0  0  0
    0.9470   -0.0100    0.4790 N   0  0  0  0  0  0  0  0  0  0  0  0
    0.2670    2.1820   -0.0240 C   0  0  0  0  0  0  0  0  0  0  0  0
    0.4340    3.3680   -0.4220 O   0  0  0  0  0  0  0  0  0  0  0  0
    0.6840    0.0120   -2.1740 H   0  0  0  0  0  0  0  0  0  0  0  0
    1.8040    0.7060   -3.3980 H   0  0  0  0  0  0  0  0  0  0  0  0
    0.4830    1.6790   -2.7290 H   0  0  0  0  0  0  0  0  0  0  0  0
    2.1940    2.4240   -1.4750 H   0  0  0  0  0  0  0  0  0  0  0  0
    4.2170    1.5020   -1.8430 H   0  0  0  0  0  0  0  0  0  0  0  0
    3.5800   -0.1330   -1.9870 H   0  0  0  0  0  0  0  0  0  0  0  0
    3.9370    0.6280   -0.3410 H   0  0  0  0  0  0  0  0  0  0  0  0
    2.1110    1.6400    0.7750 H   0  0  0  0  0  0  0  0  0  0  0  0
    0.2760   -0.5350   -0.1640 H   0  0  0  0  0  0  0  0  0  0  0  0
   -1.0300    1.8150    0.3940 N   0  0  0  0  0  0  0  0  0  0  0  0
   -2.1240    2.7970    0.3540 C   0  0  0  0  0  0  0  0  0  0  0  0
   -3.3760    2.1960    0.8320 C   0  0  0  0  0  0  0  0  0  0  0  0
   -4.4040    2.9130    0.8570 O   0  0  0  0  0  0  0  0  0  0  0  0
   -3.4890    0.8780    1.2580 O   0  0  0  0  0  0  0  0  0  0  0  0
   -1.1950    0.8550    0.7230 H   0  0  0  0  0  0  0  0  0  0  0  0
   -2.2550    3.1730   -0.6820 H   0  0  0  0  0  0  0  0  0  0  0  0
   -1.8610    3.6340    1.0170 H   0  0  0  0  0  0  0  0  0  0  0  0
  1 10  1  0  0  0  0
  2  1  1  0  0  0  0
  2  3  2  0  0  0  0
  4 12  1  0  0  0  0
  4  2  1  0  0  0  0
  5  4  1  0  0  0  0
  5 14  1  0  0  0  0
  6  5  1  0  0  0  0
  6 16  1  1  0  0  0
  7  6  1  0  0  0  0
  8  6  1  0  0  0  0
  8  9  2  0  0  0  0
 11  1  1  0  0  0  0
 13  4  1  0  0  0  0
 15  5  1  0  0  0  0
 17  7  1  0  0  0  0
 18  7  1  0  0  0  0
 19 26  1  0  0  0  0
 19 20  1  0  0  0  0
 20 22  1  0  0  0  0
 21 20  1  0  0  0  0
 21 32  1  0  0  0  0
 22 23  1  0  0  0  0
 22 33  1  1  0  0  0
 23  8  1  0  0  0  0
 24 22  1  0  0  0  0
 24 35  1  0  0  0  0
 25 24  2  0  0  0  0
 27 19  1  0  0  0  0
 28 19  1  0  0  0  0
 29 20  1  0  0  0  0
 30 21  1  0  0  0  0
 31 21  1  0  0  0  0
 34 23  1  0  0  0  0
 35 40  1  0  0  0  0
 36 35  1  0  0  0  0
 36 37  1  0  0  0  0
 36 42  1  0  0  0  0
 37 38  2  0  0  0  0
 37 39  1  0  0  0  0
 41 36  1  0  0  0  0
M  END
$$$$
