QVM.pdb
 OpenBabel07022418343D

 52 51  0  0  1  0  0  0  0  0999 V2000
    2.1550   -7.0070    1.6990 N   0  0  0  0  0  0  0  0  0  0  0  0
    1.6820   -5.6960    1.9780 C   0  0  0  0  0  0  0  0  0  0  0  0
    1.6600   -5.3640    3.1870 O   0  0  0  0  0  0  0  0  0  0  0  0
    1.2480   -4.8100    0.8880 C   0  0  0  0  0  0  0  0  0  0  0  0
    1.1170   -3.3700    1.1970 C   0  0  0  0  0  0  0  0  0  0  0  0
    2.3470   -2.6360    1.5920 C   0  0  2  0  0  0  0  0  0  0  0  0
    2.9260   -3.1920    2.7750 N   0  0  0  0  0  0  0  0  0  0  0  0
    2.0640   -1.1690    1.8000 C   0  0  0  0  0  0  0  0  0  0  0  0
    2.3630   -0.6360    2.8890 O   0  0  0  0  0  0  0  0  0  0  0  0
    1.8030   -7.8210    2.2290 H   0  0  0  0  0  0  0  0  0  0  0  0
    2.8620   -7.1420    0.9560 H   0  0  0  0  0  0  0  0  0  0  0  0
    0.2180   -5.1630    0.5750 H   0  0  0  0  0  0  0  0  0  0  0  0
    1.8600   -4.9820   -0.0360 H   0  0  0  0  0  0  0  0  0  0  0  0
    0.3460   -3.2690    2.0240 H   0  0  0  0  0  0  0  0  0  0  0  0
    0.6110   -2.8880    0.3100 H   0  0  0  0  0  0  0  0  0  0  0  0
    3.1260   -2.6610    0.7790 H   0  0  0  0  0  0  0  0  0  0  0  0
    3.7940   -3.7410    2.5840 H   0  0  0  0  0  0  0  0  0  0  0  0
    3.0860   -2.4610    3.5260 H   0  0  0  0  0  0  0  0  0  0  0  0
    1.6140    3.2550   -0.0370 C   0  0  0  0  0  0  0  0  0  0  0  0
    1.9250    1.7790   -0.1630 C   0  0  0  0  0  0  0  0  0  0  0  0
    3.4170    1.6330    0.0690 C   0  0  0  0  0  0  0  0  0  0  0  0
    1.1590    0.9670    0.8600 C   0  0  2  0  0  0  0  0  0  0  0  0
    1.4620   -0.4520    0.7330 N   0  0  0  0  0  0  0  0  0  0  0  0
   -0.2940    1.2370    0.7910 C   0  0  0  0  0  0  0  0  0  0  0  0
   -0.6980    2.3990    0.8950 O   0  0  0  0  0  0  0  0  0  0  0  0
    1.4140    3.5440    1.0140 H   0  0  0  0  0  0  0  0  0  0  0  0
    0.7740    3.5130   -0.7080 H   0  0  0  0  0  0  0  0  0  0  0  0
    2.5100    3.8370   -0.3720 H   0  0  0  0  0  0  0  0  0  0  0  0
    1.7130    1.4760   -1.1960 H   0  0  0  0  0  0  0  0  0  0  0  0
    3.7670    2.4350    0.7710 H   0  0  0  0  0  0  0  0  0  0  0  0
    3.9920    1.6830   -0.8940 H   0  0  0  0  0  0  0  0  0  0  0  0
    3.6890    0.6770    0.5440 H   0  0  0  0  0  0  0  0  0  0  0  0
    1.4920    1.2920    1.8660 H   0  0  0  0  0  0  0  0  0  0  0  0
    1.2440   -0.9800   -0.1450 H   0  0  0  0  0  0  0  0  0  0  0  0
   -4.3370    2.8310   -1.9970 C   0  0  0  0  0  0  0  0  0  0  0  0
   -5.0010    1.8830   -0.5980 S   0  0  0  0  0  0  0  0  0  0  0  0
   -4.6810    0.0910   -0.8290 C   0  0  0  0  0  0  0  0  0  0  0  0
   -3.1950   -0.1040   -0.7620 C   0  0  0  0  0  0  0  0  0  0  0  0
   -2.6500    0.3630    0.5330 C   0  0  2  0  0  0  0  0  0  0  0  0
   -1.2030    0.1910    0.6110 N   0  0  0  0  0  0  0  0  0  0  0  0
   -3.2340   -0.3680    1.6640 C   0  0  0  0  0  0  0  0  0  0  0  0
   -2.4740   -1.0380    2.4190 O   0  0  0  0  0  0  0  0  0  0  0  0
   -4.5740   -0.3950    1.9950 O   0  0  0  0  0  0  0  0  0  0  0  0
   -4.0110    2.1040   -2.7650 H   0  0  0  0  0  0  0  0  0  0  0  0
   -5.1260    3.4840   -2.4550 H   0  0  0  0  0  0  0  0  0  0  0  0
   -3.5110    3.4990   -1.7020 H   0  0  0  0  0  0  0  0  0  0  0  0
   -5.0470   -0.1150   -1.8920 H   0  0  0  0  0  0  0  0  0  0  0  0
   -5.2800   -0.4720   -0.1270 H   0  0  0  0  0  0  0  0  0  0  0  0
   -3.0000   -1.1880   -0.8980 H   0  0  0  0  0  0  0  0  0  0  0  0
   -2.7760    0.4890   -1.6280 H   0  0  0  0  0  0  0  0  0  0  0  0
   -2.8490    1.4470    0.6650 H   0  0  0  0  0  0  0  0  0  0  0  0
   -0.8530   -0.7790    0.5250 H   0  0  0  0  0  0  0  0  0  0  0  0
  1  2  1  0  0  0  0
  1 10  1  0  0  0  0
  2  3  2  0  0  0  0
  4  5  1  0  0  0  0
  4  2  1  0  0  0  0
  5  6  1  0  0  0  0
  5 14  1  0  0  0  0
  6 16  1  6  0  0  0
  6  8  1  0  0  0  0
  6  7  1  0  0  0  0
  7 18  1  0  0  0  0
  8  9  2  0  0  0  0
 11  1  1  0  0  0  0
 12  4  1  0  0  0  0
 13  4  1  0  0  0  0
 15  5  1  0  0  0  0
 17  7  1  0  0  0  0
 19 26  1  0  0  0  0
 20 19  1  0  0  0  0
 20 21  1  0  0  0  0
 20 22  1  0  0  0  0
 21 32  1  0  0  0  0
 21 30  1  0  0  0  0
 22 33  1  1  0  0  0
 23 22  1  0  0  0  0
 23  8  1  0  0  0  0
 24 22  1  0  0  0  0
 24 25  2  0  0  0  0
 27 19  1  0  0  0  0
 28 19  1  0  0  0  0
 29 20  1  0  0  0  0
 31 21  1  0  0  0  0
 34 23  1  0  0  0  0
 35 46  1  0  0  0  0
 35 36  1  0  0  0  0
 37 38  1  0  0  0  0
 37 36  1  0  0  0  0
 37 48  1  0  0  0  0
 38 39  1  0  0  0  0
 39 40  1  0  0  0  0
 39 51  1  1  0  0  0
 39 41  1  0  0  0  0
 40 24  1  0  0  0  0
 41 43  2  0  0  0  0
 41 42  1  0  0  0  0
 44 35  1  0  0  0  0
 45 35  1  0  0  0  0
 47 37  1  0  0  0  0
 49 38  1  0  0  0  0
 50 38  1  0  0  0  0
 52 40  1  0  0  0  0
M  END
$$$$
