QVQ.pdb
 OpenBabel07022418343D

 52 51  0  0  1  0  0  0  0  0999 V2000
    4.7240    0.5100    5.5210 N   0  0  0  0  0  0  0  0  0  0  0  0
    3.5790   -0.3160    5.4740 C   0  0  0  0  0  0  0  0  0  0  0  0
    3.5340   -1.3500    6.1660 O   0  0  0  0  0  0  0  0  0  0  0  0
    2.4310    0.0350    4.6090 C   0  0  0  0  0  0  0  0  0  0  0  0
    1.3250   -0.9640    4.7000 C   0  0  0  0  0  0  0  0  0  0  0  0
    0.1340   -0.6460    3.8420 C   0  0  2  0  0  0  0  0  0  0  0  0
   -0.8250   -1.7290    4.0710 N   0  0  0  0  0  0  0  0  0  0  0  0
    0.4410   -0.5100    2.4010 C   0  0  0  0  0  0  0  0  0  0  0  0
    1.2130    0.3660    1.9390 O   0  0  0  0  0  0  0  0  0  0  0  0
    5.0220    0.9900    4.6470 H   0  0  0  0  0  0  0  0  0  0  0  0
    5.2960    0.6680    6.3980 H   0  0  0  0  0  0  0  0  0  0  0  0
    2.8340    0.1770    3.5820 H   0  0  0  0  0  0  0  0  0  0  0  0
    2.0000    1.0250    4.9200 H   0  0  0  0  0  0  0  0  0  0  0  0
    1.6750   -2.0150    4.5630 H   0  0  0  0  0  0  0  0  0  0  0  0
    0.9540   -0.9270    5.7610 H   0  0  0  0  0  0  0  0  0  0  0  0
   -0.2980    0.3060    4.2110 H   0  0  0  0  0  0  0  0  0  0  0  0
   -1.1660   -1.5830    5.0580 H   0  0  0  0  0  0  0  0  0  0  0  0
   -0.3720   -2.6460    4.0070 H   0  0  0  0  0  0  0  0  0  0  0  0
    0.0080   -3.7120   -0.5840 C   0  0  0  0  0  0  0  0  0  0  0  0
    0.7830   -2.4400   -0.6510 C   0  0  0  0  0  0  0  0  0  0  0  0
    2.2230   -2.6070   -0.1900 C   0  0  0  0  0  0  0  0  0  0  0  0
    0.1540   -1.2710    0.0150 C   0  0  2  0  0  0  0  0  0  0  0  0
   -0.1100   -1.3620    1.4060 N   0  0  0  0  0  0  0  0  0  0  0  0
   -1.1130   -0.9290   -0.6820 C   0  0  0  0  0  0  0  0  0  0  0  0
   -2.2040   -0.7760   -0.0330 O   0  0  0  0  0  0  0  0  0  0  0  0
   -0.9180   -3.6510    0.0130 H   0  0  0  0  0  0  0  0  0  0  0  0
   -0.3360   -4.0780   -1.5940 H   0  0  0  0  0  0  0  0  0  0  0  0
    0.6900   -4.5360   -0.2350 H   0  0  0  0  0  0  0  0  0  0  0  0
    0.8520   -2.1690   -1.7290 H   0  0  0  0  0  0  0  0  0  0  0  0
    2.6830   -1.6140   -0.0360 H   0  0  0  0  0  0  0  0  0  0  0  0
    2.2730   -3.2530    0.7230 H   0  0  0  0  0  0  0  0  0  0  0  0
    2.8490   -3.1210   -0.9500 H   0  0  0  0  0  0  0  0  0  0  0  0
    0.8520   -0.4180   -0.1300 H   0  0  0  0  0  0  0  0  0  0  0  0
   -0.7610   -2.1140    1.7220 H   0  0  0  0  0  0  0  0  0  0  0  0
   -2.7460    3.0720   -0.4270 N   0  0  0  0  0  0  0  0  0  0  0  0
   -2.9490    2.2340   -1.5540 C   0  0  0  0  0  0  0  0  0  0  0  0
   -4.0840    1.7130   -1.6780 O   0  0  0  0  0  0  0  0  0  0  0  0
   -1.9040    1.9630   -2.5560 C   0  0  0  0  0  0  0  0  0  0  0  0
   -2.2970    0.8620   -3.4990 C   0  0  0  0  0  0  0  0  0  0  0  0
   -2.4880   -0.4120   -2.7470 C   0  0  2  0  0  0  0  0  0  0  0  0
   -1.2180   -0.7490   -2.0860 N   0  0  0  0  0  0  0  0  0  0  0  0
   -2.8160   -1.5460   -3.6500 C   0  0  0  0  0  0  0  0  0  0  0  0
   -3.8700   -1.5190   -4.3470 O   0  0  0  0  0  0  0  0  0  0  0  0
   -1.9730   -2.6360   -3.7340 O   0  0  0  0  0  0  0  0  0  0  0  0
   -3.5160    3.7020   -0.1380 H   0  0  0  0  0  0  0  0  0  0  0  0
   -1.8620    3.0750    0.1100 H   0  0  0  0  0  0  0  0  0  0  0  0
   -0.9790    1.6320   -2.0310 H   0  0  0  0  0  0  0  0  0  0  0  0
   -1.6640    2.8920   -3.1480 H   0  0  0  0  0  0  0  0  0  0  0  0
   -3.2960    1.1340   -3.9320 H   0  0  0  0  0  0  0  0  0  0  0  0
   -1.5770    0.7410   -4.3320 H   0  0  0  0  0  0  0  0  0  0  0  0
   -3.2270   -0.3550   -1.9390 H   0  0  0  0  0  0  0  0  0  0  0  0
   -0.3730   -0.8550   -2.6780 H   0  0  0  0  0  0  0  0  0  0  0  0
  1 11  1  0  0  0  0
  2  1  1  0  0  0  0
  2  3  2  0  0  0  0
  4  5  1  0  0  0  0
  4 13  1  0  0  0  0
  4  2  1  0  0  0  0
  5 15  1  0  0  0  0
  6  7  1  0  0  0  0
  6 16  1  1  0  0  0
  6  5  1  0  0  0  0
  7 17  1  0  0  0  0
  8  6  1  0  0  0  0
  9  8  2  0  0  0  0
 10  1  1  0  0  0  0
 12  4  1  0  0  0  0
 14  5  1  0  0  0  0
 18  7  1  0  0  0  0
 19 28  1  0  0  0  0
 19 26  1  0  0  0  0
 20 19  1  0  0  0  0
 20 21  1  0  0  0  0
 20 22  1  0  0  0  0
 21 30  1  0  0  0  0
 21 31  1  0  0  0  0
 22 33  1  6  0  0  0
 22 23  1  0  0  0  0
 23 34  1  0  0  0  0
 23  8  1  0  0  0  0
 24 25  2  0  0  0  0
 24 22  1  0  0  0  0
 27 19  1  0  0  0  0
 29 20  1  0  0  0  0
 32 21  1  0  0  0  0
 35 45  1  0  0  0  0
 35 46  1  0  0  0  0
 36 35  1  0  0  0  0
 37 36  2  0  0  0  0
 38 47  1  0  0  0  0
 38 36  1  0  0  0  0
 39 40  1  0  0  0  0
 39 38  1  0  0  0  0
 40 41  1  0  0  0  0
 40 51  1  1  0  0  0
 41 24  1  0  0  0  0
 42 40  1  0  0  0  0
 43 42  2  0  0  0  0
 44 42  1  0  0  0  0
 48 38  1  0  0  0  0
 49 39  1  0  0  0  0
 50 39  1  0  0  0  0
 52 41  1  0  0  0  0
M  END
$$$$
