QVR.pdb
 OpenBabel07022418343D

 58 57  0  0  1  0  0  0  0  0999 V2000
    5.4000   -4.6030    1.8440 N   0  0  0  0  0  0  0  0  0  0  0  0
    4.6010   -3.4260    1.7190 C   0  0  0  0  0  0  0  0  0  0  0  0
    3.5460   -3.4440    1.0530 O   0  0  0  0  0  0  0  0  0  0  0  0
    5.0420   -2.1510    2.4070 C   0  0  0  0  0  0  0  0  0  0  0  0
    4.1840   -0.9840    2.0460 C   0  0  0  0  0  0  0  0  0  0  0  0
    4.2430   -0.6300    0.5580 C   0  0  2  0  0  0  0  0  0  0  0  0
    5.5670   -0.2800    0.1600 N   0  0  0  0  0  0  0  0  0  0  0  0
    3.2580    0.5260    0.4050 C   0  0  0  0  0  0  0  0  0  0  0  0
    3.6630    1.7010    0.4450 O   0  0  0  0  0  0  0  0  0  0  0  0
    4.9490   -5.5360    1.7860 H   0  0  0  0  0  0  0  0  0  0  0  0
    6.4270   -4.5250    1.9860 H   0  0  0  0  0  0  0  0  0  0  0  0
    4.9930   -2.3280    3.4950 H   0  0  0  0  0  0  0  0  0  0  0  0
    6.1190   -1.9780    2.1400 H   0  0  0  0  0  0  0  0  0  0  0  0
    4.4800   -0.1150    2.6690 H   0  0  0  0  0  0  0  0  0  0  0  0
    3.1350   -1.2120    2.3250 H   0  0  0  0  0  0  0  0  0  0  0  0
    3.8550   -1.4600   -0.0150 H   0  0  0  0  0  0  0  0  0  0  0  0
    6.1280    0.2430    0.8640 H   0  0  0  0  0  0  0  0  0  0  0  0
    6.0910   -1.1130   -0.1790 H   0  0  0  0  0  0  0  0  0  0  0  0
    1.6640    2.6700   -1.6120 C   0  0  0  0  0  0  0  0  0  0  0  0
    0.5650    1.7200   -1.2380 C   0  0  0  0  0  0  0  0  0  0  0  0
   -0.7580    2.3900   -1.3610 C   0  0  0  0  0  0  0  0  0  0  0  0
    0.7590    1.0480    0.1280 C   0  0  2  0  0  0  0  0  0  0  0  0
    1.8900    0.1890    0.2380 N   0  0  0  0  0  0  0  0  0  0  0  0
   -0.4880    0.4920    0.6260 C   0  0  0  0  0  0  0  0  0  0  0  0
   -1.4940    1.2660    0.7420 O   0  0  0  0  0  0  0  0  0  0  0  0
    1.9530    3.1950   -0.6600 H   0  0  0  0  0  0  0  0  0  0  0  0
    2.4920    2.2530   -2.1890 H   0  0  0  0  0  0  0  0  0  0  0  0
    1.1530    3.5210   -2.2110 H   0  0  0  0  0  0  0  0  0  0  0  0
    0.6140    0.8980   -2.0270 H   0  0  0  0  0  0  0  0  0  0  0  0
   -1.6280    1.7340   -1.5040 H   0  0  0  0  0  0  0  0  0  0  0  0
   -0.7350    3.0420   -2.2610 H   0  0  0  0  0  0  0  0  0  0  0  0
   -0.9110    3.1460   -0.5120 H   0  0  0  0  0  0  0  0  0  0  0  0
    1.0260    1.9670    0.7780 H   0  0  0  0  0  0  0  0  0  0  0  0
    1.7110   -0.9020    0.1850 H   0  0  0  0  0  0  0  0  0  0  0  0
   -5.4470    0.2990   -2.1360 N   0  0  0  0  0  0  0  0  0  0  0  0
   -5.7690   -0.5930   -1.0750 C   0  0  0  0  0  0  0  0  0  0  0  0
   -6.9150   -0.4570   -0.4830 N   0  0  0  0  0  0  0  0  0  0  0  0
   -4.8370   -1.5910   -0.7000 N   0  0  0  0  0  0  0  0  0  0  0  0
   -4.8430   -2.0630    0.6730 C   0  0  0  0  0  0  0  0  0  0  0  0
   -3.7280   -3.0860    0.8560 C   0  0  0  0  0  0  0  0  0  0  0  0
   -2.4020   -2.4720    0.5770 C   0  0  0  0  0  0  0  0  0  0  0  0
   -2.0170   -1.3060    1.4650 C   0  0  2  0  0  0  0  0  0  0  0  0
   -0.6790   -0.8410    0.9900 N   0  0  0  0  0  0  0  0  0  0  0  0
   -1.9020   -1.7900    2.8550 C   0  0  0  0  0  0  0  0  0  0  0  0
   -0.8220   -1.8280    3.4900 O   0  0  0  0  0  0  0  0  0  0  0  0
   -3.0890   -2.2330    3.4900 O   0  0  0  0  0  0  0  0  0  0  0  0
   -5.0870    1.2660   -1.9370 H   0  0  0  0  0  0  0  0  0  0  0  0
   -5.5530    0.0160   -3.1280 H   0  0  0  0  0  0  0  0  0  0  0  0
   -7.5860    0.3060   -0.7940 H   0  0  0  0  0  0  0  0  0  0  0  0
   -4.1670   -1.9810   -1.3940 H   0  0  0  0  0  0  0  0  0  0  0  0
   -4.7870   -1.2450    1.3870 H   0  0  0  0  0  0  0  0  0  0  0  0
   -5.7900   -2.6410    0.7880 H   0  0  0  0  0  0  0  0  0  0  0  0
   -3.9460   -3.8270   -0.0050 H   0  0  0  0  0  0  0  0  0  0  0  0
   -3.8110   -3.6750    1.7640 H   0  0  0  0  0  0  0  0  0  0  0  0
   -2.3620   -2.1740   -0.5010 H   0  0  0  0  0  0  0  0  0  0  0  0
   -1.6160   -3.2860    0.6310 H   0  0  0  0  0  0  0  0  0  0  0  0
   -2.7010   -0.4780    1.3850 H   0  0  0  0  0  0  0  0  0  0  0  0
    0.0770   -1.5560    0.9430 H   0  0  0  0  0  0  0  0  0  0  0  0
  1 11  1  0  0  0  0
  2  1  1  0  0  0  0
  2  4  1  0  0  0  0
  3  2  2  0  0  0  0
  4 12  1  0  0  0  0
  5 15  1  0  0  0  0
  5  4  1  0  0  0  0
  5 14  1  0  0  0  0
  6 16  1  6  0  0  0
  6  5  1  0  0  0  0
  7  6  1  0  0  0  0
  7 17  1  0  0  0  0
  8  9  2  0  0  0  0
  8  6  1  0  0  0  0
 10  1  1  0  0  0  0
 13  4  1  0  0  0  0
 18  7  1  0  0  0  0
 19 20  1  0  0  0  0
 19 26  1  0  0  0  0
 20 22  1  0  0  0  0
 21 20  1  0  0  0  0
 21 32  1  0  0  0  0
 22 23  1  0  0  0  0
 22 24  1  0  0  0  0
 22 33  1  1  0  0  0
 23  8  1  0  0  0  0
 24 25  2  0  0  0  0
 24 43  1  0  0  0  0
 27 19  1  0  0  0  0
 28 19  1  0  0  0  0
 29 20  1  0  0  0  0
 30 21  1  0  0  0  0
 31 21  1  0  0  0  0
 34 23  1  0  0  0  0
 35 47  1  0  0  0  0
 35 36  1  0  0  0  0
 36 38  1  0  0  0  0
 36 37  2  0  0  0  0
 38 39  1  0  0  0  0
 39 52  1  0  0  0  0
 39 40  1  0  0  0  0
 39 51  1  0  0  0  0
 40 54  1  0  0  0  0
 41 56  1  0  0  0  0
 41 40  1  0  0  0  0
 41 42  1  0  0  0  0
 42 57  1  6  0  0  0
 42 44  1  0  0  0  0
 43 42  1  0  0  0  0
 44 46  2  0  0  0  0
 44 45  1  0  0  0  0
 48 35  1  0  0  0  0
 49 37  1  0  0  0  0
 50 38  1  0  0  0  0
 53 40  1  0  0  0  0
 55 41  1  0  0  0  0
 58 43  1  0  0  0  0
M  END
$$$$
