QVS.pdb
 OpenBabel07022418343D

 46 45  0  0  1  0  0  0  0  0999 V2000
   -1.2650   -6.6460    1.1680 N   0  0  0  0  0  0  0  0  0  0  0  0
   -2.1160   -5.6730    0.5660 C   0  0  0  0  0  0  0  0  0  0  0  0
   -3.3390   -5.9410    0.4600 O   0  0  0  0  0  0  0  0  0  0  0  0
   -1.5810   -4.3760    0.0760 C   0  0  0  0  0  0  0  0  0  0  0  0
   -2.7110   -3.5680   -0.5030 C   0  0  0  0  0  0  0  0  0  0  0  0
   -2.2580   -2.2300   -1.0270 C   0  0  2  0  0  0  0  0  0  0  0  0
   -1.2860   -2.3140   -2.0620 N   0  0  0  0  0  0  0  0  0  0  0  0
   -1.7620   -1.4230    0.1450 C   0  0  0  0  0  0  0  0  0  0  0  0
   -2.4690   -1.2320    1.1560 O   0  0  0  0  0  0  0  0  0  0  0  0
   -0.4480   -6.9760    0.6140 H   0  0  0  0  0  0  0  0  0  0  0  0
   -1.4370   -7.0260    2.1260 H   0  0  0  0  0  0  0  0  0  0  0  0
   -0.8430   -4.5390   -0.7500 H   0  0  0  0  0  0  0  0  0  0  0  0
   -1.1110   -3.8760    0.9500 H   0  0  0  0  0  0  0  0  0  0  0  0
   -3.1960   -4.1690   -1.2920 H   0  0  0  0  0  0  0  0  0  0  0  0
   -3.4660   -3.4310    0.2970 H   0  0  0  0  0  0  0  0  0  0  0  0
   -3.1550   -1.7050   -1.4140 H   0  0  0  0  0  0  0  0  0  0  0  0
   -1.4880   -1.7090   -2.8890 H   0  0  0  0  0  0  0  0  0  0  0  0
   -1.0010   -3.2650   -2.3350 H   0  0  0  0  0  0  0  0  0  0  0  0
    2.3080   -1.0730    0.8610 C   0  0  0  0  0  0  0  0  0  0  0  0
    1.2100   -0.8620    1.8520 C   0  0  0  0  0  0  0  0  0  0  0  0
    1.6890   -0.3420    3.1780 C   0  0  0  0  0  0  0  0  0  0  0  0
    0.0410   -0.0520    1.2770 C   0  0  2  0  0  0  0  0  0  0  0  0
   -0.4660   -0.8470    0.1390 N   0  0  0  0  0  0  0  0  0  0  0  0
    0.4710    1.2610    0.7580 C   0  0  0  0  0  0  0  0  0  0  0  0
    0.4280    1.5220   -0.5000 O   0  0  0  0  0  0  0  0  0  0  0  0
    3.2350   -1.3160    1.4130 H   0  0  0  0  0  0  0  0  0  0  0  0
    2.1010   -1.9560    0.1940 H   0  0  0  0  0  0  0  0  0  0  0  0
    2.5180   -0.1820    0.2400 H   0  0  0  0  0  0  0  0  0  0  0  0
    0.7700   -1.8890    2.0750 H   0  0  0  0  0  0  0  0  0  0  0  0
    2.0870   -1.1700    3.8210 H   0  0  0  0  0  0  0  0  0  0  0  0
    0.8430    0.1030    3.7490 H   0  0  0  0  0  0  0  0  0  0  0  0
    2.5030    0.4030    3.1030 H   0  0  0  0  0  0  0  0  0  0  0  0
   -0.7090    0.0160    2.0830 H   0  0  0  0  0  0  0  0  0  0  0  0
    0.1330   -0.9980   -0.6960 H   0  0  0  0  0  0  0  0  0  0  0  0
    0.9800    5.8970    1.0170 O   0  0  0  0  0  0  0  0  0  0  0  0
    0.5340    4.7130    1.5970 C   0  0  0  0  0  0  0  0  0  0  0  0
    1.3670    3.5940    1.0010 C   0  0  2  0  0  0  0  0  0  0  0  0
    0.9470    2.2990    1.5740 N   0  0  0  0  0  0  0  0  0  0  0  0
    2.7740    3.8340    1.4100 C   0  0  0  0  0  0  0  0  0  0  0  0
    3.3970    3.0080    2.1210 O   0  0  0  0  0  0  0  0  0  0  0  0
    3.4510    4.9790    1.0220 O   0  0  0  0  0  0  0  0  0  0  0  0
    0.4490    6.6900    1.3250 H   0  0  0  0  0  0  0  0  0  0  0  0
    0.6510    4.6940    2.6840 H   0  0  0  0  0  0  0  0  0  0  0  0
   -0.5350    4.6210    1.3630 H   0  0  0  0  0  0  0  0  0  0  0  0
    1.2440    3.5830   -0.0950 H   0  0  0  0  0  0  0  0  0  0  0  0
    1.0040    2.1690    2.6050 H   0  0  0  0  0  0  0  0  0  0  0  0
  1 11  1  0  0  0  0
  2  1  1  0  0  0  0
  3  2  2  0  0  0  0
  4  2  1  0  0  0  0
  4 13  1  0  0  0  0
  5  4  1  0  0  0  0
  5 15  1  0  0  0  0
  6 16  1  6  0  0  0
  6  5  1  0  0  0  0
  6  8  1  0  0  0  0
  7  6  1  0  0  0  0
  8  9  2  0  0  0  0
 10  1  1  0  0  0  0
 12  4  1  0  0  0  0
 14  5  1  0  0  0  0
 17  7  1  0  0  0  0
 18  7  1  0  0  0  0
 19 26  1  0  0  0  0
 19 20  1  0  0  0  0
 20 29  1  0  0  0  0
 20 21  1  0  0  0  0
 21 31  1  0  0  0  0
 21 30  1  0  0  0  0
 22 20  1  0  0  0  0
 22 33  1  1  0  0  0
 23  8  1  0  0  0  0
 23 22  1  0  0  0  0
 24 22  1  0  0  0  0
 24 38  1  0  0  0  0
 25 24  2  0  0  0  0
 27 19  1  0  0  0  0
 28 19  1  0  0  0  0
 32 21  1  0  0  0  0
 34 23  1  0  0  0  0
 35 42  1  0  0  0  0
 35 36  1  0  0  0  0
 36 43  1  0  0  0  0
 37 45  1  6  0  0  0
 37 39  1  0  0  0  0
 37 38  1  0  0  0  0
 37 36  1  0  0  0  0
 38 46  1  0  0  0  0
 39 40  1  0  0  0  0
 41 39  2  0  0  0  0
 44 36  1  0  0  0  0
M  END
$$$$
