QVT.pdb
 OpenBabel07022418343D

 49 48  0  0  1  0  0  0  0  0999 V2000
   -1.4410   -3.1400    6.0180 N   0  0  0  0  0  0  0  0  0  0  0  0
   -0.6370   -2.5980    4.9720 C   0  0  0  0  0  0  0  0  0  0  0  0
   -0.6700   -1.3510    4.8520 O   0  0  0  0  0  0  0  0  0  0  0  0
    0.1860   -3.4370    4.0830 C   0  0  0  0  0  0  0  0  0  0  0  0
    0.8240   -2.6950    2.9450 C   0  0  0  0  0  0  0  0  0  0  0  0
   -0.1960   -2.0810    2.0420 C   0  0  2  0  0  0  0  0  0  0  0  0
   -1.0610   -3.1230    1.4760 N   0  0  0  0  0  0  0  0  0  0  0  0
    0.4480   -1.3890    0.8750 C   0  0  0  0  0  0  0  0  0  0  0  0
    0.1980   -1.7420   -0.2980 O   0  0  0  0  0  0  0  0  0  0  0  0
   -1.1020   -3.2050    7.0050 H   0  0  0  0  0  0  0  0  0  0  0  0
   -2.4070   -3.4910    5.8090 H   0  0  0  0  0  0  0  0  0  0  0  0
   -0.4780   -4.2400    3.6760 H   0  0  0  0  0  0  0  0  0  0  0  0
    0.9680   -3.9980    4.6740 H   0  0  0  0  0  0  0  0  0  0  0  0
    1.4310   -1.8720    3.4300 H   0  0  0  0  0  0  0  0  0  0  0  0
    1.5600   -3.3020    2.3960 H   0  0  0  0  0  0  0  0  0  0  0  0
   -0.8670   -1.3960    2.5860 H   0  0  0  0  0  0  0  0  0  0  0  0
   -0.5450   -4.0450    1.4260 H   0  0  0  0  0  0  0  0  0  0  0  0
   -1.4020   -2.8660    0.5270 H   0  0  0  0  0  0  0  0  0  0  0  0
    2.9830   -1.5580   -1.2770 C   0  0  0  0  0  0  0  0  0  0  0  0
    3.1760   -0.2490   -0.6220 C   0  0  0  0  0  0  0  0  0  0  0  0
    3.8620    0.7660   -1.5400 C   0  0  0  0  0  0  0  0  0  0  0  0
    2.0190    0.4110    0.0050 C   0  0  2  0  0  0  0  0  0  0  0  0
    1.3630   -0.3080    1.0710 N   0  0  0  0  0  0  0  0  0  0  0  0
    1.0800    1.0980   -0.9180 C   0  0  0  0  0  0  0  0  0  0  0  0
    1.4150    1.6550   -1.9730 O   0  0  0  0  0  0  0  0  0  0  0  0
    2.8340   -2.3980   -0.5850 H   0  0  0  0  0  0  0  0  0  0  0  0
    3.9650   -1.7990   -1.7930 H   0  0  0  0  0  0  0  0  0  0  0  0
    2.2490   -1.5940   -2.0900 H   0  0  0  0  0  0  0  0  0  0  0  0
    3.9370   -0.4110    0.2010 H   0  0  0  0  0  0  0  0  0  0  0  0
    3.4530    0.6760   -2.5560 H   0  0  0  0  0  0  0  0  0  0  0  0
    3.6910    1.7620   -1.0850 H   0  0  0  0  0  0  0  0  0  0  0  0
    4.9550    0.5560   -1.5810 H   0  0  0  0  0  0  0  0  0  0  0  0
    2.4780    1.3190    0.5550 H   0  0  0  0  0  0  0  0  0  0  0  0
    1.5160   -0.0840    2.1050 H   0  0  0  0  0  0  0  0  0  0  0  0
   -2.9450    0.0430   -0.8210 C   0  0  0  0  0  0  0  0  0  0  0  0
   -2.2010    0.6890   -1.9850 C   0  0  1  0  0  0  0  0  0  0  0  0
   -3.1620    1.2190   -2.8230 O   0  0  0  0  0  0  0  0  0  0  0  0
   -1.2690    1.7850   -1.4490 C   0  0  2  0  0  0  0  0  0  0  0  0
   -0.2950    1.1290   -0.5820 N   0  0  0  0  0  0  0  0  0  0  0  0
   -2.0090    2.8400   -0.7670 C   0  0  0  0  0  0  0  0  0  0  0  0
   -2.8810    3.4930   -1.3820 O   0  0  0  0  0  0  0  0  0  0  0  0
   -1.7730    3.1460    0.5600 O   0  0  0  0  0  0  0  0  0  0  0  0
   -2.3580   -0.7330   -0.3180 H   0  0  0  0  0  0  0  0  0  0  0  0
   -3.3070    0.8070   -0.1000 H   0  0  0  0  0  0  0  0  0  0  0  0
   -3.8440   -0.4450   -1.2500 H   0  0  0  0  0  0  0  0  0  0  0  0
   -1.5860   -0.1050   -2.4480 H   0  0  0  0  0  0  0  0  0  0  0  0
   -3.9810    0.6370   -2.7780 H   0  0  0  0  0  0  0  0  0  0  0  0
   -0.7070    2.1830   -2.3170 H   0  0  0  0  0  0  0  0  0  0  0  0
   -0.6830    0.7100    0.2880 H   0  0  0  0  0  0  0  0  0  0  0  0
  1 10  1  0  0  0  0
  2  1  1  0  0  0  0
  3  2  2  0  0  0  0
  4 13  1  0  0  0  0
  4  2  1  0  0  0  0
  5 14  1  0  0  0  0
  5  4  1  0  0  0  0
  6 16  1  1  0  0  0
  6  5  1  0  0  0  0
  7  6  1  0  0  0  0
  8 23  1  0  0  0  0
  8  6  1  0  0  0  0
  9  8  2  0  0  0  0
 11  1  1  0  0  0  0
 12  4  1  0  0  0  0
 15  5  1  0  0  0  0
 17  7  1  0  0  0  0
 18  7  1  0  0  0  0
 19 20  1  0  0  0  0
 19 26  1  0  0  0  0
 20 22  1  0  0  0  0
 20 29  1  0  0  0  0
 21 31  1  0  0  0  0
 21 20  1  0  0  0  0
 22 33  1  1  0  0  0
 22 23  1  0  0  0  0
 23 34  1  0  0  0  0
 24 39  1  0  0  0  0
 24 22  1  0  0  0  0
 25 24  2  0  0  0  0
 27 19  1  0  0  0  0
 28 19  1  0  0  0  0
 30 21  1  0  0  0  0
 32 21  1  0  0  0  0
 35 43  1  0  0  0  0
 35 44  1  0  0  0  0
 36 46  1  6  0  0  0
 36 38  1  0  0  0  0
 36 35  1  0  0  0  0
 37 47  1  0  0  0  0
 37 36  1  0  0  0  0
 38 48  1  6  0  0  0
 38 40  1  0  0  0  0
 38 39  1  0  0  0  0
 39 49  1  0  0  0  0
 40 42  1  0  0  0  0
 41 40  2  0  0  0  0
 45 35  1  0  0  0  0
M  END
$$$$
