QVV.pdb
 OpenBabel07022418343D

 51 50  0  0  1  0  0  0  0  0999 V2000
    2.1500   -4.4600    4.9110 N   0  0  0  0  0  0  0  0  0  0  0  0
    1.1070   -3.5020    4.8650 C   0  0  0  0  0  0  0  0  0  0  0  0
    0.6920   -2.9470    5.8840 O   0  0  0  0  0  0  0  0  0  0  0  0
    0.5130   -3.1720    3.5490 C   0  0  0  0  0  0  0  0  0  0  0  0
   -0.5760   -2.1340    3.7150 C   0  0  0  0  0  0  0  0  0  0  0  0
   -1.1730   -1.8050    2.3750 C   0  0  2  0  0  0  0  0  0  0  0  0
   -1.7370   -3.0050    1.7890 N   0  0  0  0  0  0  0  0  0  0  0  0
   -0.2370   -1.1930    1.4260 C   0  0  0  0  0  0  0  0  0  0  0  0
   -0.0380   -1.7180    0.3020 O   0  0  0  0  0  0  0  0  0  0  0  0
    2.0070   -5.3130    5.4840 H   0  0  0  0  0  0  0  0  0  0  0  0
    3.0490   -4.3230    4.3840 H   0  0  0  0  0  0  0  0  0  0  0  0
    0.0830   -4.1160    3.1500 H   0  0  0  0  0  0  0  0  0  0  0  0
    1.2820   -2.8560    2.8190 H   0  0  0  0  0  0  0  0  0  0  0  0
   -0.2280   -1.2700    4.2740 H   0  0  0  0  0  0  0  0  0  0  0  0
   -1.3780   -2.6170    4.3140 H   0  0  0  0  0  0  0  0  0  0  0  0
   -2.0320   -1.0930    2.4890 H   0  0  0  0  0  0  0  0  0  0  0  0
   -1.6630   -2.9340    0.7490 H   0  0  0  0  0  0  0  0  0  0  0  0
   -2.7600   -3.1070    1.9950 H   0  0  0  0  0  0  0  0  0  0  0  0
    2.8840   -1.3200    0.2510 C   0  0  0  0  0  0  0  0  0  0  0  0
    2.7630    0.0800    0.7200 C   0  0  0  0  0  0  0  0  0  0  0  0
    3.4970    0.2510    2.0470 C   0  0  0  0  0  0  0  0  0  0  0  0
    1.4040    0.6550    0.8290 C   0  0  2  0  0  0  0  0  0  0  0  0
    0.4900    0.0130    1.7120 N   0  0  0  0  0  0  0  0  0  0  0  0
    0.8010    1.0910   -0.4730 C   0  0  0  0  0  0  0  0  0  0  0  0
    1.5280    1.5680   -1.4000 O   0  0  0  0  0  0  0  0  0  0  0  0
    2.5920   -2.0920    0.9620 H   0  0  0  0  0  0  0  0  0  0  0  0
    3.9920   -1.4940    0.0850 H   0  0  0  0  0  0  0  0  0  0  0  0
    2.4620   -1.4290   -0.7730 H   0  0  0  0  0  0  0  0  0  0  0  0
    3.3310    0.7240   -0.0010 H   0  0  0  0  0  0  0  0  0  0  0  0
    4.5830    0.2770    1.8230 H   0  0  0  0  0  0  0  0  0  0  0  0
    3.2810   -0.5940    2.7320 H   0  0  0  0  0  0  0  0  0  0  0  0
    3.2150    1.2350    2.4730 H   0  0  0  0  0  0  0  0  0  0  0  0
    1.5820    1.6770    1.3310 H   0  0  0  0  0  0  0  0  0  0  0  0
    0.2620    0.3810    2.6900 H   0  0  0  0  0  0  0  0  0  0  0  0
   -2.7720   -0.3800   -1.8020 C   0  0  0  0  0  0  0  0  0  0  0  0
   -1.7020    0.1910   -2.6910 C   0  0  0  0  0  0  0  0  0  0  0  0
   -2.2850    0.4620   -4.0500 C   0  0  0  0  0  0  0  0  0  0  0  0
   -1.1270    1.4450   -2.0550 C   0  0  2  0  0  0  0  0  0  0  0  0
   -0.5810    1.0140   -0.7740 N   0  0  0  0  0  0  0  0  0  0  0  0
   -2.1600    2.4740   -1.9020 C   0  0  0  0  0  0  0  0  0  0  0  0
   -2.4920    2.8950   -0.7800 O   0  0  0  0  0  0  0  0  0  0  0  0
   -2.7740    2.9830   -3.0240 O   0  0  0  0  0  0  0  0  0  0  0  0
   -2.3690   -1.1060   -1.0630 H   0  0  0  0  0  0  0  0  0  0  0  0
   -3.2830    0.4770   -1.2990 H   0  0  0  0  0  0  0  0  0  0  0  0
   -3.5340   -0.9310   -2.3970 H   0  0  0  0  0  0  0  0  0  0  0  0
   -0.8670   -0.5460   -2.7260 H   0  0  0  0  0  0  0  0  0  0  0  0
   -2.4670   -0.5430   -4.5200 H   0  0  0  0  0  0  0  0  0  0  0  0
   -3.3130    0.8820   -3.8940 H   0  0  0  0  0  0  0  0  0  0  0  0
   -1.6550    1.0730   -4.6940 H   0  0  0  0  0  0  0  0  0  0  0  0
   -0.3580    1.8230   -2.7350 H   0  0  0  0  0  0  0  0  0  0  0  0
   -1.2360    0.6480   -0.0550 H   0  0  0  0  0  0  0  0  0  0  0  0
  1 10  1  0  0  0  0
  2  1  1  0  0  0  0
  2  3  2  0  0  0  0
  4  5  1  0  0  0  0
  4  2  1  0  0  0  0
  5 14  1  0  0  0  0
  5 15  1  0  0  0  0
  6 16  1  1  0  0  0
  6  5  1  0  0  0  0
  7 18  1  0  0  0  0
  7  6  1  0  0  0  0
  8 23  1  0  0  0  0
  8  6  1  0  0  0  0
  9  8  2  0  0  0  0
 11  1  1  0  0  0  0
 12  4  1  0  0  0  0
 13  4  1  0  0  0  0
 17  7  1  0  0  0  0
 19 20  1  0  0  0  0
 19 26  1  0  0  0  0
 20 22  1  0  0  0  0
 20 21  1  0  0  0  0
 21 32  1  0  0  0  0
 21 31  1  0  0  0  0
 22 33  1  1  0  0  0
 22 23  1  0  0  0  0
 23 34  1  0  0  0  0
 24 22  1  0  0  0  0
 25 24  2  0  0  0  0
 27 19  1  0  0  0  0
 28 19  1  0  0  0  0
 29 20  1  0  0  0  0
 30 21  1  0  0  0  0
 35 44  1  0  0  0  0
 35 43  1  0  0  0  0
 36 38  1  0  0  0  0
 36 35  1  0  0  0  0
 37 48  1  0  0  0  0
 37 36  1  0  0  0  0
 38 50  1  6  0  0  0
 38 40  1  0  0  0  0
 38 39  1  0  0  0  0
 39 24  1  0  0  0  0
 39 51  1  0  0  0  0
 40 41  1  0  0  0  0
 42 40  2  0  0  0  0
 45 35  1  0  0  0  0
 46 36  1  0  0  0  0
 47 37  1  0  0  0  0
 49 37  1  0  0  0  0
M  END
$$$$
