QWA.pdb
 OpenBabel07022418343D

 53 54  0  0  1  0  0  0  0  0999 V2000
    1.5750   -4.5930    2.0320 N   0  0  0  0  0  0  0  0  0  0  0  0
    2.0350   -3.3610    2.5870 C   0  0  0  0  0  0  0  0  0  0  0  0
    1.6570   -3.0900    3.7350 O   0  0  0  0  0  0  0  0  0  0  0  0
    2.8980   -2.5290    1.7860 C   0  0  0  0  0  0  0  0  0  0  0  0
    3.2170   -1.1560    2.2510 C   0  0  0  0  0  0  0  0  0  0  0  0
    2.0750   -0.2030    2.3820 C   0  0  2  0  0  0  0  0  0  0  0  0
    1.0600   -0.5930    3.3170 N   0  0  0  0  0  0  0  0  0  0  0  0
    1.4440   -0.0210    1.0220 C   0  0  0  0  0  0  0  0  0  0  0  0
    2.1550    0.4800    0.0870 O   0  0  0  0  0  0  0  0  0  0  0  0
    2.1800   -5.1110    1.3660 H   0  0  0  0  0  0  0  0  0  0  0  0
    0.6550   -4.9770    2.2810 H   0  0  0  0  0  0  0  0  0  0  0  0
    2.5530   -2.4730    0.6990 H   0  0  0  0  0  0  0  0  0  0  0  0
    3.8940   -3.0700    1.7130 H   0  0  0  0  0  0  0  0  0  0  0  0
    3.8130   -1.1970    3.1990 H   0  0  0  0  0  0  0  0  0  0  0  0
    3.8930   -0.7100    1.4560 H   0  0  0  0  0  0  0  0  0  0  0  0
    2.4700    0.7910    2.6980 H   0  0  0  0  0  0  0  0  0  0  0  0
    1.4370   -0.4760    4.3060 H   0  0  0  0  0  0  0  0  0  0  0  0
    0.3140    0.1760    3.2560 H   0  0  0  0  0  0  0  0  0  0  0  0
    0.1100   -0.4050    0.8360 N   0  0  0  0  0  0  0  0  0  0  0  0
   -0.6380   -0.2820   -0.3690 C   0  0  1  0  0  0  0  0  0  0  0  0
   -0.3070    0.9350   -1.2270 C   0  0  0  0  0  0  0  0  0  0  0  0
   -0.6050    2.1710   -0.4460 C   0  0  0  0  0  0  0  0  0  0  0  0
    0.2240    3.0590    0.1970 C   0  0  0  0  0  0  0  0  0  0  0  0
   -0.5050    4.0350    0.7750 N   0  0  0  0  0  0  0  0  0  0  0  0
   -1.8120    3.8410    0.5440 C   0  0  0  0  0  0  0  0  0  0  0  0
   -2.9590    4.5330    0.8990 C   0  0  0  0  0  0  0  0  0  0  0  0
   -4.2180    4.1170    0.5220 C   0  0  0  0  0  0  0  0  0  0  0  0
   -4.2960    2.9680   -0.2340 C   0  0  0  0  0  0  0  0  0  0  0  0
   -3.1480    2.2670   -0.5940 C   0  0  0  0  0  0  0  0  0  0  0  0
   -1.8930    2.6910   -0.2110 C   0  0  0  0  0  0  0  0  0  0  0  0
   -0.8550   -1.5090   -1.1270 C   0  0  0  0  0  0  0  0  0  0  0  0
   -1.5090   -1.4790   -2.2230 O   0  0  0  0  0  0  0  0  0  0  0  0
   -0.3700   -0.8400    1.6990 H   0  0  0  0  0  0  0  0  0  0  0  0
   -1.6940    0.0400    0.0180 H   0  0  0  0  0  0  0  0  0  0  0  0
   -0.9570    0.9080   -2.1470 H   0  0  0  0  0  0  0  0  0  0  0  0
    0.7250    0.9460   -1.5290 H   0  0  0  0  0  0  0  0  0  0  0  0
    1.3150    3.0040    0.2400 H   0  0  0  0  0  0  0  0  0  0  0  0
   -0.1110    4.8250    1.3210 H   0  0  0  0  0  0  0  0  0  0  0  0
   -2.8980    5.4390    1.4950 H   0  0  0  0  0  0  0  0  0  0  0  0
   -5.1150    4.6730    0.8100 H   0  0  0  0  0  0  0  0  0  0  0  0
   -5.2750    2.6190   -0.5440 H   0  0  0  0  0  0  0  0  0  0  0  0
   -3.2050    1.3660   -1.1950 H   0  0  0  0  0  0  0  0  0  0  0  0
    0.7890   -4.6250   -1.7610 C   0  0  0  0  0  0  0  0  0  0  0  0
   -0.5080   -3.9880   -1.3280 C   0  0  2  0  0  0  0  0  0  0  0  0
   -0.3380   -2.7440   -0.6450 N   0  0  0  0  0  0  0  0  0  0  0  0
   -1.2130   -4.9580   -0.4460 C   0  0  0  0  0  0  0  0  0  0  0  0
   -1.5800   -4.6570    0.7170 O   0  0  0  0  0  0  0  0  0  0  0  0
   -1.5030   -6.2570   -0.8680 O   0  0  0  0  0  0  0  0  0  0  0  0
    0.5130   -5.5310   -2.3510 H   0  0  0  0  0  0  0  0  0  0  0  0
    1.3910   -3.9810   -2.4280 H   0  0  0  0  0  0  0  0  0  0  0  0
    1.3850   -5.0100   -0.8960 H   0  0  0  0  0  0  0  0  0  0  0  0
   -1.0910   -3.8020   -2.2660 H   0  0  0  0  0  0  0  0  0  0  0  0
    0.1880   -2.7210    0.2530 H   0  0  0  0  0  0  0  0  0  0  0  0
  1 11  1  0  0  0  0
  1  2  1  0  0  0  0
  2  3  2  0  0  0  0
  4  5  1  0  0  0  0
  4  2  1  0  0  0  0
  5  6  1  0  0  0  0
  5 14  1  0  0  0  0
  6 16  1  1  0  0  0
  6  7  1  0  0  0  0
  7 17  1  0  0  0  0
  8  6  1  0  0  0  0
  9  8  2  0  0  0  0
 10  1  1  0  0  0  0
 12  4  1  0  0  0  0
 13  4  1  0  0  0  0
 15  5  1  0  0  0  0
 18  7  1  0  0  0  0
 19  8  1  0  0  0  0
 19 33  1  0  0  0  0
 20 34  1  1  0  0  0
 20 19  1  0  0  0  0
 21 22  1  0  0  0  0
 21 20  1  0  0  0  0
 22 30  1  0  0  0  0
 22 23  2  0  0  0  0
 23 37  1  0  0  0  0
 23 24  1  0  0  0  0
 24 38  1  0  0  0  0
 25 24  1  0  0  0  0
 25 26  1  0  0  0  0
 26 39  1  0  0  0  0
 27 40  1  0  0  0  0
 27 26  2  0  0  0  0
 28 27  1  0  0  0  0
 29 28  2  0  0  0  0
 29 30  1  0  0  0  0
 30 25  2  0  0  0  0
 31 45  1  0  0  0  0
 31 20  1  0  0  0  0
 32 31  2  0  0  0  0
 35 21  1  0  0  0  0
 36 21  1  0  0  0  0
 41 28  1  0  0  0  0
 42 29  1  0  0  0  0
 43 44  1  0  0  0  0
 43 51  1  0  0  0  0
 44 52  1  6  0  0  0
 44 45  1  0  0  0  0
 44 46  1  0  0  0  0
 45 53  1  0  0  0  0
 46 47  1  0  0  0  0
 48 46  2  0  0  0  0
 49 43  1  0  0  0  0
 50 43  1  0  0  0  0
M  END
$$$$
