QWD.pdb
 OpenBabel07022418343D

 56 57  0  0  1  0  0  0  0  0999 V2000
    4.2340   -2.2200    6.1020 N   0  0  0  0  0  0  0  0  0  0  0  0
    4.3880   -1.9470    4.7280 C   0  0  0  0  0  0  0  0  0  0  0  0
    5.3600   -1.2620    4.3490 O   0  0  0  0  0  0  0  0  0  0  0  0
    3.4030   -2.4670    3.7160 C   0  0  0  0  0  0  0  0  0  0  0  0
    3.8170   -2.0380    2.3320 C   0  0  0  0  0  0  0  0  0  0  0  0
    2.9050   -2.5310    1.2390 C   0  0  2  0  0  0  0  0  0  0  0  0
    3.4410   -2.0390   -0.0280 N   0  0  0  0  0  0  0  0  0  0  0  0
    1.5500   -2.0280    1.4820 C   0  0  0  0  0  0  0  0  0  0  0  0
    0.8330   -2.4160    2.4370 O   0  0  0  0  0  0  0  0  0  0  0  0
    5.0090   -2.0250    6.7570 H   0  0  0  0  0  0  0  0  0  0  0  0
    3.3530   -2.6170    6.4770 H   0  0  0  0  0  0  0  0  0  0  0  0
    2.4170   -1.9830    3.9900 H   0  0  0  0  0  0  0  0  0  0  0  0
    3.3300   -3.5660    3.7800 H   0  0  0  0  0  0  0  0  0  0  0  0
    3.7030   -0.9120    2.3240 H   0  0  0  0  0  0  0  0  0  0  0  0
    4.8790   -2.3050    2.1500 H   0  0  0  0  0  0  0  0  0  0  0  0
    2.9800   -3.6300    1.2030 H   0  0  0  0  0  0  0  0  0  0  0  0
    4.4320   -2.3660   -0.0700 H   0  0  0  0  0  0  0  0  0  0  0  0
    2.9520   -2.5540   -0.8160 H   0  0  0  0  0  0  0  0  0  0  0  0
    0.9250   -1.0410    0.6370 N   0  0  0  0  0  0  0  0  0  0  0  0
   -0.4270   -0.5480    0.8870 C   0  0  1  0  0  0  0  0  0  0  0  0
   -0.4320    0.9100    1.1560 C   0  0  0  0  0  0  0  0  0  0  0  0
   -1.7330    1.5470    1.4050 C   0  0  0  0  0  0  0  0  0  0  0  0
   -2.3090    1.7550    2.6700 C   0  0  0  0  0  0  0  0  0  0  0  0
   -3.5010    2.3280    2.5210 N   0  0  0  0  0  0  0  0  0  0  0  0
   -3.7840    2.5290    1.2250 C   0  0  0  0  0  0  0  0  0  0  0  0
   -4.8770    3.0950    0.6020 C   0  0  0  0  0  0  0  0  0  0  0  0
   -4.8900    3.1910   -0.7720 C   0  0  0  0  0  0  0  0  0  0  0  0
   -3.8110    2.7170   -1.4760 C   0  0  0  0  0  0  0  0  0  0  0  0
   -2.7340    2.1570   -0.8350 C   0  0  0  0  0  0  0  0  0  0  0  0
   -2.6830    2.0440    0.5260 C   0  0  0  0  0  0  0  0  0  0  0  0
   -1.2880   -1.0100   -0.2030 C   0  0  0  0  0  0  0  0  0  0  0  0
   -2.5470   -0.8750   -0.2400 O   0  0  0  0  0  0  0  0  0  0  0  0
    1.4880   -0.6920   -0.1600 H   0  0  0  0  0  0  0  0  0  0  0  0
   -0.8240   -1.0330    1.8400 H   0  0  0  0  0  0  0  0  0  0  0  0
    0.0680    1.4650    0.3000 H   0  0  0  0  0  0  0  0  0  0  0  0
    0.2200    1.1500    2.0510 H   0  0  0  0  0  0  0  0  0  0  0  0
   -1.8140    1.4730    3.5960 H   0  0  0  0  0  0  0  0  0  0  0  0
   -4.1700    2.6050    3.2930 H   0  0  0  0  0  0  0  0  0  0  0  0
   -5.7350    3.4730    1.1360 H   0  0  0  0  0  0  0  0  0  0  0  0
   -5.7320    3.6310   -1.3250 H   0  0  0  0  0  0  0  0  0  0  0  0
   -3.8380    2.8010   -2.5550 H   0  0  0  0  0  0  0  0  0  0  0  0
   -1.8680    1.7770   -1.3880 H   0  0  0  0  0  0  0  0  0  0  0  0
   -0.7440   -1.6810   -1.3620 N   0  0  0  0  0  0  0  0  0  0  0  0
   -1.5940   -2.1380   -2.4410 C   0  0  1  0  0  0  0  0  0  0  0  0
   -1.1780   -1.5580   -3.7450 C   0  0  0  0  0  0  0  0  0  0  0  0
    0.2070   -1.9620   -4.0740 C   0  0  0  0  0  0  0  0  0  0  0  0
    0.8700   -2.7210   -3.3450 O   0  0  0  0  0  0  0  0  0  0  0  0
   -1.4950   -3.6320   -2.4640 C   0  0  0  0  0  0  0  0  0  0  0  0
   -0.7770   -4.2740   -1.6560 O   0  0  0  0  0  0  0  0  0  0  0  0
    0.8050   -1.4810   -5.2410 O   0  0  0  0  0  0  0  0  0  0  0  0
   -2.2350   -4.3030   -3.4250 O   0  0  0  0  0  0  0  0  0  0  0  0
    0.2890   -1.7990   -1.3410 H   0  0  0  0  0  0  0  0  0  0  0  0
   -2.6470   -1.9010   -2.1810 H   0  0  0  0  0  0  0  0  0  0  0  0
   -1.8960   -1.9120   -4.5220 H   0  0  0  0  0  0  0  0  0  0  0  0
   -1.2410   -0.4350   -3.6390 H   0  0  0  0  0  0  0  0  0  0  0  0
    1.5510   -1.9980   -5.7020 H   0  0  0  0  0  0  0  0  0  0  0  0
  1 11  1  0  0  0  0
  1 10  1  0  0  0  0
  2  1  1  0  0  0  0
  3  2  2  0  0  0  0
  4 13  1  0  0  0  0
  4 12  1  0  0  0  0
  4  2  1  0  0  0  0
  5  4  1  0  0  0  0
  6 16  1  6  0  0  0
  6  8  1  0  0  0  0
  6  5  1  0  0  0  0
  7  6  1  0  0  0  0
  8  9  2  0  0  0  0
 14  5  1  0  0  0  0
 15  5  1  0  0  0  0
 17  7  1  0  0  0  0
 18  7  1  0  0  0  0
 19 20  1  0  0  0  0
 19  8  1  0  0  0  0
 20 21  1  0  0  0  0
 20 34  1  1  0  0  0
 21 22  1  0  0  0  0
 21 36  1  0  0  0  0
 22 23  2  0  0  0  0
 23 37  1  0  0  0  0
 24 23  1  0  0  0  0
 24 38  1  0  0  0  0
 25 24  1  0  0  0  0
 26 39  1  0  0  0  0
 26 25  1  0  0  0  0
 27 26  2  0  0  0  0
 28 29  2  0  0  0  0
 28 27  1  0  0  0  0
 29 30  1  0  0  0  0
 30 25  2  0  0  0  0
 30 22  1  0  0  0  0
 31 20  1  0  0  0  0
 32 31  2  0  0  0  0
 33 19  1  0  0  0  0
 35 21  1  0  0  0  0
 40 27  1  0  0  0  0
 41 28  1  0  0  0  0
 42 29  1  0  0  0  0
 43 52  1  0  0  0  0
 43 31  1  0  0  0  0
 44 53  1  1  0  0  0
 44 43  1  0  0  0  0
 45 55  1  0  0  0  0
 45 44  1  0  0  0  0
 46 45  1  0  0  0  0
 46 47  2  0  0  0  0
 48 44  1  0  0  0  0
 48 49  1  0  0  0  0
 50 46  1  0  0  0  0
 51 48  2  0  0  0  0
 54 45  1  0  0  0  0
 56 50  1  0  0  0  0
M  END
$$$$
