QWI.pdb
 OpenBabel07022418343D

 62 63  0  0  1  0  0  0  0  0999 V2000
    3.9590   -1.1890    6.8450 N   0  0  0  0  0  0  0  0  0  0  0  0
    4.2530   -0.4800    5.6520 C   0  0  0  0  0  0  0  0  0  0  0  0
    4.7840    0.6520    5.7560 O   0  0  0  0  0  0  0  0  0  0  0  0
    3.9480   -1.0420    4.2990 C   0  0  0  0  0  0  0  0  0  0  0  0
    4.3620   -0.0840    3.2350 C   0  0  0  0  0  0  0  0  0  0  0  0
    4.1040   -0.6020    1.8440 C   0  0  2  0  0  0  0  0  0  0  0  0
    4.5580    0.4120    0.8810 N   0  0  0  0  0  0  0  0  0  0  0  0
    2.6280   -0.7950    1.6910 C   0  0  0  0  0  0  0  0  0  0  0  0
    2.0240   -1.7150    2.2920 O   0  0  0  0  0  0  0  0  0  0  0  0
    3.9070   -2.2410    6.7890 H   0  0  0  0  0  0  0  0  0  0  0  0
    3.7950   -0.7450    7.7540 H   0  0  0  0  0  0  0  0  0  0  0  0
    2.8850   -1.3150    4.3200 H   0  0  0  0  0  0  0  0  0  0  0  0
    4.5720   -1.9610    4.2030 H   0  0  0  0  0  0  0  0  0  0  0  0
    5.4380    0.1570    3.3910 H   0  0  0  0  0  0  0  0  0  0  0  0
    3.7610    0.8540    3.4040 H   0  0  0  0  0  0  0  0  0  0  0  0
    4.6870   -1.5050    1.6820 H   0  0  0  0  0  0  0  0  0  0  0  0
    5.5790    0.5440    1.0730 H   0  0  0  0  0  0  0  0  0  0  0  0
    4.5200   -0.0360   -0.0810 H   0  0  0  0  0  0  0  0  0  0  0  0
    1.8400    0.0380    0.8710 N   0  0  0  0  0  0  0  0  0  0  0  0
    0.3770   -0.1420    0.7110 C   0  0  1  0  0  0  0  0  0  0  0  0
   -0.3220    1.0400    1.2680 C   0  0  0  0  0  0  0  0  0  0  0  0
   -1.7810    1.0930    1.1780 C   0  0  0  0  0  0  0  0  0  0  0  0
   -2.7170    0.7370    2.1400 C   0  0  0  0  0  0  0  0  0  0  0  0
   -3.9650    0.9470    1.6570 N   0  0  0  0  0  0  0  0  0  0  0  0
   -3.9000    1.4330    0.4000 C   0  0  0  0  0  0  0  0  0  0  0  0
   -4.8920    1.8110   -0.4760 C   0  0  0  0  0  0  0  0  0  0  0  0
   -4.5490    2.3060   -1.7130 C   0  0  0  0  0  0  0  0  0  0  0  0
   -3.1960    2.4130   -2.0530 C   0  0  0  0  0  0  0  0  0  0  0  0
   -2.2380    2.0190   -1.1390 C   0  0  0  0  0  0  0  0  0  0  0  0
   -2.5580    1.5260    0.0960 C   0  0  0  0  0  0  0  0  0  0  0  0
    0.0940   -0.5290   -0.6740 C   0  0  0  0  0  0  0  0  0  0  0  0
    0.9630   -0.3650   -1.6020 O   0  0  0  0  0  0  0  0  0  0  0  0
    2.2930    0.8110    0.3540 H   0  0  0  0  0  0  0  0  0  0  0  0
    0.0580   -1.0250    1.3440 H   0  0  0  0  0  0  0  0  0  0  0  0
    0.1380    2.0140    0.9050 H   0  0  0  0  0  0  0  0  0  0  0  0
   -0.0540    1.0670    2.3720 H   0  0  0  0  0  0  0  0  0  0  0  0
   -2.4760    0.3490    3.1320 H   0  0  0  0  0  0  0  0  0  0  0  0
   -4.8550    0.7710    2.1510 H   0  0  0  0  0  0  0  0  0  0  0  0
   -5.9410    1.7390   -0.2400 H   0  0  0  0  0  0  0  0  0  0  0  0
   -5.2840    2.6240   -2.4530 H   0  0  0  0  0  0  0  0  0  0  0  0
   -2.8880    2.8030   -3.0310 H   0  0  0  0  0  0  0  0  0  0  0  0
   -1.1690    2.0890   -1.3730 H   0  0  0  0  0  0  0  0  0  0  0  0
   -3.2680   -3.7760   -1.4450 C   0  0  0  0  0  0  0  0  0  0  0  0
   -1.7800   -3.8980   -1.4480 C   0  0  0  0  0  0  0  0  0  0  0  0
   -1.1320   -3.0060   -2.4280 C   0  0  2  0  0  0  0  0  0  0  0  0
    0.3520   -3.1900   -2.3710 C   0  0  0  0  0  0  0  0  0  0  0  0
   -1.5140   -1.5380   -2.3500 C   0  0  2  0  0  0  0  0  0  0  0  0
   -1.1620   -1.1140   -1.0180 N   0  0  0  0  0  0  0  0  0  0  0  0
   -2.8570   -1.2580   -2.7980 C   0  0  0  0  0  0  0  0  0  0  0  0
   -3.7830   -0.7600   -2.1150 O   0  0  0  0  0  0  0  0  0  0  0  0
   -3.2270   -1.5500   -4.1280 O   0  0  0  0  0  0  0  0  0  0  0  0
   -3.7480   -4.7520   -1.1130 H   0  0  0  0  0  0  0  0  0  0  0  0
   -3.7150   -3.5970   -2.4360 H   0  0  0  0  0  0  0  0  0  0  0  0
   -3.6170   -3.0550   -0.6660 H   0  0  0  0  0  0  0  0  0  0  0  0
   -1.5650   -4.9610   -1.7770 H   0  0  0  0  0  0  0  0  0  0  0  0
   -1.3410   -3.8590   -0.4280 H   0  0  0  0  0  0  0  0  0  0  0  0
   -1.4510   -3.3320   -3.4570 H   0  0  0  0  0  0  0  0  0  0  0  0
    0.9070   -2.6290   -3.1480 H   0  0  0  0  0  0  0  0  0  0  0  0
    0.7790   -3.0890   -1.3510 H   0  0  0  0  0  0  0  0  0  0  0  0
    0.5400   -4.2750   -2.6340 H   0  0  0  0  0  0  0  0  0  0  0  0
   -0.7710   -1.0340   -3.0240 H   0  0  0  0  0  0  0  0  0  0  0  0
   -1.8610   -1.2440   -0.2660 H   0  0  0  0  0  0  0  0  0  0  0  0
  1 11  1  0  0  0  0
  2  3  2  0  0  0  0
  2  1  1  0  0  0  0
  4 12  1  0  0  0  0
  4  2  1  0  0  0  0
  5 14  1  0  0  0  0
  5 15  1  0  0  0  0
  5  4  1  0  0  0  0
  6 16  1  6  0  0  0
  6  5  1  0  0  0  0
  7 17  1  0  0  0  0
  7  6  1  0  0  0  0
  8  6  1  0  0  0  0
  8  9  2  0  0  0  0
 10  1  1  0  0  0  0
 13  4  1  0  0  0  0
 18  7  1  0  0  0  0
 19  8  1  0  0  0  0
 20 19  1  0  0  0  0
 20 21  1  0  0  0  0
 20 34  1  1  0  0  0
 21 36  1  0  0  0  0
 22 21  1  0  0  0  0
 22 23  2  0  0  0  0
 23 37  1  0  0  0  0
 24 23  1  0  0  0  0
 24 38  1  0  0  0  0
 25 24  1  0  0  0  0
 26 39  1  0  0  0  0
 26 25  2  0  0  0  0
 27 26  1  0  0  0  0
 28 27  2  0  0  0  0
 28 29  1  0  0  0  0
 29 30  2  0  0  0  0
 30 25  1  0  0  0  0
 30 22  1  0  0  0  0
 31 20  1  0  0  0  0
 32 31  2  0  0  0  0
 33 19  1  0  0  0  0
 35 21  1  0  0  0  0
 40 27  1  0  0  0  0
 41 28  1  0  0  0  0
 42 29  1  0  0  0  0
 43 52  1  0  0  0  0
 43 54  1  0  0  0  0
 44 43  1  0  0  0  0
 44 56  1  0  0  0  0
 45 57  1  6  0  0  0
 45 46  1  0  0  0  0
 45 47  1  0  0  0  0
 45 44  1  0  0  0  0
 46 59  1  0  0  0  0
 47 61  1  6  0  0  0
 47 48  1  0  0  0  0
 48 31  1  0  0  0  0
 48 62  1  0  0  0  0
 49 47  1  0  0  0  0
 49 50  1  0  0  0  0
 51 49  2  0  0  0  0
 53 43  1  0  0  0  0
 55 44  1  0  0  0  0
 58 46  1  0  0  0  0
 60 46  1  0  0  0  0
M  END
$$$$
