QWK.pdb
 OpenBabel07022418343D

 64 65  0  0  1  0  0  0  0  0999 V2000
    5.2860   -1.2020    5.3580 N   0  0  0  0  0  0  0  0  0  0  0  0
    4.0690   -1.2270    4.6230 C   0  0  0  0  0  0  0  0  0  0  0  0
    3.3010   -0.2490    4.7560 O   0  0  0  0  0  0  0  0  0  0  0  0
    3.7750   -2.3880    3.7490 C   0  0  0  0  0  0  0  0  0  0  0  0
    2.4310   -2.3310    3.0890 C   0  0  0  0  0  0  0  0  0  0  0  0
    1.2750   -2.3010    4.0310 C   0  0  2  0  0  0  0  0  0  0  0  0
    1.2610   -3.4930    4.8740 N   0  0  0  0  0  0  0  0  0  0  0  0
   -0.0280   -2.1370    3.3340 C   0  0  0  0  0  0  0  0  0  0  0  0
   -0.9230   -2.9840    3.5710 O   0  0  0  0  0  0  0  0  0  0  0  0
    5.2980   -1.1300    6.3900 H   0  0  0  0  0  0  0  0  0  0  0  0
    6.1870   -1.2590    4.8440 H   0  0  0  0  0  0  0  0  0  0  0  0
    4.6090   -2.4120    2.9980 H   0  0  0  0  0  0  0  0  0  0  0  0
    3.9160   -3.3250    4.3420 H   0  0  0  0  0  0  0  0  0  0  0  0
    2.3850   -3.1570    2.3620 H   0  0  0  0  0  0  0  0  0  0  0  0
    2.4210   -1.3930    2.4580 H   0  0  0  0  0  0  0  0  0  0  0  0
    1.3510   -1.4520    4.7320 H   0  0  0  0  0  0  0  0  0  0  0  0
    0.2880   -3.6820    5.1610 H   0  0  0  0  0  0  0  0  0  0  0  0
    1.5710   -4.3320    4.3200 H   0  0  0  0  0  0  0  0  0  0  0  0
   -0.1960   -1.0430    2.4460 N   0  0  0  0  0  0  0  0  0  0  0  0
   -1.4940   -0.8960    1.7650 C   0  0  1  0  0  0  0  0  0  0  0  0
   -2.1150    0.3750    2.3000 C   0  0  0  0  0  0  0  0  0  0  0  0
   -1.2600    1.5710    2.0990 C   0  0  0  0  0  0  0  0  0  0  0  0
   -0.4190    2.1430    3.0540 C   0  0  0  0  0  0  0  0  0  0  0  0
    0.2340    3.1950    2.5480 N   0  0  0  0  0  0  0  0  0  0  0  0
   -0.1590    3.3280    1.2810 C   0  0  0  0  0  0  0  0  0  0  0  0
    0.2020    4.2530    0.3190 C   0  0  0  0  0  0  0  0  0  0  0  0
   -0.3420    4.2170   -0.9580 C   0  0  0  0  0  0  0  0  0  0  0  0
   -1.2610    3.2280   -1.2480 C   0  0  0  0  0  0  0  0  0  0  0  0
   -1.6230    2.3050   -0.2880 C   0  0  0  0  0  0  0  0  0  0  0  0
   -1.0880    2.3310    0.9800 C   0  0  0  0  0  0  0  0  0  0  0  0
   -1.3590   -1.0000    0.3270 C   0  0  0  0  0  0  0  0  0  0  0  0
   -0.2050   -0.9430   -0.1760 O   0  0  0  0  0  0  0  0  0  0  0  0
    0.5330   -0.3290    2.2330 H   0  0  0  0  0  0  0  0  0  0  0  0
   -2.1810   -1.7200    2.0880 H   0  0  0  0  0  0  0  0  0  0  0  0
   -2.3130    0.2980    3.3840 H   0  0  0  0  0  0  0  0  0  0  0  0
   -3.0770    0.6090    1.7790 H   0  0  0  0  0  0  0  0  0  0  0  0
   -0.3100    1.7890    4.0540 H   0  0  0  0  0  0  0  0  0  0  0  0
    0.9260    3.8150    3.0240 H   0  0  0  0  0  0  0  0  0  0  0  0
    0.9250    5.0220    0.5650 H   0  0  0  0  0  0  0  0  0  0  0  0
   -0.0200    4.9620   -1.6610 H   0  0  0  0  0  0  0  0  0  0  0  0
   -1.6720    3.2230   -2.2550 H   0  0  0  0  0  0  0  0  0  0  0  0
   -2.3440    1.5580   -0.5380 H   0  0  0  0  0  0  0  0  0  0  0  0
   -2.4470   -1.1720   -0.5720 N   0  0  0  0  0  0  0  0  0  0  0  0
   -2.1160   -1.2650   -2.0160 C   0  0  1  0  0  0  0  0  0  0  0  0
   -2.3740   -2.6520   -2.4930 C   0  0  0  0  0  0  0  0  0  0  0  0
   -2.0320   -2.9050   -3.9090 C   0  0  0  0  0  0  0  0  0  0  0  0
   -0.6530   -2.8750   -4.3810 C   0  0  0  0  0  0  0  0  0  0  0  0
    0.2270   -1.7040   -4.2950 C   0  0  0  0  0  0  0  0  0  0  0  0
   -0.1940   -0.5080   -4.9420 N   0  0  0  0  0  0  0  0  0  0  0  0
   -3.1200   -0.3830   -2.6720 C   0  0  0  0  0  0  0  0  0  0  0  0
   -3.0490   -0.1710   -3.8910 O   0  0  0  0  0  0  0  0  0  0  0  0
   -4.1690    0.2370   -1.9830 O   0  0  0  0  0  0  0  0  0  0  0  0
   -3.4240   -1.2300   -0.2350 H   0  0  0  0  0  0  0  0  0  0  0  0
   -1.1250   -0.8830   -2.2130 H   0  0  0  0  0  0  0  0  0  0  0  0
   -3.4930   -2.8760   -2.3890 H   0  0  0  0  0  0  0  0  0  0  0  0
   -1.9410   -3.4260   -1.8000 H   0  0  0  0  0  0  0  0  0  0  0  0
   -2.4570   -3.9450   -4.2250 H   0  0  0  0  0  0  0  0  0  0  0  0
   -2.6610   -2.2580   -4.6160 H   0  0  0  0  0  0  0  0  0  0  0  0
   -0.6970   -3.1340   -5.5070 H   0  0  0  0  0  0  0  0  0  0  0  0
   -0.1450   -3.8130   -3.9810 H   0  0  0  0  0  0  0  0  0  0  0  0
    1.1760   -2.0160   -4.9160 H   0  0  0  0  0  0  0  0  0  0  0  0
    0.6880   -1.4740   -3.3200 H   0  0  0  0  0  0  0  0  0  0  0  0
   -0.3520    0.2250   -4.1850 H   0  0  0  0  0  0  0  0  0  0  0  0
    0.5680   -0.1150   -5.5170 H   0  0  0  0  0  0  0  0  0  0  0  0
  1 10  1  0  0  0  0
  2  3  2  0  0  0  0
  2  1  1  0  0  0  0
  4 13  1  0  0  0  0
  4  2  1  0  0  0  0
  5  4  1  0  0  0  0
  5  6  1  0  0  0  0
  6 16  1  1  0  0  0
  6  7  1  0  0  0  0
  7 17  1  0  0  0  0
  8  9  2  0  0  0  0
  8  6  1  0  0  0  0
 11  1  1  0  0  0  0
 12  4  1  0  0  0  0
 14  5  1  0  0  0  0
 15  5  1  0  0  0  0
 18  7  1  0  0  0  0
 19  8  1  0  0  0  0
 20 34  1  1  0  0  0
 20 21  1  0  0  0  0
 20 19  1  0  0  0  0
 21 35  1  0  0  0  0
 22 21  1  0  0  0  0
 22 23  2  0  0  0  0
 23 37  1  0  0  0  0
 24 38  1  0  0  0  0
 24 23  1  0  0  0  0
 25 24  1  0  0  0  0
 26 39  1  0  0  0  0
 26 25  2  0  0  0  0
 27 26  1  0  0  0  0
 28 27  2  0  0  0  0
 28 29  1  0  0  0  0
 29 30  2  0  0  0  0
 30 25  1  0  0  0  0
 30 22  1  0  0  0  0
 31 20  1  0  0  0  0
 32 31  2  0  0  0  0
 33 19  1  0  0  0  0
 36 21  1  0  0  0  0
 40 27  1  0  0  0  0
 41 28  1  0  0  0  0
 42 29  1  0  0  0  0
 43 53  1  0  0  0  0
 43 31  1  0  0  0  0
 44 54  1  6  0  0  0
 44 43  1  0  0  0  0
 45 55  1  0  0  0  0
 45 44  1  0  0  0  0
 45 56  1  0  0  0  0
 46 45  1  0  0  0  0
 47 48  1  0  0  0  0
 47 60  1  0  0  0  0
 47 46  1  0  0  0  0
 48 62  1  0  0  0  0
 49 48  1  0  0  0  0
 49 63  1  0  0  0  0
 50 44  1  0  0  0  0
 50 52  1  0  0  0  0
 51 50  2  0  0  0  0
 57 46  1  0  0  0  0
 58 46  1  0  0  0  0
 59 47  1  0  0  0  0
 61 48  1  0  0  0  0
 64 49  1  0  0  0  0
M  END
$$$$
