QWP.pdb
 OpenBabel07022418343D

 57 59  0  0  1  0  0  0  0  0999 V2000
    5.9950   -1.8970    6.2070 N   0  0  0  0  0  0  0  0  0  0  0  0
    4.6940   -1.6950    5.6310 C   0  0  0  0  0  0  0  0  0  0  0  0
    4.0100   -2.7500    5.4980 O   0  0  0  0  0  0  0  0  0  0  0  0
    4.2100   -0.3700    5.2350 C   0  0  0  0  0  0  0  0  0  0  0  0
    2.8750   -0.3590    4.5530 C   0  0  0  0  0  0  0  0  0  0  0  0
    2.8490   -1.1430    3.2750 C   0  0  2  0  0  0  0  0  0  0  0  0
    3.8260   -0.5600    2.3760 N   0  0  0  0  0  0  0  0  0  0  0  0
    1.4890   -1.1460    2.6540 C   0  0  0  0  0  0  0  0  0  0  0  0
    0.5340   -1.6490    3.2860 O   0  0  0  0  0  0  0  0  0  0  0  0
    6.2170   -2.6490    6.8880 H   0  0  0  0  0  0  0  0  0  0  0  0
    6.7960   -1.2660    5.9490 H   0  0  0  0  0  0  0  0  0  0  0  0
    4.1780    0.2640    6.1440 H   0  0  0  0  0  0  0  0  0  0  0  0
    4.9890    0.0660    4.5470 H   0  0  0  0  0  0  0  0  0  0  0  0
    2.5900    0.7010    4.3300 H   0  0  0  0  0  0  0  0  0  0  0  0
    2.0820   -0.7770    5.2070 H   0  0  0  0  0  0  0  0  0  0  0  0
    3.1130   -2.1880    3.4490 H   0  0  0  0  0  0  0  0  0  0  0  0
    4.1500   -1.2270    1.6450 H   0  0  0  0  0  0  0  0  0  0  0  0
    3.5960    0.3840    2.0530 H   0  0  0  0  0  0  0  0  0  0  0  0
    1.2400   -0.6000    1.3740 N   0  0  0  0  0  0  0  0  0  0  0  0
   -0.1280   -0.6120    0.7640 C   0  0  1  0  0  0  0  0  0  0  0  0
   -0.5200    0.8290    0.6020 C   0  0  0  0  0  0  0  0  0  0  0  0
   -1.8120    1.1170    0.0040 C   0  0  0  0  0  0  0  0  0  0  0  0
   -3.0180    1.4260    0.6600 C   0  0  0  0  0  0  0  0  0  0  0  0
   -3.9850    1.6220   -0.2460 N   0  0  0  0  0  0  0  0  0  0  0  0
   -3.5020    1.4620   -1.4900 C   0  0  0  0  0  0  0  0  0  0  0  0
   -4.1440    1.5780   -2.7030 C   0  0  0  0  0  0  0  0  0  0  0  0
   -3.4000    1.3710   -3.8450 C   0  0  0  0  0  0  0  0  0  0  0  0
   -2.0560    1.0580   -3.7400 C   0  0  0  0  0  0  0  0  0  0  0  0
   -1.4440    0.9480   -2.5060 C   0  0  0  0  0  0  0  0  0  0  0  0
   -2.1710    1.1520   -1.3470 C   0  0  0  0  0  0  0  0  0  0  0  0
    0.0400   -1.3840   -0.4690 C   0  0  0  0  0  0  0  0  0  0  0  0
    1.1490   -1.4070   -1.0850 O   0  0  0  0  0  0  0  0  0  0  0  0
    2.0370   -0.1850    0.8600 H   0  0  0  0  0  0  0  0  0  0  0  0
   -0.8400   -1.1150    1.4160 H   0  0  0  0  0  0  0  0  0  0  0  0
   -0.4030    1.3860    1.5680 H   0  0  0  0  0  0  0  0  0  0  0  0
    0.2600    1.3320   -0.0590 H   0  0  0  0  0  0  0  0  0  0  0  0
   -3.0780    1.4800    1.7400 H   0  0  0  0  0  0  0  0  0  0  0  0
   -4.9810    1.8650   -0.0190 H   0  0  0  0  0  0  0  0  0  0  0  0
   -5.1870    1.8200   -2.8280 H   0  0  0  0  0  0  0  0  0  0  0  0
   -3.8270    1.4430   -4.8450 H   0  0  0  0  0  0  0  0  0  0  0  0
   -1.4710    0.8940   -4.6330 H   0  0  0  0  0  0  0  0  0  0  0  0
   -0.4020    0.7140   -2.3850 H   0  0  0  0  0  0  0  0  0  0  0  0
   -1.0640   -2.1320   -0.9780 N   0  0  0  0  0  0  0  0  0  0  0  0
   -2.3290   -2.2540   -0.2830 C   0  0  0  0  0  0  0  0  0  0  0  0
   -3.3510   -2.3270   -1.3810 C   0  0  0  0  0  0  0  0  0  0  0  0
   -2.5980   -2.6260   -2.6430 C   0  0  0  0  0  0  0  0  0  0  0  0
   -1.1610   -2.9230   -2.1680 C   0  0  1  0  0  0  0  0  0  0  0  0
   -0.2290   -2.6570   -3.2580 C   0  0  0  0  0  0  0  0  0  0  0  0
   -0.2020   -3.5770   -4.1710 O   0  0  0  0  0  0  0  0  0  0  0  0
    0.5970   -1.5940   -3.4460 O   0  0  0  0  0  0  0  0  0  0  0  0
   -2.5460   -1.4980    0.4640 H   0  0  0  0  0  0  0  0  0  0  0  0
   -2.2470   -3.2740    0.2330 H   0  0  0  0  0  0  0  0  0  0  0  0
   -3.8820   -1.3530   -1.4170 H   0  0  0  0  0  0  0  0  0  0  0  0
   -4.0520   -3.1540   -1.1060 H   0  0  0  0  0  0  0  0  0  0  0  0
   -2.5100   -1.7570   -3.3180 H   0  0  0  0  0  0  0  0  0  0  0  0
   -3.0190   -3.5180   -3.1520 H   0  0  0  0  0  0  0  0  0  0  0  0
   -1.1060   -4.0030   -1.8410 H   0  0  0  0  0  0  0  0  0  0  0  0
  1 10  1  0  0  0  0
  2  1  1  0  0  0  0
  3  2  2  0  0  0  0
  4  2  1  0  0  0  0
  4 12  1  0  0  0  0
  5 15  1  0  0  0  0
  5  4  1  0  0  0  0
  6 16  1  1  0  0  0
  6  5  1  0  0  0  0
  7  6  1  0  0  0  0
  8  6  1  0  0  0  0
  8  9  2  0  0  0  0
 11  1  1  0  0  0  0
 13  4  1  0  0  0  0
 14  5  1  0  0  0  0
 17  7  1  0  0  0  0
 18  7  1  0  0  0  0
 19  8  1  0  0  0  0
 20 19  1  0  0  0  0
 20 34  1  1  0  0  0
 21 20  1  0  0  0  0
 21 35  1  0  0  0  0
 22 21  1  0  0  0  0
 22 23  2  0  0  0  0
 23 37  1  0  0  0  0
 24 38  1  0  0  0  0
 24 23  1  0  0  0  0
 25 30  1  0  0  0  0
 25 24  1  0  0  0  0
 26 25  2  0  0  0  0
 27 28  2  0  0  0  0
 27 26  1  0  0  0  0
 28 29  1  0  0  0  0
 29 42  1  0  0  0  0
 29 30  2  0  0  0  0
 30 22  1  0  0  0  0
 31 20  1  0  0  0  0
 32 31  2  0  0  0  0
 33 19  1  0  0  0  0
 36 21  1  0  0  0  0
 39 26  1  0  0  0  0
 40 27  1  0  0  0  0
 41 28  1  0  0  0  0
 43 31  1  0  0  0  0
 43 44  1  0  0  0  0
 44 52  1  0  0  0  0
 44 51  1  0  0  0  0
 45 54  1  0  0  0  0
 45 44  1  0  0  0  0
 46 47  1  0  0  0  0
 46 45  1  0  0  0  0
 47 57  1  1  0  0  0
 47 43  1  0  0  0  0
 48 47  1  0  0  0  0
 49 48  2  0  0  0  0
 50 48  1  0  0  0  0
 53 45  1  0  0  0  0
 55 46  1  0  0  0  0
 56 46  1  0  0  0  0
M  END
$$$$
