QWV.pdb
 OpenBabel07022418343D

 59 60  0  0  1  0  0  0  0  0999 V2000
    3.6570   -2.5640    6.0730 N   0  0  0  0  0  0  0  0  0  0  0  0
    4.2490   -1.9060    4.9670 C   0  0  0  0  0  0  0  0  0  0  0  0
    5.0150   -2.5840    4.2500 O   0  0  0  0  0  0  0  0  0  0  0  0
    3.9940   -0.4940    4.6530 C   0  0  0  0  0  0  0  0  0  0  0  0
    4.6050   -0.0100    3.3710 C   0  0  0  0  0  0  0  0  0  0  0  0
    4.1390   -0.7170    2.1400 C   0  0  2  0  0  0  0  0  0  0  0  0
    4.7910   -0.1700    0.9540 N   0  0  0  0  0  0  0  0  0  0  0  0
    2.6650   -0.7220    1.9780 C   0  0  0  0  0  0  0  0  0  0  0  0
    1.9680   -1.2270    2.8900 O   0  0  0  0  0  0  0  0  0  0  0  0
    3.4850   -2.0930    6.9890 H   0  0  0  0  0  0  0  0  0  0  0  0
    3.3660   -3.5770    6.0020 H   0  0  0  0  0  0  0  0  0  0  0  0
    2.9030   -0.2170    4.7230 H   0  0  0  0  0  0  0  0  0  0  0  0
    4.4510    0.1650    5.4660 H   0  0  0  0  0  0  0  0  0  0  0  0
    5.7080   -0.1910    3.4390 H   0  0  0  0  0  0  0  0  0  0  0  0
    4.3950    1.0760    3.2430 H   0  0  0  0  0  0  0  0  0  0  0  0
    4.4540   -1.7750    2.1920 H   0  0  0  0  0  0  0  0  0  0  0  0
    5.1430    0.7970    1.1060 H   0  0  0  0  0  0  0  0  0  0  0  0
    5.5000   -0.7940    0.5560 H   0  0  0  0  0  0  0  0  0  0  0  0
    1.9920   -0.1970    0.8700 N   0  0  0  0  0  0  0  0  0  0  0  0
    0.5190   -0.2080    0.7210 C   0  0  1  0  0  0  0  0  0  0  0  0
    0.0320    1.2070    0.7250 C   0  0  0  0  0  0  0  0  0  0  0  0
   -1.3980    1.4550    0.5550 C   0  0  0  0  0  0  0  0  0  0  0  0
   -2.3600    1.6260    1.5630 C   0  0  0  0  0  0  0  0  0  0  0  0
   -3.5670    1.8300    1.0070 N   0  0  0  0  0  0  0  0  0  0  0  0
   -3.4540    1.8030   -0.3320 C   0  0  0  0  0  0  0  0  0  0  0  0
   -4.4090    1.9830   -1.3070 C   0  0  0  0  0  0  0  0  0  0  0  0
   -3.9900    1.9270   -2.6180 C   0  0  0  0  0  0  0  0  0  0  0  0
   -2.6550    1.6960   -2.9430 C   0  0  0  0  0  0  0  0  0  0  0  0
   -1.7390    1.5210   -1.9440 C   0  0  0  0  0  0  0  0  0  0  0  0
   -2.1050    1.5690   -0.6180 C   0  0  0  0  0  0  0  0  0  0  0  0
    0.1430   -0.9320   -0.4920 C   0  0  0  0  0  0  0  0  0  0  0  0
    0.9710   -1.1970   -1.4210 O   0  0  0  0  0  0  0  0  0  0  0  0
    2.5310    0.2310    0.0940 H   0  0  0  0  0  0  0  0  0  0  0  0
    0.0700   -0.6980    1.6360 H   0  0  0  0  0  0  0  0  0  0  0  0
    0.2990    1.7050    1.7190 H   0  0  0  0  0  0  0  0  0  0  0  0
    0.6300    1.8290   -0.0040 H   0  0  0  0  0  0  0  0  0  0  0  0
   -2.1060    1.5890    2.6140 H   0  0  0  0  0  0  0  0  0  0  0  0
   -4.4480    1.9850    1.5590 H   0  0  0  0  0  0  0  0  0  0  0  0
   -5.4560    2.1650   -1.1370 H   0  0  0  0  0  0  0  0  0  0  0  0
   -4.7070    2.0630   -3.4090 H   0  0  0  0  0  0  0  0  0  0  0  0
   -2.3200    1.6500   -3.9820 H   0  0  0  0  0  0  0  0  0  0  0  0
   -0.6770    1.3360   -2.1390 H   0  0  0  0  0  0  0  0  0  0  0  0
   -2.5470   -3.8550   -0.4720 C   0  0  0  0  0  0  0  0  0  0  0  0
   -1.5090   -3.6400   -1.5220 C   0  0  0  0  0  0  0  0  0  0  0  0
   -1.8050   -4.4500   -2.7590 C   0  0  0  0  0  0  0  0  0  0  0  0
   -1.4870   -2.1520   -1.9780 C   0  0  2  0  0  0  0  0  0  0  0  0
   -1.1780   -1.4250   -0.7560 N   0  0  0  0  0  0  0  0  0  0  0  0
   -2.8740   -1.8510   -2.3790 C   0  0  0  0  0  0  0  0  0  0  0  0
   -3.6520   -1.1300   -1.7110 O   0  0  0  0  0  0  0  0  0  0  0  0
   -3.4090   -2.3750   -3.5680 O   0  0  0  0  0  0  0  0  0  0  0  0
   -2.0850   -4.2820    0.4610 H   0  0  0  0  0  0  0  0  0  0  0  0
   -3.3280   -4.5920   -0.7990 H   0  0  0  0  0  0  0  0  0  0  0  0
   -3.0890   -2.9540   -0.1690 H   0  0  0  0  0  0  0  0  0  0  0  0
   -0.4940   -3.8450   -1.1570 H   0  0  0  0  0  0  0  0  0  0  0  0
   -2.9000   -4.6800   -2.7400 H   0  0  0  0  0  0  0  0  0  0  0  0
   -1.2400   -5.4120   -2.7510 H   0  0  0  0  0  0  0  0  0  0  0  0
   -1.6070   -3.8610   -3.6510 H   0  0  0  0  0  0  0  0  0  0  0  0
   -0.7570   -2.0340   -2.7750 H   0  0  0  0  0  0  0  0  0  0  0  0
   -1.9390   -1.2720   -0.0760 H   0  0  0  0  0  0  0  0  0  0  0  0
  1 10  1  0  0  0  0
  2  1  1  0  0  0  0
  3  2  2  0  0  0  0
  4 12  1  0  0  0  0
  4  2  1  0  0  0  0
  4 13  1  0  0  0  0
  5 14  1  0  0  0  0
  5  4  1  0  0  0  0
  6 16  1  1  0  0  0
  6  5  1  0  0  0  0
  7 17  1  0  0  0  0
  7  6  1  0  0  0  0
  8  6  1  0  0  0  0
  8  9  2  0  0  0  0
 11  1  1  0  0  0  0
 15  5  1  0  0  0  0
 18  7  1  0  0  0  0
 19  8  1  0  0  0  0
 20 21  1  0  0  0  0
 20 19  1  0  0  0  0
 20 34  1  1  0  0  0
 21 35  1  0  0  0  0
 22 21  1  0  0  0  0
 22 23  2  0  0  0  0
 23 37  1  0  0  0  0
 24 38  1  0  0  0  0
 24 23  1  0  0  0  0
 25 24  1  0  0  0  0
 26 39  1  0  0  0  0
 26 25  2  0  0  0  0
 27 26  1  0  0  0  0
 28 27  2  0  0  0  0
 28 29  1  0  0  0  0
 29 30  2  0  0  0  0
 30 25  1  0  0  0  0
 30 22  1  0  0  0  0
 31 20  1  0  0  0  0
 32 31  2  0  0  0  0
 33 19  1  0  0  0  0
 36 21  1  0  0  0  0
 40 27  1  0  0  0  0
 41 28  1  0  0  0  0
 42 29  1  0  0  0  0
 43 53  1  0  0  0  0
 43 51  1  0  0  0  0
 44 54  1  0  0  0  0
 44 43  1  0  0  0  0
 45 56  1  0  0  0  0
 45 55  1  0  0  0  0
 45 44  1  0  0  0  0
 46 58  1  6  0  0  0
 46 44  1  0  0  0  0
 46 47  1  0  0  0  0
 47 31  1  0  0  0  0
 47 59  1  0  0  0  0
 48 46  1  0  0  0  0
 48 49  1  0  0  0  0
 50 48  2  0  0  0  0
 52 43  1  0  0  0  0
 57 45  1  0  0  0  0
M  END
$$$$
