QWW.pdb
 OpenBabel07022418343D

 67 70  0  0  1  0  0  0  0  0999 V2000
    4.3880   -7.2360    2.1500 N   0  0  0  0  0  0  0  0  0  0  0  0
    3.7740   -6.1200    1.4970 C   0  0  0  0  0  0  0  0  0  0  0  0
    3.2570   -6.2310    0.3620 O   0  0  0  0  0  0  0  0  0  0  0  0
    3.7560   -4.8110    2.1910 C   0  0  0  0  0  0  0  0  0  0  0  0
    3.0960   -3.7080    1.4490 C   0  0  0  0  0  0  0  0  0  0  0  0
    3.7000   -3.3680    0.1200 C   0  0  2  0  0  0  0  0  0  0  0  0
    5.1000   -2.9860    0.3720 N   0  0  0  0  0  0  0  0  0  0  0  0
    2.9530   -2.1490   -0.3680 C   0  0  0  0  0  0  0  0  0  0  0  0
    3.6190   -1.1180   -0.6380 O   0  0  0  0  0  0  0  0  0  0  0  0
    4.0350   -7.5410    3.0720 H   0  0  0  0  0  0  0  0  0  0  0  0
    5.1760   -7.7040    1.6740 H   0  0  0  0  0  0  0  0  0  0  0  0
    3.1630   -4.9710    3.1390 H   0  0  0  0  0  0  0  0  0  0  0  0
    4.7810   -4.5520    2.5480 H   0  0  0  0  0  0  0  0  0  0  0  0
    3.1020   -2.7710    2.0580 H   0  0  0  0  0  0  0  0  0  0  0  0
    2.0160   -3.9900    1.3300 H   0  0  0  0  0  0  0  0  0  0  0  0
    3.6210   -4.1960   -0.5840 H   0  0  0  0  0  0  0  0  0  0  0  0
    5.3780   -2.2220   -0.2940 H   0  0  0  0  0  0  0  0  0  0  0  0
    5.7440   -3.7880    0.1510 H   0  0  0  0  0  0  0  0  0  0  0  0
    1.5580   -2.1160   -0.5320 N   0  0  0  0  0  0  0  0  0  0  0  0
    0.8680   -0.8880   -1.0200 C   0  0  1  0  0  0  0  0  0  0  0  0
    0.1330   -1.2860   -2.2130 C   0  0  0  0  0  0  0  0  0  0  0  0
   -0.6580   -0.3650   -2.9940 C   0  0  0  0  0  0  0  0  0  0  0  0
   -0.1820    0.3100   -4.1430 C   0  0  0  0  0  0  0  0  0  0  0  0
   -1.1560    1.0940   -4.6290 N   0  0  0  0  0  0  0  0  0  0  0  0
   -2.2600    0.9800   -3.8660 C   0  0  0  0  0  0  0  0  0  0  0  0
   -3.5010    1.5830   -3.9930 C   0  0  0  0  0  0  0  0  0  0  0  0
   -4.4900    1.2760   -3.0700 C   0  0  0  0  0  0  0  0  0  0  0  0
   -4.1770    0.3790   -2.0690 C   0  0  0  0  0  0  0  0  0  0  0  0
   -2.9500   -0.2160   -1.9420 C   0  0  0  0  0  0  0  0  0  0  0  0
   -1.9500    0.0820   -2.8590 C   0  0  0  0  0  0  0  0  0  0  0  0
    0.2340   -0.2650    0.1440 C   0  0  0  0  0  0  0  0  0  0  0  0
   -0.2550    0.9080    0.1100 O   0  0  0  0  0  0  0  0  0  0  0  0
    0.9830   -2.9330   -0.3220 H   0  0  0  0  0  0  0  0  0  0  0  0
    1.7300   -0.1590   -1.2930 H   0  0  0  0  0  0  0  0  0  0  0  0
    0.9220   -1.7470   -2.9240 H   0  0  0  0  0  0  0  0  0  0  0  0
   -0.5130   -2.1950   -1.9980 H   0  0  0  0  0  0  0  0  0  0  0  0
    0.7960    0.1930   -4.5390 H   0  0  0  0  0  0  0  0  0  0  0  0
   -1.0820    1.7010   -5.4670 H   0  0  0  0  0  0  0  0  0  0  0  0
   -3.7470    2.2890   -4.7760 H   0  0  0  0  0  0  0  0  0  0  0  0
   -5.4800    1.7230   -3.1280 H   0  0  0  0  0  0  0  0  0  0  0  0
   -4.9550    0.1430   -1.3490 H   0  0  0  0  0  0  0  0  0  0  0  0
   -2.7050   -0.9240   -1.1540 H   0  0  0  0  0  0  0  0  0  0  0  0
    0.1390   -0.9160    1.3840 N   0  0  0  0  0  0  0  0  0  0  0  0
   -0.3410   -0.4480    2.6100 C   0  0  1  0  0  0  0  0  0  0  0  0
   -1.7600   -0.1710    2.8930 C   0  0  0  0  0  0  0  0  0  0  0  0
   -2.4660    0.8610    2.1580 C   0  0  0  0  0  0  0  0  0  0  0  0
   -3.4400    0.7040    1.2090 C   0  0  0  0  0  0  0  0  0  0  0  0
   -3.8600    1.9120    0.8070 N   0  0  0  0  0  0  0  0  0  0  0  0
   -3.1980    2.8810    1.4570 C   0  0  0  0  0  0  0  0  0  0  0  0
   -3.2120    4.2780    1.4560 C   0  0  0  0  0  0  0  0  0  0  0  0
   -2.3800    5.0300    2.2740 C   0  0  0  0  0  0  0  0  0  0  0  0
   -1.5160    4.3610    3.1140 C   0  0  0  0  0  0  0  0  0  0  0  0
   -1.4910    2.9830    3.1260 C   0  0  0  0  0  0  0  0  0  0  0  0
   -2.3110    2.2570    2.3170 C   0  0  0  0  0  0  0  0  0  0  0  0
    0.2320   -1.2060    3.7450 C   0  0  0  0  0  0  0  0  0  0  0  0
    0.9760   -2.1770    3.5630 O   0  0  0  0  0  0  0  0  0  0  0  0
   -0.0960   -0.7830    5.0560 O   0  0  0  0  0  0  0  0  0  0  0  0
    0.5000   -1.9310    1.3740 H   0  0  0  0  0  0  0  0  0  0  0  0
    0.1520    0.6180    2.7320 H   0  0  0  0  0  0  0  0  0  0  0  0
   -1.8470   -0.0440    4.0170 H   0  0  0  0  0  0  0  0  0  0  0  0
   -2.3210   -1.1480    2.7350 H   0  0  0  0  0  0  0  0  0  0  0  0
   -3.8420   -0.2410    0.8170 H   0  0  0  0  0  0  0  0  0  0  0  0
   -4.6010    2.1440    0.1000 H   0  0  0  0  0  0  0  0  0  0  0  0
   -3.9090    4.7640    0.7820 H   0  0  0  0  0  0  0  0  0  0  0  0
   -2.4080    6.1230    2.2520 H   0  0  0  0  0  0  0  0  0  0  0  0
   -0.8420    4.8910    3.7740 H   0  0  0  0  0  0  0  0  0  0  0  0
   -0.8180    2.4320    3.7930 H   0  0  0  0  0  0  0  0  0  0  0  0
  1 10  1  0  0  0  0
  2  1  1  0  0  0  0
  2  4  1  0  0  0  0
  3  2  2  0  0  0  0
  4 13  1  0  0  0  0
  4 12  1  0  0  0  0
  5 14  1  0  0  0  0
  5  4  1  0  0  0  0
  6 16  1  6  0  0  0
  6  7  1  0  0  0  0
  6  5  1  0  0  0  0
  8  6  1  0  0  0  0
  9  8  2  0  0  0  0
 11  1  1  0  0  0  0
 15  5  1  0  0  0  0
 17  7  1  0  0  0  0
 18  7  1  0  0  0  0
 19  8  1  0  0  0  0
 19 33  1  0  0  0  0
 20 34  1  6  0  0  0
 20 19  1  0  0  0  0
 20 31  1  0  0  0  0
 21 36  1  0  0  0  0
 21 20  1  0  0  0  0
 22 30  1  0  0  0  0
 22 21  1  0  0  0  0
 23 22  2  0  0  0  0
 24 23  1  0  0  0  0
 24 25  1  0  0  0  0
 25 30  1  0  0  0  0
 26 25  2  0  0  0  0
 26 27  1  0  0  0  0
 27 28  2  0  0  0  0
 28 29  1  0  0  0  0
 28 41  1  0  0  0  0
 29 42  1  0  0  0  0
 30 29  2  0  0  0  0
 31 43  1  0  0  0  0
 32 31  2  0  0  0  0
 35 21  1  0  0  0  0
 37 23  1  0  0  0  0
 38 24  1  0  0  0  0
 39 26  1  0  0  0  0
 40 27  1  0  0  0  0
 43 44  1  0  0  0  0
 44 59  1  1  0  0  0
 44 45  1  0  0  0  0
 44 55  1  0  0  0  0
 45 60  1  0  0  0  0
 46 54  1  0  0  0  0
 46 45  1  0  0  0  0
 47 46  2  0  0  0  0
 48 47  1  0  0  0  0
 48 49  1  0  0  0  0
 49 54  1  0  0  0  0
 50 49  2  0  0  0  0
 50 51  1  0  0  0  0
 51 52  2  0  0  0  0
 52 53  1  0  0  0  0
 52 66  1  0  0  0  0
 53 67  1  0  0  0  0
 54 53  2  0  0  0  0
 55 57  1  0  0  0  0
 56 55  2  0  0  0  0
 58 43  1  0  0  0  0
 61 45  1  0  0  0  0
 62 47  1  0  0  0  0
 63 48  1  0  0  0  0
 64 50  1  0  0  0  0
 65 51  1  0  0  0  0
M  END
$$$$
