QWY.pdb
 OpenBabel07022418343D

 64 66  0  0  1  0  0  0  0  0999 V2000
    1.8430   -0.3330    4.8260 N   0  0  0  0  0  0  0  0  0  0  0  0
    2.0880    0.6740    3.8550 C   0  0  0  0  0  0  0  0  0  0  0  0
    1.0770    1.2600    3.3570 O   0  0  0  0  0  0  0  0  0  0  0  0
    3.4210    1.0720    3.4070 C   0  0  0  0  0  0  0  0  0  0  0  0
    3.5250    1.6530    2.0450 C   0  0  0  0  0  0  0  0  0  0  0  0
    3.2200    0.7780    0.8850 C   0  0  2  0  0  0  0  0  0  0  0  0
    3.3530    1.5730   -0.3570 N   0  0  0  0  0  0  0  0  0  0  0  0
    1.9190    0.1210    0.8280 C   0  0  0  0  0  0  0  0  0  0  0  0
    1.7280   -0.9140    1.5100 O   0  0  0  0  0  0  0  0  0  0  0  0
    1.1730   -0.1970    5.6170 H   0  0  0  0  0  0  0  0  0  0  0  0
    2.3230   -1.2650    4.7990 H   0  0  0  0  0  0  0  0  0  0  0  0
    3.7890    1.8640    4.1310 H   0  0  0  0  0  0  0  0  0  0  0  0
    4.1530    0.2300    3.4590 H   0  0  0  0  0  0  0  0  0  0  0  0
    2.8770    2.5710    1.9720 H   0  0  0  0  0  0  0  0  0  0  0  0
    4.5890    2.0440    1.9570 H   0  0  0  0  0  0  0  0  0  0  0  0
    4.0560    0.0030    0.8320 H   0  0  0  0  0  0  0  0  0  0  0  0
    2.9790    2.5230   -0.2300 H   0  0  0  0  0  0  0  0  0  0  0  0
    2.9560    1.0500   -1.1480 H   0  0  0  0  0  0  0  0  0  0  0  0
    0.8720    0.5970    0.0430 N   0  0  0  0  0  0  0  0  0  0  0  0
   -0.4340    0.0470   -0.1020 C   0  0  1  0  0  0  0  0  0  0  0  0
   -1.5680    0.9630    0.1570 C   0  0  0  0  0  0  0  0  0  0  0  0
   -1.6870    1.5680    1.4750 C   0  0  0  0  0  0  0  0  0  0  0  0
   -1.3640    2.8800    1.7730 C   0  0  0  0  0  0  0  0  0  0  0  0
   -1.5890    3.1310    3.0760 N   0  0  0  0  0  0  0  0  0  0  0  0
   -2.0560    2.0080    3.6530 C   0  0  0  0  0  0  0  0  0  0  0  0
   -2.4500    1.6630    4.9240 C   0  0  0  0  0  0  0  0  0  0  0  0
   -2.8920    0.3870    5.1910 C   0  0  0  0  0  0  0  0  0  0  0  0
   -2.9600   -0.5920    4.2180 C   0  0  0  0  0  0  0  0  0  0  0  0
   -2.5640   -0.2570    2.9280 C   0  0  0  0  0  0  0  0  0  0  0  0
   -2.1240    1.0210    2.6690 C   0  0  0  0  0  0  0  0  0  0  0  0
   -0.5140   -0.3950   -1.5270 C   0  0  0  0  0  0  0  0  0  0  0  0
    0.4480   -0.2580   -2.3250 O   0  0  0  0  0  0  0  0  0  0  0  0
    1.0640    1.4790   -0.5220 H   0  0  0  0  0  0  0  0  0  0  0  0
   -0.5980   -0.8800    0.4920 H   0  0  0  0  0  0  0  0  0  0  0  0
   -1.6820    1.7170   -0.6800 H   0  0  0  0  0  0  0  0  0  0  0  0
   -2.5120    0.3450    0.0220 H   0  0  0  0  0  0  0  0  0  0  0  0
   -0.9800    3.6450    1.0920 H   0  0  0  0  0  0  0  0  0  0  0  0
   -1.4380    4.0240    3.5820 H   0  0  0  0  0  0  0  0  0  0  0  0
   -2.4220    2.3790    5.7300 H   0  0  0  0  0  0  0  0  0  0  0  0
   -3.2050    0.1030    6.1840 H   0  0  0  0  0  0  0  0  0  0  0  0
   -3.3000   -1.5980    4.3930 H   0  0  0  0  0  0  0  0  0  0  0  0
   -2.5880   -0.9600    2.1170 H   0  0  0  0  0  0  0  0  0  0  0  0
    1.9940   -5.8630   -0.8770 O   0  0  0  0  0  0  0  0  0  0  0  0
    0.9990   -5.1300   -1.5340 C   0  0  0  0  0  0  0  0  0  0  0  0
    1.1260   -4.8890   -2.8860 C   0  0  0  0  0  0  0  0  0  0  0  0
    0.1160   -4.1610   -3.4860 C   0  0  0  0  0  0  0  0  0  0  0  0
   -0.9700   -3.6940   -2.7790 C   0  0  0  0  0  0  0  0  0  0  0  0
   -2.0330   -2.9200   -3.4600 C   0  0  0  0  0  0  0  0  0  0  0  0
   -1.7650   -1.4270   -3.4610 C   0  0  2  0  0  0  0  0  0  0  0  0
   -1.6840   -0.9970   -2.0700 N   0  0  0  0  0  0  0  0  0  0  0  0
   -2.9100   -0.7910   -4.1350 C   0  0  0  0  0  0  0  0  0  0  0  0
   -3.6480   -0.0080   -3.5090 O   0  0  0  0  0  0  0  0  0  0  0  0
   -1.0920   -3.9380   -1.4280 C   0  0  0  0  0  0  0  0  0  0  0  0
   -0.0870   -4.6640   -0.8220 C   0  0  0  0  0  0  0  0  0  0  0  0
   -3.1660   -1.0610   -5.4590 O   0  0  0  0  0  0  0  0  0  0  0  0
    2.1510   -6.8000   -1.2680 H   0  0  0  0  0  0  0  0  0  0  0  0
    1.9780   -5.2540   -3.4430 H   0  0  0  0  0  0  0  0  0  0  0  0
    0.2060   -3.9620   -4.5630 H   0  0  0  0  0  0  0  0  0  0  0  0
   -2.1690   -3.2960   -4.5160 H   0  0  0  0  0  0  0  0  0  0  0  0
   -2.9870   -3.1620   -2.9500 H   0  0  0  0  0  0  0  0  0  0  0  0
   -0.8000   -1.2250   -3.9700 H   0  0  0  0  0  0  0  0  0  0  0  0
   -2.4980   -1.1300   -1.4450 H   0  0  0  0  0  0  0  0  0  0  0  0
   -1.9550   -3.5670   -0.8650 H   0  0  0  0  0  0  0  0  0  0  0  0
   -0.1620   -4.8670    0.2340 H   0  0  0  0  0  0  0  0  0  0  0  0
  1 10  1  0  0  0  0
  2  1  1  0  0  0  0
  3  2  2  0  0  0  0
  4 13  1  0  0  0  0
  4  2  1  0  0  0  0
  4 12  1  0  0  0  0
  5  4  1  0  0  0  0
  6 16  1  6  0  0  0
  6  5  1  0  0  0  0
  7 17  1  0  0  0  0
  7  6  1  0  0  0  0
  8  6  1  0  0  0  0
  8  9  2  0  0  0  0
 11  1  1  0  0  0  0
 14  5  1  0  0  0  0
 15  5  1  0  0  0  0
 18  7  1  0  0  0  0
 19  8  1  0  0  0  0
 20 19  1  0  0  0  0
 20 21  1  0  0  0  0
 20 34  1  1  0  0  0
 21 22  1  0  0  0  0
 22 23  2  0  0  0  0
 22 30  1  0  0  0  0
 23 24  1  0  0  0  0
 24 38  1  0  0  0  0
 24 25  1  0  0  0  0
 25 26  1  0  0  0  0
 26 27  2  0  0  0  0
 26 39  1  0  0  0  0
 27 40  1  0  0  0  0
 28 41  1  0  0  0  0
 28 27  1  0  0  0  0
 29 28  2  0  0  0  0
 30 29  1  0  0  0  0
 30 25  2  0  0  0  0
 31 20  1  0  0  0  0
 32 31  2  0  0  0  0
 33 19  1  0  0  0  0
 35 21  1  0  0  0  0
 36 21  1  0  0  0  0
 37 23  1  0  0  0  0
 42 29  1  0  0  0  0
 44 43  1  0  0  0  0
 44 54  1  0  0  0  0
 45 44  2  0  0  0  0
 46 45  1  0  0  0  0
 46 47  2  0  0  0  0
 47 53  1  0  0  0  0
 48 60  1  0  0  0  0
 48 47  1  0  0  0  0
 49 61  1  6  0  0  0
 49 48  1  0  0  0  0
 49 50  1  0  0  0  0
 50 31  1  0  0  0  0
 50 62  1  0  0  0  0
 51 52  1  0  0  0  0
 51 49  1  0  0  0  0
 53 63  1  0  0  0  0
 53 54  2  0  0  0  0
 54 64  1  0  0  0  0
 55 51  2  0  0  0  0
 56 43  1  0  0  0  0
 57 45  1  0  0  0  0
 58 46  1  0  0  0  0
 59 48  1  0  0  0  0
M  END
$$$$
