QYA.pdb
 OpenBabel07022418343D

 50 50  0  0  1  0  0  0  0  0999 V2000
   -2.1890   -3.2060    3.6290 N   0  0  0  0  0  0  0  0  0  0  0  0
   -1.6980   -1.9170    4.0290 C   0  0  0  0  0  0  0  0  0  0  0  0
   -2.5060   -1.0470    4.4430 O   0  0  0  0  0  0  0  0  0  0  0  0
   -0.2620   -1.6360    3.9520 C   0  0  0  0  0  0  0  0  0  0  0  0
    0.1240   -0.2100    3.9390 C   0  0  0  0  0  0  0  0  0  0  0  0
   -0.3530    0.5430    2.7520 C   0  0  2  0  0  0  0  0  0  0  0  0
   -1.7530    0.5840    2.5560 N   0  0  0  0  0  0  0  0  0  0  0  0
    0.4250    0.1390    1.5330 C   0  0  0  0  0  0  0  0  0  0  0  0
    1.6710   -0.0530    1.6630 O   0  0  0  0  0  0  0  0  0  0  0  0
   -1.5620   -4.0200    3.7670 H   0  0  0  0  0  0  0  0  0  0  0  0
   -3.1390   -3.2720    3.2240 H   0  0  0  0  0  0  0  0  0  0  0  0
    0.2220   -2.1980    4.7940 H   0  0  0  0  0  0  0  0  0  0  0  0
    0.1210   -2.1380    3.0140 H   0  0  0  0  0  0  0  0  0  0  0  0
    1.2410   -0.1240    3.9900 H   0  0  0  0  0  0  0  0  0  0  0  0
   -0.2370    0.3050    4.8630 H   0  0  0  0  0  0  0  0  0  0  0  0
   -0.0420    1.6460    2.8900 H   0  0  0  0  0  0  0  0  0  0  0  0
   -2.1840   -0.1130    1.9460 H   0  0  0  0  0  0  0  0  0  0  0  0
   -2.1290    1.5230    2.2740 H   0  0  0  0  0  0  0  0  0  0  0  0
    0.1060    5.8260   -1.8740 O   0  0  0  0  0  0  0  0  0  0  0  0
    0.5050    4.5070   -1.7290 C   0  0  0  0  0  0  0  0  0  0  0  0
    0.9580    4.0800   -0.5030 C   0  0  0  0  0  0  0  0  0  0  0  0
    1.3720    2.7540   -0.3120 C   0  0  0  0  0  0  0  0  0  0  0  0
    1.3480    1.8240   -1.3200 C   0  0  0  0  0  0  0  0  0  0  0  0
    1.7510    0.4010   -1.1860 C   0  0  0  0  0  0  0  0  0  0  0  0
    0.5000   -0.4080   -0.9380 C   0  0  2  0  0  0  0  0  0  0  0  0
   -0.1760   -0.0290    0.2720 N   0  0  0  0  0  0  0  0  0  0  0  0
    0.6570   -1.8530   -1.1110 C   0  0  0  0  0  0  0  0  0  0  0  0
    1.2350   -2.3210   -2.1270 O   0  0  0  0  0  0  0  0  0  0  0  0
    0.8800    2.2930   -2.5590 C   0  0  0  0  0  0  0  0  0  0  0  0
    0.4730    3.5920   -2.7580 C   0  0  0  0  0  0  0  0  0  0  0  0
   -0.8850    6.0550   -1.9400 H   0  0  0  0  0  0  0  0  0  0  0  0
    0.9890    4.7880    0.3110 H   0  0  0  0  0  0  0  0  0  0  0  0
    1.7310    2.4750    0.6620 H   0  0  0  0  0  0  0  0  0  0  0  0
    2.2230    0.0610   -2.1500 H   0  0  0  0  0  0  0  0  0  0  0  0
    2.5280    0.3070   -0.4330 H   0  0  0  0  0  0  0  0  0  0  0  0
   -0.1840   -0.0420   -1.7920 H   0  0  0  0  0  0  0  0  0  0  0  0
   -1.2270    0.1540    0.2490 H   0  0  0  0  0  0  0  0  0  0  0  0
    0.8630    1.5490   -3.3620 H   0  0  0  0  0  0  0  0  0  0  0  0
    0.1180    3.9240   -3.7220 H   0  0  0  0  0  0  0  0  0  0  0  0
    1.1710   -4.7270    0.8530 C   0  0  0  0  0  0  0  0  0  0  0  0
    0.3260   -4.2370   -0.3250 C   0  0  2  0  0  0  0  0  0  0  0  0
    0.1830   -2.8210   -0.1740 N   0  0  0  0  0  0  0  0  0  0  0  0
   -0.9600   -4.9660   -0.2880 C   0  0  0  0  0  0  0  0  0  0  0  0
   -2.0700   -4.4310   -0.1420 O   0  0  0  0  0  0  0  0  0  0  0  0
   -0.9150   -6.3460   -0.4270 O   0  0  0  0  0  0  0  0  0  0  0  0
    1.9180   -5.4680    0.5300 H   0  0  0  0  0  0  0  0  0  0  0  0
    1.7520   -3.8730    1.3040 H   0  0  0  0  0  0  0  0  0  0  0  0
    0.4820   -5.0810    1.6340 H   0  0  0  0  0  0  0  0  0  0  0  0
    0.8460   -4.5370   -1.2500 H   0  0  0  0  0  0  0  0  0  0  0  0
   -0.3010   -2.4640    0.6770 H   0  0  0  0  0  0  0  0  0  0  0  0
  1 10  1  0  0  0  0
  1  2  1  0  0  0  0
  2  3  2  0  0  0  0
  4  2  1  0  0  0  0
  4 12  1  0  0  0  0
  5  4  1  0  0  0  0
  5 14  1  0  0  0  0
  5 15  1  0  0  0  0
  6 16  1  1  0  0  0
  6  5  1  0  0  0  0
  7  6  1  0  0  0  0
  8  9  2  0  0  0  0
  8  6  1  0  0  0  0
 11  1  1  0  0  0  0
 13  4  1  0  0  0  0
 17  7  1  0  0  0  0
 18  7  1  0  0  0  0
 19 20  1  0  0  0  0
 20 21  1  0  0  0  0
 21 22  2  0  0  0  0
 21 32  1  0  0  0  0
 22 33  1  0  0  0  0
 23 24  1  0  0  0  0
 23 22  1  0  0  0  0
 24 25  1  0  0  0  0
 24 35  1  0  0  0  0
 25 36  1  6  0  0  0
 25 26  1  0  0  0  0
 26  8  1  0  0  0  0
 27 25  1  0  0  0  0
 27 42  1  0  0  0  0
 28 27  2  0  0  0  0
 29 23  2  0  0  0  0
 30 29  1  0  0  0  0
 30 20  2  0  0  0  0
 31 19  1  0  0  0  0
 34 24  1  0  0  0  0
 37 26  1  0  0  0  0
 38 29  1  0  0  0  0
 39 30  1  0  0  0  0
 40 47  1  0  0  0  0
 40 48  1  0  0  0  0
 41 49  1  6  0  0  0
 41 43  1  0  0  0  0
 41 42  1  0  0  0  0
 41 40  1  0  0  0  0
 42 50  1  0  0  0  0
 43 44  1  0  0  0  0
 45 43  2  0  0  0  0
 46 40  1  0  0  0  0
M  END
$$$$
