QYC.pdb
 OpenBabel07022418343D

 51 51  0  0  1  0  0  0  0  0999 V2000
    6.2930   -1.1020   -2.8150 N   0  0  0  0  0  0  0  0  0  0  0  0
    5.1690   -1.4920   -2.0180 C   0  0  0  0  0  0  0  0  0  0  0  0
    5.2640   -2.5770   -1.4110 O   0  0  0  0  0  0  0  0  0  0  0  0
    3.9770   -0.6680   -1.9210 C   0  0  0  0  0  0  0  0  0  0  0  0
    2.9810   -1.0210   -0.8850 C   0  0  0  0  0  0  0  0  0  0  0  0
    3.4100   -0.9610    0.5330 C   0  0  2  0  0  0  0  0  0  0  0  0
    4.4900   -1.7970    0.9260 N   0  0  0  0  0  0  0  0  0  0  0  0
    2.1990   -1.3120    1.3620 C   0  0  0  0  0  0  0  0  0  0  0  0
    2.2590   -2.2280    2.2150 O   0  0  0  0  0  0  0  0  0  0  0  0
    7.2450   -1.0930   -2.3640 H   0  0  0  0  0  0  0  0  0  0  0  0
    6.2130   -0.8300   -3.8050 H   0  0  0  0  0  0  0  0  0  0  0  0
    4.2290    0.4120   -1.7970 H   0  0  0  0  0  0  0  0  0  0  0  0
    3.4330   -0.7370   -2.9130 H   0  0  0  0  0  0  0  0  0  0  0  0
    2.5530   -2.0560   -1.0420 H   0  0  0  0  0  0  0  0  0  0  0  0
    2.1000   -0.3510   -1.0190 H   0  0  0  0  0  0  0  0  0  0  0  0
    3.6340    0.1070    0.7850 H   0  0  0  0  0  0  0  0  0  0  0  0
    5.1870   -1.3230    1.5630 H   0  0  0  0  0  0  0  0  0  0  0  0
    4.2040   -2.7090    1.3600 H   0  0  0  0  0  0  0  0  0  0  0  0
   -2.1340    4.7800   -0.1820 O   0  0  0  0  0  0  0  0  0  0  0  0
   -1.8260    3.6270    0.5500 C   0  0  0  0  0  0  0  0  0  0  0  0
   -0.5900    3.4830    1.1220 C   0  0  0  0  0  0  0  0  0  0  0  0
   -0.2860    2.3520    1.8400 C   0  0  0  0  0  0  0  0  0  0  0  0
   -1.1990    1.3060    2.0260 C   0  0  0  0  0  0  0  0  0  0  0  0
   -0.8130    0.1050    2.8150 C   0  0  0  0  0  0  0  0  0  0  0  0
   -0.2140   -0.9460    1.9940 C   0  0  2  0  0  0  0  0  0  0  0  0
    0.9590   -0.6700    1.2520 N   0  0  0  0  0  0  0  0  0  0  0  0
   -1.2270   -1.5340    1.0980 C   0  0  0  0  0  0  0  0  0  0  0  0
   -0.9900   -1.6230   -0.1480 O   0  0  0  0  0  0  0  0  0  0  0  0
   -2.4280    1.4970    1.4330 C   0  0  0  0  0  0  0  0  0  0  0  0
   -2.7430    2.6240    0.7120 C   0  0  0  0  0  0  0  0  0  0  0  0
   -2.6440    4.7200   -1.0580 H   0  0  0  0  0  0  0  0  0  0  0  0
    0.1770    4.2540    1.0220 H   0  0  0  0  0  0  0  0  0  0  0  0
    0.6830    2.2120    2.3030 H   0  0  0  0  0  0  0  0  0  0  0  0
   -1.7630   -0.2820    3.2490 H   0  0  0  0  0  0  0  0  0  0  0  0
   -0.2420    0.4560    3.6870 H   0  0  0  0  0  0  0  0  0  0  0  0
    0.0700   -1.7970    2.6930 H   0  0  0  0  0  0  0  0  0  0  0  0
    0.8860    0.1040    0.5440 H   0  0  0  0  0  0  0  0  0  0  0  0
   -3.1440    0.6940    1.5690 H   0  0  0  0  0  0  0  0  0  0  0  0
   -3.7130    2.7250    0.2690 H   0  0  0  0  0  0  0  0  0  0  0  0
   -2.4950   -2.0370    1.5070 N   0  0  0  0  0  0  0  0  0  0  0  0
   -3.4510   -2.6080    0.6040 C   0  0  1  0  0  0  0  0  0  0  0  0
   -3.5700   -4.1210    0.8060 C   0  0  0  0  0  0  0  0  0  0  0  0
   -4.0950   -4.5440    2.4670 S   0  0  0  0  0  0  0  0  0  0  0  0
   -4.8010   -2.0770    0.8870 C   0  0  0  0  0  0  0  0  0  0  0  0
   -4.9740   -1.2750    1.8330 O   0  0  0  0  0  0  0  0  0  0  0  0
   -5.9170   -2.4330    0.1350 O   0  0  0  0  0  0  0  0  0  0  0  0
   -2.7240   -1.9790    2.5210 H   0  0  0  0  0  0  0  0  0  0  0  0
   -3.2010   -2.4820   -0.4530 H   0  0  0  0  0  0  0  0  0  0  0  0
   -4.3900   -4.4360    0.1000 H   0  0  0  0  0  0  0  0  0  0  0  0
   -2.6650   -4.6500    0.4720 H   0  0  0  0  0  0  0  0  0  0  0  0
   -3.1590   -5.3830    3.1220 H   0  0  0  0  0  0  0  0  0  0  0  0
  1 10  1  0  0  0  0
  1  2  1  0  0  0  0
  2  4  1  0  0  0  0
  2  3  2  0  0  0  0
  4 12  1  0  0  0  0
  4  5  1  0  0  0  0
  5  6  1  0  0  0  0
  6 16  1  1  0  0  0
  6  7  1  0  0  0  0
  6  8  1  0  0  0  0
  7 18  1  0  0  0  0
  7 17  1  0  0  0  0
  8  9  2  0  0  0  0
 11  1  1  0  0  0  0
 13  4  1  0  0  0  0
 14  5  1  0  0  0  0
 15  5  1  0  0  0  0
 19 20  1  0  0  0  0
 20 30  2  0  0  0  0
 20 21  1  0  0  0  0
 21 22  2  0  0  0  0
 22 23  1  0  0  0  0
 22 33  1  0  0  0  0
 23 24  1  0  0  0  0
 24 34  1  0  0  0  0
 24 35  1  0  0  0  0
 25 36  1  1  0  0  0
 25 24  1  0  0  0  0
 26  8  1  0  0  0  0
 26 25  1  0  0  0  0
 27 40  1  0  0  0  0
 27 25  1  0  0  0  0
 28 27  2  0  0  0  0
 29 38  1  0  0  0  0
 29 23  2  0  0  0  0
 30 29  1  0  0  0  0
 31 19  1  0  0  0  0
 32 21  1  0  0  0  0
 37 26  1  0  0  0  0
 39 30  1  0  0  0  0
 40 47  1  0  0  0  0
 41 48  1  6  0  0  0
 41 42  1  0  0  0  0
 41 44  1  0  0  0  0
 41 40  1  0  0  0  0
 42 43  1  0  0  0  0
 43 51  1  0  0  0  0
 44 45  1  0  0  0  0
 46 44  2  0  0  0  0
 49 42  1  0  0  0  0
 50 42  1  0  0  0  0
M  END
$$$$
