QYF.pdb
 OpenBabel07022418343D

 60 61  0  0  1  0  0  0  0  0999 V2000
    1.3330   -0.9250    5.7080 N   0  0  0  0  0  0  0  0  0  0  0  0
    1.8210    0.0700    4.8210 C   0  0  0  0  0  0  0  0  0  0  0  0
    1.0120    0.6780    4.0660 O   0  0  0  0  0  0  0  0  0  0  0  0
    3.2650    0.3760    4.8070 C   0  0  0  0  0  0  0  0  0  0  0  0
    3.7620    0.9400    3.5340 C   0  0  0  0  0  0  0  0  0  0  0  0
    3.7400    0.0840    2.3260 C   0  0  2  0  0  0  0  0  0  0  0  0
    4.2490    0.9320    1.2280 N   0  0  0  0  0  0  0  0  0  0  0  0
    2.4820   -0.5510    1.9400 C   0  0  0  0  0  0  0  0  0  0  0  0
    2.1230   -1.5940    2.5830 O   0  0  0  0  0  0  0  0  0  0  0  0
    0.5000   -1.4720    5.4090 H   0  0  0  0  0  0  0  0  0  0  0  0
    1.7790   -1.1200    6.6380 H   0  0  0  0  0  0  0  0  0  0  0  0
    3.4150    1.1210    5.6450 H   0  0  0  0  0  0  0  0  0  0  0  0
    3.8780   -0.5030    5.1250 H   0  0  0  0  0  0  0  0  0  0  0  0
    4.8490    1.2170    3.7050 H   0  0  0  0  0  0  0  0  0  0  0  0
    3.2710    1.9330    3.3840 H   0  0  0  0  0  0  0  0  0  0  0  0
    4.5090   -0.7340    2.5100 H   0  0  0  0  0  0  0  0  0  0  0  0
    5.0980    1.4380    1.6170 H   0  0  0  0  0  0  0  0  0  0  0  0
    4.6050    0.2360    0.5170 H   0  0  0  0  0  0  0  0  0  0  0  0
   -0.8550    5.2020   -1.6260 O   0  0  0  0  0  0  0  0  0  0  0  0
   -0.8080    3.9720   -0.9770 C   0  0  0  0  0  0  0  0  0  0  0  0
   -0.2080    3.7880    0.2390 C   0  0  0  0  0  0  0  0  0  0  0  0
   -0.1970    2.5210    0.8390 C   0  0  0  0  0  0  0  0  0  0  0  0
   -0.7870    1.4410    0.2180 C   0  0  0  0  0  0  0  0  0  0  0  0
   -0.7650    0.1520    0.8480 C   0  0  0  0  0  0  0  0  0  0  0  0
    0.3900   -0.7390    0.5380 C   0  0  2  0  0  0  0  0  0  0  0  0
    1.6290   -0.1110    0.9170 N   0  0  0  0  0  0  0  0  0  0  0  0
    0.3240   -1.2560   -0.8180 C   0  0  0  0  0  0  0  0  0  0  0  0
    1.2210   -1.1500   -1.6900 O   0  0  0  0  0  0  0  0  0  0  0  0
   -1.3780    1.6560   -0.9950 C   0  0  0  0  0  0  0  0  0  0  0  0
   -1.4100    2.8850   -1.6150 C   0  0  0  0  0  0  0  0  0  0  0  0
   -0.2480    5.9640   -1.3670 H   0  0  0  0  0  0  0  0  0  0  0  0
    0.2520    4.6220    0.7250 H   0  0  0  0  0  0  0  0  0  0  0  0
    0.2800    2.4120    1.7870 H   0  0  0  0  0  0  0  0  0  0  0  0
   -0.8020    0.2590    1.9700 H   0  0  0  0  0  0  0  0  0  0  0  0
   -1.7000   -0.4010    0.5960 H   0  0  0  0  0  0  0  0  0  0  0  0
    0.2870   -1.6290    1.2320 H   0  0  0  0  0  0  0  0  0  0  0  0
    1.9080    0.7410    0.3810 H   0  0  0  0  0  0  0  0  0  0  0  0
   -1.8370    0.8170   -1.4780 H   0  0  0  0  0  0  0  0  0  0  0  0
   -1.8890    2.9880   -2.5660 H   0  0  0  0  0  0  0  0  0  0  0  0
   -0.8650   -1.9560   -1.2140 N   0  0  0  0  0  0  0  0  0  0  0  0
   -0.9760   -2.4920   -2.5480 C   0  0  1  0  0  0  0  0  0  0  0  0
   -1.0240   -4.0170   -2.5200 C   0  0  0  0  0  0  0  0  0  0  0  0
   -2.1660   -4.5310   -1.7450 C   0  0  0  0  0  0  0  0  0  0  0  0
   -1.9350   -4.7330   -0.3800 C   0  0  0  0  0  0  0  0  0  0  0  0
   -2.9620   -5.2140    0.3950 C   0  0  0  0  0  0  0  0  0  0  0  0
   -4.1970   -5.4960   -0.1410 C   0  0  0  0  0  0  0  0  0  0  0  0
   -4.4140   -5.2930   -1.4870 C   0  0  0  0  0  0  0  0  0  0  0  0
   -3.4020   -4.8090   -2.3030 C   0  0  0  0  0  0  0  0  0  0  0  0
   -2.1890   -2.0390   -3.2310 C   0  0  0  0  0  0  0  0  0  0  0  0
   -2.3730   -2.4200   -4.4250 O   0  0  0  0  0  0  0  0  0  0  0  0
   -3.1640   -1.2260   -2.6900 O   0  0  0  0  0  0  0  0  0  0  0  0
   -1.6590   -2.0870   -0.5500 H   0  0  0  0  0  0  0  0  0  0  0  0
   -0.0930   -2.1700   -3.1470 H   0  0  0  0  0  0  0  0  0  0  0  0
   -1.1290   -4.3960   -3.5570 H   0  0  0  0  0  0  0  0  0  0  0  0
   -0.0450   -4.3530   -2.1490 H   0  0  0  0  0  0  0  0  0  0  0  0
   -0.9630   -4.5110    0.0420 H   0  0  0  0  0  0  0  0  0  0  0  0
   -2.7490   -5.3610    1.4590 H   0  0  0  0  0  0  0  0  0  0  0  0
   -4.9970   -5.8730    0.4790 H   0  0  0  0  0  0  0  0  0  0  0  0
   -5.3670   -5.4980   -1.9620 H   0  0  0  0  0  0  0  0  0  0  0  0
   -3.5580   -4.6460   -3.3680 H   0  0  0  0  0  0  0  0  0  0  0  0
  1 11  1  0  0  0  0
  2  1  1  0  0  0  0
  3  2  2  0  0  0  0
  4  2  1  0  0  0  0
  4 13  1  0  0  0  0
  4 12  1  0  0  0  0
  5 14  1  0  0  0  0
  5  4  1  0  0  0  0
  6 16  1  1  0  0  0
  6  5  1  0  0  0  0
  7 17  1  0  0  0  0
  7  6  1  0  0  0  0
  8  6  1  0  0  0  0
  8  9  2  0  0  0  0
 10  1  1  0  0  0  0
 15  5  1  0  0  0  0
 18  7  1  0  0  0  0
 19 31  1  0  0  0  0
 19 20  1  0  0  0  0
 20 21  1  0  0  0  0
 21 32  1  0  0  0  0
 21 22  2  0  0  0  0
 22 33  1  0  0  0  0
 23 22  1  0  0  0  0
 23 24  1  0  0  0  0
 24 34  1  0  0  0  0
 25 24  1  0  0  0  0
 25 26  1  0  0  0  0
 25 36  1  1  0  0  0
 26  8  1  0  0  0  0
 27 25  1  0  0  0  0
 28 27  2  0  0  0  0
 29 23  2  0  0  0  0
 30 29  1  0  0  0  0
 30 20  2  0  0  0  0
 35 24  1  0  0  0  0
 37 26  1  0  0  0  0
 38 29  1  0  0  0  0
 39 30  1  0  0  0  0
 40 27  1  0  0  0  0
 40 52  1  0  0  0  0
 41 53  1  6  0  0  0
 41 42  1  0  0  0  0
 41 40  1  0  0  0  0
 42 55  1  0  0  0  0
 42 43  1  0  0  0  0
 43 44  1  0  0  0  0
 44 56  1  0  0  0  0
 44 45  2  0  0  0  0
 45 57  1  0  0  0  0
 46 45  1  0  0  0  0
 46 58  1  0  0  0  0
 47 46  2  0  0  0  0
 48 43  2  0  0  0  0
 48 47  1  0  0  0  0
 49 51  1  0  0  0  0
 49 41  1  0  0  0  0
 50 49  2  0  0  0  0
 54 42  1  0  0  0  0
 59 47  1  0  0  0  0
 60 48  1  0  0  0  0
M  END
$$$$
