QYK.pdb
 OpenBabel07022418343D

 61 61  0  0  1  0  0  0  0  0999 V2000
    1.1460    3.5140    5.9600 N   0  0  0  0  0  0  0  0  0  0  0  0
    1.0320    2.1030    6.0470 C   0  0  0  0  0  0  0  0  0  0  0  0
    0.8920    1.5820    7.1860 O   0  0  0  0  0  0  0  0  0  0  0  0
    1.0740    1.2260    4.8370 C   0  0  0  0  0  0  0  0  0  0  0  0
    0.9290   -0.2230    5.2560 C   0  0  0  0  0  0  0  0  0  0  0  0
    0.9640   -1.1570    4.0760 C   0  0  2  0  0  0  0  0  0  0  0  0
    2.2230   -1.0200    3.3710 N   0  0  0  0  0  0  0  0  0  0  0  0
   -0.1990   -0.9480    3.2100 C   0  0  0  0  0  0  0  0  0  0  0  0
   -1.3410   -1.0500    3.7460 O   0  0  0  0  0  0  0  0  0  0  0  0
    0.2990    4.1030    5.7140 H   0  0  0  0  0  0  0  0  0  0  0  0
    2.0190    4.0430    6.1210 H   0  0  0  0  0  0  0  0  0  0  0  0
    0.3340    1.5190    4.0760 H   0  0  0  0  0  0  0  0  0  0  0  0
    2.0770    1.3830    4.3870 H   0  0  0  0  0  0  0  0  0  0  0  0
    1.7830   -0.4610    5.9300 H   0  0  0  0  0  0  0  0  0  0  0  0
   -0.0020   -0.3740    5.8360 H   0  0  0  0  0  0  0  0  0  0  0  0
    0.9540   -2.1950    4.4960 H   0  0  0  0  0  0  0  0  0  0  0  0
    3.0410   -1.1200    3.9800 H   0  0  0  0  0  0  0  0  0  0  0  0
    2.2490   -0.1630    2.7740 H   0  0  0  0  0  0  0  0  0  0  0  0
    2.7330    2.5770   -2.8590 O   0  0  0  0  0  0  0  0  0  0  0  0
    1.7060    2.1810   -2.0100 C   0  0  0  0  0  0  0  0  0  0  0  0
    1.7760    2.3310   -0.6340 C   0  0  0  0  0  0  0  0  0  0  0  0
    0.7690    1.9440    0.2060 C   0  0  0  0  0  0  0  0  0  0  0  0
   -0.3690    1.3820   -0.2940 C   0  0  0  0  0  0  0  0  0  0  0  0
   -1.4990    0.9480    0.6000 C   0  0  0  0  0  0  0  0  0  0  0  0
   -1.3770   -0.4580    1.0790 C   0  0  2  0  0  0  0  0  0  0  0  0
   -0.1560   -0.6430    1.8360 N   0  0  0  0  0  0  0  0  0  0  0  0
   -1.5690   -1.5040    0.0570 C   0  0  0  0  0  0  0  0  0  0  0  0
   -0.7050   -2.3950   -0.0260 O   0  0  0  0  0  0  0  0  0  0  0  0
   -0.4940    1.2090   -1.6480 C   0  0  0  0  0  0  0  0  0  0  0  0
    0.5350    1.6070   -2.4710 C   0  0  0  0  0  0  0  0  0  0  0  0
    3.6630    2.6140   -2.4520 H   0  0  0  0  0  0  0  0  0  0  0  0
    2.6990    2.7840   -0.2690 H   0  0  0  0  0  0  0  0  0  0  0  0
    0.8990    2.0940    1.2690 H   0  0  0  0  0  0  0  0  0  0  0  0
   -1.4080    1.6010    1.5050 H   0  0  0  0  0  0  0  0  0  0  0  0
   -2.4730    1.1810    0.1560 H   0  0  0  0  0  0  0  0  0  0  0  0
   -2.2530   -0.6030    1.7850 H   0  0  0  0  0  0  0  0  0  0  0  0
    0.7960   -0.5600    1.3990 H   0  0  0  0  0  0  0  0  0  0  0  0
   -1.4110    0.7530   -2.0820 H   0  0  0  0  0  0  0  0  0  0  0  0
    0.4320    1.4680   -3.5530 H   0  0  0  0  0  0  0  0  0  0  0  0
   -2.6790   -1.5180   -0.8050 N   0  0  0  0  0  0  0  0  0  0  0  0
   -2.9870   -2.4500   -1.8470 C   0  0  1  0  0  0  0  0  0  0  0  0
   -1.8220   -3.3110   -2.3160 C   0  0  0  0  0  0  0  0  0  0  0  0
   -0.7580   -2.4820   -2.9340 C   0  0  0  0  0  0  0  0  0  0  0  0
    0.4570   -3.1920   -3.4170 C   0  0  0  0  0  0  0  0  0  0  0  0
    1.2490   -3.9420   -2.3960 C   0  0  0  0  0  0  0  0  0  0  0  0
    0.4860   -4.9830   -1.7860 N   0  0  0  0  0  0  0  0  0  0  0  0
   -4.2230   -3.2040   -1.7020 C   0  0  0  0  0  0  0  0  0  0  0  0
   -4.6580   -4.0530   -2.4970 O   0  0  0  0  0  0  0  0  0  0  0  0
   -5.0080   -2.9630   -0.5640 O   0  0  0  0  0  0  0  0  0  0  0  0
   -3.3560   -0.7140   -0.6290 H   0  0  0  0  0  0  0  0  0  0  0  0
   -3.1130   -1.7740   -2.7820 H   0  0  0  0  0  0  0  0  0  0  0  0
   -1.5300   -3.9620   -1.4910 H   0  0  0  0  0  0  0  0  0  0  0  0
   -2.2650   -3.9540   -3.1340 H   0  0  0  0  0  0  0  0  0  0  0  0
   -1.2430   -2.0850   -3.9220 H   0  0  0  0  0  0  0  0  0  0  0  0
   -0.4690   -1.5760   -2.3940 H   0  0  0  0  0  0  0  0  0  0  0  0
    0.2620   -3.8260   -4.3180 H   0  0  0  0  0  0  0  0  0  0  0  0
    1.1470   -2.3890   -3.8170 H   0  0  0  0  0  0  0  0  0  0  0  0
    1.5590   -3.1980   -1.6070 H   0  0  0  0  0  0  0  0  0  0  0  0
    2.1820   -4.3410   -2.8610 H   0  0  0  0  0  0  0  0  0  0  0  0
    0.4470   -5.8270   -2.3680 H   0  0  0  0  0  0  0  0  0  0  0  0
    0.7530   -5.1610   -0.7930 H   0  0  0  0  0  0  0  0  0  0  0  0
  1  2  1  0  0  0  0
  1 11  1  0  0  0  0
  2  3  2  0  0  0  0
  4  5  1  0  0  0  0
  4  2  1  0  0  0  0
  5 15  1  0  0  0  0
  5 14  1  0  0  0  0
  6 16  1  1  0  0  0
  6  5  1  0  0  0  0
  7 17  1  0  0  0  0
  7  6  1  0  0  0  0
  8  9  2  0  0  0  0
  8  6  1  0  0  0  0
 10  1  1  0  0  0  0
 12  4  1  0  0  0  0
 13  4  1  0  0  0  0
 18  7  1  0  0  0  0
 19 31  1  0  0  0  0
 19 20  1  0  0  0  0
 20 21  1  0  0  0  0
 21 32  1  0  0  0  0
 21 22  2  0  0  0  0
 22 33  1  0  0  0  0
 23 22  1  0  0  0  0
 23 24  1  0  0  0  0
 24 25  1  0  0  0  0
 24 34  1  0  0  0  0
 25 36  1  1  0  0  0
 25 26  1  0  0  0  0
 26  8  1  0  0  0  0
 27 25  1  0  0  0  0
 28 27  2  0  0  0  0
 29 23  2  0  0  0  0
 30 20  2  0  0  0  0
 30 29  1  0  0  0  0
 35 24  1  0  0  0  0
 37 26  1  0  0  0  0
 38 29  1  0  0  0  0
 39 30  1  0  0  0  0
 40 50  1  0  0  0  0
 40 27  1  0  0  0  0
 41 51  1  6  0  0  0
 41 47  1  0  0  0  0
 41 40  1  0  0  0  0
 42 41  1  0  0  0  0
 42 52  1  0  0  0  0
 43 55  1  0  0  0  0
 43 42  1  0  0  0  0
 44 43  1  0  0  0  0
 44 45  1  0  0  0  0
 45 46  1  0  0  0  0
 45 58  1  0  0  0  0
 46 61  1  0  0  0  0
 47 49  1  0  0  0  0
 48 47  2  0  0  0  0
 53 42  1  0  0  0  0
 54 43  1  0  0  0  0
 56 44  1  0  0  0  0
 57 44  1  0  0  0  0
 59 45  1  0  0  0  0
 60 46  1  0  0  0  0
M  END
$$$$
