QYL.pdb
 OpenBabel07022418343D

 59 59  0  0  1  0  0  0  0  0999 V2000
   -4.2880    1.8390    4.0920 N   0  0  0  0  0  0  0  0  0  0  0  0
   -3.3220    0.8420    4.3720 C   0  0  0  0  0  0  0  0  0  0  0  0
   -3.6740   -0.3390    4.4810 O   0  0  0  0  0  0  0  0  0  0  0  0
   -1.9050    1.3170    4.5190 C   0  0  0  0  0  0  0  0  0  0  0  0
   -0.9640    0.2100    4.8020 C   0  0  0  0  0  0  0  0  0  0  0  0
   -0.8510   -0.8780    3.7930 C   0  0  2  0  0  0  0  0  0  0  0  0
    0.1430   -1.8140    4.3690 N   0  0  0  0  0  0  0  0  0  0  0  0
   -0.2580   -0.4500    2.4910 C   0  0  0  0  0  0  0  0  0  0  0  0
    0.9030   -0.7970    2.1530 O   0  0  0  0  0  0  0  0  0  0  0  0
   -5.0830    1.5740    3.4720 H   0  0  0  0  0  0  0  0  0  0  0  0
   -4.2550    2.8110    4.4630 H   0  0  0  0  0  0  0  0  0  0  0  0
   -1.6030    2.0340    3.7530 H   0  0  0  0  0  0  0  0  0  0  0  0
   -1.9430    1.9340    5.4710 H   0  0  0  0  0  0  0  0  0  0  0  0
   -1.3090   -0.2860    5.7540 H   0  0  0  0  0  0  0  0  0  0  0  0
    0.0430    0.6300    5.0140 H   0  0  0  0  0  0  0  0  0  0  0  0
   -1.7800   -1.4440    3.6830 H   0  0  0  0  0  0  0  0  0  0  0  0
    0.8380   -1.3130    4.9340 H   0  0  0  0  0  0  0  0  0  0  0  0
    0.5390   -2.4290    3.6260 H   0  0  0  0  0  0  0  0  0  0  0  0
    3.2340    3.2930   -4.3200 O   0  0  0  0  0  0  0  0  0  0  0  0
    2.6350    2.8920   -3.1350 C   0  0  0  0  0  0  0  0  0  0  0  0
    3.0370    1.6840   -2.5980 C   0  0  0  0  0  0  0  0  0  0  0  0
    2.4560    1.2690   -1.4250 C   0  0  0  0  0  0  0  0  0  0  0  0
    1.4970    1.9980   -0.7660 C   0  0  0  0  0  0  0  0  0  0  0  0
    0.8660    1.5470    0.5070 C   0  0  0  0  0  0  0  0  0  0  0  0
   -0.4070    0.7830    0.3270 C   0  0  2  0  0  0  0  0  0  0  0  0
   -0.9910    0.3660    1.5880 N   0  0  0  0  0  0  0  0  0  0  0  0
   -0.3010   -0.3410   -0.6130 C   0  0  0  0  0  0  0  0  0  0  0  0
    0.1820   -0.1410   -1.7530 O   0  0  0  0  0  0  0  0  0  0  0  0
    1.1060    3.1950   -1.3090 C   0  0  0  0  0  0  0  0  0  0  0  0
    1.6750    3.6270   -2.4800 C   0  0  0  0  0  0  0  0  0  0  0  0
    3.1040    2.6590   -5.1230 H   0  0  0  0  0  0  0  0  0  0  0  0
    3.7810    1.0680   -3.0640 H   0  0  0  0  0  0  0  0  0  0  0  0
    2.7900    0.3080   -1.0150 H   0  0  0  0  0  0  0  0  0  0  0  0
    0.6560    2.4780    1.1160 H   0  0  0  0  0  0  0  0  0  0  0  0
    1.6590    1.0270    1.0660 H   0  0  0  0  0  0  0  0  0  0  0  0
   -1.1680    1.5080   -0.1310 H   0  0  0  0  0  0  0  0  0  0  0  0
   -1.9850    0.6700    1.8390 H   0  0  0  0  0  0  0  0  0  0  0  0
    0.3520    3.7850   -0.8060 H   0  0  0  0  0  0  0  0  0  0  0  0
    1.3950    4.5770   -2.9520 H   0  0  0  0  0  0  0  0  0  0  0  0
    1.4110   -6.0030   -0.7250 C   0  0  0  0  0  0  0  0  0  0  0  0
    0.5160   -4.9990   -1.4590 C   0  0  0  0  0  0  0  0  0  0  0  0
    1.1640   -4.7110   -2.7710 C   0  0  0  0  0  0  0  0  0  0  0  0
    0.2680   -3.7950   -0.6170 C   0  0  0  0  0  0  0  0  0  0  0  0
   -0.5990   -2.7510   -1.2520 C   0  0  2  0  0  0  0  0  0  0  0  0
   -0.7250   -1.6560   -0.2840 N   0  0  0  0  0  0  0  0  0  0  0  0
   -1.9580   -3.2790   -1.4970 C   0  0  0  0  0  0  0  0  0  0  0  0
   -2.2080   -4.2240   -2.2910 O   0  0  0  0  0  0  0  0  0  0  0  0
   -3.0340   -2.7320   -0.8390 O   0  0  0  0  0  0  0  0  0  0  0  0
    1.8960   -6.6550   -1.4770 H   0  0  0  0  0  0  0  0  0  0  0  0
    2.1740   -5.4130   -0.1390 H   0  0  0  0  0  0  0  0  0  0  0  0
    0.7780   -6.5800   -0.0490 H   0  0  0  0  0  0  0  0  0  0  0  0
   -0.4230   -5.5700   -1.6680 H   0  0  0  0  0  0  0  0  0  0  0  0
    1.4480   -5.6910   -3.2320 H   0  0  0  0  0  0  0  0  0  0  0  0
    0.4990   -4.2050   -3.5040 H   0  0  0  0  0  0  0  0  0  0  0  0
    2.1300   -4.1620   -2.6490 H   0  0  0  0  0  0  0  0  0  0  0  0
    1.2680   -3.3550   -0.3650 H   0  0  0  0  0  0  0  0  0  0  0  0
   -0.1690   -4.1030    0.3480 H   0  0  0  0  0  0  0  0  0  0  0  0
   -0.1480   -2.3100   -2.1630 H   0  0  0  0  0  0  0  0  0  0  0  0
   -1.1390   -1.8350    0.6710 H   0  0  0  0  0  0  0  0  0  0  0  0
  1  2  1  0  0  0  0
  1 11  1  0  0  0  0
  2  3  2  0  0  0  0
  2  4  1  0  0  0  0
  4  5  1  0  0  0  0
  4 13  1  0  0  0  0
  5 15  1  0  0  0  0
  5 14  1  0  0  0  0
  6 16  1  6  0  0  0
  6  7  1  0  0  0  0
  6  5  1  0  0  0  0
  7 17  1  0  0  0  0
  8  6  1  0  0  0  0
  9  8  2  0  0  0  0
 10  1  1  0  0  0  0
 12  4  1  0  0  0  0
 18  7  1  0  0  0  0
 19 20  1  0  0  0  0
 20 21  2  0  0  0  0
 20 30  1  0  0  0  0
 21 22  1  0  0  0  0
 22 33  1  0  0  0  0
 22 23  2  0  0  0  0
 23 24  1  0  0  0  0
 24 35  1  0  0  0  0
 24 34  1  0  0  0  0
 25 36  1  6  0  0  0
 25 24  1  0  0  0  0
 25 26  1  0  0  0  0
 26 37  1  0  0  0  0
 26  8  1  0  0  0  0
 27 45  1  0  0  0  0
 27 25  1  0  0  0  0
 28 27  2  0  0  0  0
 29 38  1  0  0  0  0
 29 23  1  0  0  0  0
 30 29  2  0  0  0  0
 31 19  1  0  0  0  0
 32 21  1  0  0  0  0
 39 30  1  0  0  0  0
 40 50  1  0  0  0  0
 40 51  1  0  0  0  0
 41 40  1  0  0  0  0
 41 43  1  0  0  0  0
 42 55  1  0  0  0  0
 42 41  1  0  0  0  0
 43 56  1  0  0  0  0
 43 57  1  0  0  0  0
 44 58  1  6  0  0  0
 44 43  1  0  0  0  0
 44 45  1  0  0  0  0
 45 59  1  0  0  0  0
 46 44  1  0  0  0  0
 46 48  1  0  0  0  0
 47 46  2  0  0  0  0
 49 40  1  0  0  0  0
 52 41  1  0  0  0  0
 53 42  1  0  0  0  0
 54 42  1  0  0  0  0
M  END
$$$$
