QYP.pdb
 OpenBabel07022418343D

 54 55  0  0  1  0  0  0  0  0999 V2000
    5.9970   -0.7320    0.6970 N   0  0  0  0  0  0  0  0  0  0  0  0
    5.3990   -1.0800    1.9480 C   0  0  0  0  0  0  0  0  0  0  0  0
    5.5810   -2.2080    2.3980 O   0  0  0  0  0  0  0  0  0  0  0  0
    4.6060   -0.0700    2.6230 C   0  0  0  0  0  0  0  0  0  0  0  0
    3.8070   -0.4870    3.7980 C   0  0  0  0  0  0  0  0  0  0  0  0
    2.7430   -1.4990    3.5850 C   0  0  2  0  0  0  0  0  0  0  0  0
    3.1400   -2.7710    3.0930 N   0  0  0  0  0  0  0  0  0  0  0  0
    1.6190   -0.9050    2.7670 C   0  0  0  0  0  0  0  0  0  0  0  0
    1.1330    0.2120    3.1050 O   0  0  0  0  0  0  0  0  0  0  0  0
    5.6750   -1.2400   -0.1510 H   0  0  0  0  0  0  0  0  0  0  0  0
    6.7300   -0.0040    0.5910 H   0  0  0  0  0  0  0  0  0  0  0  0
    5.3380    0.7120    3.0040 H   0  0  0  0  0  0  0  0  0  0  0  0
    3.9690    0.5330    1.9060 H   0  0  0  0  0  0  0  0  0  0  0  0
    3.2880    0.4400    4.1860 H   0  0  0  0  0  0  0  0  0  0  0  0
    4.4700   -0.7940    4.6540 H   0  0  0  0  0  0  0  0  0  0  0  0
    2.2860   -1.6860    4.6040 H   0  0  0  0  0  0  0  0  0  0  0  0
    3.5870   -3.2800    3.9200 H   0  0  0  0  0  0  0  0  0  0  0  0
    2.2430   -3.3310    2.9610 H   0  0  0  0  0  0  0  0  0  0  0  0
   -2.6070    1.8440   -4.4290 O   0  0  0  0  0  0  0  0  0  0  0  0
   -1.8250    1.2250   -3.4550 C   0  0  0  0  0  0  0  0  0  0  0  0
   -0.9900    1.9300   -2.6140 C   0  0  0  0  0  0  0  0  0  0  0  0
   -0.2370    1.2690   -1.6680 C   0  0  0  0  0  0  0  0  0  0  0  0
   -0.2770   -0.1150   -1.5120 C   0  0  0  0  0  0  0  0  0  0  0  0
    0.5490   -0.7270   -0.5060 C   0  0  0  0  0  0  0  0  0  0  0  0
   -0.0290   -0.8840    0.8840 C   0  0  2  0  0  0  0  0  0  0  0  0
    1.0840   -1.5430    1.6360 N   0  0  0  0  0  0  0  0  0  0  0  0
   -1.1630   -1.8220    0.8200 C   0  0  0  0  0  0  0  0  0  0  0  0
   -0.9070   -3.0700    1.0680 O   0  0  0  0  0  0  0  0  0  0  0  0
   -1.1200   -0.8080   -2.3630 C   0  0  0  0  0  0  0  0  0  0  0  0
   -1.8660   -0.1390   -3.3030 C   0  0  0  0  0  0  0  0  0  0  0  0
   -2.7240    2.8510   -4.4240 H   0  0  0  0  0  0  0  0  0  0  0  0
   -0.9700    3.0080   -2.7490 H   0  0  0  0  0  0  0  0  0  0  0  0
    0.4150    1.8420   -1.0150 H   0  0  0  0  0  0  0  0  0  0  0  0
    1.4940   -0.1380   -0.4010 H   0  0  0  0  0  0  0  0  0  0  0  0
    0.9140   -1.7530   -0.7970 H   0  0  0  0  0  0  0  0  0  0  0  0
   -0.2870    0.0550    1.3380 H   0  0  0  0  0  0  0  0  0  0  0  0
    1.4520   -2.4610    1.3200 H   0  0  0  0  0  0  0  0  0  0  0  0
   -1.1450   -1.8850   -2.2350 H   0  0  0  0  0  0  0  0  0  0  0  0
   -2.5200   -0.7030   -3.9600 H   0  0  0  0  0  0  0  0  0  0  0  0
   -2.5000   -1.5410    0.5260 N   0  0  0  0  0  0  0  0  0  0  0  0
   -3.5570   -2.5260    0.4150 C   0  0  0  0  0  0  0  0  0  0  0  0
   -4.2220   -2.0760   -0.8910 C   0  0  0  0  0  0  0  0  0  0  0  0
   -4.2960   -0.5710   -0.6600 C   0  0  0  0  0  0  0  0  0  0  0  0
   -3.1570   -0.2780    0.3320 C   0  0  1  0  0  0  0  0  0  0  0  0
   -3.8480    0.1690    1.5840 C   0  0  0  0  0  0  0  0  0  0  0  0
   -3.7920   -0.5440    2.6010 O   0  0  0  0  0  0  0  0  0  0  0  0
   -4.5410    1.3550    1.6160 O   0  0  0  0  0  0  0  0  0  0  0  0
   -3.1690   -3.5490    0.2890 H   0  0  0  0  0  0  0  0  0  0  0  0
   -4.3060   -2.4500    1.2050 H   0  0  0  0  0  0  0  0  0  0  0  0
   -5.2290   -2.5130   -0.9930 H   0  0  0  0  0  0  0  0  0  0  0  0
   -3.5690   -2.2350   -1.7640 H   0  0  0  0  0  0  0  0  0  0  0  0
   -5.2860   -0.3180   -0.2470 H   0  0  0  0  0  0  0  0  0  0  0  0
   -4.1880   -0.0190   -1.5950 H   0  0  0  0  0  0  0  0  0  0  0  0
   -2.5720    0.5230   -0.1060 H   0  0  0  0  0  0  0  0  0  0  0  0
  1  2  1  0  0  0  0
  2  3  2  0  0  0  0
  2  4  1  0  0  0  0
  4 12  1  0  0  0  0
  4  5  1  0  0  0  0
  5 14  1  0  0  0  0
  5 15  1  0  0  0  0
  6  5  1  0  0  0  0
  6 16  1  1  0  0  0
  7  6  1  0  0  0  0
  7 17  1  0  0  0  0
  8  9  2  0  0  0  0
  8  6  1  0  0  0  0
 10  1  1  0  0  0  0
 11  1  1  0  0  0  0
 13  4  1  0  0  0  0
 18  7  1  0  0  0  0
 19 31  1  0  0  0  0
 19 20  1  0  0  0  0
 20 30  2  0  0  0  0
 20 21  1  0  0  0  0
 21 22  2  0  0  0  0
 22 23  1  0  0  0  0
 22 33  1  0  0  0  0
 23 24  1  0  0  0  0
 24 34  1  0  0  0  0
 24 25  1  0  0  0  0
 25 36  1  1  0  0  0
 25 26  1  0  0  0  0
 26  8  1  0  0  0  0
 27 25  1  0  0  0  0
 27 28  2  0  0  0  0
 29 38  1  0  0  0  0
 29 23  2  0  0  0  0
 30 29  1  0  0  0  0
 32 21  1  0  0  0  0
 35 24  1  0  0  0  0
 37 26  1  0  0  0  0
 39 30  1  0  0  0  0
 40 27  1  0  0  0  0
 41 40  1  0  0  0  0
 41 49  1  0  0  0  0
 42 43  1  0  0  0  0
 42 41  1  0  0  0  0
 43 52  1  0  0  0  0
 43 44  1  0  0  0  0
 44 54  1  6  0  0  0
 44 40  1  0  0  0  0
 44 45  1  0  0  0  0
 45 47  2  0  0  0  0
 45 46  1  0  0  0  0
 48 41  1  0  0  0  0
 50 42  1  0  0  0  0
 51 42  1  0  0  0  0
 53 43  1  0  0  0  0
M  END
$$$$
