QYS.pdb
 OpenBabel07022418343D

 51 51  0  0  1  0  0  0  0  0999 V2000
    3.4050   -4.9810    2.1070 N   0  0  0  0  0  0  0  0  0  0  0  0
    3.8860   -3.6480    1.9900 C   0  0  0  0  0  0  0  0  0  0  0  0
    4.7980   -3.2960    2.7590 O   0  0  0  0  0  0  0  0  0  0  0  0
    3.3150   -2.7600    0.9990 C   0  0  0  0  0  0  0  0  0  0  0  0
    3.6090   -1.3170    1.0750 C   0  0  0  0  0  0  0  0  0  0  0  0
    3.1600   -0.5660    2.2700 C   0  0  2  0  0  0  0  0  0  0  0  0
    3.7400   -1.0750    3.4770 N   0  0  0  0  0  0  0  0  0  0  0  0
    1.6810   -0.5540    2.4320 C   0  0  0  0  0  0  0  0  0  0  0  0
    1.1540   -0.9510    3.5010 O   0  0  0  0  0  0  0  0  0  0  0  0
    4.0430   -5.7870    2.2770 H   0  0  0  0  0  0  0  0  0  0  0  0
    2.3770   -5.2210    2.0280 H   0  0  0  0  0  0  0  0  0  0  0  0
    2.1820   -2.8740    1.0080 H   0  0  0  0  0  0  0  0  0  0  0  0
    3.5600   -3.0840   -0.0650 H   0  0  0  0  0  0  0  0  0  0  0  0
    3.2550   -0.8520    0.1220 H   0  0  0  0  0  0  0  0  0  0  0  0
    4.7380   -1.2010    1.0410 H   0  0  0  0  0  0  0  0  0  0  0  0
    3.5380    0.4960    2.1300 H   0  0  0  0  0  0  0  0  0  0  0  0
    4.6690   -0.6780    3.6630 H   0  0  0  0  0  0  0  0  0  0  0  0
    3.0730   -0.9950    4.2880 H   0  0  0  0  0  0  0  0  0  0  0  0
   -0.1690    4.2270   -3.1060 O   0  0  0  0  0  0  0  0  0  0  0  0
   -0.4140    3.5110   -1.9400 C   0  0  0  0  0  0  0  0  0  0  0  0
    0.4770    3.5100   -0.8880 C   0  0  0  0  0  0  0  0  0  0  0  0
    0.2060    2.7910    0.2540 C   0  0  0  0  0  0  0  0  0  0  0  0
   -0.9600    2.0390    0.4050 C   0  0  0  0  0  0  0  0  0  0  0  0
   -1.1980    1.2900    1.6500 C   0  0  0  0  0  0  0  0  0  0  0  0
   -0.6500   -0.1170    1.6300 C   0  0  2  0  0  0  0  0  0  0  0  0
    0.8010   -0.1050    1.4140 N   0  0  0  0  0  0  0  0  0  0  0  0
   -1.2440   -0.9750    0.5930 C   0  0  0  0  0  0  0  0  0  0  0  0
   -0.5200   -1.5290   -0.3050 O   0  0  0  0  0  0  0  0  0  0  0  0
   -1.8410    2.0440   -0.6450 C   0  0  0  0  0  0  0  0  0  0  0  0
   -1.5680    2.7730   -1.8030 C   0  0  0  0  0  0  0  0  0  0  0  0
    0.4040    3.7500   -3.8150 H   0  0  0  0  0  0  0  0  0  0  0  0
    1.4090    4.0900   -0.9650 H   0  0  0  0  0  0  0  0  0  0  0  0
    0.8950    2.7760    1.0970 H   0  0  0  0  0  0  0  0  0  0  0  0
   -0.8030    1.7900    2.5460 H   0  0  0  0  0  0  0  0  0  0  0  0
   -2.2930    1.2050    1.7870 H   0  0  0  0  0  0  0  0  0  0  0  0
   -0.8460   -0.5180    2.6670 H   0  0  0  0  0  0  0  0  0  0  0  0
    1.1800    0.2330    0.5110 H   0  0  0  0  0  0  0  0  0  0  0  0
   -2.7560    1.4770   -0.5700 H   0  0  0  0  0  0  0  0  0  0  0  0
   -2.2890    2.7520   -2.6100 H   0  0  0  0  0  0  0  0  0  0  0  0
   -2.5820   -4.0740    0.6300 O   0  0  0  0  0  0  0  0  0  0  0  0
   -3.6630   -3.4340    0.0440 C   0  0  0  0  0  0  0  0  0  0  0  0
   -3.1860   -2.1110   -0.5310 C   0  0  2  0  0  0  0  0  0  0  0  0
   -2.6350   -1.2580    0.5010 N   0  0  0  0  0  0  0  0  0  0  0  0
   -4.3090   -1.5190   -1.2570 C   0  0  0  0  0  0  0  0  0  0  0  0
   -4.7200   -0.3810   -0.9600 O   0  0  0  0  0  0  0  0  0  0  0  0
   -4.9230   -2.2150   -2.2760 O   0  0  0  0  0  0  0  0  0  0  0  0
   -2.7030   -3.9740    1.6210 H   0  0  0  0  0  0  0  0  0  0  0  0
   -3.9880   -4.0680   -0.8070 H   0  0  0  0  0  0  0  0  0  0  0  0
   -4.5290   -3.3160    0.7080 H   0  0  0  0  0  0  0  0  0  0  0  0
   -2.3210   -2.3960   -1.1990 H   0  0  0  0  0  0  0  0  0  0  0  0
   -3.2890   -0.8440    1.1930 H   0  0  0  0  0  0  0  0  0  0  0  0
  1 10  1  0  0  0  0
  2  1  1  0  0  0  0
  2  3  2  0  0  0  0
  4 12  1  0  0  0  0
  4  5  1  0  0  0  0
  4  2  1  0  0  0  0
  5  6  1  0  0  0  0
  6 16  1  6  0  0  0
  6  8  1  0  0  0  0
  6  7  1  0  0  0  0
  7 17  1  0  0  0  0
  7 18  1  0  0  0  0
  8  9  2  0  0  0  0
 11  1  1  0  0  0  0
 13  4  1  0  0  0  0
 14  5  1  0  0  0  0
 15  5  1  0  0  0  0
 19 20  1  0  0  0  0
 20 30  2  0  0  0  0
 20 21  1  0  0  0  0
 21 22  2  0  0  0  0
 22 23  1  0  0  0  0
 22 33  1  0  0  0  0
 23 24  1  0  0  0  0
 24 35  1  0  0  0  0
 24 34  1  0  0  0  0
 25 24  1  0  0  0  0
 25 36  1  1  0  0  0
 26 25  1  0  0  0  0
 26  8  1  0  0  0  0
 27 25  1  0  0  0  0
 28 27  2  0  0  0  0
 29 38  1  0  0  0  0
 29 23  2  0  0  0  0
 30 29  1  0  0  0  0
 31 19  1  0  0  0  0
 32 21  1  0  0  0  0
 37 26  1  0  0  0  0
 39 30  1  0  0  0  0
 40 47  1  0  0  0  0
 41 40  1  0  0  0  0
 41 49  1  0  0  0  0
 42 50  1  6  0  0  0
 42 41  1  0  0  0  0
 42 43  1  0  0  0  0
 43 27  1  0  0  0  0
 43 51  1  0  0  0  0
 44 45  1  0  0  0  0
 44 42  1  0  0  0  0
 46 44  2  0  0  0  0
 48 41  1  0  0  0  0
M  END
$$$$
