QYT.pdb
 OpenBabel07022418343D

 54 54  0  0  1  0  0  0  0  0999 V2000
    5.3640   -0.5900    0.9920 N   0  0  0  0  0  0  0  0  0  0  0  0
    4.6640   -0.8340    2.2110 C   0  0  0  0  0  0  0  0  0  0  0  0
    4.6740   -1.9980    2.6480 O   0  0  0  0  0  0  0  0  0  0  0  0
    3.9740    0.2420    2.9030 C   0  0  0  0  0  0  0  0  0  0  0  0
    2.9840   -0.1260    3.9340 C   0  0  0  0  0  0  0  0  0  0  0  0
    1.7860   -0.8970    3.5040 C   0  0  2  0  0  0  0  0  0  0  0  0
    2.1020   -2.1590    2.9280 N   0  0  0  0  0  0  0  0  0  0  0  0
    0.8960   -0.0630    2.6160 C   0  0  0  0  0  0  0  0  0  0  0  0
    0.4660    1.0360    3.0540 O   0  0  0  0  0  0  0  0  0  0  0  0
    5.4230   -1.3430    0.2800 H   0  0  0  0  0  0  0  0  0  0  0  0
    5.8240    0.3380    0.7960 H   0  0  0  0  0  0  0  0  0  0  0  0
    4.7830    0.8580    3.4080 H   0  0  0  0  0  0  0  0  0  0  0  0
    3.4990    0.9750    2.2010 H   0  0  0  0  0  0  0  0  0  0  0  0
    2.7150    0.7850    4.5180 H   0  0  0  0  0  0  0  0  0  0  0  0
    3.5280   -0.7710    4.6910 H   0  0  0  0  0  0  0  0  0  0  0  0
    1.1760   -1.0660    4.4460 H   0  0  0  0  0  0  0  0  0  0  0  0
    2.3400   -2.8460    3.7080 H   0  0  0  0  0  0  0  0  0  0  0  0
    1.2580   -2.6050    2.4650 H   0  0  0  0  0  0  0  0  0  0  0  0
   -2.2720    3.6640   -4.6430 O   0  0  0  0  0  0  0  0  0  0  0  0
   -1.5860    2.9520   -3.6740 C   0  0  0  0  0  0  0  0  0  0  0  0
   -1.6080    1.5810   -3.7070 C   0  0  0  0  0  0  0  0  0  0  0  0
   -0.9220    0.8530   -2.7390 C   0  0  0  0  0  0  0  0  0  0  0  0
   -0.2110    1.4800   -1.7330 C   0  0  0  0  0  0  0  0  0  0  0  0
    0.4870    0.6550   -0.7480 C   0  0  0  0  0  0  0  0  0  0  0  0
   -0.3070    0.3010    0.4660 C   0  0  2  0  0  0  0  0  0  0  0  0
    0.5630   -0.5230    1.3220 N   0  0  0  0  0  0  0  0  0  0  0  0
   -1.5410   -0.4410    0.2070 C   0  0  0  0  0  0  0  0  0  0  0  0
   -2.4230    0.1020   -0.5090 O   0  0  0  0  0  0  0  0  0  0  0  0
   -0.2150    2.8530   -1.7380 C   0  0  0  0  0  0  0  0  0  0  0  0
   -0.8820    3.6190   -2.6790 C   0  0  0  0  0  0  0  0  0  0  0  0
   -2.7630    4.5120   -4.3560 H   0  0  0  0  0  0  0  0  0  0  0  0
   -2.1670    1.0950   -4.4970 H   0  0  0  0  0  0  0  0  0  0  0  0
   -0.9810   -0.2230   -2.8250 H   0  0  0  0  0  0  0  0  0  0  0  0
    1.4000    1.1840   -0.4140 H   0  0  0  0  0  0  0  0  0  0  0  0
    0.8270   -0.2820   -1.2300 H   0  0  0  0  0  0  0  0  0  0  0  0
   -0.5630    1.2110    1.0210 H   0  0  0  0  0  0  0  0  0  0  0  0
    0.9000   -1.4340    0.9040 H   0  0  0  0  0  0  0  0  0  0  0  0
    0.3280    3.3900   -0.9700 H   0  0  0  0  0  0  0  0  0  0  0  0
   -0.8780    4.6990   -2.6710 H   0  0  0  0  0  0  0  0  0  0  0  0
   -2.0360   -4.6780    0.3640 C   0  0  0  0  0  0  0  0  0  0  0  0
   -2.8690   -3.6840   -0.3990 C   0  0  1  0  0  0  0  0  0  0  0  0
   -4.1510   -4.2240   -0.6250 O   0  0  0  0  0  0  0  0  0  0  0  0
   -3.0910   -2.4090    0.3960 C   0  0  2  0  0  0  0  0  0  0  0  0
   -1.8370   -1.7410    0.7010 N   0  0  0  0  0  0  0  0  0  0  0  0
   -3.8280   -2.7740    1.6240 C   0  0  0  0  0  0  0  0  0  0  0  0
   -4.9380   -3.3570    1.5550 O   0  0  0  0  0  0  0  0  0  0  0  0
   -3.3320   -2.4920    2.8890 O   0  0  0  0  0  0  0  0  0  0  0  0
   -2.5320   -5.6540    0.3510 H   0  0  0  0  0  0  0  0  0  0  0  0
   -1.0450   -4.7190   -0.1410 H   0  0  0  0  0  0  0  0  0  0  0  0
   -1.9390   -4.2920    1.4110 H   0  0  0  0  0  0  0  0  0  0  0  0
   -2.4330   -3.4570   -1.3910 H   0  0  0  0  0  0  0  0  0  0  0  0
   -4.1460   -4.7050   -1.4910 H   0  0  0  0  0  0  0  0  0  0  0  0
   -3.7230   -1.7550   -0.2460 H   0  0  0  0  0  0  0  0  0  0  0  0
   -1.1310   -2.2080    1.2890 H   0  0  0  0  0  0  0  0  0  0  0  0
  1  2  1  0  0  0  0
  2  3  2  0  0  0  0
  2  4  1  0  0  0  0
  4 12  1  0  0  0  0
  4  5  1  0  0  0  0
  5 14  1  0  0  0  0
  5 15  1  0  0  0  0
  6  5  1  0  0  0  0
  6 16  1  1  0  0  0
  7  6  1  0  0  0  0
  7 17  1  0  0  0  0
  8  9  2  0  0  0  0
  8  6  1  0  0  0  0
 10  1  1  0  0  0  0
 11  1  1  0  0  0  0
 13  4  1  0  0  0  0
 18  7  1  0  0  0  0
 19 31  1  0  0  0  0
 19 20  1  0  0  0  0
 20 30  1  0  0  0  0
 21 20  2  0  0  0  0
 21 22  1  0  0  0  0
 22 23  2  0  0  0  0
 23 24  1  0  0  0  0
 24 34  1  0  0  0  0
 24 25  1  0  0  0  0
 25 36  1  1  0  0  0
 25 26  1  0  0  0  0
 26  8  1  0  0  0  0
 27 25  1  0  0  0  0
 27 44  1  0  0  0  0
 28 27  2  0  0  0  0
 29 23  1  0  0  0  0
 29 38  1  0  0  0  0
 30 39  1  0  0  0  0
 30 29  2  0  0  0  0
 32 21  1  0  0  0  0
 33 22  1  0  0  0  0
 35 24  1  0  0  0  0
 37 26  1  0  0  0  0
 40 50  1  0  0  0  0
 41 51  1  6  0  0  0
 41 40  1  0  0  0  0
 41 43  1  0  0  0  0
 42 41  1  0  0  0  0
 43 53  1  6  0  0  0
 43 44  1  0  0  0  0
 43 45  1  0  0  0  0
 44 54  1  0  0  0  0
 45 47  1  0  0  0  0
 46 45  2  0  0  0  0
 48 40  1  0  0  0  0
 49 40  1  0  0  0  0
 52 42  1  0  0  0  0
M  END
$$$$
