QYV.pdb
 OpenBabel07022418343D

 56 56  0  0  1  0  0  0  0  0999 V2000
    5.1800   -0.0610   -0.8570 N   0  0  0  0  0  0  0  0  0  0  0  0
    4.9360   -0.6760    0.4210 C   0  0  0  0  0  0  0  0  0  0  0  0
    5.1170   -1.8930    0.5060 O   0  0  0  0  0  0  0  0  0  0  0  0
    4.4960    0.1290    1.5580 C   0  0  0  0  0  0  0  0  0  0  0  0
    3.9280   -0.5790    2.7280 C   0  0  0  0  0  0  0  0  0  0  0  0
    2.6730   -1.3520    2.5080 C   0  0  2  0  0  0  0  0  0  0  0  0
    2.8070   -2.3970    1.5530 N   0  0  0  0  0  0  0  0  0  0  0  0
    1.5470   -0.4100    2.1920 C   0  0  0  0  0  0  0  0  0  0  0  0
    1.2350    0.4980    3.0140 O   0  0  0  0  0  0  0  0  0  0  0  0
    4.4430   -0.0820   -1.5770 H   0  0  0  0  0  0  0  0  0  0  0  0
    6.0790    0.4060   -1.0800 H   0  0  0  0  0  0  0  0  0  0  0  0
    5.3510    0.7660    1.9650 H   0  0  0  0  0  0  0  0  0  0  0  0
    3.7590    0.9210    1.2440 H   0  0  0  0  0  0  0  0  0  0  0  0
    3.7650    0.1980    3.5270 H   0  0  0  0  0  0  0  0  0  0  0  0
    4.7200   -1.2720    3.1150 H   0  0  0  0  0  0  0  0  0  0  0  0
    2.4010   -1.8120    3.5000 H   0  0  0  0  0  0  0  0  0  0  0  0
    3.3270   -3.1880    2.0530 H   0  0  0  0  0  0  0  0  0  0  0  0
    1.8460   -2.8130    1.3770 H   0  0  0  0  0  0  0  0  0  0  0  0
   -3.9030    4.7760   -2.3470 O   0  0  0  0  0  0  0  0  0  0  0  0
   -2.9330    3.8560   -1.9440 C   0  0  0  0  0  0  0  0  0  0  0  0
   -1.9130    4.1970   -1.0830 C   0  0  0  0  0  0  0  0  0  0  0  0
   -0.9640    3.2720   -0.6970 C   0  0  0  0  0  0  0  0  0  0  0  0
   -0.9830    1.9620   -1.1490 C   0  0  0  0  0  0  0  0  0  0  0  0
    0.0780    1.0410   -0.6860 C   0  0  0  0  0  0  0  0  0  0  0  0
   -0.2620    0.3350    0.6000 C   0  0  2  0  0  0  0  0  0  0  0  0
    0.8530   -0.5550    0.9690 N   0  0  0  0  0  0  0  0  0  0  0  0
   -1.4730   -0.5130    0.5120 C   0  0  0  0  0  0  0  0  0  0  0  0
   -2.6020   -0.0120    0.2180 O   0  0  0  0  0  0  0  0  0  0  0  0
   -2.0040    1.6250   -2.0090 C   0  0  0  0  0  0  0  0  0  0  0  0
   -2.9570    2.5530   -2.3970 C   0  0  0  0  0  0  0  0  0  0  0  0
   -3.9550    5.1290   -3.2960 H   0  0  0  0  0  0  0  0  0  0  0  0
   -1.8890    5.2280   -0.7210 H   0  0  0  0  0  0  0  0  0  0  0  0
   -0.1670    3.5740   -0.0120 H   0  0  0  0  0  0  0  0  0  0  0  0
    1.0120    1.6230   -0.5950 H   0  0  0  0  0  0  0  0  0  0  0  0
    0.2340    0.2980   -1.4810 H   0  0  0  0  0  0  0  0  0  0  0  0
   -0.3760    1.0300    1.4520 H   0  0  0  0  0  0  0  0  0  0  0  0
    1.1290   -1.3030    0.3000 H   0  0  0  0  0  0  0  0  0  0  0  0
   -2.0380    0.6120   -2.3780 H   0  0  0  0  0  0  0  0  0  0  0  0
   -3.7550    2.2710   -3.0760 H   0  0  0  0  0  0  0  0  0  0  0  0
   -1.3630   -4.8200    0.0960 C   0  0  0  0  0  0  0  0  0  0  0  0
   -2.4660   -3.9010   -0.2900 C   0  0  0  0  0  0  0  0  0  0  0  0
   -3.7250   -4.6880   -0.5230 C   0  0  0  0  0  0  0  0  0  0  0  0
   -2.6480   -2.7430    0.6570 C   0  0  2  0  0  0  0  0  0  0  0  0
   -1.4660   -1.9150    0.7430 N   0  0  0  0  0  0  0  0  0  0  0  0
   -2.9940   -3.3270    1.9950 C   0  0  0  0  0  0  0  0  0  0  0  0
   -3.9570   -4.0710    2.2010 O   0  0  0  0  0  0  0  0  0  0  0  0
   -2.1590   -2.9920    3.0590 O   0  0  0  0  0  0  0  0  0  0  0  0
   -1.7370   -5.8650    0.3010 H   0  0  0  0  0  0  0  0  0  0  0  0
   -0.8240   -4.5160    1.0160 H   0  0  0  0  0  0  0  0  0  0  0  0
   -0.5900   -4.9430   -0.6920 H   0  0  0  0  0  0  0  0  0  0  0  0
   -2.1870   -3.4480   -1.2890 H   0  0  0  0  0  0  0  0  0  0  0  0
   -4.0080   -4.7240   -1.6180 H   0  0  0  0  0  0  0  0  0  0  0  0
   -4.6140   -4.3090   -0.0170 H   0  0  0  0  0  0  0  0  0  0  0  0
   -3.5760   -5.7440   -0.2140 H   0  0  0  0  0  0  0  0  0  0  0  0
   -3.5160   -2.1230    0.3670 H   0  0  0  0  0  0  0  0  0  0  0  0
   -0.5730   -2.3940    0.9900 H   0  0  0  0  0  0  0  0  0  0  0  0
  1  2  1  0  0  0  0
  2  3  2  0  0  0  0
  2  4  1  0  0  0  0
  4 12  1  0  0  0  0
  4  5  1  0  0  0  0
  5 15  1  0  0  0  0
  5 14  1  0  0  0  0
  6  5  1  0  0  0  0
  6 16  1  1  0  0  0
  7 17  1  0  0  0  0
  7  6  1  0  0  0  0
  8  6  1  0  0  0  0
  8  9  2  0  0  0  0
 10  1  1  0  0  0  0
 11  1  1  0  0  0  0
 13  4  1  0  0  0  0
 18  7  1  0  0  0  0
 19 20  1  0  0  0  0
 20 21  1  0  0  0  0
 21 32  1  0  0  0  0
 21 22  2  0  0  0  0
 22 33  1  0  0  0  0
 23 22  1  0  0  0  0
 23 24  1  0  0  0  0
 24 34  1  0  0  0  0
 24 25  1  0  0  0  0
 25 26  1  0  0  0  0
 25 36  1  1  0  0  0
 26  8  1  0  0  0  0
 27 25  1  0  0  0  0
 27 44  1  0  0  0  0
 28 27  2  0  0  0  0
 29 23  2  0  0  0  0
 30 29  1  0  0  0  0
 30 20  2  0  0  0  0
 31 19  1  0  0  0  0
 35 24  1  0  0  0  0
 37 26  1  0  0  0  0
 38 29  1  0  0  0  0
 39 30  1  0  0  0  0
 40 48  1  0  0  0  0
 40 49  1  0  0  0  0
 41 40  1  0  0  0  0
 41 43  1  0  0  0  0
 42 41  1  0  0  0  0
 42 54  1  0  0  0  0
 42 53  1  0  0  0  0
 43 55  1  6  0  0  0
 43 44  1  0  0  0  0
 43 45  1  0  0  0  0
 44 56  1  0  0  0  0
 45 46  2  0  0  0  0
 45 47  1  0  0  0  0
 50 40  1  0  0  0  0
 51 41  1  0  0  0  0
 52 42  1  0  0  0  0
M  END
$$$$
