QYW.pdb
 OpenBabel07022418343D

 64 66  0  0  1  0  0  0  0  0999 V2000
    4.9020    2.1310    6.7430 N   0  0  0  0  0  0  0  0  0  0  0  0
    4.1000    1.7000    5.6430 C   0  0  0  0  0  0  0  0  0  0  0  0
    3.4540    2.6000    5.0470 O   0  0  0  0  0  0  0  0  0  0  0  0
    4.0200    0.3010    5.2120 C   0  0  0  0  0  0  0  0  0  0  0  0
    3.0280   -0.0070    4.1590 C   0  0  0  0  0  0  0  0  0  0  0  0
    1.6310    0.2740    4.5770 C   0  0  2  0  0  0  0  0  0  0  0  0
    1.1780   -0.4790    5.7260 N   0  0  0  0  0  0  0  0  0  0  0  0
    0.6640    0.0390    3.4460 C   0  0  0  0  0  0  0  0  0  0  0  0
   -0.3540   -0.6610    3.6510 O   0  0  0  0  0  0  0  0  0  0  0  0
    4.4980    2.0600    7.6950 H   0  0  0  0  0  0  0  0  0  0  0  0
    5.8620    2.5090    6.6400 H   0  0  0  0  0  0  0  0  0  0  0  0
    3.9640   -0.3480    6.1100 H   0  0  0  0  0  0  0  0  0  0  0  0
    5.0340    0.0500    4.7690 H   0  0  0  0  0  0  0  0  0  0  0  0
    3.2460    0.6740    3.2900 H   0  0  0  0  0  0  0  0  0  0  0  0
    3.0980   -1.0480    3.7700 H   0  0  0  0  0  0  0  0  0  0  0  0
    1.5610    1.3530    4.8950 H   0  0  0  0  0  0  0  0  0  0  0  0
    2.0430   -0.9790    6.0980 H   0  0  0  0  0  0  0  0  0  0  0  0
    0.5890   -1.2750    5.3570 H   0  0  0  0  0  0  0  0  0  0  0  0
   -3.9240    2.0630   -3.9330 O   0  0  0  0  0  0  0  0  0  0  0  0
   -3.1120    1.9560   -2.7960 C   0  0  0  0  0  0  0  0  0  0  0  0
   -3.6300    1.7470   -1.5430 C   0  0  0  0  0  0  0  0  0  0  0  0
   -2.8140    1.6450   -0.4430 C   0  0  0  0  0  0  0  0  0  0  0  0
   -1.4380    1.7530   -0.5720 C   0  0  0  0  0  0  0  0  0  0  0  0
   -0.5120    1.7020    0.5500 C   0  0  0  0  0  0  0  0  0  0  0  0
   -0.0500    0.3780    1.0270 C   0  0  2  0  0  0  0  0  0  0  0  0
    0.8790    0.5850    2.1720 N   0  0  0  0  0  0  0  0  0  0  0  0
    0.6750   -0.4450    0.0510 C   0  0  0  0  0  0  0  0  0  0  0  0
    1.9130   -0.7000    0.2470 O   0  0  0  0  0  0  0  0  0  0  0  0
   -0.9040    1.9660   -1.8470 C   0  0  0  0  0  0  0  0  0  0  0  0
   -1.7460    2.0640   -2.9350 C   0  0  0  0  0  0  0  0  0  0  0  0
   -3.5600    2.4490   -4.7870 H   0  0  0  0  0  0  0  0  0  0  0  0
   -4.7150    1.6630   -1.4430 H   0  0  0  0  0  0  0  0  0  0  0  0
   -3.2150    1.4840    0.5250 H   0  0  0  0  0  0  0  0  0  0  0  0
    0.4030    2.3210    0.3400 H   0  0  0  0  0  0  0  0  0  0  0  0
   -1.0490    2.2030    1.4170 H   0  0  0  0  0  0  0  0  0  0  0  0
   -0.9190   -0.1720    1.4750 H   0  0  0  0  0  0  0  0  0  0  0  0
    1.7170    1.1640    1.9940 H   0  0  0  0  0  0  0  0  0  0  0  0
    0.1520    2.0540   -1.9860 H   0  0  0  0  0  0  0  0  0  0  0  0
   -1.3260    2.2320   -3.9360 H   0  0  0  0  0  0  0  0  0  0  0  0
    0.1310   -1.0210   -1.1390 N   0  0  0  0  0  0  0  0  0  0  0  0
    0.9410   -1.8270   -2.0210 C   0  0  1  0  0  0  0  0  0  0  0  0
    0.5490   -3.2790   -1.8530 C   0  0  0  0  0  0  0  0  0  0  0  0
   -0.8360   -3.5990   -2.1560 C   0  0  0  0  0  0  0  0  0  0  0  0
   -1.2330   -4.1180   -3.3930 C   0  0  0  0  0  0  0  0  0  0  0  0
   -2.5450   -4.2840   -3.3870 N   0  0  0  0  0  0  0  0  0  0  0  0
   -3.0380   -3.8970   -2.1960 C   0  0  0  0  0  0  0  0  0  0  0  0
   -4.3270   -3.8800   -1.6920 C   0  0  0  0  0  0  0  0  0  0  0  0
   -4.5700   -3.4330   -0.4030 C   0  0  0  0  0  0  0  0  0  0  0  0
   -3.5140   -3.0060    0.3700 C   0  0  0  0  0  0  0  0  0  0  0  0
   -2.2380   -3.0210   -0.1260 C   0  0  0  0  0  0  0  0  0  0  0  0
   -1.9830   -3.4650   -1.4130 C   0  0  0  0  0  0  0  0  0  0  0  0
    0.9360   -1.4100   -3.4280 C   0  0  0  0  0  0  0  0  0  0  0  0
    1.6120   -2.0430   -4.2680 O   0  0  0  0  0  0  0  0  0  0  0  0
    0.1960   -0.3310   -3.8380 O   0  0  0  0  0  0  0  0  0  0  0  0
   -0.8680   -0.8310   -1.3360 H   0  0  0  0  0  0  0  0  0  0  0  0
    2.0260   -1.8060   -1.6920 H   0  0  0  0  0  0  0  0  0  0  0  0
    0.7500   -3.5340   -0.7660 H   0  0  0  0  0  0  0  0  0  0  0  0
    1.2740   -3.9280   -2.4020 H   0  0  0  0  0  0  0  0  0  0  0  0
   -0.5920   -4.3520   -4.2290 H   0  0  0  0  0  0  0  0  0  0  0  0
   -3.1310   -4.6500   -4.1590 H   0  0  0  0  0  0  0  0  0  0  0  0
   -5.1390   -4.2190   -2.3150 H   0  0  0  0  0  0  0  0  0  0  0  0
   -5.5950   -3.4320   -0.0370 H   0  0  0  0  0  0  0  0  0  0  0  0
   -3.7540   -2.6630    1.3790 H   0  0  0  0  0  0  0  0  0  0  0  0
   -1.3910   -2.6960    0.4600 H   0  0  0  0  0  0  0  0  0  0  0  0
  1 10  1  0  0  0  0
  2  1  1  0  0  0  0
  3  2  2  0  0  0  0
  4  2  1  0  0  0  0
  4 12  1  0  0  0  0
  5  6  1  0  0  0  0
  5  4  1  0  0  0  0
  6 16  1  1  0  0  0
  6  7  1  0  0  0  0
  7 17  1  0  0  0  0
  8  9  2  0  0  0  0
  8  6  1  0  0  0  0
 11  1  1  0  0  0  0
 13  4  1  0  0  0  0
 14  5  1  0  0  0  0
 15  5  1  0  0  0  0
 18  7  1  0  0  0  0
 19 20  1  0  0  0  0
 20 21  1  0  0  0  0
 21 32  1  0  0  0  0
 21 22  2  0  0  0  0
 22 33  1  0  0  0  0
 23 22  1  0  0  0  0
 23 24  1  0  0  0  0
 24 25  1  0  0  0  0
 24 35  1  0  0  0  0
 25 36  1  1  0  0  0
 25 26  1  0  0  0  0
 26  8  1  0  0  0  0
 27 28  2  0  0  0  0
 27 25  1  0  0  0  0
 29 23  2  0  0  0  0
 30 20  2  0  0  0  0
 30 29  1  0  0  0  0
 31 19  1  0  0  0  0
 34 24  1  0  0  0  0
 37 26  1  0  0  0  0
 38 29  1  0  0  0  0
 39 30  1  0  0  0  0
 40 27  1  0  0  0  0
 41 42  1  0  0  0  0
 41 56  1  1  0  0  0
 41 40  1  0  0  0  0
 42 57  1  0  0  0  0
 43 42  1  0  0  0  0
 43 51  1  0  0  0  0
 44 45  1  0  0  0  0
 44 43  2  0  0  0  0
 45 46  1  0  0  0  0
 46 47  2  0  0  0  0
 46 51  1  0  0  0  0
 47 48  1  0  0  0  0
 48 62  1  0  0  0  0
 48 49  2  0  0  0  0
 49 63  1  0  0  0  0
 50 49  1  0  0  0  0
 50 64  1  0  0  0  0
 51 50  2  0  0  0  0
 52 41  1  0  0  0  0
 53 52  2  0  0  0  0
 54 52  1  0  0  0  0
 55 40  1  0  0  0  0
 58 42  1  0  0  0  0
 59 44  1  0  0  0  0
 60 45  1  0  0  0  0
 61 47  1  0  0  0  0
M  END
$$$$
