RAA.pdb
 OpenBabel07022418033D

 45 44  0  0  1  0  0  0  0  0999 V2000
   -2.6450   -1.6330   -2.9230 N   0  0  0  0  0  0  0  0  0  0  0  0
   -1.2750   -1.2780   -2.7930 C   0  0  0  0  0  0  0  0  0  0  0  0
   -0.8590   -0.1470   -3.2760 N   0  0  0  0  0  0  0  0  0  0  0  0
   -0.2980   -2.0940   -2.1570 N   0  0  0  0  0  0  0  0  0  0  0  0
    1.0550   -1.7050   -1.9550 C   0  0  0  0  0  0  0  0  0  0  0  0
    1.2250   -0.5830   -0.9580 C   0  0  0  0  0  0  0  0  0  0  0  0
    2.6980   -0.2990   -0.8730 C   0  0  0  0  0  0  0  0  0  0  0  0
    3.0820    0.8090    0.0640 C   0  0  2  0  0  0  0  0  0  0  0  0
    4.5700    0.8750   -0.0470 N   0  0  0  0  0  0  0  0  0  0  0  0
    2.7060    0.6080    1.4600 C   0  0  0  0  0  0  0  0  0  0  0  0
    3.6000    0.2350    2.3040 O   0  0  0  0  0  0  0  0  0  0  0  0
   -3.1080   -2.2090   -2.1690 H   0  0  0  0  0  0  0  0  0  0  0  0
   -3.2230   -1.3440   -3.7460 H   0  0  0  0  0  0  0  0  0  0  0  0
   -1.4810    0.5140   -3.7560 H   0  0  0  0  0  0  0  0  0  0  0  0
   -0.6040   -3.0350   -1.8210 H   0  0  0  0  0  0  0  0  0  0  0  0
    1.4810   -1.3300   -2.9140 H   0  0  0  0  0  0  0  0  0  0  0  0
    1.6630   -2.5830   -1.6750 H   0  0  0  0  0  0  0  0  0  0  0  0
    0.8540   -0.8630    0.0460 H   0  0  0  0  0  0  0  0  0  0  0  0
    0.7020    0.3030   -1.3480 H   0  0  0  0  0  0  0  0  0  0  0  0
    3.1280   -0.0430   -1.8810 H   0  0  0  0  0  0  0  0  0  0  0  0
    3.2770   -1.2100   -0.5630 H   0  0  0  0  0  0  0  0  0  0  0  0
    2.7370    1.7560   -0.3600 H   0  0  0  0  0  0  0  0  0  0  0  0
    4.8580    1.6260    0.6100 H   0  0  0  0  0  0  0  0  0  0  0  0
    4.7360    1.2290   -1.0150 H   0  0  0  0  0  0  0  0  0  0  0  0
    1.0530    1.9050    4.1680 C   0  0  0  0  0  0  0  0  0  0  0  0
    1.1820    0.5600    3.4520 C   0  0  2  0  0  0  0  0  0  0  0  0
    1.4150    0.7860    2.0420 N   0  0  0  0  0  0  0  0  0  0  0  0
   -0.0210   -0.2530    3.6520 C   0  0  0  0  0  0  0  0  0  0  0  0
   -0.2780   -0.6090    4.8480 O   0  0  0  0  0  0  0  0  0  0  0  0
    0.2910    2.4800    3.5980 H   0  0  0  0  0  0  0  0  0  0  0  0
    2.0070    2.4590    4.0380 H   0  0  0  0  0  0  0  0  0  0  0  0
    0.8240    1.7880    5.2240 H   0  0  0  0  0  0  0  0  0  0  0  0
    2.0390    0.0670    3.9490 H   0  0  0  0  0  0  0  0  0  0  0  0
    0.6480    1.0880    1.4110 H   0  0  0  0  0  0  0  0  0  0  0  0
   -3.3720   -0.7790    2.5890 C   0  0  0  0  0  0  0  0  0  0  0  0
   -2.0830   -1.4800    2.9090 C   0  0  2  0  0  0  0  0  0  0  0  0
   -0.9130   -0.6710    2.6390 N   0  0  0  0  0  0  0  0  0  0  0  0
   -1.9510   -2.7970    2.2750 C   0  0  0  0  0  0  0  0  0  0  0  0
   -0.9080   -3.0570    1.6070 O   0  0  0  0  0  0  0  0  0  0  0  0
   -2.8970   -3.7970    2.3510 O   0  0  0  0  0  0  0  0  0  0  0  0
   -3.5210   -0.5710    1.5280 H   0  0  0  0  0  0  0  0  0  0  0  0
   -4.1930   -1.4620    2.9210 H   0  0  0  0  0  0  0  0  0  0  0  0
   -3.4450    0.1130    3.2370 H   0  0  0  0  0  0  0  0  0  0  0  0
   -2.0960   -1.6680    4.0220 H   0  0  0  0  0  0  0  0  0  0  0  0
   -0.7270   -0.3780    1.6660 H   0  0  0  0  0  0  0  0  0  0  0  0
  1  2  1  0  0  0  0
  1 12  1  0  0  0  0
  2  4  1  0  0  0  0
  3  2  2  0  0  0  0
  4  5  1  0  0  0  0
  4 15  1  0  0  0  0
  5 17  1  0  0  0  0
  5  6  1  0  0  0  0
  6  7  1  0  0  0  0
  6 18  1  0  0  0  0
  7 21  1  0  0  0  0
  7  8  1  0  0  0  0
  8 22  1  6  0  0  0
  8 10  1  0  0  0  0
  9  8  1  0  0  0  0
  9 23  1  0  0  0  0
 10 27  1  0  0  0  0
 10 11  2  0  0  0  0
 13  1  1  0  0  0  0
 14  3  1  0  0  0  0
 16  5  1  0  0  0  0
 19  6  1  0  0  0  0
 20  7  1  0  0  0  0
 24  9  1  0  0  0  0
 25 32  1  0  0  0  0
 26 28  1  0  0  0  0
 26 33  1  1  0  0  0
 26 25  1  0  0  0  0
 27 26  1  0  0  0  0
 28 29  2  0  0  0  0
 30 25  1  0  0  0  0
 31 25  1  0  0  0  0
 34 27  1  0  0  0  0
 35 36  1  0  0  0  0
 35 42  1  0  0  0  0
 35 43  1  0  0  0  0
 36 44  1  1  0  0  0
 37 36  1  0  0  0  0
 37 28  1  0  0  0  0
 38 40  1  0  0  0  0
 38 36  1  0  0  0  0
 39 38  2  0  0  0  0
 41 35  1  0  0  0  0
 45 37  1  0  0  0  0
M  END
$$$$
