RAE.pdb
 OpenBabel07022418033D

 51 50  0  0  1  0  0  0  0  0999 V2000
    2.9900   -2.8600    4.0730 N   0  0  0  0  0  0  0  0  0  0  0  0
    3.0120   -2.9840    2.6630 C   0  0  0  0  0  0  0  0  0  0  0  0
    2.3570   -3.9550    2.1100 N   0  0  0  0  0  0  0  0  0  0  0  0
    3.7330   -2.0720    1.8350 N   0  0  0  0  0  0  0  0  0  0  0  0
    4.1550   -2.4950    0.5390 C   0  0  0  0  0  0  0  0  0  0  0  0
    4.8900   -1.4640   -0.2280 C   0  0  0  0  0  0  0  0  0  0  0  0
    4.2870   -0.1730   -0.5210 C   0  0  0  0  0  0  0  0  0  0  0  0
    3.0780    0.0110   -1.3320 C   0  0  2  0  0  0  0  0  0  0  0  0
    2.8850    1.5060   -1.3490 N   0  0  0  0  0  0  0  0  0  0  0  0
    1.8190   -0.5980   -0.8990 C   0  0  0  0  0  0  0  0  0  0  0  0
    1.5700   -1.7880   -1.1650 O   0  0  0  0  0  0  0  0  0  0  0  0
    3.3460   -3.6390    4.6560 H   0  0  0  0  0  0  0  0  0  0  0  0
    2.6180   -1.9940    4.4980 H   0  0  0  0  0  0  0  0  0  0  0  0
    1.8370   -4.6130    2.7140 H   0  0  0  0  0  0  0  0  0  0  0  0
    3.9480   -1.1190    2.1700 H   0  0  0  0  0  0  0  0  0  0  0  0
    4.9630   -3.3060    0.7790 H   0  0  0  0  0  0  0  0  0  0  0  0
    3.3940   -3.0800    0.0520 H   0  0  0  0  0  0  0  0  0  0  0  0
    5.8240   -1.2470    0.4000 H   0  0  0  0  0  0  0  0  0  0  0  0
    5.3590   -1.9650   -1.1260 H   0  0  0  0  0  0  0  0  0  0  0  0
    4.2050    0.3890    0.4750 H   0  0  0  0  0  0  0  0  0  0  0  0
    5.1050    0.4610   -1.0260 H   0  0  0  0  0  0  0  0  0  0  0  0
    3.2450   -0.2420   -2.3960 H   0  0  0  0  0  0  0  0  0  0  0  0
    2.9550    1.8660   -0.3940 H   0  0  0  0  0  0  0  0  0  0  0  0
    3.6920    1.8640   -1.9080 H   0  0  0  0  0  0  0  0  0  0  0  0
   -0.4500   -0.6480    1.7210 C   0  0  0  0  0  0  0  0  0  0  0  0
   -0.3760   -0.5520    0.2190 C   0  0  2  0  0  0  0  0  0  0  0  0
    0.8260    0.1070   -0.1680 N   0  0  0  0  0  0  0  0  0  0  0  0
   -1.6000    0.0400   -0.3110 C   0  0  0  0  0  0  0  0  0  0  0  0
   -1.5290    1.0490   -1.0490 O   0  0  0  0  0  0  0  0  0  0  0  0
    0.4590   -1.1610    2.1420 H   0  0  0  0  0  0  0  0  0  0  0  0
   -1.3080   -1.2690    2.0670 H   0  0  0  0  0  0  0  0  0  0  0  0
   -0.5200    0.3410    2.2170 H   0  0  0  0  0  0  0  0  0  0  0  0
   -0.3580   -1.6190   -0.1480 H   0  0  0  0  0  0  0  0  0  0  0  0
    0.9550    1.1080    0.0970 H   0  0  0  0  0  0  0  0  0  0  0  0
   -2.8580   -0.5260    0.0020 N   0  0  0  0  0  0  0  0  0  0  0  0
   -4.1300   -0.1410   -0.4310 C   0  0  1  0  0  0  0  0  0  0  0  0
   -5.0370    0.7150    0.3370 C   0  0  0  0  0  0  0  0  0  0  0  0
   -5.4880    0.2490    1.6840 C   0  0  0  0  0  0  0  0  0  0  0  0
   -4.3630    0.1820    2.6220 C   0  0  0  0  0  0  0  0  0  0  0  0
   -3.2440    0.6540    2.3700 O   0  0  0  0  0  0  0  0  0  0  0  0
   -4.1360    0.2190   -1.9040 C   0  0  0  0  0  0  0  0  0  0  0  0
   -3.1260    0.0210   -2.5880 O   0  0  0  0  0  0  0  0  0  0  0  0
   -4.6070   -0.4530    3.8440 O   0  0  0  0  0  0  0  0  0  0  0  0
   -5.2500    0.7690   -2.5130 O   0  0  0  0  0  0  0  0  0  0  0  0
   -2.7820   -1.3730    0.6620 H   0  0  0  0  0  0  0  0  0  0  0  0
   -4.7220   -1.1620   -0.5230 H   0  0  0  0  0  0  0  0  0  0  0  0
   -5.9880    0.8130   -0.2930 H   0  0  0  0  0  0  0  0  0  0  0  0
   -4.6450    1.7560    0.5070 H   0  0  0  0  0  0  0  0  0  0  0  0
   -6.0630   -0.7070    1.6350 H   0  0  0  0  0  0  0  0  0  0  0  0
   -6.1700    1.0600    2.0880 H   0  0  0  0  0  0  0  0  0  0  0  0
   -3.8790   -0.4000    4.5600 H   0  0  0  0  0  0  0  0  0  0  0  0
  1 13  1  0  0  0  0
  1 12  1  0  0  0  0
  2  1  1  0  0  0  0
  3  2  2  0  0  0  0
  3 14  1  0  0  0  0
  4 15  1  0  0  0  0
  4  2  1  0  0  0  0
  5 16  1  0  0  0  0
  5  4  1  0  0  0  0
  6 18  1  0  0  0  0
  6  5  1  0  0  0  0
  7  6  1  0  0  0  0
  7 20  1  0  0  0  0
  8 22  1  6  0  0  0
  8 10  1  0  0  0  0
  8  7  1  0  0  0  0
  9  8  1  0  0  0  0
  9 23  1  0  0  0  0
 10 27  1  0  0  0  0
 11 10  2  0  0  0  0
 17  5  1  0  0  0  0
 19  6  1  0  0  0  0
 21  7  1  0  0  0  0
 24  9  1  0  0  0  0
 25 31  1  0  0  0  0
 25 30  1  0  0  0  0
 25 32  1  0  0  0  0
 26 33  1  6  0  0  0
 26 25  1  0  0  0  0
 27 34  1  0  0  0  0
 27 26  1  0  0  0  0
 28 35  1  0  0  0  0
 28 26  1  0  0  0  0
 29 28  2  0  0  0  0
 35 45  1  0  0  0  0
 36 46  1  1  0  0  0
 36 35  1  0  0  0  0
 36 37  1  0  0  0  0
 37 48  1  0  0  0  0
 37 38  1  0  0  0  0
 38 50  1  0  0  0  0
 38 39  1  0  0  0  0
 39 43  1  0  0  0  0
 40 39  2  0  0  0  0
 41 36  1  0  0  0  0
 42 41  2  0  0  0  0
 43 51  1  0  0  0  0
 44 41  1  0  0  0  0
 47 37  1  0  0  0  0
 49 38  1  0  0  0  0
M  END
$$$$
