RAF.pdb
 OpenBabel07022418033D

 55 55  0  0  1  0  0  0  0  0999 V2000
    2.9240   -2.5740   -1.4550 N   0  0  0  0  0  0  0  0  0  0  0  0
    4.1190   -1.8060   -1.5110 C   0  0  0  0  0  0  0  0  0  0  0  0
    4.4070   -1.0950   -2.5590 N   0  0  0  0  0  0  0  0  0  0  0  0
    5.0150   -1.8230   -0.3790 N   0  0  0  0  0  0  0  0  0  0  0  0
    5.7730   -0.6520   -0.0320 C   0  0  0  0  0  0  0  0  0  0  0  0
    4.8610    0.4650    0.4540 C   0  0  0  0  0  0  0  0  0  0  0  0
    4.0650    0.0890    1.6410 C   0  0  0  0  0  0  0  0  0  0  0  0
    3.1190    1.1860    2.1280 C   0  0  2  0  0  0  0  0  0  0  0  0
    2.4510    0.5690    3.2820 N   0  0  0  0  0  0  0  0  0  0  0  0
    2.1900    1.6040    1.0730 C   0  0  0  0  0  0  0  0  0  0  0  0
    2.3270    2.7120    0.5290 O   0  0  0  0  0  0  0  0  0  0  0  0
    2.6650   -3.2650   -2.1670 H   0  0  0  0  0  0  0  0  0  0  0  0
    2.2760   -2.4330   -0.6640 H   0  0  0  0  0  0  0  0  0  0  0  0
    3.7300   -1.1090   -3.3500 H   0  0  0  0  0  0  0  0  0  0  0  0
    5.0740   -2.7140    0.1470 H   0  0  0  0  0  0  0  0  0  0  0  0
    6.4750   -0.9630    0.7890 H   0  0  0  0  0  0  0  0  0  0  0  0
    6.4150   -0.3260   -0.8640 H   0  0  0  0  0  0  0  0  0  0  0  0
    4.2850    0.8140   -0.4080 H   0  0  0  0  0  0  0  0  0  0  0  0
    5.5680    1.3060    0.7200 H   0  0  0  0  0  0  0  0  0  0  0  0
    3.5100   -0.8590    1.5250 H   0  0  0  0  0  0  0  0  0  0  0  0
    4.7640   -0.0720    2.5100 H   0  0  0  0  0  0  0  0  0  0  0  0
    3.7020    2.0330    2.5280 H   0  0  0  0  0  0  0  0  0  0  0  0
    1.8670    1.2560    3.7910 H   0  0  0  0  0  0  0  0  0  0  0  0
    1.9620   -0.2960    3.0000 H   0  0  0  0  0  0  0  0  0  0  0  0
    0.7390    0.7550   -1.7550 C   0  0  0  0  0  0  0  0  0  0  0  0
    0.2540    1.2350   -0.3870 C   0  0  2  0  0  0  0  0  0  0  0  0
    1.1380    0.7570    0.6600 N   0  0  0  0  0  0  0  0  0  0  0  0
   -1.1500    0.7970   -0.2120 C   0  0  0  0  0  0  0  0  0  0  0  0
   -2.0410    1.2080   -1.0260 O   0  0  0  0  0  0  0  0  0  0  0  0
    1.5930    0.0750   -1.5850 H   0  0  0  0  0  0  0  0  0  0  0  0
    1.0270    1.5380   -2.4270 H   0  0  0  0  0  0  0  0  0  0  0  0
   -0.0650    0.1400   -2.2460 H   0  0  0  0  0  0  0  0  0  0  0  0
    0.3780    2.3320   -0.4610 H   0  0  0  0  0  0  0  0  0  0  0  0
    1.0290   -0.2010    1.1100 H   0  0  0  0  0  0  0  0  0  0  0  0
   -1.6200   -0.0690    0.8000 N   0  0  0  0  0  0  0  0  0  0  0  0
   -3.0290   -0.4590    0.8890 C   0  0  1  0  0  0  0  0  0  0  0  0
   -3.2180   -1.7950    0.2090 C   0  0  0  0  0  0  0  0  0  0  0  0
   -4.6230   -2.2230    0.2880 C   0  0  0  0  0  0  0  0  0  0  0  0
   -5.5580   -1.8320   -0.6170 C   0  0  0  0  0  0  0  0  0  0  0  0
   -6.8540   -2.3000   -0.5250 C   0  0  0  0  0  0  0  0  0  0  0  0
   -7.2560   -3.1550    0.4610 C   0  0  0  0  0  0  0  0  0  0  0  0
   -6.3150   -3.5740    1.4130 C   0  0  0  0  0  0  0  0  0  0  0  0
   -5.0460   -3.1010    1.2980 C   0  0  0  0  0  0  0  0  0  0  0  0
   -3.5390   -0.4550    2.2330 C   0  0  0  0  0  0  0  0  0  0  0  0
   -2.7850   -0.1920    3.2370 O   0  0  0  0  0  0  0  0  0  0  0  0
   -4.8620   -0.7240    2.5820 O   0  0  0  0  0  0  0  0  0  0  0  0
   -0.9330   -0.4270    1.4960 H   0  0  0  0  0  0  0  0  0  0  0  0
   -3.5870    0.2700    0.2500 H   0  0  0  0  0  0  0  0  0  0  0  0
   -2.6390   -2.5210    0.8480 H   0  0  0  0  0  0  0  0  0  0  0  0
   -2.7940   -1.8370   -0.8080 H   0  0  0  0  0  0  0  0  0  0  0  0
   -5.2870   -1.1420   -1.4190 H   0  0  0  0  0  0  0  0  0  0  0  0
   -7.5930   -1.9770   -1.2600 H   0  0  0  0  0  0  0  0  0  0  0  0
   -8.2520   -3.5500    0.5710 H   0  0  0  0  0  0  0  0  0  0  0  0
   -6.5880   -4.2480    2.2140 H   0  0  0  0  0  0  0  0  0  0  0  0
   -4.2940   -3.4000    2.0070 H   0  0  0  0  0  0  0  0  0  0  0  0
  1 13  1  0  0  0  0
  2  1  1  0  0  0  0
  2  4  1  0  0  0  0
  3  2  2  0  0  0  0
  4  5  1  0  0  0  0
  4 15  1  0  0  0  0
  5  6  1  0  0  0  0
  5 16  1  0  0  0  0
  6 19  1  0  0  0  0
  6  7  1  0  0  0  0
  7  8  1  0  0  0  0
  7 21  1  0  0  0  0
  8 22  1  1  0  0  0
  8  9  1  0  0  0  0
  9 23  1  0  0  0  0
 10  8  1  0  0  0  0
 11 10  2  0  0  0  0
 12  1  1  0  0  0  0
 14  3  1  0  0  0  0
 17  5  1  0  0  0  0
 18  6  1  0  0  0  0
 20  7  1  0  0  0  0
 24  9  1  0  0  0  0
 25 30  1  0  0  0  0
 25 26  1  0  0  0  0
 26 33  1  1  0  0  0
 26 28  1  0  0  0  0
 26 27  1  0  0  0  0
 27 10  1  0  0  0  0
 27 34  1  0  0  0  0
 28 35  1  0  0  0  0
 29 28  2  0  0  0  0
 31 25  1  0  0  0  0
 32 25  1  0  0  0  0
 35 36  1  0  0  0  0
 35 47  1  0  0  0  0
 36 48  1  6  0  0  0
 36 44  1  0  0  0  0
 37 38  1  0  0  0  0
 37 49  1  0  0  0  0
 37 36  1  0  0  0  0
 38 43  1  0  0  0  0
 39 40  1  0  0  0  0
 39 38  2  0  0  0  0
 40 41  2  0  0  0  0
 41 53  1  0  0  0  0
 41 42  1  0  0  0  0
 42 54  1  0  0  0  0
 43 42  2  0  0  0  0
 43 55  1  0  0  0  0
 44 46  2  0  0  0  0
 44 45  1  0  0  0  0
 50 37  1  0  0  0  0
 51 39  1  0  0  0  0
 52 40  1  0  0  0  0
M  END
$$$$
