RAG.pdb
 OpenBabel07022418033D

 42 41  0  0  1  0  0  0  0  0999 V2000
   -1.8590   -5.4780   -3.0930 N   0  0  0  0  0  0  0  0  0  0  0  0
   -0.8100   -4.8600   -2.3170 C   0  0  0  0  0  0  0  0  0  0  0  0
   -0.4600   -5.3200   -1.2650 N   0  0  0  0  0  0  0  0  0  0  0  0
   -0.2000   -3.6710   -2.8640 N   0  0  0  0  0  0  0  0  0  0  0  0
    1.0600   -3.1730   -2.3830 C   0  0  0  0  0  0  0  0  0  0  0  0
    0.9740   -2.6300   -0.9600 C   0  0  0  0  0  0  0  0  0  0  0  0
   -0.0120   -1.4920   -0.8950 C   0  0  0  0  0  0  0  0  0  0  0  0
   -0.1830   -0.8940    0.4700 C   0  0  2  0  0  0  0  0  0  0  0  0
   -1.1620    0.1770    0.3640 N   0  0  0  0  0  0  0  0  0  0  0  0
    1.0830   -0.3930    1.0750 C   0  0  0  0  0  0  0  0  0  0  0  0
    2.0610   -1.1380    1.3310 O   0  0  0  0  0  0  0  0  0  0  0  0
   -2.4780   -6.2040   -2.6730 H   0  0  0  0  0  0  0  0  0  0  0  0
   -2.0260   -5.2190   -4.0830 H   0  0  0  0  0  0  0  0  0  0  0  0
   -0.2340   -5.7330   -0.4460 H   0  0  0  0  0  0  0  0  0  0  0  0
   -0.7290   -3.1910   -3.6310 H   0  0  0  0  0  0  0  0  0  0  0  0
    1.7730   -4.0320   -2.3880 H   0  0  0  0  0  0  0  0  0  0  0  0
    1.3870   -2.3650   -3.0610 H   0  0  0  0  0  0  0  0  0  0  0  0
    1.9950   -2.3580   -0.6020 H   0  0  0  0  0  0  0  0  0  0  0  0
    0.6320   -3.4480   -0.3150 H   0  0  0  0  0  0  0  0  0  0  0  0
   -1.0120   -1.9570   -1.1400 H   0  0  0  0  0  0  0  0  0  0  0  0
    0.1900   -0.7400   -1.6840 H   0  0  0  0  0  0  0  0  0  0  0  0
   -0.6690   -1.6830    1.1120 H   0  0  0  0  0  0  0  0  0  0  0  0
   -1.8230    0.0650   -0.4130 H   0  0  0  0  0  0  0  0  0  0  0  0
   -1.6400    0.2870    1.2980 H   0  0  0  0  0  0  0  0  0  0  0  0
    2.9200    2.6680    1.0910 C   0  0  0  0  0  0  0  0  0  0  0  0
    2.4550    1.5390    1.9920 C   0  0  2  0  0  0  0  0  0  0  0  0
    1.2600    0.9840    1.4040 N   0  0  0  0  0  0  0  0  0  0  0  0
    2.1070    2.1330    3.3320 C   0  0  0  0  0  0  0  0  0  0  0  0
    3.0050    2.6820    4.0200 O   0  0  0  0  0  0  0  0  0  0  0  0
    3.5880    2.1810    0.3260 H   0  0  0  0  0  0  0  0  0  0  0  0
    3.4600    3.4350    1.6840 H   0  0  0  0  0  0  0  0  0  0  0  0
    2.0680    3.0970    0.5440 H   0  0  0  0  0  0  0  0  0  0  0  0
    3.2520    0.7740    2.1190 H   0  0  0  0  0  0  0  0  0  0  0  0
    0.4700    1.6220    1.2000 H   0  0  0  0  0  0  0  0  0  0  0  0
    0.7690    2.0670    3.8010 N   0  0  0  0  0  0  0  0  0  0  0  0
    0.3770    2.6260    5.0930 C   0  0  0  0  0  0  0  0  0  0  0  0
   -1.0680    2.4030    5.2940 C   0  0  0  0  0  0  0  0  0  0  0  0
   -1.7190    1.8120    4.3920 O   0  0  0  0  0  0  0  0  0  0  0  0
   -1.6990    2.8350    6.4510 O   0  0  0  0  0  0  0  0  0  0  0  0
    0.0710    1.5960    3.1790 H   0  0  0  0  0  0  0  0  0  0  0  0
    0.6190    3.7140    5.1580 H   0  0  0  0  0  0  0  0  0  0  0  0
    0.9030    2.0840    5.9300 H   0  0  0  0  0  0  0  0  0  0  0  0
  1 12  1  0  0  0  0
  1  2  1  0  0  0  0
  2  3  2  0  0  0  0
  3 14  1  0  0  0  0
  4  5  1  0  0  0  0
  4  2  1  0  0  0  0
  5  6  1  0  0  0  0
  6  7  1  0  0  0  0
  6 18  1  0  0  0  0
  6 19  1  0  0  0  0
  7  8  1  0  0  0  0
  8 10  1  0  0  0  0
  8 22  1  1  0  0  0
  9  8  1  0  0  0  0
  9 24  1  0  0  0  0
 10 11  2  0  0  0  0
 10 27  1  0  0  0  0
 13  1  1  0  0  0  0
 15  4  1  0  0  0  0
 16  5  1  0  0  0  0
 17  5  1  0  0  0  0
 20  7  1  0  0  0  0
 21  7  1  0  0  0  0
 23  9  1  0  0  0  0
 25 31  1  0  0  0  0
 25 26  1  0  0  0  0
 26 33  1  1  0  0  0
 26 28  1  0  0  0  0
 27 26  1  0  0  0  0
 28 35  1  0  0  0  0
 28 29  2  0  0  0  0
 30 25  1  0  0  0  0
 32 25  1  0  0  0  0
 34 27  1  0  0  0  0
 35 36  1  0  0  0  0
 36 41  1  0  0  0  0
 36 37  1  0  0  0  0
 36 42  1  0  0  0  0
 37 39  1  0  0  0  0
 38 37  2  0  0  0  0
 40 35  1  0  0  0  0
M  END
$$$$
