RAH.pdb
 OpenBabel07022418033D

 52 52  0  0  1  0  0  0  0  0999 V2000
    4.8690   -6.1540    1.0210 N   0  0  0  0  0  0  0  0  0  0  0  0
    4.5460   -4.7690    0.8320 C   0  0  0  0  0  0  0  0  0  0  0  0
    4.4510   -4.2520   -0.3450 N   0  0  0  0  0  0  0  0  0  0  0  0
    4.3250   -3.9390    1.9760 N   0  0  0  0  0  0  0  0  0  0  0  0
    3.7780   -2.5990    1.7380 C   0  0  0  0  0  0  0  0  0  0  0  0
    2.3680   -2.6660    1.2540 C   0  0  0  0  0  0  0  0  0  0  0  0
    1.6900   -1.3580    1.0040 C   0  0  0  0  0  0  0  0  0  0  0  0
    2.3040   -0.4840   -0.0250 C   0  0  2  0  0  0  0  0  0  0  0  0
    3.6560   -0.0700    0.2510 N   0  0  0  0  0  0  0  0  0  0  0  0
    1.5110    0.7640   -0.2560 C   0  0  0  0  0  0  0  0  0  0  0  0
    2.0410    1.9010   -0.1810 O   0  0  0  0  0  0  0  0  0  0  0  0
    5.7030   -6.4640    1.5640 H   0  0  0  0  0  0  0  0  0  0  0  0
    4.2660   -6.8950    0.6110 H   0  0  0  0  0  0  0  0  0  0  0  0
    4.6170   -4.8720   -1.1590 H   0  0  0  0  0  0  0  0  0  0  0  0
    4.5500   -4.2870    2.9370 H   0  0  0  0  0  0  0  0  0  0  0  0
    3.8280   -2.0600    2.6960 H   0  0  0  0  0  0  0  0  0  0  0  0
    4.3970   -2.0750    0.9820 H   0  0  0  0  0  0  0  0  0  0  0  0
    1.7530   -3.3310    1.9210 H   0  0  0  0  0  0  0  0  0  0  0  0
    2.4100   -3.1900    0.2500 H   0  0  0  0  0  0  0  0  0  0  0  0
    1.6530   -0.8410    2.0170 H   0  0  0  0  0  0  0  0  0  0  0  0
    0.5960   -1.5500    0.8010 H   0  0  0  0  0  0  0  0  0  0  0  0
    2.3640   -1.0870   -0.9690 H   0  0  0  0  0  0  0  0  0  0  0  0
    4.2790   -0.0610   -0.5780 H   0  0  0  0  0  0  0  0  0  0  0  0
    3.7330    0.8430    0.7390 H   0  0  0  0  0  0  0  0  0  0  0  0
   -1.1080    2.0860   -2.2250 C   0  0  0  0  0  0  0  0  0  0  0  0
   -0.6310    1.9710   -0.7920 C   0  0  2  0  0  0  0  0  0  0  0  0
    0.1130    0.7460   -0.5750 N   0  0  0  0  0  0  0  0  0  0  0  0
   -1.7540    2.1230    0.1430 C   0  0  0  0  0  0  0  0  0  0  0  0
   -2.5090    3.1150    0.1420 O   0  0  0  0  0  0  0  0  0  0  0  0
   -0.6270    1.4030   -2.9240 H   0  0  0  0  0  0  0  0  0  0  0  0
   -1.0950    3.1420   -2.5350 H   0  0  0  0  0  0  0  0  0  0  0  0
   -2.1980    1.7920   -2.1990 H   0  0  0  0  0  0  0  0  0  0  0  0
    0.0680    2.8160   -0.6330 H   0  0  0  0  0  0  0  0  0  0  0  0
   -0.3300   -0.2010   -0.6390 H   0  0  0  0  0  0  0  0  0  0  0  0
   -1.9960    1.0940    1.0970 N   0  0  0  0  0  0  0  0  0  0  0  0
   -3.0850    1.1780    2.0490 C   0  0  1  0  0  0  0  0  0  0  0  0
   -4.0430    0.0140    1.8950 C   0  0  0  0  0  0  0  0  0  0  0  0
   -4.6460   -0.0410    0.5600 C   0  0  0  0  0  0  0  0  0  0  0  0
   -5.5550   -1.0080    0.1740 C   0  0  0  0  0  0  0  0  0  0  0  0
   -5.9300   -0.7970   -1.1030 N   0  0  0  0  0  0  0  0  0  0  0  0
   -5.2460    0.3120   -1.5140 C   0  0  0  0  0  0  0  0  0  0  0  0
   -4.4820    0.7540   -0.5090 N   0  0  0  0  0  0  0  0  0  0  0  0
   -2.5570    1.2380    3.4360 C   0  0  0  0  0  0  0  0  0  0  0  0
   -3.3700    1.3140    4.3950 O   0  0  0  0  0  0  0  0  0  0  0  0
   -1.2030    1.2170    3.7390 O   0  0  0  0  0  0  0  0  0  0  0  0
   -1.3770    0.2360    1.1280 H   0  0  0  0  0  0  0  0  0  0  0  0
   -3.6110    2.1510    1.8560 H   0  0  0  0  0  0  0  0  0  0  0  0
   -4.7960    0.0200    2.6970 H   0  0  0  0  0  0  0  0  0  0  0  0
   -3.4240   -0.9130    2.0600 H   0  0  0  0  0  0  0  0  0  0  0  0
   -5.9460   -1.8350    0.7640 H   0  0  0  0  0  0  0  0  0  0  0  0
   -6.5940   -1.3290   -1.7030 H   0  0  0  0  0  0  0  0  0  0  0  0
   -5.3120    0.7670   -2.5040 H   0  0  0  0  0  0  0  0  0  0  0  0
  1 12  1  0  0  0  0
  2  1  1  0  0  0  0
  2  4  1  0  0  0  0
  3  2  2  0  0  0  0
  4 15  1  0  0  0  0
  5  4  1  0  0  0  0
  5 16  1  0  0  0  0
  6  5  1  0  0  0  0
  6 18  1  0  0  0  0
  7  6  1  0  0  0  0
  7 20  1  0  0  0  0
  8 22  1  6  0  0  0
  8  9  1  0  0  0  0
  8  7  1  0  0  0  0
  9 24  1  0  0  0  0
 10 11  2  0  0  0  0
 10  8  1  0  0  0  0
 13  1  1  0  0  0  0
 14  3  1  0  0  0  0
 17  5  1  0  0  0  0
 19  6  1  0  0  0  0
 21  7  1  0  0  0  0
 23  9  1  0  0  0  0
 25 32  1  0  0  0  0
 25 26  1  0  0  0  0
 26 33  1  1  0  0  0
 26 27  1  0  0  0  0
 26 28  1  0  0  0  0
 27 10  1  0  0  0  0
 28 35  1  0  0  0  0
 29 28  2  0  0  0  0
 30 25  1  0  0  0  0
 31 25  1  0  0  0  0
 34 27  1  0  0  0  0
 35 46  1  0  0  0  0
 35 36  1  0  0  0  0
 36 47  1  6  0  0  0
 36 43  1  0  0  0  0
 37 36  1  0  0  0  0
 37 49  1  0  0  0  0
 37 48  1  0  0  0  0
 38 37  1  0  0  0  0
 39 38  2  0  0  0  0
 39 50  1  0  0  0  0
 40 39  1  0  0  0  0
 41 40  1  0  0  0  0
 41 42  2  0  0  0  0
 42 38  1  0  0  0  0
 43 45  2  0  0  0  0
 43 44  1  0  0  0  0
 51 40  1  0  0  0  0
 52 41  1  0  0  0  0
M  END
$$$$
