RAK.pdb
 OpenBabel07022418033D

 56 55  0  0  1  0  0  0  0  0999 V2000
    5.5960   -2.6440   -2.2970 N   0  0  0  0  0  0  0  0  0  0  0  0
    4.3720   -1.9720   -2.1610 C   0  0  0  0  0  0  0  0  0  0  0  0
    3.2870   -2.6480   -2.4360 N   0  0  0  0  0  0  0  0  0  0  0  0
    4.2410   -0.6320   -1.7470 N   0  0  0  0  0  0  0  0  0  0  0  0
    2.9890    0.0640   -1.8520 C   0  0  0  0  0  0  0  0  0  0  0  0
    3.0870    1.4800   -1.3210 C   0  0  0  0  0  0  0  0  0  0  0  0
    3.5010    1.5760    0.0900 C   0  0  0  0  0  0  0  0  0  0  0  0
    2.6370    0.9310    1.1220 C   0  0  2  0  0  0  0  0  0  0  0  0
    2.5450   -0.4780    0.8420 N   0  0  0  0  0  0  0  0  0  0  0  0
    1.3500    1.5830    1.3380 C   0  0  0  0  0  0  0  0  0  0  0  0
    1.3130    2.7860    1.6820 O   0  0  0  0  0  0  0  0  0  0  0  0
    5.7120   -3.4250   -2.9630 H   0  0  0  0  0  0  0  0  0  0  0  0
    6.4030   -2.3530   -1.7180 H   0  0  0  0  0  0  0  0  0  0  0  0
    3.2940   -3.6270   -2.7410 H   0  0  0  0  0  0  0  0  0  0  0  0
    5.0620   -0.1370   -1.3570 H   0  0  0  0  0  0  0  0  0  0  0  0
    2.1290   -0.4930   -1.4420 H   0  0  0  0  0  0  0  0  0  0  0  0
    2.7760    0.0850   -2.9680 H   0  0  0  0  0  0  0  0  0  0  0  0
    2.1280    1.9740   -1.5690 H   0  0  0  0  0  0  0  0  0  0  0  0
    3.8580    1.9940   -1.9390 H   0  0  0  0  0  0  0  0  0  0  0  0
    4.5570    1.2150    0.1710 H   0  0  0  0  0  0  0  0  0  0  0  0
    3.5820    2.6680    0.3480 H   0  0  0  0  0  0  0  0  0  0  0  0
    3.1750    0.9920    2.1180 H   0  0  0  0  0  0  0  0  0  0  0  0
    1.7500   -0.9750    1.2400 H   0  0  0  0  0  0  0  0  0  0  0  0
    3.4550   -0.9760    0.9540 H   0  0  0  0  0  0  0  0  0  0  0  0
   -1.6270    2.0960    0.0180 C   0  0  0  0  0  0  0  0  0  0  0  0
   -1.1120    1.6600    1.4200 C   0  0  2  0  0  0  0  0  0  0  0  0
    0.1060    0.9310    1.1800 N   0  0  0  0  0  0  0  0  0  0  0  0
   -2.2020    0.8980    2.0100 C   0  0  0  0  0  0  0  0  0  0  0  0
   -3.2900    1.4720    2.3160 O   0  0  0  0  0  0  0  0  0  0  0  0
   -1.1100    1.4860   -0.7760 H   0  0  0  0  0  0  0  0  0  0  0  0
   -1.4090    3.1430   -0.1870 H   0  0  0  0  0  0  0  0  0  0  0  0
   -2.7040    1.8910   -0.0940 H   0  0  0  0  0  0  0  0  0  0  0  0
   -0.8520    2.6150    1.8960 H   0  0  0  0  0  0  0  0  0  0  0  0
    0.0060   -0.0650    0.8890 H   0  0  0  0  0  0  0  0  0  0  0  0
   -2.1970   -0.5120    2.3060 N   0  0  0  0  0  0  0  0  0  0  0  0
   -3.3170   -1.1910    2.8790 C   0  0  1  0  0  0  0  0  0  0  0  0
   -4.3880   -1.6570    1.9660 C   0  0  0  0  0  0  0  0  0  0  0  0
   -4.1220   -2.5970    0.8820 C   0  0  0  0  0  0  0  0  0  0  0  0
   -3.1820   -2.0640   -0.1440 C   0  0  0  0  0  0  0  0  0  0  0  0
   -2.9770   -3.0880   -1.2830 C   0  0  0  0  0  0  0  0  0  0  0  0
   -2.4430   -4.2770   -0.6940 N   0  0  0  0  0  0  0  0  0  0  0  0
   -2.8390   -2.2950    3.7190 C   0  0  0  0  0  0  0  0  0  0  0  0
   -1.6320   -2.5810    3.8870 O   0  0  0  0  0  0  0  0  0  0  0  0
   -3.7830   -3.0770    4.3780 O   0  0  0  0  0  0  0  0  0  0  0  0
   -1.2920   -0.9960    2.1060 H   0  0  0  0  0  0  0  0  0  0  0  0
   -3.8790   -0.4740    3.5800 H   0  0  0  0  0  0  0  0  0  0  0  0
   -5.2040   -2.0750    2.6570 H   0  0  0  0  0  0  0  0  0  0  0  0
   -4.9130   -0.7130    1.5880 H   0  0  0  0  0  0  0  0  0  0  0  0
   -3.8500   -3.6280    1.2170 H   0  0  0  0  0  0  0  0  0  0  0  0
   -5.1040   -2.7670    0.3240 H   0  0  0  0  0  0  0  0  0  0  0  0
   -3.6130   -1.1690   -0.6800 H   0  0  0  0  0  0  0  0  0  0  0  0
   -2.2400   -1.7690    0.2810 H   0  0  0  0  0  0  0  0  0  0  0  0
   -3.9390   -3.2080   -1.7880 H   0  0  0  0  0  0  0  0  0  0  0  0
   -2.2040   -2.6300   -1.9590 H   0  0  0  0  0  0  0  0  0  0  0  0
   -1.7970   -4.7300   -1.3820 H   0  0  0  0  0  0  0  0  0  0  0  0
   -1.9900   -4.0590    0.2180 H   0  0  0  0  0  0  0  0  0  0  0  0
  1  2  1  0  0  0  0
  1 13  1  0  0  0  0
  2  4  1  0  0  0  0
  3  2  2  0  0  0  0
  4 15  1  0  0  0  0
  5  4  1  0  0  0  0
  5 16  1  0  0  0  0
  5  6  1  0  0  0  0
  6  7  1  0  0  0  0
  7 20  1  0  0  0  0
  7 21  1  0  0  0  0
  7  8  1  0  0  0  0
  8 10  1  0  0  0  0
  8 22  1  1  0  0  0
  9 24  1  0  0  0  0
  9  8  1  0  0  0  0
  9 23  1  0  0  0  0
 10 11  2  0  0  0  0
 12  1  1  0  0  0  0
 14  3  1  0  0  0  0
 17  5  1  0  0  0  0
 18  6  1  0  0  0  0
 19  6  1  0  0  0  0
 25 26  1  0  0  0  0
 26 33  1  1  0  0  0
 26 28  1  0  0  0  0
 27 10  1  0  0  0  0
 27 26  1  0  0  0  0
 28 35  1  0  0  0  0
 28 29  2  0  0  0  0
 30 25  1  0  0  0  0
 31 25  1  0  0  0  0
 32 25  1  0  0  0  0
 34 27  1  0  0  0  0
 35 36  1  0  0  0  0
 36 46  1  1  0  0  0
 36 42  1  0  0  0  0
 37 47  1  0  0  0  0
 37 36  1  0  0  0  0
 38 49  1  0  0  0  0
 38 37  1  0  0  0  0
 39 52  1  0  0  0  0
 39 38  1  0  0  0  0
 40 41  1  0  0  0  0
 40 39  1  0  0  0  0
 41 56  1  0  0  0  0
 42 43  2  0  0  0  0
 42 44  1  0  0  0  0
 45 35  1  0  0  0  0
 48 37  1  0  0  0  0
 50 38  1  0  0  0  0
 51 39  1  0  0  0  0
 53 40  1  0  0  0  0
 54 40  1  0  0  0  0
 55 41  1  0  0  0  0
M  END
$$$$
