RAL.pdb
 OpenBabel07022418033D

 54 53  0  0  1  0  0  0  0  0999 V2000
    0.6770   -4.0210   -2.8990 N   0  0  0  0  0  0  0  0  0  0  0  0
    1.4050   -3.6030   -1.7570 C   0  0  0  0  0  0  0  0  0  0  0  0
    1.4210   -4.3590   -0.7290 N   0  0  0  0  0  0  0  0  0  0  0  0
    2.1120   -2.3720   -1.7380 N   0  0  0  0  0  0  0  0  0  0  0  0
    2.8830   -1.9890   -0.5350 C   0  0  0  0  0  0  0  0  0  0  0  0
    3.5280   -0.6670   -0.8160 C   0  0  0  0  0  0  0  0  0  0  0  0
    4.4020   -0.1070    0.2470 C   0  0  0  0  0  0  0  0  0  0  0  0
    3.6950    0.1590    1.5760 C   0  0  2  0  0  0  0  0  0  0  0  0
    3.1920   -1.0990    2.0160 N   0  0  0  0  0  0  0  0  0  0  0  0
    2.6740    1.1960    1.3660 C   0  0  0  0  0  0  0  0  0  0  0  0
    3.0400    2.4350    1.3790 O   0  0  0  0  0  0  0  0  0  0  0  0
   -0.3420   -4.3090   -2.8270 H   0  0  0  0  0  0  0  0  0  0  0  0
    1.1150   -4.0620   -3.8640 H   0  0  0  0  0  0  0  0  0  0  0  0
    1.9300   -4.1170    0.1410 H   0  0  0  0  0  0  0  0  0  0  0  0
    2.1180   -1.7130   -2.5360 H   0  0  0  0  0  0  0  0  0  0  0  0
    3.6050   -2.8000   -0.3150 H   0  0  0  0  0  0  0  0  0  0  0  0
    2.1050   -1.8970    0.2830 H   0  0  0  0  0  0  0  0  0  0  0  0
    4.1400   -0.7930   -1.7560 H   0  0  0  0  0  0  0  0  0  0  0  0
    2.6960    0.0210   -1.1080 H   0  0  0  0  0  0  0  0  0  0  0  0
    5.2130   -0.8600    0.4500 H   0  0  0  0  0  0  0  0  0  0  0  0
    4.9190    0.8210   -0.0960 H   0  0  0  0  0  0  0  0  0  0  0  0
    4.4760    0.4680    2.3060 H   0  0  0  0  0  0  0  0  0  0  0  0
    3.8830   -1.6710    2.5480 H   0  0  0  0  0  0  0  0  0  0  0  0
    2.3380   -0.9980    2.6070 H   0  0  0  0  0  0  0  0  0  0  0  0
    0.4650    2.4120   -0.5610 C   0  0  0  0  0  0  0  0  0  0  0  0
    0.4190    2.1200    0.9690 C   0  0  2  0  0  0  0  0  0  0  0  0
    1.2930    0.9930    1.1410 N   0  0  0  0  0  0  0  0  0  0  0  0
   -0.9780    1.9140    1.3220 C   0  0  0  0  0  0  0  0  0  0  0  0
   -1.7300    2.9470    1.2900 O   0  0  0  0  0  0  0  0  0  0  0  0
    0.3450    1.4830   -1.1320 H   0  0  0  0  0  0  0  0  0  0  0  0
   -0.3640    3.1510   -0.7140 H   0  0  0  0  0  0  0  0  0  0  0  0
    1.4290    2.9230   -0.7810 H   0  0  0  0  0  0  0  0  0  0  0  0
    0.9110    3.0250    1.3880 H   0  0  0  0  0  0  0  0  0  0  0  0
    0.9230    0.0210    1.0970 H   0  0  0  0  0  0  0  0  0  0  0  0
   -3.4980   -2.4380    1.4000 C   0  0  0  0  0  0  0  0  0  0  0  0
   -3.4340   -1.3130    0.4010 C   0  0  0  0  0  0  0  0  0  0  0  0
   -4.4450   -1.6840   -0.7010 C   0  0  0  0  0  0  0  0  0  0  0  0
   -3.8160    0.0230    0.9040 C   0  0  0  0  0  0  0  0  0  0  0  0
   -3.0090    0.5800    2.0350 C   0  0  2  0  0  0  0  0  0  0  0  0
   -1.5900    0.6950    1.6910 N   0  0  0  0  0  0  0  0  0  0  0  0
   -3.1100   -0.1680    3.2950 C   0  0  0  0  0  0  0  0  0  0  0  0
   -2.0850   -0.6020    3.9090 O   0  0  0  0  0  0  0  0  0  0  0  0
   -4.3300   -0.4530    3.9050 O   0  0  0  0  0  0  0  0  0  0  0  0
   -3.4670   -3.4290    0.8360 H   0  0  0  0  0  0  0  0  0  0  0  0
   -2.5860   -2.4810    2.0230 H   0  0  0  0  0  0  0  0  0  0  0  0
   -4.4030   -2.4360    2.0230 H   0  0  0  0  0  0  0  0  0  0  0  0
   -2.4510   -1.3440   -0.1160 H   0  0  0  0  0  0  0  0  0  0  0  0
   -5.3610   -2.1100   -0.2490 H   0  0  0  0  0  0  0  0  0  0  0  0
   -4.0390   -2.4390   -1.3860 H   0  0  0  0  0  0  0  0  0  0  0  0
   -4.7520   -0.7870   -1.2720 H   0  0  0  0  0  0  0  0  0  0  0  0
   -4.8690   -0.0630    1.2970 H   0  0  0  0  0  0  0  0  0  0  0  0
   -3.8670    0.7860    0.1080 H   0  0  0  0  0  0  0  0  0  0  0  0
   -3.3730    1.6550    2.1370 H   0  0  0  0  0  0  0  0  0  0  0  0
   -0.9910   -0.1580    1.7170 H   0  0  0  0  0  0  0  0  0  0  0  0
  1 12  1  0  0  0  0
  1  2  1  0  0  0  0
  2  4  1  0  0  0  0
  2  3  2  0  0  0  0
  3 14  1  0  0  0  0
  4  5  1  0  0  0  0
  5 16  1  0  0  0  0
  5 17  1  0  0  0  0
  6  5  1  0  0  0  0
  6  7  1  0  0  0  0
  7 20  1  0  0  0  0
  7  8  1  0  0  0  0
  8  9  1  0  0  0  0
  8 22  1  1  0  0  0
  9 23  1  0  0  0  0
  9 24  1  0  0  0  0
 10 11  2  0  0  0  0
 10  8  1  0  0  0  0
 13  1  1  0  0  0  0
 15  4  1  0  0  0  0
 18  6  1  0  0  0  0
 19  6  1  0  0  0  0
 21  7  1  0  0  0  0
 25 26  1  0  0  0  0
 26 27  1  0  0  0  0
 26 28  1  0  0  0  0
 26 33  1  1  0  0  0
 27 10  1  0  0  0  0
 28 40  1  0  0  0  0
 29 28  2  0  0  0  0
 30 25  1  0  0  0  0
 31 25  1  0  0  0  0
 32 25  1  0  0  0  0
 34 27  1  0  0  0  0
 35 45  1  0  0  0  0
 35 46  1  0  0  0  0
 36 38  1  0  0  0  0
 36 35  1  0  0  0  0
 37 48  1  0  0  0  0
 37 36  1  0  0  0  0
 38 51  1  0  0  0  0
 38 39  1  0  0  0  0
 39 53  1  1  0  0  0
 39 41  1  0  0  0  0
 40 54  1  0  0  0  0
 40 39  1  0  0  0  0
 41 43  2  0  0  0  0
 41 42  1  0  0  0  0
 44 35  1  0  0  0  0
 47 36  1  0  0  0  0
 49 37  1  0  0  0  0
 50 37  1  0  0  0  0
 52 38  1  0  0  0  0
M  END
$$$$
