RAR.pdb
 OpenBabel07022418033D

 58 57  0  0  1  0  0  0  0  0999 V2000
    5.7960   -1.4700    7.0570 N   0  0  0  0  0  0  0  0  0  0  0  0
    5.0640   -1.8750    5.9300 C   0  0  0  0  0  0  0  0  0  0  0  0
    5.3940   -2.9180    5.2550 N   0  0  0  0  0  0  0  0  0  0  0  0
    3.9270   -1.1070    5.5320 N   0  0  0  0  0  0  0  0  0  0  0  0
    3.3940   -1.1970    4.1780 C   0  0  0  0  0  0  0  0  0  0  0  0
    2.2010   -0.2790    4.0670 C   0  0  0  0  0  0  0  0  0  0  0  0
    1.5820   -0.3140    2.6990 C   0  0  0  0  0  0  0  0  0  0  0  0
    2.5530    0.1180    1.6180 C   0  0  2  0  0  0  0  0  0  0  0  0
    2.9900    1.4740    1.8750 N   0  0  0  0  0  0  0  0  0  0  0  0
    1.8490    0.0590    0.3140 C   0  0  0  0  0  0  0  0  0  0  0  0
    1.6590    1.0950   -0.3850 O   0  0  0  0  0  0  0  0  0  0  0  0
    5.3520   -1.3610    8.0080 H   0  0  0  0  0  0  0  0  0  0  0  0
    6.8200   -1.2550    7.0100 H   0  0  0  0  0  0  0  0  0  0  0  0
    6.2120   -3.4890    5.5260 H   0  0  0  0  0  0  0  0  0  0  0  0
    3.5070   -0.4830    6.2650 H   0  0  0  0  0  0  0  0  0  0  0  0
    4.1610   -0.9010    3.4610 H   0  0  0  0  0  0  0  0  0  0  0  0
    3.1240   -2.2550    3.9980 H   0  0  0  0  0  0  0  0  0  0  0  0
    1.4410   -0.5690    4.8060 H   0  0  0  0  0  0  0  0  0  0  0  0
    2.5540    0.7590    4.2890 H   0  0  0  0  0  0  0  0  0  0  0  0
    0.7520    0.4440    2.7110 H   0  0  0  0  0  0  0  0  0  0  0  0
    1.1290   -1.2850    2.4790 H   0  0  0  0  0  0  0  0  0  0  0  0
    3.4430   -0.5270    1.5950 H   0  0  0  0  0  0  0  0  0  0  0  0
    2.7840    2.0980    1.0890 H   0  0  0  0  0  0  0  0  0  0  0  0
    3.9690    1.5000    2.2210 H   0  0  0  0  0  0  0  0  0  0  0  0
    1.4630   -1.9810   -2.5230 C   0  0  0  0  0  0  0  0  0  0  0  0
    0.6630   -1.2040   -1.4940 C   0  0  2  0  0  0  0  0  0  0  0  0
    1.3500   -1.1520   -0.2240 N   0  0  0  0  0  0  0  0  0  0  0  0
   -0.6760   -1.7740   -1.2830 C   0  0  0  0  0  0  0  0  0  0  0  0
   -1.0570   -2.1400   -0.1440 O   0  0  0  0  0  0  0  0  0  0  0  0
    1.3440   -3.0620   -2.3870 H   0  0  0  0  0  0  0  0  0  0  0  0
    1.2010   -1.6740   -3.5560 H   0  0  0  0  0  0  0  0  0  0  0  0
    2.5320   -1.6440   -2.3800 H   0  0  0  0  0  0  0  0  0  0  0  0
    0.5800   -0.1770   -1.9070 H   0  0  0  0  0  0  0  0  0  0  0  0
    1.4780   -2.0310    0.3040 H   0  0  0  0  0  0  0  0  0  0  0  0
   -4.5800    3.3210   -0.4230 N   0  0  0  0  0  0  0  0  0  0  0  0
   -3.7400    2.2830   -0.9090 C   0  0  0  0  0  0  0  0  0  0  0  0
   -2.9650    1.6050   -0.0990 N   0  0  0  0  0  0  0  0  0  0  0  0
   -3.6790    1.9160   -2.2820 N   0  0  0  0  0  0  0  0  0  0  0  0
   -3.3370    0.5530   -2.6690 C   0  0  0  0  0  0  0  0  0  0  0  0
   -4.3800   -0.4290   -2.3060 C   0  0  0  0  0  0  0  0  0  0  0  0
   -4.0920   -1.8410   -2.6870 C   0  0  0  0  0  0  0  0  0  0  0  0
   -2.9160   -2.5080   -2.1000 C   0  0  2  0  0  0  0  0  0  0  0  0
   -1.6230   -1.9450   -2.3560 N   0  0  0  0  0  0  0  0  0  0  0  0
   -2.8750   -3.9340   -2.6230 C   0  0  0  0  0  0  0  0  0  0  0  0
   -1.8500   -4.3900   -3.1460 O   0  0  0  0  0  0  0  0  0  0  0  0
   -4.0020   -4.7290   -2.5100 O   0  0  0  0  0  0  0  0  0  0  0  0
   -4.9820    3.2030    0.5310 H   0  0  0  0  0  0  0  0  0  0  0  0
   -4.8280    4.1870   -0.9410 H   0  0  0  0  0  0  0  0  0  0  0  0
   -2.9200    1.7790    0.9210 H   0  0  0  0  0  0  0  0  0  0  0  0
   -3.8870    2.6490   -2.9940 H   0  0  0  0  0  0  0  0  0  0  0  0
   -2.3650    0.2500   -2.2970 H   0  0  0  0  0  0  0  0  0  0  0  0
   -3.2500    0.5420   -3.7940 H   0  0  0  0  0  0  0  0  0  0  0  0
   -4.6930   -0.3790   -1.2350 H   0  0  0  0  0  0  0  0  0  0  0  0
   -5.3400   -0.1570   -2.8580 H   0  0  0  0  0  0  0  0  0  0  0  0
   -4.1330   -1.9710   -3.8060 H   0  0  0  0  0  0  0  0  0  0  0  0
   -5.0150   -2.4240   -2.3570 H   0  0  0  0  0  0  0  0  0  0  0  0
   -3.0270   -2.6580   -0.9970 H   0  0  0  0  0  0  0  0  0  0  0  0
   -1.3430   -1.6530   -3.3090 H   0  0  0  0  0  0  0  0  0  0  0  0
  1 12  1  0  0  0  0
  2  1  1  0  0  0  0
  3 14  1  0  0  0  0
  3  2  2  0  0  0  0
  4  2  1  0  0  0  0
  4 15  1  0  0  0  0
  5  4  1  0  0  0  0
  6  5  1  0  0  0  0
  6 19  1  0  0  0  0
  6 18  1  0  0  0  0
  7 20  1  0  0  0  0
  7  6  1  0  0  0  0
  8 22  1  6  0  0  0
  8  9  1  0  0  0  0
  8  7  1  0  0  0  0
  9 24  1  0  0  0  0
 10  8  1  0  0  0  0
 11 10  2  0  0  0  0
 13  1  1  0  0  0  0
 16  5  1  0  0  0  0
 17  5  1  0  0  0  0
 21  7  1  0  0  0  0
 23  9  1  0  0  0  0
 25 30  1  0  0  0  0
 25 32  1  0  0  0  0
 25 26  1  0  0  0  0
 26 33  1  6  0  0  0
 26 28  1  0  0  0  0
 26 27  1  0  0  0  0
 27 34  1  0  0  0  0
 27 10  1  0  0  0  0
 28 29  2  0  0  0  0
 31 25  1  0  0  0  0
 35 47  1  0  0  0  0
 36 35  1  0  0  0  0
 36 37  2  0  0  0  0
 37 49  1  0  0  0  0
 38 36  1  0  0  0  0
 39 40  1  0  0  0  0
 39 51  1  0  0  0  0
 39 38  1  0  0  0  0
 40 53  1  0  0  0  0
 41 56  1  0  0  0  0
 41 40  1  0  0  0  0
 41 42  1  0  0  0  0
 42 57  1  1  0  0  0
 43 42  1  0  0  0  0
 43 28  1  0  0  0  0
 44 46  1  0  0  0  0
 44 42  1  0  0  0  0
 45 44  2  0  0  0  0
 48 35  1  0  0  0  0
 50 38  1  0  0  0  0
 52 39  1  0  0  0  0
 54 40  1  0  0  0  0
 55 41  1  0  0  0  0
 58 43  1  0  0  0  0
M  END
$$$$
