RCL.pdb
 OpenBabel07022418053D

 55 54  0  0  1  0  0  0  0  0999 V2000
    6.5320   -2.5320    3.8410 N   0  0  0  0  0  0  0  0  0  0  0  0
    5.4150   -1.6850    3.6120 C   0  0  0  0  0  0  0  0  0  0  0  0
    4.7930   -1.1790    4.6120 N   0  0  0  0  0  0  0  0  0  0  0  0
    4.9960   -1.4060    2.2640 N   0  0  0  0  0  0  0  0  0  0  0  0
    3.6820   -0.8110    2.1140 C   0  0  0  0  0  0  0  0  0  0  0  0
    3.3270   -0.5560    0.6840 C   0  0  0  0  0  0  0  0  0  0  0  0
    3.3250   -1.8430   -0.1150 C   0  0  0  0  0  0  0  0  0  0  0  0
    2.9690   -1.6010   -1.5580 C   0  0  2  0  0  0  0  0  0  0  0  0
    3.8860   -0.7120   -2.2130 N   0  0  0  0  0  0  0  0  0  0  0  0
    1.5920   -1.1100   -1.7260 C   0  0  0  0  0  0  0  0  0  0  0  0
    1.3780   -0.0470   -2.3740 O   0  0  0  0  0  0  0  0  0  0  0  0
    6.5170   -3.5150    3.4930 H   0  0  0  0  0  0  0  0  0  0  0  0
    7.3370   -2.1550    4.3480 H   0  0  0  0  0  0  0  0  0  0  0  0
    5.0890   -1.3760    5.5760 H   0  0  0  0  0  0  0  0  0  0  0  0
    5.6330   -1.6360    1.4880 H   0  0  0  0  0  0  0  0  0  0  0  0
    2.9640   -1.4830    2.6280 H   0  0  0  0  0  0  0  0  0  0  0  0
    3.7380    0.1900    2.6250 H   0  0  0  0  0  0  0  0  0  0  0  0
    2.3440   -0.0530    0.6600 H   0  0  0  0  0  0  0  0  0  0  0  0
    4.0990    0.1460    0.2760 H   0  0  0  0  0  0  0  0  0  0  0  0
    2.6140   -2.5220    0.3550 H   0  0  0  0  0  0  0  0  0  0  0  0
    4.3380   -2.2830   -0.0540 H   0  0  0  0  0  0  0  0  0  0  0  0
    3.0450   -2.5910   -2.0820 H   0  0  0  0  0  0  0  0  0  0  0  0
    3.4670    0.2230   -2.4180 H   0  0  0  0  0  0  0  0  0  0  0  0
    4.7980   -0.6290   -1.7300 H   0  0  0  0  0  0  0  0  0  0  0  0
    0.5200   -1.8350   -1.1600 N   0  0  0  0  0  0  0  0  0  0  0  0
   -0.8230   -1.3610   -1.3220 C   0  0  1  0  0  0  0  0  0  0  0  0
   -1.6080   -2.3940   -2.0960 C   0  0  0  0  0  0  0  0  0  0  0  0
   -0.7730   -2.5840   -3.7120 S   0  0  0  0  0  0  0  0  0  0  0  0
   -1.4700   -1.0400   -0.0250 C   0  0  0  0  0  0  0  0  0  0  0  0
   -0.7790   -1.2170    1.0140 O   0  0  0  0  0  0  0  0  0  0  0  0
    0.7200   -2.7290   -0.6170 H   0  0  0  0  0  0  0  0  0  0  0  0
   -0.8130   -0.4270   -1.9120 H   0  0  0  0  0  0  0  0  0  0  0  0
   -2.6320   -2.0700   -2.3030 H   0  0  0  0  0  0  0  0  0  0  0  0
   -1.5300   -3.3700   -1.5870 H   0  0  0  0  0  0  0  0  0  0  0  0
    0.6070   -2.7660   -3.5380 H   0  0  0  0  0  0  0  0  0  0  0  0
   -6.0550    1.1440    0.4980 C   0  0  0  0  0  0  0  0  0  0  0  0
   -4.6970    1.8000    0.5450 C   0  0  0  0  0  0  0  0  0  0  0  0
   -4.1230    2.0420   -0.8300 C   0  0  0  0  0  0  0  0  0  0  0  0
   -3.7550    1.1900    1.5090 C   0  0  0  0  0  0  0  0  0  0  0  0
   -3.4110   -0.2520    1.3090 C   0  0  2  0  0  0  0  0  0  0  0  0
   -2.8000   -0.5570    0.0570 N   0  0  0  0  0  0  0  0  0  0  0  0
   -4.5330   -1.1760    1.5820 C   0  0  0  0  0  0  0  0  0  0  0  0
   -4.8420   -2.0780    0.7760 O   0  0  0  0  0  0  0  0  0  0  0  0
   -5.2570   -1.0430    2.7470 O   0  0  0  0  0  0  0  0  0  0  0  0
   -6.7230    1.8730   -0.0480 H   0  0  0  0  0  0  0  0  0  0  0  0
   -6.4530    1.1080    1.5250 H   0  0  0  0  0  0  0  0  0  0  0  0
   -6.0970    0.2170   -0.0630 H   0  0  0  0  0  0  0  0  0  0  0  0
   -4.9070    2.8370    0.9570 H   0  0  0  0  0  0  0  0  0  0  0  0
   -4.2920    3.1010   -1.1870 H   0  0  0  0  0  0  0  0  0  0  0  0
   -3.0090    1.9380   -0.8350 H   0  0  0  0  0  0  0  0  0  0  0  0
   -4.6080    1.4160   -1.6150 H   0  0  0  0  0  0  0  0  0  0  0  0
   -2.8230    1.7760    1.5110 H   0  0  0  0  0  0  0  0  0  0  0  0
   -4.1880    1.2890    2.5290 H   0  0  0  0  0  0  0  0  0  0  0  0
   -2.6630   -0.4740    2.1350 H   0  0  0  0  0  0  0  0  0  0  0  0
   -3.3040   -0.4390   -0.8420 H   0  0  0  0  0  0  0  0  0  0  0  0
  1 13  1  0  0  0  0
  2  1  1  0  0  0  0
  2  3  2  0  0  0  0
  3 14  1  0  0  0  0
  4  2  1  0  0  0  0
  5  4  1  0  0  0  0
  5 17  1  0  0  0  0
  5 16  1  0  0  0  0
  6  5  1  0  0  0  0
  7 21  1  0  0  0  0
  7 20  1  0  0  0  0
  7  6  1  0  0  0  0
  8 22  1  6  0  0  0
  8  7  1  0  0  0  0
  9 24  1  0  0  0  0
  9  8  1  0  0  0  0
 10  8  1  0  0  0  0
 10 25  1  0  0  0  0
 11 10  2  0  0  0  0
 12  1  1  0  0  0  0
 15  4  1  0  0  0  0
 18  6  1  0  0  0  0
 19  6  1  0  0  0  0
 23  9  1  0  0  0  0
 25 31  1  0  0  0  0
 26 32  1  6  0  0  0
 26 25  1  0  0  0  0
 26 29  1  0  0  0  0
 27 34  1  0  0  0  0
 27 26  1  0  0  0  0
 28 35  1  0  0  0  0
 28 27  1  0  0  0  0
 29 41  1  0  0  0  0
 29 30  2  0  0  0  0
 33 27  1  0  0  0  0
 36 37  1  0  0  0  0
 36 46  1  0  0  0  0
 37 48  1  0  0  0  0
 37 39  1  0  0  0  0
 38 37  1  0  0  0  0
 39 52  1  0  0  0  0
 39 53  1  0  0  0  0
 40 39  1  0  0  0  0
 40 42  1  0  0  0  0
 40 54  1  1  0  0  0
 41 40  1  0  0  0  0
 42 44  1  0  0  0  0
 43 42  2  0  0  0  0
 45 36  1  0  0  0  0
 47 36  1  0  0  0  0
 49 38  1  0  0  0  0
 50 38  1  0  0  0  0
 51 38  1  0  0  0  0
 55 41  1  0  0  0  0
M  END
$$$$
