RCR.pdb
 OpenBabel07022418043D

 59 58  0  0  1  0  0  0  0  0999 V2000
    1.8100    3.1770   -0.8020 N   0  0  0  0  0  0  0  0  0  0  0  0
    2.0870    2.8500    0.5350 C   0  0  0  0  0  0  0  0  0  0  0  0
    1.1470    2.3540    1.2670 N   0  0  0  0  0  0  0  0  0  0  0  0
    3.3580    3.0370    1.1410 N   0  0  0  0  0  0  0  0  0  0  0  0
    3.6450    2.4110    2.4280 C   0  0  0  0  0  0  0  0  0  0  0  0
    3.6900    0.9030    2.1410 C   0  0  0  0  0  0  0  0  0  0  0  0
    4.7700    0.5960    1.1390 C   0  0  0  0  0  0  0  0  0  0  0  0
    4.8990   -0.8410    0.8260 C   0  0  2  0  0  0  0  0  0  0  0  0
    5.9890   -0.9470   -0.1600 N   0  0  0  0  0  0  0  0  0  0  0  0
    3.7320   -1.5730    0.3760 C   0  0  0  0  0  0  0  0  0  0  0  0
    3.7080   -1.9320   -0.8480 O   0  0  0  0  0  0  0  0  0  0  0  0
    0.9880    2.7570   -1.3070 H   0  0  0  0  0  0  0  0  0  0  0  0
    2.4050    3.8350   -1.3250 H   0  0  0  0  0  0  0  0  0  0  0  0
    0.1840    2.1840    0.9010 H   0  0  0  0  0  0  0  0  0  0  0  0
    4.0580    3.6130    0.6580 H   0  0  0  0  0  0  0  0  0  0  0  0
    2.8370    2.6070    3.1620 H   0  0  0  0  0  0  0  0  0  0  0  0
    4.6370    2.7650    2.7720 H   0  0  0  0  0  0  0  0  0  0  0  0
    3.9030    0.3220    3.0550 H   0  0  0  0  0  0  0  0  0  0  0  0
    2.6830    0.6150    1.7800 H   0  0  0  0  0  0  0  0  0  0  0  0
    4.7250    1.2620    0.2520 H   0  0  0  0  0  0  0  0  0  0  0  0
    5.7290    0.9120    1.6530 H   0  0  0  0  0  0  0  0  0  0  0  0
    5.3090   -1.3600    1.7400 H   0  0  0  0  0  0  0  0  0  0  0  0
    6.8110   -0.4080    0.1850 H   0  0  0  0  0  0  0  0  0  0  0  0
    6.1990   -1.9180   -0.4120 H   0  0  0  0  0  0  0  0  0  0  0  0
    2.6180   -1.9390    1.1380 N   0  0  0  0  0  0  0  0  0  0  0  0
    1.4850   -2.6900    0.5780 C   0  0  1  0  0  0  0  0  0  0  0  0
    1.4400   -4.0690    1.2170 C   0  0  0  0  0  0  0  0  0  0  0  0
    0.0760   -5.0410    0.5590 S   0  0  0  0  0  0  0  0  0  0  0  0
    0.2780   -1.8880    0.8600 C   0  0  0  0  0  0  0  0  0  0  0  0
    0.4000   -0.8220    1.5500 O   0  0  0  0  0  0  0  0  0  0  0  0
    2.5790   -1.6890    2.1340 H   0  0  0  0  0  0  0  0  0  0  0  0
    1.7080   -2.8490   -0.4830 H   0  0  0  0  0  0  0  0  0  0  0  0
    1.2950   -3.9950    2.3240 H   0  0  0  0  0  0  0  0  0  0  0  0
    2.4090   -4.5730    1.0470 H   0  0  0  0  0  0  0  0  0  0  0  0
   -0.5940   -5.7710    1.5700 H   0  0  0  0  0  0  0  0  0  0  0  0
   -6.3850   -3.3340   -2.2000 N   0  0  0  0  0  0  0  0  0  0  0  0
   -6.2270   -1.9640   -1.8400 C   0  0  0  0  0  0  0  0  0  0  0  0
   -6.4730   -1.0210   -2.6880 N   0  0  0  0  0  0  0  0  0  0  0  0
   -5.8000   -1.5950   -0.5510 N   0  0  0  0  0  0  0  0  0  0  0  0
   -5.2220   -0.3370   -0.2070 C   0  0  0  0  0  0  0  0  0  0  0  0
   -3.8810   -0.0710   -0.7620 C   0  0  0  0  0  0  0  0  0  0  0  0
   -2.7560   -0.9550   -0.5330 C   0  0  0  0  0  0  0  0  0  0  0  0
   -2.1980   -1.2830    0.7910 C   0  0  2  0  0  0  0  0  0  0  0  0
   -1.0260   -2.1840    0.4360 N   0  0  0  0  0  0  0  0  0  0  0  0
   -3.0260   -2.0340    1.7380 C   0  0  0  0  0  0  0  0  0  0  0  0
   -2.7710   -3.2500    1.9410 O   0  0  0  0  0  0  0  0  0  0  0  0
   -4.0650   -1.4970    2.4280 O   0  0  0  0  0  0  0  0  0  0  0  0
   -6.9480   -3.5730   -3.0410 H   0  0  0  0  0  0  0  0  0  0  0  0
   -5.9550   -4.1000   -1.6460 H   0  0  0  0  0  0  0  0  0  0  0  0
   -6.7900   -1.2910   -3.6410 H   0  0  0  0  0  0  0  0  0  0  0  0
   -5.9230   -2.3220    0.2100 H   0  0  0  0  0  0  0  0  0  0  0  0
   -5.9560    0.4320   -0.7200 H   0  0  0  0  0  0  0  0  0  0  0  0
   -5.3230   -0.0330    0.8330 H   0  0  0  0  0  0  0  0  0  0  0  0
   -4.0310   -0.0300   -1.9040 H   0  0  0  0  0  0  0  0  0  0  0  0
   -3.6190    1.0300   -0.5720 H   0  0  0  0  0  0  0  0  0  0  0  0
   -2.9250   -1.8980   -1.1520 H   0  0  0  0  0  0  0  0  0  0  0  0
   -1.8700   -0.5010   -1.1210 H   0  0  0  0  0  0  0  0  0  0  0  0
   -1.7500   -0.4380    1.3430 H   0  0  0  0  0  0  0  0  0  0  0  0
   -1.1970   -3.0220   -0.1320 H   0  0  0  0  0  0  0  0  0  0  0  0
  1  2  1  0  0  0  0
  2  4  1  0  0  0  0
  2  3  2  0  0  0  0
  4  5  1  0  0  0  0
  5 17  1  0  0  0  0
  5 16  1  0  0  0  0
  6  5  1  0  0  0  0
  6 18  1  0  0  0  0
  7 21  1  0  0  0  0
  7  6  1  0  0  0  0
  8  7  1  0  0  0  0
  8 22  1  1  0  0  0
  9 23  1  0  0  0  0
  9  8  1  0  0  0  0
 10  8  1  0  0  0  0
 10 25  1  0  0  0  0
 11 10  2  0  0  0  0
 12  1  1  0  0  0  0
 13  1  1  0  0  0  0
 14  3  1  0  0  0  0
 15  4  1  0  0  0  0
 19  6  1  0  0  0  0
 20  7  1  0  0  0  0
 24  9  1  0  0  0  0
 25 31  1  0  0  0  0
 26 32  1  6  0  0  0
 26 29  1  0  0  0  0
 26 25  1  0  0  0  0
 26 27  1  0  0  0  0
 27 33  1  0  0  0  0
 28 27  1  0  0  0  0
 28 35  1  0  0  0  0
 29 30  2  0  0  0  0
 34 27  1  0  0  0  0
 36 37  1  0  0  0  0
 36 49  1  0  0  0  0
 37 39  1  0  0  0  0
 38 37  2  0  0  0  0
 39 40  1  0  0  0  0
 39 51  1  0  0  0  0
 40 53  1  0  0  0  0
 41 55  1  0  0  0  0
 41 42  1  0  0  0  0
 41 40  1  0  0  0  0
 42 43  1  0  0  0  0
 43 58  1  1  0  0  0
 43 45  1  0  0  0  0
 44 43  1  0  0  0  0
 44 29  1  0  0  0  0
 45 46  2  0  0  0  0
 45 47  1  0  0  0  0
 48 36  1  0  0  0  0
 50 38  1  0  0  0  0
 52 40  1  0  0  0  0
 54 41  1  0  0  0  0
 56 42  1  0  0  0  0
 57 42  1  0  0  0  0
 59 44  1  0  0  0  0
M  END
$$$$
