RCW.pdb
 OpenBabel07022418053D

 60 61  0  0  1  0  0  0  0  0999 V2000
   -0.4150    0.1000    4.0420 N   0  0  0  0  0  0  0  0  0  0  0  0
    0.9890    0.3160    4.0890 C   0  0  0  0  0  0  0  0  0  0  0  0
    1.4900    0.9640    5.0890 N   0  0  0  0  0  0  0  0  0  0  0  0
    1.8290   -0.1820    3.0340 N   0  0  0  0  0  0  0  0  0  0  0  0
    3.2220    0.1090    3.1520 C   0  0  0  0  0  0  0  0  0  0  0  0
    4.1200   -0.3060    2.0760 C   0  0  0  0  0  0  0  0  0  0  0  0
    4.0670    0.2620    0.7250 C   0  0  0  0  0  0  0  0  0  0  0  0
    2.8460    0.2400   -0.0850 C   0  0  2  0  0  0  0  0  0  0  0  0
    3.1350    0.7700   -1.4650 N   0  0  0  0  0  0  0  0  0  0  0  0
    1.7870    1.2440    0.3300 C   0  0  0  0  0  0  0  0  0  0  0  0
    2.0060    2.0910    1.1830 O   0  0  0  0  0  0  0  0  0  0  0  0
   -0.9090   -0.6220    4.6110 H   0  0  0  0  0  0  0  0  0  0  0  0
   -0.9950    0.6880    3.4090 H   0  0  0  0  0  0  0  0  0  0  0  0
    0.8680    1.3160    5.8390 H   0  0  0  0  0  0  0  0  0  0  0  0
    1.3480   -0.7190    2.2920 H   0  0  0  0  0  0  0  0  0  0  0  0
    3.5250   -0.3410    4.1610 H   0  0  0  0  0  0  0  0  0  0  0  0
    3.3800    1.2090    3.3350 H   0  0  0  0  0  0  0  0  0  0  0  0
    3.9970   -1.4540    1.9200 H   0  0  0  0  0  0  0  0  0  0  0  0
    5.2000   -0.2290    2.4460 H   0  0  0  0  0  0  0  0  0  0  0  0
    4.4810    1.3360    0.8240 H   0  0  0  0  0  0  0  0  0  0  0  0
    4.8640   -0.2810    0.1180 H   0  0  0  0  0  0  0  0  0  0  0  0
    2.4400   -0.7600   -0.2040 H   0  0  0  0  0  0  0  0  0  0  0  0
    3.3530    1.7830   -1.3230 H   0  0  0  0  0  0  0  0  0  0  0  0
    2.2180    0.7210   -1.9430 H   0  0  0  0  0  0  0  0  0  0  0  0
    0.5310    1.1630   -0.3100 N   0  0  0  0  0  0  0  0  0  0  0  0
   -0.5780    2.0220   -0.0420 C   0  0  1  0  0  0  0  0  0  0  0  0
   -0.8660    2.9700   -1.2000 C   0  0  0  0  0  0  0  0  0  0  0  0
    0.5630    4.0360   -1.5480 S   0  0  0  0  0  0  0  0  0  0  0  0
   -1.8030    1.2280    0.1410 C   0  0  0  0  0  0  0  0  0  0  0  0
   -2.8770    1.8500    0.3620 O   0  0  0  0  0  0  0  0  0  0  0  0
    0.4190    0.4080   -1.0440 H   0  0  0  0  0  0  0  0  0  0  0  0
   -0.3510    2.6920    0.8190 H   0  0  0  0  0  0  0  0  0  0  0  0
   -1.6910    3.6510   -0.8740 H   0  0  0  0  0  0  0  0  0  0  0  0
   -1.2360    2.4450   -2.0920 H   0  0  0  0  0  0  0  0  0  0  0  0
    0.1500    5.3030   -2.0160 H   0  0  0  0  0  0  0  0  0  0  0  0
   -1.8420   -0.1840    0.0810 N   0  0  0  0  0  0  0  0  0  0  0  0
   -3.0780   -0.9410    0.2600 C   0  0  1  0  0  0  0  0  0  0  0  0
   -3.4600   -1.6520   -1.0020 C   0  0  0  0  0  0  0  0  0  0  0  0
   -2.4550   -2.5960   -1.5220 C   0  0  0  0  0  0  0  0  0  0  0  0
   -1.5190   -2.2720   -2.5300 C   0  0  0  0  0  0  0  0  0  0  0  0
   -0.7400   -3.3350   -2.7350 N   0  0  0  0  0  0  0  0  0  0  0  0
   -1.0930   -4.3510   -1.9300 C   0  0  0  0  0  0  0  0  0  0  0  0
   -0.6450   -5.6370   -1.7380 C   0  0  0  0  0  0  0  0  0  0  0  0
   -1.2200   -6.4790   -0.8250 C   0  0  0  0  0  0  0  0  0  0  0  0
   -2.2720   -6.0250   -0.0840 C   0  0  0  0  0  0  0  0  0  0  0  0
   -2.7310   -4.7380   -0.2670 C   0  0  0  0  0  0  0  0  0  0  0  0
   -2.1720   -3.8770   -1.1720 C   0  0  0  0  0  0  0  0  0  0  0  0
   -3.1120   -1.7570    1.4740 C   0  0  0  0  0  0  0  0  0  0  0  0
   -4.1910   -2.3230    1.7800 O   0  0  0  0  0  0  0  0  0  0  0  0
   -2.0420   -1.9650    2.3310 O   0  0  0  0  0  0  0  0  0  0  0  0
   -0.9530   -0.6960   -0.0950 H   0  0  0  0  0  0  0  0  0  0  0  0
   -3.8820   -0.1480    0.4200 H   0  0  0  0  0  0  0  0  0  0  0  0
   -3.7420   -0.9090   -1.8040 H   0  0  0  0  0  0  0  0  0  0  0  0
   -4.4410   -2.1740   -0.7970 H   0  0  0  0  0  0  0  0  0  0  0  0
   -1.4490   -1.3320   -3.0410 H   0  0  0  0  0  0  0  0  0  0  0  0
    0.0570   -3.4100   -3.4250 H   0  0  0  0  0  0  0  0  0  0  0  0
    0.1960   -5.9910   -2.3370 H   0  0  0  0  0  0  0  0  0  0  0  0
   -0.8440   -7.4780   -0.6990 H   0  0  0  0  0  0  0  0  0  0  0  0
   -2.7500   -6.6650    0.6450 H   0  0  0  0  0  0  0  0  0  0  0  0
   -3.5710   -4.4010    0.3150 H   0  0  0  0  0  0  0  0  0  0  0  0
  1  2  1  0  0  0  0
  1 12  1  0  0  0  0
  2  3  2  0  0  0  0
  3 14  1  0  0  0  0
  4  5  1  0  0  0  0
  4  2  1  0  0  0  0
  5 17  1  0  0  0  0
  5 16  1  0  0  0  0
  6 19  1  0  0  0  0
  6  5  1  0  0  0  0
  7 20  1  0  0  0  0
  7  6  1  0  0  0  0
  8 22  1  6  0  0  0
  8 10  1  0  0  0  0
  8  7  1  0  0  0  0
  9 23  1  0  0  0  0
  9  8  1  0  0  0  0
 10 11  2  0  0  0  0
 13  1  1  0  0  0  0
 15  4  1  0  0  0  0
 18  6  1  0  0  0  0
 21  7  1  0  0  0  0
 24  9  1  0  0  0  0
 25 26  1  0  0  0  0
 25 10  1  0  0  0  0
 26 29  1  0  0  0  0
 26 32  1  1  0  0  0
 27 33  1  0  0  0  0
 27 26  1  0  0  0  0
 28 27  1  0  0  0  0
 29 30  2  0  0  0  0
 31 25  1  0  0  0  0
 34 27  1  0  0  0  0
 35 28  1  0  0  0  0
 36 29  1  0  0  0  0
 36 37  1  0  0  0  0
 37 52  1  1  0  0  0
 37 48  1  0  0  0  0
 38 54  1  0  0  0  0
 38 37  1  0  0  0  0
 39 47  1  0  0  0  0
 39 38  1  0  0  0  0
 40 39  2  0  0  0  0
 41 40  1  0  0  0  0
 41 42  1  0  0  0  0
 42 43  2  0  0  0  0
 42 47  1  0  0  0  0
 43 44  1  0  0  0  0
 44 58  1  0  0  0  0
 44 45  2  0  0  0  0
 45 59  1  0  0  0  0
 46 45  1  0  0  0  0
 46 60  1  0  0  0  0
 47 46  2  0  0  0  0
 48 49  2  0  0  0  0
 48 50  1  0  0  0  0
 51 36  1  0  0  0  0
 53 38  1  0  0  0  0
 55 40  1  0  0  0  0
 56 41  1  0  0  0  0
 57 43  1  0  0  0  0
M  END
$$$$
