RCY.pdb
 OpenBabel07022418053D

 57 57  0  0  1  0  0  0  0  0999 V2000
    5.0370   -2.0630    3.5260 N   0  0  0  0  0  0  0  0  0  0  0  0
    4.9610   -1.1850    2.3950 C   0  0  0  0  0  0  0  0  0  0  0  0
    5.8040   -0.2170    2.2300 N   0  0  0  0  0  0  0  0  0  0  0  0
    3.9590   -1.3330    1.4010 N   0  0  0  0  0  0  0  0  0  0  0  0
    3.5150   -0.2190    0.5780 C   0  0  0  0  0  0  0  0  0  0  0  0
    2.7650    0.8040    1.3920 C   0  0  0  0  0  0  0  0  0  0  0  0
    2.3050    1.9700    0.5410 C   0  0  0  0  0  0  0  0  0  0  0  0
    1.5550    2.9790    1.4050 C   0  0  2  0  0  0  0  0  0  0  0  0
    2.5310    3.3980    2.4230 N   0  0  0  0  0  0  0  0  0  0  0  0
    0.4080    2.3740    2.0980 C   0  0  0  0  0  0  0  0  0  0  0  0
    0.3890    2.2230    3.3480 O   0  0  0  0  0  0  0  0  0  0  0  0
    4.6100   -1.7260    4.4220 H   0  0  0  0  0  0  0  0  0  0  0  0
    5.4940   -3.0010    3.4810 H   0  0  0  0  0  0  0  0  0  0  0  0
    6.5420   -0.1030    2.9570 H   0  0  0  0  0  0  0  0  0  0  0  0
    3.5380   -2.2770    1.2700 H   0  0  0  0  0  0  0  0  0  0  0  0
    4.4360    0.2650    0.1500 H   0  0  0  0  0  0  0  0  0  0  0  0
    2.8740   -0.5530   -0.2390 H   0  0  0  0  0  0  0  0  0  0  0  0
    1.8490    0.3040    1.7700 H   0  0  0  0  0  0  0  0  0  0  0  0
    3.3840    1.1810    2.2180 H   0  0  0  0  0  0  0  0  0  0  0  0
    3.1950    2.4910    0.1530 H   0  0  0  0  0  0  0  0  0  0  0  0
    1.6560    1.6620   -0.2800 H   0  0  0  0  0  0  0  0  0  0  0  0
    1.3270    3.8620    0.8070 H   0  0  0  0  0  0  0  0  0  0  0  0
    2.2360    4.2900    2.8590 H   0  0  0  0  0  0  0  0  0  0  0  0
    3.4950    3.3990    2.0650 H   0  0  0  0  0  0  0  0  0  0  0  0
   -0.7630    1.9190    1.3970 N   0  0  0  0  0  0  0  0  0  0  0  0
   -1.8800    1.3240    2.1040 C   0  0  1  0  0  0  0  0  0  0  0  0
   -3.0700    2.2700    1.9670 C   0  0  0  0  0  0  0  0  0  0  0  0
   -4.4530    1.5220    2.8480 S   0  0  0  0  0  0  0  0  0  0  0  0
   -2.1960    0.0210    1.4520 C   0  0  0  0  0  0  0  0  0  0  0  0
   -3.1430   -0.7130    1.8820 O   0  0  0  0  0  0  0  0  0  0  0  0
   -0.7720    2.0350    0.3620 H   0  0  0  0  0  0  0  0  0  0  0  0
   -1.6590    1.2410    3.1680 H   0  0  0  0  0  0  0  0  0  0  0  0
   -3.2980    2.5090    0.9270 H   0  0  0  0  0  0  0  0  0  0  0  0
   -2.7480    3.2160    2.4680 H   0  0  0  0  0  0  0  0  0  0  0  0
   -5.5230    1.2650    1.9750 H   0  0  0  0  0  0  0  0  0  0  0  0
   -3.7860   -6.6440   -3.8620 O   0  0  0  0  0  0  0  0  0  0  0  0
   -3.3940   -5.4080   -3.3340 C   0  0  0  0  0  0  0  0  0  0  0  0
   -2.1220   -4.9030   -3.5050 C   0  0  0  0  0  0  0  0  0  0  0  0
   -1.7530   -3.6740   -2.9740 C   0  0  0  0  0  0  0  0  0  0  0  0
   -2.6460   -2.9080   -2.2540 C   0  0  0  0  0  0  0  0  0  0  0  0
   -2.2830   -1.6050   -1.6690 C   0  0  0  0  0  0  0  0  0  0  0  0
   -1.8440   -1.7540   -0.2500 C   0  0  2  0  0  0  0  0  0  0  0  0
   -1.4770   -0.4710    0.3380 N   0  0  0  0  0  0  0  0  0  0  0  0
   -0.6910   -2.6550   -0.1220 C   0  0  0  0  0  0  0  0  0  0  0  0
   -0.6730   -3.8520   -0.4720 O   0  0  0  0  0  0  0  0  0  0  0  0
   -3.9200   -3.4250   -2.0880 C   0  0  0  0  0  0  0  0  0  0  0  0
   -4.2900   -4.6450   -2.6140 C   0  0  0  0  0  0  0  0  0  0  0  0
    0.4870   -2.1580    0.4300 O   0  0  0  0  0  0  0  0  0  0  0  0
   -3.3270   -7.5040   -3.5670 H   0  0  0  0  0  0  0  0  0  0  0  0
   -1.4250   -5.5030   -4.0690 H   0  0  0  0  0  0  0  0  0  0  0  0
   -0.7490   -3.2770   -3.1210 H   0  0  0  0  0  0  0  0  0  0  0  0
   -3.2080   -0.9590   -1.7350 H   0  0  0  0  0  0  0  0  0  0  0  0
   -1.5430   -1.0780   -2.3060 H   0  0  0  0  0  0  0  0  0  0  0  0
   -2.6990   -2.2120    0.2980 H   0  0  0  0  0  0  0  0  0  0  0  0
   -0.6860    0.0520   -0.0850 H   0  0  0  0  0  0  0  0  0  0  0  0
   -4.6630   -2.8590   -1.5270 H   0  0  0  0  0  0  0  0  0  0  0  0
   -5.2920   -5.0510   -2.4850 H   0  0  0  0  0  0  0  0  0  0  0  0
  1 12  1  0  0  0  0
  2  1  1  0  0  0  0
  3  2  2  0  0  0  0
  3 14  1  0  0  0  0
  4  2  1  0  0  0  0
  5  6  1  0  0  0  0
  5  4  1  0  0  0  0
  6 18  1  0  0  0  0
  6 19  1  0  0  0  0
  7  6  1  0  0  0  0
  7  8  1  0  0  0  0
  8 22  1  6  0  0  0
  8 10  1  0  0  0  0
  8  9  1  0  0  0  0
  9 23  1  0  0  0  0
 10 11  2  0  0  0  0
 13  1  1  0  0  0  0
 15  4  1  0  0  0  0
 16  5  1  0  0  0  0
 17  5  1  0  0  0  0
 20  7  1  0  0  0  0
 21  7  1  0  0  0  0
 24  9  1  0  0  0  0
 25 10  1  0  0  0  0
 25 26  1  0  0  0  0
 26 32  1  1  0  0  0
 27 26  1  0  0  0  0
 27 34  1  0  0  0  0
 27 28  1  0  0  0  0
 29 30  2  0  0  0  0
 29 26  1  0  0  0  0
 31 25  1  0  0  0  0
 33 27  1  0  0  0  0
 35 28  1  0  0  0  0
 36 49  1  0  0  0  0
 36 37  1  0  0  0  0
 37 47  1  0  0  0  0
 38 37  2  0  0  0  0
 38 39  1  0  0  0  0
 39 40  2  0  0  0  0
 40 46  1  0  0  0  0
 40 41  1  0  0  0  0
 41 42  1  0  0  0  0
 42 44  1  0  0  0  0
 42 54  1  1  0  0  0
 42 43  1  0  0  0  0
 43 29  1  0  0  0  0
 44 48  1  0  0  0  0
 45 44  2  0  0  0  0
 46 56  1  0  0  0  0
 47 57  1  0  0  0  0
 47 46  2  0  0  0  0
 50 38  1  0  0  0  0
 51 39  1  0  0  0  0
 52 41  1  0  0  0  0
 53 41  1  0  0  0  0
 55 43  1  0  0  0  0
M  END
$$$$
