RDG.pdb
 OpenBabel07022418043D

 45 44  0  0  1  0  0  0  0  0999 V2000
   -2.2440   -4.7410    0.2230 N   0  0  0  0  0  0  0  0  0  0  0  0
   -1.3460   -3.6310    0.3470 C   0  0  0  0  0  0  0  0  0  0  0  0
   -1.8590   -2.4260    0.3370 N   0  0  0  0  0  0  0  0  0  0  0  0
    0.0490   -3.8570    0.4780 N   0  0  0  0  0  0  0  0  0  0  0  0
    0.9470   -2.7940    0.0550 C   0  0  0  0  0  0  0  0  0  0  0  0
    2.3870   -3.1770    0.2550 C   0  0  0  0  0  0  0  0  0  0  0  0
    3.3910   -2.1750   -0.1450 C   0  0  0  0  0  0  0  0  0  0  0  0
    3.3660   -0.8550    0.5390 C   0  0  2  0  0  0  0  0  0  0  0  0
    3.5460   -0.9080    1.9610 N   0  0  0  0  0  0  0  0  0  0  0  0
    2.1990    0.0080    0.1480 C   0  0  0  0  0  0  0  0  0  0  0  0
    1.9580    0.0580   -1.0670 O   0  0  0  0  0  0  0  0  0  0  0  0
   -3.2610   -4.6040    0.1840 H   0  0  0  0  0  0  0  0  0  0  0  0
   -1.8480   -5.7110    0.1700 H   0  0  0  0  0  0  0  0  0  0  0  0
   -1.2740   -1.5840    0.4220 H   0  0  0  0  0  0  0  0  0  0  0  0
    0.3870   -4.7700    0.8690 H   0  0  0  0  0  0  0  0  0  0  0  0
    0.7120   -2.5700   -0.9980 H   0  0  0  0  0  0  0  0  0  0  0  0
    0.7400   -1.9510    0.7500 H   0  0  0  0  0  0  0  0  0  0  0  0
    2.5550   -4.0870   -0.3880 H   0  0  0  0  0  0  0  0  0  0  0  0
    2.5690   -3.5180    1.2910 H   0  0  0  0  0  0  0  0  0  0  0  0
    4.3950   -2.6620   -0.1110 H   0  0  0  0  0  0  0  0  0  0  0  0
    3.2440   -1.9520   -1.2480 H   0  0  0  0  0  0  0  0  0  0  0  0
    4.2830   -0.2990    0.1420 H   0  0  0  0  0  0  0  0  0  0  0  0
    4.4690   -1.2880    2.1970 H   0  0  0  0  0  0  0  0  0  0  0  0
    2.7410   -1.3050    2.4590 H   0  0  0  0  0  0  0  0  0  0  0  0
    1.4300    0.7120    1.0790 N   0  0  0  0  0  0  0  0  0  0  0  0
    0.3290    1.5870    0.9290 C   0  0  1  0  0  0  0  0  0  0  0  0
   -0.1560    1.7570   -0.5010 C   0  0  0  0  0  0  0  0  0  0  0  0
    0.8730    2.4190   -1.3210 C   0  0  0  0  0  0  0  0  0  0  0  0
    1.9140    2.9600   -0.8070 O   0  0  0  0  0  0  0  0  0  0  0  0
   -0.7320    1.5060    1.9280 C   0  0  0  0  0  0  0  0  0  0  0  0
   -0.6970    0.6740    2.9020 O   0  0  0  0  0  0  0  0  0  0  0  0
    0.7980    2.5090   -2.7050 O   0  0  0  0  0  0  0  0  0  0  0  0
    1.7750    0.5250    2.1070 H   0  0  0  0  0  0  0  0  0  0  0  0
    0.8200    2.6540    1.0630 H   0  0  0  0  0  0  0  0  0  0  0  0
   -0.3720    0.7440   -0.9020 H   0  0  0  0  0  0  0  0  0  0  0  0
   -1.0590    2.3700   -0.5260 H   0  0  0  0  0  0  0  0  0  0  0  0
    1.2000    3.3070   -3.1960 H   0  0  0  0  0  0  0  0  0  0  0  0
   -1.8870    2.3380    1.9050 N   0  0  0  0  0  0  0  0  0  0  0  0
   -2.9220    2.2280    2.9160 C   0  0  0  0  0  0  0  0  0  0  0  0
   -3.5160    0.8510    2.9010 C   0  0  0  0  0  0  0  0  0  0  0  0
   -3.0930   -0.0090    2.0700 O   0  0  0  0  0  0  0  0  0  0  0  0
   -4.5160    0.4820    3.7660 O   0  0  0  0  0  0  0  0  0  0  0  0
   -2.0010    3.0490    1.1470 H   0  0  0  0  0  0  0  0  0  0  0  0
   -3.7250    2.9490    2.7460 H   0  0  0  0  0  0  0  0  0  0  0  0
   -2.4850    2.3880    3.9340 H   0  0  0  0  0  0  0  0  0  0  0  0
  1  2  1  0  0  0  0
  2  4  1  0  0  0  0
  3  2  2  0  0  0  0
  3 14  1  0  0  0  0
  4 15  1  0  0  0  0
  5  6  1  0  0  0  0
  5  4  1  0  0  0  0
  5 17  1  0  0  0  0
  6 19  1  0  0  0  0
  7 20  1  0  0  0  0
  7  6  1  0  0  0  0
  7  8  1  0  0  0  0
  8 22  1  6  0  0  0
  8  9  1  0  0  0  0
  9 23  1  0  0  0  0
  9 24  1  0  0  0  0
 10  8  1  0  0  0  0
 10 25  1  0  0  0  0
 11 10  2  0  0  0  0
 12  1  1  0  0  0  0
 13  1  1  0  0  0  0
 16  5  1  0  0  0  0
 18  6  1  0  0  0  0
 21  7  1  0  0  0  0
 25 33  1  0  0  0  0
 26 34  1  1  0  0  0
 26 25  1  0  0  0  0
 26 30  1  0  0  0  0
 27 26  1  0  0  0  0
 28 29  2  0  0  0  0
 28 27  1  0  0  0  0
 30 31  2  0  0  0  0
 32 28  1  0  0  0  0
 35 27  1  0  0  0  0
 36 27  1  0  0  0  0
 37 32  1  0  0  0  0
 38 30  1  0  0  0  0
 38 39  1  0  0  0  0
 39 45  1  0  0  0  0
 40 39  1  0  0  0  0
 40 42  1  0  0  0  0
 41 40  2  0  0  0  0
 43 38  1  0  0  0  0
 44 39  1  0  0  0  0
M  END
$$$$
