RDK.pdb
 OpenBabel07022418043D

 59 58  0  0  1  0  0  0  0  0999 V2000
    2.3210   -2.9500    6.2750 N   0  0  0  0  0  0  0  0  0  0  0  0
    3.3790   -2.5630    5.3910 C   0  0  0  0  0  0  0  0  0  0  0  0
    4.2940   -3.4520    5.1530 N   0  0  0  0  0  0  0  0  0  0  0  0
    3.4310   -1.2850    4.8060 N   0  0  0  0  0  0  0  0  0  0  0  0
    4.0590   -1.1310    3.5230 C   0  0  0  0  0  0  0  0  0  0  0  0
    4.0360    0.2930    3.0260 C   0  0  0  0  0  0  0  0  0  0  0  0
    2.6350    0.8260    2.8740 C   0  0  0  0  0  0  0  0  0  0  0  0
    1.8120    0.0320    1.9020 C   0  0  2  0  0  0  0  0  0  0  0  0
    2.3810    0.0250    0.5960 N   0  0  0  0  0  0  0  0  0  0  0  0
    0.4310    0.6250    1.9130 C   0  0  0  0  0  0  0  0  0  0  0  0
   -0.2310    0.7160    2.9780 O   0  0  0  0  0  0  0  0  0  0  0  0
    2.4750   -3.4890    7.1490 H   0  0  0  0  0  0  0  0  0  0  0  0
    1.3210   -2.6860    6.0520 H   0  0  0  0  0  0  0  0  0  0  0  0
    4.2820   -4.4010    5.5700 H   0  0  0  0  0  0  0  0  0  0  0  0
    3.0070   -0.4790    5.3290 H   0  0  0  0  0  0  0  0  0  0  0  0
    3.6380   -1.8330    2.7490 H   0  0  0  0  0  0  0  0  0  0  0  0
    5.1310   -1.4170    3.6330 H   0  0  0  0  0  0  0  0  0  0  0  0
    4.5430    0.9120    3.8010 H   0  0  0  0  0  0  0  0  0  0  0  0
    4.5940    0.3400    2.0750 H   0  0  0  0  0  0  0  0  0  0  0  0
    2.7110    1.8660    2.5010 H   0  0  0  0  0  0  0  0  0  0  0  0
    2.1600    0.8910    3.8740 H   0  0  0  0  0  0  0  0  0  0  0  0
    1.7990   -1.0230    2.2720 H   0  0  0  0  0  0  0  0  0  0  0  0
    2.5260    0.9490    0.1740 H   0  0  0  0  0  0  0  0  0  0  0  0
    1.8860   -0.6570   -0.0170 H   0  0  0  0  0  0  0  0  0  0  0  0
   -0.1820    1.1060    0.7230 N   0  0  0  0  0  0  0  0  0  0  0  0
   -1.5240    1.6870    0.7100 C   0  0  1  0  0  0  0  0  0  0  0  0
   -1.5030    3.0730    0.1340 C   0  0  0  0  0  0  0  0  0  0  0  0
   -2.8180    3.7190    0.1280 C   0  0  0  0  0  0  0  0  0  0  0  0
   -3.0150    4.7010   -0.6250 O   0  0  0  0  0  0  0  0  0  0  0  0
   -2.3410    0.8100   -0.1640 C   0  0  0  0  0  0  0  0  0  0  0  0
   -3.5490    1.1100   -0.3570 O   0  0  0  0  0  0  0  0  0  0  0  0
   -3.8460    3.2800    0.9290 O   0  0  0  0  0  0  0  0  0  0  0  0
    0.3590    1.0410   -0.1650 H   0  0  0  0  0  0  0  0  0  0  0  0
   -1.9480    1.7420    1.7290 H   0  0  0  0  0  0  0  0  0  0  0  0
   -1.1480    3.0650   -0.9390 H   0  0  0  0  0  0  0  0  0  0  0  0
   -0.7380    3.7160    0.6580 H   0  0  0  0  0  0  0  0  0  0  0  0
   -4.6990    3.7970    1.1140 H   0  0  0  0  0  0  0  0  0  0  0  0
   -1.7680   -0.3220   -0.7520 N   0  0  0  0  0  0  0  0  0  0  0  0
   -2.5290   -1.2530   -1.6450 C   0  0  1  0  0  0  0  0  0  0  0  0
   -2.0440   -1.0160   -3.0080 C   0  0  0  0  0  0  0  0  0  0  0  0
   -2.4450   -1.7340   -4.2000 C   0  0  0  0  0  0  0  0  0  0  0  0
   -1.9080   -3.0120   -4.6500 C   0  0  0  0  0  0  0  0  0  0  0  0
   -1.8230   -4.2660   -3.9140 C   0  0  0  0  0  0  0  0  0  0  0  0
   -0.9210   -4.2170   -2.7950 N   0  0  0  0  0  0  0  0  0  0  0  0
   -2.6470   -2.4970   -0.9760 C   0  0  0  0  0  0  0  0  0  0  0  0
   -3.4440   -3.3970   -1.3380 O   0  0  0  0  0  0  0  0  0  0  0  0
   -1.8780   -2.8360    0.1600 O   0  0  0  0  0  0  0  0  0  0  0  0
   -0.7820   -0.5590   -0.5850 H   0  0  0  0  0  0  0  0  0  0  0  0
   -3.5840   -0.7040   -1.6110 H   0  0  0  0  0  0  0  0  0  0  0  0
   -2.2130    0.1180   -3.2250 H   0  0  0  0  0  0  0  0  0  0  0  0
   -0.8680   -0.9770   -2.9990 H   0  0  0  0  0  0  0  0  0  0  0  0
   -2.4000   -1.0030   -5.1260 H   0  0  0  0  0  0  0  0  0  0  0  0
   -3.6260   -1.8110   -4.1710 H   0  0  0  0  0  0  0  0  0  0  0  0
   -2.4740   -3.3010   -5.6460 H   0  0  0  0  0  0  0  0  0  0  0  0
   -0.8420   -2.7820   -5.1070 H   0  0  0  0  0  0  0  0  0  0  0  0
   -1.4340   -5.1150   -4.5660 H   0  0  0  0  0  0  0  0  0  0  0  0
   -2.8400   -4.6550   -3.6060 H   0  0  0  0  0  0  0  0  0  0  0  0
   -1.2170   -4.8580   -2.0320 H   0  0  0  0  0  0  0  0  0  0  0  0
    0.0430   -4.4360   -3.1240 H   0  0  0  0  0  0  0  0  0  0  0  0
  1 12  1  0  0  0  0
  2  1  1  0  0  0  0
  3  2  2  0  0  0  0
  3 14  1  0  0  0  0
  4 15  1  0  0  0  0
  4  2  1  0  0  0  0
  5 17  1  0  0  0  0
  5  4  1  0  0  0  0
  6  5  1  0  0  0  0
  6 18  1  0  0  0  0
  7  6  1  0  0  0  0
  7 21  1  0  0  0  0
  8 10  1  0  0  0  0
  8 22  1  1  0  0  0
  8  7  1  0  0  0  0
  9  8  1  0  0  0  0
 10 11  2  0  0  0  0
 13  1  1  0  0  0  0
 16  5  1  0  0  0  0
 19  6  1  0  0  0  0
 20  7  1  0  0  0  0
 23  9  1  0  0  0  0
 24  9  1  0  0  0  0
 25 10  1  0  0  0  0
 26 25  1  0  0  0  0
 26 34  1  1  0  0  0
 27 36  1  0  0  0  0
 27 26  1  0  0  0  0
 28 27  1  0  0  0  0
 28 32  1  0  0  0  0
 29 28  2  0  0  0  0
 30 26  1  0  0  0  0
 31 30  2  0  0  0  0
 32 37  1  0  0  0  0
 33 25  1  0  0  0  0
 35 27  1  0  0  0  0
 38 48  1  0  0  0  0
 38 30  1  0  0  0  0
 39 49  1  6  0  0  0
 39 45  1  0  0  0  0
 39 38  1  0  0  0  0
 40 51  1  0  0  0  0
 40 39  1  0  0  0  0
 41 53  1  0  0  0  0
 41 40  1  0  0  0  0
 42 41  1  0  0  0  0
 42 43  1  0  0  0  0
 43 57  1  0  0  0  0
 43 44  1  0  0  0  0
 44 58  1  0  0  0  0
 45 47  1  0  0  0  0
 46 45  2  0  0  0  0
 50 40  1  0  0  0  0
 52 41  1  0  0  0  0
 54 42  1  0  0  0  0
 55 42  1  0  0  0  0
 56 43  1  0  0  0  0
 59 44  1  0  0  0  0
M  END
$$$$
