RDL.pdb
 OpenBabel07022418043D

 57 56  0  0  1  0  0  0  0  0999 V2000
   -1.2330    0.6870    7.3300 N   0  0  0  0  0  0  0  0  0  0  0  0
   -0.1700    0.6430    6.3900 C   0  0  0  0  0  0  0  0  0  0  0  0
   -0.3730    1.2110    5.2630 N   0  0  0  0  0  0  0  0  0  0  0  0
    1.0680    0.0150    6.6340 N   0  0  0  0  0  0  0  0  0  0  0  0
    1.7710   -0.5770    5.5130 C   0  0  0  0  0  0  0  0  0  0  0  0
    1.0990   -1.7530    4.9330 C   0  0  0  0  0  0  0  0  0  0  0  0
    1.8100   -2.3980    3.8060 C   0  0  0  0  0  0  0  0  0  0  0  0
    2.0620   -1.6150    2.5700 C   0  0  2  0  0  0  0  0  0  0  0  0
    2.8470   -0.4430    2.6750 N   0  0  0  0  0  0  0  0  0  0  0  0
    0.8760   -1.4320    1.7250 C   0  0  0  0  0  0  0  0  0  0  0  0
   -0.0670   -2.2890    1.6860 O   0  0  0  0  0  0  0  0  0  0  0  0
   -1.6350   -0.1480    7.7940 H   0  0  0  0  0  0  0  0  0  0  0  0
   -1.6310    1.6180    7.5660 H   0  0  0  0  0  0  0  0  0  0  0  0
    0.3540    1.2220    4.5260 H   0  0  0  0  0  0  0  0  0  0  0  0
    1.4310   -0.0030    7.6100 H   0  0  0  0  0  0  0  0  0  0  0  0
    2.0780    0.1910    4.7800 H   0  0  0  0  0  0  0  0  0  0  0  0
    2.7570   -0.9460    5.9340 H   0  0  0  0  0  0  0  0  0  0  0  0
    0.9860   -2.5480    5.7360 H   0  0  0  0  0  0  0  0  0  0  0  0
    0.0510   -1.5800    4.6040 H   0  0  0  0  0  0  0  0  0  0  0  0
    2.7940   -2.8320    4.1810 H   0  0  0  0  0  0  0  0  0  0  0  0
    1.2450   -3.3320    3.4950 H   0  0  0  0  0  0  0  0  0  0  0  0
    2.7250   -2.3280    1.9250 H   0  0  0  0  0  0  0  0  0  0  0  0
    3.8300   -0.5160    2.3060 H   0  0  0  0  0  0  0  0  0  0  0  0
    2.4080    0.4550    2.4960 H   0  0  0  0  0  0  0  0  0  0  0  0
    0.7290   -0.2880    0.9100 N   0  0  0  0  0  0  0  0  0  0  0  0
   -0.4620   -0.0960    0.0590 C   0  0  1  0  0  0  0  0  0  0  0  0
   -1.1940    1.1410    0.5120 C   0  0  0  0  0  0  0  0  0  0  0  0
   -2.4100    1.4480   -0.2530 C   0  0  0  0  0  0  0  0  0  0  0  0
   -2.4510    2.3710   -1.1020 O   0  0  0  0  0  0  0  0  0  0  0  0
   -0.1040   -0.1220   -1.3520 C   0  0  0  0  0  0  0  0  0  0  0  0
    1.1350   -0.2000   -1.6430 O   0  0  0  0  0  0  0  0  0  0  0  0
   -3.5620    0.7030   -0.0460 O   0  0  0  0  0  0  0  0  0  0  0  0
    1.4190    0.4900    0.8270 H   0  0  0  0  0  0  0  0  0  0  0  0
   -1.1230   -0.9670    0.2620 H   0  0  0  0  0  0  0  0  0  0  0  0
   -0.4310    1.9790    0.3950 H   0  0  0  0  0  0  0  0  0  0  0  0
   -1.3830    1.1260    1.6140 H   0  0  0  0  0  0  0  0  0  0  0  0
   -4.5000    1.1140   -0.1070 H   0  0  0  0  0  0  0  0  0  0  0  0
   -1.3180   -3.7120   -4.8410 C   0  0  0  0  0  0  0  0  0  0  0  0
   -0.6920   -2.6400   -3.9450 C   0  0  0  0  0  0  0  0  0  0  0  0
    0.8090   -2.9160   -3.9770 C   0  0  0  0  0  0  0  0  0  0  0  0
   -1.0500   -1.3230   -4.5470 C   0  0  0  0  0  0  0  0  0  0  0  0
   -0.5150   -0.1230   -3.7900 C   0  0  2  0  0  0  0  0  0  0  0  0
   -1.0010   -0.0740   -2.4440 N   0  0  0  0  0  0  0  0  0  0  0  0
   -0.9010    1.0730   -4.5710 C   0  0  0  0  0  0  0  0  0  0  0  0
   -0.5380    1.1800   -5.7790 O   0  0  0  0  0  0  0  0  0  0  0  0
   -1.6510    2.0910   -4.0270 O   0  0  0  0  0  0  0  0  0  0  0  0
   -2.2960   -3.3480   -5.2510 H   0  0  0  0  0  0  0  0  0  0  0  0
   -1.5310   -4.6320   -4.2670 H   0  0  0  0  0  0  0  0  0  0  0  0
   -0.6560   -3.9770   -5.6850 H   0  0  0  0  0  0  0  0  0  0  0  0
   -1.0610   -2.7750   -2.9230 H   0  0  0  0  0  0  0  0  0  0  0  0
    1.4170   -2.0800   -3.6300 H   0  0  0  0  0  0  0  0  0  0  0  0
    1.0700   -3.1480   -5.0330 H   0  0  0  0  0  0  0  0  0  0  0  0
    0.9720   -3.8290   -3.3380 H   0  0  0  0  0  0  0  0  0  0  0  0
   -0.6110   -1.2820   -5.5650 H   0  0  0  0  0  0  0  0  0  0  0  0
   -2.1690   -1.2770   -4.5660 H   0  0  0  0  0  0  0  0  0  0  0  0
    0.5920   -0.2280   -3.7690 H   0  0  0  0  0  0  0  0  0  0  0  0
   -2.0510   -0.0100   -2.2710 H   0  0  0  0  0  0  0  0  0  0  0  0
  1 13  1  0  0  0  0
  1 12  1  0  0  0  0
  2  4  1  0  0  0  0
  2  1  1  0  0  0  0
  3  2  2  0  0  0  0
  4 15  1  0  0  0  0
  5 17  1  0  0  0  0
  5  4  1  0  0  0  0
  6  5  1  0  0  0  0
  6 18  1  0  0  0  0
  7 20  1  0  0  0  0
  7  6  1  0  0  0  0
  8 22  1  6  0  0  0
  8  9  1  0  0  0  0
  8  7  1  0  0  0  0
 10  8  1  0  0  0  0
 11 10  2  0  0  0  0
 14  3  1  0  0  0  0
 16  5  1  0  0  0  0
 19  6  1  0  0  0  0
 21  7  1  0  0  0  0
 23  9  1  0  0  0  0
 24  9  1  0  0  0  0
 25 10  1  0  0  0  0
 26 34  1  1  0  0  0
 26 27  1  0  0  0  0
 26 25  1  0  0  0  0
 27 36  1  0  0  0  0
 28 32  1  0  0  0  0
 28 27  1  0  0  0  0
 29 28  2  0  0  0  0
 30 26  1  0  0  0  0
 31 30  2  0  0  0  0
 33 25  1  0  0  0  0
 35 27  1  0  0  0  0
 37 32  1  0  0  0  0
 38 48  1  0  0  0  0
 38 39  1  0  0  0  0
 39 50  1  0  0  0  0
 40 39  1  0  0  0  0
 40 51  1  0  0  0  0
 40 53  1  0  0  0  0
 41 39  1  0  0  0  0
 41 42  1  0  0  0  0
 42 56  1  1  0  0  0
 42 43  1  0  0  0  0
 43 57  1  0  0  0  0
 43 30  1  0  0  0  0
 44 46  1  0  0  0  0
 44 42  1  0  0  0  0
 45 44  2  0  0  0  0
 47 38  1  0  0  0  0
 49 38  1  0  0  0  0
 52 40  1  0  0  0  0
 54 41  1  0  0  0  0
 55 41  1  0  0  0  0
M  END
$$$$
