RDM.pdb
 OpenBabel07022418043D

 55 54  0  0  1  0  0  0  0  0999 V2000
   -0.6290   -3.0230    5.3230 N   0  0  0  0  0  0  0  0  0  0  0  0
    0.5380   -2.5500    4.6160 C   0  0  0  0  0  0  0  0  0  0  0  0
    1.4680   -3.3540    4.2310 N   0  0  0  0  0  0  0  0  0  0  0  0
    0.6530   -1.1650    4.3420 N   0  0  0  0  0  0  0  0  0  0  0  0
    1.9380   -0.5110    4.3720 C   0  0  0  0  0  0  0  0  0  0  0  0
    1.8210    0.9660    4.0590 C   0  0  0  0  0  0  0  0  0  0  0  0
    1.2600    1.2370    2.6990 C   0  0  0  0  0  0  0  0  0  0  0  0
    2.1900    0.6390    1.6460 C   0  0  2  0  0  0  0  0  0  0  0  0
    3.4800    1.3120    1.8530 N   0  0  0  0  0  0  0  0  0  0  0  0
    1.7430    1.0320    0.3120 C   0  0  0  0  0  0  0  0  0  0  0  0
    1.8450    2.2320   -0.0450 O   0  0  0  0  0  0  0  0  0  0  0  0
   -0.4720   -3.8170    5.9730 H   0  0  0  0  0  0  0  0  0  0  0  0
   -1.5490   -2.5760    5.1710 H   0  0  0  0  0  0  0  0  0  0  0  0
    1.4390   -4.3720    4.4020 H   0  0  0  0  0  0  0  0  0  0  0  0
   -0.1910   -0.6040    4.1130 H   0  0  0  0  0  0  0  0  0  0  0  0
    2.3520   -0.5970    5.3950 H   0  0  0  0  0  0  0  0  0  0  0  0
    2.6660   -1.0200    3.7040 H   0  0  0  0  0  0  0  0  0  0  0  0
    1.2770    1.4440    4.8940 H   0  0  0  0  0  0  0  0  0  0  0  0
    2.8830    1.3570    4.1150 H   0  0  0  0  0  0  0  0  0  0  0  0
    1.2990    2.3270    2.5330 H   0  0  0  0  0  0  0  0  0  0  0  0
    0.2380    0.8610    2.6250 H   0  0  0  0  0  0  0  0  0  0  0  0
    2.3090   -0.4130    1.7930 H   0  0  0  0  0  0  0  0  0  0  0  0
    3.5570    2.1860    1.2870 H   0  0  0  0  0  0  0  0  0  0  0  0
    4.2520    0.6350    1.6100 H   0  0  0  0  0  0  0  0  0  0  0  0
    1.1790    0.1340   -0.6670 N   0  0  0  0  0  0  0  0  0  0  0  0
    0.7610    0.6370   -1.9610 C   0  0  1  0  0  0  0  0  0  0  0  0
    1.8380    0.4250   -3.0120 C   0  0  0  0  0  0  0  0  0  0  0  0
    1.3220    0.9600   -4.2890 C   0  0  0  0  0  0  0  0  0  0  0  0
    0.9460    0.2360   -5.2530 O   0  0  0  0  0  0  0  0  0  0  0  0
   -0.5590    0.1440   -2.4020 C   0  0  0  0  0  0  0  0  0  0  0  0
   -1.0100    0.5610   -3.5160 O   0  0  0  0  0  0  0  0  0  0  0  0
    1.2110    2.3480   -4.5180 O   0  0  0  0  0  0  0  0  0  0  0  0
    1.1120   -0.8630   -0.3680 H   0  0  0  0  0  0  0  0  0  0  0  0
    0.7060    1.7670   -1.8600 H   0  0  0  0  0  0  0  0  0  0  0  0
    2.0440   -0.6530   -3.1370 H   0  0  0  0  0  0  0  0  0  0  0  0
    2.7850    0.8810   -2.6910 H   0  0  0  0  0  0  0  0  0  0  0  0
    0.3260    2.7370   -4.8640 H   0  0  0  0  0  0  0  0  0  0  0  0
   -3.1510   -2.8160    1.0210 C   0  0  0  0  0  0  0  0  0  0  0  0
   -3.1710   -4.0040   -0.2920 S   0  0  0  0  0  0  0  0  0  0  0  0
   -2.1500   -3.7270   -1.6990 C   0  0  0  0  0  0  0  0  0  0  0  0
   -2.5790   -2.6290   -2.5750 C   0  0  0  0  0  0  0  0  0  0  0  0
   -2.6470   -1.2370   -2.1190 C   0  0  2  0  0  0  0  0  0  0  0  0
   -1.3500   -0.7650   -1.6630 N   0  0  0  0  0  0  0  0  0  0  0  0
   -3.7890   -0.8500   -1.3280 C   0  0  0  0  0  0  0  0  0  0  0  0
   -4.9200   -1.3300   -1.5990 O   0  0  0  0  0  0  0  0  0  0  0  0
   -3.7230    0.0380   -0.2710 O   0  0  0  0  0  0  0  0  0  0  0  0
   -3.0600   -3.3140    2.0310 H   0  0  0  0  0  0  0  0  0  0  0  0
   -2.4410   -1.9960    0.9490 H   0  0  0  0  0  0  0  0  0  0  0  0
   -4.1850   -2.3580    1.0790 H   0  0  0  0  0  0  0  0  0  0  0  0
   -2.2190   -4.6770   -2.3440 H   0  0  0  0  0  0  0  0  0  0  0  0
   -1.0450   -3.7160   -1.4720 H   0  0  0  0  0  0  0  0  0  0  0  0
   -2.0200   -2.6590   -3.5720 H   0  0  0  0  0  0  0  0  0  0  0  0
   -3.6410   -2.9020   -2.9170 H   0  0  0  0  0  0  0  0  0  0  0  0
   -2.8120   -0.6370   -3.1180 H   0  0  0  0  0  0  0  0  0  0  0  0
   -0.9730   -1.0990   -0.7640 H   0  0  0  0  0  0  0  0  0  0  0  0
  1 12  1  0  0  0  0
  2  1  1  0  0  0  0
  3 14  1  0  0  0  0
  3  2  2  0  0  0  0
  4  5  1  0  0  0  0
  4  2  1  0  0  0  0
  5 16  1  0  0  0  0
  6 19  1  0  0  0  0
  6  5  1  0  0  0  0
  6 18  1  0  0  0  0
  7  6  1  0  0  0  0
  8 22  1  1  0  0  0
  8  9  1  0  0  0  0
  8  7  1  0  0  0  0
 10  8  1  0  0  0  0
 11 10  2  0  0  0  0
 13  1  1  0  0  0  0
 15  4  1  0  0  0  0
 17  5  1  0  0  0  0
 20  7  1  0  0  0  0
 21  7  1  0  0  0  0
 23  9  1  0  0  0  0
 24  9  1  0  0  0  0
 25 33  1  0  0  0  0
 25 10  1  0  0  0  0
 26 34  1  1  0  0  0
 26 25  1  0  0  0  0
 27 36  1  0  0  0  0
 27 26  1  0  0  0  0
 28 27  1  0  0  0  0
 29 28  2  0  0  0  0
 30 26  1  0  0  0  0
 30 43  1  0  0  0  0
 31 30  2  0  0  0  0
 32 28  1  0  0  0  0
 35 27  1  0  0  0  0
 37 32  1  0  0  0  0
 38 49  1  0  0  0  0
 38 47  1  0  0  0  0
 39 38  1  0  0  0  0
 40 51  1  0  0  0  0
 40 39  1  0  0  0  0
 41 42  1  0  0  0  0
 41 40  1  0  0  0  0
 42 54  1  6  0  0  0
 42 43  1  0  0  0  0
 42 44  1  0  0  0  0
 43 55  1  0  0  0  0
 44 46  1  0  0  0  0
 45 44  2  0  0  0  0
 48 38  1  0  0  0  0
 50 40  1  0  0  0  0
 52 41  1  0  0  0  0
 53 41  1  0  0  0  0
M  END
$$$$
