RDN.pdb
 OpenBabel07022418043D

 52 51  0  0  1  0  0  0  0  0999 V2000
    1.8610   -2.9670    5.1790 N   0  0  0  0  0  0  0  0  0  0  0  0
    2.7930   -2.7530    4.1340 C   0  0  0  0  0  0  0  0  0  0  0  0
    4.0550   -3.0010    4.2190 N   0  0  0  0  0  0  0  0  0  0  0  0
    2.2940   -2.2250    2.9020 N   0  0  0  0  0  0  0  0  0  0  0  0
    2.9260   -2.4950    1.6370 C   0  0  0  0  0  0  0  0  0  0  0  0
    2.3610   -1.6610    0.5600 C   0  0  0  0  0  0  0  0  0  0  0  0
    2.5810   -0.2170    0.5350 C   0  0  0  0  0  0  0  0  0  0  0  0
    2.2080    0.6800    1.6290 C   0  0  2  0  0  0  0  0  0  0  0  0
    2.8310    0.4830    2.9020 N   0  0  0  0  0  0  0  0  0  0  0  0
    0.7280    0.8570    1.8120 C   0  0  0  0  0  0  0  0  0  0  0  0
    0.2010    0.8030    2.9680 O   0  0  0  0  0  0  0  0  0  0  0  0
    1.0350   -3.6160    5.0620 H   0  0  0  0  0  0  0  0  0  0  0  0
    2.0360   -2.4430    6.0830 H   0  0  0  0  0  0  0  0  0  0  0  0
    4.3770   -3.3900    5.1490 H   0  0  0  0  0  0  0  0  0  0  0  0
    1.4160   -1.6670    2.9580 H   0  0  0  0  0  0  0  0  0  0  0  0
    2.7520   -3.6000    1.4460 H   0  0  0  0  0  0  0  0  0  0  0  0
    4.0410   -2.4360    1.7100 H   0  0  0  0  0  0  0  0  0  0  0  0
    2.8150   -2.0660   -0.4130 H   0  0  0  0  0  0  0  0  0  0  0  0
    1.2640   -1.8930    0.3890 H   0  0  0  0  0  0  0  0  0  0  0  0
    3.6560    0.0060    0.2480 H   0  0  0  0  0  0  0  0  0  0  0  0
    2.0250    0.1690   -0.3900 H   0  0  0  0  0  0  0  0  0  0  0  0
    2.5590    1.7230    1.3030 H   0  0  0  0  0  0  0  0  0  0  0  0
    3.7580    0.9800    2.9900 H   0  0  0  0  0  0  0  0  0  0  0  0
    2.2080    0.8960    3.6580 H   0  0  0  0  0  0  0  0  0  0  0  0
   -0.1750    1.0940    0.7430 N   0  0  0  0  0  0  0  0  0  0  0  0
   -1.6020    1.2680    0.9100 C   0  0  1  0  0  0  0  0  0  0  0  0
   -2.0740    2.6410    0.5900 C   0  0  0  0  0  0  0  0  0  0  0  0
   -1.8280    3.1150   -0.7640 C   0  0  0  0  0  0  0  0  0  0  0  0
   -1.2460    2.4430   -1.6470 O   0  0  0  0  0  0  0  0  0  0  0  0
   -2.4020    0.1710    0.3220 C   0  0  0  0  0  0  0  0  0  0  0  0
   -3.6690    0.2310    0.4170 O   0  0  0  0  0  0  0  0  0  0  0  0
   -2.2590    4.3860   -1.1090 O   0  0  0  0  0  0  0  0  0  0  0  0
    0.2180    1.1460   -0.2260 H   0  0  0  0  0  0  0  0  0  0  0  0
   -1.7670    1.1610    2.0310 H   0  0  0  0  0  0  0  0  0  0  0  0
   -1.5960    3.3390    1.3210 H   0  0  0  0  0  0  0  0  0  0  0  0
   -3.1700    2.6730    0.8590 H   0  0  0  0  0  0  0  0  0  0  0  0
   -1.8860    4.9500   -1.8330 H   0  0  0  0  0  0  0  0  0  0  0  0
   -2.4310   -1.0510   -4.5150 N   0  0  0  0  0  0  0  0  0  0  0  0
   -2.6560   -0.9890   -3.0950 C   0  0  0  0  0  0  0  0  0  0  0  0
   -3.0070    0.0940   -2.5960 O   0  0  0  0  0  0  0  0  0  0  0  0
   -2.4550   -2.2260   -2.3230 C   0  0  0  0  0  0  0  0  0  0  0  0
   -2.7370   -1.9650   -0.8770 C   0  0  2  0  0  0  0  0  0  0  0  0
   -1.8650   -0.9550   -0.3460 N   0  0  0  0  0  0  0  0  0  0  0  0
   -2.5210   -3.2710   -0.1480 C   0  0  0  0  0  0  0  0  0  0  0  0
   -1.6820   -3.3630    0.7650 O   0  0  0  0  0  0  0  0  0  0  0  0
   -3.2800   -4.3540   -0.5260 O   0  0  0  0  0  0  0  0  0  0  0  0
   -2.3080   -1.9400   -5.0150 H   0  0  0  0  0  0  0  0  0  0  0  0
   -2.3880   -0.1730   -5.0830 H   0  0  0  0  0  0  0  0  0  0  0  0
   -1.4080   -2.5630   -2.4860 H   0  0  0  0  0  0  0  0  0  0  0  0
   -3.1850   -3.0040   -2.6670 H   0  0  0  0  0  0  0  0  0  0  0  0
   -3.8110   -1.7210   -0.7320 H   0  0  0  0  0  0  0  0  0  0  0  0
   -0.8370   -1.0300   -0.4400 H   0  0  0  0  0  0  0  0  0  0  0  0
  1 13  1  0  0  0  0
  2  3  2  0  0  0  0
  2  1  1  0  0  0  0
  3 14  1  0  0  0  0
  4 15  1  0  0  0  0
  4  2  1  0  0  0  0
  5 17  1  0  0  0  0
  5  4  1  0  0  0  0
  6  5  1  0  0  0  0
  7  6  1  0  0  0  0
  7  8  1  0  0  0  0
  8 22  1  6  0  0  0
  8 10  1  0  0  0  0
  8  9  1  0  0  0  0
  9 23  1  0  0  0  0
  9 24  1  0  0  0  0
 10 11  2  0  0  0  0
 12  1  1  0  0  0  0
 16  5  1  0  0  0  0
 18  6  1  0  0  0  0
 19  6  1  0  0  0  0
 20  7  1  0  0  0  0
 21  7  1  0  0  0  0
 25 26  1  0  0  0  0
 25 10  1  0  0  0  0
 26 34  1  1  0  0  0
 27 36  1  0  0  0  0
 27 26  1  0  0  0  0
 27 35  1  0  0  0  0
 28 27  1  0  0  0  0
 29 28  2  0  0  0  0
 30 31  2  0  0  0  0
 30 26  1  0  0  0  0
 32 28  1  0  0  0  0
 33 25  1  0  0  0  0
 37 32  1  0  0  0  0
 38 39  1  0  0  0  0
 39 40  2  0  0  0  0
 39 41  1  0  0  0  0
 41 42  1  0  0  0  0
 42 51  1  1  0  0  0
 42 43  1  0  0  0  0
 42 44  1  0  0  0  0
 43 30  1  0  0  0  0
 44 45  1  0  0  0  0
 46 44  2  0  0  0  0
 47 38  1  0  0  0  0
 48 38  1  0  0  0  0
 49 41  1  0  0  0  0
 50 41  1  0  0  0  0
 52 43  1  0  0  0  0
M  END
$$$$
