RDQ.pdb
 OpenBabel07022418043D

 55 54  0  0  1  0  0  0  0  0999 V2000
    0.9030    0.8460    5.6890 N   0  0  0  0  0  0  0  0  0  0  0  0
    1.7790    1.6510    4.9140 C   0  0  0  0  0  0  0  0  0  0  0  0
    1.7420    2.9420    5.0530 N   0  0  0  0  0  0  0  0  0  0  0  0
    2.6760    1.0250    4.0040 N   0  0  0  0  0  0  0  0  0  0  0  0
    3.4810    1.8150    3.1230 C   0  0  0  0  0  0  0  0  0  0  0  0
    2.7020    2.5360    2.0620 C   0  0  0  0  0  0  0  0  0  0  0  0
    1.9290    1.6300    1.1580 C   0  0  0  0  0  0  0  0  0  0  0  0
    2.8270    0.6600    0.4290 C   0  0  2  0  0  0  0  0  0  0  0  0
    3.8000    1.3350   -0.3910 N   0  0  0  0  0  0  0  0  0  0  0  0
    2.0660   -0.3620   -0.3350 C   0  0  0  0  0  0  0  0  0  0  0  0
    2.2880   -0.6030   -1.5470 O   0  0  0  0  0  0  0  0  0  0  0  0
    1.1950   -0.1270    5.9040 H   0  0  0  0  0  0  0  0  0  0  0  0
    0.0050    1.2660    6.0080 H   0  0  0  0  0  0  0  0  0  0  0  0
    1.0770    3.3780    5.7240 H   0  0  0  0  0  0  0  0  0  0  0  0
    2.7520   -0.0110    3.9750 H   0  0  0  0  0  0  0  0  0  0  0  0
    3.9940    2.6090    3.7290 H   0  0  0  0  0  0  0  0  0  0  0  0
    4.3070    1.2380    2.6590 H   0  0  0  0  0  0  0  0  0  0  0  0
    3.4340    3.1050    1.4470 H   0  0  0  0  0  0  0  0  0  0  0  0
    2.0030    3.2410    2.5500 H   0  0  0  0  0  0  0  0  0  0  0  0
    1.1740    1.0390    1.7260 H   0  0  0  0  0  0  0  0  0  0  0  0
    1.3410    2.2620    0.4610 H   0  0  0  0  0  0  0  0  0  0  0  0
    3.3770    0.1000    1.2420 H   0  0  0  0  0  0  0  0  0  0  0  0
    4.5470    1.7230    0.2570 H   0  0  0  0  0  0  0  0  0  0  0  0
    3.3310    2.1750   -0.8210 H   0  0  0  0  0  0  0  0  0  0  0  0
    1.0290   -1.1330    0.2820 N   0  0  0  0  0  0  0  0  0  0  0  0
    0.2840   -2.1330   -0.4540 C   0  0  1  0  0  0  0  0  0  0  0  0
    0.5350   -3.5080    0.1170 C   0  0  0  0  0  0  0  0  0  0  0  0
    0.1430   -3.6580    1.5230 C   0  0  0  0  0  0  0  0  0  0  0  0
   -0.3700   -2.7100    2.1530 O   0  0  0  0  0  0  0  0  0  0  0  0
   -1.1710   -1.8290   -0.5200 C   0  0  0  0  0  0  0  0  0  0  0  0
   -1.5730   -0.7790    0.0360 O   0  0  0  0  0  0  0  0  0  0  0  0
    0.3360   -4.8580    2.1790 O   0  0  0  0  0  0  0  0  0  0  0  0
    0.8380   -0.9380    1.2790 H   0  0  0  0  0  0  0  0  0  0  0  0
    0.6540   -2.1940   -1.5220 H   0  0  0  0  0  0  0  0  0  0  0  0
    1.6410   -3.6990    0.0450 H   0  0  0  0  0  0  0  0  0  0  0  0
    0.0880   -4.3070   -0.5370 H   0  0  0  0  0  0  0  0  0  0  0  0
   -0.2150   -5.1260    2.9900 H   0  0  0  0  0  0  0  0  0  0  0  0
   -3.0080    0.8700   -4.1640 N   0  0  0  0  0  0  0  0  0  0  0  0
   -3.5320   -0.1660   -3.3780 C   0  0  0  0  0  0  0  0  0  0  0  0
   -4.1930    0.1410   -2.3530 O   0  0  0  0  0  0  0  0  0  0  0  0
   -3.3620   -1.6040   -3.6690 C   0  0  0  0  0  0  0  0  0  0  0  0
   -3.9740   -2.5290   -2.6960 C   0  0  0  0  0  0  0  0  0  0  0  0
   -3.4710   -2.4420   -1.2780 C   0  0  2  0  0  0  0  0  0  0  0  0
   -2.0550   -2.7110   -1.1950 N   0  0  0  0  0  0  0  0  0  0  0  0
   -4.2010   -3.5060   -0.5280 C   0  0  0  0  0  0  0  0  0  0  0  0
   -5.4450   -3.5370   -0.4310 O   0  0  0  0  0  0  0  0  0  0  0  0
   -3.4630   -4.5020    0.0880 O   0  0  0  0  0  0  0  0  0  0  0  0
   -2.6680    0.6920   -5.1190 H   0  0  0  0  0  0  0  0  0  0  0  0
   -2.9580    1.8330   -3.7850 H   0  0  0  0  0  0  0  0  0  0  0  0
   -3.8240   -1.7940   -4.6600 H   0  0  0  0  0  0  0  0  0  0  0  0
   -2.2680   -1.8510   -3.8180 H   0  0  0  0  0  0  0  0  0  0  0  0
   -3.7120   -3.5760   -3.0340 H   0  0  0  0  0  0  0  0  0  0  0  0
   -5.0760   -2.4870   -2.7570 H   0  0  0  0  0  0  0  0  0  0  0  0
   -3.6600   -1.4800   -0.7770 H   0  0  0  0  0  0  0  0  0  0  0  0
   -1.6120   -3.5710   -1.6280 H   0  0  0  0  0  0  0  0  0  0  0  0
  1 12  1  0  0  0  0
  1 13  1  0  0  0  0
  2  3  2  0  0  0  0
  2  1  1  0  0  0  0
  3 14  1  0  0  0  0
  4  2  1  0  0  0  0
  5 16  1  0  0  0  0
  5  4  1  0  0  0  0
  6 19  1  0  0  0  0
  6  5  1  0  0  0  0
  7 20  1  0  0  0  0
  7  6  1  0  0  0  0
  8  7  1  0  0  0  0
  8 22  1  1  0  0  0
  9 23  1  0  0  0  0
  9  8  1  0  0  0  0
 10 25  1  0  0  0  0
 10  8  1  0  0  0  0
 11 10  2  0  0  0  0
 15  4  1  0  0  0  0
 17  5  1  0  0  0  0
 18  6  1  0  0  0  0
 21  7  1  0  0  0  0
 24  9  1  0  0  0  0
 25 33  1  0  0  0  0
 26 34  1  6  0  0  0
 26 27  1  0  0  0  0
 26 25  1  0  0  0  0
 27 28  1  0  0  0  0
 28 29  2  0  0  0  0
 28 32  1  0  0  0  0
 30 26  1  0  0  0  0
 30 31  2  0  0  0  0
 32 37  1  0  0  0  0
 35 27  1  0  0  0  0
 36 27  1  0  0  0  0
 38 49  1  0  0  0  0
 38 39  1  0  0  0  0
 39 40  2  0  0  0  0
 41 39  1  0  0  0  0
 41 42  1  0  0  0  0
 42 43  1  0  0  0  0
 43 44  1  0  0  0  0
 43 54  1  1  0  0  0
 43 45  1  0  0  0  0
 44 30  1  0  0  0  0
 45 46  2  0  0  0  0
 45 47  1  0  0  0  0
 48 38  1  0  0  0  0
 50 41  1  0  0  0  0
 51 41  1  0  0  0  0
 52 42  1  0  0  0  0
 53 42  1  0  0  0  0
 55 44  1  0  0  0  0
M  END
$$$$
