RDS.pdb
 OpenBabel07022418043D

 49 48  0  0  1  0  0  0  0  0999 V2000
    1.0970   -3.9620    2.8860 N   0  0  0  0  0  0  0  0  0  0  0  0
    1.2160   -3.4190    1.5870 C   0  0  0  0  0  0  0  0  0  0  0  0
    0.3320   -3.7310    0.7010 N   0  0  0  0  0  0  0  0  0  0  0  0
    2.3000   -2.5440    1.2790 N   0  0  0  0  0  0  0  0  0  0  0  0
    2.5260   -2.1050   -0.1010 C   0  0  0  0  0  0  0  0  0  0  0  0
    3.7180   -1.2050   -0.1480 C   0  0  0  0  0  0  0  0  0  0  0  0
    3.5980   -0.0120    0.6940 C   0  0  0  0  0  0  0  0  0  0  0  0
    2.6140    1.0460    0.4600 C   0  0  2  0  0  0  0  0  0  0  0  0
    2.8770    2.0300    1.5770 N   0  0  0  0  0  0  0  0  0  0  0  0
    1.1830    0.7410    0.4410 C   0  0  0  0  0  0  0  0  0  0  0  0
    0.6180    0.6250   -0.6530 O   0  0  0  0  0  0  0  0  0  0  0  0
    0.9310   -4.9710    3.0160 H   0  0  0  0  0  0  0  0  0  0  0  0
    1.1760   -3.3590    3.7300 H   0  0  0  0  0  0  0  0  0  0  0  0
   -0.4580   -4.3580    0.8900 H   0  0  0  0  0  0  0  0  0  0  0  0
    2.9310   -2.2140    2.0160 H   0  0  0  0  0  0  0  0  0  0  0  0
    1.6510   -1.6640   -0.5310 H   0  0  0  0  0  0  0  0  0  0  0  0
    2.7840   -3.0870   -0.6470 H   0  0  0  0  0  0  0  0  0  0  0  0
    4.5970   -1.8460    0.1970 H   0  0  0  0  0  0  0  0  0  0  0  0
    4.0040   -0.9630   -1.2150 H   0  0  0  0  0  0  0  0  0  0  0  0
    4.6230    0.5110    0.6920 H   0  0  0  0  0  0  0  0  0  0  0  0
    3.5220   -0.2900    1.8070 H   0  0  0  0  0  0  0  0  0  0  0  0
    2.9150    1.6290   -0.4420 H   0  0  0  0  0  0  0  0  0  0  0  0
    2.0630    2.6460    1.6550 H   0  0  0  0  0  0  0  0  0  0  0  0
    2.9940    1.4320    2.4220 H   0  0  0  0  0  0  0  0  0  0  0  0
    0.4510    0.5810    1.6310 N   0  0  0  0  0  0  0  0  0  0  0  0
   -0.8930    0.2740    1.8970 C   0  0  1  0  0  0  0  0  0  0  0  0
   -1.5280    1.0630    2.9980 C   0  0  0  0  0  0  0  0  0  0  0  0
   -1.5440    2.5030    2.7650 C   0  0  0  0  0  0  0  0  0  0  0  0
   -0.5170    3.1840    2.9790 O   0  0  0  0  0  0  0  0  0  0  0  0
   -1.8460   -0.0610    0.8450 C   0  0  0  0  0  0  0  0  0  0  0  0
   -3.0340    0.4060    0.9940 O   0  0  0  0  0  0  0  0  0  0  0  0
   -2.6810    3.1350    2.3080 O   0  0  0  0  0  0  0  0  0  0  0  0
    1.0890    0.7330    2.5120 H   0  0  0  0  0  0  0  0  0  0  0  0
   -0.7900   -0.8230    2.3850 H   0  0  0  0  0  0  0  0  0  0  0  0
   -1.0590    0.7770    3.9670 H   0  0  0  0  0  0  0  0  0  0  0  0
   -2.5880    0.7090    3.0920 H   0  0  0  0  0  0  0  0  0  0  0  0
   -2.5510    3.9630    1.7090 H   0  0  0  0  0  0  0  0  0  0  0  0
   -2.2040    0.9720   -2.4660 O   0  0  0  0  0  0  0  0  0  0  0  0
   -2.4110   -0.4050   -2.6000 C   0  0  0  0  0  0  0  0  0  0  0  0
   -2.7570   -1.0360   -1.2670 C   0  0  2  0  0  0  0  0  0  0  0  0
   -1.6600   -0.8310   -0.3060 N   0  0  0  0  0  0  0  0  0  0  0  0
   -3.0080   -2.4720   -1.4280 C   0  0  0  0  0  0  0  0  0  0  0  0
   -2.3870   -3.3890   -0.8300 O   0  0  0  0  0  0  0  0  0  0  0  0
   -4.0130   -2.9290   -2.3090 O   0  0  0  0  0  0  0  0  0  0  0  0
   -1.9040    1.2220   -1.5710 H   0  0  0  0  0  0  0  0  0  0  0  0
   -3.2840   -0.5350   -3.2670 H   0  0  0  0  0  0  0  0  0  0  0  0
   -1.5050   -0.9120   -2.9980 H   0  0  0  0  0  0  0  0  0  0  0  0
   -3.6810   -0.5440   -0.8930 H   0  0  0  0  0  0  0  0  0  0  0  0
   -0.7730   -1.3290   -0.5070 H   0  0  0  0  0  0  0  0  0  0  0  0
  1 12  1  0  0  0  0
  1 13  1  0  0  0  0
  2  1  1  0  0  0  0
  3 14  1  0  0  0  0
  3  2  2  0  0  0  0
  4  2  1  0  0  0  0
  4 15  1  0  0  0  0
  5  4  1  0  0  0  0
  6  5  1  0  0  0  0
  6 18  1  0  0  0  0
  6  7  1  0  0  0  0
  7 21  1  0  0  0  0
  8 22  1  6  0  0  0
  8  7  1  0  0  0  0
  8  9  1  0  0  0  0
  9 23  1  0  0  0  0
  9 24  1  0  0  0  0
 10  8  1  0  0  0  0
 10 25  1  0  0  0  0
 11 10  2  0  0  0  0
 16  5  1  0  0  0  0
 17  5  1  0  0  0  0
 19  6  1  0  0  0  0
 20  7  1  0  0  0  0
 25 26  1  0  0  0  0
 25 33  1  0  0  0  0
 26 34  1  1  0  0  0
 26 27  1  0  0  0  0
 27 36  1  0  0  0  0
 27 35  1  0  0  0  0
 28 29  2  0  0  0  0
 28 27  1  0  0  0  0
 30 31  2  0  0  0  0
 30 26  1  0  0  0  0
 32 28  1  0  0  0  0
 37 32  1  0  0  0  0
 38 45  1  0  0  0  0
 39 38  1  0  0  0  0
 39 40  1  0  0  0  0
 40 48  1  1  0  0  0
 40 41  1  0  0  0  0
 41 30  1  0  0  0  0
 42 40  1  0  0  0  0
 42 43  1  0  0  0  0
 44 42  2  0  0  0  0
 46 39  1  0  0  0  0
 47 39  1  0  0  0  0
 49 41  1  0  0  0  0
M  END
$$$$
