RDW.pdb
 OpenBabel07022418043D

 62 63  0  0  1  0  0  0  0  0999 V2000
    1.7950   -5.0810    2.5250 N   0  0  0  0  0  0  0  0  0  0  0  0
    1.2800   -4.0510    1.6970 C   0  0  0  0  0  0  0  0  0  0  0  0
    0.5670   -4.3110    0.6360 N   0  0  0  0  0  0  0  0  0  0  0  0
    1.5450   -2.7000    2.0170 N   0  0  0  0  0  0  0  0  0  0  0  0
    1.5290   -1.6250    1.0290 C   0  0  0  0  0  0  0  0  0  0  0  0
    2.6840   -1.8740    0.1110 C   0  0  0  0  0  0  0  0  0  0  0  0
    2.8820   -0.8970   -0.9970 C   0  0  0  0  0  0  0  0  0  0  0  0
    3.1690    0.5080   -0.5750 C   0  0  2  0  0  0  0  0  0  0  0  0
    4.3380    0.5330    0.2540 N   0  0  0  0  0  0  0  0  0  0  0  0
    2.0080    1.2400   -0.0590 C   0  0  0  0  0  0  0  0  0  0  0  0
    1.9950    1.8420    1.0580 O   0  0  0  0  0  0  0  0  0  0  0  0
    2.2390   -4.8580    3.4310 H   0  0  0  0  0  0  0  0  0  0  0  0
    1.7280   -6.0730    2.2240 H   0  0  0  0  0  0  0  0  0  0  0  0
    0.1930   -3.5500    0.0340 H   0  0  0  0  0  0  0  0  0  0  0  0
    1.7600   -2.4650    3.0080 H   0  0  0  0  0  0  0  0  0  0  0  0
    0.5520   -1.6000    0.4880 H   0  0  0  0  0  0  0  0  0  0  0  0
    1.6330   -0.6900    1.5970 H   0  0  0  0  0  0  0  0  0  0  0  0
    2.6520   -2.9290   -0.2790 H   0  0  0  0  0  0  0  0  0  0  0  0
    3.6120   -1.8590    0.7570 H   0  0  0  0  0  0  0  0  0  0  0  0
    1.9280   -0.9410   -1.6160 H   0  0  0  0  0  0  0  0  0  0  0  0
    3.6980   -1.2930   -1.6720 H   0  0  0  0  0  0  0  0  0  0  0  0
    3.4500    1.0950   -1.5510 H   0  0  0  0  0  0  0  0  0  0  0  0
    4.9120    1.4170    0.1180 H   0  0  0  0  0  0  0  0  0  0  0  0
    4.9430   -0.2780   -0.0030 H   0  0  0  0  0  0  0  0  0  0  0  0
    0.8030    1.3250   -0.8020 N   0  0  0  0  0  0  0  0  0  0  0  0
   -0.3850    2.0180   -0.4140 C   0  0  1  0  0  0  0  0  0  0  0  0
   -0.4690    3.3960   -1.0840 C   0  0  0  0  0  0  0  0  0  0  0  0
    0.7070    4.2090   -0.6840 C   0  0  0  0  0  0  0  0  0  0  0  0
    1.8210    3.9910   -1.2460 O   0  0  0  0  0  0  0  0  0  0  0  0
   -1.6100    1.2800   -0.7100 C   0  0  0  0  0  0  0  0  0  0  0  0
   -2.7320    1.8770   -0.5510 O   0  0  0  0  0  0  0  0  0  0  0  0
    0.6760    5.2070    0.2750 O   0  0  0  0  0  0  0  0  0  0  0  0
    0.8010    0.8230   -1.7270 H   0  0  0  0  0  0  0  0  0  0  0  0
   -0.3890    2.2800    0.6810 H   0  0  0  0  0  0  0  0  0  0  0  0
   -0.6180    3.3240   -2.1610 H   0  0  0  0  0  0  0  0  0  0  0  0
   -1.3570    3.8900   -0.6380 H   0  0  0  0  0  0  0  0  0  0  0  0
    1.4590    5.2210    0.9430 H   0  0  0  0  0  0  0  0  0  0  0  0
   -1.6870   -0.0730   -1.1710 N   0  0  0  0  0  0  0  0  0  0  0  0
   -2.8790   -0.7750   -1.4880 C   0  0  1  0  0  0  0  0  0  0  0  0
   -3.7820   -1.2160   -0.4020 C   0  0  0  0  0  0  0  0  0  0  0  0
   -3.2350   -2.1390    0.5930 C   0  0  0  0  0  0  0  0  0  0  0  0
   -3.3770   -3.5090    0.5950 C   0  0  0  0  0  0  0  0  0  0  0  0
   -2.7460   -4.0570    1.6430 N   0  0  0  0  0  0  0  0  0  0  0  0
   -2.1880   -3.0280    2.3290 C   0  0  0  0  0  0  0  0  0  0  0  0
   -1.4500   -3.1190    3.4870 C   0  0  0  0  0  0  0  0  0  0  0  0
   -0.9810   -1.9480    4.0380 C   0  0  0  0  0  0  0  0  0  0  0  0
   -1.2600   -0.7500    3.4250 C   0  0  0  0  0  0  0  0  0  0  0  0
   -1.9960   -0.6880    2.2750 C   0  0  0  0  0  0  0  0  0  0  0  0
   -2.4820   -1.8220    1.6900 C   0  0  0  0  0  0  0  0  0  0  0  0
   -3.7150    0.0090   -2.4760 C   0  0  0  0  0  0  0  0  0  0  0  0
   -4.7970   -0.5200   -2.8090 O   0  0  0  0  0  0  0  0  0  0  0  0
   -3.3380    1.2220   -2.9910 O   0  0  0  0  0  0  0  0  0  0  0  0
   -0.7220   -0.5260   -1.2580 H   0  0  0  0  0  0  0  0  0  0  0  0
   -2.5530   -1.6890   -2.0930 H   0  0  0  0  0  0  0  0  0  0  0  0
   -4.6960   -1.6530   -0.8960 H   0  0  0  0  0  0  0  0  0  0  0  0
   -4.1640   -0.3010    0.1440 H   0  0  0  0  0  0  0  0  0  0  0  0
   -3.9350   -4.0500   -0.1680 H   0  0  0  0  0  0  0  0  0  0  0  0
   -2.6940   -5.0730    1.8830 H   0  0  0  0  0  0  0  0  0  0  0  0
   -1.2260   -4.0500    3.9780 H   0  0  0  0  0  0  0  0  0  0  0  0
   -0.4000   -1.9430    4.9420 H   0  0  0  0  0  0  0  0  0  0  0  0
   -0.8790    0.1590    3.8770 H   0  0  0  0  0  0  0  0  0  0  0  0
   -2.2170    0.2610    1.8170 H   0  0  0  0  0  0  0  0  0  0  0  0
  1 12  1  0  0  0  0
  2  4  1  0  0  0  0
  2  1  1  0  0  0  0
  3  2  2  0  0  0  0
  4 15  1  0  0  0  0
  5 17  1  0  0  0  0
  5  4  1  0  0  0  0
  6 19  1  0  0  0  0
  6  5  1  0  0  0  0
  7  8  1  0  0  0  0
  7  6  1  0  0  0  0
  8 22  1  6  0  0  0
  8 10  1  0  0  0  0
  8  9  1  0  0  0  0
 10 11  2  0  0  0  0
 13  1  1  0  0  0  0
 14  3  1  0  0  0  0
 16  5  1  0  0  0  0
 18  6  1  0  0  0  0
 20  7  1  0  0  0  0
 21  7  1  0  0  0  0
 23  9  1  0  0  0  0
 24  9  1  0  0  0  0
 25 26  1  0  0  0  0
 25 10  1  0  0  0  0
 26 34  1  1  0  0  0
 27 28  1  0  0  0  0
 27 36  1  0  0  0  0
 27 26  1  0  0  0  0
 28 32  1  0  0  0  0
 29 28  2  0  0  0  0
 30 31  2  0  0  0  0
 30 26  1  0  0  0  0
 32 37  1  0  0  0  0
 33 25  1  0  0  0  0
 35 27  1  0  0  0  0
 38 30  1  0  0  0  0
 39 54  1  6  0  0  0
 39 38  1  0  0  0  0
 39 40  1  0  0  0  0
 40 56  1  0  0  0  0
 40 41  1  0  0  0  0
 41 42  2  0  0  0  0
 41 49  1  0  0  0  0
 42 43  1  0  0  0  0
 43 58  1  0  0  0  0
 43 44  1  0  0  0  0
 44 45  1  0  0  0  0
 45 59  1  0  0  0  0
 45 46  2  0  0  0  0
 46 60  1  0  0  0  0
 47 61  1  0  0  0  0
 47 46  1  0  0  0  0
 48 47  2  0  0  0  0
 49 48  1  0  0  0  0
 49 44  2  0  0  0  0
 50 39  1  0  0  0  0
 51 50  1  0  0  0  0
 52 50  2  0  0  0  0
 53 38  1  0  0  0  0
 55 40  1  0  0  0  0
 57 42  1  0  0  0  0
 62 48  1  0  0  0  0
M  END
$$$$
