REA.pdb
 OpenBabel07022418043D

 51 50  0  0  1  0  0  0  0  0999 V2000
    1.5910   -2.7530    4.5260 N   0  0  0  0  0  0  0  0  0  0  0  0
    1.6760   -1.3910    4.1200 C   0  0  0  0  0  0  0  0  0  0  0  0
    0.7120   -0.6090    4.4810 N   0  0  0  0  0  0  0  0  0  0  0  0
    2.7510   -0.8880    3.3570 N   0  0  0  0  0  0  0  0  0  0  0  0
    2.6380    0.4100    2.7410 C   0  0  0  0  0  0  0  0  0  0  0  0
    3.8440    0.8090    1.9710 C   0  0  0  0  0  0  0  0  0  0  0  0
    4.2440   -0.0450    0.8300 C   0  0  0  0  0  0  0  0  0  0  0  0
    3.2700   -0.1740   -0.3010 C   0  0  2  0  0  0  0  0  0  0  0  0
    2.9660    1.1250   -0.8820 N   0  0  0  0  0  0  0  0  0  0  0  0
    2.0620   -0.9410    0.0360 C   0  0  0  0  0  0  0  0  0  0  0  0
    2.1280   -2.0570    0.5620 O   0  0  0  0  0  0  0  0  0  0  0  0
    1.0570   -3.4850    4.0250 H   0  0  0  0  0  0  0  0  0  0  0  0
    2.1010   -3.0260    5.3860 H   0  0  0  0  0  0  0  0  0  0  0  0
    0.7150    0.3900    4.2180 H   0  0  0  0  0  0  0  0  0  0  0  0
    3.6170   -1.4340    3.2320 H   0  0  0  0  0  0  0  0  0  0  0  0
    1.6970    0.4360    2.1900 H   0  0  0  0  0  0  0  0  0  0  0  0
    2.5060    1.1390    3.5920 H   0  0  0  0  0  0  0  0  0  0  0  0
    3.7960    1.9020    1.6740 H   0  0  0  0  0  0  0  0  0  0  0  0
    4.7100    0.7940    2.6980 H   0  0  0  0  0  0  0  0  0  0  0  0
    5.2070    0.3230    0.3520 H   0  0  0  0  0  0  0  0  0  0  0  0
    4.5190   -1.0610    1.2020 H   0  0  0  0  0  0  0  0  0  0  0  0
    3.8530   -0.6990   -1.1250 H   0  0  0  0  0  0  0  0  0  0  0  0
    2.7480    1.0040   -1.8960 H   0  0  0  0  0  0  0  0  0  0  0  0
    3.8240    1.7120   -0.7980 H   0  0  0  0  0  0  0  0  0  0  0  0
    0.7350   -0.4350   -0.2300 N   0  0  0  0  0  0  0  0  0  0  0  0
   -0.4630   -1.1700    0.0880 C   0  0  1  0  0  0  0  0  0  0  0  0
   -1.2410   -0.4030    1.1380 C   0  0  0  0  0  0  0  0  0  0  0  0
   -1.6310    0.9680    0.6600 C   0  0  0  0  0  0  0  0  0  0  0  0
   -2.3850    1.6440    1.7420 C   0  0  0  0  0  0  0  0  0  0  0  0
   -2.5910    1.0500    2.8290 O   0  0  0  0  0  0  0  0  0  0  0  0
   -1.3180   -1.3830   -1.1130 C   0  0  0  0  0  0  0  0  0  0  0  0
   -0.9440   -0.9330   -2.2240 O   0  0  0  0  0  0  0  0  0  0  0  0
   -2.8850    2.9420    1.5960 O   0  0  0  0  0  0  0  0  0  0  0  0
    0.7120    0.5090   -0.6720 H   0  0  0  0  0  0  0  0  0  0  0  0
   -0.2100   -2.1590    0.5730 H   0  0  0  0  0  0  0  0  0  0  0  0
   -0.5760   -0.2820    2.0170 H   0  0  0  0  0  0  0  0  0  0  0  0
   -2.1140   -0.9830    1.5070 H   0  0  0  0  0  0  0  0  0  0  0  0
   -2.2130    0.9390   -0.2880 H   0  0  0  0  0  0  0  0  0  0  0  0
   -0.7470    1.6030    0.4500 H   0  0  0  0  0  0  0  0  0  0  0  0
   -3.6430    3.2000    2.2110 H   0  0  0  0  0  0  0  0  0  0  0  0
   -3.4550   -3.7730   -2.5680 C   0  0  0  0  0  0  0  0  0  0  0  0
   -3.3860   -2.2840   -2.2510 C   0  0  2  0  0  0  0  0  0  0  0  0
   -2.5540   -2.0770   -1.0820 N   0  0  0  0  0  0  0  0  0  0  0  0
   -4.7150   -1.6890   -2.1160 C   0  0  0  0  0  0  0  0  0  0  0  0
   -5.0120   -1.0810   -1.0590 O   0  0  0  0  0  0  0  0  0  0  0  0
   -5.6670   -1.7700   -3.1170 O   0  0  0  0  0  0  0  0  0  0  0  0
   -4.4050   -4.2040   -2.1830 H   0  0  0  0  0  0  0  0  0  0  0  0
   -2.6210   -4.2920   -2.0780 H   0  0  0  0  0  0  0  0  0  0  0  0
   -3.3560   -3.9270   -3.6580 H   0  0  0  0  0  0  0  0  0  0  0  0
   -2.8500   -1.8010   -3.1010 H   0  0  0  0  0  0  0  0  0  0  0  0
   -2.8460   -2.4460   -0.1330 H   0  0  0  0  0  0  0  0  0  0  0  0
  1 13  1  0  0  0  0
  2  3  2  0  0  0  0
  2  1  1  0  0  0  0
  4  2  1  0  0  0  0
  5  4  1  0  0  0  0
  5 17  1  0  0  0  0
  6 19  1  0  0  0  0
  6  5  1  0  0  0  0
  7 21  1  0  0  0  0
  7  6  1  0  0  0  0
  8 22  1  6  0  0  0
  8 10  1  0  0  0  0
  8  7  1  0  0  0  0
  9 24  1  0  0  0  0
  9  8  1  0  0  0  0
 10 11  2  0  0  0  0
 12  1  1  0  0  0  0
 14  3  1  0  0  0  0
 15  4  1  0  0  0  0
 16  5  1  0  0  0  0
 18  6  1  0  0  0  0
 20  7  1  0  0  0  0
 23  9  1  0  0  0  0
 25 10  1  0  0  0  0
 25 26  1  0  0  0  0
 26 35  1  1  0  0  0
 26 27  1  0  0  0  0
 27 37  1  0  0  0  0
 27 36  1  0  0  0  0
 28 27  1  0  0  0  0
 28 29  1  0  0  0  0
 29 30  2  0  0  0  0
 31 43  1  0  0  0  0
 31 26  1  0  0  0  0
 32 31  2  0  0  0  0
 33 29  1  0  0  0  0
 33 40  1  0  0  0  0
 34 25  1  0  0  0  0
 38 28  1  0  0  0  0
 39 28  1  0  0  0  0
 41 42  1  0  0  0  0
 41 47  1  0  0  0  0
 41 48  1  0  0  0  0
 42 50  1  6  0  0  0
 42 44  1  0  0  0  0
 42 43  1  0  0  0  0
 43 51  1  0  0  0  0
 44 45  1  0  0  0  0
 46 44  2  0  0  0  0
 49 41  1  0  0  0  0
M  END
$$$$
