REF.pdb
 OpenBabel07022418043D

 61 61  0  0  1  0  0  0  0  0999 V2000
   -0.4100   -2.2490    4.7630 N   0  0  0  0  0  0  0  0  0  0  0  0
    0.8750   -1.6330    4.7860 C   0  0  0  0  0  0  0  0  0  0  0  0
    1.3290   -1.1810    5.9130 N   0  0  0  0  0  0  0  0  0  0  0  0
    1.6700   -1.4990    3.6130 N   0  0  0  0  0  0  0  0  0  0  0  0
    2.6670   -0.4530    3.5400 C   0  0  0  0  0  0  0  0  0  0  0  0
    3.4010   -0.4630    2.2440 C   0  0  0  0  0  0  0  0  0  0  0  0
    2.5780   -0.2810    1.0200 C   0  0  0  0  0  0  0  0  0  0  0  0
    1.8050    0.9890    0.9270 C   0  0  2  0  0  0  0  0  0  0  0  0
    0.8690    1.1260    2.0050 N   0  0  0  0  0  0  0  0  0  0  0  0
    1.1530    1.0370   -0.4080 C   0  0  0  0  0  0  0  0  0  0  0  0
    1.8730    0.9380   -1.4120 O   0  0  0  0  0  0  0  0  0  0  0  0
   -0.5670   -3.2400    4.4790 H   0  0  0  0  0  0  0  0  0  0  0  0
   -1.2220   -1.6760    5.0440 H   0  0  0  0  0  0  0  0  0  0  0  0
    0.7770   -1.2630    6.7860 H   0  0  0  0  0  0  0  0  0  0  0  0
    1.4910   -2.1740    2.8500 H   0  0  0  0  0  0  0  0  0  0  0  0
    3.4260   -0.7240    4.3390 H   0  0  0  0  0  0  0  0  0  0  0  0
    2.2970    0.5490    3.7800 H   0  0  0  0  0  0  0  0  0  0  0  0
    3.8970   -1.4690    2.1550 H   0  0  0  0  0  0  0  0  0  0  0  0
    4.1750    0.3400    2.2580 H   0  0  0  0  0  0  0  0  0  0  0  0
    1.8740   -1.1170    0.8250 H   0  0  0  0  0  0  0  0  0  0  0  0
    3.2890   -0.2900    0.1420 H   0  0  0  0  0  0  0  0  0  0  0  0
    2.5140    1.8660    1.0390 H   0  0  0  0  0  0  0  0  0  0  0  0
    0.1330    0.3970    2.0280 H   0  0  0  0  0  0  0  0  0  0  0  0
    0.5410    2.0850    2.1760 H   0  0  0  0  0  0  0  0  0  0  0  0
   -0.2430    1.1940   -0.5030 N   0  0  0  0  0  0  0  0  0  0  0  0
   -1.0190    1.2820   -1.6860 C   0  0  1  0  0  0  0  0  0  0  0  0
   -0.3120    1.7570   -2.9350 C   0  0  0  0  0  0  0  0  0  0  0  0
    0.2120    3.1640   -2.8270 C   0  0  0  0  0  0  0  0  0  0  0  0
   -0.8830    4.1610   -2.6040 C   0  0  0  0  0  0  0  0  0  0  0  0
   -1.3140    4.4770   -1.4740 O   0  0  0  0  0  0  0  0  0  0  0  0
   -1.9370    0.1570   -1.9030 C   0  0  0  0  0  0  0  0  0  0  0  0
   -2.7140    0.0840   -2.9030 O   0  0  0  0  0  0  0  0  0  0  0  0
   -1.4400    4.7560   -3.7110 O   0  0  0  0  0  0  0  0  0  0  0  0
   -0.8290    1.2540    0.4120 H   0  0  0  0  0  0  0  0  0  0  0  0
   -1.7090    2.2060   -1.4830 H   0  0  0  0  0  0  0  0  0  0  0  0
    0.5310    1.1130   -3.2430 H   0  0  0  0  0  0  0  0  0  0  0  0
   -1.1080    1.7430   -3.7510 H   0  0  0  0  0  0  0  0  0  0  0  0
    0.7400    3.4360   -3.7640 H   0  0  0  0  0  0  0  0  0  0  0  0
    0.8920    3.2310   -1.9630 H   0  0  0  0  0  0  0  0  0  0  0  0
   -2.2900    5.2960   -3.6530 H   0  0  0  0  0  0  0  0  0  0  0  0
   -2.0220   -0.9440   -1.0020 N   0  0  0  0  0  0  0  0  0  0  0  0
   -2.9150   -2.0630   -1.1880 C   0  0  1  0  0  0  0  0  0  0  0  0
   -2.2060   -3.3620   -1.4660 C   0  0  0  0  0  0  0  0  0  0  0  0
   -1.2900   -3.8050   -0.4150 C   0  0  0  0  0  0  0  0  0  0  0  0
   -1.7250   -4.6070    0.6150 C   0  0  0  0  0  0  0  0  0  0  0  0
   -0.8550   -5.0360    1.6200 C   0  0  0  0  0  0  0  0  0  0  0  0
    0.4660   -4.6580    1.5950 C   0  0  0  0  0  0  0  0  0  0  0  0
    0.9030   -3.8590    0.5710 C   0  0  0  0  0  0  0  0  0  0  0  0
    0.0380   -3.4450   -0.4090 C   0  0  0  0  0  0  0  0  0  0  0  0
   -3.8960   -2.1800   -0.1070 C   0  0  0  0  0  0  0  0  0  0  0  0
   -4.7380   -3.1050   -0.1320 O   0  0  0  0  0  0  0  0  0  0  0  0
   -3.9190   -1.2860    0.9540 O   0  0  0  0  0  0  0  0  0  0  0  0
   -1.3970   -0.9210   -0.1680 H   0  0  0  0  0  0  0  0  0  0  0  0
   -3.4930   -1.8310   -2.1310 H   0  0  0  0  0  0  0  0  0  0  0  0
   -1.6890   -3.2910   -2.4440 H   0  0  0  0  0  0  0  0  0  0  0  0
   -2.9930   -4.1340   -1.5880 H   0  0  0  0  0  0  0  0  0  0  0  0
   -2.7540   -4.9270    0.6740 H   0  0  0  0  0  0  0  0  0  0  0  0
   -1.2410   -5.6740    2.4230 H   0  0  0  0  0  0  0  0  0  0  0  0
    1.1670   -4.9840    2.3760 H   0  0  0  0  0  0  0  0  0  0  0  0
    1.9590   -3.5550    0.5480 H   0  0  0  0  0  0  0  0  0  0  0  0
    0.4170   -2.8130   -1.2060 H   0  0  0  0  0  0  0  0  0  0  0  0
  1  2  1  0  0  0  0
  1 13  1  0  0  0  0
  2  3  2  0  0  0  0
  3 14  1  0  0  0  0
  4  2  1  0  0  0  0
  5  4  1  0  0  0  0
  5 17  1  0  0  0  0
  5 16  1  0  0  0  0
  6 19  1  0  0  0  0
  6  5  1  0  0  0  0
  7  6  1  0  0  0  0
  8  7  1  0  0  0  0
  8 22  1  1  0  0  0
  8  9  1  0  0  0  0
  9 23  1  0  0  0  0
  9 24  1  0  0  0  0
 10  8  1  0  0  0  0
 11 10  2  0  0  0  0
 12  1  1  0  0  0  0
 15  4  1  0  0  0  0
 18  6  1  0  0  0  0
 20  7  1  0  0  0  0
 21  7  1  0  0  0  0
 25 10  1  0  0  0  0
 25 34  1  0  0  0  0
 26 35  1  1  0  0  0
 26 25  1  0  0  0  0
 27 28  1  0  0  0  0
 27 26  1  0  0  0  0
 28 29  1  0  0  0  0
 28 39  1  0  0  0  0
 29 30  2  0  0  0  0
 31 26  1  0  0  0  0
 31 41  1  0  0  0  0
 32 31  2  0  0  0  0
 33 40  1  0  0  0  0
 33 29  1  0  0  0  0
 36 27  1  0  0  0  0
 37 27  1  0  0  0  0
 38 28  1  0  0  0  0
 41 53  1  0  0  0  0
 42 54  1  6  0  0  0
 42 41  1  0  0  0  0
 42 50  1  0  0  0  0
 43 42  1  0  0  0  0
 43 44  1  0  0  0  0
 44 49  2  0  0  0  0
 44 45  1  0  0  0  0
 45 57  1  0  0  0  0
 45 46  2  0  0  0  0
 46 58  1  0  0  0  0
 47 46  1  0  0  0  0
 47 59  1  0  0  0  0
 48 47  2  0  0  0  0
 49 48  1  0  0  0  0
 50 52  1  0  0  0  0
 51 50  2  0  0  0  0
 55 43  1  0  0  0  0
 56 43  1  0  0  0  0
 60 48  1  0  0  0  0
 61 49  1  0  0  0  0
M  END
$$$$
