REN.pdb
 OpenBabel07022418043D

 55 54  0  0  1  0  0  0  0  0999 V2000
    3.4310   -4.8600    4.5290 N   0  0  0  0  0  0  0  0  0  0  0  0
    3.2390   -3.4960    4.1890 C   0  0  0  0  0  0  0  0  0  0  0  0
    2.0970   -2.9060    4.3980 N   0  0  0  0  0  0  0  0  0  0  0  0
    4.2720   -2.7020    3.6040 N   0  0  0  0  0  0  0  0  0  0  0  0
    4.0310   -1.6750    2.6200 C   0  0  0  0  0  0  0  0  0  0  0  0
    3.3160   -0.4690    3.1160 C   0  0  0  0  0  0  0  0  0  0  0  0
    3.0940    0.5730    2.0550 C   0  0  0  0  0  0  0  0  0  0  0  0
    2.3000    0.1280    0.8850 C   0  0  2  0  0  0  0  0  0  0  0  0
    2.1800    1.2550   -0.0560 N   0  0  0  0  0  0  0  0  0  0  0  0
    0.9050   -0.2630    1.2090 C   0  0  0  0  0  0  0  0  0  0  0  0
    0.6350   -1.2080    2.0290 O   0  0  0  0  0  0  0  0  0  0  0  0
    3.8440   -5.1590    5.4230 H   0  0  0  0  0  0  0  0  0  0  0  0
    3.1400   -5.5860    3.8450 H   0  0  0  0  0  0  0  0  0  0  0  0
    1.2980   -3.4240    4.8190 H   0  0  0  0  0  0  0  0  0  0  0  0
    5.2570   -2.9250    3.9510 H   0  0  0  0  0  0  0  0  0  0  0  0
    3.5850   -2.0980    1.6900 H   0  0  0  0  0  0  0  0  0  0  0  0
    5.0480   -1.3170    2.2750 H   0  0  0  0  0  0  0  0  0  0  0  0
    3.8560   -0.0010    3.9810 H   0  0  0  0  0  0  0  0  0  0  0  0
    2.3340   -0.7590    3.5250 H   0  0  0  0  0  0  0  0  0  0  0  0
    2.6770    1.5110    2.4580 H   0  0  0  0  0  0  0  0  0  0  0  0
    4.1150    0.8480    1.6670 H   0  0  0  0  0  0  0  0  0  0  0  0
    2.8420   -0.6630    0.3300 H   0  0  0  0  0  0  0  0  0  0  0  0
    1.6730    2.0490    0.3930 H   0  0  0  0  0  0  0  0  0  0  0  0
    1.7180    0.9280   -0.9270 H   0  0  0  0  0  0  0  0  0  0  0  0
   -0.2300    0.3600    0.6500 N   0  0  0  0  0  0  0  0  0  0  0  0
   -1.6210   -0.0430    0.9860 C   0  0  1  0  0  0  0  0  0  0  0  0
   -2.3160    1.0510    1.6750 C   0  0  0  0  0  0  0  0  0  0  0  0
   -3.7510    0.8710    2.0480 C   0  0  0  0  0  0  0  0  0  0  0  0
   -4.7150    0.8200    0.9560 C   0  0  0  0  0  0  0  0  0  0  0  0
   -4.4250    1.2530   -0.1840 O   0  0  0  0  0  0  0  0  0  0  0  0
   -2.1520   -0.7100   -0.1720 C   0  0  0  0  0  0  0  0  0  0  0  0
   -3.2560   -1.3510   -0.0430 O   0  0  0  0  0  0  0  0  0  0  0  0
   -5.9780    0.2920    1.1510 O   0  0  0  0  0  0  0  0  0  0  0  0
   -0.1000    1.1380   -0.0300 H   0  0  0  0  0  0  0  0  0  0  0  0
   -1.5270   -0.8730    1.7850 H   0  0  0  0  0  0  0  0  0  0  0  0
   -2.1750    2.0550    1.1950 H   0  0  0  0  0  0  0  0  0  0  0  0
   -1.7750    1.1950    2.6710 H   0  0  0  0  0  0  0  0  0  0  0  0
   -3.9000   -0.0690    2.6420 H   0  0  0  0  0  0  0  0  0  0  0  0
   -4.0330    1.7060    2.7590 H   0  0  0  0  0  0  0  0  0  0  0  0
   -6.6940    0.3020    0.4160 H   0  0  0  0  0  0  0  0  0  0  0  0
   -1.5900    1.0530   -5.3550 N   0  0  0  0  0  0  0  0  0  0  0  0
   -1.4200    0.1500   -4.2780 C   0  0  0  0  0  0  0  0  0  0  0  0
   -0.2240   -0.0080   -3.8820 O   0  0  0  0  0  0  0  0  0  0  0  0
   -2.5880   -0.5330   -3.6920 C   0  0  0  0  0  0  0  0  0  0  0  0
   -2.2160   -1.4490   -2.5420 C   0  0  2  0  0  0  0  0  0  0  0  0
   -1.5850   -0.7420   -1.4600 N   0  0  0  0  0  0  0  0  0  0  0  0
   -1.3130   -2.5420   -3.0190 C   0  0  0  0  0  0  0  0  0  0  0  0
   -0.2120   -2.7150   -2.4690 O   0  0  0  0  0  0  0  0  0  0  0  0
   -1.7220   -3.3350   -4.0620 O   0  0  0  0  0  0  0  0  0  0  0  0
   -0.8510    1.1840   -6.0980 H   0  0  0  0  0  0  0  0  0  0  0  0
   -2.4630    1.6080   -5.4270 H   0  0  0  0  0  0  0  0  0  0  0  0
   -3.0040   -1.1950   -4.4880 H   0  0  0  0  0  0  0  0  0  0  0  0
   -3.3940    0.1610   -3.3910 H   0  0  0  0  0  0  0  0  0  0  0  0
   -3.1710   -1.8760   -2.1570 H   0  0  0  0  0  0  0  0  0  0  0  0
   -0.7070   -0.2500   -1.6250 H   0  0  0  0  0  0  0  0  0  0  0  0
  1 12  1  0  0  0  0
  2  3  2  0  0  0  0
  2  1  1  0  0  0  0
  3 14  1  0  0  0  0
  4 15  1  0  0  0  0
  4  2  1  0  0  0  0
  5  6  1  0  0  0  0
  5  4  1  0  0  0  0
  6 19  1  0  0  0  0
  6 18  1  0  0  0  0
  7 20  1  0  0  0  0
  7  6  1  0  0  0  0
  8 22  1  6  0  0  0
  8 10  1  0  0  0  0
  8  7  1  0  0  0  0
  9 23  1  0  0  0  0
  9  8  1  0  0  0  0
 10 11  2  0  0  0  0
 13  1  1  0  0  0  0
 16  5  1  0  0  0  0
 17  5  1  0  0  0  0
 21  7  1  0  0  0  0
 24  9  1  0  0  0  0
 25 26  1  0  0  0  0
 25 10  1  0  0  0  0
 26 27  1  0  0  0  0
 26 35  1  1  0  0  0
 27 28  1  0  0  0  0
 27 37  1  0  0  0  0
 28 38  1  0  0  0  0
 28 39  1  0  0  0  0
 29 33  1  0  0  0  0
 29 28  1  0  0  0  0
 30 29  2  0  0  0  0
 31 32  2  0  0  0  0
 31 26  1  0  0  0  0
 34 25  1  0  0  0  0
 36 27  1  0  0  0  0
 40 33  1  0  0  0  0
 41 42  1  0  0  0  0
 42 43  2  0  0  0  0
 42 44  1  0  0  0  0
 44 53  1  0  0  0  0
 44 45  1  0  0  0  0
 45 54  1  1  0  0  0
 45 46  1  0  0  0  0
 46 31  1  0  0  0  0
 47 45  1  0  0  0  0
 47 48  1  0  0  0  0
 49 47  2  0  0  0  0
 50 41  1  0  0  0  0
 51 41  1  0  0  0  0
 52 44  1  0  0  0  0
 55 46  1  0  0  0  0
M  END
$$$$
