REP.pdb
 OpenBabel07022418043D

 55 55  0  0  1  0  0  0  0  0999 V2000
   -0.8580   -3.5780    4.4340 N   0  0  0  0  0  0  0  0  0  0  0  0
    0.0210   -2.6060    5.0320 C   0  0  0  0  0  0  0  0  0  0  0  0
   -0.0840   -2.3160    6.2710 N   0  0  0  0  0  0  0  0  0  0  0  0
    1.0190   -1.9560    4.2430 N   0  0  0  0  0  0  0  0  0  0  0  0
    1.4210   -0.6350    4.6010 C   0  0  0  0  0  0  0  0  0  0  0  0
    2.4650   -0.0440    3.7210 C   0  0  0  0  0  0  0  0  0  0  0  0
    2.1120    0.0900    2.2860 C   0  0  0  0  0  0  0  0  0  0  0  0
    0.9220    0.9420    1.9800 C   0  0  2  0  0  0  0  0  0  0  0  0
   -0.2950    0.4670    2.5880 N   0  0  0  0  0  0  0  0  0  0  0  0
    0.8150    1.0230    0.4870 C   0  0  0  0  0  0  0  0  0  0  0  0
    1.8190    1.4360   -0.1110 O   0  0  0  0  0  0  0  0  0  0  0  0
   -1.7590   -3.3050    3.9890 H   0  0  0  0  0  0  0  0  0  0  0  0
   -0.5960   -4.5820    4.4410 H   0  0  0  0  0  0  0  0  0  0  0  0
   -0.8150   -2.7950    6.8360 H   0  0  0  0  0  0  0  0  0  0  0  0
    1.4030   -2.4850    3.4410 H   0  0  0  0  0  0  0  0  0  0  0  0
    0.5600    0.0250    4.7530 H   0  0  0  0  0  0  0  0  0  0  0  0
    1.8940   -0.7250    5.6260 H   0  0  0  0  0  0  0  0  0  0  0  0
    2.7150    0.9670    4.1100 H   0  0  0  0  0  0  0  0  0  0  0  0
    3.4090   -0.6280    3.7820 H   0  0  0  0  0  0  0  0  0  0  0  0
    2.0580   -0.9030    1.7630 H   0  0  0  0  0  0  0  0  0  0  0  0
    2.9930    0.5980    1.7890 H   0  0  0  0  0  0  0  0  0  0  0  0
    1.0810    1.9850    2.3210 H   0  0  0  0  0  0  0  0  0  0  0  0
   -0.5530   -0.4870    2.3370 H   0  0  0  0  0  0  0  0  0  0  0  0
   -1.0470    1.1590    2.6100 H   0  0  0  0  0  0  0  0  0  0  0  0
   -0.3810    0.6400   -0.1600 N   0  0  0  0  0  0  0  0  0  0  0  0
   -0.7000    0.6540   -1.5330 C   0  0  1  0  0  0  0  0  0  0  0  0
    0.1320    1.7040   -2.3050 C   0  0  0  0  0  0  0  0  0  0  0  0
   -0.1270    3.0930   -1.8490 C   0  0  0  0  0  0  0  0  0  0  0  0
   -1.5030    3.5850   -2.0950 C   0  0  0  0  0  0  0  0  0  0  0  0
   -2.3790    2.9610   -2.7310 O   0  0  0  0  0  0  0  0  0  0  0  0
   -0.7720   -0.6030   -2.2810 C   0  0  0  0  0  0  0  0  0  0  0  0
   -1.1380   -0.3760   -3.5240 O   0  0  0  0  0  0  0  0  0  0  0  0
   -1.9170    4.8410   -1.6050 O   0  0  0  0  0  0  0  0  0  0  0  0
   -1.1370    0.3180    0.5500 H   0  0  0  0  0  0  0  0  0  0  0  0
   -1.7240    1.2020   -1.5640 H   0  0  0  0  0  0  0  0  0  0  0  0
   -0.2340    1.6270   -3.3920 H   0  0  0  0  0  0  0  0  0  0  0  0
    1.1780    1.4310   -2.2420 H   0  0  0  0  0  0  0  0  0  0  0  0
    0.6400    3.7950   -2.2350 H   0  0  0  0  0  0  0  0  0  0  0  0
   -0.0200    3.1310   -0.7270 H   0  0  0  0  0  0  0  0  0  0  0  0
   -2.8730    5.1330   -1.6580 H   0  0  0  0  0  0  0  0  0  0  0  0
   -0.5230   -1.9070   -1.8800 N   0  0  0  0  0  0  0  0  0  0  0  0
   -0.1150   -2.3600   -0.5730 C   0  0  0  0  0  0  0  0  0  0  0  0
   -1.2370   -3.3950   -0.3250 C   0  0  0  0  0  0  0  0  0  0  0  0
   -1.6290   -3.8710   -1.7150 C   0  0  0  0  0  0  0  0  0  0  0  0
   -0.5850   -3.1590   -2.5610 C   0  0  1  0  0  0  0  0  0  0  0  0
   -0.7620   -3.2620   -3.9690 C   0  0  0  0  0  0  0  0  0  0  0  0
   -0.8440   -2.4270   -4.8780 O   0  0  0  0  0  0  0  0  0  0  0  0
   -0.8720   -4.5970   -4.4780 O   0  0  0  0  0  0  0  0  0  0  0  0
    0.8410   -2.9630   -0.7200 H   0  0  0  0  0  0  0  0  0  0  0  0
   -0.0230   -1.6610    0.2180 H   0  0  0  0  0  0  0  0  0  0  0  0
   -0.8570   -4.2150    0.3060 H   0  0  0  0  0  0  0  0  0  0  0  0
   -2.0580   -2.8130    0.1420 H   0  0  0  0  0  0  0  0  0  0  0  0
   -1.5240   -4.9550   -1.7380 H   0  0  0  0  0  0  0  0  0  0  0  0
   -2.6440   -3.5010   -1.9720 H   0  0  0  0  0  0  0  0  0  0  0  0
    0.3930   -3.6900   -2.2880 H   0  0  0  0  0  0  0  0  0  0  0  0
  1 13  1  0  0  0  0
  1  2  1  0  0  0  0
  2  3  2  0  0  0  0
  3 14  1  0  0  0  0
  4  5  1  0  0  0  0
  4  2  1  0  0  0  0
  5 16  1  0  0  0  0
  5 17  1  0  0  0  0
  6 19  1  0  0  0  0
  6 18  1  0  0  0  0
  6  5  1  0  0  0  0
  7  6  1  0  0  0  0
  8  7  1  0  0  0  0
  8 22  1  1  0  0  0
  8  9  1  0  0  0  0
  9 24  1  0  0  0  0
 10  8  1  0  0  0  0
 11 10  2  0  0  0  0
 12  1  1  0  0  0  0
 15  4  1  0  0  0  0
 20  7  1  0  0  0  0
 21  7  1  0  0  0  0
 23  9  1  0  0  0  0
 25 10  1  0  0  0  0
 25 34  1  0  0  0  0
 26 35  1  6  0  0  0
 26 25  1  0  0  0  0
 27 37  1  0  0  0  0
 27 28  1  0  0  0  0
 27 26  1  0  0  0  0
 28 39  1  0  0  0  0
 29 28  1  0  0  0  0
 29 33  1  0  0  0  0
 30 29  2  0  0  0  0
 31 41  1  0  0  0  0
 31 26  1  0  0  0  0
 32 31  2  0  0  0  0
 36 27  1  0  0  0  0
 38 28  1  0  0  0  0
 40 33  1  0  0  0  0
 41 42  1  0  0  0  0
 42 43  1  0  0  0  0
 42 50  1  0  0  0  0
 43 52  1  0  0  0  0
 43 51  1  0  0  0  0
 44 43  1  0  0  0  0
 45 55  1  1  0  0  0
 45 41  1  0  0  0  0
 45 44  1  0  0  0  0
 46 45  1  0  0  0  0
 47 46  2  0  0  0  0
 48 46  1  0  0  0  0
 49 42  1  0  0  0  0
 53 44  1  0  0  0  0
 54 44  1  0  0  0  0
M  END
$$$$
