REQ.pdb
 OpenBabel07022418043D

 58 57  0  0  1  0  0  0  0  0999 V2000
   -0.1160   -1.2960    6.3750 N   0  0  0  0  0  0  0  0  0  0  0  0
    1.0550   -1.2930    5.5770 C   0  0  0  0  0  0  0  0  0  0  0  0
    2.0760   -0.6060    5.9270 N   0  0  0  0  0  0  0  0  0  0  0  0
    1.1010   -2.0680    4.3670 N   0  0  0  0  0  0  0  0  0  0  0  0
    2.0990   -1.7070    3.3990 C   0  0  0  0  0  0  0  0  0  0  0  0
    1.8010   -0.3630    2.7800 C   0  0  0  0  0  0  0  0  0  0  0  0
    2.9010   -0.0290    1.7720 C   0  0  0  0  0  0  0  0  0  0  0  0
    2.6060    1.3230    1.1510 C   0  0  2  0  0  0  0  0  0  0  0  0
    2.5730    2.2940    2.2240 N   0  0  0  0  0  0  0  0  0  0  0  0
    1.3330    1.3590    0.4290 C   0  0  0  0  0  0  0  0  0  0  0  0
    0.3980    2.1160    0.8200 O   0  0  0  0  0  0  0  0  0  0  0  0
   -0.4900   -0.3950    6.8030 H   0  0  0  0  0  0  0  0  0  0  0  0
   -0.6510   -2.1530    6.5750 H   0  0  0  0  0  0  0  0  0  0  0  0
    2.0720   -0.0380    6.7980 H   0  0  0  0  0  0  0  0  0  0  0  0
    0.4250   -2.8310    4.2520 H   0  0  0  0  0  0  0  0  0  0  0  0
    3.1090   -1.7120    3.8650 H   0  0  0  0  0  0  0  0  0  0  0  0
    2.1130   -2.4930    2.5910 H   0  0  0  0  0  0  0  0  0  0  0  0
    1.7740    0.4170    3.5570 H   0  0  0  0  0  0  0  0  0  0  0  0
    0.8310   -0.4060    2.2590 H   0  0  0  0  0  0  0  0  0  0  0  0
    3.8570    0.0530    2.2990 H   0  0  0  0  0  0  0  0  0  0  0  0
    2.9590   -0.8340    1.0360 H   0  0  0  0  0  0  0  0  0  0  0  0
    3.4220    1.5660    0.4410 H   0  0  0  0  0  0  0  0  0  0  0  0
    3.1500    3.1320    1.9500 H   0  0  0  0  0  0  0  0  0  0  0  0
    1.5810    2.6160    2.3950 H   0  0  0  0  0  0  0  0  0  0  0  0
    1.1470    0.5340   -0.7230 N   0  0  0  0  0  0  0  0  0  0  0  0
   -0.1160    0.5730   -1.4360 C   0  0  1  0  0  0  0  0  0  0  0  0
    0.0870    1.1330   -2.8150 C   0  0  0  0  0  0  0  0  0  0  0  0
   -1.1190    1.2230   -3.6740 C   0  0  0  0  0  0  0  0  0  0  0  0
   -0.6650    1.8340   -4.9730 C   0  0  0  0  0  0  0  0  0  0  0  0
   -0.0850    2.9370   -4.9480 O   0  0  0  0  0  0  0  0  0  0  0  0
   -0.7500   -0.7530   -1.3790 C   0  0  0  0  0  0  0  0  0  0  0  0
   -1.8650   -0.8690   -1.9250 O   0  0  0  0  0  0  0  0  0  0  0  0
   -0.8870    1.1830   -6.1720 O   0  0  0  0  0  0  0  0  0  0  0  0
    1.9410   -0.0650   -1.0090 H   0  0  0  0  0  0  0  0  0  0  0  0
   -0.8290    1.2820   -0.9150 H   0  0  0  0  0  0  0  0  0  0  0  0
    0.4940    2.1540   -2.6930 H   0  0  0  0  0  0  0  0  0  0  0  0
    0.8720    0.5560   -3.3480 H   0  0  0  0  0  0  0  0  0  0  0  0
   -1.6250    0.2680   -3.9090 H   0  0  0  0  0  0  0  0  0  0  0  0
   -1.8480    1.9470   -3.2400 H   0  0  0  0  0  0  0  0  0  0  0  0
   -0.7750    1.6290   -7.0810 H   0  0  0  0  0  0  0  0  0  0  0  0
   -4.8460   -1.7290    1.4490 N   0  0  0  0  0  0  0  0  0  0  0  0
   -4.1490   -2.4230    0.4500 C   0  0  0  0  0  0  0  0  0  0  0  0
   -4.7680   -3.0240   -0.4490 O   0  0  0  0  0  0  0  0  0  0  0  0
   -2.6730   -2.4360    0.4660 C   0  0  0  0  0  0  0  0  0  0  0  0
   -2.0990   -3.2550   -0.6730 C   0  0  0  0  0  0  0  0  0  0  0  0
   -0.5920   -3.1640   -0.5710 C   0  0  2  0  0  0  0  0  0  0  0  0
   -0.1130   -1.8200   -0.7370 N   0  0  0  0  0  0  0  0  0  0  0  0
    0.1480   -4.1710   -1.3170 C   0  0  0  0  0  0  0  0  0  0  0  0
   -0.0820   -5.3880   -1.3510 O   0  0  0  0  0  0  0  0  0  0  0  0
    1.2430   -3.7280   -2.0840 O   0  0  0  0  0  0  0  0  0  0  0  0
   -5.2540   -2.2420    2.2490 H   0  0  0  0  0  0  0  0  0  0  0  0
   -4.9550   -0.7040    1.3920 H   0  0  0  0  0  0  0  0  0  0  0  0
   -2.4140   -2.9770    1.4580 H   0  0  0  0  0  0  0  0  0  0  0  0
   -2.2540   -1.4430    0.5510 H   0  0  0  0  0  0  0  0  0  0  0  0
   -2.3800   -4.3510   -0.5230 H   0  0  0  0  0  0  0  0  0  0  0  0
   -2.5160   -2.9770   -1.6270 H   0  0  0  0  0  0  0  0  0  0  0  0
   -0.4490   -3.3990    0.5510 H   0  0  0  0  0  0  0  0  0  0  0  0
    0.8650   -1.6080   -0.3080 H   0  0  0  0  0  0  0  0  0  0  0  0
  1 13  1  0  0  0  0
  1 12  1  0  0  0  0
  2  3  2  0  0  0  0
  2  1  1  0  0  0  0
  3 14  1  0  0  0  0
  4  2  1  0  0  0  0
  5 16  1  0  0  0  0
  5  4  1  0  0  0  0
  6  5  1  0  0  0  0
  6 18  1  0  0  0  0
  7 20  1  0  0  0  0
  7  6  1  0  0  0  0
  8 22  1  6  0  0  0
  8  7  1  0  0  0  0
  8  9  1  0  0  0  0
  9 24  1  0  0  0  0
 10 11  2  0  0  0  0
 10  8  1  0  0  0  0
 15  4  1  0  0  0  0
 17  5  1  0  0  0  0
 19  6  1  0  0  0  0
 21  7  1  0  0  0  0
 23  9  1  0  0  0  0
 25 10  1  0  0  0  0
 26 31  1  0  0  0  0
 26 35  1  1  0  0  0
 26 25  1  0  0  0  0
 27 36  1  0  0  0  0
 27 26  1  0  0  0  0
 28 39  1  0  0  0  0
 28 27  1  0  0  0  0
 29 30  2  0  0  0  0
 29 28  1  0  0  0  0
 31 47  1  0  0  0  0
 32 31  2  0  0  0  0
 33 29  1  0  0  0  0
 34 25  1  0  0  0  0
 37 27  1  0  0  0  0
 38 28  1  0  0  0  0
 40 33  1  0  0  0  0
 41 51  1  0  0  0  0
 42 44  1  0  0  0  0
 42 41  1  0  0  0  0
 43 42  2  0  0  0  0
 44 54  1  0  0  0  0
 44 53  1  0  0  0  0
 45 46  1  0  0  0  0
 45 55  1  0  0  0  0
 45 44  1  0  0  0  0
 46 57  1  1  0  0  0
 47 46  1  0  0  0  0
 47 58  1  0  0  0  0
 48 46  1  0  0  0  0
 49 48  1  0  0  0  0
 50 48  2  0  0  0  0
 52 41  1  0  0  0  0
 56 45  1  0  0  0  0
M  END
$$$$
