RET.pdb
 OpenBabel07022418043D

 55 54  0  0  1  0  0  0  0  0999 V2000
    0.4600   -3.6730    5.2840 N   0  0  0  0  0  0  0  0  0  0  0  0
    1.4060   -2.7070    4.8410 C   0  0  0  0  0  0  0  0  0  0  0  0
    2.5860   -3.0640    4.4050 N   0  0  0  0  0  0  0  0  0  0  0  0
    1.1320   -1.3120    4.8470 N   0  0  0  0  0  0  0  0  0  0  0  0
    2.1360   -0.3140    4.5100 C   0  0  0  0  0  0  0  0  0  0  0  0
    2.5220   -0.3380    3.0680 C   0  0  0  0  0  0  0  0  0  0  0  0
    1.4170   -0.0870    2.1000 C   0  0  0  0  0  0  0  0  0  0  0  0
    0.7480    1.2440    2.2300 C   0  0  2  0  0  0  0  0  0  0  0  0
    0.1380    1.4730    3.5240 N   0  0  0  0  0  0  0  0  0  0  0  0
   -0.3080    1.4460    1.1850 C   0  0  0  0  0  0  0  0  0  0  0  0
   -1.4500    1.8840    1.5400 O   0  0  0  0  0  0  0  0  0  0  0  0
   -0.3610   -3.9570    4.7270 H   0  0  0  0  0  0  0  0  0  0  0  0
    0.6200   -4.1040    6.2180 H   0  0  0  0  0  0  0  0  0  0  0  0
    2.7930   -4.0740    4.3990 H   0  0  0  0  0  0  0  0  0  0  0  0
    0.1610   -1.0220    5.1050 H   0  0  0  0  0  0  0  0  0  0  0  0
    1.8620    0.6770    4.9100 H   0  0  0  0  0  0  0  0  0  0  0  0
    3.0700   -0.5900    5.0920 H   0  0  0  0  0  0  0  0  0  0  0  0
    3.3580    0.3840    2.9390 H   0  0  0  0  0  0  0  0  0  0  0  0
    2.9590   -1.3300    2.8390 H   0  0  0  0  0  0  0  0  0  0  0  0
    1.8610   -0.1190    1.0800 H   0  0  0  0  0  0  0  0  0  0  0  0
    0.6730   -0.9020    2.2150 H   0  0  0  0  0  0  0  0  0  0  0  0
    1.5050    2.0800    2.1130 H   0  0  0  0  0  0  0  0  0  0  0  0
    0.3240    2.4270    3.9010 H   0  0  0  0  0  0  0  0  0  0  0  0
   -0.9060    1.3810    3.4790 H   0  0  0  0  0  0  0  0  0  0  0  0
   -0.0590    1.1600   -0.1750 N   0  0  0  0  0  0  0  0  0  0  0  0
   -1.0980    1.3600   -1.2180 C   0  0  1  0  0  0  0  0  0  0  0  0
   -0.4980    2.2150   -2.2430 C   0  0  0  0  0  0  0  0  0  0  0  0
   -1.2880    2.5920   -3.4520 C   0  0  0  0  0  0  0  0  0  0  0  0
   -1.6640    1.5020   -4.3600 C   0  0  0  0  0  0  0  0  0  0  0  0
   -2.8030    1.4870   -4.9250 O   0  0  0  0  0  0  0  0  0  0  0  0
   -1.6760    0.0660   -1.5790 C   0  0  0  0  0  0  0  0  0  0  0  0
   -2.6470   -0.0870   -2.3550 O   0  0  0  0  0  0  0  0  0  0  0  0
   -0.8090    0.4310   -4.6580 O   0  0  0  0  0  0  0  0  0  0  0  0
    0.8840    0.8020   -0.4320 H   0  0  0  0  0  0  0  0  0  0  0  0
   -1.9190    1.9430   -0.6970 H   0  0  0  0  0  0  0  0  0  0  0  0
    0.5430    1.8620   -2.5460 H   0  0  0  0  0  0  0  0  0  0  0  0
   -0.2550    3.2170   -1.7420 H   0  0  0  0  0  0  0  0  0  0  0  0
   -2.2250    3.1380   -3.1800 H   0  0  0  0  0  0  0  0  0  0  0  0
   -0.6980    3.3200   -4.1010 H   0  0  0  0  0  0  0  0  0  0  0  0
   -0.9550   -0.1070   -5.5100 H   0  0  0  0  0  0  0  0  0  0  0  0
    0.1320   -3.0830   -3.0130 C   0  0  0  0  0  0  0  0  0  0  0  0
   -0.6110   -3.4480   -1.7750 C   0  0  1  0  0  0  0  0  0  0  0  0
    0.3600   -3.6160   -0.7560 O   0  0  0  0  0  0  0  0  0  0  0  0
   -1.6280   -2.4530   -1.3180 C   0  0  2  0  0  0  0  0  0  0  0  0
   -1.1230   -1.1580   -1.0230 N   0  0  0  0  0  0  0  0  0  0  0  0
   -2.3180   -3.0710   -0.1280 C   0  0  0  0  0  0  0  0  0  0  0  0
   -2.4140   -2.4970    0.9800 O   0  0  0  0  0  0  0  0  0  0  0  0
   -2.8880   -4.3290   -0.2190 O   0  0  0  0  0  0  0  0  0  0  0  0
    0.3140   -3.9690   -3.6920 H   0  0  0  0  0  0  0  0  0  0  0  0
   -0.4200   -2.3520   -3.6270 H   0  0  0  0  0  0  0  0  0  0  0  0
    1.1790   -2.7230   -2.7850 H   0  0  0  0  0  0  0  0  0  0  0  0
   -1.0630   -4.4500   -1.9150 H   0  0  0  0  0  0  0  0  0  0  0  0
   -0.0980   -3.9320    0.0640 H   0  0  0  0  0  0  0  0  0  0  0  0
   -2.4180   -2.3700   -2.0860 H   0  0  0  0  0  0  0  0  0  0  0  0
   -0.3140   -1.0030   -0.3830 H   0  0  0  0  0  0  0  0  0  0  0  0
  1 13  1  0  0  0  0
  2  4  1  0  0  0  0
  2  1  1  0  0  0  0
  3  2  2  0  0  0  0
  4 15  1  0  0  0  0
  5  4  1  0  0  0  0
  5 16  1  0  0  0  0
  5 17  1  0  0  0  0
  6  5  1  0  0  0  0
  7 21  1  0  0  0  0
  7  8  1  0  0  0  0
  7  6  1  0  0  0  0
  8 22  1  6  0  0  0
  8  9  1  0  0  0  0
  9 23  1  0  0  0  0
 10 11  2  0  0  0  0
 10  8  1  0  0  0  0
 12  1  1  0  0  0  0
 14  3  1  0  0  0  0
 18  6  1  0  0  0  0
 19  6  1  0  0  0  0
 20  7  1  0  0  0  0
 24  9  1  0  0  0  0
 25 10  1  0  0  0  0
 26 35  1  1  0  0  0
 26 25  1  0  0  0  0
 27 37  1  0  0  0  0
 27 26  1  0  0  0  0
 28 38  1  0  0  0  0
 28 27  1  0  0  0  0
 29 28  1  0  0  0  0
 30 29  2  0  0  0  0
 31 26  1  0  0  0  0
 31 45  1  0  0  0  0
 32 31  2  0  0  0  0
 33 29  1  0  0  0  0
 34 25  1  0  0  0  0
 36 27  1  0  0  0  0
 39 28  1  0  0  0  0
 40 33  1  0  0  0  0
 41 51  1  0  0  0  0
 41 42  1  0  0  0  0
 42 52  1  6  0  0  0
 42 44  1  0  0  0  0
 42 43  1  0  0  0  0
 43 53  1  0  0  0  0
 44 54  1  6  0  0  0
 44 45  1  0  0  0  0
 44 46  1  0  0  0  0
 45 55  1  0  0  0  0
 46 47  1  0  0  0  0
 48 46  2  0  0  0  0
 49 41  1  0  0  0  0
 50 41  1  0  0  0  0
M  END
$$$$
