REV.pdb
 OpenBabel07022418043D

 57 56  0  0  1  0  0  0  0  0999 V2000
   -0.0340   -3.9370    4.8050 N   0  0  0  0  0  0  0  0  0  0  0  0
    0.0460   -2.5180    4.5540 C   0  0  0  0  0  0  0  0  0  0  0  0
   -0.8030   -1.9810    3.7470 N   0  0  0  0  0  0  0  0  0  0  0  0
    1.0230   -1.7140    5.1680 N   0  0  0  0  0  0  0  0  0  0  0  0
    1.3540   -0.3560    4.7280 C   0  0  0  0  0  0  0  0  0  0  0  0
    2.0110   -0.4420    3.3950 C   0  0  0  0  0  0  0  0  0  0  0  0
    2.4390    0.8430    2.7850 C   0  0  0  0  0  0  0  0  0  0  0  0
    1.3540    1.8440    2.5300 C   0  0  2  0  0  0  0  0  0  0  0  0
    0.6400    2.2800    3.6730 N   0  0  0  0  0  0  0  0  0  0  0  0
    0.5060    1.3530    1.4280 C   0  0  0  0  0  0  0  0  0  0  0  0
   -0.7540    1.3750    1.6600 O   0  0  0  0  0  0  0  0  0  0  0  0
   -0.5010   -4.2000    5.7070 H   0  0  0  0  0  0  0  0  0  0  0  0
    0.3270   -4.6580    4.1720 H   0  0  0  0  0  0  0  0  0  0  0  0
   -0.7780   -0.9700    3.5420 H   0  0  0  0  0  0  0  0  0  0  0  0
    1.5270   -2.1510    5.9920 H   0  0  0  0  0  0  0  0  0  0  0  0
    0.3910    0.2020    4.7270 H   0  0  0  0  0  0  0  0  0  0  0  0
    2.0710    0.0490    5.4510 H   0  0  0  0  0  0  0  0  0  0  0  0
    2.9640   -1.0320    3.5600 H   0  0  0  0  0  0  0  0  0  0  0  0
    1.4440   -1.0840    2.6670 H   0  0  0  0  0  0  0  0  0  0  0  0
    2.8830    0.5790    1.7810 H   0  0  0  0  0  0  0  0  0  0  0  0
    3.2730    1.2670    3.3880 H   0  0  0  0  0  0  0  0  0  0  0  0
    1.8810    2.7540    2.1120 H   0  0  0  0  0  0  0  0  0  0  0  0
   -0.3860    2.2950    3.5900 H   0  0  0  0  0  0  0  0  0  0  0  0
    1.0550    3.0870    4.1690 H   0  0  0  0  0  0  0  0  0  0  0  0
    0.9780    0.8830    0.1870 N   0  0  0  0  0  0  0  0  0  0  0  0
    0.0910    0.4140   -0.8620 C   0  0  1  0  0  0  0  0  0  0  0  0
    0.2770    1.2410   -2.0880 C   0  0  0  0  0  0  0  0  0  0  0  0
   -0.0210    2.6840   -1.8330 C   0  0  0  0  0  0  0  0  0  0  0  0
   -1.3860    2.9930   -1.4130 C   0  0  0  0  0  0  0  0  0  0  0  0
   -2.2940    2.1590   -1.3050 O   0  0  0  0  0  0  0  0  0  0  0  0
    0.2800   -1.0390   -1.1180 C   0  0  0  0  0  0  0  0  0  0  0  0
    1.1130   -1.7160   -0.4650 O   0  0  0  0  0  0  0  0  0  0  0  0
   -1.7200    4.3310   -1.1000 O   0  0  0  0  0  0  0  0  0  0  0  0
    1.9840    0.8620   -0.0070 H   0  0  0  0  0  0  0  0  0  0  0  0
   -0.9380    0.5350   -0.4850 H   0  0  0  0  0  0  0  0  0  0  0  0
   -0.4230    0.8900   -2.8770 H   0  0  0  0  0  0  0  0  0  0  0  0
    1.3360    1.1880   -2.4250 H   0  0  0  0  0  0  0  0  0  0  0  0
    0.2000    3.2660   -2.7700 H   0  0  0  0  0  0  0  0  0  0  0  0
    0.7020    3.1050   -1.0780 H   0  0  0  0  0  0  0  0  0  0  0  0
   -2.4980    4.4900   -0.4780 H   0  0  0  0  0  0  0  0  0  0  0  0
   -2.0710   -3.7830   -0.7390 C   0  0  0  0  0  0  0  0  0  0  0  0
   -1.6580   -3.8560   -2.1770 C   0  0  0  0  0  0  0  0  0  0  0  0
   -2.7850   -3.3850   -3.0520 C   0  0  0  0  0  0  0  0  0  0  0  0
   -0.3760   -3.0980   -2.4360 C   0  0  2  0  0  0  0  0  0  0  0  0
   -0.4800   -1.7070   -2.1140 N   0  0  0  0  0  0  0  0  0  0  0  0
    0.0780   -3.3630   -3.8000 C   0  0  0  0  0  0  0  0  0  0  0  0
    0.2040   -4.5370   -4.2050 O   0  0  0  0  0  0  0  0  0  0  0  0
    0.3730   -2.3210   -4.6590 O   0  0  0  0  0  0  0  0  0  0  0  0
   -1.2790   -4.1160   -0.0450 H   0  0  0  0  0  0  0  0  0  0  0  0
   -2.9750   -4.4370   -0.6170 H   0  0  0  0  0  0  0  0  0  0  0  0
   -2.4060   -2.7310   -0.5330 H   0  0  0  0  0  0  0  0  0  0  0  0
   -1.4590   -4.9330   -2.4020 H   0  0  0  0  0  0  0  0  0  0  0  0
   -3.5710   -4.1660   -3.0310 H   0  0  0  0  0  0  0  0  0  0  0  0
   -3.2760   -2.4680   -2.6190 H   0  0  0  0  0  0  0  0  0  0  0  0
   -2.4930   -3.2460   -4.1050 H   0  0  0  0  0  0  0  0  0  0  0  0
    0.3970   -3.5380   -1.7500 H   0  0  0  0  0  0  0  0  0  0  0  0
   -1.1670   -1.1250   -2.6470 H   0  0  0  0  0  0  0  0  0  0  0  0
  1 12  1  0  0  0  0
  2  1  1  0  0  0  0
  2  4  1  0  0  0  0
  3  2  2  0  0  0  0
  4 15  1  0  0  0  0
  5  4  1  0  0  0  0
  5 17  1  0  0  0  0
  6 18  1  0  0  0  0
  6  5  1  0  0  0  0
  7 21  1  0  0  0  0
  7  6  1  0  0  0  0
  8 22  1  6  0  0  0
  8  7  1  0  0  0  0
  8  9  1  0  0  0  0
  9 24  1  0  0  0  0
 10 11  2  0  0  0  0
 10  8  1  0  0  0  0
 13  1  1  0  0  0  0
 14  3  1  0  0  0  0
 16  5  1  0  0  0  0
 19  6  1  0  0  0  0
 20  7  1  0  0  0  0
 23  9  1  0  0  0  0
 25 10  1  0  0  0  0
 26 35  1  1  0  0  0
 26 25  1  0  0  0  0
 27 28  1  0  0  0  0
 27 26  1  0  0  0  0
 28 29  1  0  0  0  0
 28 39  1  0  0  0  0
 29 30  2  0  0  0  0
 29 33  1  0  0  0  0
 31 26  1  0  0  0  0
 31 32  2  0  0  0  0
 33 40  1  0  0  0  0
 34 25  1  0  0  0  0
 36 27  1  0  0  0  0
 37 27  1  0  0  0  0
 38 28  1  0  0  0  0
 41 50  1  0  0  0  0
 41 51  1  0  0  0  0
 41 49  1  0  0  0  0
 42 41  1  0  0  0  0
 43 53  1  0  0  0  0
 43 54  1  0  0  0  0
 43 42  1  0  0  0  0
 44 42  1  0  0  0  0
 44 45  1  0  0  0  0
 44 56  1  1  0  0  0
 45 31  1  0  0  0  0
 46 44  1  0  0  0  0
 47 46  1  0  0  0  0
 48 46  2  0  0  0  0
 52 42  1  0  0  0  0
 55 43  1  0  0  0  0
 57 45  1  0  0  0  0
M  END
$$$$
