REW.pdb
 OpenBabel07022418043D

 65 66  0  0  1  0  0  0  0  0999 V2000
    4.6690    1.6450    5.0110 N   0  0  0  0  0  0  0  0  0  0  0  0
    3.7660    2.4550    4.2730 C   0  0  0  0  0  0  0  0  0  0  0  0
    3.2680    3.5120    4.8200 N   0  0  0  0  0  0  0  0  0  0  0  0
    3.3950    2.1170    2.9350 N   0  0  0  0  0  0  0  0  0  0  0  0
    2.3260    2.7920    2.2140 C   0  0  0  0  0  0  0  0  0  0  0  0
    2.1930    2.1710    0.8340 C   0  0  0  0  0  0  0  0  0  0  0  0
    1.0930    2.8730    0.1050 C   0  0  0  0  0  0  0  0  0  0  0  0
    0.8550    2.3810   -1.3020 C   0  0  2  0  0  0  0  0  0  0  0  0
   -0.2360    3.1530   -1.8600 N   0  0  0  0  0  0  0  0  0  0  0  0
    0.6890    0.9240   -1.4180 C   0  0  0  0  0  0  0  0  0  0  0  0
    1.6560    0.2150   -1.0410 O   0  0  0  0  0  0  0  0  0  0  0  0
    5.6890    1.7980    4.9980 H   0  0  0  0  0  0  0  0  0  0  0  0
    4.2860    0.8730    5.5840 H   0  0  0  0  0  0  0  0  0  0  0  0
    3.5300    3.7670    5.7960 H   0  0  0  0  0  0  0  0  0  0  0  0
    3.9350    1.3520    2.4770 H   0  0  0  0  0  0  0  0  0  0  0  0
    2.6630    3.8660    2.1280 H   0  0  0  0  0  0  0  0  0  0  0  0
    1.3870    2.7260    2.7640 H   0  0  0  0  0  0  0  0  0  0  0  0
    1.9410    1.0960    1.0450 H   0  0  0  0  0  0  0  0  0  0  0  0
    3.1340    2.2850    0.3030 H   0  0  0  0  0  0  0  0  0  0  0  0
    1.3660    3.9490    0.0040 H   0  0  0  0  0  0  0  0  0  0  0  0
    0.1440    2.8190    0.6610 H   0  0  0  0  0  0  0  0  0  0  0  0
    1.7510    2.6550   -1.9470 H   0  0  0  0  0  0  0  0  0  0  0  0
   -0.8720    3.4300   -1.0890 H   0  0  0  0  0  0  0  0  0  0  0  0
   -0.6700    2.7640   -2.6960 H   0  0  0  0  0  0  0  0  0  0  0  0
   -0.4740    0.2920   -1.9190 N   0  0  0  0  0  0  0  0  0  0  0  0
   -0.6090   -1.1130   -2.0050 C   0  0  1  0  0  0  0  0  0  0  0  0
    0.0780   -1.7970   -3.1450 C   0  0  0  0  0  0  0  0  0  0  0  0
   -0.4450   -1.3140   -4.4670 C   0  0  0  0  0  0  0  0  0  0  0  0
   -0.2840    0.1110   -4.7290 C   0  0  0  0  0  0  0  0  0  0  0  0
    0.7980    0.7140   -4.5940 O   0  0  0  0  0  0  0  0  0  0  0  0
   -0.3300   -1.7400   -0.6920 C   0  0  0  0  0  0  0  0  0  0  0  0
   -0.0930   -1.0070    0.2940 O   0  0  0  0  0  0  0  0  0  0  0  0
   -1.3960    0.8580   -5.1510 O   0  0  0  0  0  0  0  0  0  0  0  0
   -1.2460    0.9140   -2.2280 H   0  0  0  0  0  0  0  0  0  0  0  0
   -1.7270   -1.3370   -2.1620 H   0  0  0  0  0  0  0  0  0  0  0  0
   -0.1590   -2.8840   -3.0810 H   0  0  0  0  0  0  0  0  0  0  0  0
    1.1870   -1.7380   -3.0820 H   0  0  0  0  0  0  0  0  0  0  0  0
   -1.5140   -1.6400   -4.6160 H   0  0  0  0  0  0  0  0  0  0  0  0
    0.1350   -1.9110   -5.2410 H   0  0  0  0  0  0  0  0  0  0  0  0
   -1.3230    1.8680   -5.1940 H   0  0  0  0  0  0  0  0  0  0  0  0
   -0.3090   -3.1440   -0.4560 N   0  0  0  0  0  0  0  0  0  0  0  0
   -0.0240   -3.6910    0.8590 C   0  0  1  0  0  0  0  0  0  0  0  0
   -1.0980   -4.6500    1.3220 C   0  0  0  0  0  0  0  0  0  0  0  0
   -2.4330   -3.9750    1.3990 C   0  0  0  0  0  0  0  0  0  0  0  0
   -3.4740   -4.0890    0.4920 C   0  0  0  0  0  0  0  0  0  0  0  0
   -4.4990   -3.3250    0.9220 N   0  0  0  0  0  0  0  0  0  0  0  0
   -4.1710   -2.7060    2.0850 C   0  0  0  0  0  0  0  0  0  0  0  0
   -4.8500   -1.8350    2.9210 C   0  0  0  0  0  0  0  0  0  0  0  0
   -4.2580   -1.3530    4.0640 C   0  0  0  0  0  0  0  0  0  0  0  0
   -2.9690   -1.7560    4.3660 C   0  0  0  0  0  0  0  0  0  0  0  0
   -2.2930   -2.6220    3.5360 C   0  0  0  0  0  0  0  0  0  0  0  0
   -2.8830   -3.1170    2.3750 C   0  0  0  0  0  0  0  0  0  0  0  0
    1.2520   -4.4340    0.8090 C   0  0  0  0  0  0  0  0  0  0  0  0
    1.7510   -5.0270    1.7980 O   0  0  0  0  0  0  0  0  0  0  0  0
    1.9500   -4.4950   -0.3820 O   0  0  0  0  0  0  0  0  0  0  0  0
   -0.5060   -3.7750   -1.2560 H   0  0  0  0  0  0  0  0  0  0  0  0
    0.0850   -2.8890    1.6140 H   0  0  0  0  0  0  0  0  0  0  0  0
   -0.7950   -5.0410    2.3120 H   0  0  0  0  0  0  0  0  0  0  0  0
   -1.1670   -5.4420    0.5540 H   0  0  0  0  0  0  0  0  0  0  0  0
   -3.4290   -4.6970   -0.4010 H   0  0  0  0  0  0  0  0  0  0  0  0
   -5.4360   -3.1980    0.4540 H   0  0  0  0  0  0  0  0  0  0  0  0
   -5.8500   -1.5220    2.6790 H   0  0  0  0  0  0  0  0  0  0  0  0
   -4.7530   -0.6620    4.7580 H   0  0  0  0  0  0  0  0  0  0  0  0
   -2.4990   -1.3810    5.2580 H   0  0  0  0  0  0  0  0  0  0  0  0
   -1.2780   -2.9740    3.7230 H   0  0  0  0  0  0  0  0  0  0  0  0
  1 13  1  0  0  0  0
  2  3  2  0  0  0  0
  2  1  1  0  0  0  0
  3 14  1  0  0  0  0
  4  2  1  0  0  0  0
  5 17  1  0  0  0  0
  5  4  1  0  0  0  0
  6 18  1  0  0  0  0
  6  5  1  0  0  0  0
  7 21  1  0  0  0  0
  7  6  1  0  0  0  0
  8 22  1  6  0  0  0
  8  7  1  0  0  0  0
  9  8  1  0  0  0  0
  9 23  1  0  0  0  0
 10  8  1  0  0  0  0
 10 11  2  0  0  0  0
 12  1  1  0  0  0  0
 15  4  1  0  0  0  0
 16  5  1  0  0  0  0
 19  6  1  0  0  0  0
 20  7  1  0  0  0  0
 24  9  1  0  0  0  0
 25 10  1  0  0  0  0
 26 35  1  6  0  0  0
 26 25  1  0  0  0  0
 26 31  1  0  0  0  0
 27 37  1  0  0  0  0
 27 36  1  0  0  0  0
 27 26  1  0  0  0  0
 28 27  1  0  0  0  0
 29 30  2  0  0  0  0
 29 28  1  0  0  0  0
 31 41  1  0  0  0  0
 31 32  2  0  0  0  0
 33 29  1  0  0  0  0
 34 25  1  0  0  0  0
 38 28  1  0  0  0  0
 39 28  1  0  0  0  0
 40 33  1  0  0  0  0
 41 42  1  0  0  0  0
 42 43  1  0  0  0  0
 42 57  1  1  0  0  0
 43 44  1  0  0  0  0
 43 58  1  0  0  0  0
 44 52  1  0  0  0  0
 45 46  1  0  0  0  0
 45 44  2  0  0  0  0
 46 47  1  0  0  0  0
 47 52  2  0  0  0  0
 47 48  1  0  0  0  0
 48 49  2  0  0  0  0
 49 50  1  0  0  0  0
 49 63  1  0  0  0  0
 50 64  1  0  0  0  0
 51 65  1  0  0  0  0
 51 50  2  0  0  0  0
 52 51  1  0  0  0  0
 53 42  1  0  0  0  0
 53 54  1  0  0  0  0
 55 53  2  0  0  0  0
 56 41  1  0  0  0  0
 59 43  1  0  0  0  0
 60 45  1  0  0  0  0
 61 46  1  0  0  0  0
 62 48  1  0  0  0  0
M  END
$$$$
