RFD.pdb
 OpenBabel07022418063D

 58 58  0  0  1  0  0  0  0  0999 V2000
    2.1640   -2.0550    5.3720 N   0  0  0  0  0  0  0  0  0  0  0  0
    2.9840   -1.0970    4.7270 C   0  0  0  0  0  0  0  0  0  0  0  0
    4.2210   -0.9030    5.0820 N   0  0  0  0  0  0  0  0  0  0  0  0
    2.4850   -0.2960    3.6500 N   0  0  0  0  0  0  0  0  0  0  0  0
    2.9170    1.0640    3.4720 C   0  0  0  0  0  0  0  0  0  0  0  0
    2.2720    1.6730    2.2550 C   0  0  0  0  0  0  0  0  0  0  0  0
    2.6080    0.9340    0.9900 C   0  0  0  0  0  0  0  0  0  0  0  0
    1.9050    1.6970   -0.1410 C   0  0  2  0  0  0  0  0  0  0  0  0
    2.4720    3.0390   -0.0710 N   0  0  0  0  0  0  0  0  0  0  0  0
    0.4600    1.7130    0.1170 C   0  0  0  0  0  0  0  0  0  0  0  0
   -0.1500    2.6820    0.6450 O   0  0  0  0  0  0  0  0  0  0  0  0
    1.4210   -2.6030    4.9130 H   0  0  0  0  0  0  0  0  0  0  0  0
    2.3120   -2.2330    6.3920 H   0  0  0  0  0  0  0  0  0  0  0  0
    4.5900   -1.4830    5.8650 H   0  0  0  0  0  0  0  0  0  0  0  0
    1.7990   -0.7000    2.9880 H   0  0  0  0  0  0  0  0  0  0  0  0
    4.0400    1.1180    3.3620 H   0  0  0  0  0  0  0  0  0  0  0  0
    2.6380    1.6620    4.3880 H   0  0  0  0  0  0  0  0  0  0  0  0
    2.6350    2.7230    2.1270 H   0  0  0  0  0  0  0  0  0  0  0  0
    1.1550    1.6400    2.3790 H   0  0  0  0  0  0  0  0  0  0  0  0
    3.6740    0.9160    0.7620 H   0  0  0  0  0  0  0  0  0  0  0  0
    2.2380   -0.0910    1.0510 H   0  0  0  0  0  0  0  0  0  0  0  0
    2.1100    1.2630   -1.1280 H   0  0  0  0  0  0  0  0  0  0  0  0
    1.8410    3.7200    0.3790 H   0  0  0  0  0  0  0  0  0  0  0  0
    2.8290    3.3340   -1.0030 H   0  0  0  0  0  0  0  0  0  0  0  0
   -0.3500    0.5790   -0.2410 N   0  0  0  0  0  0  0  0  0  0  0  0
   -1.7810    0.5840    0.0100 C   0  0  1  0  0  0  0  0  0  0  0  0
   -2.5240    0.9940   -1.2680 C   0  0  0  0  0  0  0  0  0  0  0  0
   -2.2290    0.0430   -2.3700 C   0  0  0  0  0  0  0  0  0  0  0  0
   -1.1840    0.2210   -3.2370 C   0  0  0  0  0  0  0  0  0  0  0  0
   -0.9670   -0.7030   -4.2290 C   0  0  0  0  0  0  0  0  0  0  0  0
   -1.7720   -1.8110   -4.3810 C   0  0  0  0  0  0  0  0  0  0  0  0
   -2.8320   -1.9960   -3.5060 C   0  0  0  0  0  0  0  0  0  0  0  0
   -3.0360   -1.0610   -2.5180 C   0  0  0  0  0  0  0  0  0  0  0  0
   -2.3010   -0.6870    0.5310 C   0  0  0  0  0  0  0  0  0  0  0  0
   -3.5350   -0.7950    0.8490 O   0  0  0  0  0  0  0  0  0  0  0  0
    0.0850   -0.2520   -0.6830 H   0  0  0  0  0  0  0  0  0  0  0  0
   -1.9900    1.4160    0.7060 H   0  0  0  0  0  0  0  0  0  0  0  0
   -2.1790    1.9850   -1.5390 H   0  0  0  0  0  0  0  0  0  0  0  0
   -3.5820    0.9970   -1.0370 H   0  0  0  0  0  0  0  0  0  0  0  0
   -0.5360    1.0660   -3.1560 H   0  0  0  0  0  0  0  0  0  0  0  0
   -0.1490   -0.6280   -4.9620 H   0  0  0  0  0  0  0  0  0  0  0  0
   -1.6310   -2.5530   -5.1470 H   0  0  0  0  0  0  0  0  0  0  0  0
   -3.4740   -2.8750   -3.6220 H   0  0  0  0  0  0  0  0  0  0  0  0
   -3.8910   -1.2330   -1.8330 H   0  0  0  0  0  0  0  0  0  0  0  0
   -1.5120   -1.8490    0.7130 N   0  0  0  0  0  0  0  0  0  0  0  0
   -2.0260   -3.1200    1.2210 C   0  0  1  0  0  0  0  0  0  0  0  0
   -2.1140   -4.0280   -0.0190 C   0  0  0  0  0  0  0  0  0  0  0  0
   -0.7820   -4.1940   -0.6330 C   0  0  0  0  0  0  0  0  0  0  0  0
    0.2130   -4.5900    0.0630 O   0  0  0  0  0  0  0  0  0  0  0  0
   -1.1620   -3.7250    2.2340 C   0  0  0  0  0  0  0  0  0  0  0  0
   -1.4830   -4.8060    2.7710 O   0  0  0  0  0  0  0  0  0  0  0  0
   -0.5550   -3.9270   -1.9730 O   0  0  0  0  0  0  0  0  0  0  0  0
    0.0130   -3.1080    2.6040 O   0  0  0  0  0  0  0  0  0  0  0  0
   -0.5040   -1.8110    0.4750 H   0  0  0  0  0  0  0  0  0  0  0  0
   -3.0830   -2.9750    1.5210 H   0  0  0  0  0  0  0  0  0  0  0  0
   -2.7960   -3.5220   -0.7180 H   0  0  0  0  0  0  0  0  0  0  0  0
   -2.5080   -5.0340    0.2700 H   0  0  0  0  0  0  0  0  0  0  0  0
    0.3650   -3.6660   -2.3200 H   0  0  0  0  0  0  0  0  0  0  0  0
  1 13  1  0  0  0  0
  2  3  2  0  0  0  0
  2  1  1  0  0  0  0
  3 14  1  0  0  0  0
  4  2  1  0  0  0  0
  5  4  1  0  0  0  0
  5 17  1  0  0  0  0
  6 19  1  0  0  0  0
  6  5  1  0  0  0  0
  7 21  1  0  0  0  0
  7  6  1  0  0  0  0
  8 22  1  6  0  0  0
  8  9  1  0  0  0  0
  8 10  1  0  0  0  0
  8  7  1  0  0  0  0
  9 23  1  0  0  0  0
 10 11  2  0  0  0  0
 12  1  1  0  0  0  0
 15  4  1  0  0  0  0
 16  5  1  0  0  0  0
 18  6  1  0  0  0  0
 20  7  1  0  0  0  0
 24  9  1  0  0  0  0
 25 26  1  0  0  0  0
 25 10  1  0  0  0  0
 26 34  1  0  0  0  0
 26 37  1  1  0  0  0
 27 39  1  0  0  0  0
 27 26  1  0  0  0  0
 28 27  1  0  0  0  0
 29 40  1  0  0  0  0
 29 28  2  0  0  0  0
 30 29  1  0  0  0  0
 31 30  2  0  0  0  0
 31 32  1  0  0  0  0
 32 33  2  0  0  0  0
 33 28  1  0  0  0  0
 33 44  1  0  0  0  0
 34 45  1  0  0  0  0
 34 35  2  0  0  0  0
 36 25  1  0  0  0  0
 38 27  1  0  0  0  0
 41 30  1  0  0  0  0
 42 31  1  0  0  0  0
 43 32  1  0  0  0  0
 45 46  1  0  0  0  0
 46 55  1  1  0  0  0
 46 50  1  0  0  0  0
 47 57  1  0  0  0  0
 47 46  1  0  0  0  0
 48 47  1  0  0  0  0
 48 49  2  0  0  0  0
 50 53  2  0  0  0  0
 50 51  1  0  0  0  0
 52 48  1  0  0  0  0
 54 45  1  0  0  0  0
 56 47  1  0  0  0  0
 58 52  1  0  0  0  0
M  END
$$$$
