RFE.pdb
 OpenBabel07022418063D

 61 61  0  0  1  0  0  0  0  0999 V2000
    2.1810   -1.0330    5.4490 N   0  0  0  0  0  0  0  0  0  0  0  0
    3.4060   -0.7260    4.7520 C   0  0  0  0  0  0  0  0  0  0  0  0
    4.4750   -0.5110    5.4230 N   0  0  0  0  0  0  0  0  0  0  0  0
    3.4170   -0.6600    3.3180 N   0  0  0  0  0  0  0  0  0  0  0  0
    4.3880    0.1670    2.7120 C   0  0  0  0  0  0  0  0  0  0  0  0
    4.3420    0.4220    1.2600 C   0  0  0  0  0  0  0  0  0  0  0  0
    3.1870    1.1750    0.6980 C   0  0  0  0  0  0  0  0  0  0  0  0
    1.8940    0.5030    0.9070 C   0  0  2  0  0  0  0  0  0  0  0  0
    1.8810   -0.7900    0.2810 N   0  0  0  0  0  0  0  0  0  0  0  0
    0.7400    1.2680    0.3090 C   0  0  0  0  0  0  0  0  0  0  0  0
    0.5460    2.4940    0.5550 O   0  0  0  0  0  0  0  0  0  0  0  0
    1.5940   -1.8440    5.2440 H   0  0  0  0  0  0  0  0  0  0  0  0
    1.9170   -0.3490    6.2060 H   0  0  0  0  0  0  0  0  0  0  0  0
    4.4220   -0.5680    6.4720 H   0  0  0  0  0  0  0  0  0  0  0  0
    2.6940   -1.2750    2.8730 H   0  0  0  0  0  0  0  0  0  0  0  0
    5.4130   -0.2400    3.0050 H   0  0  0  0  0  0  0  0  0  0  0  0
    4.4260    1.2020    3.2030 H   0  0  0  0  0  0  0  0  0  0  0  0
    4.4430   -0.5480    0.6580 H   0  0  0  0  0  0  0  0  0  0  0  0
    5.3090    0.9500    0.9400 H   0  0  0  0  0  0  0  0  0  0  0  0
    3.4280    1.3100   -0.4040 H   0  0  0  0  0  0  0  0  0  0  0  0
    3.1720    2.2190    1.1460 H   0  0  0  0  0  0  0  0  0  0  0  0
    1.6790    0.4970    1.9920 H   0  0  0  0  0  0  0  0  0  0  0  0
    2.6260   -1.4320    0.5640 H   0  0  0  0  0  0  0  0  0  0  0  0
    1.9640   -0.6120   -0.7560 H   0  0  0  0  0  0  0  0  0  0  0  0
   -0.1880    0.6810   -0.5500 N   0  0  0  0  0  0  0  0  0  0  0  0
   -1.3120    1.2180   -1.2030 C   0  0  1  0  0  0  0  0  0  0  0  0
   -1.4400    1.1610   -2.6370 C   0  0  0  0  0  0  0  0  0  0  0  0
   -1.4100   -0.2410   -3.1650 C   0  0  0  0  0  0  0  0  0  0  0  0
   -0.1790   -0.8110   -3.4550 C   0  0  0  0  0  0  0  0  0  0  0  0
   -0.1250   -2.0890   -3.9640 C   0  0  0  0  0  0  0  0  0  0  0  0
   -1.2650   -2.8260   -4.1950 C   0  0  0  0  0  0  0  0  0  0  0  0
   -2.4900   -2.2810   -3.9140 C   0  0  0  0  0  0  0  0  0  0  0  0
   -2.5330   -0.9930   -3.4020 C   0  0  0  0  0  0  0  0  0  0  0  0
   -2.5350    0.7110   -0.5450 C   0  0  0  0  0  0  0  0  0  0  0  0
   -3.7060    0.9260   -0.9430 O   0  0  0  0  0  0  0  0  0  0  0  0
   -0.0280   -0.3620   -0.7510 H   0  0  0  0  0  0  0  0  0  0  0  0
   -1.3120    2.3350   -0.9030 H   0  0  0  0  0  0  0  0  0  0  0  0
   -0.7630    1.7480   -3.2680 H   0  0  0  0  0  0  0  0  0  0  0  0
   -2.4760    1.5340   -2.9170 H   0  0  0  0  0  0  0  0  0  0  0  0
    0.7440   -0.2400   -3.2750 H   0  0  0  0  0  0  0  0  0  0  0  0
    0.8340   -2.5490   -4.1980 H   0  0  0  0  0  0  0  0  0  0  0  0
   -1.1960   -3.8390   -4.6000 H   0  0  0  0  0  0  0  0  0  0  0  0
   -3.4090   -2.8490   -4.0880 H   0  0  0  0  0  0  0  0  0  0  0  0
   -3.5170   -0.5940   -3.1950 H   0  0  0  0  0  0  0  0  0  0  0  0
   -2.4210   -0.0860    0.6400 N   0  0  0  0  0  0  0  0  0  0  0  0
   -3.5110   -0.6310    1.3730 C   0  0  1  0  0  0  0  0  0  0  0  0
   -3.2870   -2.0850    1.6910 C   0  0  0  0  0  0  0  0  0  0  0  0
   -3.1280   -2.9350    0.4590 C   0  0  0  0  0  0  0  0  0  0  0  0
   -2.8930   -4.3630    0.8140 C   0  0  0  0  0  0  0  0  0  0  0  0
   -2.8550   -4.7050    2.0250 O   0  0  0  0  0  0  0  0  0  0  0  0
   -3.6460    0.0710    2.6950 C   0  0  0  0  0  0  0  0  0  0  0  0
   -4.5610   -0.2750    3.4840 O   0  0  0  0  0  0  0  0  0  0  0  0
   -2.7130   -5.3340   -0.1440 O   0  0  0  0  0  0  0  0  0  0  0  0
   -2.7420    1.0750    2.9770 O   0  0  0  0  0  0  0  0  0  0  0  0
   -1.4400   -0.2820    0.9890 H   0  0  0  0  0  0  0  0  0  0  0  0
   -4.4350   -0.5100    0.7750 H   0  0  0  0  0  0  0  0  0  0  0  0
   -2.3310   -2.2010    2.2660 H   0  0  0  0  0  0  0  0  0  0  0  0
   -4.0660   -2.5170    2.3530 H   0  0  0  0  0  0  0  0  0  0  0  0
   -4.0850   -2.8830   -0.1350 H   0  0  0  0  0  0  0  0  0  0  0  0
   -2.2960   -2.5880   -0.1530 H   0  0  0  0  0  0  0  0  0  0  0  0
   -2.0690   -6.1180   -0.0200 H   0  0  0  0  0  0  0  0  0  0  0  0
  1 13  1  0  0  0  0
  2  3  2  0  0  0  0
  2  1  1  0  0  0  0
  3 14  1  0  0  0  0
  4  2  1  0  0  0  0
  5 16  1  0  0  0  0
  5 17  1  0  0  0  0
  5  4  1  0  0  0  0
  6  5  1  0  0  0  0
  7  8  1  0  0  0  0
  7 21  1  0  0  0  0
  7  6  1  0  0  0  0
  8 22  1  1  0  0  0
  9 23  1  0  0  0  0
  9  8  1  0  0  0  0
 10 11  2  0  0  0  0
 10  8  1  0  0  0  0
 12  1  1  0  0  0  0
 15  4  1  0  0  0  0
 18  6  1  0  0  0  0
 19  6  1  0  0  0  0
 20  7  1  0  0  0  0
 24  9  1  0  0  0  0
 25 10  1  0  0  0  0
 26 37  1  1  0  0  0
 26 25  1  0  0  0  0
 26 34  1  0  0  0  0
 27 26  1  0  0  0  0
 28 27  1  0  0  0  0
 29 40  1  0  0  0  0
 29 28  2  0  0  0  0
 30 29  1  0  0  0  0
 31 30  2  0  0  0  0
 31 32  1  0  0  0  0
 32 33  2  0  0  0  0
 33 44  1  0  0  0  0
 33 28  1  0  0  0  0
 34 45  1  0  0  0  0
 35 34  2  0  0  0  0
 36 25  1  0  0  0  0
 38 27  1  0  0  0  0
 39 27  1  0  0  0  0
 41 30  1  0  0  0  0
 42 31  1  0  0  0  0
 43 32  1  0  0  0  0
 45 55  1  0  0  0  0
 45 46  1  0  0  0  0
 46 56  1  6  0  0  0
 46 47  1  0  0  0  0
 46 51  1  0  0  0  0
 47 57  1  0  0  0  0
 47 58  1  0  0  0  0
 48 49  1  0  0  0  0
 48 47  1  0  0  0  0
 49 50  2  0  0  0  0
 51 54  2  0  0  0  0
 51 52  1  0  0  0  0
 53 61  1  0  0  0  0
 53 49  1  0  0  0  0
 59 48  1  0  0  0  0
 60 48  1  0  0  0  0
M  END
$$$$
