RFF.pdb
 OpenBabel07022418063D

 65 66  0  0  1  0  0  0  0  0999 V2000
    3.4250    1.9870    4.1780 N   0  0  0  0  0  0  0  0  0  0  0  0
    3.0730    3.2330    3.5820 C   0  0  0  0  0  0  0  0  0  0  0  0
    3.5080    4.3570    4.0550 N   0  0  0  0  0  0  0  0  0  0  0  0
    2.2280    3.2180    2.4700 N   0  0  0  0  0  0  0  0  0  0  0  0
    1.7770    4.4250    1.8020 C   0  0  0  0  0  0  0  0  0  0  0  0
    0.8240    4.0690    0.6400 C   0  0  0  0  0  0  0  0  0  0  0  0
   -0.3810    3.3730    1.1710 C   0  0  0  0  0  0  0  0  0  0  0  0
   -1.3790    2.9420    0.0990 C   0  0  2  0  0  0  0  0  0  0  0  0
   -2.4600    2.2820    0.8630 N   0  0  0  0  0  0  0  0  0  0  0  0
   -0.7540    1.9300   -0.7950 C   0  0  0  0  0  0  0  0  0  0  0  0
   -0.1000    2.2380   -1.8170 O   0  0  0  0  0  0  0  0  0  0  0  0
    3.9090    1.2610    3.6060 H   0  0  0  0  0  0  0  0  0  0  0  0
    3.1930    1.8090    5.1690 H   0  0  0  0  0  0  0  0  0  0  0  0
    4.1330    4.2920    4.9000 H   0  0  0  0  0  0  0  0  0  0  0  0
    1.8990    2.2900    2.0910 H   0  0  0  0  0  0  0  0  0  0  0  0
    1.2250    5.0340    2.5650 H   0  0  0  0  0  0  0  0  0  0  0  0
    2.5870    5.0220    1.3680 H   0  0  0  0  0  0  0  0  0  0  0  0
    1.3700    3.3820   -0.0080 H   0  0  0  0  0  0  0  0  0  0  0  0
    0.5680    4.9670    0.0620 H   0  0  0  0  0  0  0  0  0  0  0  0
   -0.0750    2.5010    1.7860 H   0  0  0  0  0  0  0  0  0  0  0  0
   -0.9110    4.0630    1.8850 H   0  0  0  0  0  0  0  0  0  0  0  0
   -1.8310    3.7940   -0.4110 H   0  0  0  0  0  0  0  0  0  0  0  0
   -3.3330    2.8780    0.8050 H   0  0  0  0  0  0  0  0  0  0  0  0
   -2.2120    2.2110    1.8600 H   0  0  0  0  0  0  0  0  0  0  0  0
   -0.8840    0.5480   -0.4950 N   0  0  0  0  0  0  0  0  0  0  0  0
   -0.3360   -0.5380   -1.2780 C   0  0  1  0  0  0  0  0  0  0  0  0
    1.0910   -0.8310   -0.8580 C   0  0  0  0  0  0  0  0  0  0  0  0
    1.6430   -1.9220   -1.6490 C   0  0  0  0  0  0  0  0  0  0  0  0
    1.7030   -3.2510   -1.2870 C   0  0  0  0  0  0  0  0  0  0  0  0
    2.2420   -4.2480   -2.1020 C   0  0  0  0  0  0  0  0  0  0  0  0
    2.7470   -3.9050   -3.3340 C   0  0  0  0  0  0  0  0  0  0  0  0
    2.7010   -2.5860   -3.7280 C   0  0  0  0  0  0  0  0  0  0  0  0
    2.1720   -1.6130   -2.9270 C   0  0  0  0  0  0  0  0  0  0  0  0
   -1.1290   -1.7670   -1.2540 C   0  0  0  0  0  0  0  0  0  0  0  0
   -0.7750   -2.7800   -1.9520 O   0  0  0  0  0  0  0  0  0  0  0  0
   -1.4170    0.3010    0.3660 H   0  0  0  0  0  0  0  0  0  0  0  0
   -0.2360   -0.1350   -2.3250 H   0  0  0  0  0  0  0  0  0  0  0  0
    1.7000    0.0870   -1.0900 H   0  0  0  0  0  0  0  0  0  0  0  0
    1.1680   -1.1200    0.2050 H   0  0  0  0  0  0  0  0  0  0  0  0
    1.3070   -3.5210   -0.3140 H   0  0  0  0  0  0  0  0  0  0  0  0
    2.2510   -5.2560   -1.7470 H   0  0  0  0  0  0  0  0  0  0  0  0
    3.1660   -4.6900   -3.9560 H   0  0  0  0  0  0  0  0  0  0  0  0
    3.1010   -2.3210   -4.6980 H   0  0  0  0  0  0  0  0  0  0  0  0
    2.1650   -0.5860   -3.2690 H   0  0  0  0  0  0  0  0  0  0  0  0
   -2.3120   -1.9760   -0.4950 N   0  0  0  0  0  0  0  0  0  0  0  0
   -3.0680   -3.2010   -0.4540 C   0  0  1  0  0  0  0  0  0  0  0  0
   -3.4010   -3.6690    0.9130 C   0  0  0  0  0  0  0  0  0  0  0  0
   -2.1800   -3.9240    1.7670 C   0  0  0  0  0  0  0  0  0  0  0  0
   -1.5560   -5.1380    1.8760 C   0  0  0  0  0  0  0  0  0  0  0  0
   -0.4340   -5.2940    2.6890 C   0  0  0  0  0  0  0  0  0  0  0  0
    0.0370   -4.1860    3.3900 C   0  0  0  0  0  0  0  0  0  0  0  0
   -0.5890   -2.9610    3.2800 C   0  0  0  0  0  0  0  0  0  0  0  0
   -1.6970   -2.8130    2.4750 C   0  0  0  0  0  0  0  0  0  0  0  0
   -4.3210   -3.1200   -1.2580 C   0  0  0  0  0  0  0  0  0  0  0  0
   -5.0860   -4.1090   -1.2060 O   0  0  0  0  0  0  0  0  0  0  0  0
   -4.6830   -2.0400   -2.0430 O   0  0  0  0  0  0  0  0  0  0  0  0
   -2.6780   -1.1920    0.0740 H   0  0  0  0  0  0  0  0  0  0  0  0
   -2.4660   -3.9860   -0.9660 H   0  0  0  0  0  0  0  0  0  0  0  0
   -3.9000   -4.6720    0.8090 H   0  0  0  0  0  0  0  0  0  0  0  0
   -4.1270   -3.0530    1.4830 H   0  0  0  0  0  0  0  0  0  0  0  0
   -1.9460   -6.0040    1.3170 H   0  0  0  0  0  0  0  0  0  0  0  0
    0.0480   -6.2440    2.7660 H   0  0  0  0  0  0  0  0  0  0  0  0
    0.8990   -4.3070    4.0190 H   0  0  0  0  0  0  0  0  0  0  0  0
   -0.2210   -2.0810    3.8220 H   0  0  0  0  0  0  0  0  0  0  0  0
   -2.2220   -1.8470    2.3560 H   0  0  0  0  0  0  0  0  0  0  0  0
  1 13  1  0  0  0  0
  2  3  2  0  0  0  0
  2  1  1  0  0  0  0
  3 14  1  0  0  0  0
  4  2  1  0  0  0  0
  5  4  1  0  0  0  0
  5 16  1  0  0  0  0
  6  7  1  0  0  0  0
  6  5  1  0  0  0  0
  7 20  1  0  0  0  0
  7 21  1  0  0  0  0
  8 22  1  6  0  0  0
  8  9  1  0  0  0  0
  8  7  1  0  0  0  0
  9 24  1  0  0  0  0
 10 25  1  0  0  0  0
 10  8  1  0  0  0  0
 11 10  2  0  0  0  0
 12  1  1  0  0  0  0
 15  4  1  0  0  0  0
 17  5  1  0  0  0  0
 18  6  1  0  0  0  0
 19  6  1  0  0  0  0
 23  9  1  0  0  0  0
 25 36  1  0  0  0  0
 26 37  1  6  0  0  0
 26 34  1  0  0  0  0
 26 27  1  0  0  0  0
 26 25  1  0  0  0  0
 27 39  1  0  0  0  0
 28 29  1  0  0  0  0
 28 27  1  0  0  0  0
 29 40  1  0  0  0  0
 30 41  1  0  0  0  0
 30 29  2  0  0  0  0
 31 30  1  0  0  0  0
 32 31  2  0  0  0  0
 32 33  1  0  0  0  0
 33 28  2  0  0  0  0
 34 45  1  0  0  0  0
 35 34  2  0  0  0  0
 38 27  1  0  0  0  0
 42 31  1  0  0  0  0
 43 32  1  0  0  0  0
 44 33  1  0  0  0  0
 45 46  1  0  0  0  0
 45 57  1  0  0  0  0
 46 58  1  6  0  0  0
 46 47  1  0  0  0  0
 47 60  1  0  0  0  0
 47 48  1  0  0  0  0
 48 49  2  0  0  0  0
 48 53  1  0  0  0  0
 49 50  1  0  0  0  0
 50 62  1  0  0  0  0
 50 51  2  0  0  0  0
 51 63  1  0  0  0  0
 52 51  1  0  0  0  0
 52 64  1  0  0  0  0
 53 52  2  0  0  0  0
 54 55  1  0  0  0  0
 54 46  1  0  0  0  0
 56 54  2  0  0  0  0
 59 47  1  0  0  0  0
 61 49  1  0  0  0  0
 65 53  1  0  0  0  0
M  END
$$$$
