RFI.pdb
 OpenBabel07022418063D

 64 64  0  0  1  0  0  0  0  0999 V2000
    0.3420   -2.4060    3.8060 N   0  0  0  0  0  0  0  0  0  0  0  0
    0.8450   -1.2070    4.3460 C   0  0  0  0  0  0  0  0  0  0  0  0
    0.1150   -0.3630    4.9810 N   0  0  0  0  0  0  0  0  0  0  0  0
    2.2270   -0.8810    4.2190 N   0  0  0  0  0  0  0  0  0  0  0  0
    2.7010    0.4510    4.4350 C   0  0  0  0  0  0  0  0  0  0  0  0
    2.3000    1.4440    3.3840 C   0  0  0  0  0  0  0  0  0  0  0  0
    2.8530    1.0320    2.0380 C   0  0  0  0  0  0  0  0  0  0  0  0
    2.5410    2.0360    0.9880 C   0  0  2  0  0  0  0  0  0  0  0  0
    3.1320    3.3170    1.4170 N   0  0  0  0  0  0  0  0  0  0  0  0
    1.1480    2.2240    0.6020 C   0  0  0  0  0  0  0  0  0  0  0  0
    0.5590    3.2810    0.9360 O   0  0  0  0  0  0  0  0  0  0  0  0
   -0.6490   -2.6830    3.9190 H   0  0  0  0  0  0  0  0  0  0  0  0
    0.9460   -3.0570    3.2740 H   0  0  0  0  0  0  0  0  0  0  0  0
   -0.8860   -0.4680    5.1580 H   0  0  0  0  0  0  0  0  0  0  0  0
    2.9030   -1.6240    3.9660 H   0  0  0  0  0  0  0  0  0  0  0  0
    3.8070    0.4560    4.5760 H   0  0  0  0  0  0  0  0  0  0  0  0
    2.2470    0.8080    5.3950 H   0  0  0  0  0  0  0  0  0  0  0  0
    2.7670    2.4130    3.6460 H   0  0  0  0  0  0  0  0  0  0  0  0
    1.1870    1.5110    3.3530 H   0  0  0  0  0  0  0  0  0  0  0  0
    3.9480    0.9030    2.1860 H   0  0  0  0  0  0  0  0  0  0  0  0
    2.4920   -0.0000    1.7720 H   0  0  0  0  0  0  0  0  0  0  0  0
    3.1870    1.7590    0.0920 H   0  0  0  0  0  0  0  0  0  0  0  0
    2.5470    3.7720    2.1430 H   0  0  0  0  0  0  0  0  0  0  0  0
    3.3080    3.9270    0.5910 H   0  0  0  0  0  0  0  0  0  0  0  0
    0.3930    1.2880   -0.1450 N   0  0  0  0  0  0  0  0  0  0  0  0
   -0.9380    1.4200   -0.5690 C   0  0  1  0  0  0  0  0  0  0  0  0
   -1.1530    1.7390   -2.0190 C   0  0  0  0  0  0  0  0  0  0  0  0
   -0.6020    0.7330   -2.9600 C   0  0  0  0  0  0  0  0  0  0  0  0
    0.7060    0.7960   -3.4220 C   0  0  0  0  0  0  0  0  0  0  0  0
    1.2240   -0.1280   -4.3000 C   0  0  0  0  0  0  0  0  0  0  0  0
    0.4480   -1.1640   -4.7580 C   0  0  0  0  0  0  0  0  0  0  0  0
   -0.8410   -1.2660   -4.3340 C   0  0  0  0  0  0  0  0  0  0  0  0
   -1.3520   -0.3200   -3.4420 C   0  0  0  0  0  0  0  0  0  0  0  0
   -1.8030    0.2880   -0.2130 C   0  0  0  0  0  0  0  0  0  0  0  0
   -3.0380    0.2590   -0.5800 O   0  0  0  0  0  0  0  0  0  0  0  0
    0.8960    0.4090   -0.4000 H   0  0  0  0  0  0  0  0  0  0  0  0
   -1.3540    2.3300   -0.0280 H   0  0  0  0  0  0  0  0  0  0  0  0
   -0.9070    2.7770   -2.2980 H   0  0  0  0  0  0  0  0  0  0  0  0
   -2.2740    1.6810   -2.1520 H   0  0  0  0  0  0  0  0  0  0  0  0
    1.3310    1.6010   -3.0740 H   0  0  0  0  0  0  0  0  0  0  0  0
    2.2550   -0.0660   -4.6540 H   0  0  0  0  0  0  0  0  0  0  0  0
    0.8210   -1.9070   -5.4480 H   0  0  0  0  0  0  0  0  0  0  0  0
   -1.5100   -2.0730   -4.6660 H   0  0  0  0  0  0  0  0  0  0  0  0
   -2.3700   -0.4240   -3.1290 H   0  0  0  0  0  0  0  0  0  0  0  0
   -2.7810   -3.2470   -1.8770 C   0  0  0  0  0  0  0  0  0  0  0  0
   -1.4720   -3.2160   -1.1250 C   0  0  0  0  0  0  0  0  0  0  0  0
   -1.6950   -3.2230    0.3790 C   0  0  2  0  0  0  0  0  0  0  0  0
   -2.4400   -4.4630    0.8050 C   0  0  0  0  0  0  0  0  0  0  0  0
   -2.3120   -1.9530    0.8490 C   0  0  2  0  0  0  0  0  0  0  0  0
   -1.4380   -0.8480    0.5250 N   0  0  0  0  0  0  0  0  0  0  0  0
   -2.8400   -1.9380    2.1960 C   0  0  0  0  0  0  0  0  0  0  0  0
   -3.5710   -2.8490    2.6200 O   0  0  0  0  0  0  0  0  0  0  0  0
   -2.5560   -0.9130    3.0650 O   0  0  0  0  0  0  0  0  0  0  0  0
   -2.5510   -3.5340   -2.9160 H   0  0  0  0  0  0  0  0  0  0  0  0
   -3.2650   -2.2700   -1.8940 H   0  0  0  0  0  0  0  0  0  0  0  0
   -3.3970   -4.0590   -1.4510 H   0  0  0  0  0  0  0  0  0  0  0  0
   -0.8530   -4.0680   -1.4210 H   0  0  0  0  0  0  0  0  0  0  0  0
   -0.9350   -2.2700   -1.3450 H   0  0  0  0  0  0  0  0  0  0  0  0
   -0.6580   -3.3310    0.8150 H   0  0  0  0  0  0  0  0  0  0  0  0
   -3.5170   -4.4310    0.5510 H   0  0  0  0  0  0  0  0  0  0  0  0
   -2.0260   -5.3320    0.2490 H   0  0  0  0  0  0  0  0  0  0  0  0
   -2.2590   -4.6780    1.8800 H   0  0  0  0  0  0  0  0  0  0  0  0
   -3.2240   -1.7740    0.1830 H   0  0  0  0  0  0  0  0  0  0  0  0
   -0.4540   -0.9200    0.8800 H   0  0  0  0  0  0  0  0  0  0  0  0
  1 12  1  0  0  0  0
  1  2  1  0  0  0  0
  2  3  2  0  0  0  0
  3 14  1  0  0  0  0
  4  2  1  0  0  0  0
  4  5  1  0  0  0  0
  5 16  1  0  0  0  0
  5 17  1  0  0  0  0
  6 18  1  0  0  0  0
  6  5  1  0  0  0  0
  7 20  1  0  0  0  0
  7  6  1  0  0  0  0
  8 22  1  6  0  0  0
  8  9  1  0  0  0  0
  8  7  1  0  0  0  0
  9 23  1  0  0  0  0
 10 11  2  0  0  0  0
 10  8  1  0  0  0  0
 13  1  1  0  0  0  0
 15  4  1  0  0  0  0
 19  6  1  0  0  0  0
 21  7  1  0  0  0  0
 24  9  1  0  0  0  0
 25 10  1  0  0  0  0
 26 34  1  0  0  0  0
 26 25  1  0  0  0  0
 26 37  1  1  0  0  0
 27 26  1  0  0  0  0
 28 27  1  0  0  0  0
 29 40  1  0  0  0  0
 29 28  1  0  0  0  0
 30 29  2  0  0  0  0
 31 32  2  0  0  0  0
 31 30  1  0  0  0  0
 32 33  1  0  0  0  0
 33 44  1  0  0  0  0
 33 28  2  0  0  0  0
 34 50  1  0  0  0  0
 35 34  2  0  0  0  0
 36 25  1  0  0  0  0
 38 27  1  0  0  0  0
 39 27  1  0  0  0  0
 41 30  1  0  0  0  0
 42 31  1  0  0  0  0
 43 32  1  0  0  0  0
 45 56  1  0  0  0  0
 45 46  1  0  0  0  0
 46 47  1  0  0  0  0
 47 48  1  0  0  0  0
 47 59  1  1  0  0  0
 47 49  1  0  0  0  0
 48 62  1  0  0  0  0
 49 63  1  6  0  0  0
 49 51  1  0  0  0  0
 50 49  1  0  0  0  0
 50 64  1  0  0  0  0
 51 52  2  0  0  0  0
 51 53  1  0  0  0  0
 54 45  1  0  0  0  0
 55 45  1  0  0  0  0
 57 46  1  0  0  0  0
 58 46  1  0  0  0  0
 60 48  1  0  0  0  0
 61 48  1  0  0  0  0
M  END
$$$$
