RFK.pdb
 OpenBabel07022418063D

 66 66  0  0  1  0  0  0  0  0999 V2000
    1.5300    0.7800    5.5550 N   0  0  0  0  0  0  0  0  0  0  0  0
    2.1430    1.6930    4.6670 C   0  0  0  0  0  0  0  0  0  0  0  0
    3.4010    1.6240    4.4070 N   0  0  0  0  0  0  0  0  0  0  0  0
    1.3450    2.6940    4.0600 N   0  0  0  0  0  0  0  0  0  0  0  0
    1.8980    3.8330    3.3930 C   0  0  0  0  0  0  0  0  0  0  0  0
    2.6430    3.5790    2.1340 C   0  0  0  0  0  0  0  0  0  0  0  0
    1.9250    2.9620    1.0060 C   0  0  0  0  0  0  0  0  0  0  0  0
    1.3180    1.6240    1.2000 C   0  0  2  0  0  0  0  0  0  0  0  0
    2.2640    0.6040    1.5640 N   0  0  0  0  0  0  0  0  0  0  0  0
    0.5560    1.2020   -0.0450 C   0  0  0  0  0  0  0  0  0  0  0  0
   -0.1650    2.0150   -0.6540 O   0  0  0  0  0  0  0  0  0  0  0  0
    1.4660   -0.2340    5.3180 H   0  0  0  0  0  0  0  0  0  0  0  0
    1.1220    1.0550    6.4650 H   0  0  0  0  0  0  0  0  0  0  0  0
    3.9940    0.8860    4.8520 H   0  0  0  0  0  0  0  0  0  0  0  0
    0.3030    2.5860    4.1170 H   0  0  0  0  0  0  0  0  0  0  0  0
    2.6500    4.2660    4.1240 H   0  0  0  0  0  0  0  0  0  0  0  0
    1.1560    4.6600    3.2740 H   0  0  0  0  0  0  0  0  0  0  0  0
    3.6230    3.1070    2.3760 H   0  0  0  0  0  0  0  0  0  0  0  0
    2.9640    4.6130    1.7680 H   0  0  0  0  0  0  0  0  0  0  0  0
    2.6440    2.9030    0.1380 H   0  0  0  0  0  0  0  0  0  0  0  0
    1.1360    3.6740    0.6550 H   0  0  0  0  0  0  0  0  0  0  0  0
    0.5300    1.6410    1.9820 H   0  0  0  0  0  0  0  0  0  0  0  0
    1.8430   -0.2830    1.8450 H   0  0  0  0  0  0  0  0  0  0  0  0
    3.0720    0.5170    0.9080 H   0  0  0  0  0  0  0  0  0  0  0  0
    0.6410   -0.1190   -0.5500 N   0  0  0  0  0  0  0  0  0  0  0  0
   -0.0390   -0.5960   -1.7390 C   0  0  1  0  0  0  0  0  0  0  0  0
    0.8810   -1.1370   -2.7530 C   0  0  0  0  0  0  0  0  0  0  0  0
    0.1640   -1.6110   -3.9530 C   0  0  0  0  0  0  0  0  0  0  0  0
   -0.1900   -2.9430   -4.1720 C   0  0  0  0  0  0  0  0  0  0  0  0
   -0.8580   -3.3830   -5.2820 C   0  0  0  0  0  0  0  0  0  0  0  0
   -1.2170   -2.4800   -6.2630 C   0  0  0  0  0  0  0  0  0  0  0  0
   -0.8860   -1.1520   -6.0850 C   0  0  0  0  0  0  0  0  0  0  0  0
   -0.2140   -0.7190   -4.9670 C   0  0  0  0  0  0  0  0  0  0  0  0
   -1.1590   -1.4750   -1.4590 C   0  0  0  0  0  0  0  0  0  0  0  0
   -1.8420   -1.9200   -2.4190 O   0  0  0  0  0  0  0  0  0  0  0  0
    1.2360   -0.7970   -0.0300 H   0  0  0  0  0  0  0  0  0  0  0  0
   -0.4970    0.3470   -2.1820 H   0  0  0  0  0  0  0  0  0  0  0  0
    1.4700   -2.0260   -2.3940 H   0  0  0  0  0  0  0  0  0  0  0  0
    1.6110   -0.3590   -3.1360 H   0  0  0  0  0  0  0  0  0  0  0  0
    0.0780   -3.6830   -3.4180 H   0  0  0  0  0  0  0  0  0  0  0  0
   -1.1170   -4.4190   -5.4270 H   0  0  0  0  0  0  0  0  0  0  0  0
   -1.7490   -2.7990   -7.1620 H   0  0  0  0  0  0  0  0  0  0  0  0
   -1.1770   -0.4470   -6.8640 H   0  0  0  0  0  0  0  0  0  0  0  0
    0.0490    0.3380   -4.8290 H   0  0  0  0  0  0  0  0  0  0  0  0
   -1.5710   -1.8940   -0.1250 N   0  0  0  0  0  0  0  0  0  0  0  0
   -2.6830   -2.7570    0.0330 C   0  0  1  0  0  0  0  0  0  0  0  0
   -2.6540   -3.8230    1.0470 C   0  0  0  0  0  0  0  0  0  0  0  0
   -2.5550   -3.5180    2.4730 C   0  0  0  0  0  0  0  0  0  0  0  0
   -1.4190   -2.7790    3.0390 C   0  0  0  0  0  0  0  0  0  0  0  0
   -0.0560   -3.3770    2.8370 C   0  0  0  0  0  0  0  0  0  0  0  0
    0.9030   -2.5020    3.4860 N   0  0  0  0  0  0  0  0  0  0  0  0
   -3.8860   -1.8520    0.2340 C   0  0  0  0  0  0  0  0  0  0  0  0
   -3.7090   -0.6330    0.2230 O   0  0  0  0  0  0  0  0  0  0  0  0
   -5.1420   -2.3700    0.4250 O   0  0  0  0  0  0  0  0  0  0  0  0
   -1.0090   -1.5300    0.6430 H   0  0  0  0  0  0  0  0  0  0  0  0
   -2.9580   -3.2430   -0.9650 H   0  0  0  0  0  0  0  0  0  0  0  0
   -3.6230   -4.4170    0.8780 H   0  0  0  0  0  0  0  0  0  0  0  0
   -1.8880   -4.5720    0.7190 H   0  0  0  0  0  0  0  0  0  0  0  0
   -2.5910   -4.5180    3.0310 H   0  0  0  0  0  0  0  0  0  0  0  0
   -3.5160   -3.0390    2.8630 H   0  0  0  0  0  0  0  0  0  0  0  0
   -1.5420   -2.8110    4.1950 H   0  0  0  0  0  0  0  0  0  0  0  0
   -1.3910   -1.6860    2.8720 H   0  0  0  0  0  0  0  0  0  0  0  0
    0.2520   -3.4590    1.7800 H   0  0  0  0  0  0  0  0  0  0  0  0
   -0.0150   -4.3600    3.3790 H   0  0  0  0  0  0  0  0  0  0  0  0
    0.6320   -1.5150    3.4740 H   0  0  0  0  0  0  0  0  0  0  0  0
    1.8790   -2.6800    3.1740 H   0  0  0  0  0  0  0  0  0  0  0  0
  1 13  1  0  0  0  0
  2  1  1  0  0  0  0
  3  2  2  0  0  0  0
  3 14  1  0  0  0  0
  4 15  1  0  0  0  0
  4  2  1  0  0  0  0
  5  4  1  0  0  0  0
  5 16  1  0  0  0  0
  6 18  1  0  0  0  0
  6  5  1  0  0  0  0
  7  8  1  0  0  0  0
  7  6  1  0  0  0  0
  8  9  1  0  0  0  0
  8 22  1  1  0  0  0
  9 23  1  0  0  0  0
 10  8  1  0  0  0  0
 11 10  2  0  0  0  0
 12  1  1  0  0  0  0
 17  5  1  0  0  0  0
 19  6  1  0  0  0  0
 20  7  1  0  0  0  0
 21  7  1  0  0  0  0
 24  9  1  0  0  0  0
 25 10  1  0  0  0  0
 25 36  1  0  0  0  0
 26 37  1  6  0  0  0
 26 34  1  0  0  0  0
 26 25  1  0  0  0  0
 27 38  1  0  0  0  0
 27 26  1  0  0  0  0
 28 27  1  0  0  0  0
 29 28  1  0  0  0  0
 29 40  1  0  0  0  0
 30 29  2  0  0  0  0
 31 32  2  0  0  0  0
 31 30  1  0  0  0  0
 32 33  1  0  0  0  0
 33 44  1  0  0  0  0
 33 28  2  0  0  0  0
 34 45  1  0  0  0  0
 35 34  2  0  0  0  0
 39 27  1  0  0  0  0
 41 30  1  0  0  0  0
 42 31  1  0  0  0  0
 43 32  1  0  0  0  0
 45 46  1  0  0  0  0
 45 55  1  0  0  0  0
 46 56  1  6  0  0  0
 46 52  1  0  0  0  0
 46 47  1  0  0  0  0
 47 48  1  0  0  0  0
 48 60  1  0  0  0  0
 48 59  1  0  0  0  0
 48 49  1  0  0  0  0
 49 61  1  0  0  0  0
 50 49  1  0  0  0  0
 50 64  1  0  0  0  0
 50 51  1  0  0  0  0
 52 54  1  0  0  0  0
 53 52  2  0  0  0  0
 57 47  1  0  0  0  0
 58 47  1  0  0  0  0
 62 49  1  0  0  0  0
 63 50  1  0  0  0  0
 65 51  1  0  0  0  0
 66 51  1  0  0  0  0
M  END
$$$$
