RFM.pdb
 OpenBabel07022418063D

 62 62  0  0  1  0  0  0  0  0999 V2000
    4.4060   -2.2150    1.6200 N   0  0  0  0  0  0  0  0  0  0  0  0
    3.8170   -0.9510    1.8690 C   0  0  0  0  0  0  0  0  0  0  0  0
    2.7310   -0.8320    2.5540 N   0  0  0  0  0  0  0  0  0  0  0  0
    4.4390    0.2420    1.3760 N   0  0  0  0  0  0  0  0  0  0  0  0
    4.0010    1.5030    1.8870 C   0  0  0  0  0  0  0  0  0  0  0  0
    2.6340    1.9500    1.4530 C   0  0  0  0  0  0  0  0  0  0  0  0
    2.6430    2.1250   -0.0500 C   0  0  0  0  0  0  0  0  0  0  0  0
    1.3440    2.6280   -0.5880 C   0  0  2  0  0  0  0  0  0  0  0  0
    0.9740    3.8970    0.0070 N   0  0  0  0  0  0  0  0  0  0  0  0
    0.2190    1.6900   -0.4400 C   0  0  0  0  0  0  0  0  0  0  0  0
   -0.0600    0.9220   -1.4040 O   0  0  0  0  0  0  0  0  0  0  0  0
    4.6700   -2.4530    0.6400 H   0  0  0  0  0  0  0  0  0  0  0  0
    4.5520   -2.8660    2.4310 H   0  0  0  0  0  0  0  0  0  0  0  0
    2.2530   -1.6580    2.9490 H   0  0  0  0  0  0  0  0  0  0  0  0
    5.1860    0.0970    0.6600 H   0  0  0  0  0  0  0  0  0  0  0  0
    4.7250    2.2660    1.4890 H   0  0  0  0  0  0  0  0  0  0  0  0
    4.0670    1.5490    3.0120 H   0  0  0  0  0  0  0  0  0  0  0  0
    2.4690    2.9420    1.9450 H   0  0  0  0  0  0  0  0  0  0  0  0
    1.8920    1.2280    1.7880 H   0  0  0  0  0  0  0  0  0  0  0  0
    3.5010    2.7700   -0.3100 H   0  0  0  0  0  0  0  0  0  0  0  0
    2.8640    1.1350   -0.4960 H   0  0  0  0  0  0  0  0  0  0  0  0
    1.5170    2.8320   -1.6810 H   0  0  0  0  0  0  0  0  0  0  0  0
    0.9550    3.9250    1.0230 H   0  0  0  0  0  0  0  0  0  0  0  0
    1.2410    4.7300   -0.5200 H   0  0  0  0  0  0  0  0  0  0  0  0
   -0.5640    1.6140    0.7370 N   0  0  0  0  0  0  0  0  0  0  0  0
   -1.6730    0.7670    0.9910 C   0  0  1  0  0  0  0  0  0  0  0  0
   -2.9830    1.4420    0.6640 C   0  0  0  0  0  0  0  0  0  0  0  0
   -4.2020    0.6590    0.8760 C   0  0  0  0  0  0  0  0  0  0  0  0
   -4.7830   -0.0080   -0.2070 C   0  0  0  0  0  0  0  0  0  0  0  0
   -5.9150   -0.7300    0.0150 C   0  0  0  0  0  0  0  0  0  0  0  0
   -6.5220   -0.8440    1.2390 C   0  0  0  0  0  0  0  0  0  0  0  0
   -5.9570   -0.1900    2.3120 C   0  0  0  0  0  0  0  0  0  0  0  0
   -4.8150    0.5480    2.1220 C   0  0  0  0  0  0  0  0  0  0  0  0
   -1.6130   -0.6440    0.6320 C   0  0  0  0  0  0  0  0  0  0  0  0
   -2.7150   -1.2850    0.7520 O   0  0  0  0  0  0  0  0  0  0  0  0
   -0.2320    2.3050    1.4950 H   0  0  0  0  0  0  0  0  0  0  0  0
   -1.7120    0.7060    2.1660 H   0  0  0  0  0  0  0  0  0  0  0  0
   -2.9820    1.8360   -0.3970 H   0  0  0  0  0  0  0  0  0  0  0  0
   -3.0840    2.3880    1.2730 H   0  0  0  0  0  0  0  0  0  0  0  0
   -4.3630    0.0360   -1.2030 H   0  0  0  0  0  0  0  0  0  0  0  0
   -6.3620   -1.2500   -0.8490 H   0  0  0  0  0  0  0  0  0  0  0  0
   -7.4210   -1.4410    1.3210 H   0  0  0  0  0  0  0  0  0  0  0  0
   -6.4580   -0.2980    3.2650 H   0  0  0  0  0  0  0  0  0  0  0  0
   -4.3680    1.0660    2.9680 H   0  0  0  0  0  0  0  0  0  0  0  0
    1.3340   -6.0530   -1.5740 C   0  0  0  0  0  0  0  0  0  0  0  0
    0.2310   -5.2570   -2.6320 S   0  0  0  0  0  0  0  0  0  0  0  0
   -1.1320   -4.2680   -2.2110 C   0  0  0  0  0  0  0  0  0  0  0  0
   -0.9980   -2.9540   -1.5730 C   0  0  0  0  0  0  0  0  0  0  0  0
   -0.6990   -2.8190   -0.1520 C   0  0  2  0  0  0  0  0  0  0  0  0
   -0.5250   -1.3850    0.1820 N   0  0  0  0  0  0  0  0  0  0  0  0
    0.2580   -3.6790    0.5020 C   0  0  0  0  0  0  0  0  0  0  0  0
    0.0040   -4.9020    0.7900 O   0  0  0  0  0  0  0  0  0  0  0  0
    1.5250   -3.1920    0.8490 O   0  0  0  0  0  0  0  0  0  0  0  0
    0.8000   -6.7930   -0.9150 H   0  0  0  0  0  0  0  0  0  0  0  0
    2.0110   -5.3800   -0.9700 H   0  0  0  0  0  0  0  0  0  0  0  0
    2.0770   -6.6690   -2.1990 H   0  0  0  0  0  0  0  0  0  0  0  0
   -1.7290   -4.0890   -3.2020 H   0  0  0  0  0  0  0  0  0  0  0  0
   -1.9350   -4.8880   -1.6180 H   0  0  0  0  0  0  0  0  0  0  0  0
   -1.9870   -2.3730   -1.7370 H   0  0  0  0  0  0  0  0  0  0  0  0
   -0.2280   -2.3950   -2.2240 H   0  0  0  0  0  0  0  0  0  0  0  0
   -1.7110   -3.0850    0.3650 H   0  0  0  0  0  0  0  0  0  0  0  0
    0.4400   -1.0110    0.0870 H   0  0  0  0  0  0  0  0  0  0  0  0
  1  2  1  0  0  0  0
  1 13  1  0  0  0  0
  2  3  2  0  0  0  0
  3 14  1  0  0  0  0
  4  2  1  0  0  0  0
  4  5  1  0  0  0  0
  5 17  1  0  0  0  0
  6 19  1  0  0  0  0
  6  5  1  0  0  0  0
  6 18  1  0  0  0  0
  7  6  1  0  0  0  0
  8 22  1  6  0  0  0
  8 10  1  0  0  0  0
  8  7  1  0  0  0  0
  8  9  1  0  0  0  0
  9 23  1  0  0  0  0
 10 25  1  0  0  0  0
 11 10  2  0  0  0  0
 12  1  1  0  0  0  0
 15  4  1  0  0  0  0
 16  5  1  0  0  0  0
 20  7  1  0  0  0  0
 21  7  1  0  0  0  0
 24  9  1  0  0  0  0
 25 26  1  0  0  0  0
 25 36  1  0  0  0  0
 26 37  1  1  0  0  0
 27 28  1  0  0  0  0
 27 26  1  0  0  0  0
 27 39  1  0  0  0  0
 28 33  1  0  0  0  0
 29 30  1  0  0  0  0
 29 28  2  0  0  0  0
 30 31  2  0  0  0  0
 31 42  1  0  0  0  0
 31 32  1  0  0  0  0
 32 43  1  0  0  0  0
 33 32  2  0  0  0  0
 33 44  1  0  0  0  0
 34 35  2  0  0  0  0
 34 26  1  0  0  0  0
 38 27  1  0  0  0  0
 40 29  1  0  0  0  0
 41 30  1  0  0  0  0
 45 55  1  0  0  0  0
 45 54  1  0  0  0  0
 46 47  1  0  0  0  0
 46 45  1  0  0  0  0
 47 58  1  0  0  0  0
 47 48  1  0  0  0  0
 48 49  1  0  0  0  0
 49 50  1  0  0  0  0
 49 61  1  1  0  0  0
 49 51  1  0  0  0  0
 50 34  1  0  0  0  0
 51 52  2  0  0  0  0
 51 53  1  0  0  0  0
 56 45  1  0  0  0  0
 57 47  1  0  0  0  0
 59 48  1  0  0  0  0
 60 48  1  0  0  0  0
 62 50  1  0  0  0  0
M  END
$$$$
