RFP.pdb
 OpenBabel07022418063D

 59 60  0  0  1  0  0  0  0  0999 V2000
    4.2990   -3.6500    3.2430 N   0  0  0  0  0  0  0  0  0  0  0  0
    4.3910   -2.3850    3.9190 C   0  0  0  0  0  0  0  0  0  0  0  0
    4.6880   -2.3240    5.1760 N   0  0  0  0  0  0  0  0  0  0  0  0
    4.1630   -1.1350    3.2290 N   0  0  0  0  0  0  0  0  0  0  0  0
    3.5660   -0.0790    3.9770 C   0  0  0  0  0  0  0  0  0  0  0  0
    3.3220    1.1940    3.2920 C   0  0  0  0  0  0  0  0  0  0  0  0
    2.4470    1.2400    2.1090 C   0  0  0  0  0  0  0  0  0  0  0  0
    1.0090    0.7440    2.3860 C   0  0  2  0  0  0  0  0  0  0  0  0
    1.0610   -0.6110    2.8150 N   0  0  0  0  0  0  0  0  0  0  0  0
    0.1760    0.9830    1.1680 C   0  0  0  0  0  0  0  0  0  0  0  0
   -0.2430    2.1510    0.9840 O   0  0  0  0  0  0  0  0  0  0  0  0
    5.1350   -4.2050    2.9760 H   0  0  0  0  0  0  0  0  0  0  0  0
    3.3650   -4.0780    2.9850 H   0  0  0  0  0  0  0  0  0  0  0  0
    4.8530   -3.2420    5.6580 H   0  0  0  0  0  0  0  0  0  0  0  0
    4.4590   -1.1290    2.2310 H   0  0  0  0  0  0  0  0  0  0  0  0
    2.6360   -0.4070    4.5280 H   0  0  0  0  0  0  0  0  0  0  0  0
    4.2820    0.1210    4.8380 H   0  0  0  0  0  0  0  0  0  0  0  0
    4.3160    1.6460    2.9670 H   0  0  0  0  0  0  0  0  0  0  0  0
    2.9430    1.9690    4.0230 H   0  0  0  0  0  0  0  0  0  0  0  0
    2.3370    2.3130    1.8140 H   0  0  0  0  0  0  0  0  0  0  0  0
    2.8060    0.7210    1.2040 H   0  0  0  0  0  0  0  0  0  0  0  0
    0.5520    1.3520    3.1930 H   0  0  0  0  0  0  0  0  0  0  0  0
    1.2470   -1.3390    2.1370 H   0  0  0  0  0  0  0  0  0  0  0  0
    0.4210   -0.8520    3.6040 H   0  0  0  0  0  0  0  0  0  0  0  0
   -0.1480   -0.0500    0.2290 N   0  0  0  0  0  0  0  0  0  0  0  0
   -0.9540    0.1850   -0.9200 C   0  0  1  0  0  0  0  0  0  0  0  0
   -0.0520    0.1520   -2.1510 C   0  0  0  0  0  0  0  0  0  0  0  0
   -0.7620    0.3730   -3.4270 C   0  0  0  0  0  0  0  0  0  0  0  0
   -1.1930   -0.7050   -4.1680 C   0  0  0  0  0  0  0  0  0  0  0  0
   -1.8490   -0.4720   -5.3500 C   0  0  0  0  0  0  0  0  0  0  0  0
   -2.0860    0.8160   -5.8130 C   0  0  0  0  0  0  0  0  0  0  0  0
   -1.6430    1.8750   -5.0520 C   0  0  0  0  0  0  0  0  0  0  0  0
   -0.9890    1.6540   -3.8730 C   0  0  0  0  0  0  0  0  0  0  0  0
   -2.1970   -0.5440   -1.0520 C   0  0  0  0  0  0  0  0  0  0  0  0
   -2.8730   -0.2880   -2.1200 O   0  0  0  0  0  0  0  0  0  0  0  0
    0.2630   -0.9850    0.4240 H   0  0  0  0  0  0  0  0  0  0  0  0
   -1.2670    1.2820   -0.8610 H   0  0  0  0  0  0  0  0  0  0  0  0
    0.7180    0.9620   -2.0940 H   0  0  0  0  0  0  0  0  0  0  0  0
    0.5490   -0.8010   -2.1430 H   0  0  0  0  0  0  0  0  0  0  0  0
   -1.0100   -1.7200   -3.8110 H   0  0  0  0  0  0  0  0  0  0  0  0
   -2.1930   -1.3250   -5.9510 H   0  0  0  0  0  0  0  0  0  0  0  0
   -2.6000    0.9760   -6.7390 H   0  0  0  0  0  0  0  0  0  0  0  0
   -1.8180    2.9090   -5.4000 H   0  0  0  0  0  0  0  0  0  0  0  0
   -0.6500    2.5270   -3.2930 H   0  0  0  0  0  0  0  0  0  0  0  0
   -2.7940   -1.4940   -0.1980 N   0  0  0  0  0  0  0  0  0  0  0  0
   -4.0100   -2.1790   -0.4840 C   0  0  0  0  0  0  0  0  0  0  0  0
   -4.6140   -2.4700    0.8480 C   0  0  0  0  0  0  0  0  0  0  0  0
   -3.5290   -2.2540    1.8670 C   0  0  0  0  0  0  0  0  0  0  0  0
   -2.2960   -1.9080    1.0550 C   0  0  1  0  0  0  0  0  0  0  0  0
   -1.4940   -3.1630    1.0080 C   0  0  0  0  0  0  0  0  0  0  0  0
   -1.0480   -3.6000    2.0910 O   0  0  0  0  0  0  0  0  0  0  0  0
   -1.2170   -3.8610   -0.1500 O   0  0  0  0  0  0  0  0  0  0  0  0
   -4.7370   -1.5550   -1.0640 H   0  0  0  0  0  0  0  0  0  0  0  0
   -3.8570   -3.1000   -1.1010 H   0  0  0  0  0  0  0  0  0  0  0  0
   -5.4870   -1.7830    1.0300 H   0  0  0  0  0  0  0  0  0  0  0  0
   -5.0540   -3.4940    0.9160 H   0  0  0  0  0  0  0  0  0  0  0  0
   -3.7580   -1.4430    2.5810 H   0  0  0  0  0  0  0  0  0  0  0  0
   -3.4060   -3.1840    2.4660 H   0  0  0  0  0  0  0  0  0  0  0  0
   -1.7410   -1.0970    1.6040 H   0  0  0  0  0  0  0  0  0  0  0  0
  1  2  1  0  0  0  0
  2  3  2  0  0  0  0
  3 14  1  0  0  0  0
  4  2  1  0  0  0  0
  4  5  1  0  0  0  0
  5 16  1  0  0  0  0
  5 17  1  0  0  0  0
  6  5  1  0  0  0  0
  6 19  1  0  0  0  0
  7  8  1  0  0  0  0
  7  6  1  0  0  0  0
  8  9  1  0  0  0  0
  8 22  1  1  0  0  0
  9 24  1  0  0  0  0
 10  8  1  0  0  0  0
 11 10  2  0  0  0  0
 12  1  1  0  0  0  0
 13  1  1  0  0  0  0
 15  4  1  0  0  0  0
 18  6  1  0  0  0  0
 20  7  1  0  0  0  0
 21  7  1  0  0  0  0
 23  9  1  0  0  0  0
 25 36  1  0  0  0  0
 25 10  1  0  0  0  0
 26 37  1  1  0  0  0
 26 25  1  0  0  0  0
 27 39  1  0  0  0  0
 27 38  1  0  0  0  0
 27 26  1  0  0  0  0
 28 27  1  0  0  0  0
 29 40  1  0  0  0  0
 29 28  2  0  0  0  0
 30 29  1  0  0  0  0
 31 30  2  0  0  0  0
 31 32  1  0  0  0  0
 32 33  2  0  0  0  0
 33 28  1  0  0  0  0
 33 44  1  0  0  0  0
 34 26  1  0  0  0  0
 34 45  1  0  0  0  0
 35 34  2  0  0  0  0
 41 30  1  0  0  0  0
 42 31  1  0  0  0  0
 43 32  1  0  0  0  0
 45 49  1  0  0  0  0
 46 45  1  0  0  0  0
 46 47  1  0  0  0  0
 47 56  1  0  0  0  0
 47 55  1  0  0  0  0
 47 48  1  0  0  0  0
 48 58  1  0  0  0  0
 48 57  1  0  0  0  0
 49 59  1  1  0  0  0
 49 48  1  0  0  0  0
 50 49  1  0  0  0  0
 50 51  1  0  0  0  0
 52 50  2  0  0  0  0
 53 46  1  0  0  0  0
 54 46  1  0  0  0  0
M  END
$$$$
