RFS.pdb
 OpenBabel07022418063D

 56 56  0  0  1  0  0  0  0  0999 V2000
    5.6880   -2.5540    1.7240 N   0  0  0  0  0  0  0  0  0  0  0  0
    5.3790   -1.7390    2.8310 C   0  0  0  0  0  0  0  0  0  0  0  0
    5.7490   -2.0260    4.0550 N   0  0  0  0  0  0  0  0  0  0  0  0
    4.6150   -0.5090    2.6470 N   0  0  0  0  0  0  0  0  0  0  0  0
    4.0560    0.0580    3.8240 C   0  0  0  0  0  0  0  0  0  0  0  0
    3.2010    1.2490    3.7320 C   0  0  0  0  0  0  0  0  0  0  0  0
    1.9160    1.1690    3.0140 C   0  0  0  0  0  0  0  0  0  0  0  0
    1.9110    0.8830    1.5570 C   0  0  2  0  0  0  0  0  0  0  0  0
    2.6410    1.9220    0.8230 N   0  0  0  0  0  0  0  0  0  0  0  0
    0.5040    0.9540    1.0090 C   0  0  0  0  0  0  0  0  0  0  0  0
   -0.2280    1.9500    1.2240 O   0  0  0  0  0  0  0  0  0  0  0  0
    6.5260   -2.3520    1.1500 H   0  0  0  0  0  0  0  0  0  0  0  0
    5.0880   -3.3550    1.4670 H   0  0  0  0  0  0  0  0  0  0  0  0
    6.3050   -2.9410    4.1040 H   0  0  0  0  0  0  0  0  0  0  0  0
    4.5770   -0.1580    1.6690 H   0  0  0  0  0  0  0  0  0  0  0  0
    4.9370    0.2980    4.5090 H   0  0  0  0  0  0  0  0  0  0  0  0
    3.5000   -0.7180    4.4360 H   0  0  0  0  0  0  0  0  0  0  0  0
    3.7770    2.1600    3.3560 H   0  0  0  0  0  0  0  0  0  0  0  0
    2.9570    1.5670    4.7930 H   0  0  0  0  0  0  0  0  0  0  0  0
    1.2040    0.4440    3.5000 H   0  0  0  0  0  0  0  0  0  0  0  0
    1.3790    2.1630    3.1370 H   0  0  0  0  0  0  0  0  0  0  0  0
    2.3570   -0.0800    1.3330 H   0  0  0  0  0  0  0  0  0  0  0  0
    3.4770    1.5770    0.3330 H   0  0  0  0  0  0  0  0  0  0  0  0
    1.9980    2.5050    0.2440 H   0  0  0  0  0  0  0  0  0  0  0  0
   -0.0710   -0.0780    0.2310 N   0  0  0  0  0  0  0  0  0  0  0  0
   -1.4220   -0.0060   -0.2730 C   0  0  1  0  0  0  0  0  0  0  0  0
   -1.4660    0.8490   -1.5510 C   0  0  0  0  0  0  0  0  0  0  0  0
   -2.8590    0.8510   -2.0370 C   0  0  0  0  0  0  0  0  0  0  0  0
   -3.8120    1.6640   -1.4740 C   0  0  0  0  0  0  0  0  0  0  0  0
   -5.1210    1.6970   -1.8920 C   0  0  0  0  0  0  0  0  0  0  0  0
   -5.5370    0.8990   -2.9160 C   0  0  0  0  0  0  0  0  0  0  0  0
   -4.5890    0.0580   -3.5180 C   0  0  0  0  0  0  0  0  0  0  0  0
   -3.2810    0.0470   -3.0760 C   0  0  0  0  0  0  0  0  0  0  0  0
   -2.1290   -1.2560   -0.4150 C   0  0  0  0  0  0  0  0  0  0  0  0
   -3.3680   -1.2310   -0.7380 O   0  0  0  0  0  0  0  0  0  0  0  0
    0.5110   -0.9280    0.0160 H   0  0  0  0  0  0  0  0  0  0  0  0
   -1.9520    0.6810    0.4730 H   0  0  0  0  0  0  0  0  0  0  0  0
   -0.8050    0.4060   -2.3260 H   0  0  0  0  0  0  0  0  0  0  0  0
   -1.0630    1.8640   -1.3400 H   0  0  0  0  0  0  0  0  0  0  0  0
   -3.4700    2.3020   -0.6470 H   0  0  0  0  0  0  0  0  0  0  0  0
   -5.8590    2.3500   -1.4230 H   0  0  0  0  0  0  0  0  0  0  0  0
   -6.5770    0.9010   -3.2760 H   0  0  0  0  0  0  0  0  0  0  0  0
   -4.9210   -0.5770   -4.3360 H   0  0  0  0  0  0  0  0  0  0  0  0
   -2.5130   -0.5960   -3.5260 H   0  0  0  0  0  0  0  0  0  0  0  0
   -2.3880   -3.4350   -2.7790 O   0  0  0  0  0  0  0  0  0  0  0  0
   -2.1060   -4.3940   -1.7760 C   0  0  0  0  0  0  0  0  0  0  0  0
   -2.4190   -3.7480   -0.4260 C   0  0  2  0  0  0  0  0  0  0  0  0
   -1.5980   -2.5510   -0.2370 N   0  0  0  0  0  0  0  0  0  0  0  0
   -2.2260   -4.6590    0.6980 C   0  0  0  0  0  0  0  0  0  0  0  0
   -1.4420   -4.3670    1.6280 O   0  0  0  0  0  0  0  0  0  0  0  0
   -2.9160   -5.8740    0.7410 O   0  0  0  0  0  0  0  0  0  0  0  0
   -3.3410   -3.1560   -2.7370 H   0  0  0  0  0  0  0  0  0  0  0  0
   -2.7920   -5.2530   -1.8790 H   0  0  0  0  0  0  0  0  0  0  0  0
   -1.0720   -4.6980   -1.8950 H   0  0  0  0  0  0  0  0  0  0  0  0
   -3.5130   -3.4620   -0.4890 H   0  0  0  0  0  0  0  0  0  0  0  0
   -0.6000   -2.6480    0.0290 H   0  0  0  0  0  0  0  0  0  0  0  0
  1  2  1  0  0  0  0
  2  3  2  0  0  0  0
  3 14  1  0  0  0  0
  4  2  1  0  0  0  0
  4  5  1  0  0  0  0
  5 17  1  0  0  0  0
  5 16  1  0  0  0  0
  6  5  1  0  0  0  0
  6 19  1  0  0  0  0
  7 21  1  0  0  0  0
  7 20  1  0  0  0  0
  7  6  1  0  0  0  0
  8 22  1  6  0  0  0
  8  7  1  0  0  0  0
  9  8  1  0  0  0  0
 10 11  2  0  0  0  0
 10  8  1  0  0  0  0
 12  1  1  0  0  0  0
 13  1  1  0  0  0  0
 15  4  1  0  0  0  0
 18  6  1  0  0  0  0
 23  9  1  0  0  0  0
 24  9  1  0  0  0  0
 25 10  1  0  0  0  0
 26 25  1  0  0  0  0
 26 37  1  1  0  0  0
 27 39  1  0  0  0  0
 27 26  1  0  0  0  0
 28 27  1  0  0  0  0
 28 29  1  0  0  0  0
 29 40  1  0  0  0  0
 30 29  2  0  0  0  0
 30 41  1  0  0  0  0
 31 30  1  0  0  0  0
 32 33  1  0  0  0  0
 32 31  2  0  0  0  0
 33 28  2  0  0  0  0
 34 26  1  0  0  0  0
 34 48  1  0  0  0  0
 35 34  2  0  0  0  0
 36 25  1  0  0  0  0
 38 27  1  0  0  0  0
 42 31  1  0  0  0  0
 43 32  1  0  0  0  0
 44 33  1  0  0  0  0
 45 52  1  0  0  0  0
 45 46  1  0  0  0  0
 46 47  1  0  0  0  0
 47 55  1  6  0  0  0
 47 48  1  0  0  0  0
 47 49  1  0  0  0  0
 48 56  1  0  0  0  0
 49 51  2  0  0  0  0
 49 50  1  0  0  0  0
 53 46  1  0  0  0  0
 54 46  1  0  0  0  0
M  END
$$$$
