RFV.pdb
 OpenBabel07022418063D

 61 61  0  0  1  0  0  0  0  0999 V2000
    2.7480   -3.1520    4.9420 N   0  0  0  0  0  0  0  0  0  0  0  0
    3.6230   -2.6590    3.9320 C   0  0  0  0  0  0  0  0  0  0  0  0
    4.7230   -3.2600    3.6610 N   0  0  0  0  0  0  0  0  0  0  0  0
    3.2910   -1.4750    3.1930 N   0  0  0  0  0  0  0  0  0  0  0  0
    4.0770   -1.0490    2.0540 C   0  0  0  0  0  0  0  0  0  0  0  0
    3.5020    0.2120    1.4730 C   0  0  0  0  0  0  0  0  0  0  0  0
    2.0930   -0.0370    1.0260 C   0  0  0  0  0  0  0  0  0  0  0  0
    1.4470    1.1910    0.4290 C   0  0  2  0  0  0  0  0  0  0  0  0
    1.3780    2.2900    1.3380 N   0  0  0  0  0  0  0  0  0  0  0  0
    0.0540    0.8220    0.0000 C   0  0  0  0  0  0  0  0  0  0  0  0
   -0.1180   -0.1130   -0.7940 O   0  0  0  0  0  0  0  0  0  0  0  0
    2.7900   -4.1470    5.2330 H   0  0  0  0  0  0  0  0  0  0  0  0
    2.0450   -2.5230    5.4120 H   0  0  0  0  0  0  0  0  0  0  0  0
    5.0140   -4.1230    4.1670 H   0  0  0  0  0  0  0  0  0  0  0  0
    2.4490   -0.9610    3.5450 H   0  0  0  0  0  0  0  0  0  0  0  0
    5.1430   -0.9140    2.3280 H   0  0  0  0  0  0  0  0  0  0  0  0
    3.9660   -1.8420    1.2600 H   0  0  0  0  0  0  0  0  0  0  0  0
    4.1550    0.5340    0.6380 H   0  0  0  0  0  0  0  0  0  0  0  0
    3.5830    0.9980    2.2490 H   0  0  0  0  0  0  0  0  0  0  0  0
    1.4630   -0.4330    1.8470 H   0  0  0  0  0  0  0  0  0  0  0  0
    2.1260   -0.8210    0.2420 H   0  0  0  0  0  0  0  0  0  0  0  0
    2.0150    1.5170   -0.4670 H   0  0  0  0  0  0  0  0  0  0  0  0
    1.8420    2.1510    2.2430 H   0  0  0  0  0  0  0  0  0  0  0  0
    1.4940    3.2210    0.9200 H   0  0  0  0  0  0  0  0  0  0  0  0
   -1.0680    1.5390    0.5000 N   0  0  0  0  0  0  0  0  0  0  0  0
   -2.4280    1.2970    0.1930 C   0  0  1  0  0  0  0  0  0  0  0  0
   -2.9010    1.9350   -1.0570 C   0  0  0  0  0  0  0  0  0  0  0  0
   -2.1900    1.5410   -2.2950 C   0  0  0  0  0  0  0  0  0  0  0  0
   -1.0920    2.2490   -2.7360 C   0  0  0  0  0  0  0  0  0  0  0  0
   -0.4550    1.8650   -3.8880 C   0  0  0  0  0  0  0  0  0  0  0  0
   -0.8480    0.7860   -4.6600 C   0  0  0  0  0  0  0  0  0  0  0  0
   -1.9410    0.0930   -4.2080 C   0  0  0  0  0  0  0  0  0  0  0  0
   -2.5940    0.4610   -3.0570 C   0  0  0  0  0  0  0  0  0  0  0  0
   -2.9210   -0.0800    0.3710 C   0  0  0  0  0  0  0  0  0  0  0  0
   -4.0810   -0.3240   -0.0680 O   0  0  0  0  0  0  0  0  0  0  0  0
   -0.8260    2.3230    1.1610 H   0  0  0  0  0  0  0  0  0  0  0  0
   -3.0110    1.8590    1.0350 H   0  0  0  0  0  0  0  0  0  0  0  0
   -3.9840    1.7710   -1.2560 H   0  0  0  0  0  0  0  0  0  0  0  0
   -2.8140    3.0550   -0.9350 H   0  0  0  0  0  0  0  0  0  0  0  0
   -0.7490    3.1140   -2.1490 H   0  0  0  0  0  0  0  0  0  0  0  0
    0.4150    2.4290   -4.2330 H   0  0  0  0  0  0  0  0  0  0  0  0
   -0.3100    0.5150   -5.5720 H   0  0  0  0  0  0  0  0  0  0  0  0
   -2.2930   -0.7530   -4.7640 H   0  0  0  0  0  0  0  0  0  0  0  0
   -3.4720   -0.1100   -2.7150 H   0  0  0  0  0  0  0  0  0  0  0  0
   -1.9060   -3.2270   -1.0990 C   0  0  0  0  0  0  0  0  0  0  0  0
   -2.0040   -3.5080    0.3720 C   0  0  0  0  0  0  0  0  0  0  0  0
   -0.6230   -3.7030    0.9610 C   0  0  0  0  0  0  0  0  0  0  0  0
   -2.7940   -2.4530    1.1040 C   0  0  2  0  0  0  0  0  0  0  0  0
   -2.2230   -1.1420    0.9870 N   0  0  0  0  0  0  0  0  0  0  0  0
   -2.9000   -2.8190    2.5250 C   0  0  0  0  0  0  0  0  0  0  0  0
   -3.3830   -3.9430    2.8200 O   0  0  0  0  0  0  0  0  0  0  0  0
   -2.5030   -2.0060    3.5770 O   0  0  0  0  0  0  0  0  0  0  0  0
   -2.7880   -2.6090   -1.4090 H   0  0  0  0  0  0  0  0  0  0  0  0
   -1.9870   -4.1760   -1.6670 H   0  0  0  0  0  0  0  0  0  0  0  0
   -0.9530   -2.7600   -1.3980 H   0  0  0  0  0  0  0  0  0  0  0  0
   -2.5580   -4.4650    0.4950 H   0  0  0  0  0  0  0  0  0  0  0  0
    0.1490   -3.5760    0.1480 H   0  0  0  0  0  0  0  0  0  0  0  0
   -0.4810   -4.7480    1.3350 H   0  0  0  0  0  0  0  0  0  0  0  0
   -0.4200   -3.0090    1.7960 H   0  0  0  0  0  0  0  0  0  0  0  0
   -3.8050   -2.4360    0.6480 H   0  0  0  0  0  0  0  0  0  0  0  0
   -1.2760   -0.9990    1.3930 H   0  0  0  0  0  0  0  0  0  0  0  0
  1 12  1  0  0  0  0
  1 13  1  0  0  0  0
  2  1  1  0  0  0  0
  3  2  2  0  0  0  0
  3 14  1  0  0  0  0
  4 15  1  0  0  0  0
  4  2  1  0  0  0  0
  5 16  1  0  0  0  0
  5  4  1  0  0  0  0
  6  5  1  0  0  0  0
  6 19  1  0  0  0  0
  7  6  1  0  0  0  0
  7 20  1  0  0  0  0
  8 22  1  6  0  0  0
  8  7  1  0  0  0  0
  8  9  1  0  0  0  0
  9 23  1  0  0  0  0
 10  8  1  0  0  0  0
 10 25  1  0  0  0  0
 11 10  2  0  0  0  0
 17  5  1  0  0  0  0
 18  6  1  0  0  0  0
 21  7  1  0  0  0  0
 24  9  1  0  0  0  0
 25 36  1  0  0  0  0
 26 34  1  0  0  0  0
 26 25  1  0  0  0  0
 26 37  1  1  0  0  0
 27 39  1  0  0  0  0
 27 26  1  0  0  0  0
 28 27  1  0  0  0  0
 29 28  1  0  0  0  0
 29 40  1  0  0  0  0
 30 29  2  0  0  0  0
 31 32  2  0  0  0  0
 31 30  1  0  0  0  0
 32 33  1  0  0  0  0
 33 44  1  0  0  0  0
 33 28  2  0  0  0  0
 34 49  1  0  0  0  0
 35 34  2  0  0  0  0
 38 27  1  0  0  0  0
 41 30  1  0  0  0  0
 42 31  1  0  0  0  0
 43 32  1  0  0  0  0
 45 46  1  0  0  0  0
 46 56  1  0  0  0  0
 46 47  1  0  0  0  0
 46 48  1  0  0  0  0
 47 58  1  0  0  0  0
 47 59  1  0  0  0  0
 48 60  1  6  0  0  0
 48 50  1  0  0  0  0
 49 48  1  0  0  0  0
 49 61  1  0  0  0  0
 50 51  2  0  0  0  0
 50 52  1  0  0  0  0
 53 45  1  0  0  0  0
 54 45  1  0  0  0  0
 55 45  1  0  0  0  0
 57 47  1  0  0  0  0
M  END
$$$$
