RFY.pdb
 OpenBabel07022418063D

 66 67  0  0  1  0  0  0  0  0999 V2000
    2.0230   -2.3610    4.0500 N   0  0  0  0  0  0  0  0  0  0  0  0
    2.7210   -1.6360    3.0120 C   0  0  0  0  0  0  0  0  0  0  0  0
    2.6720   -0.3480    2.9700 N   0  0  0  0  0  0  0  0  0  0  0  0
    3.4650   -2.3660    2.0560 N   0  0  0  0  0  0  0  0  0  0  0  0
    4.0830   -1.7040    0.9490 C   0  0  0  0  0  0  0  0  0  0  0  0
    3.0130   -1.1900   -0.0350 C   0  0  0  0  0  0  0  0  0  0  0  0
    3.7210   -0.5200   -1.1750 C   0  0  0  0  0  0  0  0  0  0  0  0
    2.8850    0.0030   -2.2790 C   0  0  2  0  0  0  0  0  0  0  0  0
    3.7820    0.6210   -3.3070 N   0  0  0  0  0  0  0  0  0  0  0  0
    1.8090    0.9450   -1.9610 C   0  0  0  0  0  0  0  0  0  0  0  0
    1.9540    2.1830   -2.3270 O   0  0  0  0  0  0  0  0  0  0  0  0
    1.5230   -3.2570    3.8640 H   0  0  0  0  0  0  0  0  0  0  0  0
    2.0160   -1.9770    5.0160 H   0  0  0  0  0  0  0  0  0  0  0  0
    2.1320    0.1560    3.6810 H   0  0  0  0  0  0  0  0  0  0  0  0
    3.5640   -3.3960    2.1640 H   0  0  0  0  0  0  0  0  0  0  0  0
    4.7930   -2.3470    0.4000 H   0  0  0  0  0  0  0  0  0  0  0  0
    4.6310   -0.8050    1.3320 H   0  0  0  0  0  0  0  0  0  0  0  0
    2.3880   -0.4300    0.5110 H   0  0  0  0  0  0  0  0  0  0  0  0
    2.3440   -2.0010   -0.3540 H   0  0  0  0  0  0  0  0  0  0  0  0
    4.4360    0.2600   -0.7690 H   0  0  0  0  0  0  0  0  0  0  0  0
    4.4290   -1.3130   -1.5820 H   0  0  0  0  0  0  0  0  0  0  0  0
    2.4700   -0.8860   -2.8390 H   0  0  0  0  0  0  0  0  0  0  0  0
    3.1820    0.6660   -4.1790 H   0  0  0  0  0  0  0  0  0  0  0  0
    4.5700   -0.0120   -3.4750 H   0  0  0  0  0  0  0  0  0  0  0  0
    0.6400    0.5400   -1.2910 N   0  0  0  0  0  0  0  0  0  0  0  0
   -0.3920    1.4800   -1.0370 C   0  0  1  0  0  0  0  0  0  0  0  0
   -1.5540    1.3260   -2.0320 C   0  0  0  0  0  0  0  0  0  0  0  0
   -2.1960    0.0250   -2.0120 C   0  0  0  0  0  0  0  0  0  0  0  0
   -1.7230   -0.9920   -2.8030 C   0  0  0  0  0  0  0  0  0  0  0  0
   -2.3540   -2.2290   -2.7950 C   0  0  0  0  0  0  0  0  0  0  0  0
   -3.4530   -2.4920   -2.0170 C   0  0  0  0  0  0  0  0  0  0  0  0
   -3.9100   -1.4430   -1.2260 C   0  0  0  0  0  0  0  0  0  0  0  0
   -3.2930   -0.2090   -1.2240 C   0  0  0  0  0  0  0  0  0  0  0  0
   -0.9640    1.6070    0.2720 C   0  0  0  0  0  0  0  0  0  0  0  0
   -1.9560    2.4150    0.3980 O   0  0  0  0  0  0  0  0  0  0  0  0
    0.5490   -0.4520   -0.9920 H   0  0  0  0  0  0  0  0  0  0  0  0
    0.0530    2.5170   -1.2820 H   0  0  0  0  0  0  0  0  0  0  0  0
   -2.3260    2.1010   -1.8420 H   0  0  0  0  0  0  0  0  0  0  0  0
   -1.1210    1.6060   -3.0380 H   0  0  0  0  0  0  0  0  0  0  0  0
   -0.8490   -0.8790   -3.4600 H   0  0  0  0  0  0  0  0  0  0  0  0
   -1.9650   -3.0330   -3.4320 H   0  0  0  0  0  0  0  0  0  0  0  0
   -3.9360   -3.4570   -2.0180 H   0  0  0  0  0  0  0  0  0  0  0  0
   -4.7810   -1.6630   -0.6150 H   0  0  0  0  0  0  0  0  0  0  0  0
   -3.7290    0.5480   -0.5680 H   0  0  0  0  0  0  0  0  0  0  0  0
   -4.0900   -4.3600    0.8760 O   0  0  0  0  0  0  0  0  0  0  0  0
   -3.3850   -3.3320    1.5110 C   0  0  0  0  0  0  0  0  0  0  0  0
   -4.0110   -2.4800    2.3900 C   0  0  0  0  0  0  0  0  0  0  0  0
   -3.2790   -1.4650    3.0080 C   0  0  0  0  0  0  0  0  0  0  0  0
   -1.9370   -1.2990    2.7530 C   0  0  0  0  0  0  0  0  0  0  0  0
   -1.1630   -0.2460    3.4190 C   0  0  0  0  0  0  0  0  0  0  0  0
   -1.1060    1.0700    2.7220 C   0  0  2  0  0  0  0  0  0  0  0  0
   -0.5040    0.9120    1.4060 N   0  0  0  0  0  0  0  0  0  0  0  0
   -0.1780    1.9750    3.4800 C   0  0  0  0  0  0  0  0  0  0  0  0
   -0.5100    2.2290    4.6780 O   0  0  0  0  0  0  0  0  0  0  0  0
   -1.3390   -2.1640    1.8710 C   0  0  0  0  0  0  0  0  0  0  0  0
   -2.0510   -3.1840    1.2430 C   0  0  0  0  0  0  0  0  0  0  0  0
    0.9580    2.4900    2.8940 O   0  0  0  0  0  0  0  0  0  0  0  0
   -3.9410   -5.3020    1.2400 H   0  0  0  0  0  0  0  0  0  0  0  0
   -5.0650   -2.6160    2.5850 H   0  0  0  0  0  0  0  0  0  0  0  0
   -3.7650   -0.7980    3.6960 H   0  0  0  0  0  0  0  0  0  0  0  0
   -0.1210   -0.6410    3.6440 H   0  0  0  0  0  0  0  0  0  0  0  0
   -1.5890   -0.0620    4.4540 H   0  0  0  0  0  0  0  0  0  0  0  0
   -2.1060    1.5300    2.6860 H   0  0  0  0  0  0  0  0  0  0  0  0
    0.2930    0.2650    1.2780 H   0  0  0  0  0  0  0  0  0  0  0  0
   -0.3050   -2.0800    1.6380 H   0  0  0  0  0  0  0  0  0  0  0  0
   -1.5440   -3.8330    0.5620 H   0  0  0  0  0  0  0  0  0  0  0  0
  1 13  1  0  0  0  0
  2  1  1  0  0  0  0
  3  2  2  0  0  0  0
  3 14  1  0  0  0  0
  4 15  1  0  0  0  0
  4  2  1  0  0  0  0
  5 17  1  0  0  0  0
  5  4  1  0  0  0  0
  6 18  1  0  0  0  0
  6  5  1  0  0  0  0
  7 20  1  0  0  0  0
  7  6  1  0  0  0  0
  8 22  1  6  0  0  0
  8 10  1  0  0  0  0
  8  7  1  0  0  0  0
  9  8  1  0  0  0  0
 10 25  1  0  0  0  0
 11 10  2  0  0  0  0
 12  1  1  0  0  0  0
 16  5  1  0  0  0  0
 19  6  1  0  0  0  0
 21  7  1  0  0  0  0
 23  9  1  0  0  0  0
 24  9  1  0  0  0  0
 25 26  1  0  0  0  0
 25 36  1  0  0  0  0
 26 37  1  6  0  0  0
 26 34  1  0  0  0  0
 27 28  1  0  0  0  0
 27 38  1  0  0  0  0
 27 26  1  0  0  0  0
 28 33  1  0  0  0  0
 29 30  1  0  0  0  0
 29 28  2  0  0  0  0
 30 31  2  0  0  0  0
 31 32  1  0  0  0  0
 32 33  2  0  0  0  0
 32 43  1  0  0  0  0
 33 44  1  0  0  0  0
 34 35  2  0  0  0  0
 34 52  1  0  0  0  0
 39 27  1  0  0  0  0
 40 29  1  0  0  0  0
 41 30  1  0  0  0  0
 42 31  1  0  0  0  0
 45 58  1  0  0  0  0
 45 46  1  0  0  0  0
 46 47  1  0  0  0  0
 47 59  1  0  0  0  0
 47 48  2  0  0  0  0
 48 60  1  0  0  0  0
 49 48  1  0  0  0  0
 49 50  1  0  0  0  0
 50 61  1  0  0  0  0
 50 62  1  0  0  0  0
 51 63  1  6  0  0  0
 51 50  1  0  0  0  0
 51 53  1  0  0  0  0
 52 51  1  0  0  0  0
 53 54  1  0  0  0  0
 55 49  2  0  0  0  0
 56 46  2  0  0  0  0
 56 55  1  0  0  0  0
 57 53  2  0  0  0  0
 64 52  1  0  0  0  0
 65 55  1  0  0  0  0
 66 56  1  0  0  0  0
M  END
$$$$
