RGA.pdb
 OpenBabel07022418043D

 42 41  0  0  1  0  0  0  0  0999 V2000
   -4.0400   -3.4380   -0.4620 N   0  0  0  0  0  0  0  0  0  0  0  0
   -2.8340   -3.4640    0.3140 C   0  0  0  0  0  0  0  0  0  0  0  0
   -2.8930   -3.0790    1.5220 N   0  0  0  0  0  0  0  0  0  0  0  0
   -1.6550   -3.9170   -0.3200 N   0  0  0  0  0  0  0  0  0  0  0  0
   -0.3660   -3.5160    0.1950 C   0  0  0  0  0  0  0  0  0  0  0  0
   -0.1850   -2.0110   -0.0400 C   0  0  0  0  0  0  0  0  0  0  0  0
   -0.2810   -1.7870   -1.5050 C   0  0  0  0  0  0  0  0  0  0  0  0
   -0.1290   -0.3150   -1.9080 C   0  0  2  0  0  0  0  0  0  0  0  0
   -0.2490   -0.2910   -3.3880 N   0  0  0  0  0  0  0  0  0  0  0  0
    1.1760    0.2240   -1.5090 C   0  0  0  0  0  0  0  0  0  0  0  0
    2.1000    0.3670   -2.3740 O   0  0  0  0  0  0  0  0  0  0  0  0
   -4.8610   -2.8610   -0.1790 H   0  0  0  0  0  0  0  0  0  0  0  0
   -4.1460   -3.9960   -1.3420 H   0  0  0  0  0  0  0  0  0  0  0  0
   -2.1030   -3.0450    2.1930 H   0  0  0  0  0  0  0  0  0  0  0  0
   -1.6640   -4.5290   -1.1430 H   0  0  0  0  0  0  0  0  0  0  0  0
    0.4670   -4.0830   -0.2680 H   0  0  0  0  0  0  0  0  0  0  0  0
   -0.3890   -3.6520    1.2940 H   0  0  0  0  0  0  0  0  0  0  0  0
    0.8230   -1.8010    0.3810 H   0  0  0  0  0  0  0  0  0  0  0  0
   -0.9520   -1.4960    0.5290 H   0  0  0  0  0  0  0  0  0  0  0  0
    0.3890   -2.4360   -2.0740 H   0  0  0  0  0  0  0  0  0  0  0  0
   -1.3270   -2.0890   -1.8060 H   0  0  0  0  0  0  0  0  0  0  0  0
   -0.9900    0.2270   -1.5300 H   0  0  0  0  0  0  0  0  0  0  0  0
    0.2610    0.5890   -3.6620 H   0  0  0  0  0  0  0  0  0  0  0  0
   -1.2570   -0.1260   -3.6560 H   0  0  0  0  0  0  0  0  0  0  0  0
    1.5380    0.6280   -0.1820 N   0  0  0  0  0  0  0  0  0  0  0  0
    2.8550    1.1370    0.1050 C   0  0  0  0  0  0  0  0  0  0  0  0
    3.0240    1.4920    1.4970 C   0  0  0  0  0  0  0  0  0  0  0  0
    4.1750    1.9420    1.8360 O   0  0  0  0  0  0  0  0  0  0  0  0
    0.7920    0.5330    0.5240 H   0  0  0  0  0  0  0  0  0  0  0  0
    3.0530    2.0290   -0.5730 H   0  0  0  0  0  0  0  0  0  0  0  0
    3.6540    0.4160   -0.2270 H   0  0  0  0  0  0  0  0  0  0  0  0
    1.4810    2.9560    4.3160 C   0  0  0  0  0  0  0  0  0  0  0  0
    2.3220    1.7730    3.8940 C   0  0  2  0  0  0  0  0  0  0  0  0
    2.0730    1.3960    2.5020 N   0  0  0  0  0  0  0  0  0  0  0  0
    2.0240    0.6510    4.8090 C   0  0  0  0  0  0  0  0  0  0  0  0
    1.6080   -0.4220    4.3140 O   0  0  0  0  0  0  0  0  0  0  0  0
    2.1810    0.7250    6.1790 O   0  0  0  0  0  0  0  0  0  0  0  0
    0.5160    3.0120    3.7860 H   0  0  0  0  0  0  0  0  0  0  0  0
    2.0640    3.9120    4.2390 H   0  0  0  0  0  0  0  0  0  0  0  0
    1.2570    2.8480    5.3960 H   0  0  0  0  0  0  0  0  0  0  0  0
    3.3780    2.0650    4.0610 H   0  0  0  0  0  0  0  0  0  0  0  0
    1.1180    1.0460    2.3120 H   0  0  0  0  0  0  0  0  0  0  0  0
  1 12  1  0  0  0  0
  1  2  1  0  0  0  0
  2  3  2  0  0  0  0
  3 14  1  0  0  0  0
  4  5  1  0  0  0  0
  4  2  1  0  0  0  0
  5 17  1  0  0  0  0
  6  5  1  0  0  0  0
  6 18  1  0  0  0  0
  6 19  1  0  0  0  0
  7  6  1  0  0  0  0
  8 22  1  1  0  0  0
  8 10  1  0  0  0  0
  8  7  1  0  0  0  0
  9  8  1  0  0  0  0
 10 25  1  0  0  0  0
 11 10  2  0  0  0  0
 13  1  1  0  0  0  0
 15  4  1  0  0  0  0
 16  5  1  0  0  0  0
 20  7  1  0  0  0  0
 21  7  1  0  0  0  0
 23  9  1  0  0  0  0
 24  9  1  0  0  0  0
 25 26  1  0  0  0  0
 25 29  1  0  0  0  0
 26 27  1  0  0  0  0
 27 28  2  0  0  0  0
 27 34  1  0  0  0  0
 30 26  1  0  0  0  0
 31 26  1  0  0  0  0
 32 40  1  0  0  0  0
 33 41  1  1  0  0  0
 33 32  1  0  0  0  0
 33 35  1  0  0  0  0
 34 33  1  0  0  0  0
 35 37  1  0  0  0  0
 36 35  2  0  0  0  0
 38 32  1  0  0  0  0
 39 32  1  0  0  0  0
 42 34  1  0  0  0  0
M  END
$$$$
