RGD.pdb
 OpenBabel07022418043D

 45 44  0  0  1  0  0  0  0  0999 V2000
    1.8080   -7.4280   -1.3900 N   0  0  0  0  0  0  0  0  0  0  0  0
    1.7410   -6.1190   -0.8330 C   0  0  0  0  0  0  0  0  0  0  0  0
    1.1610   -5.8970    0.2940 N   0  0  0  0  0  0  0  0  0  0  0  0
    2.3110   -5.0020   -1.5010 N   0  0  0  0  0  0  0  0  0  0  0  0
    1.7750   -3.6490   -1.2620 C   0  0  0  0  0  0  0  0  0  0  0  0
    2.5500   -2.6480   -2.0850 C   0  0  0  0  0  0  0  0  0  0  0  0
    2.1110   -1.2430   -1.9560 C   0  0  0  0  0  0  0  0  0  0  0  0
    2.1710   -0.6240   -0.6060 C   0  0  2  0  0  0  0  0  0  0  0  0
    1.3760   -1.2540    0.3960 N   0  0  0  0  0  0  0  0  0  0  0  0
    1.8630    0.8270   -0.6220 C   0  0  0  0  0  0  0  0  0  0  0  0
    2.4490    1.5760   -1.4380 O   0  0  0  0  0  0  0  0  0  0  0  0
    1.0770   -8.1430   -1.2270 H   0  0  0  0  0  0  0  0  0  0  0  0
    2.6190   -7.6830   -1.9830 H   0  0  0  0  0  0  0  0  0  0  0  0
    0.7390   -6.7000    0.7960 H   0  0  0  0  0  0  0  0  0  0  0  0
    3.1070   -5.1390   -2.1580 H   0  0  0  0  0  0  0  0  0  0  0  0
    0.7110   -3.5950   -1.5040 H   0  0  0  0  0  0  0  0  0  0  0  0
    1.9110   -3.4460   -0.1770 H   0  0  0  0  0  0  0  0  0  0  0  0
    2.3510   -2.9480   -3.1590 H   0  0  0  0  0  0  0  0  0  0  0  0
    3.6490   -2.7930   -1.9800 H   0  0  0  0  0  0  0  0  0  0  0  0
    2.7070   -0.6050   -2.6610 H   0  0  0  0  0  0  0  0  0  0  0  0
    1.0440   -1.1950   -2.3150 H   0  0  0  0  0  0  0  0  0  0  0  0
    3.2410   -0.6830   -0.2570 H   0  0  0  0  0  0  0  0  0  0  0  0
    1.6570   -1.0730    1.3620 H   0  0  0  0  0  0  0  0  0  0  0  0
    0.3790   -1.2230    0.1770 H   0  0  0  0  0  0  0  0  0  0  0  0
    0.9040    1.3590    0.2910 N   0  0  0  0  0  0  0  0  0  0  0  0
    0.5740    2.7600    0.3130 C   0  0  0  0  0  0  0  0  0  0  0  0
   -0.4370    3.1420    1.3190 C   0  0  0  0  0  0  0  0  0  0  0  0
   -0.8030    4.3720    1.4240 O   0  0  0  0  0  0  0  0  0  0  0  0
    0.4710    0.6700    0.9270 H   0  0  0  0  0  0  0  0  0  0  0  0
    0.1410    3.0320   -0.6870 H   0  0  0  0  0  0  0  0  0  0  0  0
    1.4910    3.3670    0.4800 H   0  0  0  0  0  0  0  0  0  0  0  0
   -1.0790    2.2750    2.2230 N   0  0  0  0  0  0  0  0  0  0  0  0
   -2.0740    2.7720    3.1870 C   0  0  1  0  0  0  0  0  0  0  0  0
   -3.3300    2.0070    2.8880 C   0  0  0  0  0  0  0  0  0  0  0  0
   -4.4800    2.3380    3.7270 C   0  0  0  0  0  0  0  0  0  0  0  0
   -5.5430    1.6920    3.5350 O   0  0  0  0  0  0  0  0  0  0  0  0
   -1.5070    2.4170    4.5320 C   0  0  0  0  0  0  0  0  0  0  0  0
   -2.1250    2.7120    5.6100 O   0  0  0  0  0  0  0  0  0  0  0  0
   -4.5140    3.3040    4.7210 O   0  0  0  0  0  0  0  0  0  0  0  0
   -0.2980    1.7580    4.6980 O   0  0  0  0  0  0  0  0  0  0  0  0
   -0.8630    1.2700    2.2270 H   0  0  0  0  0  0  0  0  0  0  0  0
   -2.2100    3.8610    3.0850 H   0  0  0  0  0  0  0  0  0  0  0  0
   -3.0610    0.9210    2.9170 H   0  0  0  0  0  0  0  0  0  0  0  0
   -3.6090    2.2890    1.8300 H   0  0  0  0  0  0  0  0  0  0  0  0
   -5.3460    3.6940    5.1020 H   0  0  0  0  0  0  0  0  0  0  0  0
  1 12  1  0  0  0  0
  1  2  1  0  0  0  0
  2  3  2  0  0  0  0
  3 14  1  0  0  0  0
  4  5  1  0  0  0  0
  4  2  1  0  0  0  0
  5 17  1  0  0  0  0
  6 19  1  0  0  0  0
  6  7  1  0  0  0  0
  6  5  1  0  0  0  0
  7  8  1  0  0  0  0
  8 22  1  1  0  0  0
  8  9  1  0  0  0  0
  9 23  1  0  0  0  0
 10  8  1  0  0  0  0
 10 25  1  0  0  0  0
 11 10  2  0  0  0  0
 13  1  1  0  0  0  0
 15  4  1  0  0  0  0
 16  5  1  0  0  0  0
 18  6  1  0  0  0  0
 20  7  1  0  0  0  0
 21  7  1  0  0  0  0
 24  9  1  0  0  0  0
 25 26  1  0  0  0  0
 25 29  1  0  0  0  0
 26 31  1  0  0  0  0
 26 27  1  0  0  0  0
 27 28  2  0  0  0  0
 27 32  1  0  0  0  0
 30 26  1  0  0  0  0
 32 41  1  0  0  0  0
 32 33  1  0  0  0  0
 33 42  1  6  0  0  0
 33 37  1  0  0  0  0
 34 43  1  0  0  0  0
 34 33  1  0  0  0  0
 34 35  1  0  0  0  0
 35 39  1  0  0  0  0
 36 35  2  0  0  0  0
 37 40  2  0  0  0  0
 37 38  1  0  0  0  0
 39 45  1  0  0  0  0
 44 34  1  0  0  0  0
M  END
$$$$
