RGH.pdb
 OpenBabel07022418043D

 49 49  0  0  1  0  0  0  0  0999 V2000
    2.7710   -5.0750    3.7110 N   0  0  0  0  0  0  0  0  0  0  0  0
    2.5540   -4.3870    2.5080 C   0  0  0  0  0  0  0  0  0  0  0  0
    1.3890   -4.5650    1.9340 N   0  0  0  0  0  0  0  0  0  0  0  0
    3.5250   -3.5290    1.9090 N   0  0  0  0  0  0  0  0  0  0  0  0
    3.1480   -2.8710    0.6880 C   0  0  0  0  0  0  0  0  0  0  0  0
    4.2030   -1.9910    0.1130 C   0  0  0  0  0  0  0  0  0  0  0  0
    4.6640   -0.8700    0.9670 C   0  0  0  0  0  0  0  0  0  0  0  0
    3.6370    0.1250    1.3760 C   0  0  2  0  0  0  0  0  0  0  0  0
    2.5440   -0.4120    2.1330 N   0  0  0  0  0  0  0  0  0  0  0  0
    3.0990    0.9320    0.2560 C   0  0  0  0  0  0  0  0  0  0  0  0
    3.8320    1.5250   -0.5760 O   0  0  0  0  0  0  0  0  0  0  0  0
    2.6840   -6.1070    3.7290 H   0  0  0  0  0  0  0  0  0  0  0  0
    3.0180   -4.5820    4.5870 H   0  0  0  0  0  0  0  0  0  0  0  0
    1.1320   -4.0980    1.0380 H   0  0  0  0  0  0  0  0  0  0  0  0
    4.4350   -3.4170    2.3610 H   0  0  0  0  0  0  0  0  0  0  0  0
    2.9480   -3.6760   -0.0570 H   0  0  0  0  0  0  0  0  0  0  0  0
    2.1620   -2.3520    0.8100 H   0  0  0  0  0  0  0  0  0  0  0  0
    5.0850   -2.6340   -0.1040 H   0  0  0  0  0  0  0  0  0  0  0  0
    3.8410   -1.6640   -0.8950 H   0  0  0  0  0  0  0  0  0  0  0  0
    5.4610   -0.3280    0.4150 H   0  0  0  0  0  0  0  0  0  0  0  0
    5.1570   -1.2960    1.8660 H   0  0  0  0  0  0  0  0  0  0  0  0
    4.1530    0.8570    2.0580 H   0  0  0  0  0  0  0  0  0  0  0  0
    2.0020    0.3750    2.5550 H   0  0  0  0  0  0  0  0  0  0  0  0
    2.8410   -1.0140    2.9270 H   0  0  0  0  0  0  0  0  0  0  0  0
    1.6810    1.0860    0.0520 N   0  0  0  0  0  0  0  0  0  0  0  0
    1.1260    1.8480   -1.0070 C   0  0  0  0  0  0  0  0  0  0  0  0
   -0.3500    1.8700   -1.0250 C   0  0  0  0  0  0  0  0  0  0  0  0
   -0.9570    2.5350   -1.9490 O   0  0  0  0  0  0  0  0  0  0  0  0
    1.1020    0.5970    0.7380 H   0  0  0  0  0  0  0  0  0  0  0  0
    1.4380    1.4100   -1.9860 H   0  0  0  0  0  0  0  0  0  0  0  0
    1.5120    2.8990   -1.0490 H   0  0  0  0  0  0  0  0  0  0  0  0
   -1.2120    1.2270   -0.1230 N   0  0  0  0  0  0  0  0  0  0  0  0
   -2.6760    1.3100   -0.2280 C   0  0  1  0  0  0  0  0  0  0  0  0
   -3.1650   -0.0790   -0.5370 C   0  0  0  0  0  0  0  0  0  0  0  0
   -4.6270   -0.1690   -0.6750 C   0  0  0  0  0  0  0  0  0  0  0  0
   -5.5020   -0.4350    0.3550 C   0  0  0  0  0  0  0  0  0  0  0  0
   -6.7340   -0.4330   -0.1860 N   0  0  0  0  0  0  0  0  0  0  0  0
   -6.6620   -0.1770   -1.5030 C   0  0  0  0  0  0  0  0  0  0  0  0
   -5.3600   -0.0180   -1.7860 N   0  0  0  0  0  0  0  0  0  0  0  0
   -3.2690    1.8890    0.9830 C   0  0  0  0  0  0  0  0  0  0  0  0
   -2.5170    2.2320    1.9390 O   0  0  0  0  0  0  0  0  0  0  0  0
   -4.6200    2.0660    1.1030 O   0  0  0  0  0  0  0  0  0  0  0  0
   -0.8480    0.6660    0.6560 H   0  0  0  0  0  0  0  0  0  0  0  0
   -2.9150    1.9470   -1.1130 H   0  0  0  0  0  0  0  0  0  0  0  0
   -2.7980   -0.7560    0.2740 H   0  0  0  0  0  0  0  0  0  0  0  0
   -2.6430   -0.4100   -1.4590 H   0  0  0  0  0  0  0  0  0  0  0  0
   -5.2480   -0.6130    1.4030 H   0  0  0  0  0  0  0  0  0  0  0  0
   -7.6050   -0.6070    0.3620 H   0  0  0  0  0  0  0  0  0  0  0  0
   -7.4720   -0.1120   -2.1930 H   0  0  0  0  0  0  0  0  0  0  0  0
  1 12  1  0  0  0  0
  1 13  1  0  0  0  0
  2  1  1  0  0  0  0
  3  2  2  0  0  0  0
  4 15  1  0  0  0  0
  4  2  1  0  0  0  0
  5 17  1  0  0  0  0
  5  4  1  0  0  0  0
  6  5  1  0  0  0  0
  6  7  1  0  0  0  0
  7  8  1  0  0  0  0
  7 21  1  0  0  0  0
  8 22  1  1  0  0  0
  8  9  1  0  0  0  0
  9 23  1  0  0  0  0
  9 24  1  0  0  0  0
 10  8  1  0  0  0  0
 11 10  2  0  0  0  0
 14  3  1  0  0  0  0
 16  5  1  0  0  0  0
 18  6  1  0  0  0  0
 19  6  1  0  0  0  0
 20  7  1  0  0  0  0
 25 10  1  0  0  0  0
 25 29  1  0  0  0  0
 26 25  1  0  0  0  0
 27 26  1  0  0  0  0
 27 32  1  0  0  0  0
 28 27  2  0  0  0  0
 30 26  1  0  0  0  0
 31 26  1  0  0  0  0
 32 43  1  0  0  0  0
 33 44  1  6  0  0  0
 33 32  1  0  0  0  0
 33 40  1  0  0  0  0
 34 33  1  0  0  0  0
 34 45  1  0  0  0  0
 35 34  1  0  0  0  0
 35 36  2  0  0  0  0
 36 47  1  0  0  0  0
 37 36  1  0  0  0  0
 37 48  1  0  0  0  0
 38 37  1  0  0  0  0
 39 38  2  0  0  0  0
 39 35  1  0  0  0  0
 40 42  2  0  0  0  0
 40 41  1  0  0  0  0
 46 34  1  0  0  0  0
 49 38  1  0  0  0  0
M  END
$$$$
