RGL.pdb
 OpenBabel07022418043D

 51 50  0  0  1  0  0  0  0  0999 V2000
    2.3320   -5.2250    1.9610 N   0  0  0  0  0  0  0  0  0  0  0  0
    3.2300   -4.1300    2.0110 C   0  0  0  0  0  0  0  0  0  0  0  0
    4.4750   -4.3370    2.3050 N   0  0  0  0  0  0  0  0  0  0  0  0
    2.7370   -2.8140    1.7350 N   0  0  0  0  0  0  0  0  0  0  0  0
    3.6660   -1.7100    1.6150 C   0  0  0  0  0  0  0  0  0  0  0  0
    4.4930   -1.8970    0.3920 C   0  0  0  0  0  0  0  0  0  0  0  0
    3.7490   -1.9070   -0.8850 C   0  0  0  0  0  0  0  0  0  0  0  0
    3.0240   -0.6780   -1.2840 C   0  0  2  0  0  0  0  0  0  0  0  0
    3.9070    0.4790   -1.4020 N   0  0  0  0  0  0  0  0  0  0  0  0
    1.8350   -0.3010   -0.5160 C   0  0  0  0  0  0  0  0  0  0  0  0
    0.8930   -1.1230   -0.3350 O   0  0  0  0  0  0  0  0  0  0  0  0
    2.1860   -5.8210    2.7970 H   0  0  0  0  0  0  0  0  0  0  0  0
    1.8240   -5.4290    1.0890 H   0  0  0  0  0  0  0  0  0  0  0  0
    4.8110   -5.2910    2.5010 H   0  0  0  0  0  0  0  0  0  0  0  0
    1.7140   -2.7140    1.6410 H   0  0  0  0  0  0  0  0  0  0  0  0
    3.1070   -0.7470    1.6200 H   0  0  0  0  0  0  0  0  0  0  0  0
    4.3780   -1.6990    2.4970 H   0  0  0  0  0  0  0  0  0  0  0  0
    5.0420   -2.8820    0.5200 H   0  0  0  0  0  0  0  0  0  0  0  0
    5.3290   -1.1520    0.4120 H   0  0  0  0  0  0  0  0  0  0  0  0
    4.3970   -2.2900   -1.7340 H   0  0  0  0  0  0  0  0  0  0  0  0
    2.9610   -2.7270   -0.8170 H   0  0  0  0  0  0  0  0  0  0  0  0
    2.7000   -0.8580   -2.3630 H   0  0  0  0  0  0  0  0  0  0  0  0
    4.5550    0.4010   -2.2130 H   0  0  0  0  0  0  0  0  0  0  0  0
    4.3510    0.7380   -0.5100 H   0  0  0  0  0  0  0  0  0  0  0  0
    1.6660    0.9870    0.0630 N   0  0  0  0  0  0  0  0  0  0  0  0
    0.4770    1.3120    0.8040 C   0  0  0  0  0  0  0  0  0  0  0  0
   -0.6950    1.1870   -0.0900 C   0  0  0  0  0  0  0  0  0  0  0  0
   -0.5190    0.8480   -1.2820 O   0  0  0  0  0  0  0  0  0  0  0  0
    2.4080    1.6890   -0.0550 H   0  0  0  0  0  0  0  0  0  0  0  0
    0.3670    0.6950    1.7240 H   0  0  0  0  0  0  0  0  0  0  0  0
    0.5660    2.3790    1.1570 H   0  0  0  0  0  0  0  0  0  0  0  0
   -3.4970   -0.1100    2.3790 C   0  0  0  0  0  0  0  0  0  0  0  0
   -4.4950   -0.0350    1.2760 C   0  0  0  0  0  0  0  0  0  0  0  0
   -5.3710   -1.2930    1.3670 C   0  0  0  0  0  0  0  0  0  0  0  0
   -3.9530    0.1140   -0.1100 C   0  0  0  0  0  0  0  0  0  0  0  0
   -3.1480    1.3510   -0.3760 C   0  0  2  0  0  0  0  0  0  0  0  0
   -1.9980    1.4580    0.4450 N   0  0  0  0  0  0  0  0  0  0  0  0
   -4.0790    2.5200   -0.2120 C   0  0  0  0  0  0  0  0  0  0  0  0
   -3.8110    3.4480    0.5880 O   0  0  0  0  0  0  0  0  0  0  0  0
   -5.2570    2.6170   -0.9320 O   0  0  0  0  0  0  0  0  0  0  0  0
   -2.4920   -0.4360    2.1060 H   0  0  0  0  0  0  0  0  0  0  0  0
   -3.8230   -0.8910    3.1510 H   0  0  0  0  0  0  0  0  0  0  0  0
   -3.5190    0.8290    3.0040 H   0  0  0  0  0  0  0  0  0  0  0  0
   -5.2360    0.8080    1.4660 H   0  0  0  0  0  0  0  0  0  0  0  0
   -4.7600   -2.2050    1.1470 H   0  0  0  0  0  0  0  0  0  0  0  0
   -6.2660   -1.2030    0.7480 H   0  0  0  0  0  0  0  0  0  0  0  0
   -5.6870   -1.3890    2.4290 H   0  0  0  0  0  0  0  0  0  0  0  0
   -4.8710    0.1520   -0.7810 H   0  0  0  0  0  0  0  0  0  0  0  0
   -3.3770   -0.8140   -0.3930 H   0  0  0  0  0  0  0  0  0  0  0  0
   -2.8490    1.2580   -1.4740 H   0  0  0  0  0  0  0  0  0  0  0  0
   -2.0640    1.7520    1.4340 H   0  0  0  0  0  0  0  0  0  0  0  0
  1  2  1  0  0  0  0
  1 12  1  0  0  0  0
  2  3  2  0  0  0  0
  3 14  1  0  0  0  0
  4  2  1  0  0  0  0
  5 16  1  0  0  0  0
  5  4  1  0  0  0  0
  5 17  1  0  0  0  0
  6 19  1  0  0  0  0
  6 18  1  0  0  0  0
  6  5  1  0  0  0  0
  7 21  1  0  0  0  0
  7  6  1  0  0  0  0
  8 22  1  6  0  0  0
  8  7  1  0  0  0  0
  8 10  1  0  0  0  0
  9  8  1  0  0  0  0
  9 24  1  0  0  0  0
 10 11  2  0  0  0  0
 10 25  1  0  0  0  0
 13  1  1  0  0  0  0
 15  4  1  0  0  0  0
 20  7  1  0  0  0  0
 23  9  1  0  0  0  0
 25 26  1  0  0  0  0
 26 31  1  0  0  0  0
 26 30  1  0  0  0  0
 27 37  1  0  0  0  0
 27 26  1  0  0  0  0
 28 27  2  0  0  0  0
 29 25  1  0  0  0  0
 32 43  1  0  0  0  0
 32 42  1  0  0  0  0
 33 34  1  0  0  0  0
 33 44  1  0  0  0  0
 33 32  1  0  0  0  0
 34 47  1  0  0  0  0
 35 33  1  0  0  0  0
 36 50  1  6  0  0  0
 36 38  1  0  0  0  0
 36 35  1  0  0  0  0
 36 37  1  0  0  0  0
 37 51  1  0  0  0  0
 38 39  1  0  0  0  0
 40 38  2  0  0  0  0
 41 32  1  0  0  0  0
 45 34  1  0  0  0  0
 46 34  1  0  0  0  0
 48 35  1  0  0  0  0
 49 35  1  0  0  0  0
M  END
$$$$
