RGN.pdb
 OpenBabel07022418043D

 46 45  0  0  1  0  0  0  0  0999 V2000
    2.8680   -7.1990   -0.3840 N   0  0  0  0  0  0  0  0  0  0  0  0
    2.4430   -5.8850   -0.0370 C   0  0  0  0  0  0  0  0  0  0  0  0
    1.5520   -5.6810    0.8900 N   0  0  0  0  0  0  0  0  0  0  0  0
    2.9600   -4.7280   -0.6730 N   0  0  0  0  0  0  0  0  0  0  0  0
    2.2660   -3.4320   -0.5760 C   0  0  0  0  0  0  0  0  0  0  0  0
    3.0300   -2.4010   -1.3360 C   0  0  0  0  0  0  0  0  0  0  0  0
    2.4570   -1.0320   -1.3430 C   0  0  0  0  0  0  0  0  0  0  0  0
    2.2890   -0.3610   -0.0340 C   0  0  2  0  0  0  0  0  0  0  0  0
    1.4310   -1.0330    0.8870 N   0  0  0  0  0  0  0  0  0  0  0  0
    1.8090    1.0300   -0.2940 C   0  0  0  0  0  0  0  0  0  0  0  0
    2.3990    1.8020   -1.0730 O   0  0  0  0  0  0  0  0  0  0  0  0
    2.7480   -7.9540    0.3040 H   0  0  0  0  0  0  0  0  0  0  0  0
    3.2880   -7.3830   -1.3100 H   0  0  0  0  0  0  0  0  0  0  0  0
    1.1290   -6.4670    1.3990 H   0  0  0  0  0  0  0  0  0  0  0  0
    3.8410   -4.8170   -1.2090 H   0  0  0  0  0  0  0  0  0  0  0  0
    1.2560   -3.6050   -0.9370 H   0  0  0  0  0  0  0  0  0  0  0  0
    2.3300   -3.1770    0.5170 H   0  0  0  0  0  0  0  0  0  0  0  0
    3.0300   -2.7450   -2.4140 H   0  0  0  0  0  0  0  0  0  0  0  0
    4.1190   -2.4050   -1.0670 H   0  0  0  0  0  0  0  0  0  0  0  0
    3.1700   -0.3960   -1.9470 H   0  0  0  0  0  0  0  0  0  0  0  0
    1.5200   -1.0390   -1.9570 H   0  0  0  0  0  0  0  0  0  0  0  0
    3.2900   -0.2660    0.4770 H   0  0  0  0  0  0  0  0  0  0  0  0
    0.4640   -1.1130    0.5310 H   0  0  0  0  0  0  0  0  0  0  0  0
    1.3880   -0.5680    1.8190 H   0  0  0  0  0  0  0  0  0  0  0  0
    0.6260    1.5030    0.3720 N   0  0  0  0  0  0  0  0  0  0  0  0
    0.1380    2.8230    0.1490 C   0  0  0  0  0  0  0  0  0  0  0  0
   -1.0760    3.2080    0.8780 C   0  0  0  0  0  0  0  0  0  0  0  0
   -1.5460    4.3880    0.7050 O   0  0  0  0  0  0  0  0  0  0  0  0
    0.1540    0.8410    1.0150 H   0  0  0  0  0  0  0  0  0  0  0  0
   -0.0380    2.9900   -0.9500 H   0  0  0  0  0  0  0  0  0  0  0  0
    0.9200    3.5900    0.4190 H   0  0  0  0  0  0  0  0  0  0  0  0
   -3.2240    0.1050    2.8510 N   0  0  0  0  0  0  0  0  0  0  0  0
   -4.2530    0.8060    2.2350 C   0  0  0  0  0  0  0  0  0  0  0  0
   -5.2770    0.1370    1.8680 O   0  0  0  0  0  0  0  0  0  0  0  0
   -4.2510    2.2320    1.9790 C   0  0  0  0  0  0  0  0  0  0  0  0
   -2.9790    2.8900    2.4300 C   0  0  2  0  0  0  0  0  0  0  0  0
   -1.7920    2.3770    1.7770 N   0  0  0  0  0  0  0  0  0  0  0  0
   -2.8890    2.8720    3.9070 C   0  0  0  0  0  0  0  0  0  0  0  0
   -3.8830    3.2380    4.5810 O   0  0  0  0  0  0  0  0  0  0  0  0
   -1.7500    2.4720    4.6070 O   0  0  0  0  0  0  0  0  0  0  0  0
   -2.8930    0.1610    3.8330 H   0  0  0  0  0  0  0  0  0  0  0  0
   -2.6930   -0.5990    2.2540 H   0  0  0  0  0  0  0  0  0  0  0  0
   -4.2650    2.3740    0.8500 H   0  0  0  0  0  0  0  0  0  0  0  0
   -5.1440    2.7580    2.4120 H   0  0  0  0  0  0  0  0  0  0  0  0
   -3.1140    3.9790    2.1430 H   0  0  0  0  0  0  0  0  0  0  0  0
   -1.4560    1.3890    1.9720 H   0  0  0  0  0  0  0  0  0  0  0  0
  1  2  1  0  0  0  0
  1 12  1  0  0  0  0
  2  3  2  0  0  0  0
  3 14  1  0  0  0  0
  4  5  1  0  0  0  0
  4  2  1  0  0  0  0
  5 17  1  0  0  0  0
  6 19  1  0  0  0  0
  6  5  1  0  0  0  0
  7  6  1  0  0  0  0
  7  8  1  0  0  0  0
  8 22  1  1  0  0  0
  8  9  1  0  0  0  0
  9 24  1  0  0  0  0
 10  8  1  0  0  0  0
 10 25  1  0  0  0  0
 11 10  2  0  0  0  0
 13  1  1  0  0  0  0
 15  4  1  0  0  0  0
 16  5  1  0  0  0  0
 18  6  1  0  0  0  0
 20  7  1  0  0  0  0
 21  7  1  0  0  0  0
 23  9  1  0  0  0  0
 25 29  1  0  0  0  0
 26 25  1  0  0  0  0
 26 31  1  0  0  0  0
 26 27  1  0  0  0  0
 27 37  1  0  0  0  0
 28 27  2  0  0  0  0
 30 26  1  0  0  0  0
 32 41  1  0  0  0  0
 33 32  1  0  0  0  0
 34 33  2  0  0  0  0
 35 33  1  0  0  0  0
 35 44  1  0  0  0  0
 35 36  1  0  0  0  0
 36 45  1  6  0  0  0
 36 38  1  0  0  0  0
 37 46  1  0  0  0  0
 37 36  1  0  0  0  0
 38 39  2  0  0  0  0
 38 40  1  0  0  0  0
 42 32  1  0  0  0  0
 43 35  1  0  0  0  0
M  END
$$$$
