RGP.pdb
 OpenBabel07022418043D

 46 46  0  0  1  0  0  0  0  0999 V2000
    1.2500   -5.3930    2.8370 N   0  0  0  0  0  0  0  0  0  0  0  0
    1.8800   -4.4780    1.9490 C   0  0  0  0  0  0  0  0  0  0  0  0
    2.9410   -4.8500    1.3660 N   0  0  0  0  0  0  0  0  0  0  0  0
    1.3330   -3.1890    1.7280 N   0  0  0  0  0  0  0  0  0  0  0  0
    2.0580   -2.1360    1.0460 C   0  0  0  0  0  0  0  0  0  0  0  0
    2.2700   -2.4000   -0.3940 C   0  0  0  0  0  0  0  0  0  0  0  0
    3.0090   -1.3980   -1.1590 C   0  0  0  0  0  0  0  0  0  0  0  0
    2.5310   -0.0320   -1.3960 C   0  0  2  0  0  0  0  0  0  0  0  0
    3.6540    0.5800   -2.2170 N   0  0  0  0  0  0  0  0  0  0  0  0
    2.2350    0.8640   -0.2990 C   0  0  0  0  0  0  0  0  0  0  0  0
    3.1590    1.5230    0.2540 O   0  0  0  0  0  0  0  0  0  0  0  0
    1.6290   -6.3300    3.0450 H   0  0  0  0  0  0  0  0  0  0  0  0
    0.3630   -5.0900    3.2930 H   0  0  0  0  0  0  0  0  0  0  0  0
    3.3700   -5.7770    1.5000 H   0  0  0  0  0  0  0  0  0  0  0  0
    0.3730   -3.0150    2.0740 H   0  0  0  0  0  0  0  0  0  0  0  0
    3.0330   -1.9740    1.5970 H   0  0  0  0  0  0  0  0  0  0  0  0
    1.5000   -1.2100    1.1940 H   0  0  0  0  0  0  0  0  0  0  0  0
    2.8720   -3.3680   -0.4690 H   0  0  0  0  0  0  0  0  0  0  0  0
    1.2850   -2.6890   -0.8470 H   0  0  0  0  0  0  0  0  0  0  0  0
    3.2310   -1.8270   -2.2070 H   0  0  0  0  0  0  0  0  0  0  0  0
    4.0810   -1.3790   -0.7420 H   0  0  0  0  0  0  0  0  0  0  0  0
    1.7100   -0.0700   -2.1710 H   0  0  0  0  0  0  0  0  0  0  0  0
    3.5030    1.6030   -2.2660 H   0  0  0  0  0  0  0  0  0  0  0  0
    4.5560    0.3260   -1.7520 H   0  0  0  0  0  0  0  0  0  0  0  0
    0.8990    1.0840    0.2350 N   0  0  0  0  0  0  0  0  0  0  0  0
    0.6620    1.9770    1.3020 C   0  0  0  0  0  0  0  0  0  0  0  0
   -0.6990    2.1290    1.7530 C   0  0  0  0  0  0  0  0  0  0  0  0
   -0.7810    2.9770    2.7810 O   0  0  0  0  0  0  0  0  0  0  0  0
    0.1820    0.5340   -0.2280 H   0  0  0  0  0  0  0  0  0  0  0  0
    1.0180    3.0370    0.9970 H   0  0  0  0  0  0  0  0  0  0  0  0
    1.3760    1.7790    2.1720 H   0  0  0  0  0  0  0  0  0  0  0  0
   -1.9370    1.5960    1.3620 N   0  0  0  0  0  0  0  0  0  0  0  0
   -2.2570    0.7010    0.2980 C   0  0  0  0  0  0  0  0  0  0  0  0
   -3.7820    0.5760    0.2180 C   0  0  0  0  0  0  0  0  0  0  0  0
   -4.2140    1.8460    0.9240 C   0  0  0  0  0  0  0  0  0  0  0  0
   -3.2240    1.8750    2.0500 C   0  0  1  0  0  0  0  0  0  0  0  0
   -3.5390    0.7500    2.9700 C   0  0  0  0  0  0  0  0  0  0  0  0
   -2.7780   -0.2380    3.1140 O   0  0  0  0  0  0  0  0  0  0  0  0
   -4.7130    0.7740    3.7070 O   0  0  0  0  0  0  0  0  0  0  0  0
   -1.9070    1.1070   -0.6860 H   0  0  0  0  0  0  0  0  0  0  0  0
   -1.8140   -0.2760    0.4810 H   0  0  0  0  0  0  0  0  0  0  0  0
   -4.1510    0.5090   -0.8020 H   0  0  0  0  0  0  0  0  0  0  0  0
   -4.0740   -0.2850    0.8480 H   0  0  0  0  0  0  0  0  0  0  0  0
   -5.2110    1.6820    1.3780 H   0  0  0  0  0  0  0  0  0  0  0  0
   -4.2220    2.7180    0.2750 H   0  0  0  0  0  0  0  0  0  0  0  0
   -3.1450    2.8270    2.5780 H   0  0  0  0  0  0  0  0  0  0  0  0
  1 12  1  0  0  0  0
  1 13  1  0  0  0  0
  2  1  1  0  0  0  0
  3 14  1  0  0  0  0
  3  2  2  0  0  0  0
  4  2  1  0  0  0  0
  4 15  1  0  0  0  0
  5 17  1  0  0  0  0
  5 16  1  0  0  0  0
  5  4  1  0  0  0  0
  6  5  1  0  0  0  0
  7 21  1  0  0  0  0
  7  6  1  0  0  0  0
  8 22  1  6  0  0  0
  8  7  1  0  0  0  0
  8 10  1  0  0  0  0
  9 24  1  0  0  0  0
  9  8  1  0  0  0  0
 10 25  1  0  0  0  0
 10 11  2  0  0  0  0
 18  6  1  0  0  0  0
 19  6  1  0  0  0  0
 20  7  1  0  0  0  0
 23  9  1  0  0  0  0
 25 26  1  0  0  0  0
 26 27  1  0  0  0  0
 26 31  1  0  0  0  0
 27 28  2  0  0  0  0
 29 25  1  0  0  0  0
 30 26  1  0  0  0  0
 32 27  1  0  0  0  0
 32 36  1  0  0  0  0
 33 41  1  0  0  0  0
 33 32  1  0  0  0  0
 34 33  1  0  0  0  0
 34 43  1  0  0  0  0
 34 35  1  0  0  0  0
 35 44  1  0  0  0  0
 35 36  1  0  0  0  0
 36 46  1  1  0  0  0
 36 37  1  0  0  0  0
 37 38  2  0  0  0  0
 37 39  1  0  0  0  0
 40 33  1  0  0  0  0
 42 34  1  0  0  0  0
 45 35  1  0  0  0  0
M  END
$$$$
