RGQ.pdb
 OpenBabel07022418043D

 49 48  0  0  1  0  0  0  0  0999 V2000
    1.3990   -5.5550    1.0250 N   0  0  0  0  0  0  0  0  0  0  0  0
    1.8630   -4.2650    1.4010 C   0  0  0  0  0  0  0  0  0  0  0  0
    2.4780   -4.1880    2.5550 N   0  0  0  0  0  0  0  0  0  0  0  0
    1.6850   -3.1190    0.5950 N   0  0  0  0  0  0  0  0  0  0  0  0
    2.3780   -1.8890    0.9680 C   0  0  0  0  0  0  0  0  0  0  0  0
    2.0720   -0.7880    0.0050 C   0  0  0  0  0  0  0  0  0  0  0  0
    2.7290    0.5130    0.2610 C   0  0  0  0  0  0  0  0  0  0  0  0
    2.4490    1.1820    1.5560 C   0  0  2  0  0  0  0  0  0  0  0  0
    2.8470    0.3900    2.7000 N   0  0  0  0  0  0  0  0  0  0  0  0
    1.0840    1.7290    1.7060 C   0  0  0  0  0  0  0  0  0  0  0  0
    0.5970    2.4100    0.7780 O   0  0  0  0  0  0  0  0  0  0  0  0
    0.4640   -5.7110    0.6040 H   0  0  0  0  0  0  0  0  0  0  0  0
    2.0230   -6.3620    1.1810 H   0  0  0  0  0  0  0  0  0  0  0  0
    2.8550   -3.2940    2.9230 H   0  0  0  0  0  0  0  0  0  0  0  0
    1.0830   -3.1410   -0.2380 H   0  0  0  0  0  0  0  0  0  0  0  0
    3.4480   -2.0810    1.0480 H   0  0  0  0  0  0  0  0  0  0  0  0
    1.9570   -1.6280    1.9690 H   0  0  0  0  0  0  0  0  0  0  0  0
    2.4530   -1.1450   -1.0000 H   0  0  0  0  0  0  0  0  0  0  0  0
    0.9770   -0.6750   -0.1530 H   0  0  0  0  0  0  0  0  0  0  0  0
    3.8440    0.3860    0.1990 H   0  0  0  0  0  0  0  0  0  0  0  0
    2.4810    1.1910   -0.5870 H   0  0  0  0  0  0  0  0  0  0  0  0
    3.1290    2.0970    1.6060 H   0  0  0  0  0  0  0  0  0  0  0  0
    3.8360    0.0890    2.5280 H   0  0  0  0  0  0  0  0  0  0  0  0
    2.8800    0.9960    3.5510 H   0  0  0  0  0  0  0  0  0  0  0  0
    0.3060    1.5040    2.8780 N   0  0  0  0  0  0  0  0  0  0  0  0
   -1.0050    2.0020    3.0700 C   0  0  0  0  0  0  0  0  0  0  0  0
   -2.0510    1.5440    2.1610 C   0  0  0  0  0  0  0  0  0  0  0  0
   -3.2150    2.0570    2.3530 O   0  0  0  0  0  0  0  0  0  0  0  0
    0.7570    0.9260    3.6350 H   0  0  0  0  0  0  0  0  0  0  0  0
   -1.3160    1.8100    4.1270 H   0  0  0  0  0  0  0  0  0  0  0  0
   -0.9550    3.1350    3.0230 H   0  0  0  0  0  0  0  0  0  0  0  0
   -0.1330   -1.4140   -2.9280 N   0  0  0  0  0  0  0  0  0  0  0  0
   -1.3110   -1.1400   -2.1380 C   0  0  0  0  0  0  0  0  0  0  0  0
   -1.9350   -2.1650   -1.7960 O   0  0  0  0  0  0  0  0  0  0  0  0
   -1.5860    0.2480   -1.8690 C   0  0  0  0  0  0  0  0  0  0  0  0
   -2.7500    0.6770   -1.1130 C   0  0  0  0  0  0  0  0  0  0  0  0
   -2.9450    0.2200    0.2860 C   0  0  2  0  0  0  0  0  0  0  0  0
   -1.8500    0.6000    1.1270 N   0  0  0  0  0  0  0  0  0  0  0  0
   -3.3780   -1.1880    0.4380 C   0  0  0  0  0  0  0  0  0  0  0  0
   -2.7950   -2.0020    1.1760 O   0  0  0  0  0  0  0  0  0  0  0  0
   -4.5000   -1.6720   -0.2660 O   0  0  0  0  0  0  0  0  0  0  0  0
    0.7300   -0.9160   -2.6500 H   0  0  0  0  0  0  0  0  0  0  0  0
   -0.1050   -2.0590   -3.7280 H   0  0  0  0  0  0  0  0  0  0  0  0
   -0.6320    0.6910   -1.4310 H   0  0  0  0  0  0  0  0  0  0  0  0
   -1.6230    0.7700   -2.8800 H   0  0  0  0  0  0  0  0  0  0  0  0
   -2.7510    1.8080   -1.0940 H   0  0  0  0  0  0  0  0  0  0  0  0
   -3.7070    0.4410   -1.6670 H   0  0  0  0  0  0  0  0  0  0  0  0
   -3.8520    0.8020    0.6640 H   0  0  0  0  0  0  0  0  0  0  0  0
   -0.8830    0.2070    1.0370 H   0  0  0  0  0  0  0  0  0  0  0  0
  1 13  1  0  0  0  0
  1  2  1  0  0  0  0
  2  3  2  0  0  0  0
  3 14  1  0  0  0  0
  4  5  1  0  0  0  0
  4  2  1  0  0  0  0
  5 16  1  0  0  0  0
  5 17  1  0  0  0  0
  6  7  1  0  0  0  0
  6  5  1  0  0  0  0
  7  8  1  0  0  0  0
  8 22  1  1  0  0  0
  8 10  1  0  0  0  0
  8  9  1  0  0  0  0
  9 24  1  0  0  0  0
 10 25  1  0  0  0  0
 11 10  2  0  0  0  0
 12  1  1  0  0  0  0
 15  4  1  0  0  0  0
 18  6  1  0  0  0  0
 19  6  1  0  0  0  0
 20  7  1  0  0  0  0
 21  7  1  0  0  0  0
 23  9  1  0  0  0  0
 25 26  1  0  0  0  0
 25 29  1  0  0  0  0
 26 30  1  0  0  0  0
 27 28  2  0  0  0  0
 27 26  1  0  0  0  0
 31 26  1  0  0  0  0
 32 42  1  0  0  0  0
 32 33  1  0  0  0  0
 33 35  1  0  0  0  0
 33 34  2  0  0  0  0
 35 44  1  0  0  0  0
 35 36  1  0  0  0  0
 36 46  1  0  0  0  0
 36 37  1  0  0  0  0
 37 39  1  0  0  0  0
 37 48  1  1  0  0  0
 37 38  1  0  0  0  0
 38 27  1  0  0  0  0
 39 40  1  0  0  0  0
 41 39  2  0  0  0  0
 43 32  1  0  0  0  0
 45 35  1  0  0  0  0
 47 36  1  0  0  0  0
 49 38  1  0  0  0  0
M  END
$$$$
