RGR.pdb
 OpenBabel07022418043D

 55 54  0  0  1  0  0  0  0  0999 V2000
    1.8110   -1.4370    8.1300 N   0  0  0  0  0  0  0  0  0  0  0  0
    1.9610   -1.4560    6.7200 C   0  0  0  0  0  0  0  0  0  0  0  0
    1.8650   -2.5320    6.0550 N   0  0  0  0  0  0  0  0  0  0  0  0
    2.2200   -0.2290    6.0240 N   0  0  0  0  0  0  0  0  0  0  0  0
    1.8400    0.0120    4.6550 C   0  0  0  0  0  0  0  0  0  0  0  0
    2.6260   -0.8010    3.6960 C   0  0  0  0  0  0  0  0  0  0  0  0
    2.3000   -0.6310    2.2560 C   0  0  0  0  0  0  0  0  0  0  0  0
    2.4600    0.7190    1.6680 C   0  0  2  0  0  0  0  0  0  0  0  0
    1.6540    1.7390    2.2770 N   0  0  0  0  0  0  0  0  0  0  0  0
    2.0920    0.5750    0.2060 C   0  0  0  0  0  0  0  0  0  0  0  0
    2.7370   -0.2700   -0.4630 O   0  0  0  0  0  0  0  0  0  0  0  0
    2.5630   -1.7280    8.7750 H   0  0  0  0  0  0  0  0  0  0  0  0
    0.9080   -1.1160    8.5340 H   0  0  0  0  0  0  0  0  0  0  0  0
    1.6730   -3.4520    6.5050 H   0  0  0  0  0  0  0  0  0  0  0  0
    2.7260    0.4930    6.6260 H   0  0  0  0  0  0  0  0  0  0  0  0
    0.7430   -0.1380    4.5460 H   0  0  0  0  0  0  0  0  0  0  0  0
    2.1080    1.0960    4.4710 H   0  0  0  0  0  0  0  0  0  0  0  0
    2.4370   -1.8930    3.9170 H   0  0  0  0  0  0  0  0  0  0  0  0
    3.7220   -0.6920    3.9020 H   0  0  0  0  0  0  0  0  0  0  0  0
    3.0050   -1.3110    1.6900 H   0  0  0  0  0  0  0  0  0  0  0  0
    1.2990   -1.0710    2.0480 H   0  0  0  0  0  0  0  0  0  0  0  0
    3.5110    1.0680    1.6680 H   0  0  0  0  0  0  0  0  0  0  0  0
    1.7840    2.6770    1.8540 H   0  0  0  0  0  0  0  0  0  0  0  0
    0.6350    1.5350    2.2900 H   0  0  0  0  0  0  0  0  0  0  0  0
    1.0670    1.3780   -0.3240 N   0  0  0  0  0  0  0  0  0  0  0  0
    0.7040    1.2490   -1.7200 C   0  0  0  0  0  0  0  0  0  0  0  0
    0.2600   -0.1430   -1.9600 C   0  0  0  0  0  0  0  0  0  0  0  0
    0.2430   -1.0150   -1.0260 O   0  0  0  0  0  0  0  0  0  0  0  0
    0.5970    2.0510    0.3230 H   0  0  0  0  0  0  0  0  0  0  0  0
    1.5580    1.5510   -2.3620 H   0  0  0  0  0  0  0  0  0  0  0  0
   -0.1810    1.9120   -1.8820 H   0  0  0  0  0  0  0  0  0  0  0  0
   -5.5160    0.6460   -0.7250 N   0  0  0  0  0  0  0  0  0  0  0  0
   -4.3120   -0.1270   -0.7900 C   0  0  0  0  0  0  0  0  0  0  0  0
   -3.1720    0.3970   -0.4580 N   0  0  0  0  0  0  0  0  0  0  0  0
   -4.3410   -1.4790   -1.2190 N   0  0  0  0  0  0  0  0  0  0  0  0
   -3.2380   -2.0940   -1.9090 C   0  0  0  0  0  0  0  0  0  0  0  0
   -3.0790   -1.4850   -3.2810 C   0  0  0  0  0  0  0  0  0  0  0  0
   -1.9650   -2.0930   -4.0600 C   0  0  0  0  0  0  0  0  0  0  0  0
   -0.6070   -1.9720   -3.4390 C   0  0  2  0  0  0  0  0  0  0  0  0
   -0.1750   -0.6060   -3.2310 N   0  0  0  0  0  0  0  0  0  0  0  0
    0.4050   -2.6440   -4.3100 C   0  0  0  0  0  0  0  0  0  0  0  0
    1.3900   -2.0010   -4.7010 O   0  0  0  0  0  0  0  0  0  0  0  0
    0.2770   -3.9600   -4.6930 O   0  0  0  0  0  0  0  0  0  0  0  0
   -6.4150    0.2110   -0.4630 H   0  0  0  0  0  0  0  0  0  0  0  0
   -5.4650    1.6470   -0.9440 H   0  0  0  0  0  0  0  0  0  0  0  0
   -2.2980   -0.1640   -0.5050 H   0  0  0  0  0  0  0  0  0  0  0  0
   -5.2220   -2.0330   -1.0100 H   0  0  0  0  0  0  0  0  0  0  0  0
   -3.4420   -3.1860   -2.0330 H   0  0  0  0  0  0  0  0  0  0  0  0
   -2.3000   -2.0250   -1.3310 H   0  0  0  0  0  0  0  0  0  0  0  0
   -4.0250   -1.6480   -3.8480 H   0  0  0  0  0  0  0  0  0  0  0  0
   -2.9710   -0.3790   -3.2030 H   0  0  0  0  0  0  0  0  0  0  0  0
   -1.9410   -1.7670   -5.1180 H   0  0  0  0  0  0  0  0  0  0  0  0
   -2.1740   -3.2010   -4.1190 H   0  0  0  0  0  0  0  0  0  0  0  0
   -0.5900   -2.5530   -2.4810 H   0  0  0  0  0  0  0  0  0  0  0  0
   -0.1920    0.0350   -4.0450 H   0  0  0  0  0  0  0  0  0  0  0  0
  1 13  1  0  0  0  0
  1 12  1  0  0  0  0
  2  1  1  0  0  0  0
  3 14  1  0  0  0  0
  3  2  2  0  0  0  0
  4 15  1  0  0  0  0
  4  2  1  0  0  0  0
  5  4  1  0  0  0  0
  6 19  1  0  0  0  0
  6 18  1  0  0  0  0
  6  5  1  0  0  0  0
  7  6  1  0  0  0  0
  8 22  1  1  0  0  0
  8  7  1  0  0  0  0
  8  9  1  0  0  0  0
  9 24  1  0  0  0  0
 10  8  1  0  0  0  0
 11 10  2  0  0  0  0
 16  5  1  0  0  0  0
 17  5  1  0  0  0  0
 20  7  1  0  0  0  0
 21  7  1  0  0  0  0
 23  9  1  0  0  0  0
 25 10  1  0  0  0  0
 25 29  1  0  0  0  0
 26 25  1  0  0  0  0
 27 26  1  0  0  0  0
 27 28  2  0  0  0  0
 30 26  1  0  0  0  0
 31 26  1  0  0  0  0
 32 44  1  0  0  0  0
 33 32  1  0  0  0  0
 33 34  2  0  0  0  0
 35 47  1  0  0  0  0
 35 33  1  0  0  0  0
 36 49  1  0  0  0  0
 36 35  1  0  0  0  0
 37 51  1  0  0  0  0
 37 36  1  0  0  0  0
 38 39  1  0  0  0  0
 38 37  1  0  0  0  0
 39 40  1  0  0  0  0
 39 54  1  1  0  0  0
 40 27  1  0  0  0  0
 41 39  1  0  0  0  0
 42 41  2  0  0  0  0
 43 41  1  0  0  0  0
 45 32  1  0  0  0  0
 46 34  1  0  0  0  0
 48 36  1  0  0  0  0
 50 37  1  0  0  0  0
 52 38  1  0  0  0  0
 53 38  1  0  0  0  0
 55 40  1  0  0  0  0
M  END
$$$$
