RGW.pdb
 OpenBabel07022418043D

 56 57  0  0  1  0  0  0  0  0999 V2000
    3.1300   -3.1060    4.6630 N   0  0  0  0  0  0  0  0  0  0  0  0
    4.0320   -2.3840    3.8310 C   0  0  0  0  0  0  0  0  0  0  0  0
    5.2480   -2.2200    4.2910 N   0  0  0  0  0  0  0  0  0  0  0  0
    3.6440   -1.8660    2.5700 N   0  0  0  0  0  0  0  0  0  0  0  0
    4.4550   -0.8580    1.9780 C   0  0  0  0  0  0  0  0  0  0  0  0
    3.9870   -0.3620    0.6550 C   0  0  0  0  0  0  0  0  0  0  0  0
    2.6400    0.2460    0.6010 C   0  0  0  0  0  0  0  0  0  0  0  0
    2.4460    1.4610    1.4750 C   0  0  2  0  0  0  0  0  0  0  0  0
    2.6550    1.2020    2.8790 N   0  0  0  0  0  0  0  0  0  0  0  0
    1.0790    2.0270    1.2300 C   0  0  0  0  0  0  0  0  0  0  0  0
    0.7920    2.3280    0.0370 O   0  0  0  0  0  0  0  0  0  0  0  0
    3.1010   -2.9170    5.6900 H   0  0  0  0  0  0  0  0  0  0  0  0
    2.4750   -3.8340    4.3040 H   0  0  0  0  0  0  0  0  0  0  0  0
    5.5550   -2.5820    5.1950 H   0  0  0  0  0  0  0  0  0  0  0  0
    2.7820   -2.2530    2.1410 H   0  0  0  0  0  0  0  0  0  0  0  0
    4.6380   -0.0550    2.7200 H   0  0  0  0  0  0  0  0  0  0  0  0
    5.4800   -1.3250    1.8410 H   0  0  0  0  0  0  0  0  0  0  0  0
    4.1190   -1.1600   -0.1040 H   0  0  0  0  0  0  0  0  0  0  0  0
    4.7190    0.4410    0.3410 H   0  0  0  0  0  0  0  0  0  0  0  0
    2.5050    0.6220   -0.4580 H   0  0  0  0  0  0  0  0  0  0  0  0
    1.8030   -0.4660    0.7450 H   0  0  0  0  0  0  0  0  0  0  0  0
    3.1610    2.2630    1.1770 H   0  0  0  0  0  0  0  0  0  0  0  0
    2.0250    0.4800    3.2620 H   0  0  0  0  0  0  0  0  0  0  0  0
    2.5640    2.1130    3.3710 H   0  0  0  0  0  0  0  0  0  0  0  0
    0.1980    2.1930    2.3260 N   0  0  0  0  0  0  0  0  0  0  0  0
   -1.1100    2.7170    2.1420 C   0  0  0  0  0  0  0  0  0  0  0  0
   -2.0080    1.9230    1.2850 C   0  0  0  0  0  0  0  0  0  0  0  0
   -3.1720    2.4250    1.1010 O   0  0  0  0  0  0  0  0  0  0  0  0
    0.5320    1.9210    3.2700 H   0  0  0  0  0  0  0  0  0  0  0  0
   -1.6010    2.9440    3.1270 H   0  0  0  0  0  0  0  0  0  0  0  0
   -1.0350    3.7330    1.6510 H   0  0  0  0  0  0  0  0  0  0  0  0
   -1.6850    0.7070    0.6880 N   0  0  0  0  0  0  0  0  0  0  0  0
   -2.6770    0.0070   -0.1570 C   0  0  1  0  0  0  0  0  0  0  0  0
   -2.1260   -0.1560   -1.5250 C   0  0  0  0  0  0  0  0  0  0  0  0
   -2.9080   -0.8420   -2.5280 C   0  0  0  0  0  0  0  0  0  0  0  0
   -3.7960   -0.2880   -3.4440 C   0  0  0  0  0  0  0  0  0  0  0  0
   -4.3380   -1.2690   -4.1720 N   0  0  0  0  0  0  0  0  0  0  0  0
   -3.8460   -2.4820   -3.7820 C   0  0  0  0  0  0  0  0  0  0  0  0
   -4.1080   -3.7470   -4.2610 C   0  0  0  0  0  0  0  0  0  0  0  0
   -3.4560   -4.8260   -3.7050 C   0  0  0  0  0  0  0  0  0  0  0  0
   -2.5630   -4.5800   -2.6850 C   0  0  0  0  0  0  0  0  0  0  0  0
   -2.3100   -3.3190   -2.2170 C   0  0  0  0  0  0  0  0  0  0  0  0
   -2.9560   -2.2030   -2.7590 C   0  0  0  0  0  0  0  0  0  0  0  0
   -3.0470   -1.2740    0.4490 C   0  0  0  0  0  0  0  0  0  0  0  0
   -3.9720   -2.0020    0.0260 O   0  0  0  0  0  0  0  0  0  0  0  0
   -2.3410   -1.7260    1.5590 O   0  0  0  0  0  0  0  0  0  0  0  0
   -0.7450    0.2880    0.8480 H   0  0  0  0  0  0  0  0  0  0  0  0
   -3.5850    0.6750   -0.1430 H   0  0  0  0  0  0  0  0  0  0  0  0
   -1.1140   -0.6750   -1.4970 H   0  0  0  0  0  0  0  0  0  0  0  0
   -1.8280    0.8900   -1.8660 H   0  0  0  0  0  0  0  0  0  0  0  0
   -3.9770    0.7620   -3.5090 H   0  0  0  0  0  0  0  0  0  0  0  0
   -5.0380   -1.0880   -4.9260 H   0  0  0  0  0  0  0  0  0  0  0  0
   -4.8150   -3.8930   -5.0620 H   0  0  0  0  0  0  0  0  0  0  0  0
   -3.6440   -5.8500   -4.0650 H   0  0  0  0  0  0  0  0  0  0  0  0
   -2.0480   -5.4260   -2.2470 H   0  0  0  0  0  0  0  0  0  0  0  0
   -1.6060   -3.1160   -1.4110 H   0  0  0  0  0  0  0  0  0  0  0  0
  1 12  1  0  0  0  0
  2  3  2  0  0  0  0
  2  1  1  0  0  0  0
  3 14  1  0  0  0  0
  4  2  1  0  0  0  0
  5  4  1  0  0  0  0
  5 16  1  0  0  0  0
  6  5  1  0  0  0  0
  7  6  1  0  0  0  0
  7 21  1  0  0  0  0
  7  8  1  0  0  0  0
  8 22  1  6  0  0  0
  8  9  1  0  0  0  0
  9 23  1  0  0  0  0
  9 24  1  0  0  0  0
 10  8  1  0  0  0  0
 10 25  1  0  0  0  0
 11 10  2  0  0  0  0
 13  1  1  0  0  0  0
 15  4  1  0  0  0  0
 17  5  1  0  0  0  0
 18  6  1  0  0  0  0
 19  6  1  0  0  0  0
 20  7  1  0  0  0  0
 25 29  1  0  0  0  0
 26 25  1  0  0  0  0
 26 30  1  0  0  0  0
 27 26  1  0  0  0  0
 28 27  2  0  0  0  0
 31 26  1  0  0  0  0
 32 47  1  0  0  0  0
 32 27  1  0  0  0  0
 33 48  1  6  0  0  0
 33 44  1  0  0  0  0
 33 32  1  0  0  0  0
 34 49  1  0  0  0  0
 34 33  1  0  0  0  0
 35 34  1  0  0  0  0
 36 35  2  0  0  0  0
 37 38  1  0  0  0  0
 37 36  1  0  0  0  0
 38 43  1  0  0  0  0
 39 38  2  0  0  0  0
 39 40  1  0  0  0  0
 40 41  2  0  0  0  0
 41 55  1  0  0  0  0
 41 42  1  0  0  0  0
 42 56  1  0  0  0  0
 43 35  1  0  0  0  0
 43 42  2  0  0  0  0
 44 46  1  0  0  0  0
 45 44  2  0  0  0  0
 50 34  1  0  0  0  0
 51 36  1  0  0  0  0
 52 37  1  0  0  0  0
 53 39  1  0  0  0  0
 54 40  1  0  0  0  0
M  END
$$$$
