RHC.pdb
 OpenBabel07022418053D

 53 53  0  0  1  0  0  0  0  0999 V2000
    2.9770   -3.5830    3.9270 N   0  0  0  0  0  0  0  0  0  0  0  0
    3.7750   -2.3830    3.9090 C   0  0  0  0  0  0  0  0  0  0  0  0
    4.7020   -2.1930    4.7810 N   0  0  0  0  0  0  0  0  0  0  0  0
    3.5720   -1.3710    2.9440 N   0  0  0  0  0  0  0  0  0  0  0  0
    3.9240    0.0180    3.2280 C   0  0  0  0  0  0  0  0  0  0  0  0
    3.6080    0.9200    2.0500 C   0  0  0  0  0  0  0  0  0  0  0  0
    2.1240    0.8510    1.7130 C   0  0  0  0  0  0  0  0  0  0  0  0
    1.7750    1.7520    0.5690 C   0  0  2  0  0  0  0  0  0  0  0  0
    2.0900    3.1390    0.9190 N   0  0  0  0  0  0  0  0  0  0  0  0
    0.3930    1.6500    0.1070 C   0  0  0  0  0  0  0  0  0  0  0  0
   -0.3640    2.6410    0.2530 O   0  0  0  0  0  0  0  0  0  0  0  0
    2.5440   -3.8500    4.8210 H   0  0  0  0  0  0  0  0  0  0  0  0
    2.8490   -4.1390    3.0860 H   0  0  0  0  0  0  0  0  0  0  0  0
    4.8690   -2.9110    5.5020 H   0  0  0  0  0  0  0  0  0  0  0  0
    3.1560   -1.6440    2.0090 H   0  0  0  0  0  0  0  0  0  0  0  0
    3.3670    0.3470    4.1000 H   0  0  0  0  0  0  0  0  0  0  0  0
    5.0060    0.0490    3.4720 H   0  0  0  0  0  0  0  0  0  0  0  0
    3.9400    1.9380    2.3290 H   0  0  0  0  0  0  0  0  0  0  0  0
    4.2380    0.6190    1.1810 H   0  0  0  0  0  0  0  0  0  0  0  0
    1.7760   -0.1710    1.6550 H   0  0  0  0  0  0  0  0  0  0  0  0
    1.6220    1.2990    2.6250 H   0  0  0  0  0  0  0  0  0  0  0  0
    2.4450    1.4950   -0.2780 H   0  0  0  0  0  0  0  0  0  0  0  0
    1.6710    3.7430    0.1440 H   0  0  0  0  0  0  0  0  0  0  0  0
    3.1220    3.2500    0.7820 H   0  0  0  0  0  0  0  0  0  0  0  0
   -0.1630    0.4950   -0.5030 N   0  0  0  0  0  0  0  0  0  0  0  0
   -1.5530    0.3950   -0.9580 C   0  0  1  0  0  0  0  0  0  0  0  0
   -1.6060    0.6290   -2.4670 C   0  0  0  0  0  0  0  0  0  0  0  0
   -3.0120    0.5040   -2.8990 C   0  0  0  0  0  0  0  0  0  0  0  0
   -3.9620    1.4750   -2.9500 C   0  0  0  0  0  0  0  0  0  0  0  0
   -5.1380    1.0020   -3.3900 N   0  0  0  0  0  0  0  0  0  0  0  0
   -4.9200   -0.3020   -3.6220 C   0  0  0  0  0  0  0  0  0  0  0  0
   -3.6350   -0.6200   -3.3300 N   0  0  0  0  0  0  0  0  0  0  0  0
   -2.1940   -0.8330   -0.5240 C   0  0  0  0  0  0  0  0  0  0  0  0
   -3.4240   -1.0320   -0.7410 O   0  0  0  0  0  0  0  0  0  0  0  0
    0.4530   -0.3110   -0.6250 H   0  0  0  0  0  0  0  0  0  0  0  0
   -2.0710    1.2800   -0.5350 H   0  0  0  0  0  0  0  0  0  0  0  0
   -0.9230   -0.0450   -3.0000 H   0  0  0  0  0  0  0  0  0  0  0  0
   -1.3170    1.7040   -2.6090 H   0  0  0  0  0  0  0  0  0  0  0  0
   -3.8140    2.5270   -2.6730 H   0  0  0  0  0  0  0  0  0  0  0  0
   -6.0450    1.4820   -3.5370 H   0  0  0  0  0  0  0  0  0  0  0  0
   -5.6180   -1.0420   -3.9860 H   0  0  0  0  0  0  0  0  0  0  0  0
   -1.5430   -1.8920    0.1560 N   0  0  0  0  0  0  0  0  0  0  0  0
   -2.1890   -3.0970    0.5780 C   0  0  1  0  0  0  0  0  0  0  0  0
   -1.7890   -4.3070   -0.2340 C   0  0  0  0  0  0  0  0  0  0  0  0
   -2.2370   -4.0020   -1.9820 S   0  0  0  0  0  0  0  0  0  0  0  0
   -2.0500   -3.3800    2.0230 C   0  0  0  0  0  0  0  0  0  0  0  0
   -2.5660   -4.4100    2.5580 O   0  0  0  0  0  0  0  0  0  0  0  0
   -1.3460   -2.5420    2.9020 O   0  0  0  0  0  0  0  0  0  0  0  0
   -0.5260   -1.8010    0.3660 H   0  0  0  0  0  0  0  0  0  0  0  0
   -3.2800   -2.9670    0.3730 H   0  0  0  0  0  0  0  0  0  0  0  0
   -2.4410   -5.1400    0.1000 H   0  0  0  0  0  0  0  0  0  0  0  0
   -0.7580   -4.6180   -0.1160 H   0  0  0  0  0  0  0  0  0  0  0  0
   -2.6400   -5.2130   -2.5730 H   0  0  0  0  0  0  0  0  0  0  0  0
  1 12  1  0  0  0  0
  2  1  1  0  0  0  0
  2  3  2  0  0  0  0
  3 14  1  0  0  0  0
  4  5  1  0  0  0  0
  4  2  1  0  0  0  0
  5 17  1  0  0  0  0
  5 16  1  0  0  0  0
  6 18  1  0  0  0  0
  6  5  1  0  0  0  0
  7  6  1  0  0  0  0
  7 21  1  0  0  0  0
  8 22  1  6  0  0  0
  8  9  1  0  0  0  0
  8  7  1  0  0  0  0
 10 11  2  0  0  0  0
 10  8  1  0  0  0  0
 13  1  1  0  0  0  0
 15  4  1  0  0  0  0
 19  6  1  0  0  0  0
 20  7  1  0  0  0  0
 23  9  1  0  0  0  0
 24  9  1  0  0  0  0
 25 10  1  0  0  0  0
 26 36  1  1  0  0  0
 26 33  1  0  0  0  0
 26 25  1  0  0  0  0
 27 26  1  0  0  0  0
 28 27  1  0  0  0  0
 29 28  2  0  0  0  0
 29 39  1  0  0  0  0
 30 29  1  0  0  0  0
 31 30  1  0  0  0  0
 31 32  2  0  0  0  0
 32 28  1  0  0  0  0
 33 42  1  0  0  0  0
 34 33  2  0  0  0  0
 35 25  1  0  0  0  0
 37 27  1  0  0  0  0
 38 27  1  0  0  0  0
 40 30  1  0  0  0  0
 41 31  1  0  0  0  0
 42 49  1  0  0  0  0
 42 43  1  0  0  0  0
 43 50  1  6  0  0  0
 43 46  1  0  0  0  0
 44 52  1  0  0  0  0
 44 51  1  0  0  0  0
 44 43  1  0  0  0  0
 45 44  1  0  0  0  0
 46 47  2  0  0  0  0
 46 48  1  0  0  0  0
 53 45  1  0  0  0  0
M  END
$$$$
