RHD.pdb
 OpenBabel07022418053D

 55 55  0  0  1  0  0  0  0  0999 V2000
   -0.2590   -0.5530    6.3890 N   0  0  0  0  0  0  0  0  0  0  0  0
    1.0460   -0.4000    5.8140 C   0  0  0  0  0  0  0  0  0  0  0  0
    1.9020    0.4880    6.2520 N   0  0  0  0  0  0  0  0  0  0  0  0
    1.4850   -1.2090    4.7320 N   0  0  0  0  0  0  0  0  0  0  0  0
    2.4000   -0.6560    3.7520 C   0  0  0  0  0  0  0  0  0  0  0  0
    1.6420    0.3920    2.9860 C   0  0  0  0  0  0  0  0  0  0  0  0
    2.4580    1.0730    1.9180 C   0  0  0  0  0  0  0  0  0  0  0  0
    1.5610    2.0920    1.2440 C   0  0  2  0  0  0  0  0  0  0  0  0
    1.1460    3.0120    2.2850 N   0  0  0  0  0  0  0  0  0  0  0  0
    0.3780    1.5220    0.6050 C   0  0  0  0  0  0  0  0  0  0  0  0
   -0.7650    1.8280    1.0260 O   0  0  0  0  0  0  0  0  0  0  0  0
   -1.1110   -0.1740    5.9490 H   0  0  0  0  0  0  0  0  0  0  0  0
   -0.3080   -1.0720    7.2830 H   0  0  0  0  0  0  0  0  0  0  0  0
    1.5670    1.0730    7.0480 H   0  0  0  0  0  0  0  0  0  0  0  0
    1.1330   -2.1950    4.6660 H   0  0  0  0  0  0  0  0  0  0  0  0
    3.2360   -0.1500    4.2790 H   0  0  0  0  0  0  0  0  0  0  0  0
    2.8130   -1.3980    3.0720 H   0  0  0  0  0  0  0  0  0  0  0  0
    0.7410   -0.0410    2.4790 H   0  0  0  0  0  0  0  0  0  0  0  0
    1.2370    1.1910    3.6510 H   0  0  0  0  0  0  0  0  0  0  0  0
    3.2540    1.6550    2.4340 H   0  0  0  0  0  0  0  0  0  0  0  0
    2.8890    0.3740    1.1920 H   0  0  0  0  0  0  0  0  0  0  0  0
    2.2090    2.6690    0.5430 H   0  0  0  0  0  0  0  0  0  0  0  0
    0.1450    3.2890    2.1790 H   0  0  0  0  0  0  0  0  0  0  0  0
    1.7950    3.8010    2.4130 H   0  0  0  0  0  0  0  0  0  0  0  0
    0.4160    0.6170   -0.4930 N   0  0  0  0  0  0  0  0  0  0  0  0
   -0.7970    0.0790   -1.0920 C   0  0  1  0  0  0  0  0  0  0  0  0
   -1.0210    0.6410   -2.4710 C   0  0  0  0  0  0  0  0  0  0  0  0
    0.1090    0.3580   -3.4090 C   0  0  0  0  0  0  0  0  0  0  0  0
    0.2910   -0.7060   -4.2560 C   0  0  0  0  0  0  0  0  0  0  0  0
    1.4500   -0.5160   -4.8990 N   0  0  0  0  0  0  0  0  0  0  0  0
    1.9980    0.6320   -4.4810 C   0  0  0  0  0  0  0  0  0  0  0  0
    1.1800    1.1640   -3.5740 N   0  0  0  0  0  0  0  0  0  0  0  0
   -0.8650   -1.3810   -0.9960 C   0  0  0  0  0  0  0  0  0  0  0  0
    0.1060   -2.0670   -0.5190 O   0  0  0  0  0  0  0  0  0  0  0  0
    1.3650    0.3520   -0.8560 H   0  0  0  0  0  0  0  0  0  0  0  0
   -1.6580    0.4910   -0.4780 H   0  0  0  0  0  0  0  0  0  0  0  0
   -1.2190    1.7180   -2.4650 H   0  0  0  0  0  0  0  0  0  0  0  0
   -1.9210    0.1590   -2.9010 H   0  0  0  0  0  0  0  0  0  0  0  0
   -0.4060   -1.5520   -4.3690 H   0  0  0  0  0  0  0  0  0  0  0  0
    1.8640   -1.1750   -5.6240 H   0  0  0  0  0  0  0  0  0  0  0  0
    2.9570    1.0230   -4.8550 H   0  0  0  0  0  0  0  0  0  0  0  0
   -2.0040   -2.1240   -1.4190 N   0  0  0  0  0  0  0  0  0  0  0  0
   -2.0720   -3.5670   -1.3070 C   0  0  1  0  0  0  0  0  0  0  0  0
   -3.3160   -3.9140   -0.5210 C   0  0  0  0  0  0  0  0  0  0  0  0
   -3.2840   -3.3310    0.8070 C   0  0  0  0  0  0  0  0  0  0  0  0
   -2.3350   -2.6460    1.2120 O   0  0  0  0  0  0  0  0  0  0  0  0
   -2.1650   -4.1810   -2.6750 C   0  0  0  0  0  0  0  0  0  0  0  0
   -2.1990   -3.4640   -3.6950 O   0  0  0  0  0  0  0  0  0  0  0  0
   -4.3580   -3.5380    1.6820 O   0  0  0  0  0  0  0  0  0  0  0  0
   -2.2150   -5.5550   -2.8310 O   0  0  0  0  0  0  0  0  0  0  0  0
   -2.8110   -1.5970   -1.8200 H   0  0  0  0  0  0  0  0  0  0  0  0
   -1.1440   -3.9380   -0.8190 H   0  0  0  0  0  0  0  0  0  0  0  0
   -4.1770   -3.5580   -1.1450 H   0  0  0  0  0  0  0  0  0  0  0  0
   -3.3770   -5.0350   -0.5050 H   0  0  0  0  0  0  0  0  0  0  0  0
   -4.6170   -2.7780    2.3200 H   0  0  0  0  0  0  0  0  0  0  0  0
  1 13  1  0  0  0  0
  2  3  2  0  0  0  0
  2  1  1  0  0  0  0
  3 14  1  0  0  0  0
  4  2  1  0  0  0  0
  5 16  1  0  0  0  0
  5  4  1  0  0  0  0
  6 19  1  0  0  0  0
  6  5  1  0  0  0  0
  7 20  1  0  0  0  0
  7  6  1  0  0  0  0
  8 22  1  6  0  0  0
  8  7  1  0  0  0  0
  8  9  1  0  0  0  0
  9 24  1  0  0  0  0
 10 11  2  0  0  0  0
 10  8  1  0  0  0  0
 12  1  1  0  0  0  0
 15  4  1  0  0  0  0
 17  5  1  0  0  0  0
 18  6  1  0  0  0  0
 21  7  1  0  0  0  0
 23  9  1  0  0  0  0
 25 10  1  0  0  0  0
 26 33  1  0  0  0  0
 26 25  1  0  0  0  0
 26 36  1  1  0  0  0
 27 37  1  0  0  0  0
 27 26  1  0  0  0  0
 28 27  1  0  0  0  0
 29 28  2  0  0  0  0
 30 31  1  0  0  0  0
 30 29  1  0  0  0  0
 31 32  2  0  0  0  0
 32 28  1  0  0  0  0
 33 34  2  0  0  0  0
 35 25  1  0  0  0  0
 38 27  1  0  0  0  0
 39 29  1  0  0  0  0
 40 30  1  0  0  0  0
 41 31  1  0  0  0  0
 42 43  1  0  0  0  0
 42 33  1  0  0  0  0
 43 52  1  1  0  0  0
 43 44  1  0  0  0  0
 44 54  1  0  0  0  0
 44 45  1  0  0  0  0
 45 46  2  0  0  0  0
 45 49  1  0  0  0  0
 47 43  1  0  0  0  0
 48 47  2  0  0  0  0
 49 55  1  0  0  0  0
 50 47  1  0  0  0  0
 51 42  1  0  0  0  0
 53 44  1  0  0  0  0
M  END
$$$$
