RHF.pdb
 OpenBabel07022418053D

 62 63  0  0  1  0  0  0  0  0999 V2000
    4.0440    1.0620    5.5940 N   0  0  0  0  0  0  0  0  0  0  0  0
    4.5880    1.9910    4.6690 C   0  0  0  0  0  0  0  0  0  0  0  0
    5.8360    2.3140    4.8010 N   0  0  0  0  0  0  0  0  0  0  0  0
    3.8190    2.5680    3.6240 N   0  0  0  0  0  0  0  0  0  0  0  0
    4.4040    2.9530    2.3720 C   0  0  0  0  0  0  0  0  0  0  0  0
    4.8680    1.8030    1.5450 C   0  0  0  0  0  0  0  0  0  0  0  0
    3.8310    0.8150    1.1550 C   0  0  0  0  0  0  0  0  0  0  0  0
    2.6930    1.3200    0.3460 C   0  0  2  0  0  0  0  0  0  0  0  0
    1.9110    2.3520    0.9810 N   0  0  0  0  0  0  0  0  0  0  0  0
    1.8550    0.1470   -0.0380 C   0  0  0  0  0  0  0  0  0  0  0  0
    2.4350   -0.8070   -0.6110 O   0  0  0  0  0  0  0  0  0  0  0  0
    3.6300    1.3210    6.5100 H   0  0  0  0  0  0  0  0  0  0  0  0
    4.0480    0.0420    5.3600 H   0  0  0  0  0  0  0  0  0  0  0  0
    6.4200    1.9080    5.5540 H   0  0  0  0  0  0  0  0  0  0  0  0
    2.8040    2.7060    3.7900 H   0  0  0  0  0  0  0  0  0  0  0  0
    3.7450    3.5980    1.7650 H   0  0  0  0  0  0  0  0  0  0  0  0
    5.3060    3.6000    2.5920 H   0  0  0  0  0  0  0  0  0  0  0  0
    5.6470    1.2510    2.1440 H   0  0  0  0  0  0  0  0  0  0  0  0
    5.4330    2.2170    0.6740 H   0  0  0  0  0  0  0  0  0  0  0  0
    4.3320    0.0120    0.5500 H   0  0  0  0  0  0  0  0  0  0  0  0
    3.4810    0.3150    2.1020 H   0  0  0  0  0  0  0  0  0  0  0  0
    3.0770    1.7430   -0.6030 H   0  0  0  0  0  0  0  0  0  0  0  0
    1.4910    2.0630    1.8900 H   0  0  0  0  0  0  0  0  0  0  0  0
    1.2270    2.7720    0.3280 H   0  0  0  0  0  0  0  0  0  0  0  0
    0.4780    0.0480    0.2010 N   0  0  0  0  0  0  0  0  0  0  0  0
   -0.3560   -1.0800   -0.1630 C   0  0  1  0  0  0  0  0  0  0  0  0
   -0.8400   -1.7020    1.1400 C   0  0  0  0  0  0  0  0  0  0  0  0
   -1.6200   -0.7830    1.9700 C   0  0  0  0  0  0  0  0  0  0  0  0
   -1.1970    0.0850    2.9500 C   0  0  0  0  0  0  0  0  0  0  0  0
   -2.2980    0.7000    3.4090 N   0  0  0  0  0  0  0  0  0  0  0  0
   -3.3870    0.2440    2.7510 C   0  0  0  0  0  0  0  0  0  0  0  0
   -2.9660   -0.6610    1.8740 N   0  0  0  0  0  0  0  0  0  0  0  0
   -1.5120   -0.6740   -0.9950 C   0  0  0  0  0  0  0  0  0  0  0  0
   -1.6420    0.5230   -1.2980 O   0  0  0  0  0  0  0  0  0  0  0  0
    0.0060    0.8470    0.6780 H   0  0  0  0  0  0  0  0  0  0  0  0
    0.2340   -1.8750   -0.6800 H   0  0  0  0  0  0  0  0  0  0  0  0
    0.0700   -1.9920    1.7110 H   0  0  0  0  0  0  0  0  0  0  0  0
   -1.3600   -2.6570    0.9070 H   0  0  0  0  0  0  0  0  0  0  0  0
   -0.1750    0.2330    3.2750 H   0  0  0  0  0  0  0  0  0  0  0  0
   -2.3620    1.4220    4.1550 H   0  0  0  0  0  0  0  0  0  0  0  0
   -4.4330    0.5280    2.8730 H   0  0  0  0  0  0  0  0  0  0  0  0
   -2.4550   -1.6060   -1.4430 N   0  0  0  0  0  0  0  0  0  0  0  0
   -3.6120   -1.3020   -2.2570 C   0  0  1  0  0  0  0  0  0  0  0  0
   -3.4520   -2.0280   -3.5880 C   0  0  0  0  0  0  0  0  0  0  0  0
   -3.3590   -3.4960   -3.3810 C   0  0  0  0  0  0  0  0  0  0  0  0
   -2.1230   -4.0830   -3.1970 C   0  0  0  0  0  0  0  0  0  0  0  0
   -1.9810   -5.4460   -2.9960 C   0  0  0  0  0  0  0  0  0  0  0  0
   -3.1300   -6.2330   -2.9820 C   0  0  0  0  0  0  0  0  0  0  0  0
   -4.3590   -5.6350   -3.1670 C   0  0  0  0  0  0  0  0  0  0  0  0
   -4.5040   -4.2620   -3.3700 C   0  0  0  0  0  0  0  0  0  0  0  0
   -4.8760   -1.6060   -1.6000 C   0  0  0  0  0  0  0  0  0  0  0  0
   -5.9540   -1.3990   -2.1940 O   0  0  0  0  0  0  0  0  0  0  0  0
   -4.8980   -2.1220   -0.3240 O   0  0  0  0  0  0  0  0  0  0  0  0
   -2.3220   -2.6050   -1.1740 H   0  0  0  0  0  0  0  0  0  0  0  0
   -3.5960   -0.2030   -2.4810 H   0  0  0  0  0  0  0  0  0  0  0  0
   -4.2540   -1.7470   -4.3000 H   0  0  0  0  0  0  0  0  0  0  0  0
   -2.5030   -1.6470   -4.0570 H   0  0  0  0  0  0  0  0  0  0  0  0
   -1.2280   -3.4910   -3.2050 H   0  0  0  0  0  0  0  0  0  0  0  0
   -1.0240   -5.9270   -2.8500 H   0  0  0  0  0  0  0  0  0  0  0  0
   -3.0600   -7.3140   -2.8260 H   0  0  0  0  0  0  0  0  0  0  0  0
   -5.2870   -6.2200   -3.1630 H   0  0  0  0  0  0  0  0  0  0  0  0
   -5.5030   -3.8540   -3.5100 H   0  0  0  0  0  0  0  0  0  0  0  0
  1 12  1  0  0  0  0
  2  3  2  0  0  0  0
  2  1  1  0  0  0  0
  3 14  1  0  0  0  0
  4 15  1  0  0  0  0
  4  2  1  0  0  0  0
  5 17  1  0  0  0  0
  5  4  1  0  0  0  0
  6 18  1  0  0  0  0
  6  5  1  0  0  0  0
  7  6  1  0  0  0  0
  7 21  1  0  0  0  0
  8 22  1  6  0  0  0
  8  9  1  0  0  0  0
  8  7  1  0  0  0  0
  9 23  1  0  0  0  0
 10 25  1  0  0  0  0
 10  8  1  0  0  0  0
 11 10  2  0  0  0  0
 13  1  1  0  0  0  0
 16  5  1  0  0  0  0
 19  6  1  0  0  0  0
 20  7  1  0  0  0  0
 24  9  1  0  0  0  0
 25 35  1  0  0  0  0
 26 36  1  6  0  0  0
 26 25  1  0  0  0  0
 26 27  1  0  0  0  0
 27 37  1  0  0  0  0
 27 28  1  0  0  0  0
 28 29  2  0  0  0  0
 29 39  1  0  0  0  0
 29 30  1  0  0  0  0
 30 40  1  0  0  0  0
 31 41  1  0  0  0  0
 31 30  1  0  0  0  0
 32 28  1  0  0  0  0
 32 31  2  0  0  0  0
 33 26  1  0  0  0  0
 34 33  2  0  0  0  0
 38 27  1  0  0  0  0
 42 54  1  0  0  0  0
 42 33  1  0  0  0  0
 43 55  1  6  0  0  0
 43 51  1  0  0  0  0
 43 42  1  0  0  0  0
 44 45  1  0  0  0  0
 44 43  1  0  0  0  0
 45 50  2  0  0  0  0
 45 46  1  0  0  0  0
 46 47  2  0  0  0  0
 47 48  1  0  0  0  0
 47 59  1  0  0  0  0
 48 60  1  0  0  0  0
 49 61  1  0  0  0  0
 49 48  2  0  0  0  0
 50 49  1  0  0  0  0
 51 53  1  0  0  0  0
 52 51  2  0  0  0  0
 56 44  1  0  0  0  0
 57 44  1  0  0  0  0
 58 46  1  0  0  0  0
 62 50  1  0  0  0  0
M  END
$$$$
