RHG.pdb
 OpenBabel07022418053D

 49 49  0  0  1  0  0  0  0  0999 V2000
    4.7820   -1.2000    4.1900 N   0  0  0  0  0  0  0  0  0  0  0  0
    3.7790   -0.5610    3.4060 C   0  0  0  0  0  0  0  0  0  0  0  0
    3.5560    0.6850    3.6410 N   0  0  0  0  0  0  0  0  0  0  0  0
    3.0430   -1.2420    2.4060 N   0  0  0  0  0  0  0  0  0  0  0  0
    2.1690   -0.5510    1.5080 C   0  0  0  0  0  0  0  0  0  0  0  0
    2.8570    0.3320    0.5370 C   0  0  0  0  0  0  0  0  0  0  0  0
    1.9480    1.0420   -0.3830 C   0  0  0  0  0  0  0  0  0  0  0  0
    0.9450    1.9730    0.1990 C   0  0  2  0  0  0  0  0  0  0  0  0
    1.6020    3.0220    0.9560 N   0  0  0  0  0  0  0  0  0  0  0  0
   -0.2050    1.3920    0.8860 C   0  0  0  0  0  0  0  0  0  0  0  0
   -0.5200    1.8400    2.0430 O   0  0  0  0  0  0  0  0  0  0  0  0
    4.8280   -2.2380    4.2810 H   0  0  0  0  0  0  0  0  0  0  0  0
    5.5050   -0.6500    4.6990 H   0  0  0  0  0  0  0  0  0  0  0  0
    4.0620    1.2370    4.3600 H   0  0  0  0  0  0  0  0  0  0  0  0
    3.1530   -2.2680    2.3390 H   0  0  0  0  0  0  0  0  0  0  0  0
    1.4080   -0.0320    2.0820 H   0  0  0  0  0  0  0  0  0  0  0  0
    1.6080   -1.3140    0.8880 H   0  0  0  0  0  0  0  0  0  0  0  0
    3.5100   -0.3450   -0.0910 H   0  0  0  0  0  0  0  0  0  0  0  0
    3.5560    1.0600    0.9940 H   0  0  0  0  0  0  0  0  0  0  0  0
    2.6070    1.6980   -1.0360 H   0  0  0  0  0  0  0  0  0  0  0  0
    1.4900    0.3410   -1.1210 H   0  0  0  0  0  0  0  0  0  0  0  0
    0.5500    2.5510   -0.7150 H   0  0  0  0  0  0  0  0  0  0  0  0
    1.3170    3.0290    1.9580 H   0  0  0  0  0  0  0  0  0  0  0  0
    2.6330    3.0330    0.8160 H   0  0  0  0  0  0  0  0  0  0  0  0
   -1.0320    0.3550    0.3890 N   0  0  0  0  0  0  0  0  0  0  0  0
   -2.1560   -0.1820    1.1090 C   0  0  1  0  0  0  0  0  0  0  0  0
   -3.4110    0.3120    0.4060 C   0  0  0  0  0  0  0  0  0  0  0  0
   -3.4840   -0.1240   -1.0100 C   0  0  0  0  0  0  0  0  0  0  0  0
   -2.9750    0.5920   -2.0940 C   0  0  0  0  0  0  0  0  0  0  0  0
   -3.2200   -0.0960   -3.2250 N   0  0  0  0  0  0  0  0  0  0  0  0
   -3.8640   -1.2180   -2.8850 C   0  0  0  0  0  0  0  0  0  0  0  0
   -4.0190   -1.2280   -1.5530 N   0  0  0  0  0  0  0  0  0  0  0  0
   -2.2290   -1.6260    1.2290 C   0  0  0  0  0  0  0  0  0  0  0  0
   -3.1740   -2.1320    1.8830 O   0  0  0  0  0  0  0  0  0  0  0  0
   -0.7800   -0.0190   -0.5630 H   0  0  0  0  0  0  0  0  0  0  0  0
   -2.1730    0.2760    2.1220 H   0  0  0  0  0  0  0  0  0  0  0  0
   -3.5260    1.4090    0.4730 H   0  0  0  0  0  0  0  0  0  0  0  0
   -4.3180   -0.1240    0.9070 H   0  0  0  0  0  0  0  0  0  0  0  0
   -2.4740    1.5450   -1.9740 H   0  0  0  0  0  0  0  0  0  0  0  0
   -2.9370    0.2290   -4.1830 H   0  0  0  0  0  0  0  0  0  0  0  0
   -4.1880   -1.9640   -3.5890 H   0  0  0  0  0  0  0  0  0  0  0  0
   -1.2840   -2.4750    0.6410 N   0  0  0  0  0  0  0  0  0  0  0  0
   -1.3210   -3.9230    0.7400 C   0  0  0  0  0  0  0  0  0  0  0  0
   -0.1810   -4.5300    0.0100 C   0  0  0  0  0  0  0  0  0  0  0  0
    0.6490   -3.7910   -0.5840 O   0  0  0  0  0  0  0  0  0  0  0  0
   -0.0140   -5.9060   -0.0300 O   0  0  0  0  0  0  0  0  0  0  0  0
   -0.5120   -2.0410    0.0990 H   0  0  0  0  0  0  0  0  0  0  0  0
   -2.2790   -4.2630    0.3130 H   0  0  0  0  0  0  0  0  0  0  0  0
   -1.3040   -4.2290    1.7980 H   0  0  0  0  0  0  0  0  0  0  0  0
  1 12  1  0  0  0  0
  1 13  1  0  0  0  0
  2  3  2  0  0  0  0
  2  1  1  0  0  0  0
  3 14  1  0  0  0  0
  4  2  1  0  0  0  0
  5 16  1  0  0  0  0
  5  4  1  0  0  0  0
  6 19  1  0  0  0  0
  6  5  1  0  0  0  0
  7  8  1  0  0  0  0
  7  6  1  0  0  0  0
  8 22  1  6  0  0  0
  8 10  1  0  0  0  0
  8  9  1  0  0  0  0
  9 23  1  0  0  0  0
 10 11  2  0  0  0  0
 15  4  1  0  0  0  0
 17  5  1  0  0  0  0
 18  6  1  0  0  0  0
 20  7  1  0  0  0  0
 21  7  1  0  0  0  0
 24  9  1  0  0  0  0
 25 10  1  0  0  0  0
 25 26  1  0  0  0  0
 26 33  1  0  0  0  0
 26 36  1  1  0  0  0
 27 37  1  0  0  0  0
 27 38  1  0  0  0  0
 27 26  1  0  0  0  0
 28 27  1  0  0  0  0
 29 39  1  0  0  0  0
 29 28  2  0  0  0  0
 30 31  1  0  0  0  0
 30 29  1  0  0  0  0
 31 32  2  0  0  0  0
 32 28  1  0  0  0  0
 33 34  2  0  0  0  0
 35 25  1  0  0  0  0
 40 30  1  0  0  0  0
 41 31  1  0  0  0  0
 42 43  1  0  0  0  0
 42 33  1  0  0  0  0
 43 49  1  0  0  0  0
 44 43  1  0  0  0  0
 45 44  2  0  0  0  0
 46 44  1  0  0  0  0
 47 42  1  0  0  0  0
 48 43  1  0  0  0  0
M  END
$$$$
