RHI.pdb
 OpenBabel07022418053D

 61 61  0  0  1  0  0  0  0  0999 V2000
    0.6820   -3.8870    3.6550 N   0  0  0  0  0  0  0  0  0  0  0  0
    1.7270   -2.9300    3.7290 C   0  0  0  0  0  0  0  0  0  0  0  0
    2.6610   -3.0760    4.6330 N   0  0  0  0  0  0  0  0  0  0  0  0
    1.7970   -1.8050    2.8480 N   0  0  0  0  0  0  0  0  0  0  0  0
    2.5300   -0.6670    3.3050 C   0  0  0  0  0  0  0  0  0  0  0  0
    2.5720    0.4810    2.3510 C   0  0  0  0  0  0  0  0  0  0  0  0
    3.1970    0.1390    1.0360 C   0  0  0  0  0  0  0  0  0  0  0  0
    3.1880    1.3860    0.1550 C   0  0  2  0  0  0  0  0  0  0  0  0
    3.9480    2.4550    0.8000 N   0  0  0  0  0  0  0  0  0  0  0  0
    1.8230    1.9000   -0.0660 C   0  0  0  0  0  0  0  0  0  0  0  0
    1.4630    3.0660    0.2870 O   0  0  0  0  0  0  0  0  0  0  0  0
    0.8730   -4.8450    3.3040 H   0  0  0  0  0  0  0  0  0  0  0  0
   -0.2840   -3.6460    3.9490 H   0  0  0  0  0  0  0  0  0  0  0  0
    2.6320   -3.8860    5.2870 H   0  0  0  0  0  0  0  0  0  0  0  0
    1.3090   -1.9070    1.9430 H   0  0  0  0  0  0  0  0  0  0  0  0
    2.0270   -0.2960    4.2410 H   0  0  0  0  0  0  0  0  0  0  0  0
    3.5560   -0.9530    3.6110 H   0  0  0  0  0  0  0  0  0  0  0  0
    3.2050    1.2740    2.8210 H   0  0  0  0  0  0  0  0  0  0  0  0
    1.5730    0.9070    2.2090 H   0  0  0  0  0  0  0  0  0  0  0  0
    4.2740   -0.1290    1.1560 H   0  0  0  0  0  0  0  0  0  0  0  0
    2.7180   -0.7100    0.5420 H   0  0  0  0  0  0  0  0  0  0  0  0
    3.6640    1.1860   -0.8230 H   0  0  0  0  0  0  0  0  0  0  0  0
    4.4830    3.0160    0.0740 H   0  0  0  0  0  0  0  0  0  0  0  0
    3.2960    3.1280    1.2710 H   0  0  0  0  0  0  0  0  0  0  0  0
    0.8170    1.0920   -0.7020 N   0  0  0  0  0  0  0  0  0  0  0  0
   -0.5170    1.5560   -0.9350 C   0  0  1  0  0  0  0  0  0  0  0  0
   -0.8430    1.7620   -2.3940 C   0  0  0  0  0  0  0  0  0  0  0  0
   -0.6980    0.5440   -3.2030 C   0  0  0  0  0  0  0  0  0  0  0  0
   -0.9300    0.4000   -4.5660 C   0  0  0  0  0  0  0  0  0  0  0  0
   -0.6650   -0.8840   -4.8520 N   0  0  0  0  0  0  0  0  0  0  0  0
   -0.2840   -1.5340   -3.7390 C   0  0  0  0  0  0  0  0  0  0  0  0
   -0.3110   -0.6450   -2.7460 N   0  0  0  0  0  0  0  0  0  0  0  0
   -1.5510    0.7650   -0.2220 C   0  0  0  0  0  0  0  0  0  0  0  0
   -2.7750    1.1020   -0.3730 O   0  0  0  0  0  0  0  0  0  0  0  0
    1.0840    0.1280   -1.0010 H   0  0  0  0  0  0  0  0  0  0  0  0
   -0.5520    2.6230   -0.5000 H   0  0  0  0  0  0  0  0  0  0  0  0
   -0.2410    2.6030   -2.8110 H   0  0  0  0  0  0  0  0  0  0  0  0
   -1.9240    2.0490   -2.4430 H   0  0  0  0  0  0  0  0  0  0  0  0
   -1.2630    1.1930   -5.2490 H   0  0  0  0  0  0  0  0  0  0  0  0
   -0.7350   -1.3440   -5.7880 H   0  0  0  0  0  0  0  0  0  0  0  0
   -0.0080   -2.5990   -3.6900 H   0  0  0  0  0  0  0  0  0  0  0  0
   -4.1890   -2.3020   -0.8610 C   0  0  0  0  0  0  0  0  0  0  0  0
   -2.7410   -2.6570   -0.5910 C   0  0  0  0  0  0  0  0  0  0  0  0
   -2.3980   -2.5040    0.8740 C   0  0  2  0  0  0  0  0  0  0  0  0
   -3.2480   -3.3930    1.7360 C   0  0  0  0  0  0  0  0  0  0  0  0
   -2.3330   -1.0900    1.3260 C   0  0  2  0  0  0  0  0  0  0  0  0
   -1.3260   -0.3320    0.6190 N   0  0  0  0  0  0  0  0  0  0  0  0
   -2.2110   -0.9370    2.7950 C   0  0  0  0  0  0  0  0  0  0  0  0
   -2.9380   -1.4710    3.6330 O   0  0  0  0  0  0  0  0  0  0  0  0
   -1.1810   -0.1150    3.2700 O   0  0  0  0  0  0  0  0  0  0  0  0
   -4.8270   -2.9480   -0.2450 H   0  0  0  0  0  0  0  0  0  0  0  0
   -4.3630   -2.4390   -1.9390 H   0  0  0  0  0  0  0  0  0  0  0  0
   -4.3250   -1.2280   -0.6280 H   0  0  0  0  0  0  0  0  0  0  0  0
   -2.4660   -3.6440   -0.9590 H   0  0  0  0  0  0  0  0  0  0  0  0
   -2.1400   -1.8960   -1.1270 H   0  0  0  0  0  0  0  0  0  0  0  0
   -1.3560   -2.9480    0.9550 H   0  0  0  0  0  0  0  0  0  0  0  0
   -3.4470   -4.3210    1.1420 H   0  0  0  0  0  0  0  0  0  0  0  0
   -4.2430   -2.9630    1.9550 H   0  0  0  0  0  0  0  0  0  0  0  0
   -2.6860   -3.6970    2.6170 H   0  0  0  0  0  0  0  0  0  0  0  0
   -3.3430   -0.6380    1.0790 H   0  0  0  0  0  0  0  0  0  0  0  0
   -0.3070   -0.6180    0.7360 H   0  0  0  0  0  0  0  0  0  0  0  0
  1  2  1  0  0  0  0
  1 13  1  0  0  0  0
  2  3  2  0  0  0  0
  3 14  1  0  0  0  0
  4  5  1  0  0  0  0
  4  2  1  0  0  0  0
  5 17  1  0  0  0  0
  5 16  1  0  0  0  0
  6 18  1  0  0  0  0
  6  5  1  0  0  0  0
  7 20  1  0  0  0  0
  7  6  1  0  0  0  0
  8 22  1  6  0  0  0
  8  9  1  0  0  0  0
  8  7  1  0  0  0  0
  9 24  1  0  0  0  0
 10  8  1  0  0  0  0
 10 11  2  0  0  0  0
 12  1  1  0  0  0  0
 15  4  1  0  0  0  0
 19  6  1  0  0  0  0
 21  7  1  0  0  0  0
 23  9  1  0  0  0  0
 25 10  1  0  0  0  0
 26 25  1  0  0  0  0
 26 36  1  1  0  0  0
 26 33  1  0  0  0  0
 27 26  1  0  0  0  0
 28 32  1  0  0  0  0
 28 27  1  0  0  0  0
 29 28  2  0  0  0  0
 30 29  1  0  0  0  0
 30 31  1  0  0  0  0
 31 41  1  0  0  0  0
 31 32  2  0  0  0  0
 33 47  1  0  0  0  0
 34 33  2  0  0  0  0
 35 25  1  0  0  0  0
 37 27  1  0  0  0  0
 38 27  1  0  0  0  0
 39 29  1  0  0  0  0
 40 30  1  0  0  0  0
 42 53  1  0  0  0  0
 42 43  1  0  0  0  0
 42 51  1  0  0  0  0
 43 44  1  0  0  0  0
 44 56  1  1  0  0  0
 44 46  1  0  0  0  0
 44 45  1  0  0  0  0
 45 58  1  0  0  0  0
 45 59  1  0  0  0  0
 46 60  1  6  0  0  0
 46 48  1  0  0  0  0
 47 61  1  0  0  0  0
 47 46  1  0  0  0  0
 48 50  2  0  0  0  0
 48 49  1  0  0  0  0
 52 42  1  0  0  0  0
 54 43  1  0  0  0  0
 55 43  1  0  0  0  0
 57 45  1  0  0  0  0
M  END
$$$$
