RHM.pdb
 OpenBabel07022418053D

 59 59  0  0  1  0  0  0  0  0999 V2000
    2.3800    2.8160    7.2500 N   0  0  0  0  0  0  0  0  0  0  0  0
    2.8190    1.9400    6.2190 C   0  0  0  0  0  0  0  0  0  0  0  0
    3.5600    2.3720    5.2610 N   0  0  0  0  0  0  0  0  0  0  0  0
    2.4300    0.5620    6.2500 N   0  0  0  0  0  0  0  0  0  0  0  0
    3.0430   -0.4300    5.4240 C   0  0  0  0  0  0  0  0  0  0  0  0
    2.7390   -0.2670    3.9500 C   0  0  0  0  0  0  0  0  0  0  0  0
    3.4390   -1.3690    3.1840 C   0  0  0  0  0  0  0  0  0  0  0  0
    3.2140   -1.3150    1.7090 C   0  0  2  0  0  0  0  0  0  0  0  0
    3.6620   -0.1070    1.0730 N   0  0  0  0  0  0  0  0  0  0  0  0
    1.8180   -1.6490    1.4110 C   0  0  0  0  0  0  0  0  0  0  0  0
    1.3170   -2.6680    1.9450 O   0  0  0  0  0  0  0  0  0  0  0  0
    1.8680    2.4320    8.0910 H   0  0  0  0  0  0  0  0  0  0  0  0
    2.5620    3.8390    7.1800 H   0  0  0  0  0  0  0  0  0  0  0  0
    3.8310    3.3700    5.2560 H   0  0  0  0  0  0  0  0  0  0  0  0
    1.6510    0.3260    6.9320 H   0  0  0  0  0  0  0  0  0  0  0  0
    2.6280   -1.4330    5.7280 H   0  0  0  0  0  0  0  0  0  0  0  0
    4.1230   -0.4570    5.6290 H   0  0  0  0  0  0  0  0  0  0  0  0
    3.1710    0.7000    3.6250 H   0  0  0  0  0  0  0  0  0  0  0  0
    1.6580   -0.2450    3.7480 H   0  0  0  0  0  0  0  0  0  0  0  0
    4.5160   -1.4020    3.4030 H   0  0  0  0  0  0  0  0  0  0  0  0
    2.9820   -2.3400    3.5380 H   0  0  0  0  0  0  0  0  0  0  0  0
    3.8440   -2.1390    1.2720 H   0  0  0  0  0  0  0  0  0  0  0  0
    4.6970   -0.0350    1.1410 H   0  0  0  0  0  0  0  0  0  0  0  0
    3.2200    0.7520    1.4370 H   0  0  0  0  0  0  0  0  0  0  0  0
    0.9880   -0.8910    0.5530 N   0  0  0  0  0  0  0  0  0  0  0  0
   -0.3620   -1.2740    0.3100 C   0  0  1  0  0  0  0  0  0  0  0  0
   -1.3700   -0.2050    0.6610 C   0  0  0  0  0  0  0  0  0  0  0  0
   -1.1630    1.0380   -0.1280 C   0  0  0  0  0  0  0  0  0  0  0  0
   -1.9060    2.1950   -0.0460 C   0  0  0  0  0  0  0  0  0  0  0  0
   -1.3990    3.0640   -0.9160 N   0  0  0  0  0  0  0  0  0  0  0  0
   -0.3580    2.4920   -1.5460 C   0  0  0  0  0  0  0  0  0  0  0  0
   -0.2260    1.2630   -1.0580 N   0  0  0  0  0  0  0  0  0  0  0  0
   -0.5930   -1.6740   -1.1100 C   0  0  0  0  0  0  0  0  0  0  0  0
    0.3410   -1.6510   -1.9480 O   0  0  0  0  0  0  0  0  0  0  0  0
    1.3730   -0.0290    0.0860 H   0  0  0  0  0  0  0  0  0  0  0  0
   -0.5970   -2.1690    0.9180 H   0  0  0  0  0  0  0  0  0  0  0  0
   -1.4240    0.0070    1.7490 H   0  0  0  0  0  0  0  0  0  0  0  0
   -2.3770   -0.6100    0.3730 H   0  0  0  0  0  0  0  0  0  0  0  0
   -2.7570    2.4110    0.5920 H   0  0  0  0  0  0  0  0  0  0  0  0
   -1.7440    4.0420   -1.0950 H   0  0  0  0  0  0  0  0  0  0  0  0
    0.2720    2.9530   -2.3230 H   0  0  0  0  0  0  0  0  0  0  0  0
   -5.5470   -4.0370   -4.9190 C   0  0  0  0  0  0  0  0  0  0  0  0
   -3.8820   -3.7260   -5.4760 S   0  0  0  0  0  0  0  0  0  0  0  0
   -2.6090   -4.4060   -4.4540 C   0  0  0  0  0  0  0  0  0  0  0  0
   -2.4290   -3.8830   -3.0900 C   0  0  0  0  0  0  0  0  0  0  0  0
   -2.0220   -2.4730   -2.9990 C   0  0  2  0  0  0  0  0  0  0  0  0
   -1.8670   -2.0900   -1.5620 N   0  0  0  0  0  0  0  0  0  0  0  0
   -2.9010   -1.4510   -3.5750 C   0  0  0  0  0  0  0  0  0  0  0  0
   -3.4930   -0.6020   -2.8010 O   0  0  0  0  0  0  0  0  0  0  0  0
   -3.1970   -1.2560   -4.9110 O   0  0  0  0  0  0  0  0  0  0  0  0
   -6.0100   -3.2130   -4.3580 H   0  0  0  0  0  0  0  0  0  0  0  0
   -5.6130   -4.9390   -4.2550 H   0  0  0  0  0  0  0  0  0  0  0  0
   -6.1790   -4.2850   -5.8200 H   0  0  0  0  0  0  0  0  0  0  0  0
   -2.6770   -5.5270   -4.4880 H   0  0  0  0  0  0  0  0  0  0  0  0
   -1.6200   -4.2180   -4.9940 H   0  0  0  0  0  0  0  0  0  0  0  0
   -3.2760   -4.1470   -2.3980 H   0  0  0  0  0  0  0  0  0  0  0  0
   -1.5740   -4.4960   -2.6400 H   0  0  0  0  0  0  0  0  0  0  0  0
   -1.0370   -2.3640   -3.5060 H   0  0  0  0  0  0  0  0  0  0  0  0
   -2.6930   -2.1400   -0.9310 H   0  0  0  0  0  0  0  0  0  0  0  0
  1 12  1  0  0  0  0
  2  4  1  0  0  0  0
  2  1  1  0  0  0  0
  3  2  2  0  0  0  0
  4 15  1  0  0  0  0
  5 17  1  0  0  0  0
  5 16  1  0  0  0  0
  5  4  1  0  0  0  0
  6  5  1  0  0  0  0
  7 20  1  0  0  0  0
  7 21  1  0  0  0  0
  7  6  1  0  0  0  0
  8 22  1  6  0  0  0
  8  7  1  0  0  0  0
  9 23  1  0  0  0  0
  9 24  1  0  0  0  0
  9  8  1  0  0  0  0
 10  8  1  0  0  0  0
 10 11  2  0  0  0  0
 13  1  1  0  0  0  0
 14  3  1  0  0  0  0
 18  6  1  0  0  0  0
 19  6  1  0  0  0  0
 25 10  1  0  0  0  0
 26 25  1  0  0  0  0
 26 27  1  0  0  0  0
 26 36  1  1  0  0  0
 27 37  1  0  0  0  0
 28 29  2  0  0  0  0
 28 27  1  0  0  0  0
 29 39  1  0  0  0  0
 30 29  1  0  0  0  0
 31 32  2  0  0  0  0
 31 30  1  0  0  0  0
 32 28  1  0  0  0  0
 33 26  1  0  0  0  0
 34 33  2  0  0  0  0
 35 25  1  0  0  0  0
 38 27  1  0  0  0  0
 40 30  1  0  0  0  0
 41 31  1  0  0  0  0
 42 51  1  0  0  0  0
 42 52  1  0  0  0  0
 43 42  1  0  0  0  0
 43 44  1  0  0  0  0
 44 45  1  0  0  0  0
 45 46  1  0  0  0  0
 45 57  1  0  0  0  0
 45 56  1  0  0  0  0
 46 58  1  6  0  0  0
 46 47  1  0  0  0  0
 47 33  1  0  0  0  0
 47 59  1  0  0  0  0
 48 46  1  0  0  0  0
 48 49  1  0  0  0  0
 50 48  2  0  0  0  0
 53 42  1  0  0  0  0
 54 44  1  0  0  0  0
 55 44  1  0  0  0  0
M  END
$$$$
