RHN.pdb
 OpenBabel07022418053D

 56 56  0  0  1  0  0  0  0  0999 V2000
    2.0920    1.0610    7.2930 N   0  0  0  0  0  0  0  0  0  0  0  0
    2.8120    1.3290    6.0920 C   0  0  0  0  0  0  0  0  0  0  0  0
    3.5870    2.3820    6.1470 N   0  0  0  0  0  0  0  0  0  0  0  0
    2.6910    0.5180    4.9420 N   0  0  0  0  0  0  0  0  0  0  0  0
    3.5930    0.6840    3.8650 C   0  0  0  0  0  0  0  0  0  0  0  0
    3.3920   -0.2150    2.6990 C   0  0  0  0  0  0  0  0  0  0  0  0
    2.0960   -0.1640    2.0000 C   0  0  0  0  0  0  0  0  0  0  0  0
    1.7240    1.1690    1.4020 C   0  0  2  0  0  0  0  0  0  0  0  0
    1.6280    2.2280    2.3790 N   0  0  0  0  0  0  0  0  0  0  0  0
    0.4630    1.0980    0.6240 C   0  0  0  0  0  0  0  0  0  0  0  0
   -0.5030    1.8850    0.8840 O   0  0  0  0  0  0  0  0  0  0  0  0
    1.9900    0.1190    7.7250 H   0  0  0  0  0  0  0  0  0  0  0  0
    1.6330    1.8610    7.7780 H   0  0  0  0  0  0  0  0  0  0  0  0
    4.1240    2.6030    5.2900 H   0  0  0  0  0  0  0  0  0  0  0  0
    1.9400   -0.1890    4.9090 H   0  0  0  0  0  0  0  0  0  0  0  0
    3.6100    1.7380    3.5220 H   0  0  0  0  0  0  0  0  0  0  0  0
    4.6310    0.5350    4.3030 H   0  0  0  0  0  0  0  0  0  0  0  0
    3.6070   -1.2570    3.0410 H   0  0  0  0  0  0  0  0  0  0  0  0
    4.1930   -0.0210    1.9250 H   0  0  0  0  0  0  0  0  0  0  0  0
    2.1050   -0.8950    1.1480 H   0  0  0  0  0  0  0  0  0  0  0  0
    1.2230   -0.4760    2.6100 H   0  0  0  0  0  0  0  0  0  0  0  0
    2.5060    1.5170    0.6640 H   0  0  0  0  0  0  0  0  0  0  0  0
    1.9320    3.1590    1.9680 H   0  0  0  0  0  0  0  0  0  0  0  0
    0.6930    2.2940    2.8250 H   0  0  0  0  0  0  0  0  0  0  0  0
    0.3260    0.1390   -0.4250 N   0  0  0  0  0  0  0  0  0  0  0  0
   -0.9070    0.0490   -1.2060 C   0  0  1  0  0  0  0  0  0  0  0  0
   -0.6150    0.3270   -2.6400 C   0  0  0  0  0  0  0  0  0  0  0  0
    0.3590   -0.6530   -3.2110 C   0  0  0  0  0  0  0  0  0  0  0  0
    0.8160   -0.6390   -4.5080 C   0  0  0  0  0  0  0  0  0  0  0  0
    1.6680   -1.6610   -4.6460 N   0  0  0  0  0  0  0  0  0  0  0  0
    1.7370   -2.2910   -3.4700 C   0  0  0  0  0  0  0  0  0  0  0  0
    0.9450   -1.6850   -2.5920 N   0  0  0  0  0  0  0  0  0  0  0  0
   -1.5570   -1.2700   -0.9900 C   0  0  0  0  0  0  0  0  0  0  0  0
   -1.0200   -2.1220   -0.2120 O   0  0  0  0  0  0  0  0  0  0  0  0
    1.1500   -0.4750   -0.5890 H   0  0  0  0  0  0  0  0  0  0  0  0
   -1.6080    0.8130   -0.8150 H   0  0  0  0  0  0  0  0  0  0  0  0
   -0.1860    1.3450   -2.7090 H   0  0  0  0  0  0  0  0  0  0  0  0
   -1.5570    0.3400   -3.2270 H   0  0  0  0  0  0  0  0  0  0  0  0
    0.5600    0.0490   -5.2920 H   0  0  0  0  0  0  0  0  0  0  0  0
    2.1930   -1.9180   -5.5440 H   0  0  0  0  0  0  0  0  0  0  0  0
    2.3570   -3.1780   -3.2610 H   0  0  0  0  0  0  0  0  0  0  0  0
   -5.1630   -4.6360    0.6090 N   0  0  0  0  0  0  0  0  0  0  0  0
   -5.4470   -3.9010   -0.5830 C   0  0  0  0  0  0  0  0  0  0  0  0
   -6.2820   -4.4430   -1.3590 O   0  0  0  0  0  0  0  0  0  0  0  0
   -4.7720   -2.6270   -0.7980 C   0  0  0  0  0  0  0  0  0  0  0  0
   -3.4370   -2.8380   -1.4720 C   0  0  2  0  0  0  0  0  0  0  0  0
   -2.7740   -1.5330   -1.6720 N   0  0  0  0  0  0  0  0  0  0  0  0
   -3.6570   -3.5050   -2.7650 C   0  0  0  0  0  0  0  0  0  0  0  0
   -4.1650   -4.6360   -2.8120 O   0  0  0  0  0  0  0  0  0  0  0  0
   -3.3010   -2.8800   -3.9410 O   0  0  0  0  0  0  0  0  0  0  0  0
   -4.1800   -4.8560    0.8190 H   0  0  0  0  0  0  0  0  0  0  0  0
   -5.9320   -4.9260    1.2220 H   0  0  0  0  0  0  0  0  0  0  0  0
   -4.6840   -2.0080    0.1190 H   0  0  0  0  0  0  0  0  0  0  0  0
   -5.3940   -2.0530   -1.5480 H   0  0  0  0  0  0  0  0  0  0  0  0
   -2.8280   -3.4540   -0.7670 H   0  0  0  0  0  0  0  0  0  0  0  0
   -3.2400   -0.8590   -2.3150 H   0  0  0  0  0  0  0  0  0  0  0  0
  1 12  1  0  0  0  0
  1 13  1  0  0  0  0
  2  3  2  0  0  0  0
  2  1  1  0  0  0  0
  4  2  1  0  0  0  0
  5 17  1  0  0  0  0
  5  4  1  0  0  0  0
  6 18  1  0  0  0  0
  6  5  1  0  0  0  0
  7 21  1  0  0  0  0
  7  6  1  0  0  0  0
  8 22  1  6  0  0  0
  8  7  1  0  0  0  0
  8  9  1  0  0  0  0
  9 24  1  0  0  0  0
 10 11  2  0  0  0  0
 10  8  1  0  0  0  0
 14  3  1  0  0  0  0
 15  4  1  0  0  0  0
 16  5  1  0  0  0  0
 19  6  1  0  0  0  0
 20  7  1  0  0  0  0
 23  9  1  0  0  0  0
 25 10  1  0  0  0  0
 26 33  1  0  0  0  0
 26 36  1  1  0  0  0
 26 25  1  0  0  0  0
 27 26  1  0  0  0  0
 28 27  1  0  0  0  0
 28 32  1  0  0  0  0
 29 28  2  0  0  0  0
 30 29  1  0  0  0  0
 30 31  1  0  0  0  0
 31 41  1  0  0  0  0
 31 32  2  0  0  0  0
 33 34  2  0  0  0  0
 35 25  1  0  0  0  0
 37 27  1  0  0  0  0
 38 27  1  0  0  0  0
 39 29  1  0  0  0  0
 40 30  1  0  0  0  0
 42 51  1  0  0  0  0
 42 52  1  0  0  0  0
 43 42  1  0  0  0  0
 44 43  2  0  0  0  0
 45 43  1  0  0  0  0
 45 53  1  0  0  0  0
 46 45  1  0  0  0  0
 46 55  1  1  0  0  0
 47 46  1  0  0  0  0
 47 33  1  0  0  0  0
 48 46  1  0  0  0  0
 49 48  1  0  0  0  0
 50 48  2  0  0  0  0
 54 45  1  0  0  0  0
 56 47  1  0  0  0  0
M  END
$$$$
