RHR.pdb
 OpenBabel07022418053D

 65 65  0  0  1  0  0  0  0  0999 V2000
    7.3830   -0.8190    0.3410 N   0  0  0  0  0  0  0  0  0  0  0  0
    6.6730    0.3770    0.6840 C   0  0  0  0  0  0  0  0  0  0  0  0
    7.2190    1.5210    0.4790 N   0  0  0  0  0  0  0  0  0  0  0  0
    5.3740    0.3250    1.2480 N   0  0  0  0  0  0  0  0  0  0  0  0
    4.6560    1.5450    1.6310 C   0  0  0  0  0  0  0  0  0  0  0  0
    4.2600    2.3610    0.4510 C   0  0  0  0  0  0  0  0  0  0  0  0
    3.5460    3.6280    0.7050 C   0  0  0  0  0  0  0  0  0  0  0  0
    2.2480    3.5600    1.4220 C   0  0  2  0  0  0  0  0  0  0  0  0
    2.4450    2.9840    2.7370 N   0  0  0  0  0  0  0  0  0  0  0  0
    1.2580    2.7480    0.6380 C   0  0  0  0  0  0  0  0  0  0  0  0
    0.8420    3.1540   -0.4900 O   0  0  0  0  0  0  0  0  0  0  0  0
    8.3160   -1.0600    0.7400 H   0  0  0  0  0  0  0  0  0  0  0  0
    6.9990   -1.5200   -0.3330 H   0  0  0  0  0  0  0  0  0  0  0  0
    8.1610    1.5650    0.0690 H   0  0  0  0  0  0  0  0  0  0  0  0
    4.9530   -0.6350    1.3770 H   0  0  0  0  0  0  0  0  0  0  0  0
    3.7890    1.1920    2.2410 H   0  0  0  0  0  0  0  0  0  0  0  0
    5.3110    2.0730    2.3540 H   0  0  0  0  0  0  0  0  0  0  0  0
    3.6640    1.6970   -0.2220 H   0  0  0  0  0  0  0  0  0  0  0  0
    5.2090    2.6200   -0.0930 H   0  0  0  0  0  0  0  0  0  0  0  0
    3.4050    4.1610   -0.2770 H   0  0  0  0  0  0  0  0  0  0  0  0
    4.2150    4.3080    1.3150 H   0  0  0  0  0  0  0  0  0  0  0  0
    1.8600    4.5870    1.5550 H   0  0  0  0  0  0  0  0  0  0  0  0
    1.5400    2.9920    3.2880 H   0  0  0  0  0  0  0  0  0  0  0  0
    3.0710    3.6340    3.2970 H   0  0  0  0  0  0  0  0  0  0  0  0
    0.7620    1.5240    1.1120 N   0  0  0  0  0  0  0  0  0  0  0  0
   -0.2220    0.7730    0.2740 C   0  0  1  0  0  0  0  0  0  0  0  0
    0.4570   -0.3120   -0.4670 C   0  0  0  0  0  0  0  0  0  0  0  0
   -0.4130   -0.9570   -1.4590 C   0  0  0  0  0  0  0  0  0  0  0  0
   -1.6680   -0.5860   -1.9530 C   0  0  0  0  0  0  0  0  0  0  0  0
   -2.0470   -1.4050   -2.9460 N   0  0  0  0  0  0  0  0  0  0  0  0
   -1.0610   -2.2970   -3.1020 C   0  0  0  0  0  0  0  0  0  0  0  0
   -0.0880   -2.0370   -2.2240 N   0  0  0  0  0  0  0  0  0  0  0  0
   -1.2260    0.2670    1.2390 C   0  0  0  0  0  0  0  0  0  0  0  0
   -1.3640    0.9550    2.3370 O   0  0  0  0  0  0  0  0  0  0  0  0
    1.0700    1.1480    2.0250 H   0  0  0  0  0  0  0  0  0  0  0  0
   -0.6480    1.4820   -0.4260 H   0  0  0  0  0  0  0  0  0  0  0  0
    1.3310    0.0920   -1.0410 H   0  0  0  0  0  0  0  0  0  0  0  0
    0.9310   -1.0810    0.2140 H   0  0  0  0  0  0  0  0  0  0  0  0
   -2.2590    0.2390   -1.6010 H   0  0  0  0  0  0  0  0  0  0  0  0
   -2.9470   -1.3530   -3.4940 H   0  0  0  0  0  0  0  0  0  0  0  0
   -1.1260   -3.0820   -3.8510 H   0  0  0  0  0  0  0  0  0  0  0  0
   -5.6510   -6.0720   -1.8990 N   0  0  0  0  0  0  0  0  0  0  0  0
   -5.0280   -5.5070   -0.7560 C   0  0  0  0  0  0  0  0  0  0  0  0
   -4.4880   -6.2510    0.1160 N   0  0  0  0  0  0  0  0  0  0  0  0
   -5.0090   -4.1000   -0.5960 N   0  0  0  0  0  0  0  0  0  0  0  0
   -4.6140   -3.4740    0.6690 C   0  0  0  0  0  0  0  0  0  0  0  0
   -4.7150   -2.0010    0.5060 C   0  0  0  0  0  0  0  0  0  0  0  0
   -4.3800   -1.1500    1.6650 C   0  0  0  0  0  0  0  0  0  0  0  0
   -3.0040   -1.2240    2.2090 C   0  0  2  0  0  0  0  0  0  0  0  0
   -2.0400   -0.8420    1.1520 N   0  0  0  0  0  0  0  0  0  0  0  0
   -2.5750   -2.5180    2.7460 C   0  0  0  0  0  0  0  0  0  0  0  0
   -3.2500   -3.1300    3.6410 O   0  0  0  0  0  0  0  0  0  0  0  0
   -1.4210   -3.1210    2.2990 O   0  0  0  0  0  0  0  0  0  0  0  0
   -6.1480   -6.9890   -1.8460 H   0  0  0  0  0  0  0  0  0  0  0  0
   -5.6510   -5.6150   -2.8370 H   0  0  0  0  0  0  0  0  0  0  0  0
   -4.4690   -7.2950    0.0500 H   0  0  0  0  0  0  0  0  0  0  0  0
   -5.2820   -3.5150   -1.4000 H   0  0  0  0  0  0  0  0  0  0  0  0
   -5.3910   -3.8210    1.4020 H   0  0  0  0  0  0  0  0  0  0  0  0
   -3.6700   -3.8690    1.0340 H   0  0  0  0  0  0  0  0  0  0  0  0
   -5.7690   -1.7360    0.2040 H   0  0  0  0  0  0  0  0  0  0  0  0
   -4.1050   -1.6350   -0.3780 H   0  0  0  0  0  0  0  0  0  0  0  0
   -5.1600   -1.3130    2.4740 H   0  0  0  0  0  0  0  0  0  0  0  0
   -4.6120   -0.0870    1.3420 H   0  0  0  0  0  0  0  0  0  0  0  0
   -2.9490   -0.4420    3.0280 H   0  0  0  0  0  0  0  0  0  0  0  0
   -1.9990   -1.4820    0.3700 H   0  0  0  0  0  0  0  0  0  0  0  0
  1  2  1  0  0  0  0
  1 12  1  0  0  0  0
  2  4  1  0  0  0  0
  3  2  2  0  0  0  0
  4 15  1  0  0  0  0
  4  5  1  0  0  0  0
  5 16  1  0  0  0  0
  5 17  1  0  0  0  0
  6  7  1  0  0  0  0
  6  5  1  0  0  0  0
  7 21  1  0  0  0  0
  7  8  1  0  0  0  0
  8 22  1  1  0  0  0
  8  9  1  0  0  0  0
  9 23  1  0  0  0  0
  9 24  1  0  0  0  0
 10 25  1  0  0  0  0
 10  8  1  0  0  0  0
 11 10  2  0  0  0  0
 13  1  1  0  0  0  0
 14  3  1  0  0  0  0
 18  6  1  0  0  0  0
 19  6  1  0  0  0  0
 20  7  1  0  0  0  0
 25 35  1  0  0  0  0
 26 36  1  6  0  0  0
 26 25  1  0  0  0  0
 26 33  1  0  0  0  0
 27 38  1  0  0  0  0
 27 26  1  0  0  0  0
 28 27  1  0  0  0  0
 29 39  1  0  0  0  0
 29 28  2  0  0  0  0
 30 29  1  0  0  0  0
 31 30  1  0  0  0  0
 31 32  2  0  0  0  0
 32 28  1  0  0  0  0
 33 34  2  0  0  0  0
 37 27  1  0  0  0  0
 40 30  1  0  0  0  0
 41 31  1  0  0  0  0
 42 54  1  0  0  0  0
 42 43  1  0  0  0  0
 43 45  1  0  0  0  0
 43 44  2  0  0  0  0
 45 46  1  0  0  0  0
 46 59  1  0  0  0  0
 46 58  1  0  0  0  0
 47 46  1  0  0  0  0
 47 48  1  0  0  0  0
 48 49  1  0  0  0  0
 48 62  1  0  0  0  0
 49 51  1  0  0  0  0
 49 64  1  1  0  0  0
 50 33  1  0  0  0  0
 50 49  1  0  0  0  0
 51 52  1  0  0  0  0
 53 51  2  0  0  0  0
 55 42  1  0  0  0  0
 56 44  1  0  0  0  0
 57 45  1  0  0  0  0
 60 47  1  0  0  0  0
 61 47  1  0  0  0  0
 63 48  1  0  0  0  0
 65 50  1  0  0  0  0
M  END
$$$$
