RHS.pdb
 OpenBabel07022418053D

 53 53  0  0  1  0  0  0  0  0999 V2000
    1.6520   -2.2330    5.9960 N   0  0  0  0  0  0  0  0  0  0  0  0
    2.6410   -2.1700    4.9810 C   0  0  0  0  0  0  0  0  0  0  0  0
    3.9080   -2.3200    5.2390 N   0  0  0  0  0  0  0  0  0  0  0  0
    2.1980   -1.9250    3.6290 N   0  0  0  0  0  0  0  0  0  0  0  0
    3.1210   -2.1610    2.5610 C   0  0  0  0  0  0  0  0  0  0  0  0
    2.7080   -1.6420    1.2500 C   0  0  0  0  0  0  0  0  0  0  0  0
    2.6080   -0.2030    0.9980 C   0  0  0  0  0  0  0  0  0  0  0  0
    1.7500    0.6800    1.7950 C   0  0  2  0  0  0  0  0  0  0  0  0
    2.0410    0.7820    3.1910 N   0  0  0  0  0  0  0  0  0  0  0  0
    0.2820    0.4390    1.5600 C   0  0  0  0  0  0  0  0  0  0  0  0
   -0.5390    0.1780    2.4520 O   0  0  0  0  0  0  0  0  0  0  0  0
    1.4690   -3.0730    6.5700 H   0  0  0  0  0  0  0  0  0  0  0  0
    1.0680   -1.3810    6.1830 H   0  0  0  0  0  0  0  0  0  0  0  0
    4.1540   -2.4910    6.2410 H   0  0  0  0  0  0  0  0  0  0  0  0
    1.2140   -1.6260    3.5180 H   0  0  0  0  0  0  0  0  0  0  0  0
    4.1730   -1.8910    2.8420 H   0  0  0  0  0  0  0  0  0  0  0  0
    3.1600   -3.2960    2.4620 H   0  0  0  0  0  0  0  0  0  0  0  0
    3.4420   -2.0430    0.4630 H   0  0  0  0  0  0  0  0  0  0  0  0
    1.7500   -2.1680    0.9430 H   0  0  0  0  0  0  0  0  0  0  0  0
    2.2550   -0.0970   -0.0870 H   0  0  0  0  0  0  0  0  0  0  0  0
    3.6420    0.2580    1.0030 H   0  0  0  0  0  0  0  0  0  0  0  0
    1.8940    1.7290    1.3810 H   0  0  0  0  0  0  0  0  0  0  0  0
    3.0190    1.0080    3.3920 H   0  0  0  0  0  0  0  0  0  0  0  0
    1.3720    1.4740    3.6250 H   0  0  0  0  0  0  0  0  0  0  0  0
   -0.1780    0.5220    0.2180 N   0  0  0  0  0  0  0  0  0  0  0  0
   -1.5840    0.2980   -0.0570 C   0  0  1  0  0  0  0  0  0  0  0  0
   -2.3100    1.6290   -0.1860 C   0  0  0  0  0  0  0  0  0  0  0  0
   -3.7320    1.3780   -0.4640 C   0  0  0  0  0  0  0  0  0  0  0  0
   -4.7290    1.1870    0.4990 C   0  0  0  0  0  0  0  0  0  0  0  0
   -5.8970    0.9790   -0.1050 N   0  0  0  0  0  0  0  0  0  0  0  0
   -5.6820    1.0330   -1.4190 C   0  0  0  0  0  0  0  0  0  0  0  0
   -4.3660    1.2750   -1.6420 N   0  0  0  0  0  0  0  0  0  0  0  0
   -1.7800   -0.5920   -1.2030 C   0  0  0  0  0  0  0  0  0  0  0  0
   -2.9390   -0.8920   -1.5860 O   0  0  0  0  0  0  0  0  0  0  0  0
    0.4480    0.7390   -0.5740 H   0  0  0  0  0  0  0  0  0  0  0  0
   -2.0260   -0.1390    0.8940 H   0  0  0  0  0  0  0  0  0  0  0  0
   -1.8180    2.2600   -0.9600 H   0  0  0  0  0  0  0  0  0  0  0  0
   -2.1700    2.1490    0.8050 H   0  0  0  0  0  0  0  0  0  0  0  0
   -4.4910    1.2200    1.5590 H   0  0  0  0  0  0  0  0  0  0  0  0
   -6.8000    0.8080    0.3570 H   0  0  0  0  0  0  0  0  0  0  0  0
   -6.4110    0.9090   -2.2310 H   0  0  0  0  0  0  0  0  0  0  0  0
    1.1800   -1.2610   -4.0870 O   0  0  0  0  0  0  0  0  0  0  0  0
   -0.1810   -1.4580   -4.2780 C   0  0  0  0  0  0  0  0  0  0  0  0
   -0.8560   -2.0290   -3.0700 C   0  0  2  0  0  0  0  0  0  0  0  0
   -0.7070   -1.1480   -1.9250 N   0  0  0  0  0  0  0  0  0  0  0  0
   -0.3990   -3.4110   -2.7600 C   0  0  0  0  0  0  0  0  0  0  0  0
   -0.4480   -4.3160   -3.6300 O   0  0  0  0  0  0  0  0  0  0  0  0
    0.0850   -3.6930   -1.4970 O   0  0  0  0  0  0  0  0  0  0  0  0
    1.4210   -0.4000   -3.7050 H   0  0  0  0  0  0  0  0  0  0  0  0
   -0.7150   -0.5420   -4.6070 H   0  0  0  0  0  0  0  0  0  0  0  0
   -0.2610   -2.1880   -5.1190 H   0  0  0  0  0  0  0  0  0  0  0  0
   -1.9600   -2.0900   -3.2490 H   0  0  0  0  0  0  0  0  0  0  0  0
    0.2820   -0.9450   -1.6520 H   0  0  0  0  0  0  0  0  0  0  0  0
  1 13  1  0  0  0  0
  1 12  1  0  0  0  0
  2  3  2  0  0  0  0
  2  1  1  0  0  0  0
  3 14  1  0  0  0  0
  4  2  1  0  0  0  0
  5 16  1  0  0  0  0
  5  4  1  0  0  0  0
  6  5  1  0  0  0  0
  7 21  1  0  0  0  0
  7  6  1  0  0  0  0
  7  8  1  0  0  0  0
  8 22  1  6  0  0  0
  8  9  1  0  0  0  0
  9 23  1  0  0  0  0
  9 24  1  0  0  0  0
 10  8  1  0  0  0  0
 10 11  2  0  0  0  0
 15  4  1  0  0  0  0
 17  5  1  0  0  0  0
 18  6  1  0  0  0  0
 19  6  1  0  0  0  0
 20  7  1  0  0  0  0
 25 10  1  0  0  0  0
 26 25  1  0  0  0  0
 26 36  1  1  0  0  0
 27 26  1  0  0  0  0
 27 38  1  0  0  0  0
 28 27  1  0  0  0  0
 28 29  2  0  0  0  0
 29 39  1  0  0  0  0
 30 40  1  0  0  0  0
 30 29  1  0  0  0  0
 31 30  1  0  0  0  0
 32 31  2  0  0  0  0
 32 28  1  0  0  0  0
 33 26  1  0  0  0  0
 34 33  2  0  0  0  0
 35 25  1  0  0  0  0
 37 27  1  0  0  0  0
 41 31  1  0  0  0  0
 42 49  1  0  0  0  0
 43 42  1  0  0  0  0
 43 44  1  0  0  0  0
 44 52  1  6  0  0  0
 44 46  1  0  0  0  0
 44 45  1  0  0  0  0
 45 53  1  0  0  0  0
 45 33  1  0  0  0  0
 46 48  1  0  0  0  0
 47 46  2  0  0  0  0
 50 43  1  0  0  0  0
 51 43  1  0  0  0  0
M  END
$$$$
