RHT.pdb
 OpenBabel07022418053D

 56 56  0  0  1  0  0  0  0  0999 V2000
    5.0170   -2.2770   -0.4240 N   0  0  0  0  0  0  0  0  0  0  0  0
    5.2270   -1.6710    0.8320 C   0  0  0  0  0  0  0  0  0  0  0  0
    6.0320   -2.1790    1.7280 N   0  0  0  0  0  0  0  0  0  0  0  0
    4.5300   -0.4420    1.1470 N   0  0  0  0  0  0  0  0  0  0  0  0
    4.2330   -0.1400    2.5100 C   0  0  0  0  0  0  0  0  0  0  0  0
    3.4590    1.0660    2.8300 C   0  0  0  0  0  0  0  0  0  0  0  0
    2.0780    1.2180    2.3630 C   0  0  0  0  0  0  0  0  0  0  0  0
    1.7800    1.2380    0.9080 C   0  0  2  0  0  0  0  0  0  0  0  0
    2.4770    2.3360    0.2450 N   0  0  0  0  0  0  0  0  0  0  0  0
    0.2990    1.4290    0.6850 C   0  0  0  0  0  0  0  0  0  0  0  0
   -0.3030    2.4300    1.1380 O   0  0  0  0  0  0  0  0  0  0  0  0
    5.5730   -1.9960   -1.2440 H   0  0  0  0  0  0  0  0  0  0  0  0
    4.2930   -3.0170   -0.5460 H   0  0  0  0  0  0  0  0  0  0  0  0
    6.5120   -3.0520    1.4760 H   0  0  0  0  0  0  0  0  0  0  0  0
    4.3030    0.1680    0.3520 H   0  0  0  0  0  0  0  0  0  0  0  0
    5.2340   -0.1590    3.0490 H   0  0  0  0  0  0  0  0  0  0  0  0
    3.7140   -1.0480    2.9770 H   0  0  0  0  0  0  0  0  0  0  0  0
    4.0610    1.9840    2.5230 H   0  0  0  0  0  0  0  0  0  0  0  0
    3.5030    1.1580    3.9770 H   0  0  0  0  0  0  0  0  0  0  0  0
    1.7130    2.2210    2.7730 H   0  0  0  0  0  0  0  0  0  0  0  0
    1.4030    0.4970    2.9120 H   0  0  0  0  0  0  0  0  0  0  0  0
    2.0540    0.3030    0.4220 H   0  0  0  0  0  0  0  0  0  0  0  0
    3.1370    2.7460    0.9270 H   0  0  0  0  0  0  0  0  0  0  0  0
    3.0270    1.9740   -0.5610 H   0  0  0  0  0  0  0  0  0  0  0  0
   -0.4360    0.4930   -0.0360 N   0  0  0  0  0  0  0  0  0  0  0  0
   -1.8920    0.6350   -0.2730 C   0  0  1  0  0  0  0  0  0  0  0  0
   -2.1080    0.9560   -1.7190 C   0  0  0  0  0  0  0  0  0  0  0  0
   -3.5310    1.1740   -2.0370 C   0  0  0  0  0  0  0  0  0  0  0  0
   -3.9870    1.4590   -3.3470 C   0  0  0  0  0  0  0  0  0  0  0  0
   -5.3130    1.5980   -3.2940 N   0  0  0  0  0  0  0  0  0  0  0  0
   -5.7460    1.4190   -2.0300 C   0  0  0  0  0  0  0  0  0  0  0  0
   -4.6430    1.1700   -1.3200 N   0  0  0  0  0  0  0  0  0  0  0  0
   -2.5870   -0.5730    0.1460 C   0  0  0  0  0  0  0  0  0  0  0  0
   -3.8270   -0.6500    0.1080 O   0  0  0  0  0  0  0  0  0  0  0  0
   -0.0200   -0.3540   -0.4620 H   0  0  0  0  0  0  0  0  0  0  0  0
   -2.1990    1.4990    0.3230 H   0  0  0  0  0  0  0  0  0  0  0  0
   -1.6650    0.1430   -2.3720 H   0  0  0  0  0  0  0  0  0  0  0  0
   -1.4850    1.8510   -1.9930 H   0  0  0  0  0  0  0  0  0  0  0  0
   -3.3210    1.5400   -4.2020 H   0  0  0  0  0  0  0  0  0  0  0  0
   -5.9500    1.8140   -4.1040 H   0  0  0  0  0  0  0  0  0  0  0  0
   -6.7790    1.4810   -1.7350 H   0  0  0  0  0  0  0  0  0  0  0  0
   -1.1450   -4.5810   -0.1280 C   0  0  0  0  0  0  0  0  0  0  0  0
   -2.5330   -4.0600    0.0260 C   0  0  1  0  0  0  0  0  0  0  0  0
   -3.3020   -5.1440    0.5170 O   0  0  0  0  0  0  0  0  0  0  0  0
   -2.6740   -2.9280    1.0220 C   0  0  2  0  0  0  0  0  0  0  0  0
   -1.9340   -1.7560    0.6280 N   0  0  0  0  0  0  0  0  0  0  0  0
   -2.3010   -3.4150    2.3570 C   0  0  0  0  0  0  0  0  0  0  0  0
   -1.4250   -2.8220    3.0170 O   0  0  0  0  0  0  0  0  0  0  0  0
   -2.9030   -4.5330    2.9170 O   0  0  0  0  0  0  0  0  0  0  0  0
   -0.6790   -4.8740    0.8370 H   0  0  0  0  0  0  0  0  0  0  0  0
   -0.4750   -3.9540   -0.6990 H   0  0  0  0  0  0  0  0  0  0  0  0
   -1.2270   -5.5430   -0.7170 H   0  0  0  0  0  0  0  0  0  0  0  0
   -2.9600   -3.8080   -0.9600 H   0  0  0  0  0  0  0  0  0  0  0  0
   -3.1410   -5.9220   -0.0760 H   0  0  0  0  0  0  0  0  0  0  0  0
   -3.7860   -2.7240    1.0420 H   0  0  0  0  0  0  0  0  0  0  0  0
   -0.8980   -1.7330    0.6850 H   0  0  0  0  0  0  0  0  0  0  0  0
  1  2  1  0  0  0  0
  2  4  1  0  0  0  0
  2  3  2  0  0  0  0
  4  5  1  0  0  0  0
  5  6  1  0  0  0  0
  5 17  1  0  0  0  0
  5 16  1  0  0  0  0
  6 19  1  0  0  0  0
  7 20  1  0  0  0  0
  7  6  1  0  0  0  0
  7 21  1  0  0  0  0
  8 22  1  6  0  0  0
  8  7  1  0  0  0  0
  9  8  1  0  0  0  0
  9 23  1  0  0  0  0
 10  8  1  0  0  0  0
 10 11  2  0  0  0  0
 12  1  1  0  0  0  0
 13  1  1  0  0  0  0
 14  3  1  0  0  0  0
 15  4  1  0  0  0  0
 18  6  1  0  0  0  0
 24  9  1  0  0  0  0
 25 10  1  0  0  0  0
 26 25  1  0  0  0  0
 26 33  1  0  0  0  0
 26 36  1  1  0  0  0
 27 26  1  0  0  0  0
 28 27  1  0  0  0  0
 28 32  1  0  0  0  0
 29 30  1  0  0  0  0
 29 28  2  0  0  0  0
 30 31  1  0  0  0  0
 31 41  1  0  0  0  0
 31 32  2  0  0  0  0
 33 46  1  0  0  0  0
 34 33  2  0  0  0  0
 35 25  1  0  0  0  0
 37 27  1  0  0  0  0
 38 27  1  0  0  0  0
 39 29  1  0  0  0  0
 40 30  1  0  0  0  0
 42 43  1  0  0  0  0
 42 50  1  0  0  0  0
 43 53  1  6  0  0  0
 43 44  1  0  0  0  0
 43 45  1  0  0  0  0
 45 55  1  1  0  0  0
 45 47  1  0  0  0  0
 46 56  1  0  0  0  0
 46 45  1  0  0  0  0
 47 49  2  0  0  0  0
 47 48  1  0  0  0  0
 51 42  1  0  0  0  0
 52 42  1  0  0  0  0
 54 44  1  0  0  0  0
M  END
$$$$
