RHW.pdb
 OpenBabel07022418053D

 66 68  0  0  1  0  0  0  0  0999 V2000
    6.1680    1.0010    3.8780 N   0  0  0  0  0  0  0  0  0  0  0  0
    6.8130    0.7480    2.6530 C   0  0  0  0  0  0  0  0  0  0  0  0
    7.8470   -0.0340    2.6060 N   0  0  0  0  0  0  0  0  0  0  0  0
    6.3770    1.3220    1.4290 N   0  0  0  0  0  0  0  0  0  0  0  0
    6.5930    0.7070    0.1530 C   0  0  0  0  0  0  0  0  0  0  0  0
    5.7750   -0.5760   -0.0000 C   0  0  0  0  0  0  0  0  0  0  0  0
    4.3130   -0.2040    0.1380 C   0  0  0  0  0  0  0  0  0  0  0  0
    3.4190   -1.4260    0.0060 C   0  0  2  0  0  0  0  0  0  0  0  0
    3.6140   -2.0400   -1.2900 N   0  0  0  0  0  0  0  0  0  0  0  0
    2.0320   -1.0010    0.2300 C   0  0  0  0  0  0  0  0  0  0  0  0
    1.7990   -0.4300    1.3500 O   0  0  0  0  0  0  0  0  0  0  0  0
    6.3260    0.3980    4.7070 H   0  0  0  0  0  0  0  0  0  0  0  0
    5.5120    1.7980    4.0000 H   0  0  0  0  0  0  0  0  0  0  0  0
    8.2080   -0.4810    3.4780 H   0  0  0  0  0  0  0  0  0  0  0  0
    5.8780    2.2350    1.4750 H   0  0  0  0  0  0  0  0  0  0  0  0
    7.6900    0.4730    0.0880 H   0  0  0  0  0  0  0  0  0  0  0  0
    6.3890    1.4210   -0.6690 H   0  0  0  0  0  0  0  0  0  0  0  0
    6.1010   -1.2970    0.7490 H   0  0  0  0  0  0  0  0  0  0  0  0
    5.9670   -0.9050   -1.0640 H   0  0  0  0  0  0  0  0  0  0  0  0
    4.2030    0.2870    1.1140 H   0  0  0  0  0  0  0  0  0  0  0  0
    4.0830    0.5670   -0.6300 H   0  0  0  0  0  0  0  0  0  0  0  0
    3.7780   -2.1670    0.7500 H   0  0  0  0  0  0  0  0  0  0  0  0
    3.0220   -2.9210   -1.2690 H   0  0  0  0  0  0  0  0  0  0  0  0
    4.5960   -2.3820   -1.3570 H   0  0  0  0  0  0  0  0  0  0  0  0
    0.9410   -1.1600   -0.6580 N   0  0  0  0  0  0  0  0  0  0  0  0
   -0.3980   -0.7050   -0.3430 C   0  0  1  0  0  0  0  0  0  0  0  0
   -0.9020    0.3520   -1.2770 C   0  0  0  0  0  0  0  0  0  0  0  0
   -0.9550   -0.1210   -2.6960 C   0  0  0  0  0  0  0  0  0  0  0  0
    0.0390   -0.0370   -3.6450 C   0  0  0  0  0  0  0  0  0  0  0  0
   -0.4210   -0.5800   -4.7820 N   0  0  0  0  0  0  0  0  0  0  0  0
   -1.6890   -1.0170   -4.6020 C   0  0  0  0  0  0  0  0  0  0  0  0
   -1.9860   -0.7230   -3.3230 N   0  0  0  0  0  0  0  0  0  0  0  0
   -1.3380   -1.8460   -0.2080 C   0  0  0  0  0  0  0  0  0  0  0  0
   -0.8940   -3.0100   -0.3620 O   0  0  0  0  0  0  0  0  0  0  0  0
    1.1610   -1.6370   -1.5790 H   0  0  0  0  0  0  0  0  0  0  0  0
   -0.3400   -0.2340    0.6730 H   0  0  0  0  0  0  0  0  0  0  0  0
   -0.2530    1.2490   -1.2390 H   0  0  0  0  0  0  0  0  0  0  0  0
   -1.9020    0.6630   -0.9120 H   0  0  0  0  0  0  0  0  0  0  0  0
    1.0140    0.3900   -3.4970 H   0  0  0  0  0  0  0  0  0  0  0  0
    0.1120   -0.6660   -5.6990 H   0  0  0  0  0  0  0  0  0  0  0  0
   -2.3120   -1.4990   -5.3520 H   0  0  0  0  0  0  0  0  0  0  0  0
   -2.7200   -1.6940    0.0890 N   0  0  0  0  0  0  0  0  0  0  0  0
   -3.6420   -2.7740    0.2260 C   0  0  1  0  0  0  0  0  0  0  0  0
   -4.2310   -2.9740    1.5820 C   0  0  0  0  0  0  0  0  0  0  0  0
   -4.9970   -1.8330    2.1110 C   0  0  0  0  0  0  0  0  0  0  0  0
   -6.3850   -1.7370    2.0900 C   0  0  0  0  0  0  0  0  0  0  0  0
   -6.6980   -0.5630    2.6430 N   0  0  0  0  0  0  0  0  0  0  0  0
   -5.5940    0.1020    3.0190 C   0  0  0  0  0  0  0  0  0  0  0  0
   -5.4180    1.3360    3.6320 C   0  0  0  0  0  0  0  0  0  0  0  0
   -4.1500    1.7770    3.9150 C   0  0  0  0  0  0  0  0  0  0  0  0
   -3.0510    1.0170    3.6020 C   0  0  0  0  0  0  0  0  0  0  0  0
   -3.2500   -0.2190    2.9870 C   0  0  0  0  0  0  0  0  0  0  0  0
   -4.5030   -0.6870    2.6910 C   0  0  0  0  0  0  0  0  0  0  0  0
   -4.7610   -2.6810   -0.7630 C   0  0  0  0  0  0  0  0  0  0  0  0
   -4.8170   -1.7270   -1.5940 O   0  0  0  0  0  0  0  0  0  0  0  0
   -5.7820   -3.6140   -0.8280 O   0  0  0  0  0  0  0  0  0  0  0  0
   -3.0230   -0.6940    0.1930 H   0  0  0  0  0  0  0  0  0  0  0  0
   -3.1090   -3.7330   -0.0210 H   0  0  0  0  0  0  0  0  0  0  0  0
   -3.4130   -3.2380    2.2900 H   0  0  0  0  0  0  0  0  0  0  0  0
   -4.9000   -3.8770    1.5720 H   0  0  0  0  0  0  0  0  0  0  0  0
   -7.0790   -2.4730    1.6990 H   0  0  0  0  0  0  0  0  0  0  0  0
   -7.6900   -0.2320    2.7530 H   0  0  0  0  0  0  0  0  0  0  0  0
   -6.2830    1.9180    3.8710 H   0  0  0  0  0  0  0  0  0  0  0  0
   -3.9870    2.7450    4.3960 H   0  0  0  0  0  0  0  0  0  0  0  0
   -2.0710    1.3620    3.8230 H   0  0  0  0  0  0  0  0  0  0  0  0
   -2.3900   -0.8390    2.7320 H   0  0  0  0  0  0  0  0  0  0  0  0
  1 13  1  0  0  0  0
  1 12  1  0  0  0  0
  2  1  1  0  0  0  0
  3  2  2  0  0  0  0
  3 14  1  0  0  0  0
  4 15  1  0  0  0  0
  4  2  1  0  0  0  0
  5  4  1  0  0  0  0
  6  7  1  0  0  0  0
  6  5  1  0  0  0  0
  6 18  1  0  0  0  0
  7 20  1  0  0  0  0
  8  7  1  0  0  0  0
  8 10  1  0  0  0  0
  8 22  1  1  0  0  0
  9 23  1  0  0  0  0
  9  8  1  0  0  0  0
 10 11  2  0  0  0  0
 16  5  1  0  0  0  0
 17  5  1  0  0  0  0
 19  6  1  0  0  0  0
 21  7  1  0  0  0  0
 24  9  1  0  0  0  0
 25 26  1  0  0  0  0
 25 10  1  0  0  0  0
 26 33  1  0  0  0  0
 26 36  1  1  0  0  0
 27 37  1  0  0  0  0
 27 38  1  0  0  0  0
 27 26  1  0  0  0  0
 28 27  1  0  0  0  0
 29 39  1  0  0  0  0
 29 28  2  0  0  0  0
 30 31  1  0  0  0  0
 30 29  1  0  0  0  0
 31 32  2  0  0  0  0
 32 28  1  0  0  0  0
 33 42  1  0  0  0  0
 34 33  2  0  0  0  0
 35 25  1  0  0  0  0
 40 30  1  0  0  0  0
 41 31  1  0  0  0  0
 42 57  1  0  0  0  0
 42 43  1  0  0  0  0
 43 58  1  6  0  0  0
 43 44  1  0  0  0  0
 44 45  1  0  0  0  0
 44 59  1  0  0  0  0
 45 53  1  0  0  0  0
 46 45  2  0  0  0  0
 46 47  1  0  0  0  0
 47 62  1  0  0  0  0
 47 48  1  0  0  0  0
 48 49  1  0  0  0  0
 49 63  1  0  0  0  0
 49 50  2  0  0  0  0
 50 64  1  0  0  0  0
 51 65  1  0  0  0  0
 51 50  1  0  0  0  0
 52 51  2  0  0  0  0
 53 52  1  0  0  0  0
 53 48  2  0  0  0  0
 54 43  1  0  0  0  0
 55 54  2  0  0  0  0
 56 54  1  0  0  0  0
 60 44  1  0  0  0  0
 61 46  1  0  0  0  0
 66 52  1  0  0  0  0
M  END
$$$$
