RHY.pdb
 OpenBabel07022418053D

 63 64  0  0  1  0  0  0  0  0999 V2000
    4.8060   -2.8500    3.3420 N   0  0  0  0  0  0  0  0  0  0  0  0
    4.4680   -1.7020    4.1010 C   0  0  0  0  0  0  0  0  0  0  0  0
    3.7660   -1.8430    5.1780 N   0  0  0  0  0  0  0  0  0  0  0  0
    4.8640   -0.3890    3.7360 N   0  0  0  0  0  0  0  0  0  0  0  0
    4.0750    0.7220    4.2720 C   0  0  0  0  0  0  0  0  0  0  0  0
    2.7270    0.6520    3.6280 C   0  0  0  0  0  0  0  0  0  0  0  0
    1.7770    1.7290    4.0660 C   0  0  0  0  0  0  0  0  0  0  0  0
    0.4740    1.4730    3.2950 C   0  0  2  0  0  0  0  0  0  0  0  0
    0.0500    0.1440    3.6910 N   0  0  0  0  0  0  0  0  0  0  0  0
    0.7470    1.5690    1.8550 C   0  0  0  0  0  0  0  0  0  0  0  0
    1.0990    2.6840    1.3810 O   0  0  0  0  0  0  0  0  0  0  0  0
    4.1790   -3.1420    2.5700 H   0  0  0  0  0  0  0  0  0  0  0  0
    5.6630   -3.3990    3.5420 H   0  0  0  0  0  0  0  0  0  0  0  0
    3.4290   -2.7590    5.5290 H   0  0  0  0  0  0  0  0  0  0  0  0
    5.6740   -0.2630    3.1190 H   0  0  0  0  0  0  0  0  0  0  0  0
    3.9680    0.6050    5.3640 H   0  0  0  0  0  0  0  0  0  0  0  0
    4.5500    1.6920    4.0140 H   0  0  0  0  0  0  0  0  0  0  0  0
    2.7880    0.5940    2.5250 H   0  0  0  0  0  0  0  0  0  0  0  0
    2.2640   -0.3280    3.9470 H   0  0  0  0  0  0  0  0  0  0  0  0
    1.6050    1.6670    5.1510 H   0  0  0  0  0  0  0  0  0  0  0  0
    2.1930    2.6950    3.7420 H   0  0  0  0  0  0  0  0  0  0  0  0
   -0.3090    2.1820    3.6200 H   0  0  0  0  0  0  0  0  0  0  0  0
   -0.1290    0.0750    4.7050 H   0  0  0  0  0  0  0  0  0  0  0  0
   -0.7680   -0.1940    3.1430 H   0  0  0  0  0  0  0  0  0  0  0  0
    0.6460    0.4950    0.9430 N   0  0  0  0  0  0  0  0  0  0  0  0
    0.9250    0.6170   -0.4920 C   0  0  1  0  0  0  0  0  0  0  0  0
    2.0170   -0.3390   -0.8980 C   0  0  0  0  0  0  0  0  0  0  0  0
    2.2850   -0.1910   -2.3390 C   0  0  0  0  0  0  0  0  0  0  0  0
    3.2190    0.7170   -2.8500 C   0  0  0  0  0  0  0  0  0  0  0  0
    3.2480    0.6320   -4.1920 N   0  0  0  0  0  0  0  0  0  0  0  0
    2.3570   -0.3070   -4.5490 C   0  0  0  0  0  0  0  0  0  0  0  0
    1.7910   -0.7880   -3.4270 N   0  0  0  0  0  0  0  0  0  0  0  0
   -0.3030    0.2440   -1.2090 C   0  0  0  0  0  0  0  0  0  0  0  0
   -0.3990    0.2550   -2.4590 O   0  0  0  0  0  0  0  0  0  0  0  0
    0.3650   -0.4370    1.3010 H   0  0  0  0  0  0  0  0  0  0  0  0
    1.2550    1.6540   -0.7220 H   0  0  0  0  0  0  0  0  0  0  0  0
    1.7720   -1.3900   -0.6340 H   0  0  0  0  0  0  0  0  0  0  0  0
    2.9330   -0.0770   -0.3270 H   0  0  0  0  0  0  0  0  0  0  0  0
    3.8410    1.3970   -2.3010 H   0  0  0  0  0  0  0  0  0  0  0  0
    3.8420    1.1800   -4.8520 H   0  0  0  0  0  0  0  0  0  0  0  0
    2.1300   -0.6260   -5.5770 H   0  0  0  0  0  0  0  0  0  0  0  0
   -7.8310   -4.0970   -2.7980 O   0  0  0  0  0  0  0  0  0  0  0  0
   -6.6380   -3.5710   -2.2930 C   0  0  0  0  0  0  0  0  0  0  0  0
   -5.4500   -3.6720   -2.9780 C   0  0  0  0  0  0  0  0  0  0  0  0
   -4.2790   -3.1530   -2.4790 C   0  0  0  0  0  0  0  0  0  0  0  0
   -4.2470   -2.5000   -1.2490 C   0  0  0  0  0  0  0  0  0  0  0  0
   -3.0090   -1.9470   -0.6840 C   0  0  0  0  0  0  0  0  0  0  0  0
   -2.6950   -0.5360   -1.1270 C   0  0  2  0  0  0  0  0  0  0  0  0
   -1.4430   -0.1500   -0.4700 N   0  0  0  0  0  0  0  0  0  0  0  0
   -3.7500    0.3710   -0.6420 C   0  0  0  0  0  0  0  0  0  0  0  0
   -3.4910    1.2430    0.2190 O   0  0  0  0  0  0  0  0  0  0  0  0
   -5.4270   -2.3930   -0.5540 C   0  0  0  0  0  0  0  0  0  0  0  0
   -6.6100   -2.9260   -1.0760 C   0  0  0  0  0  0  0  0  0  0  0  0
   -5.0630    0.3190   -1.0980 O   0  0  0  0  0  0  0  0  0  0  0  0
   -7.8670   -4.3260   -3.7760 H   0  0  0  0  0  0  0  0  0  0  0  0
   -5.4660   -4.1800   -3.9370 H   0  0  0  0  0  0  0  0  0  0  0  0
   -3.3550   -3.2420   -3.0310 H   0  0  0  0  0  0  0  0  0  0  0  0
   -2.9990   -2.0420    0.4220 H   0  0  0  0  0  0  0  0  0  0  0  0
   -2.1760   -2.6300   -1.0270 H   0  0  0  0  0  0  0  0  0  0  0  0
   -2.5820   -0.4770   -2.2300 H   0  0  0  0  0  0  0  0  0  0  0  0
   -1.4900   -0.1950    0.5780 H   0  0  0  0  0  0  0  0  0  0  0  0
   -5.4450   -1.8960    0.4170 H   0  0  0  0  0  0  0  0  0  0  0  0
   -7.5280   -2.8230   -0.5010 H   0  0  0  0  0  0  0  0  0  0  0  0
  1 13  1  0  0  0  0
  1  2  1  0  0  0  0
  2  3  2  0  0  0  0
  3 14  1  0  0  0  0
  4  2  1  0  0  0  0
  4  5  1  0  0  0  0
  5 16  1  0  0  0  0
  6 19  1  0  0  0  0
  6  7  1  0  0  0  0
  6  5  1  0  0  0  0
  7 20  1  0  0  0  0
  8 22  1  1  0  0  0
  8  9  1  0  0  0  0
  8  7  1  0  0  0  0
  9 23  1  0  0  0  0
 10  8  1  0  0  0  0
 11 10  2  0  0  0  0
 12  1  1  0  0  0  0
 15  4  1  0  0  0  0
 17  5  1  0  0  0  0
 18  6  1  0  0  0  0
 21  7  1  0  0  0  0
 24  9  1  0  0  0  0
 25 35  1  0  0  0  0
 25 10  1  0  0  0  0
 26 36  1  6  0  0  0
 26 25  1  0  0  0  0
 27 37  1  0  0  0  0
 27 26  1  0  0  0  0
 27 38  1  0  0  0  0
 28 27  1  0  0  0  0
 29 28  2  0  0  0  0
 29 39  1  0  0  0  0
 30 29  1  0  0  0  0
 31 30  1  0  0  0  0
 31 32  2  0  0  0  0
 32 28  1  0  0  0  0
 33 26  1  0  0  0  0
 33 49  1  0  0  0  0
 34 33  2  0  0  0  0
 40 30  1  0  0  0  0
 41 31  1  0  0  0  0
 42 43  1  0  0  0  0
 43 53  1  0  0  0  0
 44 45  1  0  0  0  0
 44 43  2  0  0  0  0
 45 46  2  0  0  0  0
 46 47  1  0  0  0  0
 46 52  1  0  0  0  0
 47 58  1  0  0  0  0
 48 60  1  6  0  0  0
 48 47  1  0  0  0  0
 48 50  1  0  0  0  0
 48 49  1  0  0  0  0
 49 61  1  0  0  0  0
 50 51  1  0  0  0  0
 52 62  1  0  0  0  0
 53 52  2  0  0  0  0
 53 63  1  0  0  0  0
 54 50  2  0  0  0  0
 55 42  1  0  0  0  0
 56 44  1  0  0  0  0
 57 45  1  0  0  0  0
 59 47  1  0  0  0  0
M  END
$$$$
