RIA.pdb
 OpenBabel07022418053D

 54 53  0  0  1  0  0  0  0  0999 V2000
   -0.6900   -5.7050    1.0870 N   0  0  0  0  0  0  0  0  0  0  0  0
   -0.1100   -4.4210    1.1150 C   0  0  0  0  0  0  0  0  0  0  0  0
   -0.7110   -3.5120    1.8320 N   0  0  0  0  0  0  0  0  0  0  0  0
    1.0800   -4.0850    0.4060 N   0  0  0  0  0  0  0  0  0  0  0  0
    1.7100   -2.8220    0.7780 C   0  0  0  0  0  0  0  0  0  0  0  0
    2.9590   -2.5620    0.0200 C   0  0  0  0  0  0  0  0  0  0  0  0
    3.6070   -1.2990    0.4340 C   0  0  0  0  0  0  0  0  0  0  0  0
    2.8990   -0.0100    0.2350 C   0  0  2  0  0  0  0  0  0  0  0  0
    3.8630    1.0030    0.7840 N   0  0  0  0  0  0  0  0  0  0  0  0
    1.6780    0.2060    1.0260 C   0  0  0  0  0  0  0  0  0  0  0  0
    1.6140    0.0870    2.2720 O   0  0  0  0  0  0  0  0  0  0  0  0
   -1.7240   -5.8140    1.0800 H   0  0  0  0  0  0  0  0  0  0  0  0
   -0.1170   -6.5730    1.0730 H   0  0  0  0  0  0  0  0  0  0  0  0
   -1.5680   -3.6900    2.3640 H   0  0  0  0  0  0  0  0  0  0  0  0
    1.4290   -4.7270   -0.3110 H   0  0  0  0  0  0  0  0  0  0  0  0
    1.8760   -2.8840    1.8680 H   0  0  0  0  0  0  0  0  0  0  0  0
    0.9240   -2.0650    0.6230 H   0  0  0  0  0  0  0  0  0  0  0  0
    2.8420   -2.6660   -1.0820 H   0  0  0  0  0  0  0  0  0  0  0  0
    3.6630   -3.4160    0.2760 H   0  0  0  0  0  0  0  0  0  0  0  0
    4.6160   -1.1910   -0.0860 H   0  0  0  0  0  0  0  0  0  0  0  0
    3.9210   -1.3190    1.5230 H   0  0  0  0  0  0  0  0  0  0  0  0
    2.7960    0.2820   -0.8180 H   0  0  0  0  0  0  0  0  0  0  0  0
    3.7630    0.9590    1.8380 H   0  0  0  0  0  0  0  0  0  0  0  0
    3.5310    1.9520    0.5180 H   0  0  0  0  0  0  0  0  0  0  0  0
    0.0280    2.8200    3.1850 C   0  0  0  0  0  0  0  0  0  0  0  0
   -0.2100    3.1780    1.7390 C   0  0  0  0  0  0  0  0  0  0  0  0
   -1.1850    2.2620    1.0570 C   0  0  2  0  0  0  0  0  0  0  0  0
   -2.4940    2.3630    1.8090 C   0  0  0  0  0  0  0  0  0  0  0  0
   -0.7810    0.8190    1.0210 C   0  0  2  0  0  0  0  0  0  0  0  0
    0.4610    0.5880    0.3410 N   0  0  0  0  0  0  0  0  0  0  0  0
   -1.8600    0.0760    0.3400 C   0  0  0  0  0  0  0  0  0  0  0  0
   -3.0520    0.0740    0.8090 O   0  0  0  0  0  0  0  0  0  0  0  0
   -0.1490    3.6810    3.8600 H   0  0  0  0  0  0  0  0  0  0  0  0
    1.1050    2.5790    3.2990 H   0  0  0  0  0  0  0  0  0  0  0  0
   -0.5210    1.9140    3.5070 H   0  0  0  0  0  0  0  0  0  0  0  0
   -0.6810    4.2030    1.7530 H   0  0  0  0  0  0  0  0  0  0  0  0
    0.7380    3.2870    1.2140 H   0  0  0  0  0  0  0  0  0  0  0  0
   -1.3620    2.6000    0.0220 H   0  0  0  0  0  0  0  0  0  0  0  0
   -2.5250    3.3040    2.4340 H   0  0  0  0  0  0  0  0  0  0  0  0
   -2.6310    1.5520    2.5540 H   0  0  0  0  0  0  0  0  0  0  0  0
   -3.3790    2.3530    1.1420 H   0  0  0  0  0  0  0  0  0  0  0  0
   -0.6980    0.4850    2.0690 H   0  0  0  0  0  0  0  0  0  0  0  0
    0.4600    0.7120   -0.6930 H   0  0  0  0  0  0  0  0  0  0  0  0
   -3.1300   -0.6150   -2.7710 C   0  0  0  0  0  0  0  0  0  0  0  0
   -2.8110   -1.3750   -1.4650 C   0  0  2  0  0  0  0  0  0  0  0  0
   -1.6980   -0.6780   -0.8550 N   0  0  0  0  0  0  0  0  0  0  0  0
   -2.3760   -2.7230   -1.8670 C   0  0  0  0  0  0  0  0  0  0  0  0
   -3.2010   -3.5080   -2.3950 O   0  0  0  0  0  0  0  0  0  0  0  0
   -1.0810   -3.1220   -1.6690 O   0  0  0  0  0  0  0  0  0  0  0  0
   -2.9670    0.4640   -2.6210 H   0  0  0  0  0  0  0  0  0  0  0  0
   -4.1730   -0.7730   -3.0460 H   0  0  0  0  0  0  0  0  0  0  0  0
   -2.4720   -1.0050   -3.5600 H   0  0  0  0  0  0  0  0  0  0  0  0
   -3.7230   -1.3530   -0.8480 H   0  0  0  0  0  0  0  0  0  0  0  0
   -0.7730   -0.7430   -1.3130 H   0  0  0  0  0  0  0  0  0  0  0  0
  1  2  1  0  0  0  0
  2  3  2  0  0  0  0
  3 14  1  0  0  0  0
  4  5  1  0  0  0  0
  4  2  1  0  0  0  0
  5 16  1  0  0  0  0
  6 19  1  0  0  0  0
  6  7  1  0  0  0  0
  6  5  1  0  0  0  0
  7 21  1  0  0  0  0
  8 22  1  6  0  0  0
  8  7  1  0  0  0  0
  8  9  1  0  0  0  0
  8 10  1  0  0  0  0
  9 23  1  0  0  0  0
 10 11  2  0  0  0  0
 12  1  1  0  0  0  0
 13  1  1  0  0  0  0
 15  4  1  0  0  0  0
 17  5  1  0  0  0  0
 18  6  1  0  0  0  0
 20  7  1  0  0  0  0
 24  9  1  0  0  0  0
 25 34  1  0  0  0  0
 25 35  1  0  0  0  0
 25 33  1  0  0  0  0
 26 36  1  0  0  0  0
 26 25  1  0  0  0  0
 27 38  1  6  0  0  0
 27 26  1  0  0  0  0
 27 28  1  0  0  0  0
 28 39  1  0  0  0  0
 28 40  1  0  0  0  0
 29 27  1  0  0  0  0
 29 42  1  1  0  0  0
 30 29  1  0  0  0  0
 30 10  1  0  0  0  0
 31 32  2  0  0  0  0
 31 29  1  0  0  0  0
 37 26  1  0  0  0  0
 41 28  1  0  0  0  0
 43 30  1  0  0  0  0
 44 50  1  0  0  0  0
 44 45  1  0  0  0  0
 45 46  1  0  0  0  0
 45 53  1  1  0  0  0
 46 31  1  0  0  0  0
 47 49  1  0  0  0  0
 47 45  1  0  0  0  0
 48 47  2  0  0  0  0
 51 44  1  0  0  0  0
 52 44  1  0  0  0  0
 54 46  1  0  0  0  0
M  END
$$$$
