RID.pdb
 OpenBabel07022418053D

 57 56  0  0  1  0  0  0  0  0999 V2000
    3.2940   -1.0630    7.3160 N   0  0  0  0  0  0  0  0  0  0  0  0
    3.7140   -0.2740    6.2320 C   0  0  0  0  0  0  0  0  0  0  0  0
    4.8560   -0.4820    5.6960 N   0  0  0  0  0  0  0  0  0  0  0  0
    2.8760    0.7700    5.7130 N   0  0  0  0  0  0  0  0  0  0  0  0
    3.1380    1.2730    4.3840 C   0  0  0  0  0  0  0  0  0  0  0  0
    2.8170    0.1900    3.3340 C   0  0  0  0  0  0  0  0  0  0  0  0
    3.0920    0.7130    1.9530 C   0  0  0  0  0  0  0  0  0  0  0  0
    2.8070   -0.3230    0.9010 C   0  0  2  0  0  0  0  0  0  0  0  0
    3.1140    0.2810   -0.4080 N   0  0  0  0  0  0  0  0  0  0  0  0
    1.3830   -0.7160    0.9010 C   0  0  0  0  0  0  0  0  0  0  0  0
    0.8610   -1.3490    1.8850 O   0  0  0  0  0  0  0  0  0  0  0  0
    2.3490   -0.9150    7.7310 H   0  0  0  0  0  0  0  0  0  0  0  0
    3.9180   -1.7960    7.7110 H   0  0  0  0  0  0  0  0  0  0  0  0
    5.4880   -1.2390    6.0560 H   0  0  0  0  0  0  0  0  0  0  0  0
    2.1150    1.1050    6.3380 H   0  0  0  0  0  0  0  0  0  0  0  0
    2.4160    2.0890    4.2020 H   0  0  0  0  0  0  0  0  0  0  0  0
    4.1900    1.5420    4.2660 H   0  0  0  0  0  0  0  0  0  0  0  0
    3.4160   -0.7160    3.5460 H   0  0  0  0  0  0  0  0  0  0  0  0
    1.7680   -0.0680    3.5290 H   0  0  0  0  0  0  0  0  0  0  0  0
    2.4930    1.6340    1.7900 H   0  0  0  0  0  0  0  0  0  0  0  0
    4.1680    0.9970    1.8750 H   0  0  0  0  0  0  0  0  0  0  0  0
    3.4820   -1.1900    1.0640 H   0  0  0  0  0  0  0  0  0  0  0  0
    3.1640    1.3090   -0.3470 H   0  0  0  0  0  0  0  0  0  0  0  0
    4.0180   -0.1010   -0.7150 H   0  0  0  0  0  0  0  0  0  0  0  0
   -3.5800    1.9550   -0.1680 C   0  0  0  0  0  0  0  0  0  0  0  0
   -3.0020    0.5680   -0.4560 C   0  0  0  0  0  0  0  0  0  0  0  0
   -1.5130    0.6060   -0.3600 C   0  0  2  0  0  0  0  0  0  0  0  0
   -0.8750    1.5580   -1.3350 C   0  0  0  0  0  0  0  0  0  0  0  0
   -0.8260   -0.7230   -0.3180 C   0  0  2  0  0  0  0  0  0  0  0  0
    0.5930   -0.3760   -0.2260 N   0  0  0  0  0  0  0  0  0  0  0  0
   -0.9680   -1.5720   -1.4950 C   0  0  0  0  0  0  0  0  0  0  0  0
   -0.0100   -1.8450   -2.2690 O   0  0  0  0  0  0  0  0  0  0  0  0
   -4.6310    1.8050    0.0980 H   0  0  0  0  0  0  0  0  0  0  0  0
   -3.0240    2.4600    0.6530 H   0  0  0  0  0  0  0  0  0  0  0  0
   -3.5680    2.5820   -1.0830 H   0  0  0  0  0  0  0  0  0  0  0  0
   -3.2480    0.4030   -1.5400 H   0  0  0  0  0  0  0  0  0  0  0  0
   -3.4810   -0.1250    0.2330 H   0  0  0  0  0  0  0  0  0  0  0  0
   -1.3070    1.0640    0.6620 H   0  0  0  0  0  0  0  0  0  0  0  0
   -0.5080    1.0160   -2.2340 H   0  0  0  0  0  0  0  0  0  0  0  0
   -1.6210    2.3280   -1.6080 H   0  0  0  0  0  0  0  0  0  0  0  0
   -0.0290    2.1150   -0.8420 H   0  0  0  0  0  0  0  0  0  0  0  0
   -1.0980   -1.2440    0.6310 H   0  0  0  0  0  0  0  0  0  0  0  0
    1.0010    0.1330   -1.0250 H   0  0  0  0  0  0  0  0  0  0  0  0
   -2.2160   -2.1490   -1.8350 N   0  0  0  0  0  0  0  0  0  0  0  0
   -2.3470   -3.0150   -3.0300 C   0  0  1  0  0  0  0  0  0  0  0  0
   -2.6960   -4.4200   -2.5490 C   0  0  0  0  0  0  0  0  0  0  0  0
   -2.8370   -5.4080   -3.6110 C   0  0  0  0  0  0  0  0  0  0  0  0
   -3.2850   -6.5680   -3.3260 O   0  0  0  0  0  0  0  0  0  0  0  0
   -3.4820   -2.4910   -3.7950 C   0  0  0  0  0  0  0  0  0  0  0  0
   -3.8560   -2.9770   -4.8840 O   0  0  0  0  0  0  0  0  0  0  0  0
   -2.4980   -5.1370   -4.9360 O   0  0  0  0  0  0  0  0  0  0  0  0
   -4.2160   -1.4030   -3.3380 O   0  0  0  0  0  0  0  0  0  0  0  0
   -3.0340   -1.9580   -1.2380 H   0  0  0  0  0  0  0  0  0  0  0  0
   -1.3960   -3.0200   -3.5880 H   0  0  0  0  0  0  0  0  0  0  0  0
   -1.8720   -4.7160   -1.8440 H   0  0  0  0  0  0  0  0  0  0  0  0
   -3.6150   -4.4180   -1.9400 H   0  0  0  0  0  0  0  0  0  0  0  0
   -3.0430   -5.5940   -5.6740 H   0  0  0  0  0  0  0  0  0  0  0  0
  1 13  1  0  0  0  0
  1 12  1  0  0  0  0
  2  1  1  0  0  0  0
  3 14  1  0  0  0  0
  3  2  2  0  0  0  0
  4  2  1  0  0  0  0
  4 15  1  0  0  0  0
  5  4  1  0  0  0  0
  6 19  1  0  0  0  0
  6 18  1  0  0  0  0
  6  5  1  0  0  0  0
  7  6  1  0  0  0  0
  8 10  1  0  0  0  0
  8 22  1  1  0  0  0
  8  7  1  0  0  0  0
  9 23  1  0  0  0  0
  9  8  1  0  0  0  0
 10 11  2  0  0  0  0
 16  5  1  0  0  0  0
 17  5  1  0  0  0  0
 20  7  1  0  0  0  0
 21  7  1  0  0  0  0
 24  9  1  0  0  0  0
 25 33  1  0  0  0  0
 25 34  1  0  0  0  0
 26 27  1  0  0  0  0
 26 25  1  0  0  0  0
 26 37  1  0  0  0  0
 27 29  1  0  0  0  0
 27 38  1  1  0  0  0
 28 41  1  0  0  0  0
 28 27  1  0  0  0  0
 29 30  1  0  0  0  0
 29 42  1  1  0  0  0
 30 10  1  0  0  0  0
 31 29  1  0  0  0  0
 32 31  2  0  0  0  0
 35 25  1  0  0  0  0
 36 26  1  0  0  0  0
 39 28  1  0  0  0  0
 40 28  1  0  0  0  0
 43 30  1  0  0  0  0
 44 31  1  0  0  0  0
 44 53  1  0  0  0  0
 45 54  1  6  0  0  0
 45 46  1  0  0  0  0
 45 44  1  0  0  0  0
 46 56  1  0  0  0  0
 46 55  1  0  0  0  0
 47 48  2  0  0  0  0
 47 46  1  0  0  0  0
 49 52  1  0  0  0  0
 49 45  1  0  0  0  0
 50 49  2  0  0  0  0
 51 47  1  0  0  0  0
 57 51  1  0  0  0  0
M  END
$$$$
