RIK.pdb
 OpenBabel07022418053D

 65 64  0  0  1  0  0  0  0  0999 V2000
    4.5460   -2.6750    4.3440 N   0  0  0  0  0  0  0  0  0  0  0  0
    4.6020   -1.2700    4.5110 C   0  0  0  0  0  0  0  0  0  0  0  0
    4.9760   -0.7190    5.6110 N   0  0  0  0  0  0  0  0  0  0  0  0
    4.2180   -0.4510    3.3900 N   0  0  0  0  0  0  0  0  0  0  0  0
    3.9450    0.9190    3.6230 C   0  0  0  0  0  0  0  0  0  0  0  0
    3.4220    1.7390    2.5130 C   0  0  0  0  0  0  0  0  0  0  0  0
    2.0880    1.4160    1.9660 C   0  0  0  0  0  0  0  0  0  0  0  0
    1.8590    0.0800    1.3680 C   0  0  2  0  0  0  0  0  0  0  0  0
    2.7450   -0.1470    0.2660 N   0  0  0  0  0  0  0  0  0  0  0  0
    0.4570    0.0130    0.7700 C   0  0  0  0  0  0  0  0  0  0  0  0
    0.2670   -0.1820   -0.4500 O   0  0  0  0  0  0  0  0  0  0  0  0
    3.6340   -3.1630    4.5080 H   0  0  0  0  0  0  0  0  0  0  0  0
    5.3800   -3.2160    4.0680 H   0  0  0  0  0  0  0  0  0  0  0  0
    5.2460   -1.3680    6.4030 H   0  0  0  0  0  0  0  0  0  0  0  0
    4.1840   -0.8840    2.4750 H   0  0  0  0  0  0  0  0  0  0  0  0
    4.9270    1.3920    3.9500 H   0  0  0  0  0  0  0  0  0  0  0  0
    3.3120    1.0440    4.5560 H   0  0  0  0  0  0  0  0  0  0  0  0
    4.2130    1.6940    1.6880 H   0  0  0  0  0  0  0  0  0  0  0  0
    3.4460    2.8300    2.8150 H   0  0  0  0  0  0  0  0  0  0  0  0
    1.3070    1.6670    2.7370 H   0  0  0  0  0  0  0  0  0  0  0  0
    1.8840    2.2030    1.1630 H   0  0  0  0  0  0  0  0  0  0  0  0
    1.9650   -0.7270    2.1070 H   0  0  0  0  0  0  0  0  0  0  0  0
    2.3380   -0.7520   -0.4610 H   0  0  0  0  0  0  0  0  0  0  0  0
    3.0700    0.7590   -0.1060 H   0  0  0  0  0  0  0  0  0  0  0  0
   -2.7580    3.0340   -1.2140 C   0  0  0  0  0  0  0  0  0  0  0  0
   -1.9430    1.8540   -0.6570 C   0  0  0  0  0  0  0  0  0  0  0  0
   -2.5930    1.3610    0.5850 C   0  0  2  0  0  0  0  0  0  0  0  0
   -2.6600    2.4540    1.6560 C   0  0  0  0  0  0  0  0  0  0  0  0
   -2.0390    0.1330    1.2030 C   0  0  2  0  0  0  0  0  0  0  0  0
   -0.6760    0.1760    1.6120 N   0  0  0  0  0  0  0  0  0  0  0  0
   -2.4640   -1.1260    0.5380 C   0  0  0  0  0  0  0  0  0  0  0  0
   -3.6220   -1.2270    0.0230 O   0  0  0  0  0  0  0  0  0  0  0  0
   -3.2260    3.6220   -0.4070 H   0  0  0  0  0  0  0  0  0  0  0  0
   -2.0920    3.6950   -1.8340 H   0  0  0  0  0  0  0  0  0  0  0  0
   -3.5550    2.6930   -1.8890 H   0  0  0  0  0  0  0  0  0  0  0  0
   -1.9170    1.1130   -1.4680 H   0  0  0  0  0  0  0  0  0  0  0  0
   -0.9160    2.2530   -0.5280 H   0  0  0  0  0  0  0  0  0  0  0  0
   -3.6650    1.1690    0.3330 H   0  0  0  0  0  0  0  0  0  0  0  0
   -2.4320    2.0250    2.6570 H   0  0  0  0  0  0  0  0  0  0  0  0
   -1.8540    3.2120    1.4780 H   0  0  0  0  0  0  0  0  0  0  0  0
   -3.6540    2.9160    1.7360 H   0  0  0  0  0  0  0  0  0  0  0  0
   -2.6180    0.0570    2.2120 H   0  0  0  0  0  0  0  0  0  0  0  0
   -0.4250    0.3460    2.6390 H   0  0  0  0  0  0  0  0  0  0  0  0
   -1.6460   -2.2720    0.4320 N   0  0  0  0  0  0  0  0  0  0  0  0
   -2.1170   -3.4970   -0.2340 C   0  0  1  0  0  0  0  0  0  0  0  0
   -1.2610   -3.9450   -1.3550 C   0  0  0  0  0  0  0  0  0  0  0  0
   -1.1070   -2.9890   -2.4850 C   0  0  0  0  0  0  0  0  0  0  0  0
   -2.3990   -2.6210   -3.1590 C   0  0  0  0  0  0  0  0  0  0  0  0
   -2.1320   -1.6470   -4.2860 C   0  0  0  0  0  0  0  0  0  0  0  0
   -1.2590   -2.1670   -5.3030 N   0  0  0  0  0  0  0  0  0  0  0  0
   -2.1390   -4.5600    0.8010 C   0  0  0  0  0  0  0  0  0  0  0  0
   -2.5060   -5.7030    0.4560 O   0  0  0  0  0  0  0  0  0  0  0  0
   -1.7750   -4.3420    2.1090 O   0  0  0  0  0  0  0  0  0  0  0  0
   -0.6760   -2.2980    0.8380 H   0  0  0  0  0  0  0  0  0  0  0  0
   -3.1760   -3.3160   -0.5170 H   0  0  0  0  0  0  0  0  0  0  0  0
   -1.5900   -4.9220   -1.7210 H   0  0  0  0  0  0  0  0  0  0  0  0
   -0.2280   -4.1140   -0.9360 H   0  0  0  0  0  0  0  0  0  0  0  0
   -0.4950   -2.1110   -2.2140 H   0  0  0  0  0  0  0  0  0  0  0  0
   -0.5000   -3.5250   -3.2760 H   0  0  0  0  0  0  0  0  0  0  0  0
   -2.8540   -3.5280   -3.6500 H   0  0  0  0  0  0  0  0  0  0  0  0
   -3.1580   -2.1940   -2.5120 H   0  0  0  0  0  0  0  0  0  0  0  0
   -1.6590   -0.7100   -3.8690 H   0  0  0  0  0  0  0  0  0  0  0  0
   -3.1100   -1.2910   -4.7190 H   0  0  0  0  0  0  0  0  0  0  0  0
   -0.4040   -1.5570   -5.4250 H   0  0  0  0  0  0  0  0  0  0  0  0
   -1.7730   -2.1210   -6.2130 H   0  0  0  0  0  0  0  0  0  0  0  0
  1 12  1  0  0  0  0
  1  2  1  0  0  0  0
  2  3  2  0  0  0  0
  3 14  1  0  0  0  0
  4  5  1  0  0  0  0
  4  2  1  0  0  0  0
  5 16  1  0  0  0  0
  5 17  1  0  0  0  0
  6 19  1  0  0  0  0
  6  5  1  0  0  0  0
  7  6  1  0  0  0  0
  7 20  1  0  0  0  0
  8  7  1  0  0  0  0
  8 22  1  1  0  0  0
  9  8  1  0  0  0  0
 10  8  1  0  0  0  0
 10 30  1  0  0  0  0
 11 10  2  0  0  0  0
 13  1  1  0  0  0  0
 15  4  1  0  0  0  0
 18  6  1  0  0  0  0
 21  7  1  0  0  0  0
 23  9  1  0  0  0  0
 24  9  1  0  0  0  0
 25 26  1  0  0  0  0
 25 33  1  0  0  0  0
 26 37  1  0  0  0  0
 26 27  1  0  0  0  0
 27 38  1  6  0  0  0
 27 29  1  0  0  0  0
 27 28  1  0  0  0  0
 28 41  1  0  0  0  0
 28 39  1  0  0  0  0
 29 30  1  0  0  0  0
 29 42  1  1  0  0  0
 30 43  1  0  0  0  0
 31 29  1  0  0  0  0
 32 31  2  0  0  0  0
 34 25  1  0  0  0  0
 35 25  1  0  0  0  0
 36 26  1  0  0  0  0
 40 28  1  0  0  0  0
 44 31  1  0  0  0  0
 44 54  1  0  0  0  0
 45 55  1  6  0  0  0
 45 44  1  0  0  0  0
 45 51  1  0  0  0  0
 46 57  1  0  0  0  0
 46 45  1  0  0  0  0
 47 58  1  0  0  0  0
 47 46  1  0  0  0  0
 48 61  1  0  0  0  0
 48 47  1  0  0  0  0
 49 62  1  0  0  0  0
 49 48  1  0  0  0  0
 50 49  1  0  0  0  0
 51 53  1  0  0  0  0
 52 51  2  0  0  0  0
 56 46  1  0  0  0  0
 59 47  1  0  0  0  0
 60 48  1  0  0  0  0
 63 49  1  0  0  0  0
 64 50  1  0  0  0  0
 65 50  1  0  0  0  0
M  END
$$$$
