RIT.pdb
 OpenBabel07022418053D

 58 57  0  0  1  0  0  0  0  0999 V2000
    4.5010    0.2210    2.6750 N   0  0  0  0  0  0  0  0  0  0  0  0
    3.7150   -0.6890    1.9100 C   0  0  0  0  0  0  0  0  0  0  0  0
    2.8240   -1.3850    2.5750 N   0  0  0  0  0  0  0  0  0  0  0  0
    3.8670   -0.8670    0.5220 N   0  0  0  0  0  0  0  0  0  0  0  0
    2.7120   -1.1180   -0.3000 C   0  0  0  0  0  0  0  0  0  0  0  0
    3.1280   -1.4120   -1.7240 C   0  0  0  0  0  0  0  0  0  0  0  0
    2.0410   -1.7020   -2.6620 C   0  0  0  0  0  0  0  0  0  0  0  0
    1.0050   -0.7250   -2.9650 C   0  0  2  0  0  0  0  0  0  0  0  0
    1.4160    0.5250   -3.5190 N   0  0  0  0  0  0  0  0  0  0  0  0
   -0.1510   -0.5270   -2.1180 C   0  0  0  0  0  0  0  0  0  0  0  0
   -0.8520    0.5230   -2.3720 O   0  0  0  0  0  0  0  0  0  0  0  0
    5.5250    0.3410    2.5020 H   0  0  0  0  0  0  0  0  0  0  0  0
    4.0610    0.8000    3.4430 H   0  0  0  0  0  0  0  0  0  0  0  0
    2.1970   -2.0810    2.1010 H   0  0  0  0  0  0  0  0  0  0  0  0
    4.8030   -0.8140    0.1010 H   0  0  0  0  0  0  0  0  0  0  0  0
    2.1810   -2.0100    0.0670 H   0  0  0  0  0  0  0  0  0  0  0  0
    2.0800   -0.2010   -0.2620 H   0  0  0  0  0  0  0  0  0  0  0  0
    3.8180   -0.6000   -2.0280 H   0  0  0  0  0  0  0  0  0  0  0  0
    3.7920   -2.3240   -1.6450 H   0  0  0  0  0  0  0  0  0  0  0  0
    2.5230   -1.9890   -3.6610 H   0  0  0  0  0  0  0  0  0  0  0  0
    1.5740   -2.6780   -2.3570 H   0  0  0  0  0  0  0  0  0  0  0  0
    0.4890   -1.2090   -3.9330 H   0  0  0  0  0  0  0  0  0  0  0  0
    2.3770    0.5850   -3.8540 H   0  0  0  0  0  0  0  0  0  0  0  0
    0.9600    1.3550   -3.1800 H   0  0  0  0  0  0  0  0  0  0  0  0
   -3.7920   -3.8380   -1.9360 C   0  0  0  0  0  0  0  0  0  0  0  0
   -3.0250   -2.5450   -1.7870 C   0  0  0  0  0  0  0  0  0  0  0  0
   -2.7380   -2.2100   -0.3390 C   0  0  2  0  0  0  0  0  0  0  0  0
   -3.9730   -2.0550    0.4760 C   0  0  0  0  0  0  0  0  0  0  0  0
   -1.8490   -0.9810   -0.3430 C   0  0  2  0  0  0  0  0  0  0  0  0
   -0.6500   -1.2970   -1.0520 N   0  0  0  0  0  0  0  0  0  0  0  0
   -1.7700   -0.3170    0.9380 C   0  0  0  0  0  0  0  0  0  0  0  0
   -2.8800   -0.0850    1.5700 O   0  0  0  0  0  0  0  0  0  0  0  0
   -3.6440   -4.2000   -2.9650 H   0  0  0  0  0  0  0  0  0  0  0  0
   -3.4160   -4.6200   -1.2590 H   0  0  0  0  0  0  0  0  0  0  0  0
   -4.8630   -3.6060   -1.8200 H   0  0  0  0  0  0  0  0  0  0  0  0
   -2.0500   -2.6070   -2.3070 H   0  0  0  0  0  0  0  0  0  0  0  0
   -3.6480   -1.7260   -2.2020 H   0  0  0  0  0  0  0  0  0  0  0  0
   -2.1290   -3.0400    0.0740 H   0  0  0  0  0  0  0  0  0  0  0  0
   -3.7650   -2.2450    1.5310 H   0  0  0  0  0  0  0  0  0  0  0  0
   -4.5260   -1.1150    0.2750 H   0  0  0  0  0  0  0  0  0  0  0  0
   -4.6830   -2.8720    0.1520 H   0  0  0  0  0  0  0  0  0  0  0  0
   -2.3960   -0.2350   -1.0270 H   0  0  0  0  0  0  0  0  0  0  0  0
   -0.0660   -2.1520   -0.8000 H   0  0  0  0  0  0  0  0  0  0  0  0
   -0.1910    1.0100    5.2800 C   0  0  0  0  0  0  0  0  0  0  0  0
    0.1460    0.2300    3.9950 C   0  0  1  0  0  0  0  0  0  0  0  0
   -0.1070   -1.1170    4.2300 O   0  0  0  0  0  0  0  0  0  0  0  0
   -0.7470    0.8070    2.9310 C   0  0  2  0  0  0  0  0  0  0  0  0
   -0.6340    0.1440    1.6440 N   0  0  0  0  0  0  0  0  0  0  0  0
   -0.3250    2.2520    2.7810 C   0  0  0  0  0  0  0  0  0  0  0  0
    0.0420    2.6600    1.6610 O   0  0  0  0  0  0  0  0  0  0  0  0
   -0.3260    3.1430    3.8240 O   0  0  0  0  0  0  0  0  0  0  0  0
    0.5550    1.7890    5.5000 H   0  0  0  0  0  0  0  0  0  0  0  0
   -0.1850    0.3240    6.1550 H   0  0  0  0  0  0  0  0  0  0  0  0
   -1.1880    1.4710    5.2090 H   0  0  0  0  0  0  0  0  0  0  0  0
    1.2090    0.4570    3.8150 H   0  0  0  0  0  0  0  0  0  0  0  0
   -1.0680   -1.2490    4.1650 H   0  0  0  0  0  0  0  0  0  0  0  0
   -1.7830    0.8190    3.3180 H   0  0  0  0  0  0  0  0  0  0  0  0
    0.2940    0.0040    1.2340 H   0  0  0  0  0  0  0  0  0  0  0  0
  1 13  1  0  0  0  0
  2  3  2  0  0  0  0
  2  1  1  0  0  0  0
  4  2  1  0  0  0  0
  5 17  1  0  0  0  0
  5 16  1  0  0  0  0
  5  4  1  0  0  0  0
  6 19  1  0  0  0  0
  6  5  1  0  0  0  0
  7 21  1  0  0  0  0
  7  6  1  0  0  0  0
  8 22  1  6  0  0  0
  8  7  1  0  0  0  0
  8 10  1  0  0  0  0
  9 24  1  0  0  0  0
  9  8  1  0  0  0  0
 10 30  1  0  0  0  0
 11 10  2  0  0  0  0
 12  1  1  0  0  0  0
 14  3  1  0  0  0  0
 15  4  1  0  0  0  0
 18  6  1  0  0  0  0
 20  7  1  0  0  0  0
 23  9  1  0  0  0  0
 25 35  1  0  0  0  0
 25 26  1  0  0  0  0
 25 34  1  0  0  0  0
 26 27  1  0  0  0  0
 27 38  1  1  0  0  0
 27 28  1  0  0  0  0
 28 39  1  0  0  0  0
 29 42  1  6  0  0  0
 29 27  1  0  0  0  0
 29 31  1  0  0  0  0
 30 43  1  0  0  0  0
 30 29  1  0  0  0  0
 31 32  2  0  0  0  0
 31 48  1  0  0  0  0
 33 25  1  0  0  0  0
 36 26  1  0  0  0  0
 37 26  1  0  0  0  0
 40 28  1  0  0  0  0
 41 28  1  0  0  0  0
 44 52  1  0  0  0  0
 44 53  1  0  0  0  0
 45 55  1  6  0  0  0
 45 46  1  0  0  0  0
 45 44  1  0  0  0  0
 47 57  1  1  0  0  0
 47 45  1  0  0  0  0
 48 47  1  0  0  0  0
 49 47  1  0  0  0  0
 49 51  1  0  0  0  0
 50 49  2  0  0  0  0
 54 44  1  0  0  0  0
 56 46  1  0  0  0  0
 58 48  1  0  0  0  0
M  END
$$$$
