RIY.pdb
 OpenBabel07022418053D

 65 65  0  0  1  0  0  0  0  0999 V2000
    0.3500    0.1160    5.4740 N   0  0  0  0  0  0  0  0  0  0  0  0
    1.6030    0.5520    4.9780 C   0  0  0  0  0  0  0  0  0  0  0  0
    2.6430    0.4560    5.7140 N   0  0  0  0  0  0  0  0  0  0  0  0
    1.7400    1.0970    3.6700 N   0  0  0  0  0  0  0  0  0  0  0  0
    2.9640    0.9510    2.9250 C   0  0  0  0  0  0  0  0  0  0  0  0
    2.8250    1.6150    1.5790 C   0  0  0  0  0  0  0  0  0  0  0  0
    1.7070    0.9820    0.7820 C   0  0  0  0  0  0  0  0  0  0  0  0
    1.5810    1.6430   -0.5800 C   0  0  2  0  0  0  0  0  0  0  0  0
    1.2930    3.0530   -0.4570 N   0  0  0  0  0  0  0  0  0  0  0  0
    0.6420    0.9450   -1.4870 C   0  0  0  0  0  0  0  0  0  0  0  0
   -0.2170    1.6450   -2.1240 O   0  0  0  0  0  0  0  0  0  0  0  0
   -0.0280   -0.8050    5.1730 H   0  0  0  0  0  0  0  0  0  0  0  0
   -0.1990    0.7030    6.1370 H   0  0  0  0  0  0  0  0  0  0  0  0
    3.5800    0.7580    5.4030 H   0  0  0  0  0  0  0  0  0  0  0  0
    0.9460    1.6040    3.2570 H   0  0  0  0  0  0  0  0  0  0  0  0
    3.1470   -0.1550    2.8130 H   0  0  0  0  0  0  0  0  0  0  0  0
    3.8270    1.3920    3.5010 H   0  0  0  0  0  0  0  0  0  0  0  0
    2.6690    2.7110    1.7010 H   0  0  0  0  0  0  0  0  0  0  0  0
    3.8170    1.4610    1.0650 H   0  0  0  0  0  0  0  0  0  0  0  0
    1.9770   -0.0880    0.6700 H   0  0  0  0  0  0  0  0  0  0  0  0
    0.7520    1.0050    1.3370 H   0  0  0  0  0  0  0  0  0  0  0  0
    2.6040    1.5900   -1.0330 H   0  0  0  0  0  0  0  0  0  0  0  0
    1.2010    3.4320   -1.4260 H   0  0  0  0  0  0  0  0  0  0  0  0
    0.4090    3.2540    0.0580 H   0  0  0  0  0  0  0  0  0  0  0  0
    0.8470   -4.0700   -2.1920 C   0  0  0  0  0  0  0  0  0  0  0  0
    1.4240   -3.0350   -3.1020 C   0  0  0  0  0  0  0  0  0  0  0  0
    0.4920   -1.9740   -3.5650 C   0  0  2  0  0  0  0  0  0  0  0  0
    1.3190   -1.0510   -4.4820 C   0  0  0  0  0  0  0  0  0  0  0  0
   -0.1770   -1.1670   -2.5090 C   0  0  2  0  0  0  0  0  0  0  0  0
    0.6930   -0.4600   -1.6450 N   0  0  0  0  0  0  0  0  0  0  0  0
   -1.2280   -1.9840   -1.8460 C   0  0  0  0  0  0  0  0  0  0  0  0
   -1.9380   -2.6670   -2.6080 O   0  0  0  0  0  0  0  0  0  0  0  0
    0.0010   -4.5970   -2.6720 H   0  0  0  0  0  0  0  0  0  0  0  0
    0.5950   -3.7410   -1.1840 H   0  0  0  0  0  0  0  0  0  0  0  0
    1.6480   -4.8520   -2.0580 H   0  0  0  0  0  0  0  0  0  0  0  0
    2.3810   -2.6390   -2.6920 H   0  0  0  0  0  0  0  0  0  0  0  0
    1.7480   -3.5910   -4.0320 H   0  0  0  0  0  0  0  0  0  0  0  0
   -0.2360   -2.4560   -4.2650 H   0  0  0  0  0  0  0  0  0  0  0  0
    1.8730   -1.7520   -5.1580 H   0  0  0  0  0  0  0  0  0  0  0  0
    2.0570   -0.4780   -3.9160 H   0  0  0  0  0  0  0  0  0  0  0  0
    0.6680   -0.4420   -5.1280 H   0  0  0  0  0  0  0  0  0  0  0  0
   -0.7680   -0.3570   -3.0730 H   0  0  0  0  0  0  0  0  0  0  0  0
    1.4290   -0.9780   -1.0770 H   0  0  0  0  0  0  0  0  0  0  0  0
   -1.7030    2.1440    4.2190 O   0  0  0  0  0  0  0  0  0  0  0  0
   -2.1570    1.1540    3.3730 C   0  0  0  0  0  0  0  0  0  0  0  0
   -2.4940   -0.1020    3.8280 C   0  0  0  0  0  0  0  0  0  0  0  0
   -2.9500   -1.1130    3.0110 C   0  0  0  0  0  0  0  0  0  0  0  0
   -3.0870   -0.8900    1.6740 C   0  0  0  0  0  0  0  0  0  0  0  0
   -3.5830   -1.9690    0.7930 C   0  0  0  0  0  0  0  0  0  0  0  0
   -2.4050   -2.7590    0.2880 C   0  0  2  0  0  0  0  0  0  0  0  0
   -1.4520   -2.0190   -0.4590 N   0  0  0  0  0  0  0  0  0  0  0  0
   -2.8160   -4.0760   -0.2560 C   0  0  0  0  0  0  0  0  0  0  0  0
   -2.3350   -4.6350   -1.2450 O   0  0  0  0  0  0  0  0  0  0  0  0
   -2.7560    0.3670    1.1840 C   0  0  0  0  0  0  0  0  0  0  0  0
   -2.2980    1.3740    2.0130 C   0  0  0  0  0  0  0  0  0  0  0  0
   -3.8550   -4.7970    0.3850 O   0  0  0  0  0  0  0  0  0  0  0  0
   -1.8130    3.1310    4.0530 H   0  0  0  0  0  0  0  0  0  0  0  0
   -2.3870   -0.2850    4.8860 H   0  0  0  0  0  0  0  0  0  0  0  0
   -3.2040   -2.0980    3.4330 H   0  0  0  0  0  0  0  0  0  0  0  0
   -4.2190   -1.5850   -0.0290 H   0  0  0  0  0  0  0  0  0  0  0  0
   -4.2250   -2.6970    1.3590 H   0  0  0  0  0  0  0  0  0  0  0  0
   -1.8430   -3.0990    1.2520 H   0  0  0  0  0  0  0  0  0  0  0  0
   -0.7730   -1.3710    0.0890 H   0  0  0  0  0  0  0  0  0  0  0  0
   -2.8580    0.5620    0.1300 H   0  0  0  0  0  0  0  0  0  0  0  0
   -2.0360    2.3650    1.6320 H   0  0  0  0  0  0  0  0  0  0  0  0
  1 13  1  0  0  0  0
  2  1  1  0  0  0  0
  2  3  2  0  0  0  0
  4  2  1  0  0  0  0
  5 17  1  0  0  0  0
  5  4  1  0  0  0  0
  6 18  1  0  0  0  0
  6  5  1  0  0  0  0
  7 21  1  0  0  0  0
  7  6  1  0  0  0  0
  8 22  1  6  0  0  0
  8  9  1  0  0  0  0
  8  7  1  0  0  0  0
  9 24  1  0  0  0  0
 10  8  1  0  0  0  0
 11 10  2  0  0  0  0
 12  1  1  0  0  0  0
 14  3  1  0  0  0  0
 15  4  1  0  0  0  0
 16  5  1  0  0  0  0
 19  6  1  0  0  0  0
 20  7  1  0  0  0  0
 23  9  1  0  0  0  0
 25 35  1  0  0  0  0
 25 34  1  0  0  0  0
 26 36  1  0  0  0  0
 26 25  1  0  0  0  0
 27 38  1  6  0  0  0
 27 26  1  0  0  0  0
 27 29  1  0  0  0  0
 28 40  1  0  0  0  0
 28 27  1  0  0  0  0
 29 42  1  6  0  0  0
 29 31  1  0  0  0  0
 29 30  1  0  0  0  0
 30 10  1  0  0  0  0
 30 43  1  0  0  0  0
 31 51  1  0  0  0  0
 32 31  2  0  0  0  0
 33 25  1  0  0  0  0
 37 26  1  0  0  0  0
 39 28  1  0  0  0  0
 41 28  1  0  0  0  0
 45 46  1  0  0  0  0
 45 44  1  0  0  0  0
 46 58  1  0  0  0  0
 47 59  1  0  0  0  0
 47 46  2  0  0  0  0
 48 47  1  0  0  0  0
 49 61  1  0  0  0  0
 49 48  1  0  0  0  0
 50 49  1  0  0  0  0
 50 62  1  1  0  0  0
 51 63  1  0  0  0  0
 51 50  1  0  0  0  0
 52 50  1  0  0  0  0
 52 56  1  0  0  0  0
 53 52  2  0  0  0  0
 54 48  2  0  0  0  0
 54 55  1  0  0  0  0
 55 45  2  0  0  0  0
 57 44  1  0  0  0  0
 60 49  1  0  0  0  0
 64 54  1  0  0  0  0
 65 55  1  0  0  0  0
M  END
$$$$
