RKA.pdb
 OpenBabel07022418063D

 56 55  0  0  1  0  0  0  0  0999 V2000
   -2.4560    2.3770    4.7690 N   0  0  0  0  0  0  0  0  0  0  0  0
   -3.4130    1.3260    4.7300 C   0  0  0  0  0  0  0  0  0  0  0  0
   -3.4720    0.5260    5.7390 N   0  0  0  0  0  0  0  0  0  0  0  0
   -4.2740    1.1650    3.6130 N   0  0  0  0  0  0  0  0  0  0  0  0
   -4.9560   -0.0860    3.3450 C   0  0  0  0  0  0  0  0  0  0  0  0
   -3.9840   -1.1750    2.9420 C   0  0  0  0  0  0  0  0  0  0  0  0
   -3.2200   -0.7960    1.6910 C   0  0  0  0  0  0  0  0  0  0  0  0
   -2.2540   -1.9190    1.3290 C   0  0  2  0  0  0  0  0  0  0  0  0
   -1.3630   -2.0670    2.4600 N   0  0  0  0  0  0  0  0  0  0  0  0
   -1.5270   -1.5870    0.0850 C   0  0  0  0  0  0  0  0  0  0  0  0
   -2.1960   -1.4820   -0.9740 O   0  0  0  0  0  0  0  0  0  0  0  0
   -2.7000    3.3820    4.8780 H   0  0  0  0  0  0  0  0  0  0  0  0
   -1.4280    2.1370    4.6830 H   0  0  0  0  0  0  0  0  0  0  0  0
   -2.8540    0.6250    6.5640 H   0  0  0  0  0  0  0  0  0  0  0  0
   -4.4330    1.9540    2.9560 H   0  0  0  0  0  0  0  0  0  0  0  0
   -5.4230   -0.4130    4.2980 H   0  0  0  0  0  0  0  0  0  0  0  0
   -5.7730    0.0280    2.6170 H   0  0  0  0  0  0  0  0  0  0  0  0
   -3.2650   -1.3610    3.7630 H   0  0  0  0  0  0  0  0  0  0  0  0
   -4.5620   -2.0980    2.7790 H   0  0  0  0  0  0  0  0  0  0  0  0
   -2.6530    0.1330    1.8070 H   0  0  0  0  0  0  0  0  0  0  0  0
   -3.8900   -0.6680    0.8200 H   0  0  0  0  0  0  0  0  0  0  0  0
   -2.8390   -2.8510    1.2360 H   0  0  0  0  0  0  0  0  0  0  0  0
   -1.2210   -1.1170    2.8700 H   0  0  0  0  0  0  0  0  0  0  0  0
   -1.7780   -2.6580    3.2140 H   0  0  0  0  0  0  0  0  0  0  0  0
   -0.1300   -1.3820    0.0240 N   0  0  0  0  0  0  0  0  0  0  0  0
    0.5260   -1.0530   -1.2510 C   0  0  1  0  0  0  0  0  0  0  0  0
    1.1480    0.3190   -1.1470 C   0  0  0  0  0  0  0  0  0  0  0  0
    1.8250    0.7440   -2.3940 C   0  0  0  0  0  0  0  0  0  0  0  0
    2.3880    2.1580   -2.2240 C   0  0  0  0  0  0  0  0  0  0  0  0
    3.0730    2.5620   -3.5240 C   0  0  0  0  0  0  0  0  0  0  0  0
    2.0190    2.5070   -4.5490 N   0  0  0  0  0  0  0  0  0  0  0  0
    1.5620   -2.0550   -1.5650 C   0  0  0  0  0  0  0  0  0  0  0  0
    2.1680   -2.0080   -2.6530 O   0  0  0  0  0  0  0  0  0  0  0  0
    0.3990   -1.4740    0.9160 H   0  0  0  0  0  0  0  0  0  0  0  0
   -0.2750   -1.0450   -2.0200 H   0  0  0  0  0  0  0  0  0  0  0  0
    0.3010    1.0090   -0.8590 H   0  0  0  0  0  0  0  0  0  0  0  0
    1.8420    0.3590   -0.2550 H   0  0  0  0  0  0  0  0  0  0  0  0
    2.7520    0.1200   -2.5520 H   0  0  0  0  0  0  0  0  0  0  0  0
    1.1960    0.6410   -3.2780 H   0  0  0  0  0  0  0  0  0  0  0  0
    3.1890    2.0830   -1.4590 H   0  0  0  0  0  0  0  0  0  0  0  0
    1.6290    2.8880   -1.9470 H   0  0  0  0  0  0  0  0  0  0  0  0
    3.8680    1.8670   -3.8020 H   0  0  0  0  0  0  0  0  0  0  0  0
    3.3820    3.6250   -3.4620 H   0  0  0  0  0  0  0  0  0  0  0  0
    1.1730    3.0270   -4.1850 H   0  0  0  0  0  0  0  0  0  0  0  0
    2.3160    3.0710   -5.3970 H   0  0  0  0  0  0  0  0  0  0  0  0
    4.0340   -3.9140    0.0810 C   0  0  0  0  0  0  0  0  0  0  0  0
    2.9180   -4.1010   -0.9260 C   0  0  2  0  0  0  0  0  0  0  0  0
    1.9040   -3.0960   -0.6560 N   0  0  0  0  0  0  0  0  0  0  0  0
    2.3480   -5.4690   -0.9110 C   0  0  0  0  0  0  0  0  0  0  0  0
    3.1160   -6.4410   -1.1270 O   0  0  0  0  0  0  0  0  0  0  0  0
    1.0100   -5.7540   -0.6720 O   0  0  0  0  0  0  0  0  0  0  0  0
    4.0660   -2.8320    0.4080 H   0  0  0  0  0  0  0  0  0  0  0  0
    3.9180   -4.5090    0.9880 H   0  0  0  0  0  0  0  0  0  0  0  0
    5.0370   -4.0950   -0.3740 H   0  0  0  0  0  0  0  0  0  0  0  0
    3.3830   -3.9590   -1.9210 H   0  0  0  0  0  0  0  0  0  0  0  0
    1.3860   -3.1190    0.2460 H   0  0  0  0  0  0  0  0  0  0  0  0
  1 12  1  0  0  0  0
  2  1  1  0  0  0  0
  2  3  2  0  0  0  0
  3 14  1  0  0  0  0
  4  2  1  0  0  0  0
  5  4  1  0  0  0  0
  5 16  1  0  0  0  0
  6  5  1  0  0  0  0
  6 18  1  0  0  0  0
  7 20  1  0  0  0  0
  7  6  1  0  0  0  0
  8 22  1  6  0  0  0
  8  7  1  0  0  0  0
  8  9  1  0  0  0  0
  9 23  1  0  0  0  0
  9 24  1  0  0  0  0
 10  8  1  0  0  0  0
 11 10  2  0  0  0  0
 13  1  1  0  0  0  0
 15  4  1  0  0  0  0
 17  5  1  0  0  0  0
 19  6  1  0  0  0  0
 21  7  1  0  0  0  0
 25 10  1  0  0  0  0
 25 34  1  0  0  0  0
 26 35  1  6  0  0  0
 26 27  1  0  0  0  0
 26 25  1  0  0  0  0
 27 36  1  0  0  0  0
 27 37  1  0  0  0  0
 28 29  1  0  0  0  0
 28 27  1  0  0  0  0
 29 41  1  0  0  0  0
 29 40  1  0  0  0  0
 30 43  1  0  0  0  0
 30 29  1  0  0  0  0
 31 44  1  0  0  0  0
 31 30  1  0  0  0  0
 32 26  1  0  0  0  0
 32 48  1  0  0  0  0
 33 32  2  0  0  0  0
 38 28  1  0  0  0  0
 39 28  1  0  0  0  0
 42 30  1  0  0  0  0
 45 31  1  0  0  0  0
 46 52  1  0  0  0  0
 46 53  1  0  0  0  0
 47 55  1  6  0  0  0
 47 49  1  0  0  0  0
 47 48  1  0  0  0  0
 47 46  1  0  0  0  0
 48 56  1  0  0  0  0
 49 51  1  0  0  0  0
 50 49  2  0  0  0  0
 54 46  1  0  0  0  0
M  END
$$$$
