RKC.pdb
 OpenBabel07022418063D

 57 56  0  0  1  0  0  0  0  0999 V2000
    7.6160   -1.2100    4.5950 N   0  0  0  0  0  0  0  0  0  0  0  0
    6.6170   -1.9060    3.8630 C   0  0  0  0  0  0  0  0  0  0  0  0
    6.4540   -3.1670    4.0490 N   0  0  0  0  0  0  0  0  0  0  0  0
    5.7900   -1.2370    2.9280 N   0  0  0  0  0  0  0  0  0  0  0  0
    4.4910   -1.7540    2.5480 C   0  0  0  0  0  0  0  0  0  0  0  0
    3.8240   -0.8470    1.5370 C   0  0  0  0  0  0  0  0  0  0  0  0
    2.4660   -1.3750    1.1320 C   0  0  0  0  0  0  0  0  0  0  0  0
    1.8900   -0.4070    0.1300 C   0  0  2  0  0  0  0  0  0  0  0  0
    1.7800    0.8760    0.7610 N   0  0  0  0  0  0  0  0  0  0  0  0
    0.6030   -0.8540   -0.4350 C   0  0  0  0  0  0  0  0  0  0  0  0
    0.4970   -1.9570   -1.0300 O   0  0  0  0  0  0  0  0  0  0  0  0
    8.6040   -1.5810    4.6290 H   0  0  0  0  0  0  0  0  0  0  0  0
    7.4270   -0.3400    5.1070 H   0  0  0  0  0  0  0  0  0  0  0  0
    7.0530   -3.6720    4.7330 H   0  0  0  0  0  0  0  0  0  0  0  0
    6.1320   -0.3470    2.5010 H   0  0  0  0  0  0  0  0  0  0  0  0
    4.6620   -2.7470    2.0760 H   0  0  0  0  0  0  0  0  0  0  0  0
    3.8220   -1.8910    3.4210 H   0  0  0  0  0  0  0  0  0  0  0  0
    3.7510    0.1560    2.0180 H   0  0  0  0  0  0  0  0  0  0  0  0
    4.4870   -0.7140    0.6590 H   0  0  0  0  0  0  0  0  0  0  0  0
    2.5870   -2.3830    0.7310 H   0  0  0  0  0  0  0  0  0  0  0  0
    1.8290   -1.4260    2.0350 H   0  0  0  0  0  0  0  0  0  0  0  0
    2.6140   -0.3190   -0.7050 H   0  0  0  0  0  0  0  0  0  0  0  0
    1.4010    1.6180    0.1630 H   0  0  0  0  0  0  0  0  0  0  0  0
    1.4400    0.8650    1.7280 H   0  0  0  0  0  0  0  0  0  0  0  0
   -0.6050   -0.0650   -0.3430 N   0  0  0  0  0  0  0  0  0  0  0  0
   -1.8490   -0.4950   -0.8870 C   0  0  1  0  0  0  0  0  0  0  0  0
   -3.0290   -0.4300    0.0070 C   0  0  0  0  0  0  0  0  0  0  0  0
   -3.0010   -1.2160    1.2560 C   0  0  0  0  0  0  0  0  0  0  0  0
   -1.9400   -0.9030    2.2470 C   0  0  0  0  0  0  0  0  0  0  0  0
   -2.1650   -1.8610    3.4310 C   0  0  0  0  0  0  0  0  0  0  0  0
   -1.1750   -1.6350    4.4610 N   0  0  0  0  0  0  0  0  0  0  0  0
   -2.1290    0.3040   -2.1370 C   0  0  0  0  0  0  0  0  0  0  0  0
   -1.3510    1.1810   -2.5620 O   0  0  0  0  0  0  0  0  0  0  0  0
   -0.4940    0.8500    0.1570 H   0  0  0  0  0  0  0  0  0  0  0  0
   -1.7230   -1.5670   -1.2260 H   0  0  0  0  0  0  0  0  0  0  0  0
   -3.1410    0.6680    0.2840 H   0  0  0  0  0  0  0  0  0  0  0  0
   -3.9900   -0.6490   -0.5120 H   0  0  0  0  0  0  0  0  0  0  0  0
   -3.9850   -1.0390    1.7810 H   0  0  0  0  0  0  0  0  0  0  0  0
   -2.9190   -2.3010    1.0060 H   0  0  0  0  0  0  0  0  0  0  0  0
   -2.0170    0.1170    2.6780 H   0  0  0  0  0  0  0  0  0  0  0  0
   -0.9110   -1.0610    1.9500 H   0  0  0  0  0  0  0  0  0  0  0  0
   -2.0250   -2.9140    3.0790 H   0  0  0  0  0  0  0  0  0  0  0  0
   -3.1640   -1.7290    3.8710 H   0  0  0  0  0  0  0  0  0  0  0  0
   -0.2210   -1.6080    4.0380 H   0  0  0  0  0  0  0  0  0  0  0  0
   -1.2240   -2.4370    5.1210 H   0  0  0  0  0  0  0  0  0  0  0  0
   -3.3100    0.0870   -2.8970 N   0  0  0  0  0  0  0  0  0  0  0  0
   -3.6260    0.8090   -4.0810 C   0  0  1  0  0  0  0  0  0  0  0  0
   -3.8440   -0.0500   -5.2950 C   0  0  0  0  0  0  0  0  0  0  0  0
   -5.2270   -1.2040   -5.0070 S   0  0  0  0  0  0  0  0  0  0  0  0
   -4.8730    1.5770   -3.8460 C   0  0  0  0  0  0  0  0  0  0  0  0
   -5.3930    2.3110   -4.7250 O   0  0  0  0  0  0  0  0  0  0  0  0
   -5.5190    1.5080   -2.6240 O   0  0  0  0  0  0  0  0  0  0  0  0
   -3.9850   -0.6400   -2.5700 H   0  0  0  0  0  0  0  0  0  0  0  0
   -2.8450    1.5630   -4.3480 H   0  0  0  0  0  0  0  0  0  0  0  0
   -2.9420   -0.5630   -5.6430 H   0  0  0  0  0  0  0  0  0  0  0  0
   -4.1760    0.6250   -6.1140 H   0  0  0  0  0  0  0  0  0  0  0  0
   -4.7810   -2.3610   -4.3310 H   0  0  0  0  0  0  0  0  0  0  0  0
  1 12  1  0  0  0  0
  1 13  1  0  0  0  0
  2  3  2  0  0  0  0
  2  1  1  0  0  0  0
  3 14  1  0  0  0  0
  4  2  1  0  0  0  0
  5  4  1  0  0  0  0
  5 17  1  0  0  0  0
  6 18  1  0  0  0  0
  6  5  1  0  0  0  0
  7  6  1  0  0  0  0
  7 21  1  0  0  0  0
  8 22  1  6  0  0  0
  8  9  1  0  0  0  0
  8  7  1  0  0  0  0
  9 24  1  0  0  0  0
 10 25  1  0  0  0  0
 10  8  1  0  0  0  0
 11 10  2  0  0  0  0
 15  4  1  0  0  0  0
 16  5  1  0  0  0  0
 19  6  1  0  0  0  0
 20  7  1  0  0  0  0
 23  9  1  0  0  0  0
 25 34  1  0  0  0  0
 26 35  1  6  0  0  0
 26 25  1  0  0  0  0
 26 27  1  0  0  0  0
 27 36  1  0  0  0  0
 27 28  1  0  0  0  0
 28 38  1  0  0  0  0
 28 29  1  0  0  0  0
 29 40  1  0  0  0  0
 29 30  1  0  0  0  0
 30 43  1  0  0  0  0
 30 31  1  0  0  0  0
 31 45  1  0  0  0  0
 32 26  1  0  0  0  0
 33 32  2  0  0  0  0
 37 27  1  0  0  0  0
 39 28  1  0  0  0  0
 41 29  1  0  0  0  0
 42 30  1  0  0  0  0
 44 31  1  0  0  0  0
 46 53  1  0  0  0  0
 46 32  1  0  0  0  0
 47 54  1  6  0  0  0
 47 50  1  0  0  0  0
 47 46  1  0  0  0  0
 48 49  1  0  0  0  0
 48 47  1  0  0  0  0
 49 57  1  0  0  0  0
 50 52  1  0  0  0  0
 51 50  2  0  0  0  0
 55 48  1  0  0  0  0
 56 48  1  0  0  0  0
M  END
$$$$
