RKD.pdb
 OpenBabel07022418063D

 59 58  0  0  1  0  0  0  0  0999 V2000
    4.4790   -1.7800    4.7960 N   0  0  0  0  0  0  0  0  0  0  0  0
    4.5360   -0.4300    4.2960 C   0  0  0  0  0  0  0  0  0  0  0  0
    5.2470    0.4810    4.8810 N   0  0  0  0  0  0  0  0  0  0  0  0
    3.8070   -0.0580    3.1410 N   0  0  0  0  0  0  0  0  0  0  0  0
    3.2480    1.2610    3.0070 C   0  0  0  0  0  0  0  0  0  0  0  0
    2.5140    1.3930    1.6600 C   0  0  0  0  0  0  0  0  0  0  0  0
    1.9310    2.7730    1.5260 C   0  0  0  0  0  0  0  0  0  0  0  0
    1.2140    3.0210    0.2280 C   0  0  2  0  0  0  0  0  0  0  0  0
    0.6890    4.4110    0.2340 N   0  0  0  0  0  0  0  0  0  0  0  0
    0.1200    2.0690    0.0460 C   0  0  0  0  0  0  0  0  0  0  0  0
   -1.0800    2.4770    0.2520 O   0  0  0  0  0  0  0  0  0  0  0  0
    4.6840   -1.9590    5.8060 H   0  0  0  0  0  0  0  0  0  0  0  0
    4.2340   -2.5410    4.1340 H   0  0  0  0  0  0  0  0  0  0  0  0
    5.7880    0.1950    5.7430 H   0  0  0  0  0  0  0  0  0  0  0  0
    3.6840   -0.7700    2.3840 H   0  0  0  0  0  0  0  0  0  0  0  0
    4.0210    2.0630    3.1040 H   0  0  0  0  0  0  0  0  0  0  0  0
    2.4750    1.4860    3.7750 H   0  0  0  0  0  0  0  0  0  0  0  0
    1.6900    0.6190    1.7140 H   0  0  0  0  0  0  0  0  0  0  0  0
    3.1950    1.1010    0.8430 H   0  0  0  0  0  0  0  0  0  0  0  0
    2.7020    3.5590    1.7070 H   0  0  0  0  0  0  0  0  0  0  0  0
    1.2200    2.8990    2.3970 H   0  0  0  0  0  0  0  0  0  0  0  0
    1.9710    3.0120   -0.5840 H   0  0  0  0  0  0  0  0  0  0  0  0
    1.5560    5.0090    0.1660 H   0  0  0  0  0  0  0  0  0  0  0  0
    0.2020    4.5160   -0.6870 H   0  0  0  0  0  0  0  0  0  0  0  0
    0.2200    0.7190   -0.3450 N   0  0  0  0  0  0  0  0  0  0  0  0
   -0.9720   -0.1450   -0.5020 C   0  0  1  0  0  0  0  0  0  0  0  0
   -1.1820   -0.3850   -1.9730 C   0  0  0  0  0  0  0  0  0  0  0  0
   -2.3420   -1.2540   -2.3130 C   0  0  0  0  0  0  0  0  0  0  0  0
   -2.5110   -1.4020   -3.8230 C   0  0  0  0  0  0  0  0  0  0  0  0
   -1.3270   -2.0150   -4.4950 C   0  0  0  0  0  0  0  0  0  0  0  0
   -1.6490   -2.0920   -5.9260 N   0  0  0  0  0  0  0  0  0  0  0  0
   -0.8100   -1.3040    0.3430 C   0  0  0  0  0  0  0  0  0  0  0  0
    0.3070   -1.5360    0.8740 O   0  0  0  0  0  0  0  0  0  0  0  0
    1.1360    0.2940   -0.5430 H   0  0  0  0  0  0  0  0  0  0  0  0
   -1.8730    0.4320   -0.1600 H   0  0  0  0  0  0  0  0  0  0  0  0
   -1.3820    0.6280   -2.4210 H   0  0  0  0  0  0  0  0  0  0  0  0
   -0.2730   -0.7530   -2.4820 H   0  0  0  0  0  0  0  0  0  0  0  0
   -2.1020   -2.2710   -1.9120 H   0  0  0  0  0  0  0  0  0  0  0  0
   -3.2770   -0.8280   -1.9210 H   0  0  0  0  0  0  0  0  0  0  0  0
   -3.3810   -2.0790   -3.9570 H   0  0  0  0  0  0  0  0  0  0  0  0
   -2.7950   -0.4230   -4.2500 H   0  0  0  0  0  0  0  0  0  0  0  0
   -1.1580   -3.0660   -4.1740 H   0  0  0  0  0  0  0  0  0  0  0  0
   -0.3780   -1.4890   -4.3450 H   0  0  0  0  0  0  0  0  0  0  0  0
   -2.6590   -2.2930   -6.0720 H   0  0  0  0  0  0  0  0  0  0  0  0
   -1.1230   -2.9000   -6.3650 H   0  0  0  0  0  0  0  0  0  0  0  0
   -1.8230   -2.2660    0.6680 N   0  0  0  0  0  0  0  0  0  0  0  0
   -1.5440   -3.3980    1.5290 C   0  0  1  0  0  0  0  0  0  0  0  0
   -2.3230   -3.3850    2.8120 C   0  0  0  0  0  0  0  0  0  0  0  0
   -3.7780   -3.4190    2.5670 C   0  0  0  0  0  0  0  0  0  0  0  0
   -4.2220   -3.4860    1.4050 O   0  0  0  0  0  0  0  0  0  0  0  0
   -1.7560   -4.6450    0.7570 C   0  0  0  0  0  0  0  0  0  0  0  0
   -1.5750   -5.7940    1.2770 O   0  0  0  0  0  0  0  0  0  0  0  0
   -4.6810   -3.3770    3.6120 O   0  0  0  0  0  0  0  0  0  0  0  0
   -2.1600   -4.6520   -0.5680 O   0  0  0  0  0  0  0  0  0  0  0  0
   -2.7550   -2.1220    0.2830 H   0  0  0  0  0  0  0  0  0  0  0  0
   -0.4570   -3.4010    1.8400 H   0  0  0  0  0  0  0  0  0  0  0  0
   -2.0610   -4.2480    3.4690 H   0  0  0  0  0  0  0  0  0  0  0  0
   -2.0540   -2.4820    3.4330 H   0  0  0  0  0  0  0  0  0  0  0  0
   -5.5620   -3.9140    3.5880 H   0  0  0  0  0  0  0  0  0  0  0  0
  1 12  1  0  0  0  0
  2  1  1  0  0  0  0
  2  3  2  0  0  0  0
  3 14  1  0  0  0  0
  4  2  1  0  0  0  0
  5 16  1  0  0  0  0
  5  4  1  0  0  0  0
  5 17  1  0  0  0  0
  6 18  1  0  0  0  0
  6  5  1  0  0  0  0
  7  6  1  0  0  0  0
  7 20  1  0  0  0  0
  7 21  1  0  0  0  0
  8 22  1  6  0  0  0
  8  9  1  0  0  0  0
  8  7  1  0  0  0  0
 10  8  1  0  0  0  0
 10 11  2  0  0  0  0
 13  1  1  0  0  0  0
 15  4  1  0  0  0  0
 19  6  1  0  0  0  0
 23  9  1  0  0  0  0
 24  9  1  0  0  0  0
 25 10  1  0  0  0  0
 26 25  1  0  0  0  0
 26 35  1  1  0  0  0
 26 32  1  0  0  0  0
 27 26  1  0  0  0  0
 28 27  1  0  0  0  0
 28 39  1  0  0  0  0
 28 38  1  0  0  0  0
 29 28  1  0  0  0  0
 30 43  1  0  0  0  0
 30 42  1  0  0  0  0
 30 29  1  0  0  0  0
 31 30  1  0  0  0  0
 32 46  1  0  0  0  0
 32 33  2  0  0  0  0
 34 25  1  0  0  0  0
 36 27  1  0  0  0  0
 37 27  1  0  0  0  0
 40 29  1  0  0  0  0
 41 29  1  0  0  0  0
 44 31  1  0  0  0  0
 45 31  1  0  0  0  0
 46 47  1  0  0  0  0
 47 56  1  1  0  0  0
 47 48  1  0  0  0  0
 48 58  1  0  0  0  0
 48 57  1  0  0  0  0
 49 48  1  0  0  0  0
 49 53  1  0  0  0  0
 50 49  2  0  0  0  0
 51 52  1  0  0  0  0
 51 47  1  0  0  0  0
 54 51  2  0  0  0  0
 55 46  1  0  0  0  0
 59 53  1  0  0  0  0
M  END
$$$$
