RKF.pdb
 OpenBabel07022418063D

 66 66  0  0  1  0  0  0  0  0999 V2000
    5.3930   -1.3640    2.3370 N   0  0  0  0  0  0  0  0  0  0  0  0
    5.0880   -0.2510    3.1660 C   0  0  0  0  0  0  0  0  0  0  0  0
    5.2540   -0.3340    4.4600 N   0  0  0  0  0  0  0  0  0  0  0  0
    4.6060    0.9390    2.5650 N   0  0  0  0  0  0  0  0  0  0  0  0
    3.7310    1.8030    3.2880 C   0  0  0  0  0  0  0  0  0  0  0  0
    3.3070    3.0150    2.5420 C   0  0  0  0  0  0  0  0  0  0  0  0
    2.5990    2.8150    1.2530 C   0  0  0  0  0  0  0  0  0  0  0  0
    1.3310    2.0430    1.4360 C   0  0  2  0  0  0  0  0  0  0  0  0
    1.6110    0.7510    1.9670 N   0  0  0  0  0  0  0  0  0  0  0  0
    0.5130    1.9870    0.1930 C   0  0  0  0  0  0  0  0  0  0  0  0
    0.1900    3.0530   -0.3780 O   0  0  0  0  0  0  0  0  0  0  0  0
    6.3650   -1.6260    2.1230 H   0  0  0  0  0  0  0  0  0  0  0  0
    4.5970   -1.9080    1.9510 H   0  0  0  0  0  0  0  0  0  0  0  0
    5.6100   -1.2300    4.8380 H   0  0  0  0  0  0  0  0  0  0  0  0
    4.8960    1.1720    1.6010 H   0  0  0  0  0  0  0  0  0  0  0  0
    2.8820    1.2910    3.7810 H   0  0  0  0  0  0  0  0  0  0  0  0
    4.3560    2.1420    4.1930 H   0  0  0  0  0  0  0  0  0  0  0  0
    4.2310    3.6340    2.3410 H   0  0  0  0  0  0  0  0  0  0  0  0
    2.7160    3.6860    3.2350 H   0  0  0  0  0  0  0  0  0  0  0  0
    3.2310    2.3160    0.4830 H   0  0  0  0  0  0  0  0  0  0  0  0
    2.3340    3.8050    0.7660 H   0  0  0  0  0  0  0  0  0  0  0  0
    0.7480    2.5890    2.2380 H   0  0  0  0  0  0  0  0  0  0  0  0
    2.1410    0.1830    1.2660 H   0  0  0  0  0  0  0  0  0  0  0  0
    0.7480    0.2700    2.3010 H   0  0  0  0  0  0  0  0  0  0  0  0
    0.0680    0.7980   -0.4000 N   0  0  0  0  0  0  0  0  0  0  0  0
   -0.7170    0.6530   -1.5870 C   0  0  1  0  0  0  0  0  0  0  0  0
   -0.1670    0.0030   -2.7590 C   0  0  0  0  0  0  0  0  0  0  0  0
    0.2980   -1.3920   -2.7200 C   0  0  0  0  0  0  0  0  0  0  0  0
   -0.6660   -2.4540   -2.3850 C   0  0  0  0  0  0  0  0  0  0  0  0
    0.0830   -3.7960   -2.4320 C   0  0  0  0  0  0  0  0  0  0  0  0
   -0.7550   -4.9120   -2.1350 N   0  0  0  0  0  0  0  0  0  0  0  0
   -2.1080    0.2460   -1.2600 C   0  0  0  0  0  0  0  0  0  0  0  0
   -2.9650   -0.0470   -2.1230 O   0  0  0  0  0  0  0  0  0  0  0  0
    0.3420   -0.1090    0.0840 H   0  0  0  0  0  0  0  0  0  0  0  0
   -0.8740    1.7540   -1.9090 H   0  0  0  0  0  0  0  0  0  0  0  0
   -1.0020    0.0210   -3.5380 H   0  0  0  0  0  0  0  0  0  0  0  0
    0.5800    0.6960   -3.2600 H   0  0  0  0  0  0  0  0  0  0  0  0
    1.1490   -1.4330   -1.9720 H   0  0  0  0  0  0  0  0  0  0  0  0
    0.8110   -1.6990   -3.6800 H   0  0  0  0  0  0  0  0  0  0  0  0
   -1.4850   -2.5540   -3.1260 H   0  0  0  0  0  0  0  0  0  0  0  0
   -1.1200   -2.4050   -1.3910 H   0  0  0  0  0  0  0  0  0  0  0  0
    0.5020   -3.9450   -3.4700 H   0  0  0  0  0  0  0  0  0  0  0  0
    0.9530   -3.7930   -1.7540 H   0  0  0  0  0  0  0  0  0  0  0  0
   -1.7660   -4.7690   -2.3920 H   0  0  0  0  0  0  0  0  0  0  0  0
   -0.4300   -5.7520   -2.6670 H   0  0  0  0  0  0  0  0  0  0  0  0
   -2.4940    0.1870    0.1040 N   0  0  0  0  0  0  0  0  0  0  0  0
   -3.8370   -0.1970    0.4310 C   0  0  1  0  0  0  0  0  0  0  0  0
   -3.8810   -1.1600    1.5840 C   0  0  0  0  0  0  0  0  0  0  0  0
   -3.1670   -2.4140    1.3630 C   0  0  0  0  0  0  0  0  0  0  0  0
   -3.8530   -3.4870    0.8120 C   0  0  0  0  0  0  0  0  0  0  0  0
   -3.2690   -4.7150    0.5810 C   0  0  0  0  0  0  0  0  0  0  0  0
   -1.9370   -4.8750    0.9170 C   0  0  0  0  0  0  0  0  0  0  0  0
   -1.2100   -3.8380    1.4680 C   0  0  0  0  0  0  0  0  0  0  0  0
   -1.8370   -2.6230    1.6820 C   0  0  0  0  0  0  0  0  0  0  0  0
   -4.6600    1.0120    0.7940 C   0  0  0  0  0  0  0  0  0  0  0  0
   -4.2280    2.1720    0.8030 O   0  0  0  0  0  0  0  0  0  0  0  0
   -5.9760    0.7710    1.1330 O   0  0  0  0  0  0  0  0  0  0  0  0
   -1.8160    0.4180    0.8790 H   0  0  0  0  0  0  0  0  0  0  0  0
   -4.3830   -0.6400   -0.4240 H   0  0  0  0  0  0  0  0  0  0  0  0
   -4.9150   -1.2990    1.9690 H   0  0  0  0  0  0  0  0  0  0  0  0
   -3.3390   -0.6380    2.4290 H   0  0  0  0  0  0  0  0  0  0  0  0
   -4.9040   -3.3520    0.5500 H   0  0  0  0  0  0  0  0  0  0  0  0
   -3.8440   -5.5370    0.1450 H   0  0  0  0  0  0  0  0  0  0  0  0
   -1.5120   -5.8540    0.7210 H   0  0  0  0  0  0  0  0  0  0  0  0
   -0.1670   -4.0110    1.7160 H   0  0  0  0  0  0  0  0  0  0  0  0
   -1.2880   -1.7900    2.1150 H   0  0  0  0  0  0  0  0  0  0  0  0
  1  2  1  0  0  0  0
  2  3  2  0  0  0  0
  3 14  1  0  0  0  0
  4  2  1  0  0  0  0
  4  5  1  0  0  0  0
  5 16  1  0  0  0  0
  5 17  1  0  0  0  0
  6 19  1  0  0  0  0
  6  5  1  0  0  0  0
  7  8  1  0  0  0  0
  7  6  1  0  0  0  0
  8  9  1  0  0  0  0
  8 22  1  1  0  0  0
  9 24  1  0  0  0  0
 10  8  1  0  0  0  0
 11 10  2  0  0  0  0
 12  1  1  0  0  0  0
 13  1  1  0  0  0  0
 15  4  1  0  0  0  0
 18  6  1  0  0  0  0
 20  7  1  0  0  0  0
 21  7  1  0  0  0  0
 23  9  1  0  0  0  0
 25 34  1  0  0  0  0
 25 10  1  0  0  0  0
 26 35  1  6  0  0  0
 26 32  1  0  0  0  0
 26 25  1  0  0  0  0
 27 28  1  0  0  0  0
 27 26  1  0  0  0  0
 28 29  1  0  0  0  0
 28 38  1  0  0  0  0
 29 41  1  0  0  0  0
 30 29  1  0  0  0  0
 30 31  1  0  0  0  0
 30 43  1  0  0  0  0
 32 46  1  0  0  0  0
 33 32  2  0  0  0  0
 36 27  1  0  0  0  0
 37 27  1  0  0  0  0
 39 28  1  0  0  0  0
 40 29  1  0  0  0  0
 42 30  1  0  0  0  0
 44 31  1  0  0  0  0
 45 31  1  0  0  0  0
 46 47  1  0  0  0  0
 46 58  1  0  0  0  0
 47 59  1  6  0  0  0
 47 55  1  0  0  0  0
 47 48  1  0  0  0  0
 48 60  1  0  0  0  0
 48 61  1  0  0  0  0
 49 48  1  0  0  0  0
 49 54  1  0  0  0  0
 50 49  2  0  0  0  0
 51 50  1  0  0  0  0
 51 52  2  0  0  0  0
 52 53  1  0  0  0  0
 53 54  2  0  0  0  0
 53 65  1  0  0  0  0
 54 66  1  0  0  0  0
 55 56  2  0  0  0  0
 55 57  1  0  0  0  0
 62 50  1  0  0  0  0
 63 51  1  0  0  0  0
 64 52  1  0  0  0  0
M  END
$$$$
