RKG.pdb
 OpenBabel07022418063D

 53 52  0  0  1  0  0  0  0  0999 V2000
    3.6320   -5.0420   -0.5300 N   0  0  0  0  0  0  0  0  0  0  0  0
    3.5490   -4.1850    0.5880 C   0  0  0  0  0  0  0  0  0  0  0  0
    3.4470   -4.6690    1.7820 N   0  0  0  0  0  0  0  0  0  0  0  0
    3.5730   -2.7500    0.4720 N   0  0  0  0  0  0  0  0  0  0  0  0
    3.1420   -1.9460    1.6290 C   0  0  0  0  0  0  0  0  0  0  0  0
    3.2680   -0.5190    1.2280 C   0  0  0  0  0  0  0  0  0  0  0  0
    2.8950    0.4980    2.2350 C   0  0  0  0  0  0  0  0  0  0  0  0
    1.4680    0.4440    2.7280 C   0  0  2  0  0  0  0  0  0  0  0  0
    1.1200   -0.7730    3.3490 N   0  0  0  0  0  0  0  0  0  0  0  0
    0.5480    0.9260    1.6790 C   0  0  0  0  0  0  0  0  0  0  0  0
    0.8600    2.0250    1.1240 O   0  0  0  0  0  0  0  0  0  0  0  0
    2.7540   -5.3190   -1.0480 H   0  0  0  0  0  0  0  0  0  0  0  0
    4.5100   -5.4320   -0.8940 H   0  0  0  0  0  0  0  0  0  0  0  0
    3.4230   -5.6930    1.9610 H   0  0  0  0  0  0  0  0  0  0  0  0
    3.8920   -2.3220   -0.4240 H   0  0  0  0  0  0  0  0  0  0  0  0
    3.8100   -2.2210    2.4520 H   0  0  0  0  0  0  0  0  0  0  0  0
    2.0850   -2.2480    1.7770 H   0  0  0  0  0  0  0  0  0  0  0  0
    4.3600   -0.3420    0.9980 H   0  0  0  0  0  0  0  0  0  0  0  0
    2.7530   -0.3410    0.2620 H   0  0  0  0  0  0  0  0  0  0  0  0
    3.0070    1.5030    1.7430 H   0  0  0  0  0  0  0  0  0  0  0  0
    3.5760    0.5320    3.1060 H   0  0  0  0  0  0  0  0  0  0  0  0
    1.4220    1.2380    3.5390 H   0  0  0  0  0  0  0  0  0  0  0  0
    1.5420   -0.7860    4.3140 H   0  0  0  0  0  0  0  0  0  0  0  0
    0.1610   -1.0950    3.3150 H   0  0  0  0  0  0  0  0  0  0  0  0
   -0.6160    0.2880    1.2530 N   0  0  0  0  0  0  0  0  0  0  0  0
   -1.4340    0.8720    0.2080 C   0  0  1  0  0  0  0  0  0  0  0  0
   -1.3600   -0.0870   -0.9600 C   0  0  0  0  0  0  0  0  0  0  0  0
   -2.1420    0.3290   -2.1590 C   0  0  0  0  0  0  0  0  0  0  0  0
   -1.9860   -0.7160   -3.2290 C   0  0  0  0  0  0  0  0  0  0  0  0
   -0.5700   -0.9330   -3.6820 C   0  0  0  0  0  0  0  0  0  0  0  0
   -0.5440   -1.9600   -4.7440 N   0  0  0  0  0  0  0  0  0  0  0  0
   -2.7960    1.1710    0.6660 C   0  0  0  0  0  0  0  0  0  0  0  0
   -3.6410    1.7020   -0.0950 O   0  0  0  0  0  0  0  0  0  0  0  0
   -0.9060   -0.5950    1.6670 H   0  0  0  0  0  0  0  0  0  0  0  0
   -0.9640    1.8180   -0.1210 H   0  0  0  0  0  0  0  0  0  0  0  0
   -1.7160   -1.0770   -0.6270 H   0  0  0  0  0  0  0  0  0  0  0  0
   -0.2790   -0.1620   -1.2840 H   0  0  0  0  0  0  0  0  0  0  0  0
   -3.2260    0.3450   -1.9090 H   0  0  0  0  0  0  0  0  0  0  0  0
   -1.8080    1.3300   -2.5340 H   0  0  0  0  0  0  0  0  0  0  0  0
   -2.3080   -1.7070   -2.7850 H   0  0  0  0  0  0  0  0  0  0  0  0
   -2.6830   -0.5640   -4.0780 H   0  0  0  0  0  0  0  0  0  0  0  0
    0.0710   -1.3220   -2.8400 H   0  0  0  0  0  0  0  0  0  0  0  0
   -0.1470    0.0170   -4.0080 H   0  0  0  0  0  0  0  0  0  0  0  0
   -0.5060   -2.8840   -4.2870 H   0  0  0  0  0  0  0  0  0  0  0  0
    0.3090   -1.8280   -5.3410 H   0  0  0  0  0  0  0  0  0  0  0  0
   -3.2510    0.8820    1.9940 N   0  0  0  0  0  0  0  0  0  0  0  0
   -4.6260    1.2070    2.3840 C   0  0  0  0  0  0  0  0  0  0  0  0
   -4.8810    0.8280    3.7900 C   0  0  0  0  0  0  0  0  0  0  0  0
   -6.0110    1.0400    4.2720 O   0  0  0  0  0  0  0  0  0  0  0  0
   -3.9360    0.2430    4.6210 O   0  0  0  0  0  0  0  0  0  0  0  0
   -2.5810    0.4420    2.6550 H   0  0  0  0  0  0  0  0  0  0  0  0
   -5.3070    0.5930    1.7530 H   0  0  0  0  0  0  0  0  0  0  0  0
   -4.8680    2.2550    2.1930 H   0  0  0  0  0  0  0  0  0  0  0  0
  1  2  1  0  0  0  0
  2  3  2  0  0  0  0
  3 14  1  0  0  0  0
  4  2  1  0  0  0  0
  4  5  1  0  0  0  0
  5 17  1  0  0  0  0
  5 16  1  0  0  0  0
  6  5  1  0  0  0  0
  6  7  1  0  0  0  0
  7  8  1  0  0  0  0
  7 21  1  0  0  0  0
  8  9  1  0  0  0  0
  8 22  1  1  0  0  0
  9 23  1  0  0  0  0
 10  8  1  0  0  0  0
 11 10  2  0  0  0  0
 12  1  1  0  0  0  0
 13  1  1  0  0  0  0
 15  4  1  0  0  0  0
 18  6  1  0  0  0  0
 19  6  1  0  0  0  0
 20  7  1  0  0  0  0
 24  9  1  0  0  0  0
 25 34  1  0  0  0  0
 25 10  1  0  0  0  0
 26 35  1  6  0  0  0
 26 32  1  0  0  0  0
 26 25  1  0  0  0  0
 27 36  1  0  0  0  0
 27 26  1  0  0  0  0
 28 38  1  0  0  0  0
 28 27  1  0  0  0  0
 29 40  1  0  0  0  0
 29 28  1  0  0  0  0
 30 29  1  0  0  0  0
 30 42  1  0  0  0  0
 31 44  1  0  0  0  0
 31 30  1  0  0  0  0
 32 46  1  0  0  0  0
 33 32  2  0  0  0  0
 37 27  1  0  0  0  0
 39 28  1  0  0  0  0
 41 29  1  0  0  0  0
 43 30  1  0  0  0  0
 45 31  1  0  0  0  0
 46 47  1  0  0  0  0
 46 51  1  0  0  0  0
 47 48  1  0  0  0  0
 48 49  2  0  0  0  0
 48 50  1  0  0  0  0
 52 47  1  0  0  0  0
 53 47  1  0  0  0  0
M  END
$$$$
