RKI.pdb
 OpenBabel07022418063D

 65 64  0  0  1  0  0  0  0  0999 V2000
    3.0540   -1.8240    6.4490 N   0  0  0  0  0  0  0  0  0  0  0  0
    2.7930   -0.5680    5.8380 C   0  0  0  0  0  0  0  0  0  0  0  0
    2.8490    0.5100    6.5250 N   0  0  0  0  0  0  0  0  0  0  0  0
    2.4630   -0.4980    4.4450 N   0  0  0  0  0  0  0  0  0  0  0  0
    2.6380    0.7260    3.6920 C   0  0  0  0  0  0  0  0  0  0  0  0
    2.2040    0.4910    2.2470 C   0  0  0  0  0  0  0  0  0  0  0  0
    2.3690    1.7450    1.4250 C   0  0  0  0  0  0  0  0  0  0  0  0
    1.9560    1.5810    0.0090 C   0  0  2  0  0  0  0  0  0  0  0  0
    2.1340    2.7820   -0.8060 N   0  0  0  0  0  0  0  0  0  0  0  0
    0.5380    1.0920   -0.1510 C   0  0  0  0  0  0  0  0  0  0  0  0
    0.2750    0.4490   -1.1820 O   0  0  0  0  0  0  0  0  0  0  0  0
    3.5160   -1.8510    7.3860 H   0  0  0  0  0  0  0  0  0  0  0  0
    2.8000   -2.7160    5.9930 H   0  0  0  0  0  0  0  0  0  0  0  0
    3.0850    0.4880    7.5360 H   0  0  0  0  0  0  0  0  0  0  0  0
    2.0910   -1.3450    3.9610 H   0  0  0  0  0  0  0  0  0  0  0  0
    3.7090    0.9810    3.7390 H   0  0  0  0  0  0  0  0  0  0  0  0
    2.0830    1.5770    4.1270 H   0  0  0  0  0  0  0  0  0  0  0  0
    1.1800    0.0880    2.2080 H   0  0  0  0  0  0  0  0  0  0  0  0
    2.9370   -0.2860    1.8720 H   0  0  0  0  0  0  0  0  0  0  0  0
    3.4350    2.0460    1.4370 H   0  0  0  0  0  0  0  0  0  0  0  0
    1.8200    2.5470    1.9620 H   0  0  0  0  0  0  0  0  0  0  0  0
    2.5960    0.7980   -0.4450 H   0  0  0  0  0  0  0  0  0  0  0  0
    3.1790    2.9460   -0.8190 H   0  0  0  0  0  0  0  0  0  0  0  0
    1.8900    2.4970   -1.7870 H   0  0  0  0  0  0  0  0  0  0  0  0
   -0.4520    1.3390    0.8040 N   0  0  0  0  0  0  0  0  0  0  0  0
   -1.7990    0.8930    0.7120 C   0  0  1  0  0  0  0  0  0  0  0  0
   -2.7460    1.7740   -0.0190 C   0  0  0  0  0  0  0  0  0  0  0  0
   -2.5190    2.0710   -1.4380 C   0  0  0  0  0  0  0  0  0  0  0  0
   -2.6670    1.0090   -2.4520 C   0  0  0  0  0  0  0  0  0  0  0  0
   -4.0900    0.4940   -2.5880 C   0  0  0  0  0  0  0  0  0  0  0  0
   -4.0700   -0.5480   -3.5950 N   0  0  0  0  0  0  0  0  0  0  0  0
   -2.0150   -0.5350    0.4720 C   0  0  0  0  0  0  0  0  0  0  0  0
   -3.1830   -0.9540    0.2360 O   0  0  0  0  0  0  0  0  0  0  0  0
   -0.1580    1.9230    1.6540 H   0  0  0  0  0  0  0  0  0  0  0  0
   -2.1700    1.0460    1.8370 H   0  0  0  0  0  0  0  0  0  0  0  0
   -2.8250    2.7830    0.5120 H   0  0  0  0  0  0  0  0  0  0  0  0
   -3.7760    1.3430    0.1850 H   0  0  0  0  0  0  0  0  0  0  0  0
   -3.1840    2.9310   -1.7920 H   0  0  0  0  0  0  0  0  0  0  0  0
   -1.4870    2.4950   -1.5450 H   0  0  0  0  0  0  0  0  0  0  0  0
   -2.4570    1.4940   -3.4540 H   0  0  0  0  0  0  0  0  0  0  0  0
   -2.0070    0.1500   -2.4110 H   0  0  0  0  0  0  0  0  0  0  0  0
   -4.5610    0.1310   -1.6980 H   0  0  0  0  0  0  0  0  0  0  0  0
   -4.7200    1.3300   -3.0400 H   0  0  0  0  0  0  0  0  0  0  0  0
   -4.6220   -0.3150   -4.4470 H   0  0  0  0  0  0  0  0  0  0  0  0
   -4.4770   -1.4240   -3.2010 H   0  0  0  0  0  0  0  0  0  0  0  0
    1.6280   -4.2940   -1.8190 C   0  0  0  0  0  0  0  0  0  0  0  0
    0.9170   -3.4780   -0.7600 C   0  0  0  0  0  0  0  0  0  0  0  0
   -0.5880   -3.5370   -0.9350 C   0  0  2  0  0  0  0  0  0  0  0  0
   -1.0290   -3.0020   -2.2720 C   0  0  0  0  0  0  0  0  0  0  0  0
   -1.3230   -2.9420    0.2230 C   0  0  2  0  0  0  0  0  0  0  0  0
   -1.0350   -1.5630    0.4760 N   0  0  0  0  0  0  0  0  0  0  0  0
   -1.0200   -3.7290    1.4470 C   0  0  0  0  0  0  0  0  0  0  0  0
   -0.5830   -3.2100    2.5030 O   0  0  0  0  0  0  0  0  0  0  0  0
   -1.2230   -5.0990    1.4400 O   0  0  0  0  0  0  0  0  0  0  0  0
    2.6290   -4.6270   -1.4700 H   0  0  0  0  0  0  0  0  0  0  0  0
    1.7380   -3.7420   -2.7700 H   0  0  0  0  0  0  0  0  0  0  0  0
    1.0370   -5.2410   -1.9880 H   0  0  0  0  0  0  0  0  0  0  0  0
    1.1270   -4.0020    0.2150 H   0  0  0  0  0  0  0  0  0  0  0  0
    1.3190   -2.4610   -0.7850 H   0  0  0  0  0  0  0  0  0  0  0  0
   -0.8430   -4.6340   -0.9410 H   0  0  0  0  0  0  0  0  0  0  0  0
   -1.1950   -3.8020   -3.0250 H   0  0  0  0  0  0  0  0  0  0  0  0
   -0.2580   -2.3280   -2.7290 H   0  0  0  0  0  0  0  0  0  0  0  0
   -2.0200   -2.4670   -2.1960 H   0  0  0  0  0  0  0  0  0  0  0  0
   -2.4190   -3.1140    0.0220 H   0  0  0  0  0  0  0  0  0  0  0  0
   -0.0620   -1.2970    0.6990 H   0  0  0  0  0  0  0  0  0  0  0  0
  1 12  1  0  0  0  0
  2  1  1  0  0  0  0
  2  3  2  0  0  0  0
  3 14  1  0  0  0  0
  4  2  1  0  0  0  0
  5 16  1  0  0  0  0
  5 17  1  0  0  0  0
  5  4  1  0  0  0  0
  6  5  1  0  0  0  0
  7 20  1  0  0  0  0
  7 21  1  0  0  0  0
  7  6  1  0  0  0  0
  8 22  1  6  0  0  0
  8  7  1  0  0  0  0
  9  8  1  0  0  0  0
 10  8  1  0  0  0  0
 10 25  1  0  0  0  0
 11 10  2  0  0  0  0
 13  1  1  0  0  0  0
 15  4  1  0  0  0  0
 18  6  1  0  0  0  0
 19  6  1  0  0  0  0
 23  9  1  0  0  0  0
 24  9  1  0  0  0  0
 25 34  1  0  0  0  0
 26 25  1  0  0  0  0
 26 35  1  1  0  0  0
 27 37  1  0  0  0  0
 27 36  1  0  0  0  0
 27 26  1  0  0  0  0
 28 27  1  0  0  0  0
 29 41  1  0  0  0  0
 29 28  1  0  0  0  0
 30 29  1  0  0  0  0
 30 42  1  0  0  0  0
 31 45  1  0  0  0  0
 31 30  1  0  0  0  0
 32 51  1  0  0  0  0
 32 26  1  0  0  0  0
 33 32  2  0  0  0  0
 38 28  1  0  0  0  0
 39 28  1  0  0  0  0
 40 29  1  0  0  0  0
 43 30  1  0  0  0  0
 44 31  1  0  0  0  0
 46 55  1  0  0  0  0
 46 47  1  0  0  0  0
 47 58  1  0  0  0  0
 48 60  1  6  0  0  0
 48 47  1  0  0  0  0
 48 50  1  0  0  0  0
 49 63  1  0  0  0  0
 49 48  1  0  0  0  0
 50 64  1  6  0  0  0
 50 51  1  0  0  0  0
 50 52  1  0  0  0  0
 51 65  1  0  0  0  0
 52 53  1  0  0  0  0
 54 52  2  0  0  0  0
 56 46  1  0  0  0  0
 57 46  1  0  0  0  0
 59 47  1  0  0  0  0
 61 49  1  0  0  0  0
 62 49  1  0  0  0  0
M  END
$$$$
