RKM.pdb
 OpenBabel07022418063D

 63 62  0  0  1  0  0  0  0  0999 V2000
    3.4990   -4.6500    2.5340 N   0  0  0  0  0  0  0  0  0  0  0  0
    4.1390   -3.7940    1.6180 C   0  0  0  0  0  0  0  0  0  0  0  0
    5.2760   -3.2760    1.9160 N   0  0  0  0  0  0  0  0  0  0  0  0
    3.5190   -3.4970    0.3560 N   0  0  0  0  0  0  0  0  0  0  0  0
    4.2960   -3.0700   -0.7460 C   0  0  0  0  0  0  0  0  0  0  0  0
    3.5470   -2.6180   -1.9460 C   0  0  0  0  0  0  0  0  0  0  0  0
    2.7360   -1.3930   -1.8230 C   0  0  0  0  0  0  0  0  0  0  0  0
    1.6300   -1.3380   -0.8470 C   0  0  2  0  0  0  0  0  0  0  0  0
    0.5780   -2.2840   -1.0000 N   0  0  0  0  0  0  0  0  0  0  0  0
    1.0880    0.0530   -0.8000 C   0  0  0  0  0  0  0  0  0  0  0  0
    1.8720    1.0280   -0.8770 O   0  0  0  0  0  0  0  0  0  0  0  0
    3.5030   -4.4660    3.5680 H   0  0  0  0  0  0  0  0  0  0  0  0
    3.0030   -5.4980    2.1850 H   0  0  0  0  0  0  0  0  0  0  0  0
    5.7210   -3.4900    2.8310 H   0  0  0  0  0  0  0  0  0  0  0  0
    2.4970   -3.6600    0.3420 H   0  0  0  0  0  0  0  0  0  0  0  0
    5.0140   -2.2280   -0.4490 H   0  0  0  0  0  0  0  0  0  0  0  0
    5.0200   -3.8960   -1.0160 H   0  0  0  0  0  0  0  0  0  0  0  0
    2.9770   -3.4760   -2.4080 H   0  0  0  0  0  0  0  0  0  0  0  0
    4.3380   -2.4060   -2.7480 H   0  0  0  0  0  0  0  0  0  0  0  0
    2.4130   -1.0020   -2.8490 H   0  0  0  0  0  0  0  0  0  0  0  0
    3.4640   -0.5680   -1.5040 H   0  0  0  0  0  0  0  0  0  0  0  0
    2.0950   -1.4600    0.1760 H   0  0  0  0  0  0  0  0  0  0  0  0
    0.9220   -3.2120   -1.3540 H   0  0  0  0  0  0  0  0  0  0  0  0
   -0.2540   -1.9680   -1.5370 H   0  0  0  0  0  0  0  0  0  0  0  0
   -0.2970    0.3590   -0.6670 N   0  0  0  0  0  0  0  0  0  0  0  0
   -0.7950    1.6910   -0.6260 C   0  0  1  0  0  0  0  0  0  0  0  0
   -1.9440    1.9210   -1.5380 C   0  0  0  0  0  0  0  0  0  0  0  0
   -1.7700    1.7170   -2.9820 C   0  0  0  0  0  0  0  0  0  0  0  0
   -1.4710    0.3380   -3.4360 C   0  0  0  0  0  0  0  0  0  0  0  0
   -2.6100   -0.6240   -3.0770 C   0  0  0  0  0  0  0  0  0  0  0  0
   -2.2670   -1.9480   -3.5260 N   0  0  0  0  0  0  0  0  0  0  0  0
   -1.1920    2.0900    0.7650 C   0  0  0  0  0  0  0  0  0  0  0  0
   -1.6380    3.2310    1.0150 O   0  0  0  0  0  0  0  0  0  0  0  0
   -0.9650   -0.4130   -0.5810 H   0  0  0  0  0  0  0  0  0  0  0  0
    0.0260    2.4260   -0.9180 H   0  0  0  0  0  0  0  0  0  0  0  0
   -2.3740    2.9690   -1.3840 H   0  0  0  0  0  0  0  0  0  0  0  0
   -2.8050    1.2610   -1.1850 H   0  0  0  0  0  0  0  0  0  0  0  0
   -2.7040    2.0420   -3.5420 H   0  0  0  0  0  0  0  0  0  0  0  0
   -1.0090    2.4600   -3.3410 H   0  0  0  0  0  0  0  0  0  0  0  0
   -1.4570    0.3100   -4.5750 H   0  0  0  0  0  0  0  0  0  0  0  0
   -0.5560   -0.1210   -3.0420 H   0  0  0  0  0  0  0  0  0  0  0  0
   -3.5520   -0.2750   -3.6030 H   0  0  0  0  0  0  0  0  0  0  0  0
   -2.8010   -0.6570   -1.9930 H   0  0  0  0  0  0  0  0  0  0  0  0
   -2.9610   -2.3220   -4.2050 H   0  0  0  0  0  0  0  0  0  0  0  0
   -1.3100   -1.9590   -3.9160 H   0  0  0  0  0  0  0  0  0  0  0  0
   -4.5500   -1.6610    4.9060 C   0  0  0  0  0  0  0  0  0  0  0  0
   -4.8770    0.1100    4.9050 S   0  0  0  0  0  0  0  0  0  0  0  0
   -3.3400    1.0950    4.8000 C   0  0  0  0  0  0  0  0  0  0  0  0
   -2.7510    0.8270    3.4580 C   0  0  0  0  0  0  0  0  0  0  0  0
   -1.4620    1.5910    3.1820 C   0  0  2  0  0  0  0  0  0  0  0  0
   -1.0740    1.1840    1.8380 N   0  0  0  0  0  0  0  0  0  0  0  0
   -0.4050    1.3570    4.1610 C   0  0  0  0  0  0  0  0  0  0  0  0
   -0.5610    1.6670    5.3550 O   0  0  0  0  0  0  0  0  0  0  0  0
    0.7870    0.7850    3.7630 O   0  0  0  0  0  0  0  0  0  0  0  0
   -5.0390   -2.0720    5.8280 H   0  0  0  0  0  0  0  0  0  0  0  0
   -5.0450   -2.1850    4.0660 H   0  0  0  0  0  0  0  0  0  0  0  0
   -3.4760   -1.8660    4.8650 H   0  0  0  0  0  0  0  0  0  0  0  0
   -3.6240    2.1580    4.8660 H   0  0  0  0  0  0  0  0  0  0  0  0
   -2.6690    0.7750    5.6260 H   0  0  0  0  0  0  0  0  0  0  0  0
   -3.4830    1.2230    2.6940 H   0  0  0  0  0  0  0  0  0  0  0  0
   -2.6300   -0.2550    3.2410 H   0  0  0  0  0  0  0  0  0  0  0  0
   -1.7720    2.6690    3.1300 H   0  0  0  0  0  0  0  0  0  0  0  0
   -0.7120    0.2030    1.7290 H   0  0  0  0  0  0  0  0  0  0  0  0
  1 12  1  0  0  0  0
  2  3  2  0  0  0  0
  2  1  1  0  0  0  0
  3 14  1  0  0  0  0
  4  2  1  0  0  0  0
  5 16  1  0  0  0  0
  5  4  1  0  0  0  0
  6  7  1  0  0  0  0
  6  5  1  0  0  0  0
  7 21  1  0  0  0  0
  7  8  1  0  0  0  0
  8 10  1  0  0  0  0
  8 22  1  1  0  0  0
  9  8  1  0  0  0  0
 10 25  1  0  0  0  0
 11 10  2  0  0  0  0
 13  1  1  0  0  0  0
 15  4  1  0  0  0  0
 17  5  1  0  0  0  0
 18  6  1  0  0  0  0
 19  6  1  0  0  0  0
 20  7  1  0  0  0  0
 23  9  1  0  0  0  0
 24  9  1  0  0  0  0
 25 26  1  0  0  0  0
 25 34  1  0  0  0  0
 26 35  1  6  0  0  0
 26 32  1  0  0  0  0
 27 36  1  0  0  0  0
 27 37  1  0  0  0  0
 27 26  1  0  0  0  0
 28 27  1  0  0  0  0
 29 30  1  0  0  0  0
 29 41  1  0  0  0  0
 29 28  1  0  0  0  0
 30 43  1  0  0  0  0
 31 30  1  0  0  0  0
 32 33  2  0  0  0  0
 32 51  1  0  0  0  0
 38 28  1  0  0  0  0
 39 28  1  0  0  0  0
 40 29  1  0  0  0  0
 42 30  1  0  0  0  0
 44 31  1  0  0  0  0
 45 31  1  0  0  0  0
 46 55  1  0  0  0  0
 47 46  1  0  0  0  0
 48 58  1  0  0  0  0
 48 47  1  0  0  0  0
 48 59  1  0  0  0  0
 49 48  1  0  0  0  0
 50 62  1  6  0  0  0
 50 49  1  0  0  0  0
 50 52  1  0  0  0  0
 51 50  1  0  0  0  0
 52 53  1  0  0  0  0
 54 52  2  0  0  0  0
 56 46  1  0  0  0  0
 57 46  1  0  0  0  0
 60 49  1  0  0  0  0
 61 49  1  0  0  0  0
 63 51  1  0  0  0  0
M  END
$$$$
