RKN.pdb
 OpenBabel07022418063D

 60 59  0  0  1  0  0  0  0  0999 V2000
    3.2140    3.1220    6.8310 N   0  0  0  0  0  0  0  0  0  0  0  0
    3.9810    3.4000    5.6750 C   0  0  0  0  0  0  0  0  0  0  0  0
    4.7310    4.4720    5.6660 N   0  0  0  0  0  0  0  0  0  0  0  0
    3.9330    2.5310    4.5590 N   0  0  0  0  0  0  0  0  0  0  0  0
    4.2800    3.0690    3.2630 C   0  0  0  0  0  0  0  0  0  0  0  0
    4.1710    1.9950    2.1820 C   0  0  0  0  0  0  0  0  0  0  0  0
    2.7600    1.4550    2.1030 C   0  0  0  0  0  0  0  0  0  0  0  0
    2.6840    0.4110    1.0560 C   0  0  2  0  0  0  0  0  0  0  0  0
    3.0490    0.9730   -0.2300 N   0  0  0  0  0  0  0  0  0  0  0  0
    1.3970   -0.2670    0.9180 C   0  0  0  0  0  0  0  0  0  0  0  0
    0.9690   -0.8550    1.9730 O   0  0  0  0  0  0  0  0  0  0  0  0
    3.1290    2.1580    7.1920 H   0  0  0  0  0  0  0  0  0  0  0  0
    2.7340    3.9030    7.3170 H   0  0  0  0  0  0  0  0  0  0  0  0
    4.7640    5.1020    6.4800 H   0  0  0  0  0  0  0  0  0  0  0  0
    3.6530    1.5390    4.7010 H   0  0  0  0  0  0  0  0  0  0  0  0
    5.3480    3.3540    3.3000 H   0  0  0  0  0  0  0  0  0  0  0  0
    3.6920    3.9540    2.9970 H   0  0  0  0  0  0  0  0  0  0  0  0
    4.9130    1.2140    2.4460 H   0  0  0  0  0  0  0  0  0  0  0  0
    4.5090    2.4760    1.2360 H   0  0  0  0  0  0  0  0  0  0  0  0
    2.1210    2.3370    1.8070 H   0  0  0  0  0  0  0  0  0  0  0  0
    2.4490    1.1730    3.0990 H   0  0  0  0  0  0  0  0  0  0  0  0
    3.4520   -0.3940    1.2540 H   0  0  0  0  0  0  0  0  0  0  0  0
    4.0970    1.1730   -0.2350 H   0  0  0  0  0  0  0  0  0  0  0  0
    2.8860    0.2520   -0.9920 H   0  0  0  0  0  0  0  0  0  0  0  0
    0.6040   -0.3390   -0.2150 N   0  0  0  0  0  0  0  0  0  0  0  0
   -0.7130   -1.0580   -0.2780 C   0  0  1  0  0  0  0  0  0  0  0  0
   -1.6700    0.0720   -0.3720 C   0  0  0  0  0  0  0  0  0  0  0  0
   -3.1160   -0.0980   -0.4800 C   0  0  0  0  0  0  0  0  0  0  0  0
   -3.7000   -0.7010   -1.7060 C   0  0  0  0  0  0  0  0  0  0  0  0
   -5.2220   -0.7260   -1.4880 C   0  0  0  0  0  0  0  0  0  0  0  0
   -5.8760   -1.3040   -2.6450 N   0  0  0  0  0  0  0  0  0  0  0  0
   -0.6500   -2.1090   -1.2370 C   0  0  0  0  0  0  0  0  0  0  0  0
    0.2540   -2.0630   -2.1450 O   0  0  0  0  0  0  0  0  0  0  0  0
    0.8820    0.1070   -1.0860 H   0  0  0  0  0  0  0  0  0  0  0  0
   -0.8010   -1.4570    0.7890 H   0  0  0  0  0  0  0  0  0  0  0  0
   -1.2880    0.8240   -1.1730 H   0  0  0  0  0  0  0  0  0  0  0  0
   -1.4380    0.7120    0.5680 H   0  0  0  0  0  0  0  0  0  0  0  0
   -3.6000    0.9360   -0.3930 H   0  0  0  0  0  0  0  0  0  0  0  0
   -3.5530   -0.6250    0.4370 H   0  0  0  0  0  0  0  0  0  0  0  0
   -3.4010   -1.6900   -2.0010 H   0  0  0  0  0  0  0  0  0  0  0  0
   -3.4890   -0.0460   -2.6160 H   0  0  0  0  0  0  0  0  0  0  0  0
   -5.4650   -1.3760   -0.6250 H   0  0  0  0  0  0  0  0  0  0  0  0
   -5.5390    0.3110   -1.3730 H   0  0  0  0  0  0  0  0  0  0  0  0
   -6.3340   -2.2110   -2.4530 H   0  0  0  0  0  0  0  0  0  0  0  0
   -5.1910   -1.4640   -3.4340 H   0  0  0  0  0  0  0  0  0  0  0  0
   -2.4500   -5.6420    0.0120 N   0  0  0  0  0  0  0  0  0  0  0  0
   -1.2230   -6.0230   -0.5560 C   0  0  0  0  0  0  0  0  0  0  0  0
   -0.6330   -7.0360    0.0020 O   0  0  0  0  0  0  0  0  0  0  0  0
   -0.5550   -5.4010   -1.6980 C   0  0  0  0  0  0  0  0  0  0  0  0
   -1.3200   -4.2560   -2.2940 C   0  0  2  0  0  0  0  0  0  0  0  0
   -1.5020   -3.2370   -1.2780 N   0  0  0  0  0  0  0  0  0  0  0  0
   -2.5590   -4.7080   -2.8840 C   0  0  0  0  0  0  0  0  0  0  0  0
   -3.6920   -4.2740   -2.5780 O   0  0  0  0  0  0  0  0  0  0  0  0
   -2.5730   -5.7080   -3.8830 O   0  0  0  0  0  0  0  0  0  0  0  0
   -3.3720   -5.8440   -0.4170 H   0  0  0  0  0  0  0  0  0  0  0  0
   -2.4440   -5.1340    0.9230 H   0  0  0  0  0  0  0  0  0  0  0  0
   -0.4240   -6.1760   -2.4890 H   0  0  0  0  0  0  0  0  0  0  0  0
    0.4550   -4.9760   -1.4110 H   0  0  0  0  0  0  0  0  0  0  0  0
   -0.6760   -3.8310   -3.1340 H   0  0  0  0  0  0  0  0  0  0  0  0
   -2.2740   -3.3390   -0.5780 H   0  0  0  0  0  0  0  0  0  0  0  0
  1 12  1  0  0  0  0
  1 13  1  0  0  0  0
  2  1  1  0  0  0  0
  3  2  2  0  0  0  0
  3 14  1  0  0  0  0
  4 15  1  0  0  0  0
  4  2  1  0  0  0  0
  5 16  1  0  0  0  0
  5  4  1  0  0  0  0
  6 18  1  0  0  0  0
  6  5  1  0  0  0  0
  7  6  1  0  0  0  0
  7 21  1  0  0  0  0
  8 22  1  1  0  0  0
  8  7  1  0  0  0  0
  9  8  1  0  0  0  0
 10  8  1  0  0  0  0
 10 11  2  0  0  0  0
 17  5  1  0  0  0  0
 19  6  1  0  0  0  0
 20  7  1  0  0  0  0
 23  9  1  0  0  0  0
 24  9  1  0  0  0  0
 25 10  1  0  0  0  0
 26 25  1  0  0  0  0
 26 35  1  1  0  0  0
 27 26  1  0  0  0  0
 27 37  1  0  0  0  0
 28 38  1  0  0  0  0
 28 27  1  0  0  0  0
 28 39  1  0  0  0  0
 29 30  1  0  0  0  0
 29 28  1  0  0  0  0
 30 43  1  0  0  0  0
 30 42  1  0  0  0  0
 31 44  1  0  0  0  0
 31 30  1  0  0  0  0
 32 26  1  0  0  0  0
 33 32  2  0  0  0  0
 34 25  1  0  0  0  0
 36 27  1  0  0  0  0
 40 29  1  0  0  0  0
 41 29  1  0  0  0  0
 45 31  1  0  0  0  0
 46 56  1  0  0  0  0
 47 48  2  0  0  0  0
 47 46  1  0  0  0  0
 49 58  1  0  0  0  0
 49 47  1  0  0  0  0
 50 59  1  6  0  0  0
 50 49  1  0  0  0  0
 50 51  1  0  0  0  0
 51 32  1  0  0  0  0
 51 60  1  0  0  0  0
 52 53  1  0  0  0  0
 52 50  1  0  0  0  0
 54 52  2  0  0  0  0
 55 46  1  0  0  0  0
 57 49  1  0  0  0  0
M  END
$$$$
