RKW.pdb
 OpenBabel07022418063D

 70 71  0  0  1  0  0  0  0  0999 V2000
    1.8970   -4.5740    3.9790 N   0  0  0  0  0  0  0  0  0  0  0  0
    1.7770   -3.2180    3.5770 C   0  0  0  0  0  0  0  0  0  0  0  0
    0.6610   -2.6000    3.7720 N   0  0  0  0  0  0  0  0  0  0  0  0
    2.8980   -2.6000    2.9730 N   0  0  0  0  0  0  0  0  0  0  0  0
    2.7650   -1.3760    2.2450 C   0  0  0  0  0  0  0  0  0  0  0  0
    1.9860   -1.5190    0.9490 C   0  0  0  0  0  0  0  0  0  0  0  0
    2.6220   -2.4780    0.0080 C   0  0  0  0  0  0  0  0  0  0  0  0
    1.8720   -2.6790   -1.2960 C   0  0  2  0  0  0  0  0  0  0  0  0
    2.6490   -3.6460   -2.1150 N   0  0  0  0  0  0  0  0  0  0  0  0
    1.6870   -1.4440   -2.0750 C   0  0  0  0  0  0  0  0  0  0  0  0
    2.4030   -1.1950   -3.0820 O   0  0  0  0  0  0  0  0  0  0  0  0
    1.5430   -5.3130    3.3440 H   0  0  0  0  0  0  0  0  0  0  0  0
    2.3240   -4.8550    4.8840 H   0  0  0  0  0  0  0  0  0  0  0  0
    0.4680   -1.6250    3.5210 H   0  0  0  0  0  0  0  0  0  0  0  0
    3.8250   -3.0510    3.0660 H   0  0  0  0  0  0  0  0  0  0  0  0
    3.7320   -0.8780    2.0470 H   0  0  0  0  0  0  0  0  0  0  0  0
    2.1570   -0.6780    2.8860 H   0  0  0  0  0  0  0  0  0  0  0  0
    2.0570   -0.4870    0.4840 H   0  0  0  0  0  0  0  0  0  0  0  0
    0.9440   -1.8050    1.1730 H   0  0  0  0  0  0  0  0  0  0  0  0
    3.6580   -2.2410   -0.2520 H   0  0  0  0  0  0  0  0  0  0  0  0
    2.6580   -3.5020    0.4800 H   0  0  0  0  0  0  0  0  0  0  0  0
    0.9310   -3.2060   -1.0490 H   0  0  0  0  0  0  0  0  0  0  0  0
    2.4880   -4.6200   -1.7350 H   0  0  0  0  0  0  0  0  0  0  0  0
    2.1660   -3.6610   -3.0620 H   0  0  0  0  0  0  0  0  0  0  0  0
    0.6690   -0.5010   -1.6890 N   0  0  0  0  0  0  0  0  0  0  0  0
    0.4330    0.7050   -2.3870 C   0  0  1  0  0  0  0  0  0  0  0  0
   -0.4650    0.7110   -3.5630 C   0  0  0  0  0  0  0  0  0  0  0  0
   -1.8810    0.2970   -3.4300 C   0  0  0  0  0  0  0  0  0  0  0  0
   -2.0170   -1.1270   -3.0420 C   0  0  0  0  0  0  0  0  0  0  0  0
   -3.4810   -1.5590   -2.9400 C   0  0  0  0  0  0  0  0  0  0  0  0
   -3.4430   -2.9790   -2.5570 N   0  0  0  0  0  0  0  0  0  0  0  0
    0.0730    1.8140   -1.5060 C   0  0  0  0  0  0  0  0  0  0  0  0
   -0.1520    2.9660   -2.0330 O   0  0  0  0  0  0  0  0  0  0  0  0
    0.1300   -0.7520   -0.8400 H   0  0  0  0  0  0  0  0  0  0  0  0
    1.4670    0.9870   -2.8640 H   0  0  0  0  0  0  0  0  0  0  0  0
   -0.0100    0.1880   -4.4540 H   0  0  0  0  0  0  0  0  0  0  0  0
   -0.4960    1.7930   -3.9260 H   0  0  0  0  0  0  0  0  0  0  0  0
   -2.4390    0.9870   -2.7370 H   0  0  0  0  0  0  0  0  0  0  0  0
   -2.4060    0.4890   -4.4240 H   0  0  0  0  0  0  0  0  0  0  0  0
   -1.5920   -1.3200   -2.0710 H   0  0  0  0  0  0  0  0  0  0  0  0
   -1.5710   -1.7470   -3.8620 H   0  0  0  0  0  0  0  0  0  0  0  0
   -4.0410   -1.3900   -3.8620 H   0  0  0  0  0  0  0  0  0  0  0  0
   -3.8840   -1.0240   -2.0500 H   0  0  0  0  0  0  0  0  0  0  0  0
   -2.5410   -3.1770   -2.0560 H   0  0  0  0  0  0  0  0  0  0  0  0
   -3.3570   -3.5430   -3.4590 H   0  0  0  0  0  0  0  0  0  0  0  0
   -0.0610    1.7670   -0.0910 N   0  0  0  0  0  0  0  0  0  0  0  0
   -0.4150    2.8950    0.7090 C   0  0  1  0  0  0  0  0  0  0  0  0
   -1.7170    2.8410    1.4160 C   0  0  0  0  0  0  0  0  0  0  0  0
   -1.9210    1.7690    2.3740 C   0  0  0  0  0  0  0  0  0  0  0  0
   -1.8170    1.8630    3.7450 C   0  0  0  0  0  0  0  0  0  0  0  0
   -2.0680    0.6580    4.2790 N   0  0  0  0  0  0  0  0  0  0  0  0
   -2.3360   -0.2300    3.2930 C   0  0  0  0  0  0  0  0  0  0  0  0
   -2.6540   -1.5660    3.3170 C   0  0  0  0  0  0  0  0  0  0  0  0
   -2.8910   -2.2560    2.1380 C   0  0  0  0  0  0  0  0  0  0  0  0
   -2.7980   -1.5610    0.9650 C   0  0  0  0  0  0  0  0  0  0  0  0
   -2.4790   -0.2130    0.9350 C   0  0  0  0  0  0  0  0  0  0  0  0
   -2.2440    0.4680    2.0910 C   0  0  0  0  0  0  0  0  0  0  0  0
    0.7110    3.3000    1.6150 C   0  0  0  0  0  0  0  0  0  0  0  0
    0.4930    4.2910    2.3610 O   0  0  0  0  0  0  0  0  0  0  0  0
    1.8930    2.6050    1.6020 O   0  0  0  0  0  0  0  0  0  0  0  0
    0.1140    0.8580    0.3840 H   0  0  0  0  0  0  0  0  0  0  0  0
   -0.4980    3.7690   -0.0090 H   0  0  0  0  0  0  0  0  0  0  0  0
   -2.5160    2.8360    0.6310 H   0  0  0  0  0  0  0  0  0  0  0  0
   -1.8170    3.8230    1.9620 H   0  0  0  0  0  0  0  0  0  0  0  0
   -1.5790    2.7210    4.3600 H   0  0  0  0  0  0  0  0  0  0  0  0
   -2.0740    0.3740    5.2890 H   0  0  0  0  0  0  0  0  0  0  0  0
   -2.7320   -2.1370    4.2520 H   0  0  0  0  0  0  0  0  0  0  0  0
   -3.1390   -3.3010    2.1740 H   0  0  0  0  0  0  0  0  0  0  0  0
   -2.9830   -2.1020    0.0510 H   0  0  0  0  0  0  0  0  0  0  0  0
   -2.4230    0.2700   -0.0210 H   0  0  0  0  0  0  0  0  0  0  0  0
  1 13  1  0  0  0  0
  2  3  2  0  0  0  0
  2  1  1  0  0  0  0
  4 15  1  0  0  0  0
  4  2  1  0  0  0  0
  5 17  1  0  0  0  0
  5  4  1  0  0  0  0
  6 19  1  0  0  0  0
  6  5  1  0  0  0  0
  7 21  1  0  0  0  0
  7  6  1  0  0  0  0
  8 22  1  1  0  0  0
  8  7  1  0  0  0  0
  9 23  1  0  0  0  0
  9  8  1  0  0  0  0
 10 25  1  0  0  0  0
 10  8  1  0  0  0  0
 11 10  2  0  0  0  0
 12  1  1  0  0  0  0
 14  3  1  0  0  0  0
 16  5  1  0  0  0  0
 18  6  1  0  0  0  0
 20  7  1  0  0  0  0
 24  9  1  0  0  0  0
 25 34  1  0  0  0  0
 26 35  1  6  0  0  0
 26 25  1  0  0  0  0
 26 32  1  0  0  0  0
 27 28  1  0  0  0  0
 27 26  1  0  0  0  0
 28 29  1  0  0  0  0
 28 38  1  0  0  0  0
 29 30  1  0  0  0  0
 29 40  1  0  0  0  0
 30 31  1  0  0  0  0
 30 43  1  0  0  0  0
 31 44  1  0  0  0  0
 32 46  1  0  0  0  0
 33 32  2  0  0  0  0
 36 27  1  0  0  0  0
 37 27  1  0  0  0  0
 39 28  1  0  0  0  0
 41 29  1  0  0  0  0
 42 30  1  0  0  0  0
 45 31  1  0  0  0  0
 46 61  1  0  0  0  0
 46 47  1  0  0  0  0
 47 62  1  6  0  0  0
 47 48  1  0  0  0  0
 47 58  1  0  0  0  0
 48 64  1  0  0  0  0
 48 49  1  0  0  0  0
 49 50  2  0  0  0  0
 50 51  1  0  0  0  0
 50 65  1  0  0  0  0
 51 66  1  0  0  0  0
 52 53  1  0  0  0  0
 52 51  1  0  0  0  0
 53 67  1  0  0  0  0
 54 68  1  0  0  0  0
 54 53  2  0  0  0  0
 55 54  1  0  0  0  0
 56 55  2  0  0  0  0
 56 57  1  0  0  0  0
 57 49  1  0  0  0  0
 57 52  2  0  0  0  0
 58 59  1  0  0  0  0
 60 58  2  0  0  0  0
 63 48  1  0  0  0  0
 69 55  1  0  0  0  0
 70 56  1  0  0  0  0
M  END
$$$$
