RLA.pdb
 OpenBabel07022418053D

 54 53  0  0  1  0  0  0  0  0999 V2000
    0.2460   -6.1550    1.0140 N   0  0  0  0  0  0  0  0  0  0  0  0
    1.2560   -5.1760    1.2780 C   0  0  0  0  0  0  0  0  0  0  0  0
    1.9020   -5.2350    2.3980 N   0  0  0  0  0  0  0  0  0  0  0  0
    1.5820   -4.1420    0.3660 N   0  0  0  0  0  0  0  0  0  0  0  0
    2.1780   -2.9050    0.8370 C   0  0  0  0  0  0  0  0  0  0  0  0
    2.4040   -2.0210   -0.3380 C   0  0  0  0  0  0  0  0  0  0  0  0
    3.0170   -0.6990   -0.0880 C   0  0  0  0  0  0  0  0  0  0  0  0
    2.3230    0.2490    0.8000 C   0  0  2  0  0  0  0  0  0  0  0  0
    2.1760   -0.3330    2.1240 N   0  0  0  0  0  0  0  0  0  0  0  0
    1.0820    0.8210    0.2880 C   0  0  0  0  0  0  0  0  0  0  0  0
    1.0610    1.3570   -0.8420 O   0  0  0  0  0  0  0  0  0  0  0  0
   -0.7420   -6.0450    1.3210 H   0  0  0  0  0  0  0  0  0  0  0  0
    0.5160   -7.0070    0.4970 H   0  0  0  0  0  0  0  0  0  0  0  0
    1.7170   -5.9640    3.1130 H   0  0  0  0  0  0  0  0  0  0  0  0
    1.3810   -4.2980   -0.6410 H   0  0  0  0  0  0  0  0  0  0  0  0
    3.1300   -3.0860    1.3720 H   0  0  0  0  0  0  0  0  0  0  0  0
    1.4700   -2.5100    1.5900 H   0  0  0  0  0  0  0  0  0  0  0  0
    1.4850   -1.9490   -0.9860 H   0  0  0  0  0  0  0  0  0  0  0  0
    3.1300   -2.5790   -1.0060 H   0  0  0  0  0  0  0  0  0  0  0  0
    4.0740   -0.8820    0.2690 H   0  0  0  0  0  0  0  0  0  0  0  0
    3.1830   -0.2340   -1.1070 H   0  0  0  0  0  0  0  0  0  0  0  0
    3.0240    1.1240    0.9650 H   0  0  0  0  0  0  0  0  0  0  0  0
    2.9980   -0.8600    2.4260 H   0  0  0  0  0  0  0  0  0  0  0  0
    1.8500    0.3870    2.8050 H   0  0  0  0  0  0  0  0  0  0  0  0
    0.6160    3.6680    1.3520 C   0  0  0  0  0  0  0  0  0  0  0  0
   -0.7760    3.7520    0.8570 C   0  0  0  0  0  0  0  0  0  0  0  0
   -1.6500    4.1150    2.0610 C   0  0  0  0  0  0  0  0  0  0  0  0
   -1.3370    2.6530    0.0590 C   0  0  0  0  0  0  0  0  0  0  0  0
   -1.3880    1.2920    0.7120 C   0  0  2  0  0  0  0  0  0  0  0  0
   -0.1020    0.7830    1.0440 N   0  0  0  0  0  0  0  0  0  0  0  0
   -2.2840    0.3550    0.0090 C   0  0  0  0  0  0  0  0  0  0  0  0
   -3.4270    0.7780   -0.2980 O   0  0  0  0  0  0  0  0  0  0  0  0
    0.7760    2.9310    2.1770 H   0  0  0  0  0  0  0  0  0  0  0  0
    0.8040    4.6600    1.8910 H   0  0  0  0  0  0  0  0  0  0  0  0
    1.3850    3.6610    0.5720 H   0  0  0  0  0  0  0  0  0  0  0  0
   -0.8120    4.6760    0.1940 H   0  0  0  0  0  0  0  0  0  0  0  0
   -1.3250    3.5530    2.9530 H   0  0  0  0  0  0  0  0  0  0  0  0
   -1.4970    5.1860    2.2860 H   0  0  0  0  0  0  0  0  0  0  0  0
   -2.7070    3.9320    1.8040 H   0  0  0  0  0  0  0  0  0  0  0  0
   -2.4170    2.9440   -0.1730 H   0  0  0  0  0  0  0  0  0  0  0  0
   -0.8670    2.5710   -0.9350 H   0  0  0  0  0  0  0  0  0  0  0  0
   -1.9300    1.5460    1.7040 H   0  0  0  0  0  0  0  0  0  0  0  0
   -0.0170    0.3070    1.9840 H   0  0  0  0  0  0  0  0  0  0  0  0
   -2.2010   -2.3170   -2.3550 C   0  0  0  0  0  0  0  0  0  0  0  0
   -2.7810   -1.8960   -1.0120 C   0  0  2  0  0  0  0  0  0  0  0  0
   -1.9230   -0.9590   -0.3250 N   0  0  0  0  0  0  0  0  0  0  0  0
   -3.0480   -3.0710   -0.1380 C   0  0  0  0  0  0  0  0  0  0  0  0
   -2.5350   -3.1160    1.0180 O   0  0  0  0  0  0  0  0  0  0  0  0
   -3.8400   -4.1280   -0.5360 O   0  0  0  0  0  0  0  0  0  0  0  0
   -1.1190   -2.1080   -2.4070 H   0  0  0  0  0  0  0  0  0  0  0  0
   -2.6680   -1.7420   -3.1860 H   0  0  0  0  0  0  0  0  0  0  0  0
   -2.4090   -3.3920   -2.5310 H   0  0  0  0  0  0  0  0  0  0  0  0
   -3.7610   -1.4280   -1.2370 H   0  0  0  0  0  0  0  0  0  0  0  0
   -0.9590   -1.2780   -0.0520 H   0  0  0  0  0  0  0  0  0  0  0  0
  1  2  1  0  0  0  0
  1 12  1  0  0  0  0
  2  3  2  0  0  0  0
  3 14  1  0  0  0  0
  4  5  1  0  0  0  0
  4  2  1  0  0  0  0
  5 16  1  0  0  0  0
  5 17  1  0  0  0  0
  6  7  1  0  0  0  0
  6  5  1  0  0  0  0
  7 20  1  0  0  0  0
  7  8  1  0  0  0  0
  8 22  1  1  0  0  0
  8  9  1  0  0  0  0
  9 23  1  0  0  0  0
  9 24  1  0  0  0  0
 10  8  1  0  0  0  0
 10 30  1  0  0  0  0
 11 10  2  0  0  0  0
 13  1  1  0  0  0  0
 15  4  1  0  0  0  0
 18  6  1  0  0  0  0
 19  6  1  0  0  0  0
 21  7  1  0  0  0  0
 25 34  1  0  0  0  0
 25 33  1  0  0  0  0
 26 25  1  0  0  0  0
 26 27  1  0  0  0  0
 27 38  1  0  0  0  0
 27 37  1  0  0  0  0
 28 29  1  0  0  0  0
 28 26  1  0  0  0  0
 29 30  1  0  0  0  0
 29 42  1  1  0  0  0
 30 43  1  0  0  0  0
 31 29  1  0  0  0  0
 32 31  2  0  0  0  0
 35 25  1  0  0  0  0
 36 26  1  0  0  0  0
 39 27  1  0  0  0  0
 40 28  1  0  0  0  0
 41 28  1  0  0  0  0
 44 45  1  0  0  0  0
 45 53  1  6  0  0  0
 45 46  1  0  0  0  0
 45 47  1  0  0  0  0
 46 54  1  0  0  0  0
 46 31  1  0  0  0  0
 47 48  1  0  0  0  0
 49 47  2  0  0  0  0
 50 44  1  0  0  0  0
 51 44  1  0  0  0  0
 52 44  1  0  0  0  0
M  END
$$$$
