RLD.pdb
 OpenBabel07022418053D

 57 56  0  0  1  0  0  0  0  0999 V2000
   -0.5140   -1.7270    3.5860 N   0  0  0  0  0  0  0  0  0  0  0  0
    0.7960   -1.8770    2.9580 C   0  0  0  0  0  0  0  0  0  0  0  0
    0.8910   -2.2880    1.7780 N   0  0  0  0  0  0  0  0  0  0  0  0
    1.9590   -1.5710    3.6870 N   0  0  0  0  0  0  0  0  0  0  0  0
    2.9280   -0.6200    3.4510 C   0  0  0  0  0  0  0  0  0  0  0  0
    3.9230   -0.5580    2.4020 C   0  0  0  0  0  0  0  0  0  0  0  0
    3.6960   -0.4260    0.9710 C   0  0  0  0  0  0  0  0  0  0  0  0
    2.9020    0.7710    0.5000 C   0  0  2  0  0  0  0  0  0  0  0  0
    3.4730    1.9970    0.9510 N   0  0  0  0  0  0  0  0  0  0  0  0
    1.4540    0.6690    0.5730 C   0  0  0  0  0  0  0  0  0  0  0  0
    0.8080    1.1640    1.5070 O   0  0  0  0  0  0  0  0  0  0  0  0
   -1.1510   -0.9910    3.2720 H   0  0  0  0  0  0  0  0  0  0  0  0
   -0.7610   -2.3750    4.3390 H   0  0  0  0  0  0  0  0  0  0  0  0
    1.7060   -2.4390    1.2280 H   0  0  0  0  0  0  0  0  0  0  0  0
    2.0790   -2.1920    4.6020 H   0  0  0  0  0  0  0  0  0  0  0  0
    3.5690   -0.5610    4.4460 H   0  0  0  0  0  0  0  0  0  0  0  0
    2.5050    0.4640    3.5210 H   0  0  0  0  0  0  0  0  0  0  0  0
    4.5530   -1.5410    2.5100 H   0  0  0  0  0  0  0  0  0  0  0  0
    4.7530    0.2050    2.6730 H   0  0  0  0  0  0  0  0  0  0  0  0
    3.4050   -1.3040    0.3820 H   0  0  0  0  0  0  0  0  0  0  0  0
    4.7520   -0.2060    0.5180 H   0  0  0  0  0  0  0  0  0  0  0  0
    3.1170    0.7650   -0.6490 H   0  0  0  0  0  0  0  0  0  0  0  0
    2.7880    2.6950    1.2880 H   0  0  0  0  0  0  0  0  0  0  0  0
    4.2520    1.8760    1.6210 H   0  0  0  0  0  0  0  0  0  0  0  0
    0.0360    2.7120   -1.3910 C   0  0  0  0  0  0  0  0  0  0  0  0
   -1.3590    2.1900   -1.2400 C   0  0  0  0  0  0  0  0  0  0  0  0
   -1.9390    2.7440    0.0170 C   0  0  0  0  0  0  0  0  0  0  0  0
   -1.4770    0.7040   -1.4020 C   0  0  0  0  0  0  0  0  0  0  0  0
   -0.6990   -0.1450   -0.4440 C   0  0  2  0  0  0  0  0  0  0  0  0
    0.6870    0.0080   -0.4120 N   0  0  0  0  0  0  0  0  0  0  0  0
   -0.9460   -1.5810   -0.8890 C   0  0  0  0  0  0  0  0  0  0  0  0
    0.0080   -2.3330   -1.2020 O   0  0  0  0  0  0  0  0  0  0  0  0
    0.4410    3.1530   -0.4570 H   0  0  0  0  0  0  0  0  0  0  0  0
    0.0100    3.5630   -2.1040 H   0  0  0  0  0  0  0  0  0  0  0  0
    0.7280    1.9770   -1.8750 H   0  0  0  0  0  0  0  0  0  0  0  0
   -1.9570    2.7040   -2.0750 H   0  0  0  0  0  0  0  0  0  0  0  0
   -2.2040    3.8250   -0.1920 H   0  0  0  0  0  0  0  0  0  0  0  0
   -2.9110    2.2920    0.2980 H   0  0  0  0  0  0  0  0  0  0  0  0
   -1.2410    2.8190    0.8710 H   0  0  0  0  0  0  0  0  0  0  0  0
   -2.5620    0.4810   -1.1920 H   0  0  0  0  0  0  0  0  0  0  0  0
   -1.3620    0.4120   -2.4590 H   0  0  0  0  0  0  0  0  0  0  0  0
   -1.1360    0.0210    0.5430 H   0  0  0  0  0  0  0  0  0  0  0  0
    1.2500   -0.4160   -1.2170 H   0  0  0  0  0  0  0  0  0  0  0  0
   -2.2460   -2.1060   -0.9680 N   0  0  0  0  0  0  0  0  0  0  0  0
   -2.5930   -3.4410   -1.4110 C   0  0  1  0  0  0  0  0  0  0  0  0
   -3.1740   -4.2850   -0.2670 C   0  0  0  0  0  0  0  0  0  0  0  0
   -2.2190   -4.4460    0.8300 C   0  0  0  0  0  0  0  0  0  0  0  0
   -2.1020   -3.5470    1.6920 O   0  0  0  0  0  0  0  0  0  0  0  0
   -3.6890   -3.3450   -2.4000 C   0  0  0  0  0  0  0  0  0  0  0  0
   -4.1830   -4.3570   -2.9470 O   0  0  0  0  0  0  0  0  0  0  0  0
   -1.4430   -5.5780    0.9280 O   0  0  0  0  0  0  0  0  0  0  0  0
   -4.1860   -2.1010   -2.7330 O   0  0  0  0  0  0  0  0  0  0  0  0
   -3.0100   -1.4230   -0.6650 H   0  0  0  0  0  0  0  0  0  0  0  0
   -1.7050   -3.9720   -1.8260 H   0  0  0  0  0  0  0  0  0  0  0  0
   -4.1090   -3.7930    0.0750 H   0  0  0  0  0  0  0  0  0  0  0  0
   -3.3910   -5.2820   -0.6990 H   0  0  0  0  0  0  0  0  0  0  0  0
   -0.4880   -5.4900    1.3080 H   0  0  0  0  0  0  0  0  0  0  0  0
  1 13  1  0  0  0  0
  2  1  1  0  0  0  0
  2  4  1  0  0  0  0
  3  2  2  0  0  0  0
  4 15  1  0  0  0  0
  5 17  1  0  0  0  0
  5  4  1  0  0  0  0
  5 16  1  0  0  0  0
  6 18  1  0  0  0  0
  6 19  1  0  0  0  0
  6  5  1  0  0  0  0
  7  6  1  0  0  0  0
  8 22  1  6  0  0  0
  8 10  1  0  0  0  0
  8  9  1  0  0  0  0
  8  7  1  0  0  0  0
  9 23  1  0  0  0  0
  9 24  1  0  0  0  0
 10 11  2  0  0  0  0
 12  1  1  0  0  0  0
 14  3  1  0  0  0  0
 20  7  1  0  0  0  0
 21  7  1  0  0  0  0
 25 26  1  0  0  0  0
 25 33  1  0  0  0  0
 26 27  1  0  0  0  0
 27 38  1  0  0  0  0
 27 39  1  0  0  0  0
 28 26  1  0  0  0  0
 28 40  1  0  0  0  0
 28 29  1  0  0  0  0
 29 30  1  0  0  0  0
 29 42  1  1  0  0  0
 30 10  1  0  0  0  0
 31 29  1  0  0  0  0
 32 31  2  0  0  0  0
 34 25  1  0  0  0  0
 35 25  1  0  0  0  0
 36 26  1  0  0  0  0
 37 27  1  0  0  0  0
 41 28  1  0  0  0  0
 43 30  1  0  0  0  0
 44 31  1  0  0  0  0
 44 53  1  0  0  0  0
 45 54  1  6  0  0  0
 45 44  1  0  0  0  0
 45 46  1  0  0  0  0
 46 55  1  0  0  0  0
 46 47  1  0  0  0  0
 47 51  1  0  0  0  0
 47 48  2  0  0  0  0
 49 45  1  0  0  0  0
 50 49  2  0  0  0  0
 51 57  1  0  0  0  0
 52 49  1  0  0  0  0
 56 46  1  0  0  0  0
M  END
$$$$
