RLH.pdb
 OpenBabel07022418053D

 61 61  0  0  1  0  0  0  0  0999 V2000
    2.3040   -3.6800    4.5620 N   0  0  0  0  0  0  0  0  0  0  0  0
    3.1500   -3.0430    3.6240 C   0  0  0  0  0  0  0  0  0  0  0  0
    4.1370   -3.6590    3.1060 N   0  0  0  0  0  0  0  0  0  0  0  0
    2.8840   -1.6950    3.2640 N   0  0  0  0  0  0  0  0  0  0  0  0
    3.9350   -0.7890    2.8780 C   0  0  0  0  0  0  0  0  0  0  0  0
    3.3160    0.5600    2.5260 C   0  0  0  0  0  0  0  0  0  0  0  0
    2.3850    0.3550    1.3760 C   0  0  0  0  0  0  0  0  0  0  0  0
    1.6820    1.6340    0.9330 C   0  0  2  0  0  0  0  0  0  0  0  0
    0.8940    2.1950    1.9860 N   0  0  0  0  0  0  0  0  0  0  0  0
    0.8610    1.2670   -0.2750 C   0  0  0  0  0  0  0  0  0  0  0  0
    1.5030    0.9100   -1.2700 O   0  0  0  0  0  0  0  0  0  0  0  0
    2.6670   -4.1980    5.4060 H   0  0  0  0  0  0  0  0  0  0  0  0
    1.2450   -3.6800    4.4810 H   0  0  0  0  0  0  0  0  0  0  0  0
    4.7700   -3.2070    2.4140 H   0  0  0  0  0  0  0  0  0  0  0  0
    1.8970   -1.3700    3.2930 H   0  0  0  0  0  0  0  0  0  0  0  0
    4.6880   -0.6380    3.6860 H   0  0  0  0  0  0  0  0  0  0  0  0
    4.4540   -1.2360    2.0210 H   0  0  0  0  0  0  0  0  0  0  0  0
    4.1150    1.2920    2.2590 H   0  0  0  0  0  0  0  0  0  0  0  0
    2.7740    0.9850    3.3860 H   0  0  0  0  0  0  0  0  0  0  0  0
    3.0070   -0.0490    0.5290 H   0  0  0  0  0  0  0  0  0  0  0  0
    1.6220   -0.4270    1.5450 H   0  0  0  0  0  0  0  0  0  0  0  0
    2.4390    2.3520    0.6080 H   0  0  0  0  0  0  0  0  0  0  0  0
    0.1610    1.5530    2.3550 H   0  0  0  0  0  0  0  0  0  0  0  0
    0.4570    3.0760    1.6300 H   0  0  0  0  0  0  0  0  0  0  0  0
   -1.6470    3.5540   -2.7510 C   0  0  0  0  0  0  0  0  0  0  0  0
   -0.4060    2.6430   -2.8710 C   0  0  0  0  0  0  0  0  0  0  0  0
    0.2290    2.8900   -4.2190 C   0  0  0  0  0  0  0  0  0  0  0  0
   -0.8180    1.2020   -2.6930 C   0  0  0  0  0  0  0  0  0  0  0  0
   -1.4300    1.0300   -1.3080 C   0  0  2  0  0  0  0  0  0  0  0  0
   -0.5190    1.3160   -0.2880 N   0  0  0  0  0  0  0  0  0  0  0  0
   -2.2260   -0.1770   -1.1600 C   0  0  0  0  0  0  0  0  0  0  0  0
   -3.0830   -0.5520   -1.9940 O   0  0  0  0  0  0  0  0  0  0  0  0
   -1.4700    4.4240   -3.4230 H   0  0  0  0  0  0  0  0  0  0  0  0
   -2.5050    2.9430   -3.0730 H   0  0  0  0  0  0  0  0  0  0  0  0
   -1.7920    3.9110   -1.7210 H   0  0  0  0  0  0  0  0  0  0  0  0
    0.2820    3.0310   -2.1100 H   0  0  0  0  0  0  0  0  0  0  0  0
   -0.4420    3.4560   -4.8850 H   0  0  0  0  0  0  0  0  0  0  0  0
    0.4640    1.9300   -4.7560 H   0  0  0  0  0  0  0  0  0  0  0  0
    1.1920    3.4410   -4.1500 H   0  0  0  0  0  0  0  0  0  0  0  0
   -1.5790    0.9180   -3.4770 H   0  0  0  0  0  0  0  0  0  0  0  0
    0.0480    0.5570   -2.8620 H   0  0  0  0  0  0  0  0  0  0  0  0
   -2.1590    1.9450   -1.3080 H   0  0  0  0  0  0  0  0  0  0  0  0
   -0.9690    1.6250    0.6500 H   0  0  0  0  0  0  0  0  0  0  0  0
   -2.0210   -0.9790   -0.0080 N   0  0  0  0  0  0  0  0  0  0  0  0
   -2.7450   -2.2140    0.2680 C   0  0  1  0  0  0  0  0  0  0  0  0
   -1.7870   -3.3790    0.3690 C   0  0  0  0  0  0  0  0  0  0  0  0
   -2.4090   -4.6710    0.6500 C   0  0  0  0  0  0  0  0  0  0  0  0
   -2.6340   -5.2720    1.8670 C   0  0  0  0  0  0  0  0  0  0  0  0
   -3.2180   -6.4760    1.6710 N   0  0  0  0  0  0  0  0  0  0  0  0
   -3.3540   -6.6220    0.3300 C   0  0  0  0  0  0  0  0  0  0  0  0
   -2.8680   -5.5400   -0.2780 N   0  0  0  0  0  0  0  0  0  0  0  0
   -3.4750   -2.1000    1.5340 C   0  0  0  0  0  0  0  0  0  0  0  0
   -4.1910   -3.0320    1.9380 O   0  0  0  0  0  0  0  0  0  0  0  0
   -3.3710   -0.9530    2.2890 O   0  0  0  0  0  0  0  0  0  0  0  0
   -1.3100   -0.7110    0.7310 H   0  0  0  0  0  0  0  0  0  0  0  0
   -3.4930   -2.4110   -0.5420 H   0  0  0  0  0  0  0  0  0  0  0  0
   -0.9780   -3.1460    1.1150 H   0  0  0  0  0  0  0  0  0  0  0  0
   -1.2580   -3.4470   -0.6040 H   0  0  0  0  0  0  0  0  0  0  0  0
   -2.3890   -4.8680    2.8610 H   0  0  0  0  0  0  0  0  0  0  0  0
   -3.5060   -7.1550    2.4120 H   0  0  0  0  0  0  0  0  0  0  0  0
   -3.7920   -7.4940   -0.1270 H   0  0  0  0  0  0  0  0  0  0  0  0
  1 12  1  0  0  0  0
  2  1  1  0  0  0  0
  3  2  2  0  0  0  0
  4 15  1  0  0  0  0
  4  2  1  0  0  0  0
  5  4  1  0  0  0  0
  5 16  1  0  0  0  0
  6  5  1  0  0  0  0
  6 19  1  0  0  0  0
  7 21  1  0  0  0  0
  7  6  1  0  0  0  0
  8 22  1  6  0  0  0
  8  7  1  0  0  0  0
  8  9  1  0  0  0  0
  9 23  1  0  0  0  0
 10  8  1  0  0  0  0
 11 10  2  0  0  0  0
 13  1  1  0  0  0  0
 14  3  1  0  0  0  0
 17  5  1  0  0  0  0
 18  6  1  0  0  0  0
 20  7  1  0  0  0  0
 24  9  1  0  0  0  0
 25 35  1  0  0  0  0
 26 25  1  0  0  0  0
 26 28  1  0  0  0  0
 26 36  1  0  0  0  0
 27 39  1  0  0  0  0
 27 26  1  0  0  0  0
 28 29  1  0  0  0  0
 29 42  1  1  0  0  0
 29 31  1  0  0  0  0
 29 30  1  0  0  0  0
 30 10  1  0  0  0  0
 30 43  1  0  0  0  0
 31 44  1  0  0  0  0
 32 31  2  0  0  0  0
 33 25  1  0  0  0  0
 34 25  1  0  0  0  0
 37 27  1  0  0  0  0
 38 27  1  0  0  0  0
 40 28  1  0  0  0  0
 41 28  1  0  0  0  0
 44 45  1  0  0  0  0
 44 55  1  0  0  0  0
 45 56  1  6  0  0  0
 45 46  1  0  0  0  0
 45 52  1  0  0  0  0
 46 47  1  0  0  0  0
 46 57  1  0  0  0  0
 47 48  2  0  0  0  0
 48 59  1  0  0  0  0
 49 48  1  0  0  0  0
 49 60  1  0  0  0  0
 50 49  1  0  0  0  0
 51 50  2  0  0  0  0
 51 47  1  0  0  0  0
 52 53  2  0  0  0  0
 52 54  1  0  0  0  0
 58 46  1  0  0  0  0
 61 50  1  0  0  0  0
M  END
$$$$
