RLP.pdb
 OpenBabel07022418053D

 58 58  0  0  1  0  0  0  0  0999 V2000
    1.6770   -2.5810    3.8410 N   0  0  0  0  0  0  0  0  0  0  0  0
    1.8140   -1.1560    3.8290 C   0  0  0  0  0  0  0  0  0  0  0  0
    1.0580   -0.4410    4.5940 N   0  0  0  0  0  0  0  0  0  0  0  0
    2.7570   -0.4830    3.0120 N   0  0  0  0  0  0  0  0  0  0  0  0
    2.7010    0.9560    2.8960 C   0  0  0  0  0  0  0  0  0  0  0  0
    3.7880    1.5420    2.0960 C   0  0  0  0  0  0  0  0  0  0  0  0
    3.9220    1.1400    0.6630 C   0  0  0  0  0  0  0  0  0  0  0  0
    2.8240    1.4420   -0.2520 C   0  0  2  0  0  0  0  0  0  0  0  0
    2.5770    2.8860   -0.2590 N   0  0  0  0  0  0  0  0  0  0  0  0
    1.5980    0.7030   -0.3180 C   0  0  0  0  0  0  0  0  0  0  0  0
    0.5100    1.3790   -0.4210 O   0  0  0  0  0  0  0  0  0  0  0  0
    2.4000   -3.2050    3.4140 H   0  0  0  0  0  0  0  0  0  0  0  0
    0.8550   -3.0250    4.2750 H   0  0  0  0  0  0  0  0  0  0  0  0
    0.3380   -0.8750    5.2330 H   0  0  0  0  0  0  0  0  0  0  0  0
    3.4900   -1.0320    2.4960 H   0  0  0  0  0  0  0  0  0  0  0  0
    1.6940    1.2750    2.6470 H   0  0  0  0  0  0  0  0  0  0  0  0
    2.8580    1.3270    3.9600 H   0  0  0  0  0  0  0  0  0  0  0  0
    4.7550    1.3210    2.6550 H   0  0  0  0  0  0  0  0  0  0  0  0
    3.6890    2.6550    2.1520 H   0  0  0  0  0  0  0  0  0  0  0  0
    4.8180    1.7560    0.3040 H   0  0  0  0  0  0  0  0  0  0  0  0
    4.3430    0.1030    0.5590 H   0  0  0  0  0  0  0  0  0  0  0  0
    3.2700    1.3270   -1.3430 H   0  0  0  0  0  0  0  0  0  0  0  0
    3.5040    3.3550   -0.3480 H   0  0  0  0  0  0  0  0  0  0  0  0
    2.1960    3.1460    0.6840 H   0  0  0  0  0  0  0  0  0  0  0  0
   -1.6530   -1.2920    2.9340 C   0  0  0  0  0  0  0  0  0  0  0  0
   -0.9980   -0.5700    1.7310 C   0  0  0  0  0  0  0  0  0  0  0  0
   -2.1010    0.2620    1.1310 C   0  0  0  0  0  0  0  0  0  0  0  0
   -0.5380   -1.6650    0.8460 C   0  0  0  0  0  0  0  0  0  0  0  0
    0.1460   -1.4090   -0.4120 C   0  0  2  0  0  0  0  0  0  0  0  0
    1.4140   -0.6930   -0.2930 N   0  0  0  0  0  0  0  0  0  0  0  0
   -0.6020   -1.0200   -1.6110 C   0  0  0  0  0  0  0  0  0  0  0  0
   -0.1100   -0.0920   -2.3900 O   0  0  0  0  0  0  0  0  0  0  0  0
   -1.1010   -2.2300    3.1370 H   0  0  0  0  0  0  0  0  0  0  0  0
   -1.6530   -0.6840    3.8340 H   0  0  0  0  0  0  0  0  0  0  0  0
   -2.6980   -1.5960    2.6340 H   0  0  0  0  0  0  0  0  0  0  0  0
   -0.2300    0.0490    2.1730 H   0  0  0  0  0  0  0  0  0  0  0  0
   -2.4830   -0.1630    0.2080 H   0  0  0  0  0  0  0  0  0  0  0  0
   -2.9880    0.3190    1.8300 H   0  0  0  0  0  0  0  0  0  0  0  0
   -1.8080    1.3280    1.0130 H   0  0  0  0  0  0  0  0  0  0  0  0
   -1.3350   -2.4140    0.7420 H   0  0  0  0  0  0  0  0  0  0  0  0
    0.2360   -2.2750    1.4790 H   0  0  0  0  0  0  0  0  0  0  0  0
    0.5210   -2.4500   -0.7260 H   0  0  0  0  0  0  0  0  0  0  0  0
    2.3330   -1.2270   -0.1690 H   0  0  0  0  0  0  0  0  0  0  0  0
   -1.8230   -1.4940   -2.1050 N   0  0  0  0  0  0  0  0  0  0  0  0
   -2.4480   -0.9530   -3.3510 C   0  0  0  0  0  0  0  0  0  0  0  0
   -3.9330   -1.1810   -3.0800 C   0  0  0  0  0  0  0  0  0  0  0  0
   -3.9130   -2.5480   -2.4830 C   0  0  0  0  0  0  0  0  0  0  0  0
   -2.6710   -2.5110   -1.5800 C   0  0  1  0  0  0  0  0  0  0  0  0
   -1.9830   -3.8340   -1.6810 C   0  0  0  0  0  0  0  0  0  0  0  0
   -0.9460   -3.9140   -2.3690 O   0  0  0  0  0  0  0  0  0  0  0  0
   -2.4900   -4.9520   -1.0190 O   0  0  0  0  0  0  0  0  0  0  0  0
   -2.1630   -1.5440   -4.2280 H   0  0  0  0  0  0  0  0  0  0  0  0
   -2.2800    0.1180   -3.4490 H   0  0  0  0  0  0  0  0  0  0  0  0
   -4.5180   -1.1060   -3.9960 H   0  0  0  0  0  0  0  0  0  0  0  0
   -4.2660   -0.4740   -2.2850 H   0  0  0  0  0  0  0  0  0  0  0  0
   -3.7410   -3.3490   -3.2390 H   0  0  0  0  0  0  0  0  0  0  0  0
   -4.7720   -2.7960   -1.8340 H   0  0  0  0  0  0  0  0  0  0  0  0
   -3.0910   -2.3140   -0.5730 H   0  0  0  0  0  0  0  0  0  0  0  0
  1 13  1  0  0  0  0
  2  1  1  0  0  0  0
  2  3  2  0  0  0  0
  3 14  1  0  0  0  0
  4  2  1  0  0  0  0
  5  4  1  0  0  0  0
  5 17  1  0  0  0  0
  6 19  1  0  0  0  0
  6 18  1  0  0  0  0
  6  5  1  0  0  0  0
  7  6  1  0  0  0  0
  8 22  1  6  0  0  0
  8  7  1  0  0  0  0
  9  8  1  0  0  0  0
  9 24  1  0  0  0  0
 10 30  1  0  0  0  0
 10  8  1  0  0  0  0
 11 10  2  0  0  0  0
 12  1  1  0  0  0  0
 15  4  1  0  0  0  0
 16  5  1  0  0  0  0
 20  7  1  0  0  0  0
 21  7  1  0  0  0  0
 23  9  1  0  0  0  0
 25 33  1  0  0  0  0
 25 34  1  0  0  0  0
 26 36  1  0  0  0  0
 26 25  1  0  0  0  0
 27 26  1  0  0  0  0
 27 38  1  0  0  0  0
 28 41  1  0  0  0  0
 28 26  1  0  0  0  0
 29 42  1  6  0  0  0
 29 30  1  0  0  0  0
 29 28  1  0  0  0  0
 30 43  1  0  0  0  0
 31 29  1  0  0  0  0
 32 31  2  0  0  0  0
 35 25  1  0  0  0  0
 37 27  1  0  0  0  0
 39 27  1  0  0  0  0
 40 28  1  0  0  0  0
 44 31  1  0  0  0  0
 44 48  1  0  0  0  0
 45 46  1  0  0  0  0
 45 44  1  0  0  0  0
 46 47  1  0  0  0  0
 46 55  1  0  0  0  0
 47 57  1  0  0  0  0
 47 48  1  0  0  0  0
 48 58  1  1  0  0  0
 49 48  1  0  0  0  0
 49 51  1  0  0  0  0
 50 49  2  0  0  0  0
 52 45  1  0  0  0  0
 53 45  1  0  0  0  0
 54 46  1  0  0  0  0
 56 47  1  0  0  0  0
M  END
$$$$
