RLQ.pdb
 OpenBabel07022418053D

 61 60  0  0  1  0  0  0  0  0999 V2000
    0.1210   -1.2520    5.2970 N   0  0  0  0  0  0  0  0  0  0  0  0
    1.2010   -0.3280    5.2070 C   0  0  0  0  0  0  0  0  0  0  0  0
    1.3170    0.6260    6.0640 N   0  0  0  0  0  0  0  0  0  0  0  0
    2.1880   -0.4050    4.1910 N   0  0  0  0  0  0  0  0  0  0  0  0
    3.0610    0.7280    3.9640 C   0  0  0  0  0  0  0  0  0  0  0  0
    4.0540    0.5920    2.9060 C   0  0  0  0  0  0  0  0  0  0  0  0
    3.8270    0.4970    1.4800 C   0  0  0  0  0  0  0  0  0  0  0  0
    2.9240   -0.4760    0.8360 C   0  0  2  0  0  0  0  0  0  0  0  0
    3.1530   -0.3810   -0.6630 N   0  0  0  0  0  0  0  0  0  0  0  0
    1.4930   -0.0150    0.9620 C   0  0  0  0  0  0  0  0  0  0  0  0
    0.9630    0.5290    1.9220 O   0  0  0  0  0  0  0  0  0  0  0  0
    0.3040   -2.2740    5.2030 H   0  0  0  0  0  0  0  0  0  0  0  0
   -0.8680   -0.9620    5.4570 H   0  0  0  0  0  0  0  0  0  0  0  0
    0.6050    0.7030    6.8190 H   0  0  0  0  0  0  0  0  0  0  0  0
    2.2770   -1.2730    3.6170 H   0  0  0  0  0  0  0  0  0  0  0  0
    3.5710    0.8960    4.9790 H   0  0  0  0  0  0  0  0  0  0  0  0
    2.4290    1.6580    3.8920 H   0  0  0  0  0  0  0  0  0  0  0  0
    4.8350   -0.2140    3.2110 H   0  0  0  0  0  0  0  0  0  0  0  0
    4.7480    1.5280    3.0390 H   0  0  0  0  0  0  0  0  0  0  0  0
    4.8640    0.3970    0.9590 H   0  0  0  0  0  0  0  0  0  0  0  0
    3.5280    1.5720    1.1250 H   0  0  0  0  0  0  0  0  0  0  0  0
    3.1190   -1.4860    1.1010 H   0  0  0  0  0  0  0  0  0  0  0  0
    4.1480   -0.0800   -0.7730 H   0  0  0  0  0  0  0  0  0  0  0  0
    3.0750   -1.3210   -1.0630 H   0  0  0  0  0  0  0  0  0  0  0  0
   -2.8770    2.2480    0.3140 C   0  0  0  0  0  0  0  0  0  0  0  0
   -2.5610    1.6380   -1.0370 C   0  0  0  0  0  0  0  0  0  0  0  0
   -2.8710    2.7140   -2.0990 C   0  0  0  0  0  0  0  0  0  0  0  0
   -1.1260    1.2090   -1.1400 C   0  0  0  0  0  0  0  0  0  0  0  0
   -0.7970    0.2030   -0.0980 C   0  0  2  0  0  0  0  0  0  0  0  0
    0.5960   -0.2220   -0.1680 N   0  0  0  0  0  0  0  0  0  0  0  0
   -1.6370   -1.0040   -0.1340 C   0  0  0  0  0  0  0  0  0  0  0  0
   -2.8870   -1.0070   -0.0420 O   0  0  0  0  0  0  0  0  0  0  0  0
   -2.9240    1.4840    1.1150 H   0  0  0  0  0  0  0  0  0  0  0  0
   -2.1160    2.9900    0.6290 H   0  0  0  0  0  0  0  0  0  0  0  0
   -3.8780    2.7230    0.2650 H   0  0  0  0  0  0  0  0  0  0  0  0
   -3.3040    0.8500   -1.2310 H   0  0  0  0  0  0  0  0  0  0  0  0
   -3.5800    3.4470   -1.6770 H   0  0  0  0  0  0  0  0  0  0  0  0
   -3.3600    2.2620   -2.9860 H   0  0  0  0  0  0  0  0  0  0  0  0
   -1.9190    3.1600   -2.4450 H   0  0  0  0  0  0  0  0  0  0  0  0
   -0.9390    0.8490   -2.1770 H   0  0  0  0  0  0  0  0  0  0  0  0
   -0.5060    2.1270   -1.0000 H   0  0  0  0  0  0  0  0  0  0  0  0
   -1.0030    0.6870    0.9010 H   0  0  0  0  0  0  0  0  0  0  0  0
    1.0060   -0.6800   -0.9970 H   0  0  0  0  0  0  0  0  0  0  0  0
   -3.3170   -2.5610   -4.3170 N   0  0  0  0  0  0  0  0  0  0  0  0
   -2.9760   -3.2290   -3.1190 C   0  0  0  0  0  0  0  0  0  0  0  0
   -3.9060   -3.5070   -2.3360 O   0  0  0  0  0  0  0  0  0  0  0  0
   -1.5950   -3.5630   -2.8390 C   0  0  0  0  0  0  0  0  0  0  0  0
   -1.3470   -4.2680   -1.5470 C   0  0  0  0  0  0  0  0  0  0  0  0
   -1.7610   -3.5220   -0.3290 C   0  0  2  0  0  0  0  0  0  0  0  0
   -1.0240   -2.2780   -0.2820 N   0  0  0  0  0  0  0  0  0  0  0  0
   -1.3450   -4.3210    0.8600 C   0  0  0  0  0  0  0  0  0  0  0  0
   -1.8490   -5.4620    1.0550 O   0  0  0  0  0  0  0  0  0  0  0  0
   -0.4140   -3.8720    1.7860 O   0  0  0  0  0  0  0  0  0  0  0  0
   -2.9630   -1.6220   -4.5860 H   0  0  0  0  0  0  0  0  0  0  0  0
   -3.9760   -3.0360   -4.9960 H   0  0  0  0  0  0  0  0  0  0  0  0
   -1.1690   -4.1450   -3.6810 H   0  0  0  0  0  0  0  0  0  0  0  0
   -0.9800   -2.6140   -2.8110 H   0  0  0  0  0  0  0  0  0  0  0  0
   -1.9030   -5.2310   -1.5660 H   0  0  0  0  0  0  0  0  0  0  0  0
   -0.2760   -4.5370   -1.4460 H   0  0  0  0  0  0  0  0  0  0  0  0
   -2.8520   -3.3720   -0.2330 H   0  0  0  0  0  0  0  0  0  0  0  0
    0.0130   -2.3410   -0.3630 H   0  0  0  0  0  0  0  0  0  0  0  0
  1 13  1  0  0  0  0
  2  1  1  0  0  0  0
  2  3  2  0  0  0  0
  3 14  1  0  0  0  0
  4  2  1  0  0  0  0
  5  4  1  0  0  0  0
  5 16  1  0  0  0  0
  6 19  1  0  0  0  0
  6 18  1  0  0  0  0
  6  5  1  0  0  0  0
  7  6  1  0  0  0  0
  8 10  1  0  0  0  0
  8 22  1  1  0  0  0
  8  7  1  0  0  0  0
  9  8  1  0  0  0  0
 10 11  2  0  0  0  0
 12  1  1  0  0  0  0
 15  4  1  0  0  0  0
 17  5  1  0  0  0  0
 20  7  1  0  0  0  0
 21  7  1  0  0  0  0
 23  9  1  0  0  0  0
 24  9  1  0  0  0  0
 25 34  1  0  0  0  0
 25 33  1  0  0  0  0
 26 25  1  0  0  0  0
 27 37  1  0  0  0  0
 27 26  1  0  0  0  0
 28 26  1  0  0  0  0
 28 41  1  0  0  0  0
 28 29  1  0  0  0  0
 29 42  1  1  0  0  0
 30 29  1  0  0  0  0
 30 10  1  0  0  0  0
 31 29  1  0  0  0  0
 31 32  2  0  0  0  0
 35 25  1  0  0  0  0
 36 26  1  0  0  0  0
 38 27  1  0  0  0  0
 39 27  1  0  0  0  0
 40 28  1  0  0  0  0
 43 30  1  0  0  0  0
 44 45  1  0  0  0  0
 45 47  1  0  0  0  0
 45 46  2  0  0  0  0
 47 57  1  0  0  0  0
 47 48  1  0  0  0  0
 48 59  1  0  0  0  0
 48 49  1  0  0  0  0
 49 50  1  0  0  0  0
 49 60  1  1  0  0  0
 49 51  1  0  0  0  0
 50 31  1  0  0  0  0
 51 52  2  0  0  0  0
 51 53  1  0  0  0  0
 54 44  1  0  0  0  0
 55 44  1  0  0  0  0
 56 47  1  0  0  0  0
 58 48  1  0  0  0  0
 61 50  1  0  0  0  0
M  END
$$$$
