RLS.pdb
 OpenBabel07022418053D

 55 54  0  0  1  0  0  0  0  0999 V2000
   -0.2250   -4.5260    2.4140 N   0  0  0  0  0  0  0  0  0  0  0  0
    0.5590   -4.4560    1.2180 C   0  0  0  0  0  0  0  0  0  0  0  0
    0.1640   -5.0200    0.1080 N   0  0  0  0  0  0  0  0  0  0  0  0
    1.7900   -3.7480    1.2790 N   0  0  0  0  0  0  0  0  0  0  0  0
    2.4770   -3.5770   -0.0140 C   0  0  0  0  0  0  0  0  0  0  0  0
    3.7610   -2.8420    0.1400 C   0  0  0  0  0  0  0  0  0  0  0  0
    3.7820   -1.5040    0.7050 C   0  0  0  0  0  0  0  0  0  0  0  0
    3.1470   -0.3280    0.1220 C   0  0  2  0  0  0  0  0  0  0  0  0
    3.4860    0.7770    1.1000 N   0  0  0  0  0  0  0  0  0  0  0  0
    1.7220   -0.2730   -0.1450 C   0  0  0  0  0  0  0  0  0  0  0  0
    1.1560   -0.7720   -1.1360 O   0  0  0  0  0  0  0  0  0  0  0  0
   -0.3170   -5.4770    2.8450 H   0  0  0  0  0  0  0  0  0  0  0  0
   -0.6560   -3.6670    2.7950 H   0  0  0  0  0  0  0  0  0  0  0  0
   -0.7290   -5.5400    0.0430 H   0  0  0  0  0  0  0  0  0  0  0  0
    2.1830   -3.3760    2.1610 H   0  0  0  0  0  0  0  0  0  0  0  0
    2.7110   -4.6790   -0.2710 H   0  0  0  0  0  0  0  0  0  0  0  0
    1.7510   -3.2260   -0.7200 H   0  0  0  0  0  0  0  0  0  0  0  0
    4.3740   -3.5020    0.8510 H   0  0  0  0  0  0  0  0  0  0  0  0
    4.3960   -2.9260   -0.8020 H   0  0  0  0  0  0  0  0  0  0  0  0
    4.8950   -1.2400    0.8600 H   0  0  0  0  0  0  0  0  0  0  0  0
    3.4790   -1.6250    1.8160 H   0  0  0  0  0  0  0  0  0  0  0  0
    3.7020    0.0220   -0.7980 H   0  0  0  0  0  0  0  0  0  0  0  0
    3.2990    0.3580    2.0580 H   0  0  0  0  0  0  0  0  0  0  0  0
    4.5410    0.8100    1.0420 H   0  0  0  0  0  0  0  0  0  0  0  0
    0.8990    3.2520    0.6890 C   0  0  0  0  0  0  0  0  0  0  0  0
   -0.5700    3.0600    0.6090 C   0  0  0  0  0  0  0  0  0  0  0  0
   -1.2140    4.2680   -0.0500 C   0  0  0  0  0  0  0  0  0  0  0  0
   -0.9960    1.7800   -0.0210 C   0  0  0  0  0  0  0  0  0  0  0  0
   -0.5280    0.5450    0.6960 C   0  0  2  0  0  0  0  0  0  0  0  0
    0.8730    0.4050    0.7930 N   0  0  0  0  0  0  0  0  0  0  0  0
   -1.2820   -0.6660    0.2750 C   0  0  0  0  0  0  0  0  0  0  0  0
   -0.8020   -1.7830    0.0010 O   0  0  0  0  0  0  0  0  0  0  0  0
    1.4560    2.5740    0.0280 H   0  0  0  0  0  0  0  0  0  0  0  0
    1.2590    3.1880    1.7510 H   0  0  0  0  0  0  0  0  0  0  0  0
    1.1800    4.3080    0.3990 H   0  0  0  0  0  0  0  0  0  0  0  0
   -0.9900    3.0480    1.6610 H   0  0  0  0  0  0  0  0  0  0  0  0
   -0.7180    4.5410   -0.9910 H   0  0  0  0  0  0  0  0  0  0  0  0
   -1.0650    5.1160    0.6540 H   0  0  0  0  0  0  0  0  0  0  0  0
   -2.3060    4.1150   -0.1400 H   0  0  0  0  0  0  0  0  0  0  0  0
   -0.5590    1.6940   -1.0750 H   0  0  0  0  0  0  0  0  0  0  0  0
   -2.1020    1.7750   -0.2280 H   0  0  0  0  0  0  0  0  0  0  0  0
   -0.8910    0.6550    1.7900 H   0  0  0  0  0  0  0  0  0  0  0  0
    1.3530    0.8390    1.6530 H   0  0  0  0  0  0  0  0  0  0  0  0
   -5.2420   -3.1590    0.3640 O   0  0  0  0  0  0  0  0  0  0  0  0
   -4.5100   -2.0750    0.8240 C   0  0  0  0  0  0  0  0  0  0  0  0
   -3.5110   -1.7150   -0.2450 C   0  0  2  0  0  0  0  0  0  0  0  0
   -2.6920   -0.5720    0.1660 N   0  0  0  0  0  0  0  0  0  0  0  0
   -4.2100   -1.4220   -1.5210 C   0  0  0  0  0  0  0  0  0  0  0  0
   -4.9700   -2.2470   -2.0760 O   0  0  0  0  0  0  0  0  0  0  0  0
   -4.0160   -0.2000   -2.1160 O   0  0  0  0  0  0  0  0  0  0  0  0
   -5.1670   -3.9480    0.9620 H   0  0  0  0  0  0  0  0  0  0  0  0
   -5.1950   -1.2270    0.9700 H   0  0  0  0  0  0  0  0  0  0  0  0
   -3.9780   -2.3750    1.7480 H   0  0  0  0  0  0  0  0  0  0  0  0
   -2.8130   -2.5540   -0.4220 H   0  0  0  0  0  0  0  0  0  0  0  0
   -3.2390    0.2880    0.3710 H   0  0  0  0  0  0  0  0  0  0  0  0
  1 13  1  0  0  0  0
  1 12  1  0  0  0  0
  2  4  1  0  0  0  0
  2  1  1  0  0  0  0
  3  2  2  0  0  0  0
  4 15  1  0  0  0  0
  5  6  1  0  0  0  0
  5  4  1  0  0  0  0
  6  7  1  0  0  0  0
  6 18  1  0  0  0  0
  7 20  1  0  0  0  0
  7 21  1  0  0  0  0
  8 22  1  6  0  0  0
  8  7  1  0  0  0  0
  8  9  1  0  0  0  0
  9 23  1  0  0  0  0
 10  8  1  0  0  0  0
 10 30  1  0  0  0  0
 11 10  2  0  0  0  0
 14  3  1  0  0  0  0
 16  5  1  0  0  0  0
 17  5  1  0  0  0  0
 19  6  1  0  0  0  0
 24  9  1  0  0  0  0
 25 34  1  0  0  0  0
 26 25  1  0  0  0  0
 26 36  1  0  0  0  0
 27 26  1  0  0  0  0
 27 38  1  0  0  0  0
 28 26  1  0  0  0  0
 28 29  1  0  0  0  0
 29 30  1  0  0  0  0
 29 42  1  1  0  0  0
 30 43  1  0  0  0  0
 31 29  1  0  0  0  0
 32 31  2  0  0  0  0
 33 25  1  0  0  0  0
 35 25  1  0  0  0  0
 37 27  1  0  0  0  0
 39 27  1  0  0  0  0
 40 28  1  0  0  0  0
 41 28  1  0  0  0  0
 44 45  1  0  0  0  0
 44 51  1  0  0  0  0
 45 52  1  0  0  0  0
 45 53  1  0  0  0  0
 46 54  1  6  0  0  0
 46 47  1  0  0  0  0
 46 45  1  0  0  0  0
 47 31  1  0  0  0  0
 47 55  1  0  0  0  0
 48 46  1  0  0  0  0
 49 48  1  0  0  0  0
 50 48  2  0  0  0  0
M  END
$$$$
