RLW.pdb
 OpenBabel07022418053D

 68 69  0  0  1  0  0  0  0  0999 V2000
    2.3430   -1.7790    5.5360 N   0  0  0  0  0  0  0  0  0  0  0  0
    2.8750   -0.4450    5.7020 C   0  0  0  0  0  0  0  0  0  0  0  0
    4.0000   -0.2460    6.2920 N   0  0  0  0  0  0  0  0  0  0  0  0
    2.1770    0.6990    5.2160 N   0  0  0  0  0  0  0  0  0  0  0  0
    2.9480    1.7260    4.5350 C   0  0  0  0  0  0  0  0  0  0  0  0
    3.4200    1.2110    3.2140 C   0  0  0  0  0  0  0  0  0  0  0  0
    2.3050    0.8120    2.2890 C   0  0  0  0  0  0  0  0  0  0  0  0
    1.4600    1.9870    1.9490 C   0  0  2  0  0  0  0  0  0  0  0  0
    0.8220    2.6390    3.0730 N   0  0  0  0  0  0  0  0  0  0  0  0
    0.3880    1.6760    0.9720 C   0  0  0  0  0  0  0  0  0  0  0  0
   -0.7650    2.1760    1.1990 O   0  0  0  0  0  0  0  0  0  0  0  0
    1.3090   -1.9730    5.6700 H   0  0  0  0  0  0  0  0  0  0  0  0
    2.9910   -2.5400    5.2810 H   0  0  0  0  0  0  0  0  0  0  0  0
    4.5100   -1.1080    6.6460 H   0  0  0  0  0  0  0  0  0  0  0  0
    1.1440    0.7350    5.3710 H   0  0  0  0  0  0  0  0  0  0  0  0
    2.5330    2.7250    4.5650 H   0  0  0  0  0  0  0  0  0  0  0  0
    3.9040    1.8130    5.1670 H   0  0  0  0  0  0  0  0  0  0  0  0
    4.1040    0.3520    3.4030 H   0  0  0  0  0  0  0  0  0  0  0  0
    4.0180    2.0160    2.7320 H   0  0  0  0  0  0  0  0  0  0  0  0
    1.6860   -0.0020    2.7340 H   0  0  0  0  0  0  0  0  0  0  0  0
    2.7510    0.4530    1.3290 H   0  0  0  0  0  0  0  0  0  0  0  0
    2.1430    2.7910    1.5260 H   0  0  0  0  0  0  0  0  0  0  0  0
    0.1150    1.9720    3.4510 H   0  0  0  0  0  0  0  0  0  0  0  0
    0.3660    3.4970    2.7230 H   0  0  0  0  0  0  0  0  0  0  0  0
    1.9010    1.7470   -2.6120 C   0  0  0  0  0  0  0  0  0  0  0  0
    0.5570    1.4660   -3.1510 C   0  0  0  0  0  0  0  0  0  0  0  0
    0.2980    2.4300   -4.3240 C   0  0  0  0  0  0  0  0  0  0  0  0
   -0.6040    1.5720   -2.2600 C   0  0  0  0  0  0  0  0  0  0  0  0
   -0.6150    0.6650   -1.0430 C   0  0  2  0  0  0  0  0  0  0  0  0
    0.4920    0.8890   -0.1800 N   0  0  0  0  0  0  0  0  0  0  0  0
   -0.8360   -0.7330   -1.4630 C   0  0  0  0  0  0  0  0  0  0  0  0
   -0.0190   -1.6110   -1.0940 O   0  0  0  0  0  0  0  0  0  0  0  0
    2.4770    2.3270   -3.3980 H   0  0  0  0  0  0  0  0  0  0  0  0
    2.5360    0.8400   -2.4710 H   0  0  0  0  0  0  0  0  0  0  0  0
    1.9340    2.3900   -1.7090 H   0  0  0  0  0  0  0  0  0  0  0  0
    0.5840    0.4510   -3.6420 H   0  0  0  0  0  0  0  0  0  0  0  0
    0.8490    3.3840   -4.1680 H   0  0  0  0  0  0  0  0  0  0  0  0
    0.6920    1.9890   -5.2700 H   0  0  0  0  0  0  0  0  0  0  0  0
   -0.7910    2.5630   -4.4560 H   0  0  0  0  0  0  0  0  0  0  0  0
   -1.5260    1.3230   -2.8360 H   0  0  0  0  0  0  0  0  0  0  0  0
   -0.7510    2.6290   -1.9100 H   0  0  0  0  0  0  0  0  0  0  0  0
   -1.5460    1.0130   -0.4920 H   0  0  0  0  0  0  0  0  0  0  0  0
    1.4190    0.4560   -0.4000 H   0  0  0  0  0  0  0  0  0  0  0  0
   -1.9230   -1.1530   -2.2660 N   0  0  0  0  0  0  0  0  0  0  0  0
   -2.1390   -2.5420   -2.6870 C   0  0  1  0  0  0  0  0  0  0  0  0
   -3.4820   -2.9850   -2.1260 C   0  0  0  0  0  0  0  0  0  0  0  0
   -3.4950   -2.9290   -0.6390 C   0  0  0  0  0  0  0  0  0  0  0  0
   -4.0320   -1.9860    0.2170 C   0  0  0  0  0  0  0  0  0  0  0  0
   -3.7770   -2.3750    1.4810 N   0  0  0  0  0  0  0  0  0  0  0  0
   -3.0880   -3.5440    1.4840 C   0  0  0  0  0  0  0  0  0  0  0  0
   -2.5980   -4.3380    2.4990 C   0  0  0  0  0  0  0  0  0  0  0  0
   -1.9150   -5.5040    2.1740 C   0  0  0  0  0  0  0  0  0  0  0  0
   -1.7250   -5.8690    0.8690 C   0  0  0  0  0  0  0  0  0  0  0  0
   -2.2240   -5.0580   -0.1260 C   0  0  0  0  0  0  0  0  0  0  0  0
   -2.9110   -3.8880    0.1510 C   0  0  0  0  0  0  0  0  0  0  0  0
   -2.2410   -2.5200   -4.1840 C   0  0  0  0  0  0  0  0  0  0  0  0
   -2.1930   -1.4350   -4.8010 O   0  0  0  0  0  0  0  0  0  0  0  0
   -2.3930   -3.6960   -4.9210 O   0  0  0  0  0  0  0  0  0  0  0  0
   -2.6120   -0.4260   -2.5770 H   0  0  0  0  0  0  0  0  0  0  0  0
   -1.3290   -3.2070   -2.3890 H   0  0  0  0  0  0  0  0  0  0  0  0
   -4.2640   -2.2800   -2.5030 H   0  0  0  0  0  0  0  0  0  0  0  0
   -3.7330   -3.9970   -2.5110 H   0  0  0  0  0  0  0  0  0  0  0  0
   -4.5620   -1.1040   -0.0980 H   0  0  0  0  0  0  0  0  0  0  0  0
   -4.0360   -1.9090    2.3800 H   0  0  0  0  0  0  0  0  0  0  0  0
   -2.7270   -4.0820    3.5290 H   0  0  0  0  0  0  0  0  0  0  0  0
   -1.5200   -6.1400    2.9870 H   0  0  0  0  0  0  0  0  0  0  0  0
   -1.1840   -6.8010    0.6740 H   0  0  0  0  0  0  0  0  0  0  0  0
   -2.0730   -5.3520   -1.1620 H   0  0  0  0  0  0  0  0  0  0  0  0
  1 12  1  0  0  0  0
  1  2  1  0  0  0  0
  2  3  2  0  0  0  0
  3 14  1  0  0  0  0
  4 15  1  0  0  0  0
  4  2  1  0  0  0  0
  5 16  1  0  0  0  0
  5 17  1  0  0  0  0
  5  4  1  0  0  0  0
  6 18  1  0  0  0  0
  6  5  1  0  0  0  0
  7 20  1  0  0  0  0
  7  6  1  0  0  0  0
  8 22  1  6  0  0  0
  8  7  1  0  0  0  0
  8  9  1  0  0  0  0
  9 23  1  0  0  0  0
 10 11  2  0  0  0  0
 10  8  1  0  0  0  0
 13  1  1  0  0  0  0
 19  6  1  0  0  0  0
 21  7  1  0  0  0  0
 24  9  1  0  0  0  0
 25 34  1  0  0  0  0
 25 35  1  0  0  0  0
 26 25  1  0  0  0  0
 26 28  1  0  0  0  0
 27 37  1  0  0  0  0
 27 26  1  0  0  0  0
 28 41  1  0  0  0  0
 28 29  1  0  0  0  0
 29 42  1  1  0  0  0
 29 30  1  0  0  0  0
 30 10  1  0  0  0  0
 31 32  2  0  0  0  0
 31 29  1  0  0  0  0
 33 25  1  0  0  0  0
 36 26  1  0  0  0  0
 38 27  1  0  0  0  0
 39 27  1  0  0  0  0
 40 28  1  0  0  0  0
 43 30  1  0  0  0  0
 44 31  1  0  0  0  0
 45 60  1  1  0  0  0
 45 44  1  0  0  0  0
 45 46  1  0  0  0  0
 46 47  1  0  0  0  0
 47 55  1  0  0  0  0
 47 48  2  0  0  0  0
 48 49  1  0  0  0  0
 49 50  1  0  0  0  0
 49 64  1  0  0  0  0
 50 51  1  0  0  0  0
 51 65  1  0  0  0  0
 52 51  2  0  0  0  0
 52 66  1  0  0  0  0
 53 52  1  0  0  0  0
 54 55  1  0  0  0  0
 54 53  2  0  0  0  0
 55 50  2  0  0  0  0
 56 45  1  0  0  0  0
 57 56  1  0  0  0  0
 58 56  2  0  0  0  0
 59 44  1  0  0  0  0
 61 46  1  0  0  0  0
 62 46  1  0  0  0  0
 63 48  1  0  0  0  0
 67 53  1  0  0  0  0
 68 54  1  0  0  0  0
M  END
$$$$
