RLY.pdb
 OpenBabel07022418053D

 65 65  0  0  1  0  0  0  0  0999 V2000
    2.8420    0.6170    5.4620 N   0  0  0  0  0  0  0  0  0  0  0  0
    3.8780    0.8780    4.5060 C   0  0  0  0  0  0  0  0  0  0  0  0
    5.0530    0.3890    4.7000 N   0  0  0  0  0  0  0  0  0  0  0  0
    3.6320    1.6670    3.3450 N   0  0  0  0  0  0  0  0  0  0  0  0
    4.3980    1.5120    2.1370 C   0  0  0  0  0  0  0  0  0  0  0  0
    4.1660    0.2230    1.4390 C   0  0  0  0  0  0  0  0  0  0  0  0
    2.7850   -0.0910    1.0110 C   0  0  0  0  0  0  0  0  0  0  0  0
    2.2350    0.9130    0.0450 C   0  0  2  0  0  0  0  0  0  0  0  0
    2.2010    2.2100    0.6750 N   0  0  0  0  0  0  0  0  0  0  0  0
    0.8530    0.5880   -0.3900 C   0  0  0  0  0  0  0  0  0  0  0  0
   -0.1050    1.3810   -0.2020 O   0  0  0  0  0  0  0  0  0  0  0  0
    2.4370   -0.3640    5.4990 H   0  0  0  0  0  0  0  0  0  0  0  0
    2.4760    1.3290    6.1080 H   0  0  0  0  0  0  0  0  0  0  0  0
    5.2250   -0.1860    5.5490 H   0  0  0  0  0  0  0  0  0  0  0  0
    2.8720    2.3700    3.3930 H   0  0  0  0  0  0  0  0  0  0  0  0
    5.4960    1.4650    2.4810 H   0  0  0  0  0  0  0  0  0  0  0  0
    4.2910    2.4220    1.5290 H   0  0  0  0  0  0  0  0  0  0  0  0
    4.5650   -0.5970    2.0950 H   0  0  0  0  0  0  0  0  0  0  0  0
    4.8590    0.2070    0.5530 H   0  0  0  0  0  0  0  0  0  0  0  0
    2.7010   -1.1360    0.6150 H   0  0  0  0  0  0  0  0  0  0  0  0
    2.0570   -0.0960    1.8800 H   0  0  0  0  0  0  0  0  0  0  0  0
    2.9240    1.0160   -0.8250 H   0  0  0  0  0  0  0  0  0  0  0  0
    1.8510    2.9500    0.0190 H   0  0  0  0  0  0  0  0  0  0  0  0
    1.4850    2.1580    1.4470 H   0  0  0  0  0  0  0  0  0  0  0  0
   -1.3190    1.0690   -3.6930 C   0  0  0  0  0  0  0  0  0  0  0  0
   -0.5760   -0.2380   -3.8630 C   0  0  0  0  0  0  0  0  0  0  0  0
    0.9060   -0.0250   -3.8860 C   0  0  0  0  0  0  0  0  0  0  0  0
   -1.0100   -1.2990   -2.8880 C   0  0  0  0  0  0  0  0  0  0  0  0
   -0.8310   -0.9300   -1.4630 C   0  0  2  0  0  0  0  0  0  0  0  0
    0.5180   -0.6420   -1.0510 N   0  0  0  0  0  0  0  0  0  0  0  0
   -1.3090   -2.1030   -0.6480 C   0  0  0  0  0  0  0  0  0  0  0  0
   -0.5570   -2.6200    0.2000 O   0  0  0  0  0  0  0  0  0  0  0  0
   -2.3760    0.8690   -3.3630 H   0  0  0  0  0  0  0  0  0  0  0  0
   -0.8440    1.7400   -2.9660 H   0  0  0  0  0  0  0  0  0  0  0  0
   -1.3840    1.5810   -4.6620 H   0  0  0  0  0  0  0  0  0  0  0  0
   -0.8820   -0.6190   -4.8790 H   0  0  0  0  0  0  0  0  0  0  0  0
    1.2390    0.1840   -4.9510 H   0  0  0  0  0  0  0  0  0  0  0  0
    1.2720    0.7690   -3.2210 H   0  0  0  0  0  0  0  0  0  0  0  0
    1.4060   -0.9760   -3.5690 H   0  0  0  0  0  0  0  0  0  0  0  0
   -0.3870   -2.1970   -3.1030 H   0  0  0  0  0  0  0  0  0  0  0  0
   -2.0700   -1.5760   -3.1170 H   0  0  0  0  0  0  0  0  0  0  0  0
   -1.4680   -0.0490   -1.2270 H   0  0  0  0  0  0  0  0  0  0  0  0
    1.2670   -1.3230   -1.2230 H   0  0  0  0  0  0  0  0  0  0  0  0
   -1.9800    0.7300    4.1670 O   0  0  0  0  0  0  0  0  0  0  0  0
   -2.5300   -0.2200    3.3250 C   0  0  0  0  0  0  0  0  0  0  0  0
   -2.5060   -1.5370    3.7590 C   0  0  0  0  0  0  0  0  0  0  0  0
   -3.0560   -2.5060    2.9230 C   0  0  0  0  0  0  0  0  0  0  0  0
   -3.6070   -2.1710    1.7040 C   0  0  0  0  0  0  0  0  0  0  0  0
   -4.1750   -3.2610    0.8700 C   0  0  0  0  0  0  0  0  0  0  0  0
   -3.0270   -3.7690   -0.0170 C   0  0  2  0  0  0  0  0  0  0  0  0
   -2.5930   -2.6560   -0.8010 N   0  0  0  0  0  0  0  0  0  0  0  0
   -3.4460   -4.9310   -0.7940 C   0  0  0  0  0  0  0  0  0  0  0  0
   -3.8430   -5.9610   -0.2060 O   0  0  0  0  0  0  0  0  0  0  0  0
   -3.6050   -0.8500    1.3200 C   0  0  0  0  0  0  0  0  0  0  0  0
   -3.0740    0.1420    2.1120 C   0  0  0  0  0  0  0  0  0  0  0  0
   -3.4170   -4.9290   -2.1730 O   0  0  0  0  0  0  0  0  0  0  0  0
   -1.6070    1.6220    3.8510 H   0  0  0  0  0  0  0  0  0  0  0  0
   -2.0880   -1.8250    4.6960 H   0  0  0  0  0  0  0  0  0  0  0  0
   -3.0500   -3.5410    3.2380 H   0  0  0  0  0  0  0  0  0  0  0  0
   -4.5980   -4.0760    1.4800 H   0  0  0  0  0  0  0  0  0  0  0  0
   -4.9430   -2.7770    0.2140 H   0  0  0  0  0  0  0  0  0  0  0  0
   -2.1910   -4.0360    0.6900 H   0  0  0  0  0  0  0  0  0  0  0  0
   -3.2590   -2.2570   -1.5010 H   0  0  0  0  0  0  0  0  0  0  0  0
   -4.0320   -0.5710    0.3680 H   0  0  0  0  0  0  0  0  0  0  0  0
   -3.0570    1.1830    1.8420 H   0  0  0  0  0  0  0  0  0  0  0  0
  1 12  1  0  0  0  0
  1 13  1  0  0  0  0
  2  3  2  0  0  0  0
  2  1  1  0  0  0  0
  3 14  1  0  0  0  0
  4 15  1  0  0  0  0
  4  2  1  0  0  0  0
  5 16  1  0  0  0  0
  5  4  1  0  0  0  0
  6 18  1  0  0  0  0
  6  5  1  0  0  0  0
  7  6  1  0  0  0  0
  7 21  1  0  0  0  0
  8 22  1  6  0  0  0
  8  9  1  0  0  0  0
  8  7  1  0  0  0  0
  9 24  1  0  0  0  0
 10 11  2  0  0  0  0
 10  8  1  0  0  0  0
 17  5  1  0  0  0  0
 19  6  1  0  0  0  0
 20  7  1  0  0  0  0
 23  9  1  0  0  0  0
 25 33  1  0  0  0  0
 25 34  1  0  0  0  0
 26 25  1  0  0  0  0
 26 28  1  0  0  0  0
 27 26  1  0  0  0  0
 27 39  1  0  0  0  0
 27 38  1  0  0  0  0
 28 29  1  0  0  0  0
 29 42  1  1  0  0  0
 29 30  1  0  0  0  0
 29 31  1  0  0  0  0
 30 10  1  0  0  0  0
 31 32  2  0  0  0  0
 35 25  1  0  0  0  0
 36 26  1  0  0  0  0
 37 27  1  0  0  0  0
 40 28  1  0  0  0  0
 41 28  1  0  0  0  0
 43 30  1  0  0  0  0
 45 46  1  0  0  0  0
 45 44  1  0  0  0  0
 46 58  1  0  0  0  0
 47 59  1  0  0  0  0
 47 46  2  0  0  0  0
 48 47  1  0  0  0  0
 49 60  1  0  0  0  0
 49 48  1  0  0  0  0
 50 62  1  1  0  0  0
 50 49  1  0  0  0  0
 51 31  1  0  0  0  0
 51 50  1  0  0  0  0
 52 53  1  0  0  0  0
 52 50  1  0  0  0  0
 54 48  2  0  0  0  0
 54 55  1  0  0  0  0
 55 45  2  0  0  0  0
 56 52  2  0  0  0  0
 57 44  1  0  0  0  0
 61 49  1  0  0  0  0
 63 51  1  0  0  0  0
 64 54  1  0  0  0  0
 65 55  1  0  0  0  0
M  END
$$$$
