RMA.pdb
 OpenBabel07022418063D

 52 51  0  0  1  0  0  0  0  0999 V2000
    1.5780   -6.2530    2.4160 N   0  0  0  0  0  0  0  0  0  0  0  0
    2.1860   -5.0130    2.1300 C   0  0  0  0  0  0  0  0  0  0  0  0
    3.0140   -4.5250    3.0160 N   0  0  0  0  0  0  0  0  0  0  0  0
    1.9230   -4.2950    0.9180 N   0  0  0  0  0  0  0  0  0  0  0  0
    2.4610   -2.9260    0.8850 C   0  0  0  0  0  0  0  0  0  0  0  0
    2.1360   -2.2710   -0.4100 C   0  0  0  0  0  0  0  0  0  0  0  0
    2.6440   -0.8960   -0.5580 C   0  0  0  0  0  0  0  0  0  0  0  0
    2.1650    0.1250    0.4370 C   0  0  2  0  0  0  0  0  0  0  0  0
    2.5010   -0.1860    1.7640 N   0  0  0  0  0  0  0  0  0  0  0  0
    0.7460    0.4880    0.2080 C   0  0  0  0  0  0  0  0  0  0  0  0
    0.4250    0.7580   -0.9770 O   0  0  0  0  0  0  0  0  0  0  0  0
    0.7400   -6.2850    3.0120 H   0  0  0  0  0  0  0  0  0  0  0  0
    1.9750   -7.1200    2.0290 H   0  0  0  0  0  0  0  0  0  0  0  0
    3.2010   -5.0470    3.8900 H   0  0  0  0  0  0  0  0  0  0  0  0
    1.4000   -4.7390    0.1650 H   0  0  0  0  0  0  0  0  0  0  0  0
    3.5600   -3.0370    0.9700 H   0  0  0  0  0  0  0  0  0  0  0  0
    1.9930   -2.4540    1.7790 H   0  0  0  0  0  0  0  0  0  0  0  0
    2.6500   -2.8920   -1.2050 H   0  0  0  0  0  0  0  0  0  0  0  0
    1.0500   -2.3750   -0.6910 H   0  0  0  0  0  0  0  0  0  0  0  0
    3.7650   -0.9410   -0.4820 H   0  0  0  0  0  0  0  0  0  0  0  0
    2.3530   -0.5100   -1.5810 H   0  0  0  0  0  0  0  0  0  0  0  0
    2.7370    1.0680    0.1690 H   0  0  0  0  0  0  0  0  0  0  0  0
    3.4330   -0.5490    1.9460 H   0  0  0  0  0  0  0  0  0  0  0  0
    2.0070    0.2620    2.5210 H   0  0  0  0  0  0  0  0  0  0  0  0
    1.1540    3.8800    3.3210 C   0  0  0  0  0  0  0  0  0  0  0  0
    0.5540    2.8260    1.9990 S   0  0  0  0  0  0  0  0  0  0  0  0
   -1.1560    3.2230    1.5610 C   0  0  0  0  0  0  0  0  0  0  0  0
   -1.6700    2.3440    0.4520 C   0  0  0  0  0  0  0  0  0  0  0  0
   -1.6170    0.9110    0.8990 C   0  0  2  0  0  0  0  0  0  0  0  0
   -0.2530    0.5540    1.1980 N   0  0  0  0  0  0  0  0  0  0  0  0
   -2.1780   -0.0290   -0.1130 C   0  0  0  0  0  0  0  0  0  0  0  0
   -1.4630   -0.9630   -0.5240 O   0  0  0  0  0  0  0  0  0  0  0  0
    0.2780    4.1670    3.9670 H   0  0  0  0  0  0  0  0  0  0  0  0
    1.6550    4.8030    2.9520 H   0  0  0  0  0  0  0  0  0  0  0  0
    1.8990    3.3620    3.9780 H   0  0  0  0  0  0  0  0  0  0  0  0
   -1.2690    4.3080    1.3090 H   0  0  0  0  0  0  0  0  0  0  0  0
   -1.7750    2.9710    2.4690 H   0  0  0  0  0  0  0  0  0  0  0  0
   -1.0040    2.5160   -0.4310 H   0  0  0  0  0  0  0  0  0  0  0  0
   -2.6990    2.6660    0.1830 H   0  0  0  0  0  0  0  0  0  0  0  0
   -2.2660    0.8210    1.8130 H   0  0  0  0  0  0  0  0  0  0  0  0
    0.0100    0.3350    2.1760 H   0  0  0  0  0  0  0  0  0  0  0  0
   -3.4860   -0.6540   -2.9480 C   0  0  0  0  0  0  0  0  0  0  0  0
   -4.0930   -0.7580   -1.5800 C   0  0  2  0  0  0  0  0  0  0  0  0
   -3.4880    0.1200   -0.6060 N   0  0  0  0  0  0  0  0  0  0  0  0
   -3.9650   -2.1970   -1.1410 C   0  0  0  0  0  0  0  0  0  0  0  0
   -4.3800   -3.1320   -1.8720 O   0  0  0  0  0  0  0  0  0  0  0  0
   -3.3960   -2.5450    0.0680 O   0  0  0  0  0  0  0  0  0  0  0  0
   -4.2410   -0.4970   -3.7480 H   0  0  0  0  0  0  0  0  0  0  0  0
   -2.8590   -1.5360   -3.1770 H   0  0  0  0  0  0  0  0  0  0  0  0
   -2.7970    0.2300   -2.9980 H   0  0  0  0  0  0  0  0  0  0  0  0
   -5.2000   -0.5550   -1.5880 H   0  0  0  0  0  0  0  0  0  0  0  0
   -4.0550    0.9400   -0.2240 H   0  0  0  0  0  0  0  0  0  0  0  0
  1 12  1  0  0  0  0
  2  1  1  0  0  0  0
  2  3  2  0  0  0  0
  3 14  1  0  0  0  0
  4  2  1  0  0  0  0
  5  4  1  0  0  0  0
  5 16  1  0  0  0  0
  5 17  1  0  0  0  0
  6  5  1  0  0  0  0
  7 20  1  0  0  0  0
  7  6  1  0  0  0  0
  7  8  1  0  0  0  0
  8 22  1  6  0  0  0
  8  9  1  0  0  0  0
  9 23  1  0  0  0  0
  9 24  1  0  0  0  0
 10  8  1  0  0  0  0
 10 30  1  0  0  0  0
 11 10  2  0  0  0  0
 13  1  1  0  0  0  0
 15  4  1  0  0  0  0
 18  6  1  0  0  0  0
 19  6  1  0  0  0  0
 21  7  1  0  0  0  0
 25 33  1  0  0  0  0
 25 35  1  0  0  0  0
 26 25  1  0  0  0  0
 27 26  1  0  0  0  0
 27 37  1  0  0  0  0
 28 29  1  0  0  0  0
 28 27  1  0  0  0  0
 29 30  1  0  0  0  0
 29 40  1  1  0  0  0
 30 41  1  0  0  0  0
 31 29  1  0  0  0  0
 32 31  2  0  0  0  0
 34 25  1  0  0  0  0
 36 27  1  0  0  0  0
 38 28  1  0  0  0  0
 39 28  1  0  0  0  0
 42 43  1  0  0  0  0
 43 51  1  6  0  0  0
 43 45  1  0  0  0  0
 43 44  1  0  0  0  0
 44 52  1  0  0  0  0
 44 31  1  0  0  0  0
 45 47  1  0  0  0  0
 46 45  2  0  0  0  0
 48 42  1  0  0  0  0
 49 42  1  0  0  0  0
 50 42  1  0  0  0  0
M  END
$$$$
