RMF.pdb
 OpenBabel07022418063D

 62 62  0  0  1  0  0  0  0  0999 V2000
    4.1340   -2.4870    3.7160 N   0  0  0  0  0  0  0  0  0  0  0  0
    5.2330   -2.0200    2.9610 C   0  0  0  0  0  0  0  0  0  0  0  0
    6.2650   -1.4790    3.5150 N   0  0  0  0  0  0  0  0  0  0  0  0
    5.2290   -2.1410    1.5260 N   0  0  0  0  0  0  0  0  0  0  0  0
    5.8950   -1.1670    0.6930 C   0  0  0  0  0  0  0  0  0  0  0  0
    5.1570    0.1700    0.7750 C   0  0  0  0  0  0  0  0  0  0  0  0
    3.7530   -0.0900    0.2840 C   0  0  0  0  0  0  0  0  0  0  0  0
    2.8940    1.1620    0.3080 C   0  0  2  0  0  0  0  0  0  0  0  0
    2.8000    1.6760    1.6570 N   0  0  0  0  0  0  0  0  0  0  0  0
    1.5470    0.8500   -0.1870 C   0  0  0  0  0  0  0  0  0  0  0  0
    1.3850    0.3990   -1.3390 O   0  0  0  0  0  0  0  0  0  0  0  0
    3.5920   -3.3090    3.3720 H   0  0  0  0  0  0  0  0  0  0  0  0
    3.8660   -2.0190    4.6030 H   0  0  0  0  0  0  0  0  0  0  0  0
    6.2740   -1.3890    4.5480 H   0  0  0  0  0  0  0  0  0  0  0  0
    4.7420   -2.9350    1.0830 H   0  0  0  0  0  0  0  0  0  0  0  0
    5.9520   -1.5370   -0.3500 H   0  0  0  0  0  0  0  0  0  0  0  0
    6.9390   -0.9970    1.0760 H   0  0  0  0  0  0  0  0  0  0  0  0
    5.6790    0.9200    0.1710 H   0  0  0  0  0  0  0  0  0  0  0  0
    5.0940    0.4260    1.8610 H   0  0  0  0  0  0  0  0  0  0  0  0
    3.3200   -0.8870    0.9130 H   0  0  0  0  0  0  0  0  0  0  0  0
    3.8500   -0.4380   -0.7720 H   0  0  0  0  0  0  0  0  0  0  0  0
    3.3110    1.9480   -0.3520 H   0  0  0  0  0  0  0  0  0  0  0  0
    3.7510    1.9430    2.0140 H   0  0  0  0  0  0  0  0  0  0  0  0
    2.2630    2.5940    1.6060 H   0  0  0  0  0  0  0  0  0  0  0  0
   -2.1630    3.1120    2.1060 C   0  0  0  0  0  0  0  0  0  0  0  0
   -2.4670    3.5650    0.4040 S   0  0  0  0  0  0  0  0  0  0  0  0
   -1.2950    3.0070   -0.7930 C   0  0  0  0  0  0  0  0  0  0  0  0
   -1.3090    1.5350   -1.0520 C   0  0  0  0  0  0  0  0  0  0  0  0
   -0.9410    0.7520    0.1500 C   0  0  2  0  0  0  0  0  0  0  0  0
    0.3980    1.0580    0.6430 N   0  0  0  0  0  0  0  0  0  0  0  0
   -0.9260   -0.7310   -0.1430 C   0  0  0  0  0  0  0  0  0  0  0  0
    0.0960   -1.4340    0.0410 O   0  0  0  0  0  0  0  0  0  0  0  0
   -2.4170    3.9810    2.8120 H   0  0  0  0  0  0  0  0  0  0  0  0
   -2.9050    2.3100    2.3970 H   0  0  0  0  0  0  0  0  0  0  0  0
   -1.1330    2.8270    2.2980 H   0  0  0  0  0  0  0  0  0  0  0  0
   -1.4250    3.5800   -1.7710 H   0  0  0  0  0  0  0  0  0  0  0  0
   -0.2510    3.2990   -0.4400 H   0  0  0  0  0  0  0  0  0  0  0  0
   -0.6800    1.2630   -1.9370 H   0  0  0  0  0  0  0  0  0  0  0  0
   -2.3640    1.2690   -1.3170 H   0  0  0  0  0  0  0  0  0  0  0  0
   -1.6630    0.9620    0.9610 H   0  0  0  0  0  0  0  0  0  0  0  0
    0.5960    1.4290    1.5970 H   0  0  0  0  0  0  0  0  0  0  0  0
   -2.0750   -1.3940   -0.6420 N   0  0  0  0  0  0  0  0  0  0  0  0
   -2.1580   -2.7950   -0.9500 C   0  0  1  0  0  0  0  0  0  0  0  0
   -3.0950   -3.5610   -0.0790 C   0  0  0  0  0  0  0  0  0  0  0  0
   -4.4830   -3.1370   -0.1020 C   0  0  0  0  0  0  0  0  0  0  0  0
   -4.9050   -2.1760    0.7900 C   0  0  0  0  0  0  0  0  0  0  0  0
   -6.1990   -1.7000    0.8560 C   0  0  0  0  0  0  0  0  0  0  0  0
   -7.1220   -2.2330   -0.0390 C   0  0  0  0  0  0  0  0  0  0  0  0
   -6.7180   -3.1970   -0.9400 C   0  0  0  0  0  0  0  0  0  0  0  0
   -5.4140   -3.6500   -0.9770 C   0  0  0  0  0  0  0  0  0  0  0  0
   -2.3690   -2.9720   -2.3840 C   0  0  0  0  0  0  0  0  0  0  0  0
   -2.4440   -1.9590   -3.1230 O   0  0  0  0  0  0  0  0  0  0  0  0
   -2.5000   -4.2010   -3.0260 O   0  0  0  0  0  0  0  0  0  0  0  0
   -2.9310   -0.7790   -0.7910 H   0  0  0  0  0  0  0  0  0  0  0  0
   -1.1270   -3.2060   -0.7200 H   0  0  0  0  0  0  0  0  0  0  0  0
   -2.7050   -3.4750    0.9770 H   0  0  0  0  0  0  0  0  0  0  0  0
   -3.0340   -4.6420   -0.3190 H   0  0  0  0  0  0  0  0  0  0  0  0
   -4.1920   -1.7460    1.5010 H   0  0  0  0  0  0  0  0  0  0  0  0
   -6.4620   -0.9420    1.5840 H   0  0  0  0  0  0  0  0  0  0  0  0
   -8.1520   -1.8650    0.0040 H   0  0  0  0  0  0  0  0  0  0  0  0
   -7.4750   -3.5750   -1.6100 H   0  0  0  0  0  0  0  0  0  0  0  0
   -5.1500   -4.4200   -1.7170 H   0  0  0  0  0  0  0  0  0  0  0  0
  1 13  1  0  0  0  0
  2  3  2  0  0  0  0
  2  1  1  0  0  0  0
  3 14  1  0  0  0  0
  4  2  1  0  0  0  0
  5  6  1  0  0  0  0
  5 17  1  0  0  0  0
  5  4  1  0  0  0  0
  6 19  1  0  0  0  0
  7  8  1  0  0  0  0
  7  6  1  0  0  0  0
  7 20  1  0  0  0  0
  8 22  1  6  0  0  0
  8  9  1  0  0  0  0
  9 23  1  0  0  0  0
 10  8  1  0  0  0  0
 10 30  1  0  0  0  0
 11 10  2  0  0  0  0
 12  1  1  0  0  0  0
 15  4  1  0  0  0  0
 16  5  1  0  0  0  0
 18  6  1  0  0  0  0
 21  7  1  0  0  0  0
 24  9  1  0  0  0  0
 25 35  1  0  0  0  0
 25 34  1  0  0  0  0
 25 33  1  0  0  0  0
 26 25  1  0  0  0  0
 27 37  1  0  0  0  0
 27 26  1  0  0  0  0
 28 27  1  0  0  0  0
 28 29  1  0  0  0  0
 29 30  1  0  0  0  0
 29 40  1  1  0  0  0
 30 41  1  0  0  0  0
 31 32  2  0  0  0  0
 31 29  1  0  0  0  0
 36 27  1  0  0  0  0
 38 28  1  0  0  0  0
 39 28  1  0  0  0  0
 42 31  1  0  0  0  0
 43 55  1  1  0  0  0
 43 42  1  0  0  0  0
 43 44  1  0  0  0  0
 44 56  1  0  0  0  0
 45 44  1  0  0  0  0
 45 46  1  0  0  0  0
 46 47  2  0  0  0  0
 46 58  1  0  0  0  0
 47 59  1  0  0  0  0
 48 60  1  0  0  0  0
 48 47  1  0  0  0  0
 49 48  2  0  0  0  0
 50 49  1  0  0  0  0
 50 45  2  0  0  0  0
 51 43  1  0  0  0  0
 52 51  2  0  0  0  0
 53 51  1  0  0  0  0
 54 42  1  0  0  0  0
 57 44  1  0  0  0  0
 61 49  1  0  0  0  0
 62 50  1  0  0  0  0
M  END
$$$$
