RMG.pdb
 OpenBabel07022418063D

 49 48  0  0  1  0  0  0  0  0999 V2000
   -0.1840   -6.3120    1.2330 N   0  0  0  0  0  0  0  0  0  0  0  0
    0.6260   -5.1590    1.4860 C   0  0  0  0  0  0  0  0  0  0  0  0
    1.7030   -5.2440    2.2240 N   0  0  0  0  0  0  0  0  0  0  0  0
    0.2760   -3.8940    0.9420 N   0  0  0  0  0  0  0  0  0  0  0  0
    1.0710   -2.6940    1.1690 C   0  0  0  0  0  0  0  0  0  0  0  0
    2.3960   -2.7630    0.4860 C   0  0  0  0  0  0  0  0  0  0  0  0
    3.2320   -1.5820    0.7280 C   0  0  0  0  0  0  0  0  0  0  0  0
    2.8110   -0.2360    0.2730 C   0  0  2  0  0  0  0  0  0  0  0  0
    3.9530    0.6410    0.7300 N   0  0  0  0  0  0  0  0  0  0  0  0
    1.5950    0.3260    0.8850 C   0  0  0  0  0  0  0  0  0  0  0  0
    1.5450    0.5390    2.1210 O   0  0  0  0  0  0  0  0  0  0  0  0
   -0.9470   -6.6320    1.8510 H   0  0  0  0  0  0  0  0  0  0  0  0
    0.0230   -6.8490    0.3670 H   0  0  0  0  0  0  0  0  0  0  0  0
    1.9340   -6.1650    2.6080 H   0  0  0  0  0  0  0  0  0  0  0  0
   -0.5850   -3.8480    0.3630 H   0  0  0  0  0  0  0  0  0  0  0  0
    0.4320   -1.8440    0.9080 H   0  0  0  0  0  0  0  0  0  0  0  0
    1.1770   -2.6410    2.2900 H   0  0  0  0  0  0  0  0  0  0  0  0
    2.2920   -3.0230   -0.6020 H   0  0  0  0  0  0  0  0  0  0  0  0
    2.9070   -3.6930    0.9010 H   0  0  0  0  0  0  0  0  0  0  0  0
    3.4870   -1.4640    1.8400 H   0  0  0  0  0  0  0  0  0  0  0  0
    4.2720   -1.7850    0.2890 H   0  0  0  0  0  0  0  0  0  0  0  0
    2.8090   -0.1060   -0.8290 H   0  0  0  0  0  0  0  0  0  0  0  0
    4.2090    0.3600    1.7040 H   0  0  0  0  0  0  0  0  0  0  0  0
    3.5250    1.5880    0.7940 H   0  0  0  0  0  0  0  0  0  0  0  0
   -1.6180    5.8370    1.5220 C   0  0  0  0  0  0  0  0  0  0  0  0
   -0.1750    5.2610    0.5910 S   0  0  0  0  0  0  0  0  0  0  0  0
    0.1480    3.5210    0.9520 C   0  0  0  0  0  0  0  0  0  0  0  0
   -0.9980    2.6590    0.4140 C   0  0  0  0  0  0  0  0  0  0  0  0
   -0.7520    1.2080    0.7110 C   0  0  2  0  0  0  0  0  0  0  0  0
    0.4310    0.6650    0.1490 N   0  0  0  0  0  0  0  0  0  0  0  0
   -1.9880    0.4320    0.4610 C   0  0  0  0  0  0  0  0  0  0  0  0
   -3.1050    0.7610    0.9410 O   0  0  0  0  0  0  0  0  0  0  0  0
   -1.4200    6.8300    1.9470 H   0  0  0  0  0  0  0  0  0  0  0  0
   -1.8780    5.1230    2.3520 H   0  0  0  0  0  0  0  0  0  0  0  0
   -2.4890    5.8070    0.8340 H   0  0  0  0  0  0  0  0  0  0  0  0
    0.1170    3.3980    2.0540 H   0  0  0  0  0  0  0  0  0  0  0  0
    1.1190    3.1770    0.6020 H   0  0  0  0  0  0  0  0  0  0  0  0
   -1.2450    2.8910   -0.6240 H   0  0  0  0  0  0  0  0  0  0  0  0
   -1.8790    2.9540    1.0220 H   0  0  0  0  0  0  0  0  0  0  0  0
   -0.6010    1.1900    1.8350 H   0  0  0  0  0  0  0  0  0  0  0  0
    0.4180    0.5140   -0.9050 H   0  0  0  0  0  0  0  0  0  0  0  0
   -2.0010   -0.7550   -0.3490 N   0  0  0  0  0  0  0  0  0  0  0  0
   -3.2250   -1.4960   -0.5720 C   0  0  0  0  0  0  0  0  0  0  0  0
   -2.9090   -2.6480   -1.4540 C   0  0  0  0  0  0  0  0  0  0  0  0
   -3.7890   -3.4790   -1.7860 O   0  0  0  0  0  0  0  0  0  0  0  0
   -1.6350   -2.8510   -1.9470 O   0  0  0  0  0  0  0  0  0  0  0  0
   -1.1020   -1.0510   -0.7600 H   0  0  0  0  0  0  0  0  0  0  0  0
   -3.6220   -1.9120    0.3790 H   0  0  0  0  0  0  0  0  0  0  0  0
   -3.9910   -0.8900   -1.1090 H   0  0  0  0  0  0  0  0  0  0  0  0
  1  2  1  0  0  0  0
  1 12  1  0  0  0  0
  2  3  2  0  0  0  0
  3 14  1  0  0  0  0
  4  5  1  0  0  0  0
  4  2  1  0  0  0  0
  5 17  1  0  0  0  0
  6  7  1  0  0  0  0
  6 19  1  0  0  0  0
  6  5  1  0  0  0  0
  7 20  1  0  0  0  0
  8 22  1  6  0  0  0
  8  7  1  0  0  0  0
  8  9  1  0  0  0  0
  8 10  1  0  0  0  0
  9 24  1  0  0  0  0
  9 23  1  0  0  0  0
 10 11  2  0  0  0  0
 13  1  1  0  0  0  0
 15  4  1  0  0  0  0
 16  5  1  0  0  0  0
 18  6  1  0  0  0  0
 21  7  1  0  0  0  0
 25 33  1  0  0  0  0
 25 34  1  0  0  0  0
 26 27  1  0  0  0  0
 26 25  1  0  0  0  0
 27 36  1  0  0  0  0
 28 29  1  0  0  0  0
 28 27  1  0  0  0  0
 28 39  1  0  0  0  0
 29 40  1  1  0  0  0
 30 29  1  0  0  0  0
 30 10  1  0  0  0  0
 31 29  1  0  0  0  0
 31 32  2  0  0  0  0
 35 25  1  0  0  0  0
 37 27  1  0  0  0  0
 38 28  1  0  0  0  0
 41 30  1  0  0  0  0
 42 31  1  0  0  0  0
 43 42  1  0  0  0  0
 43 48  1  0  0  0  0
 44 43  1  0  0  0  0
 45 44  1  0  0  0  0
 46 44  2  0  0  0  0
 47 42  1  0  0  0  0
 49 43  1  0  0  0  0
M  END
$$$$
