RMP.pdb
 OpenBabel07022418063D

 56 56  0  0  1  0  0  0  0  0999 V2000
    1.0090   -3.4250    4.0600 N   0  0  0  0  0  0  0  0  0  0  0  0
    1.1810   -2.0110    4.1480 C   0  0  0  0  0  0  0  0  0  0  0  0
    0.2440   -1.3170    4.7250 N   0  0  0  0  0  0  0  0  0  0  0  0
    2.3330   -1.3640    3.6300 N   0  0  0  0  0  0  0  0  0  0  0  0
    2.2580    0.0280    3.2180 C   0  0  0  0  0  0  0  0  0  0  0  0
    3.5550    0.5440    2.7010 C   0  0  0  0  0  0  0  0  0  0  0  0
    4.1030   -0.1210    1.4920 C   0  0  0  0  0  0  0  0  0  0  0  0
    3.2900   -0.0200    0.2500 C   0  0  2  0  0  0  0  0  0  0  0  0
    3.1240    1.3790   -0.1170 N   0  0  0  0  0  0  0  0  0  0  0  0
    2.0020   -0.7380    0.2500 C   0  0  0  0  0  0  0  0  0  0  0  0
    1.8700   -1.9260    0.6310 O   0  0  0  0  0  0  0  0  0  0  0  0
    1.4450   -3.9610    3.2830 H   0  0  0  0  0  0  0  0  0  0  0  0
    0.4500   -3.9570    4.7580 H   0  0  0  0  0  0  0  0  0  0  0  0
   -0.5970   -1.7970    5.1030 H   0  0  0  0  0  0  0  0  0  0  0  0
    3.2120   -1.9130    3.5580 H   0  0  0  0  0  0  0  0  0  0  0  0
    1.9630    0.6330    4.0870 H   0  0  0  0  0  0  0  0  0  0  0  0
    1.4290    0.0890    2.4920 H   0  0  0  0  0  0  0  0  0  0  0  0
    4.2920    0.4690    3.5550 H   0  0  0  0  0  0  0  0  0  0  0  0
    3.4340    1.6500    2.5730 H   0  0  0  0  0  0  0  0  0  0  0  0
    5.1140    0.3440    1.2860 H   0  0  0  0  0  0  0  0  0  0  0  0
    4.3780   -1.1920    1.7310 H   0  0  0  0  0  0  0  0  0  0  0  0
    3.8890   -0.4470   -0.6240 H   0  0  0  0  0  0  0  0  0  0  0  0
    2.5320    1.8980    0.5640 H   0  0  0  0  0  0  0  0  0  0  0  0
    2.8480    1.5040   -1.0990 H   0  0  0  0  0  0  0  0  0  0  0  0
   -0.2510    2.9270    1.8860 C   0  0  0  0  0  0  0  0  0  0  0  0
   -0.7110    2.5060    0.2040 S   0  0  0  0  0  0  0  0  0  0  0  0
   -1.9840    1.2590    0.1110 C   0  0  0  0  0  0  0  0  0  0  0  0
   -1.5590   -0.0850    0.5580 C   0  0  0  0  0  0  0  0  0  0  0  0
   -0.4720   -0.7640   -0.2110 C   0  0  2  0  0  0  0  0  0  0  0  0
    0.7990   -0.0700   -0.2110 N   0  0  0  0  0  0  0  0  0  0  0  0
   -0.9020   -1.0250   -1.6330 C   0  0  0  0  0  0  0  0  0  0  0  0
   -0.2000   -0.4920   -2.5300 O   0  0  0  0  0  0  0  0  0  0  0  0
    0.2950    2.1550    2.4340 H   0  0  0  0  0  0  0  0  0  0  0  0
    0.4470    3.8070    1.8220 H   0  0  0  0  0  0  0  0  0  0  0  0
   -1.1750    3.2630    2.4090 H   0  0  0  0  0  0  0  0  0  0  0  0
   -2.4550    1.2600   -0.9020 H   0  0  0  0  0  0  0  0  0  0  0  0
   -2.8240    1.6130    0.7900 H   0  0  0  0  0  0  0  0  0  0  0  0
   -1.1930   -0.0660    1.6290 H   0  0  0  0  0  0  0  0  0  0  0  0
   -2.4380   -0.7610    0.5960 H   0  0  0  0  0  0  0  0  0  0  0  0
   -0.2960   -1.7590    0.2750 H   0  0  0  0  0  0  0  0  0  0  0  0
    0.9350    0.9000   -0.5380 H   0  0  0  0  0  0  0  0  0  0  0  0
   -1.9980   -1.8020   -1.9810 N   0  0  0  0  0  0  0  0  0  0  0  0
   -2.9200   -2.5170   -1.1500 C   0  0  0  0  0  0  0  0  0  0  0  0
   -3.3140   -3.7350   -2.0040 C   0  0  0  0  0  0  0  0  0  0  0  0
   -2.6340   -3.5440   -3.3420 C   0  0  0  0  0  0  0  0  0  0  0  0
   -2.4320   -2.0500   -3.3580 C   0  0  1  0  0  0  0  0  0  0  0  0
   -3.7120   -1.3630   -3.6300 C   0  0  0  0  0  0  0  0  0  0  0  0
   -4.2270   -0.6690   -2.7220 O   0  0  0  0  0  0  0  0  0  0  0  0
   -4.3580   -1.4610   -4.8510 O   0  0  0  0  0  0  0  0  0  0  0  0
   -2.4660   -2.9570   -0.2380 H   0  0  0  0  0  0  0  0  0  0  0  0
   -3.8180   -1.9620   -0.8440 H   0  0  0  0  0  0  0  0  0  0  0  0
   -4.4100   -3.7020   -2.1060 H   0  0  0  0  0  0  0  0  0  0  0  0
   -3.0470   -4.6850   -1.5310 H   0  0  0  0  0  0  0  0  0  0  0  0
   -3.3220   -3.9060   -4.1220 H   0  0  0  0  0  0  0  0  0  0  0  0
   -1.6390   -4.0610   -3.3680 H   0  0  0  0  0  0  0  0  0  0  0  0
   -1.6380   -1.7460   -4.0770 H   0  0  0  0  0  0  0  0  0  0  0  0
  1  2  1  0  0  0  0
  1 13  1  0  0  0  0
  2  3  2  0  0  0  0
  3 14  1  0  0  0  0
  4  2  1  0  0  0  0
  5  4  1  0  0  0  0
  5 16  1  0  0  0  0
  6  5  1  0  0  0  0
  6 18  1  0  0  0  0
  7 21  1  0  0  0  0
  7  6  1  0  0  0  0
  8 22  1  6  0  0  0
  8  7  1  0  0  0  0
  9  8  1  0  0  0  0
  9 23  1  0  0  0  0
 10  8  1  0  0  0  0
 10 11  2  0  0  0  0
 12  1  1  0  0  0  0
 15  4  1  0  0  0  0
 17  5  1  0  0  0  0
 19  6  1  0  0  0  0
 20  7  1  0  0  0  0
 24  9  1  0  0  0  0
 25 35  1  0  0  0  0
 25 33  1  0  0  0  0
 26 25  1  0  0  0  0
 27 26  1  0  0  0  0
 27 28  1  0  0  0  0
 27 37  1  0  0  0  0
 28 39  1  0  0  0  0
 28 38  1  0  0  0  0
 29 30  1  0  0  0  0
 29 40  1  1  0  0  0
 29 28  1  0  0  0  0
 30 10  1  0  0  0  0
 31 29  1  0  0  0  0
 32 31  2  0  0  0  0
 34 25  1  0  0  0  0
 36 27  1  0  0  0  0
 41 30  1  0  0  0  0
 42 31  1  0  0  0  0
 42 43  1  0  0  0  0
 43 51  1  0  0  0  0
 43 50  1  0  0  0  0
 44 53  1  0  0  0  0
 44 43  1  0  0  0  0
 45 44  1  0  0  0  0
 46 56  1  6  0  0  0
 46 45  1  0  0  0  0
 46 42  1  0  0  0  0
 47 46  1  0  0  0  0
 47 48  1  0  0  0  0
 49 47  2  0  0  0  0
 52 44  1  0  0  0  0
 54 45  1  0  0  0  0
 55 45  1  0  0  0  0
M  END
$$$$
