RMS.pdb
 OpenBabel07022418063D

 53 52  0  0  1  0  0  0  0  0999 V2000
    2.7900   -5.1450    4.3110 N   0  0  0  0  0  0  0  0  0  0  0  0
    1.5630   -4.7360    3.6950 C   0  0  0  0  0  0  0  0  0  0  0  0
    0.4330   -4.8770    4.2900 N   0  0  0  0  0  0  0  0  0  0  0  0
    1.6360   -4.1680    2.4030 N   0  0  0  0  0  0  0  0  0  0  0  0
    0.4620   -3.5920    1.7570 C   0  0  0  0  0  0  0  0  0  0  0  0
    0.8280   -3.0610    0.4030 C   0  0  0  0  0  0  0  0  0  0  0  0
    1.8570   -2.0050    0.3900 C   0  0  0  0  0  0  0  0  0  0  0  0
    1.5960   -0.7440    1.1080 C   0  0  2  0  0  0  0  0  0  0  0  0
    1.3750   -0.9210    2.5280 N   0  0  0  0  0  0  0  0  0  0  0  0
    0.5490    0.1220    0.5290 C   0  0  0  0  0  0  0  0  0  0  0  0
    0.5620    0.4080   -0.6930 O   0  0  0  0  0  0  0  0  0  0  0  0
    3.4100   -5.8000    3.8110 H   0  0  0  0  0  0  0  0  0  0  0  0
    3.0440   -4.7810    5.2480 H   0  0  0  0  0  0  0  0  0  0  0  0
    0.3450   -5.2870    5.2320 H   0  0  0  0  0  0  0  0  0  0  0  0
    2.5460   -4.1610    1.8970 H   0  0  0  0  0  0  0  0  0  0  0  0
    0.0370   -2.8250    2.4000 H   0  0  0  0  0  0  0  0  0  0  0  0
   -0.3000   -4.4020    1.6240 H   0  0  0  0  0  0  0  0  0  0  0  0
    1.2850   -3.9490   -0.1420 H   0  0  0  0  0  0  0  0  0  0  0  0
   -0.0660   -2.8300   -0.2170 H   0  0  0  0  0  0  0  0  0  0  0  0
    2.1380   -1.8040   -0.6890 H   0  0  0  0  0  0  0  0  0  0  0  0
    2.8010   -2.4600    0.8200 H   0  0  0  0  0  0  0  0  0  0  0  0
    2.5580   -0.1340    1.0560 H   0  0  0  0  0  0  0  0  0  0  0  0
    1.4560    0.0200    3.0060 H   0  0  0  0  0  0  0  0  0  0  0  0
    2.1370   -1.4940    2.9700 H   0  0  0  0  0  0  0  0  0  0  0  0
    2.5760    4.1380    0.1100 C   0  0  0  0  0  0  0  0  0  0  0  0
    1.3070    3.1670    0.9650 S   0  0  0  0  0  0  0  0  0  0  0  0
   -0.3370    3.6660    0.4620 C   0  0  0  0  0  0  0  0  0  0  0  0
   -1.4490    2.9360    1.1010 C   0  0  0  0  0  0  0  0  0  0  0  0
   -1.5640    1.4850    0.9110 C   0  0  2  0  0  0  0  0  0  0  0  0
   -0.4930    0.6510    1.3330 N   0  0  0  0  0  0  0  0  0  0  0  0
   -2.2290    1.0590   -0.3710 C   0  0  0  0  0  0  0  0  0  0  0  0
   -2.9420    1.8650   -1.0230 O   0  0  0  0  0  0  0  0  0  0  0  0
    3.1430    3.5230   -0.6210 H   0  0  0  0  0  0  0  0  0  0  0  0
    2.1630    5.0300   -0.3790 H   0  0  0  0  0  0  0  0  0  0  0  0
    3.3530    4.5060    0.8400 H   0  0  0  0  0  0  0  0  0  0  0  0
   -0.4180    3.6940   -0.6550 H   0  0  0  0  0  0  0  0  0  0  0  0
   -0.4530    4.7510    0.7600 H   0  0  0  0  0  0  0  0  0  0  0  0
   -1.4860    3.1840    2.1950 H   0  0  0  0  0  0  0  0  0  0  0  0
   -2.4020    3.4010    0.7080 H   0  0  0  0  0  0  0  0  0  0  0  0
   -2.4410    1.1920    1.6460 H   0  0  0  0  0  0  0  0  0  0  0  0
   -0.4270    0.3680    2.3610 H   0  0  0  0  0  0  0  0  0  0  0  0
   -2.2920   -1.3750   -4.3880 O   0  0  0  0  0  0  0  0  0  0  0  0
   -1.7040   -1.0020   -3.1880 C   0  0  0  0  0  0  0  0  0  0  0  0
   -2.7480   -0.6330   -2.1540 C   0  0  2  0  0  0  0  0  0  0  0  0
   -2.0990   -0.2420   -0.8960 N   0  0  0  0  0  0  0  0  0  0  0  0
   -3.6290   -1.8020   -1.9320 C   0  0  0  0  0  0  0  0  0  0  0  0
   -3.7140   -2.2930   -0.7680 O   0  0  0  0  0  0  0  0  0  0  0  0
   -4.3420   -2.3400   -2.9830 O   0  0  0  0  0  0  0  0  0  0  0  0
   -2.3390   -2.3690   -4.4040 H   0  0  0  0  0  0  0  0  0  0  0  0
   -1.0430   -1.8180   -2.8310 H   0  0  0  0  0  0  0  0  0  0  0  0
   -1.0370   -0.1360   -3.4000 H   0  0  0  0  0  0  0  0  0  0  0  0
   -3.2890    0.2640   -2.5130 H   0  0  0  0  0  0  0  0  0  0  0  0
   -1.5700   -1.0010   -0.4180 H   0  0  0  0  0  0  0  0  0  0  0  0
  1 13  1  0  0  0  0
  2  3  2  0  0  0  0
  2  1  1  0  0  0  0
  3 14  1  0  0  0  0
  4  2  1  0  0  0  0
  5 16  1  0  0  0  0
  5  4  1  0  0  0  0
  6  5  1  0  0  0  0
  7  6  1  0  0  0  0
  7 21  1  0  0  0  0
  7  8  1  0  0  0  0
  8 22  1  6  0  0  0
  8  9  1  0  0  0  0
  9 24  1  0  0  0  0
  9 23  1  0  0  0  0
 10  8  1  0  0  0  0
 10 30  1  0  0  0  0
 11 10  2  0  0  0  0
 12  1  1  0  0  0  0
 15  4  1  0  0  0  0
 17  5  1  0  0  0  0
 18  6  1  0  0  0  0
 19  6  1  0  0  0  0
 20  7  1  0  0  0  0
 25 35  1  0  0  0  0
 25 26  1  0  0  0  0
 27 37  1  0  0  0  0
 27 26  1  0  0  0  0
 27 28  1  0  0  0  0
 28 38  1  0  0  0  0
 29 28  1  0  0  0  0
 29 30  1  0  0  0  0
 29 40  1  1  0  0  0
 30 41  1  0  0  0  0
 31 29  1  0  0  0  0
 32 31  2  0  0  0  0
 33 25  1  0  0  0  0
 34 25  1  0  0  0  0
 36 27  1  0  0  0  0
 39 28  1  0  0  0  0
 42 43  1  0  0  0  0
 43 50  1  0  0  0  0
 43 44  1  0  0  0  0
 44 52  1  6  0  0  0
 44 46  1  0  0  0  0
 44 45  1  0  0  0  0
 45 53  1  0  0  0  0
 45 31  1  0  0  0  0
 46 47  1  0  0  0  0
 48 46  2  0  0  0  0
 49 42  1  0  0  0  0
 51 43  1  0  0  0  0
M  END
$$$$
