RMT.pdb
 OpenBabel07022418063D

 56 55  0  0  1  0  0  0  0  0999 V2000
    1.4270   -1.6010    4.7800 N   0  0  0  0  0  0  0  0  0  0  0  0
    1.9770   -2.1990    3.6200 C   0  0  0  0  0  0  0  0  0  0  0  0
    1.8580   -3.4410    3.3380 N   0  0  0  0  0  0  0  0  0  0  0  0
    2.7110   -1.3820    2.6960 N   0  0  0  0  0  0  0  0  0  0  0  0
    3.8350   -1.8950    1.9690 C   0  0  0  0  0  0  0  0  0  0  0  0
    4.3510   -0.9840    0.9180 C   0  0  0  0  0  0  0  0  0  0  0  0
    3.5550   -0.6860   -0.2680 C   0  0  0  0  0  0  0  0  0  0  0  0
    2.2310   -0.0420   -0.2280 C   0  0  2  0  0  0  0  0  0  0  0  0
    2.2250    1.2390    0.3730 N   0  0  0  0  0  0  0  0  0  0  0  0
    1.1610   -0.9790    0.1790 C   0  0  0  0  0  0  0  0  0  0  0  0
    1.2640   -2.2290    0.1160 O   0  0  0  0  0  0  0  0  0  0  0  0
    2.0570   -1.4620    5.6040 H   0  0  0  0  0  0  0  0  0  0  0  0
    0.4370   -1.2970    4.8550 H   0  0  0  0  0  0  0  0  0  0  0  0
    1.3390   -4.0820    3.9640 H   0  0  0  0  0  0  0  0  0  0  0  0
    2.4320   -0.3920    2.5820 H   0  0  0  0  0  0  0  0  0  0  0  0
    4.6370   -2.1040    2.7520 H   0  0  0  0  0  0  0  0  0  0  0  0
    3.6280   -2.9270    1.5690 H   0  0  0  0  0  0  0  0  0  0  0  0
    4.7430   -0.0200    1.3900 H   0  0  0  0  0  0  0  0  0  0  0  0
    5.3220   -1.4700    0.5340 H   0  0  0  0  0  0  0  0  0  0  0  0
    4.1940   -0.0550   -1.0030 H   0  0  0  0  0  0  0  0  0  0  0  0
    3.4690   -1.6790   -0.8480 H   0  0  0  0  0  0  0  0  0  0  0  0
    1.9710    0.2070   -1.3630 H   0  0  0  0  0  0  0  0  0  0  0  0
    2.2130    2.0320   -0.2730 H   0  0  0  0  0  0  0  0  0  0  0  0
    1.6430    1.3450    1.2010 H   0  0  0  0  0  0  0  0  0  0  0  0
   -0.9410    2.5150    3.1350 C   0  0  0  0  0  0  0  0  0  0  0  0
   -1.9400    1.9120    1.7810 S   0  0  0  0  0  0  0  0  0  0  0  0
   -2.7890    0.3870    2.0640 C   0  0  0  0  0  0  0  0  0  0  0  0
   -1.9860   -0.8480    2.2140 C   0  0  0  0  0  0  0  0  0  0  0  0
   -1.1300   -1.2710    1.0900 C   0  0  2  0  0  0  0  0  0  0  0  0
   -0.0780   -0.4050    0.6750 N   0  0  0  0  0  0  0  0  0  0  0  0
   -1.9950   -1.6060   -0.1200 C   0  0  0  0  0  0  0  0  0  0  0  0
   -2.9970   -2.3010    0.0840 O   0  0  0  0  0  0  0  0  0  0  0  0
   -0.2860    1.7860    3.6050 H   0  0  0  0  0  0  0  0  0  0  0  0
   -0.2630    3.3040    2.6990 H   0  0  0  0  0  0  0  0  0  0  0  0
   -1.5580    3.0890    3.8840 H   0  0  0  0  0  0  0  0  0  0  0  0
   -3.5140    0.2260    1.2300 H   0  0  0  0  0  0  0  0  0  0  0  0
   -3.4290    0.4770    2.9940 H   0  0  0  0  0  0  0  0  0  0  0  0
   -1.3990   -0.8530    3.1820 H   0  0  0  0  0  0  0  0  0  0  0  0
   -2.7250   -1.6910    2.3880 H   0  0  0  0  0  0  0  0  0  0  0  0
   -0.6970   -2.2880    1.3310 H   0  0  0  0  0  0  0  0  0  0  0  0
   -0.1510    0.6320    0.7010 H   0  0  0  0  0  0  0  0  0  0  0  0
   -3.9100   -0.6970   -4.4160 C   0  0  0  0  0  0  0  0  0  0  0  0
   -2.9390   -0.2270   -3.3320 C   0  0  1  0  0  0  0  0  0  0  0  0
   -3.7020    0.5410   -2.4520 O   0  0  0  0  0  0  0  0  0  0  0  0
   -2.4860   -1.4530   -2.5860 C   0  0  2  0  0  0  0  0  0  0  0  0
   -1.6860   -1.1550   -1.4200 N   0  0  0  0  0  0  0  0  0  0  0  0
   -1.7870   -2.4390   -3.4720 C   0  0  0  0  0  0  0  0  0  0  0  0
   -2.3170   -2.8100   -4.5500 O   0  0  0  0  0  0  0  0  0  0  0  0
   -0.5540   -2.9650   -3.1420 O   0  0  0  0  0  0  0  0  0  0  0  0
   -3.4080   -0.9170   -5.3650 H   0  0  0  0  0  0  0  0  0  0  0  0
   -4.7340    0.0510   -4.5440 H   0  0  0  0  0  0  0  0  0  0  0  0
   -4.4200   -1.6450   -4.0880 H   0  0  0  0  0  0  0  0  0  0  0  0
   -2.0930    0.3410   -3.7640 H   0  0  0  0  0  0  0  0  0  0  0  0
   -4.4170    0.0060   -2.0520 H   0  0  0  0  0  0  0  0  0  0  0  0
   -3.4020   -1.9760   -2.2010 H   0  0  0  0  0  0  0  0  0  0  0  0
   -0.8040   -0.5620   -1.5040 H   0  0  0  0  0  0  0  0  0  0  0  0
  1 13  1  0  0  0  0
  1 12  1  0  0  0  0
  2  1  1  0  0  0  0
  3  2  2  0  0  0  0
  3 14  1  0  0  0  0
  4  2  1  0  0  0  0
  5  4  1  0  0  0  0
  5 16  1  0  0  0  0
  6 18  1  0  0  0  0
  6  5  1  0  0  0  0
  7  8  1  0  0  0  0
  7  6  1  0  0  0  0
  8 22  1  6  0  0  0
  8 10  1  0  0  0  0
  8  9  1  0  0  0  0
  9 24  1  0  0  0  0
 10 30  1  0  0  0  0
 11 10  2  0  0  0  0
 15  4  1  0  0  0  0
 17  5  1  0  0  0  0
 19  6  1  0  0  0  0
 20  7  1  0  0  0  0
 21  7  1  0  0  0  0
 23  9  1  0  0  0  0
 25 33  1  0  0  0  0
 25 35  1  0  0  0  0
 26 27  1  0  0  0  0
 26 25  1  0  0  0  0
 27 28  1  0  0  0  0
 27 37  1  0  0  0  0
 28 39  1  0  0  0  0
 28 38  1  0  0  0  0
 29 40  1  1  0  0  0
 29 28  1  0  0  0  0
 30 41  1  0  0  0  0
 30 29  1  0  0  0  0
 31 32  2  0  0  0  0
 31 29  1  0  0  0  0
 34 25  1  0  0  0  0
 36 27  1  0  0  0  0
 42 52  1  0  0  0  0
 42 43  1  0  0  0  0
 43 53  1  6  0  0  0
 43 45  1  0  0  0  0
 43 44  1  0  0  0  0
 44 54  1  0  0  0  0
 45 55  1  1  0  0  0
 45 46  1  0  0  0  0
 46 31  1  0  0  0  0
 47 49  1  0  0  0  0
 47 45  1  0  0  0  0
 48 47  2  0  0  0  0
 50 42  1  0  0  0  0
 51 42  1  0  0  0  0
 56 46  1  0  0  0  0
M  END
$$$$
