RNH.pdb
 OpenBabel07022418043D

 56 56  0  0  1  0  0  0  0  0999 V2000
    0.1780   -3.6410    4.9390 N   0  0  0  0  0  0  0  0  0  0  0  0
    1.2230   -3.6600    3.9870 C   0  0  0  0  0  0  0  0  0  0  0  0
    1.7510   -4.7800    3.6460 N   0  0  0  0  0  0  0  0  0  0  0  0
    1.6670   -2.4180    3.4260 N   0  0  0  0  0  0  0  0  0  0  0  0
    2.7210   -2.4430    2.4380 C   0  0  0  0  0  0  0  0  0  0  0  0
    3.0440   -1.0400    1.9680 C   0  0  0  0  0  0  0  0  0  0  0  0
    1.8330   -0.3860    1.3450 C   0  0  0  0  0  0  0  0  0  0  0  0
    2.1430    1.0170    0.8730 C   0  0  2  0  0  0  0  0  0  0  0  0
    2.5640    1.7670    2.0400 N   0  0  0  0  0  0  0  0  0  0  0  0
    0.9750    1.6830    0.2850 C   0  0  0  0  0  0  0  0  0  0  0  0
    0.5020    2.7460    0.8180 O   0  0  0  0  0  0  0  0  0  0  0  0
   -0.0520   -2.7680    5.4710 H   0  0  0  0  0  0  0  0  0  0  0  0
   -0.3680   -4.4970    5.1140 H   0  0  0  0  0  0  0  0  0  0  0  0
    1.4010   -5.6520    4.0740 H   0  0  0  0  0  0  0  0  0  0  0  0
    1.2550   -1.5080    3.7110 H   0  0  0  0  0  0  0  0  0  0  0  0
    3.5920   -2.9360    2.8930 H   0  0  0  0  0  0  0  0  0  0  0  0
    2.4130   -3.0920    1.5840 H   0  0  0  0  0  0  0  0  0  0  0  0
    3.8810   -1.1360    1.2500 H   0  0  0  0  0  0  0  0  0  0  0  0
    3.4280   -0.4860    2.8350 H   0  0  0  0  0  0  0  0  0  0  0  0
    1.5590   -0.9910    0.4560 H   0  0  0  0  0  0  0  0  0  0  0  0
    0.9620   -0.4010    2.0280 H   0  0  0  0  0  0  0  0  0  0  0  0
    3.0150    0.9980    0.1840 H   0  0  0  0  0  0  0  0  0  0  0  0
    1.7000    1.9390    2.6110 H   0  0  0  0  0  0  0  0  0  0  0  0
    2.9050    2.6940    1.7020 H   0  0  0  0  0  0  0  0  0  0  0  0
   -1.9260    4.4320   -3.4100 N   0  0  0  0  0  0  0  0  0  0  0  0
   -1.8310    2.9910   -3.4390 C   0  0  0  0  0  0  0  0  0  0  0  0
   -2.8050    2.4170   -3.9870 O   0  0  0  0  0  0  0  0  0  0  0  0
   -0.6640    2.2900   -2.8590 C   0  0  0  0  0  0  0  0  0  0  0  0
   -0.8600    1.9250   -1.4190 C   0  0  2  0  0  0  0  0  0  0  0  0
    0.2920    1.2440   -0.8640 N   0  0  0  0  0  0  0  0  0  0  0  0
   -1.9980    0.9780   -1.3020 C   0  0  0  0  0  0  0  0  0  0  0  0
   -3.1580    1.2880   -1.6760 O   0  0  0  0  0  0  0  0  0  0  0  0
   -2.8170    4.8760   -3.1020 H   0  0  0  0  0  0  0  0  0  0  0  0
   -1.1470    5.0480   -3.6820 H   0  0  0  0  0  0  0  0  0  0  0  0
    0.1820    3.0390   -2.8920 H   0  0  0  0  0  0  0  0  0  0  0  0
   -0.4520    1.4260   -3.5030 H   0  0  0  0  0  0  0  0  0  0  0  0
   -1.0700    2.7950   -0.7900 H   0  0  0  0  0  0  0  0  0  0  0  0
    0.6250    0.3860   -1.3470 H   0  0  0  0  0  0  0  0  0  0  0  0
   -1.8530   -0.3270   -0.7650 N   0  0  0  0  0  0  0  0  0  0  0  0
   -2.9530   -1.2160   -0.6630 C   0  0  1  0  0  0  0  0  0  0  0  0
   -2.7590   -2.5210   -1.4000 C   0  0  0  0  0  0  0  0  0  0  0  0
   -1.5930   -3.2760   -0.9080 C   0  0  0  0  0  0  0  0  0  0  0  0
   -0.2870   -3.1660   -1.3950 C   0  0  0  0  0  0  0  0  0  0  0  0
    0.4830   -4.0060   -0.6990 N   0  0  0  0  0  0  0  0  0  0  0  0
   -0.2640   -4.6480    0.2070 C   0  0  0  0  0  0  0  0  0  0  0  0
   -1.5350   -4.1950    0.0720 N   0  0  0  0  0  0  0  0  0  0  0  0
   -3.2590   -1.5790    0.7570 C   0  0  0  0  0  0  0  0  0  0  0  0
   -4.1870   -2.3480    1.0700 O   0  0  0  0  0  0  0  0  0  0  0  0
   -2.4470   -1.0090    1.7360 O   0  0  0  0  0  0  0  0  0  0  0  0
   -0.9090   -0.6190   -0.4460 H   0  0  0  0  0  0  0  0  0  0  0  0
   -3.8660   -0.7290   -1.0520 H   0  0  0  0  0  0  0  0  0  0  0  0
   -3.6780   -3.1200   -1.2350 H   0  0  0  0  0  0  0  0  0  0  0  0
   -2.6620   -2.3930   -2.4910 H   0  0  0  0  0  0  0  0  0  0  0  0
    0.0090   -2.5090   -2.1910 H   0  0  0  0  0  0  0  0  0  0  0  0
    1.5080   -4.1240   -0.8590 H   0  0  0  0  0  0  0  0  0  0  0  0
    0.0600   -5.3830    0.9130 H   0  0  0  0  0  0  0  0  0  0  0  0
  1 13  1  0  0  0  0
  1 12  1  0  0  0  0
  2  1  1  0  0  0  0
  3  2  2  0  0  0  0
  3 14  1  0  0  0  0
  4 15  1  0  0  0  0
  4  2  1  0  0  0  0
  5 16  1  0  0  0  0
  5  4  1  0  0  0  0
  6  5  1  0  0  0  0
  6 19  1  0  0  0  0
  7  6  1  0  0  0  0
  7 21  1  0  0  0  0
  8 22  1  6  0  0  0
  8  7  1  0  0  0  0
  8  9  1  0  0  0  0
  9 23  1  0  0  0  0
 10 11  2  0  0  0  0
 10  8  1  0  0  0  0
 17  5  1  0  0  0  0
 18  6  1  0  0  0  0
 20  7  1  0  0  0  0
 24  9  1  0  0  0  0
 25 33  1  0  0  0  0
 26 25  1  0  0  0  0
 26 28  1  0  0  0  0
 27 26  2  0  0  0  0
 28 29  1  0  0  0  0
 29 31  1  0  0  0  0
 29 30  1  0  0  0  0
 29 37  1  1  0  0  0
 30 10  1  0  0  0  0
 31 39  1  0  0  0  0
 32 31  2  0  0  0  0
 34 25  1  0  0  0  0
 35 28  1  0  0  0  0
 36 28  1  0  0  0  0
 38 30  1  0  0  0  0
 39 40  1  0  0  0  0
 39 50  1  0  0  0  0
 40 51  1  6  0  0  0
 40 47  1  0  0  0  0
 41 52  1  0  0  0  0
 41 42  1  0  0  0  0
 41 40  1  0  0  0  0
 42 46  1  0  0  0  0
 43 42  2  0  0  0  0
 43 44  1  0  0  0  0
 44 45  1  0  0  0  0
 45 56  1  0  0  0  0
 46 45  2  0  0  0  0
 47 48  2  0  0  0  0
 47 49  1  0  0  0  0
 53 41  1  0  0  0  0
 54 43  1  0  0  0  0
 55 44  1  0  0  0  0
M  END
$$$$
