RNI.pdb
 OpenBabel07022418043D

 58 57  0  0  1  0  0  0  0  0999 V2000
    1.5870   -0.8590    7.2500 N   0  0  0  0  0  0  0  0  0  0  0  0
    2.5150   -1.2730    6.2580 C   0  0  0  0  0  0  0  0  0  0  0  0
    3.0160   -2.4610    6.2980 N   0  0  0  0  0  0  0  0  0  0  0  0
    2.9180   -0.4140    5.2070 N   0  0  0  0  0  0  0  0  0  0  0  0
    4.0810   -0.6840    4.4360 C   0  0  0  0  0  0  0  0  0  0  0  0
    4.3810    0.3030    3.3690 C   0  0  0  0  0  0  0  0  0  0  0  0
    3.3120    0.4520    2.3420 C   0  0  0  0  0  0  0  0  0  0  0  0
    3.0090   -0.8230    1.6070 C   0  0  2  0  0  0  0  0  0  0  0  0
    4.1780   -1.3190    0.9160 N   0  0  0  0  0  0  0  0  0  0  0  0
    1.9430   -0.6240    0.5710 C   0  0  0  0  0  0  0  0  0  0  0  0
    2.1630   -0.9090   -0.6320 O   0  0  0  0  0  0  0  0  0  0  0  0
    1.0630    0.0350    7.1330 H   0  0  0  0  0  0  0  0  0  0  0  0
    1.4050   -1.4160    8.0980 H   0  0  0  0  0  0  0  0  0  0  0  0
    2.7490   -3.1240    7.0510 H   0  0  0  0  0  0  0  0  0  0  0  0
    2.3420    0.4260    5.0090 H   0  0  0  0  0  0  0  0  0  0  0  0
    4.9560   -0.6980    5.1450 H   0  0  0  0  0  0  0  0  0  0  0  0
    4.0680   -1.7170    4.0040 H   0  0  0  0  0  0  0  0  0  0  0  0
    5.3220    0.0450    2.8670 H   0  0  0  0  0  0  0  0  0  0  0  0
    4.5510    1.3220    3.8170 H   0  0  0  0  0  0  0  0  0  0  0  0
    3.5990    1.2860    1.6600 H   0  0  0  0  0  0  0  0  0  0  0  0
    2.3960    0.8000    2.8740 H   0  0  0  0  0  0  0  0  0  0  0  0
    2.7200   -1.5780    2.3600 H   0  0  0  0  0  0  0  0  0  0  0  0
    4.6770   -0.5210    0.4620 H   0  0  0  0  0  0  0  0  0  0  0  0
    3.8890   -1.9960    0.1840 H   0  0  0  0  0  0  0  0  0  0  0  0
   -1.6500    3.3120    0.4420 N   0  0  0  0  0  0  0  0  0  0  0  0
   -0.4720    2.5270    0.3100 C   0  0  0  0  0  0  0  0  0  0  0  0
    0.5060    2.8090    1.0520 O   0  0  0  0  0  0  0  0  0  0  0  0
   -0.4220    1.4150   -0.6810 C   0  0  0  0  0  0  0  0  0  0  0  0
   -0.4370    0.1060    0.0050 C   0  0  2  0  0  0  0  0  0  0  0  0
    0.6600   -0.1140    0.9080 N   0  0  0  0  0  0  0  0  0  0  0  0
   -0.7390   -1.0490   -0.8830 C   0  0  0  0  0  0  0  0  0  0  0  0
   -0.0660   -2.0820   -0.6950 O   0  0  0  0  0  0  0  0  0  0  0  0
   -1.9180    3.5990    1.4090 H   0  0  0  0  0  0  0  0  0  0  0  0
   -2.2490    3.6100   -0.3610 H   0  0  0  0  0  0  0  0  0  0  0  0
    0.5740    1.5250   -1.1880 H   0  0  0  0  0  0  0  0  0  0  0  0
   -1.2310    1.5790   -1.3870 H   0  0  0  0  0  0  0  0  0  0  0  0
   -1.3600    0.1000    0.6930 H   0  0  0  0  0  0  0  0  0  0  0  0
    0.5700    0.1110    1.9530 H   0  0  0  0  0  0  0  0  0  0  0  0
   -4.5040   -1.0520   -4.0780 C   0  0  0  0  0  0  0  0  0  0  0  0
   -4.5050   -1.8320   -2.7950 C   0  0  0  0  0  0  0  0  0  0  0  0
   -3.3550   -2.7370   -2.5720 C   0  0  2  0  0  0  0  0  0  0  0  0
   -3.5270   -3.4410   -1.2350 C   0  0  0  0  0  0  0  0  0  0  0  0
   -1.9950   -2.1750   -2.7540 C   0  0  2  0  0  0  0  0  0  0  0  0
   -1.7090   -1.0470   -1.8920 N   0  0  0  0  0  0  0  0  0  0  0  0
   -1.7270   -1.9100   -4.1760 C   0  0  0  0  0  0  0  0  0  0  0  0
   -1.3060   -0.8090   -4.6260 O   0  0  0  0  0  0  0  0  0  0  0  0
   -1.9530   -2.9440   -5.0760 O   0  0  0  0  0  0  0  0  0  0  0  0
   -5.5500   -0.6310   -4.2100 H   0  0  0  0  0  0  0  0  0  0  0  0
   -4.3460   -1.6910   -4.9500 H   0  0  0  0  0  0  0  0  0  0  0  0
   -3.8680   -0.1410   -4.0390 H   0  0  0  0  0  0  0  0  0  0  0  0
   -5.4240   -2.4960   -2.8550 H   0  0  0  0  0  0  0  0  0  0  0  0
   -4.7210   -1.1610   -1.9320 H   0  0  0  0  0  0  0  0  0  0  0  0
   -3.4570   -3.5730   -3.3300 H   0  0  0  0  0  0  0  0  0  0  0  0
   -4.4450   -4.0610   -1.3160 H   0  0  0  0  0  0  0  0  0  0  0  0
   -3.7150   -2.7260   -0.4140 H   0  0  0  0  0  0  0  0  0  0  0  0
   -2.7040   -4.1510   -1.0390 H   0  0  0  0  0  0  0  0  0  0  0  0
   -1.2830   -3.0350   -2.4960 H   0  0  0  0  0  0  0  0  0  0  0  0
   -2.2650   -0.1880   -2.0420 H   0  0  0  0  0  0  0  0  0  0  0  0
  1 13  1  0  0  0  0
  2  3  2  0  0  0  0
  2  1  1  0  0  0  0
  3 14  1  0  0  0  0
  4  2  1  0  0  0  0
  5 16  1  0  0  0  0
  5  4  1  0  0  0  0
  6 19  1  0  0  0  0
  6  5  1  0  0  0  0
  7 21  1  0  0  0  0
  7  6  1  0  0  0  0
  8  7  1  0  0  0  0
  8 22  1  1  0  0  0
  9  8  1  0  0  0  0
 10 30  1  0  0  0  0
 10  8  1  0  0  0  0
 11 10  2  0  0  0  0
 12  1  1  0  0  0  0
 15  4  1  0  0  0  0
 17  5  1  0  0  0  0
 18  6  1  0  0  0  0
 20  7  1  0  0  0  0
 23  9  1  0  0  0  0
 24  9  1  0  0  0  0
 25 33  1  0  0  0  0
 26 25  1  0  0  0  0
 26 27  2  0  0  0  0
 28 29  1  0  0  0  0
 28 26  1  0  0  0  0
 29 37  1  1  0  0  0
 29 30  1  0  0  0  0
 30 38  1  0  0  0  0
 31 32  2  0  0  0  0
 31 29  1  0  0  0  0
 34 25  1  0  0  0  0
 35 28  1  0  0  0  0
 36 28  1  0  0  0  0
 39 50  1  0  0  0  0
 39 40  1  0  0  0  0
 40 41  1  0  0  0  0
 40 52  1  0  0  0  0
 41 53  1  6  0  0  0
 41 42  1  0  0  0  0
 42 56  1  0  0  0  0
 42 55  1  0  0  0  0
 43 41  1  0  0  0  0
 43 57  1  1  0  0  0
 43 44  1  0  0  0  0
 44 31  1  0  0  0  0
 45 43  1  0  0  0  0
 46 45  1  0  0  0  0
 47 45  2  0  0  0  0
 48 39  1  0  0  0  0
 49 39  1  0  0  0  0
 51 40  1  0  0  0  0
 54 42  1  0  0  0  0
 58 44  1  0  0  0  0
M  END
$$$$
