RNL.pdb
 OpenBabel07022418043D

 58 57  0  0  1  0  0  0  0  0999 V2000
    2.6860   -4.5880    0.0750 N   0  0  0  0  0  0  0  0  0  0  0  0
    3.5780   -3.4780    0.1490 C   0  0  0  0  0  0  0  0  0  0  0  0
    4.4840   -3.2820   -0.7140 N   0  0  0  0  0  0  0  0  0  0  0  0
    3.4390   -2.5570    1.2330 N   0  0  0  0  0  0  0  0  0  0  0  0
    4.3480   -1.4990    1.5320 C   0  0  0  0  0  0  0  0  0  0  0  0
    3.8720   -0.7570    2.7510 C   0  0  0  0  0  0  0  0  0  0  0  0
    2.5010   -0.1420    2.5770 C   0  0  0  0  0  0  0  0  0  0  0  0
    2.5990    0.8470    1.4250 C   0  0  2  0  0  0  0  0  0  0  0  0
    3.5840    1.8440    1.7920 N   0  0  0  0  0  0  0  0  0  0  0  0
    1.2810    1.5720    1.2810 C   0  0  0  0  0  0  0  0  0  0  0  0
    1.1060    2.6730    1.8640 O   0  0  0  0  0  0  0  0  0  0  0  0
    2.6680   -5.1870   -0.7660 H   0  0  0  0  0  0  0  0  0  0  0  0
    2.0570   -4.8000    0.8610 H   0  0  0  0  0  0  0  0  0  0  0  0
    4.5950   -3.9470   -1.5110 H   0  0  0  0  0  0  0  0  0  0  0  0
    2.6040   -2.6950    1.8300 H   0  0  0  0  0  0  0  0  0  0  0  0
    5.3410   -1.9590    1.8170 H   0  0  0  0  0  0  0  0  0  0  0  0
    4.5740   -0.8260    0.6850 H   0  0  0  0  0  0  0  0  0  0  0  0
    4.5680    0.1280    2.8720 H   0  0  0  0  0  0  0  0  0  0  0  0
    3.9620   -1.3390    3.6720 H   0  0  0  0  0  0  0  0  0  0  0  0
    2.3050    0.4860    3.4780 H   0  0  0  0  0  0  0  0  0  0  0  0
    1.7220   -0.8930    2.3930 H   0  0  0  0  0  0  0  0  0  0  0  0
    2.8770    0.3010    0.5300 H   0  0  0  0  0  0  0  0  0  0  0  0
    4.0520    2.2010    0.9140 H   0  0  0  0  0  0  0  0  0  0  0  0
    3.0970    2.6710    2.1900 H   0  0  0  0  0  0  0  0  0  0  0  0
   -0.3890    4.6570   -1.3800 N   0  0  0  0  0  0  0  0  0  0  0  0
   -0.1960    3.2680   -1.4110 C   0  0  0  0  0  0  0  0  0  0  0  0
    0.9460    2.8450   -1.7490 O   0  0  0  0  0  0  0  0  0  0  0  0
   -1.2110    2.2470   -1.0790 C   0  0  0  0  0  0  0  0  0  0  0  0
   -1.0550    1.6840    0.3240 C   0  0  2  0  0  0  0  0  0  0  0  0
    0.2320    1.0510    0.5040 N   0  0  0  0  0  0  0  0  0  0  0  0
   -2.1350    0.7070    0.5520 C   0  0  0  0  0  0  0  0  0  0  0  0
   -3.3120    1.1290    0.4320 O   0  0  0  0  0  0  0  0  0  0  0  0
   -1.3440    5.0370   -1.4200 H   0  0  0  0  0  0  0  0  0  0  0  0
    0.4170    5.2910   -1.3190 H   0  0  0  0  0  0  0  0  0  0  0  0
   -1.2300    1.4750   -1.8570 H   0  0  0  0  0  0  0  0  0  0  0  0
   -2.2120    2.7500   -1.1130 H   0  0  0  0  0  0  0  0  0  0  0  0
   -1.0830    2.5650    1.0030 H   0  0  0  0  0  0  0  0  0  0  0  0
    0.4440    0.1300    0.0230 H   0  0  0  0  0  0  0  0  0  0  0  0
   -2.7900   -3.9700   -1.8650 C   0  0  0  0  0  0  0  0  0  0  0  0
   -2.9150   -2.6210   -1.1820 C   0  0  0  0  0  0  0  0  0  0  0  0
   -4.2470   -1.9720   -1.4620 C   0  0  0  0  0  0  0  0  0  0  0  0
   -2.8320   -2.8610    0.3080 C   0  0  0  0  0  0  0  0  0  0  0  0
   -2.9310   -1.6240    1.1140 C   0  0  2  0  0  0  0  0  0  0  0  0
   -1.9190   -0.6250    0.8840 N   0  0  0  0  0  0  0  0  0  0  0  0
   -2.9960   -1.9970    2.5710 C   0  0  0  0  0  0  0  0  0  0  0  0
   -2.1940   -1.4390    3.3500 O   0  0  0  0  0  0  0  0  0  0  0  0
   -3.8880   -2.9090    3.0740 O   0  0  0  0  0  0  0  0  0  0  0  0
   -2.9520   -3.8220   -2.9540 H   0  0  0  0  0  0  0  0  0  0  0  0
   -3.5520   -4.6420   -1.4060 H   0  0  0  0  0  0  0  0  0  0  0  0
   -1.7780   -4.3580   -1.6590 H   0  0  0  0  0  0  0  0  0  0  0  0
   -2.1010   -1.9820   -1.5820 H   0  0  0  0  0  0  0  0  0  0  0  0
   -5.0790   -2.4930   -0.9800 H   0  0  0  0  0  0  0  0  0  0  0  0
   -4.1660   -0.9220   -1.1270 H   0  0  0  0  0  0  0  0  0  0  0  0
   -4.4210   -1.9490   -2.5620 H   0  0  0  0  0  0  0  0  0  0  0  0
   -1.9550   -3.5070    0.5720 H   0  0  0  0  0  0  0  0  0  0  0  0
   -3.7140   -3.5010    0.5580 H   0  0  0  0  0  0  0  0  0  0  0  0
   -3.9120   -1.1510    0.9090 H   0  0  0  0  0  0  0  0  0  0  0  0
   -0.9330   -0.9710    0.9880 H   0  0  0  0  0  0  0  0  0  0  0  0
  1  2  1  0  0  0  0
  1 13  1  0  0  0  0
  2  4  1  0  0  0  0
  3  2  2  0  0  0  0
  4  5  1  0  0  0  0
  4 15  1  0  0  0  0
  5 16  1  0  0  0  0
  5  6  1  0  0  0  0
  6 18  1  0  0  0  0
  6 19  1  0  0  0  0
  7  6  1  0  0  0  0
  7 20  1  0  0  0  0
  8 22  1  6  0  0  0
  8  9  1  0  0  0  0
  8  7  1  0  0  0  0
  9 24  1  0  0  0  0
 10  8  1  0  0  0  0
 10 11  2  0  0  0  0
 12  1  1  0  0  0  0
 14  3  1  0  0  0  0
 17  5  1  0  0  0  0
 21  7  1  0  0  0  0
 23  9  1  0  0  0  0
 25 34  1  0  0  0  0
 26 25  1  0  0  0  0
 26 28  1  0  0  0  0
 27 26  2  0  0  0  0
 28 29  1  0  0  0  0
 29 30  1  0  0  0  0
 29 31  1  0  0  0  0
 29 37  1  1  0  0  0
 30 10  1  0  0  0  0
 31 44  1  0  0  0  0
 32 31  2  0  0  0  0
 33 25  1  0  0  0  0
 35 28  1  0  0  0  0
 36 28  1  0  0  0  0
 38 30  1  0  0  0  0
 39 50  1  0  0  0  0
 39 49  1  0  0  0  0
 39 40  1  0  0  0  0
 40 42  1  0  0  0  0
 41 40  1  0  0  0  0
 41 53  1  0  0  0  0
 41 52  1  0  0  0  0
 42 56  1  0  0  0  0
 42 55  1  0  0  0  0
 42 43  1  0  0  0  0
 43 57  1  6  0  0  0
 43 45  1  0  0  0  0
 44 58  1  0  0  0  0
 44 43  1  0  0  0  0
 45 47  2  0  0  0  0
 45 46  1  0  0  0  0
 48 39  1  0  0  0  0
 51 40  1  0  0  0  0
 54 41  1  0  0  0  0
M  END
$$$$
