RNM.pdb
 OpenBabel07022418043D

 56 55  0  0  1  0  0  0  0  0999 V2000
    1.1500   -4.9080   -1.5410 N   0  0  0  0  0  0  0  0  0  0  0  0
    2.2960   -4.0910   -1.4430 C   0  0  0  0  0  0  0  0  0  0  0  0
    3.1700   -4.0730   -2.3660 N   0  0  0  0  0  0  0  0  0  0  0  0
    2.4670   -3.2880   -0.2920 N   0  0  0  0  0  0  0  0  0  0  0  0
    3.6330   -2.5140    0.0150 C   0  0  0  0  0  0  0  0  0  0  0  0
    3.4600   -1.8180    1.3270 C   0  0  0  0  0  0  0  0  0  0  0  0
    2.3130   -0.8710    1.4100 C   0  0  0  0  0  0  0  0  0  0  0  0
    2.3980    0.2860    0.4290 C   0  0  2  0  0  0  0  0  0  0  0  0
    3.6410    1.0020    0.7740 N   0  0  0  0  0  0  0  0  0  0  0  0
    1.2500    1.1830    0.6070 C   0  0  0  0  0  0  0  0  0  0  0  0
    1.4320    2.3280    1.1550 O   0  0  0  0  0  0  0  0  0  0  0  0
    0.6250   -5.1340   -2.4060 H   0  0  0  0  0  0  0  0  0  0  0  0
    0.7890   -5.3330   -0.6430 H   0  0  0  0  0  0  0  0  0  0  0  0
    4.0420   -3.4970   -2.3700 H   0  0  0  0  0  0  0  0  0  0  0  0
    1.6610   -3.2540    0.4030 H   0  0  0  0  0  0  0  0  0  0  0  0
    4.4740   -3.2540    0.1620 H   0  0  0  0  0  0  0  0  0  0  0  0
    3.9710   -1.8600   -0.8110 H   0  0  0  0  0  0  0  0  0  0  0  0
    3.2760   -2.6230    2.0850 H   0  0  0  0  0  0  0  0  0  0  0  0
    4.4300   -1.3710    1.6140 H   0  0  0  0  0  0  0  0  0  0  0  0
    2.3630   -0.4000    2.4310 H   0  0  0  0  0  0  0  0  0  0  0  0
    1.3370   -1.4020    1.3700 H   0  0  0  0  0  0  0  0  0  0  0  0
    2.5390   -0.1270   -0.5640 H   0  0  0  0  0  0  0  0  0  0  0  0
    4.4360    0.5810    0.2460 H   0  0  0  0  0  0  0  0  0  0  0  0
    3.5340    2.0180    0.5880 H   0  0  0  0  0  0  0  0  0  0  0  0
   -0.6870    4.4790   -1.3540 N   0  0  0  0  0  0  0  0  0  0  0  0
   -0.7330    3.0740   -1.5640 C   0  0  0  0  0  0  0  0  0  0  0  0
    0.1420    2.5740   -2.3200 O   0  0  0  0  0  0  0  0  0  0  0  0
   -1.7720    2.2780   -0.9140 C   0  0  0  0  0  0  0  0  0  0  0  0
   -1.2200    1.7460    0.3850 C   0  0  2  0  0  0  0  0  0  0  0  0
   -0.0740    0.9130    0.2270 N   0  0  0  0  0  0  0  0  0  0  0  0
   -2.2480    0.9920    1.1420 C   0  0  0  0  0  0  0  0  0  0  0  0
   -3.3180    1.5770    1.4150 O   0  0  0  0  0  0  0  0  0  0  0  0
   -1.3480    5.1560   -1.8060 H   0  0  0  0  0  0  0  0  0  0  0  0
    0.0280    4.9000   -0.7210 H   0  0  0  0  0  0  0  0  0  0  0  0
   -2.2210    1.4830   -1.5390 H   0  0  0  0  0  0  0  0  0  0  0  0
   -2.6070    2.9540   -0.6400 H   0  0  0  0  0  0  0  0  0  0  0  0
   -0.9520    2.6400    0.9830 H   0  0  0  0  0  0  0  0  0  0  0  0
   -0.2450   -0.0190   -0.2390 H   0  0  0  0  0  0  0  0  0  0  0  0
   -1.8340   -2.4650   -1.4410 C   0  0  0  0  0  0  0  0  0  0  0  0
   -3.1340   -1.3330   -0.9530 S   0  0  0  0  0  0  0  0  0  0  0  0
   -4.2610   -2.0120    0.2740 C   0  0  0  0  0  0  0  0  0  0  0  0
   -3.6480   -2.2510    1.6080 C   0  0  0  0  0  0  0  0  0  0  0  0
   -3.1020   -1.0290    2.2920 C   0  0  2  0  0  0  0  0  0  0  0  0
   -2.0750   -0.3470    1.5650 N   0  0  0  0  0  0  0  0  0  0  0  0
   -2.6380   -1.4520    3.6460 C   0  0  0  0  0  0  0  0  0  0  0  0
   -3.3700   -2.0590    4.4530 O   0  0  0  0  0  0  0  0  0  0  0  0
   -1.3410   -1.1600    4.0250 O   0  0  0  0  0  0  0  0  0  0  0  0
   -1.7300   -2.3700   -2.5610 H   0  0  0  0  0  0  0  0  0  0  0  0
   -2.0870   -3.5300   -1.2770 H   0  0  0  0  0  0  0  0  0  0  0  0
   -0.8760   -2.1740   -1.0110 H   0  0  0  0  0  0  0  0  0  0  0  0
   -5.1700   -1.3900    0.3390 H   0  0  0  0  0  0  0  0  0  0  0  0
   -4.6220   -2.9960   -0.1440 H   0  0  0  0  0  0  0  0  0  0  0  0
   -4.4810   -2.6190    2.2800 H   0  0  0  0  0  0  0  0  0  0  0  0
   -2.9000   -3.0620    1.6020 H   0  0  0  0  0  0  0  0  0  0  0  0
   -3.9670   -0.3470    2.4600 H   0  0  0  0  0  0  0  0  0  0  0  0
   -1.1830   -0.8720    1.3520 H   0  0  0  0  0  0  0  0  0  0  0  0
  1  2  1  0  0  0  0
  1 13  1  0  0  0  0
  2  4  1  0  0  0  0
  3  2  2  0  0  0  0
  4  5  1  0  0  0  0
  4 15  1  0  0  0  0
  5 16  1  0  0  0  0
  5  6  1  0  0  0  0
  6  7  1  0  0  0  0
  6 19  1  0  0  0  0
  6 18  1  0  0  0  0
  7 20  1  0  0  0  0
  8 22  1  6  0  0  0
  8 10  1  0  0  0  0
  8  9  1  0  0  0  0
  8  7  1  0  0  0  0
 10 11  2  0  0  0  0
 12  1  1  0  0  0  0
 14  3  1  0  0  0  0
 17  5  1  0  0  0  0
 21  7  1  0  0  0  0
 23  9  1  0  0  0  0
 24  9  1  0  0  0  0
 25 34  1  0  0  0  0
 26 25  1  0  0  0  0
 26 28  1  0  0  0  0
 27 26  2  0  0  0  0
 28 36  1  0  0  0  0
 28 29  1  0  0  0  0
 29 37  1  1  0  0  0
 29 31  1  0  0  0  0
 30 29  1  0  0  0  0
 30 10  1  0  0  0  0
 31 32  2  0  0  0  0
 31 44  1  0  0  0  0
 33 25  1  0  0  0  0
 35 28  1  0  0  0  0
 38 30  1  0  0  0  0
 39 49  1  0  0  0  0
 39 50  1  0  0  0  0
 39 40  1  0  0  0  0
 40 41  1  0  0  0  0
 41 51  1  0  0  0  0
 41 42  1  0  0  0  0
 42 53  1  0  0  0  0
 42 43  1  0  0  0  0
 43 55  1  1  0  0  0
 43 45  1  0  0  0  0
 44 43  1  0  0  0  0
 45 47  2  0  0  0  0
 45 46  1  0  0  0  0
 48 39  1  0  0  0  0
 52 41  1  0  0  0  0
 54 42  1  0  0  0  0
 56 44  1  0  0  0  0
M  END
$$$$
