RNN.pdb
 OpenBabel07022418043D

 53 52  0  0  1  0  0  0  0  0999 V2000
    2.3480   -5.2610   -0.4890 N   0  0  0  0  0  0  0  0  0  0  0  0
    3.0910   -4.0580   -0.3760 C   0  0  0  0  0  0  0  0  0  0  0  0
    3.9680   -3.7630   -1.2640 N   0  0  0  0  0  0  0  0  0  0  0  0
    2.8290   -3.2290    0.7360 N   0  0  0  0  0  0  0  0  0  0  0  0
    3.8400   -2.2890    1.2270 C   0  0  0  0  0  0  0  0  0  0  0  0
    3.3210   -1.5570    2.4360 C   0  0  0  0  0  0  0  0  0  0  0  0
    2.1060   -0.7360    2.2060 C   0  0  0  0  0  0  0  0  0  0  0  0
    2.3300    0.3960    1.2060 C   0  0  2  0  0  0  0  0  0  0  0  0
    3.3900    1.2570    1.7750 N   0  0  0  0  0  0  0  0  0  0  0  0
    1.1010    1.2140    1.1500 C   0  0  0  0  0  0  0  0  0  0  0  0
    1.0810    2.3040    1.8150 O   0  0  0  0  0  0  0  0  0  0  0  0
    2.1750   -5.6510   -1.4370 H   0  0  0  0  0  0  0  0  0  0  0  0
    1.9670   -5.7770    0.3270 H   0  0  0  0  0  0  0  0  0  0  0  0
    4.1220   -4.4130   -2.0580 H   0  0  0  0  0  0  0  0  0  0  0  0
    1.9130   -3.2910    1.2050 H   0  0  0  0  0  0  0  0  0  0  0  0
    4.7040   -2.9070    1.5450 H   0  0  0  0  0  0  0  0  0  0  0  0
    4.1750   -1.6470    0.3980 H   0  0  0  0  0  0  0  0  0  0  0  0
    4.1670   -0.9920    2.8670 H   0  0  0  0  0  0  0  0  0  0  0  0
    3.0480   -2.3480    3.1860 H   0  0  0  0  0  0  0  0  0  0  0  0
    1.8880   -0.2060    3.1730 H   0  0  0  0  0  0  0  0  0  0  0  0
    1.2150   -1.2830    1.9230 H   0  0  0  0  0  0  0  0  0  0  0  0
    2.6140   -0.0390    0.2470 H   0  0  0  0  0  0  0  0  0  0  0  0
    3.4380    2.1290    1.2290 H   0  0  0  0  0  0  0  0  0  0  0  0
    4.2680    0.7180    1.6600 H   0  0  0  0  0  0  0  0  0  0  0  0
   -0.3240    4.7180   -0.6530 N   0  0  0  0  0  0  0  0  0  0  0  0
   -0.1990    3.3880   -1.1090 C   0  0  0  0  0  0  0  0  0  0  0  0
    0.8510    3.0020   -1.6450 O   0  0  0  0  0  0  0  0  0  0  0  0
   -1.3350    2.4630   -0.9410 C   0  0  0  0  0  0  0  0  0  0  0  0
   -1.2480    1.6600    0.3580 C   0  0  2  0  0  0  0  0  0  0  0  0
   -0.0570    0.8690    0.4080 N   0  0  0  0  0  0  0  0  0  0  0  0
   -2.4980    0.9060    0.5860 C   0  0  0  0  0  0  0  0  0  0  0  0
   -3.5810    1.5230    0.5670 O   0  0  0  0  0  0  0  0  0  0  0  0
   -1.1970    5.1060   -0.2370 H   0  0  0  0  0  0  0  0  0  0  0  0
    0.4850    5.3600   -0.7310 H   0  0  0  0  0  0  0  0  0  0  0  0
   -1.4530    1.7820   -1.8250 H   0  0  0  0  0  0  0  0  0  0  0  0
   -2.2650    3.0720   -0.9170 H   0  0  0  0  0  0  0  0  0  0  0  0
   -1.1770    2.4450    1.1500 H   0  0  0  0  0  0  0  0  0  0  0  0
    0.0370   -0.0460   -0.1290 H   0  0  0  0  0  0  0  0  0  0  0  0
   -3.9340   -2.8260   -2.4020 N   0  0  0  0  0  0  0  0  0  0  0  0
   -3.8390   -1.9400   -1.3130 C   0  0  0  0  0  0  0  0  0  0  0  0
   -3.8040   -0.7010   -1.5640 O   0  0  0  0  0  0  0  0  0  0  0  0
   -3.7810   -2.4230    0.0830 C   0  0  0  0  0  0  0  0  0  0  0  0
   -3.6440   -1.2840    1.0330 C   0  0  2  0  0  0  0  0  0  0  0  0
   -2.4540   -0.4890    0.8160 N   0  0  0  0  0  0  0  0  0  0  0  0
   -3.7140   -1.7880    2.4380 C   0  0  0  0  0  0  0  0  0  0  0  0
   -2.7810   -1.4710    3.2370 O   0  0  0  0  0  0  0  0  0  0  0  0
   -4.7300   -2.5780    2.9290 O   0  0  0  0  0  0  0  0  0  0  0  0
   -3.4480   -2.6070   -3.2820 H   0  0  0  0  0  0  0  0  0  0  0  0
   -4.4830   -3.6880   -2.3210 H   0  0  0  0  0  0  0  0  0  0  0  0
   -4.7860   -2.8950    0.2900 H   0  0  0  0  0  0  0  0  0  0  0  0
   -3.0450   -3.2300    0.2340 H   0  0  0  0  0  0  0  0  0  0  0  0
   -4.5130   -0.6130    0.9130 H   0  0  0  0  0  0  0  0  0  0  0  0
   -1.5470   -1.0180    0.8410 H   0  0  0  0  0  0  0  0  0  0  0  0
  1  2  1  0  0  0  0
  1 13  1  0  0  0  0
  2  4  1  0  0  0  0
  3  2  2  0  0  0  0
  4 15  1  0  0  0  0
  4  5  1  0  0  0  0
  5 16  1  0  0  0  0
  5  6  1  0  0  0  0
  6 18  1  0  0  0  0
  6 19  1  0  0  0  0
  7  6  1  0  0  0  0
  7 20  1  0  0  0  0
  8 22  1  6  0  0  0
  8  9  1  0  0  0  0
  8  7  1  0  0  0  0
 10  8  1  0  0  0  0
 10 11  2  0  0  0  0
 12  1  1  0  0  0  0
 14  3  1  0  0  0  0
 17  5  1  0  0  0  0
 21  7  1  0  0  0  0
 23  9  1  0  0  0  0
 24  9  1  0  0  0  0
 25 33  1  0  0  0  0
 26 28  1  0  0  0  0
 26 25  1  0  0  0  0
 27 26  2  0  0  0  0
 28 36  1  0  0  0  0
 28 29  1  0  0  0  0
 29 30  1  0  0  0  0
 29 31  1  0  0  0  0
 29 37  1  1  0  0  0
 30 10  1  0  0  0  0
 31 44  1  0  0  0  0
 32 31  2  0  0  0  0
 34 25  1  0  0  0  0
 35 28  1  0  0  0  0
 38 30  1  0  0  0  0
 39 49  1  0  0  0  0
 39 40  1  0  0  0  0
 40 42  1  0  0  0  0
 41 40  2  0  0  0  0
 42 51  1  0  0  0  0
 42 50  1  0  0  0  0
 42 43  1  0  0  0  0
 43 52  1  6  0  0  0
 43 45  1  0  0  0  0
 44 53  1  0  0  0  0
 44 43  1  0  0  0  0
 45 47  2  0  0  0  0
 45 46  1  0  0  0  0
 48 39  1  0  0  0  0
M  END
$$$$
