RNS.pdb
 OpenBabel07022418043D

 50 49  0  0  1  0  0  0  0  0999 V2000
    5.0130   -1.8820    5.4230 N   0  0  0  0  0  0  0  0  0  0  0  0
    4.5450   -1.1960    4.2590 C   0  0  0  0  0  0  0  0  0  0  0  0
    4.4510    0.1070    4.2980 N   0  0  0  0  0  0  0  0  0  0  0  0
    4.1960   -1.9140    3.1030 N   0  0  0  0  0  0  0  0  0  0  0  0
    4.1220   -1.2280    1.8040 C   0  0  0  0  0  0  0  0  0  0  0  0
    3.7350   -2.1720    0.7210 C   0  0  0  0  0  0  0  0  0  0  0  0
    3.6470   -1.6580   -0.6530 C   0  0  0  0  0  0  0  0  0  0  0  0
    2.6900   -0.5640   -0.9640 C   0  0  2  0  0  0  0  0  0  0  0  0
    2.9420    0.6200   -0.2510 N   0  0  0  0  0  0  0  0  0  0  0  0
    1.2670   -1.0260   -0.8870 C   0  0  0  0  0  0  0  0  0  0  0  0
    0.9770   -2.1230   -1.4530 O   0  0  0  0  0  0  0  0  0  0  0  0
    4.6910   -2.8360    5.6180 H   0  0  0  0  0  0  0  0  0  0  0  0
    5.6760   -1.3800    6.0390 H   0  0  0  0  0  0  0  0  0  0  0  0
    4.1150    0.6200    3.4670 H   0  0  0  0  0  0  0  0  0  0  0  0
    3.9870   -2.9200    3.1380 H   0  0  0  0  0  0  0  0  0  0  0  0
    3.3040   -0.4720    1.9490 H   0  0  0  0  0  0  0  0  0  0  0  0
    5.0680   -0.7150    1.6590 H   0  0  0  0  0  0  0  0  0  0  0  0
    4.5470   -2.9680    0.7110 H   0  0  0  0  0  0  0  0  0  0  0  0
    2.8330   -2.7720    1.0350 H   0  0  0  0  0  0  0  0  0  0  0  0
    3.4920   -2.5560   -1.3330 H   0  0  0  0  0  0  0  0  0  0  0  0
    4.6940   -1.3320   -0.9470 H   0  0  0  0  0  0  0  0  0  0  0  0
    2.9070   -0.3060   -2.0700 H   0  0  0  0  0  0  0  0  0  0  0  0
    3.9230    0.7440    0.0240 H   0  0  0  0  0  0  0  0  0  0  0  0
    2.3060    0.9800    0.4400 H   0  0  0  0  0  0  0  0  0  0  0  0
   -1.8530   -0.3240    3.4520 N   0  0  0  0  0  0  0  0  0  0  0  0
   -1.5320   -0.1230    2.0810 C   0  0  0  0  0  0  0  0  0  0  0  0
   -1.2970    1.0570    1.7270 O   0  0  0  0  0  0  0  0  0  0  0  0
   -1.4930   -1.2840    1.1650 C   0  0  0  0  0  0  0  0  0  0  0  0
   -1.1110   -0.9260   -0.2530 C   0  0  2  0  0  0  0  0  0  0  0  0
    0.2290   -0.3290   -0.2330 N   0  0  0  0  0  0  0  0  0  0  0  0
   -2.1160    0.0500   -0.7390 C   0  0  0  0  0  0  0  0  0  0  0  0
   -1.7080    1.1970   -1.0540 O   0  0  0  0  0  0  0  0  0  0  0  0
   -1.1830   -0.0880    4.2270 H   0  0  0  0  0  0  0  0  0  0  0  0
   -2.7840   -0.7190    3.7390 H   0  0  0  0  0  0  0  0  0  0  0  0
   -2.5170   -1.7420    1.2090 H   0  0  0  0  0  0  0  0  0  0  0  0
   -0.8230   -2.0730    1.5830 H   0  0  0  0  0  0  0  0  0  0  0  0
   -1.1160   -1.8670   -0.8190 H   0  0  0  0  0  0  0  0  0  0  0  0
    0.4040    0.5790    0.2440 H   0  0  0  0  0  0  0  0  0  0  0  0
   -5.8560   -0.9570   -2.3360 O   0  0  0  0  0  0  0  0  0  0  0  0
   -5.1790    0.2430   -2.5850 C   0  0  0  0  0  0  0  0  0  0  0  0
   -4.4660    0.7400   -1.3470 C   0  0  2  0  0  0  0  0  0  0  0  0
   -3.4870   -0.2190   -0.8710 N   0  0  0  0  0  0  0  0  0  0  0  0
   -5.4890    0.8680   -0.2750 C   0  0  0  0  0  0  0  0  0  0  0  0
   -5.4610    0.2430    0.8080 O   0  0  0  0  0  0  0  0  0  0  0  0
   -6.5370    1.7450   -0.5160 O   0  0  0  0  0  0  0  0  0  0  0  0
   -5.8530   -1.5580   -3.1190 H   0  0  0  0  0  0  0  0  0  0  0  0
   -5.9560    0.9760   -2.8820 H   0  0  0  0  0  0  0  0  0  0  0  0
   -4.4560    0.0500   -3.3900 H   0  0  0  0  0  0  0  0  0  0  0  0
   -4.0080    1.7130   -1.5980 H   0  0  0  0  0  0  0  0  0  0  0  0
   -3.8270   -1.1690   -0.6100 H   0  0  0  0  0  0  0  0  0  0  0  0
  1 12  1  0  0  0  0
  1 13  1  0  0  0  0
  2  3  2  0  0  0  0
  2  1  1  0  0  0  0
  4 15  1  0  0  0  0
  4  2  1  0  0  0  0
  5 16  1  0  0  0  0
  5  4  1  0  0  0  0
  6 19  1  0  0  0  0
  6  5  1  0  0  0  0
  7  6  1  0  0  0  0
  8 22  1  6  0  0  0
  8 10  1  0  0  0  0
  8  7  1  0  0  0  0
  8  9  1  0  0  0  0
  9 23  1  0  0  0  0
  9 24  1  0  0  0  0
 10 30  1  0  0  0  0
 11 10  2  0  0  0  0
 14  3  1  0  0  0  0
 17  5  1  0  0  0  0
 18  6  1  0  0  0  0
 20  7  1  0  0  0  0
 21  7  1  0  0  0  0
 25 34  1  0  0  0  0
 25 33  1  0  0  0  0
 26 25  1  0  0  0  0
 27 26  2  0  0  0  0
 28 35  1  0  0  0  0
 28 36  1  0  0  0  0
 28 26  1  0  0  0  0
 29 37  1  6  0  0  0
 29 30  1  0  0  0  0
 29 28  1  0  0  0  0
 30 38  1  0  0  0  0
 31 29  1  0  0  0  0
 32 31  2  0  0  0  0
 40 39  1  0  0  0  0
 40 41  1  0  0  0  0
 41 49  1  6  0  0  0
 41 42  1  0  0  0  0
 41 43  1  0  0  0  0
 42 31  1  0  0  0  0
 42 50  1  0  0  0  0
 43 44  1  0  0  0  0
 45 43  2  0  0  0  0
 46 39  1  0  0  0  0
 47 40  1  0  0  0  0
 48 40  1  0  0  0  0
M  END
$$$$
