RNW.pdb
 OpenBabel07022418043D

 63 64  0  0  1  0  0  0  0  0999 V2000
    3.6220   -2.1740    5.4910 N   0  0  0  0  0  0  0  0  0  0  0  0
    2.8890   -0.9370    5.5250 C   0  0  0  0  0  0  0  0  0  0  0  0
    2.1280   -0.6450    6.5230 N   0  0  0  0  0  0  0  0  0  0  0  0
    2.9790    0.0020    4.4660 N   0  0  0  0  0  0  0  0  0  0  0  0
    2.0080    1.0670    4.4040 C   0  0  0  0  0  0  0  0  0  0  0  0
    0.6390    0.4650    4.0730 C   0  0  0  0  0  0  0  0  0  0  0  0
   -0.4150    1.5340    3.9970 C   0  0  0  0  0  0  0  0  0  0  0  0
   -0.1670    2.5810    2.9700 C   0  0  2  0  0  0  0  0  0  0  0  0
   -1.2970    3.5240    3.0530 N   0  0  0  0  0  0  0  0  0  0  0  0
   -0.0870    2.0450    1.5770 C   0  0  0  0  0  0  0  0  0  0  0  0
    0.8110    1.2290    1.3130 O   0  0  0  0  0  0  0  0  0  0  0  0
    4.6470   -2.1750    5.5150 H   0  0  0  0  0  0  0  0  0  0  0  0
    3.0310   -3.0360    5.4420 H   0  0  0  0  0  0  0  0  0  0  0  0
    2.0350   -1.3010    7.3160 H   0  0  0  0  0  0  0  0  0  0  0  0
    3.7120   -0.0430    3.7330 H   0  0  0  0  0  0  0  0  0  0  0  0
    1.9240    1.6160    5.3690 H   0  0  0  0  0  0  0  0  0  0  0  0
    2.2870    1.8290    3.6490 H   0  0  0  0  0  0  0  0  0  0  0  0
    0.7520   -0.1530    3.1880 H   0  0  0  0  0  0  0  0  0  0  0  0
    0.3380   -0.2140    4.9100 H   0  0  0  0  0  0  0  0  0  0  0  0
   -0.3810    2.0630    4.9950 H   0  0  0  0  0  0  0  0  0  0  0  0
   -1.4270    1.1360    3.9170 H   0  0  0  0  0  0  0  0  0  0  0  0
    0.7350    3.1890    3.1990 H   0  0  0  0  0  0  0  0  0  0  0  0
   -1.3370    3.9440    4.0060 H   0  0  0  0  0  0  0  0  0  0  0  0
   -2.2070    2.9910    2.9390 H   0  0  0  0  0  0  0  0  0  0  0  0
    0.1640    5.2350   -1.2470 N   0  0  0  0  0  0  0  0  0  0  0  0
   -0.5560    4.1720   -1.8280 C   0  0  0  0  0  0  0  0  0  0  0  0
   -1.6010    4.4220   -2.4790 O   0  0  0  0  0  0  0  0  0  0  0  0
   -0.1540    2.7470   -1.7190 C   0  0  0  0  0  0  0  0  0  0  0  0
   -0.9970    1.9670   -0.7850 C   0  0  2  0  0  0  0  0  0  0  0  0
   -0.9980    2.4410    0.5710 N   0  0  0  0  0  0  0  0  0  0  0  0
   -0.8720    0.4940   -0.8860 C   0  0  0  0  0  0  0  0  0  0  0  0
   -0.8640   -0.2240    0.1370 O   0  0  0  0  0  0  0  0  0  0  0  0
   -0.2720    6.0190   -0.7300 H   0  0  0  0  0  0  0  0  0  0  0  0
    1.2040    5.2210   -1.3520 H   0  0  0  0  0  0  0  0  0  0  0  0
    0.9290    2.7580   -1.4500 H   0  0  0  0  0  0  0  0  0  0  0  0
   -0.1930    2.3430   -2.7520 H   0  0  0  0  0  0  0  0  0  0  0  0
   -2.0850    2.1280   -1.1340 H   0  0  0  0  0  0  0  0  0  0  0  0
   -1.7200    3.1560    0.9150 H   0  0  0  0  0  0  0  0  0  0  0  0
   -0.7550   -0.1900   -2.1260 N   0  0  0  0  0  0  0  0  0  0  0  0
   -0.6320   -1.6270   -2.2510 C   0  0  1  0  0  0  0  0  0  0  0  0
   -1.6560   -2.2490   -3.1170 C   0  0  0  0  0  0  0  0  0  0  0  0
   -1.4530   -3.7100   -3.1830 C   0  0  0  0  0  0  0  0  0  0  0  0
   -0.9360   -4.4300   -4.2360 C   0  0  0  0  0  0  0  0  0  0  0  0
   -0.9140   -5.7450   -3.9270 N   0  0  0  0  0  0  0  0  0  0  0  0
   -1.4070   -5.9180   -2.6890 C   0  0  0  0  0  0  0  0  0  0  0  0
   -1.6000   -7.0390   -1.9130 C   0  0  0  0  0  0  0  0  0  0  0  0
   -2.1330   -6.9200   -0.6550 C   0  0  0  0  0  0  0  0  0  0  0  0
   -2.4790   -5.6860   -0.1570 C   0  0  0  0  0  0  0  0  0  0  0  0
   -2.2780   -4.5900   -0.9460 C   0  0  0  0  0  0  0  0  0  0  0  0
   -1.7470   -4.6460   -2.2150 C   0  0  0  0  0  0  0  0  0  0  0  0
    0.7090   -1.9430   -2.7990 C   0  0  0  0  0  0  0  0  0  0  0  0
    1.1110   -3.1180   -3.0000 O   0  0  0  0  0  0  0  0  0  0  0  0
    1.5660   -0.9110   -3.1070 O   0  0  0  0  0  0  0  0  0  0  0  0
   -0.7620    0.4070   -2.9800 H   0  0  0  0  0  0  0  0  0  0  0  0
   -0.6540   -2.1200   -1.2340 H   0  0  0  0  0  0  0  0  0  0  0  0
   -2.7020   -2.0640   -2.8260 H   0  0  0  0  0  0  0  0  0  0  0  0
   -1.5560   -1.8410   -4.1470 H   0  0  0  0  0  0  0  0  0  0  0  0
   -0.5930   -4.0280   -5.1780 H   0  0  0  0  0  0  0  0  0  0  0  0
   -0.5660   -6.4880   -4.5680 H   0  0  0  0  0  0  0  0  0  0  0  0
   -1.3360   -8.0420   -2.2750 H   0  0  0  0  0  0  0  0  0  0  0  0
   -2.2900   -7.7920   -0.0360 H   0  0  0  0  0  0  0  0  0  0  0  0
   -2.8990   -5.5660    0.8250 H   0  0  0  0  0  0  0  0  0  0  0  0
   -2.5460   -3.6240   -0.5600 H   0  0  0  0  0  0  0  0  0  0  0  0
  1 12  1  0  0  0  0
  1  2  1  0  0  0  0
  2  3  2  0  0  0  0
  3 14  1  0  0  0  0
  4  2  1  0  0  0  0
  5  4  1  0  0  0  0
  5 16  1  0  0  0  0
  6  5  1  0  0  0  0
  6 19  1  0  0  0  0
  7  6  1  0  0  0  0
  7 20  1  0  0  0  0
  8  9  1  0  0  0  0
  8 22  1  1  0  0  0
  8  7  1  0  0  0  0
  9 23  1  0  0  0  0
 10  8  1  0  0  0  0
 11 10  2  0  0  0  0
 13  1  1  0  0  0  0
 15  4  1  0  0  0  0
 17  5  1  0  0  0  0
 18  6  1  0  0  0  0
 21  7  1  0  0  0  0
 24  9  1  0  0  0  0
 25 33  1  0  0  0  0
 26 28  1  0  0  0  0
 26 25  1  0  0  0  0
 27 26  2  0  0  0  0
 28 35  1  0  0  0  0
 28 29  1  0  0  0  0
 29 37  1  6  0  0  0
 29 30  1  0  0  0  0
 30 38  1  0  0  0  0
 30 10  1  0  0  0  0
 31 29  1  0  0  0  0
 31 32  2  0  0  0  0
 34 25  1  0  0  0  0
 36 28  1  0  0  0  0
 39 31  1  0  0  0  0
 40 39  1  0  0  0  0
 40 55  1  1  0  0  0
 41 56  1  0  0  0  0
 41 40  1  0  0  0  0
 42 41  1  0  0  0  0
 42 50  1  0  0  0  0
 43 44  1  0  0  0  0
 43 42  2  0  0  0  0
 44 45  1  0  0  0  0
 45 50  2  0  0  0  0
 45 46  1  0  0  0  0
 46 47  2  0  0  0  0
 47 48  1  0  0  0  0
 47 61  1  0  0  0  0
 48 62  1  0  0  0  0
 49 63  1  0  0  0  0
 49 48  2  0  0  0  0
 50 49  1  0  0  0  0
 51 40  1  0  0  0  0
 52 51  1  0  0  0  0
 53 51  2  0  0  0  0
 54 39  1  0  0  0  0
 57 41  1  0  0  0  0
 58 43  1  0  0  0  0
 59 44  1  0  0  0  0
 60 46  1  0  0  0  0
M  END
$$$$
