RNY.pdb
 OpenBabel07022418043D

 60 60  0  0  1  0  0  0  0  0999 V2000
    3.1030   -1.6900    6.0550 N   0  0  0  0  0  0  0  0  0  0  0  0
    3.7080   -1.3050    4.8170 C   0  0  0  0  0  0  0  0  0  0  0  0
    4.5550   -2.0720    4.2420 N   0  0  0  0  0  0  0  0  0  0  0  0
    3.3790   -0.0540    4.1960 N   0  0  0  0  0  0  0  0  0  0  0  0
    3.7570    0.2200    2.7990 C   0  0  0  0  0  0  0  0  0  0  0  0
    2.9780   -0.6480    1.8590 C   0  0  0  0  0  0  0  0  0  0  0  0
    3.2740   -0.5010    0.4220 C   0  0  0  0  0  0  0  0  0  0  0  0
    3.0700    0.8270   -0.2040 C   0  0  2  0  0  0  0  0  0  0  0  0
    3.8950    1.8490    0.4130 N   0  0  0  0  0  0  0  0  0  0  0  0
    1.6660    1.3030   -0.1540 C   0  0  0  0  0  0  0  0  0  0  0  0
    1.3950    2.4020    0.3790 O   0  0  0  0  0  0  0  0  0  0  0  0
    3.1990   -2.6530    6.4190 H   0  0  0  0  0  0  0  0  0  0  0  0
    2.5560   -1.0060    6.6060 H   0  0  0  0  0  0  0  0  0  0  0  0
    4.8110   -2.9950    4.6810 H   0  0  0  0  0  0  0  0  0  0  0  0
    2.8650    0.6360    4.7840 H   0  0  0  0  0  0  0  0  0  0  0  0
    4.8550    0.0820    2.7110 H   0  0  0  0  0  0  0  0  0  0  0  0
    3.4980    1.2890    2.6350 H   0  0  0  0  0  0  0  0  0  0  0  0
    3.2120   -1.7230    2.1260 H   0  0  0  0  0  0  0  0  0  0  0  0
    1.9090   -0.5190    2.1260 H   0  0  0  0  0  0  0  0  0  0  0  0
    4.3290   -0.7970    0.2230 H   0  0  0  0  0  0  0  0  0  0  0  0
    2.6510   -1.2520   -0.1490 H   0  0  0  0  0  0  0  0  0  0  0  0
    3.4350    0.7760   -1.2640 H   0  0  0  0  0  0  0  0  0  0  0  0
    3.9340    2.6940   -0.2340 H   0  0  0  0  0  0  0  0  0  0  0  0
    4.9020    1.5390    0.4830 H   0  0  0  0  0  0  0  0  0  0  0  0
   -3.7650    1.0190   -2.6630 N   0  0  0  0  0  0  0  0  0  0  0  0
   -2.7310    1.7170   -2.0160 C   0  0  0  0  0  0  0  0  0  0  0  0
   -2.9720    2.7670   -1.3770 O   0  0  0  0  0  0  0  0  0  0  0  0
   -1.3450    1.2220   -2.0770 C   0  0  0  0  0  0  0  0  0  0  0  0
   -0.7860    1.0290   -0.6520 C   0  0  2  0  0  0  0  0  0  0  0  0
    0.5640    0.5500   -0.7030 N   0  0  0  0  0  0  0  0  0  0  0  0
   -1.6730    0.0760    0.0850 C   0  0  0  0  0  0  0  0  0  0  0  0
   -2.9150    0.3670    0.2030 O   0  0  0  0  0  0  0  0  0  0  0  0
   -3.6770    0.7650   -3.6860 H   0  0  0  0  0  0  0  0  0  0  0  0
   -4.6510    0.7180   -2.1900 H   0  0  0  0  0  0  0  0  0  0  0  0
   -0.7540    2.0340   -2.5880 H   0  0  0  0  0  0  0  0  0  0  0  0
   -1.3220    0.2810   -2.6380 H   0  0  0  0  0  0  0  0  0  0  0  0
   -0.8910    2.0060   -0.1510 H   0  0  0  0  0  0  0  0  0  0  0  0
    0.8420   -0.3590   -1.1330 H   0  0  0  0  0  0  0  0  0  0  0  0
   -3.7610   -2.0790   -4.7130 O   0  0  0  0  0  0  0  0  0  0  0  0
   -3.4120   -2.3970   -3.3940 C   0  0  0  0  0  0  0  0  0  0  0  0
   -2.0890   -2.4570   -3.0050 C   0  0  0  0  0  0  0  0  0  0  0  0
   -1.7590   -2.7720   -1.6950 C   0  0  0  0  0  0  0  0  0  0  0  0
   -2.7250   -3.0360   -0.7350 C   0  0  0  0  0  0  0  0  0  0  0  0
   -2.2650   -3.3510    0.6370 C   0  0  0  0  0  0  0  0  0  0  0  0
   -2.1880   -2.0010    1.3580 C   0  0  2  0  0  0  0  0  0  0  0  0
   -1.2590   -1.1260    0.6660 N   0  0  0  0  0  0  0  0  0  0  0  0
   -1.8240   -2.1600    2.7790 C   0  0  0  0  0  0  0  0  0  0  0  0
   -0.8110   -1.5670    3.2560 O   0  0  0  0  0  0  0  0  0  0  0  0
   -4.0310   -2.9710   -1.1420 C   0  0  0  0  0  0  0  0  0  0  0  0
   -4.3890   -2.6570   -2.4510 C   0  0  0  0  0  0  0  0  0  0  0  0
   -2.5540   -2.9490    3.6480 O   0  0  0  0  0  0  0  0  0  0  0  0
   -4.6790   -1.7700   -4.9670 H   0  0  0  0  0  0  0  0  0  0  0  0
   -1.3110   -2.2490   -3.7530 H   0  0  0  0  0  0  0  0  0  0  0  0
   -0.7050   -2.8060   -1.4420 H   0  0  0  0  0  0  0  0  0  0  0  0
   -1.2850   -3.8370    0.5850 H   0  0  0  0  0  0  0  0  0  0  0  0
   -2.9510   -4.0110    1.1870 H   0  0  0  0  0  0  0  0  0  0  0  0
   -3.1870   -1.5270    1.3030 H   0  0  0  0  0  0  0  0  0  0  0  0
   -0.2550   -1.4110    0.6050 H   0  0  0  0  0  0  0  0  0  0  0  0
   -4.8050   -3.1730   -0.4170 H   0  0  0  0  0  0  0  0  0  0  0  0
   -5.4200   -2.6070   -2.7710 H   0  0  0  0  0  0  0  0  0  0  0  0
  1 12  1  0  0  0  0
  1 13  1  0  0  0  0
  2  1  1  0  0  0  0
  3 14  1  0  0  0  0
  3  2  2  0  0  0  0
  4 15  1  0  0  0  0
  4  2  1  0  0  0  0
  5  4  1  0  0  0  0
  6 18  1  0  0  0  0
  6 19  1  0  0  0  0
  6  5  1  0  0  0  0
  7  6  1  0  0  0  0
  8 22  1  6  0  0  0
  8 10  1  0  0  0  0
  8  9  1  0  0  0  0
  8  7  1  0  0  0  0
  9 24  1  0  0  0  0
 10 11  2  0  0  0  0
 16  5  1  0  0  0  0
 17  5  1  0  0  0  0
 20  7  1  0  0  0  0
 21  7  1  0  0  0  0
 23  9  1  0  0  0  0
 25 34  1  0  0  0  0
 25 26  1  0  0  0  0
 26 27  2  0  0  0  0
 28 26  1  0  0  0  0
 28 29  1  0  0  0  0
 29 37  1  1  0  0  0
 29 31  1  0  0  0  0
 30 29  1  0  0  0  0
 30 10  1  0  0  0  0
 31 32  2  0  0  0  0
 31 46  1  0  0  0  0
 33 25  1  0  0  0  0
 35 28  1  0  0  0  0
 36 28  1  0  0  0  0
 38 30  1  0  0  0  0
 39 40  1  0  0  0  0
 40 41  2  0  0  0  0
 40 50  1  0  0  0  0
 41 42  1  0  0  0  0
 42 54  1  0  0  0  0
 42 43  2  0  0  0  0
 43 44  1  0  0  0  0
 44 56  1  0  0  0  0
 44 45  1  0  0  0  0
 45 57  1  6  0  0  0
 45 47  1  0  0  0  0
 46 45  1  0  0  0  0
 47 48  2  0  0  0  0
 47 51  1  0  0  0  0
 49 43  1  0  0  0  0
 49 59  1  0  0  0  0
 50 49  2  0  0  0  0
 52 39  1  0  0  0  0
 53 41  1  0  0  0  0
 55 44  1  0  0  0  0
 58 46  1  0  0  0  0
 60 50  1  0  0  0  0
M  END
$$$$
