RPA.pdb
 OpenBabel07022418063D

 49 49  0  0  1  0  0  0  0  0999 V2000
   -0.4120   -1.6330    4.3800 N   0  0  0  0  0  0  0  0  0  0  0  0
    0.8960   -2.1250    4.1120 C   0  0  0  0  0  0  0  0  0  0  0  0
    1.4120   -3.1390    4.7210 N   0  0  0  0  0  0  0  0  0  0  0  0
    1.6550   -1.4450    3.1180 N   0  0  0  0  0  0  0  0  0  0  0  0
    2.7470   -2.1320    2.4570 C   0  0  0  0  0  0  0  0  0  0  0  0
    2.2910   -3.2340    1.5760 C   0  0  0  0  0  0  0  0  0  0  0  0
    1.3810   -2.8350    0.4410 C   0  0  0  0  0  0  0  0  0  0  0  0
    1.9840   -1.8970   -0.5050 C   0  0  2  0  0  0  0  0  0  0  0  0
    3.1740   -2.5240   -1.0580 N   0  0  0  0  0  0  0  0  0  0  0  0
    2.2130   -0.5130   -0.2510 C   0  0  0  0  0  0  0  0  0  0  0  0
    3.4260   -0.1580   -0.4450 O   0  0  0  0  0  0  0  0  0  0  0  0
   -0.6070   -0.9000    5.1010 H   0  0  0  0  0  0  0  0  0  0  0  0
   -1.2390   -1.9950    3.8540 H   0  0  0  0  0  0  0  0  0  0  0  0
    0.8170   -3.6070    5.4460 H   0  0  0  0  0  0  0  0  0  0  0  0
    1.4380   -0.4630    2.8580 H   0  0  0  0  0  0  0  0  0  0  0  0
    3.4220   -1.4490    1.9500 H   0  0  0  0  0  0  0  0  0  0  0  0
    3.3420   -2.6020    3.2870 H   0  0  0  0  0  0  0  0  0  0  0  0
    1.8400   -4.0350    2.2050 H   0  0  0  0  0  0  0  0  0  0  0  0
    3.2090   -3.7070    1.1290 H   0  0  0  0  0  0  0  0  0  0  0  0
    0.4220   -2.5440    0.8960 H   0  0  0  0  0  0  0  0  0  0  0  0
    1.1370   -3.8180   -0.0720 H   0  0  0  0  0  0  0  0  0  0  0  0
    1.2640   -1.9240   -1.4110 H   0  0  0  0  0  0  0  0  0  0  0  0
    3.0700   -3.5240   -1.2500 H   0  0  0  0  0  0  0  0  0  0  0  0
    4.0370   -2.2860   -0.5470 H   0  0  0  0  0  0  0  0  0  0  0  0
    1.3280    0.5110    0.1690 N   0  0  0  0  0  0  0  0  0  0  0  0
    1.7200    1.8900    0.3710 C   0  0  0  0  0  0  0  0  0  0  0  0
    0.8730    2.3310    1.5370 C   0  0  0  0  0  0  0  0  0  0  0  0
   -0.4540    1.8130    1.0500 C   0  0  0  0  0  0  0  0  0  0  0  0
   -0.0810    0.4700    0.4680 C   0  0  1  0  0  0  0  0  0  0  0  0
   -0.9110    0.3440   -0.7650 C   0  0  0  0  0  0  0  0  0  0  0  0
   -0.3100    0.2770   -1.8630 O   0  0  0  0  0  0  0  0  0  0  0  0
    2.7910    1.9850    0.6500 H   0  0  0  0  0  0  0  0  0  0  0  0
    1.4650    2.5280   -0.5000 H   0  0  0  0  0  0  0  0  0  0  0  0
    1.1130    1.8370    2.4870 H   0  0  0  0  0  0  0  0  0  0  0  0
    0.8600    3.4450    1.6360 H   0  0  0  0  0  0  0  0  0  0  0  0
   -1.2080    1.7360    1.8570 H   0  0  0  0  0  0  0  0  0  0  0  0
   -0.7940    2.5210    0.2530 H   0  0  0  0  0  0  0  0  0  0  0  0
   -0.3120   -0.2640    1.2330 H   0  0  0  0  0  0  0  0  0  0  0  0
   -3.9870   -1.0570   -1.9190 C   0  0  0  0  0  0  0  0  0  0  0  0
   -3.1450    0.1770   -1.9360 C   0  0  2  0  0  0  0  0  0  0  0  0
   -2.3080    0.2980   -0.7570 N   0  0  0  0  0  0  0  0  0  0  0  0
   -3.9810    1.3690   -2.1550 C   0  0  0  0  0  0  0  0  0  0  0  0
   -4.7450    1.3930   -3.1520 O   0  0  0  0  0  0  0  0  0  0  0  0
   -3.9930    2.4920   -1.3310 O   0  0  0  0  0  0  0  0  0  0  0  0
   -3.8870   -1.5680   -2.8960 H   0  0  0  0  0  0  0  0  0  0  0  0
   -3.6150   -1.7610   -1.1450 H   0  0  0  0  0  0  0  0  0  0  0  0
   -5.0610   -0.8180   -1.7720 H   0  0  0  0  0  0  0  0  0  0  0  0
   -2.4450    0.1140   -2.7950 H   0  0  0  0  0  0  0  0  0  0  0  0
   -2.8040    0.3530    0.1600 H   0  0  0  0  0  0  0  0  0  0  0  0
  1 12  1  0  0  0  0
  2  1  1  0  0  0  0
  2  3  2  0  0  0  0
  3 14  1  0  0  0  0
  4  2  1  0  0  0  0
  5  4  1  0  0  0  0
  5 17  1  0  0  0  0
  6 18  1  0  0  0  0
  6  5  1  0  0  0  0
  7 20  1  0  0  0  0
  7  6  1  0  0  0  0
  8 22  1  6  0  0  0
  8 10  1  0  0  0  0
  8  7  1  0  0  0  0
  9 24  1  0  0  0  0
  9  8  1  0  0  0  0
 10 25  1  0  0  0  0
 11 10  2  0  0  0  0
 13  1  1  0  0  0  0
 15  4  1  0  0  0  0
 16  5  1  0  0  0  0
 19  6  1  0  0  0  0
 21  7  1  0  0  0  0
 23  9  1  0  0  0  0
 25 26  1  0  0  0  0
 25 29  1  0  0  0  0
 26 32  1  0  0  0  0
 26 27  1  0  0  0  0
 27 35  1  0  0  0  0
 27 34  1  0  0  0  0
 28 27  1  0  0  0  0
 28 36  1  0  0  0  0
 29 28  1  0  0  0  0
 29 38  1  1  0  0  0
 30 41  1  0  0  0  0
 30 29  1  0  0  0  0
 31 30  2  0  0  0  0
 33 26  1  0  0  0  0
 37 28  1  0  0  0  0
 39 47  1  0  0  0  0
 39 46  1  0  0  0  0
 40 48  1  6  0  0  0
 40 39  1  0  0  0  0
 40 41  1  0  0  0  0
 41 49  1  0  0  0  0
 42 40  1  0  0  0  0
 42 44  1  0  0  0  0
 43 42  2  0  0  0  0
 45 39  1  0  0  0  0
M  END
$$$$
