RPC.pdb
 OpenBabel07022418063D

 50 50  0  0  1  0  0  0  0  0999 V2000
    2.6780   -5.3040   -1.1090 N   0  0  0  0  0  0  0  0  0  0  0  0
    1.7490   -4.2450   -1.1630 C   0  0  0  0  0  0  0  0  0  0  0  0
    0.4970   -4.4410   -0.8810 N   0  0  0  0  0  0  0  0  0  0  0  0
    2.1270   -2.9340   -1.5190 N   0  0  0  0  0  0  0  0  0  0  0  0
    1.2270   -1.8280   -1.3420 C   0  0  0  0  0  0  0  0  0  0  0  0
    1.7920   -0.5220   -1.7700 C   0  0  0  0  0  0  0  0  0  0  0  0
    2.9980   -0.0780   -1.0460 C   0  0  0  0  0  0  0  0  0  0  0  0
    2.8610    0.1910    0.4220 C   0  0  2  0  0  0  0  0  0  0  0  0
    2.4590   -0.9650    1.1510 N   0  0  0  0  0  0  0  0  0  0  0  0
    2.0890    1.4220    0.6850 C   0  0  0  0  0  0  0  0  0  0  0  0
    2.6330    2.4710    0.1630 O   0  0  0  0  0  0  0  0  0  0  0  0
    2.3870   -6.2510   -0.8210 H   0  0  0  0  0  0  0  0  0  0  0  0
    3.6640   -5.1300   -1.3620 H   0  0  0  0  0  0  0  0  0  0  0  0
    0.0900   -5.3440   -0.6080 H   0  0  0  0  0  0  0  0  0  0  0  0
    3.0670   -2.7690   -1.9150 H   0  0  0  0  0  0  0  0  0  0  0  0
    0.8410   -1.7760   -0.3190 H   0  0  0  0  0  0  0  0  0  0  0  0
    0.3380   -2.0640   -1.9860 H   0  0  0  0  0  0  0  0  0  0  0  0
    1.9900   -0.4760   -2.8700 H   0  0  0  0  0  0  0  0  0  0  0  0
    0.9860    0.2630   -1.6100 H   0  0  0  0  0  0  0  0  0  0  0  0
    3.7930   -0.8700   -1.2250 H   0  0  0  0  0  0  0  0  0  0  0  0
    3.4520    0.8210   -1.5690 H   0  0  0  0  0  0  0  0  0  0  0  0
    3.9210    0.4360    0.7730 H   0  0  0  0  0  0  0  0  0  0  0  0
    2.9540   -1.8330    0.7940 H   0  0  0  0  0  0  0  0  0  0  0  0
    2.6840   -0.8730    2.1900 H   0  0  0  0  0  0  0  0  0  0  0  0
    0.9110    1.6000    1.3860 N   0  0  0  0  0  0  0  0  0  0  0  0
    0.2960    2.9500    1.5650 C   0  0  0  0  0  0  0  0  0  0  0  0
    0.1360    2.9010    3.0700 C   0  0  0  0  0  0  0  0  0  0  0  0
   -0.4630    1.5370    3.2760 C   0  0  0  0  0  0  0  0  0  0  0  0
   -0.0110    0.7150    2.0680 C   0  0  1  0  0  0  0  0  0  0  0  0
   -1.1850    0.3920    1.2080 C   0  0  0  0  0  0  0  0  0  0  0  0
   -1.2570    0.8080    0.0470 O   0  0  0  0  0  0  0  0  0  0  0  0
   -0.7120    2.9510    1.1070 H   0  0  0  0  0  0  0  0  0  0  0  0
    0.9550    3.7450    1.2270 H   0  0  0  0  0  0  0  0  0  0  0  0
    1.1400    2.8910    3.5480 H   0  0  0  0  0  0  0  0  0  0  0  0
   -0.5050    3.7140    3.4580 H   0  0  0  0  0  0  0  0  0  0  0  0
   -0.1880    1.0670    4.2210 H   0  0  0  0  0  0  0  0  0  0  0  0
   -1.5790    1.6710    3.2530 H   0  0  0  0  0  0  0  0  0  0  0  0
    0.5150   -0.1470    2.4620 H   0  0  0  0  0  0  0  0  0  0  0  0
   -2.2340   -0.3940    1.7160 N   0  0  0  0  0  0  0  0  0  0  0  0
   -3.4130   -0.7790    1.0200 C   0  0  1  0  0  0  0  0  0  0  0  0
   -3.7470   -2.2220    1.0260 C   0  0  0  0  0  0  0  0  0  0  0  0
   -2.4570   -3.2570    0.2790 S   0  0  0  0  0  0  0  0  0  0  0  0
   -4.5800   -0.0630    1.6580 C   0  0  0  0  0  0  0  0  0  0  0  0
   -5.7440   -0.2440    1.2080 O   0  0  0  0  0  0  0  0  0  0  0  0
   -4.4280    0.7910    2.7250 O   0  0  0  0  0  0  0  0  0  0  0  0
   -2.1370   -0.7350    2.7190 H   0  0  0  0  0  0  0  0  0  0  0  0
   -3.4130   -0.4060   -0.0280 H   0  0  0  0  0  0  0  0  0  0  0  0
   -4.0720   -2.6140    2.0100 H   0  0  0  0  0  0  0  0  0  0  0  0
   -4.6530   -2.3470    0.3610 H   0  0  0  0  0  0  0  0  0  0  0  0
   -3.0570   -4.3490   -0.3910 H   0  0  0  0  0  0  0  0  0  0  0  0
  1 12  1  0  0  0  0
  2  1  1  0  0  0  0
  2  3  2  0  0  0  0
  3 14  1  0  0  0  0
  4  5  1  0  0  0  0
  4  2  1  0  0  0  0
  5 16  1  0  0  0  0
  6 19  1  0  0  0  0
  6  5  1  0  0  0  0
  6  7  1  0  0  0  0
  7  8  1  0  0  0  0
  8 10  1  0  0  0  0
  8 22  1  1  0  0  0
  8  9  1  0  0  0  0
  9 24  1  0  0  0  0
 10 25  1  0  0  0  0
 11 10  2  0  0  0  0
 13  1  1  0  0  0  0
 15  4  1  0  0  0  0
 17  5  1  0  0  0  0
 18  6  1  0  0  0  0
 20  7  1  0  0  0  0
 21  7  1  0  0  0  0
 23  9  1  0  0  0  0
 25 26  1  0  0  0  0
 25 29  1  0  0  0  0
 26 27  1  0  0  0  0
 27 28  1  0  0  0  0
 27 35  1  0  0  0  0
 27 34  1  0  0  0  0
 28 36  1  0  0  0  0
 29 38  1  1  0  0  0
 29 28  1  0  0  0  0
 30 39  1  0  0  0  0
 30 29  1  0  0  0  0
 31 30  2  0  0  0  0
 32 26  1  0  0  0  0
 33 26  1  0  0  0  0
 37 28  1  0  0  0  0
 39 46  1  0  0  0  0
 40 47  1  6  0  0  0
 40 41  1  0  0  0  0
 40 43  1  0  0  0  0
 40 39  1  0  0  0  0
 41 48  1  0  0  0  0
 42 41  1  0  0  0  0
 43 45  1  0  0  0  0
 44 43  2  0  0  0  0
 49 41  1  0  0  0  0
 50 42  1  0  0  0  0
M  END
$$$$
