RPH.pdb
 OpenBabel07022418063D

 56 57  0  0  1  0  0  0  0  0999 V2000
    0.0330   -4.1690    3.6010 N   0  0  0  0  0  0  0  0  0  0  0  0
    0.4670   -2.8620    3.9310 C   0  0  0  0  0  0  0  0  0  0  0  0
    0.0210   -2.2320    4.9470 N   0  0  0  0  0  0  0  0  0  0  0  0
    1.4500   -2.2130    3.0910 N   0  0  0  0  0  0  0  0  0  0  0  0
    2.1810   -1.1440    3.6910 C   0  0  0  0  0  0  0  0  0  0  0  0
    3.0950   -0.4230    2.7600 C   0  0  0  0  0  0  0  0  0  0  0  0
    2.5160    0.3310    1.6350 C   0  0  0  0  0  0  0  0  0  0  0  0
    1.7290   -0.4100    0.5980 C   0  0  2  0  0  0  0  0  0  0  0  0
    2.6160   -1.3720   -0.0110 N   0  0  0  0  0  0  0  0  0  0  0  0
    1.3690    0.5760   -0.5050 C   0  0  0  0  0  0  0  0  0  0  0  0
    2.1500    0.5500   -1.5140 O   0  0  0  0  0  0  0  0  0  0  0  0
   -0.8240   -4.5630    4.0450 H   0  0  0  0  0  0  0  0  0  0  0  0
    0.5380   -4.7680    2.9230 H   0  0  0  0  0  0  0  0  0  0  0  0
   -0.6730   -2.5800    5.6150 H   0  0  0  0  0  0  0  0  0  0  0  0
    1.5400   -2.6100    2.1420 H   0  0  0  0  0  0  0  0  0  0  0  0
    2.7680   -1.5760    4.5710 H   0  0  0  0  0  0  0  0  0  0  0  0
    1.4690   -0.3930    4.1770 H   0  0  0  0  0  0  0  0  0  0  0  0
    3.8590   -1.1400    2.3090 H   0  0  0  0  0  0  0  0  0  0  0  0
    3.7710    0.2300    3.3980 H   0  0  0  0  0  0  0  0  0  0  0  0
    3.4140    0.7950    1.0880 H   0  0  0  0  0  0  0  0  0  0  0  0
    1.9720    1.2530    1.9790 H   0  0  0  0  0  0  0  0  0  0  0  0
    0.7870   -0.8220    0.9860 H   0  0  0  0  0  0  0  0  0  0  0  0
    3.2000   -1.9180    0.6160 H   0  0  0  0  0  0  0  0  0  0  0  0
    3.0790   -1.0230   -0.8780 H   0  0  0  0  0  0  0  0  0  0  0  0
    0.2690    1.4490   -0.4310 N   0  0  0  0  0  0  0  0  0  0  0  0
   -0.0260    2.4240   -1.5040 C   0  0  0  0  0  0  0  0  0  0  0  0
   -0.5630    3.5900   -0.6500 C   0  0  0  0  0  0  0  0  0  0  0  0
   -1.5170    2.8420    0.2400 C   0  0  0  0  0  0  0  0  0  0  0  0
   -0.7200    1.5740    0.5730 C   0  0  1  0  0  0  0  0  0  0  0  0
   -1.6760    0.4230    0.6010 C   0  0  0  0  0  0  0  0  0  0  0  0
   -2.5420    0.4640    1.5210 O   0  0  0  0  0  0  0  0  0  0  0  0
    0.8710    2.7650   -2.0130 H   0  0  0  0  0  0  0  0  0  0  0  0
   -0.8470    2.0760   -2.1520 H   0  0  0  0  0  0  0  0  0  0  0  0
    0.2830    3.9980   -0.0950 H   0  0  0  0  0  0  0  0  0  0  0  0
   -1.0640    4.3400   -1.2930 H   0  0  0  0  0  0  0  0  0  0  0  0
   -1.7840    3.3920    1.1630 H   0  0  0  0  0  0  0  0  0  0  0  0
   -2.4170    2.5850   -0.3680 H   0  0  0  0  0  0  0  0  0  0  0  0
   -0.2730    1.7380    1.5610 H   0  0  0  0  0  0  0  0  0  0  0  0
   -1.6520   -0.6520   -0.3150 N   0  0  0  0  0  0  0  0  0  0  0  0
   -2.6330   -1.7120   -0.1930 C   0  0  1  0  0  0  0  0  0  0  0  0
   -3.3910   -1.9210   -1.4830 C   0  0  0  0  0  0  0  0  0  0  0  0
   -2.4320   -2.2840   -2.5470 C   0  0  0  0  0  0  0  0  0  0  0  0
   -1.7590   -1.4320   -3.4010 C   0  0  0  0  0  0  0  0  0  0  0  0
   -0.9910   -2.2080   -4.2070 N   0  0  0  0  0  0  0  0  0  0  0  0
   -1.1830   -3.4870   -3.8620 C   0  0  0  0  0  0  0  0  0  0  0  0
   -2.0560   -3.5500   -2.8550 N   0  0  0  0  0  0  0  0  0  0  0  0
   -1.9230   -2.9980    0.1060 C   0  0  0  0  0  0  0  0  0  0  0  0
   -2.5730   -4.0720    0.2630 O   0  0  0  0  0  0  0  0  0  0  0  0
   -0.5500   -3.0890    0.2270 O   0  0  0  0  0  0  0  0  0  0  0  0
   -0.9210   -0.6550   -1.0640 H   0  0  0  0  0  0  0  0  0  0  0  0
   -3.3050   -1.5110    0.6570 H   0  0  0  0  0  0  0  0  0  0  0  0
   -4.0130   -1.0470   -1.7530 H   0  0  0  0  0  0  0  0  0  0  0  0
   -4.0760   -2.7800   -1.3360 H   0  0  0  0  0  0  0  0  0  0  0  0
   -1.8570   -0.3620   -3.3930 H   0  0  0  0  0  0  0  0  0  0  0  0
   -0.3740   -1.8270   -4.9510 H   0  0  0  0  0  0  0  0  0  0  0  0
   -0.6950   -4.3200   -4.3420 H   0  0  0  0  0  0  0  0  0  0  0  0
  1  2  1  0  0  0  0
  1 12  1  0  0  0  0
  2  3  2  0  0  0  0
  3 14  1  0  0  0  0
  4  5  1  0  0  0  0
  4  2  1  0  0  0  0
  5 17  1  0  0  0  0
  5 16  1  0  0  0  0
  6 19  1  0  0  0  0
  6  5  1  0  0  0  0
  7 21  1  0  0  0  0
  7  6  1  0  0  0  0
  8 22  1  1  0  0  0
  8  7  1  0  0  0  0
  9  8  1  0  0  0  0
  9 23  1  0  0  0  0
 10 25  1  0  0  0  0
 10  8  1  0  0  0  0
 11 10  2  0  0  0  0
 13  1  1  0  0  0  0
 15  4  1  0  0  0  0
 18  6  1  0  0  0  0
 20  7  1  0  0  0  0
 24  9  1  0  0  0  0
 25 29  1  0  0  0  0
 26 27  1  0  0  0  0
 26 25  1  0  0  0  0
 27 34  1  0  0  0  0
 27 28  1  0  0  0  0
 28 29  1  0  0  0  0
 28 36  1  0  0  0  0
 29 30  1  0  0  0  0
 29 38  1  1  0  0  0
 30 31  2  0  0  0  0
 32 26  1  0  0  0  0
 33 26  1  0  0  0  0
 35 27  1  0  0  0  0
 37 28  1  0  0  0  0
 39 40  1  0  0  0  0
 39 30  1  0  0  0  0
 40 47  1  0  0  0  0
 40 51  1  1  0  0  0
 41 53  1  0  0  0  0
 41 40  1  0  0  0  0
 42 41  1  0  0  0  0
 43 54  1  0  0  0  0
 43 42  2  0  0  0  0
 44 45  1  0  0  0  0
 44 43  1  0  0  0  0
 45 46  2  0  0  0  0
 46 42  1  0  0  0  0
 47 49  2  0  0  0  0
 47 48  1  0  0  0  0
 50 39  1  0  0  0  0
 52 41  1  0  0  0  0
 55 44  1  0  0  0  0
 56 45  1  0  0  0  0
M  END
$$$$
