RPI.pdb
 OpenBabel07022418063D

 58 58  0  0  1  0  0  0  0  0999 V2000
    1.4670   -4.3700    5.7640 N   0  0  0  0  0  0  0  0  0  0  0  0
    2.1060   -3.7740    4.6400 C   0  0  0  0  0  0  0  0  0  0  0  0
    1.7730   -4.0570    3.4210 N   0  0  0  0  0  0  0  0  0  0  0  0
    3.1410   -2.8410    4.8700 N   0  0  0  0  0  0  0  0  0  0  0  0
    3.4340   -1.9070    3.7490 C   0  0  0  0  0  0  0  0  0  0  0  0
    2.2560   -0.9960    3.6080 C   0  0  0  0  0  0  0  0  0  0  0  0
    2.3530    0.0480    2.5690 C   0  0  0  0  0  0  0  0  0  0  0  0
    2.5330   -0.4000    1.1530 C   0  0  2  0  0  0  0  0  0  0  0  0
    3.7980   -1.1340    1.1110 N   0  0  0  0  0  0  0  0  0  0  0  0
    2.6870    0.7910    0.2820 C   0  0  0  0  0  0  0  0  0  0  0  0
    3.8800    1.1190   -0.0490 O   0  0  0  0  0  0  0  0  0  0  0  0
    1.9030   -5.2190    6.2300 H   0  0  0  0  0  0  0  0  0  0  0  0
    0.5740   -3.9770    6.1350 H   0  0  0  0  0  0  0  0  0  0  0  0
    1.0040   -4.7520    3.2910 H   0  0  0  0  0  0  0  0  0  0  0  0
    3.6900   -2.7720    5.7490 H   0  0  0  0  0  0  0  0  0  0  0  0
    3.6120   -2.5450    2.8360 H   0  0  0  0  0  0  0  0  0  0  0  0
    4.3470   -1.3570    3.9710 H   0  0  0  0  0  0  0  0  0  0  0  0
    1.3210   -1.5980    3.4610 H   0  0  0  0  0  0  0  0  0  0  0  0
    2.0480   -0.4530    4.5840 H   0  0  0  0  0  0  0  0  0  0  0  0
    3.2070    0.7550    2.8480 H   0  0  0  0  0  0  0  0  0  0  0  0
    1.4370    0.7030    2.6830 H   0  0  0  0  0  0  0  0  0  0  0  0
    1.6980   -1.0280    0.7940 H   0  0  0  0  0  0  0  0  0  0  0  0
    3.6640   -1.9160    0.4310 H   0  0  0  0  0  0  0  0  0  0  0  0
    4.5990   -0.5110    0.8840 H   0  0  0  0  0  0  0  0  0  0  0  0
    1.5980    1.5640   -0.1930 N   0  0  0  0  0  0  0  0  0  0  0  0
    1.8070    2.7550   -1.0420 C   0  0  0  0  0  0  0  0  0  0  0  0
    0.7870    3.7250   -0.5020 C   0  0  0  0  0  0  0  0  0  0  0  0
   -0.4040    2.8210   -0.3040 C   0  0  0  0  0  0  0  0  0  0  0  0
    0.1850    1.4490   -0.0500 C   0  0  1  0  0  0  0  0  0  0  0  0
   -0.3320    0.4500   -1.0280 C   0  0  0  0  0  0  0  0  0  0  0  0
    0.4540   -0.1660   -1.8060 O   0  0  0  0  0  0  0  0  0  0  0  0
    2.8210    3.1800   -0.8810 H   0  0  0  0  0  0  0  0  0  0  0  0
    1.6630    2.5020   -2.0960 H   0  0  0  0  0  0  0  0  0  0  0  0
    1.1440    4.1940    0.4180 H   0  0  0  0  0  0  0  0  0  0  0  0
    0.5930    4.5220   -1.2530 H   0  0  0  0  0  0  0  0  0  0  0  0
   -1.0470    3.1690    0.5270 H   0  0  0  0  0  0  0  0  0  0  0  0
   -0.9710    2.8320   -1.2660 H   0  0  0  0  0  0  0  0  0  0  0  0
   -0.0710    1.1910    0.9840 H   0  0  0  0  0  0  0  0  0  0  0  0
   -4.7290   -2.9840   -2.5640 C   0  0  0  0  0  0  0  0  0  0  0  0
   -3.3460   -3.1220   -2.0530 C   0  0  0  0  0  0  0  0  0  0  0  0
   -2.7610   -1.9800   -1.3170 C   0  0  2  0  0  0  0  0  0  0  0  0
   -3.5470   -1.5710   -0.0860 C   0  0  0  0  0  0  0  0  0  0  0  0
   -2.2100   -0.8520   -2.1090 C   0  0  2  0  0  0  0  0  0  0  0  0
   -1.7040    0.1350   -1.1440 N   0  0  0  0  0  0  0  0  0  0  0  0
   -3.0590   -0.2390   -3.1140 C   0  0  0  0  0  0  0  0  0  0  0  0
   -3.3700    1.0020   -3.0580 O   0  0  0  0  0  0  0  0  0  0  0  0
   -3.5950   -0.9090   -4.1950 O   0  0  0  0  0  0  0  0  0  0  0  0
   -5.3370   -3.7950   -2.0400 H   0  0  0  0  0  0  0  0  0  0  0  0
   -4.8650   -3.2300   -3.6360 H   0  0  0  0  0  0  0  0  0  0  0  0
   -5.2400   -2.0290   -2.3710 H   0  0  0  0  0  0  0  0  0  0  0  0
   -2.6860   -3.2810   -2.9610 H   0  0  0  0  0  0  0  0  0  0  0  0
   -3.1910   -4.0780   -1.4740 H   0  0  0  0  0  0  0  0  0  0  0  0
   -1.8120   -2.4370   -0.8250 H   0  0  0  0  0  0  0  0  0  0  0  0
   -2.8720   -1.0880    0.6470 H   0  0  0  0  0  0  0  0  0  0  0  0
   -3.9630   -2.4730    0.4070 H   0  0  0  0  0  0  0  0  0  0  0  0
   -4.3960   -0.9080   -0.3360 H   0  0  0  0  0  0  0  0  0  0  0  0
   -1.2800   -1.2380   -2.6280 H   0  0  0  0  0  0  0  0  0  0  0  0
   -2.4180    0.5920   -0.5470 H   0  0  0  0  0  0  0  0  0  0  0  0
  1 13  1  0  0  0  0
  1 12  1  0  0  0  0
  2  4  1  0  0  0  0
  2  1  1  0  0  0  0
  3  2  2  0  0  0  0
  4 15  1  0  0  0  0
  5 17  1  0  0  0  0
  5  4  1  0  0  0  0
  6  5  1  0  0  0  0
  6 19  1  0  0  0  0
  7 21  1  0  0  0  0
  7 20  1  0  0  0  0
  7  6  1  0  0  0  0
  8 22  1  6  0  0  0
  8  7  1  0  0  0  0
  9  8  1  0  0  0  0
 10  8  1  0  0  0  0
 11 10  2  0  0  0  0
 14  3  1  0  0  0  0
 16  5  1  0  0  0  0
 18  6  1  0  0  0  0
 23  9  1  0  0  0  0
 24  9  1  0  0  0  0
 25 29  1  0  0  0  0
 25 10  1  0  0  0  0
 26 32  1  0  0  0  0
 26 27  1  0  0  0  0
 26 25  1  0  0  0  0
 27 28  1  0  0  0  0
 27 34  1  0  0  0  0
 28 29  1  0  0  0  0
 28 36  1  0  0  0  0
 29 38  1  1  0  0  0
 30 29  1  0  0  0  0
 31 30  2  0  0  0  0
 33 26  1  0  0  0  0
 35 27  1  0  0  0  0
 37 28  1  0  0  0  0
 39 50  1  0  0  0  0
 39 40  1  0  0  0  0
 39 48  1  0  0  0  0
 40 52  1  0  0  0  0
 40 41  1  0  0  0  0
 41 53  1  1  0  0  0
 41 42  1  0  0  0  0
 42 55  1  0  0  0  0
 42 54  1  0  0  0  0
 43 57  1  6  0  0  0
 43 41  1  0  0  0  0
 43 44  1  0  0  0  0
 44 30  1  0  0  0  0
 44 58  1  0  0  0  0
 45 46  1  0  0  0  0
 45 43  1  0  0  0  0
 47 45  2  0  0  0  0
 49 39  1  0  0  0  0
 51 40  1  0  0  0  0
 56 42  1  0  0  0  0
M  END
$$$$
