RPK.pdb
 OpenBabel07022418063D

 60 60  0  0  1  0  0  0  0  0999 V2000
   -1.1920   -1.3590    4.5110 N   0  0  0  0  0  0  0  0  0  0  0  0
    0.1530   -1.2510    4.1180 C   0  0  0  0  0  0  0  0  0  0  0  0
    0.8610   -2.1930    3.6030 N   0  0  0  0  0  0  0  0  0  0  0  0
    0.7950    0.0220    4.3060 N   0  0  0  0  0  0  0  0  0  0  0  0
    2.1910    0.2050    4.0840 C   0  0  0  0  0  0  0  0  0  0  0  0
    2.5900    0.0860    2.6350 C   0  0  0  0  0  0  0  0  0  0  0  0
    1.8110    1.1760    1.8800 C   0  0  0  0  0  0  0  0  0  0  0  0
    2.1470    1.1210    0.4010 C   0  0  2  0  0  0  0  0  0  0  0  0
    3.6100    1.3480    0.3580 N   0  0  0  0  0  0  0  0  0  0  0  0
    1.4870    2.2230   -0.3210 C   0  0  0  0  0  0  0  0  0  0  0  0
    2.2530    3.1830   -0.7030 O   0  0  0  0  0  0  0  0  0  0  0  0
   -1.4310   -1.5250    5.4980 H   0  0  0  0  0  0  0  0  0  0  0  0
   -1.9410   -1.2710    3.8090 H   0  0  0  0  0  0  0  0  0  0  0  0
    0.4320   -3.1470    3.4440 H   0  0  0  0  0  0  0  0  0  0  0  0
    0.2280    0.8540    4.6160 H   0  0  0  0  0  0  0  0  0  0  0  0
    2.5000    1.1850    4.4860 H   0  0  0  0  0  0  0  0  0  0  0  0
    2.7450   -0.5700    4.6520 H   0  0  0  0  0  0  0  0  0  0  0  0
    3.6610    0.3630    2.5400 H   0  0  0  0  0  0  0  0  0  0  0  0
    2.4370   -0.9040    2.2160 H   0  0  0  0  0  0  0  0  0  0  0  0
    2.0040    2.1510    2.3200 H   0  0  0  0  0  0  0  0  0  0  0  0
    0.7550    0.9060    2.0250 H   0  0  0  0  0  0  0  0  0  0  0  0
    1.9890    0.1280   -0.0100 H   0  0  0  0  0  0  0  0  0  0  0  0
    3.8770    1.9890    1.1380 H   0  0  0  0  0  0  0  0  0  0  0  0
    4.0440    0.4250    0.5500 H   0  0  0  0  0  0  0  0  0  0  0  0
    0.1070    2.3190   -0.6260 N   0  0  0  0  0  0  0  0  0  0  0  0
   -0.4140    3.5050   -1.3460 C   0  0  0  0  0  0  0  0  0  0  0  0
   -1.8200    3.5950   -0.7200 C   0  0  0  0  0  0  0  0  0  0  0  0
   -2.2130    2.1460   -0.8480 C   0  0  0  0  0  0  0  0  0  0  0  0
   -0.9700    1.4240   -0.3540 C   0  0  1  0  0  0  0  0  0  0  0  0
   -0.8380    0.1120   -1.0570 C   0  0  0  0  0  0  0  0  0  0  0  0
    0.0800   -0.1200   -1.8730 O   0  0  0  0  0  0  0  0  0  0  0  0
   -0.4720    3.3530   -2.4200 H   0  0  0  0  0  0  0  0  0  0  0  0
    0.1200    4.4170   -1.0980 H   0  0  0  0  0  0  0  0  0  0  0  0
   -2.4710    4.2840   -1.2620 H   0  0  0  0  0  0  0  0  0  0  0  0
   -1.7110    3.8190    0.3490 H   0  0  0  0  0  0  0  0  0  0  0  0
   -3.1090    1.8860   -0.2540 H   0  0  0  0  0  0  0  0  0  0  0  0
   -2.3740    1.8980   -1.9280 H   0  0  0  0  0  0  0  0  0  0  0  0
   -1.1550    1.2670    0.7410 H   0  0  0  0  0  0  0  0  0  0  0  0
   -1.7700   -0.9120   -0.8040 N   0  0  0  0  0  0  0  0  0  0  0  0
   -1.6770   -2.2260   -1.4700 C   0  0  1  0  0  0  0  0  0  0  0  0
   -1.6590   -3.2600   -0.3870 C   0  0  0  0  0  0  0  0  0  0  0  0
   -1.5620   -4.6760   -0.8420 C   0  0  0  0  0  0  0  0  0  0  0  0
   -0.2970   -4.9370   -1.6450 C   0  0  0  0  0  0  0  0  0  0  0  0
    0.9360   -4.6350   -0.7840 C   0  0  0  0  0  0  0  0  0  0  0  0
    0.9440   -5.4780    0.3980 N   0  0  0  0  0  0  0  0  0  0  0  0
   -2.8510   -2.4040   -2.3660 C   0  0  0  0  0  0  0  0  0  0  0  0
   -3.7480   -1.5340   -2.4560 O   0  0  0  0  0  0  0  0  0  0  0  0
   -2.9480   -3.5520   -3.1120 O   0  0  0  0  0  0  0  0  0  0  0  0
   -2.5500   -0.7730   -0.1420 H   0  0  0  0  0  0  0  0  0  0  0  0
   -0.7710   -2.2230   -2.0950 H   0  0  0  0  0  0  0  0  0  0  0  0
   -2.6360   -3.1780    0.1770 H   0  0  0  0  0  0  0  0  0  0  0  0
   -0.8900   -2.9960    0.3790 H   0  0  0  0  0  0  0  0  0  0  0  0
   -1.4450   -5.2960    0.1010 H   0  0  0  0  0  0  0  0  0  0  0  0
   -2.4360   -5.0030   -1.4040 H   0  0  0  0  0  0  0  0  0  0  0  0
   -0.2280   -4.2880   -2.5360 H   0  0  0  0  0  0  0  0  0  0  0  0
   -0.2420   -5.9930   -1.9380 H   0  0  0  0  0  0  0  0  0  0  0  0
    1.8320   -4.7530   -1.4030 H   0  0  0  0  0  0  0  0  0  0  0  0
    0.8710   -3.5890   -0.4780 H   0  0  0  0  0  0  0  0  0  0  0  0
    0.6600   -4.9350    1.2670 H   0  0  0  0  0  0  0  0  0  0  0  0
    0.3620   -6.3340    0.2900 H   0  0  0  0  0  0  0  0  0  0  0  0
  1 12  1  0  0  0  0
  2  4  1  0  0  0  0
  2  1  1  0  0  0  0
  3  2  2  0  0  0  0
  4 15  1  0  0  0  0
  5  4  1  0  0  0  0
  5 16  1  0  0  0  0
  5 17  1  0  0  0  0
  6  5  1  0  0  0  0
  7 21  1  0  0  0  0
  7 20  1  0  0  0  0
  7  6  1  0  0  0  0
  8 22  1  6  0  0  0
  8  7  1  0  0  0  0
  9  8  1  0  0  0  0
  9 24  1  0  0  0  0
  9 23  1  0  0  0  0
 10  8  1  0  0  0  0
 11 10  2  0  0  0  0
 13  1  1  0  0  0  0
 14  3  1  0  0  0  0
 18  6  1  0  0  0  0
 19  6  1  0  0  0  0
 25 29  1  0  0  0  0
 25 10  1  0  0  0  0
 26 33  1  0  0  0  0
 26 27  1  0  0  0  0
 26 25  1  0  0  0  0
 27 35  1  0  0  0  0
 28 27  1  0  0  0  0
 28 29  1  0  0  0  0
 28 36  1  0  0  0  0
 29 38  1  1  0  0  0
 30 39  1  0  0  0  0
 30 29  1  0  0  0  0
 31 30  2  0  0  0  0
 32 26  1  0  0  0  0
 34 27  1  0  0  0  0
 37 28  1  0  0  0  0
 39 49  1  0  0  0  0
 40 50  1  6  0  0  0
 40 39  1  0  0  0  0
 40 41  1  0  0  0  0
 41 51  1  0  0  0  0
 41 52  1  0  0  0  0
 42 41  1  0  0  0  0
 42 53  1  0  0  0  0
 43 42  1  0  0  0  0
 43 44  1  0  0  0  0
 44 58  1  0  0  0  0
 44 45  1  0  0  0  0
 45 59  1  0  0  0  0
 46 40  1  0  0  0  0
 47 46  1  0  0  0  0
 48 46  2  0  0  0  0
 54 42  1  0  0  0  0
 55 43  1  0  0  0  0
 56 43  1  0  0  0  0
 57 44  1  0  0  0  0
 60 45  1  0  0  0  0
M  END
$$$$
