RPN.pdb
 OpenBabel07022418063D

 53 53  0  0  1  0  0  0  0  0999 V2000
    1.7070   -3.4030    4.9760 N   0  0  0  0  0  0  0  0  0  0  0  0
    2.3160   -2.9450    3.7880 C   0  0  0  0  0  0  0  0  0  0  0  0
    1.7620   -3.1930    2.6320 N   0  0  0  0  0  0  0  0  0  0  0  0
    3.5340   -2.2090    3.7810 N   0  0  0  0  0  0  0  0  0  0  0  0
    4.1630   -1.7210    2.5720 C   0  0  0  0  0  0  0  0  0  0  0  0
    3.2940   -0.6320    1.9780 C   0  0  0  0  0  0  0  0  0  0  0  0
    3.8760   -0.0710    0.7130 C   0  0  0  0  0  0  0  0  0  0  0  0
    2.9060    1.0160    0.2170 C   0  0  2  0  0  0  0  0  0  0  0  0
    2.7690    2.0550    1.2060 N   0  0  0  0  0  0  0  0  0  0  0  0
    1.6250    0.3520   -0.0080 C   0  0  0  0  0  0  0  0  0  0  0  0
    1.5940   -0.5320   -0.9330 O   0  0  0  0  0  0  0  0  0  0  0  0
    2.1330   -4.1630    5.5310 H   0  0  0  0  0  0  0  0  0  0  0  0
    0.8240   -2.9710    5.2940 H   0  0  0  0  0  0  0  0  0  0  0  0
    0.8590   -3.7350    2.5860 H   0  0  0  0  0  0  0  0  0  0  0  0
    3.9620   -2.0350    4.7320 H   0  0  0  0  0  0  0  0  0  0  0  0
    5.1700   -1.3500    2.8340 H   0  0  0  0  0  0  0  0  0  0  0  0
    4.2990   -2.5530    1.8330 H   0  0  0  0  0  0  0  0  0  0  0  0
    3.2470    0.1690    2.7300 H   0  0  0  0  0  0  0  0  0  0  0  0
    2.3130   -1.0630    1.7350 H   0  0  0  0  0  0  0  0  0  0  0  0
    3.9110   -0.8460   -0.0920 H   0  0  0  0  0  0  0  0  0  0  0  0
    4.8670    0.3300    0.9230 H   0  0  0  0  0  0  0  0  0  0  0  0
    3.3190    1.4830   -0.7120 H   0  0  0  0  0  0  0  0  0  0  0  0
    2.7360    3.0100    0.7480 H   0  0  0  0  0  0  0  0  0  0  0  0
    3.5100    2.0230    1.9440 H   0  0  0  0  0  0  0  0  0  0  0  0
    0.4190    0.6120    0.7160 N   0  0  0  0  0  0  0  0  0  0  0  0
    0.3630    1.5550    1.8050 C   0  0  0  0  0  0  0  0  0  0  0  0
   -0.9940    1.3590    2.4630 C   0  0  0  0  0  0  0  0  0  0  0  0
   -1.8300    0.8150    1.3320 C   0  0  0  0  0  0  0  0  0  0  0  0
   -0.8700    0.0360    0.5160 C   0  0  1  0  0  0  0  0  0  0  0  0
   -1.2850   -0.0530   -0.9140 C   0  0  0  0  0  0  0  0  0  0  0  0
   -0.6220    0.3730   -1.8850 O   0  0  0  0  0  0  0  0  0  0  0  0
    1.1170    1.2530    2.5800 H   0  0  0  0  0  0  0  0  0  0  0  0
    0.4950    2.5880    1.4650 H   0  0  0  0  0  0  0  0  0  0  0  0
   -0.9380    0.6800    3.3210 H   0  0  0  0  0  0  0  0  0  0  0  0
   -1.3570    2.3510    2.8100 H   0  0  0  0  0  0  0  0  0  0  0  0
   -2.6490    0.1990    1.7730 H   0  0  0  0  0  0  0  0  0  0  0  0
   -2.2520    1.7030    0.8110 H   0  0  0  0  0  0  0  0  0  0  0  0
   -0.9110   -1.0290    0.8870 H   0  0  0  0  0  0  0  0  0  0  0  0
   -4.7890   -4.1480   -2.6430 N   0  0  0  0  0  0  0  0  0  0  0  0
   -4.3530   -2.8310   -2.3380 C   0  0  0  0  0  0  0  0  0  0  0  0
   -4.9100   -2.2580   -1.3710 O   0  0  0  0  0  0  0  0  0  0  0  0
   -3.2900   -2.1360   -3.1050 C   0  0  0  0  0  0  0  0  0  0  0  0
   -2.9910   -0.7830   -2.5970 C   0  0  2  0  0  0  0  0  0  0  0  0
   -2.5350   -0.6660   -1.2590 N   0  0  0  0  0  0  0  0  0  0  0  0
   -4.1920    0.0840   -2.8580 C   0  0  0  0  0  0  0  0  0  0  0  0
   -4.6840    0.8070   -1.9540 O   0  0  0  0  0  0  0  0  0  0  0  0
   -4.7210    0.0410   -4.1400 O   0  0  0  0  0  0  0  0  0  0  0  0
   -4.7200   -4.4650   -3.6520 H   0  0  0  0  0  0  0  0  0  0  0  0
   -5.1670   -4.8190   -1.9660 H   0  0  0  0  0  0  0  0  0  0  0  0
   -2.3950   -2.7790   -3.2570 H   0  0  0  0  0  0  0  0  0  0  0  0
   -3.7140   -2.0050   -4.1450 H   0  0  0  0  0  0  0  0  0  0  0  0
   -2.1960   -0.3370   -3.2630 H   0  0  0  0  0  0  0  0  0  0  0  0
   -3.1370   -1.0420   -0.4930 H   0  0  0  0  0  0  0  0  0  0  0  0
  1 13  1  0  0  0  0
  1 12  1  0  0  0  0
  2  1  1  0  0  0  0
  3  2  2  0  0  0  0
  4  2  1  0  0  0  0
  4 15  1  0  0  0  0
  5 16  1  0  0  0  0
  5  4  1  0  0  0  0
  6  5  1  0  0  0  0
  6 18  1  0  0  0  0
  7 21  1  0  0  0  0
  7  6  1  0  0  0  0
  8 22  1  6  0  0  0
  8  7  1  0  0  0  0
  8  9  1  0  0  0  0
  9 24  1  0  0  0  0
 10  8  1  0  0  0  0
 10 25  1  0  0  0  0
 11 10  2  0  0  0  0
 14  3  1  0  0  0  0
 17  5  1  0  0  0  0
 19  6  1  0  0  0  0
 20  7  1  0  0  0  0
 23  9  1  0  0  0  0
 25 26  1  0  0  0  0
 26 27  1  0  0  0  0
 26 32  1  0  0  0  0
 27 35  1  0  0  0  0
 27 34  1  0  0  0  0
 28 36  1  0  0  0  0
 28 27  1  0  0  0  0
 29 25  1  0  0  0  0
 29 38  1  1  0  0  0
 29 28  1  0  0  0  0
 30 29  1  0  0  0  0
 31 30  2  0  0  0  0
 33 26  1  0  0  0  0
 37 28  1  0  0  0  0
 39 40  1  0  0  0  0
 39 49  1  0  0  0  0
 40 41  2  0  0  0  0
 42 43  1  0  0  0  0
 42 40  1  0  0  0  0
 43 52  1  6  0  0  0
 43 44  1  0  0  0  0
 44 30  1  0  0  0  0
 44 53  1  0  0  0  0
 45 43  1  0  0  0  0
 45 46  1  0  0  0  0
 47 45  2  0  0  0  0
 48 39  1  0  0  0  0
 50 42  1  0  0  0  0
 51 42  1  0  0  0  0
M  END
$$$$
