RPQ.pdb
 OpenBabel07022418063D

 56 56  0  0  1  0  0  0  0  0999 V2000
    1.4690   -1.3700    6.4880 N   0  0  0  0  0  0  0  0  0  0  0  0
    1.0490   -0.7640    5.2770 C   0  0  0  0  0  0  0  0  0  0  0  0
   -0.1960   -0.8130    4.8990 N   0  0  0  0  0  0  0  0  0  0  0  0
    1.9470   -0.0710    4.4020 N   0  0  0  0  0  0  0  0  0  0  0  0
    1.5870    0.2090    3.0190 C   0  0  0  0  0  0  0  0  0  0  0  0
    2.7390    0.9440    2.3780 C   0  0  0  0  0  0  0  0  0  0  0  0
    2.4830    1.2870    0.9470 C   0  0  0  0  0  0  0  0  0  0  0  0
    2.2410    0.0350    0.1090 C   0  0  2  0  0  0  0  0  0  0  0  0
    3.4780   -0.7380    0.2550 N   0  0  0  0  0  0  0  0  0  0  0  0
    2.0120    0.3740   -1.3130 C   0  0  0  0  0  0  0  0  0  0  0  0
    2.9800    0.1340   -2.1140 O   0  0  0  0  0  0  0  0  0  0  0  0
    1.8150   -0.8410    7.3200 H   0  0  0  0  0  0  0  0  0  0  0  0
    1.4420   -2.4170    6.5810 H   0  0  0  0  0  0  0  0  0  0  0  0
   -0.9460   -1.2750    5.4250 H   0  0  0  0  0  0  0  0  0  0  0  0
    2.8650    0.2190    4.8110 H   0  0  0  0  0  0  0  0  0  0  0  0
    0.6390    0.7770    2.9510 H   0  0  0  0  0  0  0  0  0  0  0  0
    1.4010   -0.7780    2.5320 H   0  0  0  0  0  0  0  0  0  0  0  0
    2.8960    1.8770    2.9380 H   0  0  0  0  0  0  0  0  0  0  0  0
    3.6450    0.3390    2.4720 H   0  0  0  0  0  0  0  0  0  0  0  0
    3.4590    1.6960    0.5470 H   0  0  0  0  0  0  0  0  0  0  0  0
    1.7570    2.0730    0.7960 H   0  0  0  0  0  0  0  0  0  0  0  0
    1.4190   -0.5790    0.4790 H   0  0  0  0  0  0  0  0  0  0  0  0
    4.3210   -0.1200    0.2100 H   0  0  0  0  0  0  0  0  0  0  0  0
    3.5190   -1.5110   -0.4460 H   0  0  0  0  0  0  0  0  0  0  0  0
    0.8210    0.9330   -1.8300 N   0  0  0  0  0  0  0  0  0  0  0  0
    0.7090    1.2640   -3.2700 C   0  0  0  0  0  0  0  0  0  0  0  0
   -0.1260    2.5560   -3.2080 C   0  0  0  0  0  0  0  0  0  0  0  0
   -1.1650    2.1210   -2.2210 C   0  0  0  0  0  0  0  0  0  0  0  0
   -0.4140    1.2780   -1.2360 C   0  0  1  0  0  0  0  0  0  0  0  0
   -1.2210    0.1160   -0.7870 C   0  0  0  0  0  0  0  0  0  0  0  0
   -2.3170    0.4060   -0.2070 O   0  0  0  0  0  0  0  0  0  0  0  0
    0.0780    0.5290   -3.8050 H   0  0  0  0  0  0  0  0  0  0  0  0
    1.6700    1.4830   -3.7260 H   0  0  0  0  0  0  0  0  0  0  0  0
   -0.5220    2.8100   -4.2000 H   0  0  0  0  0  0  0  0  0  0  0  0
    0.5690    3.3260   -2.8070 H   0  0  0  0  0  0  0  0  0  0  0  0
   -1.9060    1.5030   -2.8110 H   0  0  0  0  0  0  0  0  0  0  0  0
   -1.6880    2.9790   -1.7410 H   0  0  0  0  0  0  0  0  0  0  0  0
   -0.3190    1.9250   -0.3110 H   0  0  0  0  0  0  0  0  0  0  0  0
   -5.4190   -4.7360   -0.0980 N   0  0  0  0  0  0  0  0  0  0  0  0
   -4.5270   -3.6970   -0.5150 C   0  0  0  0  0  0  0  0  0  0  0  0
   -4.7980   -2.5160   -0.2090 O   0  0  0  0  0  0  0  0  0  0  0  0
   -3.3400   -4.1330   -1.2890 C   0  0  0  0  0  0  0  0  0  0  0  0
   -2.3940   -3.0240   -1.6310 C   0  0  0  0  0  0  0  0  0  0  0  0
   -1.8090   -2.2960   -0.4430 C   0  0  2  0  0  0  0  0  0  0  0  0
   -0.8990   -1.2340   -0.9380 N   0  0  0  0  0  0  0  0  0  0  0  0
   -1.1160   -3.1690    0.5030 C   0  0  0  0  0  0  0  0  0  0  0  0
   -1.7000   -4.1030    1.0970 O   0  0  0  0  0  0  0  0  0  0  0  0
    0.2310   -3.0110    0.7980 O   0  0  0  0  0  0  0  0  0  0  0  0
   -5.0580   -5.6970    0.1300 H   0  0  0  0  0  0  0  0  0  0  0  0
   -6.4350   -4.5030   -0.0300 H   0  0  0  0  0  0  0  0  0  0  0  0
   -2.8260   -4.9200   -0.6890 H   0  0  0  0  0  0  0  0  0  0  0  0
   -3.6910   -4.6620   -2.2190 H   0  0  0  0  0  0  0  0  0  0  0  0
   -2.9200   -2.3090   -2.3130 H   0  0  0  0  0  0  0  0  0  0  0  0
   -1.5470   -3.4820   -2.1950 H   0  0  0  0  0  0  0  0  0  0  0  0
   -2.6480   -1.7580    0.0420 H   0  0  0  0  0  0  0  0  0  0  0  0
   -0.0110   -1.4750   -1.4040 H   0  0  0  0  0  0  0  0  0  0  0  0
  1 13  1  0  0  0  0
  1 12  1  0  0  0  0
  2  1  1  0  0  0  0
  3  2  2  0  0  0  0
  3 14  1  0  0  0  0
  4 15  1  0  0  0  0
  4  2  1  0  0  0  0
  5  4  1  0  0  0  0
  6 19  1  0  0  0  0
  6 18  1  0  0  0  0
  6  5  1  0  0  0  0
  7  6  1  0  0  0  0
  8  9  1  0  0  0  0
  8 22  1  1  0  0  0
  8  7  1  0  0  0  0
 10  8  1  0  0  0  0
 11 10  2  0  0  0  0
 16  5  1  0  0  0  0
 17  5  1  0  0  0  0
 20  7  1  0  0  0  0
 21  7  1  0  0  0  0
 23  9  1  0  0  0  0
 24  9  1  0  0  0  0
 25 10  1  0  0  0  0
 25 29  1  0  0  0  0
 26 27  1  0  0  0  0
 26 25  1  0  0  0  0
 27 35  1  0  0  0  0
 27 28  1  0  0  0  0
 28 37  1  0  0  0  0
 28 29  1  0  0  0  0
 29 30  1  0  0  0  0
 29 38  1  1  0  0  0
 30 31  2  0  0  0  0
 32 26  1  0  0  0  0
 33 26  1  0  0  0  0
 34 27  1  0  0  0  0
 36 28  1  0  0  0  0
 39 50  1  0  0  0  0
 39 49  1  0  0  0  0
 40 41  2  0  0  0  0
 40 39  1  0  0  0  0
 42 51  1  0  0  0  0
 42 40  1  0  0  0  0
 43 42  1  0  0  0  0
 43 44  1  0  0  0  0
 44 55  1  1  0  0  0
 44 46  1  0  0  0  0
 45 30  1  0  0  0  0
 45 44  1  0  0  0  0
 46 48  2  0  0  0  0
 46 47  1  0  0  0  0
 52 42  1  0  0  0  0
 53 43  1  0  0  0  0
 54 43  1  0  0  0  0
 56 45  1  0  0  0  0
M  END
$$$$
