RPS.pdb
 OpenBabel07022418063D

 50 50  0  0  1  0  0  0  0  0999 V2000
   -0.6850   -5.6140    1.7660 N   0  0  0  0  0  0  0  0  0  0  0  0
    0.1050   -4.4310    1.8360 C   0  0  0  0  0  0  0  0  0  0  0  0
    0.3170   -3.9190    2.9920 N   0  0  0  0  0  0  0  0  0  0  0  0
    0.6590   -3.8040    0.7000 N   0  0  0  0  0  0  0  0  0  0  0  0
    1.7190   -2.8130    0.9120 C   0  0  0  0  0  0  0  0  0  0  0  0
    2.1800   -2.2400   -0.3910 C   0  0  0  0  0  0  0  0  0  0  0  0
    3.2980   -1.2650   -0.3100 C   0  0  0  0  0  0  0  0  0  0  0  0
    3.0570   -0.0250    0.4940 C   0  0  2  0  0  0  0  0  0  0  0  0
    2.7480   -0.2910    1.8620 N   0  0  0  0  0  0  0  0  0  0  0  0
    2.1850    0.9290   -0.2060 C   0  0  0  0  0  0  0  0  0  0  0  0
    2.5360    1.1750   -1.4130 O   0  0  0  0  0  0  0  0  0  0  0  0
   -1.7180   -5.5450    1.9000 H   0  0  0  0  0  0  0  0  0  0  0  0
   -0.2290   -6.5330    1.5820 H   0  0  0  0  0  0  0  0  0  0  0  0
   -0.0610   -4.3280    3.8810 H   0  0  0  0  0  0  0  0  0  0  0  0
    0.3230   -4.0470   -0.2370 H   0  0  0  0  0  0  0  0  0  0  0  0
    2.5140   -3.3180    1.4890 H   0  0  0  0  0  0  0  0  0  0  0  0
    1.2330   -2.0490    1.5630 H   0  0  0  0  0  0  0  0  0  0  0  0
    2.5300   -3.0750   -1.0660 H   0  0  0  0  0  0  0  0  0  0  0  0
    1.2840   -1.8300   -0.9270 H   0  0  0  0  0  0  0  0  0  0  0  0
    3.5530   -0.9830   -1.3800 H   0  0  0  0  0  0  0  0  0  0  0  0
    4.1880   -1.8280    0.0730 H   0  0  0  0  0  0  0  0  0  0  0  0
    4.1210    0.4540    0.5620 H   0  0  0  0  0  0  0  0  0  0  0  0
    3.3300   -1.1630    2.1110 H   0  0  0  0  0  0  0  0  0  0  0  0
    3.1720    0.4570    2.5030 H   0  0  0  0  0  0  0  0  0  0  0  0
    1.0560    1.5780    0.2910 N   0  0  0  0  0  0  0  0  0  0  0  0
    0.3240    2.5960   -0.5200 C   0  0  0  0  0  0  0  0  0  0  0  0
    0.2540    3.7170    0.5270 C   0  0  0  0  0  0  0  0  0  0  0  0
   -0.0270    2.9870    1.7890 C   0  0  0  0  0  0  0  0  0  0  0  0
    0.3320    1.5080    1.5480 C   0  0  1  0  0  0  0  0  0  0  0  0
   -0.9390    0.7960    1.4970 C   0  0  0  0  0  0  0  0  0  0  0  0
   -1.6290    0.8270    2.5790 O   0  0  0  0  0  0  0  0  0  0  0  0
   -0.6760    2.2710   -0.7550 H   0  0  0  0  0  0  0  0  0  0  0  0
    0.9360    2.9740   -1.3400 H   0  0  0  0  0  0  0  0  0  0  0  0
    1.2220    4.2660    0.5330 H   0  0  0  0  0  0  0  0  0  0  0  0
   -0.5320    4.4460    0.2910 H   0  0  0  0  0  0  0  0  0  0  0  0
    0.5600    3.3800    2.6600 H   0  0  0  0  0  0  0  0  0  0  0  0
   -1.1080    3.0910    2.0080 H   0  0  0  0  0  0  0  0  0  0  0  0
    0.9700    1.1910    2.3890 H   0  0  0  0  0  0  0  0  0  0  0  0
   -3.5140    0.3230   -1.5070 O   0  0  0  0  0  0  0  0  0  0  0  0
   -3.8760    0.2840   -0.1540 C   0  0  0  0  0  0  0  0  0  0  0  0
   -2.8140   -0.5430    0.5860 C   0  0  2  0  0  0  0  0  0  0  0  0
   -1.5090    0.0860    0.4270 N   0  0  0  0  0  0  0  0  0  0  0  0
   -2.8770   -1.9180    0.0810 C   0  0  0  0  0  0  0  0  0  0  0  0
   -1.8920   -2.4640   -0.4690 O   0  0  0  0  0  0  0  0  0  0  0  0
   -4.0280   -2.7000    0.1800 O   0  0  0  0  0  0  0  0  0  0  0  0
   -3.4540   -0.5920   -1.8710 H   0  0  0  0  0  0  0  0  0  0  0  0
   -4.8500   -0.2420   -0.1010 H   0  0  0  0  0  0  0  0  0  0  0  0
   -3.9650    1.2960    0.2470 H   0  0  0  0  0  0  0  0  0  0  0  0
   -3.0990   -0.5150    1.6410 H   0  0  0  0  0  0  0  0  0  0  0  0
   -0.9680    0.0150   -0.4590 H   0  0  0  0  0  0  0  0  0  0  0  0
  1  2  1  0  0  0  0
  1 12  1  0  0  0  0
  2  3  2  0  0  0  0
  3 14  1  0  0  0  0
  4  5  1  0  0  0  0
  4  2  1  0  0  0  0
  5 16  1  0  0  0  0
  5 17  1  0  0  0  0
  6  7  1  0  0  0  0
  6  5  1  0  0  0  0
  7 21  1  0  0  0  0
  7  8  1  0  0  0  0
  8 22  1  1  0  0  0
  8  9  1  0  0  0  0
  9 23  1  0  0  0  0
  9 24  1  0  0  0  0
 10 25  1  0  0  0  0
 10  8  1  0  0  0  0
 11 10  2  0  0  0  0
 13  1  1  0  0  0  0
 15  4  1  0  0  0  0
 18  6  1  0  0  0  0
 19  6  1  0  0  0  0
 20  7  1  0  0  0  0
 25 29  1  0  0  0  0
 26 25  1  0  0  0  0
 26 27  1  0  0  0  0
 27 34  1  0  0  0  0
 27 28  1  0  0  0  0
 28 37  1  0  0  0  0
 28 36  1  0  0  0  0
 29 28  1  0  0  0  0
 29 38  1  1  0  0  0
 30 29  1  0  0  0  0
 30 31  2  0  0  0  0
 32 26  1  0  0  0  0
 33 26  1  0  0  0  0
 35 27  1  0  0  0  0
 39 40  1  0  0  0  0
 40 47  1  0  0  0  0
 40 48  1  0  0  0  0
 40 41  1  0  0  0  0
 41 49  1  1  0  0  0
 42 41  1  0  0  0  0
 42 30  1  0  0  0  0
 43 45  1  0  0  0  0
 43 41  1  0  0  0  0
 44 43  2  0  0  0  0
 46 39  1  0  0  0  0
 50 42  1  0  0  0  0
M  END
$$$$
