RQH.pdb
 OpenBabel07022418053D

 59 59  0  0  1  0  0  0  0  0999 V2000
    6.0610   -3.0810    3.1260 N   0  0  0  0  0  0  0  0  0  0  0  0
    6.3860   -2.2700    2.0230 C   0  0  0  0  0  0  0  0  0  0  0  0
    7.3370   -2.5410    1.1890 N   0  0  0  0  0  0  0  0  0  0  0  0
    5.6540   -1.0600    1.7580 N   0  0  0  0  0  0  0  0  0  0  0  0
    5.8550   -0.3100    0.5570 C   0  0  0  0  0  0  0  0  0  0  0  0
    4.9730    0.8950    0.5380 C   0  0  0  0  0  0  0  0  0  0  0  0
    3.5010    0.5450    0.6050 C   0  0  0  0  0  0  0  0  0  0  0  0
    2.6250    1.7490    0.5890 C   0  0  2  0  0  0  0  0  0  0  0  0
    2.9640    2.5580    1.7410 N   0  0  0  0  0  0  0  0  0  0  0  0
    1.1980    1.5190    0.5660 C   0  0  0  0  0  0  0  0  0  0  0  0
    0.4900    1.9970    1.4900 O   0  0  0  0  0  0  0  0  0  0  0  0
    5.2070   -3.6650    3.1220 H   0  0  0  0  0  0  0  0  0  0  0  0
    6.6770   -3.1020    3.9570 H   0  0  0  0  0  0  0  0  0  0  0  0
    7.8770   -3.4300    1.3800 H   0  0  0  0  0  0  0  0  0  0  0  0
    4.9760   -0.7540    2.4710 H   0  0  0  0  0  0  0  0  0  0  0  0
    5.6980   -0.9470   -0.3610 H   0  0  0  0  0  0  0  0  0  0  0  0
    6.9060    0.0490    0.4750 H   0  0  0  0  0  0  0  0  0  0  0  0
    5.2060    1.4460   -0.4210 H   0  0  0  0  0  0  0  0  0  0  0  0
    5.2860    1.5820    1.3500 H   0  0  0  0  0  0  0  0  0  0  0  0
    3.3430   -0.1480    1.4190 H   0  0  0  0  0  0  0  0  0  0  0  0
    3.2920   -0.0290   -0.3470 H   0  0  0  0  0  0  0  0  0  0  0  0
    2.8810    2.3870   -0.3080 H   0  0  0  0  0  0  0  0  0  0  0  0
    2.4840    2.1480    2.5820 H   0  0  0  0  0  0  0  0  0  0  0  0
    2.5160    3.5010    1.6060 H   0  0  0  0  0  0  0  0  0  0  0  0
   -5.1110    1.4220   -0.5240 N   0  0  0  0  0  0  0  0  0  0  0  0
   -3.7130    1.6430   -0.6520 C   0  0  0  0  0  0  0  0  0  0  0  0
   -3.1280    2.3150    0.2200 O   0  0  0  0  0  0  0  0  0  0  0  0
   -2.9520    1.0980   -1.7870 C   0  0  0  0  0  0  0  0  0  0  0  0
   -1.4810    1.2590   -1.6570 C   0  0  0  0  0  0  0  0  0  0  0  0
   -0.9210    0.5500   -0.4640 C   0  0  2  0  0  0  0  0  0  0  0  0
    0.5420    0.7930   -0.4290 N   0  0  0  0  0  0  0  0  0  0  0  0
   -1.0530   -0.9120   -0.5000 C   0  0  0  0  0  0  0  0  0  0  0  0
   -0.0030   -1.6060   -0.7360 O   0  0  0  0  0  0  0  0  0  0  0  0
   -5.8100    2.1890   -0.4380 H   0  0  0  0  0  0  0  0  0  0  0  0
   -5.4770    0.4460   -0.5140 H   0  0  0  0  0  0  0  0  0  0  0  0
   -3.2580    1.6760   -2.7210 H   0  0  0  0  0  0  0  0  0  0  0  0
   -3.2540    0.0500   -2.0740 H   0  0  0  0  0  0  0  0  0  0  0  0
   -1.2840    2.3620   -1.5310 H   0  0  0  0  0  0  0  0  0  0  0  0
   -0.9690    0.9400   -2.6030 H   0  0  0  0  0  0  0  0  0  0  0  0
   -1.2830    1.0360    0.4530 H   0  0  0  0  0  0  0  0  0  0  0  0
    1.0780    0.3880   -1.1970 H   0  0  0  0  0  0  0  0  0  0  0  0
   -2.2660   -1.6000   -0.2850 N   0  0  0  0  0  0  0  0  0  0  0  0
   -2.3240   -3.0720   -0.3400 C   0  0  1  0  0  0  0  0  0  0  0  0
   -2.7080   -3.6400    1.0170 C   0  0  0  0  0  0  0  0  0  0  0  0
   -4.0260   -3.1610    1.4640 C   0  0  0  0  0  0  0  0  0  0  0  0
   -5.2230   -3.7630    1.2090 C   0  0  0  0  0  0  0  0  0  0  0  0
   -6.1820   -3.0220    1.7840 N   0  0  0  0  0  0  0  0  0  0  0  0
   -5.5790   -1.9860    2.3790 C   0  0  0  0  0  0  0  0  0  0  0  0
   -4.2520   -2.0610    2.1890 N   0  0  0  0  0  0  0  0  0  0  0  0
   -3.3200   -3.4540   -1.3530 C   0  0  0  0  0  0  0  0  0  0  0  0
   -3.9530   -2.5870   -1.9910 O   0  0  0  0  0  0  0  0  0  0  0  0
   -3.5820   -4.7870   -1.6260 O   0  0  0  0  0  0  0  0  0  0  0  0
   -3.1220   -1.0610   -0.0650 H   0  0  0  0  0  0  0  0  0  0  0  0
   -1.3100   -3.4500   -0.5680 H   0  0  0  0  0  0  0  0  0  0  0  0
   -1.8990   -3.4190    1.7390 H   0  0  0  0  0  0  0  0  0  0  0  0
   -2.7390   -4.7370    0.8960 H   0  0  0  0  0  0  0  0  0  0  0  0
   -5.4110   -4.6920    0.6370 H   0  0  0  0  0  0  0  0  0  0  0  0
   -7.2220   -3.2420    1.7540 H   0  0  0  0  0  0  0  0  0  0  0  0
   -6.1390   -1.2220    2.9260 H   0  0  0  0  0  0  0  0  0  0  0  0
  1 13  1  0  0  0  0
  2  1  1  0  0  0  0
  3 14  1  0  0  0  0
  3  2  2  0  0  0  0
  4  2  1  0  0  0  0
  4 15  1  0  0  0  0
  5  4  1  0  0  0  0
  6  5  1  0  0  0  0
  6  7  1  0  0  0  0
  6 19  1  0  0  0  0
  7 20  1  0  0  0  0
  8 22  1  6  0  0  0
  8  7  1  0  0  0  0
  8  9  1  0  0  0  0
  9 23  1  0  0  0  0
 10  8  1  0  0  0  0
 10 11  2  0  0  0  0
 12  1  1  0  0  0  0
 16  5  1  0  0  0  0
 17  5  1  0  0  0  0
 18  6  1  0  0  0  0
 21  7  1  0  0  0  0
 24  9  1  0  0  0  0
 25 35  1  0  0  0  0
 25 34  1  0  0  0  0
 26 25  1  0  0  0  0
 26 27  2  0  0  0  0
 28 29  1  0  0  0  0
 28 26  1  0  0  0  0
 29 38  1  0  0  0  0
 29 30  1  0  0  0  0
 30 31  1  0  0  0  0
 30 40  1  1  0  0  0
 31 10  1  0  0  0  0
 32 30  1  0  0  0  0
 32 42  1  0  0  0  0
 33 32  2  0  0  0  0
 36 28  1  0  0  0  0
 37 28  1  0  0  0  0
 39 29  1  0  0  0  0
 41 31  1  0  0  0  0
 42 53  1  0  0  0  0
 43 54  1  6  0  0  0
 43 42  1  0  0  0  0
 43 44  1  0  0  0  0
 44 45  1  0  0  0  0
 44 55  1  0  0  0  0
 45 49  1  0  0  0  0
 46 45  2  0  0  0  0
 46 47  1  0  0  0  0
 47 48  1  0  0  0  0
 48 59  1  0  0  0  0
 49 48  2  0  0  0  0
 50 43  1  0  0  0  0
 51 50  2  0  0  0  0
 52 50  1  0  0  0  0
 56 44  1  0  0  0  0
 57 46  1  0  0  0  0
 58 47  1  0  0  0  0
M  END
$$$$
