RQI.pdb
 OpenBabel07022418053D

 61 60  0  0  1  0  0  0  0  0999 V2000
    0.3000   -0.2190    5.2000 N   0  0  0  0  0  0  0  0  0  0  0  0
    1.3360    0.5910    4.6610 C   0  0  0  0  0  0  0  0  0  0  0  0
    1.4220    1.8450    4.9850 N   0  0  0  0  0  0  0  0  0  0  0  0
    2.2850    0.0340    3.7650 N   0  0  0  0  0  0  0  0  0  0  0  0
    3.5240    0.7050    3.4240 C   0  0  0  0  0  0  0  0  0  0  0  0
    4.4080    0.0260    2.4940 C   0  0  0  0  0  0  0  0  0  0  0  0
    4.1970   -0.2540    1.0930 C   0  0  0  0  0  0  0  0  0  0  0  0
    3.0160   -0.9500    0.5430 C   0  0  2  0  0  0  0  0  0  0  0  0
    3.2660   -1.2370   -0.9230 N   0  0  0  0  0  0  0  0  0  0  0  0
    1.8250   -0.0160    0.4770 C   0  0  0  0  0  0  0  0  0  0  0  0
    1.5240    0.8850    1.2510 O   0  0  0  0  0  0  0  0  0  0  0  0
   -0.3370    0.1170    5.9360 H   0  0  0  0  0  0  0  0  0  0  0  0
    0.1670   -1.1840    4.8500 H   0  0  0  0  0  0  0  0  0  0  0  0
    0.7220    2.2520    5.6450 H   0  0  0  0  0  0  0  0  0  0  0  0
    2.1020   -0.8970    3.3200 H   0  0  0  0  0  0  0  0  0  0  0  0
    4.0480    0.8620    4.4320 H   0  0  0  0  0  0  0  0  0  0  0  0
    3.2430    1.7510    3.1520 H   0  0  0  0  0  0  0  0  0  0  0  0
    4.7800   -0.9250    3.0490 H   0  0  0  0  0  0  0  0  0  0  0  0
    5.4190    0.6200    2.5430 H   0  0  0  0  0  0  0  0  0  0  0  0
    5.0970   -0.9210    0.7720 H   0  0  0  0  0  0  0  0  0  0  0  0
    4.3850    0.7150    0.5000 H   0  0  0  0  0  0  0  0  0  0  0  0
    2.8290   -1.8950    1.0120 H   0  0  0  0  0  0  0  0  0  0  0  0
    2.9240   -2.2030   -1.1180 H   0  0  0  0  0  0  0  0  0  0  0  0
    4.2980   -1.2420   -1.0820 H   0  0  0  0  0  0  0  0  0  0  0  0
   -2.7010    4.1970   -1.0780 N   0  0  0  0  0  0  0  0  0  0  0  0
   -1.5530    3.3670   -1.2290 C   0  0  0  0  0  0  0  0  0  0  0  0
   -0.5910    3.5890   -0.4660 O   0  0  0  0  0  0  0  0  0  0  0  0
   -1.4680    2.2900   -2.2280 C   0  0  0  0  0  0  0  0  0  0  0  0
   -0.2830    1.3900   -2.0650 C   0  0  0  0  0  0  0  0  0  0  0  0
   -0.2740    0.6770   -0.7600 C   0  0  2  0  0  0  0  0  0  0  0  0
    0.8990   -0.1870   -0.6330 N   0  0  0  0  0  0  0  0  0  0  0  0
   -1.4520   -0.2000   -0.5370 C   0  0  0  0  0  0  0  0  0  0  0  0
   -2.6200    0.2610   -0.5350 O   0  0  0  0  0  0  0  0  0  0  0  0
   -3.1270    4.2990   -0.1310 H   0  0  0  0  0  0  0  0  0  0  0  0
   -3.1260    4.6980   -1.8640 H   0  0  0  0  0  0  0  0  0  0  0  0
   -1.4510    2.7580   -3.2750 H   0  0  0  0  0  0  0  0  0  0  0  0
   -2.4540    1.7480   -2.2340 H   0  0  0  0  0  0  0  0  0  0  0  0
    0.6180    2.0570   -2.0950 H   0  0  0  0  0  0  0  0  0  0  0  0
   -0.2160    0.6920   -2.9350 H   0  0  0  0  0  0  0  0  0  0  0  0
   -0.3030    1.4180    0.0640 H   0  0  0  0  0  0  0  0  0  0  0  0
    1.1140   -0.9380   -1.3110 H   0  0  0  0  0  0  0  0  0  0  0  0
   -5.0720   -3.6370   -0.9160 C   0  0  0  0  0  0  0  0  0  0  0  0
   -3.7650   -4.3450   -1.0660 C   0  0  0  0  0  0  0  0  0  0  0  0
   -2.5860   -3.4390   -1.2350 C   0  0  2  0  0  0  0  0  0  0  0  0
   -1.3510   -4.3160   -1.3720 C   0  0  0  0  0  0  0  0  0  0  0  0
   -2.4280   -2.4310   -0.1070 C   0  0  2  0  0  0  0  0  0  0  0  0
   -1.2800   -1.5830   -0.3220 N   0  0  0  0  0  0  0  0  0  0  0  0
   -2.2740   -3.0920    1.2000 C   0  0  0  0  0  0  0  0  0  0  0  0
   -3.1540   -3.8730    1.6100 O   0  0  0  0  0  0  0  0  0  0  0  0
   -1.1650   -2.8580    1.9800 O   0  0  0  0  0  0  0  0  0  0  0  0
   -5.4470   -3.7740    0.1070 H   0  0  0  0  0  0  0  0  0  0  0  0
   -5.8590   -4.0390   -1.5940 H   0  0  0  0  0  0  0  0  0  0  0  0
   -5.0110   -2.5390   -1.1260 H   0  0  0  0  0  0  0  0  0  0  0  0
   -3.6470   -5.1190   -0.2830 H   0  0  0  0  0  0  0  0  0  0  0  0
   -3.8420   -4.9320   -2.0300 H   0  0  0  0  0  0  0  0  0  0  0  0
   -2.6990   -2.9250   -2.2110 H   0  0  0  0  0  0  0  0  0  0  0  0
   -1.6130   -5.3930   -1.4180 H   0  0  0  0  0  0  0  0  0  0  0  0
   -0.6810   -4.2130   -0.4810 H   0  0  0  0  0  0  0  0  0  0  0  0
   -0.7600   -4.0830   -2.2650 H   0  0  0  0  0  0  0  0  0  0  0  0
   -3.3830   -1.8240   -0.1380 H   0  0  0  0  0  0  0  0  0  0  0  0
   -0.3420   -2.0080   -0.3150 H   0  0  0  0  0  0  0  0  0  0  0  0
  1 12  1  0  0  0  0
  2  3  2  0  0  0  0
  2  1  1  0  0  0  0
  3 14  1  0  0  0  0
  4  2  1  0  0  0  0
  5  4  1  0  0  0  0
  5 16  1  0  0  0  0
  6 19  1  0  0  0  0
  6 18  1  0  0  0  0
  6  5  1  0  0  0  0
  7  6  1  0  0  0  0
  8 22  1  1  0  0  0
  8  7  1  0  0  0  0
  9  8  1  0  0  0  0
 10  8  1  0  0  0  0
 10 11  2  0  0  0  0
 13  1  1  0  0  0  0
 15  4  1  0  0  0  0
 17  5  1  0  0  0  0
 20  7  1  0  0  0  0
 21  7  1  0  0  0  0
 23  9  1  0  0  0  0
 24  9  1  0  0  0  0
 25 34  1  0  0  0  0
 26 25  1  0  0  0  0
 26 27  2  0  0  0  0
 28 29  1  0  0  0  0
 28 26  1  0  0  0  0
 29 30  1  0  0  0  0
 30 31  1  0  0  0  0
 30 32  1  0  0  0  0
 30 40  1  1  0  0  0
 31 10  1  0  0  0  0
 32 33  2  0  0  0  0
 32 47  1  0  0  0  0
 35 25  1  0  0  0  0
 36 28  1  0  0  0  0
 37 28  1  0  0  0  0
 38 29  1  0  0  0  0
 39 29  1  0  0  0  0
 41 31  1  0  0  0  0
 42 51  1  0  0  0  0
 43 42  1  0  0  0  0
 43 54  1  0  0  0  0
 44 56  1  6  0  0  0
 44 43  1  0  0  0  0
 44 46  1  0  0  0  0
 45 44  1  0  0  0  0
 45 58  1  0  0  0  0
 46 60  1  1  0  0  0
 46 48  1  0  0  0  0
 47 61  1  0  0  0  0
 47 46  1  0  0  0  0
 48 49  2  0  0  0  0
 48 50  1  0  0  0  0
 52 42  1  0  0  0  0
 53 42  1  0  0  0  0
 55 43  1  0  0  0  0
 57 45  1  0  0  0  0
 59 45  1  0  0  0  0
M  END
$$$$
