RQL.pdb
 OpenBabel07022418053D

 61 60  0  0  1  0  0  0  0  0999 V2000
    1.5360   -2.7510    2.1510 N   0  0  0  0  0  0  0  0  0  0  0  0
    2.2300   -1.7820    2.9180 C   0  0  0  0  0  0  0  0  0  0  0  0
    3.0090   -2.1010    3.9220 N   0  0  0  0  0  0  0  0  0  0  0  0
    2.0990   -0.3820    2.6120 N   0  0  0  0  0  0  0  0  0  0  0  0
    3.3130    0.4120    2.6610 C   0  0  0  0  0  0  0  0  0  0  0  0
    4.3260    0.1120    1.6510 C   0  0  0  0  0  0  0  0  0  0  0  0
    4.1810    0.3110    0.2220 C   0  0  0  0  0  0  0  0  0  0  0  0
    3.0480   -0.2740   -0.5460 C   0  0  2  0  0  0  0  0  0  0  0  0
    3.3020   -0.0060   -2.0000 N   0  0  0  0  0  0  0  0  0  0  0  0
    1.7940    0.5250   -0.2610 C   0  0  0  0  0  0  0  0  0  0  0  0
    1.8570    1.6350    0.3190 O   0  0  0  0  0  0  0  0  0  0  0  0
    0.7810   -3.3220    2.6100 H   0  0  0  0  0  0  0  0  0  0  0  0
    1.7180   -2.9470    1.1520 H   0  0  0  0  0  0  0  0  0  0  0  0
    3.0890   -3.1200    4.1260 H   0  0  0  0  0  0  0  0  0  0  0  0
    1.1730    0.0090    2.3910 H   0  0  0  0  0  0  0  0  0  0  0  0
    3.7290    0.2130    3.7090 H   0  0  0  0  0  0  0  0  0  0  0  0
    3.0410    1.5050    2.7300 H   0  0  0  0  0  0  0  0  0  0  0  0
    4.7180   -0.9420    1.8980 H   0  0  0  0  0  0  0  0  0  0  0  0
    5.2530    0.7380    1.9580 H   0  0  0  0  0  0  0  0  0  0  0  0
    4.2120    1.4550    0.0490 H   0  0  0  0  0  0  0  0  0  0  0  0
    5.1760    0.0280   -0.2790 H   0  0  0  0  0  0  0  0  0  0  0  0
    2.9660   -1.3290   -0.4260 H   0  0  0  0  0  0  0  0  0  0  0  0
    4.0660   -0.6790   -2.2390 H   0  0  0  0  0  0  0  0  0  0  0  0
    2.4390   -0.3290   -2.4770 H   0  0  0  0  0  0  0  0  0  0  0  0
   -3.4400    4.1640   -0.2270 N   0  0  0  0  0  0  0  0  0  0  0  0
   -2.2770    3.4350   -0.5810 C   0  0  0  0  0  0  0  0  0  0  0  0
   -1.1970    3.8610   -0.1210 O   0  0  0  0  0  0  0  0  0  0  0  0
   -2.4590    2.2580   -1.4490 C   0  0  0  0  0  0  0  0  0  0  0  0
   -1.2370    1.4270   -1.6640 C   0  0  0  0  0  0  0  0  0  0  0  0
   -0.7080    0.8840   -0.3720 C   0  0  2  0  0  0  0  0  0  0  0  0
    0.4990    0.0820   -0.6320 N   0  0  0  0  0  0  0  0  0  0  0  0
   -1.6770    0.0740    0.3740 C   0  0  0  0  0  0  0  0  0  0  0  0
   -2.8140    0.5010    0.7120 O   0  0  0  0  0  0  0  0  0  0  0  0
   -3.9800    3.8730    0.6020 H   0  0  0  0  0  0  0  0  0  0  0  0
   -3.7500    4.9740   -0.7830 H   0  0  0  0  0  0  0  0  0  0  0  0
   -2.8080    2.6900   -2.4460 H   0  0  0  0  0  0  0  0  0  0  0  0
   -3.3110    1.6390   -1.1110 H   0  0  0  0  0  0  0  0  0  0  0  0
   -0.4180    2.0030   -2.1580 H   0  0  0  0  0  0  0  0  0  0  0  0
   -1.5650    0.5870   -2.3520 H   0  0  0  0  0  0  0  0  0  0  0  0
   -0.4400    1.7670    0.2550 H   0  0  0  0  0  0  0  0  0  0  0  0
    0.4120   -0.8410   -1.1040 H   0  0  0  0  0  0  0  0  0  0  0  0
   -4.0160   -2.8830   -0.8220 C   0  0  0  0  0  0  0  0  0  0  0  0
   -2.6360   -3.4310   -0.5610 C   0  0  0  0  0  0  0  0  0  0  0  0
   -2.4790   -4.8370   -1.1210 C   0  0  0  0  0  0  0  0  0  0  0  0
   -2.2800   -3.4760    0.8990 C   0  0  0  0  0  0  0  0  0  0  0  0
   -2.3250   -2.0900    1.4810 C   0  0  2  0  0  0  0  0  0  0  0  0
   -1.3690   -1.2730    0.7610 N   0  0  0  0  0  0  0  0  0  0  0  0
   -1.9760   -2.0850    2.9330 C   0  0  0  0  0  0  0  0  0  0  0  0
   -2.6690   -2.7770    3.7220 O   0  0  0  0  0  0  0  0  0  0  0  0
   -0.9310   -1.3590    3.4650 O   0  0  0  0  0  0  0  0  0  0  0  0
   -4.7600   -3.2400   -0.0680 H   0  0  0  0  0  0  0  0  0  0  0  0
   -4.0160   -1.7780   -0.8160 H   0  0  0  0  0  0  0  0  0  0  0  0
   -4.3210   -3.2580   -1.8380 H   0  0  0  0  0  0  0  0  0  0  0  0
   -1.9120   -2.7660   -1.0900 H   0  0  0  0  0  0  0  0  0  0  0  0
   -3.3640   -5.1670   -1.7010 H   0  0  0  0  0  0  0  0  0  0  0  0
   -1.6040   -4.8710   -1.8310 H   0  0  0  0  0  0  0  0  0  0  0  0
   -2.2190   -5.5700   -0.3080 H   0  0  0  0  0  0  0  0  0  0  0  0
   -1.1920   -3.7820    0.9360 H   0  0  0  0  0  0  0  0  0  0  0  0
   -2.8860   -4.2010    1.4590 H   0  0  0  0  0  0  0  0  0  0  0  0
   -3.3440   -1.6350    1.4320 H   0  0  0  0  0  0  0  0  0  0  0  0
   -0.4500   -1.6880    0.5270 H   0  0  0  0  0  0  0  0  0  0  0  0
  1 12  1  0  0  0  0
  1  2  1  0  0  0  0
  2  3  2  0  0  0  0
  3 14  1  0  0  0  0
  4  5  1  0  0  0  0
  4  2  1  0  0  0  0
  5 17  1  0  0  0  0
  5 16  1  0  0  0  0
  6 18  1  0  0  0  0
  6 19  1  0  0  0  0
  6  5  1  0  0  0  0
  7  6  1  0  0  0  0
  8 22  1  1  0  0  0
  8 10  1  0  0  0  0
  8  7  1  0  0  0  0
  9  8  1  0  0  0  0
 10 11  2  0  0  0  0
 13  1  1  0  0  0  0
 15  4  1  0  0  0  0
 20  7  1  0  0  0  0
 21  7  1  0  0  0  0
 23  9  1  0  0  0  0
 24  9  1  0  0  0  0
 25 34  1  0  0  0  0
 26 25  1  0  0  0  0
 26 27  2  0  0  0  0
 28 37  1  0  0  0  0
 28 26  1  0  0  0  0
 29 28  1  0  0  0  0
 29 30  1  0  0  0  0
 30 40  1  1  0  0  0
 30 32  1  0  0  0  0
 31 30  1  0  0  0  0
 31 10  1  0  0  0  0
 32 33  2  0  0  0  0
 32 47  1  0  0  0  0
 35 25  1  0  0  0  0
 36 28  1  0  0  0  0
 38 29  1  0  0  0  0
 39 29  1  0  0  0  0
 41 31  1  0  0  0  0
 42 52  1  0  0  0  0
 42 43  1  0  0  0  0
 42 51  1  0  0  0  0
 43 45  1  0  0  0  0
 44 43  1  0  0  0  0
 44 57  1  0  0  0  0
 45 58  1  0  0  0  0
 45 59  1  0  0  0  0
 45 46  1  0  0  0  0
 46 60  1  6  0  0  0
 46 48  1  0  0  0  0
 47 46  1  0  0  0  0
 48 50  2  0  0  0  0
 48 49  1  0  0  0  0
 53 42  1  0  0  0  0
 54 43  1  0  0  0  0
 55 44  1  0  0  0  0
 56 44  1  0  0  0  0
 61 47  1  0  0  0  0
M  END
$$$$
