RQP.pdb
 OpenBabel07022418053D

 56 56  0  0  1  0  0  0  0  0999 V2000
    2.9010   -3.2940    4.7650 N   0  0  0  0  0  0  0  0  0  0  0  0
    3.7890   -2.4390    4.0590 C   0  0  0  0  0  0  0  0  0  0  0  0
    4.8950   -2.8630    3.5890 N   0  0  0  0  0  0  0  0  0  0  0  0
    3.4110   -1.0940    3.8880 N   0  0  0  0  0  0  0  0  0  0  0  0
    4.1960   -0.1460    3.1280 C   0  0  0  0  0  0  0  0  0  0  0  0
    4.2270   -0.4210    1.6750 C   0  0  0  0  0  0  0  0  0  0  0  0
    2.9600   -0.4540    0.9310 C   0  0  0  0  0  0  0  0  0  0  0  0
    2.1150    0.7700    0.8810 C   0  0  2  0  0  0  0  0  0  0  0  0
    1.6530    1.2750    2.1310 N   0  0  0  0  0  0  0  0  0  0  0  0
    0.9040    0.3760    0.0640 C   0  0  0  0  0  0  0  0  0  0  0  0
    1.0780    0.2350   -1.1720 O   0  0  0  0  0  0  0  0  0  0  0  0
    2.1220   -2.9200    5.3540 H   0  0  0  0  0  0  0  0  0  0  0  0
    3.0330   -4.3320    4.6920 H   0  0  0  0  0  0  0  0  0  0  0  0
    5.1470   -3.8630    3.7320 H   0  0  0  0  0  0  0  0  0  0  0  0
    2.5280   -0.7430    4.3220 H   0  0  0  0  0  0  0  0  0  0  0  0
    3.9850    0.8790    3.3960 H   0  0  0  0  0  0  0  0  0  0  0  0
    5.2660   -0.3180    3.4950 H   0  0  0  0  0  0  0  0  0  0  0  0
    4.9050    0.3070    1.1710 H   0  0  0  0  0  0  0  0  0  0  0  0
    4.7200   -1.4220    1.5400 H   0  0  0  0  0  0  0  0  0  0  0  0
    3.2270   -0.6830   -0.1490 H   0  0  0  0  0  0  0  0  0  0  0  0
    2.2930   -1.3110    1.2010 H   0  0  0  0  0  0  0  0  0  0  0  0
    2.6220    1.5880    0.3250 H   0  0  0  0  0  0  0  0  0  0  0  0
    2.3190    2.0850    2.3780 H   0  0  0  0  0  0  0  0  0  0  0  0
    0.7390    1.7970    2.0450 H   0  0  0  0  0  0  0  0  0  0  0  0
   -3.5790    3.5030    1.1460 N   0  0  0  0  0  0  0  0  0  0  0  0
   -3.3080    2.2800    0.4950 C   0  0  0  0  0  0  0  0  0  0  0  0
   -4.0040    1.2880    0.7500 O   0  0  0  0  0  0  0  0  0  0  0  0
   -2.2130    2.1930   -0.4720 C   0  0  0  0  0  0  0  0  0  0  0  0
   -1.9360    0.8730   -1.0710 C   0  0  0  0  0  0  0  0  0  0  0  0
   -1.5650   -0.2030   -0.0930 C   0  0  2  0  0  0  0  0  0  0  0  0
   -0.3610    0.1720    0.6460 N   0  0  0  0  0  0  0  0  0  0  0  0
   -1.3720   -1.5410   -0.7780 C   0  0  0  0  0  0  0  0  0  0  0  0
   -0.1920   -1.9750   -0.7920 O   0  0  0  0  0  0  0  0  0  0  0  0
   -2.9020    4.3100    1.0900 H   0  0  0  0  0  0  0  0  0  0  0  0
   -4.4380    3.6740    1.7030 H   0  0  0  0  0  0  0  0  0  0  0  0
   -1.2560    2.6450   -0.0620 H   0  0  0  0  0  0  0  0  0  0  0  0
   -2.4770    2.9310   -1.2920 H   0  0  0  0  0  0  0  0  0  0  0  0
   -2.7280    0.5830   -1.7710 H   0  0  0  0  0  0  0  0  0  0  0  0
   -1.0220    1.0130   -1.7320 H   0  0  0  0  0  0  0  0  0  0  0  0
   -2.3750   -0.3470    0.6210 H   0  0  0  0  0  0  0  0  0  0  0  0
   -0.4210    0.2930    1.6990 H   0  0  0  0  0  0  0  0  0  0  0  0
   -2.3860   -2.2800   -1.3630 N   0  0  0  0  0  0  0  0  0  0  0  0
   -3.8160   -1.8940   -1.2830 C   0  0  0  0  0  0  0  0  0  0  0  0
   -4.1530   -1.9060   -2.7550 C   0  0  0  0  0  0  0  0  0  0  0  0
   -3.2400   -2.9430   -3.3690 C   0  0  0  0  0  0  0  0  0  0  0  0
   -2.4350   -3.4600   -2.1340 C   0  0  1  0  0  0  0  0  0  0  0  0
   -1.2420   -4.1270   -2.5860 C   0  0  0  0  0  0  0  0  0  0  0  0
   -1.4020   -5.2680   -3.1610 O   0  0  0  0  0  0  0  0  0  0  0  0
    0.0210   -3.6860   -2.4740 O   0  0  0  0  0  0  0  0  0  0  0  0
   -4.3020   -2.8030   -0.7930 H   0  0  0  0  0  0  0  0  0  0  0  0
   -4.0070   -0.9930   -0.7420 H   0  0  0  0  0  0  0  0  0  0  0  0
   -5.2290   -2.1650   -2.9130 H   0  0  0  0  0  0  0  0  0  0  0  0
   -3.9710   -0.9020   -3.1730 H   0  0  0  0  0  0  0  0  0  0  0  0
   -3.8010   -3.8110   -3.7570 H   0  0  0  0  0  0  0  0  0  0  0  0
   -2.5460   -2.5180   -4.1150 H   0  0  0  0  0  0  0  0  0  0  0  0
   -3.1830   -4.1930   -1.6750 H   0  0  0  0  0  0  0  0  0  0  0  0
  1 12  1  0  0  0  0
  2  1  1  0  0  0  0
  3 14  1  0  0  0  0
  3  2  2  0  0  0  0
  4  2  1  0  0  0  0
  4 15  1  0  0  0  0
  5 16  1  0  0  0  0
  5 17  1  0  0  0  0
  5  4  1  0  0  0  0
  6  5  1  0  0  0  0
  7 21  1  0  0  0  0
  7  6  1  0  0  0  0
  8 22  1  6  0  0  0
  8  7  1  0  0  0  0
  8  9  1  0  0  0  0
  9 23  1  0  0  0  0
 10 31  1  0  0  0  0
 10  8  1  0  0  0  0
 11 10  2  0  0  0  0
 13  1  1  0  0  0  0
 18  6  1  0  0  0  0
 19  6  1  0  0  0  0
 20  7  1  0  0  0  0
 24  9  1  0  0  0  0
 25 35  1  0  0  0  0
 26 27  2  0  0  0  0
 26 25  1  0  0  0  0
 28 36  1  0  0  0  0
 28 26  1  0  0  0  0
 29 28  1  0  0  0  0
 29 30  1  0  0  0  0
 30 40  1  1  0  0  0
 30 31  1  0  0  0  0
 31 41  1  0  0  0  0
 32 30  1  0  0  0  0
 33 32  2  0  0  0  0
 34 25  1  0  0  0  0
 37 28  1  0  0  0  0
 38 29  1  0  0  0  0
 39 29  1  0  0  0  0
 42 43  1  0  0  0  0
 42 32  1  0  0  0  0
 43 50  1  0  0  0  0
 43 51  1  0  0  0  0
 44 43  1  0  0  0  0
 45 44  1  0  0  0  0
 45 46  1  0  0  0  0
 46 56  1  1  0  0  0
 46 42  1  0  0  0  0
 47 49  1  0  0  0  0
 47 46  1  0  0  0  0
 48 47  2  0  0  0  0
 52 44  1  0  0  0  0
 53 44  1  0  0  0  0
 54 45  1  0  0  0  0
 55 45  1  0  0  0  0
M  END
$$$$
