RQR.pdb
 OpenBabel07022418053D

 65 64  0  0  1  0  0  0  0  0999 V2000
    4.3970   -1.0060    1.8400 N   0  0  0  0  0  0  0  0  0  0  0  0
    4.8450   -0.1750    0.7530 C   0  0  0  0  0  0  0  0  0  0  0  0
    5.7930    0.6590    1.0170 N   0  0  0  0  0  0  0  0  0  0  0  0
    4.2620   -0.2750   -0.5410 N   0  0  0  0  0  0  0  0  0  0  0  0
    4.3050    0.8550   -1.4280 C   0  0  0  0  0  0  0  0  0  0  0  0
    3.4350    1.9980   -0.9260 C   0  0  0  0  0  0  0  0  0  0  0  0
    2.0130    1.4740   -0.8660 C   0  0  0  0  0  0  0  0  0  0  0  0
    1.0660    2.5550   -0.3370 C   0  0  2  0  0  0  0  0  0  0  0  0
    1.5940    2.8540    1.0200 N   0  0  0  0  0  0  0  0  0  0  0  0
   -0.2640    1.9320   -0.1070 C   0  0  0  0  0  0  0  0  0  0  0  0
   -1.1220    1.8440   -1.0390 O   0  0  0  0  0  0  0  0  0  0  0  0
    5.0420   -1.3610    2.5860 H   0  0  0  0  0  0  0  0  0  0  0  0
    3.3940   -1.2660    1.8960 H   0  0  0  0  0  0  0  0  0  0  0  0
    6.1940    0.7060    1.9760 H   0  0  0  0  0  0  0  0  0  0  0  0
    3.8190   -1.1620   -0.8210 H   0  0  0  0  0  0  0  0  0  0  0  0
    5.3420    1.2500   -1.5120 H   0  0  0  0  0  0  0  0  0  0  0  0
    3.9880    0.5410   -2.4390 H   0  0  0  0  0  0  0  0  0  0  0  0
    3.7200    2.3390    0.0650 H   0  0  0  0  0  0  0  0  0  0  0  0
    3.4700    2.8060   -1.6950 H   0  0  0  0  0  0  0  0  0  0  0  0
    1.6400    1.0850   -1.8160 H   0  0  0  0  0  0  0  0  0  0  0  0
    2.0240    0.6870   -0.0830 H   0  0  0  0  0  0  0  0  0  0  0  0
    1.0350    3.4470   -0.9640 H   0  0  0  0  0  0  0  0  0  0  0  0
    0.7640    3.3420    1.4830 H   0  0  0  0  0  0  0  0  0  0  0  0
    2.2690    3.6650    0.8530 H   0  0  0  0  0  0  0  0  0  0  0  0
   -3.2170    4.4420    3.4400 N   0  0  0  0  0  0  0  0  0  0  0  0
   -3.3080    3.1230    2.8990 C   0  0  0  0  0  0  0  0  0  0  0  0
   -3.5070    2.1850    3.7060 O   0  0  0  0  0  0  0  0  0  0  0  0
   -3.1610    2.9840    1.4320 C   0  0  0  0  0  0  0  0  0  0  0  0
   -3.0930    1.5600    0.9510 C   0  0  0  0  0  0  0  0  0  0  0  0
   -1.8880    0.8120    1.5100 C   0  0  2  0  0  0  0  0  0  0  0  0
   -0.6510    1.4090    1.1380 N   0  0  0  0  0  0  0  0  0  0  0  0
   -1.9230   -0.6000    1.0960 C   0  0  0  0  0  0  0  0  0  0  0  0
   -2.9110   -1.3230    1.4570 O   0  0  0  0  0  0  0  0  0  0  0  0
   -2.8740    4.5550    4.3980 H   0  0  0  0  0  0  0  0  0  0  0  0
   -3.5050    5.2670    2.8410 H   0  0  0  0  0  0  0  0  0  0  0  0
   -2.1850    3.4710    1.1140 H   0  0  0  0  0  0  0  0  0  0  0  0
   -3.9900    3.5490    0.9710 H   0  0  0  0  0  0  0  0  0  0  0  0
   -3.9820    1.0480    1.4150 H   0  0  0  0  0  0  0  0  0  0  0  0
   -3.2190    1.4570   -0.1320 H   0  0  0  0  0  0  0  0  0  0  0  0
   -2.0080    0.8760    2.6060 H   0  0  0  0  0  0  0  0  0  0  0  0
    0.1020    1.4740    1.8940 H   0  0  0  0  0  0  0  0  0  0  0  0
   -1.5750   -5.9160    2.1930 N   0  0  0  0  0  0  0  0  0  0  0  0
   -1.9360   -6.0940    0.8460 C   0  0  0  0  0  0  0  0  0  0  0  0
   -1.4490   -7.0740    0.1700 N   0  0  0  0  0  0  0  0  0  0  0  0
   -2.8450   -5.2010    0.1710 N   0  0  0  0  0  0  0  0  0  0  0  0
   -2.8840   -4.9630   -1.2130 C   0  0  0  0  0  0  0  0  0  0  0  0
   -1.7950   -4.2150   -1.8900 C   0  0  0  0  0  0  0  0  0  0  0  0
   -1.5520   -2.8210   -1.4660 C   0  0  0  0  0  0  0  0  0  0  0  0
   -1.0790   -2.6840   -0.0540 C   0  0  2  0  0  0  0  0  0  0  0  0
   -0.9460   -1.2630    0.3090 N   0  0  0  0  0  0  0  0  0  0  0  0
    0.2240   -3.3650    0.1710 C   0  0  0  0  0  0  0  0  0  0  0  0
    0.5320   -4.5270   -0.1220 O   0  0  0  0  0  0  0  0  0  0  0  0
    1.2730   -2.6340    0.7930 O   0  0  0  0  0  0  0  0  0  0  0  0
   -0.8830   -6.5550    2.6460 H   0  0  0  0  0  0  0  0  0  0  0  0
   -1.9620   -5.1570    2.8110 H   0  0  0  0  0  0  0  0  0  0  0  0
   -0.7950   -7.7200    0.6310 H   0  0  0  0  0  0  0  0  0  0  0  0
   -3.5170   -4.7300    0.8570 H   0  0  0  0  0  0  0  0  0  0  0  0
   -3.8740   -4.4550   -1.4340 H   0  0  0  0  0  0  0  0  0  0  0  0
   -3.0270   -5.9760   -1.7200 H   0  0  0  0  0  0  0  0  0  0  0  0
   -2.0920   -4.1590   -2.9890 H   0  0  0  0  0  0  0  0  0  0  0  0
   -0.8510   -4.8140   -1.9330 H   0  0  0  0  0  0  0  0  0  0  0  0
   -2.5500   -2.2860   -1.5120 H   0  0  0  0  0  0  0  0  0  0  0  0
   -0.8460   -2.3640   -2.1980 H   0  0  0  0  0  0  0  0  0  0  0  0
   -1.8250   -3.1050    0.6110 H   0  0  0  0  0  0  0  0  0  0  0  0
   -0.1340   -0.6990   -0.0000 H   0  0  0  0  0  0  0  0  0  0  0  0
  1 13  1  0  0  0  0
  1 12  1  0  0  0  0
  2  3  2  0  0  0  0
  2  1  1  0  0  0  0
  3 14  1  0  0  0  0
  4  2  1  0  0  0  0
  5  6  1  0  0  0  0
  5  4  1  0  0  0  0
  6  7  1  0  0  0  0
  6 18  1  0  0  0  0
  7  8  1  0  0  0  0
  7 21  1  0  0  0  0
  8 22  1  6  0  0  0
  8 10  1  0  0  0  0
  8  9  1  0  0  0  0
  9 23  1  0  0  0  0
 10 31  1  0  0  0  0
 11 10  2  0  0  0  0
 15  4  1  0  0  0  0
 16  5  1  0  0  0  0
 17  5  1  0  0  0  0
 19  6  1  0  0  0  0
 20  7  1  0  0  0  0
 24  9  1  0  0  0  0
 25 34  1  0  0  0  0
 26 25  1  0  0  0  0
 26 27  2  0  0  0  0
 28 26  1  0  0  0  0
 29 38  1  0  0  0  0
 29 28  1  0  0  0  0
 29 30  1  0  0  0  0
 30 40  1  1  0  0  0
 31 30  1  0  0  0  0
 31 41  1  0  0  0  0
 32 33  2  0  0  0  0
 32 30  1  0  0  0  0
 35 25  1  0  0  0  0
 36 28  1  0  0  0  0
 37 28  1  0  0  0  0
 39 29  1  0  0  0  0
 42 54  1  0  0  0  0
 42 55  1  0  0  0  0
 43 42  1  0  0  0  0
 44 56  1  0  0  0  0
 44 43  2  0  0  0  0
 45 43  1  0  0  0  0
 45 57  1  0  0  0  0
 46 45  1  0  0  0  0
 47 48  1  0  0  0  0
 47 46  1  0  0  0  0
 48 49  1  0  0  0  0
 49 51  1  0  0  0  0
 49 50  1  0  0  0  0
 49 64  1  1  0  0  0
 50 32  1  0  0  0  0
 51 53  1  0  0  0  0
 52 51  2  0  0  0  0
 58 46  1  0  0  0  0
 59 46  1  0  0  0  0
 60 47  1  0  0  0  0
 61 47  1  0  0  0  0
 62 48  1  0  0  0  0
 63 48  1  0  0  0  0
 65 50  1  0  0  0  0
M  END
$$$$
