RQS.pdb
 OpenBabel07022418053D

 53 52  0  0  1  0  0  0  0  0999 V2000
    1.8320   -4.5360    4.1020 N   0  0  0  0  0  0  0  0  0  0  0  0
    1.5530   -3.2140    3.6540 C   0  0  0  0  0  0  0  0  0  0  0  0
    0.4000   -2.7040    3.8750 N   0  0  0  0  0  0  0  0  0  0  0  0
    2.5340   -2.4650    2.9710 N   0  0  0  0  0  0  0  0  0  0  0  0
    2.1630   -1.4440    1.9770 C   0  0  0  0  0  0  0  0  0  0  0  0
    3.4290   -0.8520    1.4720 C   0  0  0  0  0  0  0  0  0  0  0  0
    3.2990    0.2130    0.4350 C   0  0  0  0  0  0  0  0  0  0  0  0
    2.5420    1.4270    0.8280 C   0  0  2  0  0  0  0  0  0  0  0  0
    3.1910    2.0290    1.9840 N   0  0  0  0  0  0  0  0  0  0  0  0
    1.1070    1.3280    0.9950 C   0  0  0  0  0  0  0  0  0  0  0  0
    0.5570    1.7290    2.0770 O   0  0  0  0  0  0  0  0  0  0  0  0
    2.7110   -5.0090    3.7840 H   0  0  0  0  0  0  0  0  0  0  0  0
    1.2090   -5.0690    4.7330 H   0  0  0  0  0  0  0  0  0  0  0  0
    0.0970   -1.7610    3.5950 H   0  0  0  0  0  0  0  0  0  0  0  0
    3.5310   -2.6610    3.1950 H   0  0  0  0  0  0  0  0  0  0  0  0
    1.6760   -2.0240    1.1430 H   0  0  0  0  0  0  0  0  0  0  0  0
    1.4710   -0.7730    2.4790 H   0  0  0  0  0  0  0  0  0  0  0  0
    4.0610   -1.7150    1.1100 H   0  0  0  0  0  0  0  0  0  0  0  0
    4.0000   -0.4940    2.3760 H   0  0  0  0  0  0  0  0  0  0  0  0
    4.3590    0.5300    0.1900 H   0  0  0  0  0  0  0  0  0  0  0  0
    2.9530   -0.2120   -0.5550 H   0  0  0  0  0  0  0  0  0  0  0  0
    2.7050    2.2280    0.0160 H   0  0  0  0  0  0  0  0  0  0  0  0
    3.2260    3.0540    1.9520 H   0  0  0  0  0  0  0  0  0  0  0  0
    2.8170    1.6460    2.8820 H   0  0  0  0  0  0  0  0  0  0  0  0
   -5.1510    3.4730   -1.3440 N   0  0  0  0  0  0  0  0  0  0  0  0
   -3.7720    3.1600   -1.2410 C   0  0  0  0  0  0  0  0  0  0  0  0
   -2.9560    3.9240   -1.8130 O   0  0  0  0  0  0  0  0  0  0  0  0
   -3.3460    1.9420   -0.4610 C   0  0  0  0  0  0  0  0  0  0  0  0
   -1.8820    1.8700   -0.5360 C   0  0  0  0  0  0  0  0  0  0  0  0
   -1.2110    0.7240    0.1860 C   0  0  2  0  0  0  0  0  0  0  0  0
    0.2430    0.8060    0.0100 N   0  0  0  0  0  0  0  0  0  0  0  0
   -1.6940   -0.5870   -0.1660 C   0  0  0  0  0  0  0  0  0  0  0  0
   -2.9530   -0.8080   -0.0810 O   0  0  0  0  0  0  0  0  0  0  0  0
   -5.7130    3.7850   -0.5340 H   0  0  0  0  0  0  0  0  0  0  0  0
   -5.6020    3.3810   -2.2750 H   0  0  0  0  0  0  0  0  0  0  0  0
   -3.6800    2.1150    0.5720 H   0  0  0  0  0  0  0  0  0  0  0  0
   -3.9130    1.1150   -0.9210 H   0  0  0  0  0  0  0  0  0  0  0  0
   -1.4540    2.8430   -0.2150 H   0  0  0  0  0  0  0  0  0  0  0  0
   -1.5830    1.7680   -1.6160 H   0  0  0  0  0  0  0  0  0  0  0  0
   -1.3820    0.9490    1.2640 H   0  0  0  0  0  0  0  0  0  0  0  0
    0.6670    0.4670   -0.8790 H   0  0  0  0  0  0  0  0  0  0  0  0
   -1.8760   -4.6940   -2.5020 O   0  0  0  0  0  0  0  0  0  0  0  0
   -1.2440   -3.4490   -2.3410 C   0  0  0  0  0  0  0  0  0  0  0  0
   -1.5330   -2.9800   -0.9540 C   0  0  2  0  0  0  0  0  0  0  0  0
   -0.9620   -1.7170   -0.6120 N   0  0  0  0  0  0  0  0  0  0  0  0
   -1.1600   -4.0020    0.0450 C   0  0  0  0  0  0  0  0  0  0  0  0
   -0.4590   -3.6820    1.0160 O   0  0  0  0  0  0  0  0  0  0  0  0
   -1.5860   -5.3370   -0.0880 O   0  0  0  0  0  0  0  0  0  0  0  0
   -1.8830   -4.8990   -3.4850 H   0  0  0  0  0  0  0  0  0  0  0  0
   -0.1660   -3.6390   -2.5200 H   0  0  0  0  0  0  0  0  0  0  0  0
   -1.6970   -2.7800   -3.0980 H   0  0  0  0  0  0  0  0  0  0  0  0
   -2.6580   -2.8640   -0.8830 H   0  0  0  0  0  0  0  0  0  0  0  0
    0.0690   -1.6050   -0.6930 H   0  0  0  0  0  0  0  0  0  0  0  0
  1 13  1  0  0  0  0
  2  3  2  0  0  0  0
  2  1  1  0  0  0  0
  4 15  1  0  0  0  0
  4  2  1  0  0  0  0
  5 17  1  0  0  0  0
  5  4  1  0  0  0  0
  6  5  1  0  0  0  0
  6 19  1  0  0  0  0
  7  8  1  0  0  0  0
  7  6  1  0  0  0  0
  8 22  1  6  0  0  0
  8 10  1  0  0  0  0
  8  9  1  0  0  0  0
  9 24  1  0  0  0  0
 10 11  2  0  0  0  0
 12  1  1  0  0  0  0
 14  3  1  0  0  0  0
 16  5  1  0  0  0  0
 18  6  1  0  0  0  0
 20  7  1  0  0  0  0
 21  7  1  0  0  0  0
 23  9  1  0  0  0  0
 25 26  1  0  0  0  0
 25 34  1  0  0  0  0
 26 28  1  0  0  0  0
 27 26  2  0  0  0  0
 28 36  1  0  0  0  0
 29 28  1  0  0  0  0
 29 38  1  0  0  0  0
 29 30  1  0  0  0  0
 30 40  1  1  0  0  0
 31 30  1  0  0  0  0
 31 10  1  0  0  0  0
 32 33  2  0  0  0  0
 32 30  1  0  0  0  0
 35 25  1  0  0  0  0
 37 28  1  0  0  0  0
 39 29  1  0  0  0  0
 41 31  1  0  0  0  0
 42 43  1  0  0  0  0
 43 44  1  0  0  0  0
 44 52  1  1  0  0  0
 44 45  1  0  0  0  0
 44 46  1  0  0  0  0
 45 32  1  0  0  0  0
 46 47  1  0  0  0  0
 48 46  2  0  0  0  0
 49 42  1  0  0  0  0
 50 43  1  0  0  0  0
 51 43  1  0  0  0  0
 53 45  1  0  0  0  0
M  END
$$$$
