RQT.pdb
 OpenBabel07022418053D

 56 55  0  0  1  0  0  0  0  0999 V2000
   -3.0510   -1.8880    5.0310 N   0  0  0  0  0  0  0  0  0  0  0  0
   -3.0210   -2.4500    3.7260 C   0  0  0  0  0  0  0  0  0  0  0  0
   -3.7910   -3.4120    3.3850 N   0  0  0  0  0  0  0  0  0  0  0  0
   -2.0970   -1.9180    2.7730 N   0  0  0  0  0  0  0  0  0  0  0  0
   -1.5590   -2.6680    1.6690 C   0  0  0  0  0  0  0  0  0  0  0  0
   -0.6470   -3.7690    2.0960 C   0  0  0  0  0  0  0  0  0  0  0  0
    0.5350   -3.4230    2.8850 C   0  0  0  0  0  0  0  0  0  0  0  0
    1.6020   -2.5530    2.3320 C   0  0  2  0  0  0  0  0  0  0  0  0
    2.6000   -2.4600    3.4440 N   0  0  0  0  0  0  0  0  0  0  0  0
    1.2050   -1.1740    1.9620 C   0  0  0  0  0  0  0  0  0  0  0  0
    0.8700   -0.3510    2.8700 O   0  0  0  0  0  0  0  0  0  0  0  0
   -3.8870   -1.3860    5.3590 H   0  0  0  0  0  0  0  0  0  0  0  0
   -2.2210   -1.9960    5.6350 H   0  0  0  0  0  0  0  0  0  0  0  0
   -3.7950   -3.8420    2.4490 H   0  0  0  0  0  0  0  0  0  0  0  0
   -1.8100   -0.9240    2.9040 H   0  0  0  0  0  0  0  0  0  0  0  0
   -1.0980   -2.0440    0.8920 H   0  0  0  0  0  0  0  0  0  0  0  0
   -2.4800   -3.0980    1.1470 H   0  0  0  0  0  0  0  0  0  0  0  0
   -1.2950   -4.4710    2.7160 H   0  0  0  0  0  0  0  0  0  0  0  0
   -0.3570   -4.4300    1.2300 H   0  0  0  0  0  0  0  0  0  0  0  0
    0.1820   -2.9790    3.8770 H   0  0  0  0  0  0  0  0  0  0  0  0
    1.0120   -4.3950    3.2560 H   0  0  0  0  0  0  0  0  0  0  0  0
    2.1150   -3.0400    1.4830 H   0  0  0  0  0  0  0  0  0  0  0  0
    3.5340   -2.3260    2.9990 H   0  0  0  0  0  0  0  0  0  0  0  0
    2.6120   -3.3620    3.9730 H   0  0  0  0  0  0  0  0  0  0  0  0
    2.9590    5.1820   -0.3770 N   0  0  0  0  0  0  0  0  0  0  0  0
    2.9970    3.7910   -0.1600 C   0  0  0  0  0  0  0  0  0  0  0  0
    4.0920    3.2060   -0.0920 O   0  0  0  0  0  0  0  0  0  0  0  0
    1.7450    2.9960   -0.0090 C   0  0  0  0  0  0  0  0  0  0  0  0
    2.0430    1.5430    0.2110 C   0  0  0  0  0  0  0  0  0  0  0  0
    0.7760    0.7050    0.4040 C   0  0  2  0  0  0  0  0  0  0  0  0
    1.1810   -0.6880    0.6170 N   0  0  0  0  0  0  0  0  0  0  0  0
   -0.1710    0.7860   -0.6840 C   0  0  0  0  0  0  0  0  0  0  0  0
   -0.7210    1.8760   -0.9810 O   0  0  0  0  0  0  0  0  0  0  0  0
    3.5830    5.7990    0.2070 H   0  0  0  0  0  0  0  0  0  0  0  0
    2.3190    5.5680   -1.1040 H   0  0  0  0  0  0  0  0  0  0  0  0
    1.1230    3.1190   -0.9470 H   0  0  0  0  0  0  0  0  0  0  0  0
    1.1110    3.3600    0.8180 H   0  0  0  0  0  0  0  0  0  0  0  0
    2.7530    1.3830    1.0200 H   0  0  0  0  0  0  0  0  0  0  0  0
    2.4900    1.1630   -0.7520 H   0  0  0  0  0  0  0  0  0  0  0  0
    0.3130    1.1170    1.3360 H   0  0  0  0  0  0  0  0  0  0  0  0
    1.4580   -1.3390   -0.1390 H   0  0  0  0  0  0  0  0  0  0  0  0
   -0.3680   -1.9520   -3.9260 C   0  0  0  0  0  0  0  0  0  0  0  0
   -0.8110   -0.4880   -3.9040 C   0  0  1  0  0  0  0  0  0  0  0  0
   -1.7200   -0.3440   -4.9400 O   0  0  0  0  0  0  0  0  0  0  0  0
   -1.4940   -0.1770   -2.5820 C   0  0  2  0  0  0  0  0  0  0  0  0
   -0.5350   -0.3270   -1.4760 N   0  0  0  0  0  0  0  0  0  0  0  0
   -2.6240   -1.1080   -2.3900 C   0  0  0  0  0  0  0  0  0  0  0  0
   -3.5930   -1.1550   -3.2220 O   0  0  0  0  0  0  0  0  0  0  0  0
   -2.7110   -1.9780   -1.3170 O   0  0  0  0  0  0  0  0  0  0  0  0
    0.2610   -2.1210   -4.8300 H   0  0  0  0  0  0  0  0  0  0  0  0
    0.2760   -2.1990   -3.0590 H   0  0  0  0  0  0  0  0  0  0  0  0
   -1.2310   -2.6220   -3.9620 H   0  0  0  0  0  0  0  0  0  0  0  0
    0.0660    0.1390   -4.0840 H   0  0  0  0  0  0  0  0  0  0  0  0
   -1.2810   -0.2510   -5.8230 H   0  0  0  0  0  0  0  0  0  0  0  0
   -1.8680    0.8600   -2.6300 H   0  0  0  0  0  0  0  0  0  0  0  0
   -0.1390   -1.2690   -1.2960 H   0  0  0  0  0  0  0  0  0  0  0  0
  1 12  1  0  0  0  0
  1 13  1  0  0  0  0
  2  1  1  0  0  0  0
  3  2  2  0  0  0  0
  4 15  1  0  0  0  0
  4  2  1  0  0  0  0
  5  6  1  0  0  0  0
  5  4  1  0  0  0  0
  6 18  1  0  0  0  0
  6  7  1  0  0  0  0
  7 21  1  0  0  0  0
  7 20  1  0  0  0  0
  8 22  1  6  0  0  0
  8  7  1  0  0  0  0
  8  9  1  0  0  0  0
  9 24  1  0  0  0  0
 10  8  1  0  0  0  0
 10 11  2  0  0  0  0
 14  3  1  0  0  0  0
 16  5  1  0  0  0  0
 17  5  1  0  0  0  0
 19  6  1  0  0  0  0
 23  9  1  0  0  0  0
 25 26  1  0  0  0  0
 25 34  1  0  0  0  0
 26 27  2  0  0  0  0
 26 28  1  0  0  0  0
 28 29  1  0  0  0  0
 28 37  1  0  0  0  0
 29 30  1  0  0  0  0
 29 38  1  0  0  0  0
 30 31  1  0  0  0  0
 30 40  1  1  0  0  0
 31 10  1  0  0  0  0
 32 30  1  0  0  0  0
 33 32  2  0  0  0  0
 35 25  1  0  0  0  0
 36 28  1  0  0  0  0
 39 29  1  0  0  0  0
 41 31  1  0  0  0  0
 42 43  1  0  0  0  0
 42 51  1  0  0  0  0
 43 53  1  6  0  0  0
 43 45  1  0  0  0  0
 44 43  1  0  0  0  0
 45 55  1  6  0  0  0
 45 47  1  0  0  0  0
 45 46  1  0  0  0  0
 46 56  1  0  0  0  0
 46 32  1  0  0  0  0
 47 49  1  0  0  0  0
 48 47  2  0  0  0  0
 50 42  1  0  0  0  0
 52 42  1  0  0  0  0
 54 44  1  0  0  0  0
M  END
$$$$
