RRD.pdb
 OpenBabel07022418033D

 61 60  0  0  1  0  0  0  0  0999 V2000
    2.4710   -6.1360    3.6720 N   0  0  0  0  0  0  0  0  0  0  0  0
    3.0910   -6.0000    2.4010 C   0  0  0  0  0  0  0  0  0  0  0  0
    3.5380   -7.0200    1.7420 N   0  0  0  0  0  0  0  0  0  0  0  0
    3.2290   -4.7140    1.8250 N   0  0  0  0  0  0  0  0  0  0  0  0
    3.1270   -4.5390    0.3830 C   0  0  0  0  0  0  0  0  0  0  0  0
    3.3050   -3.1000    0.0100 C   0  0  0  0  0  0  0  0  0  0  0  0
    3.2070   -2.8710   -1.4830 C   0  0  0  0  0  0  0  0  0  0  0  0
    3.4030   -1.3880   -1.7580 C   0  0  2  0  0  0  0  0  0  0  0  0
    4.7380   -1.0860   -1.2350 N   0  0  0  0  0  0  0  0  0  0  0  0
    2.3840   -0.6120   -1.0050 C   0  0  0  0  0  0  0  0  0  0  0  0
    2.7200    0.1230   -0.0150 O   0  0  0  0  0  0  0  0  0  0  0  0
    1.4430   -6.2810    3.8000 H   0  0  0  0  0  0  0  0  0  0  0  0
    3.0510   -6.0930    4.5300 H   0  0  0  0  0  0  0  0  0  0  0  0
    3.4340   -7.9610    2.1680 H   0  0  0  0  0  0  0  0  0  0  0  0
    3.4070   -3.8770    2.4360 H   0  0  0  0  0  0  0  0  0  0  0  0
    3.9920   -5.1080   -0.0440 H   0  0  0  0  0  0  0  0  0  0  0  0
    2.2270   -4.9790   -0.0430 H   0  0  0  0  0  0  0  0  0  0  0  0
    4.2660   -2.7020    0.3920 H   0  0  0  0  0  0  0  0  0  0  0  0
    2.5020   -2.4860    0.4820 H   0  0  0  0  0  0  0  0  0  0  0  0
    2.2950   -3.2820   -1.9150 H   0  0  0  0  0  0  0  0  0  0  0  0
    4.0780   -3.3970   -1.9350 H   0  0  0  0  0  0  0  0  0  0  0  0
    3.4220   -1.1470   -2.8280 H   0  0  0  0  0  0  0  0  0  0  0  0
    5.0720   -0.1500   -1.5510 H   0  0  0  0  0  0  0  0  0  0  0  0
    5.4060   -1.8580   -1.4510 H   0  0  0  0  0  0  0  0  0  0  0  0
   -3.6940    5.3390    1.0600 N   0  0  0  0  0  0  0  0  0  0  0  0
   -2.6900    4.7270    0.2440 C   0  0  0  0  0  0  0  0  0  0  0  0
   -1.4300    4.8410    0.5730 N   0  0  0  0  0  0  0  0  0  0  0  0
   -3.0080    3.9880   -0.9270 N   0  0  0  0  0  0  0  0  0  0  0  0
   -1.9820    3.2390   -1.6660 C   0  0  0  0  0  0  0  0  0  0  0  0
   -1.5460    2.0750   -0.7670 C   0  0  0  0  0  0  0  0  0  0  0  0
   -0.4960    1.2530   -1.4460 C   0  0  0  0  0  0  0  0  0  0  0  0
    0.0010    0.1390   -0.5760 C   0  0  2  0  0  0  0  0  0  0  0  0
    1.0160   -0.6340   -1.3250 N   0  0  0  0  0  0  0  0  0  0  0  0
   -1.0530   -0.7360   -0.0760 C   0  0  0  0  0  0  0  0  0  0  0  0
   -1.1650   -1.9420   -0.5130 O   0  0  0  0  0  0  0  0  0  0  0  0
   -4.6930    5.1410    0.8340 H   0  0  0  0  0  0  0  0  0  0  0  0
   -3.4120    5.9470    1.8340 H   0  0  0  0  0  0  0  0  0  0  0  0
   -1.1340    5.3720    1.4210 H   0  0  0  0  0  0  0  0  0  0  0  0
   -4.0000    3.9850   -1.2610 H   0  0  0  0  0  0  0  0  0  0  0  0
   -1.1260    3.9170   -1.8250 H   0  0  0  0  0  0  0  0  0  0  0  0
   -2.4370    2.8590   -2.6020 H   0  0  0  0  0  0  0  0  0  0  0  0
   -1.2680    2.4960    0.2030 H   0  0  0  0  0  0  0  0  0  0  0  0
   -2.4980    1.4560   -0.6570 H   0  0  0  0  0  0  0  0  0  0  0  0
   -0.9140    0.8580   -2.4030 H   0  0  0  0  0  0  0  0  0  0  0  0
    0.3190    1.9600   -1.7350 H   0  0  0  0  0  0  0  0  0  0  0  0
    0.5550    0.6000    0.2610 H   0  0  0  0  0  0  0  0  0  0  0  0
    0.6800   -1.2110   -2.1180 H   0  0  0  0  0  0  0  0  0  0  0  0
   -2.0340   -0.4100    0.8980 N   0  0  0  0  0  0  0  0  0  0  0  0
   -3.0480   -1.3250    1.3350 C   0  0  1  0  0  0  0  0  0  0  0  0
   -3.0420   -1.6230    2.8070 C   0  0  0  0  0  0  0  0  0  0  0  0
   -3.2530   -0.4060    3.6240 C   0  0  0  0  0  0  0  0  0  0  0  0
   -3.2370   -0.5230    4.8860 O   0  0  0  0  0  0  0  0  0  0  0  0
   -4.4340   -0.8670    0.9670 C   0  0  0  0  0  0  0  0  0  0  0  0
   -4.6880    0.1860    0.3670 O   0  0  0  0  0  0  0  0  0  0  0  0
   -3.4700    0.8630    3.1160 O   0  0  0  0  0  0  0  0  0  0  0  0
   -5.4630   -1.7290    1.3540 O   0  0  0  0  0  0  0  0  0  0  0  0
   -2.0190    0.5290    1.3460 H   0  0  0  0  0  0  0  0  0  0  0  0
   -2.9120   -2.2780    0.7850 H   0  0  0  0  0  0  0  0  0  0  0  0
   -3.9480   -2.2730    2.9920 H   0  0  0  0  0  0  0  0  0  0  0  0
   -2.1900   -2.2280    3.1530 H   0  0  0  0  0  0  0  0  0  0  0  0
   -3.4660    1.7140    3.6440 H   0  0  0  0  0  0  0  0  0  0  0  0
  1 12  1  0  0  0  0
  1 13  1  0  0  0  0
  2  1  1  0  0  0  0
  3 14  1  0  0  0  0
  3  2  2  0  0  0  0
  4  2  1  0  0  0  0
  4 15  1  0  0  0  0
  5  4  1  0  0  0  0
  6  5  1  0  0  0  0
  6 18  1  0  0  0  0
  6 19  1  0  0  0  0
  7  6  1  0  0  0  0
  8 22  1  6  0  0  0
  8  7  1  0  0  0  0
  8  9  1  0  0  0  0
  8 10  1  0  0  0  0
 10 11  2  0  0  0  0
 16  5  1  0  0  0  0
 17  5  1  0  0  0  0
 20  7  1  0  0  0  0
 21  7  1  0  0  0  0
 23  9  1  0  0  0  0
 24  9  1  0  0  0  0
 25 37  1  0  0  0  0
 26 27  2  0  0  0  0
 26 25  1  0  0  0  0
 27 38  1  0  0  0  0
 28 26  1  0  0  0  0
 29 28  1  0  0  0  0
 29 30  1  0  0  0  0
 30 43  1  0  0  0  0
 30 42  1  0  0  0  0
 31 30  1  0  0  0  0
 31 32  1  0  0  0  0
 32 34  1  0  0  0  0
 32 46  1  1  0  0  0
 33 10  1  0  0  0  0
 33 32  1  0  0  0  0
 34 48  1  0  0  0  0
 35 34  2  0  0  0  0
 36 25  1  0  0  0  0
 39 28  1  0  0  0  0
 40 29  1  0  0  0  0
 41 29  1  0  0  0  0
 44 31  1  0  0  0  0
 45 31  1  0  0  0  0
 47 33  1  0  0  0  0
 48 49  1  0  0  0  0
 48 57  1  0  0  0  0
 49 58  1  6  0  0  0
 49 50  1  0  0  0  0
 50 59  1  0  0  0  0
 50 60  1  0  0  0  0
 50 51  1  0  0  0  0
 51 52  2  0  0  0  0
 53 49  1  0  0  0  0
 53 56  1  0  0  0  0
 54 53  2  0  0  0  0
 55 51  1  0  0  0  0
 55 61  1  0  0  0  0
M  END
$$$$
