RRH.pdb
 OpenBabel07022418033D

 65 65  0  0  1  0  0  0  0  0999 V2000
    6.7170   -2.2050    1.1030 N   0  0  0  0  0  0  0  0  0  0  0  0
    6.0700   -1.1870    1.8500 C   0  0  0  0  0  0  0  0  0  0  0  0
    6.5290    0.0210    1.8100 N   0  0  0  0  0  0  0  0  0  0  0  0
    4.9260   -1.4570    2.6450 N   0  0  0  0  0  0  0  0  0  0  0  0
    4.2970   -0.3760    3.3700 C   0  0  0  0  0  0  0  0  0  0  0  0
    3.6400    0.6140    2.4490 C   0  0  0  0  0  0  0  0  0  0  0  0
    2.5950   -0.1140    1.6550 C   0  0  0  0  0  0  0  0  0  0  0  0
    1.8530    0.7910    0.6820 C   0  0  2  0  0  0  0  0  0  0  0  0
    1.2240    1.8090    1.4690 N   0  0  0  0  0  0  0  0  0  0  0  0
    0.8220   -0.0530    0.0300 C   0  0  0  0  0  0  0  0  0  0  0  0
    1.1870   -1.0840   -0.6180 O   0  0  0  0  0  0  0  0  0  0  0  0
    7.7460   -2.2420    0.9620 H   0  0  0  0  0  0  0  0  0  0  0  0
    6.1430   -2.9570    0.6720 H   0  0  0  0  0  0  0  0  0  0  0  0
    7.3690    0.2590    1.2350 H   0  0  0  0  0  0  0  0  0  0  0  0
    4.5280   -2.4390    2.7150 H   0  0  0  0  0  0  0  0  0  0  0  0
    3.5400   -0.7720    4.0740 H   0  0  0  0  0  0  0  0  0  0  0  0
    5.0580    0.1710    3.9610 H   0  0  0  0  0  0  0  0  0  0  0  0
    3.1220    1.3800    3.0610 H   0  0  0  0  0  0  0  0  0  0  0  0
    4.3830    1.0400    1.7700 H   0  0  0  0  0  0  0  0  0  0  0  0
    3.0790   -0.9560    1.1300 H   0  0  0  0  0  0  0  0  0  0  0  0
    1.8600   -0.5470    2.3680 H   0  0  0  0  0  0  0  0  0  0  0  0
    2.5520    1.2120   -0.0750 H   0  0  0  0  0  0  0  0  0  0  0  0
    0.7260    2.4690    0.8570 H   0  0  0  0  0  0  0  0  0  0  0  0
    0.5730    1.3800    2.1400 H   0  0  0  0  0  0  0  0  0  0  0  0
    0.5040    4.2890   -1.4090 N   0  0  0  0  0  0  0  0  0  0  0  0
    0.6960    2.9960   -1.9570 C   0  0  0  0  0  0  0  0  0  0  0  0
    1.8490    2.6170   -2.4020 N   0  0  0  0  0  0  0  0  0  0  0  0
   -0.4180    2.0680   -2.0230 N   0  0  0  0  0  0  0  0  0  0  0  0
   -0.3090    1.0110   -2.9710 C   0  0  0  0  0  0  0  0  0  0  0  0
   -1.3570   -0.0190   -2.9800 C   0  0  0  0  0  0  0  0  0  0  0  0
   -1.4440   -0.9380   -1.8560 C   0  0  0  0  0  0  0  0  0  0  0  0
   -1.6020   -0.4890   -0.4710 C   0  0  2  0  0  0  0  0  0  0  0  0
   -0.5520    0.2870    0.1310 N   0  0  0  0  0  0  0  0  0  0  0  0
   -1.8650   -1.6330    0.4760 C   0  0  0  0  0  0  0  0  0  0  0  0
   -1.2000   -1.7810    1.5450 O   0  0  0  0  0  0  0  0  0  0  0  0
   -0.0620    5.0000   -1.9160 H   0  0  0  0  0  0  0  0  0  0  0  0
    0.9310    4.5330   -0.4920 H   0  0  0  0  0  0  0  0  0  0  0  0
    2.6480    3.2730   -2.3580 H   0  0  0  0  0  0  0  0  0  0  0  0
   -1.1910    2.2970   -1.3890 H   0  0  0  0  0  0  0  0  0  0  0  0
    0.7360    0.5680   -2.8680 H   0  0  0  0  0  0  0  0  0  0  0  0
   -0.2310    1.5060   -4.0000 H   0  0  0  0  0  0  0  0  0  0  0  0
   -1.3310   -0.6300   -3.9470 H   0  0  0  0  0  0  0  0  0  0  0  0
   -2.3440    0.5510   -3.1060 H   0  0  0  0  0  0  0  0  0  0  0  0
   -2.3060   -1.6850   -2.1170 H   0  0  0  0  0  0  0  0  0  0  0  0
   -0.5460   -1.6540   -1.9460 H   0  0  0  0  0  0  0  0  0  0  0  0
   -2.5320    0.1940   -0.4620 H   0  0  0  0  0  0  0  0  0  0  0  0
   -0.7930    1.1710    0.6880 H   0  0  0  0  0  0  0  0  0  0  0  0
   -2.8640   -2.5870    0.2080 N   0  0  0  0  0  0  0  0  0  0  0  0
   -3.1550   -3.7130    1.0820 C   0  0  1  0  0  0  0  0  0  0  0  0
   -4.6210   -3.8840    1.2380 C   0  0  0  0  0  0  0  0  0  0  0  0
   -5.3720   -2.7810    1.8160 C   0  0  0  0  0  0  0  0  0  0  0  0
   -4.9690   -1.5590    2.2850 C   0  0  0  0  0  0  0  0  0  0  0  0
   -6.0450   -0.8840    2.7340 N   0  0  0  0  0  0  0  0  0  0  0  0
   -7.0980   -1.6810    2.5450 C   0  0  0  0  0  0  0  0  0  0  0  0
   -6.7140   -2.8260    1.9940 N   0  0  0  0  0  0  0  0  0  0  0  0
   -2.6710   -4.9480    0.3640 C   0  0  0  0  0  0  0  0  0  0  0  0
   -2.7940   -6.0890    0.8870 O   0  0  0  0  0  0  0  0  0  0  0  0
   -2.0920   -4.7880   -0.8770 O   0  0  0  0  0  0  0  0  0  0  0  0
   -3.4400   -2.4730   -0.6820 H   0  0  0  0  0  0  0  0  0  0  0  0
   -2.5860   -3.6030    2.0380 H   0  0  0  0  0  0  0  0  0  0  0  0
   -4.8400   -4.8690    1.7360 H   0  0  0  0  0  0  0  0  0  0  0  0
   -5.0300   -4.0420    0.1910 H   0  0  0  0  0  0  0  0  0  0  0  0
   -3.9800   -1.1400    2.3240 H   0  0  0  0  0  0  0  0  0  0  0  0
   -6.1350    0.0620    3.1550 H   0  0  0  0  0  0  0  0  0  0  0  0
   -8.1490   -1.4860    2.7830 H   0  0  0  0  0  0  0  0  0  0  0  0
  1  2  1  0  0  0  0
  2  4  1  0  0  0  0
  3  2  2  0  0  0  0
  4 15  1  0  0  0  0
  4  5  1  0  0  0  0
  5 17  1  0  0  0  0
  5 16  1  0  0  0  0
  6 18  1  0  0  0  0
  6  5  1  0  0  0  0
  7 21  1  0  0  0  0
  7  6  1  0  0  0  0
  8 22  1  6  0  0  0
  8  9  1  0  0  0  0
  8  7  1  0  0  0  0
  9 24  1  0  0  0  0
 10 33  1  0  0  0  0
 10  8  1  0  0  0  0
 11 10  2  0  0  0  0
 12  1  1  0  0  0  0
 13  1  1  0  0  0  0
 14  3  1  0  0  0  0
 19  6  1  0  0  0  0
 20  7  1  0  0  0  0
 23  9  1  0  0  0  0
 25 37  1  0  0  0  0
 26 25  1  0  0  0  0
 27 38  1  0  0  0  0
 27 26  2  0  0  0  0
 28 26  1  0  0  0  0
 28 39  1  0  0  0  0
 29 40  1  0  0  0  0
 29 28  1  0  0  0  0
 30 29  1  0  0  0  0
 30 31  1  0  0  0  0
 31 32  1  0  0  0  0
 32 46  1  1  0  0  0
 32 33  1  0  0  0  0
 32 34  1  0  0  0  0
 33 47  1  0  0  0  0
 34 35  2  0  0  0  0
 36 25  1  0  0  0  0
 41 29  1  0  0  0  0
 42 30  1  0  0  0  0
 43 30  1  0  0  0  0
 44 31  1  0  0  0  0
 45 31  1  0  0  0  0
 48 34  1  0  0  0  0
 48 49  1  0  0  0  0
 49 50  1  0  0  0  0
 49 60  1  1  0  0  0
 50 61  1  0  0  0  0
 50 51  1  0  0  0  0
 51 55  1  0  0  0  0
 51 52  2  0  0  0  0
 52 63  1  0  0  0  0
 52 53  1  0  0  0  0
 53 64  1  0  0  0  0
 54 53  1  0  0  0  0
 54 65  1  0  0  0  0
 55 54  2  0  0  0  0
 56 57  1  0  0  0  0
 56 49  1  0  0  0  0
 58 56  2  0  0  0  0
 59 48  1  0  0  0  0
 62 50  1  0  0  0  0
M  END
$$$$
