RRK.pdb
 OpenBabel07022418033D

 69 68  0  0  1  0  0  0  0  0999 V2000
    5.5000    3.8570    3.6230 N   0  0  0  0  0  0  0  0  0  0  0  0
    6.3600    3.1920    2.7260 C   0  0  0  0  0  0  0  0  0  0  0  0
    7.6390    3.2630    2.8530 N   0  0  0  0  0  0  0  0  0  0  0  0
    5.8260    2.4240    1.6540 N   0  0  0  0  0  0  0  0  0  0  0  0
    6.5300    1.2730    1.1280 C   0  0  0  0  0  0  0  0  0  0  0  0
    5.7490    0.6340    0.0030 C   0  0  0  0  0  0  0  0  0  0  0  0
    4.3890    0.1730    0.4850 C   0  0  0  0  0  0  0  0  0  0  0  0
    3.5940   -0.4700   -0.6280 C   0  0  2  0  0  0  0  0  0  0  0  0
    3.3810    0.4620   -1.7180 N   0  0  0  0  0  0  0  0  0  0  0  0
    2.3070   -0.9190   -0.0370 C   0  0  0  0  0  0  0  0  0  0  0  0
    2.3540   -1.7290    0.9230 O   0  0  0  0  0  0  0  0  0  0  0  0
    5.3740    3.5470    4.6170 H   0  0  0  0  0  0  0  0  0  0  0  0
    4.9530    4.6950    3.3170 H   0  0  0  0  0  0  0  0  0  0  0  0
    8.0830    3.8000    3.6040 H   0  0  0  0  0  0  0  0  0  0  0  0
    4.9160    2.6810    1.2300 H   0  0  0  0  0  0  0  0  0  0  0  0
    6.7500    0.5540    1.9420 H   0  0  0  0  0  0  0  0  0  0  0  0
    7.5160    1.6060    0.7190 H   0  0  0  0  0  0  0  0  0  0  0  0
    6.3260   -0.2590   -0.3310 H   0  0  0  0  0  0  0  0  0  0  0  0
    5.6810    1.3090   -0.8590 H   0  0  0  0  0  0  0  0  0  0  0  0
    4.4940   -0.5240    1.3190 H   0  0  0  0  0  0  0  0  0  0  0  0
    3.7910    1.0280    0.8450 H   0  0  0  0  0  0  0  0  0  0  0  0
    4.1340   -1.3700   -0.9490 H   0  0  0  0  0  0  0  0  0  0  0  0
    4.1580    0.4280   -2.4170 H   0  0  0  0  0  0  0  0  0  0  0  0
    3.1900    1.4190   -1.3720 H   0  0  0  0  0  0  0  0  0  0  0  0
   -5.2400    1.3890    1.2760 N   0  0  0  0  0  0  0  0  0  0  0  0
   -4.1480    2.0130    0.5740 C   0  0  0  0  0  0  0  0  0  0  0  0
   -4.2780    2.3470   -0.6640 N   0  0  0  0  0  0  0  0  0  0  0  0
   -2.9250    2.2630    1.2470 N   0  0  0  0  0  0  0  0  0  0  0  0
   -1.6960    2.5720    0.5830 C   0  0  0  0  0  0  0  0  0  0  0  0
   -1.1110    1.4190   -0.1980 C   0  0  0  0  0  0  0  0  0  0  0  0
   -0.8390    0.2790    0.7450 C   0  0  0  0  0  0  0  0  0  0  0  0
   -0.2240   -0.9270    0.0890 C   0  0  2  0  0  0  0  0  0  0  0  0
    1.0380   -0.4900   -0.4870 N   0  0  0  0  0  0  0  0  0  0  0  0
   -1.1350   -1.4920   -0.9020 C   0  0  0  0  0  0  0  0  0  0  0  0
   -0.7450   -1.5240   -2.1150 O   0  0  0  0  0  0  0  0  0  0  0  0
   -6.1880    1.4500    0.8510 H   0  0  0  0  0  0  0  0  0  0  0  0
   -5.0900    0.8970    2.1710 H   0  0  0  0  0  0  0  0  0  0  0  0
   -3.5010    2.7920   -1.1660 H   0  0  0  0  0  0  0  0  0  0  0  0
   -2.9640    2.2100    2.2930 H   0  0  0  0  0  0  0  0  0  0  0  0
   -1.7930    3.4870   -0.0650 H   0  0  0  0  0  0  0  0  0  0  0  0
   -0.9390    2.8800    1.3610 H   0  0  0  0  0  0  0  0  0  0  0  0
   -1.8170    1.1090   -1.0040 H   0  0  0  0  0  0  0  0  0  0  0  0
   -0.1870    1.7310   -0.7220 H   0  0  0  0  0  0  0  0  0  0  0  0
   -1.7920   -0.0070    1.2600 H   0  0  0  0  0  0  0  0  0  0  0  0
   -0.1630    0.6140    1.5570 H   0  0  0  0  0  0  0  0  0  0  0  0
   -0.0230   -1.6540    0.9280 H   0  0  0  0  0  0  0  0  0  0  0  0
    0.9970    0.1800   -1.2840 H   0  0  0  0  0  0  0  0  0  0  0  0
   -2.3960   -1.9820   -0.5170 N   0  0  0  0  0  0  0  0  0  0  0  0
   -3.2560   -2.5360   -1.5260 C   0  0  1  0  0  0  0  0  0  0  0  0
   -3.6110   -3.9870   -1.2660 C   0  0  0  0  0  0  0  0  0  0  0  0
   -4.3290   -4.1550    0.0530 C   0  0  0  0  0  0  0  0  0  0  0  0
   -4.6930   -5.5730    0.3380 C   0  0  0  0  0  0  0  0  0  0  0  0
   -3.5180   -6.5110    0.4110 C   0  0  0  0  0  0  0  0  0  0  0  0
   -2.5920   -6.1220    1.4570 N   0  0  0  0  0  0  0  0  0  0  0  0
   -4.5430   -1.8020   -1.6490 C   0  0  0  0  0  0  0  0  0  0  0  0
   -4.7310   -0.8200   -0.8910 O   0  0  0  0  0  0  0  0  0  0  0  0
   -5.5270   -2.1350   -2.5400 O   0  0  0  0  0  0  0  0  0  0  0  0
   -2.7120   -1.9530    0.4590 H   0  0  0  0  0  0  0  0  0  0  0  0
   -2.7790   -2.5100   -2.5400 H   0  0  0  0  0  0  0  0  0  0  0  0
   -4.2520   -4.3110   -2.1100 H   0  0  0  0  0  0  0  0  0  0  0  0
   -2.6750   -4.5780   -1.3250 H   0  0  0  0  0  0  0  0  0  0  0  0
   -5.3010   -3.5960   -0.0610 H   0  0  0  0  0  0  0  0  0  0  0  0
   -3.8030   -3.6450    0.8830 H   0  0  0  0  0  0  0  0  0  0  0  0
   -5.1710   -5.5870    1.3550 H   0  0  0  0  0  0  0  0  0  0  0  0
   -5.4730   -5.9150   -0.3590 H   0  0  0  0  0  0  0  0  0  0  0  0
   -3.9400   -7.5270    0.6280 H   0  0  0  0  0  0  0  0  0  0  0  0
   -2.9700   -6.5990   -0.5420 H   0  0  0  0  0  0  0  0  0  0  0  0
   -2.6150   -6.7720    2.2760 H   0  0  0  0  0  0  0  0  0  0  0  0
   -2.8250   -5.1730    1.8610 H   0  0  0  0  0  0  0  0  0  0  0  0
  1 12  1  0  0  0  0
  2  3  2  0  0  0  0
  2  1  1  0  0  0  0
  3 14  1  0  0  0  0
  4  2  1  0  0  0  0
  5  4  1  0  0  0  0
  5 16  1  0  0  0  0
  6  7  1  0  0  0  0
  6  5  1  0  0  0  0
  7 21  1  0  0  0  0
  7 20  1  0  0  0  0
  8 22  1  6  0  0  0
  8 10  1  0  0  0  0
  8  7  1  0  0  0  0
  9 24  1  0  0  0  0
  9  8  1  0  0  0  0
 10 11  2  0  0  0  0
 13  1  1  0  0  0  0
 15  4  1  0  0  0  0
 17  5  1  0  0  0  0
 18  6  1  0  0  0  0
 19  6  1  0  0  0  0
 23  9  1  0  0  0  0
 25 37  1  0  0  0  0
 26 28  1  0  0  0  0
 26 25  1  0  0  0  0
 27 26  2  0  0  0  0
 28 39  1  0  0  0  0
 29 28  1  0  0  0  0
 29 41  1  0  0  0  0
 30 29  1  0  0  0  0
 30 31  1  0  0  0  0
 31 44  1  0  0  0  0
 31 45  1  0  0  0  0
 32 31  1  0  0  0  0
 32 46  1  1  0  0  0
 33 10  1  0  0  0  0
 33 32  1  0  0  0  0
 34 48  1  0  0  0  0
 34 32  1  0  0  0  0
 35 34  2  0  0  0  0
 36 25  1  0  0  0  0
 38 27  1  0  0  0  0
 40 29  1  0  0  0  0
 42 30  1  0  0  0  0
 43 30  1  0  0  0  0
 47 33  1  0  0  0  0
 48 58  1  0  0  0  0
 49 59  1  6  0  0  0
 49 50  1  0  0  0  0
 49 48  1  0  0  0  0
 50 51  1  0  0  0  0
 51 52  1  0  0  0  0
 51 63  1  0  0  0  0
 52 53  1  0  0  0  0
 52 64  1  0  0  0  0
 53 66  1  0  0  0  0
 53 54  1  0  0  0  0
 54 69  1  0  0  0  0
 54 68  1  0  0  0  0
 55 49  1  0  0  0  0
 55 56  1  0  0  0  0
 57 55  2  0  0  0  0
 60 50  1  0  0  0  0
 61 50  1  0  0  0  0
 62 51  1  0  0  0  0
 65 52  1  0  0  0  0
 67 53  1  0  0  0  0
M  END
$$$$
