RRN.pdb
 OpenBabel07022418033D

 62 61  0  0  1  0  0  0  0  0999 V2000
    1.1560    0.5810    2.8450 N   0  0  0  0  0  0  0  0  0  0  0  0
    2.3670   -0.0050    2.4080 C   0  0  0  0  0  0  0  0  0  0  0  0
    3.1580   -0.6970    3.1690 N   0  0  0  0  0  0  0  0  0  0  0  0
    2.7880    0.1620    1.0340 N   0  0  0  0  0  0  0  0  0  0  0  0
    3.4750   -0.8810    0.3270 C   0  0  0  0  0  0  0  0  0  0  0  0
    3.8580   -0.5760   -1.0700 C   0  0  0  0  0  0  0  0  0  0  0  0
    2.8490   -0.3450   -2.1020 C   0  0  0  0  0  0  0  0  0  0  0  0
    1.8430    0.7470   -1.9760 C   0  0  2  0  0  0  0  0  0  0  0  0
    2.3650    2.0580   -1.8110 N   0  0  0  0  0  0  0  0  0  0  0  0
    0.5690    0.4080   -1.3520 C   0  0  0  0  0  0  0  0  0  0  0  0
   -0.0690   -0.5930   -1.8780 O   0  0  0  0  0  0  0  0  0  0  0  0
    0.4420    0.0260    3.3480 H   0  0  0  0  0  0  0  0  0  0  0  0
    0.9840    1.5850    2.6560 H   0  0  0  0  0  0  0  0  0  0  0  0
    2.9190   -0.8530    4.1690 H   0  0  0  0  0  0  0  0  0  0  0  0
    2.6010    1.0570    0.5760 H   0  0  0  0  0  0  0  0  0  0  0  0
    2.8500   -1.8120    0.3460 H   0  0  0  0  0  0  0  0  0  0  0  0
    4.4120   -1.1850    0.9140 H   0  0  0  0  0  0  0  0  0  0  0  0
    4.5470   -1.4580   -1.3740 H   0  0  0  0  0  0  0  0  0  0  0  0
    4.6370    0.2640   -1.0380 H   0  0  0  0  0  0  0  0  0  0  0  0
    3.4280   -0.2420   -3.0910 H   0  0  0  0  0  0  0  0  0  0  0  0
    2.3150   -1.3450   -2.3010 H   0  0  0  0  0  0  0  0  0  0  0  0
    1.4800    0.8280   -3.1300 H   0  0  0  0  0  0  0  0  0  0  0  0
    3.3960    2.1030   -1.6530 H   0  0  0  0  0  0  0  0  0  0  0  0
    1.9710    2.7850   -2.4080 H   0  0  0  0  0  0  0  0  0  0  0  0
   -2.9060    0.7080    3.6090 N   0  0  0  0  0  0  0  0  0  0  0  0
   -3.5450    1.5240    2.6600 C   0  0  0  0  0  0  0  0  0  0  0  0
   -3.2720    2.7910    2.5570 N   0  0  0  0  0  0  0  0  0  0  0  0
   -4.5180    1.0360    1.7600 N   0  0  0  0  0  0  0  0  0  0  0  0
   -4.6570    1.3270    0.3980 C   0  0  0  0  0  0  0  0  0  0  0  0
   -3.7940    0.7940   -0.6320 C   0  0  0  0  0  0  0  0  0  0  0  0
   -2.3800    1.0450   -0.7400 C   0  0  0  0  0  0  0  0  0  0  0  0
   -1.3690    0.6200    0.2770 C   0  0  2  0  0  0  0  0  0  0  0  0
   -0.0590    1.0350   -0.2520 N   0  0  0  0  0  0  0  0  0  0  0  0
   -1.4970   -0.8130    0.5540 C   0  0  0  0  0  0  0  0  0  0  0  0
   -2.6750   -1.2980    0.8010 O   0  0  0  0  0  0  0  0  0  0  0  0
   -1.8610    0.7010    3.7320 H   0  0  0  0  0  0  0  0  0  0  0  0
   -3.4440    0.0680    4.2400 H   0  0  0  0  0  0  0  0  0  0  0  0
   -2.5730    3.1890    3.1880 H   0  0  0  0  0  0  0  0  0  0  0  0
   -5.2420    0.3390    2.1920 H   0  0  0  0  0  0  0  0  0  0  0  0
   -5.7630    1.1000    0.1380 H   0  0  0  0  0  0  0  0  0  0  0  0
   -4.7240    2.4940    0.2970 H   0  0  0  0  0  0  0  0  0  0  0  0
   -4.0060   -0.3410   -0.7980 H   0  0  0  0  0  0  0  0  0  0  0  0
   -4.2360    1.1620   -1.6710 H   0  0  0  0  0  0  0  0  0  0  0  0
   -2.0540    0.6280   -1.7710 H   0  0  0  0  0  0  0  0  0  0  0  0
   -2.2400    2.1700   -0.9550 H   0  0  0  0  0  0  0  0  0  0  0  0
   -1.4740    1.2400    1.1850 H   0  0  0  0  0  0  0  0  0  0  0  0
    0.4230    1.8240    0.1920 H   0  0  0  0  0  0  0  0  0  0  0  0
   -0.4580   -6.3180   -1.3080 N   0  0  0  0  0  0  0  0  0  0  0  0
   -0.8180   -5.4100   -0.2420 C   0  0  0  0  0  0  0  0  0  0  0  0
   -1.3890   -5.9550    0.7270 O   0  0  0  0  0  0  0  0  0  0  0  0
   -0.4950   -4.0020   -0.3910 C   0  0  0  0  0  0  0  0  0  0  0  0
   -0.7770   -3.2110    0.8530 C   0  0  2  0  0  0  0  0  0  0  0  0
   -0.4700   -1.7850    0.5910 N   0  0  0  0  0  0  0  0  0  0  0  0
    0.0150   -3.6940    1.9820 C   0  0  0  0  0  0  0  0  0  0  0  0
   -0.0450   -4.8460    2.4680 O   0  0  0  0  0  0  0  0  0  0  0  0
    0.9530   -2.8600    2.6420 O   0  0  0  0  0  0  0  0  0  0  0  0
    0.0990   -7.1790   -1.1660 H   0  0  0  0  0  0  0  0  0  0  0  0
   -0.7920   -6.0620   -2.2560 H   0  0  0  0  0  0  0  0  0  0  0  0
   -1.0480   -3.6000   -1.2730 H   0  0  0  0  0  0  0  0  0  0  0  0
    0.5880   -3.9410   -0.6730 H   0  0  0  0  0  0  0  0  0  0  0  0
   -1.8430   -3.2770    1.0840 H   0  0  0  0  0  0  0  0  0  0  0  0
    0.5150   -1.4970    0.4600 H   0  0  0  0  0  0  0  0  0  0  0  0
  1 12  1  0  0  0  0
  2  1  1  0  0  0  0
  2  3  2  0  0  0  0
  3 14  1  0  0  0  0
  4  2  1  0  0  0  0
  5 16  1  0  0  0  0
  5 17  1  0  0  0  0
  5  4  1  0  0  0  0
  6 19  1  0  0  0  0
  6  5  1  0  0  0  0
  7  8  1  0  0  0  0
  7  6  1  0  0  0  0
  8 22  1  6  0  0  0
  8  9  1  0  0  0  0
  8 10  1  0  0  0  0
  9 23  1  0  0  0  0
 10 33  1  0  0  0  0
 11 10  2  0  0  0  0
 13  1  1  0  0  0  0
 15  4  1  0  0  0  0
 18  6  1  0  0  0  0
 20  7  1  0  0  0  0
 21  7  1  0  0  0  0
 24  9  1  0  0  0  0
 25 36  1  0  0  0  0
 25 37  1  0  0  0  0
 26 25  1  0  0  0  0
 27 26  2  0  0  0  0
 27 38  1  0  0  0  0
 28 39  1  0  0  0  0
 28 26  1  0  0  0  0
 29 28  1  0  0  0  0
 30 29  1  0  0  0  0
 31 30  1  0  0  0  0
 31 32  1  0  0  0  0
 32 34  1  0  0  0  0
 32 46  1  1  0  0  0
 33 47  1  0  0  0  0
 33 32  1  0  0  0  0
 34 53  1  0  0  0  0
 34 35  2  0  0  0  0
 40 29  1  0  0  0  0
 41 29  1  0  0  0  0
 42 30  1  0  0  0  0
 43 30  1  0  0  0  0
 44 31  1  0  0  0  0
 45 31  1  0  0  0  0
 48 57  1  0  0  0  0
 48 49  1  0  0  0  0
 49 50  2  0  0  0  0
 51 49  1  0  0  0  0
 51 52  1  0  0  0  0
 52 61  1  1  0  0  0
 52 54  1  0  0  0  0
 53 52  1  0  0  0  0
 54 55  2  0  0  0  0
 54 56  1  0  0  0  0
 58 48  1  0  0  0  0
 59 51  1  0  0  0  0
 60 51  1  0  0  0  0
 62 53  1  0  0  0  0
M  END
$$$$
