RRP.pdb
 OpenBabel07022418033D

 62 62  0  0  1  0  0  0  0  0999 V2000
    3.3170   -2.1680    6.1270 N   0  0  0  0  0  0  0  0  0  0  0  0
    4.1780   -2.4090    5.0330 C   0  0  0  0  0  0  0  0  0  0  0  0
    5.0460   -3.3360    4.9880 N   0  0  0  0  0  0  0  0  0  0  0  0
    4.0540   -1.5370    3.8950 N   0  0  0  0  0  0  0  0  0  0  0  0
    4.6080   -1.9270    2.6420 C   0  0  0  0  0  0  0  0  0  0  0  0
    4.3390   -0.8870    1.6100 C   0  0  0  0  0  0  0  0  0  0  0  0
    2.8140   -0.7410    1.4590 C   0  0  0  0  0  0  0  0  0  0  0  0
    2.6080    0.3070    0.4200 C   0  0  2  0  0  0  0  0  0  0  0  0
    3.2320    1.5360    0.9070 N   0  0  0  0  0  0  0  0  0  0  0  0
    1.2310    0.6010    0.0400 C   0  0  0  0  0  0  0  0  0  0  0  0
    0.8190    1.7960    0.1500 O   0  0  0  0  0  0  0  0  0  0  0  0
    3.0860   -2.9580    6.7680 H   0  0  0  0  0  0  0  0  0  0  0  0
    2.9120   -1.2080    6.2970 H   0  0  0  0  0  0  0  0  0  0  0  0
    5.1980   -4.0100    5.7700 H   0  0  0  0  0  0  0  0  0  0  0  0
    3.5570   -0.6350    4.0330 H   0  0  0  0  0  0  0  0  0  0  0  0
    5.7260   -2.0580    2.7350 H   0  0  0  0  0  0  0  0  0  0  0  0
    4.1470   -2.9130    2.3490 H   0  0  0  0  0  0  0  0  0  0  0  0
    4.7990   -1.1430    0.6470 H   0  0  0  0  0  0  0  0  0  0  0  0
    4.7470    0.0780    1.9970 H   0  0  0  0  0  0  0  0  0  0  0  0
    2.4920   -1.7040    1.0230 H   0  0  0  0  0  0  0  0  0  0  0  0
    2.3620   -0.5220    2.4220 H   0  0  0  0  0  0  0  0  0  0  0  0
    3.2160    0.0530   -0.4980 H   0  0  0  0  0  0  0  0  0  0  0  0
    3.5320    2.1140    0.0900 H   0  0  0  0  0  0  0  0  0  0  0  0
    2.4530    2.1010    1.3570 H   0  0  0  0  0  0  0  0  0  0  0  0
   -6.2380    2.7570   -3.8960 N   0  0  0  0  0  0  0  0  0  0  0  0
   -5.1720    2.2160   -3.0910 C   0  0  0  0  0  0  0  0  0  0  0  0
   -5.4350    1.1780   -2.3950 N   0  0  0  0  0  0  0  0  0  0  0  0
   -3.8880    2.7950   -3.0560 N   0  0  0  0  0  0  0  0  0  0  0  0
   -2.7420    2.2860   -2.3490 C   0  0  0  0  0  0  0  0  0  0  0  0
   -2.2190    1.0090   -2.9390 C   0  0  0  0  0  0  0  0  0  0  0  0
   -1.0150    0.4700   -2.3100 C   0  0  0  0  0  0  0  0  0  0  0  0
   -1.0520    0.1370   -0.8140 C   0  0  2  0  0  0  0  0  0  0  0  0
    0.2900   -0.3250   -0.4520 N   0  0  0  0  0  0  0  0  0  0  0  0
   -2.1190   -0.8110   -0.4790 C   0  0  0  0  0  0  0  0  0  0  0  0
   -3.2530   -0.4840   -1.0700 O   0  0  0  0  0  0  0  0  0  0  0  0
   -6.3750    3.8000   -3.9650 H   0  0  0  0  0  0  0  0  0  0  0  0
   -6.8940    2.1680   -4.4250 H   0  0  0  0  0  0  0  0  0  0  0  0
   -6.3550    0.6960   -2.3650 H   0  0  0  0  0  0  0  0  0  0  0  0
   -3.7700    3.6890   -3.6070 H   0  0  0  0  0  0  0  0  0  0  0  0
   -1.9160    3.0480   -2.3720 H   0  0  0  0  0  0  0  0  0  0  0  0
   -3.0220    2.2270   -1.2800 H   0  0  0  0  0  0  0  0  0  0  0  0
   -3.0230    0.2830   -3.0390 H   0  0  0  0  0  0  0  0  0  0  0  0
   -1.9970    1.3040   -4.0320 H   0  0  0  0  0  0  0  0  0  0  0  0
   -0.0750    1.0290   -2.5460 H   0  0  0  0  0  0  0  0  0  0  0  0
   -0.8150   -0.5430   -2.7920 H   0  0  0  0  0  0  0  0  0  0  0  0
   -1.2890    1.1170   -0.3490 H   0  0  0  0  0  0  0  0  0  0  0  0
    0.5470   -1.3170   -0.5560 H   0  0  0  0  0  0  0  0  0  0  0  0
   -2.1820   -1.9370    0.2900 N   0  0  0  0  0  0  0  0  0  0  0  0
   -3.3870   -2.8610    0.2170 C   0  0  0  0  0  0  0  0  0  0  0  0
   -2.6280   -4.1880    0.0040 C   0  0  0  0  0  0  0  0  0  0  0  0
   -1.1970   -3.9360    0.5530 C   0  0  0  0  0  0  0  0  0  0  0  0
   -1.4560   -2.6460    1.2860 C   0  0  1  0  0  0  0  0  0  0  0  0
   -0.4350   -2.0470    2.0740 C   0  0  0  0  0  0  0  0  0  0  0  0
    0.5090   -2.8040    2.5100 O   0  0  0  0  0  0  0  0  0  0  0  0
   -0.3300   -0.7290    2.4480 O   0  0  0  0  0  0  0  0  0  0  0  0
   -3.8140   -2.9100    1.2280 H   0  0  0  0  0  0  0  0  0  0  0  0
   -4.0340   -2.5960   -0.5980 H   0  0  0  0  0  0  0  0  0  0  0  0
   -3.0420   -4.9920    0.6360 H   0  0  0  0  0  0  0  0  0  0  0  0
   -2.6070   -4.4950   -1.0380 H   0  0  0  0  0  0  0  0  0  0  0  0
   -0.5300   -3.7190   -0.2920 H   0  0  0  0  0  0  0  0  0  0  0  0
   -0.8800   -4.7640    1.1820 H   0  0  0  0  0  0  0  0  0  0  0  0
   -2.2890   -3.0370    2.0760 H   0  0  0  0  0  0  0  0  0  0  0  0
  1 13  1  0  0  0  0
  1 12  1  0  0  0  0
  2  1  1  0  0  0  0
  3  2  2  0  0  0  0
  3 14  1  0  0  0  0
  4 15  1  0  0  0  0
  4  2  1  0  0  0  0
  5 16  1  0  0  0  0
  5  4  1  0  0  0  0
  6 19  1  0  0  0  0
  6  5  1  0  0  0  0
  7  6  1  0  0  0  0
  7 21  1  0  0  0  0
  8 22  1  6  0  0  0
  8  9  1  0  0  0  0
  8  7  1  0  0  0  0
  9 24  1  0  0  0  0
 10 11  2  0  0  0  0
 10  8  1  0  0  0  0
 17  5  1  0  0  0  0
 18  6  1  0  0  0  0
 20  7  1  0  0  0  0
 23  9  1  0  0  0  0
 25 26  1  0  0  0  0
 26 28  1  0  0  0  0
 26 27  2  0  0  0  0
 27 38  1  0  0  0  0
 28 29  1  0  0  0  0
 29 41  1  0  0  0  0
 30 29  1  0  0  0  0
 30 31  1  0  0  0  0
 31 32  1  0  0  0  0
 32 34  1  0  0  0  0
 32 33  1  0  0  0  0
 32 46  1  1  0  0  0
 33 10  1  0  0  0  0
 34 48  1  0  0  0  0
 35 34  2  0  0  0  0
 36 25  1  0  0  0  0
 37 25  1  0  0  0  0
 39 28  1  0  0  0  0
 40 29  1  0  0  0  0
 42 30  1  0  0  0  0
 43 30  1  0  0  0  0
 44 31  1  0  0  0  0
 45 31  1  0  0  0  0
 47 33  1  0  0  0  0
 48 52  1  0  0  0  0
 49 48  1  0  0  0  0
 49 56  1  0  0  0  0
 50 49  1  0  0  0  0
 50 51  1  0  0  0  0
 50 58  1  0  0  0  0
 51 61  1  0  0  0  0
 51 52  1  0  0  0  0
 52 53  1  0  0  0  0
 52 62  1  1  0  0  0
 53 55  2  0  0  0  0
 53 54  1  0  0  0  0
 57 49  1  0  0  0  0
 59 50  1  0  0  0  0
 60 51  1  0  0  0  0
M  END
$$$$
