RRS.pdb
 OpenBabel07022418033D

 59 58  0  0  1  0  0  0  0  0999 V2000
    0.8790   -1.6370    3.4170 N   0  0  0  0  0  0  0  0  0  0  0  0
    1.9380   -1.0270    2.6620 C   0  0  0  0  0  0  0  0  0  0  0  0
    3.0440   -1.6110    2.4360 N   0  0  0  0  0  0  0  0  0  0  0  0
    1.7510    0.2970    2.1390 N   0  0  0  0  0  0  0  0  0  0  0  0
    2.8060    1.2330    2.0240 C   0  0  0  0  0  0  0  0  0  0  0  0
    3.9120    1.0400    1.0950 C   0  0  0  0  0  0  0  0  0  0  0  0
    3.8010    1.0380   -0.3620 C   0  0  0  0  0  0  0  0  0  0  0  0
    2.9530    0.0690   -1.1000 C   0  0  2  0  0  0  0  0  0  0  0  0
    3.1470    0.2950   -2.5630 N   0  0  0  0  0  0  0  0  0  0  0  0
    1.5100    0.3700   -0.8400 C   0  0  0  0  0  0  0  0  0  0  0  0
    1.1180    1.5230   -0.5400 O   0  0  0  0  0  0  0  0  0  0  0  0
    1.1310   -2.4570    3.9910 H   0  0  0  0  0  0  0  0  0  0  0  0
   -0.0900   -1.2480    3.3710 H   0  0  0  0  0  0  0  0  0  0  0  0
    3.2210   -2.5720    2.8000 H   0  0  0  0  0  0  0  0  0  0  0  0
    0.7750    0.5210    1.8830 H   0  0  0  0  0  0  0  0  0  0  0  0
    3.2260    1.3670    3.0860 H   0  0  0  0  0  0  0  0  0  0  0  0
    2.3310    2.2810    1.8850 H   0  0  0  0  0  0  0  0  0  0  0  0
    4.7210    1.8310    1.3620 H   0  0  0  0  0  0  0  0  0  0  0  0
    4.3970    0.0370    1.3980 H   0  0  0  0  0  0  0  0  0  0  0  0
    4.8450    1.0160   -0.8340 H   0  0  0  0  0  0  0  0  0  0  0  0
    3.4950    2.1190   -0.6640 H   0  0  0  0  0  0  0  0  0  0  0  0
    3.2540   -0.9530   -0.8890 H   0  0  0  0  0  0  0  0  0  0  0  0
    3.9970   -0.2410   -2.8540 H   0  0  0  0  0  0  0  0  0  0  0  0
    2.2870    0.0090   -3.0840 H   0  0  0  0  0  0  0  0  0  0  0  0
   -2.9090    1.3930    2.3430 N   0  0  0  0  0  0  0  0  0  0  0  0
   -3.6100    1.3500    1.1170 C   0  0  0  0  0  0  0  0  0  0  0  0
   -4.8120    0.8530    1.0430 N   0  0  0  0  0  0  0  0  0  0  0  0
   -3.0720    1.8330   -0.1050 N   0  0  0  0  0  0  0  0  0  0  0  0
   -3.4300    1.4200   -1.3980 C   0  0  0  0  0  0  0  0  0  0  0  0
   -3.0770    0.0790   -1.9020 C   0  0  0  0  0  0  0  0  0  0  0  0
   -1.6410   -0.2730   -1.9880 C   0  0  0  0  0  0  0  0  0  0  0  0
   -0.9000   -0.3580   -0.6470 C   0  0  2  0  0  0  0  0  0  0  0  0
    0.5120   -0.6440   -0.9250 N   0  0  0  0  0  0  0  0  0  0  0  0
   -1.4300   -1.5280    0.1160 C   0  0  0  0  0  0  0  0  0  0  0  0
   -2.6390   -1.5570    0.5550 O   0  0  0  0  0  0  0  0  0  0  0  0
   -3.3130    0.9580    3.1780 H   0  0  0  0  0  0  0  0  0  0  0  0
   -1.9890    1.8710    2.3720 H   0  0  0  0  0  0  0  0  0  0  0  0
   -5.2990    0.4720    1.8780 H   0  0  0  0  0  0  0  0  0  0  0  0
   -2.3210    2.5920    0.0200 H   0  0  0  0  0  0  0  0  0  0  0  0
   -3.0600    2.1680   -2.1510 H   0  0  0  0  0  0  0  0  0  0  0  0
   -4.5720    1.4850   -1.4470 H   0  0  0  0  0  0  0  0  0  0  0  0
   -3.5980   -0.7560   -1.3760 H   0  0  0  0  0  0  0  0  0  0  0  0
   -3.5140    0.0170   -2.9540 H   0  0  0  0  0  0  0  0  0  0  0  0
   -1.4910   -1.2610   -2.4880 H   0  0  0  0  0  0  0  0  0  0  0  0
   -1.1070    0.4740   -2.6440 H   0  0  0  0  0  0  0  0  0  0  0  0
   -1.0900    0.5660   -0.1430 H   0  0  0  0  0  0  0  0  0  0  0  0
    0.8100   -1.5860   -1.2100 H   0  0  0  0  0  0  0  0  0  0  0  0
   -0.6060   -5.1650   -0.7250 O   0  0  0  0  0  0  0  0  0  0  0  0
   -1.7130   -4.7900    0.0480 C   0  0  0  0  0  0  0  0  0  0  0  0
   -1.2620   -3.8080    1.1690 C   0  0  2  0  0  0  0  0  0  0  0  0
   -0.6970   -2.6850    0.4250 N   0  0  0  0  0  0  0  0  0  0  0  0
   -0.2940   -4.5600    1.9560 C   0  0  0  0  0  0  0  0  0  0  0  0
    0.9370   -4.3900    2.0260 O   0  0  0  0  0  0  0  0  0  0  0  0
   -0.7960   -5.6170    2.7440 O   0  0  0  0  0  0  0  0  0  0  0  0
    0.2210   -4.7410   -0.4480 H   0  0  0  0  0  0  0  0  0  0  0  0
   -2.4290   -4.3040   -0.6290 H   0  0  0  0  0  0  0  0  0  0  0  0
   -2.1920   -5.6800    0.4920 H   0  0  0  0  0  0  0  0  0  0  0  0
   -2.1810   -3.5240    1.6630 H   0  0  0  0  0  0  0  0  0  0  0  0
    0.2820   -2.7870    0.1440 H   0  0  0  0  0  0  0  0  0  0  0  0
  1 12  1  0  0  0  0
  2  1  1  0  0  0  0
  3  2  2  0  0  0  0
  3 14  1  0  0  0  0
  4  2  1  0  0  0  0
  5  4  1  0  0  0  0
  5 16  1  0  0  0  0
  6 18  1  0  0  0  0
  6 19  1  0  0  0  0
  6  5  1  0  0  0  0
  7  6  1  0  0  0  0
  8 22  1  1  0  0  0
  8 10  1  0  0  0  0
  8  7  1  0  0  0  0
  9  8  1  0  0  0  0
 10 11  2  0  0  0  0
 13  1  1  0  0  0  0
 15  4  1  0  0  0  0
 17  5  1  0  0  0  0
 20  7  1  0  0  0  0
 21  7  1  0  0  0  0
 23  9  1  0  0  0  0
 24  9  1  0  0  0  0
 25 37  1  0  0  0  0
 25 36  1  0  0  0  0
 26 25  1  0  0  0  0
 27 26  2  0  0  0  0
 27 38  1  0  0  0  0
 28 39  1  0  0  0  0
 28 26  1  0  0  0  0
 29 28  1  0  0  0  0
 30 29  1  0  0  0  0
 30 42  1  0  0  0  0
 31 30  1  0  0  0  0
 31 32  1  0  0  0  0
 32 46  1  1  0  0  0
 32 34  1  0  0  0  0
 33 10  1  0  0  0  0
 33 32  1  0  0  0  0
 34 51  1  0  0  0  0
 34 35  2  0  0  0  0
 40 29  1  0  0  0  0
 41 29  1  0  0  0  0
 43 30  1  0  0  0  0
 44 31  1  0  0  0  0
 45 31  1  0  0  0  0
 47 33  1  0  0  0  0
 48 55  1  0  0  0  0
 48 49  1  0  0  0  0
 49 57  1  0  0  0  0
 49 50  1  0  0  0  0
 50 58  1  1  0  0  0
 50 52  1  0  0  0  0
 51 50  1  0  0  0  0
 52 53  2  0  0  0  0
 52 54  1  0  0  0  0
 56 49  1  0  0  0  0
 59 51  1  0  0  0  0
M  END
$$$$
