RRV.pdb
 OpenBabel07022418043D

 64 63  0  0  1  0  0  0  0  0999 V2000
    0.9400    3.5350    6.1510 N   0  0  0  0  0  0  0  0  0  0  0  0
    1.9970    2.6060    6.0450 C   0  0  0  0  0  0  0  0  0  0  0  0
    2.6720    2.2290    7.0740 N   0  0  0  0  0  0  0  0  0  0  0  0
    2.3710    2.0340    4.7820 N   0  0  0  0  0  0  0  0  0  0  0  0
    3.2070    0.8760    4.7090 C   0  0  0  0  0  0  0  0  0  0  0  0
    3.4460    0.4560    3.2750 C   0  0  0  0  0  0  0  0  0  0  0  0
    2.1260    0.1360    2.6340 C   0  0  0  0  0  0  0  0  0  0  0  0
    2.2660   -0.3140    1.1990 C   0  0  2  0  0  0  0  0  0  0  0  0
    2.8790    0.6590    0.3590 N   0  0  0  0  0  0  0  0  0  0  0  0
    0.9660   -0.8150    0.7280 C   0  0  0  0  0  0  0  0  0  0  0  0
    0.2850   -1.5520    1.5130 O   0  0  0  0  0  0  0  0  0  0  0  0
    0.6500    3.8810    7.0950 H   0  0  0  0  0  0  0  0  0  0  0  0
    0.4280    3.8880    5.2960 H   0  0  0  0  0  0  0  0  0  0  0  0
    2.4020    2.6470    8.0220 H   0  0  0  0  0  0  0  0  0  0  0  0
    1.9920    2.5190    3.9440 H   0  0  0  0  0  0  0  0  0  0  0  0
    4.1690    0.9800    5.2610 H   0  0  0  0  0  0  0  0  0  0  0  0
    2.6420    0.0490    5.2400 H   0  0  0  0  0  0  0  0  0  0  0  0
    4.0910   -0.4640    3.2920 H   0  0  0  0  0  0  0  0  0  0  0  0
    3.9740    1.2910    2.7590 H   0  0  0  0  0  0  0  0  0  0  0  0
    1.7100   -0.7300    3.2360 H   0  0  0  0  0  0  0  0  0  0  0  0
    1.4570    0.9950    2.7300 H   0  0  0  0  0  0  0  0  0  0  0  0
    2.9700   -1.2070    1.2170 H   0  0  0  0  0  0  0  0  0  0  0  0
    3.0330    0.3480   -0.6130 H   0  0  0  0  0  0  0  0  0  0  0  0
    2.4990    1.6270    0.4570 H   0  0  0  0  0  0  0  0  0  0  0  0
   -2.1190    4.0890    2.2700 N   0  0  0  0  0  0  0  0  0  0  0  0
   -2.0950    2.6910    2.0900 C   0  0  0  0  0  0  0  0  0  0  0  0
   -1.1110    2.0430    2.6100 N   0  0  0  0  0  0  0  0  0  0  0  0
   -3.0930    1.9780    1.3770 N   0  0  0  0  0  0  0  0  0  0  0  0
   -2.8020    0.8320    0.5800 C   0  0  0  0  0  0  0  0  0  0  0  0
   -2.0070    1.1800   -0.6440 C   0  0  0  0  0  0  0  0  0  0  0  0
   -1.6880    0.0330   -1.5470 C   0  0  0  0  0  0  0  0  0  0  0  0
   -0.8870   -1.0620   -0.9640 C   0  0  2  0  0  0  0  0  0  0  0  0
    0.3960   -0.5610   -0.5160 N   0  0  0  0  0  0  0  0  0  0  0  0
   -0.7090   -2.2240   -1.8990 C   0  0  0  0  0  0  0  0  0  0  0  0
    0.4440   -2.4920   -2.2270 O   0  0  0  0  0  0  0  0  0  0  0  0
   -2.1890    4.7100    1.4530 H   0  0  0  0  0  0  0  0  0  0  0  0
   -2.0680    4.4790    3.2230 H   0  0  0  0  0  0  0  0  0  0  0  0
   -0.3420    2.4630    3.1460 H   0  0  0  0  0  0  0  0  0  0  0  0
   -4.0770    2.3480    1.4710 H   0  0  0  0  0  0  0  0  0  0  0  0
   -2.3020    0.0610    1.2130 H   0  0  0  0  0  0  0  0  0  0  0  0
   -3.7490    0.3710    0.2270 H   0  0  0  0  0  0  0  0  0  0  0  0
   -1.0640    1.7170   -0.4070 H   0  0  0  0  0  0  0  0  0  0  0  0
   -2.6030    1.9040   -1.2580 H   0  0  0  0  0  0  0  0  0  0  0  0
   -1.1190    0.4850   -2.4170 H   0  0  0  0  0  0  0  0  0  0  0  0
   -2.6370   -0.2790   -2.0300 H   0  0  0  0  0  0  0  0  0  0  0  0
   -1.3810   -1.4820   -0.0760 H   0  0  0  0  0  0  0  0  0  0  0  0
    0.9400    0.0550   -1.1950 H   0  0  0  0  0  0  0  0  0  0  0  0
    0.3000   -4.0930   -4.4100 C   0  0  0  0  0  0  0  0  0  0  0  0
   -0.7480   -4.8550   -3.6300 C   0  0  0  0  0  0  0  0  0  0  0  0
   -1.1700   -6.0560   -4.4490 C   0  0  0  0  0  0  0  0  0  0  0  0
   -1.9440   -4.0450   -3.2570 C   0  0  2  0  0  0  0  0  0  0  0  0
   -1.7840   -2.9460   -2.3620 N   0  0  0  0  0  0  0  0  0  0  0  0
   -3.1350   -4.8260   -3.0070 C   0  0  0  0  0  0  0  0  0  0  0  0
   -3.5050   -5.8090   -3.6650 O   0  0  0  0  0  0  0  0  0  0  0  0
   -3.9830   -4.4810   -1.9350 O   0  0  0  0  0  0  0  0  0  0  0  0
    0.0130   -3.0720   -4.6840 H   0  0  0  0  0  0  0  0  0  0  0  0
    0.3750   -4.6120   -5.4360 H   0  0  0  0  0  0  0  0  0  0  0  0
    1.2960   -4.1890   -4.0030 H   0  0  0  0  0  0  0  0  0  0  0  0
   -0.2750   -5.2750   -2.7010 H   0  0  0  0  0  0  0  0  0  0  0  0
   -0.2710   -6.4170   -5.0530 H   0  0  0  0  0  0  0  0  0  0  0  0
   -1.9080   -5.7980   -5.2340 H   0  0  0  0  0  0  0  0  0  0  0  0
   -1.5460   -6.8920   -3.8580 H   0  0  0  0  0  0  0  0  0  0  0  0
   -2.1190   -3.4770   -4.2900 H   0  0  0  0  0  0  0  0  0  0  0  0
   -2.7350   -2.6160   -1.9520 H   0  0  0  0  0  0  0  0  0  0  0  0
  1 12  1  0  0  0  0
  2  1  1  0  0  0  0
  2  3  2  0  0  0  0
  3 14  1  0  0  0  0
  4  2  1  0  0  0  0
  5  4  1  0  0  0  0
  5 17  1  0  0  0  0
  5 16  1  0  0  0  0
  6 18  1  0  0  0  0
  6  5  1  0  0  0  0
  7 21  1  0  0  0  0
  7 20  1  0  0  0  0
  7  6  1  0  0  0  0
  8 22  1  1  0  0  0
  8  7  1  0  0  0  0
  9 24  1  0  0  0  0
  9  8  1  0  0  0  0
 10  8  1  0  0  0  0
 10 11  2  0  0  0  0
 13  1  1  0  0  0  0
 15  4  1  0  0  0  0
 19  6  1  0  0  0  0
 23  9  1  0  0  0  0
 25 37  1  0  0  0  0
 26 25  1  0  0  0  0
 26 27  2  0  0  0  0
 27 38  1  0  0  0  0
 28 39  1  0  0  0  0
 28 26  1  0  0  0  0
 29 40  1  0  0  0  0
 29 28  1  0  0  0  0
 30 42  1  0  0  0  0
 30 29  1  0  0  0  0
 31 32  1  0  0  0  0
 31 30  1  0  0  0  0
 32 33  1  0  0  0  0
 32 46  1  1  0  0  0
 33 10  1  0  0  0  0
 34 32  1  0  0  0  0
 35 34  2  0  0  0  0
 36 25  1  0  0  0  0
 41 29  1  0  0  0  0
 43 30  1  0  0  0  0
 44 31  1  0  0  0  0
 45 31  1  0  0  0  0
 47 33  1  0  0  0  0
 48 58  1  0  0  0  0
 48 49  1  0  0  0  0
 49 51  1  0  0  0  0
 49 59  1  0  0  0  0
 50 62  1  0  0  0  0
 50 49  1  0  0  0  0
 51 63  1  6  0  0  0
 51 53  1  0  0  0  0
 51 52  1  0  0  0  0
 52 64  1  0  0  0  0
 52 34  1  0  0  0  0
 53 55  1  0  0  0  0
 54 53  2  0  0  0  0
 56 48  1  0  0  0  0
 57 48  1  0  0  0  0
 60 50  1  0  0  0  0
 61 50  1  0  0  0  0
M  END
$$$$
