RSC.pdb
 OpenBabel07022418063D

 47 46  0  0  1  0  0  0  0  0999 V2000
   -5.0470   -3.9740    1.2250 N   0  0  0  0  0  0  0  0  0  0  0  0
   -3.9740   -3.1620    0.7640 C   0  0  0  0  0  0  0  0  0  0  0  0
   -2.7810   -3.4870    1.1500 N   0  0  0  0  0  0  0  0  0  0  0  0
   -4.1480   -2.0410   -0.0790 N   0  0  0  0  0  0  0  0  0  0  0  0
   -3.0030   -1.3860   -0.6830 C   0  0  0  0  0  0  0  0  0  0  0  0
   -2.3390   -2.2630   -1.7070 C   0  0  0  0  0  0  0  0  0  0  0  0
   -1.1600   -1.6610   -2.3940 C   0  0  0  0  0  0  0  0  0  0  0  0
   -0.0110   -1.2750   -1.5420 C   0  0  2  0  0  0  0  0  0  0  0  0
    0.5590   -2.3770   -0.7980 N   0  0  0  0  0  0  0  0  0  0  0  0
   -0.2730   -0.1300   -0.6730 C   0  0  0  0  0  0  0  0  0  0  0  0
   -0.8870    0.9130   -1.0580 O   0  0  0  0  0  0  0  0  0  0  0  0
   -5.7030   -3.5790    1.9400 H   0  0  0  0  0  0  0  0  0  0  0  0
   -5.1450   -4.9490    0.8290 H   0  0  0  0  0  0  0  0  0  0  0  0
   -2.5830   -4.3000    1.7710 H   0  0  0  0  0  0  0  0  0  0  0  0
   -5.1060   -1.6950   -0.2590 H   0  0  0  0  0  0  0  0  0  0  0  0
   -3.3140   -0.4550   -1.1970 H   0  0  0  0  0  0  0  0  0  0  0  0
   -2.3380   -1.1290    0.1610 H   0  0  0  0  0  0  0  0  0  0  0  0
   -3.1100   -2.4900   -2.4950 H   0  0  0  0  0  0  0  0  0  0  0  0
   -2.0340   -3.2540   -1.2530 H   0  0  0  0  0  0  0  0  0  0  0  0
   -1.5300   -0.7110   -2.8840 H   0  0  0  0  0  0  0  0  0  0  0  0
   -0.7920   -2.3410   -3.2240 H   0  0  0  0  0  0  0  0  0  0  0  0
    0.8150   -0.9360   -2.2630 H   0  0  0  0  0  0  0  0  0  0  0  0
    0.5770   -3.2530   -1.3720 H   0  0  0  0  0  0  0  0  0  0  0  0
    1.5480   -2.1470   -0.5720 H   0  0  0  0  0  0  0  0  0  0  0  0
   -1.1980    1.7700    3.5600 O   0  0  0  0  0  0  0  0  0  0  0  0
   -0.9490    0.6670    2.7460 C   0  0  0  0  0  0  0  0  0  0  0  0
   -0.1140    1.0410    1.5420 C   0  0  2  0  0  0  0  0  0  0  0  0
    0.1490   -0.0970    0.6940 N   0  0  0  0  0  0  0  0  0  0  0  0
    1.1720    1.6260    2.0570 C   0  0  0  0  0  0  0  0  0  0  0  0
    1.1900    2.6230    2.8070 O   0  0  0  0  0  0  0  0  0  0  0  0
   -1.4750    2.5540    3.0280 H   0  0  0  0  0  0  0  0  0  0  0  0
   -0.4240   -0.0840    3.3800 H   0  0  0  0  0  0  0  0  0  0  0  0
   -1.9150    0.2280    2.4680 H   0  0  0  0  0  0  0  0  0  0  0  0
   -0.6630    1.8100    0.9640 H   0  0  0  0  0  0  0  0  0  0  0  0
    0.6580   -0.9190    1.0770 H   0  0  0  0  0  0  0  0  0  0  0  0
    2.4210    1.0500    1.6970 N   0  0  0  0  0  0  0  0  0  0  0  0
    3.6990    1.5940    2.1810 C   0  0  1  0  0  0  0  0  0  0  0  0
    4.4300    0.5040    2.9310 C   0  0  0  0  0  0  0  0  0  0  0  0
    6.0000    1.1500    3.5320 S   0  0  0  0  0  0  0  0  0  0  0  0
    4.5070    2.0420    1.0270 C   0  0  0  0  0  0  0  0  0  0  0  0
    5.6360    2.5370    1.2310 O   0  0  0  0  0  0  0  0  0  0  0  0
    4.0540    1.9320   -0.2720 O   0  0  0  0  0  0  0  0  0  0  0  0
    2.3970    0.2190    1.0710 H   0  0  0  0  0  0  0  0  0  0  0  0
    3.5100    2.4830    2.8210 H   0  0  0  0  0  0  0  0  0  0  0  0
    3.7730    0.1610    3.7600 H   0  0  0  0  0  0  0  0  0  0  0  0
    4.6370   -0.3090    2.2060 H   0  0  0  0  0  0  0  0  0  0  0  0
    6.3590    0.4350    4.6790 H   0  0  0  0  0  0  0  0  0  0  0  0
  1 12  1  0  0  0  0
  2  3  2  0  0  0  0
  2  1  1  0  0  0  0
  3 14  1  0  0  0  0
  4  2  1  0  0  0  0
  5  4  1  0  0  0  0
  5 17  1  0  0  0  0
  6 19  1  0  0  0  0
  6  5  1  0  0  0  0
  7  6  1  0  0  0  0
  7  8  1  0  0  0  0
  8 22  1  6  0  0  0
  8  9  1  0  0  0  0
  8 10  1  0  0  0  0
  9 24  1  0  0  0  0
 10 28  1  0  0  0  0
 11 10  2  0  0  0  0
 13  1  1  0  0  0  0
 15  4  1  0  0  0  0
 16  5  1  0  0  0  0
 18  6  1  0  0  0  0
 20  7  1  0  0  0  0
 21  7  1  0  0  0  0
 23  9  1  0  0  0  0
 26 32  1  0  0  0  0
 26 25  1  0  0  0  0
 27 34  1  6  0  0  0
 27 29  1  0  0  0  0
 27 26  1  0  0  0  0
 28 35  1  0  0  0  0
 28 27  1  0  0  0  0
 29 30  2  0  0  0  0
 31 25  1  0  0  0  0
 33 26  1  0  0  0  0
 36 29  1  0  0  0  0
 36 37  1  0  0  0  0
 37 44  1  1  0  0  0
 37 38  1  0  0  0  0
 38 39  1  0  0  0  0
 38 45  1  0  0  0  0
 39 47  1  0  0  0  0
 40 41  1  0  0  0  0
 40 37  1  0  0  0  0
 42 40  2  0  0  0  0
 43 36  1  0  0  0  0
 46 38  1  0  0  0  0
M  END
$$$$
