RSE.pdb
 OpenBabel07022418063D

 52 51  0  0  1  0  0  0  0  0999 V2000
    4.6550   -4.0280    4.2510 N   0  0  0  0  0  0  0  0  0  0  0  0
    4.3230   -3.0590    3.2750 C   0  0  0  0  0  0  0  0  0  0  0  0
    3.6430   -2.0330    3.6270 N   0  0  0  0  0  0  0  0  0  0  0  0
    4.7220   -3.1920    1.9190 N   0  0  0  0  0  0  0  0  0  0  0  0
    3.9820   -2.6500    0.8150 C   0  0  0  0  0  0  0  0  0  0  0  0
    3.9770   -1.1490    0.7440 C   0  0  0  0  0  0  0  0  0  0  0  0
    3.2120   -0.6730   -0.4360 C   0  0  0  0  0  0  0  0  0  0  0  0
    1.7690   -1.0900   -0.4590 C   0  0  2  0  0  0  0  0  0  0  0  0
    1.1570   -0.5540   -1.6830 N   0  0  0  0  0  0  0  0  0  0  0  0
    1.0650   -0.5330    0.7290 C   0  0  0  0  0  0  0  0  0  0  0  0
    1.3090   -0.8370    1.9170 O   0  0  0  0  0  0  0  0  0  0  0  0
    5.5170   -3.9510    4.8170 H   0  0  0  0  0  0  0  0  0  0  0  0
    4.0160   -4.8300    4.3980 H   0  0  0  0  0  0  0  0  0  0  0  0
    3.3070   -1.8460    4.5820 H   0  0  0  0  0  0  0  0  0  0  0  0
    5.6240   -3.7310    1.7560 H   0  0  0  0  0  0  0  0  0  0  0  0
    4.4450   -3.0050   -0.1330 H   0  0  0  0  0  0  0  0  0  0  0  0
    2.9340   -3.0190    0.7910 H   0  0  0  0  0  0  0  0  0  0  0  0
    3.5830   -0.7070    1.6680 H   0  0  0  0  0  0  0  0  0  0  0  0
    5.0300   -0.7610    0.6710 H   0  0  0  0  0  0  0  0  0  0  0  0
    3.6740   -0.9800   -1.4010 H   0  0  0  0  0  0  0  0  0  0  0  0
    3.1860    0.4590   -0.3770 H   0  0  0  0  0  0  0  0  0  0  0  0
    1.7050   -2.1760   -0.5600 H   0  0  0  0  0  0  0  0  0  0  0  0
    0.2210   -1.0430   -1.7440 H   0  0  0  0  0  0  0  0  0  0  0  0
    1.7250   -0.9970   -2.4680 H   0  0  0  0  0  0  0  0  0  0  0  0
   -1.2800    2.9100    2.9020 O   0  0  0  0  0  0  0  0  0  0  0  0
   -0.5400    2.5140    1.7660 C   0  0  0  0  0  0  0  0  0  0  0  0
   -0.6960    1.0030    1.6860 C   0  0  2  0  0  0  0  0  0  0  0  0
    0.0080    0.4380    0.5670 N   0  0  0  0  0  0  0  0  0  0  0  0
   -2.1140    0.5840    1.6020 C   0  0  0  0  0  0  0  0  0  0  0  0
   -2.9240    0.9870    2.4720 O   0  0  0  0  0  0  0  0  0  0  0  0
   -0.6950    2.8350    3.7010 H   0  0  0  0  0  0  0  0  0  0  0  0
   -0.9170    3.0120    0.8560 H   0  0  0  0  0  0  0  0  0  0  0  0
    0.5140    2.7280    1.9900 H   0  0  0  0  0  0  0  0  0  0  0  0
   -0.3250    0.6210    2.6610 H   0  0  0  0  0  0  0  0  0  0  0  0
   -0.2330    0.7210   -0.4080 H   0  0  0  0  0  0  0  0  0  0  0  0
   -2.5690   -0.2520    0.5720 N   0  0  0  0  0  0  0  0  0  0  0  0
   -3.9330   -0.7000    0.4230 C   0  0  1  0  0  0  0  0  0  0  0  0
   -4.3850   -0.3470   -0.9800 C   0  0  0  0  0  0  0  0  0  0  0  0
   -4.3400    1.1110   -1.2860 C   0  0  0  0  0  0  0  0  0  0  0  0
   -4.8160    1.2700   -2.7020 C   0  0  0  0  0  0  0  0  0  0  0  0
   -4.8750    2.4210   -3.2130 O   0  0  0  0  0  0  0  0  0  0  0  0
   -3.9460   -2.1840    0.4880 C   0  0  0  0  0  0  0  0  0  0  0  0
   -5.0160   -2.8450    0.3860 O   0  0  0  0  0  0  0  0  0  0  0  0
   -5.1990    0.1930   -3.4830 O   0  0  0  0  0  0  0  0  0  0  0  0
   -2.7440   -2.8460    0.6660 O   0  0  0  0  0  0  0  0  0  0  0  0
   -1.8800   -0.5770   -0.1390 H   0  0  0  0  0  0  0  0  0  0  0  0
   -4.6030   -0.2550    1.1940 H   0  0  0  0  0  0  0  0  0  0  0  0
   -5.3870   -0.7810   -1.2060 H   0  0  0  0  0  0  0  0  0  0  0  0
   -3.6700   -0.8570   -1.6720 H   0  0  0  0  0  0  0  0  0  0  0  0
   -3.2850    1.4790   -1.3030 H   0  0  0  0  0  0  0  0  0  0  0  0
   -4.9790    1.7260   -0.6350 H   0  0  0  0  0  0  0  0  0  0  0  0
   -5.6480    0.3040   -4.3850 H   0  0  0  0  0  0  0  0  0  0  0  0
  1 13  1  0  0  0  0
  1 12  1  0  0  0  0
  2  3  2  0  0  0  0
  2  1  1  0  0  0  0
  3 14  1  0  0  0  0
  4  2  1  0  0  0  0
  5  4  1  0  0  0  0
  6  5  1  0  0  0  0
  6 18  1  0  0  0  0
  7 21  1  0  0  0  0
  7  6  1  0  0  0  0
  8 22  1  1  0  0  0
  8  7  1  0  0  0  0
  8 10  1  0  0  0  0
  9  8  1  0  0  0  0
 10 11  2  0  0  0  0
 15  4  1  0  0  0  0
 16  5  1  0  0  0  0
 17  5  1  0  0  0  0
 19  6  1  0  0  0  0
 20  7  1  0  0  0  0
 23  9  1  0  0  0  0
 24  9  1  0  0  0  0
 25 31  1  0  0  0  0
 26 33  1  0  0  0  0
 26 25  1  0  0  0  0
 27 26  1  0  0  0  0
 27 34  1  1  0  0  0
 28 10  1  0  0  0  0
 28 27  1  0  0  0  0
 29 27  1  0  0  0  0
 29 30  2  0  0  0  0
 32 26  1  0  0  0  0
 35 28  1  0  0  0  0
 36 29  1  0  0  0  0
 37 42  1  0  0  0  0
 37 36  1  0  0  0  0
 37 47  1  1  0  0  0
 38 37  1  0  0  0  0
 39 38  1  0  0  0  0
 39 51  1  0  0  0  0
 40 39  1  0  0  0  0
 41 40  2  0  0  0  0
 42 45  1  0  0  0  0
 43 42  2  0  0  0  0
 44 40  1  0  0  0  0
 46 36  1  0  0  0  0
 48 38  1  0  0  0  0
 49 38  1  0  0  0  0
 50 39  1  0  0  0  0
 52 44  1  0  0  0  0
M  END
$$$$
