RSF.pdb
 OpenBabel07022418073D

 56 56  0  0  1  0  0  0  0  0999 V2000
    4.8090   -4.1710    2.1030 N   0  0  0  0  0  0  0  0  0  0  0  0
    4.4710   -3.0760    2.9520 C   0  0  0  0  0  0  0  0  0  0  0  0
    5.4210   -2.4420    3.5190 N   0  0  0  0  0  0  0  0  0  0  0  0
    3.1160   -2.7450    3.1300 N   0  0  0  0  0  0  0  0  0  0  0  0
    2.6740   -1.7220    3.9980 C   0  0  0  0  0  0  0  0  0  0  0  0
    2.9790   -0.3140    3.6660 C   0  0  0  0  0  0  0  0  0  0  0  0
    2.4360    0.2060    2.3780 C   0  0  0  0  0  0  0  0  0  0  0  0
    3.0070   -0.4980    1.1880 C   0  0  2  0  0  0  0  0  0  0  0  0
    4.4710   -0.2940    1.1720 N   0  0  0  0  0  0  0  0  0  0  0  0
    2.4840    0.2090   -0.0330 C   0  0  0  0  0  0  0  0  0  0  0  0
    3.0390    1.2940   -0.3280 O   0  0  0  0  0  0  0  0  0  0  0  0
    5.6720   -4.2040    1.5190 H   0  0  0  0  0  0  0  0  0  0  0  0
    4.1590   -4.9980    2.0550 H   0  0  0  0  0  0  0  0  0  0  0  0
    6.4280   -2.6310    3.4350 H   0  0  0  0  0  0  0  0  0  0  0  0
    2.3970   -3.3100    2.5910 H   0  0  0  0  0  0  0  0  0  0  0  0
    3.0380   -1.9500    5.0540 H   0  0  0  0  0  0  0  0  0  0  0  0
    1.5500   -1.7820    4.1260 H   0  0  0  0  0  0  0  0  0  0  0  0
    4.0810   -0.0860    3.7560 H   0  0  0  0  0  0  0  0  0  0  0  0
    2.5370    0.3330    4.4820 H   0  0  0  0  0  0  0  0  0  0  0  0
    2.6840    1.3070    2.2610 H   0  0  0  0  0  0  0  0  0  0  0  0
    1.3210    0.1240    2.3860 H   0  0  0  0  0  0  0  0  0  0  0  0
    2.8400   -1.5670    1.1170 H   0  0  0  0  0  0  0  0  0  0  0  0
    4.7510    0.6770    1.3290 H   0  0  0  0  0  0  0  0  0  0  0  0
    4.8550   -0.5970    0.2330 H   0  0  0  0  0  0  0  0  0  0  0  0
    2.8770   -0.1270   -3.1930 O   0  0  0  0  0  0  0  0  0  0  0  0
    1.4630   -0.1900   -3.2730 C   0  0  0  0  0  0  0  0  0  0  0  0
    0.9670    0.4430   -1.9760 C   0  0  2  0  0  0  0  0  0  0  0  0
    1.4450   -0.2810   -0.8280 N   0  0  0  0  0  0  0  0  0  0  0  0
   -0.5060    0.5250   -1.9120 C   0  0  0  0  0  0  0  0  0  0  0  0
   -1.1640    1.1460   -2.8180 O   0  0  0  0  0  0  0  0  0  0  0  0
    3.1990    0.7480   -3.5090 H   0  0  0  0  0  0  0  0  0  0  0  0
    1.1170   -1.2090   -3.4270 H   0  0  0  0  0  0  0  0  0  0  0  0
    1.1740    0.4830   -4.1060 H   0  0  0  0  0  0  0  0  0  0  0  0
    1.3610    1.4930   -1.9970 H   0  0  0  0  0  0  0  0  0  0  0  0
    1.0090   -1.1930   -0.5970 H   0  0  0  0  0  0  0  0  0  0  0  0
   -1.3040   -0.0500   -0.8910 N   0  0  0  0  0  0  0  0  0  0  0  0
   -2.7560    0.0340   -0.8360 C   0  0  1  0  0  0  0  0  0  0  0  0
   -3.4070   -1.2940   -0.9550 C   0  0  0  0  0  0  0  0  0  0  0  0
   -4.8780   -1.1530   -0.8840 C   0  0  0  0  0  0  0  0  0  0  0  0
   -5.6320   -0.8320   -2.0200 C   0  0  0  0  0  0  0  0  0  0  0  0
   -7.0050   -0.7290   -1.9530 C   0  0  0  0  0  0  0  0  0  0  0  0
   -7.6960   -0.9300   -0.8000 C   0  0  0  0  0  0  0  0  0  0  0  0
   -6.9790   -1.2520    0.3550 C   0  0  0  0  0  0  0  0  0  0  0  0
   -5.5880   -1.3550    0.2840 C   0  0  0  0  0  0  0  0  0  0  0  0
   -3.2270    0.7560    0.3380 C   0  0  0  0  0  0  0  0  0  0  0  0
   -2.3390    1.1710    1.1730 O   0  0  0  0  0  0  0  0  0  0  0  0
   -4.5220    1.0590    0.6720 O   0  0  0  0  0  0  0  0  0  0  0  0
   -0.8050   -0.5680   -0.1330 H   0  0  0  0  0  0  0  0  0  0  0  0
   -3.0650    0.6390   -1.7300 H   0  0  0  0  0  0  0  0  0  0  0  0
   -3.0940   -1.9250   -0.0750 H   0  0  0  0  0  0  0  0  0  0  0  0
   -3.0800   -1.8850   -1.8390 H   0  0  0  0  0  0  0  0  0  0  0  0
   -5.0860   -0.6630   -2.9620 H   0  0  0  0  0  0  0  0  0  0  0  0
   -7.5370   -0.4790   -2.8560 H   0  0  0  0  0  0  0  0  0  0  0  0
   -8.7830   -0.8530   -0.7050 H   0  0  0  0  0  0  0  0  0  0  0  0
   -7.5090   -1.4090    1.2610 H   0  0  0  0  0  0  0  0  0  0  0  0
   -4.9940   -1.6050    1.1740 H   0  0  0  0  0  0  0  0  0  0  0  0
  1  2  1  0  0  0  0
  2  4  1  0  0  0  0
  2  3  2  0  0  0  0
  4  5  1  0  0  0  0
  5 17  1  0  0  0  0
  5 16  1  0  0  0  0
  6 18  1  0  0  0  0
  6  5  1  0  0  0  0
  6 19  1  0  0  0  0
  7 21  1  0  0  0  0
  7  6  1  0  0  0  0
  8 22  1  6  0  0  0
  8  7  1  0  0  0  0
  9  8  1  0  0  0  0
  9 23  1  0  0  0  0
 10  8  1  0  0  0  0
 11 10  2  0  0  0  0
 12  1  1  0  0  0  0
 13  1  1  0  0  0  0
 14  3  1  0  0  0  0
 15  4  1  0  0  0  0
 20  7  1  0  0  0  0
 24  9  1  0  0  0  0
 26 25  1  0  0  0  0
 26 27  1  0  0  0  0
 27 34  1  1  0  0  0
 27 29  1  0  0  0  0
 27 28  1  0  0  0  0
 28 35  1  0  0  0  0
 28 10  1  0  0  0  0
 29 36  1  0  0  0  0
 30 29  2  0  0  0  0
 31 25  1  0  0  0  0
 32 26  1  0  0  0  0
 33 26  1  0  0  0  0
 36 37  1  0  0  0  0
 36 48  1  0  0  0  0
 37 49  1  6  0  0  0
 37 45  1  0  0  0  0
 38 39  1  0  0  0  0
 38 37  1  0  0  0  0
 38 50  1  0  0  0  0
 39 44  1  0  0  0  0
 40 41  1  0  0  0  0
 40 39  2  0  0  0  0
 41 42  2  0  0  0  0
 42 54  1  0  0  0  0
 42 43  1  0  0  0  0
 43 55  1  0  0  0  0
 44 43  2  0  0  0  0
 44 56  1  0  0  0  0
 45 47  2  0  0  0  0
 45 46  1  0  0  0  0
 51 38  1  0  0  0  0
 52 40  1  0  0  0  0
 53 41  1  0  0  0  0
M  END
$$$$
