RSG.pdb
 OpenBabel07022418063D

 43 42  0  0  1  0  0  0  0  0999 V2000
    0.5330   -4.8370   -0.4350 N   0  0  0  0  0  0  0  0  0  0  0  0
    1.3760   -3.7130   -0.3180 C   0  0  0  0  0  0  0  0  0  0  0  0
    1.4870   -3.1320    0.8160 N   0  0  0  0  0  0  0  0  0  0  0  0
    2.0870   -3.2420   -1.4460 N   0  0  0  0  0  0  0  0  0  0  0  0
    2.9210   -2.0710   -1.3180 C   0  0  0  0  0  0  0  0  0  0  0  0
    2.0740   -0.8080   -1.0890 C   0  0  0  0  0  0  0  0  0  0  0  0
    2.9990    0.3460   -0.9630 C   0  0  0  0  0  0  0  0  0  0  0  0
    2.3440    1.6890   -0.7520 C   0  0  2  0  0  0  0  0  0  0  0  0
    3.4300    2.6890   -0.6410 N   0  0  0  0  0  0  0  0  0  0  0  0
    1.5100    1.8010    0.4340 C   0  0  0  0  0  0  0  0  0  0  0  0
    1.9190    2.4370    1.4370 O   0  0  0  0  0  0  0  0  0  0  0  0
    0.1950   -5.1680   -1.3760 H   0  0  0  0  0  0  0  0  0  0  0  0
    0.2250   -5.3660    0.4020 H   0  0  0  0  0  0  0  0  0  0  0  0
    0.9840   -3.4430    1.6740 H   0  0  0  0  0  0  0  0  0  0  0  0
    1.9760   -3.7730   -2.3470 H   0  0  0  0  0  0  0  0  0  0  0  0
    3.4730   -1.9560   -2.2730 H   0  0  0  0  0  0  0  0  0  0  0  0
    3.6790   -2.1800   -0.5190 H   0  0  0  0  0  0  0  0  0  0  0  0
    1.4530   -0.9820   -0.1790 H   0  0  0  0  0  0  0  0  0  0  0  0
    1.3760   -0.7450   -1.9450 H   0  0  0  0  0  0  0  0  0  0  0  0
    3.7110    0.1930   -0.1200 H   0  0  0  0  0  0  0  0  0  0  0  0
    3.6390    0.3770   -1.8740 H   0  0  0  0  0  0  0  0  0  0  0  0
    1.7980    1.9490   -1.6690 H   0  0  0  0  0  0  0  0  0  0  0  0
    3.1020    3.6250   -0.9750 H   0  0  0  0  0  0  0  0  0  0  0  0
    4.2090    2.3520   -1.2870 H   0  0  0  0  0  0  0  0  0  0  0  0
   -1.4730    3.4960    1.0840 O   0  0  0  0  0  0  0  0  0  0  0  0
   -1.7840    2.2250    1.5220 C   0  0  0  0  0  0  0  0  0  0  0  0
   -0.5500    1.3710    1.7480 C   0  0  2  0  0  0  0  0  0  0  0  0
    0.2170    1.2170    0.5310 N   0  0  0  0  0  0  0  0  0  0  0  0
   -1.0450    0.0700    2.2740 C   0  0  0  0  0  0  0  0  0  0  0  0
   -0.8200   -1.0170    1.6880 O   0  0  0  0  0  0  0  0  0  0  0  0
   -1.2340    4.1080    1.8410 H   0  0  0  0  0  0  0  0  0  0  0  0
   -2.4680    1.7660    0.7750 H   0  0  0  0  0  0  0  0  0  0  0  0
   -2.3760    2.3150    2.4570 H   0  0  0  0  0  0  0  0  0  0  0  0
    0.0470    1.9090    2.5050 H   0  0  0  0  0  0  0  0  0  0  0  0
   -0.2140    0.6710   -0.2750 H   0  0  0  0  0  0  0  0  0  0  0  0
   -1.7970    0.0390    3.4770 N   0  0  0  0  0  0  0  0  0  0  0  0
   -2.2660   -1.2310    3.9650 C   0  0  0  0  0  0  0  0  0  0  0  0
   -3.1720   -1.8700    2.9580 C   0  0  0  0  0  0  0  0  0  0  0  0
   -3.4340   -1.3060    1.8670 O   0  0  0  0  0  0  0  0  0  0  0  0
   -3.7450   -3.1030    3.2050 O   0  0  0  0  0  0  0  0  0  0  0  0
   -2.0160    0.9330    4.0150 H   0  0  0  0  0  0  0  0  0  0  0  0
   -1.4110   -1.9060    4.1610 H   0  0  0  0  0  0  0  0  0  0  0  0
   -2.8440   -1.1050    4.9080 H   0  0  0  0  0  0  0  0  0  0  0  0
  1  2  1  0  0  0  0
  1 13  1  0  0  0  0
  2  3  2  0  0  0  0
  3 14  1  0  0  0  0
  4  5  1  0  0  0  0
  4  2  1  0  0  0  0
  5  6  1  0  0  0  0
  5 17  1  0  0  0  0
  6  7  1  0  0  0  0
  6 18  1  0  0  0  0
  7  8  1  0  0  0  0
  7 20  1  0  0  0  0
  8 22  1  6  0  0  0
  8  9  1  0  0  0  0
  8 10  1  0  0  0  0
 10 28  1  0  0  0  0
 10 11  2  0  0  0  0
 12  1  1  0  0  0  0
 15  4  1  0  0  0  0
 16  5  1  0  0  0  0
 19  6  1  0  0  0  0
 21  7  1  0  0  0  0
 23  9  1  0  0  0  0
 24  9  1  0  0  0  0
 25 26  1  0  0  0  0
 25 31  1  0  0  0  0
 26 27  1  0  0  0  0
 26 33  1  0  0  0  0
 27 29  1  0  0  0  0
 27 34  1  1  0  0  0
 28 27  1  0  0  0  0
 29 36  1  0  0  0  0
 30 29  2  0  0  0  0
 32 26  1  0  0  0  0
 35 28  1  0  0  0  0
 36 37  1  0  0  0  0
 36 41  1  0  0  0  0
 37 42  1  0  0  0  0
 37 43  1  0  0  0  0
 38 40  1  0  0  0  0
 38 37  1  0  0  0  0
 39 38  2  0  0  0  0
M  END
$$$$
