RSH.pdb
 OpenBabel07022418063D

 53 53  0  0  1  0  0  0  0  0999 V2000
    2.0740    1.5900    4.6420 N   0  0  0  0  0  0  0  0  0  0  0  0
    1.7020    1.1950    3.3120 C   0  0  0  0  0  0  0  0  0  0  0  0
    2.2330    0.1620    2.7450 N   0  0  0  0  0  0  0  0  0  0  0  0
    0.7380    1.9240    2.5640 N   0  0  0  0  0  0  0  0  0  0  0  0
    0.7520    1.9090    1.1030 C   0  0  0  0  0  0  0  0  0  0  0  0
    1.9340    2.5980    0.5420 C   0  0  0  0  0  0  0  0  0  0  0  0
    2.0110    2.6350   -0.9140 C   0  0  0  0  0  0  0  0  0  0  0  0
    2.1630    1.4320   -1.7460 C   0  0  2  0  0  0  0  0  0  0  0  0
    2.1950    1.9370   -3.1840 N   0  0  0  0  0  0  0  0  0  0  0  0
    1.1880    0.3830   -1.7610 C   0  0  0  0  0  0  0  0  0  0  0  0
    0.1360    0.4800   -2.4770 O   0  0  0  0  0  0  0  0  0  0  0  0
    3.0620    1.4880    4.9520 H   0  0  0  0  0  0  0  0  0  0  0  0
    1.3980    1.9820    5.3310 H   0  0  0  0  0  0  0  0  0  0  0  0
    2.9530   -0.4150    3.2500 H   0  0  0  0  0  0  0  0  0  0  0  0
    0.0210    2.4700    3.0860 H   0  0  0  0  0  0  0  0  0  0  0  0
    0.5320    0.9110    0.7570 H   0  0  0  0  0  0  0  0  0  0  0  0
   -0.1500    2.5280    0.7820 H   0  0  0  0  0  0  0  0  0  0  0  0
    1.9590    3.6420    0.9690 H   0  0  0  0  0  0  0  0  0  0  0  0
    2.8720    2.1250    0.9480 H   0  0  0  0  0  0  0  0  0  0  0  0
    2.8290    3.3940   -1.2110 H   0  0  0  0  0  0  0  0  0  0  0  0
    1.0930    3.1970   -1.3380 H   0  0  0  0  0  0  0  0  0  0  0  0
    3.2210    1.0550   -1.6330 H   0  0  0  0  0  0  0  0  0  0  0  0
    2.9490    2.6790   -3.2100 H   0  0  0  0  0  0  0  0  0  0  0  0
    1.2700    2.4200   -3.3300 H   0  0  0  0  0  0  0  0  0  0  0  0
    1.2750   -2.6680   -3.0860 O   0  0  0  0  0  0  0  0  0  0  0  0
    0.9110   -3.0620   -1.8010 C   0  0  0  0  0  0  0  0  0  0  0  0
    0.3330   -1.8370   -1.0730 C   0  0  2  0  0  0  0  0  0  0  0  0
    1.3220   -0.8120   -1.0130 N   0  0  0  0  0  0  0  0  0  0  0  0
   -0.2080   -2.2890    0.2060 C   0  0  0  0  0  0  0  0  0  0  0  0
    0.2310   -1.7510    1.2740 O   0  0  0  0  0  0  0  0  0  0  0  0
    2.1910   -2.9830   -3.2790 H   0  0  0  0  0  0  0  0  0  0  0  0
    1.7800   -3.3800   -1.1840 H   0  0  0  0  0  0  0  0  0  0  0  0
    0.1190   -3.8180   -1.8720 H   0  0  0  0  0  0  0  0  0  0  0  0
   -0.5150   -1.4920   -1.7300 H   0  0  0  0  0  0  0  0  0  0  0  0
    2.1580   -0.9900   -0.3820 H   0  0  0  0  0  0  0  0  0  0  0  0
   -1.1990   -3.3010    0.2560 N   0  0  0  0  0  0  0  0  0  0  0  0
   -1.7450   -3.7580    1.5050 C   0  0  1  0  0  0  0  0  0  0  0  0
   -3.2450   -3.6240    1.5680 C   0  0  0  0  0  0  0  0  0  0  0  0
   -3.6800   -2.2130    1.4070 C   0  0  0  0  0  0  0  0  0  0  0  0
   -4.9780   -1.7610    1.4170 C   0  0  0  0  0  0  0  0  0  0  0  0
   -4.8910   -0.4340    1.2400 N   0  0  0  0  0  0  0  0  0  0  0  0
   -3.6060   -0.0720    1.1240 C   0  0  0  0  0  0  0  0  0  0  0  0
   -2.8600   -1.1730    1.2280 N   0  0  0  0  0  0  0  0  0  0  0  0
   -1.3480   -5.1690    1.7740 C   0  0  0  0  0  0  0  0  0  0  0  0
   -1.7380   -5.7360    2.8220 O   0  0  0  0  0  0  0  0  0  0  0  0
   -0.5540   -5.8890    0.8990 O   0  0  0  0  0  0  0  0  0  0  0  0
   -1.5310   -3.7150   -0.6290 H   0  0  0  0  0  0  0  0  0  0  0  0
   -1.2860   -3.1480    2.3190 H   0  0  0  0  0  0  0  0  0  0  0  0
   -3.6210   -3.9960    2.5420 H   0  0  0  0  0  0  0  0  0  0  0  0
   -3.7070   -4.2850    0.7880 H   0  0  0  0  0  0  0  0  0  0  0  0
   -5.9030   -2.3300    1.5410 H   0  0  0  0  0  0  0  0  0  0  0  0
   -5.7050    0.2410    1.1950 H   0  0  0  0  0  0  0  0  0  0  0  0
   -3.2030    0.9140    0.9740 H   0  0  0  0  0  0  0  0  0  0  0  0
  1 12  1  0  0  0  0
  1 13  1  0  0  0  0
  2  1  1  0  0  0  0
  3 14  1  0  0  0  0
  3  2  2  0  0  0  0
  4 15  1  0  0  0  0
  4  2  1  0  0  0  0
  5  4  1  0  0  0  0
  6 19  1  0  0  0  0
  6 18  1  0  0  0  0
  6  5  1  0  0  0  0
  7  6  1  0  0  0  0
  8 22  1  1  0  0  0
  8  7  1  0  0  0  0
  9  8  1  0  0  0  0
 10  8  1  0  0  0  0
 10 28  1  0  0  0  0
 11 10  2  0  0  0  0
 16  5  1  0  0  0  0
 17  5  1  0  0  0  0
 20  7  1  0  0  0  0
 21  7  1  0  0  0  0
 23  9  1  0  0  0  0
 24  9  1  0  0  0  0
 25 26  1  0  0  0  0
 26 32  1  0  0  0  0
 26 27  1  0  0  0  0
 27 34  1  6  0  0  0
 27 28  1  0  0  0  0
 27 29  1  0  0  0  0
 28 35  1  0  0  0  0
 29 36  1  0  0  0  0
 29 30  2  0  0  0  0
 31 25  1  0  0  0  0
 33 26  1  0  0  0  0
 36 37  1  0  0  0  0
 37 38  1  0  0  0  0
 37 44  1  0  0  0  0
 37 48  1  1  0  0  0
 38 49  1  0  0  0  0
 39 40  2  0  0  0  0
 39 38  1  0  0  0  0
 40 51  1  0  0  0  0
 41 40  1  0  0  0  0
 42 43  2  0  0  0  0
 42 41  1  0  0  0  0
 43 39  1  0  0  0  0
 44 45  1  0  0  0  0
 46 44  2  0  0  0  0
 47 36  1  0  0  0  0
 50 38  1  0  0  0  0
 52 41  1  0  0  0  0
 53 42  1  0  0  0  0
M  END
$$$$
