RSM.pdb
 OpenBabel07022418073D

 53 52  0  0  1  0  0  0  0  0999 V2000
    3.7850   -4.7070    4.6660 N   0  0  0  0  0  0  0  0  0  0  0  0
    4.0930   -4.2110    3.3700 C   0  0  0  0  0  0  0  0  0  0  0  0
    3.8660   -4.9830    2.3790 N   0  0  0  0  0  0  0  0  0  0  0  0
    4.6300   -2.9050    3.2030 N   0  0  0  0  0  0  0  0  0  0  0  0
    4.6000   -2.2580    1.9240 C   0  0  0  0  0  0  0  0  0  0  0  0
    3.1850   -1.9000    1.4970 C   0  0  0  0  0  0  0  0  0  0  0  0
    2.5380   -0.9640    2.4860 C   0  0  0  0  0  0  0  0  0  0  0  0
    1.1330   -0.5850    2.0910 C   0  0  2  0  0  0  0  0  0  0  0  0
    0.3260   -1.7840    2.0130 N   0  0  0  0  0  0  0  0  0  0  0  0
    1.0940    0.1930    0.8290 C   0  0  0  0  0  0  0  0  0  0  0  0
    1.7420    1.2690    0.7620 O   0  0  0  0  0  0  0  0  0  0  0  0
    4.0870   -5.6570    4.9130 H   0  0  0  0  0  0  0  0  0  0  0  0
    3.2660   -4.1060    5.3330 H   0  0  0  0  0  0  0  0  0  0  0  0
    4.0310   -4.7800    1.3750 H   0  0  0  0  0  0  0  0  0  0  0  0
    5.0480   -2.4200    4.0220 H   0  0  0  0  0  0  0  0  0  0  0  0
    5.1060   -2.8780    1.1580 H   0  0  0  0  0  0  0  0  0  0  0  0
    5.2150   -1.3130    1.9710 H   0  0  0  0  0  0  0  0  0  0  0  0
    3.2480   -1.3820    0.5170 H   0  0  0  0  0  0  0  0  0  0  0  0
    2.6320   -2.8250    1.3490 H   0  0  0  0  0  0  0  0  0  0  0  0
    3.1640   -0.0620    2.6380 H   0  0  0  0  0  0  0  0  0  0  0  0
    2.4790   -1.4890    3.4600 H   0  0  0  0  0  0  0  0  0  0  0  0
    0.7230    0.0090    2.9470 H   0  0  0  0  0  0  0  0  0  0  0  0
   -0.6320   -1.6710    2.3550 H   0  0  0  0  0  0  0  0  0  0  0  0
    0.4620   -2.3510    1.1740 H   0  0  0  0  0  0  0  0  0  0  0  0
    0.9980    0.7750   -3.7850 O   0  0  0  0  0  0  0  0  0  0  0  0
    1.0150   -0.0830   -2.6860 C   0  0  0  0  0  0  0  0  0  0  0  0
    0.3890    0.6080   -1.4900 C   0  0  2  0  0  0  0  0  0  0  0  0
    0.3660   -0.2020   -0.3230 N   0  0  0  0  0  0  0  0  0  0  0  0
   -0.9760    1.1080   -1.8740 C   0  0  0  0  0  0  0  0  0  0  0  0
   -1.1250    1.8350   -2.8900 O   0  0  0  0  0  0  0  0  0  0  0  0
    1.9230    1.1600   -3.8680 H   0  0  0  0  0  0  0  0  0  0  0  0
    2.0130   -0.4670   -2.4830 H   0  0  0  0  0  0  0  0  0  0  0  0
    0.3700   -0.9610   -2.9320 H   0  0  0  0  0  0  0  0  0  0  0  0
    1.0110    1.5060   -1.3060 H   0  0  0  0  0  0  0  0  0  0  0  0
   -0.1930   -1.1050   -0.3010 H   0  0  0  0  0  0  0  0  0  0  0  0
   -4.6330    0.1770    1.7540 C   0  0  0  0  0  0  0  0  0  0  0  0
   -5.4750   -0.7090    0.4570 S   0  0  0  0  0  0  0  0  0  0  0  0
   -4.6020   -0.9640   -1.0480 C   0  0  0  0  0  0  0  0  0  0  0  0
   -4.2990    0.1590   -1.9370 C   0  0  0  0  0  0  0  0  0  0  0  0
   -3.4640    1.2860   -1.5090 C   0  0  2  0  0  0  0  0  0  0  0  0
   -2.1440    0.7970   -1.1290 N   0  0  0  0  0  0  0  0  0  0  0  0
   -4.0210    2.2780   -0.5970 C   0  0  0  0  0  0  0  0  0  0  0  0
   -3.3700    2.7310    0.3770 O   0  0  0  0  0  0  0  0  0  0  0  0
   -5.3030    2.7420   -0.8010 O   0  0  0  0  0  0  0  0  0  0  0  0
   -4.7360   -0.3850    2.7100 H   0  0  0  0  0  0  0  0  0  0  0  0
   -5.1120    1.1970    1.8510 H   0  0  0  0  0  0  0  0  0  0  0  0
   -3.5620    0.2490    1.5270 H   0  0  0  0  0  0  0  0  0  0  0  0
   -5.2070   -1.7090   -1.6660 H   0  0  0  0  0  0  0  0  0  0  0  0
   -3.6780   -1.5920   -0.8080 H   0  0  0  0  0  0  0  0  0  0  0  0
   -3.7730   -0.2950   -2.8470 H   0  0  0  0  0  0  0  0  0  0  0  0
   -5.2510    0.5560   -2.4310 H   0  0  0  0  0  0  0  0  0  0  0  0
   -3.3210    1.9070   -2.4870 H   0  0  0  0  0  0  0  0  0  0  0  0
   -2.0240    0.2010   -0.2940 H   0  0  0  0  0  0  0  0  0  0  0  0
  1 12  1  0  0  0  0
  1 13  1  0  0  0  0
  2  1  1  0  0  0  0
  3  2  2  0  0  0  0
  4  2  1  0  0  0  0
  4 15  1  0  0  0  0
  5 17  1  0  0  0  0
  5  4  1  0  0  0  0
  6  5  1  0  0  0  0
  6  7  1  0  0  0  0
  7 20  1  0  0  0  0
  7 21  1  0  0  0  0
  8  7  1  0  0  0  0
  8 22  1  1  0  0  0
  9  8  1  0  0  0  0
  9 23  1  0  0  0  0
 10  8  1  0  0  0  0
 11 10  2  0  0  0  0
 14  3  1  0  0  0  0
 16  5  1  0  0  0  0
 18  6  1  0  0  0  0
 19  6  1  0  0  0  0
 24  9  1  0  0  0  0
 25 26  1  0  0  0  0
 26 32  1  0  0  0  0
 26 27  1  0  0  0  0
 27 34  1  1  0  0  0
 27 28  1  0  0  0  0
 28 35  1  0  0  0  0
 28 10  1  0  0  0  0
 29 27  1  0  0  0  0
 29 41  1  0  0  0  0
 30 29  2  0  0  0  0
 31 25  1  0  0  0  0
 33 26  1  0  0  0  0
 36 46  1  0  0  0  0
 36 45  1  0  0  0  0
 37 36  1  0  0  0  0
 38 49  1  0  0  0  0
 38 37  1  0  0  0  0
 39 40  1  0  0  0  0
 39 38  1  0  0  0  0
 40 52  1  6  0  0  0
 40 41  1  0  0  0  0
 40 42  1  0  0  0  0
 41 53  1  0  0  0  0
 42 43  1  0  0  0  0
 44 42  2  0  0  0  0
 47 36  1  0  0  0  0
 48 38  1  0  0  0  0
 50 39  1  0  0  0  0
 51 39  1  0  0  0  0
M  END
$$$$
