RSP.pdb
 OpenBabel07022418073D

 50 50  0  0  1  0  0  0  0  0999 V2000
    2.7500   -6.0880    0.9940 N   0  0  0  0  0  0  0  0  0  0  0  0
    3.4000   -5.0160    1.6910 C   0  0  0  0  0  0  0  0  0  0  0  0
    4.6380   -4.8160    1.4850 N   0  0  0  0  0  0  0  0  0  0  0  0
    2.6710   -4.1930    2.5930 N   0  0  0  0  0  0  0  0  0  0  0  0
    3.0830   -2.8120    2.8140 C   0  0  0  0  0  0  0  0  0  0  0  0
    2.8410   -2.0340    1.5670 C   0  0  0  0  0  0  0  0  0  0  0  0
    3.2020   -0.6060    1.5850 C   0  0  0  0  0  0  0  0  0  0  0  0
    2.5540    0.2890    2.5550 C   0  0  2  0  0  0  0  0  0  0  0  0
    2.8380   -0.1560    3.9240 N   0  0  0  0  0  0  0  0  0  0  0  0
    1.1240    0.5310    2.3490 C   0  0  0  0  0  0  0  0  0  0  0  0
    0.3220    0.3430    3.2810 O   0  0  0  0  0  0  0  0  0  0  0  0
    1.7420   -6.0430    0.7460 H   0  0  0  0  0  0  0  0  0  0  0  0
    3.2930   -6.9170    0.7370 H   0  0  0  0  0  0  0  0  0  0  0  0
    5.1210   -4.0420    1.9840 H   0  0  0  0  0  0  0  0  0  0  0  0
    1.8510   -4.6280    3.0670 H   0  0  0  0  0  0  0  0  0  0  0  0
    4.1090   -2.7150    3.1630 H   0  0  0  0  0  0  0  0  0  0  0  0
    2.4220   -2.4400    3.6200 H   0  0  0  0  0  0  0  0  0  0  0  0
    3.4860   -2.5130    0.7670 H   0  0  0  0  0  0  0  0  0  0  0  0
    1.7980   -2.2290    1.1850 H   0  0  0  0  0  0  0  0  0  0  0  0
    3.0550   -0.1920    0.5670 H   0  0  0  0  0  0  0  0  0  0  0  0
    4.3170   -0.5460    1.7630 H   0  0  0  0  0  0  0  0  0  0  0  0
    3.0830    1.2880    2.4880 H   0  0  0  0  0  0  0  0  0  0  0  0
    3.8610   -0.3060    4.0150 H   0  0  0  0  0  0  0  0  0  0  0  0
    2.5940    0.5990    4.6130 H   0  0  0  0  0  0  0  0  0  0  0  0
   -0.4210    3.3450    1.7700 O   0  0  0  0  0  0  0  0  0  0  0  0
   -0.8300    2.7620    0.5750 C   0  0  0  0  0  0  0  0  0  0  0  0
   -0.7330    1.2430    0.7930 C   0  0  2  0  0  0  0  0  0  0  0  0
    0.6520    0.9760    1.0990 N   0  0  0  0  0  0  0  0  0  0  0  0
   -1.2170    0.4900   -0.3770 C   0  0  0  0  0  0  0  0  0  0  0  0
   -0.3510   -0.2180   -0.9780 O   0  0  0  0  0  0  0  0  0  0  0  0
   -0.9580    4.1630    1.9380 H   0  0  0  0  0  0  0  0  0  0  0  0
   -1.8520    3.0820    0.3650 H   0  0  0  0  0  0  0  0  0  0  0  0
   -0.1140    3.0060   -0.2420 H   0  0  0  0  0  0  0  0  0  0  0  0
   -1.4040    1.0290    1.6410 H   0  0  0  0  0  0  0  0  0  0  0  0
    1.3520    1.1250    0.3390 H   0  0  0  0  0  0  0  0  0  0  0  0
   -2.5320    0.4890   -0.8730 N   0  0  0  0  0  0  0  0  0  0  0  0
   -3.7160    1.1620   -0.4030 C   0  0  0  0  0  0  0  0  0  0  0  0
   -4.7480    0.0350   -0.4840 C   0  0  0  0  0  0  0  0  0  0  0  0
   -4.2240   -0.9040   -1.5470 C   0  0  0  0  0  0  0  0  0  0  0  0
   -2.9540   -0.2440   -2.0420 C   0  0  1  0  0  0  0  0  0  0  0  0
   -3.3280    0.6270   -3.1830 C   0  0  0  0  0  0  0  0  0  0  0  0
   -3.2830    1.8670   -3.2020 O   0  0  0  0  0  0  0  0  0  0  0  0
   -3.7670   -0.0230   -4.3350 O   0  0  0  0  0  0  0  0  0  0  0  0
   -3.9950    2.0340   -1.0030 H   0  0  0  0  0  0  0  0  0  0  0  0
   -3.6190    1.5260    0.6410 H   0  0  0  0  0  0  0  0  0  0  0  0
   -5.6810    0.4820   -0.8680 H   0  0  0  0  0  0  0  0  0  0  0  0
   -4.8700   -0.4600    0.4940 H   0  0  0  0  0  0  0  0  0  0  0  0
   -3.9300   -1.8940   -1.1300 H   0  0  0  0  0  0  0  0  0  0  0  0
   -4.9530   -1.0310   -2.3730 H   0  0  0  0  0  0  0  0  0  0  0  0
   -2.1950   -1.0060   -2.3430 H   0  0  0  0  0  0  0  0  0  0  0  0
  1  2  1  0  0  0  0
  2  4  1  0  0  0  0
  3  2  2  0  0  0  0
  3 14  1  0  0  0  0
  4  5  1  0  0  0  0
  4 15  1  0  0  0  0
  5 16  1  0  0  0  0
  5 17  1  0  0  0  0
  6  7  1  0  0  0  0
  6  5  1  0  0  0  0
  7 21  1  0  0  0  0
  7  8  1  0  0  0  0
  8 22  1  6  0  0  0
  8  9  1  0  0  0  0
  9 23  1  0  0  0  0
  9 24  1  0  0  0  0
 10  8  1  0  0  0  0
 10 11  2  0  0  0  0
 12  1  1  0  0  0  0
 13  1  1  0  0  0  0
 18  6  1  0  0  0  0
 19  6  1  0  0  0  0
 20  7  1  0  0  0  0
 25 31  1  0  0  0  0
 26 27  1  0  0  0  0
 26 25  1  0  0  0  0
 27 28  1  0  0  0  0
 27 34  1  1  0  0  0
 28 10  1  0  0  0  0
 29 27  1  0  0  0  0
 30 29  2  0  0  0  0
 32 26  1  0  0  0  0
 33 26  1  0  0  0  0
 35 28  1  0  0  0  0
 36 37  1  0  0  0  0
 36 29  1  0  0  0  0
 37 45  1  0  0  0  0
 38 37  1  0  0  0  0
 38 47  1  0  0  0  0
 39 48  1  0  0  0  0
 39 38  1  0  0  0  0
 40 50  1  6  0  0  0
 40 39  1  0  0  0  0
 40 36  1  0  0  0  0
 41 40  1  0  0  0  0
 42 41  1  0  0  0  0
 43 41  2  0  0  0  0
 44 37  1  0  0  0  0
 46 38  1  0  0  0  0
 49 39  1  0  0  0  0
M  END
$$$$
