RSQ.pdb
 OpenBabel07022418063D

 53 52  0  0  1  0  0  0  0  0999 V2000
    4.7610   -2.4580    7.6990 N   0  0  0  0  0  0  0  0  0  0  0  0
    3.9610   -2.4640    6.5270 C   0  0  0  0  0  0  0  0  0  0  0  0
    3.5780   -3.5770    5.9700 N   0  0  0  0  0  0  0  0  0  0  0  0
    3.5270   -1.2680    5.8900 N   0  0  0  0  0  0  0  0  0  0  0  0
    3.1030   -1.2470    4.4800 C   0  0  0  0  0  0  0  0  0  0  0  0
    2.7190    0.1570    4.1520 C   0  0  0  0  0  0  0  0  0  0  0  0
    2.2720    0.4340    2.7710 C   0  0  0  0  0  0  0  0  0  0  0  0
    1.0640   -0.2950    2.2860 C   0  0  2  0  0  0  0  0  0  0  0  0
    1.2720   -1.6960    2.3030 N   0  0  0  0  0  0  0  0  0  0  0  0
    0.6530    0.2300    0.9590 C   0  0  0  0  0  0  0  0  0  0  0  0
    0.4380    1.4480    0.8160 O   0  0  0  0  0  0  0  0  0  0  0  0
    5.7870   -2.4140    7.6460 H   0  0  0  0  0  0  0  0  0  0  0  0
    4.3000   -2.4990    8.6310 H   0  0  0  0  0  0  0  0  0  0  0  0
    3.8820   -4.4640    6.4170 H   0  0  0  0  0  0  0  0  0  0  0  0
    3.5110   -0.3950    6.4320 H   0  0  0  0  0  0  0  0  0  0  0  0
    3.9650   -1.6060    3.8830 H   0  0  0  0  0  0  0  0  0  0  0  0
    2.3010   -2.0020    4.3390 H   0  0  0  0  0  0  0  0  0  0  0  0
    1.9470    0.5400    4.8590 H   0  0  0  0  0  0  0  0  0  0  0  0
    3.6270    0.8000    4.3360 H   0  0  0  0  0  0  0  0  0  0  0  0
    3.1510    0.3050    2.0970 H   0  0  0  0  0  0  0  0  0  0  0  0
    2.0680    1.5490    2.7200 H   0  0  0  0  0  0  0  0  0  0  0  0
    0.2350   -0.0600    2.9890 H   0  0  0  0  0  0  0  0  0  0  0  0
    0.4820   -2.2790    2.5900 H   0  0  0  0  0  0  0  0  0  0  0  0
    1.9010   -2.0810    1.5920 H   0  0  0  0  0  0  0  0  0  0  0  0
    1.3390   -1.7350   -2.6540 O   0  0  0  0  0  0  0  0  0  0  0  0
    1.1070   -0.3750   -2.5550 C   0  0  0  0  0  0  0  0  0  0  0  0
    0.0920   -0.1290   -1.4770 C   0  0  2  0  0  0  0  0  0  0  0  0
    0.4840   -0.5850   -0.1870 N   0  0  0  0  0  0  0  0  0  0  0  0
   -1.2130   -0.7510   -1.8080 C   0  0  0  0  0  0  0  0  0  0  0  0
   -1.7750   -1.5340   -1.0000 O   0  0  0  0  0  0  0  0  0  0  0  0
    2.0810   -2.0310   -2.0390 H   0  0  0  0  0  0  0  0  0  0  0  0
    0.6450   -0.0460   -3.5210 H   0  0  0  0  0  0  0  0  0  0  0  0
    1.9940    0.2360   -2.4090 H   0  0  0  0  0  0  0  0  0  0  0  0
   -0.0570    0.9730   -1.4180 H   0  0  0  0  0  0  0  0  0  0  0  0
    0.6690   -1.6240   -0.0570 H   0  0  0  0  0  0  0  0  0  0  0  0
   -5.4580    1.2280   -0.3940 N   0  0  0  0  0  0  0  0  0  0  0  0
   -5.0980    0.4150   -1.5000 C   0  0  0  0  0  0  0  0  0  0  0  0
   -5.2770   -0.8180   -1.3580 O   0  0  0  0  0  0  0  0  0  0  0  0
   -4.5480    0.9230   -2.7540 C   0  0  0  0  0  0  0  0  0  0  0  0
   -4.2030   -0.1050   -3.7680 C   0  0  0  0  0  0  0  0  0  0  0  0
   -3.1810   -1.1110   -3.3680 C   0  0  2  0  0  0  0  0  0  0  0  0
   -1.9000   -0.5100   -3.0280 N   0  0  0  0  0  0  0  0  0  0  0  0
   -2.9280   -1.9760   -4.5510 C   0  0  0  0  0  0  0  0  0  0  0  0
   -3.9010   -2.6080   -5.0310 O   0  0  0  0  0  0  0  0  0  0  0  0
   -1.6940   -2.1180   -5.1410 O   0  0  0  0  0  0  0  0  0  0  0  0
   -5.9010    2.1510   -0.5670 H   0  0  0  0  0  0  0  0  0  0  0  0
   -5.2990    0.9440    0.5960 H   0  0  0  0  0  0  0  0  0  0  0  0
   -3.6770    1.6020   -2.6020 H   0  0  0  0  0  0  0  0  0  0  0  0
   -5.3360    1.5810   -3.2160 H   0  0  0  0  0  0  0  0  0  0  0  0
   -3.8250    0.4220   -4.6730 H   0  0  0  0  0  0  0  0  0  0  0  0
   -5.1160   -0.6480   -4.0770 H   0  0  0  0  0  0  0  0  0  0  0  0
   -3.5570   -1.7730   -2.5860 H   0  0  0  0  0  0  0  0  0  0  0  0
   -1.4380    0.1380   -3.6980 H   0  0  0  0  0  0  0  0  0  0  0  0
  1 13  1  0  0  0  0
  2  1  1  0  0  0  0
  3 14  1  0  0  0  0
  3  2  2  0  0  0  0
  4 15  1  0  0  0  0
  4  2  1  0  0  0  0
  5  4  1  0  0  0  0
  6 19  1  0  0  0  0
  6  5  1  0  0  0  0
  6 18  1  0  0  0  0
  7  6  1  0  0  0  0
  8  9  1  0  0  0  0
  8  7  1  0  0  0  0
  8 22  1  1  0  0  0
  9 23  1  0  0  0  0
 10  8  1  0  0  0  0
 11 10  2  0  0  0  0
 12  1  1  0  0  0  0
 16  5  1  0  0  0  0
 17  5  1  0  0  0  0
 20  7  1  0  0  0  0
 21  7  1  0  0  0  0
 24  9  1  0  0  0  0
 25 26  1  0  0  0  0
 25 31  1  0  0  0  0
 26 33  1  0  0  0  0
 26 27  1  0  0  0  0
 27 34  1  1  0  0  0
 27 28  1  0  0  0  0
 28 35  1  0  0  0  0
 28 10  1  0  0  0  0
 29 27  1  0  0  0  0
 29 30  2  0  0  0  0
 32 26  1  0  0  0  0
 36 47  1  0  0  0  0
 37 38  2  0  0  0  0
 37 36  1  0  0  0  0
 39 48  1  0  0  0  0
 39 37  1  0  0  0  0
 40 41  1  0  0  0  0
 40 39  1  0  0  0  0
 41 42  1  0  0  0  0
 41 52  1  1  0  0  0
 42 29  1  0  0  0  0
 43 41  1  0  0  0  0
 44 43  1  0  0  0  0
 45 43  2  0  0  0  0
 46 36  1  0  0  0  0
 49 39  1  0  0  0  0
 50 40  1  0  0  0  0
 51 40  1  0  0  0  0
 53 42  1  0  0  0  0
M  END
$$$$
