RSS.pdb
 OpenBabel07022418073D

 47 46  0  0  1  0  0  0  0  0999 V2000
   -0.0760   -3.8210   -3.5510 N   0  0  0  0  0  0  0  0  0  0  0  0
    1.2280   -4.0150   -3.0140 C   0  0  0  0  0  0  0  0  0  0  0  0
    1.7570   -5.1820   -2.8440 N   0  0  0  0  0  0  0  0  0  0  0  0
    1.9970   -2.8760   -2.6390 N   0  0  0  0  0  0  0  0  0  0  0  0
    3.0040   -2.9100   -1.6150 C   0  0  0  0  0  0  0  0  0  0  0  0
    3.6430   -1.5580   -1.4410 C   0  0  0  0  0  0  0  0  0  0  0  0
    2.7210   -0.4630   -1.0760 C   0  0  0  0  0  0  0  0  0  0  0  0
    1.9460   -0.6030    0.1840 C   0  0  2  0  0  0  0  0  0  0  0  0
    1.0800   -1.7220    0.2470 N   0  0  0  0  0  0  0  0  0  0  0  0
    1.1930    0.6530    0.4710 C   0  0  0  0  0  0  0  0  0  0  0  0
    1.7750    1.7820    0.5010 O   0  0  0  0  0  0  0  0  0  0  0  0
   -0.8100   -3.2920   -3.0320 H   0  0  0  0  0  0  0  0  0  0  0  0
   -0.3450   -4.2030   -4.4840 H   0  0  0  0  0  0  0  0  0  0  0  0
    1.1860   -6.0040   -3.1190 H   0  0  0  0  0  0  0  0  0  0  0  0
    1.8100   -1.9860   -3.1360 H   0  0  0  0  0  0  0  0  0  0  0  0
    2.5960   -3.2700   -0.6410 H   0  0  0  0  0  0  0  0  0  0  0  0
    3.8030   -3.6230   -1.9420 H   0  0  0  0  0  0  0  0  0  0  0  0
    4.0450   -1.3030   -2.4710 H   0  0  0  0  0  0  0  0  0  0  0  0
    4.5650   -1.6080   -0.8210 H   0  0  0  0  0  0  0  0  0  0  0  0
    1.9560   -0.3760   -1.9060 H   0  0  0  0  0  0  0  0  0  0  0  0
    3.2260    0.5410   -1.1000 H   0  0  0  0  0  0  0  0  0  0  0  0
    2.6830   -0.7030    1.0220 H   0  0  0  0  0  0  0  0  0  0  0  0
    0.2640   -1.7440   -0.3560 H   0  0  0  0  0  0  0  0  0  0  0  0
    1.1270   -2.3310    1.0610 H   0  0  0  0  0  0  0  0  0  0  0  0
   -2.5510    3.3970    0.2500 O   0  0  0  0  0  0  0  0  0  0  0  0
   -1.8950    2.2190   -0.1470 C   0  0  0  0  0  0  0  0  0  0  0  0
   -0.9580    1.8510    1.0030 C   0  0  2  0  0  0  0  0  0  0  0  0
   -0.2220    0.6570    0.7270 N   0  0  0  0  0  0  0  0  0  0  0  0
   -1.6730    1.8710    2.2800 C   0  0  0  0  0  0  0  0  0  0  0  0
   -2.3340    2.8890    2.6070 O   0  0  0  0  0  0  0  0  0  0  0  0
   -1.9540    4.0680    0.6210 H   0  0  0  0  0  0  0  0  0  0  0  0
   -1.2720    2.4010   -1.0460 H   0  0  0  0  0  0  0  0  0  0  0  0
   -2.6310    1.4280   -0.3320 H   0  0  0  0  0  0  0  0  0  0  0  0
   -0.2090    2.6950    1.0190 H   0  0  0  0  0  0  0  0  0  0  0  0
   -0.6860   -0.2820    0.6980 H   0  0  0  0  0  0  0  0  0  0  0  0
   -3.0910   -1.4880    4.4290 O   0  0  0  0  0  0  0  0  0  0  0  0
   -3.4900   -0.1770    4.5580 C   0  0  0  0  0  0  0  0  0  0  0  0
   -2.3740    0.8210    4.4450 C   0  0  2  0  0  0  0  0  0  0  0  0
   -1.6730    0.7890    3.2040 N   0  0  0  0  0  0  0  0  0  0  0  0
   -1.5000    0.6580    5.6310 C   0  0  0  0  0  0  0  0  0  0  0  0
   -1.9990    0.6780    6.8010 O   0  0  0  0  0  0  0  0  0  0  0  0
   -0.1290    0.4810    5.5510 O   0  0  0  0  0  0  0  0  0  0  0  0
   -3.1830   -1.8620    3.5240 H   0  0  0  0  0  0  0  0  0  0  0  0
   -3.9030   -0.0630    5.5900 H   0  0  0  0  0  0  0  0  0  0  0  0
   -4.3450    0.0720    3.8830 H   0  0  0  0  0  0  0  0  0  0  0  0
   -2.8420    1.8300    4.5260 H   0  0  0  0  0  0  0  0  0  0  0  0
   -1.1360   -0.0970    2.9830 H   0  0  0  0  0  0  0  0  0  0  0  0
  1 12  1  0  0  0  0
  1  2  1  0  0  0  0
  2  3  2  0  0  0  0
  2  4  1  0  0  0  0
  4  5  1  0  0  0  0
  5  6  1  0  0  0  0
  5 16  1  0  0  0  0
  6  7  1  0  0  0  0
  6 19  1  0  0  0  0
  7  8  1  0  0  0  0
  8  9  1  0  0  0  0
  8 10  1  0  0  0  0
  8 22  1  1  0  0  0
  9 24  1  0  0  0  0
 10 11  2  0  0  0  0
 10 28  1  0  0  0  0
 13  1  1  0  0  0  0
 14  3  1  0  0  0  0
 15  4  1  0  0  0  0
 17  5  1  0  0  0  0
 18  6  1  0  0  0  0
 20  7  1  0  0  0  0
 21  7  1  0  0  0  0
 23  9  1  0  0  0  0
 25 31  1  0  0  0  0
 26 25  1  0  0  0  0
 26 27  1  0  0  0  0
 27 34  1  1  0  0  0
 27 29  1  0  0  0  0
 28 27  1  0  0  0  0
 29 30  2  0  0  0  0
 29 39  1  0  0  0  0
 32 26  1  0  0  0  0
 33 26  1  0  0  0  0
 35 28  1  0  0  0  0
 36 37  1  0  0  0  0
 37 44  1  0  0  0  0
 38 46  1  1  0  0  0
 38 37  1  0  0  0  0
 38 40  1  0  0  0  0
 39 38  1  0  0  0  0
 40 41  1  0  0  0  0
 42 40  2  0  0  0  0
 43 36  1  0  0  0  0
 45 37  1  0  0  0  0
 47 39  1  0  0  0  0
M  END
$$$$
