RSW.pdb
 OpenBabel07022418073D

 60 61  0  0  1  0  0  0  0  0999 V2000
    1.6480   -2.7490    5.3830 N   0  0  0  0  0  0  0  0  0  0  0  0
    2.5330   -1.9390    4.6250 C   0  0  0  0  0  0  0  0  0  0  0  0
    3.5760   -1.3850    5.1780 N   0  0  0  0  0  0  0  0  0  0  0  0
    2.2390   -1.7600    3.2480 N   0  0  0  0  0  0  0  0  0  0  0  0
    3.1980   -1.2010    2.3350 C   0  0  0  0  0  0  0  0  0  0  0  0
    2.6790   -1.1060    0.9420 C   0  0  0  0  0  0  0  0  0  0  0  0
    1.4480   -0.2840    0.7590 C   0  0  0  0  0  0  0  0  0  0  0  0
    1.6570    1.1340    1.1650 C   0  0  2  0  0  0  0  0  0  0  0  0
    2.0170    1.2330    2.5570 N   0  0  0  0  0  0  0  0  0  0  0  0
    0.4640    1.9860    0.8480 C   0  0  0  0  0  0  0  0  0  0  0  0
   -0.0840    2.7190    1.7170 O   0  0  0  0  0  0  0  0  0  0  0  0
    1.8290   -3.7720    5.4360 H   0  0  0  0  0  0  0  0  0  0  0  0
    0.8450   -2.3060    5.8640 H   0  0  0  0  0  0  0  0  0  0  0  0
    3.7350   -1.5530    6.1800 H   0  0  0  0  0  0  0  0  0  0  0  0
    1.3090   -2.0390    2.8890 H   0  0  0  0  0  0  0  0  0  0  0  0
    4.0370   -1.9850    2.2930 H   0  0  0  0  0  0  0  0  0  0  0  0
    3.7100   -0.3100    2.7210 H   0  0  0  0  0  0  0  0  0  0  0  0
    2.5820   -2.1270    0.4810 H   0  0  0  0  0  0  0  0  0  0  0  0
    3.4990   -0.6220    0.3290 H   0  0  0  0  0  0  0  0  0  0  0  0
    1.1390   -0.2900   -0.3150 H   0  0  0  0  0  0  0  0  0  0  0  0
    0.5920   -0.7070    1.3510 H   0  0  0  0  0  0  0  0  0  0  0  0
    2.5010    1.5840    0.5880 H   0  0  0  0  0  0  0  0  0  0  0  0
    1.1980    0.8280    3.0950 H   0  0  0  0  0  0  0  0  0  0  0  0
    2.0930    2.2310    2.8650 H   0  0  0  0  0  0  0  0  0  0  0  0
   -0.0320    4.6330   -1.6110 O   0  0  0  0  0  0  0  0  0  0  0  0
   -0.9760    3.7060   -1.9980 C   0  0  0  0  0  0  0  0  0  0  0  0
   -1.2230    2.7510   -0.8870 C   0  0  2  0  0  0  0  0  0  0  0  0
   -0.0950    2.0000   -0.4410 N   0  0  0  0  0  0  0  0  0  0  0  0
   -2.3980    1.8480   -1.1470 C   0  0  0  0  0  0  0  0  0  0  0  0
   -3.4940    2.2480   -1.5640 O   0  0  0  0  0  0  0  0  0  0  0  0
    0.1570    5.3200   -2.3080 H   0  0  0  0  0  0  0  0  0  0  0  0
   -1.9370    4.2790   -2.1400 H   0  0  0  0  0  0  0  0  0  0  0  0
   -0.7720    3.2320   -2.9710 H   0  0  0  0  0  0  0  0  0  0  0  0
   -1.5670    3.3650    0.0010 H   0  0  0  0  0  0  0  0  0  0  0  0
    0.3650    1.3850   -1.1800 H   0  0  0  0  0  0  0  0  0  0  0  0
   -2.2390    0.4820   -0.9030 N   0  0  0  0  0  0  0  0  0  0  0  0
   -3.2240   -0.5560   -1.0810 C   0  0  1  0  0  0  0  0  0  0  0  0
   -2.8780   -1.5700   -2.0860 C   0  0  0  0  0  0  0  0  0  0  0  0
   -1.6500   -2.3260   -1.9220 C   0  0  0  0  0  0  0  0  0  0  0  0
   -0.4650   -1.9640   -2.5910 C   0  0  0  0  0  0  0  0  0  0  0  0
    0.5220   -2.7960   -2.2400 N   0  0  0  0  0  0  0  0  0  0  0  0
   -0.0000   -3.6820   -1.3640 C   0  0  0  0  0  0  0  0  0  0  0  0
    0.5890   -4.7410   -0.7120 C   0  0  0  0  0  0  0  0  0  0  0  0
   -0.1720   -5.5150    0.1400 C   0  0  0  0  0  0  0  0  0  0  0  0
   -1.5060   -5.2360    0.3410 C   0  0  0  0  0  0  0  0  0  0  0  0
   -2.1290   -4.1850   -0.2940 C   0  0  0  0  0  0  0  0  0  0  0  0
   -1.3490   -3.4080   -1.1530 C   0  0  0  0  0  0  0  0  0  0  0  0
   -3.6530   -1.0160    0.2430 C   0  0  0  0  0  0  0  0  0  0  0  0
   -4.5800   -1.8370    0.4660 O   0  0  0  0  0  0  0  0  0  0  0  0
   -3.0230   -0.5440    1.4150 O   0  0  0  0  0  0  0  0  0  0  0  0
   -1.2990    0.1300   -0.5440 H   0  0  0  0  0  0  0  0  0  0  0  0
   -4.1280   -0.0020   -1.5110 H   0  0  0  0  0  0  0  0  0  0  0  0
   -2.9900   -1.1160   -3.1040 H   0  0  0  0  0  0  0  0  0  0  0  0
   -3.7190   -2.3310   -2.0690 H   0  0  0  0  0  0  0  0  0  0  0  0
   -0.3580   -1.1420   -3.2840 H   0  0  0  0  0  0  0  0  0  0  0  0
    1.4940   -2.7290   -2.6030 H   0  0  0  0  0  0  0  0  0  0  0  0
    1.6430   -4.9900   -0.8460 H   0  0  0  0  0  0  0  0  0  0  0  0
    0.2750   -6.3600    0.6680 H   0  0  0  0  0  0  0  0  0  0  0  0
   -2.1180   -5.8500    1.0180 H   0  0  0  0  0  0  0  0  0  0  0  0
   -3.1790   -3.9620   -0.1560 H   0  0  0  0  0  0  0  0  0  0  0  0
  1 12  1  0  0  0  0
  1 13  1  0  0  0  0
  2  3  2  0  0  0  0
  2  1  1  0  0  0  0
  3 14  1  0  0  0  0
  4  2  1  0  0  0  0
  5 17  1  0  0  0  0
  5  4  1  0  0  0  0
  6  5  1  0  0  0  0
  7  6  1  0  0  0  0
  7  8  1  0  0  0  0
  7 21  1  0  0  0  0
  8 22  1  6  0  0  0
  8  9  1  0  0  0  0
  9 24  1  0  0  0  0
  9 23  1  0  0  0  0
 10  8  1  0  0  0  0
 10 11  2  0  0  0  0
 15  4  1  0  0  0  0
 16  5  1  0  0  0  0
 18  6  1  0  0  0  0
 19  6  1  0  0  0  0
 20  7  1  0  0  0  0
 26 25  1  0  0  0  0
 26 27  1  0  0  0  0
 27 28  1  0  0  0  0
 27 34  1  1  0  0  0
 28 10  1  0  0  0  0
 29 36  1  0  0  0  0
 29 27  1  0  0  0  0
 30 29  2  0  0  0  0
 31 25  1  0  0  0  0
 32 26  1  0  0  0  0
 33 26  1  0  0  0  0
 35 28  1  0  0  0  0
 36 51  1  0  0  0  0
 37 52  1  6  0  0  0
 37 36  1  0  0  0  0
 37 48  1  0  0  0  0
 38 54  1  0  0  0  0
 38 39  1  0  0  0  0
 38 37  1  0  0  0  0
 39 47  1  0  0  0  0
 40 41  1  0  0  0  0
 40 39  2  0  0  0  0
 41 42  1  0  0  0  0
 42 47  2  0  0  0  0
 42 43  1  0  0  0  0
 43 44  2  0  0  0  0
 44 45  1  0  0  0  0
 44 58  1  0  0  0  0
 45 59  1  0  0  0  0
 46 60  1  0  0  0  0
 46 45  2  0  0  0  0
 47 46  1  0  0  0  0
 48 49  2  0  0  0  0
 48 50  1  0  0  0  0
 53 38  1  0  0  0  0
 55 40  1  0  0  0  0
 56 41  1  0  0  0  0
 57 43  1  0  0  0  0
M  END
$$$$
