RTA.pdb
 OpenBabel07022418073D

 49 48  0  0  1  0  0  0  0  0999 V2000
    1.5970   -5.0590    1.4250 N   0  0  0  0  0  0  0  0  0  0  0  0
    2.4810   -3.9670    1.2970 C   0  0  0  0  0  0  0  0  0  0  0  0
    3.0720   -3.5230    2.3790 N   0  0  0  0  0  0  0  0  0  0  0  0
    2.7580   -3.3280    0.0570 N   0  0  0  0  0  0  0  0  0  0  0  0
    3.2390   -1.9600    0.0930 C   0  0  0  0  0  0  0  0  0  0  0  0
    3.4600   -1.5020   -1.3160 C   0  0  0  0  0  0  0  0  0  0  0  0
    2.2710   -1.4870   -2.1860 C   0  0  0  0  0  0  0  0  0  0  0  0
    1.1210   -0.6370   -1.8570 C   0  0  2  0  0  0  0  0  0  0  0  0
    1.3700    0.7670   -1.7630 N   0  0  0  0  0  0  0  0  0  0  0  0
    0.3170   -1.1560   -0.7350 C   0  0  0  0  0  0  0  0  0  0  0  0
   -0.0640   -2.3540   -0.7220 O   0  0  0  0  0  0  0  0  0  0  0  0
    0.8720   -5.0690    2.1920 H   0  0  0  0  0  0  0  0  0  0  0  0
    1.5950   -5.8970    0.8010 H   0  0  0  0  0  0  0  0  0  0  0  0
    2.9160   -3.9380    3.3030 H   0  0  0  0  0  0  0  0  0  0  0  0
    2.6050   -3.8670   -0.8220 H   0  0  0  0  0  0  0  0  0  0  0  0
    2.5030   -1.3670    0.6580 H   0  0  0  0  0  0  0  0  0  0  0  0
    4.2120   -2.0050    0.6320 H   0  0  0  0  0  0  0  0  0  0  0  0
    4.1510   -2.2880   -1.7600 H   0  0  0  0  0  0  0  0  0  0  0  0
    4.0900   -0.5840   -1.3760 H   0  0  0  0  0  0  0  0  0  0  0  0
    2.6520   -1.2860   -3.2350 H   0  0  0  0  0  0  0  0  0  0  0  0
    1.9270   -2.5640   -2.2760 H   0  0  0  0  0  0  0  0  0  0  0  0
    0.4080   -0.7230   -2.7480 H   0  0  0  0  0  0  0  0  0  0  0  0
    1.4970    1.2140   -2.7060 H   0  0  0  0  0  0  0  0  0  0  0  0
    2.1460    1.0520   -1.1730 H   0  0  0  0  0  0  0  0  0  0  0  0
    0.2920    0.6740    3.0130 C   0  0  0  0  0  0  0  0  0  0  0  0
    0.0050   -0.7820    2.7440 C   0  0  1  0  0  0  0  0  0  0  0  0
   -0.7940   -1.2680    3.7910 O   0  0  0  0  0  0  0  0  0  0  0  0
   -0.8630   -0.8600    1.4830 C   0  0  2  0  0  0  0  0  0  0  0  0
   -0.0780   -0.3690    0.3810 N   0  0  0  0  0  0  0  0  0  0  0  0
   -2.0650   -0.0080    1.7330 C   0  0  0  0  0  0  0  0  0  0  0  0
   -2.8740   -0.2780    2.6560 O   0  0  0  0  0  0  0  0  0  0  0  0
   -0.1170    1.0000    4.0050 H   0  0  0  0  0  0  0  0  0  0  0  0
    1.4070    0.7810    3.1270 H   0  0  0  0  0  0  0  0  0  0  0  0
   -0.1100    1.3560    2.2600 H   0  0  0  0  0  0  0  0  0  0  0  0
    0.9320   -1.3640    2.6210 H   0  0  0  0  0  0  0  0  0  0  0  0
   -0.5430   -2.1880    4.0310 H   0  0  0  0  0  0  0  0  0  0  0  0
   -1.1340   -1.9280    1.3750 H   0  0  0  0  0  0  0  0  0  0  0  0
    0.2310    0.6270    0.3820 H   0  0  0  0  0  0  0  0  0  0  0  0
   -3.1600    3.3980    1.5000 C   0  0  0  0  0  0  0  0  0  0  0  0
   -3.5360    1.9750    1.2010 C   0  0  2  0  0  0  0  0  0  0  0  0
   -2.3510    1.1420    0.9470 N   0  0  0  0  0  0  0  0  0  0  0  0
   -4.3370    1.9380   -0.0500 C   0  0  0  0  0  0  0  0  0  0  0  0
   -5.4120    2.5900   -0.0660 O   0  0  0  0  0  0  0  0  0  0  0  0
   -3.9670    1.2360   -1.1800 O   0  0  0  0  0  0  0  0  0  0  0  0
   -2.9230    3.5830    2.5600 H   0  0  0  0  0  0  0  0  0  0  0  0
   -4.0630    4.0360    1.2750 H   0  0  0  0  0  0  0  0  0  0  0  0
   -2.3560    3.7700    0.8390 H   0  0  0  0  0  0  0  0  0  0  0  0
   -4.1210    1.5850    2.0420 H   0  0  0  0  0  0  0  0  0  0  0  0
   -1.6930    1.3840    0.1760 H   0  0  0  0  0  0  0  0  0  0  0  0
  1 12  1  0  0  0  0
  2  1  1  0  0  0  0
  2  3  2  0  0  0  0
  3 14  1  0  0  0  0
  4  5  1  0  0  0  0
  4  2  1  0  0  0  0
  5 17  1  0  0  0  0
  5 16  1  0  0  0  0
  6  5  1  0  0  0  0
  7  8  1  0  0  0  0
  7  6  1  0  0  0  0
  8 22  1  6  0  0  0
  8  9  1  0  0  0  0
  8 10  1  0  0  0  0
  9 24  1  0  0  0  0
 10 11  2  0  0  0  0
 10 29  1  0  0  0  0
 13  1  1  0  0  0  0
 15  4  1  0  0  0  0
 18  6  1  0  0  0  0
 19  6  1  0  0  0  0
 20  7  1  0  0  0  0
 21  7  1  0  0  0  0
 23  9  1  0  0  0  0
 25 33  1  0  0  0  0
 25 32  1  0  0  0  0
 26 35  1  6  0  0  0
 26 25  1  0  0  0  0
 26 27  1  0  0  0  0
 27 36  1  0  0  0  0
 28 37  1  6  0  0  0
 28 30  1  0  0  0  0
 28 26  1  0  0  0  0
 29 38  1  0  0  0  0
 29 28  1  0  0  0  0
 30 31  2  0  0  0  0
 34 25  1  0  0  0  0
 39 45  1  0  0  0  0
 40 39  1  0  0  0  0
 40 48  1  1  0  0  0
 41 40  1  0  0  0  0
 41 30  1  0  0  0  0
 42 40  1  0  0  0  0
 43 42  1  0  0  0  0
 44 42  2  0  0  0  0
 46 39  1  0  0  0  0
 47 39  1  0  0  0  0
 49 41  1  0  0  0  0
M  END
$$$$
