RTE.pdb
 OpenBabel07022418073D

 55 54  0  0  1  0  0  0  0  0999 V2000
   -0.7320   -3.9890    3.9510 N   0  0  0  0  0  0  0  0  0  0  0  0
   -0.3660   -2.6110    3.9300 C   0  0  0  0  0  0  0  0  0  0  0  0
   -1.2090   -1.6940    4.2180 N   0  0  0  0  0  0  0  0  0  0  0  0
    0.9520   -2.2590    3.5860 N   0  0  0  0  0  0  0  0  0  0  0  0
    1.2780   -0.8930    3.1260 C   0  0  0  0  0  0  0  0  0  0  0  0
    2.7300   -0.7790    2.8510 C   0  0  0  0  0  0  0  0  0  0  0  0
    3.2280    0.5430    2.4490 C   0  0  0  0  0  0  0  0  0  0  0  0
    2.7320    1.1670    1.2090 C   0  0  2  0  0  0  0  0  0  0  0  0
    3.4110    2.4780    1.0120 N   0  0  0  0  0  0  0  0  0  0  0  0
    1.2640    1.4440    1.2870 C   0  0  0  0  0  0  0  0  0  0  0  0
    0.7630    2.0020    2.2940 O   0  0  0  0  0  0  0  0  0  0  0  0
   -0.0730   -4.7360    4.2350 H   0  0  0  0  0  0  0  0  0  0  0  0
   -1.7040   -4.2120    3.6640 H   0  0  0  0  0  0  0  0  0  0  0  0
   -1.0310   -0.6870    4.2270 H   0  0  0  0  0  0  0  0  0  0  0  0
    1.7280   -2.9320    3.6410 H   0  0  0  0  0  0  0  0  0  0  0  0
    0.6910   -0.6980    2.2010 H   0  0  0  0  0  0  0  0  0  0  0  0
    0.9250   -0.2110    3.9120 H   0  0  0  0  0  0  0  0  0  0  0  0
    3.3410   -1.1190    3.7350 H   0  0  0  0  0  0  0  0  0  0  0  0
    3.0150   -1.5020    2.0140 H   0  0  0  0  0  0  0  0  0  0  0  0
    4.3590    0.5340    2.3800 H   0  0  0  0  0  0  0  0  0  0  0  0
    3.0310    1.2420    3.3250 H   0  0  0  0  0  0  0  0  0  0  0  0
    2.9710    0.5770    0.3150 H   0  0  0  0  0  0  0  0  0  0  0  0
    2.7190    3.1820    0.7110 H   0  0  0  0  0  0  0  0  0  0  0  0
    4.2110    2.3630    0.3620 H   0  0  0  0  0  0  0  0  0  0  0  0
   -0.9880    3.7340   -0.3420 C   0  0  0  0  0  0  0  0  0  0  0  0
   -1.4520    2.3680   -0.7970 C   0  0  1  0  0  0  0  0  0  0  0  0
   -1.1140    2.0780   -2.0960 O   0  0  0  0  0  0  0  0  0  0  0  0
   -1.0180    1.3060    0.1950 C   0  0  2  0  0  0  0  0  0  0  0  0
    0.3870    1.0890    0.2190 N   0  0  0  0  0  0  0  0  0  0  0  0
   -1.7180    0.0420   -0.1410 C   0  0  0  0  0  0  0  0  0  0  0  0
   -2.9930   -0.0030   -0.1670 O   0  0  0  0  0  0  0  0  0  0  0  0
   -1.7190    4.5310   -0.6050 H   0  0  0  0  0  0  0  0  0  0  0  0
   -0.8760    3.7750    0.7590 H   0  0  0  0  0  0  0  0  0  0  0  0
   -0.0350    4.0400   -0.8520 H   0  0  0  0  0  0  0  0  0  0  0  0
   -2.5780    2.3770   -0.7510 H   0  0  0  0  0  0  0  0  0  0  0  0
   -1.1660    2.9200   -2.6200 H   0  0  0  0  0  0  0  0  0  0  0  0
   -1.3440    1.6310    1.1940 H   0  0  0  0  0  0  0  0  0  0  0  0
    0.8350    0.6340   -0.6000 H   0  0  0  0  0  0  0  0  0  0  0  0
   -1.0480   -1.1610   -0.4470 N   0  0  0  0  0  0  0  0  0  0  0  0
   -1.7850   -2.3990   -0.7780 C   0  0  1  0  0  0  0  0  0  0  0  0
   -1.5330   -2.5680   -2.2780 C   0  0  0  0  0  0  0  0  0  0  0  0
   -2.2050   -3.7750   -2.8300 C   0  0  0  0  0  0  0  0  0  0  0  0
   -1.9040   -3.8310   -4.2810 C   0  0  0  0  0  0  0  0  0  0  0  0
   -0.7960   -4.2380   -4.6600 O   0  0  0  0  0  0  0  0  0  0  0  0
   -1.1880   -3.4930   -0.0190 C   0  0  0  0  0  0  0  0  0  0  0  0
   -1.6390   -4.6770   -0.0420 O   0  0  0  0  0  0  0  0  0  0  0  0
   -2.8550   -3.4310   -5.1820 O   0  0  0  0  0  0  0  0  0  0  0  0
   -0.0690   -3.2580    0.7800 O   0  0  0  0  0  0  0  0  0  0  0  0
   -0.0200   -1.2120   -0.4480 H   0  0  0  0  0  0  0  0  0  0  0  0
   -2.8690   -2.2650   -0.6750 H   0  0  0  0  0  0  0  0  0  0  0  0
   -0.4250   -2.6300   -2.4050 H   0  0  0  0  0  0  0  0  0  0  0  0
   -1.8930   -1.6590   -2.8040 H   0  0  0  0  0  0  0  0  0  0  0  0
   -1.8750   -4.6930   -2.3090 H   0  0  0  0  0  0  0  0  0  0  0  0
   -3.3110   -3.6640   -2.6440 H   0  0  0  0  0  0  0  0  0  0  0  0
   -2.7690   -3.5410   -6.1840 H   0  0  0  0  0  0  0  0  0  0  0  0
  1 12  1  0  0  0  0
  2  1  1  0  0  0  0
  2  3  2  0  0  0  0
  3 14  1  0  0  0  0
  4 15  1  0  0  0  0
  4  2  1  0  0  0  0
  5  4  1  0  0  0  0
  5 17  1  0  0  0  0
  6  5  1  0  0  0  0
  6 18  1  0  0  0  0
  7  6  1  0  0  0  0
  7 21  1  0  0  0  0
  8 22  1  6  0  0  0
  8 10  1  0  0  0  0
  8  7  1  0  0  0  0
  9  8  1  0  0  0  0
 10 11  2  0  0  0  0
 13  1  1  0  0  0  0
 16  5  1  0  0  0  0
 19  6  1  0  0  0  0
 20  7  1  0  0  0  0
 23  9  1  0  0  0  0
 24  9  1  0  0  0  0
 25 33  1  0  0  0  0
 26 35  1  1  0  0  0
 26 25  1  0  0  0  0
 26 28  1  0  0  0  0
 27 26  1  0  0  0  0
 28 29  1  0  0  0  0
 28 37  1  1  0  0  0
 29 10  1  0  0  0  0
 30 28  1  0  0  0  0
 31 30  2  0  0  0  0
 32 25  1  0  0  0  0
 34 25  1  0  0  0  0
 36 27  1  0  0  0  0
 38 29  1  0  0  0  0
 39 30  1  0  0  0  0
 40 50  1  1  0  0  0
 40 39  1  0  0  0  0
 40 45  1  0  0  0  0
 41 40  1  0  0  0  0
 42 54  1  0  0  0  0
 42 53  1  0  0  0  0
 42 41  1  0  0  0  0
 43 42  1  0  0  0  0
 44 43  2  0  0  0  0
 45 48  1  0  0  0  0
 46 45  2  0  0  0  0
 47 43  1  0  0  0  0
 49 39  1  0  0  0  0
 51 41  1  0  0  0  0
 52 41  1  0  0  0  0
 55 47  1  0  0  0  0
M  END
$$$$
