RTF.pdb
 OpenBabel07022418073D

 59 59  0  0  1  0  0  0  0  0999 V2000
    0.5950   -0.6100    6.5270 N   0  0  0  0  0  0  0  0  0  0  0  0
    1.7970   -0.0830    6.0200 C   0  0  0  0  0  0  0  0  0  0  0  0
    1.8680    1.1860    5.7050 N   0  0  0  0  0  0  0  0  0  0  0  0
    2.9720   -0.8560    5.8250 N   0  0  0  0  0  0  0  0  0  0  0  0
    3.8210   -0.7270    4.6870 C   0  0  0  0  0  0  0  0  0  0  0  0
    3.2530   -1.2200    3.3850 C   0  0  0  0  0  0  0  0  0  0  0  0
    2.0140   -0.5110    2.9980 C   0  0  0  0  0  0  0  0  0  0  0  0
    1.4380   -0.9770    1.6770 C   0  0  2  0  0  0  0  0  0  0  0  0
    2.2780   -0.8310    0.5530 N   0  0  0  0  0  0  0  0  0  0  0  0
    0.1020   -0.3470    1.5480 C   0  0  0  0  0  0  0  0  0  0  0  0
   -0.6460   -0.3930    2.5520 O   0  0  0  0  0  0  0  0  0  0  0  0
    0.3940   -0.5640    7.5620 H   0  0  0  0  0  0  0  0  0  0  0  0
   -0.1240   -1.0520    5.9210 H   0  0  0  0  0  0  0  0  0  0  0  0
    1.0570    1.8060    5.8220 H   0  0  0  0  0  0  0  0  0  0  0  0
    3.1950   -1.5610    6.5860 H   0  0  0  0  0  0  0  0  0  0  0  0
    4.0990    0.3670    4.5700 H   0  0  0  0  0  0  0  0  0  0  0  0
    4.7940   -1.2130    4.9300 H   0  0  0  0  0  0  0  0  0  0  0  0
    2.9740   -2.3050    3.5280 H   0  0  0  0  0  0  0  0  0  0  0  0
    4.0150   -1.1970    2.5810 H   0  0  0  0  0  0  0  0  0  0  0  0
    1.1860   -0.6300    3.7450 H   0  0  0  0  0  0  0  0  0  0  0  0
    2.2160    0.5710    2.9140 H   0  0  0  0  0  0  0  0  0  0  0  0
    1.2360   -2.0830    1.8050 H   0  0  0  0  0  0  0  0  0  0  0  0
    2.8860   -1.6390    0.3260 H   0  0  0  0  0  0  0  0  0  0  0  0
    2.6970    0.0810    0.3800 H   0  0  0  0  0  0  0  0  0  0  0  0
   -2.7880    3.1040   -0.1990 C   0  0  0  0  0  0  0  0  0  0  0  0
   -1.4910    2.3610   -0.0290 C   0  0  1  0  0  0  0  0  0  0  0  0
   -0.7630    2.9850    0.9830 O   0  0  0  0  0  0  0  0  0  0  0  0
   -1.6870    0.9100    0.2770 C   0  0  2  0  0  0  0  0  0  0  0  0
   -0.3780    0.2940    0.3850 N   0  0  0  0  0  0  0  0  0  0  0  0
   -2.5690    0.1950   -0.6600 C   0  0  0  0  0  0  0  0  0  0  0  0
   -3.7340    0.6230   -0.8480 O   0  0  0  0  0  0  0  0  0  0  0  0
   -3.1990    2.8630   -1.1980 H   0  0  0  0  0  0  0  0  0  0  0  0
   -2.6120    4.2160   -0.2250 H   0  0  0  0  0  0  0  0  0  0  0  0
   -3.4990    2.8390    0.5830 H   0  0  0  0  0  0  0  0  0  0  0  0
   -0.8500    2.4460   -0.9490 H   0  0  0  0  0  0  0  0  0  0  0  0
   -0.5180    2.3720    1.7170 H   0  0  0  0  0  0  0  0  0  0  0  0
   -2.1940    0.8480    1.2760 H   0  0  0  0  0  0  0  0  0  0  0  0
    0.2670    0.3150   -0.4330 H   0  0  0  0  0  0  0  0  0  0  0  0
   -2.1320   -0.9790   -1.3650 N   0  0  0  0  0  0  0  0  0  0  0  0
   -2.9610   -1.6980   -2.2780 C   0  0  1  0  0  0  0  0  0  0  0  0
   -2.4590   -1.7120   -3.6970 C   0  0  0  0  0  0  0  0  0  0  0  0
   -1.1140   -2.3350   -3.8200 C   0  0  0  0  0  0  0  0  0  0  0  0
   -0.0340   -1.4710   -3.6950 C   0  0  0  0  0  0  0  0  0  0  0  0
    1.2660   -1.9490   -3.7940 C   0  0  0  0  0  0  0  0  0  0  0  0
    1.4610   -3.3120   -4.0210 C   0  0  0  0  0  0  0  0  0  0  0  0
    0.3770   -4.1470   -4.1410 C   0  0  0  0  0  0  0  0  0  0  0  0
   -0.9090   -3.6780   -4.0440 C   0  0  0  0  0  0  0  0  0  0  0  0
   -3.1910   -3.0740   -1.7970 C   0  0  0  0  0  0  0  0  0  0  0  0
   -2.6680   -3.4510   -0.7150 O   0  0  0  0  0  0  0  0  0  0  0  0
   -3.9720   -3.9810   -2.5010 O   0  0  0  0  0  0  0  0  0  0  0  0
   -1.1550   -1.2850   -1.1680 H   0  0  0  0  0  0  0  0  0  0  0  0
   -3.9530   -1.1830   -2.3080 H   0  0  0  0  0  0  0  0  0  0  0  0
   -2.4680   -0.6660   -4.0930 H   0  0  0  0  0  0  0  0  0  0  0  0
   -3.2040   -2.2710   -4.3000 H   0  0  0  0  0  0  0  0  0  0  0  0
   -0.1630   -0.3970   -3.5170 H   0  0  0  0  0  0  0  0  0  0  0  0
    2.1070   -1.2810   -3.6970 H   0  0  0  0  0  0  0  0  0  0  0  0
    2.4600   -3.6780   -4.0960 H   0  0  0  0  0  0  0  0  0  0  0  0
    0.5610   -5.1940   -4.3170 H   0  0  0  0  0  0  0  0  0  0  0  0
   -1.7900   -4.3120   -4.1350 H   0  0  0  0  0  0  0  0  0  0  0  0
  1 12  1  0  0  0  0
  2  1  1  0  0  0  0
  3 14  1  0  0  0  0
  3  2  2  0  0  0  0
  4  2  1  0  0  0  0
  4 15  1  0  0  0  0
  5 17  1  0  0  0  0
  5  4  1  0  0  0  0
  6 18  1  0  0  0  0
  6  5  1  0  0  0  0
  7  6  1  0  0  0  0
  7 20  1  0  0  0  0
  8 22  1  1  0  0  0
  8  7  1  0  0  0  0
  9  8  1  0  0  0  0
 10  8  1  0  0  0  0
 10 11  2  0  0  0  0
 13  1  1  0  0  0  0
 16  5  1  0  0  0  0
 19  6  1  0  0  0  0
 21  7  1  0  0  0  0
 23  9  1  0  0  0  0
 24  9  1  0  0  0  0
 25 26  1  0  0  0  0
 25 34  1  0  0  0  0
 26 35  1  6  0  0  0
 26 28  1  0  0  0  0
 26 27  1  0  0  0  0
 27 36  1  0  0  0  0
 28 29  1  0  0  0  0
 28 37  1  1  0  0  0
 29 10  1  0  0  0  0
 30 28  1  0  0  0  0
 31 30  2  0  0  0  0
 32 25  1  0  0  0  0
 33 25  1  0  0  0  0
 38 29  1  0  0  0  0
 39 51  1  0  0  0  0
 39 30  1  0  0  0  0
 40 52  1  6  0  0  0
 40 48  1  0  0  0  0
 40 39  1  0  0  0  0
 41 40  1  0  0  0  0
 42 41  1  0  0  0  0
 42 43  1  0  0  0  0
 43 55  1  0  0  0  0
 44 56  1  0  0  0  0
 44 43  2  0  0  0  0
 45 44  1  0  0  0  0
 46 47  1  0  0  0  0
 46 45  2  0  0  0  0
 47 42  2  0  0  0  0
 48 49  1  0  0  0  0
 50 48  2  0  0  0  0
 53 41  1  0  0  0  0
 54 41  1  0  0  0  0
 57 45  1  0  0  0  0
 58 46  1  0  0  0  0
 59 47  1  0  0  0  0
M  END
$$$$
