RTH.pdb
 OpenBabel07022418073D

 56 56  0  0  1  0  0  0  0  0999 V2000
   -0.2800    2.7470    1.4610 N   0  0  0  0  0  0  0  0  0  0  0  0
   -1.5570    2.3750    1.9440 C   0  0  0  0  0  0  0  0  0  0  0  0
   -1.7700    1.9780    3.1550 N   0  0  0  0  0  0  0  0  0  0  0  0
   -2.7130    2.4340    1.0970 N   0  0  0  0  0  0  0  0  0  0  0  0
   -3.9000    1.7530    1.4640 C   0  0  0  0  0  0  0  0  0  0  0  0
   -3.7800    0.2510    1.3880 C   0  0  0  0  0  0  0  0  0  0  0  0
   -3.4610   -0.1720   -0.0080 C   0  0  0  0  0  0  0  0  0  0  0  0
   -3.3850   -1.6320   -0.2470 C   0  0  2  0  0  0  0  0  0  0  0  0
   -4.6870   -2.2000    0.1060 N   0  0  0  0  0  0  0  0  0  0  0  0
   -2.2800   -2.3800    0.3480 C   0  0  0  0  0  0  0  0  0  0  0  0
   -2.6020   -3.2290    1.2600 O   0  0  0  0  0  0  0  0  0  0  0  0
    0.2060    3.6070    1.8350 H   0  0  0  0  0  0  0  0  0  0  0  0
    0.1490    2.1380    0.7280 H   0  0  0  0  0  0  0  0  0  0  0  0
   -1.0660    1.8860    3.8930 H   0  0  0  0  0  0  0  0  0  0  0  0
   -2.6770    2.9800    0.2150 H   0  0  0  0  0  0  0  0  0  0  0  0
   -4.1830    2.0790    2.5040 H   0  0  0  0  0  0  0  0  0  0  0  0
   -4.7640    2.0710    0.8240 H   0  0  0  0  0  0  0  0  0  0  0  0
   -3.0170   -0.0880    2.1250 H   0  0  0  0  0  0  0  0  0  0  0  0
   -4.7570   -0.1700    1.7420 H   0  0  0  0  0  0  0  0  0  0  0  0
   -2.5680    0.3900   -0.3570 H   0  0  0  0  0  0  0  0  0  0  0  0
   -4.3000    0.2150   -0.6550 H   0  0  0  0  0  0  0  0  0  0  0  0
   -3.3310   -1.7660   -1.3770 H   0  0  0  0  0  0  0  0  0  0  0  0
   -5.3870   -1.6310   -0.4330 H   0  0  0  0  0  0  0  0  0  0  0  0
   -4.9090   -2.1280    1.1020 H   0  0  0  0  0  0  0  0  0  0  0  0
    0.8790   -3.7800   -1.6710 C   0  0  0  0  0  0  0  0  0  0  0  0
    0.4560   -4.2130   -0.3120 C   0  0  1  0  0  0  0  0  0  0  0  0
    1.4290   -4.9710    0.2910 O   0  0  0  0  0  0  0  0  0  0  0  0
    0.0940   -3.0330    0.6030 C   0  0  2  0  0  0  0  0  0  0  0  0
   -0.9130   -2.2400   -0.0120 N   0  0  0  0  0  0  0  0  0  0  0  0
    1.2920   -2.3090    1.0230 C   0  0  0  0  0  0  0  0  0  0  0  0
    2.2960   -2.9210    1.5310 O   0  0  0  0  0  0  0  0  0  0  0  0
    1.9840   -3.7070   -1.7900 H   0  0  0  0  0  0  0  0  0  0  0  0
    0.4250   -2.8460   -2.0260 H   0  0  0  0  0  0  0  0  0  0  0  0
    0.5710   -4.5840   -2.4030 H   0  0  0  0  0  0  0  0  0  0  0  0
   -0.4690   -4.8280   -0.3800 H   0  0  0  0  0  0  0  0  0  0  0  0
    1.7370   -5.6800   -0.3110 H   0  0  0  0  0  0  0  0  0  0  0  0
   -0.3540   -3.5340    1.4930 H   0  0  0  0  0  0  0  0  0  0  0  0
   -0.6670   -1.5440   -0.7360 H   0  0  0  0  0  0  0  0  0  0  0  0
    1.3720   -0.9050    0.8760 N   0  0  0  0  0  0  0  0  0  0  0  0
    2.5880   -0.2260    1.2920 C   0  0  1  0  0  0  0  0  0  0  0  0
    3.0410    0.6500    0.1570 C   0  0  0  0  0  0  0  0  0  0  0  0
    3.3190   -0.1660   -1.0760 C   0  0  0  0  0  0  0  0  0  0  0  0
    4.5190   -0.7510   -1.4450 C   0  0  0  0  0  0  0  0  0  0  0  0
    4.2920   -1.3700   -2.6030 N   0  0  0  0  0  0  0  0  0  0  0  0
    3.0120   -1.2140   -2.9960 C   0  0  0  0  0  0  0  0  0  0  0  0
    2.4160   -0.4670   -2.0440 N   0  0  0  0  0  0  0  0  0  0  0  0
    2.4320    0.5940    2.5010 C   0  0  0  0  0  0  0  0  0  0  0  0
    3.4510    1.2330    2.8800 O   0  0  0  0  0  0  0  0  0  0  0  0
    1.2920    0.7170    3.2390 O   0  0  0  0  0  0  0  0  0  0  0  0
    0.6110   -0.3050    0.4850 H   0  0  0  0  0  0  0  0  0  0  0  0
    3.3930   -0.9890    1.4990 H   0  0  0  0  0  0  0  0  0  0  0  0
    3.9570    1.2190    0.3920 H   0  0  0  0  0  0  0  0  0  0  0  0
    2.2690    1.3820   -0.1510 H   0  0  0  0  0  0  0  0  0  0  0  0
    5.4520   -0.7130   -0.9020 H   0  0  0  0  0  0  0  0  0  0  0  0
    4.9980   -1.9170   -3.1610 H   0  0  0  0  0  0  0  0  0  0  0  0
    2.5260   -1.5920   -3.8810 H   0  0  0  0  0  0  0  0  0  0  0  0
  1 12  1  0  0  0  0
  1  2  1  0  0  0  0
  2  3  2  0  0  0  0
  3 14  1  0  0  0  0
  4  5  1  0  0  0  0
  4  2  1  0  0  0  0
  5 16  1  0  0  0  0
  6  5  1  0  0  0  0
  6 19  1  0  0  0  0
  6 18  1  0  0  0  0
  7  6  1  0  0  0  0
  8 22  1  6  0  0  0
  8  7  1  0  0  0  0
  8  9  1  0  0  0  0
  8 10  1  0  0  0  0
  9 24  1  0  0  0  0
 10 11  2  0  0  0  0
 13  1  1  0  0  0  0
 15  4  1  0  0  0  0
 17  5  1  0  0  0  0
 20  7  1  0  0  0  0
 21  7  1  0  0  0  0
 23  9  1  0  0  0  0
 25 26  1  0  0  0  0
 26 35  1  6  0  0  0
 26 27  1  0  0  0  0
 26 28  1  0  0  0  0
 28 30  1  0  0  0  0
 28 37  1  1  0  0  0
 29 10  1  0  0  0  0
 29 28  1  0  0  0  0
 30 31  2  0  0  0  0
 32 25  1  0  0  0  0
 33 25  1  0  0  0  0
 34 25  1  0  0  0  0
 36 27  1  0  0  0  0
 38 29  1  0  0  0  0
 39 30  1  0  0  0  0
 39 40  1  0  0  0  0
 40 51  1  1  0  0  0
 40 47  1  0  0  0  0
 41 52  1  0  0  0  0
 41 40  1  0  0  0  0
 42 41  1  0  0  0  0
 43 42  2  0  0  0  0
 43 54  1  0  0  0  0
 44 43  1  0  0  0  0
 45 44  1  0  0  0  0
 45 46  2  0  0  0  0
 46 42  1  0  0  0  0
 47 48  2  0  0  0  0
 47 49  1  0  0  0  0
 50 39  1  0  0  0  0
 53 41  1  0  0  0  0
 55 44  1  0  0  0  0
 56 45  1  0  0  0  0
M  END
$$$$
