RTK.pdb
 OpenBabel07022418073D

 60 59  0  0  1  0  0  0  0  0999 V2000
    1.0780    0.5500    6.9530 N   0  0  0  0  0  0  0  0  0  0  0  0
    2.0600    0.0230    6.0880 C   0  0  0  0  0  0  0  0  0  0  0  0
    3.2440   -0.2010    6.5800 N   0  0  0  0  0  0  0  0  0  0  0  0
    1.7760   -0.2500    4.7170 N   0  0  0  0  0  0  0  0  0  0  0  0
    2.7540   -0.9260    3.9040 C   0  0  0  0  0  0  0  0  0  0  0  0
    2.4470   -0.9740    2.4620 C   0  0  0  0  0  0  0  0  0  0  0  0
    2.4530    0.2390    1.6540 C   0  0  0  0  0  0  0  0  0  0  0  0
    1.6460    1.4170    1.9330 C   0  0  2  0  0  0  0  0  0  0  0  0
    1.9160    2.0750    3.2130 N   0  0  0  0  0  0  0  0  0  0  0  0
    0.1810    1.2880    1.7390 C   0  0  0  0  0  0  0  0  0  0  0  0
   -0.6650    1.5260    2.6220 O   0  0  0  0  0  0  0  0  0  0  0  0
    1.3570    1.3170    7.5990 H   0  0  0  0  0  0  0  0  0  0  0  0
    0.1140    0.1830    6.9440 H   0  0  0  0  0  0  0  0  0  0  0  0
    3.4490    0.0040    7.5750 H   0  0  0  0  0  0  0  0  0  0  0  0
    0.8450    0.0140    4.3410 H   0  0  0  0  0  0  0  0  0  0  0  0
    3.7940   -0.5430    4.1200 H   0  0  0  0  0  0  0  0  0  0  0  0
    2.8040   -1.9760    4.3290 H   0  0  0  0  0  0  0  0  0  0  0  0
    1.5060   -1.6080    2.3150 H   0  0  0  0  0  0  0  0  0  0  0  0
    3.2300   -1.6660    2.0000 H   0  0  0  0  0  0  0  0  0  0  0  0
    3.5320    0.5860    1.5780 H   0  0  0  0  0  0  0  0  0  0  0  0
    2.2240   -0.0750    0.5870 H   0  0  0  0  0  0  0  0  0  0  0  0
    1.9470    2.2080    1.1720 H   0  0  0  0  0  0  0  0  0  0  0  0
    1.2410    2.8630    3.3410 H   0  0  0  0  0  0  0  0  0  0  0  0
    2.8970    2.3830    3.2870 H   0  0  0  0  0  0  0  0  0  0  0  0
   -1.8330    3.1980   -0.3210 C   0  0  0  0  0  0  0  0  0  0  0  0
   -2.2160    1.8160   -0.7620 C   0  0  1  0  0  0  0  0  0  0  0  0
   -1.4900    1.5550   -1.9460 O   0  0  0  0  0  0  0  0  0  0  0  0
   -1.7360    0.7500    0.2360 C   0  0  2  0  0  0  0  0  0  0  0  0
   -0.3180    0.8720    0.4650 N   0  0  0  0  0  0  0  0  0  0  0  0
   -2.1540   -0.5930   -0.2220 C   0  0  0  0  0  0  0  0  0  0  0  0
   -3.3920   -0.7930   -0.4350 O   0  0  0  0  0  0  0  0  0  0  0  0
   -2.6770    3.9230   -0.4500 H   0  0  0  0  0  0  0  0  0  0  0  0
   -0.9370    3.5850   -0.8880 H   0  0  0  0  0  0  0  0  0  0  0  0
   -1.5450    3.2770    0.7400 H   0  0  0  0  0  0  0  0  0  0  0  0
   -3.3060    1.7170   -0.9260 H   0  0  0  0  0  0  0  0  0  0  0  0
   -0.6120    2.0140   -1.9140 H   0  0  0  0  0  0  0  0  0  0  0  0
   -2.2540    1.0000    1.1830 H   0  0  0  0  0  0  0  0  0  0  0  0
    0.3310    0.6510   -0.3100 H   0  0  0  0  0  0  0  0  0  0  0  0
   -1.2550   -1.6480   -0.4310 N   0  0  0  0  0  0  0  0  0  0  0  0
   -1.7680   -2.9310   -0.8850 C   0  0  1  0  0  0  0  0  0  0  0  0
   -1.0720   -3.3950   -2.1360 C   0  0  0  0  0  0  0  0  0  0  0  0
   -1.2310   -2.4510   -3.2860 C   0  0  0  0  0  0  0  0  0  0  0  0
   -0.5350   -2.9100   -4.5310 C   0  0  0  0  0  0  0  0  0  0  0  0
   -0.9920   -4.2230   -5.0550 C   0  0  0  0  0  0  0  0  0  0  0  0
   -2.3800   -4.2850   -5.4070 N   0  0  0  0  0  0  0  0  0  0  0  0
   -1.5430   -3.9970    0.1320 C   0  0  0  0  0  0  0  0  0  0  0  0
   -1.8810   -5.1750    0.0420 O   0  0  0  0  0  0  0  0  0  0  0  0
   -0.8710   -3.5860    1.3070 O   0  0  0  0  0  0  0  0  0  0  0  0
   -0.2540   -1.4730   -0.2510 H   0  0  0  0  0  0  0  0  0  0  0  0
   -2.8690   -2.8730   -1.0100 H   0  0  0  0  0  0  0  0  0  0  0  0
   -0.0050   -3.5590   -1.8870 H   0  0  0  0  0  0  0  0  0  0  0  0
   -1.4960   -4.3990   -2.3840 H   0  0  0  0  0  0  0  0  0  0  0  0
   -0.8870   -1.4280   -3.0630 H   0  0  0  0  0  0  0  0  0  0  0  0
   -2.3160   -2.3880   -3.5210 H   0  0  0  0  0  0  0  0  0  0  0  0
    0.5550   -2.9880   -4.3270 H   0  0  0  0  0  0  0  0  0  0  0  0
   -0.6770   -2.1550   -5.3330 H   0  0  0  0  0  0  0  0  0  0  0  0
   -0.6790   -5.0800   -4.3890 H   0  0  0  0  0  0  0  0  0  0  0  0
   -0.4160   -4.4030   -6.0130 H   0  0  0  0  0  0  0  0  0  0  0  0
   -2.9850   -4.4110   -4.5660 H   0  0  0  0  0  0  0  0  0  0  0  0
   -2.6100   -5.0610   -6.0580 H   0  0  0  0  0  0  0  0  0  0  0  0
  1 12  1  0  0  0  0
  2  3  2  0  0  0  0
  2  1  1  0  0  0  0
  3 14  1  0  0  0  0
  4  2  1  0  0  0  0
  5 16  1  0  0  0  0
  5 17  1  0  0  0  0
  5  4  1  0  0  0  0
  6  5  1  0  0  0  0
  7  8  1  0  0  0  0
  7  6  1  0  0  0  0
  8 22  1  6  0  0  0
  8  9  1  0  0  0  0
  9 24  1  0  0  0  0
  9 23  1  0  0  0  0
 10  8  1  0  0  0  0
 10 11  2  0  0  0  0
 13  1  1  0  0  0  0
 15  4  1  0  0  0  0
 18  6  1  0  0  0  0
 19  6  1  0  0  0  0
 20  7  1  0  0  0  0
 21  7  1  0  0  0  0
 25 34  1  0  0  0  0
 26 35  1  6  0  0  0
 26 25  1  0  0  0  0
 26 28  1  0  0  0  0
 27 36  1  0  0  0  0
 27 26  1  0  0  0  0
 28 29  1  0  0  0  0
 28 37  1  1  0  0  0
 29 10  1  0  0  0  0
 30 28  1  0  0  0  0
 31 30  2  0  0  0  0
 32 25  1  0  0  0  0
 33 25  1  0  0  0  0
 38 29  1  0  0  0  0
 39 49  1  0  0  0  0
 39 30  1  0  0  0  0
 40 50  1  6  0  0  0
 40 39  1  0  0  0  0
 40 46  1  0  0  0  0
 41 51  1  0  0  0  0
 41 40  1  0  0  0  0
 42 53  1  0  0  0  0
 42 41  1  0  0  0  0
 43 55  1  0  0  0  0
 43 42  1  0  0  0  0
 44 43  1  0  0  0  0
 44 57  1  0  0  0  0
 45 44  1  0  0  0  0
 45 59  1  0  0  0  0
 46 48  1  0  0  0  0
 47 46  2  0  0  0  0
 52 41  1  0  0  0  0
 54 42  1  0  0  0  0
 56 43  1  0  0  0  0
 58 44  1  0  0  0  0
 60 45  1  0  0  0  0
M  END
$$$$
