RTL.pdb
 OpenBabel07022418073D

 58 57  0  0  1  0  0  0  0  0999 V2000
    3.9430    1.1230    6.5430 N   0  0  0  0  0  0  0  0  0  0  0  0
    3.3950    0.6620    5.2910 C   0  0  0  0  0  0  0  0  0  0  0  0
    2.1240    0.4640    5.2610 N   0  0  0  0  0  0  0  0  0  0  0  0
    4.2180    0.4400    4.1660 N   0  0  0  0  0  0  0  0  0  0  0  0
    3.7270   -0.4070    3.0900 C   0  0  0  0  0  0  0  0  0  0  0  0
    4.7390   -0.5780    2.0100 C   0  0  0  0  0  0  0  0  0  0  0  0
    4.2650   -1.4500    0.9110 C   0  0  0  0  0  0  0  0  0  0  0  0
    3.0700   -1.0200    0.1440 C   0  0  2  0  0  0  0  0  0  0  0  0
    3.2050    0.2620   -0.5190 N   0  0  0  0  0  0  0  0  0  0  0  0
    1.7890   -1.2270    0.8170 C   0  0  0  0  0  0  0  0  0  0  0  0
    1.6730   -2.2150    1.5740 O   0  0  0  0  0  0  0  0  0  0  0  0
    3.3680    1.6550    7.2070 H   0  0  0  0  0  0  0  0  0  0  0  0
    4.9350    0.9240    6.7960 H   0  0  0  0  0  0  0  0  0  0  0  0
    1.5120    0.6180    6.0660 H   0  0  0  0  0  0  0  0  0  0  0  0
    5.1510    0.9010    4.1600 H   0  0  0  0  0  0  0  0  0  0  0  0
    3.4720   -1.4090    3.4890 H   0  0  0  0  0  0  0  0  0  0  0  0
    2.8180    0.0730    2.6800 H   0  0  0  0  0  0  0  0  0  0  0  0
    5.1460    0.3910    1.6400 H   0  0  0  0  0  0  0  0  0  0  0  0
    5.6200   -1.0990    2.4810 H   0  0  0  0  0  0  0  0  0  0  0  0
    4.0380   -2.4670    1.3260 H   0  0  0  0  0  0  0  0  0  0  0  0
    5.0980   -1.5940    0.1580 H   0  0  0  0  0  0  0  0  0  0  0  0
    3.0330   -1.7530   -0.7570 H   0  0  0  0  0  0  0  0  0  0  0  0
    2.6660    0.2930   -1.4110 H   0  0  0  0  0  0  0  0  0  0  0  0
    2.9940    1.0530    0.1200 H   0  0  0  0  0  0  0  0  0  0  0  0
   -2.3100   -0.0480    2.9390 C   0  0  0  0  0  0  0  0  0  0  0  0
   -1.0940    0.4700    2.1760 C   0  0  1  0  0  0  0  0  0  0  0  0
   -0.1360    0.8110    3.1260 O   0  0  0  0  0  0  0  0  0  0  0  0
   -0.5630   -0.6790    1.3640 C   0  0  2  0  0  0  0  0  0  0  0  0
    0.6620   -0.3830    0.6660 N   0  0  0  0  0  0  0  0  0  0  0  0
   -1.6030   -1.1970    0.4180 C   0  0  0  0  0  0  0  0  0  0  0  0
   -2.7320   -1.5150    0.8660 O   0  0  0  0  0  0  0  0  0  0  0  0
   -2.3210    0.4070    3.9720 H   0  0  0  0  0  0  0  0  0  0  0  0
   -2.2430   -1.1410    3.1160 H   0  0  0  0  0  0  0  0  0  0  0  0
   -3.2530    0.1480    2.4150 H   0  0  0  0  0  0  0  0  0  0  0  0
   -1.3670    1.3440    1.5470 H   0  0  0  0  0  0  0  0  0  0  0  0
   -0.2750    0.1800    3.8930 H   0  0  0  0  0  0  0  0  0  0  0  0
   -0.3590   -1.5090    2.0720 H   0  0  0  0  0  0  0  0  0  0  0  0
    0.7010    0.4500    0.0580 H   0  0  0  0  0  0  0  0  0  0  0  0
   -4.1530   -0.2730   -4.8830 C   0  0  0  0  0  0  0  0  0  0  0  0
   -3.8430   -1.3540   -3.8320 C   0  0  0  0  0  0  0  0  0  0  0  0
   -5.0930   -1.6400   -3.0010 C   0  0  0  0  0  0  0  0  0  0  0  0
   -2.7640   -0.8640   -2.9060 C   0  0  0  0  0  0  0  0  0  0  0  0
   -2.4300   -1.8630   -1.8520 C   0  0  2  0  0  0  0  0  0  0  0  0
   -1.3810   -1.3480   -0.9580 N   0  0  0  0  0  0  0  0  0  0  0  0
   -1.9190   -3.1050   -2.4640 C   0  0  0  0  0  0  0  0  0  0  0  0
   -0.7200   -3.4600   -2.1880 O   0  0  0  0  0  0  0  0  0  0  0  0
   -2.6000   -3.9400   -3.3090 O   0  0  0  0  0  0  0  0  0  0  0  0
   -5.1890   -0.4660   -5.1980 H   0  0  0  0  0  0  0  0  0  0  0  0
   -3.4740   -0.3710   -5.7290 H   0  0  0  0  0  0  0  0  0  0  0  0
   -4.0970    0.7340   -4.4160 H   0  0  0  0  0  0  0  0  0  0  0  0
   -3.5460   -2.2350   -4.4220 H   0  0  0  0  0  0  0  0  0  0  0  0
   -5.9460   -1.8000   -3.6920 H   0  0  0  0  0  0  0  0  0  0  0  0
   -4.9360   -2.5840   -2.4520 H   0  0  0  0  0  0  0  0  0  0  0  0
   -5.3200   -0.8080   -2.3300 H   0  0  0  0  0  0  0  0  0  0  0  0
   -1.8730   -0.6510   -3.5690 H   0  0  0  0  0  0  0  0  0  0  0  0
   -3.0340    0.1340   -2.4960 H   0  0  0  0  0  0  0  0  0  0  0  0
   -3.3430   -2.1100   -1.2690 H   0  0  0  0  0  0  0  0  0  0  0  0
   -0.4780   -1.1060   -1.3890 H   0  0  0  0  0  0  0  0  0  0  0  0
  1 13  1  0  0  0  0
  1 12  1  0  0  0  0
  2  1  1  0  0  0  0
  3  2  2  0  0  0  0
  3 14  1  0  0  0  0
  4  2  1  0  0  0  0
  5 16  1  0  0  0  0
  5  4  1  0  0  0  0
  6 19  1  0  0  0  0
  6  5  1  0  0  0  0
  7 20  1  0  0  0  0
  7  6  1  0  0  0  0
  8 22  1  6  0  0  0
  8 10  1  0  0  0  0
  8  7  1  0  0  0  0
  9 24  1  0  0  0  0
  9  8  1  0  0  0  0
 10 11  2  0  0  0  0
 15  4  1  0  0  0  0
 17  5  1  0  0  0  0
 18  6  1  0  0  0  0
 21  7  1  0  0  0  0
 23  9  1  0  0  0  0
 25 33  1  0  0  0  0
 25 32  1  0  0  0  0
 26 35  1  6  0  0  0
 26 25  1  0  0  0  0
 26 27  1  0  0  0  0
 27 36  1  0  0  0  0
 28 37  1  1  0  0  0
 28 26  1  0  0  0  0
 29 10  1  0  0  0  0
 29 28  1  0  0  0  0
 30 31  2  0  0  0  0
 30 28  1  0  0  0  0
 34 25  1  0  0  0  0
 38 29  1  0  0  0  0
 39 50  1  0  0  0  0
 39 40  1  0  0  0  0
 40 41  1  0  0  0  0
 40 42  1  0  0  0  0
 41 53  1  0  0  0  0
 41 54  1  0  0  0  0
 42 56  1  0  0  0  0
 42 43  1  0  0  0  0
 43 57  1  1  0  0  0
 43 44  1  0  0  0  0
 44 30  1  0  0  0  0
 45 46  1  0  0  0  0
 45 43  1  0  0  0  0
 47 45  2  0  0  0  0
 48 39  1  0  0  0  0
 49 39  1  0  0  0  0
 51 40  1  0  0  0  0
 52 41  1  0  0  0  0
 55 42  1  0  0  0  0
 58 44  1  0  0  0  0
M  END
$$$$
