RTP.pdb
 OpenBabel07022418073D

 53 53  0  0  1  0  0  0  0  0999 V2000
    6.4050    2.6500    5.5590 N   0  0  0  0  0  0  0  0  0  0  0  0
    5.3590    2.1530    4.7570 C   0  0  0  0  0  0  0  0  0  0  0  0
    5.5230    1.0440    4.1230 N   0  0  0  0  0  0  0  0  0  0  0  0
    4.1230    2.8250    4.6170 N   0  0  0  0  0  0  0  0  0  0  0  0
    3.2100    2.6190    3.5360 C   0  0  0  0  0  0  0  0  0  0  0  0
    2.5630    1.2270    3.5640 C   0  0  0  0  0  0  0  0  0  0  0  0
    1.6360    1.1630    2.3740 C   0  0  0  0  0  0  0  0  0  0  0  0
    0.9280   -0.1580    2.2720 C   0  0  2  0  0  0  0  0  0  0  0  0
    1.8150   -1.2710    2.1330 N   0  0  0  0  0  0  0  0  0  0  0  0
   -0.1120   -0.1390    1.2100 C   0  0  0  0  0  0  0  0  0  0  0  0
   -0.9920    0.7640    1.1550 O   0  0  0  0  0  0  0  0  0  0  0  0
    7.3650    2.7030    5.1450 H   0  0  0  0  0  0  0  0  0  0  0  0
    6.3070    2.9760    6.5440 H   0  0  0  0  0  0  0  0  0  0  0  0
    6.4050    0.4790    4.1690 H   0  0  0  0  0  0  0  0  0  0  0  0
    3.8920    3.5220    5.3850 H   0  0  0  0  0  0  0  0  0  0  0  0
    3.7340    2.7780    2.5760 H   0  0  0  0  0  0  0  0  0  0  0  0
    2.4000    3.3650    3.5820 H   0  0  0  0  0  0  0  0  0  0  0  0
    1.9270    1.1360    4.4670 H   0  0  0  0  0  0  0  0  0  0  0  0
    3.2960    0.4210    3.5810 H   0  0  0  0  0  0  0  0  0  0  0  0
    0.8720    1.9640    2.3980 H   0  0  0  0  0  0  0  0  0  0  0  0
    2.2170    1.3060    1.4360 H   0  0  0  0  0  0  0  0  0  0  0  0
    0.3620   -0.3220    3.2370 H   0  0  0  0  0  0  0  0  0  0  0  0
    2.4590   -1.3270    2.9490 H   0  0  0  0  0  0  0  0  0  0  0  0
    1.2590   -2.1530    2.0930 H   0  0  0  0  0  0  0  0  0  0  0  0
    0.7200   -1.8400   -2.2580 C   0  0  0  0  0  0  0  0  0  0  0  0
   -0.4030   -0.8680   -2.1220 C   0  0  1  0  0  0  0  0  0  0  0  0
   -1.1180   -0.7970   -3.2750 O   0  0  0  0  0  0  0  0  0  0  0  0
   -1.2190   -1.1050   -0.8570 C   0  0  2  0  0  0  0  0  0  0  0  0
   -0.1700   -1.1390    0.2010 N   0  0  0  0  0  0  0  0  0  0  0  0
   -1.9030   -2.3870   -0.8150 C   0  0  0  0  0  0  0  0  0  0  0  0
   -1.3660   -3.3370   -0.1380 O   0  0  0  0  0  0  0  0  0  0  0  0
    1.6560   -1.3760   -1.8870 H   0  0  0  0  0  0  0  0  0  0  0  0
    0.5930   -2.7660   -1.6400 H   0  0  0  0  0  0  0  0  0  0  0  0
    0.9210   -2.1310   -3.3100 H   0  0  0  0  0  0  0  0  0  0  0  0
    0.0530    0.1550   -1.9580 H   0  0  0  0  0  0  0  0  0  0  0  0
   -0.7190   -1.3210   -4.0120 H   0  0  0  0  0  0  0  0  0  0  0  0
   -1.8530   -0.2420   -0.6940 H   0  0  0  0  0  0  0  0  0  0  0  0
    0.5310   -1.9010    0.2060 H   0  0  0  0  0  0  0  0  0  0  0  0
   -3.1370   -2.7220   -1.4530 N   0  0  0  0  0  0  0  0  0  0  0  0
   -3.7570   -4.0610   -1.4280 C   0  0  0  0  0  0  0  0  0  0  0  0
   -4.0790   -4.2430   -2.8860 C   0  0  0  0  0  0  0  0  0  0  0  0
   -4.4920   -2.8360   -3.3240 C   0  0  0  0  0  0  0  0  0  0  0  0
   -4.0700   -1.9180   -2.2030 C   0  0  1  0  0  0  0  0  0  0  0  0
   -5.2720   -1.6170   -1.3530 C   0  0  0  0  0  0  0  0  0  0  0  0
   -5.3110   -1.9790   -0.1590 O   0  0  0  0  0  0  0  0  0  0  0  0
   -6.3610   -0.9350   -1.8690 O   0  0  0  0  0  0  0  0  0  0  0  0
   -3.0370   -4.8130   -1.0490 H   0  0  0  0  0  0  0  0  0  0  0  0
   -4.6590   -4.0560   -0.8230 H   0  0  0  0  0  0  0  0  0  0  0  0
   -4.8730   -4.9870   -3.0720 H   0  0  0  0  0  0  0  0  0  0  0  0
   -3.1530   -4.5700   -3.4100 H   0  0  0  0  0  0  0  0  0  0  0  0
   -4.0340   -2.5520   -4.2840 H   0  0  0  0  0  0  0  0  0  0  0  0
   -5.5910   -2.8650   -3.4730 H   0  0  0  0  0  0  0  0  0  0  0  0
   -3.6430   -0.9650   -2.5890 H   0  0  0  0  0  0  0  0  0  0  0  0
  1 13  1  0  0  0  0
  2  1  1  0  0  0  0
  3 14  1  0  0  0  0
  3  2  2  0  0  0  0
  4  2  1  0  0  0  0
  4 15  1  0  0  0  0
  5  6  1  0  0  0  0
  5 17  1  0  0  0  0
  5  4  1  0  0  0  0
  6 19  1  0  0  0  0
  6 18  1  0  0  0  0
  7 20  1  0  0  0  0
  7  6  1  0  0  0  0
  8  7  1  0  0  0  0
  8 22  1  1  0  0  0
  9  8  1  0  0  0  0
  9 23  1  0  0  0  0
 10  8  1  0  0  0  0
 11 10  2  0  0  0  0
 12  1  1  0  0  0  0
 16  5  1  0  0  0  0
 21  7  1  0  0  0  0
 24  9  1  0  0  0  0
 25 26  1  0  0  0  0
 25 32  1  0  0  0  0
 25 33  1  0  0  0  0
 26 35  1  1  0  0  0
 26 28  1  0  0  0  0
 27 26  1  0  0  0  0
 28 30  1  0  0  0  0
 28 37  1  1  0  0  0
 28 29  1  0  0  0  0
 29 38  1  0  0  0  0
 29 10  1  0  0  0  0
 30 31  2  0  0  0  0
 34 25  1  0  0  0  0
 36 27  1  0  0  0  0
 39 40  1  0  0  0  0
 39 30  1  0  0  0  0
 40 47  1  0  0  0  0
 40 48  1  0  0  0  0
 41 40  1  0  0  0  0
 42 41  1  0  0  0  0
 42 43  1  0  0  0  0
 43 53  1  6  0  0  0
 43 39  1  0  0  0  0
 43 44  1  0  0  0  0
 44 45  1  0  0  0  0
 46 44  2  0  0  0  0
 49 41  1  0  0  0  0
 50 41  1  0  0  0  0
 51 42  1  0  0  0  0
 52 42  1  0  0  0  0
M  END
$$$$
