RTS.pdb
 OpenBabel07022418073D

 50 49  0  0  1  0  0  0  0  0999 V2000
   -0.3300   -5.1870    4.9730 N   0  0  0  0  0  0  0  0  0  0  0  0
    0.5220   -4.0900    4.6380 C   0  0  0  0  0  0  0  0  0  0  0  0
    0.8770   -3.2940    5.5900 N   0  0  0  0  0  0  0  0  0  0  0  0
    0.9770   -3.8540    3.3190 N   0  0  0  0  0  0  0  0  0  0  0  0
    1.9770   -2.8210    3.0080 C   0  0  0  0  0  0  0  0  0  0  0  0
    2.2060   -2.8570    1.5380 C   0  0  0  0  0  0  0  0  0  0  0  0
    3.1940   -1.8990    0.9900 C   0  0  0  0  0  0  0  0  0  0  0  0
    2.9420   -0.4570    1.1890 C   0  0  2  0  0  0  0  0  0  0  0  0
    2.8830   -0.1390    2.5780 N   0  0  0  0  0  0  0  0  0  0  0  0
    1.7710    0.0650    0.4480 C   0  0  0  0  0  0  0  0  0  0  0  0
    1.6550   -0.1660   -0.7710 O   0  0  0  0  0  0  0  0  0  0  0  0
   -1.2230   -5.0750    5.5030 H   0  0  0  0  0  0  0  0  0  0  0  0
   -0.0980   -6.1810    4.6980 H   0  0  0  0  0  0  0  0  0  0  0  0
    0.5730   -3.4200    6.5750 H   0  0  0  0  0  0  0  0  0  0  0  0
    0.5690   -4.4500    2.5730 H   0  0  0  0  0  0  0  0  0  0  0  0
    1.5400   -1.8840    3.4020 H   0  0  0  0  0  0  0  0  0  0  0  0
    2.9040   -3.1340    3.5390 H   0  0  0  0  0  0  0  0  0  0  0  0
    2.6110   -3.8900    1.3160 H   0  0  0  0  0  0  0  0  0  0  0  0
    1.2330   -2.8490    0.9730 H   0  0  0  0  0  0  0  0  0  0  0  0
    4.2000   -2.1760    1.4080 H   0  0  0  0  0  0  0  0  0  0  0  0
    3.2980   -2.1360   -0.1060 H   0  0  0  0  0  0  0  0  0  0  0  0
    3.8480    0.0840    0.7850 H   0  0  0  0  0  0  0  0  0  0  0  0
    3.7390   -0.4380    3.0970 H   0  0  0  0  0  0  0  0  0  0  0  0
    2.7430    0.8620    2.8050 H   0  0  0  0  0  0  0  0  0  0  0  0
    0.4260    3.6540    0.5410 C   0  0  0  0  0  0  0  0  0  0  0  0
   -0.0660    2.5690   -0.3950 C   0  0  1  0  0  0  0  0  0  0  0  0
    0.9660    2.3240   -1.3080 O   0  0  0  0  0  0  0  0  0  0  0  0
   -0.3840    1.3240    0.3410 C   0  0  2  0  0  0  0  0  0  0  0  0
    0.7490    0.8330    1.0690 N   0  0  0  0  0  0  0  0  0  0  0  0
   -1.1040    0.2990   -0.4480 C   0  0  0  0  0  0  0  0  0  0  0  0
   -0.7630   -0.9060   -0.3960 O   0  0  0  0  0  0  0  0  0  0  0  0
   -0.3240    3.9600    1.2750 H   0  0  0  0  0  0  0  0  0  0  0  0
    0.8190    4.5190   -0.0330 H   0  0  0  0  0  0  0  0  0  0  0  0
    1.3010    3.2170    1.0950 H   0  0  0  0  0  0  0  0  0  0  0  0
   -0.9050    2.9990   -0.9660 H   0  0  0  0  0  0  0  0  0  0  0  0
    1.0940    3.1430   -1.8380 H   0  0  0  0  0  0  0  0  0  0  0  0
   -1.1580    1.6020    1.1380 H   0  0  0  0  0  0  0  0  0  0  0  0
    0.8400    1.0390    2.0910 H   0  0  0  0  0  0  0  0  0  0  0  0
   -4.9580   -1.4450   -2.5970 O   0  0  0  0  0  0  0  0  0  0  0  0
   -4.3760   -0.4440   -1.8100 C   0  0  0  0  0  0  0  0  0  0  0  0
   -2.9090   -0.3960   -2.0680 C   0  0  2  0  0  0  0  0  0  0  0  0
   -2.2030    0.6070   -1.2960 N   0  0  0  0  0  0  0  0  0  0  0  0
   -2.6920   -0.2000   -3.5290 C   0  0  0  0  0  0  0  0  0  0  0  0
   -3.2570   -0.9690   -4.3280 O   0  0  0  0  0  0  0  0  0  0  0  0
   -1.8800    0.8120   -4.0090 O   0  0  0  0  0  0  0  0  0  0  0  0
   -5.7740   -1.1080   -3.0510 H   0  0  0  0  0  0  0  0  0  0  0  0
   -4.5670   -0.7150   -0.7520 H   0  0  0  0  0  0  0  0  0  0  0  0
   -4.8740    0.5340   -1.9760 H   0  0  0  0  0  0  0  0  0  0  0  0
   -2.4260   -1.3740   -1.8140 H   0  0  0  0  0  0  0  0  0  0  0  0
   -2.4940    1.5970   -1.3520 H   0  0  0  0  0  0  0  0  0  0  0  0
  1 12  1  0  0  0  0
  2  1  1  0  0  0  0
  2  3  2  0  0  0  0
  3 14  1  0  0  0  0
  4  2  1  0  0  0  0
  5  4  1  0  0  0  0
  5 16  1  0  0  0  0
  5 17  1  0  0  0  0
  6  5  1  0  0  0  0
  7  8  1  0  0  0  0
  7 20  1  0  0  0  0
  7  6  1  0  0  0  0
  8 22  1  6  0  0  0
  8  9  1  0  0  0  0
  9 24  1  0  0  0  0
  9 23  1  0  0  0  0
 10 29  1  0  0  0  0
 10  8  1  0  0  0  0
 11 10  2  0  0  0  0
 13  1  1  0  0  0  0
 15  4  1  0  0  0  0
 18  6  1  0  0  0  0
 19  6  1  0  0  0  0
 21  7  1  0  0  0  0
 25 34  1  0  0  0  0
 25 32  1  0  0  0  0
 26 35  1  6  0  0  0
 26 28  1  0  0  0  0
 26 25  1  0  0  0  0
 27 26  1  0  0  0  0
 28 29  1  0  0  0  0
 28 37  1  1  0  0  0
 29 38  1  0  0  0  0
 30 31  2  0  0  0  0
 30 28  1  0  0  0  0
 33 25  1  0  0  0  0
 36 27  1  0  0  0  0
 39 40  1  0  0  0  0
 40 47  1  0  0  0  0
 41 49  1  1  0  0  0
 41 40  1  0  0  0  0
 41 42  1  0  0  0  0
 42 30  1  0  0  0  0
 43 41  1  0  0  0  0
 44 43  2  0  0  0  0
 45 43  1  0  0  0  0
 46 39  1  0  0  0  0
 48 40  1  0  0  0  0
 50 42  1  0  0  0  0
M  END
$$$$
