RTT.pdb
 OpenBabel07022418073D

 53 52  0  0  1  0  0  0  0  0999 V2000
    3.6210   -1.7110    1.9890 N   0  0  0  0  0  0  0  0  0  0  0  0
    2.5460   -1.5550    2.9030 C   0  0  0  0  0  0  0  0  0  0  0  0
    2.6940   -0.8570    3.9970 N   0  0  0  0  0  0  0  0  0  0  0  0
    1.2890   -2.1670    2.6460 N   0  0  0  0  0  0  0  0  0  0  0  0
    0.4220   -2.6280    3.6870 C   0  0  0  0  0  0  0  0  0  0  0  0
   -0.2140   -1.5920    4.5300 C   0  0  0  0  0  0  0  0  0  0  0  0
   -1.1130   -0.6090    3.8830 C   0  0  0  0  0  0  0  0  0  0  0  0
   -2.3290   -1.1310    3.2110 C   0  0  2  0  0  0  0  0  0  0  0  0
   -3.1830   -1.8860    4.1150 N   0  0  0  0  0  0  0  0  0  0  0  0
   -2.1840   -1.7610    1.9050 C   0  0  0  0  0  0  0  0  0  0  0  0
   -2.4740   -2.9790    1.6720 O   0  0  0  0  0  0  0  0  0  0  0  0
    3.5880   -2.4010    1.2230 H   0  0  0  0  0  0  0  0  0  0  0  0
    4.4930   -1.1220    2.0640 H   0  0  0  0  0  0  0  0  0  0  0  0
    3.6100   -0.4170    4.1900 H   0  0  0  0  0  0  0  0  0  0  0  0
    1.0030   -2.2760    1.6550 H   0  0  0  0  0  0  0  0  0  0  0  0
    1.0430   -3.2790    4.3750 H   0  0  0  0  0  0  0  0  0  0  0  0
   -0.3520   -3.2900    3.2620 H   0  0  0  0  0  0  0  0  0  0  0  0
    0.6080   -1.0210    5.0610 H   0  0  0  0  0  0  0  0  0  0  0  0
   -0.7110   -2.1340    5.3830 H   0  0  0  0  0  0  0  0  0  0  0  0
   -1.3870    0.1710    4.6520 H   0  0  0  0  0  0  0  0  0  0  0  0
   -0.5510   -0.0180    3.1130 H   0  0  0  0  0  0  0  0  0  0  0  0
   -2.9610   -0.1880    3.0030 H   0  0  0  0  0  0  0  0  0  0  0  0
   -2.7090   -1.9810    5.0230 H   0  0  0  0  0  0  0  0  0  0  0  0
   -3.5210   -2.7770    3.6970 H   0  0  0  0  0  0  0  0  0  0  0  0
   -3.3250   -0.2790   -1.6650 C   0  0  0  0  0  0  0  0  0  0  0  0
   -2.8820   -1.6550   -1.3370 C   0  0  1  0  0  0  0  0  0  0  0  0
   -2.5850   -2.3150   -2.5330 O   0  0  0  0  0  0  0  0  0  0  0  0
   -1.5790   -1.7160   -0.5270 C   0  0  2  0  0  0  0  0  0  0  0  0
   -1.7050   -1.0770    0.7350 N   0  0  0  0  0  0  0  0  0  0  0  0
   -0.5370   -1.2100   -1.4240 C   0  0  0  0  0  0  0  0  0  0  0  0
   -0.3010   -1.7770   -2.5530 O   0  0  0  0  0  0  0  0  0  0  0  0
   -3.1310    0.0310   -2.7230 H   0  0  0  0  0  0  0  0  0  0  0  0
   -4.4480   -0.2220   -1.5570 H   0  0  0  0  0  0  0  0  0  0  0  0
   -2.9230    0.5280   -1.0360 H   0  0  0  0  0  0  0  0  0  0  0  0
   -3.6820   -2.2460   -0.8640 H   0  0  0  0  0  0  0  0  0  0  0  0
   -2.2520   -3.2300   -2.3800 H   0  0  0  0  0  0  0  0  0  0  0  0
   -1.4840   -2.8040   -0.3440 H   0  0  0  0  0  0  0  0  0  0  0  0
   -1.4410   -0.0770    0.8170 H   0  0  0  0  0  0  0  0  0  0  0  0
    2.0470    2.1960   -3.5910 C   0  0  0  0  0  0  0  0  0  0  0  0
    0.9620    1.7400   -2.6470 C   0  0  1  0  0  0  0  0  0  0  0  0
   -0.2990    1.8000   -3.2370 O   0  0  0  0  0  0  0  0  0  0  0  0
    1.3110    0.3380   -2.1750 C   0  0  2  0  0  0  0  0  0  0  0  0
    0.3040   -0.0860   -1.1890 N   0  0  0  0  0  0  0  0  0  0  0  0
    2.5970    0.4620   -1.4510 C   0  0  0  0  0  0  0  0  0  0  0  0
    2.7280    0.2680   -0.2250 O   0  0  0  0  0  0  0  0  0  0  0  0
    3.7640    0.8180   -2.1570 O   0  0  0  0  0  0  0  0  0  0  0  0
    1.5850    2.8430   -4.3860 H   0  0  0  0  0  0  0  0  0  0  0  0
    2.8610    2.7530   -3.0770 H   0  0  0  0  0  0  0  0  0  0  0  0
    2.4730    1.3220   -4.0900 H   0  0  0  0  0  0  0  0  0  0  0  0
    0.9590    2.4350   -1.7870 H   0  0  0  0  0  0  0  0  0  0  0  0
   -0.5410    2.7800   -3.2530 H   0  0  0  0  0  0  0  0  0  0  0  0
    1.3390   -0.3600   -3.0190 H   0  0  0  0  0  0  0  0  0  0  0  0
    0.1950    0.4340   -0.3010 H   0  0  0  0  0  0  0  0  0  0  0  0
  1 13  1  0  0  0  0
  1  2  1  0  0  0  0
  2  3  2  0  0  0  0
  3 14  1  0  0  0  0
  4  2  1  0  0  0  0
  4  5  1  0  0  0  0
  5 16  1  0  0  0  0
  5  6  1  0  0  0  0
  6 18  1  0  0  0  0
  6 19  1  0  0  0  0
  7  6  1  0  0  0  0
  7 20  1  0  0  0  0
  8 22  1  6  0  0  0
  8  7  1  0  0  0  0
  8  9  1  0  0  0  0
  9 23  1  0  0  0  0
 10  8  1  0  0  0  0
 11 10  2  0  0  0  0
 12  1  1  0  0  0  0
 15  4  1  0  0  0  0
 17  5  1  0  0  0  0
 21  7  1  0  0  0  0
 24  9  1  0  0  0  0
 25 33  1  0  0  0  0
 25 26  1  0  0  0  0
 25 34  1  0  0  0  0
 26 35  1  1  0  0  0
 26 28  1  0  0  0  0
 27 36  1  0  0  0  0
 27 26  1  0  0  0  0
 28 37  1  1  0  0  0
 28 29  1  0  0  0  0
 29 38  1  0  0  0  0
 29 10  1  0  0  0  0
 30 43  1  0  0  0  0
 30 28  1  0  0  0  0
 31 30  2  0  0  0  0
 32 25  1  0  0  0  0
 39 48  1  0  0  0  0
 39 40  1  0  0  0  0
 40 42  1  0  0  0  0
 40 50  1  1  0  0  0
 41 40  1  0  0  0  0
 42 52  1  6  0  0  0
 42 44  1  0  0  0  0
 42 43  1  0  0  0  0
 43 53  1  0  0  0  0
 44 45  1  0  0  0  0
 46 44  2  0  0  0  0
 47 39  1  0  0  0  0
 49 39  1  0  0  0  0
 51 41  1  0  0  0  0
M  END
$$$$
