RTW.pdb
 OpenBabel07022418073D

 63 64  0  0  1  0  0  0  0  0999 V2000
   -3.0080    1.8860    4.1810 N   0  0  0  0  0  0  0  0  0  0  0  0
   -1.7700    1.8570    3.4550 C   0  0  0  0  0  0  0  0  0  0  0  0
   -1.6200    1.0220    2.5020 N   0  0  0  0  0  0  0  0  0  0  0  0
   -0.7350    2.7580    3.8130 N   0  0  0  0  0  0  0  0  0  0  0  0
    0.5610    2.7100    3.2180 C   0  0  0  0  0  0  0  0  0  0  0  0
    0.5360    3.1120    1.7400 C   0  0  0  0  0  0  0  0  0  0  0  0
    1.9270    3.0480    1.1650 C   0  0  0  0  0  0  0  0  0  0  0  0
    2.0170    3.4160   -0.2700 C   0  0  2  0  0  0  0  0  0  0  0  0
    1.5490    4.7720   -0.4630 N   0  0  0  0  0  0  0  0  0  0  0  0
    1.3860    2.4720   -1.2120 C   0  0  0  0  0  0  0  0  0  0  0  0
    0.5540    2.9100   -2.0500 O   0  0  0  0  0  0  0  0  0  0  0  0
   -3.8110    2.4320    3.8330 H   0  0  0  0  0  0  0  0  0  0  0  0
   -3.0940    1.3500    5.0680 H   0  0  0  0  0  0  0  0  0  0  0  0
   -2.3710    0.3450    2.2190 H   0  0  0  0  0  0  0  0  0  0  0  0
   -0.9530    3.4730    4.5410 H   0  0  0  0  0  0  0  0  0  0  0  0
    1.2410    3.4330    3.7100 H   0  0  0  0  0  0  0  0  0  0  0  0
    1.0040    1.6850    3.3210 H   0  0  0  0  0  0  0  0  0  0  0  0
   -0.0930    2.3490    1.2400 H   0  0  0  0  0  0  0  0  0  0  0  0
    0.0730    4.0950    1.6410 H   0  0  0  0  0  0  0  0  0  0  0  0
    2.5230    3.8270    1.7260 H   0  0  0  0  0  0  0  0  0  0  0  0
    2.4180    2.0950    1.3900 H   0  0  0  0  0  0  0  0  0  0  0  0
    3.1060    3.4240   -0.5360 H   0  0  0  0  0  0  0  0  0  0  0  0
    0.6110    4.7850   -0.9530 H   0  0  0  0  0  0  0  0  0  0  0  0
    1.3800    5.2550    0.4510 H   0  0  0  0  0  0  0  0  0  0  0  0
    2.8410    0.6180   -3.8470 C   0  0  0  0  0  0  0  0  0  0  0  0
    2.0540   -0.4090   -3.0790 C   0  0  1  0  0  0  0  0  0  0  0  0
    2.9350   -1.1660   -2.2790 O   0  0  0  0  0  0  0  0  0  0  0  0
    1.0020    0.2260   -2.1930 C   0  0  2  0  0  0  0  0  0  0  0  0
    1.6630    1.0830   -1.2330 N   0  0  0  0  0  0  0  0  0  0  0  0
    0.1930   -0.8570   -1.5170 C   0  0  0  0  0  0  0  0  0  0  0  0
    0.2270   -0.8270   -0.2620 O   0  0  0  0  0  0  0  0  0  0  0  0
    3.0160    1.5430   -3.2620 H   0  0  0  0  0  0  0  0  0  0  0  0
    3.8430    0.1720   -4.0620 H   0  0  0  0  0  0  0  0  0  0  0  0
    2.3610    0.9080   -4.7980 H   0  0  0  0  0  0  0  0  0  0  0  0
    1.6200   -1.1160   -3.8000 H   0  0  0  0  0  0  0  0  0  0  0  0
    2.5990   -1.2250   -1.3480 H   0  0  0  0  0  0  0  0  0  0  0  0
    0.3420    0.8380   -2.8380 H   0  0  0  0  0  0  0  0  0  0  0  0
    2.3580    0.7090   -0.5340 H   0  0  0  0  0  0  0  0  0  0  0  0
   -0.5250   -1.8070   -2.2280 N   0  0  0  0  0  0  0  0  0  0  0  0
   -1.2990   -2.8410   -1.5530 C   0  0  1  0  0  0  0  0  0  0  0  0
   -0.3090   -3.7010   -0.8280 C   0  0  0  0  0  0  0  0  0  0  0  0
   -0.8330   -4.8110   -0.0390 C   0  0  0  0  0  0  0  0  0  0  0  0
   -1.0200   -6.1080   -0.4860 C   0  0  0  0  0  0  0  0  0  0  0  0
   -1.5460   -6.8050    0.5110 N   0  0  0  0  0  0  0  0  0  0  0  0
   -1.7200   -6.0300    1.6100 C   0  0  0  0  0  0  0  0  0  0  0  0
   -2.2130   -6.3120    2.8830 C   0  0  0  0  0  0  0  0  0  0  0  0
   -2.2740   -5.3360    3.8640 C   0  0  0  0  0  0  0  0  0  0  0  0
   -1.8180   -4.0760    3.5060 C   0  0  0  0  0  0  0  0  0  0  0  0
   -1.3320   -3.7910    2.2560 C   0  0  0  0  0  0  0  0  0  0  0  0
   -1.2780   -4.7840    1.2800 C   0  0  0  0  0  0  0  0  0  0  0  0
   -2.2670   -2.1960   -0.6670 C   0  0  0  0  0  0  0  0  0  0  0  0
   -3.1230   -2.9660   -0.1080 O   0  0  0  0  0  0  0  0  0  0  0  0
   -2.3360   -0.8360   -0.3860 O   0  0  0  0  0  0  0  0  0  0  0  0
   -0.4900   -1.7500   -3.2770 H   0  0  0  0  0  0  0  0  0  0  0  0
   -1.8420   -3.4570   -2.3430 H   0  0  0  0  0  0  0  0  0  0  0  0
    0.4230   -4.1710   -1.5640 H   0  0  0  0  0  0  0  0  0  0  0  0
    0.3870   -3.0850   -0.1860 H   0  0  0  0  0  0  0  0  0  0  0  0
   -0.7790   -6.4840   -1.4720 H   0  0  0  0  0  0  0  0  0  0  0  0
   -1.8090   -7.8150    0.5000 H   0  0  0  0  0  0  0  0  0  0  0  0
   -2.5610   -7.3220    3.1130 H   0  0  0  0  0  0  0  0  0  0  0  0
   -2.6530   -5.5300    4.8590 H   0  0  0  0  0  0  0  0  0  0  0  0
   -1.8520   -3.2900    4.2540 H   0  0  0  0  0  0  0  0  0  0  0  0
   -0.9790   -2.8150    1.9810 H   0  0  0  0  0  0  0  0  0  0  0  0
  1 13  1  0  0  0  0
  2  4  1  0  0  0  0
  2  1  1  0  0  0  0
  3  2  2  0  0  0  0
  4 15  1  0  0  0  0
  5 17  1  0  0  0  0
  5 16  1  0  0  0  0
  5  4  1  0  0  0  0
  6  5  1  0  0  0  0
  7 21  1  0  0  0  0
  7 20  1  0  0  0  0
  7  6  1  0  0  0  0
  8 22  1  6  0  0  0
  8  7  1  0  0  0  0
  9  8  1  0  0  0  0
  9 24  1  0  0  0  0
 10  8  1  0  0  0  0
 11 10  2  0  0  0  0
 12  1  1  0  0  0  0
 14  3  1  0  0  0  0
 18  6  1  0  0  0  0
 19  6  1  0  0  0  0
 23  9  1  0  0  0  0
 25 32  1  0  0  0  0
 25 26  1  0  0  0  0
 26 35  1  6  0  0  0
 26 27  1  0  0  0  0
 26 28  1  0  0  0  0
 27 36  1  0  0  0  0
 28 37  1  6  0  0  0
 28 30  1  0  0  0  0
 28 29  1  0  0  0  0
 29 10  1  0  0  0  0
 29 38  1  0  0  0  0
 30 31  2  0  0  0  0
 33 25  1  0  0  0  0
 34 25  1  0  0  0  0
 39 40  1  0  0  0  0
 39 30  1  0  0  0  0
 40 55  1  6  0  0  0
 40 41  1  0  0  0  0
 40 51  1  0  0  0  0
 41 57  1  0  0  0  0
 41 42  1  0  0  0  0
 42 50  1  0  0  0  0
 43 42  2  0  0  0  0
 43 44  1  0  0  0  0
 44 45  1  0  0  0  0
 45 46  1  0  0  0  0
 46 60  1  0  0  0  0
 46 47  2  0  0  0  0
 47 61  1  0  0  0  0
 48 47  1  0  0  0  0
 48 62  1  0  0  0  0
 49 48  2  0  0  0  0
 50 45  2  0  0  0  0
 50 49  1  0  0  0  0
 51 53  2  0  0  0  0
 51 52  1  0  0  0  0
 54 39  1  0  0  0  0
 56 41  1  0  0  0  0
 58 43  1  0  0  0  0
 59 44  1  0  0  0  0
 63 49  1  0  0  0  0
M  END
$$$$
