RVC.pdb
 OpenBabel07022418073D

 52 51  0  0  1  0  0  0  0  0999 V2000
    5.3300   -1.7540    4.8270 N   0  0  0  0  0  0  0  0  0  0  0  0
    5.5190   -2.0100    3.4410 C   0  0  0  0  0  0  0  0  0  0  0  0
    6.6670   -2.3140    2.9360 N   0  0  0  0  0  0  0  0  0  0  0  0
    4.4210   -1.9400    2.5350 N   0  0  0  0  0  0  0  0  0  0  0  0
    4.5360   -2.6070    1.2530 C   0  0  0  0  0  0  0  0  0  0  0  0
    3.2800   -2.4210    0.4270 C   0  0  0  0  0  0  0  0  0  0  0  0
    2.9850   -0.9890    0.1430 C   0  0  0  0  0  0  0  0  0  0  0  0
    1.7570   -0.7490   -0.6720 C   0  0  2  0  0  0  0  0  0  0  0  0
    1.6580    0.7140   -0.8310 N   0  0  0  0  0  0  0  0  0  0  0  0
    0.5070   -1.2550   -0.0860 C   0  0  0  0  0  0  0  0  0  0  0  0
    0.3660   -2.4810    0.1190 O   0  0  0  0  0  0  0  0  0  0  0  0
    5.0360   -0.8270    5.1990 H   0  0  0  0  0  0  0  0  0  0  0  0
    5.4950   -2.5340    5.4950 H   0  0  0  0  0  0  0  0  0  0  0  0
    7.4720   -2.3660    3.5980 H   0  0  0  0  0  0  0  0  0  0  0  0
    3.5490   -1.4280    2.7680 H   0  0  0  0  0  0  0  0  0  0  0  0
    5.3630   -2.1060    0.7030 H   0  0  0  0  0  0  0  0  0  0  0  0
    4.8190   -3.6580    1.3570 H   0  0  0  0  0  0  0  0  0  0  0  0
    3.4770   -2.9540   -0.5490 H   0  0  0  0  0  0  0  0  0  0  0  0
    2.4870   -2.9670    0.9320 H   0  0  0  0  0  0  0  0  0  0  0  0
    3.8380   -0.5510   -0.4560 H   0  0  0  0  0  0  0  0  0  0  0  0
    2.9950   -0.4160    1.0910 H   0  0  0  0  0  0  0  0  0  0  0  0
    1.8320   -1.1420   -1.6980 H   0  0  0  0  0  0  0  0  0  0  0  0
    2.6340    1.0460   -1.0900 H   0  0  0  0  0  0  0  0  0  0  0  0
    1.5260    1.0690    0.1630 H   0  0  0  0  0  0  0  0  0  0  0  0
   -3.1850   -1.1190    2.8200 C   0  0  0  0  0  0  0  0  0  0  0  0
   -1.9460   -0.4850    2.2650 C   0  0  0  0  0  0  0  0  0  0  0  0
   -2.1050    1.0100    2.3100 C   0  0  0  0  0  0  0  0  0  0  0  0
   -1.7570   -0.9910    0.8350 C   0  0  2  0  0  0  0  0  0  0  0  0
   -0.5710   -0.4060    0.2670 N   0  0  0  0  0  0  0  0  0  0  0  0
   -2.9620   -0.7390    0.0060 C   0  0  0  0  0  0  0  0  0  0  0  0
   -4.0570   -1.2100    0.4030 O   0  0  0  0  0  0  0  0  0  0  0  0
   -4.0490   -0.4610    2.6090 H   0  0  0  0  0  0  0  0  0  0  0  0
   -3.1310   -1.2650    3.9220 H   0  0  0  0  0  0  0  0  0  0  0  0
   -3.2760   -2.1370    2.3920 H   0  0  0  0  0  0  0  0  0  0  0  0
   -1.0860   -0.8430    2.8560 H   0  0  0  0  0  0  0  0  0  0  0  0
   -2.9530    1.3010    2.9770 H   0  0  0  0  0  0  0  0  0  0  0  0
   -2.1670    1.4820    1.3200 H   0  0  0  0  0  0  0  0  0  0  0  0
   -1.1910    1.4240    2.8200 H   0  0  0  0  0  0  0  0  0  0  0  0
   -1.6610   -2.0930    0.9240 H   0  0  0  0  0  0  0  0  0  0  0  0
   -0.5280    0.6290    0.1260 H   0  0  0  0  0  0  0  0  0  0  0  0
   -2.9360    0.0020   -1.2040 N   0  0  0  0  0  0  0  0  0  0  0  0
   -4.1750    0.1860   -1.9330 C   0  0  1  0  0  0  0  0  0  0  0  0
   -4.4850    1.6510   -2.1490 C   0  0  0  0  0  0  0  0  0  0  0  0
   -4.6470    2.5200   -0.5810 S   0  0  0  0  0  0  0  0  0  0  0  0
   -4.0020   -0.4210   -3.2770 C   0  0  0  0  0  0  0  0  0  0  0  0
   -2.9220   -0.9710   -3.6100 O   0  0  0  0  0  0  0  0  0  0  0  0
   -5.0140   -0.4150   -4.2290 O   0  0  0  0  0  0  0  0  0  0  0  0
   -2.0270    0.3800   -1.5130 H   0  0  0  0  0  0  0  0  0  0  0  0
   -5.0260   -0.2870   -1.4450 H   0  0  0  0  0  0  0  0  0  0  0  0
   -3.7510    2.1200   -2.8380 H   0  0  0  0  0  0  0  0  0  0  0  0
   -5.4640    1.6980   -2.6690 H   0  0  0  0  0  0  0  0  0  0  0  0
   -5.8890    2.1930   -0.0010 H   0  0  0  0  0  0  0  0  0  0  0  0
  1 12  1  0  0  0  0
  1 13  1  0  0  0  0
  2  1  1  0  0  0  0
  3  2  2  0  0  0  0
  3 14  1  0  0  0  0
  4 15  1  0  0  0  0
  4  2  1  0  0  0  0
  5 17  1  0  0  0  0
  5  4  1  0  0  0  0
  6 19  1  0  0  0  0
  6  5  1  0  0  0  0
  7  6  1  0  0  0  0
  7 21  1  0  0  0  0
  8 22  1  6  0  0  0
  8 10  1  0  0  0  0
  8  7  1  0  0  0  0
  9  8  1  0  0  0  0
  9 24  1  0  0  0  0
 10 11  2  0  0  0  0
 10 29  1  0  0  0  0
 16  5  1  0  0  0  0
 18  6  1  0  0  0  0
 20  7  1  0  0  0  0
 23  9  1  0  0  0  0
 25 33  1  0  0  0  0
 26 27  1  0  0  0  0
 26 25  1  0  0  0  0
 26 35  1  0  0  0  0
 27 38  1  0  0  0  0
 27 36  1  0  0  0  0
 28 39  1  1  0  0  0
 28 26  1  0  0  0  0
 29 28  1  0  0  0  0
 30 31  2  0  0  0  0
 30 28  1  0  0  0  0
 32 25  1  0  0  0  0
 34 25  1  0  0  0  0
 37 27  1  0  0  0  0
 40 29  1  0  0  0  0
 41 30  1  0  0  0  0
 42 49  1  1  0  0  0
 42 41  1  0  0  0  0
 43 42  1  0  0  0  0
 43 44  1  0  0  0  0
 44 52  1  0  0  0  0
 45 42  1  0  0  0  0
 46 45  1  0  0  0  0
 47 45  2  0  0  0  0
 48 41  1  0  0  0  0
 50 43  1  0  0  0  0
 51 43  1  0  0  0  0
M  END
$$$$
