RVD.pdb
 OpenBabel07022418073D

 54 53  0  0  1  0  0  0  0  0999 V2000
    1.6040   -1.5980    6.0300 N   0  0  0  0  0  0  0  0  0  0  0  0
    1.5800   -0.2870    5.4640 C   0  0  0  0  0  0  0  0  0  0  0  0
    0.7900    0.5590    6.0260 N   0  0  0  0  0  0  0  0  0  0  0  0
    2.4070    0.0020    4.3440 N   0  0  0  0  0  0  0  0  0  0  0  0
    2.3690    1.3730    3.8560 C   0  0  0  0  0  0  0  0  0  0  0  0
    3.2620    1.5660    2.6830 C   0  0  0  0  0  0  0  0  0  0  0  0
    2.9370    0.7090    1.5150 C   0  0  0  0  0  0  0  0  0  0  0  0
    1.5790    0.8790    0.9310 C   0  0  2  0  0  0  0  0  0  0  0  0
    0.4910    0.5960    1.8080 N   0  0  0  0  0  0  0  0  0  0  0  0
    1.4490    0.1090   -0.3420 C   0  0  0  0  0  0  0  0  0  0  0  0
    2.3210    0.2680   -1.2430 O   0  0  0  0  0  0  0  0  0  0  0  0
    1.8420   -2.4050    5.4180 H   0  0  0  0  0  0  0  0  0  0  0  0
    1.3900   -1.7720    7.0340 H   0  0  0  0  0  0  0  0  0  0  0  0
    0.7430    1.5250    5.6450 H   0  0  0  0  0  0  0  0  0  0  0  0
    3.0060   -0.7040    3.8870 H   0  0  0  0  0  0  0  0  0  0  0  0
    1.3230    1.6450    3.7000 H   0  0  0  0  0  0  0  0  0  0  0  0
    2.7150    2.0530    4.6940 H   0  0  0  0  0  0  0  0  0  0  0  0
    3.2870    2.6450    2.4000 H   0  0  0  0  0  0  0  0  0  0  0  0
    4.3090    1.3490    3.0260 H   0  0  0  0  0  0  0  0  0  0  0  0
    3.7450    0.8410    0.7390 H   0  0  0  0  0  0  0  0  0  0  0  0
    3.0560   -0.3720    1.8160 H   0  0  0  0  0  0  0  0  0  0  0  0
    1.4860    1.9740    0.6680 H   0  0  0  0  0  0  0  0  0  0  0  0
   -0.3920    1.0600    1.5830 H   0  0  0  0  0  0  0  0  0  0  0  0
    0.4030   -0.3890    2.1050 H   0  0  0  0  0  0  0  0  0  0  0  0
    1.8080   -3.1850   -0.9100 C   0  0  0  0  0  0  0  0  0  0  0  0
    0.4060   -3.0120   -1.4480 C   0  0  0  0  0  0  0  0  0  0  0  0
   -0.5710   -3.5790   -0.4790 C   0  0  0  0  0  0  0  0  0  0  0  0
    0.2010   -1.5490   -1.7580 C   0  0  2  0  0  0  0  0  0  0  0  0
    0.3720   -0.7780   -0.5340 N   0  0  0  0  0  0  0  0  0  0  0  0
   -1.0860   -1.2700   -2.4070 C   0  0  0  0  0  0  0  0  0  0  0  0
   -1.4300   -1.8460   -3.4680 O   0  0  0  0  0  0  0  0  0  0  0  0
    2.0560   -4.2620   -0.7080 H   0  0  0  0  0  0  0  0  0  0  0  0
    2.5510   -2.7990   -1.6360 H   0  0  0  0  0  0  0  0  0  0  0  0
    1.9470   -2.6570    0.0600 H   0  0  0  0  0  0  0  0  0  0  0  0
    0.3660   -3.6140   -2.3850 H   0  0  0  0  0  0  0  0  0  0  0  0
   -0.0180   -4.1000    0.3270 H   0  0  0  0  0  0  0  0  0  0  0  0
   -1.2250   -4.3670   -0.9240 H   0  0  0  0  0  0  0  0  0  0  0  0
   -1.1690   -2.7880    0.0300 H   0  0  0  0  0  0  0  0  0  0  0  0
    1.0450   -1.2590   -2.4280 H   0  0  0  0  0  0  0  0  0  0  0  0
   -0.3550   -0.9030    0.2330 H   0  0  0  0  0  0  0  0  0  0  0  0
   -1.9890   -0.3280   -1.8450 N   0  0  0  0  0  0  0  0  0  0  0  0
   -3.2680   -0.0550   -2.4820 C   0  0  1  0  0  0  0  0  0  0  0  0
   -4.4140   -0.5540   -1.6080 C   0  0  0  0  0  0  0  0  0  0  0  0
   -4.2330   -2.0260   -1.4410 C   0  0  0  0  0  0  0  0  0  0  0  0
   -4.1510   -2.7970   -2.4240 O   0  0  0  0  0  0  0  0  0  0  0  0
   -3.4320    1.3790   -2.7990 C   0  0  0  0  0  0  0  0  0  0  0  0
   -2.5170    2.1730   -2.4960 O   0  0  0  0  0  0  0  0  0  0  0  0
   -4.1460   -2.5730   -0.1560 O   0  0  0  0  0  0  0  0  0  0  0  0
   -4.5610    1.8780   -3.4190 O   0  0  0  0  0  0  0  0  0  0  0  0
   -1.7330    0.1900   -0.9480 H   0  0  0  0  0  0  0  0  0  0  0  0
   -3.3230   -0.6900   -3.3960 H   0  0  0  0  0  0  0  0  0  0  0  0
   -4.5150   -0.0340   -0.6590 H   0  0  0  0  0  0  0  0  0  0  0  0
   -5.3280   -0.4150   -2.2090 H   0  0  0  0  0  0  0  0  0  0  0  0
   -4.1460   -3.5820   -0.0750 H   0  0  0  0  0  0  0  0  0  0  0  0
  1 13  1  0  0  0  0
  2  3  2  0  0  0  0
  2  1  1  0  0  0  0
  4  2  1  0  0  0  0
  5  4  1  0  0  0  0
  5 17  1  0  0  0  0
  6 19  1  0  0  0  0
  6  5  1  0  0  0  0
  7 21  1  0  0  0  0
  7  6  1  0  0  0  0
  8 22  1  6  0  0  0
  8  7  1  0  0  0  0
  8  9  1  0  0  0  0
  9 24  1  0  0  0  0
 10  8  1  0  0  0  0
 11 10  2  0  0  0  0
 12  1  1  0  0  0  0
 14  3  1  0  0  0  0
 15  4  1  0  0  0  0
 16  5  1  0  0  0  0
 18  6  1  0  0  0  0
 20  7  1  0  0  0  0
 23  9  1  0  0  0  0
 25 32  1  0  0  0  0
 25 34  1  0  0  0  0
 26 25  1  0  0  0  0
 26 27  1  0  0  0  0
 27 38  1  0  0  0  0
 27 36  1  0  0  0  0
 28 39  1  6  0  0  0
 28 26  1  0  0  0  0
 28 29  1  0  0  0  0
 29 10  1  0  0  0  0
 29 40  1  0  0  0  0
 30 41  1  0  0  0  0
 30 28  1  0  0  0  0
 31 30  2  0  0  0  0
 33 25  1  0  0  0  0
 35 26  1  0  0  0  0
 37 27  1  0  0  0  0
 41 50  1  0  0  0  0
 42 51  1  6  0  0  0
 42 41  1  0  0  0  0
 42 43  1  0  0  0  0
 43 44  1  0  0  0  0
 43 52  1  0  0  0  0
 44 48  1  0  0  0  0
 45 44  2  0  0  0  0
 46 47  1  0  0  0  0
 46 42  1  0  0  0  0
 48 54  1  0  0  0  0
 49 46  2  0  0  0  0
 53 43  1  0  0  0  0
M  END
$$$$
