RVE.pdb
 OpenBabel07022418073D

 57 56  0  0  1  0  0  0  0  0999 V2000
    3.7380   -1.2840    3.1650 N   0  0  0  0  0  0  0  0  0  0  0  0
    3.9550   -0.8850    1.8270 C   0  0  0  0  0  0  0  0  0  0  0  0
    3.5250   -1.6090    0.8660 N   0  0  0  0  0  0  0  0  0  0  0  0
    4.6530    0.3250    1.4960 N   0  0  0  0  0  0  0  0  0  0  0  0
    4.6570    0.7620    0.1360 C   0  0  0  0  0  0  0  0  0  0  0  0
    3.3860    1.1850   -0.4740 C   0  0  0  0  0  0  0  0  0  0  0  0
    2.6090    2.3110    0.0380 C   0  0  0  0  0  0  0  0  0  0  0  0
    2.0420    2.2980    1.3980 C   0  0  2  0  0  0  0  0  0  0  0  0
    2.9540    2.1970    2.4770 N   0  0  0  0  0  0  0  0  0  0  0  0
    0.9750    1.2360    1.5200 C   0  0  0  0  0  0  0  0  0  0  0  0
    1.0220    0.3720    2.4320 O   0  0  0  0  0  0  0  0  0  0  0  0
    3.2150   -2.1430    3.4030 H   0  0  0  0  0  0  0  0  0  0  0  0
    4.1080   -0.7110    3.9630 H   0  0  0  0  0  0  0  0  0  0  0  0
    3.0120   -2.4990    1.0900 H   0  0  0  0  0  0  0  0  0  0  0  0
    5.1520    0.8010    2.2870 H   0  0  0  0  0  0  0  0  0  0  0  0
    5.3960    1.6080   -0.0170 H   0  0  0  0  0  0  0  0  0  0  0  0
    5.0500   -0.1360   -0.4550 H   0  0  0  0  0  0  0  0  0  0  0  0
    3.5700    1.4170   -1.5880 H   0  0  0  0  0  0  0  0  0  0  0  0
    2.7600    0.2390   -0.5750 H   0  0  0  0  0  0  0  0  0  0  0  0
    1.7310    2.4610   -0.6750 H   0  0  0  0  0  0  0  0  0  0  0  0
    3.2120    3.2550   -0.0930 H   0  0  0  0  0  0  0  0  0  0  0  0
    1.4860    3.2730    1.5270 H   0  0  0  0  0  0  0  0  0  0  0  0
    2.5920    1.6610    3.3000 H   0  0  0  0  0  0  0  0  0  0  0  0
    3.3020    3.1140    2.8490 H   0  0  0  0  0  0  0  0  0  0  0  0
   -2.0460    1.6130    2.5450 C   0  0  0  0  0  0  0  0  0  0  0  0
   -2.3770    0.8720    1.2320 C   0  0  0  0  0  0  0  0  0  0  0  0
   -3.4910   -0.0830    1.6110 C   0  0  0  0  0  0  0  0  0  0  0  0
   -1.1160    0.1290    0.7680 C   0  0  2  0  0  0  0  0  0  0  0  0
   -0.0990    1.2010    0.6000 N   0  0  0  0  0  0  0  0  0  0  0  0
   -1.2960   -0.5700   -0.5080 C   0  0  0  0  0  0  0  0  0  0  0  0
   -0.6900   -0.1820   -1.5700 O   0  0  0  0  0  0  0  0  0  0  0  0
   -1.2400    2.3400    2.3690 H   0  0  0  0  0  0  0  0  0  0  0  0
   -1.8040    0.8730    3.3240 H   0  0  0  0  0  0  0  0  0  0  0  0
   -2.9460    2.1630    2.8850 H   0  0  0  0  0  0  0  0  0  0  0  0
   -2.6890    1.5560    0.4480 H   0  0  0  0  0  0  0  0  0  0  0  0
   -3.0380   -0.9680    2.0970 H   0  0  0  0  0  0  0  0  0  0  0  0
   -4.1230   -0.3870    0.7640 H   0  0  0  0  0  0  0  0  0  0  0  0
   -4.1480    0.3690    2.4000 H   0  0  0  0  0  0  0  0  0  0  0  0
   -0.8620   -0.5660    1.5620 H   0  0  0  0  0  0  0  0  0  0  0  0
   -0.1970    1.8880   -0.1740 H   0  0  0  0  0  0  0  0  0  0  0  0
   -2.1170   -1.7020   -0.7110 N   0  0  0  0  0  0  0  0  0  0  0  0
   -2.2640   -2.3590   -1.9850 C   0  0  1  0  0  0  0  0  0  0  0  0
   -1.8330   -3.7770   -2.0110 C   0  0  0  0  0  0  0  0  0  0  0  0
   -2.5880   -4.6560   -1.0460 C   0  0  0  0  0  0  0  0  0  0  0  0
   -2.1010   -6.0730   -1.1210 C   0  0  0  0  0  0  0  0  0  0  0  0
   -1.1780   -6.3620   -1.9240 O   0  0  0  0  0  0  0  0  0  0  0  0
   -3.6890   -2.2800   -2.3740 C   0  0  0  0  0  0  0  0  0  0  0  0
   -4.1120   -2.7790   -3.4720 O   0  0  0  0  0  0  0  0  0  0  0  0
   -2.6300   -7.0740   -0.3400 O   0  0  0  0  0  0  0  0  0  0  0  0
   -4.6600   -1.6700   -1.5950 O   0  0  0  0  0  0  0  0  0  0  0  0
   -2.6560   -2.1170    0.0770 H   0  0  0  0  0  0  0  0  0  0  0  0
   -1.6740   -1.8300   -2.7880 H   0  0  0  0  0  0  0  0  0  0  0  0
   -0.7360   -3.9310   -1.9550 H   0  0  0  0  0  0  0  0  0  0  0  0
   -2.1100   -4.1680   -3.0390 H   0  0  0  0  0  0  0  0  0  0  0  0
   -2.4560   -4.3480    0.0090 H   0  0  0  0  0  0  0  0  0  0  0  0
   -3.6580   -4.6900   -1.3140 H   0  0  0  0  0  0  0  0  0  0  0  0
   -2.0820   -7.9000   -0.0790 H   0  0  0  0  0  0  0  0  0  0  0  0
  1 12  1  0  0  0  0
  1 13  1  0  0  0  0
  2  1  1  0  0  0  0
  3 14  1  0  0  0  0
  3  2  2  0  0  0  0
  4  2  1  0  0  0  0
  4 15  1  0  0  0  0
  5  4  1  0  0  0  0
  6  7  1  0  0  0  0
  6  5  1  0  0  0  0
  7  8  1  0  0  0  0
  8 10  1  0  0  0  0
  8 22  1  1  0  0  0
  8  9  1  0  0  0  0
  9 24  1  0  0  0  0
  9 23  1  0  0  0  0
 10 11  2  0  0  0  0
 16  5  1  0  0  0  0
 17  5  1  0  0  0  0
 18  6  1  0  0  0  0
 19  6  1  0  0  0  0
 20  7  1  0  0  0  0
 21  7  1  0  0  0  0
 25 34  1  0  0  0  0
 25 33  1  0  0  0  0
 26 27  1  0  0  0  0
 26 25  1  0  0  0  0
 27 36  1  0  0  0  0
 27 38  1  0  0  0  0
 28 26  1  0  0  0  0
 28 39  1  1  0  0  0
 29 28  1  0  0  0  0
 29 10  1  0  0  0  0
 30 28  1  0  0  0  0
 31 30  2  0  0  0  0
 32 25  1  0  0  0  0
 35 26  1  0  0  0  0
 37 27  1  0  0  0  0
 40 29  1  0  0  0  0
 41 30  1  0  0  0  0
 41 51  1  0  0  0  0
 42 52  1  6  0  0  0
 42 41  1  0  0  0  0
 43 42  1  0  0  0  0
 43 53  1  0  0  0  0
 43 44  1  0  0  0  0
 44 55  1  0  0  0  0
 45 44  1  0  0  0  0
 45 49  1  0  0  0  0
 46 45  2  0  0  0  0
 47 42  1  0  0  0  0
 47 50  1  0  0  0  0
 48 47  2  0  0  0  0
 49 57  1  0  0  0  0
 54 43  1  0  0  0  0
 56 44  1  0  0  0  0
M  END
$$$$
