RVG.pdb
 OpenBabel07022418073D

 48 47  0  0  1  0  0  0  0  0999 V2000
   -0.4190   -6.5890    0.2250 N   0  0  0  0  0  0  0  0  0  0  0  0
    0.3730   -5.5690   -0.3580 C   0  0  0  0  0  0  0  0  0  0  0  0
    0.4170   -5.4590   -1.6280 N   0  0  0  0  0  0  0  0  0  0  0  0
    1.1060   -4.6870    0.4660 N   0  0  0  0  0  0  0  0  0  0  0  0
    1.8280   -3.5350   -0.0940 C   0  0  0  0  0  0  0  0  0  0  0  0
    0.8770   -2.5130   -0.6180 C   0  0  0  0  0  0  0  0  0  0  0  0
    1.4560   -1.3020   -1.2310 C   0  0  0  0  0  0  0  0  0  0  0  0
    2.3240   -0.4420   -0.3940 C   0  0  2  0  0  0  0  0  0  0  0  0
    3.4630   -1.1710    0.0710 N   0  0  0  0  0  0  0  0  0  0  0  0
    1.5840    0.2130    0.7280 C   0  0  0  0  0  0  0  0  0  0  0  0
    1.9670    0.0480    1.9130 O   0  0  0  0  0  0  0  0  0  0  0  0
   -0.0830   -7.1210    1.0650 H   0  0  0  0  0  0  0  0  0  0  0  0
   -1.3540   -6.8490   -0.1500 H   0  0  0  0  0  0  0  0  0  0  0  0
   -0.1130   -6.0980   -2.2650 H   0  0  0  0  0  0  0  0  0  0  0  0
    1.1330   -4.8550    1.4820 H   0  0  0  0  0  0  0  0  0  0  0  0
    2.4320   -3.9630   -0.9400 H   0  0  0  0  0  0  0  0  0  0  0  0
    2.5370   -3.2070    0.6620 H   0  0  0  0  0  0  0  0  0  0  0  0
    0.0960   -2.2610    0.1380 H   0  0  0  0  0  0  0  0  0  0  0  0
    0.2880   -3.0360   -1.4320 H   0  0  0  0  0  0  0  0  0  0  0  0
    0.5840   -0.6740   -1.5940 H   0  0  0  0  0  0  0  0  0  0  0  0
    1.9640   -1.5890   -2.1930 H   0  0  0  0  0  0  0  0  0  0  0  0
    2.7260    0.4150   -1.0140 H   0  0  0  0  0  0  0  0  0  0  0  0
    4.2260   -0.5230    0.4030 H   0  0  0  0  0  0  0  0  0  0  0  0
    3.8730   -1.7500   -0.6900 H   0  0  0  0  0  0  0  0  0  0  0  0
   -0.8580    3.6770    2.7990 C   0  0  0  0  0  0  0  0  0  0  0  0
   -0.1630    3.1480    1.5650 C   0  0  0  0  0  0  0  0  0  0  0  0
    1.2620    3.6510    1.5880 C   0  0  0  0  0  0  0  0  0  0  0  0
   -0.2050    1.6240    1.6490 C   0  0  2  0  0  0  0  0  0  0  0  0
    0.4490    1.0270    0.5010 N   0  0  0  0  0  0  0  0  0  0  0  0
   -1.6390    1.2420    1.5800 C   0  0  0  0  0  0  0  0  0  0  0  0
   -2.3940    1.6710    2.4910 O   0  0  0  0  0  0  0  0  0  0  0  0
   -0.8390    2.9530    3.6480 H   0  0  0  0  0  0  0  0  0  0  0  0
   -1.9220    3.9380    2.6310 H   0  0  0  0  0  0  0  0  0  0  0  0
   -0.3350    4.5800    3.1940 H   0  0  0  0  0  0  0  0  0  0  0  0
   -0.6600    3.5270    0.6670 H   0  0  0  0  0  0  0  0  0  0  0  0
    1.9280    2.9520    2.1350 H   0  0  0  0  0  0  0  0  0  0  0  0
    1.2700    4.6090    2.1470 H   0  0  0  0  0  0  0  0  0  0  0  0
    1.6310    3.8880    0.5660 H   0  0  0  0  0  0  0  0  0  0  0  0
    0.2690    1.3610    2.5970 H   0  0  0  0  0  0  0  0  0  0  0  0
    0.0920    1.1970   -0.4630 H   0  0  0  0  0  0  0  0  0  0  0  0
   -2.1930    0.4400    0.5660 N   0  0  0  0  0  0  0  0  0  0  0  0
   -3.6070    0.1380    0.6060 C   0  0  0  0  0  0  0  0  0  0  0  0
   -3.9700   -0.5770    1.8350 C   0  0  0  0  0  0  0  0  0  0  0  0
   -5.1490   -0.9330    2.0820 O   0  0  0  0  0  0  0  0  0  0  0  0
   -2.9900   -0.8750    2.7600 O   0  0  0  0  0  0  0  0  0  0  0  0
   -1.5740    0.0810   -0.1880 H   0  0  0  0  0  0  0  0  0  0  0  0
   -3.8600   -0.4220   -0.3150 H   0  0  0  0  0  0  0  0  0  0  0  0
   -4.1650    1.1110    0.5920 H   0  0  0  0  0  0  0  0  0  0  0  0
  1 12  1  0  0  0  0
  2  1  1  0  0  0  0
  2  4  1  0  0  0  0
  3  2  2  0  0  0  0
  4 15  1  0  0  0  0
  5  4  1  0  0  0  0
  5 17  1  0  0  0  0
  6  5  1  0  0  0  0
  6 18  1  0  0  0  0
  7  6  1  0  0  0  0
  7  8  1  0  0  0  0
  8 22  1  6  0  0  0
  8  9  1  0  0  0  0
  8 10  1  0  0  0  0
  9 23  1  0  0  0  0
 10 11  2  0  0  0  0
 13  1  1  0  0  0  0
 14  3  1  0  0  0  0
 16  5  1  0  0  0  0
 19  6  1  0  0  0  0
 20  7  1  0  0  0  0
 21  7  1  0  0  0  0
 24  9  1  0  0  0  0
 25 34  1  0  0  0  0
 25 32  1  0  0  0  0
 26 27  1  0  0  0  0
 26 28  1  0  0  0  0
 26 25  1  0  0  0  0
 27 36  1  0  0  0  0
 27 37  1  0  0  0  0
 28 39  1  1  0  0  0
 29 10  1  0  0  0  0
 29 28  1  0  0  0  0
 30 28  1  0  0  0  0
 30 31  2  0  0  0  0
 33 25  1  0  0  0  0
 35 26  1  0  0  0  0
 38 27  1  0  0  0  0
 40 29  1  0  0  0  0
 41 42  1  0  0  0  0
 41 30  1  0  0  0  0
 42 43  1  0  0  0  0
 43 44  2  0  0  0  0
 43 45  1  0  0  0  0
 46 41  1  0  0  0  0
 47 42  1  0  0  0  0
 48 42  1  0  0  0  0
M  END
$$$$
