RVI.pdb
 OpenBabel07022418073D

 60 59  0  0  1  0  0  0  0  0999 V2000
    1.3900    0.0440    7.2940 N   0  0  0  0  0  0  0  0  0  0  0  0
    0.6760    0.3240    6.0980 C   0  0  0  0  0  0  0  0  0  0  0  0
   -0.3540   -0.4000    5.7610 N   0  0  0  0  0  0  0  0  0  0  0  0
    1.0170    1.3690    5.2160 N   0  0  0  0  0  0  0  0  0  0  0  0
    0.1900    1.6670    4.0620 C   0  0  0  0  0  0  0  0  0  0  0  0
   -1.1380    2.2190    4.4250 C   0  0  0  0  0  0  0  0  0  0  0  0
   -1.9450    2.5500    3.2120 C   0  0  0  0  0  0  0  0  0  0  0  0
   -2.2640    1.4130    2.2910 C   0  0  2  0  0  0  0  0  0  0  0  0
   -2.9890    0.3510    2.9170 N   0  0  0  0  0  0  0  0  0  0  0  0
   -1.1480    0.9710    1.4170 C   0  0  0  0  0  0  0  0  0  0  0  0
   -0.3650    1.8080    0.8850 O   0  0  0  0  0  0  0  0  0  0  0  0
    2.2030   -0.6020    7.2300 H   0  0  0  0  0  0  0  0  0  0  0  0
    1.1500    0.4410    8.2190 H   0  0  0  0  0  0  0  0  0  0  0  0
   -0.6490   -1.1950    6.3900 H   0  0  0  0  0  0  0  0  0  0  0  0
    1.8620    1.9330    5.3850 H   0  0  0  0  0  0  0  0  0  0  0  0
    0.0030    0.7180    3.4770 H   0  0  0  0  0  0  0  0  0  0  0  0
    0.6870    2.3580    3.3560 H   0  0  0  0  0  0  0  0  0  0  0  0
   -1.7490    1.5270    5.0520 H   0  0  0  0  0  0  0  0  0  0  0  0
   -1.0030    3.1490    5.0530 H   0  0  0  0  0  0  0  0  0  0  0  0
   -1.4490    3.3870    2.6140 H   0  0  0  0  0  0  0  0  0  0  0  0
   -2.9130    3.0560    3.5300 H   0  0  0  0  0  0  0  0  0  0  0  0
   -3.0080    1.8730    1.5390 H   0  0  0  0  0  0  0  0  0  0  0  0
   -3.8580    0.7660    3.3200 H   0  0  0  0  0  0  0  0  0  0  0  0
   -3.2690   -0.3370    2.1860 H   0  0  0  0  0  0  0  0  0  0  0  0
    2.3710   -2.0550    0.3970 C   0  0  0  0  0  0  0  0  0  0  0  0
    1.1450   -1.5860    1.1060 C   0  0  0  0  0  0  0  0  0  0  0  0
    0.4400   -2.7200    1.8210 C   0  0  0  0  0  0  0  0  0  0  0  0
    0.1980   -0.7660    0.2760 C   0  0  2  0  0  0  0  0  0  0  0  0
   -0.9160   -0.4010    1.1440 N   0  0  0  0  0  0  0  0  0  0  0  0
   -0.3350   -1.4440   -0.9160 C   0  0  0  0  0  0  0  0  0  0  0  0
   -1.5820   -1.7080   -0.9990 O   0  0  0  0  0  0  0  0  0  0  0  0
    2.8570   -1.2230   -0.1480 H   0  0  0  0  0  0  0  0  0  0  0  0
    2.2270   -2.9700   -0.2150 H   0  0  0  0  0  0  0  0  0  0  0  0
    3.1600   -2.3720    1.1540 H   0  0  0  0  0  0  0  0  0  0  0  0
    1.4940   -0.8930    1.9270 H   0  0  0  0  0  0  0  0  0  0  0  0
    1.1190   -3.6000    1.8430 H   0  0  0  0  0  0  0  0  0  0  0  0
   -0.5240   -2.9770    1.3250 H   0  0  0  0  0  0  0  0  0  0  0  0
    0.2000   -2.4790    2.8750 H   0  0  0  0  0  0  0  0  0  0  0  0
    0.7060    0.1560   -0.0420 H   0  0  0  0  0  0  0  0  0  0  0  0
   -1.5130   -1.1500    1.5420 H   0  0  0  0  0  0  0  0  0  0  0  0
   -1.8500   -2.4600   -5.5020 C   0  0  0  0  0  0  0  0  0  0  0  0
   -0.4000   -2.0650   -5.6470 C   0  0  0  0  0  0  0  0  0  0  0  0
    0.1140   -1.5300   -4.3450 C   0  0  2  0  0  0  0  0  0  0  0  0
    1.5700   -1.1060   -4.4470 C   0  0  0  0  0  0  0  0  0  0  0  0
   -0.0680   -2.5050   -3.1840 C   0  0  2  0  0  0  0  0  0  0  0  0
    0.4700   -1.8300   -2.0060 N   0  0  0  0  0  0  0  0  0  0  0  0
    0.5690   -3.8010   -3.4110 C   0  0  0  0  0  0  0  0  0  0  0  0
    0.2230   -4.5090   -4.3810 O   0  0  0  0  0  0  0  0  0  0  0  0
    1.5620   -4.2880   -2.5790 O   0  0  0  0  0  0  0  0  0  0  0  0
   -2.0390   -3.5340   -5.5470 H   0  0  0  0  0  0  0  0  0  0  0  0
   -2.3200   -1.9990   -4.5870 H   0  0  0  0  0  0  0  0  0  0  0  0
   -2.4560   -2.0260   -6.3560 H   0  0  0  0  0  0  0  0  0  0  0  0
   -0.3660   -1.2070   -6.3660 H   0  0  0  0  0  0  0  0  0  0  0  0
    0.2200   -2.8860   -6.0590 H   0  0  0  0  0  0  0  0  0  0  0  0
   -0.4680   -0.6270   -4.0870 H   0  0  0  0  0  0  0  0  0  0  0  0
    1.7730   -0.6280   -5.4260 H   0  0  0  0  0  0  0  0  0  0  0  0
    1.8270   -0.3580   -3.6680 H   0  0  0  0  0  0  0  0  0  0  0  0
    2.2460   -1.9840   -4.2560 H   0  0  0  0  0  0  0  0  0  0  0  0
   -1.1580   -2.6340   -3.0560 H   0  0  0  0  0  0  0  0  0  0  0  0
    1.4870   -1.6350   -2.0110 H   0  0  0  0  0  0  0  0  0  0  0  0
  1 13  1  0  0  0  0
  2  1  1  0  0  0  0
  3  2  2  0  0  0  0
  3 14  1  0  0  0  0
  4 15  1  0  0  0  0
  4  2  1  0  0  0  0
  5  6  1  0  0  0  0
  5  4  1  0  0  0  0
  6 18  1  0  0  0  0
  6 19  1  0  0  0  0
  7 21  1  0  0  0  0
  7  6  1  0  0  0  0
  8 22  1  6  0  0  0
  8  9  1  0  0  0  0
  8  7  1  0  0  0  0
  9 23  1  0  0  0  0
 10  8  1  0  0  0  0
 11 10  2  0  0  0  0
 12  1  1  0  0  0  0
 16  5  1  0  0  0  0
 17  5  1  0  0  0  0
 20  7  1  0  0  0  0
 24  9  1  0  0  0  0
 25 26  1  0  0  0  0
 25 34  1  0  0  0  0
 26 27  1  0  0  0  0
 26 35  1  0  0  0  0
 27 36  1  0  0  0  0
 27 38  1  0  0  0  0
 28 39  1  6  0  0  0
 28 26  1  0  0  0  0
 28 29  1  0  0  0  0
 29 10  1  0  0  0  0
 29 40  1  0  0  0  0
 30 28  1  0  0  0  0
 31 30  2  0  0  0  0
 32 25  1  0  0  0  0
 33 25  1  0  0  0  0
 37 27  1  0  0  0  0
 41 51  1  0  0  0  0
 42 41  1  0  0  0  0
 42 43  1  0  0  0  0
 43 55  1  1  0  0  0
 43 45  1  0  0  0  0
 44 43  1  0  0  0  0
 44 58  1  0  0  0  0
 44 57  1  0  0  0  0
 45 59  1  1  0  0  0
 45 46  1  0  0  0  0
 46 30  1  0  0  0  0
 47 45  1  0  0  0  0
 47 49  1  0  0  0  0
 48 47  2  0  0  0  0
 50 41  1  0  0  0  0
 52 41  1  0  0  0  0
 53 42  1  0  0  0  0
 54 42  1  0  0  0  0
 56 44  1  0  0  0  0
 60 46  1  0  0  0  0
M  END
$$$$
