RVK.pdb
 OpenBabel07022418073D

 62 61  0  0  1  0  0  0  0  0999 V2000
    6.5130    1.8760    6.4770 N   0  0  0  0  0  0  0  0  0  0  0  0
    5.4820    1.1880    5.7940 C   0  0  0  0  0  0  0  0  0  0  0  0
    4.4800    0.7340    6.5030 N   0  0  0  0  0  0  0  0  0  0  0  0
    5.5150    0.9870    4.3860 N   0  0  0  0  0  0  0  0  0  0  0  0
    4.3190    0.5610    3.6740 C   0  0  0  0  0  0  0  0  0  0  0  0
    4.5950    0.4170    2.1980 C   0  0  0  0  0  0  0  0  0  0  0  0
    3.3790   -0.0070    1.4240 C   0  0  0  0  0  0  0  0  0  0  0  0
    2.8720   -1.3270    1.8930 C   0  0  2  0  0  0  0  0  0  0  0  0
    3.8580   -2.3710    1.7520 N   0  0  0  0  0  0  0  0  0  0  0  0
    1.5910   -1.7070    1.2050 C   0  0  0  0  0  0  0  0  0  0  0  0
    1.5420   -2.8200    0.6310 O   0  0  0  0  0  0  0  0  0  0  0  0
    6.6520    1.7520    7.4950 H   0  0  0  0  0  0  0  0  0  0  0  0
    7.1430    2.5150    5.9610 H   0  0  0  0  0  0  0  0  0  0  0  0
    4.4400    0.8720    7.5240 H   0  0  0  0  0  0  0  0  0  0  0  0
    6.3880    1.1440    3.8830 H   0  0  0  0  0  0  0  0  0  0  0  0
    3.5360    1.3390    3.7790 H   0  0  0  0  0  0  0  0  0  0  0  0
    3.9890   -0.4290    4.1050 H   0  0  0  0  0  0  0  0  0  0  0  0
    4.9940    1.3800    1.8060 H   0  0  0  0  0  0  0  0  0  0  0  0
    5.4480   -0.3100    2.0500 H   0  0  0  0  0  0  0  0  0  0  0  0
    3.6040   -0.1160    0.3300 H   0  0  0  0  0  0  0  0  0  0  0  0
    2.6210    0.7960    1.5390 H   0  0  0  0  0  0  0  0  0  0  0  0
    2.5990   -1.2630    2.9620 H   0  0  0  0  0  0  0  0  0  0  0  0
    4.2960   -2.3870    0.8050 H   0  0  0  0  0  0  0  0  0  0  0  0
    4.6150   -2.2080    2.4600 H   0  0  0  0  0  0  0  0  0  0  0  0
   -2.1080    0.0110    2.2820 C   0  0  0  0  0  0  0  0  0  0  0  0
   -1.9090   -1.2930    1.5460 C   0  0  0  0  0  0  0  0  0  0  0  0
   -1.5830   -2.3930    2.5350 C   0  0  0  0  0  0  0  0  0  0  0  0
   -0.7890   -1.2000    0.5290 C   0  0  2  0  0  0  0  0  0  0  0  0
    0.4600   -0.8640    1.1830 N   0  0  0  0  0  0  0  0  0  0  0  0
   -1.1120   -0.2490   -0.5620 C   0  0  0  0  0  0  0  0  0  0  0  0
   -0.3110    0.6880   -0.8010 O   0  0  0  0  0  0  0  0  0  0  0  0
   -3.0580   -0.0670    2.8480 H   0  0  0  0  0  0  0  0  0  0  0  0
   -1.2490    0.0850    3.0070 H   0  0  0  0  0  0  0  0  0  0  0  0
   -2.1240    0.8790    1.6170 H   0  0  0  0  0  0  0  0  0  0  0  0
   -2.8460   -1.6040    1.0330 H   0  0  0  0  0  0  0  0  0  0  0  0
   -2.3890   -2.3580    3.3250 H   0  0  0  0  0  0  0  0  0  0  0  0
   -1.5930   -3.3840    2.0610 H   0  0  0  0  0  0  0  0  0  0  0  0
   -0.6150   -2.1760    3.0670 H   0  0  0  0  0  0  0  0  0  0  0  0
   -0.7350   -2.2100    0.0480 H   0  0  0  0  0  0  0  0  0  0  0  0
    0.5540    0.0540    1.6760 H   0  0  0  0  0  0  0  0  0  0  0  0
   -2.2790   -0.3730   -1.3250 N   0  0  0  0  0  0  0  0  0  0  0  0
   -2.6620    0.5070   -2.4000 C   0  0  1  0  0  0  0  0  0  0  0  0
   -2.9320   -0.2430   -3.6860 C   0  0  0  0  0  0  0  0  0  0  0  0
   -4.0630   -1.2520   -3.4970 C   0  0  0  0  0  0  0  0  0  0  0  0
   -4.2900   -1.9700   -4.8080 C   0  0  0  0  0  0  0  0  0  0  0  0
   -5.4200   -2.9930   -4.6570 C   0  0  0  0  0  0  0  0  0  0  0  0
   -5.5810   -3.6360   -5.9380 N   0  0  0  0  0  0  0  0  0  0  0  0
   -3.9310    1.1860   -2.0260 C   0  0  0  0  0  0  0  0  0  0  0  0
   -4.4210    1.9990   -2.8560 O   0  0  0  0  0  0  0  0  0  0  0  0
   -4.5960    0.9870   -0.8460 O   0  0  0  0  0  0  0  0  0  0  0  0
   -2.9190   -1.1780   -1.0840 H   0  0  0  0  0  0  0  0  0  0  0  0
   -1.9340    1.2920   -2.6060 H   0  0  0  0  0  0  0  0  0  0  0  0
   -2.0470   -0.8240   -4.0230 H   0  0  0  0  0  0  0  0  0  0  0  0
   -3.2850    0.4690   -4.4600 H   0  0  0  0  0  0  0  0  0  0  0  0
   -3.8350   -2.0030   -2.7310 H   0  0  0  0  0  0  0  0  0  0  0  0
   -5.0140   -0.7380   -3.2370 H   0  0  0  0  0  0  0  0  0  0  0  0
   -4.6010   -1.2710   -5.6160 H   0  0  0  0  0  0  0  0  0  0  0  0
   -3.3710   -2.4550   -5.1350 H   0  0  0  0  0  0  0  0  0  0  0  0
   -5.1640   -3.7240   -3.8490 H   0  0  0  0  0  0  0  0  0  0  0  0
   -6.3670   -2.4870   -4.3930 H   0  0  0  0  0  0  0  0  0  0  0  0
   -4.6850   -3.5880   -6.4680 H   0  0  0  0  0  0  0  0  0  0  0  0
   -5.8710   -4.6330   -5.8000 H   0  0  0  0  0  0  0  0  0  0  0  0
  1 12  1  0  0  0  0
  2  1  1  0  0  0  0
  2  3  2  0  0  0  0
  3 14  1  0  0  0  0
  4  2  1  0  0  0  0
  5 16  1  0  0  0  0
  5 17  1  0  0  0  0
  5  4  1  0  0  0  0
  6  5  1  0  0  0  0
  7 21  1  0  0  0  0
  7  8  1  0  0  0  0
  7  6  1  0  0  0  0
  8 22  1  1  0  0  0
  9  8  1  0  0  0  0
  9 24  1  0  0  0  0
 10  8  1  0  0  0  0
 11 10  2  0  0  0  0
 13  1  1  0  0  0  0
 15  4  1  0  0  0  0
 18  6  1  0  0  0  0
 19  6  1  0  0  0  0
 20  7  1  0  0  0  0
 23  9  1  0  0  0  0
 25 32  1  0  0  0  0
 25 33  1  0  0  0  0
 26 25  1  0  0  0  0
 26 27  1  0  0  0  0
 27 38  1  0  0  0  0
 27 36  1  0  0  0  0
 28 39  1  6  0  0  0
 28 29  1  0  0  0  0
 28 26  1  0  0  0  0
 29 10  1  0  0  0  0
 29 40  1  0  0  0  0
 30 28  1  0  0  0  0
 31 30  2  0  0  0  0
 34 25  1  0  0  0  0
 35 26  1  0  0  0  0
 37 27  1  0  0  0  0
 41 51  1  0  0  0  0
 41 30  1  0  0  0  0
 42 52  1  6  0  0  0
 42 48  1  0  0  0  0
 42 41  1  0  0  0  0
 43 44  1  0  0  0  0
 43 42  1  0  0  0  0
 44 56  1  0  0  0  0
 44 55  1  0  0  0  0
 45 46  1  0  0  0  0
 45 44  1  0  0  0  0
 46 60  1  0  0  0  0
 46 59  1  0  0  0  0
 47 62  1  0  0  0  0
 47 46  1  0  0  0  0
 48 50  1  0  0  0  0
 49 48  2  0  0  0  0
 53 43  1  0  0  0  0
 54 43  1  0  0  0  0
 57 45  1  0  0  0  0
 58 45  1  0  0  0  0
 61 47  1  0  0  0  0
M  END
$$$$
