RVM.pdb
 OpenBabel07022418073D

 58 57  0  0  1  0  0  0  0  0999 V2000
   -3.6910   -0.8790   -0.4370 N   0  0  0  0  0  0  0  0  0  0  0  0
   -3.6470   -1.5130   -1.6960 C   0  0  0  0  0  0  0  0  0  0  0  0
   -4.0290   -2.7560   -1.8400 N   0  0  0  0  0  0  0  0  0  0  0  0
   -3.1760   -0.7680   -2.8110 N   0  0  0  0  0  0  0  0  0  0  0  0
   -2.6110   -1.3940   -3.9540 C   0  0  0  0  0  0  0  0  0  0  0  0
   -1.2740   -2.0460   -3.8270 C   0  0  0  0  0  0  0  0  0  0  0  0
   -0.1430   -1.1730   -3.4380 C   0  0  0  0  0  0  0  0  0  0  0  0
   -0.2060   -0.5900   -2.0750 C   0  0  2  0  0  0  0  0  0  0  0  0
    0.9530    0.3110   -1.8830 N   0  0  0  0  0  0  0  0  0  0  0  0
   -0.1080   -1.6460   -1.0100 C   0  0  0  0  0  0  0  0  0  0  0  0
   -0.8450   -2.6370   -0.9500 O   0  0  0  0  0  0  0  0  0  0  0  0
   -2.8110   -0.6000    0.0230 H   0  0  0  0  0  0  0  0  0  0  0  0
   -4.5930   -0.6920    0.0250 H   0  0  0  0  0  0  0  0  0  0  0  0
   -4.3650   -3.2610   -0.9920 H   0  0  0  0  0  0  0  0  0  0  0  0
   -3.2750    0.2810   -2.7540 H   0  0  0  0  0  0  0  0  0  0  0  0
   -3.3260   -2.2350   -4.2280 H   0  0  0  0  0  0  0  0  0  0  0  0
   -2.6540   -0.7210   -4.8620 H   0  0  0  0  0  0  0  0  0  0  0  0
   -1.0440   -2.4910   -4.8410 H   0  0  0  0  0  0  0  0  0  0  0  0
   -1.3970   -2.9300   -3.1580 H   0  0  0  0  0  0  0  0  0  0  0  0
   -0.1080   -0.3110   -4.1560 H   0  0  0  0  0  0  0  0  0  0  0  0
    0.8510   -1.6730   -3.5690 H   0  0  0  0  0  0  0  0  0  0  0  0
   -1.1020   -0.0050   -1.9130 H   0  0  0  0  0  0  0  0  0  0  0  0
    0.7330    0.8830   -1.0150 H   0  0  0  0  0  0  0  0  0  0  0  0
    0.8580    1.0210   -2.6670 H   0  0  0  0  0  0  0  0  0  0  0  0
    3.5680   -2.2260    0.9360 C   0  0  0  0  0  0  0  0  0  0  0  0
    2.4140   -3.1570    0.8980 C   0  0  0  0  0  0  0  0  0  0  0  0
    2.5270   -4.2660    1.9510 C   0  0  0  0  0  0  0  0  0  0  0  0
    1.0610   -2.4900    1.0790 C   0  0  2  0  0  0  0  0  0  0  0  0
    0.8860   -1.5440    0.0240 N   0  0  0  0  0  0  0  0  0  0  0  0
    0.9840   -1.8320    2.4310 C   0  0  0  0  0  0  0  0  0  0  0  0
    1.1310   -2.4730    3.5000 O   0  0  0  0  0  0  0  0  0  0  0  0
    4.1920   -2.3850    0.0280 H   0  0  0  0  0  0  0  0  0  0  0  0
    3.3070   -1.1520    0.9450 H   0  0  0  0  0  0  0  0  0  0  0  0
    4.2330   -2.5060    1.7990 H   0  0  0  0  0  0  0  0  0  0  0  0
    2.3500   -3.6750   -0.0980 H   0  0  0  0  0  0  0  0  0  0  0  0
    3.1610   -5.0450    1.5000 H   0  0  0  0  0  0  0  0  0  0  0  0
    2.8950   -3.8860    2.9060 H   0  0  0  0  0  0  0  0  0  0  0  0
    1.4760   -4.6670    2.0470 H   0  0  0  0  0  0  0  0  0  0  0  0
    0.3140   -3.3160    1.0000 H   0  0  0  0  0  0  0  0  0  0  0  0
    1.5210   -0.7090   -0.0150 H   0  0  0  0  0  0  0  0  0  0  0  0
   -0.9850    2.9870    1.9890 C   0  0  0  0  0  0  0  0  0  0  0  0
    0.4280    3.6050    2.9000 S   0  0  0  0  0  0  0  0  0  0  0  0
    1.7910    2.4780    3.0980 C   0  0  0  0  0  0  0  0  0  0  0  0
    1.6620    1.3370    4.0040 C   0  0  0  0  0  0  0  0  0  0  0  0
    0.6520    0.2780    3.7860 C   0  0  2  0  0  0  0  0  0  0  0  0
    0.7360   -0.4290    2.5330 N   0  0  0  0  0  0  0  0  0  0  0  0
   -0.6920    0.7070    4.1610 C   0  0  0  0  0  0  0  0  0  0  0  0
   -1.6680    0.2790    3.4570 O   0  0  0  0  0  0  0  0  0  0  0  0
   -1.0030    1.5350    5.2080 O   0  0  0  0  0  0  0  0  0  0  0  0
   -0.7720    1.9930    1.5500 H   0  0  0  0  0  0  0  0  0  0  0  0
   -1.8710    2.8730    2.6610 H   0  0  0  0  0  0  0  0  0  0  0  0
   -1.2460    3.6370    1.1160 H   0  0  0  0  0  0  0  0  0  0  0  0
    2.7070    3.0640    3.4540 H   0  0  0  0  0  0  0  0  0  0  0  0
    2.1090    2.1840    2.0530 H   0  0  0  0  0  0  0  0  0  0  0  0
    2.6730    0.8200    4.1430 H   0  0  0  0  0  0  0  0  0  0  0  0
    1.5270    1.7800    5.0590 H   0  0  0  0  0  0  0  0  0  0  0  0
    0.8850   -0.5400    4.6160 H   0  0  0  0  0  0  0  0  0  0  0  0
    0.6190    0.0660    1.6330 H   0  0  0  0  0  0  0  0  0  0  0  0
  1 12  1  0  0  0  0
  1 13  1  0  0  0  0
  2  1  1  0  0  0  0
  3  2  2  0  0  0  0
  3 14  1  0  0  0  0
  4 15  1  0  0  0  0
  4  2  1  0  0  0  0
  5  6  1  0  0  0  0
  5  4  1  0  0  0  0
  6  7  1  0  0  0  0
  6 19  1  0  0  0  0
  7  8  1  0  0  0  0
  8 22  1  1  0  0  0
  8  9  1  0  0  0  0
  8 10  1  0  0  0  0
  9 23  1  0  0  0  0
 10 11  2  0  0  0  0
 10 29  1  0  0  0  0
 16  5  1  0  0  0  0
 17  5  1  0  0  0  0
 18  6  1  0  0  0  0
 20  7  1  0  0  0  0
 21  7  1  0  0  0  0
 24  9  1  0  0  0  0
 25 33  1  0  0  0  0
 25 34  1  0  0  0  0
 26 25  1  0  0  0  0
 26 28  1  0  0  0  0
 26 27  1  0  0  0  0
 27 38  1  0  0  0  0
 27 37  1  0  0  0  0
 28 39  1  6  0  0  0
 28 30  1  0  0  0  0
 29 28  1  0  0  0  0
 30 46  1  0  0  0  0
 30 31  2  0  0  0  0
 32 25  1  0  0  0  0
 35 26  1  0  0  0  0
 36 27  1  0  0  0  0
 40 29  1  0  0  0  0
 41 51  1  0  0  0  0
 41 42  1  0  0  0  0
 42 43  1  0  0  0  0
 43 53  1  0  0  0  0
 43 44  1  0  0  0  0
 44 55  1  0  0  0  0
 44 56  1  0  0  0  0
 45 44  1  0  0  0  0
 45 47  1  0  0  0  0
 45 57  1  1  0  0  0
 46 45  1  0  0  0  0
 47 49  1  0  0  0  0
 48 47  2  0  0  0  0
 50 41  1  0  0  0  0
 52 41  1  0  0  0  0
 54 43  1  0  0  0  0
 58 46  1  0  0  0  0
M  END
$$$$
