RVW.pdb
 OpenBabel07022418083D

 65 66  0  0  1  0  0  0  0  0999 V2000
   -1.3860   -1.1140   -6.4090 N   0  0  0  0  0  0  0  0  0  0  0  0
   -2.6550   -1.1120   -5.7900 C   0  0  0  0  0  0  0  0  0  0  0  0
   -3.1040   -0.0590   -5.1460 N   0  0  0  0  0  0  0  0  0  0  0  0
   -3.5440   -2.2010   -5.8180 N   0  0  0  0  0  0  0  0  0  0  0  0
   -4.1300   -2.8760   -4.7080 C   0  0  0  0  0  0  0  0  0  0  0  0
   -3.1930   -3.7100   -3.8910 C   0  0  0  0  0  0  0  0  0  0  0  0
   -2.1490   -3.0010   -3.1430 C   0  0  0  0  0  0  0  0  0  0  0  0
   -2.6020   -2.1490   -1.9890 C   0  0  2  0  0  0  0  0  0  0  0  0
   -3.4960   -1.1350   -2.3910 N   0  0  0  0  0  0  0  0  0  0  0  0
   -1.3480   -1.5850   -1.3460 C   0  0  0  0  0  0  0  0  0  0  0  0
   -1.2760   -0.3310   -1.3290 O   0  0  0  0  0  0  0  0  0  0  0  0
   -1.2840   -0.7480   -7.3710 H   0  0  0  0  0  0  0  0  0  0  0  0
   -0.5610   -1.4770   -5.9090 H   0  0  0  0  0  0  0  0  0  0  0  0
   -2.5580    0.8100   -5.0600 H   0  0  0  0  0  0  0  0  0  0  0  0
   -3.7890   -2.5700   -6.8010 H   0  0  0  0  0  0  0  0  0  0  0  0
   -4.7340   -2.1670   -4.0710 H   0  0  0  0  0  0  0  0  0  0  0  0
   -4.9280   -3.5930   -5.0900 H   0  0  0  0  0  0  0  0  0  0  0  0
   -2.6570   -4.3820   -4.6380 H   0  0  0  0  0  0  0  0  0  0  0  0
   -3.7520   -4.3850   -3.1880 H   0  0  0  0  0  0  0  0  0  0  0  0
   -1.3050   -3.6790   -2.8230 H   0  0  0  0  0  0  0  0  0  0  0  0
   -1.6140   -2.2780   -3.8410 H   0  0  0  0  0  0  0  0  0  0  0  0
   -3.0830   -2.8580   -1.2660 H   0  0  0  0  0  0  0  0  0  0  0  0
   -4.4340   -1.1550   -1.9140 H   0  0  0  0  0  0  0  0  0  0  0  0
   -3.0580   -0.1900   -2.3220 H   0  0  0  0  0  0  0  0  0  0  0  0
    2.8490   -0.4700   -0.7230 C   0  0  0  0  0  0  0  0  0  0  0  0
    1.6010   -1.1060   -1.2570 C   0  0  0  0  0  0  0  0  0  0  0  0
    2.0530   -2.1290   -2.2910 C   0  0  0  0  0  0  0  0  0  0  0  0
    0.8420   -1.8480   -0.2000 C   0  0  2  0  0  0  0  0  0  0  0  0
   -0.3650   -2.4600   -0.8210 N   0  0  0  0  0  0  0  0  0  0  0  0
    0.4050   -1.0320    0.9550 C   0  0  0  0  0  0  0  0  0  0  0  0
   -0.8440   -0.8510    1.1760 O   0  0  0  0  0  0  0  0  0  0  0  0
    2.6890    0.5130   -0.2400 H   0  0  0  0  0  0  0  0  0  0  0  0
    3.4350   -1.1620   -0.0860 H   0  0  0  0  0  0  0  0  0  0  0  0
    3.5350   -0.3340   -1.6310 H   0  0  0  0  0  0  0  0  0  0  0  0
    1.0080   -0.2940   -1.7280 H   0  0  0  0  0  0  0  0  0  0  0  0
    2.4450   -2.9970   -1.7110 H   0  0  0  0  0  0  0  0  0  0  0  0
    1.2110   -2.5080   -2.8960 H   0  0  0  0  0  0  0  0  0  0  0  0
    2.8770   -1.7670   -2.9150 H   0  0  0  0  0  0  0  0  0  0  0  0
    1.5030   -2.6450    0.1920 H   0  0  0  0  0  0  0  0  0  0  0  0
   -0.4730   -3.4910   -0.8630 H   0  0  0  0  0  0  0  0  0  0  0  0
    1.2560   -0.4020    1.8870 N   0  0  0  0  0  0  0  0  0  0  0  0
    0.7810    0.4020    3.0080 C   0  0  1  0  0  0  0  0  0  0  0  0
    1.1250   -0.3810    4.2450 C   0  0  0  0  0  0  0  0  0  0  0  0
    0.7650    0.2430    5.5230 C   0  0  0  0  0  0  0  0  0  0  0  0
   -0.4120    0.0400    6.2480 C   0  0  0  0  0  0  0  0  0  0  0  0
   -0.3950    0.8110    7.3460 N   0  0  0  0  0  0  0  0  0  0  0  0
    0.7490    1.5030    7.3560 C   0  0  0  0  0  0  0  0  0  0  0  0
    1.2400    2.4140    8.2730 C   0  0  0  0  0  0  0  0  0  0  0  0
    2.4660    2.9950    8.0790 C   0  0  0  0  0  0  0  0  0  0  0  0
    3.2030    2.6700    6.9760 C   0  0  0  0  0  0  0  0  0  0  0  0
    2.7340    1.7650    6.0500 C   0  0  0  0  0  0  0  0  0  0  0  0
    1.4840    1.1690    6.2380 C   0  0  0  0  0  0  0  0  0  0  0  0
    1.2160    1.7790    2.9500 C   0  0  0  0  0  0  0  0  0  0  0  0
    0.7970    2.6350    3.7660 O   0  0  0  0  0  0  0  0  0  0  0  0
    2.1290    2.2610    1.9900 O   0  0  0  0  0  0  0  0  0  0  0  0
    2.2810   -0.4980    1.8220 H   0  0  0  0  0  0  0  0  0  0  0  0
   -0.3340    0.3810    2.9180 H   0  0  0  0  0  0  0  0  0  0  0  0
    2.2410   -0.5790    4.1800 H   0  0  0  0  0  0  0  0  0  0  0  0
    0.7010   -1.4320    4.1730 H   0  0  0  0  0  0  0  0  0  0  0  0
   -1.2280   -0.6220    6.0000 H   0  0  0  0  0  0  0  0  0  0  0  0
   -1.1630    0.8600    8.0810 H   0  0  0  0  0  0  0  0  0  0  0  0
    0.6180    2.6490    9.1480 H   0  0  0  0  0  0  0  0  0  0  0  0
    2.8410    3.6980    8.7910 H   0  0  0  0  0  0  0  0  0  0  0  0
    4.1800    3.1080    6.7880 H   0  0  0  0  0  0  0  0  0  0  0  0
    3.3390    1.5220    5.1790 H   0  0  0  0  0  0  0  0  0  0  0  0
  1 13  1  0  0  0  0
  1  2  1  0  0  0  0
  2  3  2  0  0  0  0
  3 14  1  0  0  0  0
  4  2  1  0  0  0  0
  4  5  1  0  0  0  0
  5 16  1  0  0  0  0
  5  6  1  0  0  0  0
  6 19  1  0  0  0  0
  6  7  1  0  0  0  0
  7 20  1  0  0  0  0
  7  8  1  0  0  0  0
  8 10  1  0  0  0  0
  8 22  1  1  0  0  0
  9 24  1  0  0  0  0
  9  8  1  0  0  0  0
  9 23  1  0  0  0  0
 10 11  2  0  0  0  0
 10 29  1  0  0  0  0
 12  1  1  0  0  0  0
 15  4  1  0  0  0  0
 17  5  1  0  0  0  0
 18  6  1  0  0  0  0
 21  7  1  0  0  0  0
 25 32  1  0  0  0  0
 25 33  1  0  0  0  0
 26 25  1  0  0  0  0
 26 28  1  0  0  0  0
 27 36  1  0  0  0  0
 27 26  1  0  0  0  0
 28 39  1  1  0  0  0
 28 30  1  0  0  0  0
 29 28  1  0  0  0  0
 30 31  2  0  0  0  0
 30 41  1  0  0  0  0
 34 25  1  0  0  0  0
 35 26  1  0  0  0  0
 37 27  1  0  0  0  0
 38 27  1  0  0  0  0
 40 29  1  0  0  0  0
 41 42  1  0  0  0  0
 42 57  1  6  0  0  0
 42 43  1  0  0  0  0
 43 44  1  0  0  0  0
 44 52  1  0  0  0  0
 44 45  2  0  0  0  0
 45 46  1  0  0  0  0
 46 47  1  0  0  0  0
 46 61  1  0  0  0  0
 47 48  1  0  0  0  0
 48 62  1  0  0  0  0
 49 48  2  0  0  0  0
 49 63  1  0  0  0  0
 50 49  1  0  0  0  0
 51 52  1  0  0  0  0
 51 50  2  0  0  0  0
 52 47  2  0  0  0  0
 53 42  1  0  0  0  0
 53 54  1  0  0  0  0
 55 53  2  0  0  0  0
 56 41  1  0  0  0  0
 58 43  1  0  0  0  0
 59 43  1  0  0  0  0
 60 45  1  0  0  0  0
 64 50  1  0  0  0  0
 65 51  1  0  0  0  0
M  END
$$$$
