RWA.pdb
 OpenBabel07022418073D

 59 60  0  0  1  0  0  0  0  0999 V2000
    0.1160    2.4630    5.6490 N   0  0  0  0  0  0  0  0  0  0  0  0
    0.6420    1.5940    4.6570 C   0  0  0  0  0  0  0  0  0  0  0  0
    0.2070    0.3960    4.4810 N   0  0  0  0  0  0  0  0  0  0  0  0
    1.7030    2.0670    3.8150 N   0  0  0  0  0  0  0  0  0  0  0  0
    2.3490    1.1480    2.8680 C   0  0  0  0  0  0  0  0  0  0  0  0
    3.4060    1.9480    2.1530 C   0  0  0  0  0  0  0  0  0  0  0  0
    4.1690    1.1530    1.1630 C   0  0  0  0  0  0  0  0  0  0  0  0
    3.4080    0.5470    0.0400 C   0  0  2  0  0  0  0  0  0  0  0  0
    2.7480    1.5820   -0.7250 N   0  0  0  0  0  0  0  0  0  0  0  0
    2.5460   -0.5960    0.3780 C   0  0  0  0  0  0  0  0  0  0  0  0
    2.9770   -1.4990    1.1400 O   0  0  0  0  0  0  0  0  0  0  0  0
    0.5990    3.3320    5.9380 H   0  0  0  0  0  0  0  0  0  0  0  0
   -0.7860    2.2290    6.1110 H   0  0  0  0  0  0  0  0  0  0  0  0
   -0.5610    0.0380    5.0820 H   0  0  0  0  0  0  0  0  0  0  0  0
    1.9740    3.0510    3.9090 H   0  0  0  0  0  0  0  0  0  0  0  0
    1.5880    0.8080    2.1260 H   0  0  0  0  0  0  0  0  0  0  0  0
    2.7530    0.2660    3.3900 H   0  0  0  0  0  0  0  0  0  0  0  0
    4.0710    2.3600    2.9670 H   0  0  0  0  0  0  0  0  0  0  0  0
    2.8650    2.7870    1.6460 H   0  0  0  0  0  0  0  0  0  0  0  0
    4.7530    0.3480    1.6960 H   0  0  0  0  0  0  0  0  0  0  0  0
    4.9400    1.8270    0.7190 H   0  0  0  0  0  0  0  0  0  0  0  0
    4.2200    0.1730   -0.6870 H   0  0  0  0  0  0  0  0  0  0  0  0
    3.0890    2.5280   -0.5400 H   0  0  0  0  0  0  0  0  0  0  0  0
    2.5940    1.3420   -1.7090 H   0  0  0  0  0  0  0  0  0  0  0  0
    1.2250   -0.7610   -0.1110 N   0  0  0  0  0  0  0  0  0  0  0  0
    0.4120   -1.8950    0.2400 C   0  0  1  0  0  0  0  0  0  0  0  0
   -0.6920   -1.3470    1.1190 C   0  0  0  0  0  0  0  0  0  0  0  0
   -1.4560   -0.2960    0.3980 C   0  0  0  0  0  0  0  0  0  0  0  0
   -1.2190    1.0850    0.5130 C   0  0  0  0  0  0  0  0  0  0  0  0
   -2.0500    1.7430   -0.2900 N   0  0  0  0  0  0  0  0  0  0  0  0
   -2.8450    0.8850   -0.9510 C   0  0  0  0  0  0  0  0  0  0  0  0
   -3.8500    1.0560   -1.8660 C   0  0  0  0  0  0  0  0  0  0  0  0
   -4.5200   -0.0270   -2.3820 C   0  0  0  0  0  0  0  0  0  0  0  0
   -4.1600   -1.2760   -1.9610 C   0  0  0  0  0  0  0  0  0  0  0  0
   -3.1580   -1.4670   -1.0470 C   0  0  0  0  0  0  0  0  0  0  0  0
   -2.4740   -0.3920   -0.5190 C   0  0  0  0  0  0  0  0  0  0  0  0
   -0.0340   -2.7390   -0.8490 C   0  0  0  0  0  0  0  0  0  0  0  0
    0.1270   -2.4080   -2.0490 O   0  0  0  0  0  0  0  0  0  0  0  0
    0.8310   -0.0400   -0.7420 H   0  0  0  0  0  0  0  0  0  0  0  0
    1.0380   -2.5260    0.9660 H   0  0  0  0  0  0  0  0  0  0  0  0
   -0.2510   -0.9090    2.0470 H   0  0  0  0  0  0  0  0  0  0  0  0
   -1.3550   -2.1970    1.3920 H   0  0  0  0  0  0  0  0  0  0  0  0
   -0.4840    1.5130    1.1510 H   0  0  0  0  0  0  0  0  0  0  0  0
   -2.0970    2.7900   -0.4100 H   0  0  0  0  0  0  0  0  0  0  0  0
   -4.1530    2.0320   -2.2140 H   0  0  0  0  0  0  0  0  0  0  0  0
   -5.3260    0.0820   -3.1140 H   0  0  0  0  0  0  0  0  0  0  0  0
   -4.6690   -2.1620   -2.3480 H   0  0  0  0  0  0  0  0  0  0  0  0
   -2.8860   -2.4470   -0.7050 H   0  0  0  0  0  0  0  0  0  0  0  0
   -0.1840   -6.0420   -1.8350 C   0  0  0  0  0  0  0  0  0  0  0  0
   -1.0900   -4.7920   -1.7310 C   0  0  2  0  0  0  0  0  0  0  0  0
   -0.6700   -3.9830   -0.6110 N   0  0  0  0  0  0  0  0  0  0  0  0
   -2.4550   -5.3450   -1.5700 C   0  0  0  0  0  0  0  0  0  0  0  0
   -3.1660   -5.1510   -0.5540 O   0  0  0  0  0  0  0  0  0  0  0  0
   -2.9970   -6.1240   -2.5830 O   0  0  0  0  0  0  0  0  0  0  0  0
   -0.4000   -6.4820   -2.8160 H   0  0  0  0  0  0  0  0  0  0  0  0
   -0.5600   -6.7370   -1.0610 H   0  0  0  0  0  0  0  0  0  0  0  0
    0.8760   -5.7670   -1.6790 H   0  0  0  0  0  0  0  0  0  0  0  0
   -0.9300   -4.2300   -2.6600 H   0  0  0  0  0  0  0  0  0  0  0  0
   -0.8580   -4.3590    0.3450 H   0  0  0  0  0  0  0  0  0  0  0  0
  1 12  1  0  0  0  0
  1 13  1  0  0  0  0
  2  1  1  0  0  0  0
  3  2  2  0  0  0  0
  3 14  1  0  0  0  0
  4 15  1  0  0  0  0
  4  2  1  0  0  0  0
  5 17  1  0  0  0  0
  5  4  1  0  0  0  0
  6  5  1  0  0  0  0
  6 18  1  0  0  0  0
  7 20  1  0  0  0  0
  7  6  1  0  0  0  0
  8 22  1  6  0  0  0
  8 10  1  0  0  0  0
  8  7  1  0  0  0  0
  9 23  1  0  0  0  0
  9  8  1  0  0  0  0
 10 11  2  0  0  0  0
 16  5  1  0  0  0  0
 19  6  1  0  0  0  0
 21  7  1  0  0  0  0
 24  9  1  0  0  0  0
 25 26  1  0  0  0  0
 25 10  1  0  0  0  0
 26 40  1  1  0  0  0
 26 27  1  0  0  0  0
 27 42  1  0  0  0  0
 27 41  1  0  0  0  0
 28 29  2  0  0  0  0
 28 27  1  0  0  0  0
 29 43  1  0  0  0  0
 30 29  1  0  0  0  0
 31 36  1  0  0  0  0
 31 30  1  0  0  0  0
 32 31  2  0  0  0  0
 33 34  2  0  0  0  0
 33 32  1  0  0  0  0
 34 35  1  0  0  0  0
 35 48  1  0  0  0  0
 35 36  2  0  0  0  0
 36 28  1  0  0  0  0
 37 51  1  0  0  0  0
 37 26  1  0  0  0  0
 38 37  2  0  0  0  0
 39 25  1  0  0  0  0
 44 30  1  0  0  0  0
 45 32  1  0  0  0  0
 46 33  1  0  0  0  0
 47 34  1  0  0  0  0
 49 50  1  0  0  0  0
 49 57  1  0  0  0  0
 49 56  1  0  0  0  0
 50 58  1  6  0  0  0
 50 52  1  0  0  0  0
 50 51  1  0  0  0  0
 51 59  1  0  0  0  0
 52 53  1  0  0  0  0
 54 52  2  0  0  0  0
 55 49  1  0  0  0  0
M  END
$$$$
