RWI.pdb
 OpenBabel07022418073D

 68 69  0  0  1  0  0  0  0  0999 V2000
    3.9570   -0.7870    3.1750 N   0  0  0  0  0  0  0  0  0  0  0  0
    4.9630    0.0180    2.5840 C   0  0  0  0  0  0  0  0  0  0  0  0
    6.0840   -0.4910    2.2030 N   0  0  0  0  0  0  0  0  0  0  0  0
    4.7720    1.4300    2.3820 N   0  0  0  0  0  0  0  0  0  0  0  0
    5.4240    2.0470    1.2830 C   0  0  0  0  0  0  0  0  0  0  0  0
    4.9660    1.6580   -0.0880 C   0  0  0  0  0  0  0  0  0  0  0  0
    3.5480    1.9420   -0.4180 C   0  0  0  0  0  0  0  0  0  0  0  0
    2.5100    1.2610    0.4010 C   0  0  2  0  0  0  0  0  0  0  0  0
    2.6420   -0.1570    0.2960 N   0  0  0  0  0  0  0  0  0  0  0  0
    1.1390    1.6940   -0.0930 C   0  0  0  0  0  0  0  0  0  0  0  0
    0.8590    2.9180   -0.1130 O   0  0  0  0  0  0  0  0  0  0  0  0
    3.5000   -0.5110    4.0520 H   0  0  0  0  0  0  0  0  0  0  0  0
    3.6840   -1.6670    2.7080 H   0  0  0  0  0  0  0  0  0  0  0  0
    6.2340   -1.5100    2.3400 H   0  0  0  0  0  0  0  0  0  0  0  0
    4.1550    1.9240    3.0950 H   0  0  0  0  0  0  0  0  0  0  0  0
    5.3190    3.1720    1.3400 H   0  0  0  0  0  0  0  0  0  0  0  0
    6.5170    1.8020    1.3530 H   0  0  0  0  0  0  0  0  0  0  0  0
    5.2160    0.5610   -0.2640 H   0  0  0  0  0  0  0  0  0  0  0  0
    5.6150    2.1820   -0.8410 H   0  0  0  0  0  0  0  0  0  0  0  0
    3.3910    1.6180   -1.4800 H   0  0  0  0  0  0  0  0  0  0  0  0
    3.4120    3.0540   -0.3650 H   0  0  0  0  0  0  0  0  0  0  0  0
    2.5730    1.5690    1.4370 H   0  0  0  0  0  0  0  0  0  0  0  0
    3.1470   -0.5280   -0.5040 H   0  0  0  0  0  0  0  0  0  0  0  0
    1.9570   -0.7340    0.7750 H   0  0  0  0  0  0  0  0  0  0  0  0
    0.1850    0.7490   -0.5270 N   0  0  0  0  0  0  0  0  0  0  0  0
   -1.1430    1.0980   -1.0150 C   0  0  1  0  0  0  0  0  0  0  0  0
   -1.1880    0.7020   -2.4650 C   0  0  0  0  0  0  0  0  0  0  0  0
   -0.9410   -0.7170   -2.7400 C   0  0  0  0  0  0  0  0  0  0  0  0
    0.3110   -1.2250   -3.0890 C   0  0  0  0  0  0  0  0  0  0  0  0
    0.2270   -2.5410   -3.2380 N   0  0  0  0  0  0  0  0  0  0  0  0
   -1.0410   -2.9370   -3.0020 C   0  0  0  0  0  0  0  0  0  0  0  0
   -1.6600   -4.1690   -3.0290 C   0  0  0  0  0  0  0  0  0  0  0  0
   -3.0080   -4.2660   -2.7490 C   0  0  0  0  0  0  0  0  0  0  0  0
   -3.7440   -3.1390   -2.4410 C   0  0  0  0  0  0  0  0  0  0  0  0
   -3.1170   -1.9320   -2.4180 C   0  0  0  0  0  0  0  0  0  0  0  0
   -1.7680   -1.8160   -2.6940 C   0  0  0  0  0  0  0  0  0  0  0  0
   -2.2360    0.6250   -0.1730 C   0  0  0  0  0  0  0  0  0  0  0  0
   -3.4090    0.9270   -0.5020 O   0  0  0  0  0  0  0  0  0  0  0  0
    0.4460   -0.2710   -0.4980 H   0  0  0  0  0  0  0  0  0  0  0  0
   -1.2220    2.2390   -1.0210 H   0  0  0  0  0  0  0  0  0  0  0  0
   -0.4370    1.3170   -3.0450 H   0  0  0  0  0  0  0  0  0  0  0  0
   -2.1720    1.0430   -2.9220 H   0  0  0  0  0  0  0  0  0  0  0  0
    1.1840   -0.5860   -3.2060 H   0  0  0  0  0  0  0  0  0  0  0  0
    0.9750   -3.1990   -3.4900 H   0  0  0  0  0  0  0  0  0  0  0  0
   -1.0560   -5.0290   -3.2740 H   0  0  0  0  0  0  0  0  0  0  0  0
   -3.4890   -5.2390   -2.7740 H   0  0  0  0  0  0  0  0  0  0  0  0
   -4.8070   -3.2530   -2.2250 H   0  0  0  0  0  0  0  0  0  0  0  0
   -3.7110   -1.0670   -2.1890 H   0  0  0  0  0  0  0  0  0  0  0  0
   -5.4760   -2.2670    2.3080 C   0  0  0  0  0  0  0  0  0  0  0  0
   -4.1360   -2.6470    2.8910 C   0  0  0  0  0  0  0  0  0  0  0  0
   -3.0250   -2.1170    2.0250 C   0  0  2  0  0  0  0  0  0  0  0  0
   -1.7170   -2.5500    2.6670 C   0  0  0  0  0  0  0  0  0  0  0  0
   -3.1040   -0.6380    1.8450 C   0  0  2  0  0  0  0  0  0  0  0  0
   -2.0360   -0.1500    0.9850 N   0  0  0  0  0  0  0  0  0  0  0  0
   -3.1210    0.1290    3.1270 C   0  0  0  0  0  0  0  0  0  0  0  0
   -3.9310   -0.0800    4.0540 O   0  0  0  0  0  0  0  0  0  0  0  0
   -2.1960    1.1650    3.3760 O   0  0  0  0  0  0  0  0  0  0  0  0
   -6.1750   -3.1460    2.2860 H   0  0  0  0  0  0  0  0  0  0  0  0
   -5.3250   -1.9820    1.2290 H   0  0  0  0  0  0  0  0  0  0  0  0
   -5.9430   -1.4910    2.9130 H   0  0  0  0  0  0  0  0  0  0  0  0
   -4.0940   -3.7730    2.8820 H   0  0  0  0  0  0  0  0  0  0  0  0
   -4.0470   -2.3750    3.9500 H   0  0  0  0  0  0  0  0  0  0  0  0
   -3.0580   -2.5850    1.0230 H   0  0  0  0  0  0  0  0  0  0  0  0
   -0.9030   -2.6770    1.9270 H   0  0  0  0  0  0  0  0  0  0  0  0
   -1.4390   -1.9080    3.5270 H   0  0  0  0  0  0  0  0  0  0  0  0
   -1.9120   -3.5560    3.0990 H   0  0  0  0  0  0  0  0  0  0  0  0
   -4.0510   -0.3970    1.3380 H   0  0  0  0  0  0  0  0  0  0  0  0
   -1.0600   -0.3980    1.2580 H   0  0  0  0  0  0  0  0  0  0  0  0
  1 12  1  0  0  0  0
  2  1  1  0  0  0  0
  3 14  1  0  0  0  0
  3  2  2  0  0  0  0
  4  2  1  0  0  0  0
  4 15  1  0  0  0  0
  5 16  1  0  0  0  0
  5 17  1  0  0  0  0
  5  4  1  0  0  0  0
  6  5  1  0  0  0  0
  7 21  1  0  0  0  0
  7  6  1  0  0  0  0
  7  8  1  0  0  0  0
  8 22  1  1  0  0  0
  9  8  1  0  0  0  0
  9 24  1  0  0  0  0
 10  8  1  0  0  0  0
 11 10  2  0  0  0  0
 13  1  1  0  0  0  0
 18  6  1  0  0  0  0
 19  6  1  0  0  0  0
 20  7  1  0  0  0  0
 23  9  1  0  0  0  0
 25 39  1  0  0  0  0
 25 10  1  0  0  0  0
 26 40  1  1  0  0  0
 26 25  1  0  0  0  0
 26 37  1  0  0  0  0
 27 26  1  0  0  0  0
 28 36  1  0  0  0  0
 28 27  1  0  0  0  0
 29 28  2  0  0  0  0
 30 29  1  0  0  0  0
 30 31  1  0  0  0  0
 31 36  1  0  0  0  0
 32 31  2  0  0  0  0
 32 33  1  0  0  0  0
 33 34  2  0  0  0  0
 34 35  1  0  0  0  0
 34 47  1  0  0  0  0
 35 48  1  0  0  0  0
 36 35  2  0  0  0  0
 37 54  1  0  0  0  0
 38 37  2  0  0  0  0
 41 27  1  0  0  0  0
 42 27  1  0  0  0  0
 43 29  1  0  0  0  0
 44 30  1  0  0  0  0
 45 32  1  0  0  0  0
 46 33  1  0  0  0  0
 49 50  1  0  0  0  0
 49 60  1  0  0  0  0
 50 62  1  0  0  0  0
 51 63  1  6  0  0  0
 51 52  1  0  0  0  0
 51 50  1  0  0  0  0
 52 66  1  0  0  0  0
 52 65  1  0  0  0  0
 53 67  1  6  0  0  0
 53 51  1  0  0  0  0
 53 55  1  0  0  0  0
 54 68  1  0  0  0  0
 54 53  1  0  0  0  0
 55 57  2  0  0  0  0
 55 56  1  0  0  0  0
 58 49  1  0  0  0  0
 59 49  1  0  0  0  0
 61 50  1  0  0  0  0
 64 52  1  0  0  0  0
M  END
$$$$
