RWL.pdb
 OpenBabel07022418073D

 68 69  0  0  1  0  0  0  0  0999 V2000
    7.5060   -3.2780    4.9720 N   0  0  0  0  0  0  0  0  0  0  0  0
    6.2340   -2.8100    4.4910 C   0  0  0  0  0  0  0  0  0  0  0  0
    5.9320   -2.9060    3.2400 N   0  0  0  0  0  0  0  0  0  0  0  0
    5.3200   -2.2430    5.4110 N   0  0  0  0  0  0  0  0  0  0  0  0
    4.2610   -1.4050    4.9540 C   0  0  0  0  0  0  0  0  0  0  0  0
    3.1980   -2.1180    4.1480 C   0  0  0  0  0  0  0  0  0  0  0  0
    2.1820   -1.0720    3.7640 C   0  0  0  0  0  0  0  0  0  0  0  0
    1.0520   -1.6560    2.9370 C   0  0  2  0  0  0  0  0  0  0  0  0
    1.5150   -2.2420    1.7160 N   0  0  0  0  0  0  0  0  0  0  0  0
    0.0080   -0.6090    2.6930 C   0  0  0  0  0  0  0  0  0  0  0  0
   -0.5240   -0.0100    3.6620 O   0  0  0  0  0  0  0  0  0  0  0  0
    7.6900   -3.3410    5.9930 H   0  0  0  0  0  0  0  0  0  0  0  0
    8.2570   -3.5580    4.3220 H   0  0  0  0  0  0  0  0  0  0  0  0
    6.6290   -3.3280    2.5950 H   0  0  0  0  0  0  0  0  0  0  0  0
    5.4460   -2.4540    6.4190 H   0  0  0  0  0  0  0  0  0  0  0  0
    3.7600   -0.9050    5.8250 H   0  0  0  0  0  0  0  0  0  0  0  0
    4.6250   -0.5580    4.3130 H   0  0  0  0  0  0  0  0  0  0  0  0
    3.5790   -2.6880    3.3040 H   0  0  0  0  0  0  0  0  0  0  0  0
    2.6630   -2.7910    4.8800 H   0  0  0  0  0  0  0  0  0  0  0  0
    1.7890   -0.5960    4.6810 H   0  0  0  0  0  0  0  0  0  0  0  0
    2.6630   -0.2910    3.1440 H   0  0  0  0  0  0  0  0  0  0  0  0
    0.6010   -2.4630    3.5510 H   0  0  0  0  0  0  0  0  0  0  0  0
    1.9810   -3.1340    1.9130 H   0  0  0  0  0  0  0  0  0  0  0  0
    1.9900   -1.6060    1.0680 H   0  0  0  0  0  0  0  0  0  0  0  0
   -0.3950   -0.2810    1.3480 N   0  0  0  0  0  0  0  0  0  0  0  0
   -1.3890    0.7160    1.1270 C   0  0  1  0  0  0  0  0  0  0  0  0
   -0.8630    1.9250    0.4140 C   0  0  0  0  0  0  0  0  0  0  0  0
   -0.3040    1.6720   -0.9190 C   0  0  0  0  0  0  0  0  0  0  0  0
   -0.3360    0.5370   -1.6920 C   0  0  0  0  0  0  0  0  0  0  0  0
    0.3080    0.7500   -2.8780 N   0  0  0  0  0  0  0  0  0  0  0  0
    0.7570    2.0070   -2.8850 C   0  0  0  0  0  0  0  0  0  0  0  0
    1.4620    2.6750   -3.8650 C   0  0  0  0  0  0  0  0  0  0  0  0
    1.8020    3.9930   -3.5980 C   0  0  0  0  0  0  0  0  0  0  0  0
    1.4430    4.6030   -2.4000 C   0  0  0  0  0  0  0  0  0  0  0  0
    0.7360    3.9000   -1.4420 C   0  0  0  0  0  0  0  0  0  0  0  0
    0.4020    2.6010   -1.7060 C   0  0  0  0  0  0  0  0  0  0  0  0
   -2.6110    0.2490    0.4380 C   0  0  0  0  0  0  0  0  0  0  0  0
   -3.4610    1.1710    0.1860 O   0  0  0  0  0  0  0  0  0  0  0  0
    0.1100   -0.8360    0.6200 H   0  0  0  0  0  0  0  0  0  0  0  0
   -1.7030    1.0700    2.1600 H   0  0  0  0  0  0  0  0  0  0  0  0
   -0.0510    2.3940    1.0280 H   0  0  0  0  0  0  0  0  0  0  0  0
   -1.6550    2.7100    0.3670 H   0  0  0  0  0  0  0  0  0  0  0  0
   -0.7720   -0.4200   -1.4990 H   0  0  0  0  0  0  0  0  0  0  0  0
    0.4320    0.0600   -3.6470 H   0  0  0  0  0  0  0  0  0  0  0  0
    1.7300    2.1840   -4.7890 H   0  0  0  0  0  0  0  0  0  0  0  0
    2.3600    4.5380   -4.3620 H   0  0  0  0  0  0  0  0  0  0  0  0
    1.7200    5.6240   -2.2230 H   0  0  0  0  0  0  0  0  0  0  0  0
    0.4380    4.3310   -0.5030 H   0  0  0  0  0  0  0  0  0  0  0  0
   -4.6940   -2.7470   -4.2120 C   0  0  0  0  0  0  0  0  0  0  0  0
   -5.0880   -2.2240   -2.8250 C   0  0  0  0  0  0  0  0  0  0  0  0
   -6.0180   -1.0690   -3.0480 C   0  0  0  0  0  0  0  0  0  0  0  0
   -3.8890   -1.8850   -2.0140 C   0  0  0  0  0  0  0  0  0  0  0  0
   -4.1860   -1.3540   -0.6310 C   0  0  2  0  0  0  0  0  0  0  0  0
   -2.9150   -1.0570    0.0520 N   0  0  0  0  0  0  0  0  0  0  0  0
   -4.9470   -2.3010    0.2080 C   0  0  0  0  0  0  0  0  0  0  0  0
   -6.0850   -2.6850   -0.1470 O   0  0  0  0  0  0  0  0  0  0  0  0
   -4.4390   -2.7930    1.4010 O   0  0  0  0  0  0  0  0  0  0  0  0
   -5.6420   -2.8370   -4.7820 H   0  0  0  0  0  0  0  0  0  0  0  0
   -4.1010   -1.9470   -4.7150 H   0  0  0  0  0  0  0  0  0  0  0  0
   -4.1920   -3.7110   -4.1570 H   0  0  0  0  0  0  0  0  0  0  0  0
   -5.6860   -3.0610   -2.3820 H   0  0  0  0  0  0  0  0  0  0  0  0
   -6.7070   -0.8890   -2.1960 H   0  0  0  0  0  0  0  0  0  0  0  0
   -6.6850   -1.3580   -3.9140 H   0  0  0  0  0  0  0  0  0  0  0  0
   -5.4930   -0.1590   -3.3940 H   0  0  0  0  0  0  0  0  0  0  0  0
   -3.2930   -1.1320   -2.5900 H   0  0  0  0  0  0  0  0  0  0  0  0
   -3.2240   -2.7750   -1.9330 H   0  0  0  0  0  0  0  0  0  0  0  0
   -4.7250   -0.3960   -0.7090 H   0  0  0  0  0  0  0  0  0  0  0  0
   -2.2160   -1.8020    0.2640 H   0  0  0  0  0  0  0  0  0  0  0  0
  1 12  1  0  0  0  0
  2  1  1  0  0  0  0
  2  4  1  0  0  0  0
  3  2  2  0  0  0  0
  4 15  1  0  0  0  0
  5  4  1  0  0  0  0
  5 16  1  0  0  0  0
  6 19  1  0  0  0  0
  6  5  1  0  0  0  0
  7  6  1  0  0  0  0
  7 20  1  0  0  0  0
  8 22  1  1  0  0  0
  8  7  1  0  0  0  0
  9 23  1  0  0  0  0
  9  8  1  0  0  0  0
 10  8  1  0  0  0  0
 10 11  2  0  0  0  0
 13  1  1  0  0  0  0
 14  3  1  0  0  0  0
 17  5  1  0  0  0  0
 18  6  1  0  0  0  0
 21  7  1  0  0  0  0
 24  9  1  0  0  0  0
 25 10  1  0  0  0  0
 26 25  1  0  0  0  0
 26 40  1  1  0  0  0
 27 41  1  0  0  0  0
 27 26  1  0  0  0  0
 28 27  1  0  0  0  0
 29 43  1  0  0  0  0
 29 28  2  0  0  0  0
 30 29  1  0  0  0  0
 31 30  1  0  0  0  0
 31 36  1  0  0  0  0
 32 33  1  0  0  0  0
 32 31  2  0  0  0  0
 33 34  2  0  0  0  0
 34 47  1  0  0  0  0
 34 35  1  0  0  0  0
 35 48  1  0  0  0  0
 36 35  2  0  0  0  0
 36 28  1  0  0  0  0
 37 26  1  0  0  0  0
 38 37  2  0  0  0  0
 39 25  1  0  0  0  0
 42 27  1  0  0  0  0
 44 30  1  0  0  0  0
 45 32  1  0  0  0  0
 46 33  1  0  0  0  0
 49 60  1  0  0  0  0
 49 50  1  0  0  0  0
 50 61  1  0  0  0  0
 50 52  1  0  0  0  0
 51 50  1  0  0  0  0
 51 62  1  0  0  0  0
 52 66  1  0  0  0  0
 52 53  1  0  0  0  0
 53 67  1  6  0  0  0
 53 54  1  0  0  0  0
 53 55  1  0  0  0  0
 54 68  1  0  0  0  0
 54 37  1  0  0  0  0
 55 57  1  0  0  0  0
 56 55  2  0  0  0  0
 58 49  1  0  0  0  0
 59 49  1  0  0  0  0
 63 51  1  0  0  0  0
 64 51  1  0  0  0  0
 65 52  1  0  0  0  0
M  END
$$$$
