RWM.pdb
 OpenBabel07022418073D

 66 67  0  0  1  0  0  0  0  0999 V2000
    3.9660   -0.9180    4.7200 N   0  0  0  0  0  0  0  0  0  0  0  0
    4.9120   -1.1000    3.6640 C   0  0  0  0  0  0  0  0  0  0  0  0
    5.4360   -2.2740    3.5220 N   0  0  0  0  0  0  0  0  0  0  0  0
    5.2260   -0.0050    2.8400 N   0  0  0  0  0  0  0  0  0  0  0  0
    6.0270   -0.1840    1.6600 C   0  0  0  0  0  0  0  0  0  0  0  0
    5.3640   -0.9610    0.5920 C   0  0  0  0  0  0  0  0  0  0  0  0
    4.1140   -0.4510    0.0090 C   0  0  0  0  0  0  0  0  0  0  0  0
    2.9350   -0.2740    0.8890 C   0  0  2  0  0  0  0  0  0  0  0  0
    2.4700   -1.4780    1.5280 N   0  0  0  0  0  0  0  0  0  0  0  0
    1.7860    0.1950    0.0340 C   0  0  0  0  0  0  0  0  0  0  0  0
    1.9170    1.2730   -0.6010 O   0  0  0  0  0  0  0  0  0  0  0  0
    4.0340   -0.1610    5.4300 H   0  0  0  0  0  0  0  0  0  0  0  0
    3.1670   -1.5790    4.7850 H   0  0  0  0  0  0  0  0  0  0  0  0
    5.1950   -3.0590    4.1340 H   0  0  0  0  0  0  0  0  0  0  0  0
    4.8610    0.9420    3.1230 H   0  0  0  0  0  0  0  0  0  0  0  0
    6.4900    0.7670    1.3130 H   0  0  0  0  0  0  0  0  0  0  0  0
    6.9170   -0.7980    2.0040 H   0  0  0  0  0  0  0  0  0  0  0  0
    5.1960   -2.0070    0.9960 H   0  0  0  0  0  0  0  0  0  0  0  0
    6.0970   -1.1590   -0.2530 H   0  0  0  0  0  0  0  0  0  0  0  0
    3.8920   -1.0690   -0.9050 H   0  0  0  0  0  0  0  0  0  0  0  0
    4.3270    0.5710   -0.4380 H   0  0  0  0  0  0  0  0  0  0  0  0
    3.1200    0.5700    1.5820 H   0  0  0  0  0  0  0  0  0  0  0  0
    2.2500   -1.2570    2.5250 H   0  0  0  0  0  0  0  0  0  0  0  0
    3.2550   -2.1610    1.5360 H   0  0  0  0  0  0  0  0  0  0  0  0
    0.5760   -0.5250   -0.0820 N   0  0  0  0  0  0  0  0  0  0  0  0
   -0.5260   -0.0320   -0.9270 C   0  0  1  0  0  0  0  0  0  0  0  0
   -0.6920   -0.8930   -2.1210 C   0  0  0  0  0  0  0  0  0  0  0  0
   -1.7570   -0.5470   -3.0610 C   0  0  0  0  0  0  0  0  0  0  0  0
   -1.5880    0.2560   -4.1970 C   0  0  0  0  0  0  0  0  0  0  0  0
   -2.7620    0.3870   -4.7950 N   0  0  0  0  0  0  0  0  0  0  0  0
   -3.7180   -0.2700   -4.1490 C   0  0  0  0  0  0  0  0  0  0  0  0
   -5.0610   -0.4190   -4.4150 C   0  0  0  0  0  0  0  0  0  0  0  0
   -5.8100   -1.1900   -3.5570 C   0  0  0  0  0  0  0  0  0  0  0  0
   -5.2050   -1.7890   -2.4630 C   0  0  0  0  0  0  0  0  0  0  0  0
   -3.8740   -1.6380   -2.2020 C   0  0  0  0  0  0  0  0  0  0  0  0
   -3.0920   -0.8660   -3.0480 C   0  0  0  0  0  0  0  0  0  0  0  0
   -1.6970    0.3110   -0.1370 C   0  0  0  0  0  0  0  0  0  0  0  0
   -2.7160    0.8010   -0.6550 O   0  0  0  0  0  0  0  0  0  0  0  0
    0.5100   -1.4110    0.4570 H   0  0  0  0  0  0  0  0  0  0  0  0
   -0.1330    0.9650   -1.3260 H   0  0  0  0  0  0  0  0  0  0  0  0
    0.2920   -0.9890   -2.6850 H   0  0  0  0  0  0  0  0  0  0  0  0
   -0.8180   -1.9540   -1.7240 H   0  0  0  0  0  0  0  0  0  0  0  0
   -0.6570    0.6870   -4.5150 H   0  0  0  0  0  0  0  0  0  0  0  0
   -2.9380    0.9460   -5.6840 H   0  0  0  0  0  0  0  0  0  0  0  0
   -5.5460    0.0450   -5.2690 H   0  0  0  0  0  0  0  0  0  0  0  0
   -6.8770   -1.3150   -3.7590 H   0  0  0  0  0  0  0  0  0  0  0  0
   -5.8070   -2.3900   -1.8010 H   0  0  0  0  0  0  0  0  0  0  0  0
   -3.4000   -2.1010   -1.3580 H   0  0  0  0  0  0  0  0  0  0  0  0
   -0.8520   -3.0580    2.4560 C   0  0  0  0  0  0  0  0  0  0  0  0
   -2.1400   -2.5070    1.3040 S   0  0  0  0  0  0  0  0  0  0  0  0
   -3.5720   -1.9580    2.2470 C   0  0  0  0  0  0  0  0  0  0  0  0
   -3.2350   -0.7170    2.9990 C   0  0  0  0  0  0  0  0  0  0  0  0
   -2.8650    0.4250    2.0930 C   0  0  2  0  0  0  0  0  0  0  0  0
   -1.7260    0.0980    1.2880 N   0  0  0  0  0  0  0  0  0  0  0  0
   -2.5100    1.5660    3.0170 C   0  0  0  0  0  0  0  0  0  0  0  0
   -3.3720    2.0030    3.8070 O   0  0  0  0  0  0  0  0  0  0  0  0
   -1.2560    2.1320    3.0040 O   0  0  0  0  0  0  0  0  0  0  0  0
   -1.2450   -3.8820    3.0660 H   0  0  0  0  0  0  0  0  0  0  0  0
   -0.4770   -2.2590    3.0990 H   0  0  0  0  0  0  0  0  0  0  0  0
    0.0240   -3.4550    1.8940 H   0  0  0  0  0  0  0  0  0  0  0  0
   -3.8600   -2.7650    2.9780 H   0  0  0  0  0  0  0  0  0  0  0  0
   -4.4410   -1.7350    1.5920 H   0  0  0  0  0  0  0  0  0  0  0  0
   -4.0910   -0.4320    3.6790 H   0  0  0  0  0  0  0  0  0  0  0  0
   -2.3860   -0.9090    3.6910 H   0  0  0  0  0  0  0  0  0  0  0  0
   -3.7290    0.7700    1.4840 H   0  0  0  0  0  0  0  0  0  0  0  0
   -0.8570   -0.3040    1.6890 H   0  0  0  0  0  0  0  0  0  0  0  0
  1 13  1  0  0  0  0
  1 12  1  0  0  0  0
  2  1  1  0  0  0  0
  3  2  2  0  0  0  0
  3 14  1  0  0  0  0
  4 15  1  0  0  0  0
  4  2  1  0  0  0  0
  5 17  1  0  0  0  0
  5  4  1  0  0  0  0
  6 18  1  0  0  0  0
  6  5  1  0  0  0  0
  7  6  1  0  0  0  0
  7  8  1  0  0  0  0
  8  9  1  0  0  0  0
  8 22  1  1  0  0  0
  9 24  1  0  0  0  0
  9 23  1  0  0  0  0
 10  8  1  0  0  0  0
 11 10  2  0  0  0  0
 16  5  1  0  0  0  0
 19  6  1  0  0  0  0
 20  7  1  0  0  0  0
 21  7  1  0  0  0  0
 25 10  1  0  0  0  0
 25 39  1  0  0  0  0
 26 40  1  6  0  0  0
 26 37  1  0  0  0  0
 26 25  1  0  0  0  0
 27 42  1  0  0  0  0
 27 26  1  0  0  0  0
 28 36  1  0  0  0  0
 28 27  1  0  0  0  0
 29 28  2  0  0  0  0
 30 29  1  0  0  0  0
 30 31  1  0  0  0  0
 31 36  1  0  0  0  0
 32 31  2  0  0  0  0
 32 33  1  0  0  0  0
 33 34  2  0  0  0  0
 34 35  1  0  0  0  0
 34 47  1  0  0  0  0
 35 48  1  0  0  0  0
 36 35  2  0  0  0  0
 37 54  1  0  0  0  0
 38 37  2  0  0  0  0
 41 27  1  0  0  0  0
 43 29  1  0  0  0  0
 44 30  1  0  0  0  0
 45 32  1  0  0  0  0
 46 33  1  0  0  0  0
 49 58  1  0  0  0  0
 49 59  1  0  0  0  0
 50 51  1  0  0  0  0
 50 49  1  0  0  0  0
 51 61  1  0  0  0  0
 51 52  1  0  0  0  0
 52 63  1  0  0  0  0
 52 64  1  0  0  0  0
 53 65  1  6  0  0  0
 53 52  1  0  0  0  0
 53 55  1  0  0  0  0
 54 66  1  0  0  0  0
 54 53  1  0  0  0  0
 55 56  1  0  0  0  0
 57 55  2  0  0  0  0
 60 49  1  0  0  0  0
 62 51  1  0  0  0  0
M  END
$$$$
