RWQ.pdb
 OpenBabel07022418073D

 66 67  0  0  1  0  0  0  0  0999 V2000
    2.3280   -3.0060    4.8940 N   0  0  0  0  0  0  0  0  0  0  0  0
    2.3180   -2.4300    3.5900 C   0  0  0  0  0  0  0  0  0  0  0  0
    1.3110   -2.6790    2.8040 N   0  0  0  0  0  0  0  0  0  0  0  0
    3.3590   -1.5950    3.1160 N   0  0  0  0  0  0  0  0  0  0  0  0
    3.4480   -1.2150    1.7080 C   0  0  0  0  0  0  0  0  0  0  0  0
    3.7730   -2.4590    0.9290 C   0  0  0  0  0  0  0  0  0  0  0  0
    3.9480   -2.2790   -0.5300 C   0  0  0  0  0  0  0  0  0  0  0  0
    2.7900   -1.7540   -1.2900 C   0  0  2  0  0  0  0  0  0  0  0  0
    3.1360   -1.6670   -2.7310 N   0  0  0  0  0  0  0  0  0  0  0  0
    2.4190   -0.3340   -0.9610 C   0  0  0  0  0  0  0  0  0  0  0  0
    3.2930    0.5620   -0.8260 O   0  0  0  0  0  0  0  0  0  0  0  0
    2.7580   -3.9350    5.0930 H   0  0  0  0  0  0  0  0  0  0  0  0
    1.8920   -2.4840    5.6740 H   0  0  0  0  0  0  0  0  0  0  0  0
    0.5120   -3.2760    3.0740 H   0  0  0  0  0  0  0  0  0  0  0  0
    4.0680   -1.2490    3.7820 H   0  0  0  0  0  0  0  0  0  0  0  0
    2.4230   -0.8720    1.4070 H   0  0  0  0  0  0  0  0  0  0  0  0
    4.2150   -0.4370    1.5670 H   0  0  0  0  0  0  0  0  0  0  0  0
    4.6150   -3.0270    1.3960 H   0  0  0  0  0  0  0  0  0  0  0  0
    2.8830   -3.1530    1.0670 H   0  0  0  0  0  0  0  0  0  0  0  0
    4.8580   -1.6400   -0.6810 H   0  0  0  0  0  0  0  0  0  0  0  0
    4.2060   -3.2950   -0.9480 H   0  0  0  0  0  0  0  0  0  0  0  0
    1.9320   -2.3950   -1.2080 H   0  0  0  0  0  0  0  0  0  0  0  0
    2.3460   -2.0410   -3.3100 H   0  0  0  0  0  0  0  0  0  0  0  0
    4.0480   -2.1160   -2.9230 H   0  0  0  0  0  0  0  0  0  0  0  0
    1.0640    0.0770   -0.7930 N   0  0  0  0  0  0  0  0  0  0  0  0
    0.6390    1.4150   -0.4960 C   0  0  1  0  0  0  0  0  0  0  0  0
    0.0030    2.1340   -1.6670 C   0  0  0  0  0  0  0  0  0  0  0  0
   -1.1830    1.5070   -2.2230 C   0  0  0  0  0  0  0  0  0  0  0  0
   -2.4790    1.8850   -1.9520 C   0  0  0  0  0  0  0  0  0  0  0  0
   -3.3130    1.0840   -2.6220 N   0  0  0  0  0  0  0  0  0  0  0  0
   -2.6020    0.1950   -3.3240 C   0  0  0  0  0  0  0  0  0  0  0  0
   -2.9410   -0.8330   -4.1740 C   0  0  0  0  0  0  0  0  0  0  0  0
   -1.9530   -1.5770   -4.7590 C   0  0  0  0  0  0  0  0  0  0  0  0
   -0.6070   -1.3550   -4.5450 C   0  0  0  0  0  0  0  0  0  0  0  0
   -0.2740   -0.3240   -3.6930 C   0  0  0  0  0  0  0  0  0  0  0  0
   -1.2680    0.4400   -3.0910 C   0  0  0  0  0  0  0  0  0  0  0  0
   -0.2460    1.4870    0.6880 C   0  0  0  0  0  0  0  0  0  0  0  0
   -0.7730    2.5990    1.0450 O   0  0  0  0  0  0  0  0  0  0  0  0
    0.3530   -0.6860   -0.9010 H   0  0  0  0  0  0  0  0  0  0  0  0
    1.5450    2.0620   -0.2310 H   0  0  0  0  0  0  0  0  0  0  0  0
    0.7830    2.1570   -2.4850 H   0  0  0  0  0  0  0  0  0  0  0  0
   -0.1350    3.2100   -1.4090 H   0  0  0  0  0  0  0  0  0  0  0  0
   -2.7790    2.7060   -1.2950 H   0  0  0  0  0  0  0  0  0  0  0  0
   -4.3730    1.1610   -2.5870 H   0  0  0  0  0  0  0  0  0  0  0  0
   -3.9810   -1.0780   -4.3990 H   0  0  0  0  0  0  0  0  0  0  0  0
   -2.1990   -2.3990   -5.4380 H   0  0  0  0  0  0  0  0  0  0  0  0
    0.1470   -1.9720   -5.0330 H   0  0  0  0  0  0  0  0  0  0  0  0
    0.7580   -0.1440   -3.5280 H   0  0  0  0  0  0  0  0  0  0  0  0
   -5.5410   -1.9420    4.2100 N   0  0  0  0  0  0  0  0  0  0  0  0
   -4.4940   -1.6540    3.3110 C   0  0  0  0  0  0  0  0  0  0  0  0
   -4.3720   -2.3300    2.2710 O   0  0  0  0  0  0  0  0  0  0  0  0
   -3.5370   -0.5590    3.5820 C   0  0  0  0  0  0  0  0  0  0  0  0
   -2.5030   -0.5320    2.5130 C   0  0  0  0  0  0  0  0  0  0  0  0
   -1.4640    0.5450    2.6430 C   0  0  2  0  0  0  0  0  0  0  0  0
   -0.5640    0.3720    1.4850 N   0  0  0  0  0  0  0  0  0  0  0  0
   -0.7140    0.4460    3.9020 C   0  0  0  0  0  0  0  0  0  0  0  0
    0.5400    0.2270    3.9120 O   0  0  0  0  0  0  0  0  0  0  0  0
   -1.3140    0.5850    5.1210 O   0  0  0  0  0  0  0  0  0  0  0  0
   -5.7700   -2.9080    4.5500 H   0  0  0  0  0  0  0  0  0  0  0  0
   -6.1780   -1.1960    4.6130 H   0  0  0  0  0  0  0  0  0  0  0  0
   -4.0460    0.4160    3.7330 H   0  0  0  0  0  0  0  0  0  0  0  0
   -3.0600   -0.7830    4.5770 H   0  0  0  0  0  0  0  0  0  0  0  0
   -3.0440   -0.4030    1.5290 H   0  0  0  0  0  0  0  0  0  0  0  0
   -2.0210   -1.5360    2.4980 H   0  0  0  0  0  0  0  0  0  0  0  0
   -1.9230    1.5560    2.5960 H   0  0  0  0  0  0  0  0  0  0  0  0
   -0.1810   -0.5730    1.2790 H   0  0  0  0  0  0  0  0  0  0  0  0
  1 12  1  0  0  0  0
  1 13  1  0  0  0  0
  2  1  1  0  0  0  0
  3 14  1  0  0  0  0
  3  2  2  0  0  0  0
  4  2  1  0  0  0  0
  4 15  1  0  0  0  0
  5  4  1  0  0  0  0
  6 19  1  0  0  0  0
  6 18  1  0  0  0  0
  6  5  1  0  0  0  0
  7  6  1  0  0  0  0
  8 22  1  1  0  0  0
  8 10  1  0  0  0  0
  8  7  1  0  0  0  0
  9  8  1  0  0  0  0
 10 11  2  0  0  0  0
 10 25  1  0  0  0  0
 16  5  1  0  0  0  0
 17  5  1  0  0  0  0
 20  7  1  0  0  0  0
 21  7  1  0  0  0  0
 23  9  1  0  0  0  0
 24  9  1  0  0  0  0
 25 26  1  0  0  0  0
 26 40  1  1  0  0  0
 26 37  1  0  0  0  0
 27 42  1  0  0  0  0
 27 26  1  0  0  0  0
 28 29  2  0  0  0  0
 28 27  1  0  0  0  0
 29 43  1  0  0  0  0
 30 44  1  0  0  0  0
 30 29  1  0  0  0  0
 31 36  1  0  0  0  0
 31 30  1  0  0  0  0
 32 31  2  0  0  0  0
 33 34  2  0  0  0  0
 33 32  1  0  0  0  0
 34 35  1  0  0  0  0
 35 48  1  0  0  0  0
 35 36  2  0  0  0  0
 36 28  1  0  0  0  0
 37 38  2  0  0  0  0
 37 55  1  0  0  0  0
 39 25  1  0  0  0  0
 41 27  1  0  0  0  0
 45 32  1  0  0  0  0
 46 33  1  0  0  0  0
 47 34  1  0  0  0  0
 49 59  1  0  0  0  0
 49 60  1  0  0  0  0
 50 52  1  0  0  0  0
 50 49  1  0  0  0  0
 51 50  2  0  0  0  0
 52 61  1  0  0  0  0
 52 62  1  0  0  0  0
 53 54  1  0  0  0  0
 53 52  1  0  0  0  0
 54 65  1  6  0  0  0
 54 56  1  0  0  0  0
 55 54  1  0  0  0  0
 56 57  2  0  0  0  0
 56 58  1  0  0  0  0
 63 53  1  0  0  0  0
 64 53  1  0  0  0  0
 66 55  1  0  0  0  0
M  END
$$$$
