RWW.pdb
 OpenBabel07022418073D

 73 76  0  0  1  0  0  0  0  0999 V2000
   -1.1940   -2.9200    4.9580 N   0  0  0  0  0  0  0  0  0  0  0  0
   -2.0390   -2.5550    3.8750 C   0  0  0  0  0  0  0  0  0  0  0  0
   -3.0240   -1.7260    4.1200 N   0  0  0  0  0  0  0  0  0  0  0  0
   -1.8520   -3.0530    2.5590 N   0  0  0  0  0  0  0  0  0  0  0  0
   -3.0300   -3.3330    1.7500 C   0  0  0  0  0  0  0  0  0  0  0  0
   -2.6210   -3.8470    0.3800 C   0  0  0  0  0  0  0  0  0  0  0  0
   -1.8030   -2.8190   -0.3700 C   0  0  0  0  0  0  0  0  0  0  0  0
   -2.6300   -1.5520   -0.6120 C   0  0  2  0  0  0  0  0  0  0  0  0
   -3.7670   -2.0310   -1.4250 N   0  0  0  0  0  0  0  0  0  0  0  0
   -1.8750   -0.5650   -1.4330 C   0  0  0  0  0  0  0  0  0  0  0  0
   -2.0660   -0.4380   -2.6670 O   0  0  0  0  0  0  0  0  0  0  0  0
   -0.1760   -2.7770    4.9360 H   0  0  0  0  0  0  0  0  0  0  0  0
   -1.6300   -3.3440    5.8020 H   0  0  0  0  0  0  0  0  0  0  0  0
   -3.1740   -1.3530    5.0720 H   0  0  0  0  0  0  0  0  0  0  0  0
   -0.8670   -3.2010    2.2260 H   0  0  0  0  0  0  0  0  0  0  0  0
   -3.6640   -2.4480    1.7200 H   0  0  0  0  0  0  0  0  0  0  0  0
   -3.5870   -4.1580    2.2360 H   0  0  0  0  0  0  0  0  0  0  0  0
   -3.5580   -4.0330   -0.1610 H   0  0  0  0  0  0  0  0  0  0  0  0
   -2.0460   -4.7600    0.5040 H   0  0  0  0  0  0  0  0  0  0  0  0
   -1.5190   -3.2860   -1.3340 H   0  0  0  0  0  0  0  0  0  0  0  0
   -0.9050   -2.5300    0.1590 H   0  0  0  0  0  0  0  0  0  0  0  0
   -3.0290   -1.1300    0.3140 H   0  0  0  0  0  0  0  0  0  0  0  0
   -3.3030   -2.4490   -2.2840 H   0  0  0  0  0  0  0  0  0  0  0  0
   -4.3020   -1.2000   -1.8020 H   0  0  0  0  0  0  0  0  0  0  0  0
   -0.9000    0.2700   -0.8040 N   0  0  0  0  0  0  0  0  0  0  0  0
   -0.1110    1.2440   -1.4940 C   0  0  1  0  0  0  0  0  0  0  0  0
   -0.6550    2.6670   -1.3650 C   0  0  0  0  0  0  0  0  0  0  0  0
   -0.7520    3.1290    0.0330 C   0  0  0  0  0  0  0  0  0  0  0  0
    0.1690    3.9090    0.7510 C   0  0  0  0  0  0  0  0  0  0  0  0
   -0.2840    4.0710    1.9970 N   0  0  0  0  0  0  0  0  0  0  0  0
   -1.4570    3.4510    2.1730 C   0  0  0  0  0  0  0  0  0  0  0  0
   -2.3170    3.3300    3.2590 C   0  0  0  0  0  0  0  0  0  0  0  0
   -3.4760    2.5980    3.0520 C   0  0  0  0  0  0  0  0  0  0  0  0
   -3.8060    2.0090    1.8730 C   0  0  0  0  0  0  0  0  0  0  0  0
   -2.9370    2.1300    0.7810 C   0  0  0  0  0  0  0  0  0  0  0  0
   -1.7610    2.8630    0.9660 C   0  0  0  0  0  0  0  0  0  0  0  0
    1.3420    1.1860   -1.2080 C   0  0  0  0  0  0  0  0  0  0  0  0
    2.0910    2.0480   -1.7620 O   0  0  0  0  0  0  0  0  0  0  0  0
   -0.7440    0.1690    0.2280 H   0  0  0  0  0  0  0  0  0  0  0  0
   -0.1980    1.0450   -2.6230 H   0  0  0  0  0  0  0  0  0  0  0  0
   -1.6540    2.7350   -1.8330 H   0  0  0  0  0  0  0  0  0  0  0  0
    0.0570    3.3050   -1.9460 H   0  0  0  0  0  0  0  0  0  0  0  0
    1.0850    4.3040    0.3500 H   0  0  0  0  0  0  0  0  0  0  0  0
    0.1840    4.6170    2.7840 H   0  0  0  0  0  0  0  0  0  0  0  0
   -2.1070    3.7740    4.2160 H   0  0  0  0  0  0  0  0  0  0  0  0
   -4.1880    2.4690    3.8740 H   0  0  0  0  0  0  0  0  0  0  0  0
   -4.7150    1.4390    1.7060 H   0  0  0  0  0  0  0  0  0  0  0  0
   -3.1670    1.6900   -0.1590 H   0  0  0  0  0  0  0  0  0  0  0  0
    1.9380    0.2200   -0.3520 N   0  0  0  0  0  0  0  0  0  0  0  0
    3.3000    0.0970   -0.0140 C   0  0  1  0  0  0  0  0  0  0  0  0
    4.1930   -0.6920   -0.8730 C   0  0  0  0  0  0  0  0  0  0  0  0
    3.8540   -2.1310   -1.0430 C   0  0  0  0  0  0  0  0  0  0  0  0
    4.4700   -3.1720   -0.4050 C   0  0  0  0  0  0  0  0  0  0  0  0
    3.8970   -4.3170   -0.8010 N   0  0  0  0  0  0  0  0  0  0  0  0
    2.9320   -3.9900   -1.6770 C   0  0  0  0  0  0  0  0  0  0  0  0
    2.0790   -4.8580   -2.3540 C   0  0  0  0  0  0  0  0  0  0  0  0
    1.1430   -4.3080   -3.2340 C   0  0  0  0  0  0  0  0  0  0  0  0
    1.0660   -2.9270   -3.4340 C   0  0  0  0  0  0  0  0  0  0  0  0
    1.9370   -2.1310   -2.7350 C   0  0  0  0  0  0  0  0  0  0  0  0
    2.8800   -2.6210   -1.8510 C   0  0  0  0  0  0  0  0  0  0  0  0
    3.9790    1.4100    0.2870 C   0  0  0  0  0  0  0  0  0  0  0  0
    5.2070    1.4100    0.4490 O   0  0  0  0  0  0  0  0  0  0  0  0
    3.2420    2.5710    0.3840 O   0  0  0  0  0  0  0  0  0  0  0  0
    1.2300   -0.4710    0.0520 H   0  0  0  0  0  0  0  0  0  0  0  0
    3.3120   -0.3980    1.0310 H   0  0  0  0  0  0  0  0  0  0  0  0
    5.2600   -0.6610   -0.5020 H   0  0  0  0  0  0  0  0  0  0  0  0
    4.2740   -0.2680   -1.9090 H   0  0  0  0  0  0  0  0  0  0  0  0
    5.2930   -3.0580    0.3020 H   0  0  0  0  0  0  0  0  0  0  0  0
    4.1630   -5.2940   -0.4680 H   0  0  0  0  0  0  0  0  0  0  0  0
    2.1410   -5.9270   -2.1970 H   0  0  0  0  0  0  0  0  0  0  0  0
    0.5060   -5.0000   -3.7360 H   0  0  0  0  0  0  0  0  0  0  0  0
    0.3280   -2.5540   -4.1230 H   0  0  0  0  0  0  0  0  0  0  0  0
    1.9120   -1.0360   -2.8760 H   0  0  0  0  0  0  0  0  0  0  0  0
  1 13  1  0  0  0  0
  2  3  2  0  0  0  0
  2  1  1  0  0  0  0
  3 14  1  0  0  0  0
  4  2  1  0  0  0  0
  5 17  1  0  0  0  0
  5  4  1  0  0  0  0
  6 19  1  0  0  0  0
  6  5  1  0  0  0  0
  7 21  1  0  0  0  0
  7  6  1  0  0  0  0
  8  7  1  0  0  0  0
  8 22  1  1  0  0  0
  9  8  1  0  0  0  0
 10 25  1  0  0  0  0
 10  8  1  0  0  0  0
 11 10  2  0  0  0  0
 12  1  1  0  0  0  0
 15  4  1  0  0  0  0
 16  5  1  0  0  0  0
 18  6  1  0  0  0  0
 20  7  1  0  0  0  0
 23  9  1  0  0  0  0
 24  9  1  0  0  0  0
 25 39  1  0  0  0  0
 26 40  1  6  0  0  0
 26 27  1  0  0  0  0
 26 37  1  0  0  0  0
 26 25  1  0  0  0  0
 27 28  1  0  0  0  0
 28 29  2  0  0  0  0
 28 36  1  0  0  0  0
 29 30  1  0  0  0  0
 30 31  1  0  0  0  0
 30 44  1  0  0  0  0
 31 32  1  0  0  0  0
 32 45  1  0  0  0  0
 33 32  2  0  0  0  0
 33 46  1  0  0  0  0
 34 33  1  0  0  0  0
 35 36  1  0  0  0  0
 35 34  2  0  0  0  0
 36 31  2  0  0  0  0
 37 49  1  0  0  0  0
 38 37  2  0  0  0  0
 41 27  1  0  0  0  0
 42 27  1  0  0  0  0
 43 29  1  0  0  0  0
 47 34  1  0  0  0  0
 48 35  1  0  0  0  0
 49 50  1  0  0  0  0
 49 64  1  0  0  0  0
 50 61  1  0  0  0  0
 50 65  1  1  0  0  0
 51 66  1  0  0  0  0
 51 50  1  0  0  0  0
 52 51  1  0  0  0  0
 52 53  2  0  0  0  0
 53 68  1  0  0  0  0
 54 69  1  0  0  0  0
 54 53  1  0  0  0  0
 55 54  1  0  0  0  0
 56 70  1  0  0  0  0
 56 55  2  0  0  0  0
 57 56  1  0  0  0  0
 58 57  2  0  0  0  0
 58 59  1  0  0  0  0
 59 60  2  0  0  0  0
 60 55  1  0  0  0  0
 60 52  1  0  0  0  0
 61 63  2  0  0  0  0
 61 62  1  0  0  0  0
 67 51  1  0  0  0  0
 71 57  1  0  0  0  0
 72 58  1  0  0  0  0
 73 59  1  0  0  0  0
M  END
$$$$
