RYC.pdb
 OpenBabel07022418073D

 57 57  0  0  1  0  0  0  0  0999 V2000
   -0.0570   -3.9730    2.5490 N   0  0  0  0  0  0  0  0  0  0  0  0
    0.5520   -2.8450    3.1530 C   0  0  0  0  0  0  0  0  0  0  0  0
    0.1600   -2.4980    4.3540 N   0  0  0  0  0  0  0  0  0  0  0  0
    1.5580   -2.1170    2.4660 N   0  0  0  0  0  0  0  0  0  0  0  0
    2.4720   -1.3230    3.2220 C   0  0  0  0  0  0  0  0  0  0  0  0
    3.4980   -0.6140    2.4280 C   0  0  0  0  0  0  0  0  0  0  0  0
    3.0770    0.3230    1.3730 C   0  0  0  0  0  0  0  0  0  0  0  0
    2.2140    1.4730    1.8140 C   0  0  2  0  0  0  0  0  0  0  0  0
    2.8310    2.2670    2.8260 N   0  0  0  0  0  0  0  0  0  0  0  0
    0.8500    1.0080    2.0960 C   0  0  0  0  0  0  0  0  0  0  0  0
    0.2980    1.1640    3.2020 O   0  0  0  0  0  0  0  0  0  0  0  0
    0.2270   -4.9320    2.8810 H   0  0  0  0  0  0  0  0  0  0  0  0
   -0.7640   -3.8260    1.8000 H   0  0  0  0  0  0  0  0  0  0  0  0
   -0.5650   -3.0260    4.8460 H   0  0  0  0  0  0  0  0  0  0  0  0
    1.6500   -2.1380    1.4340 H   0  0  0  0  0  0  0  0  0  0  0  0
    1.9800   -0.7010    3.9860 H   0  0  0  0  0  0  0  0  0  0  0  0
    3.0540   -2.0780    3.8610 H   0  0  0  0  0  0  0  0  0  0  0  0
    4.2410   -1.3450    2.0070 H   0  0  0  0  0  0  0  0  0  0  0  0
    4.1330   -0.0400    3.1810 H   0  0  0  0  0  0  0  0  0  0  0  0
    2.5570   -0.2800    0.5660 H   0  0  0  0  0  0  0  0  0  0  0  0
    3.9830    0.7170    0.8100 H   0  0  0  0  0  0  0  0  0  0  0  0
    2.1470    2.1600    0.8770 H   0  0  0  0  0  0  0  0  0  0  0  0
    2.1700    2.5890    3.5690 H   0  0  0  0  0  0  0  0  0  0  0  0
    3.4140    3.0520    2.4480 H   0  0  0  0  0  0  0  0  0  0  0  0
   -1.8400    2.2980   -4.5090 O   0  0  0  0  0  0  0  0  0  0  0  0
   -1.9380    1.9850   -3.1540 C   0  0  0  0  0  0  0  0  0  0  0  0
   -1.1780    2.6560   -2.2270 C   0  0  0  0  0  0  0  0  0  0  0  0
   -1.3210    2.3000   -0.9040 C   0  0  0  0  0  0  0  0  0  0  0  0
   -2.1800    1.3160   -0.4800 C   0  0  0  0  0  0  0  0  0  0  0  0
   -2.2870    0.9840    0.9550 C   0  0  0  0  0  0  0  0  0  0  0  0
   -1.2670   -0.1210    1.3480 C   0  0  2  0  0  0  0  0  0  0  0  0
    0.0590    0.3340    1.0810 N   0  0  0  0  0  0  0  0  0  0  0  0
   -1.5780   -1.3280    0.5790 C   0  0  0  0  0  0  0  0  0  0  0  0
   -2.7320   -1.8860    0.7520 O   0  0  0  0  0  0  0  0  0  0  0  0
   -2.9290    0.6600   -1.4250 C   0  0  0  0  0  0  0  0  0  0  0  0
   -2.8200    0.9840   -2.7840 C   0  0  0  0  0  0  0  0  0  0  0  0
   -2.1550    3.2240   -4.8180 H   0  0  0  0  0  0  0  0  0  0  0  0
   -0.4830    3.4400   -2.4880 H   0  0  0  0  0  0  0  0  0  0  0  0
   -0.7100    2.8420   -0.1800 H   0  0  0  0  0  0  0  0  0  0  0  0
   -2.1460    1.8630    1.6200 H   0  0  0  0  0  0  0  0  0  0  0  0
   -3.2870    0.5680    1.1920 H   0  0  0  0  0  0  0  0  0  0  0  0
   -1.4810   -0.2590    2.4270 H   0  0  0  0  0  0  0  0  0  0  0  0
    0.5510    0.2280    0.1690 H   0  0  0  0  0  0  0  0  0  0  0  0
   -3.6290   -0.1290   -1.1610 H   0  0  0  0  0  0  0  0  0  0  0  0
   -3.3910    0.4890   -3.5390 H   0  0  0  0  0  0  0  0  0  0  0  0
   -0.7630   -1.9910   -0.3670 N   0  0  0  0  0  0  0  0  0  0  0  0
   -1.2340   -3.1820   -1.0620 C   0  0  1  0  0  0  0  0  0  0  0  0
   -1.4480   -2.8620   -2.5480 C   0  0  0  0  0  0  0  0  0  0  0  0
   -2.0310   -4.3980   -3.3240 S   0  0  0  0  0  0  0  0  0  0  0  0
   -0.2010   -4.2150   -1.0160 C   0  0  0  0  0  0  0  0  0  0  0  0
   -0.4200   -5.3350   -1.5390 O   0  0  0  0  0  0  0  0  0  0  0  0
    1.0090   -3.9800   -0.4090 O   0  0  0  0  0  0  0  0  0  0  0  0
    0.1840   -1.6100   -0.5560 H   0  0  0  0  0  0  0  0  0  0  0  0
   -2.2140   -3.5080   -0.6560 H   0  0  0  0  0  0  0  0  0  0  0  0
   -2.1940   -2.0770   -2.7000 H   0  0  0  0  0  0  0  0  0  0  0  0
   -0.4880   -2.5960   -3.0260 H   0  0  0  0  0  0  0  0  0  0  0  0
   -0.9990   -5.0190   -4.0700 H   0  0  0  0  0  0  0  0  0  0  0  0
  1 12  1  0  0  0  0
  1  2  1  0  0  0  0
  2  3  2  0  0  0  0
  3 14  1  0  0  0  0
  4  2  1  0  0  0  0
  4  5  1  0  0  0  0
  5 17  1  0  0  0  0
  5 16  1  0  0  0  0
  6 19  1  0  0  0  0
  6  5  1  0  0  0  0
  7  8  1  0  0  0  0
  7  6  1  0  0  0  0
  8 22  1  6  0  0  0
  8 10  1  0  0  0  0
  8  9  1  0  0  0  0
  9 23  1  0  0  0  0
 10 11  2  0  0  0  0
 13  1  1  0  0  0  0
 15  4  1  0  0  0  0
 18  6  1  0  0  0  0
 20  7  1  0  0  0  0
 21  7  1  0  0  0  0
 24  9  1  0  0  0  0
 25 26  1  0  0  0  0
 26 36  2  0  0  0  0
 26 27  1  0  0  0  0
 27 28  2  0  0  0  0
 28 29  1  0  0  0  0
 28 39  1  0  0  0  0
 29 30  1  0  0  0  0
 30 41  1  0  0  0  0
 30 31  1  0  0  0  0
 30 40  1  0  0  0  0
 31 42  1  1  0  0  0
 32 31  1  0  0  0  0
 32 10  1  0  0  0  0
 33 34  2  0  0  0  0
 33 31  1  0  0  0  0
 35 44  1  0  0  0  0
 35 29  2  0  0  0  0
 36 35  1  0  0  0  0
 37 25  1  0  0  0  0
 38 27  1  0  0  0  0
 43 32  1  0  0  0  0
 45 36  1  0  0  0  0
 46 33  1  0  0  0  0
 47 50  1  0  0  0  0
 47 54  1  1  0  0  0
 47 46  1  0  0  0  0
 48 47  1  0  0  0  0
 49 48  1  0  0  0  0
 50 52  1  0  0  0  0
 51 50  2  0  0  0  0
 53 46  1  0  0  0  0
 55 48  1  0  0  0  0
 56 48  1  0  0  0  0
 57 49  1  0  0  0  0
M  END
$$$$
