RYE.pdb
 OpenBabel07022418073D

 62 62  0  0  1  0  0  0  0  0999 V2000
    3.0610    1.9260    4.9020 N   0  0  0  0  0  0  0  0  0  0  0  0
    3.6930    1.0990    3.9380 C   0  0  0  0  0  0  0  0  0  0  0  0
    3.4460   -0.1590    3.9170 N   0  0  0  0  0  0  0  0  0  0  0  0
    4.6180    1.6250    2.9650 N   0  0  0  0  0  0  0  0  0  0  0  0
    5.0770    0.8040    1.8600 C   0  0  0  0  0  0  0  0  0  0  0  0
    3.9180    0.5320    0.9020 C   0  0  0  0  0  0  0  0  0  0  0  0
    4.3460   -0.3170   -0.2540 C   0  0  0  0  0  0  0  0  0  0  0  0
    3.2100   -0.6010   -1.2090 C   0  0  2  0  0  0  0  0  0  0  0  0
    2.7000    0.6430   -1.7390 N   0  0  0  0  0  0  0  0  0  0  0  0
    2.0660   -1.2560   -0.4770 C   0  0  0  0  0  0  0  0  0  0  0  0
    2.2330   -2.3560    0.1280 O   0  0  0  0  0  0  0  0  0  0  0  0
    3.5230    2.7030    5.4220 H   0  0  0  0  0  0  0  0  0  0  0  0
    2.0560    1.7460    5.1090 H   0  0  0  0  0  0  0  0  0  0  0  0
    2.7850   -0.5840    4.6010 H   0  0  0  0  0  0  0  0  0  0  0  0
    4.9150    2.6120    3.1230 H   0  0  0  0  0  0  0  0  0  0  0  0
    5.8550    1.3860    1.3270 H   0  0  0  0  0  0  0  0  0  0  0  0
    5.5580   -0.1250    2.2090 H   0  0  0  0  0  0  0  0  0  0  0  0
    3.5540    1.5280    0.5820 H   0  0  0  0  0  0  0  0  0  0  0  0
    3.0840    0.0530    1.4520 H   0  0  0  0  0  0  0  0  0  0  0  0
    4.6520   -1.3180    0.1590 H   0  0  0  0  0  0  0  0  0  0  0  0
    5.2270    0.0870   -0.7600 H   0  0  0  0  0  0  0  0  0  0  0  0
    3.4920   -1.2590   -2.0280 H   0  0  0  0  0  0  0  0  0  0  0  0
    2.5600    0.5560   -2.7690 H   0  0  0  0  0  0  0  0  0  0  0  0
    3.4230    1.3790   -1.5770 H   0  0  0  0  0  0  0  0  0  0  0  0
   -2.1740    4.9370   -0.1660 O   0  0  0  0  0  0  0  0  0  0  0  0
   -1.8330    3.6450    0.2050 C   0  0  0  0  0  0  0  0  0  0  0  0
   -0.5520    3.3030    0.5450 C   0  0  0  0  0  0  0  0  0  0  0  0
   -0.2610    1.9900    0.9110 C   0  0  0  0  0  0  0  0  0  0  0  0
   -1.2160    0.9900    0.9500 C   0  0  0  0  0  0  0  0  0  0  0  0
   -0.8100   -0.3550    1.3470 C   0  0  0  0  0  0  0  0  0  0  0  0
   -0.3690   -1.2560    0.2530 C   0  0  2  0  0  0  0  0  0  0  0  0
    0.7700   -0.6820   -0.4310 N   0  0  0  0  0  0  0  0  0  0  0  0
   -1.4130   -1.7470   -0.6520 C   0  0  0  0  0  0  0  0  0  0  0  0
   -1.3600   -1.6730   -1.9060 O   0  0  0  0  0  0  0  0  0  0  0  0
   -2.4940    1.3640    0.6030 C   0  0  0  0  0  0  0  0  0  0  0  0
   -2.8070    2.6710    0.2340 C   0  0  0  0  0  0  0  0  0  0  0  0
   -3.0920    5.1920   -0.5030 H   0  0  0  0  0  0  0  0  0  0  0  0
    0.2280    4.0750    0.5250 H   0  0  0  0  0  0  0  0  0  0  0  0
    0.7520    1.7630    1.1700 H   0  0  0  0  0  0  0  0  0  0  0  0
   -1.6180   -0.8250    1.9550 H   0  0  0  0  0  0  0  0  0  0  0  0
    0.0570   -0.2670    2.0620 H   0  0  0  0  0  0  0  0  0  0  0  0
    0.0410   -2.1870    0.7590 H   0  0  0  0  0  0  0  0  0  0  0  0
    0.6440    0.2190   -0.9330 H   0  0  0  0  0  0  0  0  0  0  0  0
   -3.2500    0.6170    0.6230 H   0  0  0  0  0  0  0  0  0  0  0  0
   -3.8260    2.9490   -0.0390 H   0  0  0  0  0  0  0  0  0  0  0  0
   -2.5760   -2.3540   -0.1130 N   0  0  0  0  0  0  0  0  0  0  0  0
   -3.6280   -2.8570   -0.9840 C   0  0  1  0  0  0  0  0  0  0  0  0
   -3.5870   -4.3670   -0.7910 C   0  0  0  0  0  0  0  0  0  0  0  0
   -4.5900   -5.1190   -1.5970 C   0  0  0  0  0  0  0  0  0  0  0  0
   -4.3940   -6.5730   -1.2810 C   0  0  0  0  0  0  0  0  0  0  0  0
   -5.1240   -7.4750   -1.8100 O   0  0  0  0  0  0  0  0  0  0  0  0
   -4.9370   -2.2680   -0.6480 C   0  0  0  0  0  0  0  0  0  0  0  0
   -4.9930   -1.4760    0.3410 O   0  0  0  0  0  0  0  0  0  0  0  0
   -3.4200   -7.0160   -0.4060 O   0  0  0  0  0  0  0  0  0  0  0  0
   -6.0770   -2.5520   -1.3730 O   0  0  0  0  0  0  0  0  0  0  0  0
   -2.7510   -2.4780    0.9160 H   0  0  0  0  0  0  0  0  0  0  0  0
   -3.3290   -2.6450   -2.0220 H   0  0  0  0  0  0  0  0  0  0  0  0
   -2.5380   -4.7040   -0.9730 H   0  0  0  0  0  0  0  0  0  0  0  0
   -3.7700   -4.5220    0.3140 H   0  0  0  0  0  0  0  0  0  0  0  0
   -5.5980   -4.7900   -1.3300 H   0  0  0  0  0  0  0  0  0  0  0  0
   -4.3540   -4.9480   -2.6840 H   0  0  0  0  0  0  0  0  0  0  0  0
   -3.4750   -7.8740    0.1290 H   0  0  0  0  0  0  0  0  0  0  0  0
  1 13  1  0  0  0  0
  1 12  1  0  0  0  0
  2  1  1  0  0  0  0
  3  2  2  0  0  0  0
  3 14  1  0  0  0  0
  4 15  1  0  0  0  0
  4  2  1  0  0  0  0
  5 17  1  0  0  0  0
  5  4  1  0  0  0  0
  6 19  1  0  0  0  0
  6  5  1  0  0  0  0
  7 20  1  0  0  0  0
  7  6  1  0  0  0  0
  8 22  1  6  0  0  0
  8 10  1  0  0  0  0
  8  7  1  0  0  0  0
  9 24  1  0  0  0  0
  9  8  1  0  0  0  0
 10 32  1  0  0  0  0
 10 11  2  0  0  0  0
 16  5  1  0  0  0  0
 18  6  1  0  0  0  0
 21  7  1  0  0  0  0
 23  9  1  0  0  0  0
 25 26  1  0  0  0  0
 26 36  2  0  0  0  0
 26 27  1  0  0  0  0
 27 28  2  0  0  0  0
 28 29  1  0  0  0  0
 28 39  1  0  0  0  0
 29 30  1  0  0  0  0
 30 40  1  0  0  0  0
 30 41  1  0  0  0  0
 31 42  1  1  0  0  0
 31 30  1  0  0  0  0
 32 31  1  0  0  0  0
 33 46  1  0  0  0  0
 33 31  1  0  0  0  0
 34 33  2  0  0  0  0
 35 44  1  0  0  0  0
 35 29  2  0  0  0  0
 36 35  1  0  0  0  0
 37 25  1  0  0  0  0
 38 27  1  0  0  0  0
 43 32  1  0  0  0  0
 45 36  1  0  0  0  0
 46 56  1  0  0  0  0
 47 57  1  6  0  0  0
 47 48  1  0  0  0  0
 47 52  1  0  0  0  0
 47 46  1  0  0  0  0
 48 59  1  0  0  0  0
 49 60  1  0  0  0  0
 49 50  1  0  0  0  0
 49 48  1  0  0  0  0
 50 54  1  0  0  0  0
 51 50  2  0  0  0  0
 52 53  1  0  0  0  0
 54 62  1  0  0  0  0
 55 52  2  0  0  0  0
 58 48  1  0  0  0  0
 61 49  1  0  0  0  0
M  END
$$$$
