RYF.pdb
 OpenBabel07022418073D

 66 67  0  0  1  0  0  0  0  0999 V2000
    5.9800   -3.2350    0.1520 N   0  0  0  0  0  0  0  0  0  0  0  0
    5.3370   -2.1940   -0.5700 C   0  0  0  0  0  0  0  0  0  0  0  0
    5.6730   -0.9800   -0.2990 N   0  0  0  0  0  0  0  0  0  0  0  0
    4.3500   -2.4550   -1.5640 N   0  0  0  0  0  0  0  0  0  0  0  0
    3.9830   -1.4820   -2.5570 C   0  0  0  0  0  0  0  0  0  0  0  0
    2.8550   -1.8810   -3.4050 C   0  0  0  0  0  0  0  0  0  0  0  0
    1.4850   -2.0040   -2.9560 C   0  0  0  0  0  0  0  0  0  0  0  0
    0.9840   -2.8440   -1.8760 C   0  0  2  0  0  0  0  0  0  0  0  0
   -0.5420   -2.6780   -1.8840 N   0  0  0  0  0  0  0  0  0  0  0  0
    1.2590   -2.4420   -0.4760 C   0  0  0  0  0  0  0  0  0  0  0  0
    2.0790   -3.0430    0.2190 O   0  0  0  0  0  0  0  0  0  0  0  0
    6.2490   -4.1550   -0.2470 H   0  0  0  0  0  0  0  0  0  0  0  0
    6.2020   -3.0670    1.1640 H   0  0  0  0  0  0  0  0  0  0  0  0
    6.3860   -0.7480    0.4150 H   0  0  0  0  0  0  0  0  0  0  0  0
    3.9150   -3.4050   -1.5660 H   0  0  0  0  0  0  0  0  0  0  0  0
    3.8530   -0.4810   -2.0700 H   0  0  0  0  0  0  0  0  0  0  0  0
    4.9310   -1.3290   -3.1700 H   0  0  0  0  0  0  0  0  0  0  0  0
    2.9300   -1.2160   -4.3520 H   0  0  0  0  0  0  0  0  0  0  0  0
    3.1330   -2.9050   -3.8930 H   0  0  0  0  0  0  0  0  0  0  0  0
    0.9960   -0.9450   -2.9000 H   0  0  0  0  0  0  0  0  0  0  0  0
    0.8930   -2.3720   -3.8980 H   0  0  0  0  0  0  0  0  0  0  0  0
    1.1430   -3.8930   -2.0110 H   0  0  0  0  0  0  0  0  0  0  0  0
   -0.8160   -3.3150   -1.0980 H   0  0  0  0  0  0  0  0  0  0  0  0
   -0.8890   -3.0990   -2.7580 H   0  0  0  0  0  0  0  0  0  0  0  0
   -1.8270    4.7140   -0.1770 O   0  0  0  0  0  0  0  0  0  0  0  0
   -1.0250    3.6500    0.2680 C   0  0  0  0  0  0  0  0  0  0  0  0
   -1.1080    3.1870    1.5630 C   0  0  0  0  0  0  0  0  0  0  0  0
   -0.3160    2.1320    2.0130 C   0  0  0  0  0  0  0  0  0  0  0  0
    0.5830    1.5110    1.1720 C   0  0  0  0  0  0  0  0  0  0  0  0
    1.4020    0.4170    1.6470 C   0  0  0  0  0  0  0  0  0  0  0  0
    0.8650   -0.9560    1.5020 C   0  0  2  0  0  0  0  0  0  0  0  0
    0.5960   -1.3460    0.1450 N   0  0  0  0  0  0  0  0  0  0  0  0
   -0.2600   -1.2680    2.4180 C   0  0  0  0  0  0  0  0  0  0  0  0
   -0.1890   -0.9600    3.6350 O   0  0  0  0  0  0  0  0  0  0  0  0
    0.6640    1.9750   -0.1220 C   0  0  0  0  0  0  0  0  0  0  0  0
   -0.1260    3.0280   -0.5710 C   0  0  0  0  0  0  0  0  0  0  0  0
   -1.4660    5.4650   -0.7330 H   0  0  0  0  0  0  0  0  0  0  0  0
   -1.8170    3.6760    2.2280 H   0  0  0  0  0  0  0  0  0  0  0  0
   -0.4210    1.8060    3.0420 H   0  0  0  0  0  0  0  0  0  0  0  0
    2.4050    0.4390    1.1300 H   0  0  0  0  0  0  0  0  0  0  0  0
    1.6560    0.5630    2.7360 H   0  0  0  0  0  0  0  0  0  0  0  0
    1.6900   -1.6460    1.8580 H   0  0  0  0  0  0  0  0  0  0  0  0
   -0.0980   -0.8210   -0.4050 H   0  0  0  0  0  0  0  0  0  0  0  0
    1.3730    1.4790   -0.7700 H   0  0  0  0  0  0  0  0  0  0  0  0
   -0.0420    3.3710   -1.5880 H   0  0  0  0  0  0  0  0  0  0  0  0
   -1.4530   -1.9180    1.9910 N   0  0  0  0  0  0  0  0  0  0  0  0
   -2.5370   -2.2220    2.8710 C   0  0  1  0  0  0  0  0  0  0  0  0
   -3.8880   -1.8030    2.4000 C   0  0  0  0  0  0  0  0  0  0  0  0
   -4.0600   -0.3670    2.1620 C   0  0  0  0  0  0  0  0  0  0  0  0
   -3.7960    0.1630    0.9230 C   0  0  0  0  0  0  0  0  0  0  0  0
   -3.9680    1.5100    0.7130 C   0  0  0  0  0  0  0  0  0  0  0  0
   -4.3990    2.3770    1.6990 C   0  0  0  0  0  0  0  0  0  0  0  0
   -4.6560    1.8120    2.9360 C   0  0  0  0  0  0  0  0  0  0  0  0
   -4.4900    0.4650    3.1630 C   0  0  0  0  0  0  0  0  0  0  0  0
   -2.5770   -3.7160    3.0560 C   0  0  0  0  0  0  0  0  0  0  0  0
   -1.7290   -4.4150    2.4630 O   0  0  0  0  0  0  0  0  0  0  0  0
   -3.5160   -4.3430    3.8540 O   0  0  0  0  0  0  0  0  0  0  0  0
   -1.5090   -2.1720    0.9810 H   0  0  0  0  0  0  0  0  0  0  0  0
   -2.2870   -1.7950    3.8650 H   0  0  0  0  0  0  0  0  0  0  0  0
   -4.2240   -2.3870    1.5170 H   0  0  0  0  0  0  0  0  0  0  0  0
   -4.6250   -2.0790    3.2090 H   0  0  0  0  0  0  0  0  0  0  0  0
   -3.4490   -0.4900    0.1030 H   0  0  0  0  0  0  0  0  0  0  0  0
   -3.7530    1.9190   -0.2820 H   0  0  0  0  0  0  0  0  0  0  0  0
   -4.5320    3.4440    1.5200 H   0  0  0  0  0  0  0  0  0  0  0  0
   -5.0010    2.4840    3.7330 H   0  0  0  0  0  0  0  0  0  0  0  0
   -4.7160    0.1050    4.1690 H   0  0  0  0  0  0  0  0  0  0  0  0
  1 13  1  0  0  0  0
  2  3  2  0  0  0  0
  2  1  1  0  0  0  0
  3 14  1  0  0  0  0
  4  2  1  0  0  0  0
  5 16  1  0  0  0  0
  5  4  1  0  0  0  0
  6  7  1  0  0  0  0
  6  5  1  0  0  0  0
  7 20  1  0  0  0  0
  7  8  1  0  0  0  0
  8 22  1  6  0  0  0
  8 10  1  0  0  0  0
  9  8  1  0  0  0  0
  9 23  1  0  0  0  0
 10 32  1  0  0  0  0
 10 11  2  0  0  0  0
 12  1  1  0  0  0  0
 15  4  1  0  0  0  0
 17  5  1  0  0  0  0
 18  6  1  0  0  0  0
 19  6  1  0  0  0  0
 21  7  1  0  0  0  0
 24  9  1  0  0  0  0
 25 26  1  0  0  0  0
 26 27  1  0  0  0  0
 27 28  2  0  0  0  0
 27 38  1  0  0  0  0
 28 39  1  0  0  0  0
 29 30  1  0  0  0  0
 29 28  1  0  0  0  0
 30 41  1  0  0  0  0
 31 30  1  0  0  0  0
 31 42  1  1  0  0  0
 31 33  1  0  0  0  0
 32 31  1  0  0  0  0
 33 34  2  0  0  0  0
 35 29  2  0  0  0  0
 36 35  1  0  0  0  0
 36 26  2  0  0  0  0
 37 25  1  0  0  0  0
 40 30  1  0  0  0  0
 43 32  1  0  0  0  0
 44 35  1  0  0  0  0
 45 36  1  0  0  0  0
 46 33  1  0  0  0  0
 46 47  1  0  0  0  0
 47 55  1  0  0  0  0
 47 59  1  1  0  0  0
 48 47  1  0  0  0  0
 48 61  1  0  0  0  0
 49 48  1  0  0  0  0
 49 54  1  0  0  0  0
 50 49  2  0  0  0  0
 51 50  1  0  0  0  0
 51 52  2  0  0  0  0
 52 53  1  0  0  0  0
 53 54  2  0  0  0  0
 53 65  1  0  0  0  0
 54 66  1  0  0  0  0
 55 57  1  0  0  0  0
 56 55  2  0  0  0  0
 58 46  1  0  0  0  0
 60 48  1  0  0  0  0
 62 50  1  0  0  0  0
 63 51  1  0  0  0  0
 64 52  1  0  0  0  0
M  END
$$$$
