RYG.pdb
 OpenBabel07022418073D

 53 53  0  0  1  0  0  0  0  0999 V2000
   -0.8590   -1.2360    5.2470 N   0  0  0  0  0  0  0  0  0  0  0  0
    0.4710   -1.4200    4.7920 C   0  0  0  0  0  0  0  0  0  0  0  0
    0.9820   -2.5940    4.7440 N   0  0  0  0  0  0  0  0  0  0  0  0
    1.3190   -0.3730    4.3850 N   0  0  0  0  0  0  0  0  0  0  0  0
    1.9470   -0.1730    3.1330 C   0  0  0  0  0  0  0  0  0  0  0  0
    2.9770   -1.0490    2.6000 C   0  0  0  0  0  0  0  0  0  0  0  0
    2.7810   -2.4110    2.1270 C   0  0  0  0  0  0  0  0  0  0  0  0
    1.9030   -2.6100    0.9170 C   0  0  2  0  0  0  0  0  0  0  0  0
    2.4410   -1.8970   -0.2330 N   0  0  0  0  0  0  0  0  0  0  0  0
    0.4880   -2.3040    1.1460 C   0  0  0  0  0  0  0  0  0  0  0  0
   -0.2180   -2.8920    1.9960 O   0  0  0  0  0  0  0  0  0  0  0  0
   -1.0730   -0.9250    6.2070 H   0  0  0  0  0  0  0  0  0  0  0  0
   -1.6370   -1.4220    4.5920 H   0  0  0  0  0  0  0  0  0  0  0  0
    0.5450   -3.4730    5.0010 H   0  0  0  0  0  0  0  0  0  0  0  0
    1.4550    0.3660    5.1960 H   0  0  0  0  0  0  0  0  0  0  0  0
    1.1770    0.1310    2.3470 H   0  0  0  0  0  0  0  0  0  0  0  0
    2.4750    0.8580    3.2430 H   0  0  0  0  0  0  0  0  0  0  0  0
    3.7980   -1.1110    3.4120 H   0  0  0  0  0  0  0  0  0  0  0  0
    3.5900   -0.5090    1.7800 H   0  0  0  0  0  0  0  0  0  0  0  0
    3.8350   -2.7360    1.7290 H   0  0  0  0  0  0  0  0  0  0  0  0
    2.5850   -3.2250    2.8330 H   0  0  0  0  0  0  0  0  0  0  0  0
    1.9740   -3.6970    0.6590 H   0  0  0  0  0  0  0  0  0  0  0  0
    2.5250   -0.8820   -0.0790 H   0  0  0  0  0  0  0  0  0  0  0  0
    3.2510   -2.3620   -0.6650 H   0  0  0  0  0  0  0  0  0  0  0  0
   -0.1480    4.0230   -3.2260 O   0  0  0  0  0  0  0  0  0  0  0  0
   -0.5660    3.1500   -2.2160 C   0  0  0  0  0  0  0  0  0  0  0  0
    0.2690    2.7710   -1.1880 C   0  0  0  0  0  0  0  0  0  0  0  0
   -0.1640    1.9090   -0.2030 C   0  0  0  0  0  0  0  0  0  0  0  0
   -1.4380    1.3920   -0.1980 C   0  0  0  0  0  0  0  0  0  0  0  0
   -1.8560    0.4690    0.8850 C   0  0  0  0  0  0  0  0  0  0  0  0
   -1.5890   -0.9630    0.5940 C   0  0  2  0  0  0  0  0  0  0  0  0
   -0.1950   -1.2740    0.3780 N   0  0  0  0  0  0  0  0  0  0  0  0
   -2.4320   -1.4310   -0.5500 C   0  0  0  0  0  0  0  0  0  0  0  0
   -3.6670   -1.2400   -0.5090 O   0  0  0  0  0  0  0  0  0  0  0  0
   -2.2850    1.7560   -1.2100 C   0  0  0  0  0  0  0  0  0  0  0  0
   -1.8390    2.6150   -2.1840 C   0  0  0  0  0  0  0  0  0  0  0  0
    0.4090    4.8390   -3.0050 H   0  0  0  0  0  0  0  0  0  0  0  0
    1.2810    3.1820   -1.1930 H   0  0  0  0  0  0  0  0  0  0  0  0
    0.5490    1.6370    0.6020 H   0  0  0  0  0  0  0  0  0  0  0  0
   -1.3670    0.8150    1.8200 H   0  0  0  0  0  0  0  0  0  0  0  0
   -2.9450    0.5920    1.0580 H   0  0  0  0  0  0  0  0  0  0  0  0
   -1.9290   -1.5680    1.4590 H   0  0  0  0  0  0  0  0  0  0  0  0
    0.4150   -0.8030   -0.3210 H   0  0  0  0  0  0  0  0  0  0  0  0
   -3.3000    1.3740   -1.2480 H   0  0  0  0  0  0  0  0  0  0  0  0
   -2.5040    2.9220   -3.0090 H   0  0  0  0  0  0  0  0  0  0  0  0
   -1.9080   -2.0860   -1.6940 N   0  0  0  0  0  0  0  0  0  0  0  0
   -2.7740   -2.5110   -2.7580 C   0  0  0  0  0  0  0  0  0  0  0  0
   -1.9690   -3.1560   -3.8060 C   0  0  0  0  0  0  0  0  0  0  0  0
   -2.5280   -3.6060   -4.8270 O   0  0  0  0  0  0  0  0  0  0  0  0
   -0.6070   -3.2660   -3.6660 O   0  0  0  0  0  0  0  0  0  0  0  0
   -0.8610   -2.2640   -1.7600 H   0  0  0  0  0  0  0  0  0  0  0  0
   -3.3290   -1.6370   -3.1840 H   0  0  0  0  0  0  0  0  0  0  0  0
   -3.5180   -3.2570   -2.3760 H   0  0  0  0  0  0  0  0  0  0  0  0
  1 12  1  0  0  0  0
  2  1  1  0  0  0  0
  3  2  2  0  0  0  0
  3 14  1  0  0  0  0
  4  2  1  0  0  0  0
  4 15  1  0  0  0  0
  5 17  1  0  0  0  0
  5  4  1  0  0  0  0
  6  5  1  0  0  0  0
  6 18  1  0  0  0  0
  7  6  1  0  0  0  0
  7 21  1  0  0  0  0
  8 22  1  6  0  0  0
  8 10  1  0  0  0  0
  8  7  1  0  0  0  0
  9 23  1  0  0  0  0
  9  8  1  0  0  0  0
 10 11  2  0  0  0  0
 13  1  1  0  0  0  0
 16  5  1  0  0  0  0
 19  6  1  0  0  0  0
 20  7  1  0  0  0  0
 24  9  1  0  0  0  0
 25 37  1  0  0  0  0
 25 26  1  0  0  0  0
 26 36  2  0  0  0  0
 26 27  1  0  0  0  0
 27 28  2  0  0  0  0
 28 29  1  0  0  0  0
 28 39  1  0  0  0  0
 29 30  1  0  0  0  0
 30 41  1  0  0  0  0
 30 40  1  0  0  0  0
 31 30  1  0  0  0  0
 31 42  1  1  0  0  0
 32 31  1  0  0  0  0
 32 10  1  0  0  0  0
 33 34  2  0  0  0  0
 33 31  1  0  0  0  0
 35 29  2  0  0  0  0
 36 35  1  0  0  0  0
 38 27  1  0  0  0  0
 43 32  1  0  0  0  0
 44 35  1  0  0  0  0
 45 36  1  0  0  0  0
 46 33  1  0  0  0  0
 47 53  1  0  0  0  0
 47 46  1  0  0  0  0
 48 50  1  0  0  0  0
 48 47  1  0  0  0  0
 49 48  2  0  0  0  0
 51 46  1  0  0  0  0
 52 47  1  0  0  0  0
M  END
$$$$
