RYH.pdb
 OpenBabel07022418073D

 63 64  0  0  1  0  0  0  0  0999 V2000
    3.4950   -3.6100    4.1130 N   0  0  0  0  0  0  0  0  0  0  0  0
    4.1600   -2.6090    3.3260 C   0  0  0  0  0  0  0  0  0  0  0  0
    5.1110   -2.9570    2.5300 N   0  0  0  0  0  0  0  0  0  0  0  0
    3.7330   -1.2790    3.4650 N   0  0  0  0  0  0  0  0  0  0  0  0
    4.3420   -0.2580    2.6280 C   0  0  0  0  0  0  0  0  0  0  0  0
    3.9950   -0.3860    1.1950 C   0  0  0  0  0  0  0  0  0  0  0  0
    2.5820   -0.3410    0.7920 C   0  0  0  0  0  0  0  0  0  0  0  0
    1.7730    0.8680    1.0570 C   0  0  2  0  0  0  0  0  0  0  0  0
    1.6160    1.2720    2.4130 N   0  0  0  0  0  0  0  0  0  0  0  0
    0.4010    0.5930    0.4890 C   0  0  0  0  0  0  0  0  0  0  0  0
    0.2660    0.5100   -0.7750 O   0  0  0  0  0  0  0  0  0  0  0  0
    3.7760   -4.6180    4.0460 H   0  0  0  0  0  0  0  0  0  0  0  0
    2.7280   -3.3860    4.7640 H   0  0  0  0  0  0  0  0  0  0  0  0
    5.3910   -3.9560    2.4630 H   0  0  0  0  0  0  0  0  0  0  0  0
    2.9960   -0.9740    4.1430 H   0  0  0  0  0  0  0  0  0  0  0  0
    4.3260    0.7500    3.0670 H   0  0  0  0  0  0  0  0  0  0  0  0
    5.4600   -0.5270    2.6840 H   0  0  0  0  0  0  0  0  0  0  0  0
    4.3910   -1.3990    0.8610 H   0  0  0  0  0  0  0  0  0  0  0  0
    4.6320    0.3260    0.6140 H   0  0  0  0  0  0  0  0  0  0  0  0
    2.0660   -1.2730    1.1450 H   0  0  0  0  0  0  0  0  0  0  0  0
    2.5730   -0.4780   -0.3390 H   0  0  0  0  0  0  0  0  0  0  0  0
    2.1720    1.7570    0.4880 H   0  0  0  0  0  0  0  0  0  0  0  0
    2.4020    1.9200    2.7290 H   0  0  0  0  0  0  0  0  0  0  0  0
    0.7460    1.8970    2.5330 H   0  0  0  0  0  0  0  0  0  0  0  0
   -0.3690    4.5430   -3.5490 O   0  0  0  0  0  0  0  0  0  0  0  0
   -0.9600    3.7620   -2.5680 C   0  0  0  0  0  0  0  0  0  0  0  0
   -0.6920    4.0150   -1.2460 C   0  0  0  0  0  0  0  0  0  0  0  0
   -1.2750    3.2450   -0.2830 C   0  0  0  0  0  0  0  0  0  0  0  0
   -2.1360    2.2080   -0.6100 C   0  0  0  0  0  0  0  0  0  0  0  0
   -2.7440    1.4040    0.4420 C   0  0  0  0  0  0  0  0  0  0  0  0
   -2.0530    0.1660    0.8500 C   0  0  2  0  0  0  0  0  0  0  0  0
   -0.7190    0.4270    1.3290 N   0  0  0  0  0  0  0  0  0  0  0  0
   -2.0960   -0.9680   -0.0800 C   0  0  0  0  0  0  0  0  0  0  0  0
   -3.1090   -1.1150   -0.7760 O   0  0  0  0  0  0  0  0  0  0  0  0
   -2.3870    1.9760   -1.9410 C   0  0  0  0  0  0  0  0  0  0  0  0
   -1.8060    2.7450   -2.9110 C   0  0  0  0  0  0  0  0  0  0  0  0
   -0.8550    4.7970   -4.4020 H   0  0  0  0  0  0  0  0  0  0  0  0
   -0.0120    4.8320   -0.9580 H   0  0  0  0  0  0  0  0  0  0  0  0
   -1.0320    3.4820    0.7580 H   0  0  0  0  0  0  0  0  0  0  0  0
   -2.8480    2.0390    1.3780 H   0  0  0  0  0  0  0  0  0  0  0  0
   -3.8290    1.1930    0.1840 H   0  0  0  0  0  0  0  0  0  0  0  0
   -2.6520   -0.2420    1.7650 H   0  0  0  0  0  0  0  0  0  0  0  0
   -0.5560    0.4890    2.3740 H   0  0  0  0  0  0  0  0  0  0  0  0
   -3.0580    1.1760   -2.2780 H   0  0  0  0  0  0  0  0  0  0  0  0
   -1.9850    2.5870   -3.9740 H   0  0  0  0  0  0  0  0  0  0  0  0
   -1.0210   -1.8710   -0.1820 N   0  0  0  0  0  0  0  0  0  0  0  0
   -0.9140   -2.9980   -1.0560 C   0  0  1  0  0  0  0  0  0  0  0  0
   -1.4270   -4.2310   -0.4070 C   0  0  0  0  0  0  0  0  0  0  0  0
   -2.8420   -4.1180   -0.0180 C   0  0  0  0  0  0  0  0  0  0  0  0
   -3.3230   -3.6670    1.1980 C   0  0  0  0  0  0  0  0  0  0  0  0
   -4.6640   -3.7180    1.1670 N   0  0  0  0  0  0  0  0  0  0  0  0
   -5.0200   -4.1920   -0.0470 C   0  0  0  0  0  0  0  0  0  0  0  0
   -3.9150   -4.4380   -0.7750 N   0  0  0  0  0  0  0  0  0  0  0  0
   -1.4550   -2.7360   -2.4000 C   0  0  0  0  0  0  0  0  0  0  0  0
   -1.5420   -3.7300   -3.2020 O   0  0  0  0  0  0  0  0  0  0  0  0
   -1.8580   -1.5080   -2.8320 O   0  0  0  0  0  0  0  0  0  0  0  0
   -0.1860   -1.7430    0.4890 H   0  0  0  0  0  0  0  0  0  0  0  0
    0.2210   -3.1210   -1.2750 H   0  0  0  0  0  0  0  0  0  0  0  0
   -0.7990   -4.4280    0.5080 H   0  0  0  0  0  0  0  0  0  0  0  0
   -1.2800   -5.1160   -1.0730 H   0  0  0  0  0  0  0  0  0  0  0  0
   -2.7040   -3.3360    2.0170 H   0  0  0  0  0  0  0  0  0  0  0  0
   -5.3150   -3.4470    1.9260 H   0  0  0  0  0  0  0  0  0  0  0  0
   -6.0410   -4.3440   -0.3700 H   0  0  0  0  0  0  0  0  0  0  0  0
  1 13  1  0  0  0  0
  2  4  1  0  0  0  0
  2  1  1  0  0  0  0
  3  2  2  0  0  0  0
  4 15  1  0  0  0  0
  5 17  1  0  0  0  0
  5 16  1  0  0  0  0
  5  4  1  0  0  0  0
  6  5  1  0  0  0  0
  7  8  1  0  0  0  0
  7 20  1  0  0  0  0
  7  6  1  0  0  0  0
  8 22  1  6  0  0  0
  8  9  1  0  0  0  0
  9 24  1  0  0  0  0
  9 23  1  0  0  0  0
 10  8  1  0  0  0  0
 10 32  1  0  0  0  0
 11 10  2  0  0  0  0
 12  1  1  0  0  0  0
 14  3  1  0  0  0  0
 18  6  1  0  0  0  0
 19  6  1  0  0  0  0
 21  7  1  0  0  0  0
 25 26  1  0  0  0  0
 26 27  1  0  0  0  0
 27 38  1  0  0  0  0
 27 28  2  0  0  0  0
 28 39  1  0  0  0  0
 29 28  1  0  0  0  0
 29 30  1  0  0  0  0
 30 31  1  0  0  0  0
 30 40  1  0  0  0  0
 31 32  1  0  0  0  0
 31 42  1  1  0  0  0
 32 43  1  0  0  0  0
 33 31  1  0  0  0  0
 34 33  2  0  0  0  0
 35 29  2  0  0  0  0
 36 26  2  0  0  0  0
 36 35  1  0  0  0  0
 37 25  1  0  0  0  0
 41 30  1  0  0  0  0
 44 35  1  0  0  0  0
 45 36  1  0  0  0  0
 46 33  1  0  0  0  0
 46 57  1  0  0  0  0
 47 58  1  6  0  0  0
 47 48  1  0  0  0  0
 47 46  1  0  0  0  0
 48 49  1  0  0  0  0
 48 59  1  0  0  0  0
 49 50  2  0  0  0  0
 50 61  1  0  0  0  0
 51 50  1  0  0  0  0
 51 62  1  0  0  0  0
 52 51  1  0  0  0  0
 53 52  2  0  0  0  0
 53 49  1  0  0  0  0
 54 47  1  0  0  0  0
 55 54  2  0  0  0  0
 56 54  1  0  0  0  0
 60 48  1  0  0  0  0
 63 52  1  0  0  0  0
M  END
$$$$
