RYI.pdb
 OpenBabel07022418073D

 65 65  0  0  1  0  0  0  0  0999 V2000
    4.9780   -3.2140    3.8690 N   0  0  0  0  0  0  0  0  0  0  0  0
    4.8730   -2.3460    2.7280 C   0  0  0  0  0  0  0  0  0  0  0  0
    5.5040   -2.6310    1.6410 N   0  0  0  0  0  0  0  0  0  0  0  0
    4.0800   -1.1760    2.7830 N   0  0  0  0  0  0  0  0  0  0  0  0
    3.9440   -0.2970    1.6280 C   0  0  0  0  0  0  0  0  0  0  0  0
    3.0370    0.8520    2.0170 C   0  0  0  0  0  0  0  0  0  0  0  0
    2.8560    1.8030    0.8520 C   0  0  0  0  0  0  0  0  0  0  0  0
    1.9540    2.9590    1.2160 C   0  0  2  0  0  0  0  0  0  0  0  0
    2.4670    3.7340    2.3090 N   0  0  0  0  0  0  0  0  0  0  0  0
    0.5880    2.4150    1.5340 C   0  0  0  0  0  0  0  0  0  0  0  0
    0.0230    2.6450    2.6390 O   0  0  0  0  0  0  0  0  0  0  0  0
    5.4300   -4.1390    3.7940 H   0  0  0  0  0  0  0  0  0  0  0  0
    4.6020   -2.9270    4.7860 H   0  0  0  0  0  0  0  0  0  0  0  0
    6.1010   -3.5080    1.5940 H   0  0  0  0  0  0  0  0  0  0  0  0
    3.5890   -0.9610    3.6910 H   0  0  0  0  0  0  0  0  0  0  0  0
    3.4970   -0.8890    0.7970 H   0  0  0  0  0  0  0  0  0  0  0  0
    4.9530    0.0610    1.3670 H   0  0  0  0  0  0  0  0  0  0  0  0
    2.0770    0.4800    2.4000 H   0  0  0  0  0  0  0  0  0  0  0  0
    3.5310    1.3850    2.8690 H   0  0  0  0  0  0  0  0  0  0  0  0
    2.4060    1.2540    0.0170 H   0  0  0  0  0  0  0  0  0  0  0  0
    3.8430    2.2140    0.5710 H   0  0  0  0  0  0  0  0  0  0  0  0
    1.8540    3.6070    0.3330 H   0  0  0  0  0  0  0  0  0  0  0  0
    2.9770    4.5950    2.0100 H   0  0  0  0  0  0  0  0  0  0  0  0
    1.7470    3.9280    3.0440 H   0  0  0  0  0  0  0  0  0  0  0  0
   -1.6120    1.3480   -5.5380 O   0  0  0  0  0  0  0  0  0  0  0  0
   -1.8500    1.3820   -4.1820 C   0  0  0  0  0  0  0  0  0  0  0  0
   -1.2390    2.3710   -3.4340 C   0  0  0  0  0  0  0  0  0  0  0  0
   -1.4570    2.4300   -2.0820 C   0  0  0  0  0  0  0  0  0  0  0  0
   -2.2870    1.5100   -1.4350 C   0  0  0  0  0  0  0  0  0  0  0  0
   -2.4600    1.6870    0.0140 C   0  0  0  0  0  0  0  0  0  0  0  0
   -1.4600    1.0780    0.8980 C   0  0  2  0  0  0  0  0  0  0  0  0
   -0.1250    1.6190    0.6040 N   0  0  0  0  0  0  0  0  0  0  0  0
   -1.3800   -0.3740    1.0150 C   0  0  0  0  0  0  0  0  0  0  0  0
   -0.2300   -0.9140    0.8810 O   0  0  0  0  0  0  0  0  0  0  0  0
   -2.9020    0.5200   -2.1690 C   0  0  0  0  0  0  0  0  0  0  0  0
   -2.6690    0.4780   -3.5260 C   0  0  0  0  0  0  0  0  0  0  0  0
   -1.9470    2.0790   -6.1580 H   0  0  0  0  0  0  0  0  0  0  0  0
   -0.5860    3.1070   -3.8920 H   0  0  0  0  0  0  0  0  0  0  0  0
   -0.9570    3.2260   -1.5210 H   0  0  0  0  0  0  0  0  0  0  0  0
   -2.4610    2.8010    0.2290 H   0  0  0  0  0  0  0  0  0  0  0  0
   -3.5130    1.4010    0.2350 H   0  0  0  0  0  0  0  0  0  0  0  0
   -1.7260    1.4350    1.9590 H   0  0  0  0  0  0  0  0  0  0  0  0
    0.3280    1.4210   -0.3130 H   0  0  0  0  0  0  0  0  0  0  0  0
   -3.5640   -0.2060   -1.6690 H   0  0  0  0  0  0  0  0  0  0  0  0
   -3.1320   -0.2850   -4.1480 H   0  0  0  0  0  0  0  0  0  0  0  0
   -1.9190   -5.6210   -0.0420 C   0  0  0  0  0  0  0  0  0  0  0  0
   -3.1450   -4.8390    0.2920 C   0  0  0  0  0  0  0  0  0  0  0  0
   -3.0430   -3.3650    0.2680 C   0  0  2  0  0  0  0  0  0  0  0  0
   -2.5880   -2.8330   -1.0860 C   0  0  0  0  0  0  0  0  0  0  0  0
   -2.5200   -2.6400    1.4430 C   0  0  2  0  0  0  0  0  0  0  0  0
   -2.4700   -1.2110    1.2660 N   0  0  0  0  0  0  0  0  0  0  0  0
   -1.4060   -3.2440    2.1870 C   0  0  0  0  0  0  0  0  0  0  0  0
   -0.4580   -2.5760    2.6160 O   0  0  0  0  0  0  0  0  0  0  0  0
   -1.3690   -4.5970    2.4500 O   0  0  0  0  0  0  0  0  0  0  0  0
   -0.9900   -5.0660   -0.1450 H   0  0  0  0  0  0  0  0  0  0  0  0
   -2.0430   -6.1160   -1.0710 H   0  0  0  0  0  0  0  0  0  0  0  0
   -1.7400   -6.5000    0.6100 H   0  0  0  0  0  0  0  0  0  0  0  0
   -3.5810   -5.1290    1.2750 H   0  0  0  0  0  0  0  0  0  0  0  0
   -3.9480   -5.1450   -0.4450 H   0  0  0  0  0  0  0  0  0  0  0  0
   -4.1750   -3.0420    0.2390 H   0  0  0  0  0  0  0  0  0  0  0  0
   -2.0460   -1.8950   -0.8910 H   0  0  0  0  0  0  0  0  0  0  0  0
   -3.4330   -2.5970   -1.7570 H   0  0  0  0  0  0  0  0  0  0  0  0
   -1.9680   -3.5820   -1.6230 H   0  0  0  0  0  0  0  0  0  0  0  0
   -3.3550   -2.7180    2.2840 H   0  0  0  0  0  0  0  0  0  0  0  0
   -3.4040   -0.6630    1.3260 H   0  0  0  0  0  0  0  0  0  0  0  0
  1 13  1  0  0  0  0
  2  4  1  0  0  0  0
  2  1  1  0  0  0  0
  3  2  2  0  0  0  0
  4 15  1  0  0  0  0
  5  6  1  0  0  0  0
  5  4  1  0  0  0  0
  6 18  1  0  0  0  0
  6 19  1  0  0  0  0
  7  8  1  0  0  0  0
  7  6  1  0  0  0  0
  8 22  1  6  0  0  0
  8 10  1  0  0  0  0
  8  9  1  0  0  0  0
  9 24  1  0  0  0  0
 10 11  2  0  0  0  0
 12  1  1  0  0  0  0
 14  3  1  0  0  0  0
 16  5  1  0  0  0  0
 17  5  1  0  0  0  0
 20  7  1  0  0  0  0
 21  7  1  0  0  0  0
 23  9  1  0  0  0  0
 25 26  1  0  0  0  0
 26 36  2  0  0  0  0
 26 27  1  0  0  0  0
 27 28  2  0  0  0  0
 28 39  1  0  0  0  0
 28 29  1  0  0  0  0
 29 30  1  0  0  0  0
 30 40  1  0  0  0  0
 30 41  1  0  0  0  0
 30 31  1  0  0  0  0
 31 33  1  0  0  0  0
 31 42  1  1  0  0  0
 32 31  1  0  0  0  0
 32 10  1  0  0  0  0
 33 51  1  0  0  0  0
 34 33  2  0  0  0  0
 35 44  1  0  0  0  0
 35 29  2  0  0  0  0
 36 35  1  0  0  0  0
 37 25  1  0  0  0  0
 38 27  1  0  0  0  0
 43 32  1  0  0  0  0
 45 36  1  0  0  0  0
 46 47  1  0  0  0  0
 46 57  1  0  0  0  0
 47 58  1  0  0  0  0
 48 60  1  1  0  0  0
 48 47  1  0  0  0  0
 48 50  1  0  0  0  0
 49 61  1  0  0  0  0
 49 48  1  0  0  0  0
 50 52  1  0  0  0  0
 50 64  1  1  0  0  0
 51 65  1  0  0  0  0
 51 50  1  0  0  0  0
 52 54  2  0  0  0  0
 52 53  1  0  0  0  0
 55 46  1  0  0  0  0
 56 46  1  0  0  0  0
 59 47  1  0  0  0  0
 62 49  1  0  0  0  0
 63 49  1  0  0  0  0
M  END
$$$$
