RYP.pdb
 OpenBabel07022418073D

 60 61  0  0  1  0  0  0  0  0999 V2000
   -0.1490    2.0070    5.5970 N   0  0  0  0  0  0  0  0  0  0  0  0
    0.9360    1.8350    4.6910 C   0  0  0  0  0  0  0  0  0  0  0  0
    1.3860    0.6650    4.4750 N   0  0  0  0  0  0  0  0  0  0  0  0
    1.5210    2.9470    4.0280 N   0  0  0  0  0  0  0  0  0  0  0  0
    2.5780    2.8440    3.0490 C   0  0  0  0  0  0  0  0  0  0  0  0
    2.0080    2.1700    1.7940 C   0  0  0  0  0  0  0  0  0  0  0  0
    3.0530    2.0400    0.7380 C   0  0  0  0  0  0  0  0  0  0  0  0
    2.5720    1.3970   -0.5200 C   0  0  2  0  0  0  0  0  0  0  0  0
    1.4890    2.2020   -1.0580 N   0  0  0  0  0  0  0  0  0  0  0  0
    2.0860    0.0110   -0.3130 C   0  0  0  0  0  0  0  0  0  0  0  0
    2.8450   -0.8940    0.1650 O   0  0  0  0  0  0  0  0  0  0  0  0
   -0.2090    2.8850    6.1930 H   0  0  0  0  0  0  0  0  0  0  0  0
   -0.9190    1.3210    5.7310 H   0  0  0  0  0  0  0  0  0  0  0  0
    1.0200   -0.1990    4.9150 H   0  0  0  0  0  0  0  0  0  0  0  0
    1.1180    3.8900    4.3100 H   0  0  0  0  0  0  0  0  0  0  0  0
    2.9340    3.8580    2.8140 H   0  0  0  0  0  0  0  0  0  0  0  0
    3.3870    2.2090    3.4810 H   0  0  0  0  0  0  0  0  0  0  0  0
    1.1630    2.8140    1.4810 H   0  0  0  0  0  0  0  0  0  0  0  0
    1.5790    1.2200    2.1340 H   0  0  0  0  0  0  0  0  0  0  0  0
    3.4000    3.0670    0.4800 H   0  0  0  0  0  0  0  0  0  0  0  0
    3.9590    1.5230    1.1560 H   0  0  0  0  0  0  0  0  0  0  0  0
    3.3610    1.3960   -1.3190 H   0  0  0  0  0  0  0  0  0  0  0  0
    1.7240    3.1960   -0.9460 H   0  0  0  0  0  0  0  0  0  0  0  0
    1.2550    1.9450   -2.0320 H   0  0  0  0  0  0  0  0  0  0  0  0
   -4.9440    1.7920   -0.7610 O   0  0  0  0  0  0  0  0  0  0  0  0
   -3.8980    0.9570   -0.3870 C   0  0  0  0  0  0  0  0  0  0  0  0
   -2.7830    1.4640    0.2200 C   0  0  0  0  0  0  0  0  0  0  0  0
   -1.7310    0.6250    0.5970 C   0  0  0  0  0  0  0  0  0  0  0  0
   -1.7830   -0.7320    0.3700 C   0  0  0  0  0  0  0  0  0  0  0  0
   -0.6560   -1.6460    0.7700 C   0  0  0  0  0  0  0  0  0  0  0  0
    0.3400   -1.7780   -0.4100 C   0  0  2  0  0  0  0  0  0  0  0  0
    0.7720   -0.4070   -0.6240 N   0  0  0  0  0  0  0  0  0  0  0  0
   -0.2820   -2.3840   -1.5650 C   0  0  0  0  0  0  0  0  0  0  0  0
   -0.6030   -1.6680   -2.5440 O   0  0  0  0  0  0  0  0  0  0  0  0
   -2.9150   -1.2340   -0.2450 C   0  0  0  0  0  0  0  0  0  0  0  0
   -3.9660   -0.3990   -0.6220 C   0  0  0  0  0  0  0  0  0  0  0  0
   -5.3550    2.4690   -0.1080 H   0  0  0  0  0  0  0  0  0  0  0  0
   -2.6990    2.5210    0.4180 H   0  0  0  0  0  0  0  0  0  0  0  0
   -0.8590    1.0760    1.0810 H   0  0  0  0  0  0  0  0  0  0  0  0
   -1.1330   -2.5970    1.0070 H   0  0  0  0  0  0  0  0  0  0  0  0
   -0.1550   -1.1620    1.6270 H   0  0  0  0  0  0  0  0  0  0  0  0
    1.1980   -2.3490   -0.0340 H   0  0  0  0  0  0  0  0  0  0  0  0
    0.0810    0.2460   -1.0140 H   0  0  0  0  0  0  0  0  0  0  0  0
   -2.9880   -2.2920   -0.4370 H   0  0  0  0  0  0  0  0  0  0  0  0
   -4.8500   -0.7860   -1.1020 H   0  0  0  0  0  0  0  0  0  0  0  0
   -0.5430   -3.7490   -1.6370 N   0  0  0  0  0  0  0  0  0  0  0  0
   -1.2200   -4.4860   -2.6990 C   0  0  0  0  0  0  0  0  0  0  0  0
   -1.8460   -5.6700   -1.9940 C   0  0  0  0  0  0  0  0  0  0  0  0
   -1.4910   -5.4890   -0.5140 C   0  0  0  0  0  0  0  0  0  0  0  0
   -0.1510   -4.7510   -0.6810 C   0  0  1  0  0  0  0  0  0  0  0  0
    0.8660   -5.6820   -1.2410 C   0  0  0  0  0  0  0  0  0  0  0  0
    1.2850   -5.5290   -2.3980 O   0  0  0  0  0  0  0  0  0  0  0  0
    1.3350   -6.7110   -0.4620 O   0  0  0  0  0  0  0  0  0  0  0  0
   -0.5760   -4.7640   -3.5320 H   0  0  0  0  0  0  0  0  0  0  0  0
   -2.0700   -3.8300   -3.0010 H   0  0  0  0  0  0  0  0  0  0  0  0
   -1.4580   -6.6380   -2.3810 H   0  0  0  0  0  0  0  0  0  0  0  0
   -2.9380   -5.7110   -2.0830 H   0  0  0  0  0  0  0  0  0  0  0  0
   -1.3590   -6.4530   -0.0100 H   0  0  0  0  0  0  0  0  0  0  0  0
   -2.2100   -4.8870    0.0350 H   0  0  0  0  0  0  0  0  0  0  0  0
    0.1510   -4.3580    0.2890 H   0  0  0  0  0  0  0  0  0  0  0  0
  1 13  1  0  0  0  0
  1 12  1  0  0  0  0
  2  1  1  0  0  0  0
  3  2  2  0  0  0  0
  3 14  1  0  0  0  0
  4 15  1  0  0  0  0
  4  2  1  0  0  0  0
  5 17  1  0  0  0  0
  5  4  1  0  0  0  0
  6 19  1  0  0  0  0
  6  5  1  0  0  0  0
  7 21  1  0  0  0  0
  7  6  1  0  0  0  0
  8 22  1  6  0  0  0
  8 10  1  0  0  0  0
  8  7  1  0  0  0  0
  9 23  1  0  0  0  0
  9  8  1  0  0  0  0
 10 11  2  0  0  0  0
 16  5  1  0  0  0  0
 18  6  1  0  0  0  0
 20  7  1  0  0  0  0
 24  9  1  0  0  0  0
 25 26  1  0  0  0  0
 25 37  1  0  0  0  0
 26 27  1  0  0  0  0
 27 38  1  0  0  0  0
 27 28  2  0  0  0  0
 28 39  1  0  0  0  0
 29 28  1  0  0  0  0
 29 30  1  0  0  0  0
 30 40  1  0  0  0  0
 30 41  1  0  0  0  0
 31 42  1  1  0  0  0
 31 30  1  0  0  0  0
 32 31  1  0  0  0  0
 32 10  1  0  0  0  0
 33 31  1  0  0  0  0
 34 33  2  0  0  0  0
 35 29  2  0  0  0  0
 36 26  2  0  0  0  0
 36 35  1  0  0  0  0
 43 32  1  0  0  0  0
 44 35  1  0  0  0  0
 45 36  1  0  0  0  0
 46 33  1  0  0  0  0
 46 50  1  0  0  0  0
 47 48  1  0  0  0  0
 47 46  1  0  0  0  0
 48 49  1  0  0  0  0
 49 58  1  0  0  0  0
 49 59  1  0  0  0  0
 50 49  1  0  0  0  0
 50 60  1  1  0  0  0
 51 50  1  0  0  0  0
 51 53  1  0  0  0  0
 52 51  2  0  0  0  0
 54 47  1  0  0  0  0
 55 47  1  0  0  0  0
 56 48  1  0  0  0  0
 57 48  1  0  0  0  0
M  END
$$$$
