RYS.pdb
 OpenBabel07022418073D

 57 57  0  0  1  0  0  0  0  0999 V2000
    1.4630    0.8290    6.3630 N   0  0  0  0  0  0  0  0  0  0  0  0
    2.6030    0.2650    5.7370 C   0  0  0  0  0  0  0  0  0  0  0  0
    3.5140   -0.2780    6.4610 N   0  0  0  0  0  0  0  0  0  0  0  0
    2.6960    0.3230    4.3230 N   0  0  0  0  0  0  0  0  0  0  0  0
    3.5430   -0.6590    3.6750 C   0  0  0  0  0  0  0  0  0  0  0  0
    2.9960   -2.0460    3.7810 C   0  0  0  0  0  0  0  0  0  0  0  0
    1.6320   -2.1940    3.1870 C   0  0  0  0  0  0  0  0  0  0  0  0
    1.4930   -1.9100    1.7550 C   0  0  2  0  0  0  0  0  0  0  0  0
    1.8320   -0.5650    1.3690 N   0  0  0  0  0  0  0  0  0  0  0  0
    0.2170   -2.3620    1.1470 C   0  0  0  0  0  0  0  0  0  0  0  0
   -0.1540   -3.5300    1.4630 O   0  0  0  0  0  0  0  0  0  0  0  0
    1.1200    0.4900    7.3070 H   0  0  0  0  0  0  0  0  0  0  0  0
    0.8950    1.6040    5.9420 H   0  0  0  0  0  0  0  0  0  0  0  0
    3.4030   -0.2980    7.4950 H   0  0  0  0  0  0  0  0  0  0  0  0
    2.1870    1.0320    3.7470 H   0  0  0  0  0  0  0  0  0  0  0  0
    3.6880   -0.3660    2.6320 H   0  0  0  0  0  0  0  0  0  0  0  0
    4.5770   -0.6130    4.1560 H   0  0  0  0  0  0  0  0  0  0  0  0
    2.9800   -2.3000    4.8870 H   0  0  0  0  0  0  0  0  0  0  0  0
    3.7260   -2.7860    3.3680 H   0  0  0  0  0  0  0  0  0  0  0  0
    1.3280   -3.2680    3.4050 H   0  0  0  0  0  0  0  0  0  0  0  0
    0.9510   -1.6110    3.8520 H   0  0  0  0  0  0  0  0  0  0  0  0
    2.2810   -2.5490    1.2370 H   0  0  0  0  0  0  0  0  0  0  0  0
    1.0520    0.1140    1.5070 H   0  0  0  0  0  0  0  0  0  0  0  0
    2.1180   -0.4720    0.3680 H   0  0  0  0  0  0  0  0  0  0  0  0
   -2.8080    4.1840   -1.4180 O   0  0  0  0  0  0  0  0  0  0  0  0
   -2.8460    2.8510   -1.0120 C   0  0  0  0  0  0  0  0  0  0  0  0
   -2.3430    2.4590    0.2260 C   0  0  0  0  0  0  0  0  0  0  0  0
   -2.4070    1.1090    0.5820 C   0  0  0  0  0  0  0  0  0  0  0  0
   -2.9490    0.1640   -0.2520 C   0  0  0  0  0  0  0  0  0  0  0  0
   -3.0200   -1.2420    0.1080 C   0  0  0  0  0  0  0  0  0  0  0  0
   -1.8170   -2.0540   -0.3100 C   0  0  2  0  0  0  0  0  0  0  0  0
   -0.5830   -1.5950    0.2660 N   0  0  0  0  0  0  0  0  0  0  0  0
   -1.7360   -2.1890   -1.7900 C   0  0  0  0  0  0  0  0  0  0  0  0
   -2.7040   -2.5800   -2.4900 O   0  0  0  0  0  0  0  0  0  0  0  0
   -3.4360    0.5940   -1.4660 C   0  0  0  0  0  0  0  0  0  0  0  0
   -3.3930    1.9170   -1.8600 C   0  0  0  0  0  0  0  0  0  0  0  0
   -2.1610    4.8100   -0.9290 H   0  0  0  0  0  0  0  0  0  0  0  0
   -1.9170    3.1990    0.8810 H   0  0  0  0  0  0  0  0  0  0  0  0
   -2.0150    0.8250    1.5370 H   0  0  0  0  0  0  0  0  0  0  0  0
   -3.1950   -1.3230    1.2020 H   0  0  0  0  0  0  0  0  0  0  0  0
   -3.9060   -1.7740   -0.3520 H   0  0  0  0  0  0  0  0  0  0  0  0
   -2.0310   -3.0930    0.0660 H   0  0  0  0  0  0  0  0  0  0  0  0
   -0.2250   -0.6440    0.0420 H   0  0  0  0  0  0  0  0  0  0  0  0
   -3.8790   -0.1010   -2.1750 H   0  0  0  0  0  0  0  0  0  0  0  0
   -3.7760    2.2700   -2.8230 H   0  0  0  0  0  0  0  0  0  0  0  0
   -1.1600    0.2110   -4.4190 O   0  0  0  0  0  0  0  0  0  0  0  0
   -0.1950   -0.7360   -4.6700 C   0  0  0  0  0  0  0  0  0  0  0  0
   -0.4830   -2.0150   -3.9530 C   0  0  2  0  0  0  0  0  0  0  0  0
   -0.5480   -1.8830   -2.5260 N   0  0  0  0  0  0  0  0  0  0  0  0
    0.4880   -3.0540   -4.3820 C   0  0  0  0  0  0  0  0  0  0  0  0
    0.6440   -3.2600   -5.6120 O   0  0  0  0  0  0  0  0  0  0  0  0
    1.2400   -3.8170   -3.5020 O   0  0  0  0  0  0  0  0  0  0  0  0
   -1.9670   -0.0300   -4.9710 H   0  0  0  0  0  0  0  0  0  0  0  0
   -0.2450   -0.9740   -5.7730 H   0  0  0  0  0  0  0  0  0  0  0  0
    0.8330   -0.3640   -4.5030 H   0  0  0  0  0  0  0  0  0  0  0  0
   -1.4830   -2.3790   -4.3250 H   0  0  0  0  0  0  0  0  0  0  0  0
    0.3180   -1.5450   -2.0110 H   0  0  0  0  0  0  0  0  0  0  0  0
  1 12  1  0  0  0  0
  2  1  1  0  0  0  0
  2  3  2  0  0  0  0
  3 14  1  0  0  0  0
  4  2  1  0  0  0  0
  5  6  1  0  0  0  0
  5 17  1  0  0  0  0
  5  4  1  0  0  0  0
  6 18  1  0  0  0  0
  7 20  1  0  0  0  0
  7  6  1  0  0  0  0
  7 21  1  0  0  0  0
  8 22  1  6  0  0  0
  8  7  1  0  0  0  0
  9 23  1  0  0  0  0
  9  8  1  0  0  0  0
 10 11  2  0  0  0  0
 10  8  1  0  0  0  0
 13  1  1  0  0  0  0
 15  4  1  0  0  0  0
 16  5  1  0  0  0  0
 19  6  1  0  0  0  0
 24  9  1  0  0  0  0
 25 26  1  0  0  0  0
 25 37  1  0  0  0  0
 26 27  1  0  0  0  0
 27 28  2  0  0  0  0
 27 38  1  0  0  0  0
 28 39  1  0  0  0  0
 29 30  1  0  0  0  0
 29 28  1  0  0  0  0
 30 40  1  0  0  0  0
 31 42  1  1  0  0  0
 31 30  1  0  0  0  0
 31 32  1  0  0  0  0
 32 10  1  0  0  0  0
 33 31  1  0  0  0  0
 34 33  2  0  0  0  0
 35 29  2  0  0  0  0
 36 35  1  0  0  0  0
 36 26  2  0  0  0  0
 41 30  1  0  0  0  0
 43 32  1  0  0  0  0
 44 35  1  0  0  0  0
 45 36  1  0  0  0  0
 47 55  1  0  0  0  0
 47 46  1  0  0  0  0
 47 48  1  0  0  0  0
 48 56  1  6  0  0  0
 48 49  1  0  0  0  0
 49 57  1  0  0  0  0
 49 33  1  0  0  0  0
 50 48  1  0  0  0  0
 50 52  1  0  0  0  0
 51 50  2  0  0  0  0
 53 46  1  0  0  0  0
 54 47  1  0  0  0  0
M  END
$$$$
