RYW.pdb
 OpenBabel07022418073D

 70 72  0  0  1  0  0  0  0  0999 V2000
    7.5330   -2.1020    0.7460 N   0  0  0  0  0  0  0  0  0  0  0  0
    6.1260   -1.8520    0.6360 C   0  0  0  0  0  0  0  0  0  0  0  0
    5.4620   -1.6370    1.7050 N   0  0  0  0  0  0  0  0  0  0  0  0
    5.4980   -1.8510   -0.6360 N   0  0  0  0  0  0  0  0  0  0  0  0
    4.0050   -1.9830   -0.5990 C   0  0  0  0  0  0  0  0  0  0  0  0
    3.6480   -3.3330   -0.1220 C   0  0  0  0  0  0  0  0  0  0  0  0
    2.2780   -3.7980   -0.0220 C   0  0  0  0  0  0  0  0  0  0  0  0
    1.2440   -3.1800    0.8330 C   0  0  2  0  0  0  0  0  0  0  0  0
    0.0480   -4.1090    0.5950 N   0  0  0  0  0  0  0  0  0  0  0  0
    0.7240   -1.8510    0.4490 C   0  0  0  0  0  0  0  0  0  0  0  0
    1.3490   -0.8160    0.7170 O   0  0  0  0  0  0  0  0  0  0  0  0
    8.0460   -1.8990    1.6460 H   0  0  0  0  0  0  0  0  0  0  0  0
    8.0310   -2.4910   -0.0950 H   0  0  0  0  0  0  0  0  0  0  0  0
    5.8270   -1.6220    2.6630 H   0  0  0  0  0  0  0  0  0  0  0  0
    6.0060   -1.7670   -1.5280 H   0  0  0  0  0  0  0  0  0  0  0  0
    3.7290   -1.1790    0.1320 H   0  0  0  0  0  0  0  0  0  0  0  0
    3.6240   -1.6930   -1.5850 H   0  0  0  0  0  0  0  0  0  0  0  0
    4.2250   -3.5900    0.8410 H   0  0  0  0  0  0  0  0  0  0  0  0
    4.1890   -4.0540   -0.8460 H   0  0  0  0  0  0  0  0  0  0  0  0
    2.3010   -4.9080    0.3160 H   0  0  0  0  0  0  0  0  0  0  0  0
    1.8380   -3.9470   -1.0740 H   0  0  0  0  0  0  0  0  0  0  0  0
    1.4940   -3.2760    1.9060 H   0  0  0  0  0  0  0  0  0  0  0  0
   -0.7640   -3.7250    1.0790 H   0  0  0  0  0  0  0  0  0  0  0  0
    0.0030   -4.1960   -0.4260 H   0  0  0  0  0  0  0  0  0  0  0  0
   -5.2250   -4.0680   -3.6550 O   0  0  0  0  0  0  0  0  0  0  0  0
   -4.2580   -3.1480   -3.2750 C   0  0  0  0  0  0  0  0  0  0  0  0
   -4.6200   -1.8590   -2.8750 C   0  0  0  0  0  0  0  0  0  0  0  0
   -3.6620   -0.9460   -2.4980 C   0  0  0  0  0  0  0  0  0  0  0  0
   -2.3170   -1.2330   -2.4900 C   0  0  0  0  0  0  0  0  0  0  0  0
   -1.2750   -0.2770   -2.0820 C   0  0  0  0  0  0  0  0  0  0  0  0
   -0.9640   -0.3670   -0.6020 C   0  0  2  0  0  0  0  0  0  0  0  0
   -0.5100   -1.6850   -0.2440 N   0  0  0  0  0  0  0  0  0  0  0  0
   -2.0890    0.0790    0.2630 C   0  0  0  0  0  0  0  0  0  0  0  0
   -2.5000   -0.7450    1.1520 O   0  0  0  0  0  0  0  0  0  0  0  0
   -1.9660   -2.5110   -2.8870 C   0  0  0  0  0  0  0  0  0  0  0  0
   -2.9120   -3.4420   -3.2690 C   0  0  0  0  0  0  0  0  0  0  0  0
   -5.6900   -4.0570   -4.5430 H   0  0  0  0  0  0  0  0  0  0  0  0
   -5.6780   -1.6440   -2.8860 H   0  0  0  0  0  0  0  0  0  0  0  0
   -3.9390    0.0480   -2.1890 H   0  0  0  0  0  0  0  0  0  0  0  0
   -1.5440    0.7820   -2.2830 H   0  0  0  0  0  0  0  0  0  0  0  0
   -0.3050   -0.4520   -2.6040 H   0  0  0  0  0  0  0  0  0  0  0  0
   -0.1210    0.3420   -0.4170 H   0  0  0  0  0  0  0  0  0  0  0  0
   -1.0940   -2.4890   -0.4970 H   0  0  0  0  0  0  0  0  0  0  0  0
   -0.9230   -2.8350   -2.9150 H   0  0  0  0  0  0  0  0  0  0  0  0
   -2.6170   -4.4480   -3.5800 H   0  0  0  0  0  0  0  0  0  0  0  0
   -2.7410    1.3220    0.1920 N   0  0  0  0  0  0  0  0  0  0  0  0
   -3.8130    1.7510    1.0250 C   0  0  1  0  0  0  0  0  0  0  0  0
   -3.3220    2.8580    1.9510 C   0  0  0  0  0  0  0  0  0  0  0  0
   -2.2290    2.3750    2.7980 C   0  0  0  0  0  0  0  0  0  0  0  0
   -2.4090    1.8960    4.0850 C   0  0  0  0  0  0  0  0  0  0  0  0
   -1.2270    1.5060    4.5720 N   0  0  0  0  0  0  0  0  0  0  0  0
   -0.2860    1.7300    3.6100 C   0  0  0  0  0  0  0  0  0  0  0  0
    1.0850    1.4980    3.6520 C   0  0  0  0  0  0  0  0  0  0  0  0
    1.8110    1.8350    2.5320 C   0  0  0  0  0  0  0  0  0  0  0  0
    1.2300    2.3770    1.4090 C   0  0  0  0  0  0  0  0  0  0  0  0
   -0.1250    2.5990    1.3870 C   0  0  0  0  0  0  0  0  0  0  0  0
   -0.8770    2.2700    2.4970 C   0  0  0  0  0  0  0  0  0  0  0  0
   -5.0390    2.1500    0.3290 C   0  0  0  0  0  0  0  0  0  0  0  0
   -5.0950    2.1270   -0.9150 O   0  0  0  0  0  0  0  0  0  0  0  0
   -6.1390    2.5530    1.0530 O   0  0  0  0  0  0  0  0  0  0  0  0
   -2.4190    2.0060   -0.5500 H   0  0  0  0  0  0  0  0  0  0  0  0
   -4.0500    0.8830    1.7120 H   0  0  0  0  0  0  0  0  0  0  0  0
   -3.0380    3.7610    1.3620 H   0  0  0  0  0  0  0  0  0  0  0  0
   -4.1870    3.1260    2.6260 H   0  0  0  0  0  0  0  0  0  0  0  0
   -3.3640    1.8370    4.6350 H   0  0  0  0  0  0  0  0  0  0  0  0
   -1.0330    1.1010    5.5200 H   0  0  0  0  0  0  0  0  0  0  0  0
    1.5530    1.0670    4.5410 H   0  0  0  0  0  0  0  0  0  0  0  0
    2.8840    1.6550    2.5590 H   0  0  0  0  0  0  0  0  0  0  0  0
    1.8640    2.6230    0.5480 H   0  0  0  0  0  0  0  0  0  0  0  0
   -0.5950    3.0310    0.5270 H   0  0  0  0  0  0  0  0  0  0  0  0
  1 12  1  0  0  0  0
  2  1  1  0  0  0  0
  2  3  2  0  0  0  0
  3 14  1  0  0  0  0
  4  5  1  0  0  0  0
  4  2  1  0  0  0  0
  5  6  1  0  0  0  0
  5 16  1  0  0  0  0
  6  7  1  0  0  0  0
  6 18  1  0  0  0  0
  7 20  1  0  0  0  0
  7  8  1  0  0  0  0
  8 22  1  1  0  0  0
  9  8  1  0  0  0  0
  9 23  1  0  0  0  0
 10 11  2  0  0  0  0
 10  8  1  0  0  0  0
 13  1  1  0  0  0  0
 15  4  1  0  0  0  0
 17  5  1  0  0  0  0
 19  6  1  0  0  0  0
 21  7  1  0  0  0  0
 24  9  1  0  0  0  0
 25 26  1  0  0  0  0
 26 36  2  0  0  0  0
 26 27  1  0  0  0  0
 27 28  2  0  0  0  0
 28 29  1  0  0  0  0
 28 39  1  0  0  0  0
 29 30  1  0  0  0  0
 30 31  1  0  0  0  0
 31 42  1  1  0  0  0
 31 32  1  0  0  0  0
 31 33  1  0  0  0  0
 32 10  1  0  0  0  0
 33 34  2  0  0  0  0
 35 29  2  0  0  0  0
 36 35  1  0  0  0  0
 37 25  1  0  0  0  0
 38 27  1  0  0  0  0
 40 30  1  0  0  0  0
 41 30  1  0  0  0  0
 43 32  1  0  0  0  0
 44 35  1  0  0  0  0
 45 36  1  0  0  0  0
 46 33  1  0  0  0  0
 46 47  1  0  0  0  0
 47 62  1  1  0  0  0
 47 48  1  0  0  0  0
 48 64  1  0  0  0  0
 48 49  1  0  0  0  0
 49 50  2  0  0  0  0
 50 51  1  0  0  0  0
 50 65  1  0  0  0  0
 51 66  1  0  0  0  0
 52 53  1  0  0  0  0
 52 51  1  0  0  0  0
 53 67  1  0  0  0  0
 54 68  1  0  0  0  0
 54 53  2  0  0  0  0
 55 54  1  0  0  0  0
 56 55  2  0  0  0  0
 56 57  1  0  0  0  0
 57 49  1  0  0  0  0
 57 52  2  0  0  0  0
 58 47  1  0  0  0  0
 58 60  1  0  0  0  0
 59 58  2  0  0  0  0
 61 46  1  0  0  0  0
 63 48  1  0  0  0  0
 69 55  1  0  0  0  0
 70 56  1  0  0  0  0
M  END
$$$$
