SAD.pdb
 OpenBabel07022419063D

 36 35  0  0  1  0  0  0  0  0999 V2000
    0.2010   -4.7790    3.4280 O   0  0  0  0  0  0  0  0  0  0  0  0
   -0.0030   -4.9180    2.0640 C   0  0  0  0  0  0  0  0  0  0  0  0
   -0.6050   -3.6000    1.5650 C   0  0  2  0  0  0  0  0  0  0  0  0
   -0.8520   -3.6430    0.1620 N   0  0  0  0  0  0  0  0  0  0  0  0
    0.3500   -2.5360    1.9640 C   0  0  0  0  0  0  0  0  0  0  0  0
    0.6090   -2.4500    3.2010 O   0  0  0  0  0  0  0  0  0  0  0  0
   -0.4890   -5.2560    3.9490 H   0  0  0  0  0  0  0  0  0  0  0  0
    1.0060   -4.9760    1.5740 H   0  0  0  0  0  0  0  0  0  0  0  0
   -0.6400   -5.7790    1.8210 H   0  0  0  0  0  0  0  0  0  0  0  0
   -1.5860   -3.4790    2.0860 H   0  0  0  0  0  0  0  0  0  0  0  0
   -0.5540   -4.5260   -0.3000 H   0  0  0  0  0  0  0  0  0  0  0  0
   -1.8110   -3.3420   -0.1160 H   0  0  0  0  0  0  0  0  0  0  0  0
    3.2370   -0.9170    0.9380 C   0  0  0  0  0  0  0  0  0  0  0  0
    1.8710   -0.6520    1.5280 C   0  0  2  0  0  0  0  0  0  0  0  0
    0.9650   -1.6440    1.0550 N   0  0  0  0  0  0  0  0  0  0  0  0
    1.3710    0.7040    1.1780 C   0  0  0  0  0  0  0  0  0  0  0  0
    1.9870    1.7560    1.4810 O   0  0  0  0  0  0  0  0  0  0  0  0
    3.1070   -1.4920   -0.0190 H   0  0  0  0  0  0  0  0  0  0  0  0
    3.8060   -1.5820    1.6200 H   0  0  0  0  0  0  0  0  0  0  0  0
    3.8170    0.0120    0.7600 H   0  0  0  0  0  0  0  0  0  0  0  0
    1.9680   -0.7340    2.6280 H   0  0  0  0  0  0  0  0  0  0  0  0
    0.7180   -1.7560    0.0420 H   0  0  0  0  0  0  0  0  0  0  0  0
    0.1520    0.8910    0.4700 N   0  0  0  0  0  0  0  0  0  0  0  0
   -0.3930    2.1450    0.0980 C   0  0  1  0  0  0  0  0  0  0  0  0
   -0.6020    2.3570   -1.3610 C   0  0  0  0  0  0  0  0  0  0  0  0
    0.6410    2.2640   -2.1580 C   0  0  0  0  0  0  0  0  0  0  0  0
    1.7660    2.0320   -1.6710 O   0  0  0  0  0  0  0  0  0  0  0  0
   -1.6990    2.3240    0.7830 C   0  0  0  0  0  0  0  0  0  0  0  0
   -2.1630    1.4320    1.5590 O   0  0  0  0  0  0  0  0  0  0  0  0
    0.5300    2.4500   -3.5310 O   0  0  0  0  0  0  0  0  0  0  0  0
   -2.4800    3.4550    0.6220 O   0  0  0  0  0  0  0  0  0  0  0  0
   -0.3770    0.0230    0.2070 H   0  0  0  0  0  0  0  0  0  0  0  0
    0.3090    2.9490    0.4630 H   0  0  0  0  0  0  0  0  0  0  0  0
   -0.9750    3.4050   -1.4910 H   0  0  0  0  0  0  0  0  0  0  0  0
   -1.4070    1.7020   -1.7210 H   0  0  0  0  0  0  0  0  0  0  0  0
    1.3070    2.7930   -4.0990 H   0  0  0  0  0  0  0  0  0  0  0  0
  1  7  1  0  0  0  0
  2  1  1  0  0  0  0
  3  5  1  0  0  0  0
  3  2  1  0  0  0  0
  3 10  1  1  0  0  0
  4  3  1  0  0  0  0
  5  6  2  0  0  0  0
  8  2  1  0  0  0  0
  9  2  1  0  0  0  0
 11  4  1  0  0  0  0
 12  4  1  0  0  0  0
 13 14  1  0  0  0  0
 13 19  1  0  0  0  0
 14 21  1  1  0  0  0
 15 14  1  0  0  0  0
 15  5  1  0  0  0  0
 16 17  2  0  0  0  0
 16 14  1  0  0  0  0
 18 13  1  0  0  0  0
 20 13  1  0  0  0  0
 22 15  1  0  0  0  0
 23 16  1  0  0  0  0
 24 33  1  1  0  0  0
 24 23  1  0  0  0  0
 24 28  1  0  0  0  0
 25 24  1  0  0  0  0
 26 27  2  0  0  0  0
 26 25  1  0  0  0  0
 28 29  1  0  0  0  0
 30 26  1  0  0  0  0
 31 28  2  0  0  0  0
 32 23  1  0  0  0  0
 34 25  1  0  0  0  0
 35 25  1  0  0  0  0
 36 30  1  0  0  0  0
M  END
$$$$
