SAF.pdb
 OpenBabel07022419063D

 43 43  0  0  1  0  0  0  0  0999 V2000
    0.0330   -4.5230    1.5370 O   0  0  0  0  0  0  0  0  0  0  0  0
   -0.2280   -4.7820    0.1930 C   0  0  0  0  0  0  0  0  0  0  0  0
    0.9420   -4.4180   -0.6530 C   0  0  2  0  0  0  0  0  0  0  0  0
    2.0920   -5.1930   -0.2410 N   0  0  0  0  0  0  0  0  0  0  0  0
    1.2910   -3.0090   -0.6810 C   0  0  0  0  0  0  0  0  0  0  0  0
    2.4670   -2.6730   -0.3660 O   0  0  0  0  0  0  0  0  0  0  0  0
   -0.7100   -4.7650    2.1210 H   0  0  0  0  0  0  0  0  0  0  0  0
   -1.1650   -4.2980   -0.0630 H   0  0  0  0  0  0  0  0  0  0  0  0
   -0.3820   -5.8780    0.1110 H   0  0  0  0  0  0  0  0  0  0  0  0
    0.7380   -4.7330   -1.7190 H   0  0  0  0  0  0  0  0  0  0  0  0
    2.9640   -4.6240   -0.1860 H   0  0  0  0  0  0  0  0  0  0  0  0
    1.9690   -5.6490    0.6900 H   0  0  0  0  0  0  0  0  0  0  0  0
    0.7110   -0.1050   -2.4970 C   0  0  0  0  0  0  0  0  0  0  0  0
    0.8050   -0.5880   -1.0500 C   0  0  2  0  0  0  0  0  0  0  0  0
    0.3770   -1.9680   -1.0470 N   0  0  0  0  0  0  0  0  0  0  0  0
   -0.1150    0.2530   -0.2420 C   0  0  0  0  0  0  0  0  0  0  0  0
   -1.1050   -0.2750    0.3250 O   0  0  0  0  0  0  0  0  0  0  0  0
    1.0790    0.9350   -2.6010 H   0  0  0  0  0  0  0  0  0  0  0  0
   -0.3400   -0.1170   -2.8560 H   0  0  0  0  0  0  0  0  0  0  0  0
    1.2860   -0.7580   -3.1640 H   0  0  0  0  0  0  0  0  0  0  0  0
    1.8500   -0.5190   -0.7480 H   0  0  0  0  0  0  0  0  0  0  0  0
   -0.5830   -2.2710   -1.3020 H   0  0  0  0  0  0  0  0  0  0  0  0
    0.0690    1.6510   -0.0740 N   0  0  0  0  0  0  0  0  0  0  0  0
   -0.8120    2.4770    0.7040 C   0  0  1  0  0  0  0  0  0  0  0  0
   -0.1080    3.0110    1.9590 C   0  0  0  0  0  0  0  0  0  0  0  0
    0.3340    1.8610    2.7910 C   0  0  0  0  0  0  0  0  0  0  0  0
    1.5760    1.2870    2.6220 C   0  0  0  0  0  0  0  0  0  0  0  0
    2.0010    0.2200    3.3860 C   0  0  0  0  0  0  0  0  0  0  0  0
    1.1950   -0.3280    4.3620 C   0  0  0  0  0  0  0  0  0  0  0  0
   -0.0510    0.2400    4.5380 C   0  0  0  0  0  0  0  0  0  0  0  0
   -0.4750    1.3080    3.7730 C   0  0  0  0  0  0  0  0  0  0  0  0
   -1.3760    3.6010   -0.0440 C   0  0  0  0  0  0  0  0  0  0  0  0
   -2.1600    4.3940    0.5270 O   0  0  0  0  0  0  0  0  0  0  0  0
   -1.0730    3.8270   -1.3750 O   0  0  0  0  0  0  0  0  0  0  0  0
    0.8910    2.0870   -0.5450 H   0  0  0  0  0  0  0  0  0  0  0  0
   -1.6140    1.7920    1.1090 H   0  0  0  0  0  0  0  0  0  0  0  0
    0.7410    3.6640    1.6960 H   0  0  0  0  0  0  0  0  0  0  0  0
   -0.8650    3.5820    2.5220 H   0  0  0  0  0  0  0  0  0  0  0  0
    2.2240    1.7140    1.8500 H   0  0  0  0  0  0  0  0  0  0  0  0
    2.9870   -0.2160    3.2340 H   0  0  0  0  0  0  0  0  0  0  0  0
    1.5420   -1.1680    4.9560 H   0  0  0  0  0  0  0  0  0  0  0  0
   -0.7370   -0.1370    5.2840 H   0  0  0  0  0  0  0  0  0  0  0  0
   -1.4550    1.7610    3.9060 H   0  0  0  0  0  0  0  0  0  0  0  0
  1  7  1  0  0  0  0
  2  1  1  0  0  0  0
  3 10  1  6  0  0  0
  3  4  1  0  0  0  0
  3  2  1  0  0  0  0
  4 11  1  0  0  0  0
  4 12  1  0  0  0  0
  5  3  1  0  0  0  0
  5  6  2  0  0  0  0
  8  2  1  0  0  0  0
  9  2  1  0  0  0  0
 13 14  1  0  0  0  0
 14 15  1  0  0  0  0
 14 21  1  1  0  0  0
 14 16  1  0  0  0  0
 15  5  1  0  0  0  0
 16 23  1  0  0  0  0
 16 17  2  0  0  0  0
 18 13  1  0  0  0  0
 19 13  1  0  0  0  0
 20 13  1  0  0  0  0
 22 15  1  0  0  0  0
 23 24  1  0  0  0  0
 24 36  1  1  0  0  0
 24 25  1  0  0  0  0
 25 38  1  0  0  0  0
 25 26  1  0  0  0  0
 26 31  1  0  0  0  0
 27 26  2  0  0  0  0
 27 28  1  0  0  0  0
 28 29  2  0  0  0  0
 29 30  1  0  0  0  0
 29 41  1  0  0  0  0
 30 42  1  0  0  0  0
 31 43  1  0  0  0  0
 31 30  2  0  0  0  0
 32 33  1  0  0  0  0
 32 24  1  0  0  0  0
 34 32  2  0  0  0  0
 35 23  1  0  0  0  0
 37 25  1  0  0  0  0
 39 27  1  0  0  0  0
 40 28  1  0  0  0  0
M  END
$$$$
