SAG.pdb
 OpenBabel07022419063D

 30 29  0  0  1  0  0  0  0  0999 V2000
   -2.4860   -0.1870    4.0790 O   0  0  0  0  0  0  0  0  0  0  0  0
   -1.5220   -0.2950    3.0720 C   0  0  0  0  0  0  0  0  0  0  0  0
   -1.1830   -1.7640    2.9260 C   0  0  2  0  0  0  0  0  0  0  0  0
   -0.6640   -2.2570    4.1860 N   0  0  0  0  0  0  0  0  0  0  0  0
   -0.2170   -2.0290    1.8630 C   0  0  0  0  0  0  0  0  0  0  0  0
    0.8690   -2.6050    2.1210 O   0  0  0  0  0  0  0  0  0  0  0  0
   -3.2350    0.3360    3.7380 H   0  0  0  0  0  0  0  0  0  0  0  0
   -0.6530    0.2990    3.4100 H   0  0  0  0  0  0  0  0  0  0  0  0
   -1.9240    0.0850    2.1210 H   0  0  0  0  0  0  0  0  0  0  0  0
   -2.1320   -2.3240    2.7430 H   0  0  0  0  0  0  0  0  0  0  0  0
   -0.5870   -1.5350    4.9170 H   0  0  0  0  0  0  0  0  0  0  0  0
    0.2860   -2.7070    4.0610 H   0  0  0  0  0  0  0  0  0  0  0  0
    0.0050   -2.8080   -1.6360 C   0  0  0  0  0  0  0  0  0  0  0  0
    0.5300   -1.9300   -0.5460 C   0  0  2  0  0  0  0  0  0  0  0  0
   -0.4270   -1.6660    0.4970 N   0  0  0  0  0  0  0  0  0  0  0  0
    1.0490   -0.6460   -1.1190 C   0  0  0  0  0  0  0  0  0  0  0  0
    1.8890   -0.6730   -2.0360 O   0  0  0  0  0  0  0  0  0  0  0  0
    0.1590   -2.3430   -2.6400 H   0  0  0  0  0  0  0  0  0  0  0  0
    0.5200   -3.7910   -1.6770 H   0  0  0  0  0  0  0  0  0  0  0  0
   -1.0690   -3.0270   -1.4840 H   0  0  0  0  0  0  0  0  0  0  0  0
    1.4100   -2.4450   -0.0870 H   0  0  0  0  0  0  0  0  0  0  0  0
   -1.3360   -1.1850    0.2930 H   0  0  0  0  0  0  0  0  0  0  0  0
    0.5920    0.6030   -0.6250 N   0  0  0  0  0  0  0  0  0  0  0  0
    1.0500    1.8610   -1.1320 C   0  0  0  0  0  0  0  0  0  0  0  0
    2.4950    2.0750   -0.9940 C   0  0  0  0  0  0  0  0  0  0  0  0
    3.0410    3.1290   -1.3920 O   0  0  0  0  0  0  0  0  0  0  0  0
    3.3200    1.1240   -0.4210 O   0  0  0  0  0  0  0  0  0  0  0  0
   -0.1100    0.5740    0.1410 H   0  0  0  0  0  0  0  0  0  0  0  0
    0.4840    2.6900   -0.6270 H   0  0  0  0  0  0  0  0  0  0  0  0
    0.7110    1.9240   -2.2000 H   0  0  0  0  0  0  0  0  0  0  0  0
  2  8  1  0  0  0  0
  2  1  1  0  0  0  0
  3 10  1  6  0  0  0
  3  2  1  0  0  0  0
  3  4  1  0  0  0  0
  4 11  1  0  0  0  0
  5  6  2  0  0  0  0
  5  3  1  0  0  0  0
  7  1  1  0  0  0  0
  9  2  1  0  0  0  0
 12  4  1  0  0  0  0
 13 20  1  0  0  0  0
 13 14  1  0  0  0  0
 14 21  1  1  0  0  0
 14 15  1  0  0  0  0
 15  5  1  0  0  0  0
 16 23  1  0  0  0  0
 16 14  1  0  0  0  0
 17 16  2  0  0  0  0
 18 13  1  0  0  0  0
 19 13  1  0  0  0  0
 22 15  1  0  0  0  0
 23 28  1  0  0  0  0
 24 25  1  0  0  0  0
 24 29  1  0  0  0  0
 24 23  1  0  0  0  0
 25 27  1  0  0  0  0
 26 25  2  0  0  0  0
 30 24  1  0  0  0  0
M  END
$$$$
