SAK.pdb
 OpenBabel07022419063D

 44 43  0  0  1  0  0  0  0  0999 V2000
   -0.8750   -3.1500    1.9110 O   0  0  0  0  0  0  0  0  0  0  0  0
   -1.1990   -3.7010    0.6960 C   0  0  0  0  0  0  0  0  0  0  0  0
    0.0740   -4.1160   -0.0100 C   0  0  2  0  0  0  0  0  0  0  0  0
    0.7530   -5.0780    0.8040 N   0  0  0  0  0  0  0  0  0  0  0  0
    0.9500   -2.9490   -0.2910 C   0  0  0  0  0  0  0  0  0  0  0  0
    2.1220   -2.9150    0.1780 O   0  0  0  0  0  0  0  0  0  0  0  0
   -1.6290   -2.5890    2.2630 H   0  0  0  0  0  0  0  0  0  0  0  0
   -1.7340   -3.0180    0.0160 H   0  0  0  0  0  0  0  0  0  0  0  0
   -1.8090   -4.6380    0.7970 H   0  0  0  0  0  0  0  0  0  0  0  0
   -0.1870   -4.6390   -0.9770 H   0  0  0  0  0  0  0  0  0  0  0  0
    0.0740   -5.6590    1.3650 H   0  0  0  0  0  0  0  0  0  0  0  0
    1.4240   -4.6550    1.4810 H   0  0  0  0  0  0  0  0  0  0  0  0
    1.5900   -0.5490   -2.8470 C   0  0  0  0  0  0  0  0  0  0  0  0
    1.3140   -0.7060   -1.3790 C   0  0  2  0  0  0  0  0  0  0  0  0
    0.5240   -1.8650   -1.0680 N   0  0  0  0  0  0  0  0  0  0  0  0
    0.7570    0.5320   -0.7710 C   0  0  0  0  0  0  0  0  0  0  0  0
    1.3000    1.6540   -0.9240 O   0  0  0  0  0  0  0  0  0  0  0  0
    0.6850   -0.4940   -3.4620 H   0  0  0  0  0  0  0  0  0  0  0  0
    2.2010    0.3670   -2.9720 H   0  0  0  0  0  0  0  0  0  0  0  0
    2.2680   -1.3960   -3.1480 H   0  0  0  0  0  0  0  0  0  0  0  0
    2.3120   -0.8610   -0.8790 H   0  0  0  0  0  0  0  0  0  0  0  0
   -0.4600   -1.8810   -1.4680 H   0  0  0  0  0  0  0  0  0  0  0  0
   -0.4460    0.3880    0.0100 N   0  0  0  0  0  0  0  0  0  0  0  0
   -1.0770    1.4880    0.6430 C   0  0  1  0  0  0  0  0  0  0  0  0
   -0.2180    2.4250    1.4230 C   0  0  0  0  0  0  0  0  0  0  0  0
    0.5010    1.8790    2.5910 C   0  0  0  0  0  0  0  0  0  0  0  0
    1.4690    0.7640    2.3050 C   0  0  0  0  0  0  0  0  0  0  0  0
    2.1330    0.3130    3.6300 C   0  0  0  0  0  0  0  0  0  0  0  0
    1.0560   -0.1330    4.4850 N   0  0  0  0  0  0  0  0  0  0  0  0
   -2.0470    2.2140   -0.2160 C   0  0  0  0  0  0  0  0  0  0  0  0
   -2.3030    1.9020   -1.3970 O   0  0  0  0  0  0  0  0  0  0  0  0
   -2.6970    3.3050    0.3550 O   0  0  0  0  0  0  0  0  0  0  0  0
   -0.8510   -0.5810    0.0950 H   0  0  0  0  0  0  0  0  0  0  0  0
   -1.7410    1.0120    1.4630 H   0  0  0  0  0  0  0  0  0  0  0  0
   -0.9270    3.2220    1.8160 H   0  0  0  0  0  0  0  0  0  0  0  0
    0.5010    2.9930    0.7920 H   0  0  0  0  0  0  0  0  0  0  0  0
    1.1080    2.6790    3.1200 H   0  0  0  0  0  0  0  0  0  0  0  0
   -0.2550    1.5750    3.3620 H   0  0  0  0  0  0  0  0  0  0  0  0
    2.2390    1.0300    1.5840 H   0  0  0  0  0  0  0  0  0  0  0  0
    0.9240   -0.1400    1.9660 H   0  0  0  0  0  0  0  0  0  0  0  0
    2.6800    1.1810    4.0500 H   0  0  0  0  0  0  0  0  0  0  0  0
    2.8240   -0.5190    3.4230 H   0  0  0  0  0  0  0  0  0  0  0  0
    0.7230    0.6840    5.0480 H   0  0  0  0  0  0  0  0  0  0  0  0
    0.2540   -0.5200    3.9230 H   0  0  0  0  0  0  0  0  0  0  0  0
  1  7  1  0  0  0  0
  2  9  1  0  0  0  0
  2  1  1  0  0  0  0
  3 10  1  6  0  0  0
  3  2  1  0  0  0  0
  3  4  1  0  0  0  0
  4 11  1  0  0  0  0
  4 12  1  0  0  0  0
  5  3  1  0  0  0  0
  5  6  2  0  0  0  0
  8  2  1  0  0  0  0
 13 14  1  0  0  0  0
 14 15  1  0  0  0  0
 14 21  1  1  0  0  0
 14 16  1  0  0  0  0
 15  5  1  0  0  0  0
 16 23  1  0  0  0  0
 17 16  2  0  0  0  0
 18 13  1  0  0  0  0
 19 13  1  0  0  0  0
 20 13  1  0  0  0  0
 22 15  1  0  0  0  0
 23 33  1  0  0  0  0
 23 24  1  0  0  0  0
 24 25  1  0  0  0  0
 24 34  1  1  0  0  0
 25 35  1  0  0  0  0
 25 26  1  0  0  0  0
 26 37  1  0  0  0  0
 26 38  1  0  0  0  0
 27 26  1  0  0  0  0
 27 28  1  0  0  0  0
 28 41  1  0  0  0  0
 28 29  1  0  0  0  0
 29 43  1  0  0  0  0
 30 32  1  0  0  0  0
 30 24  1  0  0  0  0
 31 30  2  0  0  0  0
 36 25  1  0  0  0  0
 39 27  1  0  0  0  0
 40 27  1  0  0  0  0
 42 28  1  0  0  0  0
 44 29  1  0  0  0  0
M  END
$$$$
