SAL.pdb
 OpenBabel07022419063D

 42 41  0  0  1  0  0  0  0  0999 V2000
   -0.6480   -6.0070    3.0770 O   0  0  0  0  0  0  0  0  0  0  0  0
   -0.8640   -5.8200    1.7140 C   0  0  0  0  0  0  0  0  0  0  0  0
   -1.1120   -4.3590    1.3960 C   0  0  2  0  0  0  0  0  0  0  0  0
   -1.3250   -4.2200    0.0050 N   0  0  0  0  0  0  0  0  0  0  0  0
    0.0320   -3.5990    1.9370 C   0  0  0  0  0  0  0  0  0  0  0  0
    0.2220   -3.7270    3.1940 O   0  0  0  0  0  0  0  0  0  0  0  0
   -1.5280   -5.9680    3.5380 H   0  0  0  0  0  0  0  0  0  0  0  0
   -1.7450   -6.4040    1.3540 H   0  0  0  0  0  0  0  0  0  0  0  0
    0.0060   -6.1560    1.1110 H   0  0  0  0  0  0  0  0  0  0  0  0
   -2.0210   -4.0480    1.9830 H   0  0  0  0  0  0  0  0  0  0  0  0
   -2.3650   -4.3610   -0.1780 H   0  0  0  0  0  0  0  0  0  0  0  0
   -1.0910   -3.3120   -0.4120 H   0  0  0  0  0  0  0  0  0  0  0  0
    3.2780   -2.5790    1.2470 C   0  0  0  0  0  0  0  0  0  0  0  0
    1.9670   -2.0880    1.8180 C   0  0  2  0  0  0  0  0  0  0  0  0
    0.8850   -2.7800    1.1850 N   0  0  0  0  0  0  0  0  0  0  0  0
    1.8390   -0.6020    1.6740 C   0  0  0  0  0  0  0  0  0  0  0  0
    2.7230    0.0950    2.1860 O   0  0  0  0  0  0  0  0  0  0  0  0
    3.4930   -2.1940    0.2460 H   0  0  0  0  0  0  0  0  0  0  0  0
    4.0930   -2.3280    1.9590 H   0  0  0  0  0  0  0  0  0  0  0  0
    3.2250   -3.6870    1.2140 H   0  0  0  0  0  0  0  0  0  0  0  0
    1.9680   -2.3230    2.9020 H   0  0  0  0  0  0  0  0  0  0  0  0
    0.7520   -2.6620    0.1740 H   0  0  0  0  0  0  0  0  0  0  0  0
   -0.8260    3.9140   -0.6870 C   0  0  0  0  0  0  0  0  0  0  0  0
    0.4580    3.2430   -1.0490 C   0  0  0  0  0  0  0  0  0  0  0  0
    1.5770    4.1650   -0.5820 C   0  0  0  0  0  0  0  0  0  0  0  0
    0.5960    1.8600   -0.5670 C   0  0  0  0  0  0  0  0  0  0  0  0
    0.6280    1.4820    0.8400 C   0  0  2  0  0  0  0  0  0  0  0  0
    0.7810    0.0230    0.9970 N   0  0  0  0  0  0  0  0  0  0  0  0
   -0.5390    1.8430    1.6330 C   0  0  0  0  0  0  0  0  0  0  0  0
   -1.3280    0.9010    2.0280 O   0  0  0  0  0  0  0  0  0  0  0  0
   -0.9360    3.1040    2.0480 O   0  0  0  0  0  0  0  0  0  0  0  0
   -1.1640    4.5110   -1.6270 H   0  0  0  0  0  0  0  0  0  0  0  0
   -1.6340    3.2060   -0.4510 H   0  0  0  0  0  0  0  0  0  0  0  0
   -0.6580    4.7180    0.0450 H   0  0  0  0  0  0  0  0  0  0  0  0
    0.5710    3.2420   -2.1740 H   0  0  0  0  0  0  0  0  0  0  0  0
    2.5670    3.7600   -0.7790 H   0  0  0  0  0  0  0  0  0  0  0  0
    1.4730    5.0890   -1.1920 H   0  0  0  0  0  0  0  0  0  0  0  0
    1.4240    4.4840    0.4740 H   0  0  0  0  0  0  0  0  0  0  0  0
   -0.3020    1.3190   -1.0660 H   0  0  0  0  0  0  0  0  0  0  0  0
    1.4270    1.3220   -1.1710 H   0  0  0  0  0  0  0  0  0  0  0  0
    1.5230    1.9270    1.3690 H   0  0  0  0  0  0  0  0  0  0  0  0
    0.0530   -0.5690    0.5770 H   0  0  0  0  0  0  0  0  0  0  0  0
  1  7  1  0  0  0  0
  2  1  1  0  0  0  0
  3  2  1  0  0  0  0
  3  5  1  0  0  0  0
  3 10  1  1  0  0  0
  4  3  1  0  0  0  0
  5  6  2  0  0  0  0
  8  2  1  0  0  0  0
  9  2  1  0  0  0  0
 11  4  1  0  0  0  0
 12  4  1  0  0  0  0
 13 14  1  0  0  0  0
 13 19  1  0  0  0  0
 14 21  1  1  0  0  0
 15 14  1  0  0  0  0
 15  5  1  0  0  0  0
 16 14  1  0  0  0  0
 16 17  2  0  0  0  0
 18 13  1  0  0  0  0
 20 13  1  0  0  0  0
 22 15  1  0  0  0  0
 23 33  1  0  0  0  0
 23 34  1  0  0  0  0
 24 23  1  0  0  0  0
 24 25  1  0  0  0  0
 24 26  1  0  0  0  0
 25 38  1  0  0  0  0
 26 27  1  0  0  0  0
 27 28  1  0  0  0  0
 27 41  1  1  0  0  0
 27 29  1  0  0  0  0
 28 16  1  0  0  0  0
 29 30  2  0  0  0  0
 29 31  1  0  0  0  0
 32 23  1  0  0  0  0
 35 24  1  0  0  0  0
 36 25  1  0  0  0  0
 37 25  1  0  0  0  0
 39 26  1  0  0  0  0
 40 26  1  0  0  0  0
 42 28  1  0  0  0  0
M  END
$$$$
