SAM.pdb
 OpenBabel07022419063D

 40 39  0  0  1  0  0  0  0  0999 V2000
   -0.1280   -5.4970    3.0170 O   0  0  0  0  0  0  0  0  0  0  0  0
   -0.3920   -5.3320    1.6530 C   0  0  0  0  0  0  0  0  0  0  0  0
   -0.7150   -3.8520    1.4250 C   0  0  2  0  0  0  0  0  0  0  0  0
   -0.9850   -3.6860    0.0320 N   0  0  0  0  0  0  0  0  0  0  0  0
    0.4400   -3.0770    1.9200 C   0  0  0  0  0  0  0  0  0  0  0  0
    0.6990   -3.2000    3.1670 O   0  0  0  0  0  0  0  0  0  0  0  0
    0.4810   -6.2860    3.1350 H   0  0  0  0  0  0  0  0  0  0  0  0
   -1.2540   -5.9720    1.3300 H   0  0  0  0  0  0  0  0  0  0  0  0
    0.5110   -5.5410    1.0490 H   0  0  0  0  0  0  0  0  0  0  0  0
   -1.6460   -3.6550    2.0220 H   0  0  0  0  0  0  0  0  0  0  0  0
   -1.9950   -3.9680   -0.1520 H   0  0  0  0  0  0  0  0  0  0  0  0
   -0.8530   -2.7050   -0.3140 H   0  0  0  0  0  0  0  0  0  0  0  0
    3.6490   -1.9670    1.0920 C   0  0  0  0  0  0  0  0  0  0  0  0
    2.3440   -1.5330    1.7180 C   0  0  2  0  0  0  0  0  0  0  0  0
    1.2470   -2.2390    1.1290 N   0  0  0  0  0  0  0  0  0  0  0  0
    2.1690   -0.0410    1.6020 C   0  0  0  0  0  0  0  0  0  0  0  0
    3.0560    0.7110    2.0780 O   0  0  0  0  0  0  0  0  0  0  0  0
    4.4600   -1.2460    1.2520 H   0  0  0  0  0  0  0  0  0  0  0  0
    3.9600   -2.9060    1.6320 H   0  0  0  0  0  0  0  0  0  0  0  0
    3.5260   -2.2710    0.0320 H   0  0  0  0  0  0  0  0  0  0  0  0
    2.3900   -1.7820    2.7950 H   0  0  0  0  0  0  0  0  0  0  0  0
    1.0490   -2.1340    0.1250 H   0  0  0  0  0  0  0  0  0  0  0  0
   -2.3370    4.0350   -0.8550 C   0  0  0  0  0  0  0  0  0  0  0  0
   -1.9210    2.2880   -0.7330 S   0  0  0  0  0  0  0  0  0  0  0  0
   -0.2780    1.9210   -1.3380 C   0  0  0  0  0  0  0  0  0  0  0  0
    0.8430    2.4840   -0.5300 C   0  0  0  0  0  0  0  0  0  0  0  0
    0.9030    2.0170    0.8830 C   0  0  2  0  0  0  0  0  0  0  0  0
    1.0580    0.5680    0.9860 N   0  0  0  0  0  0  0  0  0  0  0  0
   -0.2470    2.4180    1.7240 C   0  0  0  0  0  0  0  0  0  0  0  0
   -0.5950    3.6220    1.8360 O   0  0  0  0  0  0  0  0  0  0  0  0
   -1.0040    1.4950    2.4340 O   0  0  0  0  0  0  0  0  0  0  0  0
   -2.5150    4.3230   -1.9330 H   0  0  0  0  0  0  0  0  0  0  0  0
   -3.3130    4.2090   -0.3570 H   0  0  0  0  0  0  0  0  0  0  0  0
   -1.5550    4.7160   -0.4930 H   0  0  0  0  0  0  0  0  0  0  0  0
   -0.1690    2.3000   -2.3950 H   0  0  0  0  0  0  0  0  0  0  0  0
   -0.1070    0.8230   -1.4190 H   0  0  0  0  0  0  0  0  0  0  0  0
    1.7880    2.1970   -1.0430 H   0  0  0  0  0  0  0  0  0  0  0  0
    0.8530    3.6010   -0.5230 H   0  0  0  0  0  0  0  0  0  0  0  0
    1.7950    2.5320    1.3480 H   0  0  0  0  0  0  0  0  0  0  0  0
    0.3170   -0.0450    0.5870 H   0  0  0  0  0  0  0  0  0  0  0  0
  1  7  1  0  0  0  0
  2  1  1  0  0  0  0
  3  2  1  0  0  0  0
  3  5  1  0  0  0  0
  3 10  1  1  0  0  0
  4  3  1  0  0  0  0
  5  6  2  0  0  0  0
  8  2  1  0  0  0  0
  9  2  1  0  0  0  0
 11  4  1  0  0  0  0
 12  4  1  0  0  0  0
 13 18  1  0  0  0  0
 13 19  1  0  0  0  0
 13 14  1  0  0  0  0
 14 21  1  1  0  0  0
 15 14  1  0  0  0  0
 15  5  1  0  0  0  0
 16 14  1  0  0  0  0
 16 17  2  0  0  0  0
 20 13  1  0  0  0  0
 22 15  1  0  0  0  0
 23 24  1  0  0  0  0
 23 34  1  0  0  0  0
 23 33  1  0  0  0  0
 25 24  1  0  0  0  0
 25 26  1  0  0  0  0
 26 38  1  0  0  0  0
 26 27  1  0  0  0  0
 27 28  1  0  0  0  0
 27 39  1  1  0  0  0
 27 29  1  0  0  0  0
 28 16  1  0  0  0  0
 29 30  2  0  0  0  0
 29 31  1  0  0  0  0
 32 23  1  0  0  0  0
 35 25  1  0  0  0  0
 36 25  1  0  0  0  0
 37 26  1  0  0  0  0
 40 28  1  0  0  0  0
M  END
$$$$
