SAP.pdb
 OpenBabel07022419063D

 37 37  0  0  1  0  0  0  0  0999 V2000
   -1.9190   -1.2840    2.0400 O   0  0  0  0  0  0  0  0  0  0  0  0
   -1.1150   -1.8180    3.0330 C   0  0  0  0  0  0  0  0  0  0  0  0
   -0.2250   -2.9310    2.5800 C   0  0  2  0  0  0  0  0  0  0  0  0
    0.5400   -3.4470    3.7210 N   0  0  0  0  0  0  0  0  0  0  0  0
    0.6680   -2.6490    1.4590 C   0  0  0  0  0  0  0  0  0  0  0  0
    1.8810   -3.0510    1.5480 O   0  0  0  0  0  0  0  0  0  0  0  0
   -2.7020   -1.8550    1.8560 H   0  0  0  0  0  0  0  0  0  0  0  0
   -0.5250   -1.0160    3.5450 H   0  0  0  0  0  0  0  0  0  0  0  0
   -1.7910   -2.2150    3.8450 H   0  0  0  0  0  0  0  0  0  0  0  0
   -0.9050   -3.7930    2.2810 H   0  0  0  0  0  0  0  0  0  0  0  0
    1.4120   -3.9190    3.3900 H   0  0  0  0  0  0  0  0  0  0  0  0
   -0.0590   -4.0470    4.3120 H   0  0  0  0  0  0  0  0  0  0  0  0
    0.6390   -2.5910   -1.9720 C   0  0  0  0  0  0  0  0  0  0  0  0
    1.2140   -1.7390   -0.8110 C   0  0  2  0  0  0  0  0  0  0  0  0
    0.3160   -1.9760    0.2810 N   0  0  0  0  0  0  0  0  0  0  0  0
    1.3690   -0.3630   -1.1850 C   0  0  0  0  0  0  0  0  0  0  0  0
    2.0400   -0.1540   -2.2870 O   0  0  0  0  0  0  0  0  0  0  0  0
   -0.3570   -2.1910   -2.1700 H   0  0  0  0  0  0  0  0  0  0  0  0
    1.2760   -2.5320   -2.8520 H   0  0  0  0  0  0  0  0  0  0  0  0
    0.5540   -3.6160   -1.5410 H   0  0  0  0  0  0  0  0  0  0  0  0
    2.2360   -2.1800   -0.5920 H   0  0  0  0  0  0  0  0  0  0  0  0
   -0.6580   -1.6260    0.1610 H   0  0  0  0  0  0  0  0  0  0  0  0
    0.8990    0.7840   -0.5310 N   0  0  0  0  0  0  0  0  0  0  0  0
    1.0600    2.1760   -1.0550 C   0  0  0  0  0  0  0  0  0  0  0  0
    0.9270    3.0920    0.1230 C   0  0  0  0  0  0  0  0  0  0  0  0
    1.0240    2.1540    1.3050 C   0  0  0  0  0  0  0  0  0  0  0  0
    0.2190    0.9670    0.7220 C   0  0  1  0  0  0  0  0  0  0  0  0
   -1.1610    1.4690    0.5000 C   0  0  0  0  0  0  0  0  0  0  0  0
   -1.5740    1.6410   -0.6690 O   0  0  0  0  0  0  0  0  0  0  0  0
   -2.0290    1.7630    1.5280 O   0  0  0  0  0  0  0  0  0  0  0  0
    2.0580    2.2460   -1.5370 H   0  0  0  0  0  0  0  0  0  0  0  0
    0.3070    2.3800   -1.8240 H   0  0  0  0  0  0  0  0  0  0  0  0
    1.6990    3.8850    0.1520 H   0  0  0  0  0  0  0  0  0  0  0  0
   -0.0700    3.5890    0.1790 H   0  0  0  0  0  0  0  0  0  0  0  0
    0.5470    2.5410    2.2050 H   0  0  0  0  0  0  0  0  0  0  0  0
    2.0510    1.7940    1.4250 H   0  0  0  0  0  0  0  0  0  0  0  0
    0.2790    0.1230    1.4190 H   0  0  0  0  0  0  0  0  0  0  0  0
  1  2  1  0  0  0  0
  2  8  1  0  0  0  0
  2  9  1  0  0  0  0
  3 10  1  6  0  0  0
  3  2  1  0  0  0  0
  3  4  1  0  0  0  0
  4 12  1  0  0  0  0
  5  6  2  0  0  0  0
  5  3  1  0  0  0  0
  7  1  1  0  0  0  0
 11  4  1  0  0  0  0
 13 20  1  0  0  0  0
 13 14  1  0  0  0  0
 14 21  1  1  0  0  0
 14 15  1  0  0  0  0
 15  5  1  0  0  0  0
 16 14  1  0  0  0  0
 16 23  1  0  0  0  0
 17 16  2  0  0  0  0
 18 13  1  0  0  0  0
 19 13  1  0  0  0  0
 22 15  1  0  0  0  0
 23 27  1  0  0  0  0
 24 23  1  0  0  0  0
 24 25  1  0  0  0  0
 25 33  1  0  0  0  0
 25 34  1  0  0  0  0
 25 26  1  0  0  0  0
 26 36  1  0  0  0  0
 26 35  1  0  0  0  0
 27 26  1  0  0  0  0
 27 37  1  1  0  0  0
 28 27  1  0  0  0  0
 28 30  1  0  0  0  0
 29 28  2  0  0  0  0
 31 24  1  0  0  0  0
 32 24  1  0  0  0  0
M  END
$$$$
