SAR.pdb
 OpenBabel07022419063D

 46 45  0  0  1  0  0  0  0  0999 V2000
    0.8950   -7.4540   -0.7730 O   0  0  0  0  0  0  0  0  0  0  0  0
    0.8130   -6.1030   -0.3710 C   0  0  0  0  0  0  0  0  0  0  0  0
    1.6410   -5.3120   -1.3600 C   0  0  2  0  0  0  0  0  0  0  0  0
    3.0040   -5.7590   -1.3420 N   0  0  0  0  0  0  0  0  0  0  0  0
    1.5830   -3.8690   -1.1180 C   0  0  0  0  0  0  0  0  0  0  0  0
    2.6420   -3.2380   -0.9030 O   0  0  0  0  0  0  0  0  0  0  0  0
    1.6540   -7.9040   -0.2910 H   0  0  0  0  0  0  0  0  0  0  0  0
    1.2100   -6.0480    0.6510 H   0  0  0  0  0  0  0  0  0  0  0  0
   -0.2560   -5.8220   -0.4460 H   0  0  0  0  0  0  0  0  0  0  0  0
    1.2110   -5.5340   -2.3740 H   0  0  0  0  0  0  0  0  0  0  0  0
    3.2750   -6.1750   -2.2600 H   0  0  0  0  0  0  0  0  0  0  0  0
    3.1620   -6.4480   -0.5650 H   0  0  0  0  0  0  0  0  0  0  0  0
   -0.0240   -1.0280   -2.1570 C   0  0  0  0  0  0  0  0  0  0  0  0
    0.4080   -1.6940   -0.8620 C   0  0  2  0  0  0  0  0  0  0  0  0
    0.3820   -3.1170   -1.1090 N   0  0  0  0  0  0  0  0  0  0  0  0
   -0.5300   -1.4050    0.2420 C   0  0  0  0  0  0  0  0  0  0  0  0
   -1.1840   -2.3220    0.7940 O   0  0  0  0  0  0  0  0  0  0  0  0
   -0.8250   -1.6430   -2.6060 H   0  0  0  0  0  0  0  0  0  0  0  0
   -0.2810    0.0300   -2.0420 H   0  0  0  0  0  0  0  0  0  0  0  0
    0.8450   -1.0980   -2.8470 H   0  0  0  0  0  0  0  0  0  0  0  0
    1.4390   -1.3290   -0.6760 H   0  0  0  0  0  0  0  0  0  0  0  0
   -0.5130   -3.6080   -1.2830 H   0  0  0  0  0  0  0  0  0  0  0  0
    1.9310    5.3790    3.4970 N   0  0  0  0  0  0  0  0  0  0  0  0
    0.5830    4.8790    3.4620 C   0  0  0  0  0  0  0  0  0  0  0  0
   -0.1270    4.9390    4.5460 N   0  0  0  0  0  0  0  0  0  0  0  0
    0.0120    4.3300    2.2960 N   0  0  0  0  0  0  0  0  0  0  0  0
   -0.9280    3.2240    2.3900 C   0  0  0  0  0  0  0  0  0  0  0  0
   -0.1620    2.0150    2.8700 C   0  0  0  0  0  0  0  0  0  0  0  0
   -0.9700    0.7790    3.0260 C   0  0  0  0  0  0  0  0  0  0  0  0
   -1.6330    0.2610    1.7970 C   0  0  2  0  0  0  0  0  0  0  0  0
   -0.7300   -0.0710    0.7250 N   0  0  0  0  0  0  0  0  0  0  0  0
   -2.7850    1.0690    1.3310 C   0  0  0  0  0  0  0  0  0  0  0  0
   -3.6760    1.4950    2.1070 O   0  0  0  0  0  0  0  0  0  0  0  0
   -2.9620    1.4150   -0.0170 O   0  0  0  0  0  0  0  0  0  0  0  0
    2.3990    5.5150    4.4080 H   0  0  0  0  0  0  0  0  0  0  0  0
    2.3800    5.5830    2.5610 H   0  0  0  0  0  0  0  0  0  0  0  0
    0.2470    5.3290    5.4150 H   0  0  0  0  0  0  0  0  0  0  0  0
    0.2940    4.7480    1.3750 H   0  0  0  0  0  0  0  0  0  0  0  0
   -1.6870    3.5130    3.1440 H   0  0  0  0  0  0  0  0  0  0  0  0
   -1.3580    3.0890    1.3950 H   0  0  0  0  0  0  0  0  0  0  0  0
    0.2880    2.3220    3.8580 H   0  0  0  0  0  0  0  0  0  0  0  0
    0.7310    1.8760    2.2060 H   0  0  0  0  0  0  0  0  0  0  0  0
   -1.7830    0.9850    3.7760 H   0  0  0  0  0  0  0  0  0  0  0  0
   -0.3270    0.0170    3.5260 H   0  0  0  0  0  0  0  0  0  0  0  0
   -2.1070   -0.7300    2.1120 H   0  0  0  0  0  0  0  0  0  0  0  0
   -0.1580    0.6650    0.2310 H   0  0  0  0  0  0  0  0  0  0  0  0
  1  2  1  0  0  0  0
  1  7  1  0  0  0  0
  2  8  1  0  0  0  0
  3 10  1  6  0  0  0
  3  4  1  0  0  0  0
  3  5  1  0  0  0  0
  3  2  1  0  0  0  0
  4 12  1  0  0  0  0
  5 15  1  0  0  0  0
  5  6  2  0  0  0  0
  9  2  1  0  0  0  0
 11  4  1  0  0  0  0
 13 19  1  0  0  0  0
 13 14  1  0  0  0  0
 14 21  1  1  0  0  0
 14 16  1  0  0  0  0
 15 14  1  0  0  0  0
 16 31  1  0  0  0  0
 16 17  2  0  0  0  0
 18 13  1  0  0  0  0
 20 13  1  0  0  0  0
 22 15  1  0  0  0  0
 23 35  1  0  0  0  0
 24 23  1  0  0  0  0
 24 25  2  0  0  0  0
 25 37  1  0  0  0  0
 26 27  1  0  0  0  0
 26 24  1  0  0  0  0
 27 28  1  0  0  0  0
 27 39  1  0  0  0  0
 28 29  1  0  0  0  0
 28 41  1  0  0  0  0
 29 44  1  0  0  0  0
 29 43  1  0  0  0  0
 30 45  1  1  0  0  0
 30 29  1  0  0  0  0
 31 30  1  0  0  0  0
 32 30  1  0  0  0  0
 32 33  1  0  0  0  0
 34 32  2  0  0  0  0
 36 23  1  0  0  0  0
 38 26  1  0  0  0  0
 40 27  1  0  0  0  0
 42 28  1  0  0  0  0
 46 31  1  0  0  0  0
M  END
$$$$
