SAV.pdb
 OpenBabel07022419063D

 39 38  0  0  1  0  0  0  0  0999 V2000
   -2.8540   -3.5340    0.3630 O   0  0  0  0  0  0  0  0  0  0  0  0
   -1.7590   -2.8540    0.8920 C   0  0  0  0  0  0  0  0  0  0  0  0
   -0.5960   -3.7960    1.1290 C   0  0  2  0  0  0  0  0  0  0  0  0
   -0.9870   -4.8190    2.0520 N   0  0  0  0  0  0  0  0  0  0  0  0
    0.6180   -3.0880    1.5610 C   0  0  0  0  0  0  0  0  0  0  0  0
    1.1890   -3.4020    2.6330 O   0  0  0  0  0  0  0  0  0  0  0  0
   -3.4920   -3.8030    1.0570 H   0  0  0  0  0  0  0  0  0  0  0  0
   -1.5110   -2.0100    0.2430 H   0  0  0  0  0  0  0  0  0  0  0  0
   -2.1070   -2.4250    1.8750 H   0  0  0  0  0  0  0  0  0  0  0  0
   -0.3720   -4.2650    0.1370 H   0  0  0  0  0  0  0  0  0  0  0  0
   -0.2550   -4.9420    2.7810 H   0  0  0  0  0  0  0  0  0  0  0  0
   -1.2030   -5.7160    1.5700 H   0  0  0  0  0  0  0  0  0  0  0  0
    3.3850   -1.4860    0.0660 C   0  0  0  0  0  0  0  0  0  0  0  0
    2.3630   -1.3150    1.1690 C   0  0  2  0  0  0  0  0  0  0  0  0
    1.1740   -2.0410    0.7890 N   0  0  0  0  0  0  0  0  0  0  0  0
    2.0510    0.1560    1.2580 C   0  0  0  0  0  0  0  0  0  0  0  0
    2.9310    0.9930    1.5680 O   0  0  0  0  0  0  0  0  0  0  0  0
    3.1560   -0.8300   -0.8000 H   0  0  0  0  0  0  0  0  0  0  0  0
    4.4090   -1.2440    0.4040 H   0  0  0  0  0  0  0  0  0  0  0  0
    3.3640   -2.5370   -0.3360 H   0  0  0  0  0  0  0  0  0  0  0  0
    2.7890   -1.6790    2.1260 H   0  0  0  0  0  0  0  0  0  0  0  0
    0.7030   -1.7800   -0.0990 H   0  0  0  0  0  0  0  0  0  0  0  0
   -1.2190    1.9190   -0.7560 C   0  0  0  0  0  0  0  0  0  0  0  0
    0.0210    2.6680   -0.2490 C   0  0  0  0  0  0  0  0  0  0  0  0
    1.1220    2.6960   -1.2540 C   0  0  0  0  0  0  0  0  0  0  0  0
    0.4270    2.0620    1.0720 C   0  0  2  0  0  0  0  0  0  0  0  0
    0.7490    0.6750    0.9960 N   0  0  0  0  0  0  0  0  0  0  0  0
   -0.5380    2.3850    2.1550 C   0  0  0  0  0  0  0  0  0  0  0  0
   -0.9240    3.5660    2.3540 O   0  0  0  0  0  0  0  0  0  0  0  0
   -1.0750    1.4340    3.0120 O   0  0  0  0  0  0  0  0  0  0  0  0
   -0.9770    0.9060   -1.0860 H   0  0  0  0  0  0  0  0  0  0  0  0
   -1.9570    1.9630    0.0710 H   0  0  0  0  0  0  0  0  0  0  0  0
   -1.6660    2.5090   -1.5930 H   0  0  0  0  0  0  0  0  0  0  0  0
   -0.3290    3.7150   -0.1190 H   0  0  0  0  0  0  0  0  0  0  0  0
    2.0990    2.3560   -0.8660 H   0  0  0  0  0  0  0  0  0  0  0  0
    0.8560    2.0370   -2.1160 H   0  0  0  0  0  0  0  0  0  0  0  0
    1.2970    3.7050   -1.7020 H   0  0  0  0  0  0  0  0  0  0  0  0
    1.3770    2.6010    1.3650 H   0  0  0  0  0  0  0  0  0  0  0  0
    0.0230   -0.0540    0.7360 H   0  0  0  0  0  0  0  0  0  0  0  0
  1  2  1  0  0  0  0
  1  7  1  0  0  0  0
  2  3  1  0  0  0  0
  2  9  1  0  0  0  0
  3 10  1  6  0  0  0
  3  5  1  0  0  0  0
  3  4  1  0  0  0  0
  4 11  1  0  0  0  0
  5  6  2  0  0  0  0
  8  2  1  0  0  0  0
 12  4  1  0  0  0  0
 13 19  1  0  0  0  0
 13 14  1  0  0  0  0
 14 16  1  0  0  0  0
 14 21  1  1  0  0  0
 15 14  1  0  0  0  0
 15  5  1  0  0  0  0
 16 17  2  0  0  0  0
 18 13  1  0  0  0  0
 20 13  1  0  0  0  0
 22 15  1  0  0  0  0
 23 24  1  0  0  0  0
 23 32  1  0  0  0  0
 24 34  1  0  0  0  0
 24 26  1  0  0  0  0
 25 35  1  0  0  0  0
 25 24  1  0  0  0  0
 26 38  1  1  0  0  0
 26 28  1  0  0  0  0
 27 26  1  0  0  0  0
 27 16  1  0  0  0  0
 28 29  2  0  0  0  0
 28 30  1  0  0  0  0
 31 23  1  0  0  0  0
 33 23  1  0  0  0  0
 36 25  1  0  0  0  0
 37 25  1  0  0  0  0
 39 27  1  0  0  0  0
M  END
$$$$
