SAW.pdb
 OpenBabel07022419063D

 47 48  0  0  1  0  0  0  0  0999 V2000
    6.2130   -2.0110    1.9210 O   0  0  0  0  0  0  0  0  0  0  0  0
    5.9450   -3.2970    1.4140 C   0  0  0  0  0  0  0  0  0  0  0  0
    4.5100   -3.6480    1.7070 C   0  0  2  0  0  0  0  0  0  0  0  0
    4.1410   -4.9400    1.2290 N   0  0  0  0  0  0  0  0  0  0  0  0
    3.6230   -2.5660    1.2670 C   0  0  0  0  0  0  0  0  0  0  0  0
    3.8760   -1.3820    1.6000 O   0  0  0  0  0  0  0  0  0  0  0  0
    5.9090   -2.0000    2.8820 H   0  0  0  0  0  0  0  0  0  0  0  0
    6.1390   -3.2840    0.3110 H   0  0  0  0  0  0  0  0  0  0  0  0
    6.6310   -3.9840    1.9260 H   0  0  0  0  0  0  0  0  0  0  0  0
    4.4240   -3.6760    2.8350 H   0  0  0  0  0  0  0  0  0  0  0  0
    4.5630   -5.2210    0.3330 H   0  0  0  0  0  0  0  0  0  0  0  0
    4.1020   -5.6940    1.9390 H   0  0  0  0  0  0  0  0  0  0  0  0
    1.5270   -1.5320   -1.4500 C   0  0  0  0  0  0  0  0  0  0  0  0
    1.6120   -1.6490    0.0590 C   0  0  2  0  0  0  0  0  0  0  0  0
    2.4520   -2.7580    0.4630 N   0  0  0  0  0  0  0  0  0  0  0  0
    0.2790   -1.8260    0.6770 C   0  0  0  0  0  0  0  0  0  0  0  0
    0.0790   -2.8310    1.3970 O   0  0  0  0  0  0  0  0  0  0  0  0
    2.3710   -0.8910   -1.7770 H   0  0  0  0  0  0  0  0  0  0  0  0
    1.6510   -2.5030   -1.9440 H   0  0  0  0  0  0  0  0  0  0  0  0
    0.5680   -1.0500   -1.7660 H   0  0  0  0  0  0  0  0  0  0  0  0
    2.0730   -0.6990    0.4520 H   0  0  0  0  0  0  0  0  0  0  0  0
    2.2450   -3.7410    0.1890 H   0  0  0  0  0  0  0  0  0  0  0  0
   -0.8010   -0.9180    0.5050 N   0  0  0  0  0  0  0  0  0  0  0  0
   -2.1050   -1.1100    1.1270 C   0  0  1  0  0  0  0  0  0  0  0  0
   -2.2690   -0.0270    2.1420 C   0  0  0  0  0  0  0  0  0  0  0  0
   -2.1910    1.3420    1.6080 C   0  0  0  0  0  0  0  0  0  0  0  0
   -1.0100    2.1010    1.6420 C   0  0  0  0  0  0  0  0  0  0  0  0
   -1.2400    3.2750    1.0580 N   0  0  0  0  0  0  0  0  0  0  0  0
   -2.5130    3.3600    0.6270 C   0  0  0  0  0  0  0  0  0  0  0  0
   -3.2090    4.3650   -0.0190 C   0  0  0  0  0  0  0  0  0  0  0  0
   -4.5290    4.1550   -0.3250 C   0  0  0  0  0  0  0  0  0  0  0  0
   -5.1110    2.9640    0.0180 C   0  0  0  0  0  0  0  0  0  0  0  0
   -4.4300    1.9470    0.6640 C   0  0  0  0  0  0  0  0  0  0  0  0
   -3.1000    2.1500    0.9750 C   0  0  0  0  0  0  0  0  0  0  0  0
   -3.2110   -1.2480    0.1920 C   0  0  0  0  0  0  0  0  0  0  0  0
   -4.3440   -1.5350    0.6550 O   0  0  0  0  0  0  0  0  0  0  0  0
   -3.1100   -1.0830   -1.1900 O   0  0  0  0  0  0  0  0  0  0  0  0
   -0.6550   -0.0770   -0.0920 H   0  0  0  0  0  0  0  0  0  0  0  0
   -2.0840   -2.0780    1.7240 H   0  0  0  0  0  0  0  0  0  0  0  0
   -1.5120   -0.1870    2.9600 H   0  0  0  0  0  0  0  0  0  0  0  0
   -3.2580   -0.1280    2.6790 H   0  0  0  0  0  0  0  0  0  0  0  0
   -0.0830    1.7400    2.0870 H   0  0  0  0  0  0  0  0  0  0  0  0
   -0.5350    4.0360    0.9430 H   0  0  0  0  0  0  0  0  0  0  0  0
   -2.7410    5.2920   -0.2800 H   0  0  0  0  0  0  0  0  0  0  0  0
   -5.1200    4.9290   -0.8390 H   0  0  0  0  0  0  0  0  0  0  0  0
   -6.1570    2.7910   -0.2210 H   0  0  0  0  0  0  0  0  0  0  0  0
   -4.9110    1.0260    0.9320 H   0  0  0  0  0  0  0  0  0  0  0  0
  1  7  1  0  0  0  0
  2  3  1  0  0  0  0
  2  1  1  0  0  0  0
  2  9  1  0  0  0  0
  3 10  1  1  0  0  0
  4  3  1  0  0  0  0
  4 12  1  0  0  0  0
  5  6  2  0  0  0  0
  5  3  1  0  0  0  0
  8  2  1  0  0  0  0
 11  4  1  0  0  0  0
 13 14  1  0  0  0  0
 14 21  1  1  0  0  0
 14 15  1  0  0  0  0
 14 16  1  0  0  0  0
 15  5  1  0  0  0  0
 16 17  2  0  0  0  0
 18 13  1  0  0  0  0
 19 13  1  0  0  0  0
 20 13  1  0  0  0  0
 22 15  1  0  0  0  0
 23 16  1  0  0  0  0
 23 24  1  0  0  0  0
 24 39  1  1  0  0  0
 24 25  1  0  0  0  0
 25 41  1  0  0  0  0
 25 40  1  0  0  0  0
 26 27  2  0  0  0  0
 26 25  1  0  0  0  0
 27 42  1  0  0  0  0
 28 27  1  0  0  0  0
 29 34  1  0  0  0  0
 29 28  1  0  0  0  0
 30 29  2  0  0  0  0
 31 30  1  0  0  0  0
 31 32  2  0  0  0  0
 32 33  1  0  0  0  0
 33 47  1  0  0  0  0
 33 34  2  0  0  0  0
 34 26  1  0  0  0  0
 35 36  1  0  0  0  0
 35 24  1  0  0  0  0
 37 35  2  0  0  0  0
 38 23  1  0  0  0  0
 43 28  1  0  0  0  0
 44 30  1  0  0  0  0
 45 31  1  0  0  0  0
 46 32  1  0  0  0  0
M  END
$$$$
