SCC.pdb
 OpenBabel07022419083D

 35 34  0  0  1  0  0  0  0  0999 V2000
   -1.5610   -2.0660   -0.4300 O   0  0  0  0  0  0  0  0  0  0  0  0
   -1.7860   -2.8910    0.6460 C   0  0  0  0  0  0  0  0  0  0  0  0
   -0.4930   -3.5810    1.0560 C   0  0  2  0  0  0  0  0  0  0  0  0
   -0.7960   -4.4460    2.2000 N   0  0  0  0  0  0  0  0  0  0  0  0
    0.5370   -2.6000    1.4480 C   0  0  0  0  0  0  0  0  0  0  0  0
    0.9590   -2.6110    2.6310 O   0  0  0  0  0  0  0  0  0  0  0  0
   -2.1130   -1.2460   -0.4340 H   0  0  0  0  0  0  0  0  0  0  0  0
   -2.2170   -2.3120    1.4810 H   0  0  0  0  0  0  0  0  0  0  0  0
   -2.5560   -3.6290    0.3440 H   0  0  0  0  0  0  0  0  0  0  0  0
   -0.1420   -4.2390    0.2390 H   0  0  0  0  0  0  0  0  0  0  0  0
   -1.8140   -4.6640    2.1850 H   0  0  0  0  0  0  0  0  0  0  0  0
   -0.4940   -4.0350    3.0960 H   0  0  0  0  0  0  0  0  0  0  0  0
    1.0860   -1.6330    0.5540 N   0  0  0  0  0  0  0  0  0  0  0  0
    2.1000   -0.6870    0.9890 C   0  0  1  0  0  0  0  0  0  0  0  0
    3.3680   -0.9600    0.2150 C   0  0  0  0  0  0  0  0  0  0  0  0
    3.9710   -2.6410    0.4990 S   0  0  0  0  0  0  0  0  0  0  0  0
    1.6470    0.7050    0.8710 C   0  0  0  0  0  0  0  0  0  0  0  0
    2.4050    1.6520    1.2060 O   0  0  0  0  0  0  0  0  0  0  0  0
    0.7230   -1.6390   -0.4350 H   0  0  0  0  0  0  0  0  0  0  0  0
    2.3040   -0.8900    2.0510 H   0  0  0  0  0  0  0  0  0  0  0  0
    4.1720   -0.2660    0.5430 H   0  0  0  0  0  0  0  0  0  0  0  0
    3.2330   -0.8070   -0.8730 H   0  0  0  0  0  0  0  0  0  0  0  0
    3.3720   -3.5510   -0.3850 H   0  0  0  0  0  0  0  0  0  0  0  0
    0.3550    1.0850    0.3830 N   0  0  0  0  0  0  0  0  0  0  0  0
   -0.0610    2.4720    0.2790 C   0  0  1  0  0  0  0  0  0  0  0  0
   -0.4330    2.8370   -1.1430 C   0  0  0  0  0  0  0  0  0  0  0  0
    0.9830    2.5940   -2.2480 S   0  0  0  0  0  0  0  0  0  0  0  0
   -1.2630    2.7080    1.1160 C   0  0  0  0  0  0  0  0  0  0  0  0
   -1.8120    3.8140    1.1970 O   0  0  0  0  0  0  0  0  0  0  0  0
   -1.7980    1.6530    1.8390 O   0  0  0  0  0  0  0  0  0  0  0  0
   -0.2800    0.3070    0.1030 H   0  0  0  0  0  0  0  0  0  0  0  0
    0.7940    3.0840    0.6370 H   0  0  0  0  0  0  0  0  0  0  0  0
   -1.3200    2.2770   -1.4410 H   0  0  0  0  0  0  0  0  0  0  0  0
   -0.6840    3.9170   -1.1380 H   0  0  0  0  0  0  0  0  0  0  0  0
    0.5970    2.5680   -3.5840 H   0  0  0  0  0  0  0  0  0  0  0  0
  1  2  1  0  0  0  0
  2  3  1  0  0  0  0
  2  8  1  0  0  0  0
  3 10  1  6  0  0  0
  3  5  1  0  0  0  0
  3  4  1  0  0  0  0
  4 12  1  0  0  0  0
  5  6  2  0  0  0  0
  7  1  1  0  0  0  0
  9  2  1  0  0  0  0
 11  4  1  0  0  0  0
 13 14  1  0  0  0  0
 13  5  1  0  0  0  0
 14 20  1  1  0  0  0
 15 16  1  0  0  0  0
 15 21  1  0  0  0  0
 15 14  1  0  0  0  0
 17 14  1  0  0  0  0
 17 18  2  0  0  0  0
 19 13  1  0  0  0  0
 22 15  1  0  0  0  0
 23 16  1  0  0  0  0
 24 17  1  0  0  0  0
 25 24  1  0  0  0  0
 25 32  1  1  0  0  0
 25 28  1  0  0  0  0
 26 34  1  0  0  0  0
 26 25  1  0  0  0  0
 27 26  1  0  0  0  0
 28 29  2  0  0  0  0
 28 30  1  0  0  0  0
 31 24  1  0  0  0  0
 33 26  1  0  0  0  0
 35 27  1  0  0  0  0
M  END
$$$$
