SCE.pdb
 OpenBabel07022419073D

 40 39  0  0  1  0  0  0  0  0999 V2000
    1.5250   -4.9900    2.1280 O   0  0  0  0  0  0  0  0  0  0  0  0
    0.6560   -5.2900    1.0770 C   0  0  0  0  0  0  0  0  0  0  0  0
    0.2900   -3.9820    0.4050 C   0  0  2  0  0  0  0  0  0  0  0  0
    1.5190   -3.3770   -0.0810 N   0  0  0  0  0  0  0  0  0  0  0  0
   -0.3630   -3.0800    1.3950 C   0  0  0  0  0  0  0  0  0  0  0  0
   -1.4380   -3.3740    1.9700 O   0  0  0  0  0  0  0  0  0  0  0  0
    2.4190   -4.8420    1.7850 H   0  0  0  0  0  0  0  0  0  0  0  0
    1.1800   -5.9080    0.3080 H   0  0  0  0  0  0  0  0  0  0  0  0
   -0.2860   -5.7580    1.4320 H   0  0  0  0  0  0  0  0  0  0  0  0
   -0.3900   -4.1550   -0.4510 H   0  0  0  0  0  0  0  0  0  0  0  0
    2.1790   -3.1500    0.6670 H   0  0  0  0  0  0  0  0  0  0  0  0
    1.3670   -2.6130   -0.7620 H   0  0  0  0  0  0  0  0  0  0  0  0
    0.2260   -1.8380    1.7200 N   0  0  0  0  0  0  0  0  0  0  0  0
   -0.3810   -0.9670    2.6610 C   0  0  1  0  0  0  0  0  0  0  0  0
    0.4680   -0.6440    3.8530 C   0  0  0  0  0  0  0  0  0  0  0  0
    2.0190    0.1600    3.4150 S   0  0  0  0  0  0  0  0  0  0  0  0
   -0.8690    0.2490    1.9660 C   0  0  0  0  0  0  0  0  0  0  0  0
   -1.4550    1.1920    2.5920 O   0  0  0  0  0  0  0  0  0  0  0  0
    1.1310   -1.5070    1.2850 H   0  0  0  0  0  0  0  0  0  0  0  0
   -1.3120   -1.4550    3.0620 H   0  0  0  0  0  0  0  0  0  0  0  0
   -0.1080    0.0560    4.4920 H   0  0  0  0  0  0  0  0  0  0  0  0
    0.6040   -1.5650    4.4360 H   0  0  0  0  0  0  0  0  0  0  0  0
    2.9640   -0.8100    3.0920 H   0  0  0  0  0  0  0  0  0  0  0  0
   -0.6850    0.3730    0.5690 N   0  0  0  0  0  0  0  0  0  0  0  0
   -1.1410    1.5230   -0.1390 C   0  0  1  0  0  0  0  0  0  0  0  0
    0.0960    2.1840   -0.7520 C   0  0  0  0  0  0  0  0  0  0  0  0
    1.0790    2.5950    0.3160 C   0  0  0  0  0  0  0  0  0  0  0  0
    2.2380    3.2210   -0.3720 C   0  0  0  0  0  0  0  0  0  0  0  0
    3.0170    2.6080   -1.1150 O   0  0  0  0  0  0  0  0  0  0  0  0
   -2.0320    1.2250   -1.2810 C   0  0  0  0  0  0  0  0  0  0  0  0
   -2.4660    2.2110   -1.9340 O   0  0  0  0  0  0  0  0  0  0  0  0
    2.4650    4.5880   -0.1680 O   0  0  0  0  0  0  0  0  0  0  0  0
   -2.4100   -0.0350   -1.6670 O   0  0  0  0  0  0  0  0  0  0  0  0
   -0.1980   -0.4120    0.0540 H   0  0  0  0  0  0  0  0  0  0  0  0
   -1.6180    2.2350    0.5410 H   0  0  0  0  0  0  0  0  0  0  0  0
   -0.2870    3.0510   -1.3360 H   0  0  0  0  0  0  0  0  0  0  0  0
    0.5630    1.4940   -1.4820 H   0  0  0  0  0  0  0  0  0  0  0  0
    0.6290    3.2740    1.0460 H   0  0  0  0  0  0  0  0  0  0  0  0
    1.4490    1.6630    0.7900 H   0  0  0  0  0  0  0  0  0  0  0  0
    3.3830    4.9920   -0.2920 H   0  0  0  0  0  0  0  0  0  0  0  0
  2  9  1  0  0  0  0
  2  1  1  0  0  0  0
  3 10  1  6  0  0  0
  3  2  1  0  0  0  0
  3  5  1  0  0  0  0
  4  3  1  0  0  0  0
  4 11  1  0  0  0  0
  5 13  1  0  0  0  0
  5  6  2  0  0  0  0
  7  1  1  0  0  0  0
  8  2  1  0  0  0  0
 12  4  1  0  0  0  0
 13 14  1  0  0  0  0
 14 20  1  1  0  0  0
 14 15  1  0  0  0  0
 15 22  1  0  0  0  0
 15 21  1  0  0  0  0
 16 15  1  0  0  0  0
 17 18  2  0  0  0  0
 17 14  1  0  0  0  0
 19 13  1  0  0  0  0
 23 16  1  0  0  0  0
 24 17  1  0  0  0  0
 25 35  1  1  0  0  0
 25 24  1  0  0  0  0
 26 25  1  0  0  0  0
 26 27  1  0  0  0  0
 27 39  1  0  0  0  0
 27 38  1  0  0  0  0
 28 32  1  0  0  0  0
 28 27  1  0  0  0  0
 29 28  2  0  0  0  0
 30 25  1  0  0  0  0
 31 30  2  0  0  0  0
 33 30  1  0  0  0  0
 34 24  1  0  0  0  0
 36 26  1  0  0  0  0
 37 26  1  0  0  0  0
 40 32  1  0  0  0  0
M  END
$$$$
