SCG.pdb
 OpenBabel07022419073D

 31 30  0  0  1  0  0  0  0  0999 V2000
   -2.5940   -4.6570    1.8190 O   0  0  0  0  0  0  0  0  0  0  0  0
   -1.2760   -4.1600    1.7700 C   0  0  0  0  0  0  0  0  0  0  0  0
   -1.4010   -2.6450    1.6780 C   0  0  2  0  0  0  0  0  0  0  0  0
   -2.1380   -2.3260    0.4770 N   0  0  0  0  0  0  0  0  0  0  0  0
   -0.0490   -2.0290    1.6440 C   0  0  0  0  0  0  0  0  0  0  0  0
    0.7670   -2.1690    2.5800 O   0  0  0  0  0  0  0  0  0  0  0  0
   -3.2070   -3.9850    2.2160 H   0  0  0  0  0  0  0  0  0  0  0  0
   -0.7330   -4.5530    0.9030 H   0  0  0  0  0  0  0  0  0  0  0  0
   -0.7600   -4.4210    2.7150 H   0  0  0  0  0  0  0  0  0  0  0  0
   -1.9110   -2.2310    2.5660 H   0  0  0  0  0  0  0  0  0  0  0  0
   -2.3020   -1.3080    0.3670 H   0  0  0  0  0  0  0  0  0  0  0  0
   -1.7520   -2.8010   -0.3550 H   0  0  0  0  0  0  0  0  0  0  0  0
    0.3190   -1.2680    0.5280 N   0  0  0  0  0  0  0  0  0  0  0  0
    1.5910   -0.6130    0.3570 C   0  0  1  0  0  0  0  0  0  0  0  0
    2.1790   -1.1290   -0.9590 C   0  0  0  0  0  0  0  0  0  0  0  0
    2.3960   -2.9160   -0.8940 S   0  0  0  0  0  0  0  0  0  0  0  0
    1.3590    0.8640    0.1790 C   0  0  0  0  0  0  0  0  0  0  0  0
    2.3180    1.6570    0.0100 O   0  0  0  0  0  0  0  0  0  0  0  0
   -0.3710   -1.1450   -0.2700 H   0  0  0  0  0  0  0  0  0  0  0  0
    2.2800   -0.7560    1.1850 H   0  0  0  0  0  0  0  0  0  0  0  0
    1.4740   -0.9010   -1.7850 H   0  0  0  0  0  0  0  0  0  0  0  0
    3.1370   -0.6260   -1.1850 H   0  0  0  0  0  0  0  0  0  0  0  0
    3.6950   -3.2880   -0.4830 H   0  0  0  0  0  0  0  0  0  0  0  0
    0.0570    1.4140    0.1950 N   0  0  0  0  0  0  0  0  0  0  0  0
   -0.1970    2.8370    0.0250 C   0  0  0  0  0  0  0  0  0  0  0  0
    0.5120    3.5510    1.1380 C   0  0  0  0  0  0  0  0  0  0  0  0
    1.1740    2.9410    2.0040 O   0  0  0  0  0  0  0  0  0  0  0  0
    0.4560    4.9430    1.2460 O   0  0  0  0  0  0  0  0  0  0  0  0
   -0.7460    0.7650    0.3350 H   0  0  0  0  0  0  0  0  0  0  0  0
    0.2350    3.2150   -0.9210 H   0  0  0  0  0  0  0  0  0  0  0  0
   -1.2600    3.0440    0.1340 H   0  0  0  0  0  0  0  0  0  0  0  0
  1  7  1  0  0  0  0
  2  1  1  0  0  0  0
  2  9  1  0  0  0  0
  3  2  1  0  0  0  0
  3 10  1  1  0  0  0
  4  3  1  0  0  0  0
  5  3  1  0  0  0  0
  5  6  2  0  0  0  0
  8  2  1  0  0  0  0
 11  4  1  0  0  0  0
 12  4  1  0  0  0  0
 13  5  1  0  0  0  0
 14 13  1  0  0  0  0
 14 20  1  1  0  0  0
 15 16  1  0  0  0  0
 15 14  1  0  0  0  0
 16 23  1  0  0  0  0
 17 24  1  0  0  0  0
 17 14  1  0  0  0  0
 18 17  2  0  0  0  0
 19 13  1  0  0  0  0
 21 15  1  0  0  0  0
 22 15  1  0  0  0  0
 24 29  1  0  0  0  0
 25 31  1  0  0  0  0
 25 24  1  0  0  0  0
 25 26  1  0  0  0  0
 26 28  2  0  0  0  0
 26 27  1  0  0  0  0
 30 25  1  0  0  0  0
M  END
$$$$
