SCH.pdb
 OpenBabel07022419083D

 41 41  0  0  1  0  0  0  0  0999 V2000
   -2.3450   -4.2170   -1.7430 O   0  0  0  0  0  0  0  0  0  0  0  0
   -2.0840   -3.2580   -2.7070 C   0  0  0  0  0  0  0  0  0  0  0  0
   -1.0690   -2.2350   -2.2780 C   0  0  2  0  0  0  0  0  0  0  0  0
    0.1890   -2.8610   -1.9670 N   0  0  0  0  0  0  0  0  0  0  0  0
   -1.5710   -1.4620   -1.1210 C   0  0  0  0  0  0  0  0  0  0  0  0
   -2.6770   -0.8540   -1.2040 O   0  0  0  0  0  0  0  0  0  0  0  0
   -1.6230   -4.8640   -1.6040 H   0  0  0  0  0  0  0  0  0  0  0  0
   -3.0610   -2.7440   -2.9080 H   0  0  0  0  0  0  0  0  0  0  0  0
   -1.7790   -3.7850   -3.6280 H   0  0  0  0  0  0  0  0  0  0  0  0
   -0.8850   -1.5760   -3.1640 H   0  0  0  0  0  0  0  0  0  0  0  0
   -0.0190   -3.6520   -1.3070 H   0  0  0  0  0  0  0  0  0  0  0  0
    0.6180   -3.2910   -2.8150 H   0  0  0  0  0  0  0  0  0  0  0  0
   -0.8450   -1.3790    0.0930 N   0  0  0  0  0  0  0  0  0  0  0  0
   -1.3490   -0.6170    1.2160 C   0  0  1  0  0  0  0  0  0  0  0  0
   -1.5460   -1.4590    2.4500 C   0  0  0  0  0  0  0  0  0  0  0  0
   -2.1810   -0.3430    3.7530 S   0  0  0  0  0  0  0  0  0  0  0  0
   -0.4290    0.5090    1.5580 C   0  0  0  0  0  0  0  0  0  0  0  0
   -0.6860    1.2900    2.5070 O   0  0  0  0  0  0  0  0  0  0  0  0
    0.0710   -1.8970    0.1320 H   0  0  0  0  0  0  0  0  0  0  0  0
   -2.3590   -0.2190    0.9270 H   0  0  0  0  0  0  0  0  0  0  0  0
   -0.6060   -1.9500    2.7670 H   0  0  0  0  0  0  0  0  0  0  0  0
   -2.3200   -2.2310    2.1990 H   0  0  0  0  0  0  0  0  0  0  0  0
   -2.8630    0.7420    3.1570 H   0  0  0  0  0  0  0  0  0  0  0  0
    0.7690    0.7390    0.8270 N   0  0  0  0  0  0  0  0  0  0  0  0
    1.6990    1.8050    1.0980 C   0  0  1  0  0  0  0  0  0  0  0  0
    3.0650    1.3330    1.4600 C   0  0  0  0  0  0  0  0  0  0  0  0
    3.1170    0.4820    2.6670 C   0  0  0  0  0  0  0  0  0  0  0  0
    4.2950   -0.0410    3.1500 C   0  0  0  0  0  0  0  0  0  0  0  0
    4.0120   -0.7610    4.2460 N   0  0  0  0  0  0  0  0  0  0  0  0
    2.6860   -0.6840    4.4340 C   0  0  0  0  0  0  0  0  0  0  0  0
    2.1470    0.0680    3.4780 N   0  0  0  0  0  0  0  0  0  0  0  0
    1.7590    2.7610   -0.0280 C   0  0  0  0  0  0  0  0  0  0  0  0
    2.5120    3.7630    0.0350 O   0  0  0  0  0  0  0  0  0  0  0  0
    1.0040    2.6020   -1.1810 O   0  0  0  0  0  0  0  0  0  0  0  0
    0.9670    0.0810    0.0470 H   0  0  0  0  0  0  0  0  0  0  0  0
    1.2830    2.3820    1.9700 H   0  0  0  0  0  0  0  0  0  0  0  0
    3.5320    0.7780    0.6210 H   0  0  0  0  0  0  0  0  0  0  0  0
    3.6790    2.2440    1.6770 H   0  0  0  0  0  0  0  0  0  0  0  0
    5.3120    0.0830    2.7440 H   0  0  0  0  0  0  0  0  0  0  0  0
    4.7030   -1.2950    4.8550 H   0  0  0  0  0  0  0  0  0  0  0  0
    2.1570   -1.1860    5.2730 H   0  0  0  0  0  0  0  0  0  0  0  0
  1  7  1  0  0  0  0
  2  3  1  0  0  0  0
  2  1  1  0  0  0  0
  3 10  1  6  0  0  0
  3  4  1  0  0  0  0
  3  5  1  0  0  0  0
  4 11  1  0  0  0  0
  5 13  1  0  0  0  0
  6  5  2  0  0  0  0
  8  2  1  0  0  0  0
  9  2  1  0  0  0  0
 12  4  1  0  0  0  0
 13 19  1  0  0  0  0
 13 14  1  0  0  0  0
 14 20  1  6  0  0  0
 14 17  1  0  0  0  0
 14 15  1  0  0  0  0
 15 21  1  0  0  0  0
 15 16  1  0  0  0  0
 17 18  2  0  0  0  0
 22 15  1  0  0  0  0
 23 16  1  0  0  0  0
 24 25  1  0  0  0  0
 24 17  1  0  0  0  0
 25 26  1  0  0  0  0
 25 36  1  1  0  0  0
 26 38  1  0  0  0  0
 26 27  1  0  0  0  0
 27 28  2  0  0  0  0
 27 31  1  0  0  0  0
 28 29  1  0  0  0  0
 29 30  1  0  0  0  0
 29 40  1  0  0  0  0
 30 41  1  0  0  0  0
 31 30  2  0  0  0  0
 32 33  1  0  0  0  0
 32 25  1  0  0  0  0
 34 32  2  0  0  0  0
 35 24  1  0  0  0  0
 37 26  1  0  0  0  0
 39 28  1  0  0  0  0
M  END
$$$$
