SCI.pdb
 OpenBabel07022419083D

 43 42  0  0  1  0  0  0  0  0999 V2000
   -1.3910   -4.5610    2.4940 O   0  0  0  0  0  0  0  0  0  0  0  0
   -1.3410   -5.0670    1.1970 C   0  0  0  0  0  0  0  0  0  0  0  0
    0.0920   -5.1240    0.6890 C   0  0  2  0  0  0  0  0  0  0  0  0
    0.8670   -5.9800    1.5570 N   0  0  0  0  0  0  0  0  0  0  0  0
    0.7070   -3.7920    0.6310 C   0  0  0  0  0  0  0  0  0  0  0  0
    1.7620   -3.5680    1.2960 O   0  0  0  0  0  0  0  0  0  0  0  0
   -1.3130   -3.5800    2.5170 H   0  0  0  0  0  0  0  0  0  0  0  0
   -1.9780   -4.4420    0.5730 H   0  0  0  0  0  0  0  0  0  0  0  0
   -1.7060   -6.1210    1.2240 H   0  0  0  0  0  0  0  0  0  0  0  0
    0.1430   -5.5620   -0.3250 H   0  0  0  0  0  0  0  0  0  0  0  0
    0.2650   -6.5230    2.2150 H   0  0  0  0  0  0  0  0  0  0  0  0
    1.6060   -5.4830    2.0780 H   0  0  0  0  0  0  0  0  0  0  0  0
    0.1490   -2.7400   -0.1570 N   0  0  0  0  0  0  0  0  0  0  0  0
    0.7950   -1.4630   -0.1740 C   0  0  1  0  0  0  0  0  0  0  0  0
    1.3260   -1.1250   -1.5680 C   0  0  0  0  0  0  0  0  0  0  0  0
    2.5270   -2.3590   -2.1110 S   0  0  0  0  0  0  0  0  0  0  0  0
   -0.1120   -0.3800    0.3080 C   0  0  0  0  0  0  0  0  0  0  0  0
   -1.2950   -0.6910    0.6610 O   0  0  0  0  0  0  0  0  0  0  0  0
   -0.7160   -2.9710   -0.6840 H   0  0  0  0  0  0  0  0  0  0  0  0
    1.6910   -1.4970    0.4750 H   0  0  0  0  0  0  0  0  0  0  0  0
    1.7310   -0.0990   -1.5950 H   0  0  0  0  0  0  0  0  0  0  0  0
    0.4210   -1.1210   -2.2280 H   0  0  0  0  0  0  0  0  0  0  0  0
    2.6610   -2.2250   -3.5190 H   0  0  0  0  0  0  0  0  0  0  0  0
    1.5450    4.3690    0.9600 C   0  0  0  0  0  0  0  0  0  0  0  0
    1.4300    3.2220    1.9010 C   0  0  0  0  0  0  0  0  0  0  0  0
    0.0630    2.6620    2.0810 C   0  0  2  0  0  0  0  0  0  0  0  0
    0.1950    1.5050    3.0850 C   0  0  0  0  0  0  0  0  0  0  0  0
   -0.5070    2.0440    0.8280 C   0  0  2  0  0  0  0  0  0  0  0  0
    0.3290    0.9620    0.3710 N   0  0  0  0  0  0  0  0  0  0  0  0
   -0.7950    3.0180   -0.2420 C   0  0  0  0  0  0  0  0  0  0  0  0
   -1.5040    4.0430   -0.0730 O   0  0  0  0  0  0  0  0  0  0  0  0
   -0.2820    2.8520   -1.5430 O   0  0  0  0  0  0  0  0  0  0  0  0
    1.7040    4.0840   -0.1000 H   0  0  0  0  0  0  0  0  0  0  0  0
    0.7380    5.1270    1.0880 H   0  0  0  0  0  0  0  0  0  0  0  0
    2.4880    4.9270    1.2420 H   0  0  0  0  0  0  0  0  0  0  0  0
    1.7630    3.5900    2.9130 H   0  0  0  0  0  0  0  0  0  0  0  0
    2.1890    2.4660    1.6130 H   0  0  0  0  0  0  0  0  0  0  0  0
   -0.5910    3.4050    2.5340 H   0  0  0  0  0  0  0  0  0  0  0  0
   -0.7850    1.2490    3.5180 H   0  0  0  0  0  0  0  0  0  0  0  0
    0.9590    1.7140    3.8460 H   0  0  0  0  0  0  0  0  0  0  0  0
    0.5530    0.6390    2.4910 H   0  0  0  0  0  0  0  0  0  0  0  0
   -1.5050    1.5840    1.0950 H   0  0  0  0  0  0  0  0  0  0  0  0
    1.2990    1.1760    0.0750 H   0  0  0  0  0  0  0  0  0  0  0  0
  1  7  1  0  0  0  0
  2  9  1  0  0  0  0
  2  1  1  0  0  0  0
  3 10  1  6  0  0  0
  3  2  1  0  0  0  0
  3  4  1  0  0  0  0
  4 12  1  0  0  0  0
  4 11  1  0  0  0  0
  5  3  1  0  0  0  0
  5  6  2  0  0  0  0
  8  2  1  0  0  0  0
 13  5  1  0  0  0  0
 14 13  1  0  0  0  0
 14 17  1  0  0  0  0
 14 20  1  1  0  0  0
 15 14  1  0  0  0  0
 16 15  1  0  0  0  0
 17 29  1  0  0  0  0
 17 18  2  0  0  0  0
 19 13  1  0  0  0  0
 21 15  1  0  0  0  0
 22 15  1  0  0  0  0
 23 16  1  0  0  0  0
 24 34  1  0  0  0  0
 24 35  1  0  0  0  0
 24 25  1  0  0  0  0
 25 26  1  0  0  0  0
 25 36  1  0  0  0  0
 26 38  1  1  0  0  0
 26 27  1  0  0  0  0
 27 39  1  0  0  0  0
 27 40  1  0  0  0  0
 28 42  1  1  0  0  0
 28 26  1  0  0  0  0
 29 28  1  0  0  0  0
 30 31  1  0  0  0  0
 30 28  1  0  0  0  0
 32 30  2  0  0  0  0
 33 24  1  0  0  0  0
 37 25  1  0  0  0  0
 41 27  1  0  0  0  0
 43 29  1  0  0  0  0
M  END
$$$$
