SCK.pdb
 OpenBabel07022419083D

 45 44  0  0  1  0  0  0  0  0999 V2000
    0.5740   -6.9080    0.1370 O   0  0  0  0  0  0  0  0  0  0  0  0
    0.6410   -5.5250    0.3170 C   0  0  0  0  0  0  0  0  0  0  0  0
    2.0390   -5.0900   -0.0610 C   0  0  2  0  0  0  0  0  0  0  0  0
    2.9790   -5.7680    0.7970 N   0  0  0  0  0  0  0  0  0  0  0  0
    2.2340   -3.6410    0.0130 C   0  0  0  0  0  0  0  0  0  0  0  0
    3.1300   -3.1820    0.7580 O   0  0  0  0  0  0  0  0  0  0  0  0
    1.3940   -7.3070    0.4860 H   0  0  0  0  0  0  0  0  0  0  0  0
   -0.1240   -5.0770   -0.3430 H   0  0  0  0  0  0  0  0  0  0  0  0
    0.4070   -5.3080    1.3750 H   0  0  0  0  0  0  0  0  0  0  0  0
    2.1770   -5.3900   -1.1320 H   0  0  0  0  0  0  0  0  0  0  0  0
    3.9130   -5.2990    0.8430 H   0  0  0  0  0  0  0  0  0  0  0  0
    2.5850   -5.8620    1.7710 H   0  0  0  0  0  0  0  0  0  0  0  0
    1.4610   -2.6970   -0.7170 N   0  0  0  0  0  0  0  0  0  0  0  0
    1.6620   -1.2670   -0.6380 C   0  0  1  0  0  0  0  0  0  0  0  0
    2.1350   -0.7690   -2.0090 C   0  0  0  0  0  0  0  0  0  0  0  0
    0.8880   -1.1410   -3.2830 S   0  0  0  0  0  0  0  0  0  0  0  0
    0.3970   -0.6040   -0.2640 C   0  0  0  0  0  0  0  0  0  0  0  0
   -0.6520   -1.3080   -0.0670 O   0  0  0  0  0  0  0  0  0  0  0  0
    0.7130   -3.0670   -1.3410 H   0  0  0  0  0  0  0  0  0  0  0  0
    2.4890   -1.0570    0.0640 H   0  0  0  0  0  0  0  0  0  0  0  0
    2.3470    0.3150   -1.9580 H   0  0  0  0  0  0  0  0  0  0  0  0
    3.1010   -1.2690   -2.2180 H   0  0  0  0  0  0  0  0  0  0  0  0
    1.5440   -0.9780   -4.5380 H   0  0  0  0  0  0  0  0  0  0  0  0
    0.2490    0.7870   -0.1010 N   0  0  0  0  0  0  0  0  0  0  0  0
   -1.0110    1.4390    0.2710 C   0  0  1  0  0  0  0  0  0  0  0  0
   -0.7150    2.1450    1.5740 C   0  0  0  0  0  0  0  0  0  0  0  0
   -1.8770    2.8870    2.1470 C   0  0  0  0  0  0  0  0  0  0  0  0
   -1.4660    3.5530    3.4640 C   0  0  0  0  0  0  0  0  0  0  0  0
   -1.0090    2.5300    4.4660 C   0  0  0  0  0  0  0  0  0  0  0  0
   -2.0830    1.6030    4.7320 N   0  0  0  0  0  0  0  0  0  0  0  0
   -1.3900    2.4250   -0.7570 C   0  0  0  0  0  0  0  0  0  0  0  0
   -0.6110    2.5780   -1.7470 O   0  0  0  0  0  0  0  0  0  0  0  0
   -2.5190    3.2010   -0.7430 O   0  0  0  0  0  0  0  0  0  0  0  0
    1.0660    1.4100   -0.2470 H   0  0  0  0  0  0  0  0  0  0  0  0
   -1.8160    0.6790    0.4010 H   0  0  0  0  0  0  0  0  0  0  0  0
    0.1720    2.7720    1.4100 H   0  0  0  0  0  0  0  0  0  0  0  0
   -0.3920    1.3650    2.3210 H   0  0  0  0  0  0  0  0  0  0  0  0
   -2.7880    2.2990    2.2310 H   0  0  0  0  0  0  0  0  0  0  0  0
   -2.1050    3.7550    1.4620 H   0  0  0  0  0  0  0  0  0  0  0  0
   -2.3530    4.0600    3.8950 H   0  0  0  0  0  0  0  0  0  0  0  0
   -0.6960    4.3080    3.2510 H   0  0  0  0  0  0  0  0  0  0  0  0
   -0.0680    2.0350    4.2190 H   0  0  0  0  0  0  0  0  0  0  0  0
   -0.8320    3.0840    5.4230 H   0  0  0  0  0  0  0  0  0  0  0  0
   -2.4570    1.1440    3.8830 H   0  0  0  0  0  0  0  0  0  0  0  0
   -1.8560    0.9610    5.5030 H   0  0  0  0  0  0  0  0  0  0  0  0
  1  2  1  0  0  0  0
  1  7  1  0  0  0  0
  2  9  1  0  0  0  0
  3 10  1  6  0  0  0
  3  5  1  0  0  0  0
  3  2  1  0  0  0  0
  3  4  1  0  0  0  0
  4 11  1  0  0  0  0
  4 12  1  0  0  0  0
  5  6  2  0  0  0  0
  8  2  1  0  0  0  0
 13 14  1  0  0  0  0
 13  5  1  0  0  0  0
 14 17  1  0  0  0  0
 14 20  1  1  0  0  0
 15 21  1  0  0  0  0
 15 14  1  0  0  0  0
 16 15  1  0  0  0  0
 17 24  1  0  0  0  0
 17 18  2  0  0  0  0
 19 13  1  0  0  0  0
 22 15  1  0  0  0  0
 23 16  1  0  0  0  0
 24 25  1  0  0  0  0
 25 35  1  1  0  0  0
 25 26  1  0  0  0  0
 26 27  1  0  0  0  0
 26 37  1  0  0  0  0
 27 38  1  0  0  0  0
 27 28  1  0  0  0  0
 28 40  1  0  0  0  0
 28 29  1  0  0  0  0
 29 30  1  0  0  0  0
 29 43  1  0  0  0  0
 30 45  1  0  0  0  0
 31 33  1  0  0  0  0
 31 25  1  0  0  0  0
 32 31  2  0  0  0  0
 34 24  1  0  0  0  0
 36 26  1  0  0  0  0
 39 27  1  0  0  0  0
 41 28  1  0  0  0  0
 42 29  1  0  0  0  0
 44 30  1  0  0  0  0
M  END
$$$$
