SCL.pdb
 OpenBabel07022419083D

 43 42  0  0  1  0  0  0  0  0999 V2000
   -1.8710   -2.8950    3.4260 O   0  0  0  0  0  0  0  0  0  0  0  0
   -1.9240   -3.9000    2.4770 C   0  0  0  0  0  0  0  0  0  0  0  0
   -0.5210   -4.4370    2.2500 C   0  0  2  0  0  0  0  0  0  0  0  0
    0.0260   -4.9700    3.4730 N   0  0  0  0  0  0  0  0  0  0  0  0
    0.3670   -3.3830    1.7230 C   0  0  0  0  0  0  0  0  0  0  0  0
    1.4360   -3.0850    2.3580 O   0  0  0  0  0  0  0  0  0  0  0  0
   -2.6740   -2.9610    4.0230 H   0  0  0  0  0  0  0  0  0  0  0  0
   -2.5830   -4.7020    2.8190 H   0  0  0  0  0  0  0  0  0  0  0  0
   -2.2590   -3.4810    1.5090 H   0  0  0  0  0  0  0  0  0  0  0  0
   -0.6000   -5.3020    1.5370 H   0  0  0  0  0  0  0  0  0  0  0  0
   -0.6810   -5.5430    3.9830 H   0  0  0  0  0  0  0  0  0  0  0  0
    0.4040   -4.2040    4.0850 H   0  0  0  0  0  0  0  0  0  0  0  0
    0.1070   -2.6620    0.5290 N   0  0  0  0  0  0  0  0  0  0  0  0
    0.9960   -1.6520    0.0600 C   0  0  1  0  0  0  0  0  0  0  0  0
    1.6190   -2.0260   -1.2930 C   0  0  0  0  0  0  0  0  0  0  0  0
    2.5600   -3.5540   -1.1940 S   0  0  0  0  0  0  0  0  0  0  0  0
    0.3110   -0.3470   -0.1730 C   0  0  0  0  0  0  0  0  0  0  0  0
   -0.9220   -0.2630    0.0540 O   0  0  0  0  0  0  0  0  0  0  0  0
   -0.7560   -2.8870   -0.0040 H   0  0  0  0  0  0  0  0  0  0  0  0
    1.8440   -1.5630    0.7570 H   0  0  0  0  0  0  0  0  0  0  0  0
    0.8400   -2.0630   -2.0830 H   0  0  0  0  0  0  0  0  0  0  0  0
    2.2930   -1.1810   -1.5460 H   0  0  0  0  0  0  0  0  0  0  0  0
    2.4640   -4.1960   -2.4550 H   0  0  0  0  0  0  0  0  0  0  0  0
   -0.4310    2.8980    1.9260 C   0  0  0  0  0  0  0  0  0  0  0  0
    1.0030    2.9050    1.4370 C   0  0  0  0  0  0  0  0  0  0  0  0
    1.7550    1.7490    1.9880 C   0  0  0  0  0  0  0  0  0  0  0  0
    1.0580    3.1150   -0.0270 C   0  0  0  0  0  0  0  0  0  0  0  0
    0.3610    2.0960   -0.8790 C   0  0  2  0  0  0  0  0  0  0  0  0
    0.9690    0.8070   -0.6360 N   0  0  0  0  0  0  0  0  0  0  0  0
    0.4800    2.4880   -2.3080 C   0  0  0  0  0  0  0  0  0  0  0  0
    1.0430    1.7610   -3.1550 O   0  0  0  0  0  0  0  0  0  0  0  0
   -0.0440    3.6930   -2.7300 O   0  0  0  0  0  0  0  0  0  0  0  0
   -0.8770    3.8610    1.5980 H   0  0  0  0  0  0  0  0  0  0  0  0
   -0.9870    2.0980    1.4380 H   0  0  0  0  0  0  0  0  0  0  0  0
   -0.4110    2.8580    3.0210 H   0  0  0  0  0  0  0  0  0  0  0  0
    1.4550    3.8440    1.8930 H   0  0  0  0  0  0  0  0  0  0  0  0
    2.6050    1.4240    1.3650 H   0  0  0  0  0  0  0  0  0  0  0  0
    1.0700    0.9250    2.2880 H   0  0  0  0  0  0  0  0  0  0  0  0
    2.2470    2.0830    2.9530 H   0  0  0  0  0  0  0  0  0  0  0  0
    0.6480    4.1420   -0.2240 H   0  0  0  0  0  0  0  0  0  0  0  0
    2.1450    3.2230   -0.3170 H   0  0  0  0  0  0  0  0  0  0  0  0
   -0.7260    2.0840   -0.5820 H   0  0  0  0  0  0  0  0  0  0  0  0
    1.9930    0.7250   -0.8260 H   0  0  0  0  0  0  0  0  0  0  0  0
  1  7  1  0  0  0  0
  2  8  1  0  0  0  0
  2  1  1  0  0  0  0
  3 10  1  6  0  0  0
  3  2  1  0  0  0  0
  3  4  1  0  0  0  0
  4 11  1  0  0  0  0
  4 12  1  0  0  0  0
  5  3  1  0  0  0  0
  5  6  2  0  0  0  0
  9  2  1  0  0  0  0
 13  5  1  0  0  0  0
 14 13  1  0  0  0  0
 14 20  1  1  0  0  0
 15 16  1  0  0  0  0
 15 14  1  0  0  0  0
 17 18  2  0  0  0  0
 17 14  1  0  0  0  0
 19 13  1  0  0  0  0
 21 15  1  0  0  0  0
 22 15  1  0  0  0  0
 23 16  1  0  0  0  0
 24 35  1  0  0  0  0
 25 36  1  0  0  0  0
 25 24  1  0  0  0  0
 25 26  1  0  0  0  0
 26 38  1  0  0  0  0
 26 39  1  0  0  0  0
 27 25  1  0  0  0  0
 28 29  1  0  0  0  0
 28 42  1  1  0  0  0
 28 27  1  0  0  0  0
 29 17  1  0  0  0  0
 30 28  1  0  0  0  0
 31 30  2  0  0  0  0
 32 30  1  0  0  0  0
 33 24  1  0  0  0  0
 34 24  1  0  0  0  0
 37 26  1  0  0  0  0
 40 27  1  0  0  0  0
 41 27  1  0  0  0  0
 43 29  1  0  0  0  0
M  END
$$$$
