SCQ.pdb
 OpenBabel07022419083D

 41 40  0  0  1  0  0  0  0  0999 V2000
   -0.3570   -4.2920   -2.7620 O   0  0  0  0  0  0  0  0  0  0  0  0
    0.0540   -5.1630   -1.7560 C   0  0  0  0  0  0  0  0  0  0  0  0
    0.1080   -4.3650   -0.4560 C   0  0  2  0  0  0  0  0  0  0  0  0
   -1.2090   -3.8210   -0.1520 N   0  0  0  0  0  0  0  0  0  0  0  0
    1.1550   -3.3270   -0.4950 C   0  0  0  0  0  0  0  0  0  0  0  0
    2.3400   -3.6940   -0.7030 O   0  0  0  0  0  0  0  0  0  0  0  0
   -1.3480   -4.2590   -2.8490 H   0  0  0  0  0  0  0  0  0  0  0  0
   -0.6560   -5.9880   -1.6730 H   0  0  0  0  0  0  0  0  0  0  0  0
    1.0780   -5.5560   -1.9600 H   0  0  0  0  0  0  0  0  0  0  0  0
    0.3260   -5.1020    0.3720 H   0  0  0  0  0  0  0  0  0  0  0  0
   -1.1160   -3.1830    0.6890 H   0  0  0  0  0  0  0  0  0  0  0  0
   -1.9080   -4.5730    0.0140 H   0  0  0  0  0  0  0  0  0  0  0  0
    0.9130   -1.9280   -0.3080 N   0  0  0  0  0  0  0  0  0  0  0  0
    1.9940   -0.9570   -0.3530 C   0  0  1  0  0  0  0  0  0  0  0  0
    1.7820   -0.1800   -1.6540 C   0  0  0  0  0  0  0  0  0  0  0  0
    0.1690    0.6320   -1.6480 S   0  0  0  0  0  0  0  0  0  0  0  0
    2.0420   -0.0880    0.8220 C   0  0  0  0  0  0  0  0  0  0  0  0
    2.9580    0.7660    0.9320 O   0  0  0  0  0  0  0  0  0  0  0  0
   -0.0760   -1.6490   -0.1400 H   0  0  0  0  0  0  0  0  0  0  0  0
    2.9790   -1.4490   -0.4810 H   0  0  0  0  0  0  0  0  0  0  0  0
    2.6180    0.5260   -1.8270 H   0  0  0  0  0  0  0  0  0  0  0  0
    1.7930   -0.8980   -2.4970 H   0  0  0  0  0  0  0  0  0  0  0  0
   -0.1310    1.0170   -2.9870 H   0  0  0  0  0  0  0  0  0  0  0  0
   -1.1870    4.6450    1.0700 N   0  0  0  0  0  0  0  0  0  0  0  0
   -1.0880    3.6050    2.0510 C   0  0  0  0  0  0  0  0  0  0  0  0
   -1.9600    3.5650    2.9490 O   0  0  0  0  0  0  0  0  0  0  0  0
    0.0430    2.6560    1.9200 C   0  0  0  0  0  0  0  0  0  0  0  0
   -0.0170    1.6960    3.0860 C   0  0  0  0  0  0  0  0  0  0  0  0
    1.0990    0.6800    3.0410 C   0  0  2  0  0  0  0  0  0  0  0  0
    1.0980   -0.1390    1.8820 N   0  0  0  0  0  0  0  0  0  0  0  0
    1.1670   -0.0030    4.3310 C   0  0  0  0  0  0  0  0  0  0  0  0
    1.1760    0.6930    5.3830 O   0  0  0  0  0  0  0  0  0  0  0  0
    1.2260   -1.3780    4.5330 O   0  0  0  0  0  0  0  0  0  0  0  0
   -2.0600    4.7910    0.5410 H   0  0  0  0  0  0  0  0  0  0  0  0
   -0.3440    5.2450    0.9140 H   0  0  0  0  0  0  0  0  0  0  0  0
    0.0720    2.1450    0.9440 H   0  0  0  0  0  0  0  0  0  0  0  0
    0.9790    3.2560    1.9820 H   0  0  0  0  0  0  0  0  0  0  0  0
   -1.0260    1.2470    3.2000 H   0  0  0  0  0  0  0  0  0  0  0  0
    0.1550    2.3030    4.0020 H   0  0  0  0  0  0  0  0  0  0  0  0
    2.0370    1.3170    2.9650 H   0  0  0  0  0  0  0  0  0  0  0  0
    0.3300   -0.8530    1.7870 H   0  0  0  0  0  0  0  0  0  0  0  0
  1  2  1  0  0  0  0
  2  8  1  0  0  0  0
  2  3  1  0  0  0  0
  3  4  1  0  0  0  0
  3 10  1  1  0  0  0
  4 12  1  0  0  0  0
  4 11  1  0  0  0  0
  5  3  1  0  0  0  0
  5 13  1  0  0  0  0
  6  5  2  0  0  0  0
  7  1  1  0  0  0  0
  9  2  1  0  0  0  0
 13 19  1  0  0  0  0
 14 20  1  6  0  0  0
 14 13  1  0  0  0  0
 14 17  1  0  0  0  0
 15 16  1  0  0  0  0
 15 14  1  0  0  0  0
 17 18  2  0  0  0  0
 17 30  1  0  0  0  0
 21 15  1  0  0  0  0
 22 15  1  0  0  0  0
 23 16  1  0  0  0  0
 24 25  1  0  0  0  0
 25 26  2  0  0  0  0
 27 37  1  0  0  0  0
 27 25  1  0  0  0  0
 27 28  1  0  0  0  0
 28 38  1  0  0  0  0
 28 39  1  0  0  0  0
 29 40  1  6  0  0  0
 29 28  1  0  0  0  0
 29 31  1  0  0  0  0
 30 29  1  0  0  0  0
 31 33  2  0  0  0  0
 31 32  1  0  0  0  0
 34 24  1  0  0  0  0
 35 24  1  0  0  0  0
 36 27  1  0  0  0  0
 41 30  1  0  0  0  0
M  END
$$$$
