SCT.pdb
 OpenBabel07022419083D

 38 37  0  0  1  0  0  0  0  0999 V2000
   -0.0020   -5.4460    3.4120 O   0  0  0  0  0  0  0  0  0  0  0  0
    0.6980   -4.2460    3.5080 C   0  0  0  0  0  0  0  0  0  0  0  0
   -0.0230   -3.1830    2.7280 C   0  0  2  0  0  0  0  0  0  0  0  0
   -0.1170   -3.5720    1.3340 N   0  0  0  0  0  0  0  0  0  0  0  0
    0.6920   -1.8840    2.8550 C   0  0  0  0  0  0  0  0  0  0  0  0
    0.8610   -1.4010    4.0020 O   0  0  0  0  0  0  0  0  0  0  0  0
   -0.9460   -5.2910    3.1470 H   0  0  0  0  0  0  0  0  0  0  0  0
    1.7510   -4.3340    3.1660 H   0  0  0  0  0  0  0  0  0  0  0  0
    0.7430   -3.9660    4.5810 H   0  0  0  0  0  0  0  0  0  0  0  0
   -1.0600   -3.1100    3.1290 H   0  0  0  0  0  0  0  0  0  0  0  0
   -0.4270   -4.5680    1.3090 H   0  0  0  0  0  0  0  0  0  0  0  0
   -0.7670   -2.9290    0.8330 H   0  0  0  0  0  0  0  0  0  0  0  0
    1.1860   -1.1760    1.7490 N   0  0  0  0  0  0  0  0  0  0  0  0
    1.8920    0.1030    1.8520 C   0  0  1  0  0  0  0  0  0  0  0  0
    3.2900   -0.1310    1.3630 C   0  0  0  0  0  0  0  0  0  0  0  0
    4.0880   -1.3930    2.3950 S   0  0  0  0  0  0  0  0  0  0  0  0
    1.1220    1.0650    1.0670 C   0  0  0  0  0  0  0  0  0  0  0  0
    1.5390    2.2590    1.0020 O   0  0  0  0  0  0  0  0  0  0  0  0
    1.0310   -1.6040    0.7910 H   0  0  0  0  0  0  0  0  0  0  0  0
    1.9270    0.3360    2.9330 H   0  0  0  0  0  0  0  0  0  0  0  0
    3.3640   -0.4580    0.3310 H   0  0  0  0  0  0  0  0  0  0  0  0
    3.8710    0.8110    1.4970 H   0  0  0  0  0  0  0  0  0  0  0  0
    4.2350   -2.5950    1.6710 H   0  0  0  0  0  0  0  0  0  0  0  0
   -1.4710    2.2160   -2.7830 C   0  0  0  0  0  0  0  0  0  0  0  0
   -0.7380    1.2750   -1.8680 C   0  0  1  0  0  0  0  0  0  0  0  0
    0.6060    1.2550   -2.2040 O   0  0  0  0  0  0  0  0  0  0  0  0
   -0.8100    1.7390   -0.4080 C   0  0  2  0  0  0  0  0  0  0  0  0
   -0.0700    0.7810    0.3560 N   0  0  0  0  0  0  0  0  0  0  0  0
   -2.2150    1.8500   -0.0520 C   0  0  0  0  0  0  0  0  0  0  0  0
   -2.6920    1.1410    0.8610 O   0  0  0  0  0  0  0  0  0  0  0  0
   -3.0560    2.7300   -0.7000 O   0  0  0  0  0  0  0  0  0  0  0  0
   -2.5360    1.9430   -2.9100 H   0  0  0  0  0  0  0  0  0  0  0  0
   -0.9660    2.2170   -3.7550 H   0  0  0  0  0  0  0  0  0  0  0  0
   -1.4190    3.2320   -2.3090 H   0  0  0  0  0  0  0  0  0  0  0  0
   -1.1700    0.2640   -1.9590 H   0  0  0  0  0  0  0  0  0  0  0  0
    0.8400    1.8850   -2.9050 H   0  0  0  0  0  0  0  0  0  0  0  0
   -0.2950    2.7180   -0.3460 H   0  0  0  0  0  0  0  0  0  0  0  0
   -0.4150   -0.1970    0.4070 H   0  0  0  0  0  0  0  0  0  0  0  0
  1  2  1  0  0  0  0
  2  9  1  0  0  0  0
  3  5  1  0  0  0  0
  3 10  1  1  0  0  0
  3  2  1  0  0  0  0
  4  3  1  0  0  0  0
  5  6  2  0  0  0  0
  7  1  1  0  0  0  0
  8  2  1  0  0  0  0
 11  4  1  0  0  0  0
 12  4  1  0  0  0  0
 13 14  1  0  0  0  0
 13  5  1  0  0  0  0
 14 20  1  1  0  0  0
 15 22  1  0  0  0  0
 15 14  1  0  0  0  0
 15 16  1  0  0  0  0
 17 14  1  0  0  0  0
 18 17  2  0  0  0  0
 19 13  1  0  0  0  0
 21 15  1  0  0  0  0
 23 16  1  0  0  0  0
 24 34  1  0  0  0  0
 24 25  1  0  0  0  0
 25 35  1  6  0  0  0
 25 27  1  0  0  0  0
 26 25  1  0  0  0  0
 27 37  1  1  0  0  0
 27 29  1  0  0  0  0
 27 28  1  0  0  0  0
 28 38  1  0  0  0  0
 28 17  1  0  0  0  0
 29 30  1  0  0  0  0
 31 29  2  0  0  0  0
 32 24  1  0  0  0  0
 33 24  1  0  0  0  0
 36 26  1  0  0  0  0
M  END
$$$$
