SCW.pdb
 OpenBabel07022419083D

 48 49  0  0  1  0  0  0  0  0999 V2000
    3.4010   -1.2030    5.1330 O   0  0  0  0  0  0  0  0  0  0  0  0
    2.3090   -1.9150    4.6430 C   0  0  0  0  0  0  0  0  0  0  0  0
    1.5170   -0.9300    3.7650 C   0  0  2  0  0  0  0  0  0  0  0  0
    0.3590   -1.6290    3.2420 N   0  0  0  0  0  0  0  0  0  0  0  0
    2.4260   -0.5340    2.6820 C   0  0  0  0  0  0  0  0  0  0  0  0
    3.4390    0.1660    2.8610 O   0  0  0  0  0  0  0  0  0  0  0  0
    3.4960   -1.3960    6.0970 H   0  0  0  0  0  0  0  0  0  0  0  0
    2.6800   -2.7590    4.0060 H   0  0  0  0  0  0  0  0  0  0  0  0
    1.7250   -2.3050    5.4750 H   0  0  0  0  0  0  0  0  0  0  0  0
    1.2630   -0.0610    4.3650 H   0  0  0  0  0  0  0  0  0  0  0  0
   -0.4490   -1.5240    3.8860 H   0  0  0  0  0  0  0  0  0  0  0  0
    0.6000   -2.6410    3.1940 H   0  0  0  0  0  0  0  0  0  0  0  0
    2.1490   -0.9680    1.3510 N   0  0  0  0  0  0  0  0  0  0  0  0
    2.9940   -0.6090    0.2570 C   0  0  1  0  0  0  0  0  0  0  0  0
    3.8400   -1.7240   -0.2960 C   0  0  0  0  0  0  0  0  0  0  0  0
    4.8180   -0.9860   -1.6670 S   0  0  0  0  0  0  0  0  0  0  0  0
    2.2020    0.0730   -0.8020 C   0  0  0  0  0  0  0  0  0  0  0  0
    2.7480    0.4000   -1.9000 O   0  0  0  0  0  0  0  0  0  0  0  0
    1.3120   -1.5530    1.2040 H   0  0  0  0  0  0  0  0  0  0  0  0
    3.7370    0.1510    0.6410 H   0  0  0  0  0  0  0  0  0  0  0  0
    3.2640   -2.5610   -0.7080 H   0  0  0  0  0  0  0  0  0  0  0  0
    4.5980   -2.0230    0.4610 H   0  0  0  0  0  0  0  0  0  0  0  0
    5.2950    0.2600   -1.1500 H   0  0  0  0  0  0  0  0  0  0  0  0
    0.8290    0.3710   -0.6040 N   0  0  0  0  0  0  0  0  0  0  0  0
   -0.0290    1.0280   -1.5540 C   0  0  1  0  0  0  0  0  0  0  0  0
   -1.3000    0.3110   -1.8630 C   0  0  0  0  0  0  0  0  0  0  0  0
   -2.1810    0.0770   -0.6910 C   0  0  0  0  0  0  0  0  0  0  0  0
   -2.2880    0.7550    0.4810 C   0  0  0  0  0  0  0  0  0  0  0  0
   -3.2090    0.1610    1.2400 N   0  0  0  0  0  0  0  0  0  0  0  0
   -3.7190   -0.9000    0.5920 C   0  0  0  0  0  0  0  0  0  0  0  0
   -4.7040   -1.8160    0.9770 C   0  0  0  0  0  0  0  0  0  0  0  0
   -5.0780   -2.8400    0.1310 C   0  0  0  0  0  0  0  0  0  0  0  0
   -4.4450   -2.9240   -1.1020 C   0  0  0  0  0  0  0  0  0  0  0  0
   -3.4730   -2.0090   -1.4640 C   0  0  0  0  0  0  0  0  0  0  0  0
   -3.0980   -0.9800   -0.6160 C   0  0  0  0  0  0  0  0  0  0  0  0
   -0.2440    2.4690   -1.1840 C   0  0  0  0  0  0  0  0  0  0  0  0
   -0.9900    3.1490   -1.9160 O   0  0  0  0  0  0  0  0  0  0  0  0
    0.3390    3.0670   -0.0890 O   0  0  0  0  0  0  0  0  0  0  0  0
    0.4230    0.0880    0.3140 H   0  0  0  0  0  0  0  0  0  0  0  0
    0.5850    1.0630   -2.5110 H   0  0  0  0  0  0  0  0  0  0  0  0
   -1.8200    0.7840   -2.7100 H   0  0  0  0  0  0  0  0  0  0  0  0
   -0.9910   -0.7170   -2.2220 H   0  0  0  0  0  0  0  0  0  0  0  0
   -1.7530    1.6220    0.8010 H   0  0  0  0  0  0  0  0  0  0  0  0
   -3.5330    0.4350    2.2120 H   0  0  0  0  0  0  0  0  0  0  0  0
   -5.1850   -1.7320    1.9470 H   0  0  0  0  0  0  0  0  0  0  0  0
   -5.8560   -3.5490    0.4480 H   0  0  0  0  0  0  0  0  0  0  0  0
   -4.7390   -3.7330   -1.7740 H   0  0  0  0  0  0  0  0  0  0  0  0
   -2.9890   -2.0840   -2.4290 H   0  0  0  0  0  0  0  0  0  0  0  0
  1  7  1  0  0  0  0
  2  1  1  0  0  0  0
  2  9  1  0  0  0  0
  3 10  1  1  0  0  0
  3  2  1  0  0  0  0
  4  3  1  0  0  0  0
  4 11  1  0  0  0  0
  5  6  2  0  0  0  0
  5  3  1  0  0  0  0
  8  2  1  0  0  0  0
 12  4  1  0  0  0  0
 13  5  1  0  0  0  0
 14 20  1  1  0  0  0
 14 13  1  0  0  0  0
 15 14  1  0  0  0  0
 15 22  1  0  0  0  0
 16 23  1  0  0  0  0
 16 15  1  0  0  0  0
 17 24  1  0  0  0  0
 17 14  1  0  0  0  0
 18 17  2  0  0  0  0
 19 13  1  0  0  0  0
 21 15  1  0  0  0  0
 24 39  1  0  0  0  0
 25 40  1  6  0  0  0
 25 36  1  0  0  0  0
 25 24  1  0  0  0  0
 26 25  1  0  0  0  0
 26 27  1  0  0  0  0
 27 35  1  0  0  0  0
 27 28  2  0  0  0  0
 28 43  1  0  0  0  0
 28 29  1  0  0  0  0
 29 44  1  0  0  0  0
 30 31  1  0  0  0  0
 30 29  1  0  0  0  0
 31 45  1  0  0  0  0
 32 46  1  0  0  0  0
 32 31  2  0  0  0  0
 33 32  1  0  0  0  0
 34 33  2  0  0  0  0
 34 35  1  0  0  0  0
 35 30  2  0  0  0  0
 36 38  1  0  0  0  0
 37 36  2  0  0  0  0
 41 26  1  0  0  0  0
 42 26  1  0  0  0  0
 47 33  1  0  0  0  0
 48 34  1  0  0  0  0
M  END
$$$$
