SDA.pdb
 OpenBabel07022419073D

 36 35  0  0  1  0  0  0  0  0999 V2000
    2.0710   -4.1960    3.1560 O   0  0  0  0  0  0  0  0  0  0  0  0
    2.0060   -4.4640    1.7790 C   0  0  0  0  0  0  0  0  0  0  0  0
    0.9080   -3.5930    1.2240 C   0  0  2  0  0  0  0  0  0  0  0  0
    0.7420   -3.7710   -0.1970 N   0  0  0  0  0  0  0  0  0  0  0  0
    1.1200   -2.1720    1.5880 C   0  0  0  0  0  0  0  0  0  0  0  0
    1.2640   -1.8600    2.8110 O   0  0  0  0  0  0  0  0  0  0  0  0
    1.1670   -4.2290    3.5250 H   0  0  0  0  0  0  0  0  0  0  0  0
    1.6160   -5.5230    1.7190 H   0  0  0  0  0  0  0  0  0  0  0  0
    2.9680   -4.3430    1.2880 H   0  0  0  0  0  0  0  0  0  0  0  0
   -0.0310   -3.9190    1.7630 H   0  0  0  0  0  0  0  0  0  0  0  0
    0.5010   -4.8030   -0.3130 H   0  0  0  0  0  0  0  0  0  0  0  0
   -0.0540   -3.1760   -0.4970 H   0  0  0  0  0  0  0  0  0  0  0  0
    1.1780   -1.0960    0.6520 N   0  0  0  0  0  0  0  0  0  0  0  0
    1.3930    0.2860    1.1290 C   0  0  1  0  0  0  0  0  0  0  0  0
    2.5500    0.8210    0.3340 C   0  0  0  0  0  0  0  0  0  0  0  0
    2.9570    2.1880    0.6560 C   0  0  0  0  0  0  0  0  0  0  0  0
    3.8390    2.7020   -0.1100 O   0  0  0  0  0  0  0  0  0  0  0  0
    0.1850    1.1120    0.7840 C   0  0  0  0  0  0  0  0  0  0  0  0
    0.0740    2.3170    1.0880 O   0  0  0  0  0  0  0  0  0  0  0  0
    2.5030    2.9740    1.6800 O   0  0  0  0  0  0  0  0  0  0  0  0
    1.0630   -1.3370   -0.3510 H   0  0  0  0  0  0  0  0  0  0  0  0
    1.5500    0.2670    2.2040 H   0  0  0  0  0  0  0  0  0  0  0  0
    2.1800    0.8530   -0.7370 H   0  0  0  0  0  0  0  0  0  0  0  0
    3.4410    0.1470    0.3930 H   0  0  0  0  0  0  0  0  0  0  0  0
    2.4290    3.9940    1.5860 H   0  0  0  0  0  0  0  0  0  0  0  0
   -2.3080    1.3890   -1.7700 C   0  0  0  0  0  0  0  0  0  0  0  0
   -2.0930    1.2310   -0.2800 C   0  0  2  0  0  0  0  0  0  0  0  0
   -0.9100    0.5060    0.0700 N   0  0  0  0  0  0  0  0  0  0  0  0
   -3.2750    0.5630    0.2980 C   0  0  0  0  0  0  0  0  0  0  0  0
   -4.4520    0.9840    0.1600 O   0  0  0  0  0  0  0  0  0  0  0  0
   -3.0930   -0.5960    1.0410 O   0  0  0  0  0  0  0  0  0  0  0  0
   -1.9710    0.5010   -2.3050 H   0  0  0  0  0  0  0  0  0  0  0  0
   -3.4190    1.5110   -1.9100 H   0  0  0  0  0  0  0  0  0  0  0  0
   -1.8870    2.3490   -2.1600 H   0  0  0  0  0  0  0  0  0  0  0  0
   -2.0160    2.2440    0.1840 H   0  0  0  0  0  0  0  0  0  0  0  0
   -0.7770   -0.4990   -0.1700 H   0  0  0  0  0  0  0  0  0  0  0  0
  1  7  1  0  0  0  0
  2  1  1  0  0  0  0
  3  5  1  0  0  0  0
  3 10  1  1  0  0  0
  3  2  1  0  0  0  0
  4  3  1  0  0  0  0
  5  6  2  0  0  0  0
  8  2  1  0  0  0  0
  9  2  1  0  0  0  0
 11  4  1  0  0  0  0
 12  4  1  0  0  0  0
 13 14  1  0  0  0  0
 13  5  1  0  0  0  0
 14 22  1  1  0  0  0
 15 24  1  0  0  0  0
 15 16  1  0  0  0  0
 15 14  1  0  0  0  0
 16 20  1  0  0  0  0
 17 16  2  0  0  0  0
 18 19  2  0  0  0  0
 18 14  1  0  0  0  0
 21 13  1  0  0  0  0
 23 15  1  0  0  0  0
 25 20  1  0  0  0  0
 26 27  1  0  0  0  0
 27 28  1  0  0  0  0
 27 35  1  1  0  0  0
 27 29  1  0  0  0  0
 28 18  1  0  0  0  0
 29 31  1  0  0  0  0
 30 29  2  0  0  0  0
 32 26  1  0  0  0  0
 33 26  1  0  0  0  0
 34 26  1  0  0  0  0
 36 28  1  0  0  0  0
M  END
$$$$
