SDD.pdb
 OpenBabel07022419073D

 39 38  0  0  1  0  0  0  0  0999 V2000
    1.1150   -2.7530    2.7910 O   0  0  0  0  0  0  0  0  0  0  0  0
   -0.0090   -3.3360    2.2200 C   0  0  0  0  0  0  0  0  0  0  0  0
    0.3960   -3.8690    0.8590 C   0  0  2  0  0  0  0  0  0  0  0  0
    1.4500   -4.8570    0.9770 N   0  0  0  0  0  0  0  0  0  0  0  0
    0.8630   -2.7970   -0.0580 C   0  0  0  0  0  0  0  0  0  0  0  0
    2.0070   -2.8640   -0.6260 O   0  0  0  0  0  0  0  0  0  0  0  0
    1.3360   -1.9410    2.2360 H   0  0  0  0  0  0  0  0  0  0  0  0
   -0.8400   -2.6120    2.0770 H   0  0  0  0  0  0  0  0  0  0  0  0
   -0.3100   -4.1950    2.8350 H   0  0  0  0  0  0  0  0  0  0  0  0
   -0.4780   -4.4220    0.4230 H   0  0  0  0  0  0  0  0  0  0  0  0
    2.1140   -4.4810    1.7070 H   0  0  0  0  0  0  0  0  0  0  0  0
    1.9960   -4.8610    0.0650 H   0  0  0  0  0  0  0  0  0  0  0  0
    0.0800   -1.6510   -0.3550 N   0  0  0  0  0  0  0  0  0  0  0  0
    0.4800   -0.5780   -1.2370 C   0  0  1  0  0  0  0  0  0  0  0  0
   -0.4540   -0.4210   -2.4190 C   0  0  0  0  0  0  0  0  0  0  0  0
    0.0490    0.7020   -3.2540 C   0  0  0  0  0  0  0  0  0  0  0  0
   -0.7460    1.5460   -3.7380 O   0  0  0  0  0  0  0  0  0  0  0  0
    0.5080    0.7350   -0.5150 C   0  0  0  0  0  0  0  0  0  0  0  0
    0.7990    1.8040   -1.1050 O   0  0  0  0  0  0  0  0  0  0  0  0
    1.4000    0.8650   -3.5320 O   0  0  0  0  0  0  0  0  0  0  0  0
   -0.8520   -1.5920    0.1070 H   0  0  0  0  0  0  0  0  0  0  0  0
    1.4960   -0.7870   -1.6880 H   0  0  0  0  0  0  0  0  0  0  0  0
   -0.4410   -1.3380   -3.0600 H   0  0  0  0  0  0  0  0  0  0  0  0
   -1.4930   -0.2650   -2.0970 H   0  0  0  0  0  0  0  0  0  0  0  0
    1.7230    1.6670   -4.0800 H   0  0  0  0  0  0  0  0  0  0  0  0
    0.2070    0.8350    0.8730 N   0  0  0  0  0  0  0  0  0  0  0  0
    0.2130    2.0680    1.6300 C   0  0  1  0  0  0  0  0  0  0  0  0
   -1.1130    2.3370    2.2960 C   0  0  0  0  0  0  0  0  0  0  0  0
   -1.5100    1.2880    3.2370 C   0  0  0  0  0  0  0  0  0  0  0  0
   -1.9520    0.1840    2.8290 O   0  0  0  0  0  0  0  0  0  0  0  0
    1.3210    2.0080    2.5970 C   0  0  0  0  0  0  0  0  0  0  0  0
    1.5180    2.9670    3.3690 O   0  0  0  0  0  0  0  0  0  0  0  0
   -1.4150    1.4670    4.6080 O   0  0  0  0  0  0  0  0  0  0  0  0
    2.1360    0.9060    2.6550 O   0  0  0  0  0  0  0  0  0  0  0  0
   -0.0390   -0.0310    1.3990 H   0  0  0  0  0  0  0  0  0  0  0  0
    0.4290    2.9520    0.9700 H   0  0  0  0  0  0  0  0  0  0  0  0
   -1.0430    3.3410    2.7650 H   0  0  0  0  0  0  0  0  0  0  0  0
   -1.9160    2.4150    1.5300 H   0  0  0  0  0  0  0  0  0  0  0  0
   -1.8470    0.8290    5.2890 H   0  0  0  0  0  0  0  0  0  0  0  0
  2  1  1  0  0  0  0
  2  9  1  0  0  0  0
  3 10  1  6  0  0  0
  3  4  1  0  0  0  0
  3  2  1  0  0  0  0
  4 11  1  0  0  0  0
  5  3  1  0  0  0  0
  6  5  2  0  0  0  0
  7  1  1  0  0  0  0
  8  2  1  0  0  0  0
 12  4  1  0  0  0  0
 13  5  1  0  0  0  0
 13 21  1  0  0  0  0
 14 22  1  6  0  0  0
 14 18  1  0  0  0  0
 14 13  1  0  0  0  0
 15 24  1  0  0  0  0
 15 14  1  0  0  0  0
 16 15  1  0  0  0  0
 17 16  2  0  0  0  0
 18 26  1  0  0  0  0
 19 18  2  0  0  0  0
 20 16  1  0  0  0  0
 23 15  1  0  0  0  0
 25 20  1  0  0  0  0
 26 35  1  0  0  0  0
 26 27  1  0  0  0  0
 27 36  1  6  0  0  0
 27 28  1  0  0  0  0
 27 31  1  0  0  0  0
 28 37  1  0  0  0  0
 28 29  1  0  0  0  0
 29 33  1  0  0  0  0
 30 29  2  0  0  0  0
 31 34  2  0  0  0  0
 31 32  1  0  0  0  0
 33 39  1  0  0  0  0
 38 28  1  0  0  0  0
M  END
$$$$
