SDF.pdb
 OpenBabel07022419073D

 46 46  0  0  1  0  0  0  0  0999 V2000
    2.1800   -3.2510    3.0140 O   0  0  0  0  0  0  0  0  0  0  0  0
    2.1140   -3.5440    1.6450 C   0  0  0  0  0  0  0  0  0  0  0  0
    3.2130   -2.7880    0.9200 C   0  0  2  0  0  0  0  0  0  0  0  0
    4.4620   -3.2100    1.4580 N   0  0  0  0  0  0  0  0  0  0  0  0
    3.0010   -1.3210    1.0090 C   0  0  0  0  0  0  0  0  0  0  0  0
    3.8860   -0.5780    1.5050 O   0  0  0  0  0  0  0  0  0  0  0  0
    2.7890   -3.9060    3.4360 H   0  0  0  0  0  0  0  0  0  0  0  0
    2.2610   -4.6220    1.5360 H   0  0  0  0  0  0  0  0  0  0  0  0
    1.1090   -3.2370    1.2940 H   0  0  0  0  0  0  0  0  0  0  0  0
    3.1490   -3.1270   -0.1560 H   0  0  0  0  0  0  0  0  0  0  0  0
    5.1180   -2.4570    1.7210 H   0  0  0  0  0  0  0  0  0  0  0  0
    4.8920   -4.0320    1.0020 H   0  0  0  0  0  0  0  0  0  0  0  0
    1.8070   -0.7210    0.5420 N   0  0  0  0  0  0  0  0  0  0  0  0
    1.5570    0.7030    0.6070 C   0  0  1  0  0  0  0  0  0  0  0  0
    1.3140    1.1930   -0.8000 C   0  0  0  0  0  0  0  0  0  0  0  0
    2.5230    0.9070   -1.6070 C   0  0  0  0  0  0  0  0  0  0  0  0
    2.7580   -0.2310   -2.0770 O   0  0  0  0  0  0  0  0  0  0  0  0
    0.3030    0.9500    1.3860 C   0  0  0  0  0  0  0  0  0  0  0  0
   -0.1050    2.1460    1.5590 O   0  0  0  0  0  0  0  0  0  0  0  0
    3.4090    1.9490   -1.8370 O   0  0  0  0  0  0  0  0  0  0  0  0
    1.0840   -1.3600    0.1320 H   0  0  0  0  0  0  0  0  0  0  0  0
    2.4080    1.2530    1.0540 H   0  0  0  0  0  0  0  0  0  0  0  0
    1.0510    2.2710   -0.8230 H   0  0  0  0  0  0  0  0  0  0  0  0
    0.4240    0.6560   -1.2040 H   0  0  0  0  0  0  0  0  0  0  0  0
    4.3530    1.8110   -2.1180 H   0  0  0  0  0  0  0  0  0  0  0  0
   -0.4890   -0.0670    1.9620 N   0  0  0  0  0  0  0  0  0  0  0  0
   -1.7070    0.2500    2.7130 C   0  0  1  0  0  0  0  0  0  0  0  0
   -2.8680   -0.4130    2.0150 C   0  0  0  0  0  0  0  0  0  0  0  0
   -3.0280    0.0630    0.6180 C   0  0  0  0  0  0  0  0  0  0  0  0
   -2.3660   -0.5920   -0.4070 C   0  0  0  0  0  0  0  0  0  0  0  0
   -2.5180   -0.1500   -1.7000 C   0  0  0  0  0  0  0  0  0  0  0  0
   -3.3040    0.9220   -2.0240 C   0  0  0  0  0  0  0  0  0  0  0  0
   -3.9710    1.5850   -1.0120 C   0  0  0  0  0  0  0  0  0  0  0  0
   -3.8160    1.1400    0.2790 C   0  0  0  0  0  0  0  0  0  0  0  0
   -1.6440   -0.2880    4.0830 C   0  0  0  0  0  0  0  0  0  0  0  0
   -0.6410   -0.9200    4.4580 O   0  0  0  0  0  0  0  0  0  0  0  0
   -2.6950   -0.0890    4.9420 O   0  0  0  0  0  0  0  0  0  0  0  0
   -0.1920   -1.0600    1.8450 H   0  0  0  0  0  0  0  0  0  0  0  0
   -1.8300    1.3580    2.6950 H   0  0  0  0  0  0  0  0  0  0  0  0
   -2.7060   -1.5110    1.9860 H   0  0  0  0  0  0  0  0  0  0  0  0
   -3.8260   -0.2420    2.5210 H   0  0  0  0  0  0  0  0  0  0  0  0
   -1.7520   -1.4290   -0.1600 H   0  0  0  0  0  0  0  0  0  0  0  0
   -1.9910   -0.6740   -2.5050 H   0  0  0  0  0  0  0  0  0  0  0  0
   -3.3810    1.2180   -3.0580 H   0  0  0  0  0  0  0  0  0  0  0  0
   -4.6020    2.4410   -1.2500 H   0  0  0  0  0  0  0  0  0  0  0  0
   -4.3240    1.6340    1.1060 H   0  0  0  0  0  0  0  0  0  0  0  0
  1  7  1  0  0  0  0
  2  1  1  0  0  0  0
  3 10  1  6  0  0  0
  3  5  1  0  0  0  0
  3  4  1  0  0  0  0
  3  2  1  0  0  0  0
  4 11  1  0  0  0  0
  5  6  2  0  0  0  0
  8  2  1  0  0  0  0
  9  2  1  0  0  0  0
 12  4  1  0  0  0  0
 13 14  1  0  0  0  0
 13  5  1  0  0  0  0
 14 22  1  1  0  0  0
 14 18  1  0  0  0  0
 15 14  1  0  0  0  0
 16 15  1  0  0  0  0
 17 16  2  0  0  0  0
 18 19  2  0  0  0  0
 18 26  1  0  0  0  0
 20 16  1  0  0  0  0
 21 13  1  0  0  0  0
 23 15  1  0  0  0  0
 24 15  1  0  0  0  0
 25 20  1  0  0  0  0
 26 27  1  0  0  0  0
 27 39  1  1  0  0  0
 27 35  1  0  0  0  0
 28 41  1  0  0  0  0
 28 27  1  0  0  0  0
 29 28  1  0  0  0  0
 30 42  1  0  0  0  0
 30 29  2  0  0  0  0
 31 30  1  0  0  0  0
 32 31  2  0  0  0  0
 32 33  1  0  0  0  0
 33 34  2  0  0  0  0
 34 29  1  0  0  0  0
 34 46  1  0  0  0  0
 35 36  2  0  0  0  0
 35 37  1  0  0  0  0
 38 26  1  0  0  0  0
 40 28  1  0  0  0  0
 43 31  1  0  0  0  0
 44 32  1  0  0  0  0
 45 33  1  0  0  0  0
M  END
$$$$
