SDH.pdb
 OpenBabel07022419073D

 43 43  0  0  1  0  0  0  0  0999 V2000
    4.8920   -2.7460    3.4450 O   0  0  0  0  0  0  0  0  0  0  0  0
    4.4490   -2.1170    2.2850 C   0  0  0  0  0  0  0  0  0  0  0  0
    3.3330   -1.1380    2.5570 C   0  0  2  0  0  0  0  0  0  0  0  0
    2.2160   -1.8520    3.1430 N   0  0  0  0  0  0  0  0  0  0  0  0
    2.9300   -0.5450    1.2450 C   0  0  0  0  0  0  0  0  0  0  0  0
    3.7320    0.1250    0.5470 O   0  0  0  0  0  0  0  0  0  0  0  0
    4.2330   -2.6530    4.1770 H   0  0  0  0  0  0  0  0  0  0  0  0
    4.1220   -2.9000    1.5950 H   0  0  0  0  0  0  0  0  0  0  0  0
    5.2660   -1.5440    1.8000 H   0  0  0  0  0  0  0  0  0  0  0  0
    3.6240   -0.3550    3.2650 H   0  0  0  0  0  0  0  0  0  0  0  0
    1.9980   -2.7160    2.6320 H   0  0  0  0  0  0  0  0  0  0  0  0
    2.3150   -1.9610    4.1630 H   0  0  0  0  0  0  0  0  0  0  0  0
    1.6100   -0.7120    0.7210 N   0  0  0  0  0  0  0  0  0  0  0  0
    1.2490   -0.1360   -0.5300 C   0  0  1  0  0  0  0  0  0  0  0  0
    0.8540   -1.1800   -1.5630 C   0  0  0  0  0  0  0  0  0  0  0  0
    1.9680   -2.1270   -1.8310 C   0  0  0  0  0  0  0  0  0  0  0  0
    2.1870   -3.0260   -0.9770 O   0  0  0  0  0  0  0  0  0  0  0  0
    0.0800    0.7970   -0.4110 C   0  0  0  0  0  0  0  0  0  0  0  0
   -0.3470    1.3810   -1.4380 O   0  0  0  0  0  0  0  0  0  0  0  0
    2.7620   -2.0630   -2.9600 O   0  0  0  0  0  0  0  0  0  0  0  0
    0.9610   -1.2710    1.3140 H   0  0  0  0  0  0  0  0  0  0  0  0
    2.1200    0.4090   -0.9560 H   0  0  0  0  0  0  0  0  0  0  0  0
    0.6030   -0.7110   -2.5350 H   0  0  0  0  0  0  0  0  0  0  0  0
   -0.0640   -1.7050   -1.2280 H   0  0  0  0  0  0  0  0  0  0  0  0
    3.7580   -2.2820   -2.8890 H   0  0  0  0  0  0  0  0  0  0  0  0
   -0.5460    1.0280    0.8400 N   0  0  0  0  0  0  0  0  0  0  0  0
   -1.6730    1.9150    1.0220 C   0  0  1  0  0  0  0  0  0  0  0  0
   -2.8720    1.1220    1.4910 C   0  0  0  0  0  0  0  0  0  0  0  0
   -3.2580    0.0720    0.5020 C   0  0  0  0  0  0  0  0  0  0  0  0
   -2.8090   -1.2360    0.4490 C   0  0  0  0  0  0  0  0  0  0  0  0
   -3.4270   -1.8040   -0.6010 N   0  0  0  0  0  0  0  0  0  0  0  0
   -4.2270   -0.9250   -1.1930 C   0  0  0  0  0  0  0  0  0  0  0  0
   -4.1230    0.2270   -0.5150 N   0  0  0  0  0  0  0  0  0  0  0  0
   -1.3900    3.0130    1.9520 C   0  0  0  0  0  0  0  0  0  0  0  0
   -2.3020    3.8470    2.1840 O   0  0  0  0  0  0  0  0  0  0  0  0
   -0.1800    3.2080    2.6080 O   0  0  0  0  0  0  0  0  0  0  0  0
   -0.1390    0.5050    1.6610 H   0  0  0  0  0  0  0  0  0  0  0  0
   -1.9430    2.3660    0.0440 H   0  0  0  0  0  0  0  0  0  0  0  0
   -2.7360    0.6300    2.4550 H   0  0  0  0  0  0  0  0  0  0  0  0
   -3.7470    1.8210    1.6040 H   0  0  0  0  0  0  0  0  0  0  0  0
   -2.1030   -1.7120    1.1150 H   0  0  0  0  0  0  0  0  0  0  0  0
   -3.3130   -2.7880   -0.9230 H   0  0  0  0  0  0  0  0  0  0  0  0
   -4.8640   -1.0860   -2.0730 H   0  0  0  0  0  0  0  0  0  0  0  0
  1  7  1  0  0  0  0
  2  3  1  0  0  0  0
  2  1  1  0  0  0  0
  3  4  1  0  0  0  0
  3 10  1  1  0  0  0
  4 12  1  0  0  0  0
  5  3  1  0  0  0  0
  6  5  2  0  0  0  0
  8  2  1  0  0  0  0
  9  2  1  0  0  0  0
 11  4  1  0  0  0  0
 13  5  1  0  0  0  0
 13 21  1  0  0  0  0
 14 22  1  6  0  0  0
 14 18  1  0  0  0  0
 14 13  1  0  0  0  0
 15 24  1  0  0  0  0
 15 14  1  0  0  0  0
 16 15  1  0  0  0  0
 16 17  2  0  0  0  0
 18 26  1  0  0  0  0
 19 18  2  0  0  0  0
 20 25  1  0  0  0  0
 20 16  1  0  0  0  0
 23 15  1  0  0  0  0
 26 27  1  0  0  0  0
 26 37  1  0  0  0  0
 27 38  1  6  0  0  0
 27 28  1  0  0  0  0
 27 34  1  0  0  0  0
 28 40  1  0  0  0  0
 28 39  1  0  0  0  0
 29 28  1  0  0  0  0
 30 29  2  0  0  0  0
 30 41  1  0  0  0  0
 31 30  1  0  0  0  0
 32 31  1  0  0  0  0
 32 33  2  0  0  0  0
 33 29  1  0  0  0  0
 34 35  2  0  0  0  0
 34 36  1  0  0  0  0
 42 31  1  0  0  0  0
 43 32  1  0  0  0  0
M  END
$$$$
