SDI.pdb
 OpenBabel07022419073D

 45 44  0  0  1  0  0  0  0  0999 V2000
    2.5020    0.7970    2.3840 O   0  0  0  0  0  0  0  0  0  0  0  0
    2.9090   -0.5070    2.2220 C   0  0  0  0  0  0  0  0  0  0  0  0
    3.5580   -0.7290    0.8650 C   0  0  2  0  0  0  0  0  0  0  0  0
    4.7000    0.1150    0.7380 N   0  0  0  0  0  0  0  0  0  0  0  0
    2.5830   -0.5690   -0.2430 C   0  0  0  0  0  0  0  0  0  0  0  0
    2.8470    0.1950   -1.2040 O   0  0  0  0  0  0  0  0  0  0  0  0
    2.5840    1.0470    3.3410 H   0  0  0  0  0  0  0  0  0  0  0  0
    2.0400   -1.2050    2.2480 H   0  0  0  0  0  0  0  0  0  0  0  0
    3.5710   -0.8330    3.0430 H   0  0  0  0  0  0  0  0  0  0  0  0
    3.8500   -1.8150    0.8360 H   0  0  0  0  0  0  0  0  0  0  0  0
    4.7000    0.5930   -0.1940 H   0  0  0  0  0  0  0  0  0  0  0  0
    4.6460    0.8710    1.4710 H   0  0  0  0  0  0  0  0  0  0  0  0
    1.3460   -1.2580   -0.2610 N   0  0  0  0  0  0  0  0  0  0  0  0
    0.3970   -1.1390   -1.3290 C   0  0  1  0  0  0  0  0  0  0  0  0
    0.0750   -2.4710   -1.9660 C   0  0  0  0  0  0  0  0  0  0  0  0
    1.2580   -3.1360   -2.5460 C   0  0  0  0  0  0  0  0  0  0  0  0
    1.1160   -4.2390   -3.1270 O   0  0  0  0  0  0  0  0  0  0  0  0
   -0.7890   -0.4010   -0.9160 C   0  0  0  0  0  0  0  0  0  0  0  0
   -1.7860   -0.1840   -1.6480 O   0  0  0  0  0  0  0  0  0  0  0  0
    2.5080   -2.5640   -2.4560 O   0  0  0  0  0  0  0  0  0  0  0  0
    1.1180   -1.8850    0.5520 H   0  0  0  0  0  0  0  0  0  0  0  0
    0.9030   -0.5190   -2.1390 H   0  0  0  0  0  0  0  0  0  0  0  0
   -0.3340   -3.1910   -1.1950 H   0  0  0  0  0  0  0  0  0  0  0  0
   -0.7030   -2.4000   -2.7340 H   0  0  0  0  0  0  0  0  0  0  0  0
    3.2600   -2.8190   -3.1020 H   0  0  0  0  0  0  0  0  0  0  0  0
   -0.8800   -0.9810    3.2400 C   0  0  0  0  0  0  0  0  0  0  0  0
   -1.9940   -0.0020    3.2310 C   0  0  0  0  0  0  0  0  0  0  0  0
   -2.7360    0.2030    1.9710 C   0  0  2  0  0  0  0  0  0  0  0  0
   -3.3610   -1.1360    1.5330 C   0  0  0  0  0  0  0  0  0  0  0  0
   -2.0350    0.8760    0.8520 C   0  0  2  0  0  0  0  0  0  0  0  0
   -0.8850    0.1450    0.4080 N   0  0  0  0  0  0  0  0  0  0  0  0
   -1.7770    2.3000    1.0830 C   0  0  0  0  0  0  0  0  0  0  0  0
   -2.6940    3.0370    1.4720 O   0  0  0  0  0  0  0  0  0  0  0  0
   -0.5290    2.8240    0.8730 O   0  0  0  0  0  0  0  0  0  0  0  0
   -0.9450   -1.6090    4.1960 H   0  0  0  0  0  0  0  0  0  0  0  0
    0.1230   -0.4750    3.3740 H   0  0  0  0  0  0  0  0  0  0  0  0
   -0.8710   -1.7290    2.4440 H   0  0  0  0  0  0  0  0  0  0  0  0
   -1.5900    1.0070    3.5600 H   0  0  0  0  0  0  0  0  0  0  0  0
   -2.7390   -0.2900    4.0350 H   0  0  0  0  0  0  0  0  0  0  0  0
   -3.6460    0.8400    2.2410 H   0  0  0  0  0  0  0  0  0  0  0  0
   -4.1860   -0.8830    0.8530 H   0  0  0  0  0  0  0  0  0  0  0  0
   -2.5710   -1.6300    0.9140 H   0  0  0  0  0  0  0  0  0  0  0  0
   -3.6560   -1.7200    2.4140 H   0  0  0  0  0  0  0  0  0  0  0  0
   -2.7710    0.8590   -0.0220 H   0  0  0  0  0  0  0  0  0  0  0  0
   -0.1000    0.0220    1.0730 H   0  0  0  0  0  0  0  0  0  0  0  0
  1  7  1  0  0  0  0
  2  8  1  0  0  0  0
  2  1  1  0  0  0  0
  2  9  1  0  0  0  0
  3 10  1  6  0  0  0
  3  2  1  0  0  0  0
  4  3  1  0  0  0  0
  4 12  1  0  0  0  0
  5  3  1  0  0  0  0
  6  5  2  0  0  0  0
 11  4  1  0  0  0  0
 13  5  1  0  0  0  0
 13 21  1  0  0  0  0
 14 22  1  6  0  0  0
 14 18  1  0  0  0  0
 14 13  1  0  0  0  0
 15 14  1  0  0  0  0
 15 23  1  0  0  0  0
 16 20  1  0  0  0  0
 16 15  1  0  0  0  0
 17 16  2  0  0  0  0
 18 31  1  0  0  0  0
 19 18  2  0  0  0  0
 24 15  1  0  0  0  0
 25 20  1  0  0  0  0
 26 36  1  0  0  0  0
 26 35  1  0  0  0  0
 27 26  1  0  0  0  0
 27 38  1  0  0  0  0
 27 39  1  0  0  0  0
 28 40  1  1  0  0  0
 28 27  1  0  0  0  0
 29 28  1  0  0  0  0
 29 43  1  0  0  0  0
 30 44  1  6  0  0  0
 30 32  1  0  0  0  0
 30 28  1  0  0  0  0
 31 30  1  0  0  0  0
 31 45  1  0  0  0  0
 32 33  1  0  0  0  0
 34 32  2  0  0  0  0
 37 26  1  0  0  0  0
 41 29  1  0  0  0  0
 42 29  1  0  0  0  0
M  END
$$$$
