SDM.pdb
 OpenBabel07022419073D

 43 42  0  0  1  0  0  0  0  0999 V2000
    2.5800   -5.2620   -1.7140 O   0  0  0  0  0  0  0  0  0  0  0  0
    2.0900   -4.1900   -1.0010 C   0  0  0  0  0  0  0  0  0  0  0  0
    3.0000   -3.0050   -1.3060 C   0  0  2  0  0  0  0  0  0  0  0  0
    4.3480   -3.3900   -0.8700 N   0  0  0  0  0  0  0  0  0  0  0  0
    2.5580   -1.7810   -0.5950 C   0  0  0  0  0  0  0  0  0  0  0  0
    3.2590   -1.1930    0.2850 O   0  0  0  0  0  0  0  0  0  0  0  0
    2.4290   -6.1350   -1.2890 H   0  0  0  0  0  0  0  0  0  0  0  0
    2.1230   -4.4050    0.1000 H   0  0  0  0  0  0  0  0  0  0  0  0
    1.0400   -3.9890   -1.2780 H   0  0  0  0  0  0  0  0  0  0  0  0
    3.0060   -2.8700   -2.3940 H   0  0  0  0  0  0  0  0  0  0  0  0
    5.0350   -2.6620   -1.1260 H   0  0  0  0  0  0  0  0  0  0  0  0
    4.2630   -3.5250    0.1740 H   0  0  0  0  0  0  0  0  0  0  0  0
    1.3000   -1.2090   -0.8780 N   0  0  0  0  0  0  0  0  0  0  0  0
    0.8100   -0.0170   -0.2170 C   0  0  1  0  0  0  0  0  0  0  0  0
    0.6180    1.0310   -1.3220 C   0  0  0  0  0  0  0  0  0  0  0  0
    1.9580    1.2160   -1.9420 C   0  0  0  0  0  0  0  0  0  0  0  0
    2.6050    0.2320   -2.4150 O   0  0  0  0  0  0  0  0  0  0  0  0
   -0.4890   -0.3580    0.4110 C   0  0  0  0  0  0  0  0  0  0  0  0
   -1.0000   -1.4940    0.3070 O   0  0  0  0  0  0  0  0  0  0  0  0
    2.5680    2.4690   -2.0320 O   0  0  0  0  0  0  0  0  0  0  0  0
    0.6800   -1.6430   -1.5890 H   0  0  0  0  0  0  0  0  0  0  0  0
    1.5240    0.3780    0.5340 H   0  0  0  0  0  0  0  0  0  0  0  0
    0.2020    1.9610   -0.9390 H   0  0  0  0  0  0  0  0  0  0  0  0
   -0.0050    0.5150   -2.0920 H   0  0  0  0  0  0  0  0  0  0  0  0
    3.5700    2.5670   -2.0960 H   0  0  0  0  0  0  0  0  0  0  0  0
    0.9550    0.8710    4.1570 C   0  0  0  0  0  0  0  0  0  0  0  0
   -0.3080    2.0490    3.5910 S   0  0  0  0  0  0  0  0  0  0  0  0
   -1.9570    1.4940    3.9900 C   0  0  0  0  0  0  0  0  0  0  0  0
   -2.4190    0.2610    3.3000 C   0  0  0  0  0  0  0  0  0  0  0  0
   -2.5020    0.3240    1.8010 C   0  0  2  0  0  0  0  0  0  0  0  0
   -1.2380    0.6040    1.1750 N   0  0  0  0  0  0  0  0  0  0  0  0
   -3.5440    1.3110    1.4570 C   0  0  0  0  0  0  0  0  0  0  0  0
   -3.3710    2.2970    0.7000 O   0  0  0  0  0  0  0  0  0  0  0  0
   -4.8000    1.1320    2.0100 O   0  0  0  0  0  0  0  0  0  0  0  0
    1.0820    0.9350    5.2590 H   0  0  0  0  0  0  0  0  0  0  0  0
    1.9170    1.1230    3.6990 H   0  0  0  0  0  0  0  0  0  0  0  0
    0.6400   -0.1670    3.9290 H   0  0  0  0  0  0  0  0  0  0  0  0
   -2.6640    2.3460    3.8520 H   0  0  0  0  0  0  0  0  0  0  0  0
   -1.9840    1.2970    5.0910 H   0  0  0  0  0  0  0  0  0  0  0  0
   -1.8020   -0.6000    3.6510 H   0  0  0  0  0  0  0  0  0  0  0  0
   -3.4790    0.0770    3.6510 H   0  0  0  0  0  0  0  0  0  0  0  0
   -2.9090   -0.6820    1.4320 H   0  0  0  0  0  0  0  0  0  0  0  0
   -0.8210    1.5440    1.2450 H   0  0  0  0  0  0  0  0  0  0  0  0
  1  7  1  0  0  0  0
  1  2  1  0  0  0  0
  2  8  1  0  0  0  0
  3 10  1  6  0  0  0
  3  2  1  0  0  0  0
  3  4  1  0  0  0  0
  3  5  1  0  0  0  0
  4 12  1  0  0  0  0
  5  6  2  0  0  0  0
  9  2  1  0  0  0  0
 11  4  1  0  0  0  0
 13  5  1  0  0  0  0
 13 14  1  0  0  0  0
 14 18  1  0  0  0  0
 14 22  1  1  0  0  0
 15 23  1  0  0  0  0
 15 14  1  0  0  0  0
 16 15  1  0  0  0  0
 17 16  2  0  0  0  0
 18 31  1  0  0  0  0
 19 18  2  0  0  0  0
 20 16  1  0  0  0  0
 21 13  1  0  0  0  0
 24 15  1  0  0  0  0
 25 20  1  0  0  0  0
 26 35  1  0  0  0  0
 27 28  1  0  0  0  0
 27 26  1  0  0  0  0
 28 39  1  0  0  0  0
 29 40  1  0  0  0  0
 29 41  1  0  0  0  0
 29 28  1  0  0  0  0
 30 42  1  6  0  0  0
 30 29  1  0  0  0  0
 31 43  1  0  0  0  0
 31 30  1  0  0  0  0
 32 30  1  0  0  0  0
 32 34  1  0  0  0  0
 33 32  2  0  0  0  0
 36 26  1  0  0  0  0
 37 26  1  0  0  0  0
 38 28  1  0  0  0  0
M  END
$$$$
