SDN.pdb
 OpenBabel07022419073D

 40 39  0  0  1  0  0  0  0  0999 V2000
   -0.3610   -5.5760    1.1200 O   0  0  0  0  0  0  0  0  0  0  0  0
   -0.0240   -4.2230    1.0320 C   0  0  0  0  0  0  0  0  0  0  0  0
    0.9950   -4.0040   -0.0470 C   0  0  2  0  0  0  0  0  0  0  0  0
    2.1770   -4.7750    0.2800 N   0  0  0  0  0  0  0  0  0  0  0  0
    1.3670   -2.6160   -0.2690 C   0  0  0  0  0  0  0  0  0  0  0  0
    2.5760   -2.2690   -0.1640 O   0  0  0  0  0  0  0  0  0  0  0  0
   -0.3640   -5.9000    2.0600 H   0  0  0  0  0  0  0  0  0  0  0  0
    0.2800   -3.8960    2.0250 H   0  0  0  0  0  0  0  0  0  0  0  0
   -0.9710   -3.6930    0.7560 H   0  0  0  0  0  0  0  0  0  0  0  0
    0.5900   -4.4910   -0.9850 H   0  0  0  0  0  0  0  0  0  0  0  0
    3.0540   -4.2320    0.0250 H   0  0  0  0  0  0  0  0  0  0  0  0
    2.2240   -4.8340    1.3430 H   0  0  0  0  0  0  0  0  0  0  0  0
    0.4600   -1.5740   -0.6050 N   0  0  0  0  0  0  0  0  0  0  0  0
    0.8460   -0.2170   -0.8220 C   0  0  1  0  0  0  0  0  0  0  0  0
    0.4710    0.2980   -2.2130 C   0  0  0  0  0  0  0  0  0  0  0  0
    0.8870    1.6950   -2.4020 C   0  0  0  0  0  0  0  0  0  0  0  0
    2.0760    2.0250   -2.6070 O   0  0  0  0  0  0  0  0  0  0  0  0
    0.2720    0.7230    0.2170 C   0  0  0  0  0  0  0  0  0  0  0  0
    0.5080    1.9330    0.1150 O   0  0  0  0  0  0  0  0  0  0  0  0
   -0.0690    2.6980   -2.3540 O   0  0  0  0  0  0  0  0  0  0  0  0
   -0.5500   -1.8540   -0.6940 H   0  0  0  0  0  0  0  0  0  0  0  0
    1.9420   -0.0860   -0.7210 H   0  0  0  0  0  0  0  0  0  0  0  0
    0.8920   -0.4070   -2.9610 H   0  0  0  0  0  0  0  0  0  0  0  0
   -0.6470    0.2180   -2.3530 H   0  0  0  0  0  0  0  0  0  0  0  0
    0.1520    3.6810   -2.2470 H   0  0  0  0  0  0  0  0  0  0  0  0
    2.1200    0.6370    3.4310 N   0  0  0  0  0  0  0  0  0  0  0  0
    0.9870    1.4940    3.4760 C   0  0  0  0  0  0  0  0  0  0  0  0
    1.0990    2.7430    3.4040 O   0  0  0  0  0  0  0  0  0  0  0  0
   -0.3780    0.9370    3.6090 C   0  0  0  0  0  0  0  0  0  0  0  0
   -1.1430    0.9640    2.3250 C   0  0  2  0  0  0  0  0  0  0  0  0
   -0.5170    0.2090    1.2750 N   0  0  0  0  0  0  0  0  0  0  0  0
   -1.6810    2.2700    1.9520 C   0  0  0  0  0  0  0  0  0  0  0  0
   -1.7250    2.7260    0.8190 O   0  0  0  0  0  0  0  0  0  0  0  0
   -2.1890    3.0590    2.9950 O   0  0  0  0  0  0  0  0  0  0  0  0
    2.0130   -0.2490    2.8880 H   0  0  0  0  0  0  0  0  0  0  0  0
    3.0260    0.8600    3.9060 H   0  0  0  0  0  0  0  0  0  0  0  0
   -0.3130   -0.1290    3.9510 H   0  0  0  0  0  0  0  0  0  0  0  0
   -0.9150    1.4820    4.4090 H   0  0  0  0  0  0  0  0  0  0  0  0
   -2.1100    0.3560    2.5350 H   0  0  0  0  0  0  0  0  0  0  0  0
   -0.6250   -0.8630    1.2370 H   0  0  0  0  0  0  0  0  0  0  0  0
  1  7  1  0  0  0  0
  2  1  1  0  0  0  0
  2  8  1  0  0  0  0
  3 10  1  6  0  0  0
  3  4  1  0  0  0  0
  3  2  1  0  0  0  0
  4 12  1  0  0  0  0
  5  6  2  0  0  0  0
  5  3  1  0  0  0  0
  9  2  1  0  0  0  0
 11  4  1  0  0  0  0
 13  5  1  0  0  0  0
 14 22  1  1  0  0  0
 14 13  1  0  0  0  0
 14 18  1  0  0  0  0
 15 14  1  0  0  0  0
 16 20  1  0  0  0  0
 16 15  1  0  0  0  0
 17 16  2  0  0  0  0
 18 31  1  0  0  0  0
 19 18  2  0  0  0  0
 20 25  1  0  0  0  0
 21 13  1  0  0  0  0
 23 15  1  0  0  0  0
 24 15  1  0  0  0  0
 26 27  1  0  0  0  0
 26 36  1  0  0  0  0
 27 29  1  0  0  0  0
 28 27  2  0  0  0  0
 29 37  1  0  0  0  0
 29 38  1  0  0  0  0
 30 39  1  1  0  0  0
 30 29  1  0  0  0  0
 31 30  1  0  0  0  0
 32 30  1  0  0  0  0
 32 34  1  0  0  0  0
 33 32  2  0  0  0  0
 35 26  1  0  0  0  0
 40 31  1  0  0  0  0
M  END
$$$$
