SDS.pdb
 OpenBabel07022419073D

 37 36  0  0  1  0  0  0  0  0999 V2000
   -0.2110   -3.5740   -2.3800 O   0  0  0  0  0  0  0  0  0  0  0  0
    0.6250   -4.1610   -1.4060 C   0  0  0  0  0  0  0  0  0  0  0  0
    0.5710   -3.3000   -0.1690 C   0  0  2  0  0  0  0  0  0  0  0  0
   -0.8080   -3.2660    0.2720 N   0  0  0  0  0  0  0  0  0  0  0  0
    1.1200   -1.9480   -0.3830 C   0  0  0  0  0  0  0  0  0  0  0  0
    2.2910   -1.7290   -0.7650 O   0  0  0  0  0  0  0  0  0  0  0  0
   -1.0350   -4.1040   -2.5100 H   0  0  0  0  0  0  0  0  0  0  0  0
    1.6340   -4.3310   -1.7910 H   0  0  0  0  0  0  0  0  0  0  0  0
    0.1920   -5.1460   -1.1380 H   0  0  0  0  0  0  0  0  0  0  0  0
    1.2130   -3.7980    0.5990 H   0  0  0  0  0  0  0  0  0  0  0  0
   -1.3700   -2.8130   -0.4790 H   0  0  0  0  0  0  0  0  0  0  0  0
   -0.8760   -2.7700    1.1700 H   0  0  0  0  0  0  0  0  0  0  0  0
    0.2730   -0.8190   -0.1440 N   0  0  0  0  0  0  0  0  0  0  0  0
    0.7070    0.5360   -0.3210 C   0  0  1  0  0  0  0  0  0  0  0  0
   -0.0740    1.2250   -1.4130 C   0  0  0  0  0  0  0  0  0  0  0  0
    0.1140    0.5010   -2.6970 C   0  0  0  0  0  0  0  0  0  0  0  0
   -0.5500   -0.5430   -2.9330 O   0  0  0  0  0  0  0  0  0  0  0  0
    0.6900    1.3210    0.9300 C   0  0  0  0  0  0  0  0  0  0  0  0
    1.0510    2.5190    0.8860 O   0  0  0  0  0  0  0  0  0  0  0  0
    1.0250    0.9550   -3.6710 O   0  0  0  0  0  0  0  0  0  0  0  0
   -0.7060   -1.0000    0.1740 H   0  0  0  0  0  0  0  0  0  0  0  0
    1.7690    0.5070   -0.6640 H   0  0  0  0  0  0  0  0  0  0  0  0
   -1.1650    1.1210   -1.1600 H   0  0  0  0  0  0  0  0  0  0  0  0
    0.1220    2.2960   -1.4750 H   0  0  0  0  0  0  0  0  0  0  0  0
    1.5560    0.2680   -4.2220 H   0  0  0  0  0  0  0  0  0  0  0  0
   -1.7590    0.3880    4.1880 O   0  0  0  0  0  0  0  0  0  0  0  0
   -1.1640    1.6260    3.9550 C   0  0  0  0  0  0  0  0  0  0  0  0
    0.2490    1.4860    3.4060 C   0  0  2  0  0  0  0  0  0  0  0  0
    0.2850    0.7780    2.1680 N   0  0  0  0  0  0  0  0  0  0  0  0
    1.1550    0.9220    4.4420 C   0  0  0  0  0  0  0  0  0  0  0  0
    1.8790   -0.0670    4.2630 O   0  0  0  0  0  0  0  0  0  0  0  0
    1.1500    1.5890    5.6780 O   0  0  0  0  0  0  0  0  0  0  0  0
   -1.5250   -0.2770    3.5130 H   0  0  0  0  0  0  0  0  0  0  0  0
   -1.1350    2.1410    4.9420 H   0  0  0  0  0  0  0  0  0  0  0  0
   -1.7810    2.2750    3.3000 H   0  0  0  0  0  0  0  0  0  0  0  0
    0.5970    2.5410    3.2320 H   0  0  0  0  0  0  0  0  0  0  0  0
   -0.0110   -0.2420    2.1480 H   0  0  0  0  0  0  0  0  0  0  0  0
  1  2  1  0  0  0  0
  2  9  1  0  0  0  0
  2  3  1  0  0  0  0
  3  4  1  0  0  0  0
  3 10  1  1  0  0  0
  4 12  1  0  0  0  0
  5  3  1  0  0  0  0
  5 13  1  0  0  0  0
  6  5  2  0  0  0  0
  7  1  1  0  0  0  0
  8  2  1  0  0  0  0
 11  4  1  0  0  0  0
 13 21  1  0  0  0  0
 14 22  1  6  0  0  0
 14 13  1  0  0  0  0
 14 18  1  0  0  0  0
 15 23  1  0  0  0  0
 15 14  1  0  0  0  0
 16 15  1  0  0  0  0
 17 16  2  0  0  0  0
 18 29  1  0  0  0  0
 19 18  2  0  0  0  0
 20 16  1  0  0  0  0
 24 15  1  0  0  0  0
 25 20  1  0  0  0  0
 27 26  1  0  0  0  0
 27 34  1  0  0  0  0
 28 36  1  6  0  0  0
 28 27  1  0  0  0  0
 28 30  1  0  0  0  0
 29 28  1  0  0  0  0
 30 32  1  0  0  0  0
 31 30  2  0  0  0  0
 33 26  1  0  0  0  0
 35 27  1  0  0  0  0
 37 29  1  0  0  0  0
M  END
$$$$
