SDV.pdb
 OpenBabel07022419073D

 42 41  0  0  1  0  0  0  0  0999 V2000
    2.3610   -5.8730    0.6990 O   0  0  0  0  0  0  0  0  0  0  0  0
    2.0520   -5.7880    2.0350 C   0  0  0  0  0  0  0  0  0  0  0  0
    0.8970   -4.8300    2.2460 C   0  0  2  0  0  0  0  0  0  0  0  0
   -0.2850   -5.2730    1.5350 N   0  0  0  0  0  0  0  0  0  0  0  0
    1.3480   -3.4940    1.7860 C   0  0  0  0  0  0  0  0  0  0  0  0
    2.3720   -3.0120    2.3380 O   0  0  0  0  0  0  0  0  0  0  0  0
    3.3140   -5.6300    0.5390 H   0  0  0  0  0  0  0  0  0  0  0  0
    1.8240   -6.7950    2.4320 H   0  0  0  0  0  0  0  0  0  0  0  0
    2.9000   -5.4020    2.6650 H   0  0  0  0  0  0  0  0  0  0  0  0
    0.6480   -4.8520    3.3200 H   0  0  0  0  0  0  0  0  0  0  0  0
   -0.4810   -6.2530    1.8240 H   0  0  0  0  0  0  0  0  0  0  0  0
   -1.0840   -4.6920    1.9310 H   0  0  0  0  0  0  0  0  0  0  0  0
    0.7190   -2.7390    0.7890 N   0  0  0  0  0  0  0  0  0  0  0  0
    1.1900   -1.4040    0.3480 C   0  0  1  0  0  0  0  0  0  0  0  0
    1.5300   -1.4740   -1.1270 C   0  0  0  0  0  0  0  0  0  0  0  0
    2.0250   -0.1610   -1.5650 C   0  0  0  0  0  0  0  0  0  0  0  0
    3.1020    0.3140   -1.0910 O   0  0  0  0  0  0  0  0  0  0  0  0
    0.0730   -0.4900    0.6580 C   0  0  0  0  0  0  0  0  0  0  0  0
   -0.9900   -0.9860    1.1340 O   0  0  0  0  0  0  0  0  0  0  0  0
    1.3530    0.6050   -2.4990 O   0  0  0  0  0  0  0  0  0  0  0  0
   -0.1230   -3.1130    0.3210 H   0  0  0  0  0  0  0  0  0  0  0  0
    2.0800   -1.0870    0.8860 H   0  0  0  0  0  0  0  0  0  0  0  0
    0.6430   -1.7450   -1.7360 H   0  0  0  0  0  0  0  0  0  0  0  0
    2.2970   -2.2640   -1.2320 H   0  0  0  0  0  0  0  0  0  0  0  0
    1.7930    1.3620   -3.0310 H   0  0  0  0  0  0  0  0  0  0  0  0
    0.5300    3.5910    1.5800 C   0  0  0  0  0  0  0  0  0  0  0  0
   -0.6330    2.7120    1.9030 C   0  0  0  0  0  0  0  0  0  0  0  0
   -1.7960    3.6030    2.2870 C   0  0  0  0  0  0  0  0  0  0  0  0
   -1.0240    1.7710    0.7870 C   0  0  2  0  0  0  0  0  0  0  0  0
    0.0970    0.8950    0.4690 N   0  0  0  0  0  0  0  0  0  0  0  0
   -1.5110    2.4960   -0.3980 C   0  0  0  0  0  0  0  0  0  0  0  0
   -1.0060    2.3650   -1.5590 O   0  0  0  0  0  0  0  0  0  0  0  0
   -2.5790    3.3920   -0.3310 O   0  0  0  0  0  0  0  0  0  0  0  0
    0.2020    4.5280    1.0750 H   0  0  0  0  0  0  0  0  0  0  0  0
    0.9680    3.9330    2.5630 H   0  0  0  0  0  0  0  0  0  0  0  0
    1.3580    3.1050    1.0470 H   0  0  0  0  0  0  0  0  0  0  0  0
   -0.3700    2.1370    2.8170 H   0  0  0  0  0  0  0  0  0  0  0  0
   -1.5580    4.0160    3.3100 H   0  0  0  0  0  0  0  0  0  0  0  0
   -2.7600    3.0620    2.2860 H   0  0  0  0  0  0  0  0  0  0  0  0
   -1.8380    4.4650    1.6060 H   0  0  0  0  0  0  0  0  0  0  0  0
   -1.8700    1.1580    1.1850 H   0  0  0  0  0  0  0  0  0  0  0  0
    0.9360    1.3590    0.0910 H   0  0  0  0  0  0  0  0  0  0  0  0
  1  2  1  0  0  0  0
  2  3  1  0  0  0  0
  2  8  1  0  0  0  0
  2  9  1  0  0  0  0
  3 10  1  1  0  0  0
  4 11  1  0  0  0  0
  4 12  1  0  0  0  0
  4  3  1  0  0  0  0
  5  3  1  0  0  0  0
  5  6  2  0  0  0  0
  7  1  1  0  0  0  0
 13  5  1  0  0  0  0
 14 18  1  0  0  0  0
 14 13  1  0  0  0  0
 14 22  1  1  0  0  0
 15 14  1  0  0  0  0
 16 15  1  0  0  0  0
 16 17  2  0  0  0  0
 18 19  2  0  0  0  0
 20 16  1  0  0  0  0
 21 13  1  0  0  0  0
 23 15  1  0  0  0  0
 24 15  1  0  0  0  0
 25 20  1  0  0  0  0
 26 27  1  0  0  0  0
 26 35  1  0  0  0  0
 27 28  1  0  0  0  0
 27 37  1  0  0  0  0
 28 38  1  0  0  0  0
 29 41  1  1  0  0  0
 29 27  1  0  0  0  0
 30 18  1  0  0  0  0
 30 29  1  0  0  0  0
 31 33  1  0  0  0  0
 31 29  1  0  0  0  0
 32 31  2  0  0  0  0
 34 26  1  0  0  0  0
 36 26  1  0  0  0  0
 39 28  1  0  0  0  0
 40 28  1  0  0  0  0
 42 30  1  0  0  0  0
M  END
$$$$
