SDY.pdb
 OpenBabel07022419073D

 47 47  0  0  1  0  0  0  0  0999 V2000
   -2.1860    4.3310   -0.2330 O   0  0  0  0  0  0  0  0  0  0  0  0
   -0.8450    3.9660   -0.1450 C   0  0  0  0  0  0  0  0  0  0  0  0
   -0.7900    2.4650   -0.3190 C   0  0  2  0  0  0  0  0  0  0  0  0
   -1.5670    1.8770    0.7340 N   0  0  0  0  0  0  0  0  0  0  0  0
    0.6030    1.9510   -0.3470 C   0  0  0  0  0  0  0  0  0  0  0  0
    1.4340    2.3440   -1.2030 O   0  0  0  0  0  0  0  0  0  0  0  0
   -2.3610    5.0380   -0.8810 H   0  0  0  0  0  0  0  0  0  0  0  0
   -0.4440    4.2790    0.8490 H   0  0  0  0  0  0  0  0  0  0  0  0
   -0.3200    4.4510   -0.9860 H   0  0  0  0  0  0  0  0  0  0  0  0
   -1.2820    2.2240   -1.2820 H   0  0  0  0  0  0  0  0  0  0  0  0
   -1.2510    2.0930    1.6860 H   0  0  0  0  0  0  0  0  0  0  0  0
   -2.5760    2.1220    0.5520 H   0  0  0  0  0  0  0  0  0  0  0  0
    1.0090    0.9800    0.6310 N   0  0  0  0  0  0  0  0  0  0  0  0
    2.3410    0.4430    0.6550 C   0  0  1  0  0  0  0  0  0  0  0  0
    3.0600    0.7130    1.9460 C   0  0  0  0  0  0  0  0  0  0  0  0
    3.2280    2.1230    2.2750 C   0  0  0  0  0  0  0  0  0  0  0  0
    2.7940    3.0120    1.5110 O   0  0  0  0  0  0  0  0  0  0  0  0
    2.3520   -1.0320    0.3950 C   0  0  0  0  0  0  0  0  0  0  0  0
    3.4800   -1.5860    0.3740 O   0  0  0  0  0  0  0  0  0  0  0  0
    3.8700    2.4870    3.4400 O   0  0  0  0  0  0  0  0  0  0  0  0
    0.2800    0.6940    1.3160 H   0  0  0  0  0  0  0  0  0  0  0  0
    2.9230    0.9050   -0.1650 H   0  0  0  0  0  0  0  0  0  0  0  0
    4.0900    0.2620    1.8660 H   0  0  0  0  0  0  0  0  0  0  0  0
    2.5460    0.1290    2.7520 H   0  0  0  0  0  0  0  0  0  0  0  0
    4.2810    3.3950    3.6020 H   0  0  0  0  0  0  0  0  0  0  0  0
   -4.8180   -2.5520    1.9340 O   0  0  0  0  0  0  0  0  0  0  0  0
   -3.4800   -2.8940    1.7330 C   0  0  0  0  0  0  0  0  0  0  0  0
   -2.4530   -2.2400    2.3650 C   0  0  0  0  0  0  0  0  0  0  0  0
   -1.1470   -2.6110    2.1370 C   0  0  0  0  0  0  0  0  0  0  0  0
   -0.8280   -3.6360    1.2790 C   0  0  0  0  0  0  0  0  0  0  0  0
    0.5640   -4.0020    1.0650 C   0  0  0  0  0  0  0  0  0  0  0  0
    1.2260   -3.2370   -0.0730 C   0  0  2  0  0  0  0  0  0  0  0  0
    1.2090   -1.8110    0.1790 N   0  0  0  0  0  0  0  0  0  0  0  0
    0.5540   -3.5450   -1.3590 C   0  0  0  0  0  0  0  0  0  0  0  0
    0.4430   -4.7070   -1.8000 O   0  0  0  0  0  0  0  0  0  0  0  0
   -1.8520   -4.2950    0.6420 C   0  0  0  0  0  0  0  0  0  0  0  0
   -3.1630   -3.9280    0.8670 C   0  0  0  0  0  0  0  0  0  0  0  0
    0.0190   -2.5020   -2.1150 O   0  0  0  0  0  0  0  0  0  0  0  0
   -5.5120   -3.2560    1.7590 H   0  0  0  0  0  0  0  0  0  0  0  0
   -2.6730   -1.4420    3.0360 H   0  0  0  0  0  0  0  0  0  0  0  0
   -0.3630   -2.0510    2.6700 H   0  0  0  0  0  0  0  0  0  0  0  0
    0.6950   -5.0830    0.8310 H   0  0  0  0  0  0  0  0  0  0  0  0
    1.2250   -3.7930    1.9580 H   0  0  0  0  0  0  0  0  0  0  0  0
    2.2550   -3.6470   -0.1300 H   0  0  0  0  0  0  0  0  0  0  0  0
    0.2780   -1.3430    0.1990 H   0  0  0  0  0  0  0  0  0  0  0  0
   -1.6880   -5.1180   -0.0520 H   0  0  0  0  0  0  0  0  0  0  0  0
   -4.0000   -4.4410    0.3710 H   0  0  0  0  0  0  0  0  0  0  0  0
  1  2  1  0  0  0  0
  2  8  1  0  0  0  0
  3 10  1  6  0  0  0
  3  2  1  0  0  0  0
  3  4  1  0  0  0  0
  4 11  1  0  0  0  0
  5  3  1  0  0  0  0
  5 13  1  0  0  0  0
  6  5  2  0  0  0  0
  7  1  1  0  0  0  0
  9  2  1  0  0  0  0
 12  4  1  0  0  0  0
 13 14  1  0  0  0  0
 13 21  1  0  0  0  0
 14 22  1  6  0  0  0
 14 15  1  0  0  0  0
 15 16  1  0  0  0  0
 15 24  1  0  0  0  0
 16 20  1  0  0  0  0
 17 16  2  0  0  0  0
 18 14  1  0  0  0  0
 19 18  2  0  0  0  0
 20 25  1  0  0  0  0
 23 15  1  0  0  0  0
 27 26  1  0  0  0  0
 27 28  1  0  0  0  0
 28 40  1  0  0  0  0
 29 28  2  0  0  0  0
 29 41  1  0  0  0  0
 30 29  1  0  0  0  0
 31 30  1  0  0  0  0
 31 43  1  0  0  0  0
 32 44  1  6  0  0  0
 32 33  1  0  0  0  0
 32 31  1  0  0  0  0
 33 45  1  0  0  0  0
 33 18  1  0  0  0  0
 34 32  1  0  0  0  0
 35 34  1  0  0  0  0
 36 37  1  0  0  0  0
 36 30  2  0  0  0  0
 37 27  2  0  0  0  0
 38 34  2  0  0  0  0
 39 26  1  0  0  0  0
 42 31  1  0  0  0  0
 46 36  1  0  0  0  0
 47 37  1  0  0  0  0
M  END
$$$$
