SED.pdb
 OpenBabel07022419073D

 42 41  0  0  1  0  0  0  0  0999 V2000
    3.9040   -4.3600    1.5890 O   0  0  0  0  0  0  0  0  0  0  0  0
    3.7060   -3.0420    1.1870 C   0  0  0  0  0  0  0  0  0  0  0  0
    2.3720   -2.5630    1.7710 C   0  0  2  0  0  0  0  0  0  0  0  0
    1.3090   -3.4060    1.2760 N   0  0  0  0  0  0  0  0  0  0  0  0
    2.1530   -1.1370    1.4550 C   0  0  0  0  0  0  0  0  0  0  0  0
    2.9910   -0.2780    1.8220 O   0  0  0  0  0  0  0  0  0  0  0  0
    3.0720   -4.8910    1.5670 H   0  0  0  0  0  0  0  0  0  0  0  0
    3.6700   -3.0540    0.0780 H   0  0  0  0  0  0  0  0  0  0  0  0
    4.5330   -2.4400    1.5730 H   0  0  0  0  0  0  0  0  0  0  0  0
    2.4380   -2.7010    2.8600 H   0  0  0  0  0  0  0  0  0  0  0  0
    0.9690   -4.0770    2.0270 H   0  0  0  0  0  0  0  0  0  0  0  0
    1.5240   -3.8800    0.3930 H   0  0  0  0  0  0  0  0  0  0  0  0
    1.0040   -0.6740    0.7350 N   0  0  0  0  0  0  0  0  0  0  0  0
    0.8210    0.7420    0.4410 C   0  0  1  0  0  0  0  0  0  0  0  0
    0.7530    0.9080   -1.0480 C   0  0  0  0  0  0  0  0  0  0  0  0
    1.9720    0.4480   -1.7840 C   0  0  0  0  0  0  0  0  0  0  0  0
    3.2140    1.1550   -1.4280 C   0  0  0  0  0  0  0  0  0  0  0  0
    3.2940    2.0960   -0.5980 O   0  0  0  0  0  0  0  0  0  0  0  0
   -0.4740    1.2390    1.0000 C   0  0  0  0  0  0  0  0  0  0  0  0
   -0.8470    2.4300    0.8590 O   0  0  0  0  0  0  0  0  0  0  0  0
    4.4180    0.7810   -2.0350 O   0  0  0  0  0  0  0  0  0  0  0  0
    0.3320   -1.4100    0.4440 H   0  0  0  0  0  0  0  0  0  0  0  0
    1.6740    1.3070    0.8260 H   0  0  0  0  0  0  0  0  0  0  0  0
   -0.1170    0.3890   -1.5020 H   0  0  0  0  0  0  0  0  0  0  0  0
    0.6420    2.0000   -1.2480 H   0  0  0  0  0  0  0  0  0  0  0  0
    1.8440    0.5760   -2.8870 H   0  0  0  0  0  0  0  0  0  0  0  0
    2.1560   -0.6480   -1.6470 H   0  0  0  0  0  0  0  0  0  0  0  0
    5.3070    1.0210   -1.6350 H   0  0  0  0  0  0  0  0  0  0  0  0
   -1.2800    0.3090    1.7050 N   0  0  0  0  0  0  0  0  0  0  0  0
   -2.5390    0.6640    2.2850 C   0  0  1  0  0  0  0  0  0  0  0  0
   -3.6060   -0.1930    1.5900 C   0  0  0  0  0  0  0  0  0  0  0  0
   -3.6500    0.0420    0.1470 C   0  0  0  0  0  0  0  0  0  0  0  0
   -4.2290    1.0610   -0.2970 O   0  0  0  0  0  0  0  0  0  0  0  0
   -2.6420    0.3820    3.7210 C   0  0  0  0  0  0  0  0  0  0  0  0
   -3.7300    0.6730    4.2890 O   0  0  0  0  0  0  0  0  0  0  0  0
   -3.0760   -0.8160   -0.7750 O   0  0  0  0  0  0  0  0  0  0  0  0
   -1.6560   -0.1720    4.4990 O   0  0  0  0  0  0  0  0  0  0  0  0
   -0.9600   -0.6750    1.8160 H   0  0  0  0  0  0  0  0  0  0  0  0
   -2.7760    1.7310    2.1110 H   0  0  0  0  0  0  0  0  0  0  0  0
   -3.3930   -1.2650    1.7680 H   0  0  0  0  0  0  0  0  0  0  0  0
   -4.5610    0.0640    2.0800 H   0  0  0  0  0  0  0  0  0  0  0  0
   -2.7650   -0.3970   -1.6520 H   0  0  0  0  0  0  0  0  0  0  0  0
  2  9  1  0  0  0  0
  2  1  1  0  0  0  0
  2  3  1  0  0  0  0
  3 10  1  1  0  0  0
  4  3  1  0  0  0  0
  4 11  1  0  0  0  0
  5  3  1  0  0  0  0
  5  6  2  0  0  0  0
  7  1  1  0  0  0  0
  8  2  1  0  0  0  0
 12  4  1  0  0  0  0
 13  5  1  0  0  0  0
 14 13  1  0  0  0  0
 14 23  1  1  0  0  0
 14 19  1  0  0  0  0
 15 14  1  0  0  0  0
 16 27  1  0  0  0  0
 16 17  1  0  0  0  0
 16 15  1  0  0  0  0
 17 18  2  0  0  0  0
 19 29  1  0  0  0  0
 20 19  2  0  0  0  0
 21 28  1  0  0  0  0
 21 17  1  0  0  0  0
 22 13  1  0  0  0  0
 24 15  1  0  0  0  0
 25 15  1  0  0  0  0
 26 16  1  0  0  0  0
 29 38  1  0  0  0  0
 29 30  1  0  0  0  0
 30 39  1  6  0  0  0
 30 34  1  0  0  0  0
 31 40  1  0  0  0  0
 31 41  1  0  0  0  0
 31 30  1  0  0  0  0
 32 31  1  0  0  0  0
 33 32  2  0  0  0  0
 34 35  2  0  0  0  0
 34 37  1  0  0  0  0
 36 32  1  0  0  0  0
 42 36  1  0  0  0  0
M  END
$$$$
