SEI.pdb
 OpenBabel07022419073D

 48 47  0  0  1  0  0  0  0  0999 V2000
    4.1740   -3.7340    2.7430 O   0  0  0  0  0  0  0  0  0  0  0  0
    4.0280   -2.6240    1.8800 C   0  0  0  0  0  0  0  0  0  0  0  0
    2.5950   -2.1750    2.0110 C   0  0  2  0  0  0  0  0  0  0  0  0
    1.6980   -3.2140    1.6360 N   0  0  0  0  0  0  0  0  0  0  0  0
    2.3320   -0.8740    1.3590 C   0  0  0  0  0  0  0  0  0  0  0  0
    3.1000    0.0790    1.6460 O   0  0  0  0  0  0  0  0  0  0  0  0
    3.2890   -4.2080    2.8420 H   0  0  0  0  0  0  0  0  0  0  0  0
    4.2800   -2.9630    0.8590 H   0  0  0  0  0  0  0  0  0  0  0  0
    4.7090   -1.8060    2.2280 H   0  0  0  0  0  0  0  0  0  0  0  0
    2.4390   -1.9930    3.1160 H   0  0  0  0  0  0  0  0  0  0  0  0
    0.7290   -3.1200    1.9440 H   0  0  0  0  0  0  0  0  0  0  0  0
    1.8680   -3.6710    0.7360 H   0  0  0  0  0  0  0  0  0  0  0  0
    1.2700   -0.6620    0.4410 N   0  0  0  0  0  0  0  0  0  0  0  0
    1.0130    0.6220   -0.2000 C   0  0  1  0  0  0  0  0  0  0  0  0
    1.1790    0.4060   -1.6810 C   0  0  0  0  0  0  0  0  0  0  0  0
    2.5560   -0.0660   -2.0450 C   0  0  0  0  0  0  0  0  0  0  0  0
    3.6450    0.8530   -1.7220 C   0  0  0  0  0  0  0  0  0  0  0  0
    3.4230    1.9770   -1.2370 O   0  0  0  0  0  0  0  0  0  0  0  0
   -0.3600    1.1110    0.1230 C   0  0  0  0  0  0  0  0  0  0  0  0
   -0.7370    2.1890   -0.3400 O   0  0  0  0  0  0  0  0  0  0  0  0
    4.9630    0.4970   -1.9480 O   0  0  0  0  0  0  0  0  0  0  0  0
    0.6590   -1.4890    0.2350 H   0  0  0  0  0  0  0  0  0  0  0  0
    1.7850    1.3140    0.1570 H   0  0  0  0  0  0  0  0  0  0  0  0
    0.4850   -0.4290   -1.9960 H   0  0  0  0  0  0  0  0  0  0  0  0
    0.9100    1.3190   -2.2550 H   0  0  0  0  0  0  0  0  0  0  0  0
    2.5640   -0.1860   -3.1680 H   0  0  0  0  0  0  0  0  0  0  0  0
    2.7530   -1.0980   -1.6560 H   0  0  0  0  0  0  0  0  0  0  0  0
    5.7240    1.0690   -1.5800 H   0  0  0  0  0  0  0  0  0  0  0  0
   -3.5550   -1.9680    2.5310 C   0  0  0  0  0  0  0  0  0  0  0  0
   -3.5010   -1.6240    1.0840 C   0  0  0  0  0  0  0  0  0  0  0  0
   -3.5850   -0.1910    0.7350 C   0  0  2  0  0  0  0  0  0  0  0  0
   -3.5130   -0.0480   -0.7730 C   0  0  0  0  0  0  0  0  0  0  0  0
   -2.5400    0.7060    1.3230 C   0  0  2  0  0  0  0  0  0  0  0  0
   -1.1970    0.3440    0.9400 N   0  0  0  0  0  0  0  0  0  0  0  0
   -2.7050    0.9550    2.7600 C   0  0  0  0  0  0  0  0  0  0  0  0
   -1.7570    0.8560    3.5540 O   0  0  0  0  0  0  0  0  0  0  0  0
   -3.9390    1.3070    3.2480 O   0  0  0  0  0  0  0  0  0  0  0  0
   -2.5150   -1.8540    2.9410 H   0  0  0  0  0  0  0  0  0  0  0  0
   -3.7690   -3.0590    2.6150 H   0  0  0  0  0  0  0  0  0  0  0  0
   -4.3090   -1.4510    3.1170 H   0  0  0  0  0  0  0  0  0  0  0  0
   -4.3410   -2.1470    0.5770 H   0  0  0  0  0  0  0  0  0  0  0  0
   -2.5740   -2.0850    0.6710 H   0  0  0  0  0  0  0  0  0  0  0  0
   -4.5740    0.2250    1.0340 H   0  0  0  0  0  0  0  0  0  0  0  0
   -2.4790    0.2030   -1.1070 H   0  0  0  0  0  0  0  0  0  0  0  0
   -4.2220    0.7200   -1.1470 H   0  0  0  0  0  0  0  0  0  0  0  0
   -3.7690   -1.0090   -1.2640 H   0  0  0  0  0  0  0  0  0  0  0  0
   -2.7250    1.7110    0.8290 H   0  0  0  0  0  0  0  0  0  0  0  0
   -0.8190   -0.5600    1.3000 H   0  0  0  0  0  0  0  0  0  0  0  0
  1  7  1  0  0  0  0
  2  3  1  0  0  0  0
  2  9  1  0  0  0  0
  2  1  1  0  0  0  0
  3 10  1  1  0  0  0
  4 11  1  0  0  0  0
  4  3  1  0  0  0  0
  5  6  2  0  0  0  0
  5  3  1  0  0  0  0
  8  2  1  0  0  0  0
 12  4  1  0  0  0  0
 13  5  1  0  0  0  0
 14 19  1  0  0  0  0
 14 23  1  1  0  0  0
 14 13  1  0  0  0  0
 15 14  1  0  0  0  0
 16 17  1  0  0  0  0
 16 15  1  0  0  0  0
 16 27  1  0  0  0  0
 17 18  2  0  0  0  0
 19 34  1  0  0  0  0
 20 19  2  0  0  0  0
 21 17  1  0  0  0  0
 21 28  1  0  0  0  0
 22 13  1  0  0  0  0
 24 15  1  0  0  0  0
 25 15  1  0  0  0  0
 26 16  1  0  0  0  0
 29 39  1  0  0  0  0
 29 38  1  0  0  0  0
 29 40  1  0  0  0  0
 30 29  1  0  0  0  0
 31 43  1  1  0  0  0
 31 30  1  0  0  0  0
 31 33  1  0  0  0  0
 32 31  1  0  0  0  0
 33 47  1  6  0  0  0
 33 35  1  0  0  0  0
 34 48  1  0  0  0  0
 34 33  1  0  0  0  0
 35 37  2  0  0  0  0
 35 36  1  0  0  0  0
 41 30  1  0  0  0  0
 42 30  1  0  0  0  0
 44 32  1  0  0  0  0
 45 32  1  0  0  0  0
 46 32  1  0  0  0  0
M  END
$$$$
