SER.pdb
 OpenBabel07022419073D

 52 51  0  0  1  0  0  0  0  0999 V2000
    4.2960   -0.5720    5.2430 O   0  0  0  0  0  0  0  0  0  0  0  0
    4.6420   -1.5830    4.3270 C   0  0  0  0  0  0  0  0  0  0  0  0
    3.4240   -2.0440    3.5850 C   0  0  2  0  0  0  0  0  0  0  0  0
    3.7790   -3.0800    2.6470 N   0  0  0  0  0  0  0  0  0  0  0  0
    2.7720   -0.8860    2.8710 C   0  0  0  0  0  0  0  0  0  0  0  0
    2.4560    0.0920    3.6090 O   0  0  0  0  0  0  0  0  0  0  0  0
    3.4870   -0.8780    5.7600 H   0  0  0  0  0  0  0  0  0  0  0  0
    5.4140   -1.1590    3.6750 H   0  0  0  0  0  0  0  0  0  0  0  0
    5.0960   -2.4090    4.9020 H   0  0  0  0  0  0  0  0  0  0  0  0
    2.7090   -2.4850    4.3120 H   0  0  0  0  0  0  0  0  0  0  0  0
    4.5800   -3.6650    2.9430 H   0  0  0  0  0  0  0  0  0  0  0  0
    2.9780   -3.6480    2.3150 H   0  0  0  0  0  0  0  0  0  0  0  0
    2.5510   -0.9360    1.4820 N   0  0  0  0  0  0  0  0  0  0  0  0
    1.9000    0.2490    0.8350 C   0  0  1  0  0  0  0  0  0  0  0  0
    2.8850    0.8470   -0.0730 C   0  0  0  0  0  0  0  0  0  0  0  0
    2.5130    2.0140   -0.8870 C   0  0  0  0  0  0  0  0  0  0  0  0
    1.5560    1.8040   -1.9760 C   0  0  0  0  0  0  0  0  0  0  0  0
    1.1380    0.6820   -2.3120 O   0  0  0  0  0  0  0  0  0  0  0  0
    0.5670   -0.1220    0.4010 C   0  0  0  0  0  0  0  0  0  0  0  0
    0.3530   -1.3860    0.2630 O   0  0  0  0  0  0  0  0  0  0  0  0
    1.1040    2.9350   -2.6640 O   0  0  0  0  0  0  0  0  0  0  0  0
    2.8000   -1.7210    0.8710 H   0  0  0  0  0  0  0  0  0  0  0  0
    1.7930    0.9830    1.7040 H   0  0  0  0  0  0  0  0  0  0  0  0
    3.2990    0.0780   -0.8150 H   0  0  0  0  0  0  0  0  0  0  0  0
    3.7930    1.1140    0.5750 H   0  0  0  0  0  0  0  0  0  0  0  0
    2.0030    2.7620   -0.1840 H   0  0  0  0  0  0  0  0  0  0  0  0
    3.4500    2.5360   -1.2740 H   0  0  0  0  0  0  0  0  0  0  0  0
    0.8450    2.8670   -3.6550 H   0  0  0  0  0  0  0  0  0  0  0  0
   -3.2710   -4.3640   -1.6460 N   0  0  0  0  0  0  0  0  0  0  0  0
   -4.1330   -3.6730   -0.7560 C   0  0  0  0  0  0  0  0  0  0  0  0
   -5.0830   -4.2320   -0.0850 N   0  0  0  0  0  0  0  0  0  0  0  0
   -3.9710   -2.2430   -0.5570 N   0  0  0  0  0  0  0  0  0  0  0  0
   -4.4470   -1.6000    0.6100 C   0  0  0  0  0  0  0  0  0  0  0  0
   -4.1610   -0.1700    0.7650 C   0  0  0  0  0  0  0  0  0  0  0  0
   -2.7920    0.3300    0.8710 C   0  0  0  0  0  0  0  0  0  0  0  0
   -1.8380    0.1820   -0.2680 C   0  0  2  0  0  0  0  0  0  0  0  0
   -0.5180    0.7490    0.1330 N   0  0  0  0  0  0  0  0  0  0  0  0
   -2.3100    0.9890   -1.4120 C   0  0  0  0  0  0  0  0  0  0  0  0
   -1.6470    1.9620   -1.8900 O   0  0  0  0  0  0  0  0  0  0  0  0
   -3.5220    0.7690   -2.0790 O   0  0  0  0  0  0  0  0  0  0  0  0
   -2.2680   -4.0960   -1.7700 H   0  0  0  0  0  0  0  0  0  0  0  0
   -3.5930   -5.1820   -2.2280 H   0  0  0  0  0  0  0  0  0  0  0  0
   -5.2930   -5.2540   -0.1480 H   0  0  0  0  0  0  0  0  0  0  0  0
   -3.5110   -1.7500   -1.3200 H   0  0  0  0  0  0  0  0  0  0  0  0
   -5.5890   -1.6860    0.5550 H   0  0  0  0  0  0  0  0  0  0  0  0
   -4.2390   -2.1980    1.5470 H   0  0  0  0  0  0  0  0  0  0  0  0
   -4.6870    0.1550    1.7310 H   0  0  0  0  0  0  0  0  0  0  0  0
   -4.7770    0.3860   -0.0080 H   0  0  0  0  0  0  0  0  0  0  0  0
   -2.3500   -0.0190    1.8410 H   0  0  0  0  0  0  0  0  0  0  0  0
   -2.8700    1.4530    1.0430 H   0  0  0  0  0  0  0  0  0  0  0  0
   -1.6170   -0.8260   -0.5620 H   0  0  0  0  0  0  0  0  0  0  0  0
   -0.3950    1.7600    0.2140 H   0  0  0  0  0  0  0  0  0  0  0  0
  1  7  1  0  0  0  0
  2  9  1  0  0  0  0
  2  1  1  0  0  0  0
  3 10  1  1  0  0  0
  3  2  1  0  0  0  0
  4 11  1  0  0  0  0
  4  3  1  0  0  0  0
  5  3  1  0  0  0  0
  5  6  2  0  0  0  0
  8  2  1  0  0  0  0
 12  4  1  0  0  0  0
 13  5  1  0  0  0  0
 14 13  1  0  0  0  0
 14 23  1  1  0  0  0
 15 25  1  0  0  0  0
 15 14  1  0  0  0  0
 16 26  1  0  0  0  0
 16 15  1  0  0  0  0
 17 16  1  0  0  0  0
 18 17  2  0  0  0  0
 19 14  1  0  0  0  0
 20 19  2  0  0  0  0
 21 17  1  0  0  0  0
 22 13  1  0  0  0  0
 24 15  1  0  0  0  0
 27 16  1  0  0  0  0
 28 21  1  0  0  0  0
 29 30  1  0  0  0  0
 30 32  1  0  0  0  0
 30 31  2  0  0  0  0
 32 33  1  0  0  0  0
 33 34  1  0  0  0  0
 33 46  1  0  0  0  0
 34 35  1  0  0  0  0
 34 47  1  0  0  0  0
 35 50  1  0  0  0  0
 35 49  1  0  0  0  0
 36 51  1  6  0  0  0
 36 37  1  0  0  0  0
 36 35  1  0  0  0  0
 37 52  1  0  0  0  0
 37 19  1  0  0  0  0
 38 36  1  0  0  0  0
 39 38  1  0  0  0  0
 40 38  2  0  0  0  0
 41 29  1  0  0  0  0
 42 29  1  0  0  0  0
 43 31  1  0  0  0  0
 44 32  1  0  0  0  0
 45 33  1  0  0  0  0
 48 34  1  0  0  0  0
M  END
$$$$
