SET.pdb
 OpenBabel07022419073D

 43 42  0  0  1  0  0  0  0  0999 V2000
   -4.7700    1.3660    1.0320 O   0  0  0  0  0  0  0  0  0  0  0  0
   -4.1210    2.2370    0.1590 C   0  0  0  0  0  0  0  0  0  0  0  0
   -2.6400    2.3460    0.4990 C   0  0  2  0  0  0  0  0  0  0  0  0
   -1.9260    3.2360   -0.3740 N   0  0  0  0  0  0  0  0  0  0  0  0
   -2.0030    1.0330    0.6970 C   0  0  0  0  0  0  0  0  0  0  0  0
   -2.5300    0.1620    1.3810 O   0  0  0  0  0  0  0  0  0  0  0  0
   -4.4050    1.4130    1.9660 H   0  0  0  0  0  0  0  0  0  0  0  0
   -4.2990    1.8680   -0.8670 H   0  0  0  0  0  0  0  0  0  0  0  0
   -4.5840    3.2330    0.2780 H   0  0  0  0  0  0  0  0  0  0  0  0
   -2.6280    2.8460    1.5150 H   0  0  0  0  0  0  0  0  0  0  0  0
   -2.0670    3.0500   -1.3930 H   0  0  0  0  0  0  0  0  0  0  0  0
   -2.1680    4.2150   -0.0920 H   0  0  0  0  0  0  0  0  0  0  0  0
   -0.7230    0.7030    0.0960 N   0  0  0  0  0  0  0  0  0  0  0  0
   -0.1070   -0.5760    0.2880 C   0  0  1  0  0  0  0  0  0  0  0  0
    0.0330   -1.4240   -0.9270 C   0  0  0  0  0  0  0  0  0  0  0  0
    0.8320   -0.9500   -2.0590 C   0  0  0  0  0  0  0  0  0  0  0  0
    0.3020    0.3100   -2.6130 C   0  0  0  0  0  0  0  0  0  0  0  0
    0.9330    1.3580   -2.8110 O   0  0  0  0  0  0  0  0  0  0  0  0
    1.0970   -0.5330    1.1530 C   0  0  0  0  0  0  0  0  0  0  0  0
    1.5880    0.5000    1.6680 O   0  0  0  0  0  0  0  0  0  0  0  0
   -1.0660    0.2980   -2.9450 O   0  0  0  0  0  0  0  0  0  0  0  0
   -0.3300    1.4910   -0.4620 H   0  0  0  0  0  0  0  0  0  0  0  0
   -0.8400   -1.1560    0.9400 H   0  0  0  0  0  0  0  0  0  0  0  0
    0.4500   -2.4210   -0.5980 H   0  0  0  0  0  0  0  0  0  0  0  0
   -1.0080   -1.6990   -1.2550 H   0  0  0  0  0  0  0  0  0  0  0  0
    1.9290   -0.9200   -1.8910 H   0  0  0  0  0  0  0  0  0  0  0  0
    0.7270   -1.6990   -2.9050 H   0  0  0  0  0  0  0  0  0  0  0  0
   -1.5220    1.0930   -3.3830 H   0  0  0  0  0  0  0  0  0  0  0  0
    3.8860   -2.8510    4.3470 C   0  0  0  0  0  0  0  0  0  0  0  0
    2.6910   -2.6440    3.4690 C   0  0  1  0  0  0  0  0  0  0  0  0
    1.6030   -2.1290    4.1750 O   0  0  0  0  0  0  0  0  0  0  0  0
    2.9780   -1.7590    2.2990 C   0  0  2  0  0  0  0  0  0  0  0  0
    1.7760   -1.7370    1.4450 N   0  0  0  0  0  0  0  0  0  0  0  0
    4.1430   -2.2420    1.5200 C   0  0  0  0  0  0  0  0  0  0  0  0
    5.2790   -2.3560    2.0130 O   0  0  0  0  0  0  0  0  0  0  0  0
    3.9640   -2.5800    0.1890 O   0  0  0  0  0  0  0  0  0  0  0  0
    3.5040   -3.3810    5.2730 H   0  0  0  0  0  0  0  0  0  0  0  0
    4.3640   -1.9050    4.6740 H   0  0  0  0  0  0  0  0  0  0  0  0
    4.6320   -3.5350    3.9060 H   0  0  0  0  0  0  0  0  0  0  0  0
    2.3980   -3.6500    3.0670 H   0  0  0  0  0  0  0  0  0  0  0  0
    0.8050   -2.6820    3.9960 H   0  0  0  0  0  0  0  0  0  0  0  0
    3.1300   -0.7300    2.6390 H   0  0  0  0  0  0  0  0  0  0  0  0
    1.4650   -2.6850    1.0780 H   0  0  0  0  0  0  0  0  0  0  0  0
  1  7  1  0  0  0  0
  2  9  1  0  0  0  0
  2  3  1  0  0  0  0
  2  1  1  0  0  0  0
  3  5  1  0  0  0  0
  3 10  1  1  0  0  0
  4 12  1  0  0  0  0
  4  3  1  0  0  0  0
  5  6  2  0  0  0  0
  8  2  1  0  0  0  0
 11  4  1  0  0  0  0
 13 14  1  0  0  0  0
 13  5  1  0  0  0  0
 14 23  1  1  0  0  0
 14 19  1  0  0  0  0
 15 24  1  0  0  0  0
 15 14  1  0  0  0  0
 16 26  1  0  0  0  0
 16 15  1  0  0  0  0
 17 16  1  0  0  0  0
 18 17  2  0  0  0  0
 19 33  1  0  0  0  0
 19 20  2  0  0  0  0
 21 17  1  0  0  0  0
 22 13  1  0  0  0  0
 25 15  1  0  0  0  0
 27 16  1  0  0  0  0
 28 21  1  0  0  0  0
 29 38  1  0  0  0  0
 29 37  1  0  0  0  0
 30 40  1  6  0  0  0
 30 31  1  0  0  0  0
 30 29  1  0  0  0  0
 32 42  1  1  0  0  0
 32 30  1  0  0  0  0
 33 32  1  0  0  0  0
 34 35  1  0  0  0  0
 34 32  1  0  0  0  0
 36 34  2  0  0  0  0
 39 29  1  0  0  0  0
 41 31  1  0  0  0  0
 43 33  1  0  0  0  0
M  END
$$$$
