SEW.pdb
 OpenBabel07022419073D

 53 54  0  0  1  0  0  0  0  0999 V2000
    7.0330    0.7770   -0.8420 O   0  0  0  0  0  0  0  0  0  0  0  0
    6.1140    0.5360    0.1600 C   0  0  0  0  0  0  0  0  0  0  0  0
    5.0480   -0.4750   -0.2730 C   0  0  2  0  0  0  0  0  0  0  0  0
    4.3820    0.1090   -1.4180 N   0  0  0  0  0  0  0  0  0  0  0  0
    4.0780   -0.5900    0.8390 C   0  0  0  0  0  0  0  0  0  0  0  0
    4.3480   -1.2570    1.8880 O   0  0  0  0  0  0  0  0  0  0  0  0
    6.5270    1.1510   -1.6160 H   0  0  0  0  0  0  0  0  0  0  0  0
    6.5640    0.2620    1.1350 H   0  0  0  0  0  0  0  0  0  0  0  0
    5.5960    1.5240    0.3350 H   0  0  0  0  0  0  0  0  0  0  0  0
    5.5110   -1.4540   -0.5170 H   0  0  0  0  0  0  0  0  0  0  0  0
    4.9600    0.0430   -2.2860 H   0  0  0  0  0  0  0  0  0  0  0  0
    3.4260   -0.3130   -1.5660 H   0  0  0  0  0  0  0  0  0  0  0  0
    2.8200    0.0150    0.8040 N   0  0  0  0  0  0  0  0  0  0  0  0
    1.8770   -0.1290    1.9050 C   0  0  1  0  0  0  0  0  0  0  0  0
    1.5860    1.2470    2.5110 C   0  0  0  0  0  0  0  0  0  0  0  0
    0.6230    1.2240    3.6380 C   0  0  0  0  0  0  0  0  0  0  0  0
    0.9980    0.4130    4.7970 C   0  0  0  0  0  0  0  0  0  0  0  0
    2.0610   -0.2450    4.8900 O   0  0  0  0  0  0  0  0  0  0  0  0
    0.5810   -0.6830    1.4090 C   0  0  0  0  0  0  0  0  0  0  0  0
   -0.3480   -1.0240    2.1820 O   0  0  0  0  0  0  0  0  0  0  0  0
    0.1470    0.3220    5.9210 O   0  0  0  0  0  0  0  0  0  0  0  0
    2.5080    0.5980    0.0020 H   0  0  0  0  0  0  0  0  0  0  0  0
    2.3360   -0.7970    2.6480 H   0  0  0  0  0  0  0  0  0  0  0  0
    2.5530    1.7430    2.7810 H   0  0  0  0  0  0  0  0  0  0  0  0
    1.1650    1.9270    1.7190 H   0  0  0  0  0  0  0  0  0  0  0  0
    0.5030    2.2950    4.0110 H   0  0  0  0  0  0  0  0  0  0  0  0
   -0.4160    0.9670    3.3080 H   0  0  0  0  0  0  0  0  0  0  0  0
    0.5300    0.2880    6.8640 H   0  0  0  0  0  0  0  0  0  0  0  0
    0.2990   -0.8680    0.0140 N   0  0  0  0  0  0  0  0  0  0  0  0
   -0.9680   -1.4140   -0.4310 C   0  0  1  0  0  0  0  0  0  0  0  0
   -1.9600   -0.3100   -0.7420 C   0  0  0  0  0  0  0  0  0  0  0  0
   -3.2340   -0.9140   -1.1880 C   0  0  0  0  0  0  0  0  0  0  0  0
   -3.7650   -0.9530   -2.4880 C   0  0  0  0  0  0  0  0  0  0  0  0
   -4.9490   -1.5810   -2.4740 N   0  0  0  0  0  0  0  0  0  0  0  0
   -5.2570   -1.9760   -1.2260 C   0  0  0  0  0  0  0  0  0  0  0  0
   -6.3490   -2.6570   -0.7010 C   0  0  0  0  0  0  0  0  0  0  0  0
   -6.4210   -2.9510    0.6420 C   0  0  0  0  0  0  0  0  0  0  0  0
   -5.3750   -2.5460    1.4430 C   0  0  0  0  0  0  0  0  0  0  0  0
   -4.2870   -1.8680    0.9210 C   0  0  0  0  0  0  0  0  0  0  0  0
   -4.2070   -1.5690   -0.4280 C   0  0  0  0  0  0  0  0  0  0  0  0
   -0.8610   -2.3740   -1.5250 C   0  0  0  0  0  0  0  0  0  0  0  0
    0.2340   -2.6790   -2.0470 O   0  0  0  0  0  0  0  0  0  0  0  0
   -2.0060   -2.9820   -2.0190 O   0  0  0  0  0  0  0  0  0  0  0  0
    1.0290   -0.6020   -0.6630 H   0  0  0  0  0  0  0  0  0  0  0  0
   -1.4030   -1.9310    0.4660 H   0  0  0  0  0  0  0  0  0  0  0  0
   -2.1070    0.3880    0.0810 H   0  0  0  0  0  0  0  0  0  0  0  0
   -1.5390    0.2120   -1.6490 H   0  0  0  0  0  0  0  0  0  0  0  0
   -3.2280   -0.5090   -3.3350 H   0  0  0  0  0  0  0  0  0  0  0  0
   -5.5700   -1.7500   -3.3040 H   0  0  0  0  0  0  0  0  0  0  0  0
   -7.1750   -2.9810   -1.3190 H   0  0  0  0  0  0  0  0  0  0  0  0
   -7.2780   -3.4910    1.0680 H   0  0  0  0  0  0  0  0  0  0  0  0
   -5.4250   -2.7740    2.4980 H   0  0  0  0  0  0  0  0  0  0  0  0
   -3.4630   -1.5440    1.5490 H   0  0  0  0  0  0  0  0  0  0  0  0
  1  2  1  0  0  0  0
  2  9  1  0  0  0  0
  2  8  1  0  0  0  0
  3 10  1  6  0  0  0
  3  2  1  0  0  0  0
  3  5  1  0  0  0  0
  4  3  1  0  0  0  0
  5  6  2  0  0  0  0
  7  1  1  0  0  0  0
 11  4  1  0  0  0  0
 12  4  1  0  0  0  0
 13  5  1  0  0  0  0
 13 14  1  0  0  0  0
 14 15  1  0  0  0  0
 14 23  1  1  0  0  0
 15 24  1  0  0  0  0
 15 16  1  0  0  0  0
 16 26  1  0  0  0  0
 16 17  1  0  0  0  0
 17 18  2  0  0  0  0
 17 21  1  0  0  0  0
 19 14  1  0  0  0  0
 19 20  2  0  0  0  0
 21 28  1  0  0  0  0
 22 13  1  0  0  0  0
 25 15  1  0  0  0  0
 27 16  1  0  0  0  0
 29 19  1  0  0  0  0
 30 29  1  0  0  0  0
 30 45  1  1  0  0  0
 31 30  1  0  0  0  0
 31 46  1  0  0  0  0
 32 31  1  0  0  0  0
 32 40  1  0  0  0  0
 33 34  1  0  0  0  0
 33 32  2  0  0  0  0
 34 35  1  0  0  0  0
 35 36  2  0  0  0  0
 35 40  1  0  0  0  0
 36 37  1  0  0  0  0
 37 51  1  0  0  0  0
 37 38  2  0  0  0  0
 38 52  1  0  0  0  0
 39 38  1  0  0  0  0
 39 53  1  0  0  0  0
 40 39  2  0  0  0  0
 41 30  1  0  0  0  0
 42 41  2  0  0  0  0
 43 41  1  0  0  0  0
 44 29  1  0  0  0  0
 47 31  1  0  0  0  0
 48 33  1  0  0  0  0
 49 34  1  0  0  0  0
 50 36  1  0  0  0  0
M  END
$$$$
