SEY.pdb
 OpenBabel07022419073D

 50 50  0  0  1  0  0  0  0  0999 V2000
   -0.4130   -4.6040    2.2340 O   0  0  0  0  0  0  0  0  0  0  0  0
    0.8150   -4.4670    1.5910 C   0  0  0  0  0  0  0  0  0  0  0  0
    1.8000   -3.8070    2.5270 C   0  0  2  0  0  0  0  0  0  0  0  0
    1.9230   -4.6680    3.6910 N   0  0  0  0  0  0  0  0  0  0  0  0
    1.2840   -2.4840    2.9990 C   0  0  0  0  0  0  0  0  0  0  0  0
    1.0320   -2.2630    4.2210 O   0  0  0  0  0  0  0  0  0  0  0  0
   -0.4480   -3.8940    2.9340 H   0  0  0  0  0  0  0  0  0  0  0  0
    0.7450   -3.8410    0.6770 H   0  0  0  0  0  0  0  0  0  0  0  0
    1.2220   -5.4740    1.3590 H   0  0  0  0  0  0  0  0  0  0  0  0
    2.7840   -3.6990    2.0260 H   0  0  0  0  0  0  0  0  0  0  0  0
    2.1840   -5.6380    3.4080 H   0  0  0  0  0  0  0  0  0  0  0  0
    0.9840   -4.7280    4.1440 H   0  0  0  0  0  0  0  0  0  0  0  0
    1.0520   -1.4080    2.0950 N   0  0  0  0  0  0  0  0  0  0  0  0
    0.5500   -0.1190    2.5440 C   0  0  1  0  0  0  0  0  0  0  0  0
    1.5470    0.9890    2.3170 C   0  0  0  0  0  0  0  0  0  0  0  0
    1.9170    1.1670    0.8740 C   0  0  0  0  0  0  0  0  0  0  0  0
    2.9000    2.2880    0.8060 C   0  0  0  0  0  0  0  0  0  0  0  0
    3.3700    2.6380   -0.3130 O   0  0  0  0  0  0  0  0  0  0  0  0
   -0.7650    0.1480    1.9290 C   0  0  0  0  0  0  0  0  0  0  0  0
   -1.3750    1.2120    2.1840 O   0  0  0  0  0  0  0  0  0  0  0  0
    3.3330    2.9760    1.9230 O   0  0  0  0  0  0  0  0  0  0  0  0
    1.2560   -1.5810    1.0860 H   0  0  0  0  0  0  0  0  0  0  0  0
    0.4100   -0.1830    3.6570 H   0  0  0  0  0  0  0  0  0  0  0  0
    2.4640    0.7290    2.8710 H   0  0  0  0  0  0  0  0  0  0  0  0
    1.1220    1.9160    2.7040 H   0  0  0  0  0  0  0  0  0  0  0  0
    2.4320    0.2810    0.4520 H   0  0  0  0  0  0  0  0  0  0  0  0
    1.0690    1.4560    0.2360 H   0  0  0  0  0  0  0  0  0  0  0  0
    3.6240    3.9580    1.8730 H   0  0  0  0  0  0  0  0  0  0  0  0
    1.1760    2.7360   -3.5560 O   0  0  0  0  0  0  0  0  0  0  0  0
    0.2230    1.9050   -2.9410 C   0  0  0  0  0  0  0  0  0  0  0  0
   -1.0840    2.3160   -2.7510 C   0  0  0  0  0  0  0  0  0  0  0  0
   -2.0400    1.5330   -2.1560 C   0  0  0  0  0  0  0  0  0  0  0  0
   -1.7010    0.2790   -1.7210 C   0  0  0  0  0  0  0  0  0  0  0  0
   -2.6380   -0.6500   -1.0690 C   0  0  0  0  0  0  0  0  0  0  0  0
   -2.6790   -0.5130    0.4310 C   0  0  2  0  0  0  0  0  0  0  0  0
   -1.3920   -0.7600    1.0400 N   0  0  0  0  0  0  0  0  0  0  0  0
   -3.6110   -1.5480    0.9310 C   0  0  0  0  0  0  0  0  0  0  0  0
   -4.7930   -1.5230    0.5280 O   0  0  0  0  0  0  0  0  0  0  0  0
   -0.4030   -0.1470   -1.9010 C   0  0  0  0  0  0  0  0  0  0  0  0
    0.5440    0.6430   -2.4970 C   0  0  0  0  0  0  0  0  0  0  0  0
   -3.2380   -2.5360    1.8170 O   0  0  0  0  0  0  0  0  0  0  0  0
    1.7730    2.2900   -4.2670 H   0  0  0  0  0  0  0  0  0  0  0  0
   -1.3110    3.3160   -3.1100 H   0  0  0  0  0  0  0  0  0  0  0  0
   -3.0240    1.9030   -2.0390 H   0  0  0  0  0  0  0  0  0  0  0  0
   -3.6560   -0.4100   -1.4510 H   0  0  0  0  0  0  0  0  0  0  0  0
   -2.3400   -1.6860   -1.3170 H   0  0  0  0  0  0  0  0  0  0  0  0
   -3.0540    0.4600    0.7700 H   0  0  0  0  0  0  0  0  0  0  0  0
   -0.8800   -1.6550    0.8240 H   0  0  0  0  0  0  0  0  0  0  0  0
   -0.0870   -1.1500   -1.5660 H   0  0  0  0  0  0  0  0  0  0  0  0
    1.5620    0.2990   -2.6350 H   0  0  0  0  0  0  0  0  0  0  0  0
  1  7  1  0  0  0  0
  2  1  1  0  0  0  0
  2  3  1  0  0  0  0
  3 10  1  6  0  0  0
  3  5  1  0  0  0  0
  3  4  1  0  0  0  0
  4 12  1  0  0  0  0
  5  6  2  0  0  0  0
  8  2  1  0  0  0  0
  9  2  1  0  0  0  0
 11  4  1  0  0  0  0
 13 14  1  0  0  0  0
 13  5  1  0  0  0  0
 14 23  1  1  0  0  0
 15 14  1  0  0  0  0
 15 25  1  0  0  0  0
 15 24  1  0  0  0  0
 16 15  1  0  0  0  0
 17 16  1  0  0  0  0
 17 21  1  0  0  0  0
 18 17  2  0  0  0  0
 19 20  2  0  0  0  0
 19 14  1  0  0  0  0
 22 13  1  0  0  0  0
 26 16  1  0  0  0  0
 27 16  1  0  0  0  0
 28 21  1  0  0  0  0
 29 30  1  0  0  0  0
 30 31  2  0  0  0  0
 30 40  1  0  0  0  0
 31 32  1  0  0  0  0
 32 44  1  0  0  0  0
 32 33  2  0  0  0  0
 33 34  1  0  0  0  0
 34 35  1  0  0  0  0
 35 47  1  1  0  0  0
 35 37  1  0  0  0  0
 35 36  1  0  0  0  0
 36 19  1  0  0  0  0
 37 41  1  0  0  0  0
 38 37  2  0  0  0  0
 39 33  1  0  0  0  0
 39 49  1  0  0  0  0
 40 39  2  0  0  0  0
 42 29  1  0  0  0  0
 43 31  1  0  0  0  0
 45 34  1  0  0  0  0
 46 34  1  0  0  0  0
 48 36  1  0  0  0  0
 50 40  1  0  0  0  0
M  END
$$$$
