SFK.pdb
 OpenBabel07022419093D

 54 54  0  0  1  0  0  0  0  0999 V2000
    3.5550   -2.4740    4.7380 O   0  0  0  0  0  0  0  0  0  0  0  0
    4.0840   -3.2190    3.7160 C   0  0  0  0  0  0  0  0  0  0  0  0
    3.0620   -3.5540    2.6570 C   0  0  2  0  0  0  0  0  0  0  0  0
    3.6500   -4.3460    1.5900 N   0  0  0  0  0  0  0  0  0  0  0  0
    2.4240   -2.3590    2.0530 C   0  0  0  0  0  0  0  0  0  0  0  0
    2.5200   -2.1670    0.8080 O   0  0  0  0  0  0  0  0  0  0  0  0
    2.9780   -3.0800    5.2850 H   0  0  0  0  0  0  0  0  0  0  0  0
    4.4380   -4.1760    4.1360 H   0  0  0  0  0  0  0  0  0  0  0  0
    4.9530   -2.7480    3.2170 H   0  0  0  0  0  0  0  0  0  0  0  0
    2.2570   -4.1680    3.1070 H   0  0  0  0  0  0  0  0  0  0  0  0
    2.9870   -5.0440    1.2090 H   0  0  0  0  0  0  0  0  0  0  0  0
    4.0840   -3.7440    0.8590 H   0  0  0  0  0  0  0  0  0  0  0  0
    1.6970   -1.4000    2.8050 N   0  0  0  0  0  0  0  0  0  0  0  0
    1.0680   -0.2140    2.1760 C   0  0  1  0  0  0  0  0  0  0  0  0
    2.1740    0.6740    1.7900 C   0  0  0  0  0  0  0  0  0  0  0  0
    1.8570    1.9470    1.1410 C   0  0  0  0  0  0  0  0  0  0  0  0
    1.8390    2.1070   -0.2270 C   0  0  0  0  0  0  0  0  0  0  0  0
    1.5410    3.3030   -0.8340 C   0  0  0  0  0  0  0  0  0  0  0  0
    1.2390    4.4220   -0.0850 C   0  0  0  0  0  0  0  0  0  0  0  0
    1.2550    4.2660    1.2850 C   0  0  0  0  0  0  0  0  0  0  0  0
    1.5500    3.0820    1.9020 C   0  0  0  0  0  0  0  0  0  0  0  0
    0.0770   -0.6220    1.2030 C   0  0  0  0  0  0  0  0  0  0  0  0
   -0.0520   -1.8930    1.0140 O   0  0  0  0  0  0  0  0  0  0  0  0
    1.6270   -1.5770    3.8290 H   0  0  0  0  0  0  0  0  0  0  0  0
    0.5280    0.2950    3.0430 H   0  0  0  0  0  0  0  0  0  0  0  0
    2.9060    0.8400    2.6420 H   0  0  0  0  0  0  0  0  0  0  0  0
    2.8170    0.1100    1.0440 H   0  0  0  0  0  0  0  0  0  0  0  0
    2.0750    1.2360   -0.8500 H   0  0  0  0  0  0  0  0  0  0  0  0
    1.5290    3.4240   -1.9190 H   0  0  0  0  0  0  0  0  0  0  0  0
    0.9980    5.3860   -0.5130 H   0  0  0  0  0  0  0  0  0  0  0  0
    1.0200    5.1340    1.9060 H   0  0  0  0  0  0  0  0  0  0  0  0
    1.5650    2.9510    2.9810 H   0  0  0  0  0  0  0  0  0  0  0  0
   -0.7920    0.1450    0.4140 N   0  0  0  0  0  0  0  0  0  0  0  0
   -1.7510   -0.4340   -0.5170 C   0  0  1  0  0  0  0  0  0  0  0  0
   -3.1460   -0.0820   -0.2350 C   0  0  0  0  0  0  0  0  0  0  0  0
   -4.1080   -0.7000   -1.2040 C   0  0  0  0  0  0  0  0  0  0  0  0
   -4.0340   -2.2100   -1.2330 C   0  0  0  0  0  0  0  0  0  0  0  0
   -5.0660   -2.6770   -2.2590 C   0  0  0  0  0  0  0  0  0  0  0  0
   -5.0850   -4.1190   -2.3730 N   0  0  0  0  0  0  0  0  0  0  0  0
   -1.4120   -0.0200   -1.8930 C   0  0  0  0  0  0  0  0  0  0  0  0
   -2.0110   -0.4210   -2.9340 O   0  0  0  0  0  0  0  0  0  0  0  0
   -0.3700    0.8760   -2.1630 O   0  0  0  0  0  0  0  0  0  0  0  0
   -0.7430    1.1720    0.5160 H   0  0  0  0  0  0  0  0  0  0  0  0
   -1.6670   -1.5610   -0.5010 H   0  0  0  0  0  0  0  0  0  0  0  0
   -3.3000    1.0360   -0.3410 H   0  0  0  0  0  0  0  0  0  0  0  0
   -3.5220   -0.3050    0.7750 H   0  0  0  0  0  0  0  0  0  0  0  0
   -4.1070   -0.2680   -2.2080 H   0  0  0  0  0  0  0  0  0  0  0  0
   -5.1530   -0.4740   -0.7990 H   0  0  0  0  0  0  0  0  0  0  0  0
   -4.3020   -2.6500   -0.2590 H   0  0  0  0  0  0  0  0  0  0  0  0
   -3.0710   -2.6060   -1.5480 H   0  0  0  0  0  0  0  0  0  0  0  0
   -6.0700   -2.3470   -1.9240 H   0  0  0  0  0  0  0  0  0  0  0  0
   -4.8430   -2.2590   -3.2610 H   0  0  0  0  0  0  0  0  0  0  0  0
   -4.6650   -4.5950   -1.5380 H   0  0  0  0  0  0  0  0  0  0  0  0
   -4.6580   -4.4660   -3.2610 H   0  0  0  0  0  0  0  0  0  0  0  0
  1  7  1  0  0  0  0
  2  8  1  0  0  0  0
  2  1  1  0  0  0  0
  3 10  1  1  0  0  0
  3  2  1  0  0  0  0
  4  3  1  0  0  0  0
  5  3  1  0  0  0  0
  5 13  1  0  0  0  0
  6  5  2  0  0  0  0
  9  2  1  0  0  0  0
 11  4  1  0  0  0  0
 12  4  1  0  0  0  0
 13 24  1  0  0  0  0
 14 13  1  0  0  0  0
 14 25  1  1  0  0  0
 15 14  1  0  0  0  0
 15 26  1  0  0  0  0
 16 15  1  0  0  0  0
 16 21  1  0  0  0  0
 17 16  2  0  0  0  0
 18 17  1  0  0  0  0
 18 19  2  0  0  0  0
 19 20  1  0  0  0  0
 20 21  2  0  0  0  0
 20 31  1  0  0  0  0
 21 32  1  0  0  0  0
 22 14  1  0  0  0  0
 23 22  2  0  0  0  0
 27 15  1  0  0  0  0
 28 17  1  0  0  0  0
 29 18  1  0  0  0  0
 30 19  1  0  0  0  0
 33 43  1  0  0  0  0
 33 22  1  0  0  0  0
 34 44  1  1  0  0  0
 34 35  1  0  0  0  0
 34 33  1  0  0  0  0
 35 46  1  0  0  0  0
 36 48  1  0  0  0  0
 36 35  1  0  0  0  0
 37 36  1  0  0  0  0
 37 49  1  0  0  0  0
 38 51  1  0  0  0  0
 38 37  1  0  0  0  0
 39 38  1  0  0  0  0
 39 53  1  0  0  0  0
 40 34  1  0  0  0  0
 41 40  2  0  0  0  0
 42 40  1  0  0  0  0
 45 35  1  0  0  0  0
 47 36  1  0  0  0  0
 50 37  1  0  0  0  0
 52 38  1  0  0  0  0
 54 39  1  0  0  0  0
M  END
$$$$
