SFL.pdb
 OpenBabel07022419093D

 52 52  0  0  1  0  0  0  0  0999 V2000
    3.5910   -4.3650    2.9550 O   0  0  0  0  0  0  0  0  0  0  0  0
    3.3710   -4.4460    1.5640 C   0  0  0  0  0  0  0  0  0  0  0  0
    1.9220   -4.1000    1.2860 C   0  0  2  0  0  0  0  0  0  0  0  0
    1.6570   -4.1710   -0.1210 N   0  0  0  0  0  0  0  0  0  0  0  0
    1.6810   -2.7440    1.8420 C   0  0  0  0  0  0  0  0  0  0  0  0
    1.8660   -2.5110    3.0640 O   0  0  0  0  0  0  0  0  0  0  0  0
    2.7860   -4.6350    3.4560 H   0  0  0  0  0  0  0  0  0  0  0  0
    4.0460   -3.7060    1.0760 H   0  0  0  0  0  0  0  0  0  0  0  0
    3.5970   -5.4890    1.2820 H   0  0  0  0  0  0  0  0  0  0  0  0
    1.3060   -4.8780    1.7830 H   0  0  0  0  0  0  0  0  0  0  0  0
    0.6630   -3.9150   -0.2800 H   0  0  0  0  0  0  0  0  0  0  0  0
    1.7640   -5.1670   -0.4120 H   0  0  0  0  0  0  0  0  0  0  0  0
    1.2360   -1.6520    1.0480 N   0  0  0  0  0  0  0  0  0  0  0  0
    1.0000   -0.3160    1.6080 C   0  0  1  0  0  0  0  0  0  0  0  0
    1.8810    0.7030    0.9720 C   0  0  0  0  0  0  0  0  0  0  0  0
    1.7300    2.0710    1.4480 C   0  0  0  0  0  0  0  0  0  0  0  0
    0.8880    2.9850    0.8610 C   0  0  0  0  0  0  0  0  0  0  0  0
    0.7600    4.2910    1.3490 C   0  0  0  0  0  0  0  0  0  0  0  0
    1.5160    4.6380    2.4490 C   0  0  0  0  0  0  0  0  0  0  0  0
    2.3740    3.7440    3.0640 C   0  0  0  0  0  0  0  0  0  0  0  0
    2.4760    2.4630    2.5580 C   0  0  0  0  0  0  0  0  0  0  0  0
   -0.4300   -0.0080    1.4000 C   0  0  0  0  0  0  0  0  0  0  0  0
   -0.9440    1.0820    1.8040 O   0  0  0  0  0  0  0  0  0  0  0  0
    1.0720   -1.8050    0.0320 H   0  0  0  0  0  0  0  0  0  0  0  0
    1.2370   -0.3180    2.7040 H   0  0  0  0  0  0  0  0  0  0  0  0
    2.9480    0.3840    1.1640 H   0  0  0  0  0  0  0  0  0  0  0  0
    1.7690    0.6470   -0.1500 H   0  0  0  0  0  0  0  0  0  0  0  0
    0.3230    2.6800    0.0070 H   0  0  0  0  0  0  0  0  0  0  0  0
    0.0830    4.9920    0.8610 H   0  0  0  0  0  0  0  0  0  0  0  0
    1.4250    5.6500    2.8360 H   0  0  0  0  0  0  0  0  0  0  0  0
    2.9370    4.0840    3.9230 H   0  0  0  0  0  0  0  0  0  0  0  0
    3.1500    1.7550    3.0370 H   0  0  0  0  0  0  0  0  0  0  0  0
   -1.5060   -1.7210   -2.1370 C   0  0  0  0  0  0  0  0  0  0  0  0
   -2.9300   -1.2890   -1.9070 C   0  0  0  0  0  0  0  0  0  0  0  0
   -3.3890   -0.6110   -3.2160 C   0  0  0  0  0  0  0  0  0  0  0  0
   -3.1190   -0.2750   -0.8480 C   0  0  0  0  0  0  0  0  0  0  0  0
   -2.7140   -0.5970    0.5380 C   0  0  2  0  0  0  0  0  0  0  0  0
   -1.3230   -0.9100    0.7340 N   0  0  0  0  0  0  0  0  0  0  0  0
   -3.6060   -1.5730    1.2130 C   0  0  0  0  0  0  0  0  0  0  0  0
   -3.0670   -2.5160    1.8490 O   0  0  0  0  0  0  0  0  0  0  0  0
   -4.9710   -1.5180    1.1930 O   0  0  0  0  0  0  0  0  0  0  0  0
   -1.3690   -1.8560   -3.2470 H   0  0  0  0  0  0  0  0  0  0  0  0
   -0.7550   -0.9740   -1.8030 H   0  0  0  0  0  0  0  0  0  0  0  0
   -1.3560   -2.7300   -1.7170 H   0  0  0  0  0  0  0  0  0  0  0  0
   -3.5230   -2.2190   -1.7540 H   0  0  0  0  0  0  0  0  0  0  0  0
   -4.4930   -0.5880   -3.2760 H   0  0  0  0  0  0  0  0  0  0  0  0
   -2.9780    0.4240   -3.1660 H   0  0  0  0  0  0  0  0  0  0  0  0
   -2.9300   -1.1000   -4.0790 H   0  0  0  0  0  0  0  0  0  0  0  0
   -4.1690    0.1210   -0.8000 H   0  0  0  0  0  0  0  0  0  0  0  0
   -2.5050    0.6280   -1.1520 H   0  0  0  0  0  0  0  0  0  0  0  0
   -2.8950    0.3700    1.1140 H   0  0  0  0  0  0  0  0  0  0  0  0
   -0.9250   -1.8140    0.4050 H   0  0  0  0  0  0  0  0  0  0  0  0
  1  7  1  0  0  0  0
  2  1  1  0  0  0  0
  3  2  1  0  0  0  0
  3 10  1  1  0  0  0
  3  5  1  0  0  0  0
  4  3  1  0  0  0  0
  5  6  2  0  0  0  0
  8  2  1  0  0  0  0
  9  2  1  0  0  0  0
 11  4  1  0  0  0  0
 12  4  1  0  0  0  0
 13 14  1  0  0  0  0
 13  5  1  0  0  0  0
 14 25  1  1  0  0  0
 15 26  1  0  0  0  0
 15 16  1  0  0  0  0
 15 14  1  0  0  0  0
 16 21  1  0  0  0  0
 17 18  1  0  0  0  0
 17 16  2  0  0  0  0
 18 19  2  0  0  0  0
 19 30  1  0  0  0  0
 19 20  1  0  0  0  0
 20 31  1  0  0  0  0
 21 32  1  0  0  0  0
 21 20  2  0  0  0  0
 22 14  1  0  0  0  0
 22 23  2  0  0  0  0
 24 13  1  0  0  0  0
 27 15  1  0  0  0  0
 28 17  1  0  0  0  0
 29 18  1  0  0  0  0
 33 34  1  0  0  0  0
 33 43  1  0  0  0  0
 33 44  1  0  0  0  0
 34 45  1  0  0  0  0
 34 36  1  0  0  0  0
 35 47  1  0  0  0  0
 35 34  1  0  0  0  0
 36 49  1  0  0  0  0
 36 37  1  0  0  0  0
 37 38  1  0  0  0  0
 37 51  1  1  0  0  0
 37 39  1  0  0  0  0
 38 22  1  0  0  0  0
 39 40  1  0  0  0  0
 41 39  2  0  0  0  0
 42 33  1  0  0  0  0
 46 35  1  0  0  0  0
 48 35  1  0  0  0  0
 50 36  1  0  0  0  0
 52 38  1  0  0  0  0
M  END
$$$$
