SFP.pdb
 OpenBabel07022419093D

 47 48  0  0  1  0  0  0  0  0999 V2000
    0.8330   -1.5970    4.7370 O   0  0  0  0  0  0  0  0  0  0  0  0
    1.2400   -2.4300    3.7030 C   0  0  0  0  0  0  0  0  0  0  0  0
    0.1690   -2.3680    2.6220 C   0  0  2  0  0  0  0  0  0  0  0  0
    0.5030   -3.2040    1.5040 N   0  0  0  0  0  0  0  0  0  0  0  0
   -0.0360   -0.9610    2.2500 C   0  0  0  0  0  0  0  0  0  0  0  0
   -0.3330   -0.1080    3.1120 O   0  0  0  0  0  0  0  0  0  0  0  0
    0.1410   -1.9770    5.3010 H   0  0  0  0  0  0  0  0  0  0  0  0
    2.1630   -1.9970    3.2500 H   0  0  0  0  0  0  0  0  0  0  0  0
    1.3700   -3.4720    3.9960 H   0  0  0  0  0  0  0  0  0  0  0  0
   -0.7710   -2.7250    3.1160 H   0  0  0  0  0  0  0  0  0  0  0  0
    1.3120   -3.8000    1.7610 H   0  0  0  0  0  0  0  0  0  0  0  0
   -0.2960   -3.8250    1.3060 H   0  0  0  0  0  0  0  0  0  0  0  0
    0.0980   -0.5350    0.8950 N   0  0  0  0  0  0  0  0  0  0  0  0
   -0.0840    0.8020    0.4570 C   0  0  1  0  0  0  0  0  0  0  0  0
    1.2680    1.3140   -0.0590 C   0  0  0  0  0  0  0  0  0  0  0  0
    2.2940    1.2740    1.0230 C   0  0  0  0  0  0  0  0  0  0  0  0
    3.0760    0.1570    1.2170 C   0  0  0  0  0  0  0  0  0  0  0  0
    4.0210    0.1230    2.2170 C   0  0  0  0  0  0  0  0  0  0  0  0
    4.2340    1.1930    3.0660 C   0  0  0  0  0  0  0  0  0  0  0  0
    3.4480    2.3020    2.8630 C   0  0  0  0  0  0  0  0  0  0  0  0
    2.4980    2.3470    1.8650 C   0  0  0  0  0  0  0  0  0  0  0  0
   -1.0730    0.9260   -0.6130 C   0  0  0  0  0  0  0  0  0  0  0  0
   -1.0970    2.1480   -1.1100 O   0  0  0  0  0  0  0  0  0  0  0  0
    0.3680   -1.2530    0.1880 H   0  0  0  0  0  0  0  0  0  0  0  0
   -0.3160    1.4980    1.3140 H   0  0  0  0  0  0  0  0  0  0  0  0
    1.1340    2.3770   -0.3330 H   0  0  0  0  0  0  0  0  0  0  0  0
    1.5880    0.7640   -0.9650 H   0  0  0  0  0  0  0  0  0  0  0  0
    2.9100   -0.6940    0.5450 H   0  0  0  0  0  0  0  0  0  0  0  0
    4.6380   -0.7560    2.3720 H   0  0  0  0  0  0  0  0  0  0  0  0
    4.9540    1.2100    3.8520 H   0  0  0  0  0  0  0  0  0  0  0  0
    3.5890    3.1730    3.5190 H   0  0  0  0  0  0  0  0  0  0  0  0
    1.8700    3.2270    1.6990 H   0  0  0  0  0  0  0  0  0  0  0  0
   -1.9350   -0.0310   -1.1350 N   0  0  0  0  0  0  0  0  0  0  0  0
   -2.8160    0.2630   -2.2720 C   0  0  0  0  0  0  0  0  0  0  0  0
   -4.0750   -0.4650   -1.8940 C   0  0  0  0  0  0  0  0  0  0  0  0
   -3.7370   -1.4150   -0.8030 C   0  0  0  0  0  0  0  0  0  0  0  0
   -2.1960   -1.3640   -0.7690 C   0  0  1  0  0  0  0  0  0  0  0  0
   -1.7300   -2.3680   -1.7790 C   0  0  0  0  0  0  0  0  0  0  0  0
   -1.9300   -3.5960   -1.5960 O   0  0  0  0  0  0  0  0  0  0  0  0
   -1.0680   -2.0140   -2.9440 O   0  0  0  0  0  0  0  0  0  0  0  0
   -2.4070   -0.1470   -3.2210 H   0  0  0  0  0  0  0  0  0  0  0  0
   -3.0060    1.3570   -2.3630 H   0  0  0  0  0  0  0  0  0  0  0  0
   -4.7870    0.3020   -1.4700 H   0  0  0  0  0  0  0  0  0  0  0  0
   -4.5310   -0.9510   -2.7820 H   0  0  0  0  0  0  0  0  0  0  0  0
   -4.0590   -1.0450    0.2040 H   0  0  0  0  0  0  0  0  0  0  0  0
   -4.0640   -2.4580   -0.9770 H   0  0  0  0  0  0  0  0  0  0  0  0
   -1.8730   -1.6720    0.2550 H   0  0  0  0  0  0  0  0  0  0  0  0
  1  7  1  0  0  0  0
  2  9  1  0  0  0  0
  2  1  1  0  0  0  0
  3 10  1  1  0  0  0
  3  2  1  0  0  0  0
  4 11  1  0  0  0  0
  4  3  1  0  0  0  0
  5  3  1  0  0  0  0
  5  6  2  0  0  0  0
  8  2  1  0  0  0  0
 12  4  1  0  0  0  0
 13  5  1  0  0  0  0
 14 13  1  0  0  0  0
 14 25  1  1  0  0  0
 15 14  1  0  0  0  0
 15 16  1  0  0  0  0
 16 17  2  0  0  0  0
 16 21  1  0  0  0  0
 17 18  1  0  0  0  0
 18 29  1  0  0  0  0
 18 19  2  0  0  0  0
 19 30  1  0  0  0  0
 20 19  1  0  0  0  0
 20 31  1  0  0  0  0
 21 20  2  0  0  0  0
 22 14  1  0  0  0  0
 23 22  2  0  0  0  0
 24 13  1  0  0  0  0
 26 15  1  0  0  0  0
 27 15  1  0  0  0  0
 28 17  1  0  0  0  0
 32 21  1  0  0  0  0
 33 37  1  0  0  0  0
 33 22  1  0  0  0  0
 34 35  1  0  0  0  0
 34 33  1  0  0  0  0
 35 43  1  0  0  0  0
 35 36  1  0  0  0  0
 36 37  1  0  0  0  0
 36 45  1  0  0  0  0
 37 47  1  1  0  0  0
 38 39  1  0  0  0  0
 38 37  1  0  0  0  0
 40 38  2  0  0  0  0
 41 34  1  0  0  0  0
 42 34  1  0  0  0  0
 44 35  1  0  0  0  0
 46 36  1  0  0  0  0
M  END
$$$$
