SFQ.pdb
 OpenBabel07022419093D

 50 50  0  0  1  0  0  0  0  0999 V2000
    1.1840   -2.3880    4.8800 O   0  0  0  0  0  0  0  0  0  0  0  0
    1.6730   -3.4650    4.1670 C   0  0  0  0  0  0  0  0  0  0  0  0
    2.8300   -2.9700    3.3270 C   0  0  2  0  0  0  0  0  0  0  0  0
    3.8900   -2.4180    4.1090 N   0  0  0  0  0  0  0  0  0  0  0  0
    2.3680   -2.0370    2.2700 C   0  0  0  0  0  0  0  0  0  0  0  0
    2.9440   -0.9110    2.2060 O   0  0  0  0  0  0  0  0  0  0  0  0
    1.1440   -2.6160    5.8340 H   0  0  0  0  0  0  0  0  0  0  0  0
    0.9270   -3.9180    3.4950 H   0  0  0  0  0  0  0  0  0  0  0  0
    2.0640   -4.2230    4.8500 H   0  0  0  0  0  0  0  0  0  0  0  0
    3.2170   -3.8820    2.7840 H   0  0  0  0  0  0  0  0  0  0  0  0
    4.5100   -3.1810    4.4450 H   0  0  0  0  0  0  0  0  0  0  0  0
    4.3900   -1.7110    3.5090 H   0  0  0  0  0  0  0  0  0  0  0  0
    1.3460   -2.3300    1.3550 N   0  0  0  0  0  0  0  0  0  0  0  0
    0.8900   -1.3910    0.3010 C   0  0  1  0  0  0  0  0  0  0  0  0
    1.2210   -1.9370   -1.0280 C   0  0  0  0  0  0  0  0  0  0  0  0
    0.8270   -1.1140   -2.1800 C   0  0  0  0  0  0  0  0  0  0  0  0
   -0.3530   -1.3110   -2.8810 C   0  0  0  0  0  0  0  0  0  0  0  0
   -0.6840   -0.5200   -3.9480 C   0  0  0  0  0  0  0  0  0  0  0  0
    0.1390    0.5040   -4.3720 C   0  0  0  0  0  0  0  0  0  0  0  0
    1.3060    0.6850   -3.6650 C   0  0  0  0  0  0  0  0  0  0  0  0
    1.6810   -0.0830   -2.5870 C   0  0  0  0  0  0  0  0  0  0  0  0
   -0.4590   -1.0230    0.6360 C   0  0  0  0  0  0  0  0  0  0  0  0
   -1.0490   -1.6320    1.5980 O   0  0  0  0  0  0  0  0  0  0  0  0
    0.8620   -3.2390    1.3850 H   0  0  0  0  0  0  0  0  0  0  0  0
    1.5490   -0.4820    0.4690 H   0  0  0  0  0  0  0  0  0  0  0  0
    0.9280   -3.0060   -1.1670 H   0  0  0  0  0  0  0  0  0  0  0  0
    2.3550   -1.9970   -1.0710 H   0  0  0  0  0  0  0  0  0  0  0  0
   -0.9820   -2.1250   -2.5250 H   0  0  0  0  0  0  0  0  0  0  0  0
   -1.6280   -0.7130   -4.4730 H   0  0  0  0  0  0  0  0  0  0  0  0
   -0.1350    1.1290   -5.2250 H   0  0  0  0  0  0  0  0  0  0  0  0
    1.9790    1.4950   -3.9830 H   0  0  0  0  0  0  0  0  0  0  0  0
    2.6200    0.0840   -2.0400 H   0  0  0  0  0  0  0  0  0  0  0  0
    0.1180    1.7250    3.4020 N   0  0  0  0  0  0  0  0  0  0  0  0
   -0.6940    1.9050    2.2350 C   0  0  0  0  0  0  0  0  0  0  0  0
   -0.0910    2.1110    1.1700 O   0  0  0  0  0  0  0  0  0  0  0  0
   -2.1390    1.8370    2.3950 C   0  0  0  0  0  0  0  0  0  0  0  0
   -2.8610    1.5680    1.1350 C   0  0  0  0  0  0  0  0  0  0  0  0
   -2.6170    0.2620    0.4590 C   0  0  2  0  0  0  0  0  0  0  0  0
   -1.2920   -0.0240    0.0360 N   0  0  0  0  0  0  0  0  0  0  0  0
   -3.5410    0.1790   -0.6890 C   0  0  0  0  0  0  0  0  0  0  0  0
   -3.1010   -0.0980   -1.8190 O   0  0  0  0  0  0  0  0  0  0  0  0
   -4.9000    0.4000   -0.5630 O   0  0  0  0  0  0  0  0  0  0  0  0
   -0.1600    0.9300    4.0190 H   0  0  0  0  0  0  0  0  0  0  0  0
    0.9040    2.3640    3.5670 H   0  0  0  0  0  0  0  0  0  0  0  0
   -2.4420    1.1330    3.2250 H   0  0  0  0  0  0  0  0  0  0  0  0
   -2.4600    2.8550    2.7940 H   0  0  0  0  0  0  0  0  0  0  0  0
   -3.9640    1.6890    1.3630 H   0  0  0  0  0  0  0  0  0  0  0  0
   -2.6660    2.4390    0.4380 H   0  0  0  0  0  0  0  0  0  0  0  0
   -2.9980   -0.5120    1.1940 H   0  0  0  0  0  0  0  0  0  0  0  0
   -0.8690    0.4930   -0.7600 H   0  0  0  0  0  0  0  0  0  0  0  0
  1  7  1  0  0  0  0
  2  9  1  0  0  0  0
  2  1  1  0  0  0  0
  3 10  1  6  0  0  0
  3  4  1  0  0  0  0
  3  2  1  0  0  0  0
  4 11  1  0  0  0  0
  5  3  1  0  0  0  0
  6  5  2  0  0  0  0
  8  2  1  0  0  0  0
 12  4  1  0  0  0  0
 13 24  1  0  0  0  0
 13  5  1  0  0  0  0
 14 25  1  1  0  0  0
 14 22  1  0  0  0  0
 14 13  1  0  0  0  0
 15 14  1  0  0  0  0
 16 15  1  0  0  0  0
 17 28  1  0  0  0  0
 17 16  2  0  0  0  0
 18 17  1  0  0  0  0
 19 18  2  0  0  0  0
 19 20  1  0  0  0  0
 20 21  2  0  0  0  0
 21 16  1  0  0  0  0
 21 32  1  0  0  0  0
 22 23  2  0  0  0  0
 26 15  1  0  0  0  0
 27 15  1  0  0  0  0
 29 18  1  0  0  0  0
 30 19  1  0  0  0  0
 31 20  1  0  0  0  0
 33 44  1  0  0  0  0
 33 43  1  0  0  0  0
 34 36  1  0  0  0  0
 34 33  1  0  0  0  0
 35 34  2  0  0  0  0
 36 46  1  0  0  0  0
 36 45  1  0  0  0  0
 37 47  1  0  0  0  0
 37 36  1  0  0  0  0
 38 37  1  0  0  0  0
 38 49  1  1  0  0  0
 39 38  1  0  0  0  0
 39 22  1  0  0  0  0
 40 42  1  0  0  0  0
 40 38  1  0  0  0  0
 41 40  2  0  0  0  0
 48 37  1  0  0  0  0
 50 39  1  0  0  0  0
M  END
$$$$
