SFT.pdb
 OpenBabel07022419093D

 47 47  0  0  1  0  0  0  0  0999 V2000
    1.8060   -2.2360    4.4890 O   0  0  0  0  0  0  0  0  0  0  0  0
    2.3550   -2.5500    3.2370 C   0  0  0  0  0  0  0  0  0  0  0  0
    1.2150   -2.5790    2.2330 C   0  0  2  0  0  0  0  0  0  0  0  0
    1.6930   -2.8950    0.9190 N   0  0  0  0  0  0  0  0  0  0  0  0
    0.4630   -1.3050    2.2770 C   0  0  0  0  0  0  0  0  0  0  0  0
   -0.0080   -0.9180    3.3760 O   0  0  0  0  0  0  0  0  0  0  0  0
    1.0200   -2.8420    4.6500 H   0  0  0  0  0  0  0  0  0  0  0  0
    2.7410   -3.6030    3.2820 H   0  0  0  0  0  0  0  0  0  0  0  0
    3.1310   -1.8200    2.9750 H   0  0  0  0  0  0  0  0  0  0  0  0
    0.5630   -3.4430    2.5530 H   0  0  0  0  0  0  0  0  0  0  0  0
    0.9340   -3.3480    0.3430 H   0  0  0  0  0  0  0  0  0  0  0  0
    2.5400   -3.4820    0.9060 H   0  0  0  0  0  0  0  0  0  0  0  0
    0.2680   -0.5230    1.1090 N   0  0  0  0  0  0  0  0  0  0  0  0
   -0.4610    0.7300    1.1070 C   0  0  1  0  0  0  0  0  0  0  0  0
    0.4400    1.8520    0.6120 C   0  0  0  0  0  0  0  0  0  0  0  0
    1.6090    1.9500    1.5270 C   0  0  0  0  0  0  0  0  0  0  0  0
    2.7610    1.2190    1.2830 C   0  0  0  0  0  0  0  0  0  0  0  0
    3.8490    1.3010    2.1240 C   0  0  0  0  0  0  0  0  0  0  0  0
    3.8410    2.1110    3.2400 C   0  0  0  0  0  0  0  0  0  0  0  0
    2.6960    2.8430    3.4890 C   0  0  0  0  0  0  0  0  0  0  0  0
    1.6090    2.7580    2.6450 C   0  0  0  0  0  0  0  0  0  0  0  0
   -1.6670    0.6400    0.2270 C   0  0  0  0  0  0  0  0  0  0  0  0
   -2.4540    1.5870    0.0610 O   0  0  0  0  0  0  0  0  0  0  0  0
    0.6540   -0.8260    0.1720 H   0  0  0  0  0  0  0  0  0  0  0  0
   -0.8340    0.9830    2.1180 H   0  0  0  0  0  0  0  0  0  0  0  0
   -0.1010    2.8030    0.6290 H   0  0  0  0  0  0  0  0  0  0  0  0
    0.7910    1.6190   -0.4140 H   0  0  0  0  0  0  0  0  0  0  0  0
    2.7640    0.5770    0.3970 H   0  0  0  0  0  0  0  0  0  0  0  0
    4.7370    0.7230    1.9170 H   0  0  0  0  0  0  0  0  0  0  0  0
    4.7070    2.1700    3.8990 H   0  0  0  0  0  0  0  0  0  0  0  0
    2.6790    3.4850    4.3660 H   0  0  0  0  0  0  0  0  0  0  0  0
    0.6940    3.3280    2.8240 H   0  0  0  0  0  0  0  0  0  0  0  0
   -1.7270   -2.2930   -2.7340 C   0  0  0  0  0  0  0  0  0  0  0  0
   -2.5990   -1.0650   -2.7200 C   0  0  1  0  0  0  0  0  0  0  0  0
   -3.7070   -1.2080   -3.5610 O   0  0  0  0  0  0  0  0  0  0  0  0
   -3.0820   -0.7370   -1.3190 C   0  0  2  0  0  0  0  0  0  0  0  0
   -1.9230   -0.5900   -0.4490 N   0  0  0  0  0  0  0  0  0  0  0  0
   -3.9270   -1.8480   -0.8120 C   0  0  0  0  0  0  0  0  0  0  0  0
   -3.5830   -2.4830    0.2170 O   0  0  0  0  0  0  0  0  0  0  0  0
   -5.1050   -2.2370   -1.4240 O   0  0  0  0  0  0  0  0  0  0  0  0
   -1.7760   -2.7510   -1.7150 H   0  0  0  0  0  0  0  0  0  0  0  0
   -0.6630   -2.0080   -2.9040 H   0  0  0  0  0  0  0  0  0  0  0  0
   -2.0300   -3.0320   -3.5120 H   0  0  0  0  0  0  0  0  0  0  0  0
   -2.0230   -0.1890   -3.0730 H   0  0  0  0  0  0  0  0  0  0  0  0
   -3.3360   -1.1690   -4.4990 H   0  0  0  0  0  0  0  0  0  0  0  0
   -3.6830    0.1690   -1.3720 H   0  0  0  0  0  0  0  0  0  0  0  0
   -1.2550   -1.3760   -0.3010 H   0  0  0  0  0  0  0  0  0  0  0  0
  1  7  1  0  0  0  0
  2  8  1  0  0  0  0
  2  1  1  0  0  0  0
  3  5  1  0  0  0  0
  3 10  1  1  0  0  0
  3  2  1  0  0  0  0
  4  3  1  0  0  0  0
  5  6  2  0  0  0  0
  9  2  1  0  0  0  0
 11  4  1  0  0  0  0
 12  4  1  0  0  0  0
 13  5  1  0  0  0  0
 14 13  1  0  0  0  0
 14 25  1  1  0  0  0
 15 26  1  0  0  0  0
 15 14  1  0  0  0  0
 15 16  1  0  0  0  0
 16 21  1  0  0  0  0
 17 16  2  0  0  0  0
 17 18  1  0  0  0  0
 18 19  2  0  0  0  0
 19 20  1  0  0  0  0
 19 30  1  0  0  0  0
 20 31  1  0  0  0  0
 21 32  1  0  0  0  0
 21 20  2  0  0  0  0
 22 14  1  0  0  0  0
 23 22  2  0  0  0  0
 24 13  1  0  0  0  0
 27 15  1  0  0  0  0
 28 17  1  0  0  0  0
 29 18  1  0  0  0  0
 33 34  1  0  0  0  0
 33 41  1  0  0  0  0
 34 44  1  6  0  0  0
 34 36  1  0  0  0  0
 35 34  1  0  0  0  0
 36 46  1  6  0  0  0
 36 38  1  0  0  0  0
 36 37  1  0  0  0  0
 37 47  1  0  0  0  0
 37 22  1  0  0  0  0
 38 39  1  0  0  0  0
 40 38  2  0  0  0  0
 42 33  1  0  0  0  0
 43 33  1  0  0  0  0
 45 35  1  0  0  0  0
M  END
$$$$
