SFW.pdb
 OpenBabel07022419093D

 57 59  0  0  1  0  0  0  0  0999 V2000
    4.6440   -1.9280    6.2250 O   0  0  0  0  0  0  0  0  0  0  0  0
    3.6280   -1.1220    5.7010 C   0  0  0  0  0  0  0  0  0  0  0  0
    3.2210   -1.7460    4.3810 C   0  0  2  0  0  0  0  0  0  0  0  0
    4.3030   -1.8160    3.4510 N   0  0  0  0  0  0  0  0  0  0  0  0
    2.0530   -1.0060    3.8200 C   0  0  0  0  0  0  0  0  0  0  0  0
    1.0070   -0.8310    4.5140 O   0  0  0  0  0  0  0  0  0  0  0  0
    4.8370   -1.6770    7.1760 H   0  0  0  0  0  0  0  0  0  0  0  0
    3.9740   -0.0800    5.5920 H   0  0  0  0  0  0  0  0  0  0  0  0
    2.7720   -1.1140    6.4010 H   0  0  0  0  0  0  0  0  0  0  0  0
    2.8770   -2.7820    4.6080 H   0  0  0  0  0  0  0  0  0  0  0  0
    4.5190   -0.9240    2.9790 H   0  0  0  0  0  0  0  0  0  0  0  0
    5.1710   -2.0880    3.9760 H   0  0  0  0  0  0  0  0  0  0  0  0
    2.0420   -0.4700    2.5170 N   0  0  0  0  0  0  0  0  0  0  0  0
    0.8660    0.2680    1.9700 C   0  0  1  0  0  0  0  0  0  0  0  0
    1.2820    1.7070    1.8200 C   0  0  0  0  0  0  0  0  0  0  0  0
    0.2870    2.6450    1.3140 C   0  0  0  0  0  0  0  0  0  0  0  0
    0.1560    3.0160    0.0030 C   0  0  0  0  0  0  0  0  0  0  0  0
   -0.8060    3.9410   -0.4010 C   0  0  0  0  0  0  0  0  0  0  0  0
   -1.6620    4.5160    0.5060 C   0  0  0  0  0  0  0  0  0  0  0  0
   -1.5530    4.1580    1.8450 C   0  0  0  0  0  0  0  0  0  0  0  0
   -0.5970    3.2430    2.2230 C   0  0  0  0  0  0  0  0  0  0  0  0
    0.3930   -0.3830    0.7710 C   0  0  0  0  0  0  0  0  0  0  0  0
    1.0990   -1.3220    0.2750 O   0  0  0  0  0  0  0  0  0  0  0  0
    2.8400   -0.5590    1.8780 H   0  0  0  0  0  0  0  0  0  0  0  0
    0.1260    0.2510    2.8030 H   0  0  0  0  0  0  0  0  0  0  0  0
    2.1930    1.6900    1.1490 H   0  0  0  0  0  0  0  0  0  0  0  0
    1.7200    2.0750    2.8080 H   0  0  0  0  0  0  0  0  0  0  0  0
    0.8410    2.5530   -0.7110 H   0  0  0  0  0  0  0  0  0  0  0  0
   -0.8770    4.2090   -1.4470 H   0  0  0  0  0  0  0  0  0  0  0  0
   -2.4080    5.2320    0.2010 H   0  0  0  0  0  0  0  0  0  0  0  0
   -2.2300    4.6130    2.5550 H   0  0  0  0  0  0  0  0  0  0  0  0
   -0.5300    2.9780    3.2800 H   0  0  0  0  0  0  0  0  0  0  0  0
   -0.8080   -0.0480    0.1180 N   0  0  0  0  0  0  0  0  0  0  0  0
   -1.1530   -0.8300   -1.0880 C   0  0  1  0  0  0  0  0  0  0  0  0
   -2.2820   -1.8130   -0.7000 C   0  0  0  0  0  0  0  0  0  0  0  0
   -2.6130   -2.5870   -1.9070 C   0  0  0  0  0  0  0  0  0  0  0  0
   -3.7380   -2.4180   -2.7080 C   0  0  0  0  0  0  0  0  0  0  0  0
   -3.6370   -3.3280   -3.6830 N   0  0  0  0  0  0  0  0  0  0  0  0
   -2.5260   -4.0570   -3.5500 C   0  0  0  0  0  0  0  0  0  0  0  0
   -2.0570   -5.0940   -4.3460 C   0  0  0  0  0  0  0  0  0  0  0  0
   -0.8750   -5.7010   -4.0060 C   0  0  0  0  0  0  0  0  0  0  0  0
   -0.2050   -5.2570   -2.8910 C   0  0  0  0  0  0  0  0  0  0  0  0
   -0.6540   -4.2310   -2.0910 C   0  0  0  0  0  0  0  0  0  0  0  0
   -1.8560   -3.6170   -2.4400 C   0  0  0  0  0  0  0  0  0  0  0  0
   -1.6430    0.0450   -2.1610 C   0  0  0  0  0  0  0  0  0  0  0  0
   -1.9350   -0.4470   -3.2800 O   0  0  0  0  0  0  0  0  0  0  0  0
   -1.8070    1.4040   -2.0130 O   0  0  0  0  0  0  0  0  0  0  0  0
   -1.4550    0.7020    0.4410 H   0  0  0  0  0  0  0  0  0  0  0  0
   -0.3180   -1.5000   -1.3820 H   0  0  0  0  0  0  0  0  0  0  0  0
   -3.1780   -1.2680   -0.3630 H   0  0  0  0  0  0  0  0  0  0  0  0
   -1.9030   -2.4810    0.1180 H   0  0  0  0  0  0  0  0  0  0  0  0
   -4.5490   -1.7110   -2.6010 H   0  0  0  0  0  0  0  0  0  0  0  0
   -4.3500   -3.4450   -4.4540 H   0  0  0  0  0  0  0  0  0  0  0  0
   -2.6020   -5.4240   -5.2170 H   0  0  0  0  0  0  0  0  0  0  0  0
   -0.4850   -6.5120   -4.6090 H   0  0  0  0  0  0  0  0  0  0  0  0
    0.7260   -5.7580   -2.6510 H   0  0  0  0  0  0  0  0  0  0  0  0
   -0.1400   -3.8810   -1.2230 H   0  0  0  0  0  0  0  0  0  0  0  0
  1  7  1  0  0  0  0
  2  1  1  0  0  0  0
  2  9  1  0  0  0  0
  3 10  1  1  0  0  0
  3  2  1  0  0  0  0
  4 12  1  0  0  0  0
  4  3  1  0  0  0  0
  5  3  1  0  0  0  0
  5  6  2  0  0  0  0
  8  2  1  0  0  0  0
 11  4  1  0  0  0  0
 13  5  1  0  0  0  0
 14 13  1  0  0  0  0
 14 25  1  1  0  0  0
 15 14  1  0  0  0  0
 15 27  1  0  0  0  0
 16 15  1  0  0  0  0
 16 21  1  0  0  0  0
 17 16  2  0  0  0  0
 18 17  1  0  0  0  0
 18 19  2  0  0  0  0
 19 20  1  0  0  0  0
 20 21  2  0  0  0  0
 20 31  1  0  0  0  0
 21 32  1  0  0  0  0
 22 14  1  0  0  0  0
 23 22  2  0  0  0  0
 24 13  1  0  0  0  0
 26 15  1  0  0  0  0
 28 17  1  0  0  0  0
 29 18  1  0  0  0  0
 30 19  1  0  0  0  0
 33 48  1  0  0  0  0
 33 22  1  0  0  0  0
 34 49  1  6  0  0  0
 34 35  1  0  0  0  0
 34 33  1  0  0  0  0
 35 50  1  0  0  0  0
 35 51  1  0  0  0  0
 36 35  1  0  0  0  0
 37 52  1  0  0  0  0
 37 36  2  0  0  0  0
 38 39  1  0  0  0  0
 38 37  1  0  0  0  0
 39 44  1  0  0  0  0
 40 41  1  0  0  0  0
 40 39  2  0  0  0  0
 41 42  2  0  0  0  0
 42 56  1  0  0  0  0
 42 43  1  0  0  0  0
 43 57  1  0  0  0  0
 44 43  2  0  0  0  0
 44 36  1  0  0  0  0
 45 47  1  0  0  0  0
 45 34  1  0  0  0  0
 46 45  2  0  0  0  0
 53 38  1  0  0  0  0
 54 40  1  0  0  0  0
 55 41  1  0  0  0  0
M  END
$$$$
