SFY.pdb
 OpenBabel07022419093D

 54 55  0  0  1  0  0  0  0  0999 V2000
    2.6890   -1.3660   -0.5450 O   0  0  0  0  0  0  0  0  0  0  0  0
    3.6280   -1.7080    0.4160 C   0  0  0  0  0  0  0  0  0  0  0  0
    3.8380   -0.5810    1.4330 C   0  0  2  0  0  0  0  0  0  0  0  0
    4.8320   -1.0160    2.3980 N   0  0  0  0  0  0  0  0  0  0  0  0
    2.5520   -0.3080    2.1050 C   0  0  0  0  0  0  0  0  0  0  0  0
    2.4800   -0.4920    3.3490 O   0  0  0  0  0  0  0  0  0  0  0  0
    3.0860   -1.1990   -1.4390 H   0  0  0  0  0  0  0  0  0  0  0  0
    4.5910   -1.9710   -0.0740 H   0  0  0  0  0  0  0  0  0  0  0  0
    3.2550   -2.6250    0.9310 H   0  0  0  0  0  0  0  0  0  0  0  0
    4.2060    0.2810    0.8410 H   0  0  0  0  0  0  0  0  0  0  0  0
    5.7440   -1.1740    1.9130 H   0  0  0  0  0  0  0  0  0  0  0  0
    4.5270   -1.9300    2.8010 H   0  0  0  0  0  0  0  0  0  0  0  0
    1.3870    0.1470    1.4630 N   0  0  0  0  0  0  0  0  0  0  0  0
    0.1360    0.4060    2.1540 C   0  0  1  0  0  0  0  0  0  0  0  0
   -0.1110    1.8770    2.0810 C   0  0  0  0  0  0  0  0  0  0  0  0
   -1.3350    2.3510    2.7230 C   0  0  0  0  0  0  0  0  0  0  0  0
   -2.4930    2.4150    1.9620 C   0  0  0  0  0  0  0  0  0  0  0  0
   -3.6910    2.8550    2.5040 C   0  0  0  0  0  0  0  0  0  0  0  0
   -3.7670    3.2430    3.8210 C   0  0  0  0  0  0  0  0  0  0  0  0
   -2.6330    3.1860    4.5860 C   0  0  0  0  0  0  0  0  0  0  0  0
   -1.4370    2.7440    4.0340 C   0  0  0  0  0  0  0  0  0  0  0  0
   -0.9620   -0.4330    1.6730 C   0  0  0  0  0  0  0  0  0  0  0  0
   -2.0990   -0.3030    2.2040 O   0  0  0  0  0  0  0  0  0  0  0  0
    1.4070    0.3110    0.4410 H   0  0  0  0  0  0  0  0  0  0  0  0
    0.3310    0.1660    3.2400 H   0  0  0  0  0  0  0  0  0  0  0  0
    0.7510    2.3740    2.6070 H   0  0  0  0  0  0  0  0  0  0  0  0
   -0.0440    2.2620    1.0260 H   0  0  0  0  0  0  0  0  0  0  0  0
   -2.5140    2.1270    0.9200 H   0  0  0  0  0  0  0  0  0  0  0  0
   -4.5830    2.8910    1.8700 H   0  0  0  0  0  0  0  0  0  0  0  0
   -4.7090    3.5950    4.2670 H   0  0  0  0  0  0  0  0  0  0  0  0
   -2.6910    3.4910    5.6210 H   0  0  0  0  0  0  0  0  0  0  0  0
   -0.5680    2.7050    4.6410 H   0  0  0  0  0  0  0  0  0  0  0  0
    1.5890   -2.9690   -5.0220 O   0  0  0  0  0  0  0  0  0  0  0  0
    0.6210   -2.6670   -4.0800 C   0  0  0  0  0  0  0  0  0  0  0  0
    0.5310   -1.4220   -3.5060 C   0  0  0  0  0  0  0  0  0  0  0  0
   -0.4640   -1.1900   -2.5700 C   0  0  0  0  0  0  0  0  0  0  0  0
   -1.3690   -2.1640   -2.1910 C   0  0  0  0  0  0  0  0  0  0  0  0
   -2.4140   -1.9000   -1.2010 C   0  0  0  0  0  0  0  0  0  0  0  0
   -1.9980   -2.1920    0.2240 C   0  0  2  0  0  0  0  0  0  0  0  0
   -0.8620   -1.4000    0.6430 N   0  0  0  0  0  0  0  0  0  0  0  0
   -1.7910   -3.6330    0.4640 C   0  0  0  0  0  0  0  0  0  0  0  0
   -2.6330   -4.5180    0.1840 O   0  0  0  0  0  0  0  0  0  0  0  0
   -1.2670   -3.4110   -2.7760 C   0  0  0  0  0  0  0  0  0  0  0  0
   -0.2720   -3.6510   -3.7160 C   0  0  0  0  0  0  0  0  0  0  0  0
   -0.5970   -4.0520    1.0330 O   0  0  0  0  0  0  0  0  0  0  0  0
    1.5000   -2.7310   -6.0020 H   0  0  0  0  0  0  0  0  0  0  0  0
    1.2400   -0.6660   -3.8060 H   0  0  0  0  0  0  0  0  0  0  0  0
   -0.4910   -0.1820   -2.1450 H   0  0  0  0  0  0  0  0  0  0  0  0
   -2.6400   -0.8000   -1.2360 H   0  0  0  0  0  0  0  0  0  0  0  0
   -3.3620   -2.4350   -1.3750 H   0  0  0  0  0  0  0  0  0  0  0  0
   -2.8720   -1.8760    0.8580 H   0  0  0  0  0  0  0  0  0  0  0  0
    0.0470   -1.5390    0.1830 H   0  0  0  0  0  0  0  0  0  0  0  0
   -1.9310   -4.2370   -2.5430 H   0  0  0  0  0  0  0  0  0  0  0  0
   -0.1790   -4.6150   -4.1800 H   0  0  0  0  0  0  0  0  0  0  0  0
  1  2  1  0  0  0  0
  2  9  1  0  0  0  0
  2  3  1  0  0  0  0
  3 10  1  6  0  0  0
  3  5  1  0  0  0  0
  3  4  1  0  0  0  0
  4 12  1  0  0  0  0
  5  6  2  0  0  0  0
  7  1  1  0  0  0  0
  8  2  1  0  0  0  0
 11  4  1  0  0  0  0
 13  5  1  0  0  0  0
 13 14  1  0  0  0  0
 14 25  1  1  0  0  0
 15 14  1  0  0  0  0
 15 26  1  0  0  0  0
 15 16  1  0  0  0  0
 16 21  1  0  0  0  0
 17 18  1  0  0  0  0
 17 16  2  0  0  0  0
 18 19  2  0  0  0  0
 19 30  1  0  0  0  0
 19 20  1  0  0  0  0
 20 31  1  0  0  0  0
 21 20  2  0  0  0  0
 21 32  1  0  0  0  0
 22 14  1  0  0  0  0
 22 23  2  0  0  0  0
 24 13  1  0  0  0  0
 27 15  1  0  0  0  0
 28 17  1  0  0  0  0
 29 18  1  0  0  0  0
 33 34  1  0  0  0  0
 34 44  2  0  0  0  0
 34 35  1  0  0  0  0
 35 36  2  0  0  0  0
 36 37  1  0  0  0  0
 36 48  1  0  0  0  0
 37 38  1  0  0  0  0
 38 39  1  0  0  0  0
 39 41  1  0  0  0  0
 39 40  1  0  0  0  0
 39 51  1  1  0  0  0
 40 22  1  0  0  0  0
 41 45  1  0  0  0  0
 42 41  2  0  0  0  0
 43 53  1  0  0  0  0
 43 37  2  0  0  0  0
 44 43  1  0  0  0  0
 46 33  1  0  0  0  0
 47 35  1  0  0  0  0
 49 38  1  0  0  0  0
 50 38  1  0  0  0  0
 52 40  1  0  0  0  0
 54 44  1  0  0  0  0
M  END
$$$$
