SGD.pdb
 OpenBabel07022419073D

 33 32  0  0  1  0  0  0  0  0999 V2000
    3.0890   -2.1040    5.6000 O   0  0  0  0  0  0  0  0  0  0  0  0
    2.9270   -1.9180    4.2270 C   0  0  0  0  0  0  0  0  0  0  0  0
    1.4610   -1.8070    3.9420 C   0  0  2  0  0  0  0  0  0  0  0  0
    0.7750   -2.9980    4.3510 N   0  0  0  0  0  0  0  0  0  0  0  0
    1.2270   -1.5090    2.4880 C   0  0  0  0  0  0  0  0  0  0  0  0
    1.7470   -0.5050    1.9590 O   0  0  0  0  0  0  0  0  0  0  0  0
    2.3470   -1.6530    6.0730 H   0  0  0  0  0  0  0  0  0  0  0  0
    3.3560   -2.7900    3.7010 H   0  0  0  0  0  0  0  0  0  0  0  0
    3.4580   -1.0130    3.8780 H   0  0  0  0  0  0  0  0  0  0  0  0
    1.0740   -0.9450    4.5350 H   0  0  0  0  0  0  0  0  0  0  0  0
    0.9200   -3.0870    5.3890 H   0  0  0  0  0  0  0  0  0  0  0  0
   -0.2560   -2.9300    4.1470 H   0  0  0  0  0  0  0  0  0  0  0  0
    0.4180   -2.3510    1.6850 N   0  0  0  0  0  0  0  0  0  0  0  0
    0.1670   -2.1010    0.2820 C   0  0  0  0  0  0  0  0  0  0  0  0
   -0.4970   -0.7810    0.1170 C   0  0  0  0  0  0  0  0  0  0  0  0
   -0.7420   -0.0920    1.1190 O   0  0  0  0  0  0  0  0  0  0  0  0
   -0.0060   -3.1790    2.1390 H   0  0  0  0  0  0  0  0  0  0  0  0
   -0.5000   -2.8760   -0.1250 H   0  0  0  0  0  0  0  0  0  0  0  0
    1.1180   -2.1550   -0.2970 H   0  0  0  0  0  0  0  0  0  0  0  0
   -0.8710   -0.2590   -1.1530 N   0  0  0  0  0  0  0  0  0  0  0  0
   -1.5080    1.0070   -1.3190 C   0  0  1  0  0  0  0  0  0  0  0  0
   -0.7600    1.9840   -2.1690 C   0  0  0  0  0  0  0  0  0  0  0  0
   -0.5400    1.4940   -3.5540 C   0  0  0  0  0  0  0  0  0  0  0  0
   -0.9730    0.3770   -3.9120 O   0  0  0  0  0  0  0  0  0  0  0  0
   -2.8820    0.8870   -1.8640 C   0  0  0  0  0  0  0  0  0  0  0  0
   -3.3370   -0.2410   -2.1150 O   0  0  0  0  0  0  0  0  0  0  0  0
    0.1430    2.2330   -4.5060 O   0  0  0  0  0  0  0  0  0  0  0  0
   -3.6150    2.0330   -2.0760 O   0  0  0  0  0  0  0  0  0  0  0  0
   -0.6550   -0.8570   -1.9770 H   0  0  0  0  0  0  0  0  0  0  0  0
   -1.6340    1.4640   -0.3060 H   0  0  0  0  0  0  0  0  0  0  0  0
   -1.3470    2.9270   -2.2710 H   0  0  0  0  0  0  0  0  0  0  0  0
    0.2000    2.3000   -1.6960 H   0  0  0  0  0  0  0  0  0  0  0  0
    0.2760    1.8650   -5.4430 H   0  0  0  0  0  0  0  0  0  0  0  0
  1  7  1  0  0  0  0
  2  1  1  0  0  0  0
  3  2  1  0  0  0  0
  3  4  1  0  0  0  0
  3 10  1  1  0  0  0
  4 11  1  0  0  0  0
  5  3  1  0  0  0  0
  6  5  2  0  0  0  0
  8  2  1  0  0  0  0
  9  2  1  0  0  0  0
 12  4  1  0  0  0  0
 13 17  1  0  0  0  0
 13  5  1  0  0  0  0
 14 13  1  0  0  0  0
 15 14  1  0  0  0  0
 15 16  2  0  0  0  0
 18 14  1  0  0  0  0
 19 14  1  0  0  0  0
 20 15  1  0  0  0  0
 21 20  1  0  0  0  0
 21 30  1  1  0  0  0
 22 32  1  0  0  0  0
 22 21  1  0  0  0  0
 23 22  1  0  0  0  0
 24 23  2  0  0  0  0
 25 21  1  0  0  0  0
 26 25  2  0  0  0  0
 27 23  1  0  0  0  0
 28 25  1  0  0  0  0
 29 20  1  0  0  0  0
 31 22  1  0  0  0  0
 33 27  1  0  0  0  0
M  END
$$$$
