SGE.pdb
 OpenBabel07022419073D

 36 35  0  0  1  0  0  0  0  0999 V2000
    1.5100   -0.9450    3.2450 O   0  0  0  0  0  0  0  0  0  0  0  0
    1.4370   -2.0630    4.0640 C   0  0  0  0  0  0  0  0  0  0  0  0
    0.2530   -2.9310    3.7560 C   0  0  2  0  0  0  0  0  0  0  0  0
    0.2570   -4.0670    4.6830 N   0  0  0  0  0  0  0  0  0  0  0  0
    0.2530   -3.3850    2.3700 C   0  0  0  0  0  0  0  0  0  0  0  0
    0.2890   -4.6330    2.1140 O   0  0  0  0  0  0  0  0  0  0  0  0
    0.8020   -0.3120    3.5510 H   0  0  0  0  0  0  0  0  0  0  0  0
    1.3980   -1.6860    5.1280 H   0  0  0  0  0  0  0  0  0  0  0  0
    2.4030   -2.6150    3.9150 H   0  0  0  0  0  0  0  0  0  0  0  0
   -0.6700   -2.3430    4.0010 H   0  0  0  0  0  0  0  0  0  0  0  0
   -0.1140   -3.7000    5.5860 H   0  0  0  0  0  0  0  0  0  0  0  0
   -0.4150   -4.7680    4.3050 H   0  0  0  0  0  0  0  0  0  0  0  0
    0.2140   -2.5000    1.2270 N   0  0  0  0  0  0  0  0  0  0  0  0
    0.2150   -3.0130   -0.1000 C   0  0  0  0  0  0  0  0  0  0  0  0
    0.1830   -1.9600   -1.1120 C   0  0  0  0  0  0  0  0  0  0  0  0
    0.1790   -2.2740   -2.3590 O   0  0  0  0  0  0  0  0  0  0  0  0
    0.1810   -1.4960    1.4850 H   0  0  0  0  0  0  0  0  0  0  0  0
   -0.6090   -3.7710   -0.2510 H   0  0  0  0  0  0  0  0  0  0  0  0
    1.1480   -3.6190   -0.3200 H   0  0  0  0  0  0  0  0  0  0  0  0
    0.1550   -0.5830   -0.8590 N   0  0  0  0  0  0  0  0  0  0  0  0
    0.1250    0.4210   -1.9090 C   0  0  1  0  0  0  0  0  0  0  0  0
   -1.0890    1.2690   -1.9290 C   0  0  0  0  0  0  0  0  0  0  0  0
   -1.3480    2.0840   -0.6960 C   0  0  0  0  0  0  0  0  0  0  0  0
   -0.2600    3.0540   -0.3960 C   0  0  0  0  0  0  0  0  0  0  0  0
    0.6070    2.8520    0.4760 O   0  0  0  0  0  0  0  0  0  0  0  0
    1.3450    1.2430   -1.9560 C   0  0  0  0  0  0  0  0  0  0  0  0
    1.3780    2.1680   -2.8050 O   0  0  0  0  0  0  0  0  0  0  0  0
   -0.1530    4.2670   -1.0940 O   0  0  0  0  0  0  0  0  0  0  0  0
    2.4490    1.0700   -1.1420 O   0  0  0  0  0  0  0  0  0  0  0  0
    0.1550   -0.2110    0.1060 H   0  0  0  0  0  0  0  0  0  0  0  0
    0.1310   -0.1560   -2.8870 H   0  0  0  0  0  0  0  0  0  0  0  0
   -2.0140    0.6690   -2.1940 H   0  0  0  0  0  0  0  0  0  0  0  0
   -1.0510    2.0180   -2.7790 H   0  0  0  0  0  0  0  0  0  0  0  0
   -1.6140    1.4720    0.1900 H   0  0  0  0  0  0  0  0  0  0  0  0
   -2.2580    2.7190   -0.8980 H   0  0  0  0  0  0  0  0  0  0  0  0
    0.7700    4.5100   -1.4900 H   0  0  0  0  0  0  0  0  0  0  0  0
  1  7  1  0  0  0  0
  1  2  1  0  0  0  0
  2  8  1  0  0  0  0
  3 10  1  1  0  0  0
  3  2  1  0  0  0  0
  3  4  1  0  0  0  0
  4 11  1  0  0  0  0
  5  3  1  0  0  0  0
  6  5  2  0  0  0  0
  9  2  1  0  0  0  0
 12  4  1  0  0  0  0
 13 17  1  0  0  0  0
 13  5  1  0  0  0  0
 14 13  1  0  0  0  0
 15 20  1  0  0  0  0
 15 14  1  0  0  0  0
 16 15  2  0  0  0  0
 18 14  1  0  0  0  0
 19 14  1  0  0  0  0
 20 30  1  0  0  0  0
 21 31  1  6  0  0  0
 21 20  1  0  0  0  0
 22 21  1  0  0  0  0
 22 23  1  0  0  0  0
 23 24  1  0  0  0  0
 23 34  1  0  0  0  0
 24 25  2  0  0  0  0
 26 21  1  0  0  0  0
 26 29  1  0  0  0  0
 27 26  2  0  0  0  0
 28 24  1  0  0  0  0
 32 22  1  0  0  0  0
 33 22  1  0  0  0  0
 35 23  1  0  0  0  0
 36 28  1  0  0  0  0
M  END
$$$$
