SGG.pdb
 OpenBabel07022419073D

 27 26  0  0  1  0  0  0  0  0999 V2000
    0.7990   -1.7150    4.1310 O   0  0  0  0  0  0  0  0  0  0  0  0
   -0.2150   -2.2540    3.3770 C   0  0  0  0  0  0  0  0  0  0  0  0
    0.2850   -3.2920    2.3740 C   0  0  2  0  0  0  0  0  0  0  0  0
    0.9390   -4.3850    3.0640 N   0  0  0  0  0  0  0  0  0  0  0  0
    1.1710   -2.6080    1.4260 C   0  0  0  0  0  0  0  0  0  0  0  0
    2.3710   -2.8940    1.2110 O   0  0  0  0  0  0  0  0  0  0  0  0
    0.8640   -0.7390    3.9770 H   0  0  0  0  0  0  0  0  0  0  0  0
   -0.9530   -2.7300    4.0550 H   0  0  0  0  0  0  0  0  0  0  0  0
   -0.7270   -1.4590    2.8000 H   0  0  0  0  0  0  0  0  0  0  0  0
   -0.6050   -3.6550    1.8220 H   0  0  0  0  0  0  0  0  0  0  0  0
    0.2260   -5.0190    3.4880 H   0  0  0  0  0  0  0  0  0  0  0  0
    1.5660   -4.0610    3.8120 H   0  0  0  0  0  0  0  0  0  0  0  0
    0.6310   -1.5150    0.6730 N   0  0  0  0  0  0  0  0  0  0  0  0
    1.4810   -0.8370   -0.2570 C   0  0  0  0  0  0  0  0  0  0  0  0
    0.8570    0.2760   -0.9950 C   0  0  0  0  0  0  0  0  0  0  0  0
    1.5480    0.9460   -1.8540 O   0  0  0  0  0  0  0  0  0  0  0  0
   -0.3530   -1.2390    0.8110 H   0  0  0  0  0  0  0  0  0  0  0  0
    1.8040   -1.6140   -1.0000 H   0  0  0  0  0  0  0  0  0  0  0  0
    2.4220   -0.4660    0.2220 H   0  0  0  0  0  0  0  0  0  0  0  0
   -0.4860    0.7110   -0.8560 N   0  0  0  0  0  0  0  0  0  0  0  0
   -0.9940    1.8430   -1.6560 C   0  0  0  0  0  0  0  0  0  0  0  0
   -0.2020    3.0700   -1.3540 C   0  0  0  0  0  0  0  0  0  0  0  0
    0.7410    3.0600   -0.5220 O   0  0  0  0  0  0  0  0  0  0  0  0
   -0.4640    4.2830   -1.9740 O   0  0  0  0  0  0  0  0  0  0  0  0
   -1.1160    0.2250   -0.1840 H   0  0  0  0  0  0  0  0  0  0  0  0
   -2.0190    2.0430   -1.2860 H   0  0  0  0  0  0  0  0  0  0  0  0
   -1.0170    1.6000   -2.7190 H   0  0  0  0  0  0  0  0  0  0  0  0
  2  8  1  0  0  0  0
  2  1  1  0  0  0  0
  3 10  1  6  0  0  0
  3  4  1  0  0  0  0
  3  2  1  0  0  0  0
  4 11  1  0  0  0  0
  4 12  1  0  0  0  0
  5  3  1  0  0  0  0
  6  5  2  0  0  0  0
  7  1  1  0  0  0  0
  9  2  1  0  0  0  0
 13 17  1  0  0  0  0
 13  5  1  0  0  0  0
 14 19  1  0  0  0  0
 14 13  1  0  0  0  0
 15 20  1  0  0  0  0
 15 14  1  0  0  0  0
 16 15  2  0  0  0  0
 18 14  1  0  0  0  0
 20 25  1  0  0  0  0
 21 22  1  0  0  0  0
 21 26  1  0  0  0  0
 21 20  1  0  0  0  0
 22 23  1  0  0  0  0
 24 22  2  0  0  0  0
 27 21  1  0  0  0  0
M  END
$$$$
