SGM.pdb
 OpenBabel07022419073D

 37 36  0  0  1  0  0  0  0  0999 V2000
   -2.9250   -4.1120    1.6300 O   0  0  0  0  0  0  0  0  0  0  0  0
   -1.7260   -3.5240    1.9790 C   0  0  0  0  0  0  0  0  0  0  0  0
   -0.5810   -4.2140    1.2620 C   0  0  2  0  0  0  0  0  0  0  0  0
   -0.5860   -5.6050    1.6600 N   0  0  0  0  0  0  0  0  0  0  0  0
    0.7240   -3.6220    1.6070 C   0  0  0  0  0  0  0  0  0  0  0  0
    1.6210   -4.3040    2.1580 O   0  0  0  0  0  0  0  0  0  0  0  0
   -3.5700   -4.1310    2.3700 H   0  0  0  0  0  0  0  0  0  0  0  0
   -1.7100   -2.4390    1.7580 H   0  0  0  0  0  0  0  0  0  0  0  0
   -1.6150   -3.6260    3.0760 H   0  0  0  0  0  0  0  0  0  0  0  0
   -0.7300   -4.1500    0.1710 H   0  0  0  0  0  0  0  0  0  0  0  0
   -0.0270   -5.6660    2.5510 H   0  0  0  0  0  0  0  0  0  0  0  0
   -1.5450   -5.9540    1.8570 H   0  0  0  0  0  0  0  0  0  0  0  0
    1.0200   -2.2400    1.3270 N   0  0  0  0  0  0  0  0  0  0  0  0
    2.3180   -1.7480    1.6990 C   0  0  0  0  0  0  0  0  0  0  0  0
    2.5860   -0.3460    1.4010 C   0  0  0  0  0  0  0  0  0  0  0  0
    3.6920    0.2100    1.6790 O   0  0  0  0  0  0  0  0  0  0  0  0
    0.2650   -1.6920    0.8720 H   0  0  0  0  0  0  0  0  0  0  0  0
    3.0800   -2.4440    1.2750 H   0  0  0  0  0  0  0  0  0  0  0  0
    2.3680   -1.8410    2.8280 H   0  0  0  0  0  0  0  0  0  0  0  0
   -2.4690    2.5500   -1.4090 C   0  0  0  0  0  0  0  0  0  0  0  0
   -0.8610    2.9300   -0.6590 S   0  0  0  0  0  0  0  0  0  0  0  0
    0.3990    1.9690   -1.5110 C   0  0  0  0  0  0  0  0  0  0  0  0
    1.7820    2.2210   -0.9520 C   0  0  0  0  0  0  0  0  0  0  0  0
    1.9110    1.8740    0.4960 C   0  0  2  0  0  0  0  0  0  0  0  0
    1.6330    0.4830    0.7870 N   0  0  0  0  0  0  0  0  0  0  0  0
    0.9430    2.6890    1.2680 C   0  0  0  0  0  0  0  0  0  0  0  0
    0.0780    2.1600    2.0100 O   0  0  0  0  0  0  0  0  0  0  0  0
    0.9370    4.0930    1.2160 O   0  0  0  0  0  0  0  0  0  0  0  0
   -3.0470    1.9780   -0.6330 H   0  0  0  0  0  0  0  0  0  0  0  0
   -2.3520    1.9340   -2.3220 H   0  0  0  0  0  0  0  0  0  0  0  0
   -3.0040    3.4740   -1.7030 H   0  0  0  0  0  0  0  0  0  0  0  0
    0.1110    0.9110   -1.4810 H   0  0  0  0  0  0  0  0  0  0  0  0
    0.4270    2.3170   -2.5740 H   0  0  0  0  0  0  0  0  0  0  0  0
    1.9350    3.3340   -1.0230 H   0  0  0  0  0  0  0  0  0  0  0  0
    2.5740    1.7880   -1.5960 H   0  0  0  0  0  0  0  0  0  0  0  0
    2.9220    2.1220    0.8250 H   0  0  0  0  0  0  0  0  0  0  0  0
    0.6780    0.1800    0.4970 H   0  0  0  0  0  0  0  0  0  0  0  0
  1  2  1  0  0  0  0
  1  7  1  0  0  0  0
  2  9  1  0  0  0  0
  3 10  1  6  0  0  0
  3  5  1  0  0  0  0
  3  4  1  0  0  0  0
  3  2  1  0  0  0  0
  4 12  1  0  0  0  0
  4 11  1  0  0  0  0
  5  6  2  0  0  0  0
  8  2  1  0  0  0  0
 13  5  1  0  0  0  0
 13 14  1  0  0  0  0
 14 19  1  0  0  0  0
 15 16  2  0  0  0  0
 15 14  1  0  0  0  0
 17 13  1  0  0  0  0
 18 14  1  0  0  0  0
 20 21  1  0  0  0  0
 20 29  1  0  0  0  0
 22 32  1  0  0  0  0
 22 23  1  0  0  0  0
 22 21  1  0  0  0  0
 23 24  1  0  0  0  0
 24 25  1  0  0  0  0
 24 36  1  1  0  0  0
 24 26  1  0  0  0  0
 25 15  1  0  0  0  0
 26 27  1  0  0  0  0
 28 26  2  0  0  0  0
 30 20  1  0  0  0  0
 31 20  1  0  0  0  0
 33 22  1  0  0  0  0
 34 23  1  0  0  0  0
 35 23  1  0  0  0  0
 37 25  1  0  0  0  0
M  END
$$$$
