SGR.pdb
 OpenBabel07022419073D

 43 42  0  0  1  0  0  0  0  0999 V2000
   -0.0120   -6.5240   -2.8330 O   0  0  0  0  0  0  0  0  0  0  0  0
   -0.8500   -6.3570   -1.7520 C   0  0  0  0  0  0  0  0  0  0  0  0
   -0.0410   -5.9920   -0.5080 C   0  0  2  0  0  0  0  0  0  0  0  0
   -0.9050   -5.8190    0.6180 N   0  0  0  0  0  0  0  0  0  0  0  0
    0.7840   -4.7660   -0.7730 C   0  0  0  0  0  0  0  0  0  0  0  0
    1.6180   -4.7510   -1.7090 O   0  0  0  0  0  0  0  0  0  0  0  0
    0.0170   -5.7200   -3.4130 H   0  0  0  0  0  0  0  0  0  0  0  0
   -1.6180   -5.5920   -1.9730 H   0  0  0  0  0  0  0  0  0  0  0  0
   -1.3890   -7.2860   -1.5190 H   0  0  0  0  0  0  0  0  0  0  0  0
    0.6410   -6.8280   -0.3130 H   0  0  0  0  0  0  0  0  0  0  0  0
   -1.5700   -5.0210    0.5270 H   0  0  0  0  0  0  0  0  0  0  0  0
   -0.4810   -5.9410    1.5410 H   0  0  0  0  0  0  0  0  0  0  0  0
    0.6430   -3.5910    0.0270 N   0  0  0  0  0  0  0  0  0  0  0  0
    1.4290   -2.4000   -0.2090 C   0  0  0  0  0  0  0  0  0  0  0  0
    1.0230   -1.3840    0.7980 C   0  0  0  0  0  0  0  0  0  0  0  0
    0.1350   -1.6760    1.6210 O   0  0  0  0  0  0  0  0  0  0  0  0
   -0.0710   -3.6600    0.7950 H   0  0  0  0  0  0  0  0  0  0  0  0
    2.5250   -2.6330   -0.1380 H   0  0  0  0  0  0  0  0  0  0  0  0
    1.2340   -2.0530   -1.2510 H   0  0  0  0  0  0  0  0  0  0  0  0
   -0.1580    5.3580   -0.7450 N   0  0  0  0  0  0  0  0  0  0  0  0
   -0.1170    5.2490    0.6600 C   0  0  0  0  0  0  0  0  0  0  0  0
   -0.9720    5.8280    1.4230 N   0  0  0  0  0  0  0  0  0  0  0  0
    0.9160    4.4640    1.2480 N   0  0  0  0  0  0  0  0  0  0  0  0
    0.6840    3.8440    2.5520 C   0  0  0  0  0  0  0  0  0  0  0  0
   -0.3630    2.7540    2.4280 C   0  0  0  0  0  0  0  0  0  0  0  0
    0.0400    1.6600    1.4780 C   0  0  0  0  0  0  0  0  0  0  0  0
    1.2840    0.9410    1.8030 C   0  0  2  0  0  0  0  0  0  0  0  0
    1.6240   -0.0900    0.8430 N   0  0  0  0  0  0  0  0  0  0  0  0
    1.3500    0.4490    3.1910 C   0  0  0  0  0  0  0  0  0  0  0  0
    1.0690    1.1060    4.2090 O   0  0  0  0  0  0  0  0  0  0  0  0
    1.7680   -0.8780    3.3900 O   0  0  0  0  0  0  0  0  0  0  0  0
   -0.7540    4.7310   -1.2970 H   0  0  0  0  0  0  0  0  0  0  0  0
    0.4180    6.0780   -1.2180 H   0  0  0  0  0  0  0  0  0  0  0  0
   -1.7310    6.4060    0.9860 H   0  0  0  0  0  0  0  0  0  0  0  0
    1.8010    4.3640    0.7210 H   0  0  0  0  0  0  0  0  0  0  0  0
    1.6440    3.4110    2.8770 H   0  0  0  0  0  0  0  0  0  0  0  0
    0.2920    4.6040    3.2580 H   0  0  0  0  0  0  0  0  0  0  0  0
   -1.3140    3.2570    2.0570 H   0  0  0  0  0  0  0  0  0  0  0  0
   -0.6000    2.3510    3.4090 H   0  0  0  0  0  0  0  0  0  0  0  0
    0.0200    2.0280    0.4200 H   0  0  0  0  0  0  0  0  0  0  0  0
   -0.8340    0.9330    1.4980 H   0  0  0  0  0  0  0  0  0  0  0  0
    2.1550    1.6720    1.7390 H   0  0  0  0  0  0  0  0  0  0  0  0
    2.3630    0.0560    0.0880 H   0  0  0  0  0  0  0  0  0  0  0  0
  1  2  1  0  0  0  0
  2  9  1  0  0  0  0
  2  3  1  0  0  0  0
  3 10  1  1  0  0  0
  3  4  1  0  0  0  0
  4 12  1  0  0  0  0
  5  3  1  0  0  0  0
  5 13  1  0  0  0  0
  6  5  2  0  0  0  0
  7  1  1  0  0  0  0
  8  2  1  0  0  0  0
 11  4  1  0  0  0  0
 13 17  1  0  0  0  0
 14 18  1  0  0  0  0
 14 13  1  0  0  0  0
 14 15  1  0  0  0  0
 15 28  1  0  0  0  0
 15 16  2  0  0  0  0
 19 14  1  0  0  0  0
 20 21  1  0  0  0  0
 21 23  1  0  0  0  0
 21 22  2  0  0  0  0
 23 24  1  0  0  0  0
 24 36  1  0  0  0  0
 24 37  1  0  0  0  0
 25 24  1  0  0  0  0
 25 39  1  0  0  0  0
 26 41  1  0  0  0  0
 26 27  1  0  0  0  0
 26 25  1  0  0  0  0
 27 42  1  6  0  0  0
 27 29  1  0  0  0  0
 28 27  1  0  0  0  0
 29 31  2  0  0  0  0
 29 30  1  0  0  0  0
 32 20  1  0  0  0  0
 33 20  1  0  0  0  0
 34 22  1  0  0  0  0
 35 23  1  0  0  0  0
 38 25  1  0  0  0  0
 40 26  1  0  0  0  0
 43 28  1  0  0  0  0
M  END
$$$$
