SGV.pdb
 OpenBabel07022419073D

 36 35  0  0  1  0  0  0  0  0999 V2000
    2.3170   -4.8410   -0.3450 O   0  0  0  0  0  0  0  0  0  0  0  0
    1.6330   -3.7620    0.2110 C   0  0  0  0  0  0  0  0  0  0  0  0
    0.1880   -3.8890   -0.2110 C   0  0  2  0  0  0  0  0  0  0  0  0
    0.1110   -3.8580   -1.6460 N   0  0  0  0  0  0  0  0  0  0  0  0
   -0.6710   -2.8510    0.3640 C   0  0  0  0  0  0  0  0  0  0  0  0
   -1.3310   -2.1040   -0.4040 O   0  0  0  0  0  0  0  0  0  0  0  0
    3.2130   -4.5520   -0.6430 H   0  0  0  0  0  0  0  0  0  0  0  0
    2.0750   -2.8360   -0.2390 H   0  0  0  0  0  0  0  0  0  0  0  0
    1.7680   -3.8140    1.3010 H   0  0  0  0  0  0  0  0  0  0  0  0
   -0.1720   -4.8910    0.1500 H   0  0  0  0  0  0  0  0  0  0  0  0
   -0.6400   -3.2040   -1.9920 H   0  0  0  0  0  0  0  0  0  0  0  0
    1.0160   -3.7120   -2.1200 H   0  0  0  0  0  0  0  0  0  0  0  0
   -0.8100   -2.6280    1.7640 N   0  0  0  0  0  0  0  0  0  0  0  0
   -1.6650   -1.5850    2.2360 C   0  0  0  0  0  0  0  0  0  0  0  0
   -1.1420   -0.2620    1.8160 C   0  0  0  0  0  0  0  0  0  0  0  0
   -1.8690    0.7120    2.1100 O   0  0  0  0  0  0  0  0  0  0  0  0
   -0.2930   -3.2200    2.4450 H   0  0  0  0  0  0  0  0  0  0  0  0
   -2.7000   -1.6500    1.7840 H   0  0  0  0  0  0  0  0  0  0  0  0
   -1.8230   -1.6250    3.3400 H   0  0  0  0  0  0  0  0  0  0  0  0
    0.7600    3.5060    0.4760 C   0  0  0  0  0  0  0  0  0  0  0  0
   -0.0640    2.2860    0.9470 C   0  0  0  0  0  0  0  0  0  0  0  0
   -1.2710    2.2700   -0.0260 C   0  0  0  0  0  0  0  0  0  0  0  0
    0.6970    1.0240    0.6490 C   0  0  2  0  0  0  0  0  0  0  0  0
    0.0540   -0.1310    1.1580 N   0  0  0  0  0  0  0  0  0  0  0  0
    2.1190    1.0540    0.9520 C   0  0  0  0  0  0  0  0  0  0  0  0
    2.9160    1.9590    0.6190 O   0  0  0  0  0  0  0  0  0  0  0  0
    2.6660   -0.0100    1.6790 O   0  0  0  0  0  0  0  0  0  0  0  0
    1.4110    3.8180    1.2950 H   0  0  0  0  0  0  0  0  0  0  0  0
    1.2740    3.2770   -0.4600 H   0  0  0  0  0  0  0  0  0  0  0  0
    0.0140    4.2990    0.2750 H   0  0  0  0  0  0  0  0  0  0  0  0
   -0.3260    2.3830    1.9560 H   0  0  0  0  0  0  0  0  0  0  0  0
   -2.1160    2.7340    0.4830 H   0  0  0  0  0  0  0  0  0  0  0  0
   -0.9720    2.9030   -0.9130 H   0  0  0  0  0  0  0  0  0  0  0  0
   -1.4850    1.2500   -0.3750 H   0  0  0  0  0  0  0  0  0  0  0  0
    0.5980    0.8960   -0.5160 H   0  0  0  0  0  0  0  0  0  0  0  0
    0.6580   -1.0300    1.0050 H   0  0  0  0  0  0  0  0  0  0  0  0
  1  2  1  0  0  0  0
  2  9  1  0  0  0  0
  3 10  1  1  0  0  0
  3  2  1  0  0  0  0
  3  5  1  0  0  0  0
  4  3  1  0  0  0  0
  5 13  1  0  0  0  0
  6  5  2  0  0  0  0
  7  1  1  0  0  0  0
  8  2  1  0  0  0  0
 11  4  1  0  0  0  0
 12  4  1  0  0  0  0
 13 14  1  0  0  0  0
 13 17  1  0  0  0  0
 14 19  1  0  0  0  0
 15 16  2  0  0  0  0
 15 14  1  0  0  0  0
 18 14  1  0  0  0  0
 20 21  1  0  0  0  0
 20 28  1  0  0  0  0
 21 31  1  0  0  0  0
 22 32  1  0  0  0  0
 22 21  1  0  0  0  0
 23 35  1  6  0  0  0
 23 21  1  0  0  0  0
 23 25  1  0  0  0  0
 23 24  1  0  0  0  0
 24 15  1  0  0  0  0
 25 27  1  0  0  0  0
 26 25  2  0  0  0  0
 29 20  1  0  0  0  0
 30 20  1  0  0  0  0
 33 22  1  0  0  0  0
 34 22  1  0  0  0  0
 36 24  1  0  0  0  0
M  END
$$$$
