SGW.pdb
 OpenBabel07022419073D

 44 45  0  0  1  0  0  0  0  0999 V2000
    2.2620   -5.9010    1.2150 O   0  0  0  0  0  0  0  0  0  0  0  0
    2.5240   -4.5230    1.0820 C   0  0  0  0  0  0  0  0  0  0  0  0
    1.4320   -3.9870    0.1520 C   0  0  2  0  0  0  0  0  0  0  0  0
    1.5790   -4.7110   -1.0940 N   0  0  0  0  0  0  0  0  0  0  0  0
    1.5680   -2.5430   -0.0630 C   0  0  0  0  0  0  0  0  0  0  0  0
    1.4530   -1.7890    0.9620 O   0  0  0  0  0  0  0  0  0  0  0  0
    1.3550   -6.0690    1.5650 H   0  0  0  0  0  0  0  0  0  0  0  0
    3.5210   -4.4810    0.5520 H   0  0  0  0  0  0  0  0  0  0  0  0
    2.5360   -4.0250    2.0520 H   0  0  0  0  0  0  0  0  0  0  0  0
    0.4680   -4.2160    0.6700 H   0  0  0  0  0  0  0  0  0  0  0  0
    1.3550   -5.7340   -0.9680 H   0  0  0  0  0  0  0  0  0  0  0  0
    0.9480   -4.2820   -1.8130 H   0  0  0  0  0  0  0  0  0  0  0  0
    1.8130   -1.9250   -1.3050 N   0  0  0  0  0  0  0  0  0  0  0  0
    1.9340   -0.4890   -1.4370 C   0  0  0  0  0  0  0  0  0  0  0  0
    0.6650    0.1370   -0.9910 C   0  0  0  0  0  0  0  0  0  0  0  0
   -0.2850   -0.5740   -0.5920 O   0  0  0  0  0  0  0  0  0  0  0  0
    1.9110   -2.5150   -2.1550 H   0  0  0  0  0  0  0  0  0  0  0  0
    2.1960   -0.2130   -2.4730 H   0  0  0  0  0  0  0  0  0  0  0  0
    2.7530   -0.1370   -0.7530 H   0  0  0  0  0  0  0  0  0  0  0  0
    0.4570    1.5460   -0.9890 N   0  0  0  0  0  0  0  0  0  0  0  0
   -0.7780    2.1420   -0.5550 C   0  0  1  0  0  0  0  0  0  0  0  0
   -0.4960    2.8830    0.7610 C   0  0  0  0  0  0  0  0  0  0  0  0
   -0.0020    1.9420    1.7910 C   0  0  0  0  0  0  0  0  0  0  0  0
    1.2650    1.7210    2.2760 C   0  0  0  0  0  0  0  0  0  0  0  0
    1.2220    0.7430    3.2220 N   0  0  0  0  0  0  0  0  0  0  0  0
   -0.0440    0.3200    3.3660 C   0  0  0  0  0  0  0  0  0  0  0  0
   -0.5960   -0.6350    4.1820 C   0  0  0  0  0  0  0  0  0  0  0  0
   -1.9550   -0.8800    4.1330 C   0  0  0  0  0  0  0  0  0  0  0  0
   -2.7630   -0.1740    3.2720 C   0  0  0  0  0  0  0  0  0  0  0  0
   -2.1800    0.7770    2.4680 C   0  0  0  0  0  0  0  0  0  0  0  0
   -0.8180    1.0490    2.4900 C   0  0  0  0  0  0  0  0  0  0  0  0
   -1.3990    3.0010   -1.5610 C   0  0  0  0  0  0  0  0  0  0  0  0
   -0.8500    3.1630   -2.6920 O   0  0  0  0  0  0  0  0  0  0  0  0
   -2.5920    3.6800   -1.3620 O   0  0  0  0  0  0  0  0  0  0  0  0
    1.2470    2.1380   -1.3210 H   0  0  0  0  0  0  0  0  0  0  0  0
   -1.5150    1.3500   -0.2720 H   0  0  0  0  0  0  0  0  0  0  0  0
   -1.4990    3.2420    1.1120 H   0  0  0  0  0  0  0  0  0  0  0  0
    0.1380    3.7590    0.6120 H   0  0  0  0  0  0  0  0  0  0  0  0
    2.1410    2.2660    1.9310 H   0  0  0  0  0  0  0  0  0  0  0  0
    2.0800    0.4210    3.7180 H   0  0  0  0  0  0  0  0  0  0  0  0
   -0.0200   -1.2240    4.8800 H   0  0  0  0  0  0  0  0  0  0  0  0
   -2.4290   -1.6380    4.7730 H   0  0  0  0  0  0  0  0  0  0  0  0
   -3.8200   -0.3640    3.2340 H   0  0  0  0  0  0  0  0  0  0  0  0
   -2.7720    1.3720    1.7630 H   0  0  0  0  0  0  0  0  0  0  0  0
  1  7  1  0  0  0  0
  2  1  1  0  0  0  0
  2  9  1  0  0  0  0
  3 10  1  1  0  0  0
  3  2  1  0  0  0  0
  4 11  1  0  0  0  0
  4  3  1  0  0  0  0
  5  3  1  0  0  0  0
  5  6  2  0  0  0  0
  8  2  1  0  0  0  0
 12  4  1  0  0  0  0
 13  5  1  0  0  0  0
 14 13  1  0  0  0  0
 14 15  1  0  0  0  0
 14 19  1  0  0  0  0
 15 20  1  0  0  0  0
 15 16  2  0  0  0  0
 17 13  1  0  0  0  0
 18 14  1  0  0  0  0
 20 21  1  0  0  0  0
 21 36  1  1  0  0  0
 21 22  1  0  0  0  0
 22 37  1  0  0  0  0
 22 23  1  0  0  0  0
 23 24  2  0  0  0  0
 23 31  1  0  0  0  0
 24 25  1  0  0  0  0
 25 26  1  0  0  0  0
 25 40  1  0  0  0  0
 26 27  1  0  0  0  0
 27 41  1  0  0  0  0
 28 27  2  0  0  0  0
 28 42  1  0  0  0  0
 29 28  1  0  0  0  0
 30 31  1  0  0  0  0
 30 29  2  0  0  0  0
 31 26  2  0  0  0  0
 32 34  1  0  0  0  0
 32 21  1  0  0  0  0
 33 32  2  0  0  0  0
 35 20  1  0  0  0  0
 38 22  1  0  0  0  0
 39 24  1  0  0  0  0
 43 29  1  0  0  0  0
 44 30  1  0  0  0  0
M  END
$$$$
