SHC.pdb
 OpenBabel07022419083D

 41 41  0  0  1  0  0  0  0  0999 V2000
    0.9690   -3.3730    2.6620 O   0  0  0  0  0  0  0  0  0  0  0  0
    1.5320   -3.4520    1.3960 C   0  0  0  0  0  0  0  0  0  0  0  0
    2.6810   -2.4610    1.2690 C   0  0  2  0  0  0  0  0  0  0  0  0
    3.6730   -2.7710    2.2480 N   0  0  0  0  0  0  0  0  0  0  0  0
    2.1390   -1.0830    1.4170 C   0  0  0  0  0  0  0  0  0  0  0  0
    2.5930   -0.3720    2.3480 O   0  0  0  0  0  0  0  0  0  0  0  0
    0.3430   -2.6150    2.7200 H   0  0  0  0  0  0  0  0  0  0  0  0
    1.9490   -4.4670    1.2110 H   0  0  0  0  0  0  0  0  0  0  0  0
    0.8020   -3.2060    0.6080 H   0  0  0  0  0  0  0  0  0  0  0  0
    3.1370   -2.5520    0.2670 H   0  0  0  0  0  0  0  0  0  0  0  0
    4.6100   -2.4090    2.0510 H   0  0  0  0  0  0  0  0  0  0  0  0
    3.7020   -3.7820    2.5200 H   0  0  0  0  0  0  0  0  0  0  0  0
    1.1400   -0.6020    0.5280 N   0  0  0  0  0  0  0  0  0  0  0  0
    0.6310    0.7380    0.6930 C   0  0  1  0  0  0  0  0  0  0  0  0
    0.8960    1.5640   -0.5600 C   0  0  0  0  0  0  0  0  0  0  0  0
    2.3490    1.6610   -0.8550 C   0  0  0  0  0  0  0  0  0  0  0  0
    3.1950    2.6520   -0.3800 C   0  0  0  0  0  0  0  0  0  0  0  0
    4.4300    2.4430   -0.8320 N   0  0  0  0  0  0  0  0  0  0  0  0
    4.3980    1.3390   -1.5880 C   0  0  0  0  0  0  0  0  0  0  0  0
    3.1270    0.8570   -1.6050 N   0  0  0  0  0  0  0  0  0  0  0  0
   -0.8390    0.7520    0.9080 C   0  0  0  0  0  0  0  0  0  0  0  0
   -1.3840    1.8750    1.0630 O   0  0  0  0  0  0  0  0  0  0  0  0
    0.8210   -1.2530   -0.2120 H   0  0  0  0  0  0  0  0  0  0  0  0
    1.1210    1.2370    1.5450 H   0  0  0  0  0  0  0  0  0  0  0  0
    0.4850    2.5810   -0.4080 H   0  0  0  0  0  0  0  0  0  0  0  0
    0.4040    1.1440   -1.4440 H   0  0  0  0  0  0  0  0  0  0  0  0
    2.8610    3.4710    0.2700 H   0  0  0  0  0  0  0  0  0  0  0  0
    5.2460    3.0710   -0.6010 H   0  0  0  0  0  0  0  0  0  0  0  0
    5.2730    0.9300   -2.0880 H   0  0  0  0  0  0  0  0  0  0  0  0
   -1.6600   -0.3950    0.9480 N   0  0  0  0  0  0  0  0  0  0  0  0
   -3.0880   -0.3750    1.1570 C   0  0  1  0  0  0  0  0  0  0  0  0
   -3.7350   -0.9510   -0.1090 C   0  0  0  0  0  0  0  0  0  0  0  0
   -3.1940   -2.6330   -0.4200 S   0  0  0  0  0  0  0  0  0  0  0  0
   -3.5100   -1.2040    2.3030 C   0  0  0  0  0  0  0  0  0  0  0  0
   -2.6530   -1.8220    2.9660 O   0  0  0  0  0  0  0  0  0  0  0  0
   -4.8360   -1.3010    2.6480 O   0  0  0  0  0  0  0  0  0  0  0  0
   -1.1920   -1.3190    0.8180 H   0  0  0  0  0  0  0  0  0  0  0  0
   -3.5030    0.6220    1.2850 H   0  0  0  0  0  0  0  0  0  0  0  0
   -4.8440   -0.9730    0.0250 H   0  0  0  0  0  0  0  0  0  0  0  0
   -3.4820   -0.3240   -0.9930 H   0  0  0  0  0  0  0  0  0  0  0  0
   -3.5700   -3.4540    0.6650 H   0  0  0  0  0  0  0  0  0  0  0  0
  1  7  1  0  0  0  0
  2  1  1  0  0  0  0
  3 10  1  6  0  0  0
  3  2  1  0  0  0  0
  3  5  1  0  0  0  0
  3  4  1  0  0  0  0
  4 12  1  0  0  0  0
  5  6  2  0  0  0  0
  8  2  1  0  0  0  0
  9  2  1  0  0  0  0
 11  4  1  0  0  0  0
 13 14  1  0  0  0  0
 13  5  1  0  0  0  0
 14 21  1  0  0  0  0
 14 24  1  1  0  0  0
 15 25  1  0  0  0  0
 15 14  1  0  0  0  0
 16 15  1  0  0  0  0
 16 17  2  0  0  0  0
 17 27  1  0  0  0  0
 18 28  1  0  0  0  0
 18 17  1  0  0  0  0
 19 18  1  0  0  0  0
 20 19  2  0  0  0  0
 20 16  1  0  0  0  0
 21 30  1  0  0  0  0
 21 22  2  0  0  0  0
 23 13  1  0  0  0  0
 26 15  1  0  0  0  0
 29 19  1  0  0  0  0
 30 31  1  0  0  0  0
 31 38  1  1  0  0  0
 31 34  1  0  0  0  0
 32 39  1  0  0  0  0
 32 31  1  0  0  0  0
 33 32  1  0  0  0  0
 33 41  1  0  0  0  0
 34 36  2  0  0  0  0
 34 35  1  0  0  0  0
 37 30  1  0  0  0  0
 40 32  1  0  0  0  0
M  END
$$$$
