SHF.pdb
 OpenBabel07022419083D

 50 51  0  0  1  0  0  0  0  0999 V2000
    3.6250   -0.9840   -1.7680 O   0  0  0  0  0  0  0  0  0  0  0  0
    2.7740   -1.0550   -0.6720 C   0  0  0  0  0  0  0  0  0  0  0  0
    3.2000    0.0650    0.2860 C   0  0  2  0  0  0  0  0  0  0  0  0
    4.5780   -0.2040    0.6420 N   0  0  0  0  0  0  0  0  0  0  0  0
    2.3490    0.0080    1.4980 C   0  0  0  0  0  0  0  0  0  0  0  0
    2.8960   -0.2470    2.5980 O   0  0  0  0  0  0  0  0  0  0  0  0
    4.5040   -0.6280   -1.4650 H   0  0  0  0  0  0  0  0  0  0  0  0
    2.8860   -2.0180   -0.1330 H   0  0  0  0  0  0  0  0  0  0  0  0
    1.7480   -0.8650   -1.0150 H   0  0  0  0  0  0  0  0  0  0  0  0
    3.1080    1.0350   -0.2360 H   0  0  0  0  0  0  0  0  0  0  0  0
    4.8850    0.3030    1.5000 H   0  0  0  0  0  0  0  0  0  0  0  0
    4.7760   -1.2170    0.7540 H   0  0  0  0  0  0  0  0  0  0  0  0
    0.9560    0.2250    1.4970 N   0  0  0  0  0  0  0  0  0  0  0  0
    0.1150    0.1750    2.6570 C   0  0  1  0  0  0  0  0  0  0  0  0
   -0.5730    1.5400    2.7910 C   0  0  0  0  0  0  0  0  0  0  0  0
    0.3900    2.6340    2.9450 C   0  0  0  0  0  0  0  0  0  0  0  0
    0.9560    3.3640    1.9210 C   0  0  0  0  0  0  0  0  0  0  0  0
    1.7680    4.2520    2.5010 N   0  0  0  0  0  0  0  0  0  0  0  0
    1.7360    4.1100    3.8370 C   0  0  0  0  0  0  0  0  0  0  0  0
    0.8810    3.1070    4.1030 N   0  0  0  0  0  0  0  0  0  0  0  0
   -0.9750   -0.8220    2.5460 C   0  0  0  0  0  0  0  0  0  0  0  0
   -1.7630   -0.9360    3.5160 O   0  0  0  0  0  0  0  0  0  0  0  0
    0.5010    0.4370    0.5820 H   0  0  0  0  0  0  0  0  0  0  0  0
    0.6730   -0.0560    3.5870 H   0  0  0  0  0  0  0  0  0  0  0  0
   -1.2920    1.6910    1.9610 H   0  0  0  0  0  0  0  0  0  0  0  0
   -1.2170    1.4340    3.7130 H   0  0  0  0  0  0  0  0  0  0  0  0
    0.8130    3.2840    0.8470 H   0  0  0  0  0  0  0  0  0  0  0  0
    2.3550    4.9640    2.0000 H   0  0  0  0  0  0  0  0  0  0  0  0
    2.3120    4.7160    4.5410 H   0  0  0  0  0  0  0  0  0  0  0  0
   -1.1910   -1.6550    1.4220 N   0  0  0  0  0  0  0  0  0  0  0  0
   -2.2880   -2.5970    1.4180 C   0  0  1  0  0  0  0  0  0  0  0  0
   -3.3150   -2.2550    0.3600 C   0  0  0  0  0  0  0  0  0  0  0  0
   -2.6570   -2.2780   -0.9730 C   0  0  0  0  0  0  0  0  0  0  0  0
   -2.0660   -1.1270   -1.4650 C   0  0  0  0  0  0  0  0  0  0  0  0
   -1.4720   -1.1800   -2.6960 C   0  0  0  0  0  0  0  0  0  0  0  0
   -1.4460   -2.3250   -3.4470 C   0  0  0  0  0  0  0  0  0  0  0  0
   -2.0390   -3.4650   -2.9460 C   0  0  0  0  0  0  0  0  0  0  0  0
   -2.6480   -3.4370   -1.6980 C   0  0  0  0  0  0  0  0  0  0  0  0
   -1.7430   -3.9580    1.2700 C   0  0  0  0  0  0  0  0  0  0  0  0
   -0.5080   -4.1180    1.1540 O   0  0  0  0  0  0  0  0  0  0  0  0
   -2.5610   -5.0730    1.2550 O   0  0  0  0  0  0  0  0  0  0  0  0
   -0.5570   -1.5790    0.6150 H   0  0  0  0  0  0  0  0  0  0  0  0
   -2.8420   -2.5030    2.4010 H   0  0  0  0  0  0  0  0  0  0  0  0
   -3.7700   -1.2650    0.5600 H   0  0  0  0  0  0  0  0  0  0  0  0
   -4.1000   -3.0440    0.4060 H   0  0  0  0  0  0  0  0  0  0  0  0
   -2.0850   -0.2170   -0.8710 H   0  0  0  0  0  0  0  0  0  0  0  0
   -0.9960   -0.2920   -3.1140 H   0  0  0  0  0  0  0  0  0  0  0  0
   -0.9700   -2.3690   -4.4340 H   0  0  0  0  0  0  0  0  0  0  0  0
   -2.0480   -4.4000   -3.4980 H   0  0  0  0  0  0  0  0  0  0  0  0
   -3.1160   -4.3550   -1.3210 H   0  0  0  0  0  0  0  0  0  0  0  0
  1  7  1  0  0  0  0
  1  2  1  0  0  0  0
  2  8  1  0  0  0  0
  2  3  1  0  0  0  0
  3 10  1  6  0  0  0
  3  4  1  0  0  0  0
  3  5  1  0  0  0  0
  4 12  1  0  0  0  0
  4 11  1  0  0  0  0
  5  6  2  0  0  0  0
  9  2  1  0  0  0  0
 13  5  1  0  0  0  0
 13 14  1  0  0  0  0
 14 15  1  0  0  0  0
 14 24  1  1  0  0  0
 15 16  1  0  0  0  0
 15 26  1  0  0  0  0
 16 20  1  0  0  0  0
 17 18  1  0  0  0  0
 17 16  2  0  0  0  0
 18 19  1  0  0  0  0
 19 20  2  0  0  0  0
 19 29  1  0  0  0  0
 21 14  1  0  0  0  0
 21 22  2  0  0  0  0
 23 13  1  0  0  0  0
 25 15  1  0  0  0  0
 27 17  1  0  0  0  0
 28 18  1  0  0  0  0
 30 21  1  0  0  0  0
 31 30  1  0  0  0  0
 31 43  1  1  0  0  0
 32 45  1  0  0  0  0
 32 44  1  0  0  0  0
 32 31  1  0  0  0  0
 33 32  1  0  0  0  0
 34 33  1  0  0  0  0
 34 46  1  0  0  0  0
 35 34  2  0  0  0  0
 36 37  2  0  0  0  0
 36 35  1  0  0  0  0
 37 38  1  0  0  0  0
 38 50  1  0  0  0  0
 38 33  2  0  0  0  0
 39 31  1  0  0  0  0
 40 39  2  0  0  0  0
 41 39  1  0  0  0  0
 42 30  1  0  0  0  0
 47 35  1  0  0  0  0
 48 36  1  0  0  0  0
 49 37  1  0  0  0  0
M  END
$$$$
