SHG.pdb
 OpenBabel07022419083D

 37 37  0  0  1  0  0  0  0  0999 V2000
   -1.0440   -3.9290    1.7120 O   0  0  0  0  0  0  0  0  0  0  0  0
   -0.5060   -3.8010    0.4190 C   0  0  0  0  0  0  0  0  0  0  0  0
    0.9910   -3.6330    0.4910 C   0  0  2  0  0  0  0  0  0  0  0  0
    1.5240   -4.8120    1.1410 N   0  0  0  0  0  0  0  0  0  0  0  0
    1.4050   -2.4470    1.2360 C   0  0  0  0  0  0  0  0  0  0  0  0
    2.1130   -2.5790    2.2650 O   0  0  0  0  0  0  0  0  0  0  0  0
   -2.0110   -4.0470    1.6780 H   0  0  0  0  0  0  0  0  0  0  0  0
   -0.6880   -4.7970   -0.0750 H   0  0  0  0  0  0  0  0  0  0  0  0
   -1.0140   -3.0510   -0.1860 H   0  0  0  0  0  0  0  0  0  0  0  0
    1.4120   -3.6160   -0.5300 H   0  0  0  0  0  0  0  0  0  0  0  0
    1.1750   -5.6490    0.6230 H   0  0  0  0  0  0  0  0  0  0  0  0
    1.2070   -4.8920    2.1340 H   0  0  0  0  0  0  0  0  0  0  0  0
    1.0130   -1.1580    0.8050 N   0  0  0  0  0  0  0  0  0  0  0  0
    1.4440   -0.0130    1.5710 C   0  0  1  0  0  0  0  0  0  0  0  0
    2.3390    0.8120    0.6800 C   0  0  0  0  0  0  0  0  0  0  0  0
    1.6930    1.2950   -0.5490 C   0  0  0  0  0  0  0  0  0  0  0  0
    1.6440    0.6410   -1.7870 C   0  0  0  0  0  0  0  0  0  0  0  0
    0.9630    1.4070   -2.6570 N   0  0  0  0  0  0  0  0  0  0  0  0
    0.5820    2.5170   -2.0110 C   0  0  0  0  0  0  0  0  0  0  0  0
    1.0230    2.4440   -0.7490 N   0  0  0  0  0  0  0  0  0  0  0  0
    0.3130    0.7320    2.1410 C   0  0  0  0  0  0  0  0  0  0  0  0
    0.4400    1.7680    2.8410 O   0  0  0  0  0  0  0  0  0  0  0  0
    0.4140   -1.0600   -0.0670 H   0  0  0  0  0  0  0  0  0  0  0  0
    2.0540   -0.3640    2.4320 H   0  0  0  0  0  0  0  0  0  0  0  0
    2.6910    1.7060    1.2720 H   0  0  0  0  0  0  0  0  0  0  0  0
    3.2710    0.2730    0.4150 H   0  0  0  0  0  0  0  0  0  0  0  0
    2.0950   -0.3230   -1.9680 H   0  0  0  0  0  0  0  0  0  0  0  0
    0.7610    1.1860   -3.6560 H   0  0  0  0  0  0  0  0  0  0  0  0
    0.0200    3.3340   -2.4240 H   0  0  0  0  0  0  0  0  0  0  0  0
   -1.0020    0.2430    1.8820 N   0  0  0  0  0  0  0  0  0  0  0  0
   -2.1580    0.9220    2.4160 C   0  0  0  0  0  0  0  0  0  0  0  0
   -2.2790    2.3220    1.9600 C   0  0  0  0  0  0  0  0  0  0  0  0
   -1.4140    2.7820    1.1890 O   0  0  0  0  0  0  0  0  0  0  0  0
   -3.3460    3.1320    2.3810 O   0  0  0  0  0  0  0  0  0  0  0  0
   -1.1500   -0.6290    1.2920 H   0  0  0  0  0  0  0  0  0  0  0  0
   -3.0830    0.4010    2.1190 H   0  0  0  0  0  0  0  0  0  0  0  0
   -2.1100    0.9500    3.5370 H   0  0  0  0  0  0  0  0  0  0  0  0
  2  3  1  0  0  0  0
  2  1  1  0  0  0  0
  3 10  1  6  0  0  0
  3  4  1  0  0  0  0
  3  5  1  0  0  0  0
  4 12  1  0  0  0  0
  5  6  2  0  0  0  0
  7  1  1  0  0  0  0
  8  2  1  0  0  0  0
  9  2  1  0  0  0  0
 11  4  1  0  0  0  0
 13  5  1  0  0  0  0
 13 14  1  0  0  0  0
 14 21  1  0  0  0  0
 14 24  1  1  0  0  0
 15 25  1  0  0  0  0
 15 14  1  0  0  0  0
 16 15  1  0  0  0  0
 17 16  2  0  0  0  0
 18 19  1  0  0  0  0
 18 17  1  0  0  0  0
 19 20  2  0  0  0  0
 20 16  1  0  0  0  0
 21 22  2  0  0  0  0
 23 13  1  0  0  0  0
 26 15  1  0  0  0  0
 27 17  1  0  0  0  0
 28 18  1  0  0  0  0
 29 19  1  0  0  0  0
 30 21  1  0  0  0  0
 30 31  1  0  0  0  0
 31 37  1  0  0  0  0
 32 34  1  0  0  0  0
 32 31  1  0  0  0  0
 33 32  2  0  0  0  0
 35 30  1  0  0  0  0
 36 31  1  0  0  0  0
M  END
$$$$
