SHH.pdb
 OpenBabel07022419083D

 47 48  0  0  1  0  0  0  0  0999 V2000
   -1.2120   -3.3730    2.8210 O   0  0  0  0  0  0  0  0  0  0  0  0
   -0.0380   -3.9540    2.4110 C   0  0  0  0  0  0  0  0  0  0  0  0
    1.1880   -3.2370    2.9180 C   0  0  2  0  0  0  0  0  0  0  0  0
    1.1510   -3.2550    4.3630 N   0  0  0  0  0  0  0  0  0  0  0  0
    1.3100   -1.8580    2.4290 C   0  0  0  0  0  0  0  0  0  0  0  0
    1.3690   -0.8990    3.2620 O   0  0  0  0  0  0  0  0  0  0  0  0
   -1.9300   -3.5170    2.1540 H   0  0  0  0  0  0  0  0  0  0  0  0
    0.0040   -3.9410    1.2890 H   0  0  0  0  0  0  0  0  0  0  0  0
    0.0570   -5.0170    2.7170 H   0  0  0  0  0  0  0  0  0  0  0  0
    2.0880   -3.8160    2.6130 H   0  0  0  0  0  0  0  0  0  0  0  0
    1.7420   -2.4900    4.7750 H   0  0  0  0  0  0  0  0  0  0  0  0
    1.5000   -4.1450    4.7720 H   0  0  0  0  0  0  0  0  0  0  0  0
    1.3700   -1.4990    1.0630 N   0  0  0  0  0  0  0  0  0  0  0  0
    1.4920   -0.1250    0.5930 C   0  0  1  0  0  0  0  0  0  0  0  0
    2.6970    0.0750   -0.2530 C   0  0  0  0  0  0  0  0  0  0  0  0
    2.7790    1.4860   -0.6990 C   0  0  0  0  0  0  0  0  0  0  0  0
    3.4210    2.5330   -0.0190 C   0  0  0  0  0  0  0  0  0  0  0  0
    3.2920    3.6720   -0.7200 N   0  0  0  0  0  0  0  0  0  0  0  0
    2.5890    3.3800   -1.8220 C   0  0  0  0  0  0  0  0  0  0  0  0
    2.2890    2.0810   -1.8030 N   0  0  0  0  0  0  0  0  0  0  0  0
    0.2630    0.2000   -0.1720 C   0  0  0  0  0  0  0  0  0  0  0  0
    0.0410    1.3240   -0.6900 O   0  0  0  0  0  0  0  0  0  0  0  0
    1.3260   -2.2500    0.3580 H   0  0  0  0  0  0  0  0  0  0  0  0
    1.5350    0.5560    1.4640 H   0  0  0  0  0  0  0  0  0  0  0  0
    2.6210   -0.5330   -1.2030 H   0  0  0  0  0  0  0  0  0  0  0  0
    3.6460   -0.1870    0.2620 H   0  0  0  0  0  0  0  0  0  0  0  0
    3.9420    2.4390    0.9280 H   0  0  0  0  0  0  0  0  0  0  0  0
    3.6780    4.5970   -0.4350 H   0  0  0  0  0  0  0  0  0  0  0  0
    2.3350    4.1360   -2.5800 H   0  0  0  0  0  0  0  0  0  0  0  0
   -0.7500   -0.7950   -0.3530 N   0  0  0  0  0  0  0  0  0  0  0  0
   -1.9360   -0.4880   -1.0960 C   0  0  1  0  0  0  0  0  0  0  0  0
   -2.7990    0.4460   -0.3160 C   0  0  0  0  0  0  0  0  0  0  0  0
   -3.1580   -0.2180    0.9590 C   0  0  0  0  0  0  0  0  0  0  0  0
   -2.4600   -0.1530    2.1430 C   0  0  0  0  0  0  0  0  0  0  0  0
   -3.1630   -0.9090    3.0240 N   0  0  0  0  0  0  0  0  0  0  0  0
   -4.2460   -1.4300    2.4480 C   0  0  0  0  0  0  0  0  0  0  0  0
   -4.2230   -0.9850    1.1620 N   0  0  0  0  0  0  0  0  0  0  0  0
   -1.6460   -0.0240   -2.4850 C   0  0  0  0  0  0  0  0  0  0  0  0
   -2.5330    0.3260   -3.2790 O   0  0  0  0  0  0  0  0  0  0  0  0
   -0.3250    0.0130   -2.8940 O   0  0  0  0  0  0  0  0  0  0  0  0
   -0.6300   -1.7660    0.0610 H   0  0  0  0  0  0  0  0  0  0  0  0
   -2.5280   -1.4470   -1.2490 H   0  0  0  0  0  0  0  0  0  0  0  0
   -2.2130    1.3730   -0.1030 H   0  0  0  0  0  0  0  0  0  0  0  0
   -3.7100    0.7270   -0.8940 H   0  0  0  0  0  0  0  0  0  0  0  0
   -1.5470    0.3700    2.3730 H   0  0  0  0  0  0  0  0  0  0  0  0
   -2.9230   -1.0890    4.0350 H   0  0  0  0  0  0  0  0  0  0  0  0
   -5.0170   -2.0720    2.8520 H   0  0  0  0  0  0  0  0  0  0  0  0
  2  9  1  0  0  0  0
  2  1  1  0  0  0  0
  2  3  1  0  0  0  0
  3 10  1  6  0  0  0
  3  4  1  0  0  0  0
  4 12  1  0  0  0  0
  4 11  1  0  0  0  0
  5  3  1  0  0  0  0
  5  6  2  0  0  0  0
  7  1  1  0  0  0  0
  8  2  1  0  0  0  0
 13  5  1  0  0  0  0
 14 13  1  0  0  0  0
 14 24  1  1  0  0  0
 15 26  1  0  0  0  0
 15 14  1  0  0  0  0
 16 15  1  0  0  0  0
 16 17  2  0  0  0  0
 17 27  1  0  0  0  0
 18 28  1  0  0  0  0
 18 17  1  0  0  0  0
 19 20  2  0  0  0  0
 19 18  1  0  0  0  0
 20 16  1  0  0  0  0
 21 14  1  0  0  0  0
 22 21  2  0  0  0  0
 23 13  1  0  0  0  0
 25 15  1  0  0  0  0
 29 19  1  0  0  0  0
 30 21  1  0  0  0  0
 30 41  1  0  0  0  0
 31 42  1  6  0  0  0
 31 30  1  0  0  0  0
 31 32  1  0  0  0  0
 32 43  1  0  0  0  0
 32 33  1  0  0  0  0
 33 37  1  0  0  0  0
 33 34  2  0  0  0  0
 34 45  1  0  0  0  0
 34 35  1  0  0  0  0
 35 46  1  0  0  0  0
 36 47  1  0  0  0  0
 36 35  1  0  0  0  0
 37 36  2  0  0  0  0
 38 31  1  0  0  0  0
 39 38  2  0  0  0  0
 40 38  1  0  0  0  0
 44 32  1  0  0  0  0
M  END
$$$$
