SHK.pdb
 OpenBabel07022419083D

 51 51  0  0  1  0  0  0  0  0999 V2000
    1.1630   -4.6290    2.7290 O   0  0  0  0  0  0  0  0  0  0  0  0
    2.3530   -4.5860    2.0230 C   0  0  0  0  0  0  0  0  0  0  0  0
    3.3430   -3.6150    2.6230 C   0  0  2  0  0  0  0  0  0  0  0  0
    3.6580   -3.9850    3.9710 N   0  0  0  0  0  0  0  0  0  0  0  0
    2.8530   -2.2230    2.5930 C   0  0  0  0  0  0  0  0  0  0  0  0
    2.7680   -1.5510    3.6780 O   0  0  0  0  0  0  0  0  0  0  0  0
    1.3600   -5.1170    3.5870 H   0  0  0  0  0  0  0  0  0  0  0  0
    2.2100   -4.3100    0.9540 H   0  0  0  0  0  0  0  0  0  0  0  0
    2.8370   -5.5850    2.0270 H   0  0  0  0  0  0  0  0  0  0  0  0
    4.2590   -3.6690    2.0150 H   0  0  0  0  0  0  0  0  0  0  0  0
    2.7880   -3.9280    4.5450 H   0  0  0  0  0  0  0  0  0  0  0  0
    4.3180   -3.2620    4.3580 H   0  0  0  0  0  0  0  0  0  0  0  0
    2.4570   -1.5500    1.4210 N   0  0  0  0  0  0  0  0  0  0  0  0
    1.9780   -0.1570    1.4800 C   0  0  1  0  0  0  0  0  0  0  0  0
    2.8290    0.7350    0.6450 C   0  0  0  0  0  0  0  0  0  0  0  0
    2.3660    2.1330    0.6990 C   0  0  0  0  0  0  0  0  0  0  0  0
    2.8110    3.0520    1.6510 C   0  0  0  0  0  0  0  0  0  0  0  0
    2.2250    4.2470    1.4640 N   0  0  0  0  0  0  0  0  0  0  0  0
    1.4120    4.0980    0.4030 C   0  0  0  0  0  0  0  0  0  0  0  0
    1.5040    2.8340   -0.0460 N   0  0  0  0  0  0  0  0  0  0  0  0
    0.5790   -0.0990    1.0030 C   0  0  0  0  0  0  0  0  0  0  0  0
   -0.0200    1.0010    1.0220 O   0  0  0  0  0  0  0  0  0  0  0  0
    2.5040   -2.0460    0.5080 H   0  0  0  0  0  0  0  0  0  0  0  0
    1.9940    0.2080    2.5260 H   0  0  0  0  0  0  0  0  0  0  0  0
    3.9010    0.7240    0.9350 H   0  0  0  0  0  0  0  0  0  0  0  0
    2.8170    0.3590   -0.4190 H   0  0  0  0  0  0  0  0  0  0  0  0
    3.5240    2.8260    2.4240 H   0  0  0  0  0  0  0  0  0  0  0  0
    2.3530    5.1300    2.0130 H   0  0  0  0  0  0  0  0  0  0  0  0
    0.7910    4.9090    0.0020 H   0  0  0  0  0  0  0  0  0  0  0  0
   -0.1260   -1.2270    0.5220 N   0  0  0  0  0  0  0  0  0  0  0  0
   -1.4990   -1.0350    0.0820 C   0  0  1  0  0  0  0  0  0  0  0  0
   -1.6970   -1.4550   -1.3300 C   0  0  0  0  0  0  0  0  0  0  0  0
   -3.0940   -1.2670   -1.8400 C   0  0  0  0  0  0  0  0  0  0  0  0
   -3.5550    0.1710   -1.7650 C   0  0  0  0  0  0  0  0  0  0  0  0
   -4.9640    0.2360   -2.3010 C   0  0  0  0  0  0  0  0  0  0  0  0
   -5.3730    1.6450   -2.2110 N   0  0  0  0  0  0  0  0  0  0  0  0
   -2.3550   -1.8230    0.9970 C   0  0  0  0  0  0  0  0  0  0  0  0
   -1.8240   -2.5460    1.8980 O   0  0  0  0  0  0  0  0  0  0  0  0
   -3.7400   -1.8520    0.9720 O   0  0  0  0  0  0  0  0  0  0  0  0
    0.3360   -2.1520    0.4910 H   0  0  0  0  0  0  0  0  0  0  0  0
   -1.8170    0.0230    0.1910 H   0  0  0  0  0  0  0  0  0  0  0  0
   -1.5010   -2.5680   -1.4270 H   0  0  0  0  0  0  0  0  0  0  0  0
   -0.9430   -1.0160   -2.0280 H   0  0  0  0  0  0  0  0  0  0  0  0
   -3.0880   -1.5680   -2.9270 H   0  0  0  0  0  0  0  0  0  0  0  0
   -3.7860   -1.8860   -1.2610 H   0  0  0  0  0  0  0  0  0  0  0  0
   -3.5870    0.5000   -0.7060 H   0  0  0  0  0  0  0  0  0  0  0  0
   -2.9130    0.8690   -2.3110 H   0  0  0  0  0  0  0  0  0  0  0  0
   -5.0300   -0.0260   -3.3690 H   0  0  0  0  0  0  0  0  0  0  0  0
   -5.6430   -0.3320   -1.6560 H   0  0  0  0  0  0  0  0  0  0  0  0
   -4.6880    2.2400   -2.7260 H   0  0  0  0  0  0  0  0  0  0  0  0
   -5.4100    1.9420   -1.2240 H   0  0  0  0  0  0  0  0  0  0  0  0
  1  7  1  0  0  0  0
  2  9  1  0  0  0  0
  2  3  1  0  0  0  0
  2  1  1  0  0  0  0
  3 10  1  6  0  0  0
  3  4  1  0  0  0  0
  4 12  1  0  0  0  0
  4 11  1  0  0  0  0
  5  3  1  0  0  0  0
  5  6  2  0  0  0  0
  8  2  1  0  0  0  0
 13 14  1  0  0  0  0
 13  5  1  0  0  0  0
 14 24  1  1  0  0  0
 15 16  1  0  0  0  0
 15 25  1  0  0  0  0
 15 14  1  0  0  0  0
 16 17  2  0  0  0  0
 17 27  1  0  0  0  0
 18 17  1  0  0  0  0
 18 28  1  0  0  0  0
 19 18  1  0  0  0  0
 20 19  2  0  0  0  0
 20 16  1  0  0  0  0
 21 22  2  0  0  0  0
 21 14  1  0  0  0  0
 23 13  1  0  0  0  0
 26 15  1  0  0  0  0
 29 19  1  0  0  0  0
 30 21  1  0  0  0  0
 31 41  1  1  0  0  0
 31 30  1  0  0  0  0
 31 37  1  0  0  0  0
 32 31  1  0  0  0  0
 33 34  1  0  0  0  0
 33 32  1  0  0  0  0
 33 45  1  0  0  0  0
 34 46  1  0  0  0  0
 35 36  1  0  0  0  0
 35 34  1  0  0  0  0
 35 49  1  0  0  0  0
 36 51  1  0  0  0  0
 37 38  1  0  0  0  0
 39 37  2  0  0  0  0
 40 30  1  0  0  0  0
 42 32  1  0  0  0  0
 43 32  1  0  0  0  0
 44 33  1  0  0  0  0
 47 34  1  0  0  0  0
 48 35  1  0  0  0  0
 50 36  1  0  0  0  0
M  END
$$$$
