SHL.pdb
 OpenBabel07022419083D

 49 49  0  0  1  0  0  0  0  0999 V2000
   -0.5060   -2.7500   -1.7240 O   0  0  0  0  0  0  0  0  0  0  0  0
    0.6450   -3.3930   -2.0800 C   0  0  0  0  0  0  0  0  0  0  0  0
    1.6750   -2.4500   -2.5990 C   0  0  2  0  0  0  0  0  0  0  0  0
    2.8820   -3.1880   -3.0000 N   0  0  0  0  0  0  0  0  0  0  0  0
    2.1150   -1.5060   -1.5530 C   0  0  0  0  0  0  0  0  0  0  0  0
    3.3420   -1.4990   -1.1520 O   0  0  0  0  0  0  0  0  0  0  0  0
   -1.1850   -3.4080   -1.4200 H   0  0  0  0  0  0  0  0  0  0  0  0
    0.4320   -4.1430   -2.8960 H   0  0  0  0  0  0  0  0  0  0  0  0
    1.0720   -3.9850   -1.2210 H   0  0  0  0  0  0  0  0  0  0  0  0
    1.2920   -1.9450   -3.5070 H   0  0  0  0  0  0  0  0  0  0  0  0
    3.5330   -3.2570   -2.1660 H   0  0  0  0  0  0  0  0  0  0  0  0
    3.3470   -2.6650   -3.7560 H   0  0  0  0  0  0  0  0  0  0  0  0
    1.1870   -0.5980   -0.9870 N   0  0  0  0  0  0  0  0  0  0  0  0
    1.5990    0.3490    0.0300 C   0  0  1  0  0  0  0  0  0  0  0  0
    1.4750    1.7670   -0.4820 C   0  0  0  0  0  0  0  0  0  0  0  0
    1.9010    2.7380    0.5580 C   0  0  0  0  0  0  0  0  0  0  0  0
    3.2120    3.1830    0.7060 C   0  0  0  0  0  0  0  0  0  0  0  0
    3.2220    4.0400    1.7340 N   0  0  0  0  0  0  0  0  0  0  0  0
    1.9710    4.1300    2.2110 C   0  0  0  0  0  0  0  0  0  0  0  0
    1.1750    3.3420    1.4980 N   0  0  0  0  0  0  0  0  0  0  0  0
    0.8890    0.0790    1.2760 C   0  0  0  0  0  0  0  0  0  0  0  0
    1.2280    0.8280    2.2660 O   0  0  0  0  0  0  0  0  0  0  0  0
    0.2090   -0.5990   -1.2960 H   0  0  0  0  0  0  0  0  0  0  0  0
    2.6900    0.1700    0.2250 H   0  0  0  0  0  0  0  0  0  0  0  0
    2.1670    1.8740   -1.3400 H   0  0  0  0  0  0  0  0  0  0  0  0
    0.4620    1.9900   -0.8700 H   0  0  0  0  0  0  0  0  0  0  0  0
    4.0810    2.8980    0.1070 H   0  0  0  0  0  0  0  0  0  0  0  0
    4.0430    4.5670    2.1270 H   0  0  0  0  0  0  0  0  0  0  0  0
    1.6730    4.7610    3.0580 H   0  0  0  0  0  0  0  0  0  0  0  0
   -2.9520   -1.2780    0.5290 C   0  0  0  0  0  0  0  0  0  0  0  0
   -3.1340   -1.3900    2.0030 C   0  0  0  0  0  0  0  0  0  0  0  0
   -4.5450   -0.8650    2.3110 C   0  0  0  0  0  0  0  0  0  0  0  0
   -2.1540   -0.6830    2.8560 C   0  0  0  0  0  0  0  0  0  0  0  0
   -0.7240   -1.0720    2.7400 C   0  0  2  0  0  0  0  0  0  0  0  0
   -0.1110   -0.9150    1.4640 N   0  0  0  0  0  0  0  0  0  0  0  0
   -0.5110   -2.4430    3.2620 C   0  0  0  0  0  0  0  0  0  0  0  0
   -0.9980   -2.7320    4.3800 O   0  0  0  0  0  0  0  0  0  0  0  0
    0.1940   -3.4210    2.5830 O   0  0  0  0  0  0  0  0  0  0  0  0
   -2.3960   -0.3800    0.2210 H   0  0  0  0  0  0  0  0  0  0  0  0
   -3.9490   -1.1680   -0.0090 H   0  0  0  0  0  0  0  0  0  0  0  0
   -2.5600   -2.2340    0.1520 H   0  0  0  0  0  0  0  0  0  0  0  0
   -3.1680   -2.4540    2.3360 H   0  0  0  0  0  0  0  0  0  0  0  0
   -4.5400    0.2480    2.3380 H   0  0  0  0  0  0  0  0  0  0  0  0
   -5.1900   -1.1510    1.4570 H   0  0  0  0  0  0  0  0  0  0  0  0
   -4.9180   -1.2600    3.2560 H   0  0  0  0  0  0  0  0  0  0  0  0
   -2.4430   -0.9030    3.9280 H   0  0  0  0  0  0  0  0  0  0  0  0
   -2.2720    0.4430    2.8060 H   0  0  0  0  0  0  0  0  0  0  0  0
   -0.1760   -0.3980    3.4760 H   0  0  0  0  0  0  0  0  0  0  0  0
   -0.3640   -1.5120    0.6550 H   0  0  0  0  0  0  0  0  0  0  0  0
  1  7  1  0  0  0  0
  2  1  1  0  0  0  0
  2  9  1  0  0  0  0
  3 10  1  6  0  0  0
  3  2  1  0  0  0  0
  3  5  1  0  0  0  0
  4  3  1  0  0  0  0
  4 11  1  0  0  0  0
  5  6  2  0  0  0  0
  5 13  1  0  0  0  0
  8  2  1  0  0  0  0
 12  4  1  0  0  0  0
 13 14  1  0  0  0  0
 14 24  1  1  0  0  0
 14 21  1  0  0  0  0
 15 14  1  0  0  0  0
 15 16  1  0  0  0  0
 16 17  2  0  0  0  0
 16 20  1  0  0  0  0
 17 18  1  0  0  0  0
 18 28  1  0  0  0  0
 18 19  1  0  0  0  0
 19 29  1  0  0  0  0
 20 19  2  0  0  0  0
 21 35  1  0  0  0  0
 21 22  2  0  0  0  0
 23 13  1  0  0  0  0
 25 15  1  0  0  0  0
 26 15  1  0  0  0  0
 27 17  1  0  0  0  0
 30 31  1  0  0  0  0
 31 32  1  0  0  0  0
 31 42  1  0  0  0  0
 31 33  1  0  0  0  0
 32 43  1  0  0  0  0
 32 45  1  0  0  0  0
 33 46  1  0  0  0  0
 34 33  1  0  0  0  0
 34 36  1  0  0  0  0
 34 48  1  1  0  0  0
 35 34  1  0  0  0  0
 36 37  1  0  0  0  0
 38 36  2  0  0  0  0
 39 30  1  0  0  0  0
 40 30  1  0  0  0  0
 41 30  1  0  0  0  0
 44 32  1  0  0  0  0
 47 33  1  0  0  0  0
 49 35  1  0  0  0  0
M  END
$$$$
