SHM.pdb
 OpenBabel07022419083D

 47 47  0  0  1  0  0  0  0  0999 V2000
    2.0210   -5.0200    2.8470 O   0  0  0  0  0  0  0  0  0  0  0  0
    1.4340   -3.7810    2.5930 C   0  0  0  0  0  0  0  0  0  0  0  0
    2.3770   -2.6640    2.9060 C   0  0  2  0  0  0  0  0  0  0  0  0
    2.7330   -2.7410    4.3070 N   0  0  0  0  0  0  0  0  0  0  0  0
    1.9030   -1.3340    2.5110 C   0  0  0  0  0  0  0  0  0  0  0  0
    1.8770   -0.4530    3.4430 O   0  0  0  0  0  0  0  0  0  0  0  0
    1.9820   -5.6350    2.0750 H   0  0  0  0  0  0  0  0  0  0  0  0
    0.4840   -3.7460    3.1120 H   0  0  0  0  0  0  0  0  0  0  0  0
    1.2200   -3.7730    1.4840 H   0  0  0  0  0  0  0  0  0  0  0  0
    3.3300   -2.8490    2.3390 H   0  0  0  0  0  0  0  0  0  0  0  0
    3.0250   -3.7230    4.5090 H   0  0  0  0  0  0  0  0  0  0  0  0
    1.9080   -2.5400    4.9300 H   0  0  0  0  0  0  0  0  0  0  0  0
    1.4960   -1.0090    1.1980 N   0  0  0  0  0  0  0  0  0  0  0  0
    1.0230    0.3470    0.8430 C   0  0  1  0  0  0  0  0  0  0  0  0
    1.9900    0.9030   -0.1700 C   0  0  0  0  0  0  0  0  0  0  0  0
    1.7190    2.2690   -0.6060 C   0  0  0  0  0  0  0  0  0  0  0  0
    2.5100    2.9100   -1.5560 C   0  0  0  0  0  0  0  0  0  0  0  0
    2.0220    4.1400   -1.7500 N   0  0  0  0  0  0  0  0  0  0  0  0
    0.9620    4.2620   -0.9470 C   0  0  0  0  0  0  0  0  0  0  0  0
    0.7870    3.1400   -0.2660 N   0  0  0  0  0  0  0  0  0  0  0  0
   -0.3120    0.2140    0.1600 C   0  0  0  0  0  0  0  0  0  0  0  0
   -0.8580    1.2330   -0.3080 O   0  0  0  0  0  0  0  0  0  0  0  0
    1.5420   -1.7350    0.4690 H   0  0  0  0  0  0  0  0  0  0  0  0
    0.9940    1.0160    1.7160 H   0  0  0  0  0  0  0  0  0  0  0  0
    2.0580    0.2140   -1.0670 H   0  0  0  0  0  0  0  0  0  0  0  0
    3.0100    0.8320    0.2980 H   0  0  0  0  0  0  0  0  0  0  0  0
    3.3780    2.5230   -2.0750 H   0  0  0  0  0  0  0  0  0  0  0  0
    2.3680    4.8970   -2.3940 H   0  0  0  0  0  0  0  0  0  0  0  0
    0.2970    5.1270   -0.8210 H   0  0  0  0  0  0  0  0  0  0  0  0
   -1.8510   -0.7840    2.9420 C   0  0  0  0  0  0  0  0  0  0  0  0
   -2.8280    0.5180    2.1920 S   0  0  0  0  0  0  0  0  0  0  0  0
   -3.8620    0.0170    0.8410 C   0  0  0  0  0  0  0  0  0  0  0  0
   -3.2720   -0.2910   -0.4690 C   0  0  0  0  0  0  0  0  0  0  0  0
   -2.2000   -1.3140   -0.5900 C   0  0  2  0  0  0  0  0  0  0  0  0
   -0.9580   -1.0500    0.0380 N   0  0  0  0  0  0  0  0  0  0  0  0
   -2.0650   -1.8150   -1.9780 C   0  0  0  0  0  0  0  0  0  0  0  0
   -0.9150   -1.9560   -2.4570 O   0  0  0  0  0  0  0  0  0  0  0  0
   -3.1600   -2.1310   -2.7620 O   0  0  0  0  0  0  0  0  0  0  0  0
   -2.1180   -0.8640    4.0370 H   0  0  0  0  0  0  0  0  0  0  0  0
   -0.8000   -0.4900    2.9080 H   0  0  0  0  0  0  0  0  0  0  0  0
   -2.0470   -1.7730    2.4660 H   0  0  0  0  0  0  0  0  0  0  0  0
   -4.4970   -0.8810    1.1980 H   0  0  0  0  0  0  0  0  0  0  0  0
   -4.6910    0.7950    0.7160 H   0  0  0  0  0  0  0  0  0  0  0  0
   -2.9380    0.6740   -0.9400 H   0  0  0  0  0  0  0  0  0  0  0  0
   -4.1570   -0.6050   -1.1490 H   0  0  0  0  0  0  0  0  0  0  0  0
   -2.6530   -2.2010    0.0230 H   0  0  0  0  0  0  0  0  0  0  0  0
   -0.4250   -1.8500    0.4790 H   0  0  0  0  0  0  0  0  0  0  0  0
  2  1  1  0  0  0  0
  2  3  1  0  0  0  0
  2  8  1  0  0  0  0
  3 10  1  6  0  0  0
  3  4  1  0  0  0  0
  4 11  1  0  0  0  0
  4 12  1  0  0  0  0
  5  3  1  0  0  0  0
  5  6  2  0  0  0  0
  7  1  1  0  0  0  0
  9  2  1  0  0  0  0
 13  5  1  0  0  0  0
 14 13  1  0  0  0  0
 14 24  1  1  0  0  0
 15 26  1  0  0  0  0
 15 14  1  0  0  0  0
 16 20  1  0  0  0  0
 16 15  1  0  0  0  0
 17 16  2  0  0  0  0
 18 17  1  0  0  0  0
 18 19  1  0  0  0  0
 19 29  1  0  0  0  0
 19 20  2  0  0  0  0
 21 14  1  0  0  0  0
 22 21  2  0  0  0  0
 23 13  1  0  0  0  0
 25 15  1  0  0  0  0
 27 17  1  0  0  0  0
 28 18  1  0  0  0  0
 30 39  1  0  0  0  0
 31 30  1  0  0  0  0
 32 42  1  0  0  0  0
 32 31  1  0  0  0  0
 33 32  1  0  0  0  0
 34 33  1  0  0  0  0
 34 46  1  1  0  0  0
 34 35  1  0  0  0  0
 35 21  1  0  0  0  0
 35 47  1  0  0  0  0
 36 34  1  0  0  0  0
 37 36  1  0  0  0  0
 38 36  2  0  0  0  0
 40 30  1  0  0  0  0
 41 30  1  0  0  0  0
 43 32  1  0  0  0  0
 44 33  1  0  0  0  0
 45 33  1  0  0  0  0
M  END
$$$$
