SHW.pdb
 OpenBabel07022419083D

 54 56  0  0  1  0  0  0  0  0999 V2000
    0.2890   -3.3170    2.5810 O   0  0  0  0  0  0  0  0  0  0  0  0
    0.6230   -2.5430    3.6740 C   0  0  0  0  0  0  0  0  0  0  0  0
    1.8600   -1.6930    3.4620 C   0  0  2  0  0  0  0  0  0  0  0  0
    2.0790   -0.9430    4.6750 N   0  0  0  0  0  0  0  0  0  0  0  0
    1.6940   -0.7980    2.2730 C   0  0  0  0  0  0  0  0  0  0  0  0
    1.5750   -1.3350    1.1420 O   0  0  0  0  0  0  0  0  0  0  0  0
    0.6580   -4.2210    2.6880 H   0  0  0  0  0  0  0  0  0  0  0  0
    0.8250   -3.2320    4.5380 H   0  0  0  0  0  0  0  0  0  0  0  0
   -0.2420   -1.9090    3.9880 H   0  0  0  0  0  0  0  0  0  0  0  0
    2.7050   -2.3540    3.2950 H   0  0  0  0  0  0  0  0  0  0  0  0
    2.8590   -0.2450    4.5520 H   0  0  0  0  0  0  0  0  0  0  0  0
    2.4630   -1.6380    5.3840 H   0  0  0  0  0  0  0  0  0  0  0  0
    1.6660    0.5990    2.3740 N   0  0  0  0  0  0  0  0  0  0  0  0
    1.5140    1.5110    1.2710 C   0  0  1  0  0  0  0  0  0  0  0  0
    2.5750    1.3540    0.2310 C   0  0  0  0  0  0  0  0  0  0  0  0
    2.4910    2.2690   -0.9210 C   0  0  0  0  0  0  0  0  0  0  0  0
    1.8660    2.0410   -2.1220 C   0  0  0  0  0  0  0  0  0  0  0  0
    2.0530    3.1080   -2.8970 N   0  0  0  0  0  0  0  0  0  0  0  0
    2.7810    4.0020   -2.2100 C   0  0  0  0  0  0  0  0  0  0  0  0
    3.0620    3.5100   -0.9960 N   0  0  0  0  0  0  0  0  0  0  0  0
    0.1760    1.4710    0.6780 C   0  0  0  0  0  0  0  0  0  0  0  0
   -0.0950    2.1990   -0.2980 O   0  0  0  0  0  0  0  0  0  0  0  0
    1.7680    0.9890    3.3590 H   0  0  0  0  0  0  0  0  0  0  0  0
    1.6490    2.5710    1.6630 H   0  0  0  0  0  0  0  0  0  0  0  0
    2.5400    0.2790   -0.1220 H   0  0  0  0  0  0  0  0  0  0  0  0
    3.6130    1.4650    0.6800 H   0  0  0  0  0  0  0  0  0  0  0  0
    1.3030    1.1520   -2.4360 H   0  0  0  0  0  0  0  0  0  0  0  0
    1.6960    3.2330   -3.8740 H   0  0  0  0  0  0  0  0  0  0  0  0
    3.1000    4.9830   -2.5810 H   0  0  0  0  0  0  0  0  0  0  0  0
   -0.8610    0.6080    1.1890 N   0  0  0  0  0  0  0  0  0  0  0  0
   -2.1520    0.6140    0.5590 C   0  0  1  0  0  0  0  0  0  0  0  0
   -2.6820   -0.7460    0.2410 C   0  0  0  0  0  0  0  0  0  0  0  0
   -1.8610   -1.5520   -0.6710 C   0  0  0  0  0  0  0  0  0  0  0  0
   -0.7850   -1.2530   -1.4380 C   0  0  0  0  0  0  0  0  0  0  0  0
   -0.4070   -2.3580   -2.0960 N   0  0  0  0  0  0  0  0  0  0  0  0
   -1.2070   -3.3840   -1.7830 C   0  0  0  0  0  0  0  0  0  0  0  0
   -1.2410   -4.7250   -2.1860 C   0  0  0  0  0  0  0  0  0  0  0  0
   -2.2060   -5.5290   -1.6700 C   0  0  0  0  0  0  0  0  0  0  0  0
   -3.1620   -5.1030   -0.7670 C   0  0  0  0  0  0  0  0  0  0  0  0
   -3.1100   -3.7710   -0.3810 C   0  0  0  0  0  0  0  0  0  0  0  0
   -2.1350   -2.9060   -0.8860 C   0  0  0  0  0  0  0  0  0  0  0  0
   -3.1770    1.2450    1.4800 C   0  0  0  0  0  0  0  0  0  0  0  0
   -4.3830    1.3680    1.1620 O   0  0  0  0  0  0  0  0  0  0  0  0
   -2.8040    1.7150    2.7280 O   0  0  0  0  0  0  0  0  0  0  0  0
   -0.6090    0.0250    2.0030 H   0  0  0  0  0  0  0  0  0  0  0  0
   -2.1920    1.2370   -0.3490 H   0  0  0  0  0  0  0  0  0  0  0  0
   -3.6840   -0.6220   -0.2660 H   0  0  0  0  0  0  0  0  0  0  0  0
   -2.8770   -1.2630    1.2230 H   0  0  0  0  0  0  0  0  0  0  0  0
   -0.3250   -0.3000   -1.5060 H   0  0  0  0  0  0  0  0  0  0  0  0
    0.4050   -2.4520   -2.7780 H   0  0  0  0  0  0  0  0  0  0  0  0
   -0.4770   -5.0400   -2.8990 H   0  0  0  0  0  0  0  0  0  0  0  0
   -2.2480   -6.5770   -1.9720 H   0  0  0  0  0  0  0  0  0  0  0  0
   -3.9110   -5.7800   -0.3840 H   0  0  0  0  0  0  0  0  0  0  0  0
   -3.8380   -3.3850    0.3260 H   0  0  0  0  0  0  0  0  0  0  0  0
  1  7  1  0  0  0  0
  1  2  1  0  0  0  0
  2  9  1  0  0  0  0
  2  8  1  0  0  0  0
  3 10  1  6  0  0  0
  3  2  1  0  0  0  0
  3  4  1  0  0  0  0
  4 12  1  0  0  0  0
  5 13  1  0  0  0  0
  5  3  1  0  0  0  0
  6  5  2  0  0  0  0
 11  4  1  0  0  0  0
 13 23  1  0  0  0  0
 14 24  1  1  0  0  0
 14 13  1  0  0  0  0
 15 26  1  0  0  0  0
 15 14  1  0  0  0  0
 16 15  1  0  0  0  0
 17 16  2  0  0  0  0
 18 19  1  0  0  0  0
 18 17  1  0  0  0  0
 19 20  2  0  0  0  0
 20 16  1  0  0  0  0
 21 30  1  0  0  0  0
 21 14  1  0  0  0  0
 22 21  2  0  0  0  0
 25 15  1  0  0  0  0
 27 17  1  0  0  0  0
 28 18  1  0  0  0  0
 29 19  1  0  0  0  0
 30 45  1  0  0  0  0
 31 46  1  6  0  0  0
 31 30  1  0  0  0  0
 31 42  1  0  0  0  0
 32 31  1  0  0  0  0
 32 48  1  0  0  0  0
 33 32  1  0  0  0  0
 34 33  2  0  0  0  0
 35 36  1  0  0  0  0
 35 34  1  0  0  0  0
 36 41  1  0  0  0  0
 37 36  2  0  0  0  0
 37 38  1  0  0  0  0
 38 39  2  0  0  0  0
 39 53  1  0  0  0  0
 39 40  1  0  0  0  0
 40 54  1  0  0  0  0
 41 33  1  0  0  0  0
 41 40  2  0  0  0  0
 42 44  1  0  0  0  0
 43 42  2  0  0  0  0
 47 32  1  0  0  0  0
 49 34  1  0  0  0  0
 50 35  1  0  0  0  0
 51 37  1  0  0  0  0
 52 38  1  0  0  0  0
M  END
$$$$
