SIA.pdb
 OpenBabel07022419083D

 42 41  0  0  1  0  0  0  0  0999 V2000
   -3.6530   -3.8730    0.9190 O   0  0  0  0  0  0  0  0  0  0  0  0
   -2.3100   -3.6260    0.5810 C   0  0  0  0  0  0  0  0  0  0  0  0
   -1.7580   -2.5690    1.5460 C   0  0  2  0  0  0  0  0  0  0  0  0
   -2.5460   -1.3640    1.4080 N   0  0  0  0  0  0  0  0  0  0  0  0
   -0.3770   -2.2720    1.1040 C   0  0  0  0  0  0  0  0  0  0  0  0
    0.5150   -3.1870    1.1320 O   0  0  0  0  0  0  0  0  0  0  0  0
   -4.1820   -3.0390    0.8740 H   0  0  0  0  0  0  0  0  0  0  0  0
   -2.3300   -3.2300   -0.4550 H   0  0  0  0  0  0  0  0  0  0  0  0
   -1.7690   -4.5770    0.6840 H   0  0  0  0  0  0  0  0  0  0  0  0
   -1.8040   -2.9390    2.5840 H   0  0  0  0  0  0  0  0  0  0  0  0
   -3.0410   -1.3200    0.5100 H   0  0  0  0  0  0  0  0  0  0  0  0
   -3.2400   -1.3500    2.1950 H   0  0  0  0  0  0  0  0  0  0  0  0
    1.5870   -2.4600   -2.0850 C   0  0  0  0  0  0  0  0  0  0  0  0
    0.7760   -1.1930   -2.1780 C   0  0  0  0  0  0  0  0  0  0  0  0
    1.2820   -0.1310   -1.2120 C   0  0  2  0  0  0  0  0  0  0  0  0
    2.7190    0.1440   -1.5980 C   0  0  0  0  0  0  0  0  0  0  0  0
    1.2560   -0.6030    0.2080 C   0  0  2  0  0  0  0  0  0  0  0  0
   -0.0730   -0.9630    0.6540 N   0  0  0  0  0  0  0  0  0  0  0  0
    1.8430    0.4660    1.0600 C   0  0  0  0  0  0  0  0  0  0  0  0
    2.9810    0.9390    0.8810 O   0  0  0  0  0  0  0  0  0  0  0  0
    0.9170   -3.2370   -1.6520 H   0  0  0  0  0  0  0  0  0  0  0  0
    2.5070   -2.3400   -1.4820 H   0  0  0  0  0  0  0  0  0  0  0  0
    1.8750   -2.8290   -3.0900 H   0  0  0  0  0  0  0  0  0  0  0  0
   -0.3030   -1.3630   -2.0850 H   0  0  0  0  0  0  0  0  0  0  0  0
    0.9490   -0.7740   -3.2010 H   0  0  0  0  0  0  0  0  0  0  0  0
    0.6440    0.7660   -1.3750 H   0  0  0  0  0  0  0  0  0  0  0  0
    2.8960   -0.1530   -2.6610 H   0  0  0  0  0  0  0  0  0  0  0  0
    3.0070    1.2050   -1.4290 H   0  0  0  0  0  0  0  0  0  0  0  0
    3.3620   -0.4720   -0.9380 H   0  0  0  0  0  0  0  0  0  0  0  0
    1.9240   -1.4850    0.2850 H   0  0  0  0  0  0  0  0  0  0  0  0
   -0.8110   -0.2290    0.6380 H   0  0  0  0  0  0  0  0  0  0  0  0
    0.6050    3.2220    2.9780 C   0  0  0  0  0  0  0  0  0  0  0  0
    1.5050    2.0050    3.0340 C   0  0  2  0  0  0  0  0  0  0  0  0
    1.0590    0.9710    2.1340 N   0  0  0  0  0  0  0  0  0  0  0  0
    1.5570    1.4460    4.4040 C   0  0  0  0  0  0  0  0  0  0  0  0
    1.2400    0.2610    4.6000 O   0  0  0  0  0  0  0  0  0  0  0  0
    1.9560    2.2170    5.4940 O   0  0  0  0  0  0  0  0  0  0  0  0
    0.7230    3.6840    1.9970 H   0  0  0  0  0  0  0  0  0  0  0  0
    0.8490    3.8880    3.8290 H   0  0  0  0  0  0  0  0  0  0  0  0
   -0.4720    2.9370    3.1060 H   0  0  0  0  0  0  0  0  0  0  0  0
    2.5280    2.3620    2.7950 H   0  0  0  0  0  0  0  0  0  0  0  0
    0.1010    0.5850    2.2980 H   0  0  0  0  0  0  0  0  0  0  0  0
  2  9  1  0  0  0  0
  2  1  1  0  0  0  0
  2  3  1  0  0  0  0
  3 10  1  1  0  0  0
  4  3  1  0  0  0  0
  4 12  1  0  0  0  0
  5  6  2  0  0  0  0
  5  3  1  0  0  0  0
  7  1  1  0  0  0  0
  8  2  1  0  0  0  0
 11  4  1  0  0  0  0
 13 21  1  0  0  0  0
 13 22  1  0  0  0  0
 14 13  1  0  0  0  0
 14 24  1  0  0  0  0
 14 15  1  0  0  0  0
 15 26  1  6  0  0  0
 15 17  1  0  0  0  0
 16 28  1  0  0  0  0
 16 15  1  0  0  0  0
 16 29  1  0  0  0  0
 17 30  1  1  0  0  0
 17 18  1  0  0  0  0
 17 19  1  0  0  0  0
 18  5  1  0  0  0  0
 19 34  1  0  0  0  0
 20 19  2  0  0  0  0
 23 13  1  0  0  0  0
 25 14  1  0  0  0  0
 27 16  1  0  0  0  0
 31 18  1  0  0  0  0
 32 33  1  0  0  0  0
 32 40  1  0  0  0  0
 32 39  1  0  0  0  0
 33 41  1  6  0  0  0
 33 35  1  0  0  0  0
 34 42  1  0  0  0  0
 34 33  1  0  0  0  0
 35 36  2  0  0  0  0
 35 37  1  0  0  0  0
 38 32  1  0  0  0  0
M  END
$$$$
