SID.pdb
 OpenBabel07022419083D

 45 44  0  0  1  0  0  0  0  0999 V2000
    0.0680   -2.8390    3.3680 O   0  0  0  0  0  0  0  0  0  0  0  0
    0.0930   -3.3250    2.0700 C   0  0  0  0  0  0  0  0  0  0  0  0
    1.4950   -3.2750    1.4760 C   0  0  2  0  0  0  0  0  0  0  0  0
    2.3940   -4.0750    2.2710 N   0  0  0  0  0  0  0  0  0  0  0  0
    1.9860   -1.8760    1.3710 C   0  0  0  0  0  0  0  0  0  0  0  0
    3.0550   -1.5350    1.9370 O   0  0  0  0  0  0  0  0  0  0  0  0
    0.7060   -3.4180    3.8890 H   0  0  0  0  0  0  0  0  0  0  0  0
   -0.6190   -2.8360    1.3970 H   0  0  0  0  0  0  0  0  0  0  0  0
   -0.1830   -4.4080    2.0920 H   0  0  0  0  0  0  0  0  0  0  0  0
    1.3870   -3.7030    0.4430 H   0  0  0  0  0  0  0  0  0  0  0  0
    3.1160   -3.4480    2.6720 H   0  0  0  0  0  0  0  0  0  0  0  0
    2.8640   -4.7530    1.6330 H   0  0  0  0  0  0  0  0  0  0  0  0
    0.5000   -0.7720   -2.3220 C   0  0  0  0  0  0  0  0  0  0  0  0
    0.8440    0.6230   -1.9300 C   0  0  0  0  0  0  0  0  0  0  0  0
    1.9490    0.7930   -0.9570 C   0  0  2  0  0  0  0  0  0  0  0  0
    3.2470    0.1990   -1.4670 C   0  0  0  0  0  0  0  0  0  0  0  0
    1.6420    0.4470    0.4710 C   0  0  2  0  0  0  0  0  0  0  0  0
    1.2440   -0.9250    0.6270 N   0  0  0  0  0  0  0  0  0  0  0  0
    0.5350    1.3470    0.9050 C   0  0  0  0  0  0  0  0  0  0  0  0
    0.6990    2.6090    0.8240 O   0  0  0  0  0  0  0  0  0  0  0  0
   -0.5330   -1.0170   -1.9850 H   0  0  0  0  0  0  0  0  0  0  0  0
    0.4730   -0.8980   -3.4480 H   0  0  0  0  0  0  0  0  0  0  0  0
    1.2230   -1.5480   -1.9940 H   0  0  0  0  0  0  0  0  0  0  0  0
   -0.0420    1.2060   -1.5830 H   0  0  0  0  0  0  0  0  0  0  0  0
    1.1680    1.1580   -2.8740 H   0  0  0  0  0  0  0  0  0  0  0  0
    2.1680    1.9210   -0.9560 H   0  0  0  0  0  0  0  0  0  0  0  0
    4.1280    0.7050   -0.9840 H   0  0  0  0  0  0  0  0  0  0  0  0
    3.3190   -0.8830   -1.2770 H   0  0  0  0  0  0  0  0  0  0  0  0
    3.3120    0.4560   -2.5360 H   0  0  0  0  0  0  0  0  0  0  0  0
    2.5670    0.6640    1.0810 H   0  0  0  0  0  0  0  0  0  0  0  0
    0.3700   -1.2420    0.1840 H   0  0  0  0  0  0  0  0  0  0  0  0
   -0.6880    0.8330    1.4030 N   0  0  0  0  0  0  0  0  0  0  0  0
   -1.7750    1.6650    1.8290 C   0  0  1  0  0  0  0  0  0  0  0  0
   -2.9620    1.4290    0.9500 C   0  0  0  0  0  0  0  0  0  0  0  0
   -3.4600    0.0490    0.9550 C   0  0  0  0  0  0  0  0  0  0  0  0
   -4.4490   -0.2010    0.2030 O   0  0  0  0  0  0  0  0  0  0  0  0
   -2.0560    1.3580    3.2540 C   0  0  0  0  0  0  0  0  0  0  0  0
   -2.9780    1.9810    3.8210 O   0  0  0  0  0  0  0  0  0  0  0  0
   -2.9610   -0.9980    1.6950 O   0  0  0  0  0  0  0  0  0  0  0  0
   -1.3510    0.4180    3.9920 O   0  0  0  0  0  0  0  0  0  0  0  0
   -0.7930   -0.1990    1.4610 H   0  0  0  0  0  0  0  0  0  0  0  0
   -1.4620    2.7350    1.7000 H   0  0  0  0  0  0  0  0  0  0  0  0
   -2.7400    1.6910   -0.1080 H   0  0  0  0  0  0  0  0  0  0  0  0
   -3.8010    2.1030    1.2610 H   0  0  0  0  0  0  0  0  0  0  0  0
   -3.5550   -1.7360    2.0780 H   0  0  0  0  0  0  0  0  0  0  0  0
  1  7  1  0  0  0  0
  2  9  1  0  0  0  0
  2  1  1  0  0  0  0
  3 10  1  6  0  0  0
  3  2  1  0  0  0  0
  3  4  1  0  0  0  0
  4 11  1  0  0  0  0
  5  3  1  0  0  0  0
  5  6  2  0  0  0  0
  8  2  1  0  0  0  0
 12  4  1  0  0  0  0
 13 23  1  0  0  0  0
 13 21  1  0  0  0  0
 13 14  1  0  0  0  0
 14 24  1  0  0  0  0
 14 15  1  0  0  0  0
 15 26  1  1  0  0  0
 15 17  1  0  0  0  0
 16 28  1  0  0  0  0
 16 27  1  0  0  0  0
 16 15  1  0  0  0  0
 17 18  1  0  0  0  0
 17 19  1  0  0  0  0
 17 30  1  1  0  0  0
 18  5  1  0  0  0  0
 19 32  1  0  0  0  0
 20 19  2  0  0  0  0
 22 13  1  0  0  0  0
 25 14  1  0  0  0  0
 29 16  1  0  0  0  0
 31 18  1  0  0  0  0
 32 41  1  0  0  0  0
 32 33  1  0  0  0  0
 33 42  1  6  0  0  0
 33 37  1  0  0  0  0
 34 35  1  0  0  0  0
 34 44  1  0  0  0  0
 34 33  1  0  0  0  0
 35 39  1  0  0  0  0
 36 35  2  0  0  0  0
 37 38  2  0  0  0  0
 37 40  1  0  0  0  0
 39 45  1  0  0  0  0
 43 34  1  0  0  0  0
M  END
$$$$
