SII.pdb
 OpenBabel07022419083D

 51 50  0  0  1  0  0  0  0  0999 V2000
    1.3300   -0.4200    4.1630 O   0  0  0  0  0  0  0  0  0  0  0  0
    1.6730   -1.5510    3.4590 C   0  0  0  0  0  0  0  0  0  0  0  0
    2.8990   -1.3460    2.5920 C   0  0  2  0  0  0  0  0  0  0  0  0
    4.0500   -0.9820    3.3830 N   0  0  0  0  0  0  0  0  0  0  0  0
    2.6450   -0.3620    1.5030 C   0  0  0  0  0  0  0  0  0  0  0  0
    3.3750    0.6450    1.3410 O   0  0  0  0  0  0  0  0  0  0  0  0
    1.0760   -0.5830    5.1040 H   0  0  0  0  0  0  0  0  0  0  0  0
    0.8670   -1.8950    2.8040 H   0  0  0  0  0  0  0  0  0  0  0  0
    1.9180   -2.3820    4.1570 H   0  0  0  0  0  0  0  0  0  0  0  0
    3.1120   -2.3170    2.1010 H   0  0  0  0  0  0  0  0  0  0  0  0
    4.5420   -0.1430    3.0510 H   0  0  0  0  0  0  0  0  0  0  0  0
    4.6440   -1.8010    3.5460 H   0  0  0  0  0  0  0  0  0  0  0  0
    1.0910   -2.7550   -1.3620 C   0  0  0  0  0  0  0  0  0  0  0  0
    0.6350   -1.5170   -2.0650 C   0  0  0  0  0  0  0  0  0  0  0  0
    1.4410   -0.2940   -1.8070 C   0  0  2  0  0  0  0  0  0  0  0  0
    2.8970   -0.4260   -2.1920 C   0  0  0  0  0  0  0  0  0  0  0  0
    1.2380    0.3500   -0.4620 C   0  0  2  0  0  0  0  0  0  0  0  0
    1.5560   -0.5430    0.6110 N   0  0  0  0  0  0  0  0  0  0  0  0
   -0.1450    0.8860   -0.4010 C   0  0  0  0  0  0  0  0  0  0  0  0
   -0.5480    1.6530   -1.2810 O   0  0  0  0  0  0  0  0  0  0  0  0
    0.3330   -3.1670   -0.6750 H   0  0  0  0  0  0  0  0  0  0  0  0
    1.2600   -3.5680   -2.1370 H   0  0  0  0  0  0  0  0  0  0  0  0
    2.0960   -2.6510   -0.8840 H   0  0  0  0  0  0  0  0  0  0  0  0
    0.6240   -1.6860   -3.1790 H   0  0  0  0  0  0  0  0  0  0  0  0
   -0.4280   -1.2700   -1.8160 H   0  0  0  0  0  0  0  0  0  0  0  0
    1.0260    0.4860   -2.5440 H   0  0  0  0  0  0  0  0  0  0  0  0
    3.1240   -0.0200   -3.1920 H   0  0  0  0  0  0  0  0  0  0  0  0
    3.5360    0.1380   -1.4520 H   0  0  0  0  0  0  0  0  0  0  0  0
    3.2140   -1.4860   -2.1270 H   0  0  0  0  0  0  0  0  0  0  0  0
    1.9260    1.2470   -0.4440 H   0  0  0  0  0  0  0  0  0  0  0  0
    0.9570   -1.3790    0.7650 H   0  0  0  0  0  0  0  0  0  0  0  0
   -2.0750   -2.2340    1.1260 C   0  0  0  0  0  0  0  0  0  0  0  0
   -3.2260   -1.3200    1.4080 C   0  0  0  0  0  0  0  0  0  0  0  0
   -3.3280   -0.1170    0.5430 C   0  0  2  0  0  0  0  0  0  0  0  0
   -3.4610   -0.4690   -0.9140 C   0  0  0  0  0  0  0  0  0  0  0  0
   -2.3490    0.9870    0.8170 C   0  0  2  0  0  0  0  0  0  0  0  0
   -1.0190    0.5330    0.6580 N   0  0  0  0  0  0  0  0  0  0  0  0
   -2.6260    1.7120    2.0630 C   0  0  0  0  0  0  0  0  0  0  0  0
   -1.7630    1.9310    2.9490 O   0  0  0  0  0  0  0  0  0  0  0  0
   -3.8950    2.2060    2.3280 O   0  0  0  0  0  0  0  0  0  0  0  0
   -2.4240   -3.3080    1.0030 H   0  0  0  0  0  0  0  0  0  0  0  0
   -1.3400   -2.3000    1.9540 H   0  0  0  0  0  0  0  0  0  0  0  0
   -1.5240   -1.9720    0.2110 H   0  0  0  0  0  0  0  0  0  0  0  0
   -3.2040   -1.0960    2.4920 H   0  0  0  0  0  0  0  0  0  0  0  0
   -4.1720   -1.9230    1.2750 H   0  0  0  0  0  0  0  0  0  0  0  0
   -4.3430    0.3540    0.7980 H   0  0  0  0  0  0  0  0  0  0  0  0
   -3.6080   -1.5670   -0.9950 H   0  0  0  0  0  0  0  0  0  0  0  0
   -4.3060    0.0250   -1.4190 H   0  0  0  0  0  0  0  0  0  0  0  0
   -2.5560   -0.2120   -1.5020 H   0  0  0  0  0  0  0  0  0  0  0  0
   -2.5210    1.7290   -0.0280 H   0  0  0  0  0  0  0  0  0  0  0  0
   -0.6290   -0.1120    1.3790 H   0  0  0  0  0  0  0  0  0  0  0  0
  1  7  1  0  0  0  0
  2  9  1  0  0  0  0
  2  1  1  0  0  0  0
  3 10  1  6  0  0  0
  3  4  1  0  0  0  0
  3  2  1  0  0  0  0
  4 12  1  0  0  0  0
  5  3  1  0  0  0  0
  6  5  2  0  0  0  0
  8  2  1  0  0  0  0
 11  4  1  0  0  0  0
 13 23  1  0  0  0  0
 13 21  1  0  0  0  0
 14 25  1  0  0  0  0
 14 15  1  0  0  0  0
 14 13  1  0  0  0  0
 15 26  1  6  0  0  0
 15 17  1  0  0  0  0
 16 29  1  0  0  0  0
 16 15  1  0  0  0  0
 16 28  1  0  0  0  0
 17 30  1  1  0  0  0
 17 19  1  0  0  0  0
 17 18  1  0  0  0  0
 18 31  1  0  0  0  0
 18  5  1  0  0  0  0
 19 37  1  0  0  0  0
 20 19  2  0  0  0  0
 22 13  1  0  0  0  0
 24 14  1  0  0  0  0
 27 16  1  0  0  0  0
 32 33  1  0  0  0  0
 32 42  1  0  0  0  0
 33 44  1  0  0  0  0
 34 46  1  1  0  0  0
 34 36  1  0  0  0  0
 34 33  1  0  0  0  0
 35 34  1  0  0  0  0
 36 50  1  6  0  0  0
 36 38  1  0  0  0  0
 37 36  1  0  0  0  0
 37 51  1  0  0  0  0
 38 40  2  0  0  0  0
 38 39  1  0  0  0  0
 41 32  1  0  0  0  0
 43 32  1  0  0  0  0
 45 33  1  0  0  0  0
 47 35  1  0  0  0  0
 48 35  1  0  0  0  0
 49 35  1  0  0  0  0
M  END
$$$$
