SIL.pdb
 OpenBabel07022419083D

 51 50  0  0  1  0  0  0  0  0999 V2000
    0.3400   -5.0960   -1.2130 O   0  0  0  0  0  0  0  0  0  0  0  0
    0.4950   -4.0280   -0.3290 C   0  0  0  0  0  0  0  0  0  0  0  0
    1.9830   -3.9090   -0.0430 C   0  0  2  0  0  0  0  0  0  0  0  0
    2.5150   -5.1020    0.5460 N   0  0  0  0  0  0  0  0  0  0  0  0
    2.2700   -2.7000    0.7970 C   0  0  0  0  0  0  0  0  0  0  0  0
    2.9110   -2.8680    1.8660 O   0  0  0  0  0  0  0  0  0  0  0  0
   -0.4090   -5.6550   -0.8760 H   0  0  0  0  0  0  0  0  0  0  0  0
   -0.0640   -4.1620    0.6150 H   0  0  0  0  0  0  0  0  0  0  0  0
    0.1040   -3.1250   -0.8290 H   0  0  0  0  0  0  0  0  0  0  0  0
    2.4840   -3.7730   -1.0290 H   0  0  0  0  0  0  0  0  0  0  0  0
    3.3050   -4.8080    1.1800 H   0  0  0  0  0  0  0  0  0  0  0  0
    2.9420   -5.7600   -0.1550 H   0  0  0  0  0  0  0  0  0  0  0  0
    2.4620    0.4510   -1.9740 C   0  0  0  0  0  0  0  0  0  0  0  0
    2.3490    1.3480   -0.7900 C   0  0  0  0  0  0  0  0  0  0  0  0
    2.9150    0.8050    0.4880 C   0  0  2  0  0  0  0  0  0  0  0  0
    4.3770    0.4810    0.3880 C   0  0  0  0  0  0  0  0  0  0  0  0
    2.0810   -0.2360    1.1640 C   0  0  2  0  0  0  0  0  0  0  0  0
    1.8300   -1.4200    0.3930 N   0  0  0  0  0  0  0  0  0  0  0  0
    0.7590    0.2940    1.6030 C   0  0  0  0  0  0  0  0  0  0  0  0
    0.7060    1.3450    2.3050 O   0  0  0  0  0  0  0  0  0  0  0  0
    3.0670   -0.4690   -1.8090 H   0  0  0  0  0  0  0  0  0  0  0  0
    1.4460    0.1680   -2.3120 H   0  0  0  0  0  0  0  0  0  0  0  0
    2.8840    1.0200   -2.8610 H   0  0  0  0  0  0  0  0  0  0  0  0
    2.8210    2.3400   -1.0600 H   0  0  0  0  0  0  0  0  0  0  0  0
    1.2690    1.6310   -0.6280 H   0  0  0  0  0  0  0  0  0  0  0  0
    2.8950    1.7060    1.2010 H   0  0  0  0  0  0  0  0  0  0  0  0
    4.8540    1.0240   -0.4370 H   0  0  0  0  0  0  0  0  0  0  0  0
    4.5740   -0.5970    0.2250 H   0  0  0  0  0  0  0  0  0  0  0  0
    4.9310    0.7460    1.3230 H   0  0  0  0  0  0  0  0  0  0  0  0
    2.5900   -0.5650    2.1270 H   0  0  0  0  0  0  0  0  0  0  0  0
    1.3010   -1.3350   -0.4850 H   0  0  0  0  0  0  0  0  0  0  0  0
   -4.1670    2.3330    1.3470 C   0  0  0  0  0  0  0  0  0  0  0  0
   -4.0080    0.9920    0.7180 C   0  0  0  0  0  0  0  0  0  0  0  0
   -5.0560    0.0540    1.2200 C   0  0  0  0  0  0  0  0  0  0  0  0
   -2.6630    0.4500    0.5850 C   0  0  0  0  0  0  0  0  0  0  0  0
   -1.7700    0.2320    1.7260 C   0  0  2  0  0  0  0  0  0  0  0  0
   -0.4690   -0.3290    1.2680 N   0  0  0  0  0  0  0  0  0  0  0  0
   -2.2770   -0.7570    2.6940 C   0  0  0  0  0  0  0  0  0  0  0  0
   -1.7010   -1.8830    2.8860 O   0  0  0  0  0  0  0  0  0  0  0  0
   -3.4120   -0.5550    3.4810 O   0  0  0  0  0  0  0  0  0  0  0  0
   -3.3210    3.0100    1.2380 H   0  0  0  0  0  0  0  0  0  0  0  0
   -4.3570    2.2210    2.4400 H   0  0  0  0  0  0  0  0  0  0  0  0
   -5.0620    2.8570    0.9420 H   0  0  0  0  0  0  0  0  0  0  0  0
   -4.3400    1.1840   -0.3850 H   0  0  0  0  0  0  0  0  0  0  0  0
   -5.5410    0.3660    2.1710 H   0  0  0  0  0  0  0  0  0  0  0  0
   -4.7490   -1.0180    1.2010 H   0  0  0  0  0  0  0  0  0  0  0  0
   -5.9310    0.0720    0.4870 H   0  0  0  0  0  0  0  0  0  0  0  0
   -2.7840   -0.5320    0.0120 H   0  0  0  0  0  0  0  0  0  0  0  0
   -2.0800    1.0490   -0.1960 H   0  0  0  0  0  0  0  0  0  0  0  0
   -1.5240    1.1420    2.3170 H   0  0  0  0  0  0  0  0  0  0  0  0
   -0.4200   -1.1940    0.6900 H   0  0  0  0  0  0  0  0  0  0  0  0
  1  7  1  0  0  0  0
  1  2  1  0  0  0  0
  2  3  1  0  0  0  0
  2  8  1  0  0  0  0
  3 10  1  6  0  0  0
  3  4  1  0  0  0  0
  3  5  1  0  0  0  0
  4 11  1  0  0  0  0
  5  6  2  0  0  0  0
  9  2  1  0  0  0  0
 12  4  1  0  0  0  0
 13 21  1  0  0  0  0
 13 14  1  0  0  0  0
 14 25  1  0  0  0  0
 14 15  1  0  0  0  0
 15 17  1  0  0  0  0
 15 26  1  1  0  0  0
 16 15  1  0  0  0  0
 16 29  1  0  0  0  0
 17 19  1  0  0  0  0
 17 30  1  1  0  0  0
 18  5  1  0  0  0  0
 18 17  1  0  0  0  0
 19 20  2  0  0  0  0
 22 13  1  0  0  0  0
 23 13  1  0  0  0  0
 24 14  1  0  0  0  0
 27 16  1  0  0  0  0
 28 16  1  0  0  0  0
 31 18  1  0  0  0  0
 32 42  1  0  0  0  0
 33 34  1  0  0  0  0
 33 32  1  0  0  0  0
 34 45  1  0  0  0  0
 35 33  1  0  0  0  0
 35 36  1  0  0  0  0
 36 50  1  1  0  0  0
 36 38  1  0  0  0  0
 37 19  1  0  0  0  0
 37 36  1  0  0  0  0
 38 39  2  0  0  0  0
 38 40  1  0  0  0  0
 41 32  1  0  0  0  0
 43 32  1  0  0  0  0
 44 33  1  0  0  0  0
 46 34  1  0  0  0  0
 47 34  1  0  0  0  0
 48 35  1  0  0  0  0
 49 35  1  0  0  0  0
 51 37  1  0  0  0  0
M  END
$$$$
