SIM.pdb
 OpenBabel07022419083D

 49 48  0  0  1  0  0  0  0  0999 V2000
    2.3420    0.7400    3.0740 O   0  0  0  0  0  0  0  0  0  0  0  0
    2.1870   -0.6280    3.0500 C   0  0  0  0  0  0  0  0  0  0  0  0
    3.1820   -1.2220    2.0700 C   0  0  2  0  0  0  0  0  0  0  0  0
    4.5460   -0.9160    2.4590 N   0  0  0  0  0  0  0  0  0  0  0  0
    2.8580   -0.6700    0.7310 C   0  0  0  0  0  0  0  0  0  0  0  0
    3.7160    0.0070    0.0710 O   0  0  0  0  0  0  0  0  0  0  0  0
    2.5830    1.0000    3.9960 H   0  0  0  0  0  0  0  0  0  0  0  0
    1.1820   -0.9410    2.7380 H   0  0  0  0  0  0  0  0  0  0  0  0
    2.3560   -1.1000    4.0420 H   0  0  0  0  0  0  0  0  0  0  0  0
    3.0690   -2.3240    2.1250 H   0  0  0  0  0  0  0  0  0  0  0  0
    5.2000   -0.9140    1.6460 H   0  0  0  0  0  0  0  0  0  0  0  0
    4.9060   -1.5930    3.1680 H   0  0  0  0  0  0  0  0  0  0  0  0
   -0.0220   -3.3300   -0.7380 C   0  0  0  0  0  0  0  0  0  0  0  0
   -0.3740   -2.2710   -1.7320 C   0  0  0  0  0  0  0  0  0  0  0  0
    0.8070   -1.4190   -2.1110 C   0  0  2  0  0  0  0  0  0  0  0  0
    1.8730   -2.2540   -2.6980 C   0  0  0  0  0  0  0  0  0  0  0  0
    1.1910   -0.4200   -1.0740 C   0  0  2  0  0  0  0  0  0  0  0  0
    1.5600   -0.9220    0.2080 N   0  0  0  0  0  0  0  0  0  0  0  0
    0.0470    0.5230   -0.9270 C   0  0  0  0  0  0  0  0  0  0  0  0
   -0.4610    1.1010   -1.9210 O   0  0  0  0  0  0  0  0  0  0  0  0
    1.0590   -3.4240   -0.5180 H   0  0  0  0  0  0  0  0  0  0  0  0
   -0.6360   -3.1660    0.1790 H   0  0  0  0  0  0  0  0  0  0  0  0
   -0.3440   -4.3420   -1.1130 H   0  0  0  0  0  0  0  0  0  0  0  0
   -1.2460   -1.6540   -1.4160 H   0  0  0  0  0  0  0  0  0  0  0  0
   -0.7000   -2.7890   -2.6810 H   0  0  0  0  0  0  0  0  0  0  0  0
    0.4130   -0.7800   -2.9810 H   0  0  0  0  0  0  0  0  0  0  0  0
    2.7810   -1.6160   -2.9240 H   0  0  0  0  0  0  0  0  0  0  0  0
    1.5310   -2.5700   -3.7300 H   0  0  0  0  0  0  0  0  0  0  0  0
    2.1380   -3.1820   -2.1990 H   0  0  0  0  0  0  0  0  0  0  0  0
    2.0320    0.2220   -1.4880 H   0  0  0  0  0  0  0  0  0  0  0  0
    0.9150   -1.4740    0.8050 H   0  0  0  0  0  0  0  0  0  0  0  0
   -4.5070   -1.8770    1.8490 C   0  0  0  0  0  0  0  0  0  0  0  0
   -4.0830   -0.5140    2.9600 S   0  0  0  0  0  0  0  0  0  0  0  0
   -2.5650    0.3160    2.4150 C   0  0  0  0  0  0  0  0  0  0  0  0
   -2.8430    0.9890    1.0890 C   0  0  0  0  0  0  0  0  0  0  0  0
   -1.6220    1.7100    0.5600 C   0  0  2  0  0  0  0  0  0  0  0  0
   -0.5110    0.8020    0.3540 N   0  0  0  0  0  0  0  0  0  0  0  0
   -1.2580    2.8690    1.3870 C   0  0  0  0  0  0  0  0  0  0  0  0
   -2.1280    3.7290    1.6460 O   0  0  0  0  0  0  0  0  0  0  0  0
    0.0130    3.0490    1.8930 O   0  0  0  0  0  0  0  0  0  0  0  0
   -5.2560   -1.5460    1.0960 H   0  0  0  0  0  0  0  0  0  0  0  0
   -4.9080   -2.7500    2.3780 H   0  0  0  0  0  0  0  0  0  0  0  0
   -3.5690   -2.1440    1.2930 H   0  0  0  0  0  0  0  0  0  0  0  0
   -2.3480    1.1080    3.1500 H   0  0  0  0  0  0  0  0  0  0  0  0
   -1.7250   -0.3740    2.3800 H   0  0  0  0  0  0  0  0  0  0  0  0
   -3.6460    1.7390    1.1640 H   0  0  0  0  0  0  0  0  0  0  0  0
   -3.1290    0.2340    0.3260 H   0  0  0  0  0  0  0  0  0  0  0  0
   -1.9030    2.0990   -0.4460 H   0  0  0  0  0  0  0  0  0  0  0  0
   -0.1290    0.3490    1.2150 H   0  0  0  0  0  0  0  0  0  0  0  0
  1  7  1  0  0  0  0
  2  1  1  0  0  0  0
  2  9  1  0  0  0  0
  3 10  1  6  0  0  0
  3  4  1  0  0  0  0
  3  2  1  0  0  0  0
  4 12  1  0  0  0  0
  5  3  1  0  0  0  0
  6  5  2  0  0  0  0
  8  2  1  0  0  0  0
 11  4  1  0  0  0  0
 13 21  1  0  0  0  0
 13 22  1  0  0  0  0
 14 24  1  0  0  0  0
 14 13  1  0  0  0  0
 15 26  1  6  0  0  0
 15 14  1  0  0  0  0
 15 17  1  0  0  0  0
 16 29  1  0  0  0  0
 16 15  1  0  0  0  0
 17 30  1  6  0  0  0
 17 19  1  0  0  0  0
 17 18  1  0  0  0  0
 18  5  1  0  0  0  0
 18 31  1  0  0  0  0
 19 37  1  0  0  0  0
 20 19  2  0  0  0  0
 23 13  1  0  0  0  0
 25 14  1  0  0  0  0
 27 16  1  0  0  0  0
 28 16  1  0  0  0  0
 32 42  1  0  0  0  0
 32 33  1  0  0  0  0
 34 33  1  0  0  0  0
 34 44  1  0  0  0  0
 35 46  1  0  0  0  0
 35 34  1  0  0  0  0
 36 48  1  6  0  0  0
 36 35  1  0  0  0  0
 36 38  1  0  0  0  0
 37 36  1  0  0  0  0
 37 49  1  0  0  0  0
 38 39  2  0  0  0  0
 38 40  1  0  0  0  0
 41 32  1  0  0  0  0
 43 32  1  0  0  0  0
 45 34  1  0  0  0  0
 47 35  1  0  0  0  0
M  END
$$$$
