SIS.pdb
 OpenBabel07022419083D

 43 42  0  0  1  0  0  0  0  0999 V2000
    2.1040   -1.0050    3.7740 O   0  0  0  0  0  0  0  0  0  0  0  0
    1.9140   -2.1100    2.9630 C   0  0  0  0  0  0  0  0  0  0  0  0
    2.8100   -1.9950    1.7530 C   0  0  2  0  0  0  0  0  0  0  0  0
    4.1870   -1.9350    2.1710 N   0  0  0  0  0  0  0  0  0  0  0  0
    2.5040   -0.8500    0.9020 C   0  0  0  0  0  0  0  0  0  0  0  0
    3.3910   -0.0080    0.6450 O   0  0  0  0  0  0  0  0  0  0  0  0
    1.4530   -1.0170    4.5060 H   0  0  0  0  0  0  0  0  0  0  0  0
    0.8670   -2.2970    2.7040 H   0  0  0  0  0  0  0  0  0  0  0  0
    2.2720   -2.9960    3.5420 H   0  0  0  0  0  0  0  0  0  0  0  0
    2.7150   -2.9180    1.1180 H   0  0  0  0  0  0  0  0  0  0  0  0
    4.2140   -1.3290    3.0380 H   0  0  0  0  0  0  0  0  0  0  0  0
    4.4410   -2.9040    2.5190 H   0  0  0  0  0  0  0  0  0  0  0  0
   -0.1910   -2.3060   -1.6790 C   0  0  0  0  0  0  0  0  0  0  0  0
   -0.3670   -0.9210   -2.1780 C   0  0  0  0  0  0  0  0  0  0  0  0
    0.7190    0.0470   -1.9110 C   0  0  2  0  0  0  0  0  0  0  0  0
    2.0180   -0.4640   -2.5310 C   0  0  0  0  0  0  0  0  0  0  0  0
    0.9200    0.5050   -0.5100 C   0  0  2  0  0  0  0  0  0  0  0  0
    1.2180   -0.6290    0.3300 N   0  0  0  0  0  0  0  0  0  0  0  0
   -0.2630    1.2160    0.0400 C   0  0  0  0  0  0  0  0  0  0  0  0
   -0.6680    2.2350   -0.5780 O   0  0  0  0  0  0  0  0  0  0  0  0
    0.8370   -2.5870   -1.3940 H   0  0  0  0  0  0  0  0  0  0  0  0
   -0.9420   -2.5300   -0.8660 H   0  0  0  0  0  0  0  0  0  0  0  0
   -0.5330   -3.0120   -2.5050 H   0  0  0  0  0  0  0  0  0  0  0  0
   -0.4970   -0.9580   -3.3000 H   0  0  0  0  0  0  0  0  0  0  0  0
   -1.3400   -0.5140   -1.8090 H   0  0  0  0  0  0  0  0  0  0  0  0
    0.4740    0.9760   -2.5410 H   0  0  0  0  0  0  0  0  0  0  0  0
    2.7440    0.3580   -2.5420 H   0  0  0  0  0  0  0  0  0  0  0  0
    2.4390   -1.3050   -1.9510 H   0  0  0  0  0  0  0  0  0  0  0  0
    1.8390   -0.8110   -3.5540 H   0  0  0  0  0  0  0  0  0  0  0  0
    1.8250    1.1750   -0.4760 H   0  0  0  0  0  0  0  0  0  0  0  0
    0.4790   -1.3030    0.5430 H   0  0  0  0  0  0  0  0  0  0  0  0
   -2.9910   -0.6500    2.3160 O   0  0  0  0  0  0  0  0  0  0  0  0
   -3.2720    0.5190    1.6200 C   0  0  0  0  0  0  0  0  0  0  0  0
   -2.0880    1.4740    1.7590 C   0  0  2  0  0  0  0  0  0  0  0  0
   -0.9370    0.8060    1.2010 N   0  0  0  0  0  0  0  0  0  0  0  0
   -1.9150    1.8870    3.1430 C   0  0  0  0  0  0  0  0  0  0  0  0
   -2.8390    2.4770    3.7450 O   0  0  0  0  0  0  0  0  0  0  0  0
   -0.7380    1.6380    3.8180 O   0  0  0  0  0  0  0  0  0  0  0  0
   -2.4080   -0.4270    3.0880 H   0  0  0  0  0  0  0  0  0  0  0  0
   -3.4780    0.2900    0.5630 H   0  0  0  0  0  0  0  0  0  0  0  0
   -4.2070    0.9980    2.0140 H   0  0  0  0  0  0  0  0  0  0  0  0
   -2.3070    2.3480    1.0900 H   0  0  0  0  0  0  0  0  0  0  0  0
   -0.5980   -0.0380    1.7110 H   0  0  0  0  0  0  0  0  0  0  0  0
  1  7  1  0  0  0  0
  2  9  1  0  0  0  0
  2  1  1  0  0  0  0
  3 10  1  6  0  0  0
  3  4  1  0  0  0  0
  3  2  1  0  0  0  0
  4 12  1  0  0  0  0
  4 11  1  0  0  0  0
  5  3  1  0  0  0  0
  6  5  2  0  0  0  0
  8  2  1  0  0  0  0
 13 21  1  0  0  0  0
 13 22  1  0  0  0  0
 14 15  1  0  0  0  0
 14 25  1  0  0  0  0
 14 13  1  0  0  0  0
 15 26  1  6  0  0  0
 15 17  1  0  0  0  0
 16 28  1  0  0  0  0
 16 15  1  0  0  0  0
 17 30  1  1  0  0  0
 17 19  1  0  0  0  0
 17 18  1  0  0  0  0
 18 31  1  0  0  0  0
 18  5  1  0  0  0  0
 19 35  1  0  0  0  0
 20 19  2  0  0  0  0
 23 13  1  0  0  0  0
 24 14  1  0  0  0  0
 27 16  1  0  0  0  0
 29 16  1  0  0  0  0
 32 39  1  0  0  0  0
 33 34  1  0  0  0  0
 33 41  1  0  0  0  0
 33 32  1  0  0  0  0
 34 42  1  6  0  0  0
 34 36  1  0  0  0  0
 35 43  1  0  0  0  0
 35 34  1  0  0  0  0
 36 37  2  0  0  0  0
 36 38  1  0  0  0  0
 40 33  1  0  0  0  0
M  END
$$$$
