SIT.pdb
 OpenBabel07022419083D

 46 45  0  0  1  0  0  0  0  0999 V2000
   -2.1280   -2.5490   -1.6350 O   0  0  0  0  0  0  0  0  0  0  0  0
   -1.2660   -3.5080   -1.1290 C   0  0  0  0  0  0  0  0  0  0  0  0
    0.1760   -3.0860   -1.2680 C   0  0  2  0  0  0  0  0  0  0  0  0
    1.0780   -4.0740   -0.7470 N   0  0  0  0  0  0  0  0  0  0  0  0
    0.4230   -1.7760   -0.5730 C   0  0  0  0  0  0  0  0  0  0  0  0
   -0.2790   -0.7890   -0.9000 O   0  0  0  0  0  0  0  0  0  0  0  0
   -1.8290   -2.2300   -2.5210 H   0  0  0  0  0  0  0  0  0  0  0  0
   -1.3920   -4.4520   -1.6900 H   0  0  0  0  0  0  0  0  0  0  0  0
   -1.4490   -3.7260   -0.0600 H   0  0  0  0  0  0  0  0  0  0  0  0
    0.4310   -2.9170   -2.3370 H   0  0  0  0  0  0  0  0  0  0  0  0
    2.0560   -3.8590   -0.9600 H   0  0  0  0  0  0  0  0  0  0  0  0
    0.8470   -4.2350    0.2530 H   0  0  0  0  0  0  0  0  0  0  0  0
    3.5890    1.4530    2.5180 C   0  0  0  0  0  0  0  0  0  0  0  0
    3.0630    1.7150    1.1480 C   0  0  0  0  0  0  0  0  0  0  0  0
    2.6810    0.4520    0.4720 C   0  0  2  0  0  0  0  0  0  0  0  0
    2.1800    0.8620   -0.9280 C   0  0  0  0  0  0  0  0  0  0  0  0
    1.7320   -0.4480    1.1570 C   0  0  2  0  0  0  0  0  0  0  0  0
    1.4240   -1.6670    0.4230 N   0  0  0  0  0  0  0  0  0  0  0  0
    0.5700    0.1560    1.8150 C   0  0  0  0  0  0  0  0  0  0  0  0
    0.6530    1.3010    2.3000 O   0  0  0  0  0  0  0  0  0  0  0  0
    4.6510    1.8520    2.6310 H   0  0  0  0  0  0  0  0  0  0  0  0
    3.7150    0.3770    2.7530 H   0  0  0  0  0  0  0  0  0  0  0  0
    3.0520    2.0140    3.3350 H   0  0  0  0  0  0  0  0  0  0  0  0
    3.9160    2.1490    0.5430 H   0  0  0  0  0  0  0  0  0  0  0  0
    2.2930    2.5120    1.1060 H   0  0  0  0  0  0  0  0  0  0  0  0
    3.6320   -0.1080    0.2620 H   0  0  0  0  0  0  0  0  0  0  0  0
    2.9470    1.5950   -1.3340 H   0  0  0  0  0  0  0  0  0  0  0  0
    1.2560    1.4510   -0.8820 H   0  0  0  0  0  0  0  0  0  0  0  0
    2.2040    0.0340   -1.6390 H   0  0  0  0  0  0  0  0  0  0  0  0
    2.3190   -0.8710    2.0670 H   0  0  0  0  0  0  0  0  0  0  0  0
    1.9610   -2.5730    0.6080 H   0  0  0  0  0  0  0  0  0  0  0  0
   -2.3630    1.6390    0.7510 C   0  0  0  0  0  0  0  0  0  0  0  0
   -2.8750    0.5010    1.5670 C   0  0  1  0  0  0  0  0  0  0  0  0
   -3.3350   -0.5810    0.8610 O   0  0  0  0  0  0  0  0  0  0  0  0
   -1.8170    0.1180    2.6040 C   0  0  2  0  0  0  0  0  0  0  0  0
   -0.6610   -0.5160    1.9330 N   0  0  0  0  0  0  0  0  0  0  0  0
   -2.3610   -0.7540    3.6500 C   0  0  0  0  0  0  0  0  0  0  0  0
   -1.8510   -1.8780    3.8820 O   0  0  0  0  0  0  0  0  0  0  0  0
   -3.4500   -0.3690    4.4120 O   0  0  0  0  0  0  0  0  0  0  0  0
   -3.1560    1.9560    0.0200 H   0  0  0  0  0  0  0  0  0  0  0  0
   -2.1820    2.5280    1.3960 H   0  0  0  0  0  0  0  0  0  0  0  0
   -1.4690    1.4300    0.1660 H   0  0  0  0  0  0  0  0  0  0  0  0
   -3.7690    0.8830    2.1490 H   0  0  0  0  0  0  0  0  0  0  0  0
   -4.2460   -0.4960    0.5230 H   0  0  0  0  0  0  0  0  0  0  0  0
   -1.4730    1.0740    3.0200 H   0  0  0  0  0  0  0  0  0  0  0  0
   -0.7980   -1.4940    1.5690 H   0  0  0  0  0  0  0  0  0  0  0  0
  1  2  1  0  0  0  0
  2  9  1  0  0  0  0
  3 10  1  6  0  0  0
  3  2  1  0  0  0  0
  3  4  1  0  0  0  0
  3  5  1  0  0  0  0
  4 12  1  0  0  0  0
  5 18  1  0  0  0  0
  6  5  2  0  0  0  0
  7  1  1  0  0  0  0
  8  2  1  0  0  0  0
 11  4  1  0  0  0  0
 13 21  1  0  0  0  0
 13 22  1  0  0  0  0
 13 23  1  0  0  0  0
 14 13  1  0  0  0  0
 15 26  1  6  0  0  0
 15 14  1  0  0  0  0
 15 17  1  0  0  0  0
 16 28  1  0  0  0  0
 16 15  1  0  0  0  0
 17 19  1  0  0  0  0
 17 30  1  1  0  0  0
 18 31  1  0  0  0  0
 18 17  1  0  0  0  0
 19 36  1  0  0  0  0
 19 20  2  0  0  0  0
 24 14  1  0  0  0  0
 25 14  1  0  0  0  0
 27 16  1  0  0  0  0
 29 16  1  0  0  0  0
 32 41  1  0  0  0  0
 32 33  1  0  0  0  0
 33 43  1  1  0  0  0
 33 35  1  0  0  0  0
 34 33  1  0  0  0  0
 35 45  1  1  0  0  0
 35 37  1  0  0  0  0
 36 35  1  0  0  0  0
 37 38  2  0  0  0  0
 37 39  1  0  0  0  0
 40 32  1  0  0  0  0
 42 32  1  0  0  0  0
 44 34  1  0  0  0  0
 46 36  1  0  0  0  0
M  END
$$$$
