SIY.pdb
 OpenBabel07022419083D

 53 53  0  0  1  0  0  0  0  0999 V2000
    0.3300    0.8460    4.9930 O   0  0  0  0  0  0  0  0  0  0  0  0
   -0.7220    0.5840    4.1350 C   0  0  0  0  0  0  0  0  0  0  0  0
   -0.7410   -0.8500    3.6600 C   0  0  2  0  0  0  0  0  0  0  0  0
   -0.8640   -1.7870    4.7320 N   0  0  0  0  0  0  0  0  0  0  0  0
    0.4650   -1.1470    2.8040 C   0  0  0  0  0  0  0  0  0  0  0  0
    1.1450   -2.1210    3.1440 O   0  0  0  0  0  0  0  0  0  0  0  0
    1.0300    1.3470    4.4950 H   0  0  0  0  0  0  0  0  0  0  0  0
   -1.6870    0.7390    4.6740 H   0  0  0  0  0  0  0  0  0  0  0  0
   -0.7630    1.2540    3.2540 H   0  0  0  0  0  0  0  0  0  0  0  0
   -1.6100   -0.9460    2.9760 H   0  0  0  0  0  0  0  0  0  0  0  0
   -1.8300   -2.0920    4.9050 H   0  0  0  0  0  0  0  0  0  0  0  0
   -0.3390   -1.5040    5.5930 H   0  0  0  0  0  0  0  0  0  0  0  0
    4.7200    0.1930    1.9970 C   0  0  0  0  0  0  0  0  0  0  0  0
    3.7270   -0.9400    2.2680 C   0  0  0  0  0  0  0  0  0  0  0  0
    2.9410   -1.2830    1.0470 C   0  0  2  0  0  0  0  0  0  0  0  0
    3.7770   -1.6910   -0.1230 C   0  0  0  0  0  0  0  0  0  0  0  0
    1.7990   -0.3600    0.7570 C   0  0  2  0  0  0  0  0  0  0  0  0
    0.7260   -0.3210    1.7100 N   0  0  0  0  0  0  0  0  0  0  0  0
    1.3480   -0.3030   -0.6320 C   0  0  0  0  0  0  0  0  0  0  0  0
    2.1940   -0.2960   -1.5580 O   0  0  0  0  0  0  0  0  0  0  0  0
    5.1430    0.1490    0.9920 H   0  0  0  0  0  0  0  0  0  0  0  0
    5.4690    0.2120    2.8160 H   0  0  0  0  0  0  0  0  0  0  0  0
    4.1450    1.1390    2.0690 H   0  0  0  0  0  0  0  0  0  0  0  0
    3.0500   -0.5570    3.0550 H   0  0  0  0  0  0  0  0  0  0  0  0
    4.2900   -1.7860    2.6860 H   0  0  0  0  0  0  0  0  0  0  0  0
    2.4200   -2.2740    1.3330 H   0  0  0  0  0  0  0  0  0  0  0  0
    3.1360   -2.2680   -0.8200 H   0  0  0  0  0  0  0  0  0  0  0  0
    4.2460   -0.8820   -0.6850 H   0  0  0  0  0  0  0  0  0  0  0  0
    4.5170   -2.4370    0.2560 H   0  0  0  0  0  0  0  0  0  0  0  0
    2.3440    0.6720    0.9480 H   0  0  0  0  0  0  0  0  0  0  0  0
    0.0130    0.4910    1.5330 H   0  0  0  0  0  0  0  0  0  0  0  0
   -6.0700   -1.9620   -0.0620 O   0  0  0  0  0  0  0  0  0  0  0  0
   -4.8520   -1.8230   -0.7510 C   0  0  0  0  0  0  0  0  0  0  0  0
   -3.6980   -2.4110   -0.2900 C   0  0  0  0  0  0  0  0  0  0  0  0
   -2.5140   -2.2660   -0.9730 C   0  0  0  0  0  0  0  0  0  0  0  0
   -2.4500   -1.5310   -2.1360 C   0  0  0  0  0  0  0  0  0  0  0  0
   -1.1780   -1.3960   -2.8390 C   0  0  0  0  0  0  0  0  0  0  0  0
   -0.3680   -0.1990   -2.3900 C   0  0  2  0  0  0  0  0  0  0  0  0
   -0.0400   -0.2530   -0.9910 N   0  0  0  0  0  0  0  0  0  0  0  0
   -1.0790    1.0610   -2.7410 C   0  0  0  0  0  0  0  0  0  0  0  0
   -1.3600    1.9680   -1.9220 O   0  0  0  0  0  0  0  0  0  0  0  0
   -3.6160   -0.9480   -2.5840 C   0  0  0  0  0  0  0  0  0  0  0  0
   -4.8030   -1.0870   -1.9080 C   0  0  0  0  0  0  0  0  0  0  0  0
   -1.4500    1.2330   -4.0650 O   0  0  0  0  0  0  0  0  0  0  0  0
   -6.5060   -1.0750    0.2140 H   0  0  0  0  0  0  0  0  0  0  0  0
   -3.7580   -2.9860    0.6230 H   0  0  0  0  0  0  0  0  0  0  0  0
   -1.6250   -2.7540   -0.5650 H   0  0  0  0  0  0  0  0  0  0  0  0
   -0.5910   -2.3330   -2.7730 H   0  0  0  0  0  0  0  0  0  0  0  0
   -1.3710   -1.2490   -3.9370 H   0  0  0  0  0  0  0  0  0  0  0  0
    0.5480   -0.2040   -3.0150 H   0  0  0  0  0  0  0  0  0  0  0  0
   -0.7600   -0.2570   -0.2300 H   0  0  0  0  0  0  0  0  0  0  0  0
   -3.6360   -0.3470   -3.5070 H   0  0  0  0  0  0  0  0  0  0  0  0
   -5.7250   -0.6220   -2.2690 H   0  0  0  0  0  0  0  0  0  0  0  0
  2  8  1  0  0  0  0
  2  1  1  0  0  0  0
  3 10  1  6  0  0  0
  3  2  1  0  0  0  0
  3  4  1  0  0  0  0
  4 11  1  0  0  0  0
  4 12  1  0  0  0  0
  5  6  2  0  0  0  0
  5  3  1  0  0  0  0
  7  1  1  0  0  0  0
  9  2  1  0  0  0  0
 13 23  1  0  0  0  0
 13 14  1  0  0  0  0
 13 22  1  0  0  0  0
 14 25  1  0  0  0  0
 14 24  1  0  0  0  0
 15 26  1  1  0  0  0
 15 14  1  0  0  0  0
 16 29  1  0  0  0  0
 16 15  1  0  0  0  0
 17 30  1  1  0  0  0
 17 15  1  0  0  0  0
 17 18  1  0  0  0  0
 18  5  1  0  0  0  0
 19 17  1  0  0  0  0
 20 19  2  0  0  0  0
 21 13  1  0  0  0  0
 27 16  1  0  0  0  0
 28 16  1  0  0  0  0
 31 18  1  0  0  0  0
 32 45  1  0  0  0  0
 33 34  1  0  0  0  0
 33 32  1  0  0  0  0
 34 46  1  0  0  0  0
 35 47  1  0  0  0  0
 35 34  2  0  0  0  0
 36 35  1  0  0  0  0
 37 48  1  0  0  0  0
 37 38  1  0  0  0  0
 37 36  1  0  0  0  0
 38 50  1  6  0  0  0
 38 39  1  0  0  0  0
 39 19  1  0  0  0  0
 39 51  1  0  0  0  0
 40 38  1  0  0  0  0
 40 41  1  0  0  0  0
 42 36  2  0  0  0  0
 42 43  1  0  0  0  0
 43 33  2  0  0  0  0
 44 40  2  0  0  0  0
 49 37  1  0  0  0  0
 52 42  1  0  0  0  0
 53 43  1  0  0  0  0
M  END
$$$$
