SKC.pdb
 OpenBabel07022419093D

 45 44  0  0  1  0  0  0  0  0999 V2000
    0.7080   -5.4080    0.0300 O   0  0  0  0  0  0  0  0  0  0  0  0
    0.3410   -4.1970    0.6110 C   0  0  0  0  0  0  0  0  0  0  0  0
    1.5510   -3.5800    1.2770 C   0  0  2  0  0  0  0  0  0  0  0  0
    2.0090   -4.5130    2.2820 N   0  0  0  0  0  0  0  0  0  0  0  0
    1.2570   -2.2930    1.9090 C   0  0  0  0  0  0  0  0  0  0  0  0
    1.4390   -2.1960    3.1720 O   0  0  0  0  0  0  0  0  0  0  0  0
    1.2820   -5.1580   -0.7610 H   0  0  0  0  0  0  0  0  0  0  0  0
   -0.0250   -3.5180   -0.1880 H   0  0  0  0  0  0  0  0  0  0  0  0
   -0.4030   -4.4120    1.3900 H   0  0  0  0  0  0  0  0  0  0  0  0
    2.3920   -3.4950    0.5290 H   0  0  0  0  0  0  0  0  0  0  0  0
    1.6650   -5.4820    2.1330 H   0  0  0  0  0  0  0  0  0  0  0  0
    1.8330   -4.1840    3.2540 H   0  0  0  0  0  0  0  0  0  0  0  0
    0.7850   -1.1710    1.1700 N   0  0  0  0  0  0  0  0  0  0  0  0
    0.5240    0.0420    1.8540 C   0  0  1  0  0  0  0  0  0  0  0  0
    1.2920    1.2280    1.3320 C   0  0  0  0  0  0  0  0  0  0  0  0
    2.7660    1.0770    1.4060 C   0  0  0  0  0  0  0  0  0  0  0  0
    3.4200    2.3250    0.8640 C   0  0  0  0  0  0  0  0  0  0  0  0
    3.0650    2.6120   -0.5650 C   0  0  0  0  0  0  0  0  0  0  0  0
    3.7210    3.8150   -1.0420 N   0  0  0  0  0  0  0  0  0  0  0  0
   -0.9280    0.3860    1.6670 C   0  0  0  0  0  0  0  0  0  0  0  0
   -1.3650    1.4350    2.2000 O   0  0  0  0  0  0  0  0  0  0  0  0
    0.6550   -1.3040    0.1500 H   0  0  0  0  0  0  0  0  0  0  0  0
    0.7410   -0.0740    2.9320 H   0  0  0  0  0  0  0  0  0  0  0  0
    0.9840    2.1100    1.9260 H   0  0  0  0  0  0  0  0  0  0  0  0
    1.0030    1.3120    0.2490 H   0  0  0  0  0  0  0  0  0  0  0  0
    3.0650    0.2520    0.6920 H   0  0  0  0  0  0  0  0  0  0  0  0
    3.1400    0.8670    2.4260 H   0  0  0  0  0  0  0  0  0  0  0  0
    4.5150    2.3190    0.9870 H   0  0  0  0  0  0  0  0  0  0  0  0
    3.0340    3.1840    1.4770 H   0  0  0  0  0  0  0  0  0  0  0  0
    1.9620    2.8400   -0.6560 H   0  0  0  0  0  0  0  0  0  0  0  0
    3.3580    1.7940   -1.2560 H   0  0  0  0  0  0  0  0  0  0  0  0
    3.3730    4.0740   -1.9800 H   0  0  0  0  0  0  0  0  0  0  0  0
    4.7380    3.8140   -0.9230 H   0  0  0  0  0  0  0  0  0  0  0  0
   -1.7750   -0.4480    0.9130 N   0  0  0  0  0  0  0  0  0  0  0  0
   -3.1960   -0.1480    0.7080 C   0  0  1  0  0  0  0  0  0  0  0  0
   -3.3870    0.0890   -0.7840 C   0  0  0  0  0  0  0  0  0  0  0  0
   -5.1040    0.4710   -1.1730 S   0  0  0  0  0  0  0  0  0  0  0  0
   -4.0560   -1.2210    1.2110 C   0  0  0  0  0  0  0  0  0  0  0  0
   -3.5710   -2.2680    1.7550 O   0  0  0  0  0  0  0  0  0  0  0  0
   -5.4280   -1.1270    1.1110 O   0  0  0  0  0  0  0  0  0  0  0  0
   -1.3550   -1.3050    0.4940 H   0  0  0  0  0  0  0  0  0  0  0  0
   -3.4680    0.7960    1.2210 H   0  0  0  0  0  0  0  0  0  0  0  0
   -2.7700    0.9350   -1.1400 H   0  0  0  0  0  0  0  0  0  0  0  0
   -3.0750   -0.8070   -1.3610 H   0  0  0  0  0  0  0  0  0  0  0  0
   -5.8110   -0.7510   -1.2330 H   0  0  0  0  0  0  0  0  0  0  0  0
  1  2  1  0  0  0  0
  2  3  1  0  0  0  0
  2  9  1  0  0  0  0
  3 10  1  6  0  0  0
  3  5  1  0  0  0  0
  3  4  1  0  0  0  0
  4 12  1  0  0  0  0
  5  6  2  0  0  0  0
  7  1  1  0  0  0  0
  8  2  1  0  0  0  0
 11  4  1  0  0  0  0
 13 14  1  0  0  0  0
 13  5  1  0  0  0  0
 14 23  1  1  0  0  0
 15 16  1  0  0  0  0
 15 14  1  0  0  0  0
 15 24  1  0  0  0  0
 16 27  1  0  0  0  0
 17 28  1  0  0  0  0
 17 16  1  0  0  0  0
 17 29  1  0  0  0  0
 18 17  1  0  0  0  0
 19 33  1  0  0  0  0
 19 18  1  0  0  0  0
 20 14  1  0  0  0  0
 20 21  2  0  0  0  0
 22 13  1  0  0  0  0
 25 15  1  0  0  0  0
 26 16  1  0  0  0  0
 30 18  1  0  0  0  0
 31 18  1  0  0  0  0
 32 19  1  0  0  0  0
 34 20  1  0  0  0  0
 35 34  1  0  0  0  0
 35 38  1  0  0  0  0
 35 42  1  1  0  0  0
 36 35  1  0  0  0  0
 37 36  1  0  0  0  0
 38 39  1  0  0  0  0
 40 38  2  0  0  0  0
 41 34  1  0  0  0  0
 43 36  1  0  0  0  0
 44 36  1  0  0  0  0
 45 37  1  0  0  0  0
M  END
$$$$
