SKG.pdb
 OpenBabel07022419093D

 41 40  0  0  1  0  0  0  0  0999 V2000
    0.0630   -0.0420    5.1290 O   0  0  0  0  0  0  0  0  0  0  0  0
   -1.2240   -0.2560    4.6420 C   0  0  0  0  0  0  0  0  0  0  0  0
   -1.3250   -1.5480    3.8710 C   0  0  2  0  0  0  0  0  0  0  0  0
   -0.9830   -2.6490    4.7200 N   0  0  0  0  0  0  0  0  0  0  0  0
   -0.4190   -1.5020    2.6610 C   0  0  0  0  0  0  0  0  0  0  0  0
    0.4750   -2.3670    2.5290 O   0  0  0  0  0  0  0  0  0  0  0  0
    0.0660    0.8030    5.6240 H   0  0  0  0  0  0  0  0  0  0  0  0
   -1.5940    0.6130    4.0620 H   0  0  0  0  0  0  0  0  0  0  0  0
   -1.8850   -0.3480    5.5220 H   0  0  0  0  0  0  0  0  0  0  0  0
   -2.3650   -1.6510    3.5130 H   0  0  0  0  0  0  0  0  0  0  0  0
   -1.8430   -2.9370    5.2570 H   0  0  0  0  0  0  0  0  0  0  0  0
   -0.7600   -3.4690    4.0960 H   0  0  0  0  0  0  0  0  0  0  0  0
   -0.5680   -0.4990    1.6810 N   0  0  0  0  0  0  0  0  0  0  0  0
    0.2970   -0.4150    0.4780 C   0  0  1  0  0  0  0  0  0  0  0  0
    1.6960   -0.1610    0.9110 C   0  0  0  0  0  0  0  0  0  0  0  0
    2.6970    0.0060   -0.1490 C   0  0  0  0  0  0  0  0  0  0  0  0
    2.4730    1.1800   -1.0840 C   0  0  0  0  0  0  0  0  0  0  0  0
    2.4980    2.4720   -0.2770 C   0  0  0  0  0  0  0  0  0  0  0  0
    2.2880    3.6210   -1.1490 N   0  0  0  0  0  0  0  0  0  0  0  0
    0.1010   -1.6230   -0.3300 C   0  0  0  0  0  0  0  0  0  0  0  0
   -0.6090   -2.5720    0.1870 O   0  0  0  0  0  0  0  0  0  0  0  0
   -1.3310    0.1960    1.8440 H   0  0  0  0  0  0  0  0  0  0  0  0
   -0.0720    0.4560   -0.0890 H   0  0  0  0  0  0  0  0  0  0  0  0
    2.0280   -1.0030    1.5660 H   0  0  0  0  0  0  0  0  0  0  0  0
    1.7180    0.7530    1.5550 H   0  0  0  0  0  0  0  0  0  0  0  0
    2.9720   -0.8690   -0.7460 H   0  0  0  0  0  0  0  0  0  0  0  0
    3.6990    0.2810    0.3550 H   0  0  0  0  0  0  0  0  0  0  0  0
    3.3490    1.2170   -1.7650 H   0  0  0  0  0  0  0  0  0  0  0  0
    1.5750    1.1040   -1.6980 H   0  0  0  0  0  0  0  0  0  0  0  0
    3.4890    2.5960    0.2010 H   0  0  0  0  0  0  0  0  0  0  0  0
    1.7390    2.4950    0.5180 H   0  0  0  0  0  0  0  0  0  0  0  0
    1.7170    3.3330   -1.9750 H   0  0  0  0  0  0  0  0  0  0  0  0
    1.8980    4.4310   -0.6380 H   0  0  0  0  0  0  0  0  0  0  0  0
    0.5970   -1.8660   -1.6110 N   0  0  0  0  0  0  0  0  0  0  0  0
    0.3240   -3.1430   -2.3130 C   0  0  0  0  0  0  0  0  0  0  0  0
   -1.1280   -3.2950   -2.4780 C   0  0  0  0  0  0  0  0  0  0  0  0
   -1.6490   -4.3010   -3.0360 O   0  0  0  0  0  0  0  0  0  0  0  0
   -1.9970   -2.3240   -2.0220 O   0  0  0  0  0  0  0  0  0  0  0  0
    1.1540   -1.1400   -2.0970 H   0  0  0  0  0  0  0  0  0  0  0  0
    0.7030   -3.9920   -1.7040 H   0  0  0  0  0  0  0  0  0  0  0  0
    0.8980   -3.1360   -3.2440 H   0  0  0  0  0  0  0  0  0  0  0  0
  1  7  1  0  0  0  0
  2  1  1  0  0  0  0
  2  9  1  0  0  0  0
  3 10  1  6  0  0  0
  3  2  1  0  0  0  0
  3  4  1  0  0  0  0
  4 11  1  0  0  0  0
  5  3  1  0  0  0  0
  6  5  2  0  0  0  0
  8  2  1  0  0  0  0
 12  4  1  0  0  0  0
 13 22  1  0  0  0  0
 13  5  1  0  0  0  0
 14 23  1  6  0  0  0
 14 15  1  0  0  0  0
 14 13  1  0  0  0  0
 15 25  1  0  0  0  0
 15 24  1  0  0  0  0
 16 27  1  0  0  0  0
 16 15  1  0  0  0  0
 17 18  1  0  0  0  0
 17 16  1  0  0  0  0
 18 30  1  0  0  0  0
 18 31  1  0  0  0  0
 19 33  1  0  0  0  0
 19 18  1  0  0  0  0
 20 21  2  0  0  0  0
 20 14  1  0  0  0  0
 26 16  1  0  0  0  0
 28 17  1  0  0  0  0
 29 17  1  0  0  0  0
 32 19  1  0  0  0  0
 34 20  1  0  0  0  0
 35 40  1  0  0  0  0
 35 34  1  0  0  0  0
 36 35  1  0  0  0  0
 36 38  1  0  0  0  0
 37 36  2  0  0  0  0
 39 34  1  0  0  0  0
 41 35  1  0  0  0  0
M  END
$$$$
