SKH.pdb
 OpenBabel07022419093D

 51 51  0  0  1  0  0  0  0  0999 V2000
    2.5340   -2.6620    4.6520 O   0  0  0  0  0  0  0  0  0  0  0  0
    1.5940   -1.8780    5.3090 C   0  0  0  0  0  0  0  0  0  0  0  0
    0.3020   -1.7690    4.5330 C   0  0  2  0  0  0  0  0  0  0  0  0
   -0.2140   -3.1200    4.3810 N   0  0  0  0  0  0  0  0  0  0  0  0
    0.5680   -1.1740    3.2060 C   0  0  0  0  0  0  0  0  0  0  0  0
    1.0180   -0.0030    3.1260 O   0  0  0  0  0  0  0  0  0  0  0  0
    3.4530   -2.4670    4.8870 H   0  0  0  0  0  0  0  0  0  0  0  0
    2.0440   -0.9100    5.5480 H   0  0  0  0  0  0  0  0  0  0  0  0
    1.3670   -2.3910    6.2670 H   0  0  0  0  0  0  0  0  0  0  0  0
   -0.3800   -1.1110    5.0790 H   0  0  0  0  0  0  0  0  0  0  0  0
    0.5110   -3.6820    3.8850 H   0  0  0  0  0  0  0  0  0  0  0  0
   -1.0850   -3.0980    3.7950 H   0  0  0  0  0  0  0  0  0  0  0  0
    0.3400   -1.8680    1.9920 N   0  0  0  0  0  0  0  0  0  0  0  0
    0.6200   -1.2320    0.7210 C   0  0  1  0  0  0  0  0  0  0  0  0
    1.6940   -1.9560   -0.0430 C   0  0  0  0  0  0  0  0  0  0  0  0
    2.0400   -1.3670   -1.3570 C   0  0  0  0  0  0  0  0  0  0  0  0
    2.5400    0.0480   -1.2840 C   0  0  0  0  0  0  0  0  0  0  0  0
    3.7800    0.2170   -0.4620 C   0  0  0  0  0  0  0  0  0  0  0  0
    4.1120    1.6500   -0.5080 N   0  0  0  0  0  0  0  0  0  0  0  0
   -0.6270   -1.0620   -0.0770 C   0  0  0  0  0  0  0  0  0  0  0  0
   -0.6060   -0.5240   -1.1980 O   0  0  0  0  0  0  0  0  0  0  0  0
   -0.0360   -2.8480    2.0630 H   0  0  0  0  0  0  0  0  0  0  0  0
    1.0010   -0.2110    0.9230 H   0  0  0  0  0  0  0  0  0  0  0  0
    1.3300   -3.0000   -0.2270 H   0  0  0  0  0  0  0  0  0  0  0  0
    2.6240   -2.0740    0.5450 H   0  0  0  0  0  0  0  0  0  0  0  0
    1.2950   -1.4550   -2.1520 H   0  0  0  0  0  0  0  0  0  0  0  0
    2.9220   -1.9660   -1.7410 H   0  0  0  0  0  0  0  0  0  0  0  0
    1.8030    0.7780   -0.9520 H   0  0  0  0  0  0  0  0  0  0  0  0
    2.8150    0.3380   -2.3380 H   0  0  0  0  0  0  0  0  0  0  0  0
    4.6700   -0.2980   -0.8920 H   0  0  0  0  0  0  0  0  0  0  0  0
    3.6220   -0.0360    0.6080 H   0  0  0  0  0  0  0  0  0  0  0  0
    3.1700    2.1350   -0.4120 H   0  0  0  0  0  0  0  0  0  0  0  0
    4.4230    1.8820   -1.4880 H   0  0  0  0  0  0  0  0  0  0  0  0
   -1.8750   -1.5130    0.4230 N   0  0  0  0  0  0  0  0  0  0  0  0
   -3.1470   -1.4200   -0.2480 C   0  0  1  0  0  0  0  0  0  0  0  0
   -3.8180   -0.1190    0.0230 C   0  0  0  0  0  0  0  0  0  0  0  0
   -3.0320    1.0540   -0.4120 C   0  0  0  0  0  0  0  0  0  0  0  0
   -3.1280    1.6130   -1.6800 C   0  0  0  0  0  0  0  0  0  0  0  0
   -2.2540    2.6570   -1.6770 N   0  0  0  0  0  0  0  0  0  0  0  0
   -1.6570    2.7350   -0.4810 C   0  0  0  0  0  0  0  0  0  0  0  0
   -2.1210    1.7590    0.3130 N   0  0  0  0  0  0  0  0  0  0  0  0
   -3.0950   -1.8130   -1.6680 C   0  0  0  0  0  0  0  0  0  0  0  0
   -2.0710   -2.2760   -2.1910 O   0  0  0  0  0  0  0  0  0  0  0  0
   -4.2330   -1.6580   -2.4420 O   0  0  0  0  0  0  0  0  0  0  0  0
   -1.8320   -1.9590    1.4010 H   0  0  0  0  0  0  0  0  0  0  0  0
   -3.7890   -2.2200    0.3000 H   0  0  0  0  0  0  0  0  0  0  0  0
   -4.8020   -0.1400   -0.5100 H   0  0  0  0  0  0  0  0  0  0  0  0
   -4.0390    0.0070    1.1070 H   0  0  0  0  0  0  0  0  0  0  0  0
   -3.7610    1.2920   -2.5010 H   0  0  0  0  0  0  0  0  0  0  0  0
   -2.1280    3.2520   -2.5140 H   0  0  0  0  0  0  0  0  0  0  0  0
   -0.9190    3.4650   -0.1910 H   0  0  0  0  0  0  0  0  0  0  0  0
  1  7  1  0  0  0  0
  1  2  1  0  0  0  0
  2  8  1  0  0  0  0
  2  9  1  0  0  0  0
  3 10  1  1  0  0  0
  3  2  1  0  0  0  0
  4  3  1  0  0  0  0
  5  3  1  0  0  0  0
  6  5  2  0  0  0  0
 11  4  1  0  0  0  0
 12  4  1  0  0  0  0
 13 22  1  0  0  0  0
 13  5  1  0  0  0  0
 14 23  1  1  0  0  0
 14 13  1  0  0  0  0
 15 25  1  0  0  0  0
 15 14  1  0  0  0  0
 16 17  1  0  0  0  0
 16 15  1  0  0  0  0
 17 28  1  0  0  0  0
 17 18  1  0  0  0  0
 18 31  1  0  0  0  0
 19 18  1  0  0  0  0
 19 32  1  0  0  0  0
 20 34  1  0  0  0  0
 20 14  1  0  0  0  0
 21 20  2  0  0  0  0
 24 15  1  0  0  0  0
 26 16  1  0  0  0  0
 27 16  1  0  0  0  0
 29 17  1  0  0  0  0
 30 18  1  0  0  0  0
 33 19  1  0  0  0  0
 34 45  1  0  0  0  0
 35 36  1  0  0  0  0
 35 46  1  1  0  0  0
 35 34  1  0  0  0  0
 36 48  1  0  0  0  0
 37 36  1  0  0  0  0
 37 41  1  0  0  0  0
 38 39  1  0  0  0  0
 38 37  2  0  0  0  0
 39 40  1  0  0  0  0
 40 51  1  0  0  0  0
 40 41  2  0  0  0  0
 42 35  1  0  0  0  0
 43 42  1  0  0  0  0
 44 42  2  0  0  0  0
 47 36  1  0  0  0  0
 49 38  1  0  0  0  0
 50 39  1  0  0  0  0
M  END
$$$$
