SKI.pdb
 OpenBabel07022419093D

 53 52  0  0  1  0  0  0  0  0999 V2000
    0.9360   -3.1900    5.6300 O   0  0  0  0  0  0  0  0  0  0  0  0
    1.1860   -2.2930    4.6150 C   0  0  0  0  0  0  0  0  0  0  0  0
    0.0520   -2.2930    3.5840 C   0  0  2  0  0  0  0  0  0  0  0  0
   -0.0820   -3.6070    3.0110 N   0  0  0  0  0  0  0  0  0  0  0  0
    0.3820   -1.2620    2.5770 C   0  0  0  0  0  0  0  0  0  0  0  0
    0.5290   -0.0820    2.9580 O   0  0  0  0  0  0  0  0  0  0  0  0
    1.7790   -3.6470    5.8630 H   0  0  0  0  0  0  0  0  0  0  0  0
    1.2430   -1.2310    4.9860 H   0  0  0  0  0  0  0  0  0  0  0  0
    2.1270   -2.5750    4.1050 H   0  0  0  0  0  0  0  0  0  0  0  0
   -0.9120   -2.0440    4.0660 H   0  0  0  0  0  0  0  0  0  0  0  0
   -1.0370   -3.7630    2.6230 H   0  0  0  0  0  0  0  0  0  0  0  0
    0.6440   -3.8610    2.3340 H   0  0  0  0  0  0  0  0  0  0  0  0
    0.5460   -1.5140    1.2030 N   0  0  0  0  0  0  0  0  0  0  0  0
    0.8670   -0.4970    0.2480 C   0  0  1  0  0  0  0  0  0  0  0  0
    2.0500   -0.7770   -0.6080 C   0  0  0  0  0  0  0  0  0  0  0  0
    3.3290   -0.9630    0.1840 C   0  0  0  0  0  0  0  0  0  0  0  0
    3.7050    0.2220    0.9930 C   0  0  0  0  0  0  0  0  0  0  0  0
    3.9390    1.4780    0.2150 C   0  0  0  0  0  0  0  0  0  0  0  0
    5.0060    1.3500   -0.7570 N   0  0  0  0  0  0  0  0  0  0  0  0
   -0.3180   -0.3730   -0.6640 C   0  0  0  0  0  0  0  0  0  0  0  0
   -0.2780    0.4650   -1.5950 O   0  0  0  0  0  0  0  0  0  0  0  0
    0.4310   -2.4900    0.8430 H   0  0  0  0  0  0  0  0  0  0  0  0
    0.9820    0.5050    0.7110 H   0  0  0  0  0  0  0  0  0  0  0  0
    1.9070   -1.5920   -1.3470 H   0  0  0  0  0  0  0  0  0  0  0  0
    2.2310    0.1350   -1.2350 H   0  0  0  0  0  0  0  0  0  0  0  0
    4.1360   -1.1260   -0.5850 H   0  0  0  0  0  0  0  0  0  0  0  0
    3.2880   -1.8410    0.8610 H   0  0  0  0  0  0  0  0  0  0  0  0
    2.9560    0.4490    1.7780 H   0  0  0  0  0  0  0  0  0  0  0  0
    4.6470   -0.0160    1.5300 H   0  0  0  0  0  0  0  0  0  0  0  0
    4.3030    2.2470    0.9570 H   0  0  0  0  0  0  0  0  0  0  0  0
    3.0300    1.9160   -0.2300 H   0  0  0  0  0  0  0  0  0  0  0  0
    5.2090    2.3100   -1.1150 H   0  0  0  0  0  0  0  0  0  0  0  0
    4.8260    0.6480   -1.4790 H   0  0  0  0  0  0  0  0  0  0  0  0
   -3.0110    0.4990    1.2390 C   0  0  0  0  0  0  0  0  0  0  0  0
   -4.0890    0.2040    0.2310 C   0  0  0  0  0  0  0  0  0  0  0  0
   -3.5520    0.0560   -1.1660 C   0  0  2  0  0  0  0  0  0  0  0  0
   -4.7780   -0.2200   -2.0600 C   0  0  0  0  0  0  0  0  0  0  0  0
   -2.6550   -1.1190   -1.3390 C   0  0  2  0  0  0  0  0  0  0  0  0
   -1.4820   -1.1550   -0.5260 N   0  0  0  0  0  0  0  0  0  0  0  0
   -2.3200   -1.2480   -2.7950 C   0  0  0  0  0  0  0  0  0  0  0  0
   -3.1990   -1.2110   -3.6820 O   0  0  0  0  0  0  0  0  0  0  0  0
   -1.0140   -1.4140   -3.1790 O   0  0  0  0  0  0  0  0  0  0  0  0
   -2.6240   -0.4030    1.7270 H   0  0  0  0  0  0  0  0  0  0  0  0
   -3.4350    1.1210    2.0900 H   0  0  0  0  0  0  0  0  0  0  0  0
   -2.2330    1.1650    0.8060 H   0  0  0  0  0  0  0  0  0  0  0  0
   -4.8930    0.9730    0.2760 H   0  0  0  0  0  0  0  0  0  0  0  0
   -4.5620   -0.7620    0.5590 H   0  0  0  0  0  0  0  0  0  0  0  0
   -3.0980    1.0030   -1.4690 H   0  0  0  0  0  0  0  0  0  0  0  0
   -4.7370    0.3350   -3.0030 H   0  0  0  0  0  0  0  0  0  0  0  0
   -4.9590   -1.2920   -2.2000 H   0  0  0  0  0  0  0  0  0  0  0  0
   -5.6880    0.1470   -1.4970 H   0  0  0  0  0  0  0  0  0  0  0  0
   -3.2640   -2.0460   -1.0790 H   0  0  0  0  0  0  0  0  0  0  0  0
   -1.4460   -1.8450    0.2820 H   0  0  0  0  0  0  0  0  0  0  0  0
  1  7  1  0  0  0  0
  2  8  1  0  0  0  0
  2  1  1  0  0  0  0
  3 10  1  1  0  0  0
  3  2  1  0  0  0  0
  4  3  1  0  0  0  0
  5  6  2  0  0  0  0
  5  3  1  0  0  0  0
  9  2  1  0  0  0  0
 11  4  1  0  0  0  0
 12  4  1  0  0  0  0
 13  5  1  0  0  0  0
 14 23  1  1  0  0  0
 14 13  1  0  0  0  0
 15 16  1  0  0  0  0
 15 14  1  0  0  0  0
 16 27  1  0  0  0  0
 16 17  1  0  0  0  0
 17 29  1  0  0  0  0
 17 28  1  0  0  0  0
 18 30  1  0  0  0  0
 18 17  1  0  0  0  0
 19 18  1  0  0  0  0
 20 39  1  0  0  0  0
 20 14  1  0  0  0  0
 21 20  2  0  0  0  0
 22 13  1  0  0  0  0
 24 15  1  0  0  0  0
 25 15  1  0  0  0  0
 26 16  1  0  0  0  0
 31 18  1  0  0  0  0
 32 19  1  0  0  0  0
 33 19  1  0  0  0  0
 34 43  1  0  0  0  0
 34 44  1  0  0  0  0
 35 46  1  0  0  0  0
 35 47  1  0  0  0  0
 35 34  1  0  0  0  0
 36 48  1  6  0  0  0
 36 35  1  0  0  0  0
 37 51  1  0  0  0  0
 37 36  1  0  0  0  0
 38 36  1  0  0  0  0
 38 52  1  1  0  0  0
 38 39  1  0  0  0  0
 39 53  1  0  0  0  0
 40 38  1  0  0  0  0
 41 40  2  0  0  0  0
 42 40  1  0  0  0  0
 45 34  1  0  0  0  0
 49 37  1  0  0  0  0
 50 37  1  0  0  0  0
M  END
$$$$
