SKM.pdb
 OpenBabel07022419093D

 51 50  0  0  1  0  0  0  0  0999 V2000
    1.8400   -2.9830    5.2170 O   0  0  0  0  0  0  0  0  0  0  0  0
    2.2300   -2.2110    4.1090 C   0  0  0  0  0  0  0  0  0  0  0  0
    0.9850   -1.8940    3.3400 C   0  0  2  0  0  0  0  0  0  0  0  0
    0.3290   -3.1080    2.8950 N   0  0  0  0  0  0  0  0  0  0  0  0
    1.2100   -0.9480    2.2180 C   0  0  0  0  0  0  0  0  0  0  0  0
    1.7970    0.1430    2.4340 O   0  0  0  0  0  0  0  0  0  0  0  0
    2.1600   -3.9130    5.1450 H   0  0  0  0  0  0  0  0  0  0  0  0
    2.9750   -2.7880    3.5630 H   0  0  0  0  0  0  0  0  0  0  0  0
    2.6520   -1.2740    4.5450 H   0  0  0  0  0  0  0  0  0  0  0  0
    0.2860   -1.3960    4.0530 H   0  0  0  0  0  0  0  0  0  0  0  0
    0.5360   -3.8400    3.6100 H   0  0  0  0  0  0  0  0  0  0  0  0
   -0.6950   -2.9100    2.8710 H   0  0  0  0  0  0  0  0  0  0  0  0
    0.7920   -1.2080    0.8850 N   0  0  0  0  0  0  0  0  0  0  0  0
    1.0180   -0.2720   -0.2170 C   0  0  1  0  0  0  0  0  0  0  0  0
    1.8320   -0.8900   -1.3000 C   0  0  0  0  0  0  0  0  0  0  0  0
    2.1000    0.0290   -2.4490 C   0  0  0  0  0  0  0  0  0  0  0  0
    2.8340    1.2830   -2.1150 C   0  0  0  0  0  0  0  0  0  0  0  0
    4.2050    1.1000   -1.5460 C   0  0  0  0  0  0  0  0  0  0  0  0
    4.2870    0.3700   -0.3260 N   0  0  0  0  0  0  0  0  0  0  0  0
   -0.2980    0.2540   -0.6460 C   0  0  0  0  0  0  0  0  0  0  0  0
   -0.4460    1.1200   -1.5640 O   0  0  0  0  0  0  0  0  0  0  0  0
    0.3040   -2.1120    0.7070 H   0  0  0  0  0  0  0  0  0  0  0  0
    1.5770    0.6310    0.1580 H   0  0  0  0  0  0  0  0  0  0  0  0
    2.7410   -1.3280   -0.8490 H   0  0  0  0  0  0  0  0  0  0  0  0
    1.1970   -1.7270   -1.7290 H   0  0  0  0  0  0  0  0  0  0  0  0
    2.6820   -0.4970   -3.2630 H   0  0  0  0  0  0  0  0  0  0  0  0
    1.1460    0.2920   -2.9400 H   0  0  0  0  0  0  0  0  0  0  0  0
    2.2030    1.9710   -1.5110 H   0  0  0  0  0  0  0  0  0  0  0  0
    2.9770    1.8300   -3.0930 H   0  0  0  0  0  0  0  0  0  0  0  0
    4.5920    2.1340   -1.3310 H   0  0  0  0  0  0  0  0  0  0  0  0
    4.8460    0.6840   -2.3560 H   0  0  0  0  0  0  0  0  0  0  0  0
    4.1180    0.9360    0.5250 H   0  0  0  0  0  0  0  0  0  0  0  0
    5.2200   -0.0940   -0.2680 H   0  0  0  0  0  0  0  0  0  0  0  0
   -3.9850   -1.3820    2.7180 C   0  0  0  0  0  0  0  0  0  0  0  0
   -4.8020   -2.0500    1.2750 S   0  0  0  0  0  0  0  0  0  0  0  0
   -3.8820   -2.1000   -0.2290 C   0  0  0  0  0  0  0  0  0  0  0  0
   -3.6000   -0.8500   -0.9490 C   0  0  0  0  0  0  0  0  0  0  0  0
   -2.7990    0.2310   -0.3530 C   0  0  2  0  0  0  0  0  0  0  0  0
   -1.4760   -0.2220   -0.0070 N   0  0  0  0  0  0  0  0  0  0  0  0
   -3.3740    1.0000    0.7480 C   0  0  0  0  0  0  0  0  0  0  0  0
   -2.6550    1.2980    1.7580 O   0  0  0  0  0  0  0  0  0  0  0  0
   -4.6870    1.4120    0.7170 O   0  0  0  0  0  0  0  0  0  0  0  0
   -4.1450   -2.0580    3.6170 H   0  0  0  0  0  0  0  0  0  0  0  0
   -2.9100   -1.3010    2.5060 H   0  0  0  0  0  0  0  0  0  0  0  0
   -4.4510   -0.4030    2.9950 H   0  0  0  0  0  0  0  0  0  0  0  0
   -4.4830   -2.7480   -0.9580 H   0  0  0  0  0  0  0  0  0  0  0  0
   -2.9370   -2.7420   -0.1300 H   0  0  0  0  0  0  0  0  0  0  0  0
   -4.5860   -0.4600   -1.3710 H   0  0  0  0  0  0  0  0  0  0  0  0
   -3.0310   -1.1610   -1.8990 H   0  0  0  0  0  0  0  0  0  0  0  0
   -2.6690    0.9900   -1.2340 H   0  0  0  0  0  0  0  0  0  0  0  0
   -1.3690   -0.9290    0.7410 H   0  0  0  0  0  0  0  0  0  0  0  0
  2  9  1  0  0  0  0
  2  1  1  0  0  0  0
  3 10  1  1  0  0  0
  3  2  1  0  0  0  0
  4  3  1  0  0  0  0
  4 11  1  0  0  0  0
  5  6  2  0  0  0  0
  5  3  1  0  0  0  0
  7  1  1  0  0  0  0
  8  2  1  0  0  0  0
 12  4  1  0  0  0  0
 13  5  1  0  0  0  0
 14 23  1  1  0  0  0
 14 13  1  0  0  0  0
 15 24  1  0  0  0  0
 15 14  1  0  0  0  0
 16 17  1  0  0  0  0
 16 15  1  0  0  0  0
 17 18  1  0  0  0  0
 17 28  1  0  0  0  0
 18 30  1  0  0  0  0
 18 19  1  0  0  0  0
 19 33  1  0  0  0  0
 19 32  1  0  0  0  0
 20 14  1  0  0  0  0
 20 39  1  0  0  0  0
 21 20  2  0  0  0  0
 22 13  1  0  0  0  0
 25 15  1  0  0  0  0
 26 16  1  0  0  0  0
 27 16  1  0  0  0  0
 29 17  1  0  0  0  0
 31 18  1  0  0  0  0
 34 45  1  0  0  0  0
 34 43  1  0  0  0  0
 35 34  1  0  0  0  0
 36 47  1  0  0  0  0
 36 35  1  0  0  0  0
 37 38  1  0  0  0  0
 37 36  1  0  0  0  0
 38 50  1  6  0  0  0
 38 39  1  0  0  0  0
 38 40  1  0  0  0  0
 39 51  1  0  0  0  0
 40 41  1  0  0  0  0
 42 40  2  0  0  0  0
 44 34  1  0  0  0  0
 46 36  1  0  0  0  0
 48 37  1  0  0  0  0
 49 37  1  0  0  0  0
M  END
$$$$
