SKQ.pdb
 OpenBabel07022419093D

 51 50  0  0  1  0  0  0  0  0999 V2000
    1.0110   -0.7590    6.4330 O   0  0  0  0  0  0  0  0  0  0  0  0
    1.5000   -0.2010    5.2440 C   0  0  0  0  0  0  0  0  0  0  0  0
    0.4000   -0.1840    4.1940 C   0  0  2  0  0  0  0  0  0  0  0  0
   -0.0880   -1.4920    3.8930 N   0  0  0  0  0  0  0  0  0  0  0  0
    0.9130    0.5550    3.0240 C   0  0  0  0  0  0  0  0  0  0  0  0
    1.3630    1.7050    3.2150 O   0  0  0  0  0  0  0  0  0  0  0  0
    1.0100   -1.7500    6.2800 H   0  0  0  0  0  0  0  0  0  0  0  0
    2.3520   -0.8490    4.9410 H   0  0  0  0  0  0  0  0  0  0  0  0
    1.9010    0.8070    5.4120 H   0  0  0  0  0  0  0  0  0  0  0  0
   -0.4210    0.4460    4.6270 H   0  0  0  0  0  0  0  0  0  0  0  0
    0.6980   -2.1740    3.8120 H   0  0  0  0  0  0  0  0  0  0  0  0
   -0.8060   -1.8100    4.5690 H   0  0  0  0  0  0  0  0  0  0  0  0
    0.9290    0.0490    1.7070 N   0  0  0  0  0  0  0  0  0  0  0  0
    1.4210    0.7470    0.5590 C   0  0  1  0  0  0  0  0  0  0  0  0
    2.5920    0.0950   -0.1070 C   0  0  0  0  0  0  0  0  0  0  0  0
    2.2780   -1.3000   -0.5980 C   0  0  0  0  0  0  0  0  0  0  0  0
    3.4950   -1.9300   -1.2690 C   0  0  0  0  0  0  0  0  0  0  0  0
    3.2140   -3.3080   -1.7650 C   0  0  0  0  0  0  0  0  0  0  0  0
    2.8190   -4.2280   -0.7400 N   0  0  0  0  0  0  0  0  0  0  0  0
    0.3500    1.0740   -0.4140 C   0  0  0  0  0  0  0  0  0  0  0  0
    0.6440    1.6800   -1.4620 O   0  0  0  0  0  0  0  0  0  0  0  0
    0.5470   -0.9190    1.5680 H   0  0  0  0  0  0  0  0  0  0  0  0
    1.7930    1.7480    0.9340 H   0  0  0  0  0  0  0  0  0  0  0  0
    3.4860    0.1060    0.5650 H   0  0  0  0  0  0  0  0  0  0  0  0
    2.8920    0.6830   -1.0000 H   0  0  0  0  0  0  0  0  0  0  0  0
    1.4210   -1.2470   -1.2680 H   0  0  0  0  0  0  0  0  0  0  0  0
    2.0360   -1.9890    0.2560 H   0  0  0  0  0  0  0  0  0  0  0  0
    3.8210   -1.2910   -2.0960 H   0  0  0  0  0  0  0  0  0  0  0  0
    4.3420   -1.9890   -0.5570 H   0  0  0  0  0  0  0  0  0  0  0  0
    4.1490   -3.6940   -2.2260 H   0  0  0  0  0  0  0  0  0  0  0  0
    2.4680   -3.3030   -2.6140 H   0  0  0  0  0  0  0  0  0  0  0  0
    2.2830   -5.0380   -1.0760 H   0  0  0  0  0  0  0  0  0  0  0  0
    3.7080   -4.6270   -0.3210 H   0  0  0  0  0  0  0  0  0  0  0  0
   -4.7870   -2.0350    0.6360 N   0  0  0  0  0  0  0  0  0  0  0  0
   -4.3000   -0.9290   -0.1660 C   0  0  0  0  0  0  0  0  0  0  0  0
   -4.9280    0.1270   -0.0110 O   0  0  0  0  0  0  0  0  0  0  0  0
   -3.1660   -1.2190   -1.0210 C   0  0  0  0  0  0  0  0  0  0  0  0
   -2.5720   -0.1550   -1.8410 C   0  0  0  0  0  0  0  0  0  0  0  0
   -2.0110    1.0460   -1.1380 C   0  0  2  0  0  0  0  0  0  0  0  0
   -0.9940    0.7240   -0.1950 N   0  0  0  0  0  0  0  0  0  0  0  0
   -3.0090    2.0400   -0.7010 C   0  0  0  0  0  0  0  0  0  0  0  0
   -3.0570    2.5340    0.4480 O   0  0  0  0  0  0  0  0  0  0  0  0
   -3.9660    2.4730   -1.6050 O   0  0  0  0  0  0  0  0  0  0  0  0
   -4.2020   -2.3630    1.4240 H   0  0  0  0  0  0  0  0  0  0  0  0
   -5.6900   -2.5090    0.4570 H   0  0  0  0  0  0  0  0  0  0  0  0
   -2.3610   -1.8140   -0.4800 H   0  0  0  0  0  0  0  0  0  0  0  0
   -3.5370   -2.0050   -1.7620 H   0  0  0  0  0  0  0  0  0  0  0  0
   -3.3400    0.2210   -2.5710 H   0  0  0  0  0  0  0  0  0  0  0  0
   -1.8030   -0.6350   -2.5070 H   0  0  0  0  0  0  0  0  0  0  0  0
   -1.4640    1.5990   -1.9920 H   0  0  0  0  0  0  0  0  0  0  0  0
   -1.3120    0.2070    0.6760 H   0  0  0  0  0  0  0  0  0  0  0  0
  2  9  1  0  0  0  0
  2  1  1  0  0  0  0
  3 10  1  1  0  0  0
  3  2  1  0  0  0  0
  4  3  1  0  0  0  0
  4 12  1  0  0  0  0
  5  6  2  0  0  0  0
  5  3  1  0  0  0  0
  7  1  1  0  0  0  0
  8  2  1  0  0  0  0
 11  4  1  0  0  0  0
 13  5  1  0  0  0  0
 14 23  1  1  0  0  0
 14 13  1  0  0  0  0
 15 14  1  0  0  0  0
 15 24  1  0  0  0  0
 16 15  1  0  0  0  0
 16 27  1  0  0  0  0
 17 16  1  0  0  0  0
 17 29  1  0  0  0  0
 18 17  1  0  0  0  0
 18 19  1  0  0  0  0
 19 33  1  0  0  0  0
 20 40  1  0  0  0  0
 20 14  1  0  0  0  0
 21 20  2  0  0  0  0
 22 13  1  0  0  0  0
 25 15  1  0  0  0  0
 26 16  1  0  0  0  0
 28 17  1  0  0  0  0
 30 18  1  0  0  0  0
 31 18  1  0  0  0  0
 32 19  1  0  0  0  0
 34 44  1  0  0  0  0
 35 36  2  0  0  0  0
 35 34  1  0  0  0  0
 37 46  1  0  0  0  0
 37 35  1  0  0  0  0
 38 39  1  0  0  0  0
 38 37  1  0  0  0  0
 39 50  1  6  0  0  0
 39 41  1  0  0  0  0
 39 40  1  0  0  0  0
 40 51  1  0  0  0  0
 41 42  1  0  0  0  0
 43 41  2  0  0  0  0
 45 34  1  0  0  0  0
 47 37  1  0  0  0  0
 48 38  1  0  0  0  0
 49 38  1  0  0  0  0
M  END
$$$$
