SKR.pdb
 OpenBabel07022419093D

 57 56  0  0  1  0  0  0  0  0999 V2000
    2.5180   -3.6350    3.4850 O   0  0  0  0  0  0  0  0  0  0  0  0
    1.9130   -3.2650    4.6820 C   0  0  0  0  0  0  0  0  0  0  0  0
    0.4280   -3.2670    4.6420 C   0  0  2  0  0  0  0  0  0  0  0  0
   -0.1870   -4.5390    4.3450 N   0  0  0  0  0  0  0  0  0  0  0  0
   -0.1740   -2.1550    3.8690 C   0  0  0  0  0  0  0  0  0  0  0  0
   -1.4320   -2.2060    3.6260 O   0  0  0  0  0  0  0  0  0  0  0  0
    3.4220   -3.2140    3.4700 H   0  0  0  0  0  0  0  0  0  0  0  0
    2.3500   -3.8960    5.4870 H   0  0  0  0  0  0  0  0  0  0  0  0
    2.2290   -2.2200    4.9830 H   0  0  0  0  0  0  0  0  0  0  0  0
    0.0890   -3.0580    5.7180 H   0  0  0  0  0  0  0  0  0  0  0  0
    0.1940   -5.2410    4.9960 H   0  0  0  0  0  0  0  0  0  0  0  0
   -1.2180   -4.5180    4.4940 H   0  0  0  0  0  0  0  0  0  0  0  0
    0.5140   -1.0470    3.3740 N   0  0  0  0  0  0  0  0  0  0  0  0
   -0.3030    0.0210    2.6020 C   0  0  1  0  0  0  0  0  0  0  0  0
    0.4330    1.2430    2.7580 C   0  0  0  0  0  0  0  0  0  0  0  0
    0.2090    2.6040    2.3300 C   0  0  0  0  0  0  0  0  0  0  0  0
    0.0470    3.0760    0.9590 C   0  0  0  0  0  0  0  0  0  0  0  0
   -1.1520    2.7570    0.1600 C   0  0  0  0  0  0  0  0  0  0  0  0
   -0.9470    3.3680   -1.1770 N   0  0  0  0  0  0  0  0  0  0  0  0
   -0.4420   -0.6010    1.2550 C   0  0  0  0  0  0  0  0  0  0  0  0
   -1.5560   -0.5730    0.7080 O   0  0  0  0  0  0  0  0  0  0  0  0
    1.5080   -0.9040    3.4830 H   0  0  0  0  0  0  0  0  0  0  0  0
   -1.2620   -0.0350    3.0740 H   0  0  0  0  0  0  0  0  0  0  0  0
    1.5840    1.0220    2.5550 H   0  0  0  0  0  0  0  0  0  0  0  0
    0.5760    1.3420    3.9340 H   0  0  0  0  0  0  0  0  0  0  0  0
   -0.6010    3.0890    2.9950 H   0  0  0  0  0  0  0  0  0  0  0  0
    1.1290    3.2000    2.7870 H   0  0  0  0  0  0  0  0  0  0  0  0
    0.1340    4.2190    0.9660 H   0  0  0  0  0  0  0  0  0  0  0  0
    0.9490    2.8050    0.3150 H   0  0  0  0  0  0  0  0  0  0  0  0
   -1.4650    1.7640   -0.0100 H   0  0  0  0  0  0  0  0  0  0  0  0
   -2.0770    3.2870    0.6050 H   0  0  0  0  0  0  0  0  0  0  0  0
    0.0960    3.4200   -1.3120 H   0  0  0  0  0  0  0  0  0  0  0  0
   -1.2740    2.6720   -1.8950 H   0  0  0  0  0  0  0  0  0  0  0  0
   -2.7150    0.8750   -3.9040 N   0  0  0  0  0  0  0  0  0  0  0  0
   -2.2510   -0.4320   -4.2120 C   0  0  0  0  0  0  0  0  0  0  0  0
   -2.0600   -0.7550   -5.4590 N   0  0  0  0  0  0  0  0  0  0  0  0
   -1.9920   -1.4000   -3.2160 N   0  0  0  0  0  0  0  0  0  0  0  0
   -0.8760   -2.3150   -3.3300 C   0  0  0  0  0  0  0  0  0  0  0  0
    0.4520   -1.6080   -3.1940 C   0  0  0  0  0  0  0  0  0  0  0  0
    0.6170   -0.8790   -1.8830 C   0  0  0  0  0  0  0  0  0  0  0  0
    0.4770   -1.8470   -0.7490 C   0  0  2  0  0  0  0  0  0  0  0  0
    0.6060   -1.2190    0.5520 N   0  0  0  0  0  0  0  0  0  0  0  0
    1.3130   -3.0300   -0.7980 C   0  0  0  0  0  0  0  0  0  0  0  0
    1.4740   -3.8410   -1.7390 O   0  0  0  0  0  0  0  0  0  0  0  0
    2.0740   -3.3430    0.3770 O   0  0  0  0  0  0  0  0  0  0  0  0
   -3.3020    1.1140   -3.0700 H   0  0  0  0  0  0  0  0  0  0  0  0
   -2.4570    1.6620   -4.5450 H   0  0  0  0  0  0  0  0  0  0  0  0
   -2.2530   -0.0340   -6.2170 H   0  0  0  0  0  0  0  0  0  0  0  0
   -2.6500   -1.4130   -2.3910 H   0  0  0  0  0  0  0  0  0  0  0  0
   -0.8760   -2.8540   -4.3030 H   0  0  0  0  0  0  0  0  0  0  0  0
   -0.9620   -3.0880   -2.5550 H   0  0  0  0  0  0  0  0  0  0  0  0
    1.2580   -2.3260   -3.4220 H   0  0  0  0  0  0  0  0  0  0  0  0
    0.4960   -0.8840   -4.0690 H   0  0  0  0  0  0  0  0  0  0  0  0
    1.5970   -0.3650   -1.9320 H   0  0  0  0  0  0  0  0  0  0  0  0
   -0.2220   -0.1540   -1.7930 H   0  0  0  0  0  0  0  0  0  0  0  0
   -0.6210   -2.1620   -0.7940 H   0  0  0  0  0  0  0  0  0  0  0  0
    1.5610   -1.2360    0.9710 H   0  0  0  0  0  0  0  0  0  0  0  0
  1  2  1  0  0  0  0
  2  9  1  0  0  0  0
  2  8  1  0  0  0  0
  3  2  1  0  0  0  0
  3 10  1  1  0  0  0
  4 12  1  0  0  0  0
  4  3  1  0  0  0  0
  4 11  1  0  0  0  0
  5  3  1  0  0  0  0
  6  5  2  0  0  0  0
  7  1  1  0  0  0  0
 13 22  1  0  0  0  0
 13  5  1  0  0  0  0
 14 15  1  0  0  0  0
 14 23  1  1  0  0  0
 14 13  1  0  0  0  0
 15 25  1  0  0  0  0
 16 15  1  0  0  0  0
 16 27  1  0  0  0  0
 16 26  1  0  0  0  0
 17 28  1  0  0  0  0
 17 16  1  0  0  0  0
 18 31  1  0  0  0  0
 18 17  1  0  0  0  0
 19 18  1  0  0  0  0
 20 14  1  0  0  0  0
 21 20  2  0  0  0  0
 24 15  1  0  0  0  0
 29 17  1  0  0  0  0
 30 18  1  0  0  0  0
 32 19  1  0  0  0  0
 33 19  1  0  0  0  0
 34 46  1  0  0  0  0
 35 34  1  0  0  0  0
 35 37  1  0  0  0  0
 36 35  2  0  0  0  0
 37 49  1  0  0  0  0
 38 37  1  0  0  0  0
 38 39  1  0  0  0  0
 38 51  1  0  0  0  0
 39 40  1  0  0  0  0
 40 55  1  0  0  0  0
 40 41  1  0  0  0  0
 41 56  1  6  0  0  0
 41 42  1  0  0  0  0
 42 57  1  0  0  0  0
 42 20  1  0  0  0  0
 43 41  1  0  0  0  0
 43 45  1  0  0  0  0
 44 43  2  0  0  0  0
 47 34  1  0  0  0  0
 48 36  1  0  0  0  0
 50 38  1  0  0  0  0
 52 39  1  0  0  0  0
 53 39  1  0  0  0  0
 54 40  1  0  0  0  0
M  END
$$$$
