SKV.pdb
 OpenBabel07022419093D

 50 49  0  0  1  0  0  0  0  0999 V2000
    1.4030   -3.3730   -0.5800 O   0  0  0  0  0  0  0  0  0  0  0  0
    2.0110   -2.1910   -1.0560 C   0  0  0  0  0  0  0  0  0  0  0  0
    2.9440   -1.6260    0.0210 C   0  0  2  0  0  0  0  0  0  0  0  0
    3.9750   -2.5540    0.3660 N   0  0  0  0  0  0  0  0  0  0  0  0
    2.0720   -1.2910    1.1830 C   0  0  0  0  0  0  0  0  0  0  0  0
    2.2210   -1.7710    2.3350 O   0  0  0  0  0  0  0  0  0  0  0  0
    1.3170   -3.2710    0.4030 H   0  0  0  0  0  0  0  0  0  0  0  0
    1.1860   -1.4870   -1.2630 H   0  0  0  0  0  0  0  0  0  0  0  0
    2.5500   -2.3670   -2.0080 H   0  0  0  0  0  0  0  0  0  0  0  0
    3.3990   -0.7150   -0.4250 H   0  0  0  0  0  0  0  0  0  0  0  0
    4.9340   -2.2080    0.0910 H   0  0  0  0  0  0  0  0  0  0  0  0
    4.0170   -2.6720    1.4030 H   0  0  0  0  0  0  0  0  0  0  0  0
    0.9730   -0.3600    1.0240 N   0  0  0  0  0  0  0  0  0  0  0  0
    0.1190   -0.0180    2.1170 C   0  0  1  0  0  0  0  0  0  0  0  0
   -0.1870    1.4330    2.2070 C   0  0  0  0  0  0  0  0  0  0  0  0
    0.9530    2.3700    2.3940 C   0  0  0  0  0  0  0  0  0  0  0  0
    1.9790    2.4170    1.3200 C   0  0  0  0  0  0  0  0  0  0  0  0
    3.0130    3.4600    1.7480 C   0  0  0  0  0  0  0  0  0  0  0  0
    2.3710    4.7480    1.9020 N   0  0  0  0  0  0  0  0  0  0  0  0
   -1.2320   -0.7000    1.9530 C   0  0  0  0  0  0  0  0  0  0  0  0
   -2.1440   -0.5520    2.7850 O   0  0  0  0  0  0  0  0  0  0  0  0
    0.8450    0.0380    0.0700 H   0  0  0  0  0  0  0  0  0  0  0  0
    0.5170   -0.3700    3.0970 H   0  0  0  0  0  0  0  0  0  0  0  0
   -0.9100    1.5560    3.0760 H   0  0  0  0  0  0  0  0  0  0  0  0
   -0.7790    1.7550    1.2910 H   0  0  0  0  0  0  0  0  0  0  0  0
    1.4230    2.2450    3.4190 H   0  0  0  0  0  0  0  0  0  0  0  0
    0.5280    3.4230    2.4610 H   0  0  0  0  0  0  0  0  0  0  0  0
    1.5720    2.8040    0.3470 H   0  0  0  0  0  0  0  0  0  0  0  0
    2.4730    1.4660    1.0680 H   0  0  0  0  0  0  0  0  0  0  0  0
    3.4720    3.1970    2.7190 H   0  0  0  0  0  0  0  0  0  0  0  0
    3.8070    3.5750    0.9810 H   0  0  0  0  0  0  0  0  0  0  0  0
    2.1740    5.1380    0.9600 H   0  0  0  0  0  0  0  0  0  0  0  0
    3.0420    5.3810    2.4120 H   0  0  0  0  0  0  0  0  0  0  0  0
   -4.7330   -2.6930   -0.6940 C   0  0  0  0  0  0  0  0  0  0  0  0
   -3.4360   -1.9080   -0.6600 C   0  0  0  0  0  0  0  0  0  0  0  0
   -2.6400   -2.3200   -1.8650 C   0  0  0  0  0  0  0  0  0  0  0  0
   -2.7650   -2.2060    0.6350 C   0  0  2  0  0  0  0  0  0  0  0  0
   -1.5110   -1.5390    0.8410 N   0  0  0  0  0  0  0  0  0  0  0  0
   -2.5200   -3.6720    0.6930 C   0  0  0  0  0  0  0  0  0  0  0  0
   -3.4090   -4.5490    0.5560 O   0  0  0  0  0  0  0  0  0  0  0  0
   -1.2280   -4.1760    0.9140 O   0  0  0  0  0  0  0  0  0  0  0  0
   -5.1000   -2.9620    0.3170 H   0  0  0  0  0  0  0  0  0  0  0  0
   -5.5180   -2.1210   -1.2560 H   0  0  0  0  0  0  0  0  0  0  0  0
   -4.5870   -3.6540   -1.2430 H   0  0  0  0  0  0  0  0  0  0  0  0
   -3.7210   -0.8470   -0.7920 H   0  0  0  0  0  0  0  0  0  0  0  0
   -3.1550   -1.8800   -2.7610 H   0  0  0  0  0  0  0  0  0  0  0  0
   -1.6120   -1.9170   -1.8800 H   0  0  0  0  0  0  0  0  0  0  0  0
   -2.6220   -3.4030   -2.0310 H   0  0  0  0  0  0  0  0  0  0  0  0
   -3.4840   -1.9800    1.4530 H   0  0  0  0  0  0  0  0  0  0  0  0
   -0.7570   -1.6760    0.1320 H   0  0  0  0  0  0  0  0  0  0  0  0
  1  7  1  0  0  0  0
  2  1  1  0  0  0  0
  2  3  1  0  0  0  0
  3 10  1  6  0  0  0
  3  4  1  0  0  0  0
  3  5  1  0  0  0  0
  4 12  1  0  0  0  0
  5  6  2  0  0  0  0
  8  2  1  0  0  0  0
  9  2  1  0  0  0  0
 11  4  1  0  0  0  0
 13  5  1  0  0  0  0
 13 14  1  0  0  0  0
 14 15  1  0  0  0  0
 14 23  1  1  0  0  0
 15 16  1  0  0  0  0
 15 24  1  0  0  0  0
 16 27  1  0  0  0  0
 16 26  1  0  0  0  0
 17 18  1  0  0  0  0
 17 16  1  0  0  0  0
 18 19  1  0  0  0  0
 18 30  1  0  0  0  0
 19 33  1  0  0  0  0
 20 14  1  0  0  0  0
 20 21  2  0  0  0  0
 22 13  1  0  0  0  0
 25 15  1  0  0  0  0
 28 17  1  0  0  0  0
 29 17  1  0  0  0  0
 31 18  1  0  0  0  0
 32 19  1  0  0  0  0
 34 35  1  0  0  0  0
 34 42  1  0  0  0  0
 35 37  1  0  0  0  0
 36 35  1  0  0  0  0
 37 39  1  0  0  0  0
 37 38  1  0  0  0  0
 37 49  1  1  0  0  0
 38 20  1  0  0  0  0
 39 41  1  0  0  0  0
 40 39  2  0  0  0  0
 43 34  1  0  0  0  0
 44 34  1  0  0  0  0
 45 35  1  0  0  0  0
 46 36  1  0  0  0  0
 47 36  1  0  0  0  0
 48 36  1  0  0  0  0
 50 38  1  0  0  0  0
M  END
$$$$
