SKY.pdb
 OpenBabel07022419093D

 55 55  0  0  1  0  0  0  0  0999 V2000
    1.8430   -3.7610    1.7230 O   0  0  0  0  0  0  0  0  0  0  0  0
    1.7590   -4.1480    3.0390 C   0  0  0  0  0  0  0  0  0  0  0  0
    2.3070   -3.1220    4.0130 C   0  0  2  0  0  0  0  0  0  0  0  0
    2.1460   -3.6780    5.3410 N   0  0  0  0  0  0  0  0  0  0  0  0
    1.6170   -1.8070    3.8850 C   0  0  0  0  0  0  0  0  0  0  0  0
    1.0070   -1.3860    4.9070 O   0  0  0  0  0  0  0  0  0  0  0  0
    2.7470   -3.8630    1.3650 H   0  0  0  0  0  0  0  0  0  0  0  0
    0.7330   -4.4370    3.3450 H   0  0  0  0  0  0  0  0  0  0  0  0
    2.3840   -5.0560    3.1620 H   0  0  0  0  0  0  0  0  0  0  0  0
    3.4060   -3.0350    3.8310 H   0  0  0  0  0  0  0  0  0  0  0  0
    2.1310   -4.7090    5.3550 H   0  0  0  0  0  0  0  0  0  0  0  0
    1.3650   -3.2310    5.8590 H   0  0  0  0  0  0  0  0  0  0  0  0
    1.6410   -1.0640    2.6810 N   0  0  0  0  0  0  0  0  0  0  0  0
    0.9420    0.2120    2.6380 C   0  0  1  0  0  0  0  0  0  0  0  0
    1.8810    1.3460    2.4410 C   0  0  0  0  0  0  0  0  0  0  0  0
    2.7290    1.3590    1.2480 C   0  0  0  0  0  0  0  0  0  0  0  0
    2.1850    1.5040   -0.1020 C   0  0  0  0  0  0  0  0  0  0  0  0
    1.5610    2.8040   -0.4710 C   0  0  0  0  0  0  0  0  0  0  0  0
    0.4740    3.2800    0.2800 N   0  0  0  0  0  0  0  0  0  0  0  0
   -0.1950    0.1930    1.7170 C   0  0  0  0  0  0  0  0  0  0  0  0
   -1.0130    1.1290    1.6540 O   0  0  0  0  0  0  0  0  0  0  0  0
    2.1550   -1.4530    1.8770 H   0  0  0  0  0  0  0  0  0  0  0  0
    0.4820    0.3580    3.6690 H   0  0  0  0  0  0  0  0  0  0  0  0
    1.2830    2.2840    2.5970 H   0  0  0  0  0  0  0  0  0  0  0  0
    2.5820    1.3610    3.3320 H   0  0  0  0  0  0  0  0  0  0  0  0
    3.3460    0.4190    1.2680 H   0  0  0  0  0  0  0  0  0  0  0  0
    3.4910    2.1830    1.3930 H   0  0  0  0  0  0  0  0  0  0  0  0
    1.5150    0.6590   -0.4170 H   0  0  0  0  0  0  0  0  0  0  0  0
    3.0600    1.3820   -0.8180 H   0  0  0  0  0  0  0  0  0  0  0  0
    1.2190    2.6910   -1.5520 H   0  0  0  0  0  0  0  0  0  0  0  0
    2.3290    3.6290   -0.5630 H   0  0  0  0  0  0  0  0  0  0  0  0
   -0.3430    3.6370   -0.2420 H   0  0  0  0  0  0  0  0  0  0  0  0
    0.8150    3.9910    0.9750 H   0  0  0  0  0  0  0  0  0  0  0  0
   -5.1460   -0.9010   -5.3920 O   0  0  0  0  0  0  0  0  0  0  0  0
   -4.1360   -0.9610   -4.4330 C   0  0  0  0  0  0  0  0  0  0  0  0
   -3.6350   -2.1510   -3.9480 C   0  0  0  0  0  0  0  0  0  0  0  0
   -2.6260   -2.1970   -2.9910 C   0  0  0  0  0  0  0  0  0  0  0  0
   -2.1140   -1.0120   -2.5140 C   0  0  0  0  0  0  0  0  0  0  0  0
   -1.0480   -0.9830   -1.5000 C   0  0  0  0  0  0  0  0  0  0  0  0
   -1.5700   -0.9330   -0.0840 C   0  0  2  0  0  0  0  0  0  0  0  0
   -0.4430   -0.9130    0.8230 N   0  0  0  0  0  0  0  0  0  0  0  0
   -2.5100   -2.0320    0.2360 C   0  0  0  0  0  0  0  0  0  0  0  0
   -2.2730   -2.8370    1.2000 O   0  0  0  0  0  0  0  0  0  0  0  0
   -2.5950    0.2140   -2.9800 C   0  0  0  0  0  0  0  0  0  0  0  0
   -3.5920    0.2010   -3.9260 C   0  0  0  0  0  0  0  0  0  0  0  0
   -3.6810   -2.2690   -0.4550 O   0  0  0  0  0  0  0  0  0  0  0  0
   -6.0730   -1.2000   -5.0760 H   0  0  0  0  0  0  0  0  0  0  0  0
   -4.0290   -3.0930   -4.3140 H   0  0  0  0  0  0  0  0  0  0  0  0
   -2.2390   -3.1380   -2.6180 H   0  0  0  0  0  0  0  0  0  0  0  0
   -0.3910   -1.8960   -1.5940 H   0  0  0  0  0  0  0  0  0  0  0  0
   -0.3600   -0.1270   -1.6590 H   0  0  0  0  0  0  0  0  0  0  0  0
   -2.1770    0.0060   -0.0020 H   0  0  0  0  0  0  0  0  0  0  0  0
    0.2410   -1.6950    0.8720 H   0  0  0  0  0  0  0  0  0  0  0  0
   -2.1710    1.1350   -2.5860 H   0  0  0  0  0  0  0  0  0  0  0  0
   -3.9650    1.1400   -4.2880 H   0  0  0  0  0  0  0  0  0  0  0  0
  1  2  1  0  0  0  0
  2  9  1  0  0  0  0
  2  8  1  0  0  0  0
  2  3  1  0  0  0  0
  3 10  1  6  0  0  0
  3  4  1  0  0  0  0
  4 11  1  0  0  0  0
  4 12  1  0  0  0  0
  5  3  1  0  0  0  0
  5  6  2  0  0  0  0
  7  1  1  0  0  0  0
 13  5  1  0  0  0  0
 14 13  1  0  0  0  0
 14 23  1  1  0  0  0
 15 24  1  0  0  0  0
 15 14  1  0  0  0  0
 15 25  1  0  0  0  0
 16 26  1  0  0  0  0
 16 27  1  0  0  0  0
 16 15  1  0  0  0  0
 17 16  1  0  0  0  0
 18 17  1  0  0  0  0
 18 19  1  0  0  0  0
 19 33  1  0  0  0  0
 20 14  1  0  0  0  0
 21 20  2  0  0  0  0
 22 13  1  0  0  0  0
 28 17  1  0  0  0  0
 29 17  1  0  0  0  0
 30 18  1  0  0  0  0
 31 18  1  0  0  0  0
 32 19  1  0  0  0  0
 34 47  1  0  0  0  0
 34 35  1  0  0  0  0
 35 36  2  0  0  0  0
 35 45  1  0  0  0  0
 36 37  1  0  0  0  0
 37 49  1  0  0  0  0
 37 38  2  0  0  0  0
 38 39  1  0  0  0  0
 39 40  1  0  0  0  0
 40 52  1  1  0  0  0
 40 42  1  0  0  0  0
 40 41  1  0  0  0  0
 41 53  1  0  0  0  0
 41 20  1  0  0  0  0
 42 43  1  0  0  0  0
 44 54  1  0  0  0  0
 44 38  1  0  0  0  0
 45 44  2  0  0  0  0
 46 42  2  0  0  0  0
 48 36  1  0  0  0  0
 50 39  1  0  0  0  0
 51 39  1  0  0  0  0
 55 45  1  0  0  0  0
M  END
$$$$
