SLG.pdb
 OpenBabel07022419083D

 39 38  0  0  1  0  0  0  0  0999 V2000
   -1.4340   -3.8210    3.3090 O   0  0  0  0  0  0  0  0  0  0  0  0
   -0.7910   -2.6250    3.0010 C   0  0  0  0  0  0  0  0  0  0  0  0
    0.7000   -2.8520    2.8550 C   0  0  2  0  0  0  0  0  0  0  0  0
    1.2780   -3.3690    4.0770 N   0  0  0  0  0  0  0  0  0  0  0  0
    1.4010   -1.6300    2.4020 C   0  0  0  0  0  0  0  0  0  0  0  0
    2.3750   -1.1270    3.0220 O   0  0  0  0  0  0  0  0  0  0  0  0
   -1.2610   -4.4570    2.5800 H   0  0  0  0  0  0  0  0  0  0  0  0
   -1.2350   -2.2010    2.1000 H   0  0  0  0  0  0  0  0  0  0  0  0
   -0.9490   -1.9520    3.8920 H   0  0  0  0  0  0  0  0  0  0  0  0
    0.8220   -3.6490    2.0830 H   0  0  0  0  0  0  0  0  0  0  0  0
    0.7880   -3.0520    4.9340 H   0  0  0  0  0  0  0  0  0  0  0  0
    1.2620   -4.4140    4.0740 H   0  0  0  0  0  0  0  0  0  0  0  0
    2.2100   -0.9610   -2.9320 C   0  0  0  0  0  0  0  0  0  0  0  0
    1.4210   -0.6500   -1.6570 C   0  0  0  0  0  0  0  0  0  0  0  0
    0.2650    0.2180   -2.0530 C   0  0  0  0  0  0  0  0  0  0  0  0
    2.2970   -0.1030   -0.5890 C   0  0  0  0  0  0  0  0  0  0  0  0
    1.5950    0.2180    0.6980 C   0  0  2  0  0  0  0  0  0  0  0  0
    0.9690   -0.9800    1.2130 N   0  0  0  0  0  0  0  0  0  0  0  0
    0.7460    1.3930    0.6190 C   0  0  0  0  0  0  0  0  0  0  0  0
    1.2300    2.4650    0.1760 O   0  0  0  0  0  0  0  0  0  0  0  0
    1.4530   -1.2970   -3.6710 H   0  0  0  0  0  0  0  0  0  0  0  0
    2.7450   -0.0850   -3.3100 H   0  0  0  0  0  0  0  0  0  0  0  0
    2.8660   -1.8370   -2.7480 H   0  0  0  0  0  0  0  0  0  0  0  0
    1.0140   -1.6540   -1.3380 H   0  0  0  0  0  0  0  0  0  0  0  0
   -0.5960    0.0270   -1.3610 H   0  0  0  0  0  0  0  0  0  0  0  0
   -0.0230   -0.1150   -3.0980 H   0  0  0  0  0  0  0  0  0  0  0  0
    0.5080    1.2900   -2.1500 H   0  0  0  0  0  0  0  0  0  0  0  0
    3.1630   -0.7960   -0.3590 H   0  0  0  0  0  0  0  0  0  0  0  0
    2.8360    0.8200   -0.9690 H   0  0  0  0  0  0  0  0  0  0  0  0
    2.4560    0.5060    1.4110 H   0  0  0  0  0  0  0  0  0  0  0  0
    0.1660   -1.3590    0.6650 H   0  0  0  0  0  0  0  0  0  0  0  0
   -0.6160    1.4030    1.0210 N   0  0  0  0  0  0  0  0  0  0  0  0
   -1.4480    2.5830    0.9380 C   0  0  0  0  0  0  0  0  0  0  0  0
   -2.7990    2.2290    1.4380 C   0  0  0  0  0  0  0  0  0  0  0  0
   -3.0530    1.0740    1.8370 O   0  0  0  0  0  0  0  0  0  0  0  0
   -3.8230    3.1850    1.4750 O   0  0  0  0  0  0  0  0  0  0  0  0
   -0.9840    0.4940    1.3850 H   0  0  0  0  0  0  0  0  0  0  0  0
   -1.5210    2.9480   -0.1110 H   0  0  0  0  0  0  0  0  0  0  0  0
   -1.0540    3.4130    1.5880 H   0  0  0  0  0  0  0  0  0  0  0  0
  2  1  1  0  0  0  0
  2  9  1  0  0  0  0
  3 10  1  6  0  0  0
  3  2  1  0  0  0  0
  3  4  1  0  0  0  0
  4 11  1  0  0  0  0
  5  3  1  0  0  0  0
  5  6  2  0  0  0  0
  7  1  1  0  0  0  0
  8  2  1  0  0  0  0
 12  4  1  0  0  0  0
 13 23  1  0  0  0  0
 13 14  1  0  0  0  0
 14 24  1  0  0  0  0
 14 16  1  0  0  0  0
 15 14  1  0  0  0  0
 15 25  1  0  0  0  0
 16 28  1  0  0  0  0
 16 17  1  0  0  0  0
 17 18  1  0  0  0  0
 17 30  1  1  0  0  0
 18  5  1  0  0  0  0
 19 17  1  0  0  0  0
 19 32  1  0  0  0  0
 20 19  2  0  0  0  0
 21 13  1  0  0  0  0
 22 13  1  0  0  0  0
 26 15  1  0  0  0  0
 27 15  1  0  0  0  0
 29 16  1  0  0  0  0
 31 18  1  0  0  0  0
 32 37  1  0  0  0  0
 33 32  1  0  0  0  0
 33 34  1  0  0  0  0
 33 39  1  0  0  0  0
 34 36  2  0  0  0  0
 34 35  1  0  0  0  0
 38 33  1  0  0  0  0
M  END
$$$$
