SLI.pdb
 OpenBabel07022419083D

 51 50  0  0  1  0  0  0  0  0999 V2000
    0.4700   -1.1380    4.2410 O   0  0  0  0  0  0  0  0  0  0  0  0
    0.9310   -2.1930    3.4560 C   0  0  0  0  0  0  0  0  0  0  0  0
    2.3340   -1.8480    3.0090 C   0  0  2  0  0  0  0  0  0  0  0  0
    3.1620   -1.6780    4.1700 N   0  0  0  0  0  0  0  0  0  0  0  0
    2.3930   -0.6520    2.1680 C   0  0  0  0  0  0  0  0  0  0  0  0
    3.0790    0.3790    2.4340 O   0  0  0  0  0  0  0  0  0  0  0  0
    0.5410   -1.3720    5.1930 H   0  0  0  0  0  0  0  0  0  0  0  0
    0.2640   -2.4460    2.6250 H   0  0  0  0  0  0  0  0  0  0  0  0
    1.0170   -3.1110    4.0900 H   0  0  0  0  0  0  0  0  0  0  0  0
    2.7150   -2.7550    2.4590 H   0  0  0  0  0  0  0  0  0  0  0  0
    4.1390   -1.4670    3.8920 H   0  0  0  0  0  0  0  0  0  0  0  0
    3.1140   -2.5720    4.7180 H   0  0  0  0  0  0  0  0  0  0  0  0
    1.8560   -2.1190   -1.6330 C   0  0  0  0  0  0  0  0  0  0  0  0
    1.7620   -0.7270   -2.1600 C   0  0  0  0  0  0  0  0  0  0  0  0
    2.6570   -0.6820   -3.4120 C   0  0  0  0  0  0  0  0  0  0  0  0
    2.2790    0.3420   -1.2490 C   0  0  0  0  0  0  0  0  0  0  0  0
    1.6230    0.4970    0.0680 C   0  0  2  0  0  0  0  0  0  0  0  0
    1.6390   -0.6110    0.9590 N   0  0  0  0  0  0  0  0  0  0  0  0
    0.2200    0.9830   -0.0350 C   0  0  0  0  0  0  0  0  0  0  0  0
   -0.0080    1.9620   -0.7770 O   0  0  0  0  0  0  0  0  0  0  0  0
    2.2140   -2.8430   -2.4390 H   0  0  0  0  0  0  0  0  0  0  0  0
    0.8700   -2.5120   -1.3330 H   0  0  0  0  0  0  0  0  0  0  0  0
    2.6050   -2.2180   -0.8470 H   0  0  0  0  0  0  0  0  0  0  0  0
    0.7460   -0.4860   -2.5520 H   0  0  0  0  0  0  0  0  0  0  0  0
    3.5850   -1.2300   -3.1250 H   0  0  0  0  0  0  0  0  0  0  0  0
    2.9430    0.3400   -3.6710 H   0  0  0  0  0  0  0  0  0  0  0  0
    2.2030   -1.2570   -4.2380 H   0  0  0  0  0  0  0  0  0  0  0  0
    3.3780    0.1890   -1.1920 H   0  0  0  0  0  0  0  0  0  0  0  0
    2.1820    1.3060   -1.8380 H   0  0  0  0  0  0  0  0  0  0  0  0
    2.1850    1.3330    0.6090 H   0  0  0  0  0  0  0  0  0  0  0  0
    1.0660   -1.4590    0.7570 H   0  0  0  0  0  0  0  0  0  0  0  0
   -3.5050   -1.4520    2.1190 C   0  0  0  0  0  0  0  0  0  0  0  0
   -3.1600   -1.5070    0.6640 C   0  0  0  0  0  0  0  0  0  0  0  0
   -3.1130   -0.1980   -0.0330 C   0  0  2  0  0  0  0  0  0  0  0  0
   -2.7540   -0.4170   -1.4870 C   0  0  0  0  0  0  0  0  0  0  0  0
   -2.2370    0.8350    0.5910 C   0  0  2  0  0  0  0  0  0  0  0  0
   -0.8680    0.3990    0.6600 N   0  0  0  0  0  0  0  0  0  0  0  0
   -2.7430    1.3790    1.8610 C   0  0  0  0  0  0  0  0  0  0  0  0
   -2.0620    1.4640    2.9220 O   0  0  0  0  0  0  0  0  0  0  0  0
   -4.0510    1.8400    1.9370 O   0  0  0  0  0  0  0  0  0  0  0  0
   -3.7820   -2.5080    2.4140 H   0  0  0  0  0  0  0  0  0  0  0  0
   -2.6260   -1.2190    2.7650 H   0  0  0  0  0  0  0  0  0  0  0  0
   -4.3960   -0.8520    2.3560 H   0  0  0  0  0  0  0  0  0  0  0  0
   -2.2400   -2.1140    0.5610 H   0  0  0  0  0  0  0  0  0  0  0  0
   -3.9670   -2.1220    0.1690 H   0  0  0  0  0  0  0  0  0  0  0  0
   -4.1570    0.2170   -0.0390 H   0  0  0  0  0  0  0  0  0  0  0  0
   -2.2700   -1.4170   -1.6270 H   0  0  0  0  0  0  0  0  0  0  0  0
   -3.6420   -0.3870   -2.1500 H   0  0  0  0  0  0  0  0  0  0  0  0
   -1.9920    0.3380   -1.7710 H   0  0  0  0  0  0  0  0  0  0  0  0
   -2.2260    1.7130   -0.1250 H   0  0  0  0  0  0  0  0  0  0  0  0
   -0.6620   -0.4140    1.2730 H   0  0  0  0  0  0  0  0  0  0  0  0
  1  7  1  0  0  0  0
  2  9  1  0  0  0  0
  2  1  1  0  0  0  0
  3 10  1  6  0  0  0
  3  2  1  0  0  0  0
  3  4  1  0  0  0  0
  4 12  1  0  0  0  0
  5  6  2  0  0  0  0
  5  3  1  0  0  0  0
  8  2  1  0  0  0  0
 11  4  1  0  0  0  0
 13 22  1  0  0  0  0
 13 23  1  0  0  0  0
 14 13  1  0  0  0  0
 14 16  1  0  0  0  0
 15 25  1  0  0  0  0
 15 14  1  0  0  0  0
 16 28  1  0  0  0  0
 16 17  1  0  0  0  0
 17 30  1  1  0  0  0
 17 18  1  0  0  0  0
 18  5  1  0  0  0  0
 19 17  1  0  0  0  0
 19 37  1  0  0  0  0
 20 19  2  0  0  0  0
 21 13  1  0  0  0  0
 24 14  1  0  0  0  0
 26 15  1  0  0  0  0
 27 15  1  0  0  0  0
 29 16  1  0  0  0  0
 31 18  1  0  0  0  0
 32 43  1  0  0  0  0
 32 41  1  0  0  0  0
 32 42  1  0  0  0  0
 33 32  1  0  0  0  0
 34 46  1  1  0  0  0
 34 36  1  0  0  0  0
 34 33  1  0  0  0  0
 35 34  1  0  0  0  0
 36 50  1  6  0  0  0
 36 37  1  0  0  0  0
 36 38  1  0  0  0  0
 37 51  1  0  0  0  0
 38 40  2  0  0  0  0
 38 39  1  0  0  0  0
 44 33  1  0  0  0  0
 45 33  1  0  0  0  0
 47 35  1  0  0  0  0
 48 35  1  0  0  0  0
 49 35  1  0  0  0  0
M  END
$$$$
