SLK.pdb
 OpenBabel07022419083D

 53 52  0  0  1  0  0  0  0  0999 V2000
    2.1080   -0.3790    6.3530 O   0  0  0  0  0  0  0  0  0  0  0  0
    2.1910   -1.7260    6.1220 C   0  0  0  0  0  0  0  0  0  0  0  0
    2.4960   -2.0980    4.6740 C   0  0  2  0  0  0  0  0  0  0  0  0
    3.7780   -1.5210    4.3330 N   0  0  0  0  0  0  0  0  0  0  0  0
    1.4710   -1.4940    3.7980 C   0  0  0  0  0  0  0  0  0  0  0  0
    0.2870   -1.5210    4.2610 O   0  0  0  0  0  0  0  0  0  0  0  0
    1.5200   -0.2180    7.1340 H   0  0  0  0  0  0  0  0  0  0  0  0
    1.2190   -2.2000    6.4310 H   0  0  0  0  0  0  0  0  0  0  0  0
    2.9910   -2.1860    6.7660 H   0  0  0  0  0  0  0  0  0  0  0  0
    2.4760   -3.2070    4.5600 H   0  0  0  0  0  0  0  0  0  0  0  0
    4.0620   -1.6970    3.3600 H   0  0  0  0  0  0  0  0  0  0  0  0
    3.6700   -0.4820    4.5180 H   0  0  0  0  0  0  0  0  0  0  0  0
    1.6900    3.1200    0.5540 C   0  0  0  0  0  0  0  0  0  0  0  0
    1.8940    1.5970    0.7140 C   0  0  0  0  0  0  0  0  0  0  0  0
    3.1990    1.4790    1.4890 C   0  0  0  0  0  0  0  0  0  0  0  0
    0.7020    1.1130    1.4540 C   0  0  0  0  0  0  0  0  0  0  0  0
    0.5880   -0.3300    1.7450 C   0  0  2  0  0  0  0  0  0  0  0  0
    1.6400   -0.9100    2.5440 N   0  0  0  0  0  0  0  0  0  0  0  0
    0.2040   -1.1790    0.5830 C   0  0  0  0  0  0  0  0  0  0  0  0
    0.8310   -2.2850    0.4720 O   0  0  0  0  0  0  0  0  0  0  0  0
    2.1750    3.4610   -0.3880 H   0  0  0  0  0  0  0  0  0  0  0  0
    0.6030    3.3610    0.5450 H   0  0  0  0  0  0  0  0  0  0  0  0
    2.1150    3.6380    1.4330 H   0  0  0  0  0  0  0  0  0  0  0  0
    2.0680    1.1240   -0.2440 H   0  0  0  0  0  0  0  0  0  0  0  0
    3.0700    1.3340    2.5660 H   0  0  0  0  0  0  0  0  0  0  0  0
    3.7980    2.4230    1.3760 H   0  0  0  0  0  0  0  0  0  0  0  0
    3.8730    0.7000    1.0340 H   0  0  0  0  0  0  0  0  0  0  0  0
    0.7320    1.6390    2.4570 H   0  0  0  0  0  0  0  0  0  0  0  0
   -0.2550    1.4540    1.0110 H   0  0  0  0  0  0  0  0  0  0  0  0
   -0.3370   -0.4190    2.4250 H   0  0  0  0  0  0  0  0  0  0  0  0
    2.6270   -0.9260    2.1640 H   0  0  0  0  0  0  0  0  0  0  0  0
   -0.7890   -0.7600   -0.3170 N   0  0  0  0  0  0  0  0  0  0  0  0
   -1.1540   -1.6540   -1.4710 C   0  0  1  0  0  0  0  0  0  0  0  0
   -2.5870   -1.9980   -1.3010 C   0  0  0  0  0  0  0  0  0  0  0  0
   -3.2420   -2.9000   -2.2250 C   0  0  0  0  0  0  0  0  0  0  0  0
   -3.4040   -2.6450   -3.6610 C   0  0  0  0  0  0  0  0  0  0  0  0
   -4.1070   -1.3560   -4.0350 C   0  0  0  0  0  0  0  0  0  0  0  0
   -5.4490   -1.3410   -3.4790 N   0  0  0  0  0  0  0  0  0  0  0  0
   -0.7640   -0.9290   -2.6960 C   0  0  0  0  0  0  0  0  0  0  0  0
   -0.3670    0.3050   -2.5950 O   0  0  0  0  0  0  0  0  0  0  0  0
   -0.7540   -1.3920   -3.9860 O   0  0  0  0  0  0  0  0  0  0  0  0
   -1.2520    0.1450   -0.1860 H   0  0  0  0  0  0  0  0  0  0  0  0
   -0.5450   -2.5640   -1.3860 H   0  0  0  0  0  0  0  0  0  0  0  0
   -3.2040   -1.0560   -1.0850 H   0  0  0  0  0  0  0  0  0  0  0  0
   -2.6290   -2.4880   -0.2530 H   0  0  0  0  0  0  0  0  0  0  0  0
   -4.2510   -3.2590   -1.7870 H   0  0  0  0  0  0  0  0  0  0  0  0
   -2.6710   -3.9130   -2.1660 H   0  0  0  0  0  0  0  0  0  0  0  0
   -4.2330   -3.4330   -3.9790 H   0  0  0  0  0  0  0  0  0  0  0  0
   -2.6200   -2.9010   -4.3580 H   0  0  0  0  0  0  0  0  0  0  0  0
   -4.2540   -1.4390   -5.1570 H   0  0  0  0  0  0  0  0  0  0  0  0
   -3.5290   -0.4570   -3.8690 H   0  0  0  0  0  0  0  0  0  0  0  0
   -5.8720   -0.4170   -3.4630 H   0  0  0  0  0  0  0  0  0  0  0  0
   -5.5100   -1.8720   -2.5890 H   0  0  0  0  0  0  0  0  0  0  0  0
  1  7  1  0  0  0  0
  2  1  1  0  0  0  0
  2  8  1  0  0  0  0
  2  9  1  0  0  0  0
  3 10  1  6  0  0  0
  3  2  1  0  0  0  0
  4 12  1  0  0  0  0
  4  3  1  0  0  0  0
  5  6  2  0  0  0  0
  5  3  1  0  0  0  0
 11  4  1  0  0  0  0
 13 14  1  0  0  0  0
 13 23  1  0  0  0  0
 14 16  1  0  0  0  0
 14 15  1  0  0  0  0
 15 25  1  0  0  0  0
 16 17  1  0  0  0  0
 16 28  1  0  0  0  0
 17 30  1  1  0  0  0
 17 18  1  0  0  0  0
 18  5  1  0  0  0  0
 19 17  1  0  0  0  0
 20 19  2  0  0  0  0
 21 13  1  0  0  0  0
 22 13  1  0  0  0  0
 24 14  1  0  0  0  0
 26 15  1  0  0  0  0
 27 15  1  0  0  0  0
 29 16  1  0  0  0  0
 31 18  1  0  0  0  0
 32 42  1  0  0  0  0
 32 19  1  0  0  0  0
 33 43  1  1  0  0  0
 33 34  1  0  0  0  0
 33 32  1  0  0  0  0
 34 44  1  0  0  0  0
 34 45  1  0  0  0  0
 35 47  1  0  0  0  0
 35 46  1  0  0  0  0
 35 34  1  0  0  0  0
 36 35  1  0  0  0  0
 37 51  1  0  0  0  0
 37 36  1  0  0  0  0
 37 38  1  0  0  0  0
 38 52  1  0  0  0  0
 38 53  1  0  0  0  0
 39 40  1  0  0  0  0
 39 33  1  0  0  0  0
 41 39  2  0  0  0  0
 48 36  1  0  0  0  0
 49 36  1  0  0  0  0
 50 37  1  0  0  0  0
M  END
$$$$
