SLL.pdb
 OpenBabel07022419083D

 51 50  0  0  1  0  0  0  0  0999 V2000
    0.8850   -4.2550    0.2850 O   0  0  0  0  0  0  0  0  0  0  0  0
    0.8590   -3.7130   -1.0110 C   0  0  0  0  0  0  0  0  0  0  0  0
    2.1420   -2.9280   -1.1960 C   0  0  2  0  0  0  0  0  0  0  0  0
    3.2380   -3.8250   -1.0340 N   0  0  0  0  0  0  0  0  0  0  0  0
    2.1980   -1.8670   -0.1610 C   0  0  0  0  0  0  0  0  0  0  0  0
    3.1550   -1.9120    0.6660 O   0  0  0  0  0  0  0  0  0  0  0  0
    1.1660   -3.5610    0.9440 H   0  0  0  0  0  0  0  0  0  0  0  0
   -0.0430   -3.1010   -1.0910 H   0  0  0  0  0  0  0  0  0  0  0  0
    0.7910   -4.5590   -1.7180 H   0  0  0  0  0  0  0  0  0  0  0  0
    2.0970   -2.4710   -2.2140 H   0  0  0  0  0  0  0  0  0  0  0  0
    3.5110   -3.9050   -0.0410 H   0  0  0  0  0  0  0  0  0  0  0  0
    3.1670   -4.7090   -1.5510 H   0  0  0  0  0  0  0  0  0  0  0  0
    2.4250    1.2380   -1.7470 C   0  0  0  0  0  0  0  0  0  0  0  0
    2.3960    1.9940   -0.4390 C   0  0  0  0  0  0  0  0  0  0  0  0
    3.7600    2.0240    0.2200 C   0  0  0  0  0  0  0  0  0  0  0  0
    1.3130    1.5710    0.4870 C   0  0  0  0  0  0  0  0  0  0  0  0
    1.3270    0.1570    0.9250 C   0  0  2  0  0  0  0  0  0  0  0  0
    1.2250   -0.8290   -0.0820 N   0  0  0  0  0  0  0  0  0  0  0  0
    0.1560   -0.0240    1.8570 C   0  0  0  0  0  0  0  0  0  0  0  0
    0.0050    0.7410    2.8620 O   0  0  0  0  0  0  0  0  0  0  0  0
    1.4090    0.9340   -2.0720 H   0  0  0  0  0  0  0  0  0  0  0  0
    2.8030    1.8950   -2.5850 H   0  0  0  0  0  0  0  0  0  0  0  0
    3.1430    0.4260   -1.6600 H   0  0  0  0  0  0  0  0  0  0  0  0
    2.1870    3.0630   -0.7070 H   0  0  0  0  0  0  0  0  0  0  0  0
    4.5100    2.2910   -0.5530 H   0  0  0  0  0  0  0  0  0  0  0  0
    3.7340    2.8650    0.9500 H   0  0  0  0  0  0  0  0  0  0  0  0
    4.0330    1.0680    0.6890 H   0  0  0  0  0  0  0  0  0  0  0  0
    0.3330    1.8270   -0.0000 H   0  0  0  0  0  0  0  0  0  0  0  0
    1.3650    2.2200    1.3860 H   0  0  0  0  0  0  0  0  0  0  0  0
    2.2180   -0.0410    1.5560 H   0  0  0  0  0  0  0  0  0  0  0  0
    0.4690   -0.8600   -0.7950 H   0  0  0  0  0  0  0  0  0  0  0  0
   -3.5040    1.2880    2.0280 C   0  0  0  0  0  0  0  0  0  0  0  0
   -3.4880    0.1210    1.0880 C   0  0  0  0  0  0  0  0  0  0  0  0
   -4.8350    0.0370    0.4020 C   0  0  0  0  0  0  0  0  0  0  0  0
   -3.2550   -1.1990    1.7850 C   0  0  0  0  0  0  0  0  0  0  0  0
   -1.9370   -1.2400    2.5180 C   0  0  2  0  0  0  0  0  0  0  0  0
   -0.8110   -1.0440    1.6490 N   0  0  0  0  0  0  0  0  0  0  0  0
   -1.8370   -2.5610    3.1880 C   0  0  0  0  0  0  0  0  0  0  0  0
   -2.7090   -2.9710    4.0050 O   0  0  0  0  0  0  0  0  0  0  0  0
   -0.7500   -3.3740    2.9090 O   0  0  0  0  0  0  0  0  0  0  0  0
   -3.2980    1.0350    3.0700 H   0  0  0  0  0  0  0  0  0  0  0  0
   -4.5040    1.8120    2.0170 H   0  0  0  0  0  0  0  0  0  0  0  0
   -2.7930    2.0500    1.6210 H   0  0  0  0  0  0  0  0  0  0  0  0
   -2.7170    0.2410    0.2760 H   0  0  0  0  0  0  0  0  0  0  0  0
   -4.7010   -0.4330   -0.6120 H   0  0  0  0  0  0  0  0  0  0  0  0
   -5.5390   -0.5940    0.9890 H   0  0  0  0  0  0  0  0  0  0  0  0
   -5.2750    1.0570    0.2300 H   0  0  0  0  0  0  0  0  0  0  0  0
   -3.2390   -1.9790    1.0080 H   0  0  0  0  0  0  0  0  0  0  0  0
   -4.0600   -1.3580    2.5180 H   0  0  0  0  0  0  0  0  0  0  0  0
   -1.8750   -0.4750    3.3170 H   0  0  0  0  0  0  0  0  0  0  0  0
   -0.6710   -1.6710    0.8080 H   0  0  0  0  0  0  0  0  0  0  0  0
  1  7  1  0  0  0  0
  2  1  1  0  0  0  0
  3 10  1  6  0  0  0
  3  4  1  0  0  0  0
  3  2  1  0  0  0  0
  3  5  1  0  0  0  0
  4 11  1  0  0  0  0
  5 18  1  0  0  0  0
  5  6  2  0  0  0  0
  8  2  1  0  0  0  0
  9  2  1  0  0  0  0
 12  4  1  0  0  0  0
 13 23  1  0  0  0  0
 13 14  1  0  0  0  0
 14 15  1  0  0  0  0
 14 16  1  0  0  0  0
 15 27  1  0  0  0  0
 15 26  1  0  0  0  0
 16 17  1  0  0  0  0
 16 29  1  0  0  0  0
 17 30  1  1  0  0  0
 17 19  1  0  0  0  0
 18 17  1  0  0  0  0
 19 20  2  0  0  0  0
 21 13  1  0  0  0  0
 22 13  1  0  0  0  0
 24 14  1  0  0  0  0
 25 15  1  0  0  0  0
 28 16  1  0  0  0  0
 31 18  1  0  0  0  0
 32 41  1  0  0  0  0
 33 35  1  0  0  0  0
 33 32  1  0  0  0  0
 34 46  1  0  0  0  0
 34 33  1  0  0  0  0
 35 36  1  0  0  0  0
 35 49  1  0  0  0  0
 36 38  1  0  0  0  0
 36 50  1  1  0  0  0
 37 19  1  0  0  0  0
 37 36  1  0  0  0  0
 38 39  1  0  0  0  0
 40 38  2  0  0  0  0
 42 32  1  0  0  0  0
 43 32  1  0  0  0  0
 44 33  1  0  0  0  0
 45 34  1  0  0  0  0
 47 34  1  0  0  0  0
 48 35  1  0  0  0  0
 51 37  1  0  0  0  0
M  END
$$$$
