SLV.pdb
 OpenBabel07022419093D

 48 47  0  0  1  0  0  0  0  0999 V2000
    6.0260   -0.9350    2.1900 O   0  0  0  0  0  0  0  0  0  0  0  0
    5.1710   -0.6840    1.0980 C   0  0  0  0  0  0  0  0  0  0  0  0
    3.7920   -0.4420    1.7210 C   0  0  2  0  0  0  0  0  0  0  0  0
    3.3610   -1.6080    2.4690 N   0  0  0  0  0  0  0  0  0  0  0  0
    2.8100   -0.0380    0.6990 C   0  0  0  0  0  0  0  0  0  0  0  0
    3.1090    0.9710   -0.0040 O   0  0  0  0  0  0  0  0  0  0  0  0
    6.0320   -1.9080    2.4110 H   0  0  0  0  0  0  0  0  0  0  0  0
    5.5350    0.2350    0.6310 H   0  0  0  0  0  0  0  0  0  0  0  0
    5.1970   -1.5720    0.4640 H   0  0  0  0  0  0  0  0  0  0  0  0
    3.9580    0.3680    2.4730 H   0  0  0  0  0  0  0  0  0  0  0  0
    3.3830   -2.4260    1.8410 H   0  0  0  0  0  0  0  0  0  0  0  0
    2.4100   -1.3840    2.8390 H   0  0  0  0  0  0  0  0  0  0  0  0
   -1.6970   -1.1580   -2.4710 C   0  0  0  0  0  0  0  0  0  0  0  0
   -0.2360   -1.2080   -2.8020 C   0  0  0  0  0  0  0  0  0  0  0  0
   -0.0040   -2.4210   -3.7280 C   0  0  0  0  0  0  0  0  0  0  0  0
    0.6200   -1.2990   -1.5980 C   0  0  0  0  0  0  0  0  0  0  0  0
    0.6540   -0.2020   -0.6050 C   0  0  2  0  0  0  0  0  0  0  0  0
    1.5950   -0.6720    0.4490 N   0  0  0  0  0  0  0  0  0  0  0  0
   -0.5540    0.3140   -0.0320 C   0  0  0  0  0  0  0  0  0  0  0  0
   -1.4170    0.9860   -0.6620 O   0  0  0  0  0  0  0  0  0  0  0  0
   -1.9370   -1.4340   -1.4270 H   0  0  0  0  0  0  0  0  0  0  0  0
   -2.1990   -0.2350   -2.8190 H   0  0  0  0  0  0  0  0  0  0  0  0
   -2.2400   -2.0120   -3.0450 H   0  0  0  0  0  0  0  0  0  0  0  0
    0.0560   -0.3390   -3.4640 H   0  0  0  0  0  0  0  0  0  0  0  0
   -0.7930   -3.1950   -3.5510 H   0  0  0  0  0  0  0  0  0  0  0  0
   -0.0350   -2.1380   -4.7910 H   0  0  0  0  0  0  0  0  0  0  0  0
    0.9570   -2.8910   -3.5020 H   0  0  0  0  0  0  0  0  0  0  0  0
    0.4510   -2.3120   -1.0680 H   0  0  0  0  0  0  0  0  0  0  0  0
    1.6740   -1.4640   -1.9900 H   0  0  0  0  0  0  0  0  0  0  0  0
    1.1660    0.6740   -1.1320 H   0  0  0  0  0  0  0  0  0  0  0  0
    1.3240   -1.5040    1.0030 H   0  0  0  0  0  0  0  0  0  0  0  0
   -2.3820   -1.4270    3.4330 C   0  0  0  0  0  0  0  0  0  0  0  0
   -2.9940   -0.5260    2.4120 C   0  0  0  0  0  0  0  0  0  0  0  0
   -4.2860    0.0140    2.9350 C   0  0  0  0  0  0  0  0  0  0  0  0
   -2.0870    0.6000    1.9660 C   0  0  2  0  0  0  0  0  0  0  0  0
   -0.8610    0.0800    1.3690 N   0  0  0  0  0  0  0  0  0  0  0  0
   -1.8070    1.5620    3.0420 C   0  0  0  0  0  0  0  0  0  0  0  0
   -0.6350    1.8640    3.3700 O   0  0  0  0  0  0  0  0  0  0  0  0
   -2.8670    2.1450    3.7050 O   0  0  0  0  0  0  0  0  0  0  0  0
   -1.6880   -0.9480    4.1270 H   0  0  0  0  0  0  0  0  0  0  0  0
   -3.2190   -1.8310    4.0750 H   0  0  0  0  0  0  0  0  0  0  0  0
   -1.9550   -2.3370    2.9470 H   0  0  0  0  0  0  0  0  0  0  0  0
   -3.2230   -1.1340    1.5120 H   0  0  0  0  0  0  0  0  0  0  0  0
   -4.2420    0.2840    4.0190 H   0  0  0  0  0  0  0  0  0  0  0  0
   -5.0340   -0.8270    2.8870 H   0  0  0  0  0  0  0  0  0  0  0  0
   -4.7170    0.8280    2.3340 H   0  0  0  0  0  0  0  0  0  0  0  0
   -2.6340    1.1450    1.1710 H   0  0  0  0  0  0  0  0  0  0  0  0
   -0.1530   -0.4710    1.8910 H   0  0  0  0  0  0  0  0  0  0  0  0
  1  7  1  0  0  0  0
  2  3  1  0  0  0  0
  2  1  1  0  0  0  0
  3  4  1  0  0  0  0
  3 10  1  1  0  0  0
  4 12  1  0  0  0  0
  5  3  1  0  0  0  0
  6  5  2  0  0  0  0
  8  2  1  0  0  0  0
  9  2  1  0  0  0  0
 11  4  1  0  0  0  0
 13 21  1  0  0  0  0
 14 13  1  0  0  0  0
 14 16  1  0  0  0  0
 15 25  1  0  0  0  0
 15 27  1  0  0  0  0
 15 14  1  0  0  0  0
 16 28  1  0  0  0  0
 16 17  1  0  0  0  0
 17 30  1  6  0  0  0
 17 19  1  0  0  0  0
 17 18  1  0  0  0  0
 18  5  1  0  0  0  0
 18 31  1  0  0  0  0
 19 36  1  0  0  0  0
 20 19  2  0  0  0  0
 22 13  1  0  0  0  0
 23 13  1  0  0  0  0
 24 14  1  0  0  0  0
 26 15  1  0  0  0  0
 29 16  1  0  0  0  0
 32 41  1  0  0  0  0
 32 40  1  0  0  0  0
 33 34  1  0  0  0  0
 33 32  1  0  0  0  0
 34 44  1  0  0  0  0
 35 47  1  6  0  0  0
 35 33  1  0  0  0  0
 35 37  1  0  0  0  0
 36 48  1  0  0  0  0
 36 35  1  0  0  0  0
 37 38  2  0  0  0  0
 37 39  1  0  0  0  0
 42 32  1  0  0  0  0
 43 33  1  0  0  0  0
 45 34  1  0  0  0  0
 46 34  1  0  0  0  0
M  END
$$$$
