SLY.pdb
 OpenBabel07022419093D

 53 53  0  0  1  0  0  0  0  0999 V2000
    0.9020    0.2690    4.7800 O   0  0  0  0  0  0  0  0  0  0  0  0
   -0.1800    1.1160    4.5300 C   0  0  0  0  0  0  0  0  0  0  0  0
   -0.7560    0.7490    3.1760 C   0  0  2  0  0  0  0  0  0  0  0  0
   -1.2150   -0.6120    3.1150 N   0  0  0  0  0  0  0  0  0  0  0  0
    0.2850    1.0240    2.1420 C   0  0  0  0  0  0  0  0  0  0  0  0
    0.7860    2.1550    2.0610 O   0  0  0  0  0  0  0  0  0  0  0  0
    1.4380    0.5910    5.5650 H   0  0  0  0  0  0  0  0  0  0  0  0
   -0.9340    1.0810    5.3300 H   0  0  0  0  0  0  0  0  0  0  0  0
    0.2140    2.1660    4.4120 H   0  0  0  0  0  0  0  0  0  0  0  0
   -1.6560    1.3980    3.0160 H   0  0  0  0  0  0  0  0  0  0  0  0
   -1.4020   -0.9700    4.0800 H   0  0  0  0  0  0  0  0  0  0  0  0
   -2.0720   -0.7180    2.5550 H   0  0  0  0  0  0  0  0  0  0  0  0
    4.6290   -1.7830    1.6090 C   0  0  0  0  0  0  0  0  0  0  0  0
    3.5490   -0.7220    1.6480 C   0  0  0  0  0  0  0  0  0  0  0  0
    4.2160    0.5880    1.9770 C   0  0  0  0  0  0  0  0  0  0  0  0
    2.8650   -0.7190    0.3200 C   0  0  0  0  0  0  0  0  0  0  0  0
    1.7550    0.3010    0.2170 C   0  0  2  0  0  0  0  0  0  0  0  0
    0.7290    0.0260    1.2340 N   0  0  0  0  0  0  0  0  0  0  0  0
    1.0820    0.1180   -1.0980 C   0  0  0  0  0  0  0  0  0  0  0  0
    1.8040    0.3110   -2.1360 O   0  0  0  0  0  0  0  0  0  0  0  0
    4.3580   -2.6370    0.9660 H   0  0  0  0  0  0  0  0  0  0  0  0
    4.8420   -2.2080    2.6170 H   0  0  0  0  0  0  0  0  0  0  0  0
    5.5960   -1.3800    1.2320 H   0  0  0  0  0  0  0  0  0  0  0  0
    2.8860   -0.9740    2.4920 H   0  0  0  0  0  0  0  0  0  0  0  0
    4.6420    1.0890    1.0840 H   0  0  0  0  0  0  0  0  0  0  0  0
    5.0710    0.3580    2.6470 H   0  0  0  0  0  0  0  0  0  0  0  0
    3.5480    1.2620    2.5640 H   0  0  0  0  0  0  0  0  0  0  0  0
    2.4260   -1.7160    0.1560 H   0  0  0  0  0  0  0  0  0  0  0  0
    3.6300   -0.5400   -0.4610 H   0  0  0  0  0  0  0  0  0  0  0  0
    2.0990    1.3400    0.2710 H   0  0  0  0  0  0  0  0  0  0  0  0
    0.2960   -0.9180    1.3190 H   0  0  0  0  0  0  0  0  0  0  0  0
   -5.2480   -3.6320    0.7530 O   0  0  0  0  0  0  0  0  0  0  0  0
   -4.2760   -3.1780   -0.1380 C   0  0  0  0  0  0  0  0  0  0  0  0
   -2.9370   -3.3580    0.1570 C   0  0  0  0  0  0  0  0  0  0  0  0
   -1.9630   -2.9210   -0.7030 C   0  0  0  0  0  0  0  0  0  0  0  0
   -2.3170   -2.2960   -1.8740 C   0  0  0  0  0  0  0  0  0  0  0  0
   -1.3030   -1.8200   -2.8110 C   0  0  0  0  0  0  0  0  0  0  0  0
   -0.8440   -0.4010   -2.5610 C   0  0  2  0  0  0  0  0  0  0  0  0
   -0.2670   -0.2440   -1.2480 N   0  0  0  0  0  0  0  0  0  0  0  0
   -1.9630    0.5480   -2.7930 C   0  0  0  0  0  0  0  0  0  0  0  0
   -2.2980    1.3500   -1.8890 O   0  0  0  0  0  0  0  0  0  0  0  0
   -3.6510   -2.1240   -2.1540 C   0  0  0  0  0  0  0  0  0  0  0  0
   -4.6450   -2.5570   -1.3020 C   0  0  0  0  0  0  0  0  0  0  0  0
   -2.6200    0.5360   -4.0030 O   0  0  0  0  0  0  0  0  0  0  0  0
   -5.8110   -2.9180    1.1980 H   0  0  0  0  0  0  0  0  0  0  0  0
   -2.6640   -3.8610    1.0990 H   0  0  0  0  0  0  0  0  0  0  0  0
   -0.9370   -3.0760   -0.4440 H   0  0  0  0  0  0  0  0  0  0  0  0
   -0.4420   -2.5200   -2.8000 H   0  0  0  0  0  0  0  0  0  0  0  0
   -1.6650   -1.8330   -3.8810 H   0  0  0  0  0  0  0  0  0  0  0  0
   -0.0650   -0.1930   -3.3220 H   0  0  0  0  0  0  0  0  0  0  0  0
   -0.8250   -0.3930   -0.3630 H   0  0  0  0  0  0  0  0  0  0  0  0
   -4.0140   -1.6350   -3.0690 H   0  0  0  0  0  0  0  0  0  0  0  0
   -5.7030   -2.4180   -1.5300 H   0  0  0  0  0  0  0  0  0  0  0  0
  1  7  1  0  0  0  0
  2  1  1  0  0  0  0
  2  8  1  0  0  0  0
  3 10  1  6  0  0  0
  3  2  1  0  0  0  0
  4  3  1  0  0  0  0
  4 11  1  0  0  0  0
  5  3  1  0  0  0  0
  6  5  2  0  0  0  0
  9  2  1  0  0  0  0
 12  4  1  0  0  0  0
 13 14  1  0  0  0  0
 13 22  1  0  0  0  0
 14 15  1  0  0  0  0
 14 24  1  0  0  0  0
 15 27  1  0  0  0  0
 15 26  1  0  0  0  0
 16 14  1  0  0  0  0
 17 30  1  1  0  0  0
 17 16  1  0  0  0  0
 17 18  1  0  0  0  0
 18 31  1  0  0  0  0
 18  5  1  0  0  0  0
 19 17  1  0  0  0  0
 20 19  2  0  0  0  0
 21 13  1  0  0  0  0
 23 13  1  0  0  0  0
 25 15  1  0  0  0  0
 28 16  1  0  0  0  0
 29 16  1  0  0  0  0
 32 45  1  0  0  0  0
 33 34  1  0  0  0  0
 33 32  1  0  0  0  0
 34 46  1  0  0  0  0
 35 47  1  0  0  0  0
 35 34  2  0  0  0  0
 36 35  1  0  0  0  0
 37 48  1  0  0  0  0
 37 38  1  0  0  0  0
 37 36  1  0  0  0  0
 38 50  1  6  0  0  0
 38 39  1  0  0  0  0
 39 19  1  0  0  0  0
 39 51  1  0  0  0  0
 40 38  1  0  0  0  0
 40 41  1  0  0  0  0
 42 36  2  0  0  0  0
 42 43  1  0  0  0  0
 43 33  2  0  0  0  0
 44 40  2  0  0  0  0
 49 37  1  0  0  0  0
 52 42  1  0  0  0  0
 53 43  1  0  0  0  0
M  END
$$$$
