SMF.pdb
 OpenBabel07022419093D

 50 50  0  0  1  0  0  0  0  0999 V2000
    3.0950   -3.8010    0.7320 O   0  0  0  0  0  0  0  0  0  0  0  0
    2.3080   -4.1750    1.8030 C   0  0  0  0  0  0  0  0  0  0  0  0
    1.1570   -3.1930    1.9180 C   0  0  2  0  0  0  0  0  0  0  0  0
    0.3970   -3.2440    0.6830 N   0  0  0  0  0  0  0  0  0  0  0  0
    1.6110   -1.8000    2.1000 C   0  0  0  0  0  0  0  0  0  0  0  0
    2.2940   -1.5380    3.1250 O   0  0  0  0  0  0  0  0  0  0  0  0
    3.9990   -4.2100    0.7890 H   0  0  0  0  0  0  0  0  0  0  0  0
    2.8410   -4.2700    2.7530 H   0  0  0  0  0  0  0  0  0  0  0  0
    1.8220   -5.1730    1.6050 H   0  0  0  0  0  0  0  0  0  0  0  0
    0.5360   -3.5570    2.7620 H   0  0  0  0  0  0  0  0  0  0  0  0
   -0.4040   -2.6070    0.6840 H   0  0  0  0  0  0  0  0  0  0  0  0
    0.9840   -3.1770   -0.1610 H   0  0  0  0  0  0  0  0  0  0  0  0
    3.7790    0.9310   -2.9660 C   0  0  0  0  0  0  0  0  0  0  0  0
    4.7330    1.1100   -1.4410 S   0  0  0  0  0  0  0  0  0  0  0  0
    3.8240    0.3950   -0.0430 C   0  0  0  0  0  0  0  0  0  0  0  0
    2.5590    1.1830    0.2480 C   0  0  0  0  0  0  0  0  0  0  0  0
    1.7860    0.6170    1.3980 C   0  0  2  0  0  0  0  0  0  0  0  0
    1.3500   -0.7270    1.2250 N   0  0  0  0  0  0  0  0  0  0  0  0
    0.5840    1.4660    1.5920 C   0  0  0  0  0  0  0  0  0  0  0  0
    0.6620    2.7140    1.7840 O   0  0  0  0  0  0  0  0  0  0  0  0
    3.4950   -0.1240   -3.1680 H   0  0  0  0  0  0  0  0  0  0  0  0
    2.8750    1.5490   -2.8640 H   0  0  0  0  0  0  0  0  0  0  0  0
    4.4070    1.2460   -3.8150 H   0  0  0  0  0  0  0  0  0  0  0  0
    3.5830   -0.6560   -0.3580 H   0  0  0  0  0  0  0  0  0  0  0  0
    4.5010    0.4190    0.8280 H   0  0  0  0  0  0  0  0  0  0  0  0
    2.8870    2.2110    0.5070 H   0  0  0  0  0  0  0  0  0  0  0  0
    1.9180    1.2720   -0.6510 H   0  0  0  0  0  0  0  0  0  0  0  0
    2.3960    0.7090    2.3380 H   0  0  0  0  0  0  0  0  0  0  0  0
    0.7730   -0.9760    0.3660 H   0  0  0  0  0  0  0  0  0  0  0  0
   -0.7060    0.8830    1.5660 N   0  0  0  0  0  0  0  0  0  0  0  0
   -1.9510    1.5960    1.7430 C   0  0  1  0  0  0  0  0  0  0  0  0
   -2.8320    1.4930    0.5150 C   0  0  0  0  0  0  0  0  0  0  0  0
   -3.1810    0.1000    0.1780 C   0  0  0  0  0  0  0  0  0  0  0  0
   -4.3000   -0.5370    0.6570 C   0  0  0  0  0  0  0  0  0  0  0  0
   -4.6190   -1.8440    0.3380 C   0  0  0  0  0  0  0  0  0  0  0  0
   -3.7980   -2.5660   -0.4950 C   0  0  0  0  0  0  0  0  0  0  0  0
   -2.6690   -1.9490   -0.9890 C   0  0  0  0  0  0  0  0  0  0  0  0
   -2.3560   -0.6380   -0.6640 C   0  0  0  0  0  0  0  0  0  0  0  0
   -2.6860    1.0350    2.8830 C   0  0  0  0  0  0  0  0  0  0  0  0
   -3.7800    1.5200    3.2290 O   0  0  0  0  0  0  0  0  0  0  0  0
   -2.1700   -0.0340    3.5790 O   0  0  0  0  0  0  0  0  0  0  0  0
   -0.7790   -0.1620    1.4040 H   0  0  0  0  0  0  0  0  0  0  0  0
   -1.6980    2.6770    1.9310 H   0  0  0  0  0  0  0  0  0  0  0  0
   -2.4390    2.0490   -0.3500 H   0  0  0  0  0  0  0  0  0  0  0  0
   -3.8000    2.0020    0.7960 H   0  0  0  0  0  0  0  0  0  0  0  0
   -4.9860   -0.0080    1.3190 H   0  0  0  0  0  0  0  0  0  0  0  0
   -5.5120   -2.3430    0.7230 H   0  0  0  0  0  0  0  0  0  0  0  0
   -4.0100   -3.5980   -0.7730 H   0  0  0  0  0  0  0  0  0  0  0  0
   -2.0030   -2.5120   -1.6550 H   0  0  0  0  0  0  0  0  0  0  0  0
   -1.4740   -0.1760   -1.0590 H   0  0  0  0  0  0  0  0  0  0  0  0
  1  7  1  0  0  0  0
  1  2  1  0  0  0  0
  2  3  1  0  0  0  0
  2  8  1  0  0  0  0
  3  5  1  0  0  0  0
  3 10  1  1  0  0  0
  4 11  1  0  0  0  0
  4  3  1  0  0  0  0
  5  6  2  0  0  0  0
  9  2  1  0  0  0  0
 12  4  1  0  0  0  0
 13 22  1  0  0  0  0
 13 14  1  0  0  0  0
 14 15  1  0  0  0  0
 15 16  1  0  0  0  0
 15 25  1  0  0  0  0
 16 26  1  0  0  0  0
 16 17  1  0  0  0  0
 17 19  1  0  0  0  0
 17 28  1  1  0  0  0
 18 17  1  0  0  0  0
 18  5  1  0  0  0  0
 19 20  2  0  0  0  0
 21 13  1  0  0  0  0
 23 13  1  0  0  0  0
 24 15  1  0  0  0  0
 27 16  1  0  0  0  0
 29 18  1  0  0  0  0
 30 19  1  0  0  0  0
 30 31  1  0  0  0  0
 31 43  1  1  0  0  0
 31 39  1  0  0  0  0
 32 45  1  0  0  0  0
 32 31  1  0  0  0  0
 33 32  1  0  0  0  0
 33 34  1  0  0  0  0
 34 46  1  0  0  0  0
 35 34  2  0  0  0  0
 35 47  1  0  0  0  0
 36 35  1  0  0  0  0
 37 38  1  0  0  0  0
 37 36  2  0  0  0  0
 38 33  2  0  0  0  0
 39 40  2  0  0  0  0
 39 41  1  0  0  0  0
 42 30  1  0  0  0  0
 44 32  1  0  0  0  0
 48 36  1  0  0  0  0
 49 37  1  0  0  0  0
 50 38  1  0  0  0  0
M  END
$$$$
