SMI.pdb
 OpenBabel07022419093D

 49 48  0  0  1  0  0  0  0  0999 V2000
    1.4380   -4.4010   -0.0990 O   0  0  0  0  0  0  0  0  0  0  0  0
    1.5110   -3.8320   -1.3820 C   0  0  0  0  0  0  0  0  0  0  0  0
    2.7320   -2.9600   -1.4710 C   0  0  2  0  0  0  0  0  0  0  0  0
    3.9520   -3.6920   -1.2370 N   0  0  0  0  0  0  0  0  0  0  0  0
    2.6880   -1.7670   -0.6410 C   0  0  0  0  0  0  0  0  0  0  0  0
    3.6530   -1.5250    0.1300 O   0  0  0  0  0  0  0  0  0  0  0  0
    1.8010   -3.8290    0.5960 H   0  0  0  0  0  0  0  0  0  0  0  0
    0.5740   -3.3150   -1.5550 H   0  0  0  0  0  0  0  0  0  0  0  0
    1.5650   -4.6810   -2.0940 H   0  0  0  0  0  0  0  0  0  0  0  0
    2.7850   -2.6140   -2.5460 H   0  0  0  0  0  0  0  0  0  0  0  0
    4.7820   -3.2920   -1.6910 H   0  0  0  0  0  0  0  0  0  0  0  0
    4.1660   -3.7950   -0.2120 H   0  0  0  0  0  0  0  0  0  0  0  0
   -0.8170    1.4030   -4.0190 C   0  0  0  0  0  0  0  0  0  0  0  0
    0.5130    0.7630   -2.9310 S   0  0  0  0  0  0  0  0  0  0  0  0
    0.6930    1.9170   -1.5690 C   0  0  0  0  0  0  0  0  0  0  0  0
    1.7190    1.5930   -0.5650 C   0  0  0  0  0  0  0  0  0  0  0  0
    1.6130    0.3480    0.2140 C   0  0  2  0  0  0  0  0  0  0  0  0
    1.6270   -0.8220   -0.6180 N   0  0  0  0  0  0  0  0  0  0  0  0
    0.4170    0.3090    1.1230 C   0  0  0  0  0  0  0  0  0  0  0  0
    0.2450    1.2610    1.9150 O   0  0  0  0  0  0  0  0  0  0  0  0
   -1.4640    2.1130   -3.4540 H   0  0  0  0  0  0  0  0  0  0  0  0
   -0.4010    1.9140   -4.8990 H   0  0  0  0  0  0  0  0  0  0  0  0
   -1.4570    0.5530   -4.3230 H   0  0  0  0  0  0  0  0  0  0  0  0
    0.9930    2.9030   -2.0380 H   0  0  0  0  0  0  0  0  0  0  0  0
   -0.3240    2.0940   -1.1610 H   0  0  0  0  0  0  0  0  0  0  0  0
    2.7130    1.5740   -1.1120 H   0  0  0  0  0  0  0  0  0  0  0  0
    1.8570    2.4820    0.1260 H   0  0  0  0  0  0  0  0  0  0  0  0
    2.5050    0.3470    0.9230 H   0  0  0  0  0  0  0  0  0  0  0  0
    0.8140   -1.0010   -1.2330 H   0  0  0  0  0  0  0  0  0  0  0  0
   -0.7610    0.5540    5.3470 C   0  0  0  0  0  0  0  0  0  0  0  0
   -0.5990   -0.3720    4.1640 C   0  0  0  0  0  0  0  0  0  0  0  0
   -1.7030   -0.0820    3.1670 C   0  0  2  0  0  0  0  0  0  0  0  0
   -3.0000   -0.3670    3.9110 C   0  0  0  0  0  0  0  0  0  0  0  0
   -1.6470   -0.9050    1.9290 C   0  0  2  0  0  0  0  0  0  0  0  0
   -0.4940   -0.7550    1.1000 N   0  0  0  0  0  0  0  0  0  0  0  0
   -2.9060   -0.9100    1.2030 C   0  0  0  0  0  0  0  0  0  0  0  0
   -4.0120   -1.0580    1.7250 O   0  0  0  0  0  0  0  0  0  0  0  0
   -2.8270   -0.7300   -0.1960 O   0  0  0  0  0  0  0  0  0  0  0  0
   -1.3580    1.4500    5.0160 H   0  0  0  0  0  0  0  0  0  0  0  0
    0.2610    0.9570    5.5720 H   0  0  0  0  0  0  0  0  0  0  0  0
   -1.2190    0.0800    6.2170 H   0  0  0  0  0  0  0  0  0  0  0  0
   -0.8830   -1.4040    4.5970 H   0  0  0  0  0  0  0  0  0  0  0  0
    0.4050   -0.4410    3.7920 H   0  0  0  0  0  0  0  0  0  0  0  0
   -1.7480    1.0230    2.9500 H   0  0  0  0  0  0  0  0  0  0  0  0
   -3.8440    0.2540    3.5800 H   0  0  0  0  0  0  0  0  0  0  0  0
   -2.8470   -0.1890    5.0220 H   0  0  0  0  0  0  0  0  0  0  0  0
   -3.3090   -1.4270    3.8640 H   0  0  0  0  0  0  0  0  0  0  0  0
   -1.5320   -1.9790    2.3890 H   0  0  0  0  0  0  0  0  0  0  0  0
   -0.2960   -1.5360    0.3820 H   0  0  0  0  0  0  0  0  0  0  0  0
  1  7  1  0  0  0  0
  2  1  1  0  0  0  0
  3 10  1  6  0  0  0
  3  2  1  0  0  0  0
  3  4  1  0  0  0  0
  3  5  1  0  0  0  0
  4 12  1  0  0  0  0
  5 18  1  0  0  0  0
  5  6  2  0  0  0  0
  8  2  1  0  0  0  0
  9  2  1  0  0  0  0
 11  4  1  0  0  0  0
 13 21  1  0  0  0  0
 13 14  1  0  0  0  0
 14 15  1  0  0  0  0
 15 25  1  0  0  0  0
 15 16  1  0  0  0  0
 16 27  1  0  0  0  0
 16 17  1  0  0  0  0
 17 28  1  1  0  0  0
 17 19  1  0  0  0  0
 18 17  1  0  0  0  0
 19 20  2  0  0  0  0
 22 13  1  0  0  0  0
 23 13  1  0  0  0  0
 24 15  1  0  0  0  0
 26 16  1  0  0  0  0
 29 18  1  0  0  0  0
 30 40  1  0  0  0  0
 30 41  1  0  0  0  0
 31 42  1  0  0  0  0
 31 30  1  0  0  0  0
 32 44  1  6  0  0  0
 32 33  1  0  0  0  0
 32 31  1  0  0  0  0
 33 46  1  0  0  0  0
 34 48  1  1  0  0  0
 34 32  1  0  0  0  0
 35 19  1  0  0  0  0
 35 34  1  0  0  0  0
 36 37  1  0  0  0  0
 36 34  1  0  0  0  0
 38 36  2  0  0  0  0
 39 30  1  0  0  0  0
 43 31  1  0  0  0  0
 45 33  1  0  0  0  0
 47 33  1  0  0  0  0
 49 35  1  0  0  0  0
M  END
$$$$
