SMK.pdb
 OpenBabel07022419093D

 51 50  0  0  1  0  0  0  0  0999 V2000
    0.8560   -0.7270    6.2050 O   0  0  0  0  0  0  0  0  0  0  0  0
    1.4510   -0.2400    5.0570 C   0  0  0  0  0  0  0  0  0  0  0  0
    0.5220   -0.3770    3.8530 C   0  0  2  0  0  0  0  0  0  0  0  0
    0.2140   -1.7650    3.6660 N   0  0  0  0  0  0  0  0  0  0  0  0
    1.2110    0.1980    2.6590 C   0  0  0  0  0  0  0  0  0  0  0  0
    1.5930    1.3850    2.6700 O   0  0  0  0  0  0  0  0  0  0  0  0
    0.3790   -1.5550    5.9870 H   0  0  0  0  0  0  0  0  0  0  0  0
    2.3840   -0.8370    4.8710 H   0  0  0  0  0  0  0  0  0  0  0  0
    1.7880    0.8070    5.1960 H   0  0  0  0  0  0  0  0  0  0  0  0
   -0.4110    0.1560    4.0880 H   0  0  0  0  0  0  0  0  0  0  0  0
   -0.5880   -1.9770    3.0690 H   0  0  0  0  0  0  0  0  0  0  0  0
    1.0600   -2.3460    3.4710 H   0  0  0  0  0  0  0  0  0  0  0  0
    3.5010    1.5140   -2.9580 C   0  0  0  0  0  0  0  0  0  0  0  0
    3.8000   -0.2860   -2.7810 S   0  0  0  0  0  0  0  0  0  0  0  0
    4.1510   -0.7700   -1.1260 C   0  0  0  0  0  0  0  0  0  0  0  0
    3.1670   -1.0170   -0.0860 C   0  0  0  0  0  0  0  0  0  0  0  0
    2.1150   -0.0910    0.2970 C   0  0  2  0  0  0  0  0  0  0  0  0
    1.4280   -0.5850    1.5360 N   0  0  0  0  0  0  0  0  0  0  0  0
    1.0010   -0.1360   -0.7360 C   0  0  0  0  0  0  0  0  0  0  0  0
    1.2130    0.1150   -1.8910 O   0  0  0  0  0  0  0  0  0  0  0  0
    3.2970    1.9910   -1.9810 H   0  0  0  0  0  0  0  0  0  0  0  0
    2.6430    1.6900   -3.6100 H   0  0  0  0  0  0  0  0  0  0  0  0
    4.4320    2.0140   -3.3450 H   0  0  0  0  0  0  0  0  0  0  0  0
    4.9760   -0.0510   -0.7220 H   0  0  0  0  0  0  0  0  0  0  0  0
    4.8430   -1.7150   -1.2340 H   0  0  0  0  0  0  0  0  0  0  0  0
    3.7750   -1.2320    0.8690 H   0  0  0  0  0  0  0  0  0  0  0  0
    2.6820   -2.0430   -0.3010 H   0  0  0  0  0  0  0  0  0  0  0  0
    2.4060    0.9220    0.4510 H   0  0  0  0  0  0  0  0  0  0  0  0
    1.1200   -1.5690    1.4990 H   0  0  0  0  0  0  0  0  0  0  0  0
   -0.3470   -0.4780   -0.3760 N   0  0  0  0  0  0  0  0  0  0  0  0
   -1.4170   -0.5270   -1.3510 C   0  0  1  0  0  0  0  0  0  0  0  0
   -1.9340   -1.8910   -1.5500 C   0  0  0  0  0  0  0  0  0  0  0  0
   -2.4740   -2.6000   -0.3980 C   0  0  0  0  0  0  0  0  0  0  0  0
   -3.6580   -2.2790    0.3590 C   0  0  0  0  0  0  0  0  0  0  0  0
   -3.8520   -1.0130    1.1010 C   0  0  0  0  0  0  0  0  0  0  0  0
   -2.8560   -0.6990    2.0780 N   0  0  0  0  0  0  0  0  0  0  0  0
   -2.4100    0.5090   -1.3000 C   0  0  0  0  0  0  0  0  0  0  0  0
   -2.4120    1.5030   -0.5220 O   0  0  0  0  0  0  0  0  0  0  0  0
   -3.4870    0.4370   -2.1840 O   0  0  0  0  0  0  0  0  0  0  0  0
   -0.5200   -0.6920    0.6180 H   0  0  0  0  0  0  0  0  0  0  0  0
   -0.8840   -0.3040   -2.3960 H   0  0  0  0  0  0  0  0  0  0  0  0
   -1.1510   -2.5440   -2.1000 H   0  0  0  0  0  0  0  0  0  0  0  0
   -2.7670   -1.8240   -2.3540 H   0  0  0  0  0  0  0  0  0  0  0  0
   -1.6380   -2.7940    0.3840 H   0  0  0  0  0  0  0  0  0  0  0  0
   -2.5850   -3.7100   -0.7650 H   0  0  0  0  0  0  0  0  0  0  0  0
   -4.5990   -2.4580   -0.2710 H   0  0  0  0  0  0  0  0  0  0  0  0
   -3.7530   -3.0990    1.1770 H   0  0  0  0  0  0  0  0  0  0  0  0
   -4.8010   -1.2060    1.7940 H   0  0  0  0  0  0  0  0  0  0  0  0
   -4.2140   -0.1690    0.5350 H   0  0  0  0  0  0  0  0  0  0  0  0
   -2.6160    0.3190    1.9660 H   0  0  0  0  0  0  0  0  0  0  0  0
   -3.0500   -0.9830    3.0440 H   0  0  0  0  0  0  0  0  0  0  0  0
  2  9  1  0  0  0  0
  2  1  1  0  0  0  0
  3 10  1  1  0  0  0
  3  2  1  0  0  0  0
  4  3  1  0  0  0  0
  5  6  2  0  0  0  0
  5  3  1  0  0  0  0
  7  1  1  0  0  0  0
  8  2  1  0  0  0  0
 11  4  1  0  0  0  0
 12  4  1  0  0  0  0
 13 14  1  0  0  0  0
 13 21  1  0  0  0  0
 14 15  1  0  0  0  0
 15 24  1  0  0  0  0
 15 16  1  0  0  0  0
 16 17  1  0  0  0  0
 16 26  1  0  0  0  0
 17 28  1  1  0  0  0
 17 18  1  0  0  0  0
 18  5  1  0  0  0  0
 19 30  1  0  0  0  0
 19 17  1  0  0  0  0
 20 19  2  0  0  0  0
 22 13  1  0  0  0  0
 23 13  1  0  0  0  0
 25 15  1  0  0  0  0
 27 16  1  0  0  0  0
 29 18  1  0  0  0  0
 30 40  1  0  0  0  0
 31 41  1  6  0  0  0
 31 37  1  0  0  0  0
 31 30  1  0  0  0  0
 32 31  1  0  0  0  0
 32 33  1  0  0  0  0
 33 34  1  0  0  0  0
 33 44  1  0  0  0  0
 34 35  1  0  0  0  0
 34 47  1  0  0  0  0
 35 48  1  0  0  0  0
 35 36  1  0  0  0  0
 36 51  1  0  0  0  0
 37 38  1  0  0  0  0
 39 37  2  0  0  0  0
 42 32  1  0  0  0  0
 43 32  1  0  0  0  0
 45 33  1  0  0  0  0
 46 34  1  0  0  0  0
 49 35  1  0  0  0  0
 50 36  1  0  0  0  0
M  END
$$$$
