SML.pdb
 OpenBabel07022419093D

 49 48  0  0  1  0  0  0  0  0999 V2000
   -0.2230   -1.8440   -2.9060 O   0  0  0  0  0  0  0  0  0  0  0  0
   -1.4510   -1.2310   -2.6510 C   0  0  0  0  0  0  0  0  0  0  0  0
   -1.2830    0.2510   -2.9300 C   0  0  2  0  0  0  0  0  0  0  0  0
   -0.9020    0.4020   -4.3070 N   0  0  0  0  0  0  0  0  0  0  0  0
   -0.2190    0.7410   -2.0160 C   0  0  0  0  0  0  0  0  0  0  0  0
    0.8340    1.2050   -2.5370 O   0  0  0  0  0  0  0  0  0  0  0  0
   -0.2830   -2.3990   -3.7230 H   0  0  0  0  0  0  0  0  0  0  0  0
   -1.7260   -1.3800   -1.6040 H   0  0  0  0  0  0  0  0  0  0  0  0
   -2.2120   -1.6650   -3.3360 H   0  0  0  0  0  0  0  0  0  0  0  0
   -2.2600    0.7480   -2.7500 H   0  0  0  0  0  0  0  0  0  0  0  0
    0.1500    0.3300   -4.4190 H   0  0  0  0  0  0  0  0  0  0  0  0
   -1.1410    1.3770   -4.6290 H   0  0  0  0  0  0  0  0  0  0  0  0
    3.6280    4.3950    2.4000 C   0  0  0  0  0  0  0  0  0  0  0  0
    2.5950    3.6150    1.1270 S   0  0  0  0  0  0  0  0  0  0  0  0
    1.0570    3.0550    1.9370 C   0  0  0  0  0  0  0  0  0  0  0  0
    0.1340    2.3960    0.9660 C   0  0  0  0  0  0  0  0  0  0  0  0
    0.6960    1.1820    0.2760 C   0  0  2  0  0  0  0  0  0  0  0  0
   -0.3450    0.7030   -0.6100 N   0  0  0  0  0  0  0  0  0  0  0  0
    1.1460    0.1210    1.2070 C   0  0  0  0  0  0  0  0  0  0  0  0
    2.0620    0.3830    2.0230 O   0  0  0  0  0  0  0  0  0  0  0  0
    4.4170    5.0350    1.9510 H   0  0  0  0  0  0  0  0  0  0  0  0
    2.9550    4.9860    3.0530 H   0  0  0  0  0  0  0  0  0  0  0  0
    4.1520    3.5990    2.9910 H   0  0  0  0  0  0  0  0  0  0  0  0
    0.5110    3.9880    2.2810 H   0  0  0  0  0  0  0  0  0  0  0  0
    1.2360    2.3980    2.7850 H   0  0  0  0  0  0  0  0  0  0  0  0
   -0.1890    3.1600    0.2350 H   0  0  0  0  0  0  0  0  0  0  0  0
   -0.7800    2.0960    1.5300 H   0  0  0  0  0  0  0  0  0  0  0  0
    1.5300    1.5480   -0.3700 H   0  0  0  0  0  0  0  0  0  0  0  0
   -1.2100    0.3210   -0.1890 H   0  0  0  0  0  0  0  0  0  0  0  0
   -2.3440   -3.5450    3.4600 C   0  0  0  0  0  0  0  0  0  0  0  0
   -1.3690   -3.1560    2.3580 C   0  0  0  0  0  0  0  0  0  0  0  0
   -1.2350   -4.3210    1.4540 C   0  0  0  0  0  0  0  0  0  0  0  0
   -0.1260   -2.6690    3.0030 C   0  0  0  0  0  0  0  0  0  0  0  0
    0.9610   -2.2370    2.0700 C   0  0  2  0  0  0  0  0  0  0  0  0
    0.5770   -1.1540    1.1970 N   0  0  0  0  0  0  0  0  0  0  0  0
    1.5770   -3.3530    1.3190 C   0  0  0  0  0  0  0  0  0  0  0  0
    1.9600   -4.3650    1.9530 O   0  0  0  0  0  0  0  0  0  0  0  0
    1.7680   -3.3710   -0.0520 O   0  0  0  0  0  0  0  0  0  0  0  0
   -2.1570   -4.6210    3.6770 H   0  0  0  0  0  0  0  0  0  0  0  0
   -3.3720   -3.4110    3.0890 H   0  0  0  0  0  0  0  0  0  0  0  0
   -2.1320   -3.0040    4.4010 H   0  0  0  0  0  0  0  0  0  0  0  0
   -1.8410   -2.3110    1.8160 H   0  0  0  0  0  0  0  0  0  0  0  0
   -2.2730   -4.7360    1.2830 H   0  0  0  0  0  0  0  0  0  0  0  0
   -0.8270   -4.1230    0.4640 H   0  0  0  0  0  0  0  0  0  0  0  0
   -0.6730   -5.1560    1.9190 H   0  0  0  0  0  0  0  0  0  0  0  0
   -0.3830   -1.8020    3.6450 H   0  0  0  0  0  0  0  0  0  0  0  0
    0.3030   -3.4380    3.6780 H   0  0  0  0  0  0  0  0  0  0  0  0
    1.7840   -1.8180    2.7220 H   0  0  0  0  0  0  0  0  0  0  0  0
   -0.1920   -1.3420    0.4990 H   0  0  0  0  0  0  0  0  0  0  0  0
  1  2  1  0  0  0  0
  2  8  1  0  0  0  0
  3 10  1  1  0  0  0
  3  2  1  0  0  0  0
  3  5  1  0  0  0  0
  4  3  1  0  0  0  0
  5 18  1  0  0  0  0
  6  5  2  0  0  0  0
  7  1  1  0  0  0  0
  9  2  1  0  0  0  0
 11  4  1  0  0  0  0
 12  4  1  0  0  0  0
 13 23  1  0  0  0  0
 13 22  1  0  0  0  0
 14 15  1  0  0  0  0
 14 13  1  0  0  0  0
 15 24  1  0  0  0  0
 15 25  1  0  0  0  0
 16 27  1  0  0  0  0
 16 15  1  0  0  0  0
 17 28  1  6  0  0  0
 17 16  1  0  0  0  0
 17 19  1  0  0  0  0
 18 29  1  0  0  0  0
 18 17  1  0  0  0  0
 19 20  2  0  0  0  0
 21 13  1  0  0  0  0
 26 16  1  0  0  0  0
 30 39  1  0  0  0  0
 30 41  1  0  0  0  0
 31 33  1  0  0  0  0
 31 30  1  0  0  0  0
 32 45  1  0  0  0  0
 32 31  1  0  0  0  0
 33 46  1  0  0  0  0
 33 47  1  0  0  0  0
 34 48  1  1  0  0  0
 34 33  1  0  0  0  0
 35 19  1  0  0  0  0
 35 34  1  0  0  0  0
 36 37  1  0  0  0  0
 36 34  1  0  0  0  0
 38 36  2  0  0  0  0
 40 30  1  0  0  0  0
 42 31  1  0  0  0  0
 43 32  1  0  0  0  0
 44 32  1  0  0  0  0
 49 35  1  0  0  0  0
M  END
$$$$
