SMN.pdb
 OpenBabel07022419093D

 44 43  0  0  1  0  0  0  0  0999 V2000
    2.3970   -3.1020   -2.7600 O   0  0  0  0  0  0  0  0  0  0  0  0
    1.4790   -2.3740   -3.5180 C   0  0  0  0  0  0  0  0  0  0  0  0
    1.8280   -0.9080   -3.5380 C   0  0  2  0  0  0  0  0  0  0  0  0
    3.1310   -0.6550   -4.1090 N   0  0  0  0  0  0  0  0  0  0  0  0
    1.6920   -0.2980   -2.1900 C   0  0  0  0  0  0  0  0  0  0  0  0
    2.6620    0.3670   -1.6900 O   0  0  0  0  0  0  0  0  0  0  0  0
    2.1750   -4.0650   -2.8270 H   0  0  0  0  0  0  0  0  0  0  0  0
    1.5050   -2.7840   -4.5340 H   0  0  0  0  0  0  0  0  0  0  0  0
    0.4470   -2.4870   -3.1290 H   0  0  0  0  0  0  0  0  0  0  0  0
    1.0900   -0.3920   -4.2070 H   0  0  0  0  0  0  0  0  0  0  0  0
    3.6410   -1.5210   -4.3370 H   0  0  0  0  0  0  0  0  0  0  0  0
    3.7230   -0.0540   -3.4710 H   0  0  0  0  0  0  0  0  0  0  0  0
   -3.7820    2.5080    0.2410 C   0  0  0  0  0  0  0  0  0  0  0  0
   -2.2080    3.3080    0.6290 S   0  0  0  0  0  0  0  0  0  0  0  0
   -0.9140    2.0550    1.0250 C   0  0  0  0  0  0  0  0  0  0  0  0
   -0.6090    1.2640   -0.1920 C   0  0  0  0  0  0  0  0  0  0  0  0
    0.4390    0.2090   -0.0700 C   0  0  2  0  0  0  0  0  0  0  0  0
    0.5280   -0.4100   -1.4060 N   0  0  0  0  0  0  0  0  0  0  0  0
    0.1970   -0.8330    0.9230 C   0  0  0  0  0  0  0  0  0  0  0  0
   -0.0620   -2.0100    0.4990 O   0  0  0  0  0  0  0  0  0  0  0  0
   -3.8190    1.4710    0.5950 H   0  0  0  0  0  0  0  0  0  0  0  0
   -4.0140    2.5190   -0.8560 H   0  0  0  0  0  0  0  0  0  0  0  0
   -4.5820    3.0550    0.7880 H   0  0  0  0  0  0  0  0  0  0  0  0
   -0.0600    2.6240    1.4260 H   0  0  0  0  0  0  0  0  0  0  0  0
   -1.3500    1.4140    1.8500 H   0  0  0  0  0  0  0  0  0  0  0  0
   -1.5150    0.8160   -0.6630 H   0  0  0  0  0  0  0  0  0  0  0  0
   -0.2310    1.9970   -0.9670 H   0  0  0  0  0  0  0  0  0  0  0  0
    1.4170    0.6930    0.1400 H   0  0  0  0  0  0  0  0  0  0  0  0
   -0.2880   -0.9310   -1.7560 H   0  0  0  0  0  0  0  0  0  0  0  0
    1.7270   -1.0470    6.3900 N   0  0  0  0  0  0  0  0  0  0  0  0
    1.6140   -0.9840    4.9730 C   0  0  0  0  0  0  0  0  0  0  0  0
    1.9430    0.0950    4.4250 O   0  0  0  0  0  0  0  0  0  0  0  0
    1.1390   -2.0960    4.1500 C   0  0  0  0  0  0  0  0  0  0  0  0
   -0.0350   -1.7520    3.2570 C   0  0  2  0  0  0  0  0  0  0  0  0
    0.2150   -0.7030    2.3260 N   0  0  0  0  0  0  0  0  0  0  0  0
   -1.1700   -1.4040    4.1440 C   0  0  0  0  0  0  0  0  0  0  0  0
   -1.7370   -0.3000    3.9800 O   0  0  0  0  0  0  0  0  0  0  0  0
   -1.6470   -2.2270    5.1500 O   0  0  0  0  0  0  0  0  0  0  0  0
    2.6210   -1.4480    6.7840 H   0  0  0  0  0  0  0  0  0  0  0  0
    0.9620   -0.7090    7.0260 H   0  0  0  0  0  0  0  0  0  0  0  0
    0.7770   -2.9090    4.8280 H   0  0  0  0  0  0  0  0  0  0  0  0
    1.9610   -2.5940    3.5500 H   0  0  0  0  0  0  0  0  0  0  0  0
   -0.2690   -2.7290    2.7300 H   0  0  0  0  0  0  0  0  0  0  0  0
    0.4410    0.2400    2.7130 H   0  0  0  0  0  0  0  0  0  0  0  0
  2  9  1  0  0  0  0
  2  1  1  0  0  0  0
  3 10  1  6  0  0  0
  3  2  1  0  0  0  0
  3  5  1  0  0  0  0
  4  3  1  0  0  0  0
  4 12  1  0  0  0  0
  5  6  2  0  0  0  0
  5 18  1  0  0  0  0
  7  1  1  0  0  0  0
  8  2  1  0  0  0  0
 11  4  1  0  0  0  0
 13 21  1  0  0  0  0
 13 14  1  0  0  0  0
 13 23  1  0  0  0  0
 14 15  1  0  0  0  0
 15 24  1  0  0  0  0
 15 25  1  0  0  0  0
 16 17  1  0  0  0  0
 16 15  1  0  0  0  0
 17 28  1  1  0  0  0
 17 19  1  0  0  0  0
 18 17  1  0  0  0  0
 19 35  1  0  0  0  0
 20 19  2  0  0  0  0
 22 13  1  0  0  0  0
 26 16  1  0  0  0  0
 27 16  1  0  0  0  0
 29 18  1  0  0  0  0
 30 39  1  0  0  0  0
 30 40  1  0  0  0  0
 31 30  1  0  0  0  0
 32 31  2  0  0  0  0
 33 41  1  0  0  0  0
 33 31  1  0  0  0  0
 34 43  1  6  0  0  0
 34 36  1  0  0  0  0
 34 33  1  0  0  0  0
 35 44  1  0  0  0  0
 35 34  1  0  0  0  0
 36 38  1  0  0  0  0
 37 36  2  0  0  0  0
 42 33  1  0  0  0  0
M  END
$$$$
