SMQ.pdb
 OpenBabel07022419093D

 47 46  0  0  1  0  0  0  0  0999 V2000
    0.3860   -3.8710    4.2770 O   0  0  0  0  0  0  0  0  0  0  0  0
    0.5970   -2.7290    3.5210 C   0  0  0  0  0  0  0  0  0  0  0  0
    2.0030   -2.8380    2.9190 C   0  0  2  0  0  0  0  0  0  0  0  0
    2.9040   -2.9270    4.0570 N   0  0  0  0  0  0  0  0  0  0  0  0
    2.3190   -1.6700    2.0690 C   0  0  0  0  0  0  0  0  0  0  0  0
    3.2740   -0.9310    2.4060 O   0  0  0  0  0  0  0  0  0  0  0  0
    1.0620   -3.9940    4.9870 H   0  0  0  0  0  0  0  0  0  0  0  0
   -0.1240   -2.7130    2.6930 H   0  0  0  0  0  0  0  0  0  0  0  0
    0.5970   -1.8190    4.1440 H   0  0  0  0  0  0  0  0  0  0  0  0
    2.0940   -3.7920    2.3260 H   0  0  0  0  0  0  0  0  0  0  0  0
    3.8420   -2.5000    3.8110 H   0  0  0  0  0  0  0  0  0  0  0  0
    3.0200   -3.8910    4.4140 H   0  0  0  0  0  0  0  0  0  0  0  0
   -0.1750    0.9120   -3.4590 C   0  0  0  0  0  0  0  0  0  0  0  0
    1.2450    1.6880   -2.6670 S   0  0  0  0  0  0  0  0  0  0  0  0
    2.5060    0.4480   -2.3220 C   0  0  0  0  0  0  0  0  0  0  0  0
    2.1560   -0.5840   -1.3230 C   0  0  0  0  0  0  0  0  0  0  0  0
    1.9360   -0.1670    0.0630 C   0  0  2  0  0  0  0  0  0  0  0  0
    1.6050   -1.3380    0.8970 N   0  0  0  0  0  0  0  0  0  0  0  0
    0.8860    0.8330    0.2680 C   0  0  0  0  0  0  0  0  0  0  0  0
    0.9350    2.0420   -0.1280 O   0  0  0  0  0  0  0  0  0  0  0  0
   -1.1450    1.3430   -3.1090 H   0  0  0  0  0  0  0  0  0  0  0  0
   -0.2330   -0.1660   -3.2820 H   0  0  0  0  0  0  0  0  0  0  0  0
   -0.1220    1.0880   -4.5450 H   0  0  0  0  0  0  0  0  0  0  0  0
    3.4980    0.9400   -2.1050 H   0  0  0  0  0  0  0  0  0  0  0  0
    2.7190   -0.0290   -3.3400 H   0  0  0  0  0  0  0  0  0  0  0  0
    1.2200   -1.0850   -1.7120 H   0  0  0  0  0  0  0  0  0  0  0  0
    3.0000   -1.3360   -1.3510 H   0  0  0  0  0  0  0  0  0  0  0  0
    2.8710    0.2530    0.5300 H   0  0  0  0  0  0  0  0  0  0  0  0
    0.8120   -1.9130    0.5620 H   0  0  0  0  0  0  0  0  0  0  0  0
   -3.3890   -2.3270    0.0560 N   0  0  0  0  0  0  0  0  0  0  0  0
   -2.8040   -1.0610   -0.1970 C   0  0  0  0  0  0  0  0  0  0  0  0
   -1.7490   -1.0410   -0.8710 O   0  0  0  0  0  0  0  0  0  0  0  0
   -3.3920    0.1720    0.2930 C   0  0  0  0  0  0  0  0  0  0  0  0
   -2.5740    1.3900    0.3180 C   0  0  0  0  0  0  0  0  0  0  0  0
   -1.3720    1.4540    1.1810 C   0  0  2  0  0  0  0  0  0  0  0  0
   -0.3430    0.5040    0.9710 N   0  0  0  0  0  0  0  0  0  0  0  0
   -1.7630    1.5910    2.6160 C   0  0  0  0  0  0  0  0  0  0  0  0
   -2.6710    2.4180    2.8800 O   0  0  0  0  0  0  0  0  0  0  0  0
   -1.1750    0.8590    3.6180 O   0  0  0  0  0  0  0  0  0  0  0  0
   -3.7230   -2.8770   -0.7610 H   0  0  0  0  0  0  0  0  0  0  0  0
   -3.5110   -2.7490    0.9990 H   0  0  0  0  0  0  0  0  0  0  0  0
   -4.3510    0.4390   -0.2540 H   0  0  0  0  0  0  0  0  0  0  0  0
   -3.7840   -0.0440    1.3350 H   0  0  0  0  0  0  0  0  0  0  0  0
   -3.2280    2.2620    0.6250 H   0  0  0  0  0  0  0  0  0  0  0  0
   -2.2370    1.7020   -0.7180 H   0  0  0  0  0  0  0  0  0  0  0  0
   -0.9110    2.4730    0.9320 H   0  0  0  0  0  0  0  0  0  0  0  0
   -0.3710   -0.4980    1.3190 H   0  0  0  0  0  0  0  0  0  0  0  0
  1  7  1  0  0  0  0
  2  9  1  0  0  0  0
  2  1  1  0  0  0  0
  3 10  1  6  0  0  0
  3  2  1  0  0  0  0
  3  4  1  0  0  0  0
  4 12  1  0  0  0  0
  5  6  2  0  0  0  0
  5  3  1  0  0  0  0
  8  2  1  0  0  0  0
 11  4  1  0  0  0  0
 13 22  1  0  0  0  0
 13 21  1  0  0  0  0
 13 14  1  0  0  0  0
 14 15  1  0  0  0  0
 15 24  1  0  0  0  0
 15 16  1  0  0  0  0
 16 17  1  0  0  0  0
 17 19  1  0  0  0  0
 17 28  1  1  0  0  0
 17 18  1  0  0  0  0
 18  5  1  0  0  0  0
 19 36  1  0  0  0  0
 20 19  2  0  0  0  0
 23 13  1  0  0  0  0
 25 15  1  0  0  0  0
 26 16  1  0  0  0  0
 27 16  1  0  0  0  0
 29 18  1  0  0  0  0
 30 41  1  0  0  0  0
 31 30  1  0  0  0  0
 31 33  1  0  0  0  0
 32 31  2  0  0  0  0
 33 34  1  0  0  0  0
 33 43  1  0  0  0  0
 34 44  1  0  0  0  0
 34 35  1  0  0  0  0
 35 46  1  6  0  0  0
 35 37  1  0  0  0  0
 36 35  1  0  0  0  0
 36 47  1  0  0  0  0
 37 38  2  0  0  0  0
 37 39  1  0  0  0  0
 40 30  1  0  0  0  0
 42 33  1  0  0  0  0
 45 34  1  0  0  0  0
M  END
$$$$
