SMS.pdb
 OpenBabel07022419093D

 41 40  0  0  1  0  0  0  0  0999 V2000
    0.0110   -4.1940   -0.1210 O   0  0  0  0  0  0  0  0  0  0  0  0
    0.6450   -3.5940   -1.2050 C   0  0  0  0  0  0  0  0  0  0  0  0
    2.0870   -3.2720   -0.8760 C   0  0  2  0  0  0  0  0  0  0  0  0
    2.7300   -4.5260   -0.5530 N   0  0  0  0  0  0  0  0  0  0  0  0
    2.2200   -2.3640    0.2700 C   0  0  0  0  0  0  0  0  0  0  0  0
    2.8230   -2.7370    1.3250 O   0  0  0  0  0  0  0  0  0  0  0  0
   -0.7900   -4.6610   -0.4620 H   0  0  0  0  0  0  0  0  0  0  0  0
    0.6150   -4.2850   -2.0510 H   0  0  0  0  0  0  0  0  0  0  0  0
    0.0650   -2.7000   -1.4760 H   0  0  0  0  0  0  0  0  0  0  0  0
    2.5870   -2.8130   -1.7500 H   0  0  0  0  0  0  0  0  0  0  0  0
    2.6560   -4.6580    0.4810 H   0  0  0  0  0  0  0  0  0  0  0  0
    2.2430   -5.3260   -1.0030 H   0  0  0  0  0  0  0  0  0  0  0  0
    0.6980    4.0400    1.2160 C   0  0  0  0  0  0  0  0  0  0  0  0
    1.6170    3.0980    2.3910 S   0  0  0  0  0  0  0  0  0  0  0  0
    2.9450    2.1160    1.7400 C   0  0  0  0  0  0  0  0  0  0  0  0
    2.6150    0.9900    0.8600 C   0  0  0  0  0  0  0  0  0  0  0  0
    1.7970   -0.1290    1.3520 C   0  0  2  0  0  0  0  0  0  0  0  0
    1.6770   -1.0640    0.2110 N   0  0  0  0  0  0  0  0  0  0  0  0
    0.4710    0.1170    1.8730 C   0  0  0  0  0  0  0  0  0  0  0  0
    0.1480    0.8150    2.8700 O   0  0  0  0  0  0  0  0  0  0  0  0
    0.3200    3.5020    0.3360 H   0  0  0  0  0  0  0  0  0  0  0  0
   -0.1660    4.5150    1.7120 H   0  0  0  0  0  0  0  0  0  0  0  0
    1.3640    4.8540    0.8040 H   0  0  0  0  0  0  0  0  0  0  0  0
    3.5980    2.8260    1.1410 H   0  0  0  0  0  0  0  0  0  0  0  0
    3.6620    1.7910    2.5580 H   0  0  0  0  0  0  0  0  0  0  0  0
    2.2100    1.3700   -0.1150 H   0  0  0  0  0  0  0  0  0  0  0  0
    3.6000    0.5250    0.5340 H   0  0  0  0  0  0  0  0  0  0  0  0
    2.3690   -0.6800    2.1450 H   0  0  0  0  0  0  0  0  0  0  0  0
    1.1860   -0.7680   -0.6590 H   0  0  0  0  0  0  0  0  0  0  0  0
   -2.2540    1.6410    0.3330 O   0  0  0  0  0  0  0  0  0  0  0  0
   -2.8490    0.4000    0.5900 C   0  0  0  0  0  0  0  0  0  0  0  0
   -2.0170   -0.2920    1.6590 C   0  0  2  0  0  0  0  0  0  0  0  0
   -0.6460   -0.4860    1.2040 N   0  0  0  0  0  0  0  0  0  0  0  0
   -2.5850   -1.5950    2.0440 C   0  0  0  0  0  0  0  0  0  0  0  0
   -3.7640   -1.6890    2.4710 O   0  0  0  0  0  0  0  0  0  0  0  0
   -1.8560   -2.7710    1.9570 O   0  0  0  0  0  0  0  0  0  0  0  0
   -2.5770    2.3180    0.9710 H   0  0  0  0  0  0  0  0  0  0  0  0
   -3.8700    0.5160    1.0000 H   0  0  0  0  0  0  0  0  0  0  0  0
   -2.8070   -0.2590   -0.3050 H   0  0  0  0  0  0  0  0  0  0  0  0
   -2.0310    0.3630    2.5500 H   0  0  0  0  0  0  0  0  0  0  0  0
   -0.5420   -1.0960    0.3580 H   0  0  0  0  0  0  0  0  0  0  0  0
  2  3  1  0  0  0  0
  2  1  1  0  0  0  0
  3 10  1  6  0  0  0
  3  4  1  0  0  0  0
  3  5  1  0  0  0  0
  4 11  1  0  0  0  0
  5  6  2  0  0  0  0
  7  1  1  0  0  0  0
  8  2  1  0  0  0  0
  9  2  1  0  0  0  0
 12  4  1  0  0  0  0
 13 22  1  0  0  0  0
 13 14  1  0  0  0  0
 15 14  1  0  0  0  0
 15 25  1  0  0  0  0
 16 17  1  0  0  0  0
 16 15  1  0  0  0  0
 17 19  1  0  0  0  0
 17 28  1  1  0  0  0
 18  5  1  0  0  0  0
 18 17  1  0  0  0  0
 19 20  2  0  0  0  0
 21 13  1  0  0  0  0
 23 13  1  0  0  0  0
 24 15  1  0  0  0  0
 26 16  1  0  0  0  0
 27 16  1  0  0  0  0
 29 18  1  0  0  0  0
 30 31  1  0  0  0  0
 30 37  1  0  0  0  0
 31 38  1  0  0  0  0
 31 32  1  0  0  0  0
 32 34  1  0  0  0  0
 32 40  1  1  0  0  0
 33 32  1  0  0  0  0
 33 19  1  0  0  0  0
 34 35  1  0  0  0  0
 36 34  2  0  0  0  0
 39 31  1  0  0  0  0
 41 33  1  0  0  0  0
M  END
$$$$
