SMV.pdb
 OpenBabel07022419093D

 46 45  0  0  1  0  0  0  0  0999 V2000
   -2.6850   -3.8350   -0.3590 O   0  0  0  0  0  0  0  0  0  0  0  0
   -1.5560   -3.2770    0.2390 C   0  0  0  0  0  0  0  0  0  0  0  0
   -0.3440   -3.8860   -0.4730 C   0  0  2  0  0  0  0  0  0  0  0  0
   -0.4170   -5.3020   -0.2760 N   0  0  0  0  0  0  0  0  0  0  0  0
    0.8540   -3.3570    0.2200 C   0  0  0  0  0  0  0  0  0  0  0  0
    1.5980   -4.1250    0.8400 O   0  0  0  0  0  0  0  0  0  0  0  0
   -3.1890   -4.3260    0.3370 H   0  0  0  0  0  0  0  0  0  0  0  0
   -1.4840   -3.4850    1.3190 H   0  0  0  0  0  0  0  0  0  0  0  0
   -1.5230   -2.1790    0.0800 H   0  0  0  0  0  0  0  0  0  0  0  0
   -0.3810   -3.5840   -1.5380 H   0  0  0  0  0  0  0  0  0  0  0  0
   -1.2820   -5.7460   -0.6100 H   0  0  0  0  0  0  0  0  0  0  0  0
   -0.3320   -5.4870    0.7440 H   0  0  0  0  0  0  0  0  0  0  0  0
    1.1680    1.3630   -3.1740 C   0  0  0  0  0  0  0  0  0  0  0  0
    1.5880   -0.0850   -2.1720 S   0  0  0  0  0  0  0  0  0  0  0  0
    2.8510    0.3790   -0.9700 C   0  0  0  0  0  0  0  0  0  0  0  0
    3.2720   -0.7430   -0.0890 C   0  0  0  0  0  0  0  0  0  0  0  0
    2.2320   -1.3540    0.7750 C   0  0  2  0  0  0  0  0  0  0  0  0
    1.1060   -1.9380    0.1390 N   0  0  0  0  0  0  0  0  0  0  0  0
    1.7410   -0.3060    1.7160 C   0  0  0  0  0  0  0  0  0  0  0  0
    2.5670    0.3460    2.3930 O   0  0  0  0  0  0  0  0  0  0  0  0
    0.4320    1.0250   -3.9450 H   0  0  0  0  0  0  0  0  0  0  0  0
    0.6390    2.1030   -2.5430 H   0  0  0  0  0  0  0  0  0  0  0  0
    2.0620    1.8240   -3.6210 H   0  0  0  0  0  0  0  0  0  0  0  0
    2.5460    1.2930   -0.3880 H   0  0  0  0  0  0  0  0  0  0  0  0
    3.7230    0.7590   -1.5820 H   0  0  0  0  0  0  0  0  0  0  0  0
    4.0430   -0.3070    0.6180 H   0  0  0  0  0  0  0  0  0  0  0  0
    3.8660   -1.5070   -0.6560 H   0  0  0  0  0  0  0  0  0  0  0  0
    2.7560   -2.1290    1.3950 H   0  0  0  0  0  0  0  0  0  0  0  0
    0.4380   -1.3490   -0.3860 H   0  0  0  0  0  0  0  0  0  0  0  0
   -1.2890    3.0750    3.2430 C   0  0  0  0  0  0  0  0  0  0  0  0
   -0.8940    2.1010    2.1500 C   0  0  0  0  0  0  0  0  0  0  0  0
   -2.1730    1.5710    1.5400 C   0  0  0  0  0  0  0  0  0  0  0  0
   -0.0790    1.0080    2.7970 C   0  0  2  0  0  0  0  0  0  0  0  0
    0.3720    0.0050    1.8960 N   0  0  0  0  0  0  0  0  0  0  0  0
   -0.9310    0.3780    3.8290 C   0  0  0  0  0  0  0  0  0  0  0  0
   -1.1260   -0.8580    3.7740 O   0  0  0  0  0  0  0  0  0  0  0  0
   -1.5360    1.0690    4.8640 O   0  0  0  0  0  0  0  0  0  0  0  0
   -2.3150    2.8870    3.6190 H   0  0  0  0  0  0  0  0  0  0  0  0
   -0.5490    3.0290    4.0600 H   0  0  0  0  0  0  0  0  0  0  0  0
   -1.2560    4.1360    2.8560 H   0  0  0  0  0  0  0  0  0  0  0  0
   -0.2990    2.6890    1.4160 H   0  0  0  0  0  0  0  0  0  0  0  0
   -2.3250    2.0710    0.5640 H   0  0  0  0  0  0  0  0  0  0  0  0
   -3.0670    1.8340    2.1630 H   0  0  0  0  0  0  0  0  0  0  0  0
   -2.1780    0.4630    1.4560 H   0  0  0  0  0  0  0  0  0  0  0  0
    0.7530    1.5150    3.3390 H   0  0  0  0  0  0  0  0  0  0  0  0
   -0.3390   -0.5220    1.3450 H   0  0  0  0  0  0  0  0  0  0  0  0
  1  2  1  0  0  0  0
  1  7  1  0  0  0  0
  2  8  1  0  0  0  0
  3 10  1  6  0  0  0
  3  4  1  0  0  0  0
  3  5  1  0  0  0  0
  3  2  1  0  0  0  0
  4 12  1  0  0  0  0
  5  6  2  0  0  0  0
  9  2  1  0  0  0  0
 11  4  1  0  0  0  0
 13 22  1  0  0  0  0
 13 14  1  0  0  0  0
 14 15  1  0  0  0  0
 15 24  1  0  0  0  0
 15 16  1  0  0  0  0
 16 26  1  0  0  0  0
 16 17  1  0  0  0  0
 17 28  1  1  0  0  0
 17 19  1  0  0  0  0
 18  5  1  0  0  0  0
 18 17  1  0  0  0  0
 19 34  1  0  0  0  0
 19 20  2  0  0  0  0
 21 13  1  0  0  0  0
 23 13  1  0  0  0  0
 25 15  1  0  0  0  0
 27 16  1  0  0  0  0
 29 18  1  0  0  0  0
 30 38  1  0  0  0  0
 30 39  1  0  0  0  0
 31 33  1  0  0  0  0
 31 30  1  0  0  0  0
 32 31  1  0  0  0  0
 32 43  1  0  0  0  0
 33 45  1  1  0  0  0
 33 35  1  0  0  0  0
 34 33  1  0  0  0  0
 35 37  1  0  0  0  0
 36 35  2  0  0  0  0
 40 30  1  0  0  0  0
 41 31  1  0  0  0  0
 42 32  1  0  0  0  0
 44 32  1  0  0  0  0
 46 34  1  0  0  0  0
M  END
$$$$
