SMY.pdb
 OpenBabel07022419093D

 51 51  0  0  1  0  0  0  0  0999 V2000
    2.8960   -2.1930    5.2760 O   0  0  0  0  0  0  0  0  0  0  0  0
    2.1440   -1.7060    4.2230 C   0  0  0  0  0  0  0  0  0  0  0  0
    2.3380   -0.2050    4.1000 C   0  0  2  0  0  0  0  0  0  0  0  0
    1.9170    0.4310    5.3230 N   0  0  0  0  0  0  0  0  0  0  0  0
    1.5620    0.3180    2.9450 C   0  0  0  0  0  0  0  0  0  0  0  0
    0.6610    1.2030    3.1050 O   0  0  0  0  0  0  0  0  0  0  0  0
    3.8100   -2.3760    4.9760 H   0  0  0  0  0  0  0  0  0  0  0  0
    2.4830   -2.1680    3.2800 H   0  0  0  0  0  0  0  0  0  0  0  0
    1.0730   -1.9650    4.3720 H   0  0  0  0  0  0  0  0  0  0  0  0
    3.4210   -0.0190    3.9660 H   0  0  0  0  0  0  0  0  0  0  0  0
    1.5760   -0.2710    6.0040 H   0  0  0  0  0  0  0  0  0  0  0  0
    1.2720    1.2060    5.1290 H   0  0  0  0  0  0  0  0  0  0  0  0
    4.0560    1.1010   -3.0540 C   0  0  0  0  0  0  0  0  0  0  0  0
    2.9360    2.4330   -2.5330 S   0  0  0  0  0  0  0  0  0  0  0  0
    1.5290    1.6570   -1.6520 C   0  0  0  0  0  0  0  0  0  0  0  0
    2.0350    1.0420   -0.3890 C   0  0  0  0  0  0  0  0  0  0  0  0
    1.0090    0.3890    0.4780 C   0  0  2  0  0  0  0  0  0  0  0  0
    1.7810   -0.1310    1.6330 N   0  0  0  0  0  0  0  0  0  0  0  0
    0.3070   -0.7580   -0.1100 C   0  0  0  0  0  0  0  0  0  0  0  0
    0.5840   -1.9160    0.3180 O   0  0  0  0  0  0  0  0  0  0  0  0
    4.3050    0.4210   -2.2160 H   0  0  0  0  0  0  0  0  0  0  0  0
    4.9990    1.5910   -3.4000 H   0  0  0  0  0  0  0  0  0  0  0  0
    3.5640    0.5530   -3.8830 H   0  0  0  0  0  0  0  0  0  0  0  0
    1.1320    0.8330   -2.2880 H   0  0  0  0  0  0  0  0  0  0  0  0
    0.7390    2.3760   -1.4280 H   0  0  0  0  0  0  0  0  0  0  0  0
    2.5570    1.8380    0.2220 H   0  0  0  0  0  0  0  0  0  0  0  0
    2.8510    0.2910   -0.5760 H   0  0  0  0  0  0  0  0  0  0  0  0
    0.2690    1.1450    0.8590 H   0  0  0  0  0  0  0  0  0  0  0  0
    2.4950   -0.8510    1.4120 H   0  0  0  0  0  0  0  0  0  0  0  0
   -4.5530   -1.2490    3.8590 O   0  0  0  0  0  0  0  0  0  0  0  0
   -4.1310   -1.3910    2.5430 C   0  0  0  0  0  0  0  0  0  0  0  0
   -3.8570   -0.3120    1.7290 C   0  0  0  0  0  0  0  0  0  0  0  0
   -3.4400   -0.4430    0.4260 C   0  0  0  0  0  0  0  0  0  0  0  0
   -3.2720   -1.6890   -0.1340 C   0  0  0  0  0  0  0  0  0  0  0  0
   -2.8170   -1.8470   -1.5550 C   0  0  0  0  0  0  0  0  0  0  0  0
   -1.3140   -1.9190   -1.6520 C   0  0  2  0  0  0  0  0  0  0  0  0
   -0.6770   -0.7170   -1.1290 N   0  0  0  0  0  0  0  0  0  0  0  0
   -0.9800   -2.0400   -3.0940 C   0  0  0  0  0  0  0  0  0  0  0  0
   -0.2560   -1.1730   -3.6430 O   0  0  0  0  0  0  0  0  0  0  0  0
   -3.5380   -2.7850    0.6560 C   0  0  0  0  0  0  0  0  0  0  0  0
   -3.9550   -2.6280    1.9560 C   0  0  0  0  0  0  0  0  0  0  0  0
   -1.4330   -3.0810   -3.8890 O   0  0  0  0  0  0  0  0  0  0  0  0
   -3.8600   -1.3250    4.6180 H   0  0  0  0  0  0  0  0  0  0  0  0
   -3.9970    0.6720    2.1950 H   0  0  0  0  0  0  0  0  0  0  0  0
   -3.2400    0.4380   -0.1650 H   0  0  0  0  0  0  0  0  0  0  0  0
   -3.2420   -2.8040   -1.9160 H   0  0  0  0  0  0  0  0  0  0  0  0
   -3.2290   -1.0410   -2.1680 H   0  0  0  0  0  0  0  0  0  0  0  0
   -0.9320   -2.8300   -1.1620 H   0  0  0  0  0  0  0  0  0  0  0  0
   -0.9460    0.2200   -1.4900 H   0  0  0  0  0  0  0  0  0  0  0  0
   -3.4040   -3.7620    0.2070 H   0  0  0  0  0  0  0  0  0  0  0  0
   -4.1610   -3.5170    2.5700 H   0  0  0  0  0  0  0  0  0  0  0  0
  2  9  1  0  0  0  0
  2  1  1  0  0  0  0
  3 10  1  6  0  0  0
  3  2  1  0  0  0  0
  3  4  1  0  0  0  0
  4 11  1  0  0  0  0
  5  6  2  0  0  0  0
  5  3  1  0  0  0  0
  7  1  1  0  0  0  0
  8  2  1  0  0  0  0
 12  4  1  0  0  0  0
 13 14  1  0  0  0  0
 13 21  1  0  0  0  0
 14 15  1  0  0  0  0
 15 25  1  0  0  0  0
 15 16  1  0  0  0  0
 16 26  1  0  0  0  0
 16 17  1  0  0  0  0
 17 28  1  1  0  0  0
 17 18  1  0  0  0  0
 18  5  1  0  0  0  0
 19 20  2  0  0  0  0
 19 17  1  0  0  0  0
 22 13  1  0  0  0  0
 23 13  1  0  0  0  0
 24 15  1  0  0  0  0
 27 16  1  0  0  0  0
 29 18  1  0  0  0  0
 30 43  1  0  0  0  0
 31 30  1  0  0  0  0
 32 44  1  0  0  0  0
 32 31  2  0  0  0  0
 33 32  1  0  0  0  0
 34 33  2  0  0  0  0
 34 40  1  0  0  0  0
 35 34  1  0  0  0  0
 36 35  1  0  0  0  0
 36 48  1  1  0  0  0
 36 37  1  0  0  0  0
 37 19  1  0  0  0  0
 38 36  1  0  0  0  0
 39 38  1  0  0  0  0
 40 41  2  0  0  0  0
 41 31  1  0  0  0  0
 41 51  1  0  0  0  0
 42 38  2  0  0  0  0
 45 33  1  0  0  0  0
 46 35  1  0  0  0  0
 47 35  1  0  0  0  0
 49 37  1  0  0  0  0
 50 40  1  0  0  0  0
M  END
$$$$
