SNC.pdb
 OpenBabel07022419073D

 38 37  0  0  1  0  0  0  0  0999 V2000
   -0.7270   -4.4920    1.6430 O   0  0  0  0  0  0  0  0  0  0  0  0
   -0.2520   -4.4980    0.3340 C   0  0  0  0  0  0  0  0  0  0  0  0
    1.2550   -4.2180    0.3680 C   0  0  2  0  0  0  0  0  0  0  0  0
    1.9590   -5.2100    1.1130 N   0  0  0  0  0  0  0  0  0  0  0  0
    1.4860   -2.8430    0.9000 C   0  0  0  0  0  0  0  0  0  0  0  0
    2.1920   -2.5910    1.8970 O   0  0  0  0  0  0  0  0  0  0  0  0
   -1.6740   -4.1780    1.6600 H   0  0  0  0  0  0  0  0  0  0  0  0
   -0.4510   -5.4600   -0.1740 H   0  0  0  0  0  0  0  0  0  0  0  0
   -0.7720   -3.6710   -0.2020 H   0  0  0  0  0  0  0  0  0  0  0  0
    1.6460   -4.2190   -0.6640 H   0  0  0  0  0  0  0  0  0  0  0  0
    2.4200   -4.8660    1.9610 H   0  0  0  0  0  0  0  0  0  0  0  0
    1.3190   -6.0090    1.2640 H   0  0  0  0  0  0  0  0  0  0  0  0
    3.2400   -0.6020   -2.2420 N   0  0  0  0  0  0  0  0  0  0  0  0
    2.9720   -0.2210   -0.9010 C   0  0  0  0  0  0  0  0  0  0  0  0
    3.8820   -0.3850   -0.0430 O   0  0  0  0  0  0  0  0  0  0  0  0
    1.6840    0.3520   -0.4630 C   0  0  0  0  0  0  0  0  0  0  0  0
    1.0580   -0.3990    0.6950 C   0  0  2  0  0  0  0  0  0  0  0  0
    0.8490   -1.7680    0.2050 N   0  0  0  0  0  0  0  0  0  0  0  0
   -0.2540    0.2530    0.9650 C   0  0  0  0  0  0  0  0  0  0  0  0
   -1.3420   -0.3830    0.7710 O   0  0  0  0  0  0  0  0  0  0  0  0
    3.9410   -1.3420   -2.4200 H   0  0  0  0  0  0  0  0  0  0  0  0
    2.7620   -0.1730   -3.0570 H   0  0  0  0  0  0  0  0  0  0  0  0
    1.0250    0.3510   -1.3560 H   0  0  0  0  0  0  0  0  0  0  0  0
    1.7970    1.4350   -0.1820 H   0  0  0  0  0  0  0  0  0  0  0  0
    1.7040   -0.4130    1.5790 H   0  0  0  0  0  0  0  0  0  0  0  0
    0.2540   -1.9550   -0.6330 H   0  0  0  0  0  0  0  0  0  0  0  0
   -0.3260    1.5880    1.4430 N   0  0  0  0  0  0  0  0  0  0  0  0
   -1.5630    2.2730    1.7260 C   0  0  1  0  0  0  0  0  0  0  0  0
   -1.6200    2.7840    3.1720 C   0  0  0  0  0  0  0  0  0  0  0  0
   -3.2190    3.6180    3.3960 S   0  0  0  0  0  0  0  0  0  0  0  0
   -1.7320    3.4340    0.7900 C   0  0  0  0  0  0  0  0  0  0  0  0
   -0.8730    3.7140   -0.0720 O   0  0  0  0  0  0  0  0  0  0  0  0
   -2.8970    4.1910    0.9280 O   0  0  0  0  0  0  0  0  0  0  0  0
    0.5930    2.0750    1.5860 H   0  0  0  0  0  0  0  0  0  0  0  0
   -2.4450    1.6460    1.5660 H   0  0  0  0  0  0  0  0  0  0  0  0
   -0.7830    3.4870    3.3520 H   0  0  0  0  0  0  0  0  0  0  0  0
   -1.5870    1.9410    3.8830 H   0  0  0  0  0  0  0  0  0  0  0  0
   -3.9880    2.9670    4.3750 H   0  0  0  0  0  0  0  0  0  0  0  0
  1  7  1  0  0  0  0
  2  3  1  0  0  0  0
  2  1  1  0  0  0  0
  3 10  1  6  0  0  0
  3  5  1  0  0  0  0
  3  4  1  0  0  0  0
  4 12  1  0  0  0  0
  4 11  1  0  0  0  0
  5  6  2  0  0  0  0
  8  2  1  0  0  0  0
  9  2  1  0  0  0  0
 13 14  1  0  0  0  0
 14 16  1  0  0  0  0
 14 15  2  0  0  0  0
 16 24  1  0  0  0  0
 16 17  1  0  0  0  0
 17 19  1  0  0  0  0
 17 25  1  1  0  0  0
 18 17  1  0  0  0  0
 18  5  1  0  0  0  0
 19 27  1  0  0  0  0
 20 19  2  0  0  0  0
 21 13  1  0  0  0  0
 22 13  1  0  0  0  0
 23 16  1  0  0  0  0
 26 18  1  0  0  0  0
 27 34  1  0  0  0  0
 27 28  1  0  0  0  0
 28 35  1  6  0  0  0
 28 29  1  0  0  0  0
 29 36  1  0  0  0  0
 29 30  1  0  0  0  0
 29 37  1  0  0  0  0
 30 38  1  0  0  0  0
 31 33  1  0  0  0  0
 31 28  1  0  0  0  0
 32 31  2  0  0  0  0
M  END
$$$$
