SNF.pdb
 OpenBabel07022419073D

 47 47  0  0  1  0  0  0  0  0999 V2000
    0.8400   -2.7520    3.8080 O   0  0  0  0  0  0  0  0  0  0  0  0
    1.7550   -3.5270    3.0700 C   0  0  0  0  0  0  0  0  0  0  0  0
    3.0690   -2.7870    3.0010 C   0  0  2  0  0  0  0  0  0  0  0  0
    3.6070   -2.5500    4.3090 N   0  0  0  0  0  0  0  0  0  0  0  0
    2.9600   -1.5100    2.2750 C   0  0  0  0  0  0  0  0  0  0  0  0
    3.2500   -0.4500    2.8740 O   0  0  0  0  0  0  0  0  0  0  0  0
   -0.0390   -2.8520    3.3450 H   0  0  0  0  0  0  0  0  0  0  0  0
    1.3540   -3.7910    2.0930 H   0  0  0  0  0  0  0  0  0  0  0  0
    1.9120   -4.4600    3.6470 H   0  0  0  0  0  0  0  0  0  0  0  0
    3.7970   -3.4240    2.4320 H   0  0  0  0  0  0  0  0  0  0  0  0
    2.9190   -2.1050    4.9490 H   0  0  0  0  0  0  0  0  0  0  0  0
    3.9820   -3.4220    4.7430 H   0  0  0  0  0  0  0  0  0  0  0  0
    3.9830    1.5390   -2.7730 N   0  0  0  0  0  0  0  0  0  0  0  0
    3.3120    1.3340   -1.5090 C   0  0  0  0  0  0  0  0  0  0  0  0
    2.7360    2.3260   -0.9990 O   0  0  0  0  0  0  0  0  0  0  0  0
    3.3370   -0.0020   -0.8930 C   0  0  0  0  0  0  0  0  0  0  0  0
    2.4680   -0.0810    0.3000 C   0  0  2  0  0  0  0  0  0  0  0  0
    2.5480   -1.3970    0.9380 N   0  0  0  0  0  0  0  0  0  0  0  0
    1.0150    0.1740   -0.0360 C   0  0  0  0  0  0  0  0  0  0  0  0
    0.5810    1.2030   -0.5750 O   0  0  0  0  0  0  0  0  0  0  0  0
    4.1910    2.4960   -3.0910 H   0  0  0  0  0  0  0  0  0  0  0  0
    4.2490    0.7270   -3.3450 H   0  0  0  0  0  0  0  0  0  0  0  0
    4.4000   -0.1580   -0.5490 H   0  0  0  0  0  0  0  0  0  0  0  0
    3.0780   -0.7370   -1.6900 H   0  0  0  0  0  0  0  0  0  0  0  0
    2.7580    0.6680    1.0390 H   0  0  0  0  0  0  0  0  0  0  0  0
    2.3030   -2.2170    0.3900 H   0  0  0  0  0  0  0  0  0  0  0  0
    0.0280   -0.8240    0.2740 N   0  0  0  0  0  0  0  0  0  0  0  0
   -1.3720   -0.6600   -0.0270 C   0  0  1  0  0  0  0  0  0  0  0  0
   -2.0120    0.1060    1.0710 C   0  0  0  0  0  0  0  0  0  0  0  0
   -3.4340    0.3730    0.9500 C   0  0  0  0  0  0  0  0  0  0  0  0
   -3.9160    1.5030    0.3390 C   0  0  0  0  0  0  0  0  0  0  0  0
   -5.2920    1.7300    0.2400 C   0  0  0  0  0  0  0  0  0  0  0  0
   -6.1710    0.8220    0.7540 C   0  0  0  0  0  0  0  0  0  0  0  0
   -5.7180   -0.3080    1.3660 C   0  0  0  0  0  0  0  0  0  0  0  0
   -4.3390   -0.5250    1.4600 C   0  0  0  0  0  0  0  0  0  0  0  0
   -1.6750   -0.2370   -1.3930 C   0  0  0  0  0  0  0  0  0  0  0  0
   -2.8510    0.0070   -1.7170 O   0  0  0  0  0  0  0  0  0  0  0  0
   -0.6850   -0.1070   -2.3270 O   0  0  0  0  0  0  0  0  0  0  0  0
    0.3860   -1.6920    0.7420 H   0  0  0  0  0  0  0  0  0  0  0  0
   -1.7740   -1.7410   -0.0050 H   0  0  0  0  0  0  0  0  0  0  0  0
   -1.4910    1.0810    1.2430 H   0  0  0  0  0  0  0  0  0  0  0  0
   -1.7970   -0.4710    2.0210 H   0  0  0  0  0  0  0  0  0  0  0  0
   -3.2850    2.2660   -0.0920 H   0  0  0  0  0  0  0  0  0  0  0  0
   -5.6620    2.6280   -0.2460 H   0  0  0  0  0  0  0  0  0  0  0  0
   -7.2540    0.9890    0.6820 H   0  0  0  0  0  0  0  0  0  0  0  0
   -6.4470   -1.0030    1.7610 H   0  0  0  0  0  0  0  0  0  0  0  0
   -4.0550   -1.4460    1.9590 H   0  0  0  0  0  0  0  0  0  0  0  0
  2  9  1  0  0  0  0
  2  1  1  0  0  0  0
  3 10  1  6  0  0  0
  3  2  1  0  0  0  0
  3  4  1  0  0  0  0
  4 12  1  0  0  0  0
  4 11  1  0  0  0  0
  5  6  2  0  0  0  0
  5  3  1  0  0  0  0
  7  1  1  0  0  0  0
  8  2  1  0  0  0  0
 13 14  1  0  0  0  0
 14 15  2  0  0  0  0
 14 16  1  0  0  0  0
 16 23  1  0  0  0  0
 16 17  1  0  0  0  0
 17 18  1  0  0  0  0
 17 25  1  1  0  0  0
 18  5  1  0  0  0  0
 19 27  1  0  0  0  0
 19 17  1  0  0  0  0
 20 19  2  0  0  0  0
 21 13  1  0  0  0  0
 22 13  1  0  0  0  0
 24 16  1  0  0  0  0
 26 18  1  0  0  0  0
 27 39  1  0  0  0  0
 28 40  1  1  0  0  0
 28 27  1  0  0  0  0
 28 29  1  0  0  0  0
 29 41  1  0  0  0  0
 29 42  1  0  0  0  0
 30 29  1  0  0  0  0
 30 35  1  0  0  0  0
 31 30  2  0  0  0  0
 32 31  1  0  0  0  0
 32 33  2  0  0  0  0
 33 34  1  0  0  0  0
 34 35  2  0  0  0  0
 34 46  1  0  0  0  0
 35 47  1  0  0  0  0
 36 28  1  0  0  0  0
 37 36  1  0  0  0  0
 38 36  2  0  0  0  0
 43 31  1  0  0  0  0
 44 32  1  0  0  0  0
 45 33  1  0  0  0  0
M  END
$$$$
