SNG.pdb
 OpenBabel07022419073D

 34 33  0  0  1  0  0  0  0  0999 V2000
   -2.1720   -2.9240    2.8560 O   0  0  0  0  0  0  0  0  0  0  0  0
   -1.2700   -1.9360    2.4640 C   0  0  0  0  0  0  0  0  0  0  0  0
    0.0380   -2.5970    2.0340 C   0  0  2  0  0  0  0  0  0  0  0  0
    0.5850   -3.3480    3.1440 N   0  0  0  0  0  0  0  0  0  0  0  0
    0.9930   -1.6070    1.5020 C   0  0  0  0  0  0  0  0  0  0  0  0
    2.1580   -1.4660    1.9940 O   0  0  0  0  0  0  0  0  0  0  0  0
   -2.6770   -3.3040    2.1140 H   0  0  0  0  0  0  0  0  0  0  0  0
   -1.6660   -1.2740    1.6970 H   0  0  0  0  0  0  0  0  0  0  0  0
   -1.0720   -1.3290    3.3820 H   0  0  0  0  0  0  0  0  0  0  0  0
   -0.1880   -3.3310    1.2260 H   0  0  0  0  0  0  0  0  0  0  0  0
   -0.1730   -4.0140    3.4550 H   0  0  0  0  0  0  0  0  0  0  0  0
    1.3400   -3.9820    2.7570 H   0  0  0  0  0  0  0  0  0  0  0  0
    1.6380   -2.6460   -1.9840 N   0  0  0  0  0  0  0  0  0  0  0  0
    2.4060   -1.5440   -1.5420 C   0  0  0  0  0  0  0  0  0  0  0  0
    3.5600   -1.7180   -1.1180 O   0  0  0  0  0  0  0  0  0  0  0  0
    1.8320   -0.1830   -1.5850 C   0  0  0  0  0  0  0  0  0  0  0  0
    1.5920    0.2190   -0.1260 C   0  0  2  0  0  0  0  0  0  0  0  0
    0.6750   -0.7540    0.4120 N   0  0  0  0  0  0  0  0  0  0  0  0
    1.0070    1.5900   -0.1240 C   0  0  0  0  0  0  0  0  0  0  0  0
    1.6720    2.5630   -0.5600 O   0  0  0  0  0  0  0  0  0  0  0  0
    1.9580   -3.6420   -1.8710 H   0  0  0  0  0  0  0  0  0  0  0  0
    0.7250   -2.5110   -2.4390 H   0  0  0  0  0  0  0  0  0  0  0  0
    0.8830   -0.1220   -2.1380 H   0  0  0  0  0  0  0  0  0  0  0  0
    2.5420    0.5420   -2.0580 H   0  0  0  0  0  0  0  0  0  0  0  0
    2.5600    0.2530    0.3810 H   0  0  0  0  0  0  0  0  0  0  0  0
   -0.2670   -0.8160   -0.0410 H   0  0  0  0  0  0  0  0  0  0  0  0
   -0.3060    1.8710    0.3570 N   0  0  0  0  0  0  0  0  0  0  0  0
   -0.8420    3.2200    0.3410 C   0  0  0  0  0  0  0  0  0  0  0  0
   -2.2150    3.1960    0.8980 C   0  0  0  0  0  0  0  0  0  0  0  0
   -2.9030    4.2430    0.9940 O   0  0  0  0  0  0  0  0  0  0  0  0
   -2.7880    2.0080    1.3360 O   0  0  0  0  0  0  0  0  0  0  0  0
   -0.8680    1.0740    0.7210 H   0  0  0  0  0  0  0  0  0  0  0  0
   -0.8900    3.6390   -0.6950 H   0  0  0  0  0  0  0  0  0  0  0  0
   -0.1850    3.9190    0.9200 H   0  0  0  0  0  0  0  0  0  0  0  0
  2  1  1  0  0  0  0
  2  9  1  0  0  0  0
  3 10  1  6  0  0  0
  3  2  1  0  0  0  0
  3  4  1  0  0  0  0
  4 11  1  0  0  0  0
  5  6  2  0  0  0  0
  5  3  1  0  0  0  0
  7  1  1  0  0  0  0
  8  2  1  0  0  0  0
 12  4  1  0  0  0  0
 13 21  1  0  0  0  0
 13 14  1  0  0  0  0
 14 15  2  0  0  0  0
 16 14  1  0  0  0  0
 16 17  1  0  0  0  0
 17 19  1  0  0  0  0
 17 25  1  1  0  0  0
 17 18  1  0  0  0  0
 18  5  1  0  0  0  0
 19 27  1  0  0  0  0
 20 19  2  0  0  0  0
 22 13  1  0  0  0  0
 23 16  1  0  0  0  0
 24 16  1  0  0  0  0
 26 18  1  0  0  0  0
 27 32  1  0  0  0  0
 28 27  1  0  0  0  0
 28 29  1  0  0  0  0
 28 34  1  0  0  0  0
 29 30  2  0  0  0  0
 29 31  1  0  0  0  0
 33 28  1  0  0  0  0
M  END
$$$$
