SNM.pdb
 OpenBabel07022419073D

 44 43  0  0  1  0  0  0  0  0999 V2000
    3.8390   -5.3540   -1.1440 O   0  0  0  0  0  0  0  0  0  0  0  0
    3.0950   -4.3150   -0.5450 C   0  0  0  0  0  0  0  0  0  0  0  0
    3.9600   -3.0960   -0.5820 C   0  0  2  0  0  0  0  0  0  0  0  0
    5.1690   -3.3330    0.1420 N   0  0  0  0  0  0  0  0  0  0  0  0
    3.2730   -1.8580   -0.1580 C   0  0  0  0  0  0  0  0  0  0  0  0
    3.8190   -1.1790    0.7600 O   0  0  0  0  0  0  0  0  0  0  0  0
    4.1670   -5.9840   -0.4780 H   0  0  0  0  0  0  0  0  0  0  0  0
    2.7980   -4.6080    0.4690 H   0  0  0  0  0  0  0  0  0  0  0  0
    2.2230   -4.1290   -1.2210 H   0  0  0  0  0  0  0  0  0  0  0  0
    4.2390   -2.9350   -1.6630 H   0  0  0  0  0  0  0  0  0  0  0  0
    5.7450   -2.5030    0.3300 H   0  0  0  0  0  0  0  0  0  0  0  0
    5.0240   -3.9760    0.9260 H   0  0  0  0  0  0  0  0  0  0  0  0
   -0.1040   -0.7750   -2.6520 N   0  0  0  0  0  0  0  0  0  0  0  0
    0.5280    0.4530   -2.4730 C   0  0  0  0  0  0  0  0  0  0  0  0
    0.4000    1.3200   -3.3940 O   0  0  0  0  0  0  0  0  0  0  0  0
    1.3370    0.8550   -1.3140 C   0  0  0  0  0  0  0  0  0  0  0  0
    1.4570   -0.1910   -0.2500 C   0  0  2  0  0  0  0  0  0  0  0  0
    2.0630   -1.4080   -0.7170 N   0  0  0  0  0  0  0  0  0  0  0  0
    0.1700   -0.5000    0.4200 C   0  0  0  0  0  0  0  0  0  0  0  0
   -0.2390   -1.6910    0.5120 O   0  0  0  0  0  0  0  0  0  0  0  0
   -0.9310   -1.0280   -2.0870 H   0  0  0  0  0  0  0  0  0  0  0  0
    0.2520   -1.4450   -3.3550 H   0  0  0  0  0  0  0  0  0  0  0  0
    2.3630    1.0700   -1.6820 H   0  0  0  0  0  0  0  0  0  0  0  0
    0.9520    1.7760   -0.8670 H   0  0  0  0  0  0  0  0  0  0  0  0
    2.1140    0.2260    0.5400 H   0  0  0  0  0  0  0  0  0  0  0  0
    1.6560   -2.0070   -1.4720 H   0  0  0  0  0  0  0  0  0  0  0  0
   -3.4570    2.3200    5.6430 C   0  0  0  0  0  0  0  0  0  0  0  0
   -1.7750    2.5430    5.0180 S   0  0  0  0  0  0  0  0  0  0  0  0
   -1.7060    2.1020    3.2510 C   0  0  0  0  0  0  0  0  0  0  0  0
   -1.9700    0.5990    3.0820 C   0  0  0  0  0  0  0  0  0  0  0  0
   -1.9150    0.2220    1.6430 C   0  0  2  0  0  0  0  0  0  0  0  0
   -0.6740    0.4790    0.9910 N   0  0  0  0  0  0  0  0  0  0  0  0
   -3.0830    0.7920    0.9180 C   0  0  0  0  0  0  0  0  0  0  0  0
   -2.9850    1.4330   -0.1590 O   0  0  0  0  0  0  0  0  0  0  0  0
   -4.3530    0.6150    1.4440 O   0  0  0  0  0  0  0  0  0  0  0  0
   -3.4440    1.5690    6.4520 H   0  0  0  0  0  0  0  0  0  0  0  0
   -4.1460    1.9230    4.8520 H   0  0  0  0  0  0  0  0  0  0  0  0
   -3.8940    3.2490    6.0230 H   0  0  0  0  0  0  0  0  0  0  0  0
   -0.7490    2.4070    2.7970 H   0  0  0  0  0  0  0  0  0  0  0  0
   -2.5080    2.6810    2.7510 H   0  0  0  0  0  0  0  0  0  0  0  0
   -3.0170    0.4560    3.4410 H   0  0  0  0  0  0  0  0  0  0  0  0
   -1.3310    0.0060    3.7440 H   0  0  0  0  0  0  0  0  0  0  0  0
   -2.0720   -0.8980    1.6040 H   0  0  0  0  0  0  0  0  0  0  0  0
   -0.3340    1.4780    0.9150 H   0  0  0  0  0  0  0  0  0  0  0  0
  1  2  1  0  0  0  0
  1  7  1  0  0  0  0
  2  8  1  0  0  0  0
  3 10  1  6  0  0  0
  3  2  1  0  0  0  0
  3  5  1  0  0  0  0
  3  4  1  0  0  0  0
  4 11  1  0  0  0  0
  4 12  1  0  0  0  0
  5  6  2  0  0  0  0
  9  2  1  0  0  0  0
 13 14  1  0  0  0  0
 13 21  1  0  0  0  0
 14 16  1  0  0  0  0
 15 14  2  0  0  0  0
 16 24  1  0  0  0  0
 16 17  1  0  0  0  0
 17 19  1  0  0  0  0
 17 25  1  1  0  0  0
 18 17  1  0  0  0  0
 18  5  1  0  0  0  0
 19 20  2  0  0  0  0
 19 32  1  0  0  0  0
 22 13  1  0  0  0  0
 23 16  1  0  0  0  0
 26 18  1  0  0  0  0
 27 38  1  0  0  0  0
 27 36  1  0  0  0  0
 28 27  1  0  0  0  0
 29 28  1  0  0  0  0
 30 29  1  0  0  0  0
 30 41  1  0  0  0  0
 30 42  1  0  0  0  0
 31 43  1  6  0  0  0
 31 30  1  0  0  0  0
 32 31  1  0  0  0  0
 33 35  1  0  0  0  0
 33 31  1  0  0  0  0
 34 33  2  0  0  0  0
 37 27  1  0  0  0  0
 39 29  1  0  0  0  0
 40 29  1  0  0  0  0
 44 32  1  0  0  0  0
M  END
$$$$
