SNT.pdb
 OpenBabel07022419073D

 41 40  0  0  1  0  0  0  0  0999 V2000
   -1.0430   -4.2420   -2.2410 O   0  0  0  0  0  0  0  0  0  0  0  0
    0.2740   -4.0670   -2.6680 C   0  0  0  0  0  0  0  0  0  0  0  0
    1.0080   -3.1880   -1.6840 C   0  0  2  0  0  0  0  0  0  0  0  0
    0.9830   -3.8430   -0.3900 N   0  0  0  0  0  0  0  0  0  0  0  0
    0.3670   -1.8580   -1.5390 C   0  0  0  0  0  0  0  0  0  0  0  0
    0.2550   -1.0610   -2.5230 O   0  0  0  0  0  0  0  0  0  0  0  0
   -1.1050   -4.3110   -1.2540 H   0  0  0  0  0  0  0  0  0  0  0  0
    0.7530   -5.0590   -2.6650 H   0  0  0  0  0  0  0  0  0  0  0  0
    0.2970   -3.6790   -3.6930 H   0  0  0  0  0  0  0  0  0  0  0  0
    2.0580   -3.0170   -1.9780 H   0  0  0  0  0  0  0  0  0  0  0  0
    1.6590   -3.3850    0.2740 H   0  0  0  0  0  0  0  0  0  0  0  0
    1.2750   -4.8370   -0.5240 H   0  0  0  0  0  0  0  0  0  0  0  0
   -3.5980    1.5570   -0.7080 N   0  0  0  0  0  0  0  0  0  0  0  0
   -2.9130    1.0370    0.4240 C   0  0  0  0  0  0  0  0  0  0  0  0
   -2.9380    1.7170    1.4790 O   0  0  0  0  0  0  0  0  0  0  0  0
   -2.2280   -0.2620    0.2660 C   0  0  0  0  0  0  0  0  0  0  0  0
   -0.7790   -0.1160   -0.1330 C   0  0  2  0  0  0  0  0  0  0  0  0
   -0.1490   -1.4220   -0.2800 N   0  0  0  0  0  0  0  0  0  0  0  0
   -0.0190    0.7360    0.8120 C   0  0  0  0  0  0  0  0  0  0  0  0
   -0.3800    1.9090    1.0550 O   0  0  0  0  0  0  0  0  0  0  0  0
   -3.9370    2.5380   -0.7620 H   0  0  0  0  0  0  0  0  0  0  0  0
   -3.8030    0.9670   -1.5690 H   0  0  0  0  0  0  0  0  0  0  0  0
   -2.7920   -0.9190   -0.3930 H   0  0  0  0  0  0  0  0  0  0  0  0
   -2.2260   -0.7590    1.2790 H   0  0  0  0  0  0  0  0  0  0  0  0
   -0.7500    0.3860   -1.1210 H   0  0  0  0  0  0  0  0  0  0  0  0
   -0.0500   -2.0850    0.5180 H   0  0  0  0  0  0  0  0  0  0  0  0
    2.5910    1.3410    4.7850 C   0  0  0  0  0  0  0  0  0  0  0  0
    1.8460    0.4430    3.8200 C   0  0  1  0  0  0  0  0  0  0  0  0
    0.5020    0.4460    4.2050 O   0  0  0  0  0  0  0  0  0  0  0  0
    1.9230    1.0350    2.4040 C   0  0  2  0  0  0  0  0  0  0  0  0
    1.1530    0.2580    1.4830 N   0  0  0  0  0  0  0  0  0  0  0  0
    3.3270    1.0860    1.9370 C   0  0  0  0  0  0  0  0  0  0  0  0
    4.2130    1.7100    2.5700 O   0  0  0  0  0  0  0  0  0  0  0  0
    3.6830    0.4370    0.7830 O   0  0  0  0  0  0  0  0  0  0  0  0
    2.6370    2.3770    4.3920 H   0  0  0  0  0  0  0  0  0  0  0  0
    3.6110    0.8960    4.8990 H   0  0  0  0  0  0  0  0  0  0  0  0
    2.0590    1.3140    5.7580 H   0  0  0  0  0  0  0  0  0  0  0  0
    2.2520   -0.5680    3.8530 H   0  0  0  0  0  0  0  0  0  0  0  0
    0.4390    0.6280    5.1750 H   0  0  0  0  0  0  0  0  0  0  0  0
    1.5090    2.0760    2.5310 H   0  0  0  0  0  0  0  0  0  0  0  0
    1.4220   -0.7240    1.2540 H   0  0  0  0  0  0  0  0  0  0  0  0
  1  7  1  0  0  0  0
  2  8  1  0  0  0  0
  2  1  1  0  0  0  0
  2  3  1  0  0  0  0
  3 10  1  6  0  0  0
  3  5  1  0  0  0  0
  3  4  1  0  0  0  0
  4 11  1  0  0  0  0
  5 18  1  0  0  0  0
  6  5  2  0  0  0  0
  9  2  1  0  0  0  0
 12  4  1  0  0  0  0
 13 14  1  0  0  0  0
 14 15  2  0  0  0  0
 16 14  1  0  0  0  0
 16 24  1  0  0  0  0
 17 25  1  6  0  0  0
 17 16  1  0  0  0  0
 17 19  1  0  0  0  0
 18 17  1  0  0  0  0
 18 26  1  0  0  0  0
 19 20  2  0  0  0  0
 19 31  1  0  0  0  0
 21 13  1  0  0  0  0
 22 13  1  0  0  0  0
 23 16  1  0  0  0  0
 27 36  1  0  0  0  0
 27 37  1  0  0  0  0
 28 38  1  1  0  0  0
 28 29  1  0  0  0  0
 28 27  1  0  0  0  0
 29 39  1  0  0  0  0
 30 40  1  1  0  0  0
 30 28  1  0  0  0  0
 31 30  1  0  0  0  0
 32 30  1  0  0  0  0
 32 33  1  0  0  0  0
 34 32  2  0  0  0  0
 35 27  1  0  0  0  0
 41 31  1  0  0  0  0
M  END
$$$$
