SNV.pdb
 OpenBabel07022419073D

 43 42  0  0  1  0  0  0  0  0999 V2000
   -1.8240   -4.9850   -2.7520 O   0  0  0  0  0  0  0  0  0  0  0  0
   -1.3310   -3.9310   -1.9860 C   0  0  0  0  0  0  0  0  0  0  0  0
    0.1050   -3.6920   -2.3750 C   0  0  2  0  0  0  0  0  0  0  0  0
    0.8460   -4.9200   -2.1120 N   0  0  0  0  0  0  0  0  0  0  0  0
    0.7230   -2.6130   -1.5680 C   0  0  0  0  0  0  0  0  0  0  0  0
    1.8400   -2.8460   -1.0180 O   0  0  0  0  0  0  0  0  0  0  0  0
   -2.4450   -5.5160   -2.2080 H   0  0  0  0  0  0  0  0  0  0  0  0
   -1.9520   -3.0100   -2.1410 H   0  0  0  0  0  0  0  0  0  0  0  0
   -1.4330   -4.2180   -0.9120 H   0  0  0  0  0  0  0  0  0  0  0  0
    0.1250   -3.4600   -3.4670 H   0  0  0  0  0  0  0  0  0  0  0  0
    1.8010   -4.6880   -1.7020 H   0  0  0  0  0  0  0  0  0  0  0  0
    0.3620   -5.4810   -1.3460 H   0  0  0  0  0  0  0  0  0  0  0  0
    3.2890    1.8610   -0.4420 N   0  0  0  0  0  0  0  0  0  0  0  0
    1.9140    1.8960   -0.8260 C   0  0  0  0  0  0  0  0  0  0  0  0
    1.2900    2.9620   -0.5930 O   0  0  0  0  0  0  0  0  0  0  0  0
    1.2140    0.7820   -1.4610 C   0  0  0  0  0  0  0  0  0  0  0  0
    0.8510   -0.3570   -0.5590 C   0  0  2  0  0  0  0  0  0  0  0  0
    0.1630   -1.3490   -1.3670 N   0  0  0  0  0  0  0  0  0  0  0  0
    0.0120    0.0140    0.6070 C   0  0  0  0  0  0  0  0  0  0  0  0
   -1.1290   -0.5140    0.6800 O   0  0  0  0  0  0  0  0  0  0  0  0
    3.5980    2.4090    0.3810 H   0  0  0  0  0  0  0  0  0  0  0  0
    4.0260    1.3130   -0.9360 H   0  0  0  0  0  0  0  0  0  0  0  0
    0.3380    1.1800   -2.0200 H   0  0  0  0  0  0  0  0  0  0  0  0
    1.8980    0.3580   -2.2410 H   0  0  0  0  0  0  0  0  0  0  0  0
    1.8170   -0.8100   -0.2280 H   0  0  0  0  0  0  0  0  0  0  0  0
   -0.7480   -1.1240   -1.7930 H   0  0  0  0  0  0  0  0  0  0  0  0
    0.6450   -0.6050    3.9510 C   0  0  0  0  0  0  0  0  0  0  0  0
    0.3540    0.8760    4.0000 C   0  0  0  0  0  0  0  0  0  0  0  0
   -0.2780    1.2630    5.3080 C   0  0  0  0  0  0  0  0  0  0  0  0
   -0.4350    1.2590    2.7810 C   0  0  2  0  0  0  0  0  0  0  0  0
    0.4070    0.9120    1.6350 N   0  0  0  0  0  0  0  0  0  0  0  0
   -0.7620    2.7050    2.8200 C   0  0  0  0  0  0  0  0  0  0  0  0
   -1.4740    3.1250    3.7620 O   0  0  0  0  0  0  0  0  0  0  0  0
   -0.3480    3.6440    1.8990 O   0  0  0  0  0  0  0  0  0  0  0  0
    1.7300   -0.8300    3.9290 H   0  0  0  0  0  0  0  0  0  0  0  0
    0.1970   -1.0960    3.0760 H   0  0  0  0  0  0  0  0  0  0  0  0
    0.2550   -1.1350    4.8690 H   0  0  0  0  0  0  0  0  0  0  0  0
    1.3440    1.3980    3.9030 H   0  0  0  0  0  0  0  0  0  0  0  0
   -1.2740    0.8500    5.4480 H   0  0  0  0  0  0  0  0  0  0  0  0
   -0.1800    2.3450    5.5320 H   0  0  0  0  0  0  0  0  0  0  0  0
    0.3660    0.7690    6.0980 H   0  0  0  0  0  0  0  0  0  0  0  0
   -1.3730    0.6380    2.7690 H   0  0  0  0  0  0  0  0  0  0  0  0
    1.3600    1.3180    1.5380 H   0  0  0  0  0  0  0  0  0  0  0  0
  1  7  1  0  0  0  0
  1  2  1  0  0  0  0
  2  9  1  0  0  0  0
  3 10  1  6  0  0  0
  3  4  1  0  0  0  0
  3  2  1  0  0  0  0
  3  5  1  0  0  0  0
  4 11  1  0  0  0  0
  4 12  1  0  0  0  0
  5 18  1  0  0  0  0
  5  6  2  0  0  0  0
  8  2  1  0  0  0  0
 13 21  1  0  0  0  0
 14 15  2  0  0  0  0
 14 13  1  0  0  0  0
 16 14  1  0  0  0  0
 16 17  1  0  0  0  0
 17 25  1  1  0  0  0
 17 19  1  0  0  0  0
 18 17  1  0  0  0  0
 19 20  2  0  0  0  0
 19 31  1  0  0  0  0
 22 13  1  0  0  0  0
 23 16  1  0  0  0  0
 24 16  1  0  0  0  0
 26 18  1  0  0  0  0
 27 28  1  0  0  0  0
 27 37  1  0  0  0  0
 28 29  1  0  0  0  0
 29 39  1  0  0  0  0
 29 40  1  0  0  0  0
 29 41  1  0  0  0  0
 30 42  1  6  0  0  0
 30 32  1  0  0  0  0
 30 28  1  0  0  0  0
 31 30  1  0  0  0  0
 32 33  1  0  0  0  0
 34 32  2  0  0  0  0
 35 27  1  0  0  0  0
 36 27  1  0  0  0  0
 38 28  1  0  0  0  0
 43 31  1  0  0  0  0
M  END
$$$$
