SNW.pdb
 OpenBabel07022419073D

 51 52  0  0  1  0  0  0  0  0999 V2000
    1.7460   -2.3660    3.8110 O   0  0  0  0  0  0  0  0  0  0  0  0
    3.0100   -2.0240    3.3880 C   0  0  0  0  0  0  0  0  0  0  0  0
    3.4500   -0.6580    3.8100 C   0  0  2  0  0  0  0  0  0  0  0  0
    3.4750   -0.5030    5.2460 N   0  0  0  0  0  0  0  0  0  0  0  0
    2.7150    0.4380    3.1380 C   0  0  0  0  0  0  0  0  0  0  0  0
    2.2250    1.3380    3.8790 O   0  0  0  0  0  0  0  0  0  0  0  0
    1.0770   -1.6620    3.7090 H   0  0  0  0  0  0  0  0  0  0  0  0
    3.7320   -2.7500    3.8390 H   0  0  0  0  0  0  0  0  0  0  0  0
    3.1450   -2.1020    2.2840 H   0  0  0  0  0  0  0  0  0  0  0  0
    4.5240   -0.5550    3.4790 H   0  0  0  0  0  0  0  0  0  0  0  0
    3.7470   -1.4430    5.6550 H   0  0  0  0  0  0  0  0  0  0  0  0
    2.5090   -0.3120    5.6100 H   0  0  0  0  0  0  0  0  0  0  0  0
    5.0150    3.3200   -0.1870 N   0  0  0  0  0  0  0  0  0  0  0  0
    4.0130    2.6820    0.6160 C   0  0  0  0  0  0  0  0  0  0  0  0
    4.1820    2.5960    1.8560 O   0  0  0  0  0  0  0  0  0  0  0  0
    2.7870    2.1230    0.0310 C   0  0  0  0  0  0  0  0  0  0  0  0
    1.8800    1.4990    1.0610 C   0  0  2  0  0  0  0  0  0  0  0  0
    2.5980    0.4250    1.7240 N   0  0  0  0  0  0  0  0  0  0  0  0
    0.6860    0.9390    0.3240 C   0  0  0  0  0  0  0  0  0  0  0  0
   -0.0640    1.7090   -0.3160 O   0  0  0  0  0  0  0  0  0  0  0  0
    5.7350    3.8940    0.2640 H   0  0  0  0  0  0  0  0  0  0  0  0
    5.0320    3.2130   -1.2280 H   0  0  0  0  0  0  0  0  0  0  0  0
    2.2480    2.8370   -0.6220 H   0  0  0  0  0  0  0  0  0  0  0  0
    3.1050    1.2840   -0.6530 H   0  0  0  0  0  0  0  0  0  0  0  0
    1.5600    2.2540    1.7820 H   0  0  0  0  0  0  0  0  0  0  0  0
    3.0370   -0.3650    1.2020 H   0  0  0  0  0  0  0  0  0  0  0  0
    0.3690   -0.4430    0.3230 N   0  0  0  0  0  0  0  0  0  0  0  0
   -0.7800   -0.9050   -0.4050 C   0  0  1  0  0  0  0  0  0  0  0  0
   -2.0800   -0.5570    0.2650 C   0  0  0  0  0  0  0  0  0  0  0  0
   -3.2560   -1.0420   -0.5000 C   0  0  0  0  0  0  0  0  0  0  0  0
   -4.1200   -0.2790   -1.2910 C   0  0  0  0  0  0  0  0  0  0  0  0
   -5.0590   -1.0820   -1.8140 N   0  0  0  0  0  0  0  0  0  0  0  0
   -4.8690   -2.3500   -1.4130 C   0  0  0  0  0  0  0  0  0  0  0  0
   -5.5540   -3.5170   -1.6740 C   0  0  0  0  0  0  0  0  0  0  0  0
   -5.1460   -4.7330   -1.1230 C   0  0  0  0  0  0  0  0  0  0  0  0
   -4.0340   -4.7080   -0.3120 C   0  0  0  0  0  0  0  0  0  0  0  0
   -3.3490   -3.5180   -0.0560 C   0  0  0  0  0  0  0  0  0  0  0  0
   -3.7560   -2.3310   -0.6000 C   0  0  0  0  0  0  0  0  0  0  0  0
   -0.7490   -0.5520   -1.8370 C   0  0  0  0  0  0  0  0  0  0  0  0
    0.2400    0.0620   -2.2910 O   0  0  0  0  0  0  0  0  0  0  0  0
   -1.8060   -0.9020   -2.6530 O   0  0  0  0  0  0  0  0  0  0  0  0
    0.9700   -1.1200    0.8520 H   0  0  0  0  0  0  0  0  0  0  0  0
   -0.7200   -2.0420   -0.3980 H   0  0  0  0  0  0  0  0  0  0  0  0
   -2.1880    0.5530    0.3530 H   0  0  0  0  0  0  0  0  0  0  0  0
   -2.1510   -0.9590    1.2760 H   0  0  0  0  0  0  0  0  0  0  0  0
   -4.0230    0.7770   -1.4380 H   0  0  0  0  0  0  0  0  0  0  0  0
   -5.8200   -0.7330   -2.4440 H   0  0  0  0  0  0  0  0  0  0  0  0
   -6.4310   -3.5650   -2.3070 H   0  0  0  0  0  0  0  0  0  0  0  0
   -5.6650   -5.6570   -1.3110 H   0  0  0  0  0  0  0  0  0  0  0  0
   -3.6590   -5.6190    0.1520 H   0  0  0  0  0  0  0  0  0  0  0  0
   -2.4680   -3.4930    0.5850 H   0  0  0  0  0  0  0  0  0  0  0  0
  2  3  1  0  0  0  0
  2  1  1  0  0  0  0
  2  8  1  0  0  0  0
  3 10  1  6  0  0  0
  3  4  1  0  0  0  0
  4 12  1  0  0  0  0
  4 11  1  0  0  0  0
  5  3  1  0  0  0  0
  5  6  2  0  0  0  0
  7  1  1  0  0  0  0
  9  2  1  0  0  0  0
 13 21  1  0  0  0  0
 13 14  1  0  0  0  0
 14 15  2  0  0  0  0
 16 14  1  0  0  0  0
 16 17  1  0  0  0  0
 17 18  1  0  0  0  0
 17 25  1  1  0  0  0
 18  5  1  0  0  0  0
 19 17  1  0  0  0  0
 20 19  2  0  0  0  0
 22 13  1  0  0  0  0
 23 16  1  0  0  0  0
 24 16  1  0  0  0  0
 26 18  1  0  0  0  0
 27 19  1  0  0  0  0
 27 42  1  0  0  0  0
 28 43  1  1  0  0  0
 28 29  1  0  0  0  0
 28 27  1  0  0  0  0
 29 44  1  0  0  0  0
 29 45  1  0  0  0  0
 30 29  1  0  0  0  0
 31 30  2  0  0  0  0
 32 33  1  0  0  0  0
 32 31  1  0  0  0  0
 33 38  1  0  0  0  0
 34 33  2  0  0  0  0
 34 35  1  0  0  0  0
 35 36  2  0  0  0  0
 36 37  1  0  0  0  0
 36 50  1  0  0  0  0
 37 51  1  0  0  0  0
 38 30  1  0  0  0  0
 38 37  2  0  0  0  0
 39 28  1  0  0  0  0
 40 39  1  0  0  0  0
 41 39  2  0  0  0  0
 46 31  1  0  0  0  0
 47 32  1  0  0  0  0
 48 34  1  0  0  0  0
 49 35  1  0  0  0  0
M  END
$$$$
