SNY.pdb
 OpenBabel07022419073D

 48 48  0  0  1  0  0  0  0  0999 V2000
    4.4920   -2.7820    1.7820 O   0  0  0  0  0  0  0  0  0  0  0  0
    3.7060   -2.7760    2.9280 C   0  0  0  0  0  0  0  0  0  0  0  0
    2.3160   -2.2420    2.6550 C   0  0  2  0  0  0  0  0  0  0  0  0
    1.6820   -3.0690    1.6750 N   0  0  0  0  0  0  0  0  0  0  0  0
    2.3530   -0.8090    2.2810 C   0  0  0  0  0  0  0  0  0  0  0  0
    2.9430   -0.0170    3.0980 O   0  0  0  0  0  0  0  0  0  0  0  0
    4.1690   -3.3830    1.0910 H   0  0  0  0  0  0  0  0  0  0  0  0
    3.6680   -3.8150    3.3100 H   0  0  0  0  0  0  0  0  0  0  0  0
    4.2180   -2.1360    3.7010 H   0  0  0  0  0  0  0  0  0  0  0  0
    1.7250   -2.3780    3.6090 H   0  0  0  0  0  0  0  0  0  0  0  0
    1.6900   -4.0460    2.0220 H   0  0  0  0  0  0  0  0  0  0  0  0
    2.0950   -3.0290    0.7390 H   0  0  0  0  0  0  0  0  0  0  0  0
    2.8140    3.1640   -2.2380 N   0  0  0  0  0  0  0  0  0  0  0  0
    2.5400    2.6850   -0.9220 C   0  0  0  0  0  0  0  0  0  0  0  0
    2.4160    3.5510   -0.0300 O   0  0  0  0  0  0  0  0  0  0  0  0
    2.4060    1.2590   -0.6030 C   0  0  0  0  0  0  0  0  0  0  0  0
    1.8270    1.0570    0.7570 C   0  0  2  0  0  0  0  0  0  0  0  0
    1.7670   -0.3700    1.0920 N   0  0  0  0  0  0  0  0  0  0  0  0
    0.4190    1.5710    0.7160 C   0  0  0  0  0  0  0  0  0  0  0  0
    0.1810    2.7380    0.4820 O   0  0  0  0  0  0  0  0  0  0  0  0
    2.2630    2.7640   -3.0180 H   0  0  0  0  0  0  0  0  0  0  0  0
    3.5280    3.8800   -2.4400 H   0  0  0  0  0  0  0  0  0  0  0  0
    1.7400    0.7580   -1.3600 H   0  0  0  0  0  0  0  0  0  0  0  0
    3.4150    0.8060   -0.7250 H   0  0  0  0  0  0  0  0  0  0  0  0
    2.4220    1.5620    1.5150 H   0  0  0  0  0  0  0  0  0  0  0  0
    1.2880   -0.9890    0.4200 H   0  0  0  0  0  0  0  0  0  0  0  0
   -3.0080   -5.1120   -0.3500 O   0  0  0  0  0  0  0  0  0  0  0  0
   -2.9880   -3.7260   -0.3070 C   0  0  0  0  0  0  0  0  0  0  0  0
   -2.0190   -3.0170   -0.9730 C   0  0  0  0  0  0  0  0  0  0  0  0
   -2.0170   -1.6550   -0.9180 C   0  0  0  0  0  0  0  0  0  0  0  0
   -2.9610   -0.9040   -0.2100 C   0  0  0  0  0  0  0  0  0  0  0  0
   -2.8980    0.5840   -0.1960 C   0  0  0  0  0  0  0  0  0  0  0  0
   -2.0660    1.1300    0.9310 C   0  0  2  0  0  0  0  0  0  0  0  0
   -0.7080    0.7220    0.9490 N   0  0  0  0  0  0  0  0  0  0  0  0
   -2.7360    1.0150    2.2510 C   0  0  0  0  0  0  0  0  0  0  0  0
   -2.0780    0.5910    3.2310 O   0  0  0  0  0  0  0  0  0  0  0  0
   -3.9200   -1.6450    0.4490 C   0  0  0  0  0  0  0  0  0  0  0  0
   -3.9420   -3.0240    0.4080 C   0  0  0  0  0  0  0  0  0  0  0  0
   -4.0600    1.3510    2.4690 O   0  0  0  0  0  0  0  0  0  0  0  0
   -2.4350   -5.6940    0.2500 H   0  0  0  0  0  0  0  0  0  0  0  0
   -1.2660   -3.5640   -1.5360 H   0  0  0  0  0  0  0  0  0  0  0  0
   -1.2630   -1.1070   -1.4380 H   0  0  0  0  0  0  0  0  0  0  0  0
   -3.9700    0.9130   -0.0660 H   0  0  0  0  0  0  0  0  0  0  0  0
   -2.6220    0.9740   -1.1830 H   0  0  0  0  0  0  0  0  0  0  0  0
   -2.0430    2.2490    0.7390 H   0  0  0  0  0  0  0  0  0  0  0  0
   -0.4700   -0.2770    1.1460 H   0  0  0  0  0  0  0  0  0  0  0  0
   -4.6710   -1.0900    1.0110 H   0  0  0  0  0  0  0  0  0  0  0  0
   -4.6950   -3.5990    0.9260 H   0  0  0  0  0  0  0  0  0  0  0  0
  1  2  1  0  0  0  0
  2  8  1  0  0  0  0
  2  9  1  0  0  0  0
  3  2  1  0  0  0  0
  3 10  1  1  0  0  0
  4 11  1  0  0  0  0
  4  3  1  0  0  0  0
  5  3  1  0  0  0  0
  5  6  2  0  0  0  0
  7  1  1  0  0  0  0
 12  4  1  0  0  0  0
 13 14  1  0  0  0  0
 14 16  1  0  0  0  0
 14 15  2  0  0  0  0
 16 17  1  0  0  0  0
 17 18  1  0  0  0  0
 17 25  1  1  0  0  0
 18  5  1  0  0  0  0
 19 17  1  0  0  0  0
 19 34  1  0  0  0  0
 20 19  2  0  0  0  0
 21 13  1  0  0  0  0
 22 13  1  0  0  0  0
 23 16  1  0  0  0  0
 24 16  1  0  0  0  0
 26 18  1  0  0  0  0
 27 28  1  0  0  0  0
 27 40  1  0  0  0  0
 28 38  1  0  0  0  0
 29 30  1  0  0  0  0
 29 28  2  0  0  0  0
 30 31  2  0  0  0  0
 31 32  1  0  0  0  0
 31 37  1  0  0  0  0
 32 43  1  0  0  0  0
 32 33  1  0  0  0  0
 33 45  1  6  0  0  0
 33 34  1  0  0  0  0
 33 35  1  0  0  0  0
 34 46  1  0  0  0  0
 35 39  2  0  0  0  0
 35 36  1  0  0  0  0
 37 47  1  0  0  0  0
 38 37  2  0  0  0  0
 38 48  1  0  0  0  0
 41 29  1  0  0  0  0
 42 30  1  0  0  0  0
 44 32  1  0  0  0  0
M  END
$$$$
