SPE.pdb
 OpenBabel07022419093D

 43 43  0  0  1  0  0  0  0  0999 V2000
   -0.5270   -4.9110    1.5310 O   0  0  0  0  0  0  0  0  0  0  0  0
   -0.2160   -3.5510    1.2750 C   0  0  0  0  0  0  0  0  0  0  0  0
    1.2090   -3.5320    0.7880 C   0  0  2  0  0  0  0  0  0  0  0  0
    2.0130   -4.1220    1.8700 N   0  0  0  0  0  0  0  0  0  0  0  0
    1.7260   -2.2140    0.4120 C   0  0  0  0  0  0  0  0  0  0  0  0
    2.7340   -1.7960    1.0880 O   0  0  0  0  0  0  0  0  0  0  0  0
   -0.2210   -5.0810    2.4800 H   0  0  0  0  0  0  0  0  0  0  0  0
   -0.4010   -3.0100    2.1980 H   0  0  0  0  0  0  0  0  0  0  0  0
   -0.9270   -3.2470    0.4680 H   0  0  0  0  0  0  0  0  0  0  0  0
    1.3010   -4.2090   -0.0850 H   0  0  0  0  0  0  0  0  0  0  0  0
    3.0010   -3.9360    1.6170 H   0  0  0  0  0  0  0  0  0  0  0  0
    1.8020   -3.6330    2.7640 H   0  0  0  0  0  0  0  0  0  0  0  0
    1.2290   -1.3700   -0.6120 N   0  0  0  0  0  0  0  0  0  0  0  0
    0.1130   -1.6090   -1.4940 C   0  0  0  0  0  0  0  0  0  0  0  0
    0.2270   -0.6330   -2.6300 C   0  0  0  0  0  0  0  0  0  0  0  0
    1.5840   -0.0260   -2.4540 C   0  0  0  0  0  0  0  0  0  0  0  0
    1.7830   -0.0820   -0.9660 C   0  0  1  0  0  0  0  0  0  0  0  0
    1.0390    1.0400   -0.2950 C   0  0  0  0  0  0  0  0  0  0  0  0
    1.3220    2.2230   -0.5900 O   0  0  0  0  0  0  0  0  0  0  0  0
   -0.8810   -1.4380   -1.0390 H   0  0  0  0  0  0  0  0  0  0  0  0
    0.2000   -2.6410   -1.9360 H   0  0  0  0  0  0  0  0  0  0  0  0
    0.1100   -1.1030   -3.6240 H   0  0  0  0  0  0  0  0  0  0  0  0
   -0.5100    0.2140   -2.5270 H   0  0  0  0  0  0  0  0  0  0  0  0
    1.6480    1.0150   -2.8280 H   0  0  0  0  0  0  0  0  0  0  0  0
    2.3790   -0.6480   -2.9450 H   0  0  0  0  0  0  0  0  0  0  0  0
    2.8700   -0.0220   -0.6970 H   0  0  0  0  0  0  0  0  0  0  0  0
    0.0380    0.7420    0.6560 N   0  0  0  0  0  0  0  0  0  0  0  0
   -0.7280    1.7500    1.3410 C   0  0  1  0  0  0  0  0  0  0  0  0
    0.1350    2.3760    2.3810 C   0  0  0  0  0  0  0  0  0  0  0  0
    0.5830    1.3050    3.3490 C   0  0  0  0  0  0  0  0  0  0  0  0
   -0.5530    0.6460    4.0310 C   0  0  0  0  0  0  0  0  0  0  0  0
   -1.1990   -0.2760    3.4780 O   0  0  0  0  0  0  0  0  0  0  0  0
   -1.3210    2.7280    0.3950 C   0  0  0  0  0  0  0  0  0  0  0  0
   -1.9540    3.7120    0.8330 O   0  0  0  0  0  0  0  0  0  0  0  0
   -0.9330    1.0320    5.3000 O   0  0  0  0  0  0  0  0  0  0  0  0
   -1.1770    2.5500   -0.9550 O   0  0  0  0  0  0  0  0  0  0  0  0
   -0.1480   -0.2540    0.8760 H   0  0  0  0  0  0  0  0  0  0  0  0
   -1.6460    1.2340    1.7760 H   0  0  0  0  0  0  0  0  0  0  0  0
   -0.3410    3.2330    2.8990 H   0  0  0  0  0  0  0  0  0  0  0  0
    1.0430    2.7610    1.8520 H   0  0  0  0  0  0  0  0  0  0  0  0
    1.1930    0.5580    2.7680 H   0  0  0  0  0  0  0  0  0  0  0  0
    1.2650    1.7730    4.0910 H   0  0  0  0  0  0  0  0  0  0  0  0
   -1.8180    0.6910    5.7020 H   0  0  0  0  0  0  0  0  0  0  0  0
  1  7  1  0  0  0  0
  2  1  1  0  0  0  0
  2  8  1  0  0  0  0
  3 10  1  6  0  0  0
  3  2  1  0  0  0  0
  3  4  1  0  0  0  0
  4 12  1  0  0  0  0
  5  3  1  0  0  0  0
  5  6  2  0  0  0  0
  9  2  1  0  0  0  0
 11  4  1  0  0  0  0
 13  5  1  0  0  0  0
 14 20  1  0  0  0  0
 14 13  1  0  0  0  0
 15 23  1  0  0  0  0
 15 16  1  0  0  0  0
 15 14  1  0  0  0  0
 16 17  1  0  0  0  0
 17 26  1  1  0  0  0
 17 13  1  0  0  0  0
 17 18  1  0  0  0  0
 18 27  1  0  0  0  0
 19 18  2  0  0  0  0
 21 14  1  0  0  0  0
 22 15  1  0  0  0  0
 24 16  1  0  0  0  0
 25 16  1  0  0  0  0
 27 37  1  0  0  0  0
 27 28  1  0  0  0  0
 28 38  1  1  0  0  0
 28 29  1  0  0  0  0
 29 39  1  0  0  0  0
 29 30  1  0  0  0  0
 30 31  1  0  0  0  0
 30 42  1  0  0  0  0
 31 35  1  0  0  0  0
 32 31  2  0  0  0  0
 33 34  1  0  0  0  0
 33 28  1  0  0  0  0
 35 43  1  0  0  0  0
 36 33  2  0  0  0  0
 40 29  1  0  0  0  0
 41 30  1  0  0  0  0
M  END
$$$$
