SPH.pdb
 OpenBabel07022419093D

 44 45  0  0  1  0  0  0  0  0999 V2000
   -0.7280   -5.3060   -0.2720 O   0  0  0  0  0  0  0  0  0  0  0  0
    0.4230   -4.5930    0.0700 C   0  0  0  0  0  0  0  0  0  0  0  0
    0.0620   -3.1140    0.1510 C   0  0  2  0  0  0  0  0  0  0  0  0
   -0.4190   -2.7310   -1.1360 N   0  0  0  0  0  0  0  0  0  0  0  0
    1.1870   -2.3040    0.6330 C   0  0  0  0  0  0  0  0  0  0  0  0
    1.6770   -2.5800    1.7850 O   0  0  0  0  0  0  0  0  0  0  0  0
   -1.4350   -5.1840    0.3890 H   0  0  0  0  0  0  0  0  0  0  0  0
    1.1640   -4.7120   -0.7620 H   0  0  0  0  0  0  0  0  0  0  0  0
    0.8770   -4.9610    1.0040 H   0  0  0  0  0  0  0  0  0  0  0  0
   -0.7650   -2.9810    0.8850 H   0  0  0  0  0  0  0  0  0  0  0  0
   -1.3600   -2.2820   -1.1010 H   0  0  0  0  0  0  0  0  0  0  0  0
   -0.2970   -3.4270   -1.8790 H   0  0  0  0  0  0  0  0  0  0  0  0
    1.7190   -1.2520   -0.1420 N   0  0  0  0  0  0  0  0  0  0  0  0
    1.2690   -0.8420   -1.4390 C   0  0  0  0  0  0  0  0  0  0  0  0
    2.1640    0.2950   -1.9020 C   0  0  0  0  0  0  0  0  0  0  0  0
    3.3710    0.1430   -0.9780 C   0  0  0  0  0  0  0  0  0  0  0  0
    2.8340   -0.4190    0.2970 C   0  0  1  0  0  0  0  0  0  0  0  0
    2.3900    0.6230    1.2370 C   0  0  0  0  0  0  0  0  0  0  0  0
    3.2230    1.4170    1.7040 O   0  0  0  0  0  0  0  0  0  0  0  0
    0.2060   -0.4990   -1.4600 H   0  0  0  0  0  0  0  0  0  0  0  0
    1.3650   -1.6600   -2.2020 H   0  0  0  0  0  0  0  0  0  0  0  0
    2.4460    0.1610   -2.9630 H   0  0  0  0  0  0  0  0  0  0  0  0
    1.6510    1.2750   -1.7350 H   0  0  0  0  0  0  0  0  0  0  0  0
    3.8440    1.1210   -0.7860 H   0  0  0  0  0  0  0  0  0  0  0  0
    4.0560   -0.5740   -1.4880 H   0  0  0  0  0  0  0  0  0  0  0  0
    3.6220   -1.0820    0.7440 H   0  0  0  0  0  0  0  0  0  0  0  0
    1.0160    0.7420    1.6250 N   0  0  0  0  0  0  0  0  0  0  0  0
    0.5210    1.7150    2.5200 C   0  0  1  0  0  0  0  0  0  0  0  0
   -0.6000    2.5690    2.1300 C   0  0  0  0  0  0  0  0  0  0  0  0
   -1.8720    1.8980    1.8390 C   0  0  0  0  0  0  0  0  0  0  0  0
   -2.2120    0.5840    1.9390 C   0  0  0  0  0  0  0  0  0  0  0  0
   -3.5190    0.4310    1.5930 N   0  0  0  0  0  0  0  0  0  0  0  0
   -3.9980    1.6250    1.2800 C   0  0  0  0  0  0  0  0  0  0  0  0
   -3.0140    2.5210    1.4250 N   0  0  0  0  0  0  0  0  0  0  0  0
    0.1800    1.0920    3.8590 C   0  0  0  0  0  0  0  0  0  0  0  0
   -0.2990    1.8070    4.7770 O   0  0  0  0  0  0  0  0  0  0  0  0
    0.3750   -0.2490    4.1260 O   0  0  0  0  0  0  0  0  0  0  0  0
    0.3860    0.0540    1.1910 H   0  0  0  0  0  0  0  0  0  0  0  0
    1.3890    2.4020    2.7910 H   0  0  0  0  0  0  0  0  0  0  0  0
   -0.8270    3.2210    3.0390 H   0  0  0  0  0  0  0  0  0  0  0  0
   -0.3460    3.3460    1.3600 H   0  0  0  0  0  0  0  0  0  0  0  0
   -1.5980   -0.2350    2.2470 H   0  0  0  0  0  0  0  0  0  0  0  0
   -4.0180   -0.4870    1.5880 H   0  0  0  0  0  0  0  0  0  0  0  0
   -5.0300    1.8050    0.9620 H   0  0  0  0  0  0  0  0  0  0  0  0
  1  2  1  0  0  0  0
  1  7  1  0  0  0  0
  2  3  1  0  0  0  0
  2  9  1  0  0  0  0
  3  5  1  0  0  0  0
  3 10  1  1  0  0  0
  4 11  1  0  0  0  0
  4  3  1  0  0  0  0
  5  6  2  0  0  0  0
  8  2  1  0  0  0  0
 12  4  1  0  0  0  0
 13 17  1  0  0  0  0
 13  5  1  0  0  0  0
 14 13  1  0  0  0  0
 15 23  1  0  0  0  0
 15 14  1  0  0  0  0
 15 16  1  0  0  0  0
 16 24  1  0  0  0  0
 16 17  1  0  0  0  0
 17 26  1  1  0  0  0
 17 18  1  0  0  0  0
 18 27  1  0  0  0  0
 18 19  2  0  0  0  0
 20 14  1  0  0  0  0
 21 14  1  0  0  0  0
 22 15  1  0  0  0  0
 25 16  1  0  0  0  0
 27 28  1  0  0  0  0
 28 39  1  1  0  0  0
 28 35  1  0  0  0  0
 29 28  1  0  0  0  0
 29 40  1  0  0  0  0
 30 31  2  0  0  0  0
 30 29  1  0  0  0  0
 31 42  1  0  0  0  0
 32 31  1  0  0  0  0
 33 34  2  0  0  0  0
 33 32  1  0  0  0  0
 34 30  1  0  0  0  0
 35 37  2  0  0  0  0
 35 36  1  0  0  0  0
 38 27  1  0  0  0  0
 41 29  1  0  0  0  0
 43 32  1  0  0  0  0
 44 33  1  0  0  0  0
M  END
$$$$
