SPI.pdb
 OpenBabel07022419093D

 46 46  0  0  1  0  0  0  0  0999 V2000
    2.1980   -1.0600   -3.6620 O   0  0  0  0  0  0  0  0  0  0  0  0
    3.1310   -0.4670   -2.8580 C   0  0  0  0  0  0  0  0  0  0  0  0
    2.6690   -0.1800   -1.4380 C   0  0  2  0  0  0  0  0  0  0  0  0
    3.8100    0.4530   -0.7240 N   0  0  0  0  0  0  0  0  0  0  0  0
    2.3250   -1.4030   -0.6960 C   0  0  0  0  0  0  0  0  0  0  0  0
    3.2750   -1.9620   -0.0420 O   0  0  0  0  0  0  0  0  0  0  0  0
    2.1740   -0.6060   -4.5520 H   0  0  0  0  0  0  0  0  0  0  0  0
    3.5310    0.4790   -3.3140 H   0  0  0  0  0  0  0  0  0  0  0  0
    4.0590   -1.1000   -2.7390 H   0  0  0  0  0  0  0  0  0  0  0  0
    1.8440    0.5110   -1.4760 H   0  0  0  0  0  0  0  0  0  0  0  0
    3.4390    0.8810    0.1580 H   0  0  0  0  0  0  0  0  0  0  0  0
    4.1700    1.2390   -1.3360 H   0  0  0  0  0  0  0  0  0  0  0  0
    1.0380   -1.9970   -0.6520 N   0  0  0  0  0  0  0  0  0  0  0  0
    0.7170   -3.2460    0.0630 C   0  0  0  0  0  0  0  0  0  0  0  0
   -0.7760   -3.3130    0.0320 C   0  0  0  0  0  0  0  0  0  0  0  0
   -1.0700   -2.6770   -1.3150 C   0  0  0  0  0  0  0  0  0  0  0  0
   -0.1510   -1.4540   -1.2560 C   0  0  1  0  0  0  0  0  0  0  0  0
   -0.8330   -0.4860   -0.3510 C   0  0  0  0  0  0  0  0  0  0  0  0
   -1.8850    0.0490   -0.7350 O   0  0  0  0  0  0  0  0  0  0  0  0
    1.1520   -4.1010   -0.4830 H   0  0  0  0  0  0  0  0  0  0  0  0
    1.1240   -3.1280    1.0820 H   0  0  0  0  0  0  0  0  0  0  0  0
   -1.1590   -4.3530    0.1030 H   0  0  0  0  0  0  0  0  0  0  0  0
   -1.1740   -2.6440    0.8050 H   0  0  0  0  0  0  0  0  0  0  0  0
   -0.6910   -3.3750   -2.0850 H   0  0  0  0  0  0  0  0  0  0  0  0
   -2.1270   -2.4080   -1.4330 H   0  0  0  0  0  0  0  0  0  0  0  0
   -0.0430   -1.0480   -2.2540 H   0  0  0  0  0  0  0  0  0  0  0  0
   -2.8440    0.4250    5.1150 C   0  0  0  0  0  0  0  0  0  0  0  0
   -2.1840    1.1980    3.9570 C   0  0  0  0  0  0  0  0  0  0  0  0
   -1.4910    0.1910    3.0750 C   0  0  2  0  0  0  0  0  0  0  0  0
   -0.4560   -0.5250    3.8860 C   0  0  0  0  0  0  0  0  0  0  0  0
   -1.0130    0.8090    1.8130 C   0  0  2  0  0  0  0  0  0  0  0  0
   -0.3400   -0.1400    0.9360 N   0  0  0  0  0  0  0  0  0  0  0  0
   -0.2130    2.0500    1.9680 C   0  0  0  0  0  0  0  0  0  0  0  0
    0.9350    2.1720    1.4150 O   0  0  0  0  0  0  0  0  0  0  0  0
   -0.6060    3.1600    2.6940 O   0  0  0  0  0  0  0  0  0  0  0  0
   -2.8050   -0.6680    4.9350 H   0  0  0  0  0  0  0  0  0  0  0  0
   -3.9150    0.6950    5.2150 H   0  0  0  0  0  0  0  0  0  0  0  0
   -2.3260    0.6450    6.0690 H   0  0  0  0  0  0  0  0  0  0  0  0
   -3.0040    1.6780    3.3980 H   0  0  0  0  0  0  0  0  0  0  0  0
   -1.4700    1.9250    4.4040 H   0  0  0  0  0  0  0  0  0  0  0  0
   -2.2820   -0.5440    2.7970 H   0  0  0  0  0  0  0  0  0  0  0  0
   -0.7520   -0.4810    4.9560 H   0  0  0  0  0  0  0  0  0  0  0  0
    0.5500   -0.0680    3.8240 H   0  0  0  0  0  0  0  0  0  0  0  0
   -0.4490   -1.6100    3.6250 H   0  0  0  0  0  0  0  0  0  0  0  0
   -1.9280    1.1180    1.2590 H   0  0  0  0  0  0  0  0  0  0  0  0
    0.5580   -0.6200    1.2220 H   0  0  0  0  0  0  0  0  0  0  0  0
  1  2  1  0  0  0  0
  2  9  1  0  0  0  0
  2  3  1  0  0  0  0
  3 10  1  6  0  0  0
  3  4  1  0  0  0  0
  3  5  1  0  0  0  0
  4 11  1  0  0  0  0
  5 13  1  0  0  0  0
  5  6  2  0  0  0  0
  7  1  1  0  0  0  0
  8  2  1  0  0  0  0
 12  4  1  0  0  0  0
 13 14  1  0  0  0  0
 14 21  1  0  0  0  0
 15 14  1  0  0  0  0
 15 22  1  0  0  0  0
 15 23  1  0  0  0  0
 16 17  1  0  0  0  0
 16 15  1  0  0  0  0
 17 26  1  6  0  0  0
 17 13  1  0  0  0  0
 17 18  1  0  0  0  0
 18 32  1  0  0  0  0
 19 18  2  0  0  0  0
 20 14  1  0  0  0  0
 24 16  1  0  0  0  0
 25 16  1  0  0  0  0
 27 37  1  0  0  0  0
 27 38  1  0  0  0  0
 28 40  1  0  0  0  0
 28 27  1  0  0  0  0
 29 41  1  6  0  0  0
 29 30  1  0  0  0  0
 29 28  1  0  0  0  0
 30 42  1  0  0  0  0
 31 45  1  6  0  0  0
 31 33  1  0  0  0  0
 31 29  1  0  0  0  0
 32 46  1  0  0  0  0
 32 31  1  0  0  0  0
 33 35  1  0  0  0  0
 34 33  2  0  0  0  0
 36 27  1  0  0  0  0
 39 28  1  0  0  0  0
 43 30  1  0  0  0  0
 44 30  1  0  0  0  0
M  END
$$$$
