SPK.pdb
 OpenBabel07022419093D

 48 48  0  0  1  0  0  0  0  0999 V2000
    0.4700   -4.8990    0.3670 O   0  0  0  0  0  0  0  0  0  0  0  0
    0.6660   -3.5050    0.5110 C   0  0  0  0  0  0  0  0  0  0  0  0
    2.1390   -3.2610    0.7030 C   0  0  2  0  0  0  0  0  0  0  0  0
    2.5160   -3.9830    1.8990 N   0  0  0  0  0  0  0  0  0  0  0  0
    2.5070   -1.8550    0.8110 C   0  0  0  0  0  0  0  0  0  0  0  0
    3.0560   -1.4930    1.9100 O   0  0  0  0  0  0  0  0  0  0  0  0
    0.2600   -5.3150    1.2570 H   0  0  0  0  0  0  0  0  0  0  0  0
    0.0750   -3.1960    1.3730 H   0  0  0  0  0  0  0  0  0  0  0  0
    0.3400   -3.0620   -0.4370 H   0  0  0  0  0  0  0  0  0  0  0  0
    2.6820   -3.7230   -0.1400 H   0  0  0  0  0  0  0  0  0  0  0  0
    3.5250   -4.0920    2.0300 H   0  0  0  0  0  0  0  0  0  0  0  0
    2.0350   -3.6120    2.7320 H   0  0  0  0  0  0  0  0  0  0  0  0
    2.3130   -0.8700   -0.1830 N   0  0  0  0  0  0  0  0  0  0  0  0
    1.7070   -1.0690   -1.5050 C   0  0  0  0  0  0  0  0  0  0  0  0
    2.2760    0.0370   -2.3670 C   0  0  0  0  0  0  0  0  0  0  0  0
    2.8180    1.0770   -1.4480 C   0  0  0  0  0  0  0  0  0  0  0  0
    2.6770    0.5150   -0.0790 C   0  0  1  0  0  0  0  0  0  0  0  0
    1.7250    1.3130    0.7110 C   0  0  0  0  0  0  0  0  0  0  0  0
    1.9700    2.5390    0.8530 O   0  0  0  0  0  0  0  0  0  0  0  0
    0.6150   -0.9320   -1.4870 H   0  0  0  0  0  0  0  0  0  0  0  0
    1.9280   -2.0540   -1.9240 H   0  0  0  0  0  0  0  0  0  0  0  0
    1.4940    0.4960   -2.9930 H   0  0  0  0  0  0  0  0  0  0  0  0
    3.0840   -0.3710   -3.0290 H   0  0  0  0  0  0  0  0  0  0  0  0
    2.2540    2.0500   -1.5180 H   0  0  0  0  0  0  0  0  0  0  0  0
    3.8820    1.2780   -1.7150 H   0  0  0  0  0  0  0  0  0  0  0  0
    3.6790    0.5960    0.4240 H   0  0  0  0  0  0  0  0  0  0  0  0
    0.5530    0.7940    1.3220 N   0  0  0  0  0  0  0  0  0  0  0  0
   -0.3000    1.6810    2.0710 C   0  0  1  0  0  0  0  0  0  0  0  0
   -1.6700    1.7550    1.4330 C   0  0  0  0  0  0  0  0  0  0  0  0
   -2.2490    0.3750    1.4300 C   0  0  0  0  0  0  0  0  0  0  0  0
   -3.6300    0.3160    0.8170 C   0  0  0  0  0  0  0  0  0  0  0  0
   -4.0640   -1.1540    0.8970 C   0  0  0  0  0  0  0  0  0  0  0  0
   -5.3670   -1.3620    0.3470 N   0  0  0  0  0  0  0  0  0  0  0  0
   -0.4670    1.2050    3.4750 C   0  0  0  0  0  0  0  0  0  0  0  0
   -1.1870    1.8840    4.2420 O   0  0  0  0  0  0  0  0  0  0  0  0
    0.1270    0.0630    3.9660 O   0  0  0  0  0  0  0  0  0  0  0  0
    0.3620   -0.2260    1.1980 H   0  0  0  0  0  0  0  0  0  0  0  0
    0.1190    2.7010    2.0770 H   0  0  0  0  0  0  0  0  0  0  0  0
   -1.4990    2.0310    0.3510 H   0  0  0  0  0  0  0  0  0  0  0  0
   -2.3060    2.5030    1.9230 H   0  0  0  0  0  0  0  0  0  0  0  0
   -1.6070   -0.2300    0.7250 H   0  0  0  0  0  0  0  0  0  0  0  0
   -2.3070   -0.0770    2.4310 H   0  0  0  0  0  0  0  0  0  0  0  0
   -4.3630    0.9520    1.3210 H   0  0  0  0  0  0  0  0  0  0  0  0
   -3.6220    0.5570   -0.2720 H   0  0  0  0  0  0  0  0  0  0  0  0
   -4.0960   -1.4700    1.9740 H   0  0  0  0  0  0  0  0  0  0  0  0
   -3.3290   -1.7820    0.3780 H   0  0  0  0  0  0  0  0  0  0  0  0
   -5.6350   -0.5600   -0.2410 H   0  0  0  0  0  0  0  0  0  0  0  0
   -5.3710   -2.2540   -0.1900 H   0  0  0  0  0  0  0  0  0  0  0  0
  1  2  1  0  0  0  0
  1  7  1  0  0  0  0
  2  3  1  0  0  0  0
  2  8  1  0  0  0  0
  3 10  1  6  0  0  0
  3  5  1  0  0  0  0
  3  4  1  0  0  0  0
  4 11  1  0  0  0  0
  4 12  1  0  0  0  0
  5  6  2  0  0  0  0
  9  2  1  0  0  0  0
 13 17  1  0  0  0  0
 13  5  1  0  0  0  0
 14 20  1  0  0  0  0
 14 13  1  0  0  0  0
 15 14  1  0  0  0  0
 15 16  1  0  0  0  0
 16 17  1  0  0  0  0
 17 26  1  1  0  0  0
 17 18  1  0  0  0  0
 18 19  2  0  0  0  0
 18 27  1  0  0  0  0
 21 14  1  0  0  0  0
 22 15  1  0  0  0  0
 23 15  1  0  0  0  0
 24 16  1  0  0  0  0
 25 16  1  0  0  0  0
 27 28  1  0  0  0  0
 28 38  1  1  0  0  0
 28 34  1  0  0  0  0
 29 40  1  0  0  0  0
 29 28  1  0  0  0  0
 30 29  1  0  0  0  0
 30 42  1  0  0  0  0
 31 32  1  0  0  0  0
 31 43  1  0  0  0  0
 31 30  1  0  0  0  0
 32 45  1  0  0  0  0
 33 32  1  0  0  0  0
 34 36  2  0  0  0  0
 34 35  1  0  0  0  0
 37 27  1  0  0  0  0
 39 29  1  0  0  0  0
 41 30  1  0  0  0  0
 44 31  1  0  0  0  0
 46 32  1  0  0  0  0
 47 33  1  0  0  0  0
 48 33  1  0  0  0  0
M  END
$$$$
