SPN.pdb
 OpenBabel07022419093D

 41 41  0  0  1  0  0  0  0  0999 V2000
    1.3720   -4.0860   -1.3190 O   0  0  0  0  0  0  0  0  0  0  0  0
    0.4290   -4.5160   -0.4110 C   0  0  0  0  0  0  0  0  0  0  0  0
   -0.0040   -3.4380    0.5760 C   0  0  2  0  0  0  0  0  0  0  0  0
   -0.9910   -4.0940    1.4370 N   0  0  0  0  0  0  0  0  0  0  0  0
   -0.6610   -2.3180   -0.1130 C   0  0  0  0  0  0  0  0  0  0  0  0
   -1.9190   -2.3960   -0.2360 O   0  0  0  0  0  0  0  0  0  0  0  0
    2.2940   -4.1100   -0.9680 H   0  0  0  0  0  0  0  0  0  0  0  0
    0.7920   -5.3850    0.1750 H   0  0  0  0  0  0  0  0  0  0  0  0
   -0.5010   -4.8530   -0.9410 H   0  0  0  0  0  0  0  0  0  0  0  0
    0.8330   -3.1310    1.1820 H   0  0  0  0  0  0  0  0  0  0  0  0
   -0.5400   -4.6350    2.1960 H   0  0  0  0  0  0  0  0  0  0  0  0
   -1.6830   -4.6380    0.8830 H   0  0  0  0  0  0  0  0  0  0  0  0
    0.0190   -1.1820   -0.6320 N   0  0  0  0  0  0  0  0  0  0  0  0
   -0.6700   -0.1060   -1.3450 C   0  0  0  0  0  0  0  0  0  0  0  0
    0.2940    0.2420   -2.4710 C   0  0  0  0  0  0  0  0  0  0  0  0
    1.6290    0.1370   -1.7640 C   0  0  0  0  0  0  0  0  0  0  0  0
    1.3900   -0.7930   -0.5830 C   0  0  1  0  0  0  0  0  0  0  0  0
    1.6440   -0.0520    0.7070 C   0  0  0  0  0  0  0  0  0  0  0  0
    2.7860    0.3820    0.9990 O   0  0  0  0  0  0  0  0  0  0  0  0
   -1.6540   -0.4460   -1.7260 H   0  0  0  0  0  0  0  0  0  0  0  0
   -0.8220    0.7930   -0.7500 H   0  0  0  0  0  0  0  0  0  0  0  0
    0.0760    1.2750   -2.8250 H   0  0  0  0  0  0  0  0  0  0  0  0
    0.1760   -0.4850   -3.2890 H   0  0  0  0  0  0  0  0  0  0  0  0
    2.3540   -0.2850   -2.4880 H   0  0  0  0  0  0  0  0  0  0  0  0
    2.0190    1.1060   -1.4170 H   0  0  0  0  0  0  0  0  0  0  0  0
    2.1100   -1.6190   -0.6730 H   0  0  0  0  0  0  0  0  0  0  0  0
    1.1860    4.1610    2.1740 N   0  0  0  0  0  0  0  0  0  0  0  0
    0.3050    3.0600    1.9710 C   0  0  0  0  0  0  0  0  0  0  0  0
   -0.1530    2.9460    0.7900 O   0  0  0  0  0  0  0  0  0  0  0  0
   -0.0580    2.1110    3.0510 C   0  0  0  0  0  0  0  0  0  0  0  0
    0.7770    0.8720    2.8850 C   0  0  2  0  0  0  0  0  0  0  0  0
    0.6090    0.1850    1.6450 N   0  0  0  0  0  0  0  0  0  0  0  0
    0.4630   -0.0890    3.9770 C   0  0  0  0  0  0  0  0  0  0  0  0
    0.5600    0.3270    5.1560 O   0  0  0  0  0  0  0  0  0  0  0  0
    0.0760   -1.4020    3.7210 O   0  0  0  0  0  0  0  0  0  0  0  0
    1.9180    4.3310    1.4390 H   0  0  0  0  0  0  0  0  0  0  0  0
    1.1230    4.7830    3.0130 H   0  0  0  0  0  0  0  0  0  0  0  0
    0.2840    2.5880    4.0080 H   0  0  0  0  0  0  0  0  0  0  0  0
   -1.1270    1.9300    3.1410 H   0  0  0  0  0  0  0  0  0  0  0  0
    1.8570    1.1820    3.0220 H   0  0  0  0  0  0  0  0  0  0  0  0
   -0.3440   -0.1690    1.4130 H   0  0  0  0  0  0  0  0  0  0  0  0
  1  7  1  0  0  0  0
  1  2  1  0  0  0  0
  2  8  1  0  0  0  0
  2  3  1  0  0  0  0
  3 10  1  1  0  0  0
  3  4  1  0  0  0  0
  4 11  1  0  0  0  0
  5  3  1  0  0  0  0
  6  5  2  0  0  0  0
  9  2  1  0  0  0  0
 12  4  1  0  0  0  0
 13 17  1  0  0  0  0
 13  5  1  0  0  0  0
 14 21  1  0  0  0  0
 14 13  1  0  0  0  0
 15 16  1  0  0  0  0
 15 14  1  0  0  0  0
 16 25  1  0  0  0  0
 16 17  1  0  0  0  0
 17 26  1  6  0  0  0
 17 18  1  0  0  0  0
 18 19  2  0  0  0  0
 18 32  1  0  0  0  0
 20 14  1  0  0  0  0
 22 15  1  0  0  0  0
 23 15  1  0  0  0  0
 24 16  1  0  0  0  0
 27 37  1  0  0  0  0
 28 27  1  0  0  0  0
 28 30  1  0  0  0  0
 29 28  2  0  0  0  0
 30 39  1  0  0  0  0
 30 38  1  0  0  0  0
 31 40  1  1  0  0  0
 31 30  1  0  0  0  0
 31 33  1  0  0  0  0
 32 31  1  0  0  0  0
 33 34  1  0  0  0  0
 35 33  2  0  0  0  0
 36 27  1  0  0  0  0
 41 32  1  0  0  0  0
M  END
$$$$
