SPP.pdb
 OpenBabel07022419093D

 41 42  0  0  1  0  0  0  0  0999 V2000
   -0.7060   -2.6390    2.1240 O   0  0  0  0  0  0  0  0  0  0  0  0
    0.1220   -3.6010    1.5840 C   0  0  0  0  0  0  0  0  0  0  0  0
    0.1300   -3.6510    0.0700 C   0  0  2  0  0  0  0  0  0  0  0  0
    1.0680   -4.7570   -0.2410 N   0  0  0  0  0  0  0  0  0  0  0  0
    0.6710   -2.4330   -0.5630 C   0  0  0  0  0  0  0  0  0  0  0  0
    1.8470   -2.4710   -1.0670 O   0  0  0  0  0  0  0  0  0  0  0  0
   -1.0160   -2.9290    3.0070 H   0  0  0  0  0  0  0  0  0  0  0  0
    1.1740   -3.4940    1.9570 H   0  0  0  0  0  0  0  0  0  0  0  0
   -0.2200   -4.5810    1.9720 H   0  0  0  0  0  0  0  0  0  0  0  0
   -0.8450   -3.9760   -0.3230 H   0  0  0  0  0  0  0  0  0  0  0  0
    1.3020   -4.7290   -1.2680 H   0  0  0  0  0  0  0  0  0  0  0  0
    1.9490   -4.5010    0.2580 H   0  0  0  0  0  0  0  0  0  0  0  0
   -0.0450   -1.2080   -0.6520 N   0  0  0  0  0  0  0  0  0  0  0  0
   -1.3750   -0.9700   -0.1500 C   0  0  0  0  0  0  0  0  0  0  0  0
   -2.0250   -0.1370   -1.2600 C   0  0  0  0  0  0  0  0  0  0  0  0
   -0.8820    0.4890   -1.9710 C   0  0  0  0  0  0  0  0  0  0  0  0
    0.4000   -0.0040   -1.2810 C   0  0  1  0  0  0  0  0  0  0  0  0
    0.9040    1.0830   -0.4750 C   0  0  0  0  0  0  0  0  0  0  0  0
    1.0780    2.1880   -1.1560 O   0  0  0  0  0  0  0  0  0  0  0  0
   -1.4400   -0.3800    0.7590 H   0  0  0  0  0  0  0  0  0  0  0  0
   -1.9890   -1.9010   -0.1290 H   0  0  0  0  0  0  0  0  0  0  0  0
   -2.5850   -0.7630   -1.9700 H   0  0  0  0  0  0  0  0  0  0  0  0
   -2.7490    0.5940   -0.8420 H   0  0  0  0  0  0  0  0  0  0  0  0
   -0.8740    0.2360   -3.0520 H   0  0  0  0  0  0  0  0  0  0  0  0
   -0.9450    1.5890   -1.8880 H   0  0  0  0  0  0  0  0  0  0  0  0
    1.1160   -0.2650   -2.1290 H   0  0  0  0  0  0  0  0  0  0  0  0
    1.2360    1.1590    0.8920 N   0  0  0  0  0  0  0  0  0  0  0  0
    1.7370    2.4070    1.5420 C   0  0  0  0  0  0  0  0  0  0  0  0
    2.6370    1.9690    2.6440 C   0  0  0  0  0  0  0  0  0  0  0  0
    2.6080    0.4540    2.6310 C   0  0  0  0  0  0  0  0  0  0  0  0
    1.2320    0.2160    1.9630 C   0  0  1  0  0  0  0  0  0  0  0  0
    0.1550    0.4900    2.9510 C   0  0  0  0  0  0  0  0  0  0  0  0
    0.0480   -0.2480    3.9570 O   0  0  0  0  0  0  0  0  0  0  0  0
   -0.7100    1.5430    2.7560 O   0  0  0  0  0  0  0  0  0  0  0  0
    2.3610    2.9490    0.7780 H   0  0  0  0  0  0  0  0  0  0  0  0
    0.8740    2.9870    1.8650 H   0  0  0  0  0  0  0  0  0  0  0  0
    2.2480    2.3020    3.6270 H   0  0  0  0  0  0  0  0  0  0  0  0
    3.6860    2.3160    2.5420 H   0  0  0  0  0  0  0  0  0  0  0  0
    2.6140    0.0390    3.6460 H   0  0  0  0  0  0  0  0  0  0  0  0
    3.3710    0.0340    1.9550 H   0  0  0  0  0  0  0  0  0  0  0  0
    1.2580   -0.8270    1.6600 H   0  0  0  0  0  0  0  0  0  0  0  0
  1  7  1  0  0  0  0
  2  8  1  0  0  0  0
  2  9  1  0  0  0  0
  2  1  1  0  0  0  0
  3 10  1  6  0  0  0
  3  2  1  0  0  0  0
  4  3  1  0  0  0  0
  4 12  1  0  0  0  0
  5  3  1  0  0  0  0
  6  5  2  0  0  0  0
 11  4  1  0  0  0  0
 13  5  1  0  0  0  0
 13 14  1  0  0  0  0
 14 21  1  0  0  0  0
 14 20  1  0  0  0  0
 15 23  1  0  0  0  0
 15 14  1  0  0  0  0
 16 25  1  0  0  0  0
 16 17  1  0  0  0  0
 16 15  1  0  0  0  0
 17 26  1  6  0  0  0
 17 13  1  0  0  0  0
 17 18  1  0  0  0  0
 18 27  1  0  0  0  0
 19 18  2  0  0  0  0
 22 15  1  0  0  0  0
 24 16  1  0  0  0  0
 27 28  1  0  0  0  0
 27 31  1  0  0  0  0
 28 36  1  0  0  0  0
 28 29  1  0  0  0  0
 29 37  1  0  0  0  0
 30 29  1  0  0  0  0
 30 39  1  0  0  0  0
 31 41  1  6  0  0  0
 31 30  1  0  0  0  0
 31 32  1  0  0  0  0
 32 33  1  0  0  0  0
 34 32  2  0  0  0  0
 35 28  1  0  0  0  0
 38 29  1  0  0  0  0
 40 30  1  0  0  0  0
M  END
$$$$
