SPR.pdb
 OpenBabel07022419093D

 50 50  0  0  1  0  0  0  0  0999 V2000
    3.8360   -6.2470    1.0450 O   0  0  0  0  0  0  0  0  0  0  0  0
    2.8090   -5.3390    0.9330 C   0  0  0  0  0  0  0  0  0  0  0  0
    3.3730   -4.0290    0.3900 C   0  0  2  0  0  0  0  0  0  0  0  0
    4.3710   -3.4890    1.2500 N   0  0  0  0  0  0  0  0  0  0  0  0
    2.3150   -3.0950    0.0040 C   0  0  0  0  0  0  0  0  0  0  0  0
    1.2570   -3.5990   -0.5350 O   0  0  0  0  0  0  0  0  0  0  0  0
    4.1480   -6.2370    2.0000 H   0  0  0  0  0  0  0  0  0  0  0  0
    2.0700   -5.7110    0.1750 H   0  0  0  0  0  0  0  0  0  0  0  0
    2.2370   -5.1720    1.8660 H   0  0  0  0  0  0  0  0  0  0  0  0
    3.9150   -4.3460   -0.5540 H   0  0  0  0  0  0  0  0  0  0  0  0
    5.2680   -3.9820    1.2450 H   0  0  0  0  0  0  0  0  0  0  0  0
    4.0400   -3.4520    2.2380 H   0  0  0  0  0  0  0  0  0  0  0  0
    2.3060   -1.6820    0.1530 N   0  0  0  0  0  0  0  0  0  0  0  0
    3.4930   -1.0150    0.6660 C   0  0  0  0  0  0  0  0  0  0  0  0
    3.4210    0.3800    0.0250 C   0  0  0  0  0  0  0  0  0  0  0  0
    2.2040    0.3130   -0.8970 C   0  0  0  0  0  0  0  0  0  0  0  0
    1.3810   -0.6540   -0.0440 C   0  0  1  0  0  0  0  0  0  0  0  0
    0.0340   -0.8050   -0.4480 C   0  0  0  0  0  0  0  0  0  0  0  0
   -0.5060   -1.9040   -0.6750 O   0  0  0  0  0  0  0  0  0  0  0  0
    3.5430   -0.9670    1.7590 H   0  0  0  0  0  0  0  0  0  0  0  0
    4.4350   -1.5050    0.3140 H   0  0  0  0  0  0  0  0  0  0  0  0
    3.3060    1.1110    0.8250 H   0  0  0  0  0  0  0  0  0  0  0  0
    4.3490    0.5820   -0.5260 H   0  0  0  0  0  0  0  0  0  0  0  0
    2.4660   -0.0870   -1.8750 H   0  0  0  0  0  0  0  0  0  0  0  0
    1.7420    1.3100   -0.9570 H   0  0  0  0  0  0  0  0  0  0  0  0
    1.3450   -0.0880    0.9630 H   0  0  0  0  0  0  0  0  0  0  0  0
   -2.4060    3.5630    3.5640 N   0  0  0  0  0  0  0  0  0  0  0  0
   -2.7050    2.1900    3.3470 C   0  0  0  0  0  0  0  0  0  0  0  0
   -1.9340    1.2750    3.7970 N   0  0  0  0  0  0  0  0  0  0  0  0
   -3.8820    1.7840    2.6150 N   0  0  0  0  0  0  0  0  0  0  0  0
   -4.0840    0.3930    2.2930 C   0  0  0  0  0  0  0  0  0  0  0  0
   -3.0670   -0.1170    1.2770 C   0  0  0  0  0  0  0  0  0  0  0  0
   -3.1910    0.6970   -0.0160 C   0  0  0  0  0  0  0  0  0  0  0  0
   -2.1960    0.2160   -1.0400 C   0  0  2  0  0  0  0  0  0  0  0  0
   -0.8370    0.3180   -0.6340 N   0  0  0  0  0  0  0  0  0  0  0  0
   -2.4660    0.8470   -2.3600 C   0  0  0  0  0  0  0  0  0  0  0  0
   -1.6000    1.4110   -3.0410 O   0  0  0  0  0  0  0  0  0  0  0  0
   -3.7670    0.7910   -2.8420 O   0  0  0  0  0  0  0  0  0  0  0  0
   -2.1090    3.9340    4.4980 H   0  0  0  0  0  0  0  0  0  0  0  0
   -2.4910    4.2160    2.7480 H   0  0  0  0  0  0  0  0  0  0  0  0
   -1.0840    1.5310    4.3260 H   0  0  0  0  0  0  0  0  0  0  0  0
   -4.5340    2.5560    2.3570 H   0  0  0  0  0  0  0  0  0  0  0  0
   -4.0350   -0.2770    3.1750 H   0  0  0  0  0  0  0  0  0  0  0  0
   -5.1120    0.2940    1.8840 H   0  0  0  0  0  0  0  0  0  0  0  0
   -3.3000   -1.1550    1.0440 H   0  0  0  0  0  0  0  0  0  0  0  0
   -2.0600   -0.0590    1.6940 H   0  0  0  0  0  0  0  0  0  0  0  0
   -4.2010    0.6620   -0.4190 H   0  0  0  0  0  0  0  0  0  0  0  0
   -2.9050    1.7340    0.2620 H   0  0  0  0  0  0  0  0  0  0  0  0
   -2.4090   -0.8860   -1.1800 H   0  0  0  0  0  0  0  0  0  0  0  0
   -0.3920    1.2410   -0.4440 H   0  0  0  0  0  0  0  0  0  0  0  0
  1  7  1  0  0  0  0
  2  1  1  0  0  0  0
  2  9  1  0  0  0  0
  3 10  1  6  0  0  0
  3  2  1  0  0  0  0
  3  4  1  0  0  0  0
  4 12  1  0  0  0  0
  5 13  1  0  0  0  0
  5  3  1  0  0  0  0
  6  5  2  0  0  0  0
  8  2  1  0  0  0  0
 11  4  1  0  0  0  0
 13 14  1  0  0  0  0
 14 20  1  0  0  0  0
 15 14  1  0  0  0  0
 15 22  1  0  0  0  0
 16 17  1  0  0  0  0
 16 15  1  0  0  0  0
 17 13  1  0  0  0  0
 17 26  1  1  0  0  0
 18 17  1  0  0  0  0
 19 18  2  0  0  0  0
 21 14  1  0  0  0  0
 23 15  1  0  0  0  0
 24 16  1  0  0  0  0
 25 16  1  0  0  0  0
 27 39  1  0  0  0  0
 28 27  1  0  0  0  0
 28 29  2  0  0  0  0
 29 41  1  0  0  0  0
 30 28  1  0  0  0  0
 31 30  1  0  0  0  0
 31 43  1  0  0  0  0
 32 46  1  0  0  0  0
 32 31  1  0  0  0  0
 33 48  1  0  0  0  0
 33 32  1  0  0  0  0
 34 49  1  6  0  0  0
 34 35  1  0  0  0  0
 34 33  1  0  0  0  0
 35 18  1  0  0  0  0
 35 50  1  0  0  0  0
 36 34  1  0  0  0  0
 37 36  2  0  0  0  0
 38 36  1  0  0  0  0
 40 27  1  0  0  0  0
 42 30  1  0  0  0  0
 44 31  1  0  0  0  0
 45 32  1  0  0  0  0
 47 33  1  0  0  0  0
M  END
$$$$
