SPT.pdb
 OpenBabel07022419093D

 41 41  0  0  1  0  0  0  0  0999 V2000
   -2.2400   -2.0820    0.6750 O   0  0  0  0  0  0  0  0  0  0  0  0
   -1.6890   -2.2060   -0.6080 C   0  0  0  0  0  0  0  0  0  0  0  0
   -0.6100   -3.2840   -0.6280 C   0  0  2  0  0  0  0  0  0  0  0  0
   -1.1750   -4.5650   -0.2420 N   0  0  0  0  0  0  0  0  0  0  0  0
    0.5220   -2.9080    0.2540 C   0  0  0  0  0  0  0  0  0  0  0  0
    0.7970   -3.6140    1.2790 O   0  0  0  0  0  0  0  0  0  0  0  0
   -1.7220   -2.5830    1.3490 H   0  0  0  0  0  0  0  0  0  0  0  0
   -1.3090   -1.2270   -0.9500 H   0  0  0  0  0  0  0  0  0  0  0  0
   -2.5310   -2.4770   -1.2770 H   0  0  0  0  0  0  0  0  0  0  0  0
   -0.2660   -3.3790   -1.6730 H   0  0  0  0  0  0  0  0  0  0  0  0
   -2.1350   -4.4820    0.1460 H   0  0  0  0  0  0  0  0  0  0  0  0
   -0.5270   -5.1390    0.3280 H   0  0  0  0  0  0  0  0  0  0  0  0
    1.3510   -1.7660    0.0180 N   0  0  0  0  0  0  0  0  0  0  0  0
    1.2280   -0.8490   -1.0900 C   0  0  0  0  0  0  0  0  0  0  0  0
    2.6710   -0.5460   -1.4150 C   0  0  0  0  0  0  0  0  0  0  0  0
    3.4640   -0.8420   -0.1870 C   0  0  0  0  0  0  0  0  0  0  0  0
    2.4510   -1.3010    0.8210 C   0  0  1  0  0  0  0  0  0  0  0  0
    2.0440   -0.1920    1.7510 C   0  0  0  0  0  0  0  0  0  0  0  0
    2.8880    0.4470    2.4170 O   0  0  0  0  0  0  0  0  0  0  0  0
    0.7130    0.0840   -0.8430 H   0  0  0  0  0  0  0  0  0  0  0  0
    0.8150   -1.3450   -1.9990 H   0  0  0  0  0  0  0  0  0  0  0  0
    3.0390   -1.1760   -2.2590 H   0  0  0  0  0  0  0  0  0  0  0  0
    2.8040    0.5100   -1.7360 H   0  0  0  0  0  0  0  0  0  0  0  0
    4.0570    0.0280    0.1710 H   0  0  0  0  0  0  0  0  0  0  0  0
    4.1520   -1.7080   -0.3770 H   0  0  0  0  0  0  0  0  0  0  0  0
    2.8870   -2.1390    1.4350 H   0  0  0  0  0  0  0  0  0  0  0  0
    0.7450    2.8500    1.0150 C   0  0  0  0  0  0  0  0  0  0  0  0
   -0.3550    2.2990    1.8830 C   0  0  1  0  0  0  0  0  0  0  0  0
   -1.4100    1.8600    1.1090 O   0  0  0  0  0  0  0  0  0  0  0  0
    0.2130    1.2040    2.7580 C   0  0  2  0  0  0  0  0  0  0  0  0
    0.6750    0.1420    1.8810 N   0  0  0  0  0  0  0  0  0  0  0  0
   -0.7900    0.6980    3.7210 C   0  0  0  0  0  0  0  0  0  0  0  0
   -1.2940    1.4780    4.5560 O   0  0  0  0  0  0  0  0  0  0  0  0
   -1.1620   -0.6320    3.6910 O   0  0  0  0  0  0  0  0  0  0  0  0
    0.3380    3.6370    0.3520 H   0  0  0  0  0  0  0  0  0  0  0  0
    1.2030    2.0910    0.3800 H   0  0  0  0  0  0  0  0  0  0  0  0
    1.5160    3.2680    1.7100 H   0  0  0  0  0  0  0  0  0  0  0  0
   -0.7140    3.0920    2.5720 H   0  0  0  0  0  0  0  0  0  0  0  0
   -1.7160    2.6010    0.5490 H   0  0  0  0  0  0  0  0  0  0  0  0
    1.1110    1.6320    3.2490 H   0  0  0  0  0  0  0  0  0  0  0  0
   -0.0380   -0.3880    1.3390 H   0  0  0  0  0  0  0  0  0  0  0  0
  1  7  1  0  0  0  0
  2  1  1  0  0  0  0
  3 10  1  6  0  0  0
  3  2  1  0  0  0  0
  3  4  1  0  0  0  0
  3  5  1  0  0  0  0
  4 11  1  0  0  0  0
  4 12  1  0  0  0  0
  5  6  2  0  0  0  0
  8  2  1  0  0  0  0
  9  2  1  0  0  0  0
 13  5  1  0  0  0  0
 13 17  1  0  0  0  0
 14 20  1  0  0  0  0
 14 13  1  0  0  0  0
 15 14  1  0  0  0  0
 15 16  1  0  0  0  0
 16 24  1  0  0  0  0
 16 17  1  0  0  0  0
 17 26  1  1  0  0  0
 17 18  1  0  0  0  0
 18 31  1  0  0  0  0
 18 19  2  0  0  0  0
 21 14  1  0  0  0  0
 22 15  1  0  0  0  0
 23 15  1  0  0  0  0
 25 16  1  0  0  0  0
 27 37  1  0  0  0  0
 27 28  1  0  0  0  0
 28 38  1  1  0  0  0
 28 30  1  0  0  0  0
 29 28  1  0  0  0  0
 30 40  1  1  0  0  0
 30 32  1  0  0  0  0
 31 30  1  0  0  0  0
 32 33  1  0  0  0  0
 34 32  2  0  0  0  0
 35 27  1  0  0  0  0
 36 27  1  0  0  0  0
 39 29  1  0  0  0  0
 41 31  1  0  0  0  0
M  END
$$$$
