SPV.pdb
 OpenBabel07022419093D

 43 43  0  0  1  0  0  0  0  0999 V2000
   -0.2770   -6.1020    0.2460 O   0  0  0  0  0  0  0  0  0  0  0  0
    0.2260   -5.0250   -0.4790 C   0  0  0  0  0  0  0  0  0  0  0  0
   -0.1280   -3.7600    0.3020 C   0  0  2  0  0  0  0  0  0  0  0  0
   -1.5250   -3.6030    0.4700 N   0  0  0  0  0  0  0  0  0  0  0  0
    0.5330   -2.5790   -0.2580 C   0  0  0  0  0  0  0  0  0  0  0  0
    1.8170   -2.6500   -0.3930 O   0  0  0  0  0  0  0  0  0  0  0  0
   -1.2130   -6.3020    0.0620 H   0  0  0  0  0  0  0  0  0  0  0  0
   -0.1420   -4.9870   -1.5180 H   0  0  0  0  0  0  0  0  0  0  0  0
    1.3250   -5.1620   -0.5230 H   0  0  0  0  0  0  0  0  0  0  0  0
    0.2990   -3.9660    1.3350 H   0  0  0  0  0  0  0  0  0  0  0  0
   -2.0970   -4.4330    0.2170 H   0  0  0  0  0  0  0  0  0  0  0  0
   -1.8140   -3.1690    1.3730 H   0  0  0  0  0  0  0  0  0  0  0  0
   -0.0910   -1.3780   -0.6630 N   0  0  0  0  0  0  0  0  0  0  0  0
   -1.4640   -0.9410   -0.6750 C   0  0  0  0  0  0  0  0  0  0  0  0
   -1.5550   -0.4010   -2.1070 C   0  0  0  0  0  0  0  0  0  0  0  0
   -0.2220    0.3010   -2.2740 C   0  0  0  0  0  0  0  0  0  0  0  0
    0.6610   -0.2290   -1.1980 C   0  0  1  0  0  0  0  0  0  0  0  0
    0.8310    0.7870   -0.1300 C   0  0  0  0  0  0  0  0  0  0  0  0
    1.2680    1.9550   -0.4220 O   0  0  0  0  0  0  0  0  0  0  0  0
   -1.5440   -0.0410   -0.0280 H   0  0  0  0  0  0  0  0  0  0  0  0
   -2.2240   -1.6780   -0.4720 H   0  0  0  0  0  0  0  0  0  0  0  0
   -1.6670   -1.2250   -2.8430 H   0  0  0  0  0  0  0  0  0  0  0  0
   -2.3820    0.3260   -2.2060 H   0  0  0  0  0  0  0  0  0  0  0  0
    0.1740    0.1360   -3.2980 H   0  0  0  0  0  0  0  0  0  0  0  0
   -0.3570    1.4080   -2.1330 H   0  0  0  0  0  0  0  0  0  0  0  0
    1.6500   -0.5770   -1.5850 H   0  0  0  0  0  0  0  0  0  0  0  0
    2.7970    0.5790    3.1760 C   0  0  0  0  0  0  0  0  0  0  0  0
    2.1140    1.8140    2.6620 C   0  0  0  0  0  0  0  0  0  0  0  0
    2.1200    2.8330    3.7910 C   0  0  0  0  0  0  0  0  0  0  0  0
    0.6960    1.5530    2.2800 C   0  0  2  0  0  0  0  0  0  0  0  0
    0.5400    0.5610    1.2420 N   0  0  0  0  0  0  0  0  0  0  0  0
   -0.0450    2.8180    1.9320 C   0  0  0  0  0  0  0  0  0  0  0  0
   -0.7270    2.9060    0.8870 O   0  0  0  0  0  0  0  0  0  0  0  0
    0.0150    3.9190    2.7690 O   0  0  0  0  0  0  0  0  0  0  0  0
    3.1720   -0.0630    2.3630 H   0  0  0  0  0  0  0  0  0  0  0  0
    2.0730   -0.0000    3.8000 H   0  0  0  0  0  0  0  0  0  0  0  0
    3.6390    0.8330    3.8620 H   0  0  0  0  0  0  0  0  0  0  0  0
    2.6850    2.2230    1.7990 H   0  0  0  0  0  0  0  0  0  0  0  0
    2.2530    3.8690    3.4250 H   0  0  0  0  0  0  0  0  0  0  0  0
    1.1830    2.6790    4.3650 H   0  0  0  0  0  0  0  0  0  0  0  0
    2.9450    2.5970    4.4980 H   0  0  0  0  0  0  0  0  0  0  0  0
    0.1540    1.1350    3.1930 H   0  0  0  0  0  0  0  0  0  0  0  0
    0.2030   -0.3990    1.4890 H   0  0  0  0  0  0  0  0  0  0  0  0
  2  1  1  0  0  0  0
  2  3  1  0  0  0  0
  3  4  1  0  0  0  0
  3 10  1  1  0  0  0
  4 12  1  0  0  0  0
  5  3  1  0  0  0  0
  6  5  2  0  0  0  0
  7  1  1  0  0  0  0
  8  2  1  0  0  0  0
  9  2  1  0  0  0  0
 11  4  1  0  0  0  0
 13  5  1  0  0  0  0
 14 13  1  0  0  0  0
 14 21  1  0  0  0  0
 14 20  1  0  0  0  0
 15 14  1  0  0  0  0
 16 25  1  0  0  0  0
 16 15  1  0  0  0  0
 16 17  1  0  0  0  0
 17 26  1  6  0  0  0
 17 13  1  0  0  0  0
 17 18  1  0  0  0  0
 18 31  1  0  0  0  0
 19 18  2  0  0  0  0
 22 15  1  0  0  0  0
 23 15  1  0  0  0  0
 24 16  1  0  0  0  0
 27 36  1  0  0  0  0
 27 37  1  0  0  0  0
 28 27  1  0  0  0  0
 28 29  1  0  0  0  0
 29 40  1  0  0  0  0
 29 41  1  0  0  0  0
 30 28  1  0  0  0  0
 30 42  1  1  0  0  0
 31 43  1  0  0  0  0
 31 30  1  0  0  0  0
 32 30  1  0  0  0  0
 32 34  1  0  0  0  0
 33 32  2  0  0  0  0
 35 27  1  0  0  0  0
 38 28  1  0  0  0  0
 39 29  1  0  0  0  0
M  END
$$$$
