SPW.pdb
 OpenBabel07022419093D

 51 53  0  0  1  0  0  0  0  0999 V2000
    2.4180   -0.5870    5.3500 O   0  0  0  0  0  0  0  0  0  0  0  0
    1.3770   -0.5510    4.3960 C   0  0  0  0  0  0  0  0  0  0  0  0
    1.6370   -1.7220    3.4340 C   0  0  2  0  0  0  0  0  0  0  0  0
    1.6330   -2.9210    4.3090 N   0  0  0  0  0  0  0  0  0  0  0  0
    2.9670   -1.5010    2.8690 C   0  0  0  0  0  0  0  0  0  0  0  0
    3.9420   -1.9500    3.6190 O   0  0  0  0  0  0  0  0  0  0  0  0
    2.1400   -0.0150    6.1270 H   0  0  0  0  0  0  0  0  0  0  0  0
    1.4970    0.3710    3.8150 H   0  0  0  0  0  0  0  0  0  0  0  0
    0.3810   -0.5750    4.8390 H   0  0  0  0  0  0  0  0  0  0  0  0
    0.8980   -1.8730    2.6800 H   0  0  0  0  0  0  0  0  0  0  0  0
    0.7460   -2.7960    4.8800 H   0  0  0  0  0  0  0  0  0  0  0  0
    2.4040   -2.7410    5.0040 H   0  0  0  0  0  0  0  0  0  0  0  0
    3.3560   -0.8940    1.6640 N   0  0  0  0  0  0  0  0  0  0  0  0
    4.8640   -0.7660    1.3890 C   0  0  0  0  0  0  0  0  0  0  0  0
    4.9740   -1.0940   -0.0810 C   0  0  0  0  0  0  0  0  0  0  0  0
    3.5440   -1.3140   -0.5460 C   0  0  0  0  0  0  0  0  0  0  0  0
    2.8520   -0.3470    0.4850 C   0  0  1  0  0  0  0  0  0  0  0  0
    1.4980   -0.1090    0.1220 C   0  0  0  0  0  0  0  0  0  0  0  0
    1.2930   -0.1290   -1.1810 O   0  0  0  0  0  0  0  0  0  0  0  0
    5.0540    0.3000    1.6060 H   0  0  0  0  0  0  0  0  0  0  0  0
    5.4050   -1.4700    2.0090 H   0  0  0  0  0  0  0  0  0  0  0  0
    5.6240   -1.9540   -0.2960 H   0  0  0  0  0  0  0  0  0  0  0  0
    5.3200   -0.1680   -0.6130 H   0  0  0  0  0  0  0  0  0  0  0  0
    3.3540   -0.9640   -1.5580 H   0  0  0  0  0  0  0  0  0  0  0  0
    3.2160   -2.3460   -0.3210 H   0  0  0  0  0  0  0  0  0  0  0  0
    3.4930    0.6150    0.2870 H   0  0  0  0  0  0  0  0  0  0  0  0
    0.3340    0.1460    0.8460 N   0  0  0  0  0  0  0  0  0  0  0  0
   -0.9530    0.3470    0.1640 C   0  0  1  0  0  0  0  0  0  0  0  0
   -1.8890   -0.7980    0.5440 C   0  0  0  0  0  0  0  0  0  0  0  0
   -3.2000   -0.6310   -0.1280 C   0  0  0  0  0  0  0  0  0  0  0  0
   -4.3890   -0.2040    0.3990 C   0  0  0  0  0  0  0  0  0  0  0  0
   -5.3020   -0.2170   -0.5980 N   0  0  0  0  0  0  0  0  0  0  0  0
   -4.7330   -0.6390   -1.7390 C   0  0  0  0  0  0  0  0  0  0  0  0
   -5.1700   -0.8440   -3.0300 C   0  0  0  0  0  0  0  0  0  0  0  0
   -4.3250   -1.2960   -4.0100 C   0  0  0  0  0  0  0  0  0  0  0  0
   -3.0070   -1.5640   -3.7520 C   0  0  0  0  0  0  0  0  0  0  0  0
   -2.5510   -1.3630   -2.4570 C   0  0  0  0  0  0  0  0  0  0  0  0
   -3.4040   -0.9100   -1.4830 C   0  0  0  0  0  0  0  0  0  0  0  0
   -1.5500    1.6240    0.6190 C   0  0  0  0  0  0  0  0  0  0  0  0
   -1.0030    2.3770    1.4570 O   0  0  0  0  0  0  0  0  0  0  0  0
   -2.7710    2.0090    0.0960 O   0  0  0  0  0  0  0  0  0  0  0  0
    0.3500    0.2190    1.8500 H   0  0  0  0  0  0  0  0  0  0  0  0
   -0.8290    0.2830   -0.9200 H   0  0  0  0  0  0  0  0  0  0  0  0
   -1.4590   -1.7740    0.2880 H   0  0  0  0  0  0  0  0  0  0  0  0
   -2.0170   -0.7600    1.6610 H   0  0  0  0  0  0  0  0  0  0  0  0
   -4.5570    0.0860    1.4180 H   0  0  0  0  0  0  0  0  0  0  0  0
   -6.3190    0.0670   -0.4770 H   0  0  0  0  0  0  0  0  0  0  0  0
   -6.2100   -0.6350   -3.2440 H   0  0  0  0  0  0  0  0  0  0  0  0
   -4.7090   -1.4430   -5.0100 H   0  0  0  0  0  0  0  0  0  0  0  0
   -2.3750   -1.9160   -4.5410 H   0  0  0  0  0  0  0  0  0  0  0  0
   -1.5130   -1.5780   -2.2700 H   0  0  0  0  0  0  0  0  0  0  0  0
  1  7  1  0  0  0  0
  2  9  1  0  0  0  0
  2  1  1  0  0  0  0
  3 10  1  6  0  0  0
  3  4  1  0  0  0  0
  3  2  1  0  0  0  0
  4 11  1  0  0  0  0
  4 12  1  0  0  0  0
  5  3  1  0  0  0  0
  5  6  2  0  0  0  0
  8  2  1  0  0  0  0
 13  5  1  0  0  0  0
 14 20  1  0  0  0  0
 14 13  1  0  0  0  0
 14 21  1  0  0  0  0
 15 14  1  0  0  0  0
 16 25  1  0  0  0  0
 16 15  1  0  0  0  0
 16 17  1  0  0  0  0
 17 26  1  6  0  0  0
 17 13  1  0  0  0  0
 18 17  1  0  0  0  0
 18 27  1  0  0  0  0
 19 18  2  0  0  0  0
 22 15  1  0  0  0  0
 23 15  1  0  0  0  0
 24 16  1  0  0  0  0
 27 42  1  0  0  0  0
 28 43  1  6  0  0  0
 28 29  1  0  0  0  0
 28 39  1  0  0  0  0
 28 27  1  0  0  0  0
 29 45  1  0  0  0  0
 30 31  2  0  0  0  0
 30 29  1  0  0  0  0
 31 46  1  0  0  0  0
 32 47  1  0  0  0  0
 32 31  1  0  0  0  0
 33 38  1  0  0  0  0
 33 32  1  0  0  0  0
 34 33  2  0  0  0  0
 35 36  2  0  0  0  0
 35 34  1  0  0  0  0
 36 37  1  0  0  0  0
 37 51  1  0  0  0  0
 37 38  2  0  0  0  0
 38 30  1  0  0  0  0
 39 40  1  0  0  0  0
 41 39  2  0  0  0  0
 44 29  1  0  0  0  0
 48 34  1  0  0  0  0
 49 35  1  0  0  0  0
 50 36  1  0  0  0  0
M  END
$$$$
