SPY.pdb
 OpenBabel07022419093D

 48 49  0  0  1  0  0  0  0  0999 V2000
    3.9220   -3.9320    1.3440 O   0  0  0  0  0  0  0  0  0  0  0  0
    3.8740   -2.8810    0.4000 C   0  0  0  0  0  0  0  0  0  0  0  0
    2.7410   -3.2470   -0.5620 C   0  0  2  0  0  0  0  0  0  0  0  0
    3.1490   -4.5270   -1.1290 N   0  0  0  0  0  0  0  0  0  0  0  0
    2.6870   -2.1980   -1.6110 C   0  0  0  0  0  0  0  0  0  0  0  0
    3.2320   -2.4490   -2.7490 O   0  0  0  0  0  0  0  0  0  0  0  0
    3.3290   -3.7490    2.1040 H   0  0  0  0  0  0  0  0  0  0  0  0
    4.8340   -2.7680   -0.1240 H   0  0  0  0  0  0  0  0  0  0  0  0
    3.5840   -1.9790    0.9570 H   0  0  0  0  0  0  0  0  0  0  0  0
    1.8320   -3.3450    0.0390 H   0  0  0  0  0  0  0  0  0  0  0  0
    2.5470   -4.8020   -1.9420 H   0  0  0  0  0  0  0  0  0  0  0  0
    2.9440   -5.2460   -0.3750 H   0  0  0  0  0  0  0  0  0  0  0  0
    2.0810   -0.9380   -1.4670 N   0  0  0  0  0  0  0  0  0  0  0  0
    2.0550    0.0980   -2.4900 C   0  0  0  0  0  0  0  0  0  0  0  0
    2.4720    1.3210   -1.6920 C   0  0  0  0  0  0  0  0  0  0  0  0
    1.7060    1.1340   -0.4010 C   0  0  0  0  0  0  0  0  0  0  0  0
    1.3510   -0.3630   -0.3620 C   0  0  1  0  0  0  0  0  0  0  0  0
   -0.1270   -0.5010   -0.6120 C   0  0  0  0  0  0  0  0  0  0  0  0
   -0.5150   -1.0510   -1.6590 O   0  0  0  0  0  0  0  0  0  0  0  0
    2.7620   -0.0730   -3.3000 H   0  0  0  0  0  0  0  0  0  0  0  0
    1.0520    0.2370   -2.9150 H   0  0  0  0  0  0  0  0  0  0  0  0
    2.2150    2.2640   -2.2060 H   0  0  0  0  0  0  0  0  0  0  0  0
    3.5600    1.2700   -1.5360 H   0  0  0  0  0  0  0  0  0  0  0  0
    2.3630    1.4160    0.4280 H   0  0  0  0  0  0  0  0  0  0  0  0
    0.7910    1.7360   -0.4610 H   0  0  0  0  0  0  0  0  0  0  0  0
    1.6350   -0.7470    0.6080 H   0  0  0  0  0  0  0  0  0  0  0  0
   -2.1090    1.2300    6.2680 O   0  0  0  0  0  0  0  0  0  0  0  0
   -2.3420    0.6680    5.0120 C   0  0  0  0  0  0  0  0  0  0  0  0
   -1.3980   -0.1610    4.4420 C   0  0  0  0  0  0  0  0  0  0  0  0
   -1.6320   -0.7140    3.2010 C   0  0  0  0  0  0  0  0  0  0  0  0
   -2.8000   -0.4550    2.5090 C   0  0  0  0  0  0  0  0  0  0  0  0
   -3.0550   -1.0570    1.1610 C   0  0  0  0  0  0  0  0  0  0  0  0
   -2.5290   -0.1600    0.0600 C   0  0  2  0  0  0  0  0  0  0  0  0
   -1.0980   -0.0270    0.3000 N   0  0  0  0  0  0  0  0  0  0  0  0
   -3.2300    1.1240    0.0990 C   0  0  0  0  0  0  0  0  0  0  0  0
   -2.6890    2.2300    0.3200 O   0  0  0  0  0  0  0  0  0  0  0  0
   -3.7230    0.3750    3.1020 C   0  0  0  0  0  0  0  0  0  0  0  0
   -3.5080    0.9430    4.3530 C   0  0  0  0  0  0  0  0  0  0  0  0
   -4.5990    1.1220   -0.1260 O   0  0  0  0  0  0  0  0  0  0  0  0
   -1.1760    1.4030    6.5870 H   0  0  0  0  0  0  0  0  0  0  0  0
   -0.4670   -0.3730    4.9820 H   0  0  0  0  0  0  0  0  0  0  0  0
   -0.8840   -1.3650    2.7580 H   0  0  0  0  0  0  0  0  0  0  0  0
   -4.1290   -1.3040    1.0250 H   0  0  0  0  0  0  0  0  0  0  0  0
   -2.5010   -2.0240    1.0610 H   0  0  0  0  0  0  0  0  0  0  0  0
   -2.7150   -0.6670   -0.9080 H   0  0  0  0  0  0  0  0  0  0  0  0
   -0.7730    0.4300    1.1690 H   0  0  0  0  0  0  0  0  0  0  0  0
   -4.6480    0.5820    2.5620 H   0  0  0  0  0  0  0  0  0  0  0  0
   -4.2630    1.5810    4.7640 H   0  0  0  0  0  0  0  0  0  0  0  0
  1  7  1  0  0  0  0
  2  9  1  0  0  0  0
  2  1  1  0  0  0  0
  3 10  1  1  0  0  0
  3  2  1  0  0  0  0
  4  3  1  0  0  0  0
  4 12  1  0  0  0  0
  5 13  1  0  0  0  0
  5  3  1  0  0  0  0
  6  5  2  0  0  0  0
  8  2  1  0  0  0  0
 11  4  1  0  0  0  0
 13 17  1  0  0  0  0
 14 15  1  0  0  0  0
 14 13  1  0  0  0  0
 15 23  1  0  0  0  0
 15 16  1  0  0  0  0
 16 17  1  0  0  0  0
 16 24  1  0  0  0  0
 17 26  1  1  0  0  0
 18 17  1  0  0  0  0
 18 34  1  0  0  0  0
 19 18  2  0  0  0  0
 20 14  1  0  0  0  0
 21 14  1  0  0  0  0
 22 15  1  0  0  0  0
 25 16  1  0  0  0  0
 27 40  1  0  0  0  0
 28 27  1  0  0  0  0
 29 41  1  0  0  0  0
 29 28  1  0  0  0  0
 30 29  2  0  0  0  0
 31 37  2  0  0  0  0
 31 30  1  0  0  0  0
 32 31  1  0  0  0  0
 33 45  1  6  0  0  0
 33 35  1  0  0  0  0
 33 34  1  0  0  0  0
 33 32  1  0  0  0  0
 34 46  1  0  0  0  0
 35 36  1  0  0  0  0
 37 38  1  0  0  0  0
 38 48  1  0  0  0  0
 38 28  2  0  0  0  0
 39 35  2  0  0  0  0
 42 30  1  0  0  0  0
 43 32  1  0  0  0  0
 44 32  1  0  0  0  0
 47 37  1  0  0  0  0
M  END
$$$$
