SQE.pdb
 OpenBabel07022419083D

 46 45  0  0  1  0  0  0  0  0999 V2000
    3.3030   -3.6640    1.1430 O   0  0  0  0  0  0  0  0  0  0  0  0
    4.2150   -2.6530    0.8100 C   0  0  0  0  0  0  0  0  0  0  0  0
    4.3640   -1.7480    2.0400 C   0  0  2  0  0  0  0  0  0  0  0  0
    4.8560   -2.6120    3.0950 N   0  0  0  0  0  0  0  0  0  0  0  0
    2.9890   -1.3230    2.3900 C   0  0  0  0  0  0  0  0  0  0  0  0
    2.4500   -1.7170    3.4320 O   0  0  0  0  0  0  0  0  0  0  0  0
    2.6770   -3.7680    0.3940 H   0  0  0  0  0  0  0  0  0  0  0  0
    3.8180   -2.0370   -0.0100 H   0  0  0  0  0  0  0  0  0  0  0  0
    5.1880   -3.0600    0.5090 H   0  0  0  0  0  0  0  0  0  0  0  0
    5.0310   -0.9180    1.8140 H   0  0  0  0  0  0  0  0  0  0  0  0
    5.4230   -3.4180    2.7150 H   0  0  0  0  0  0  0  0  0  0  0  0
    4.0700   -2.9360    3.6870 H   0  0  0  0  0  0  0  0  0  0  0  0
    1.3300    4.8070    0.5930 N   0  0  0  0  0  0  0  0  0  0  0  0
    1.0290    3.7170    1.4710 C   0  0  0  0  0  0  0  0  0  0  0  0
    0.6340    4.0320    2.6260 O   0  0  0  0  0  0  0  0  0  0  0  0
    1.1820    2.3020    1.0240 C   0  0  0  0  0  0  0  0  0  0  0  0
    0.7860    1.4340    2.1910 C   0  0  0  0  0  0  0  0  0  0  0  0
    0.8840   -0.0410    1.9050 C   0  0  2  0  0  0  0  0  0  0  0  0
    2.2260   -0.4480    1.5510 N   0  0  0  0  0  0  0  0  0  0  0  0
   -0.1160   -0.4960    0.9100 C   0  0  0  0  0  0  0  0  0  0  0  0
    0.3030   -1.1610   -0.0830 O   0  0  0  0  0  0  0  0  0  0  0  0
    2.3060    5.1160    0.4510 H   0  0  0  0  0  0  0  0  0  0  0  0
    0.5850    5.3300    0.0660 H   0  0  0  0  0  0  0  0  0  0  0  0
    0.6130    2.0760    0.1080 H   0  0  0  0  0  0  0  0  0  0  0  0
    2.2550    2.1690    0.7740 H   0  0  0  0  0  0  0  0  0  0  0  0
   -0.2250    1.6530    2.5400 H   0  0  0  0  0  0  0  0  0  0  0  0
    1.4910    1.6560    3.0210 H   0  0  0  0  0  0  0  0  0  0  0  0
    0.6300   -0.5480    2.8610 H   0  0  0  0  0  0  0  0  0  0  0  0
    2.6960   -0.1250    0.6770 H   0  0  0  0  0  0  0  0  0  0  0  0
   -1.4880   -0.2380    0.9990 N   0  0  0  0  0  0  0  0  0  0  0  0
   -2.4640   -0.7020   -0.0040 C   0  0  1  0  0  0  0  0  0  0  0  0
   -3.4890   -1.5430    0.6940 C   0  0  0  0  0  0  0  0  0  0  0  0
   -4.5000   -2.0650   -0.2890 C   0  0  0  0  0  0  0  0  0  0  0  0
   -3.8780   -2.9010   -1.3400 C   0  0  0  0  0  0  0  0  0  0  0  0
   -3.2430   -2.4320   -2.3020 O   0  0  0  0  0  0  0  0  0  0  0  0
   -3.1010    0.4990   -0.6050 C   0  0  0  0  0  0  0  0  0  0  0  0
   -2.7510    1.6380   -0.1350 O   0  0  0  0  0  0  0  0  0  0  0  0
   -3.9730   -4.3040   -1.3080 O   0  0  0  0  0  0  0  0  0  0  0  0
   -4.0310    0.4580   -1.6260 O   0  0  0  0  0  0  0  0  0  0  0  0
   -1.8550    0.3030    1.7980 H   0  0  0  0  0  0  0  0  0  0  0  0
   -1.9330   -1.2580   -0.7760 H   0  0  0  0  0  0  0  0  0  0  0  0
   -3.0390   -2.4260    1.1960 H   0  0  0  0  0  0  0  0  0  0  0  0
   -3.9980   -0.8840    1.4530 H   0  0  0  0  0  0  0  0  0  0  0  0
   -5.1360   -1.3060   -0.7560 H   0  0  0  0  0  0  0  0  0  0  0  0
   -5.2230   -2.7490    0.2630 H   0  0  0  0  0  0  0  0  0  0  0  0
   -3.6060   -4.8680   -2.0790 H   0  0  0  0  0  0  0  0  0  0  0  0
  2  1  1  0  0  0  0
  2  3  1  0  0  0  0
  3 10  1  6  0  0  0
  3  5  1  0  0  0  0
  3  4  1  0  0  0  0
  4 12  1  0  0  0  0
  5  6  2  0  0  0  0
  7  1  1  0  0  0  0
  8  2  1  0  0  0  0
  9  2  1  0  0  0  0
 11  4  1  0  0  0  0
 13 14  1  0  0  0  0
 14 15  2  0  0  0  0
 16 14  1  0  0  0  0
 16 17  1  0  0  0  0
 17 26  1  0  0  0  0
 17 27  1  0  0  0  0
 18 17  1  0  0  0  0
 18 28  1  1  0  0  0
 19 18  1  0  0  0  0
 19  5  1  0  0  0  0
 20 30  1  0  0  0  0
 20 18  1  0  0  0  0
 21 20  2  0  0  0  0
 22 13  1  0  0  0  0
 23 13  1  0  0  0  0
 24 16  1  0  0  0  0
 25 16  1  0  0  0  0
 29 19  1  0  0  0  0
 30 40  1  0  0  0  0
 31 41  1  6  0  0  0
 31 32  1  0  0  0  0
 31 30  1  0  0  0  0
 32 42  1  0  0  0  0
 32 43  1  0  0  0  0
 33 45  1  0  0  0  0
 33 32  1  0  0  0  0
 34 38  1  0  0  0  0
 34 33  1  0  0  0  0
 35 34  2  0  0  0  0
 36 37  1  0  0  0  0
 36 31  1  0  0  0  0
 39 36  2  0  0  0  0
 44 33  1  0  0  0  0
 46 38  1  0  0  0  0
M  END
$$$$
