SQG.pdb
 OpenBabel07022419083D

 37 36  0  0  1  0  0  0  0  0999 V2000
    3.6650   -0.4700    3.9670 O   0  0  0  0  0  0  0  0  0  0  0  0
    3.3700   -1.6820    3.3070 C   0  0  0  0  0  0  0  0  0  0  0  0
    1.8530   -1.7180    3.1230 C   0  0  2  0  0  0  0  0  0  0  0  0
    1.3990   -2.8860    2.4690 N   0  0  0  0  0  0  0  0  0  0  0  0
    1.4260   -0.4520    2.5050 C   0  0  0  0  0  0  0  0  0  0  0  0
    1.8000    0.6220    3.0430 O   0  0  0  0  0  0  0  0  0  0  0  0
    3.1380   -0.4380    4.8050 H   0  0  0  0  0  0  0  0  0  0  0  0
    3.9030   -1.7270    2.3560 H   0  0  0  0  0  0  0  0  0  0  0  0
    3.6930   -2.4900    4.0110 H   0  0  0  0  0  0  0  0  0  0  0  0
    1.4340   -1.7210    4.1680 H   0  0  0  0  0  0  0  0  0  0  0  0
    0.5150   -3.2920    2.7960 H   0  0  0  0  0  0  0  0  0  0  0  0
    2.1040   -3.5340    2.1150 H   0  0  0  0  0  0  0  0  0  0  0  0
    1.1250   -1.8680   -2.4270 N   0  0  0  0  0  0  0  0  0  0  0  0
    1.4850   -0.8120   -1.5440 C   0  0  0  0  0  0  0  0  0  0  0  0
    2.3580   -1.0000   -0.6660 O   0  0  0  0  0  0  0  0  0  0  0  0
    0.8390    0.5050   -1.6560 C   0  0  0  0  0  0  0  0  0  0  0  0
    0.9240    1.3430   -0.4430 C   0  0  0  0  0  0  0  0  0  0  0  0
    0.2400    0.8730    0.7890 C   0  0  2  0  0  0  0  0  0  0  0  0
    0.6150   -0.3800    1.3330 N   0  0  0  0  0  0  0  0  0  0  0  0
   -1.2420    0.9880    0.5540 C   0  0  0  0  0  0  0  0  0  0  0  0
   -1.7420    2.0130    0.0600 O   0  0  0  0  0  0  0  0  0  0  0  0
    0.6850   -1.6550   -3.3460 H   0  0  0  0  0  0  0  0  0  0  0  0
    1.3120   -2.8490   -2.1300 H   0  0  0  0  0  0  0  0  0  0  0  0
   -0.1970    0.4210   -2.0720 H   0  0  0  0  0  0  0  0  0  0  0  0
    1.3940    1.0360   -2.4900 H   0  0  0  0  0  0  0  0  0  0  0  0
    0.5490    2.3790   -0.7080 H   0  0  0  0  0  0  0  0  0  0  0  0
    2.0260    1.5450   -0.2610 H   0  0  0  0  0  0  0  0  0  0  0  0
    0.5280    1.6700    1.5720 H   0  0  0  0  0  0  0  0  0  0  0  0
    0.3370   -1.3240    0.9670 H   0  0  0  0  0  0  0  0  0  0  0  0
   -2.0600   -0.1170    0.9150 N   0  0  0  0  0  0  0  0  0  0  0  0
   -3.4800   -0.1150    0.7360 C   0  0  0  0  0  0  0  0  0  0  0  0
   -3.7950    0.0640   -0.6890 C   0  0  0  0  0  0  0  0  0  0  0  0
   -2.8770    0.1850   -1.5290 O   0  0  0  0  0  0  0  0  0  0  0  0
   -5.0960    0.1070   -1.1720 O   0  0  0  0  0  0  0  0  0  0  0  0
   -1.6080   -0.9590    1.3280 H   0  0  0  0  0  0  0  0  0  0  0  0
   -3.8760   -1.1170    1.0190 H   0  0  0  0  0  0  0  0  0  0  0  0
   -3.9950    0.6290    1.3850 H   0  0  0  0  0  0  0  0  0  0  0  0
  1  7  1  0  0  0  0
  2  1  1  0  0  0  0
  2  9  1  0  0  0  0
  3  2  1  0  0  0  0
  3 10  1  1  0  0  0
  4 11  1  0  0  0  0
  4  3  1  0  0  0  0
  5  6  2  0  0  0  0
  5  3  1  0  0  0  0
  8  2  1  0  0  0  0
 12  4  1  0  0  0  0
 13 23  1  0  0  0  0
 13 14  1  0  0  0  0
 14 15  2  0  0  0  0
 16 14  1  0  0  0  0
 16 17  1  0  0  0  0
 17 27  1  0  0  0  0
 17 18  1  0  0  0  0
 18 19  1  0  0  0  0
 18 28  1  1  0  0  0
 19  5  1  0  0  0  0
 20 18  1  0  0  0  0
 20 30  1  0  0  0  0
 21 20  2  0  0  0  0
 22 13  1  0  0  0  0
 24 16  1  0  0  0  0
 25 16  1  0  0  0  0
 26 17  1  0  0  0  0
 29 19  1  0  0  0  0
 30 35  1  0  0  0  0
 31 30  1  0  0  0  0
 31 36  1  0  0  0  0
 31 37  1  0  0  0  0
 32 31  1  0  0  0  0
 33 32  2  0  0  0  0
 34 32  1  0  0  0  0
M  END
$$$$
