SQN.pdb
 OpenBabel07022419083D

 44 43  0  0  1  0  0  0  0  0999 V2000
    0.9520   -4.6510    2.8120 O   0  0  0  0  0  0  0  0  0  0  0  0
    0.5130   -3.3330    2.5490 C   0  0  0  0  0  0  0  0  0  0  0  0
    1.3690   -2.4450    3.4200 C   0  0  2  0  0  0  0  0  0  0  0  0
    1.2150   -2.7610    4.8160 N   0  0  0  0  0  0  0  0  0  0  0  0
    1.0890   -1.0100    3.2270 C   0  0  0  0  0  0  0  0  0  0  0  0
    0.7850   -0.3190    4.2210 O   0  0  0  0  0  0  0  0  0  0  0  0
    0.1730   -5.2320    3.0310 H   0  0  0  0  0  0  0  0  0  0  0  0
   -0.5550   -3.2540    2.7240 H   0  0  0  0  0  0  0  0  0  0  0  0
    0.7070   -3.1690    1.4720 H   0  0  0  0  0  0  0  0  0  0  0  0
    2.4370   -2.6570    3.1460 H   0  0  0  0  0  0  0  0  0  0  0  0
    0.2190   -2.5350    5.0530 H   0  0  0  0  0  0  0  0  0  0  0  0
    1.4970   -3.7350    5.0660 H   0  0  0  0  0  0  0  0  0  0  0  0
    3.1650    0.7960   -2.1850 N   0  0  0  0  0  0  0  0  0  0  0  0
    2.3790    1.3160   -1.1220 C   0  0  0  0  0  0  0  0  0  0  0  0
    1.2500    1.7460   -1.3650 O   0  0  0  0  0  0  0  0  0  0  0  0
    2.9490    1.3160    0.2180 C   0  0  0  0  0  0  0  0  0  0  0  0
    2.1240    1.7420    1.3590 C   0  0  0  0  0  0  0  0  0  0  0  0
    0.8970    0.9970    1.7020 C   0  0  2  0  0  0  0  0  0  0  0  0
    1.1570   -0.4080    1.9680 N   0  0  0  0  0  0  0  0  0  0  0  0
   -0.3360    1.2450    0.9800 C   0  0  0  0  0  0  0  0  0  0  0  0
   -0.7560    2.4050    0.7180 O   0  0  0  0  0  0  0  0  0  0  0  0
    2.7170    0.5070   -3.0770 H   0  0  0  0  0  0  0  0  0  0  0  0
    4.2110    0.6870   -2.1130 H   0  0  0  0  0  0  0  0  0  0  0  0
    3.5200    0.3570    0.4290 H   0  0  0  0  0  0  0  0  0  0  0  0
    3.8140    2.0650    0.1670 H   0  0  0  0  0  0  0  0  0  0  0  0
    1.9040    2.8480    1.2010 H   0  0  0  0  0  0  0  0  0  0  0  0
    2.8190    1.7610    2.2540 H   0  0  0  0  0  0  0  0  0  0  0  0
    0.6620    1.3820    2.7900 H   0  0  0  0  0  0  0  0  0  0  0  0
    1.4150   -0.9950    1.1200 H   0  0  0  0  0  0  0  0  0  0  0  0
   -0.2920   -1.0070   -2.8430 N   0  0  0  0  0  0  0  0  0  0  0  0
   -1.3110   -0.1290   -2.3900 C   0  0  0  0  0  0  0  0  0  0  0  0
   -1.3510    1.0780   -2.8040 O   0  0  0  0  0  0  0  0  0  0  0  0
   -2.3690   -0.5160   -1.4410 C   0  0  0  0  0  0  0  0  0  0  0  0
   -2.4030    0.3140   -0.1860 C   0  0  2  0  0  0  0  0  0  0  0  0
   -1.1710    0.1780    0.5150 N   0  0  0  0  0  0  0  0  0  0  0  0
   -3.5560   -0.2220    0.6230 C   0  0  0  0  0  0  0  0  0  0  0  0
   -4.6910   -0.1540    0.1140 O   0  0  0  0  0  0  0  0  0  0  0  0
   -3.3930   -0.7690    1.8740 O   0  0  0  0  0  0  0  0  0  0  0  0
    0.6150   -0.6300   -3.2130 H   0  0  0  0  0  0  0  0  0  0  0  0
   -0.3750   -2.0350   -2.8380 H   0  0  0  0  0  0  0  0  0  0  0  0
   -2.2280   -1.6080   -1.1860 H   0  0  0  0  0  0  0  0  0  0  0  0
   -3.3740   -0.5070   -1.9610 H   0  0  0  0  0  0  0  0  0  0  0  0
   -2.6530    1.3650   -0.4480 H   0  0  0  0  0  0  0  0  0  0  0  0
   -0.8120   -0.7900    0.7270 H   0  0  0  0  0  0  0  0  0  0  0  0
  1  7  1  0  0  0  0
  2  8  1  0  0  0  0
  2  1  1  0  0  0  0
  2  3  1  0  0  0  0
  3 10  1  6  0  0  0
  3  4  1  0  0  0  0
  4 11  1  0  0  0  0
  4 12  1  0  0  0  0
  5  3  1  0  0  0  0
  5  6  2  0  0  0  0
  9  2  1  0  0  0  0
 13 23  1  0  0  0  0
 13 14  1  0  0  0  0
 14 16  1  0  0  0  0
 15 14  2  0  0  0  0
 16 24  1  0  0  0  0
 16 17  1  0  0  0  0
 17 18  1  0  0  0  0
 17 27  1  0  0  0  0
 18 19  1  0  0  0  0
 18 28  1  1  0  0  0
 19  5  1  0  0  0  0
 20 18  1  0  0  0  0
 21 20  2  0  0  0  0
 22 13  1  0  0  0  0
 25 16  1  0  0  0  0
 26 17  1  0  0  0  0
 29 19  1  0  0  0  0
 30 40  1  0  0  0  0
 30 31  1  0  0  0  0
 31 33  1  0  0  0  0
 32 31  2  0  0  0  0
 33 41  1  0  0  0  0
 33 34  1  0  0  0  0
 34 43  1  6  0  0  0
 34 35  1  0  0  0  0
 34 36  1  0  0  0  0
 35 44  1  0  0  0  0
 35 20  1  0  0  0  0
 36 38  1  0  0  0  0
 37 36  2  0  0  0  0
 39 30  1  0  0  0  0
 42 33  1  0  0  0  0
M  END
$$$$
