SQR.pdb
 OpenBabel07022419083D

 53 52  0  0  1  0  0  0  0  0999 V2000
    2.5490   -1.5310    6.6440 O   0  0  0  0  0  0  0  0  0  0  0  0
    2.2920   -1.2400    5.3280 C   0  0  0  0  0  0  0  0  0  0  0  0
    1.6520   -2.3900    4.5860 C   0  0  2  0  0  0  0  0  0  0  0  0
    2.4680   -3.5670    4.5740 N   0  0  0  0  0  0  0  0  0  0  0  0
    1.2820   -1.9700    3.1850 C   0  0  0  0  0  0  0  0  0  0  0  0
    1.6990   -2.6380    2.2090 O   0  0  0  0  0  0  0  0  0  0  0  0
    2.1210   -0.8520    7.2110 H   0  0  0  0  0  0  0  0  0  0  0  0
    1.6510   -0.3450    5.2310 H   0  0  0  0  0  0  0  0  0  0  0  0
    3.2770   -0.9550    4.8620 H   0  0  0  0  0  0  0  0  0  0  0  0
    0.6920   -2.6200    5.0900 H   0  0  0  0  0  0  0  0  0  0  0  0
    2.8410   -3.8100    3.6440 H   0  0  0  0  0  0  0  0  0  0  0  0
    1.9230   -4.4220    4.9020 H   0  0  0  0  0  0  0  0  0  0  0  0
    4.5490    1.1640    0.0930 N   0  0  0  0  0  0  0  0  0  0  0  0
    3.1700    1.3180    0.3770 C   0  0  0  0  0  0  0  0  0  0  0  0
    2.6380    2.4230    0.1580 O   0  0  0  0  0  0  0  0  0  0  0  0
    2.3640    0.2110    0.9170 C   0  0  0  0  0  0  0  0  0  0  0  0
    0.9530    0.6970    1.1210 C   0  0  0  0  0  0  0  0  0  0  0  0
    0.0420   -0.3430    1.6670 C   0  0  2  0  0  0  0  0  0  0  0  0
    0.4730   -0.8370    2.9490 N   0  0  0  0  0  0  0  0  0  0  0  0
   -0.4070   -1.3680    0.7160 C   0  0  0  0  0  0  0  0  0  0  0  0
   -0.5030   -2.5550    1.0640 O   0  0  0  0  0  0  0  0  0  0  0  0
    4.8830    0.5250   -0.6760 H   0  0  0  0  0  0  0  0  0  0  0  0
    5.2870    1.6730    0.6270 H   0  0  0  0  0  0  0  0  0  0  0  0
    2.4150   -0.6450    0.2110 H   0  0  0  0  0  0  0  0  0  0  0  0
    2.7710   -0.0640    1.9210 H   0  0  0  0  0  0  0  0  0  0  0  0
    0.5330    1.1880    0.2400 H   0  0  0  0  0  0  0  0  0  0  0  0
    1.0300    1.5050    1.9080 H   0  0  0  0  0  0  0  0  0  0  0  0
   -0.9530    0.1970    1.9170 H   0  0  0  0  0  0  0  0  0  0  0  0
    0.1700   -0.3150    3.8380 H   0  0  0  0  0  0  0  0  0  0  0  0
   -1.4700    2.2400   -2.1700 N   0  0  0  0  0  0  0  0  0  0  0  0
   -2.6720    1.4890   -2.2370 C   0  0  0  0  0  0  0  0  0  0  0  0
   -3.3830    1.5520   -3.2980 N   0  0  0  0  0  0  0  0  0  0  0  0
   -3.0890    0.6770   -1.1380 N   0  0  0  0  0  0  0  0  0  0  0  0
   -4.0430   -0.3530   -1.2820 C   0  0  0  0  0  0  0  0  0  0  0  0
   -3.6800   -1.5460   -2.0690 C   0  0  0  0  0  0  0  0  0  0  0  0
   -2.6160   -2.4410   -1.6540 C   0  0  0  0  0  0  0  0  0  0  0  0
   -1.1920   -2.0920   -1.5520 C   0  0  2  0  0  0  0  0  0  0  0  0
   -0.7600   -1.0670   -0.6590 N   0  0  0  0  0  0  0  0  0  0  0  0
   -0.5530   -1.8610   -2.8840 C   0  0  0  0  0  0  0  0  0  0  0  0
    0.2180   -0.8930   -3.0520 O   0  0  0  0  0  0  0  0  0  0  0  0
   -0.8060   -2.7100   -3.9350 O   0  0  0  0  0  0  0  0  0  0  0  0
   -0.8660    2.2900   -3.0200 H   0  0  0  0  0  0  0  0  0  0  0  0
   -1.1590    2.7420   -1.3260 H   0  0  0  0  0  0  0  0  0  0  0  0
   -4.2750    1.0620   -3.4850 H   0  0  0  0  0  0  0  0  0  0  0  0
   -2.6310    0.9270   -0.2120 H   0  0  0  0  0  0  0  0  0  0  0  0
   -4.2550   -0.7460   -0.2210 H   0  0  0  0  0  0  0  0  0  0  0  0
   -5.0430    0.0490   -1.6380 H   0  0  0  0  0  0  0  0  0  0  0  0
   -3.5080   -1.1690   -3.1500 H   0  0  0  0  0  0  0  0  0  0  0  0
   -4.6630   -2.1380   -2.2560 H   0  0  0  0  0  0  0  0  0  0  0  0
   -2.9630   -2.9260   -0.6470 H   0  0  0  0  0  0  0  0  0  0  0  0
   -2.7320   -3.3990   -2.3110 H   0  0  0  0  0  0  0  0  0  0  0  0
   -0.7180   -3.0840   -1.1320 H   0  0  0  0  0  0  0  0  0  0  0  0
   -0.6110   -0.0550   -0.8890 H   0  0  0  0  0  0  0  0  0  0  0  0
  1  7  1  0  0  0  0
  2  1  1  0  0  0  0
  3 10  1  1  0  0  0
  3  2  1  0  0  0  0
  4  3  1  0  0  0  0
  4 12  1  0  0  0  0
  5  3  1  0  0  0  0
  6  5  2  0  0  0  0
  8  2  1  0  0  0  0
  9  2  1  0  0  0  0
 11  4  1  0  0  0  0
 13 14  1  0  0  0  0
 13 23  1  0  0  0  0
 14 16  1  0  0  0  0
 15 14  2  0  0  0  0
 16 17  1  0  0  0  0
 16 25  1  0  0  0  0
 17 18  1  0  0  0  0
 17 27  1  0  0  0  0
 18 28  1  1  0  0  0
 18 19  1  0  0  0  0
 19  5  1  0  0  0  0
 19 29  1  0  0  0  0
 20 21  2  0  0  0  0
 20 18  1  0  0  0  0
 22 13  1  0  0  0  0
 24 16  1  0  0  0  0
 26 17  1  0  0  0  0
 30 43  1  0  0  0  0
 31 30  1  0  0  0  0
 31 33  1  0  0  0  0
 32 31  2  0  0  0  0
 33 45  1  0  0  0  0
 34 33  1  0  0  0  0
 34 46  1  0  0  0  0
 35 36  1  0  0  0  0
 35 34  1  0  0  0  0
 36 37  1  0  0  0  0
 36 50  1  0  0  0  0
 37 52  1  1  0  0  0
 37 38  1  0  0  0  0
 38 20  1  0  0  0  0
 39 37  1  0  0  0  0
 40 39  1  0  0  0  0
 41 39  2  0  0  0  0
 42 30  1  0  0  0  0
 44 32  1  0  0  0  0
 47 34  1  0  0  0  0
 48 35  1  0  0  0  0
 49 35  1  0  0  0  0
 51 36  1  0  0  0  0
 53 38  1  0  0  0  0
M  END
$$$$
