SQY.pdb
 OpenBabel07022419083D

 51 51  0  0  1  0  0  0  0  0999 V2000
    0.6440   -2.2660    5.4200 O   0  0  0  0  0  0  0  0  0  0  0  0
    0.7030   -0.9800    5.9270 C   0  0  0  0  0  0  0  0  0  0  0  0
    1.7830   -0.1780    5.2230 C   0  0  2  0  0  0  0  0  0  0  0  0
    1.7770    1.1500    5.8140 N   0  0  0  0  0  0  0  0  0  0  0  0
    1.4340   -0.0500    3.7980 C   0  0  0  0  0  0  0  0  0  0  0  0
    1.1810    1.0860    3.2840 O   0  0  0  0  0  0  0  0  0  0  0  0
   -0.3050   -2.5980    5.4690 H   0  0  0  0  0  0  0  0  0  0  0  0
    0.8380   -0.9740    7.0290 H   0  0  0  0  0  0  0  0  0  0  0  0
   -0.2600   -0.4780    5.6970 H   0  0  0  0  0  0  0  0  0  0  0  0
    2.7670   -0.6610    5.2900 H   0  0  0  0  0  0  0  0  0  0  0  0
    0.9460    1.6820    5.4890 H   0  0  0  0  0  0  0  0  0  0  0  0
    2.6310    1.6510    5.4270 H   0  0  0  0  0  0  0  0  0  0  0  0
    4.4480    1.5030    0.7940 N   0  0  0  0  0  0  0  0  0  0  0  0
    3.3630    0.6330    0.5150 C   0  0  0  0  0  0  0  0  0  0  0  0
    2.3400    1.1390    0.0070 O   0  0  0  0  0  0  0  0  0  0  0  0
    3.3950   -0.8160    0.7930 C   0  0  0  0  0  0  0  0  0  0  0  0
    2.0640   -1.4870    0.6070 C   0  0  0  0  0  0  0  0  0  0  0  0
    1.0070   -0.9750    1.5140 C   0  0  2  0  0  0  0  0  0  0  0  0
    1.3550   -1.1560    2.9100 N   0  0  0  0  0  0  0  0  0  0  0  0
   -0.2930   -1.6440    1.2290 C   0  0  0  0  0  0  0  0  0  0  0  0
   -0.9490   -2.2610    2.1080 O   0  0  0  0  0  0  0  0  0  0  0  0
    4.4330    2.0520    1.6780 H   0  0  0  0  0  0  0  0  0  0  0  0
    5.2530    1.6150    0.1560 H   0  0  0  0  0  0  0  0  0  0  0  0
    4.0600   -1.2720   -0.0040 H   0  0  0  0  0  0  0  0  0  0  0  0
    3.8370   -1.0250    1.7920 H   0  0  0  0  0  0  0  0  0  0  0  0
    2.1820   -2.5780    0.7780 H   0  0  0  0  0  0  0  0  0  0  0  0
    1.7580   -1.2720   -0.4490 H   0  0  0  0  0  0  0  0  0  0  0  0
    0.8420    0.0990    1.3430 H   0  0  0  0  0  0  0  0  0  0  0  0
    1.5540   -2.1210    3.2750 H   0  0  0  0  0  0  0  0  0  0  0  0
   -2.0070    1.6840   -5.4520 O   0  0  0  0  0  0  0  0  0  0  0  0
   -2.3080    0.9290   -4.3180 C   0  0  0  0  0  0  0  0  0  0  0  0
   -2.0310    1.3850   -3.0430 C   0  0  0  0  0  0  0  0  0  0  0  0
   -2.3240    0.6470   -1.9250 C   0  0  0  0  0  0  0  0  0  0  0  0
   -2.9080   -0.5810   -2.0540 C   0  0  0  0  0  0  0  0  0  0  0  0
   -3.2130   -1.3520   -0.8470 C   0  0  0  0  0  0  0  0  0  0  0  0
   -2.1260   -2.2580   -0.3820 C   0  0  2  0  0  0  0  0  0  0  0  0
   -0.8930   -1.6400   -0.0500 N   0  0  0  0  0  0  0  0  0  0  0  0
   -1.8540   -3.3630   -1.3350 C   0  0  0  0  0  0  0  0  0  0  0  0
   -0.6820   -3.6130   -1.7140 O   0  0  0  0  0  0  0  0  0  0  0  0
   -3.2030   -1.0820   -3.2900 C   0  0  0  0  0  0  0  0  0  0  0  0
   -2.8980   -0.3180   -4.3960 C   0  0  0  0  0  0  0  0  0  0  0  0
   -2.8520   -4.1760   -1.8590 O   0  0  0  0  0  0  0  0  0  0  0  0
   -2.4180    2.6180   -5.4810 H   0  0  0  0  0  0  0  0  0  0  0  0
   -1.5620    2.3720   -2.9330 H   0  0  0  0  0  0  0  0  0  0  0  0
   -2.0730    1.0820   -0.9640 H   0  0  0  0  0  0  0  0  0  0  0  0
   -3.5150   -0.7080   -0.0000 H   0  0  0  0  0  0  0  0  0  0  0  0
   -4.0950   -1.9890   -1.0760 H   0  0  0  0  0  0  0  0  0  0  0  0
   -2.5110   -2.7390    0.5680 H   0  0  0  0  0  0  0  0  0  0  0  0
   -0.3880   -1.1350   -0.8360 H   0  0  0  0  0  0  0  0  0  0  0  0
   -3.6780   -2.0750   -3.4270 H   0  0  0  0  0  0  0  0  0  0  0  0
   -3.1370   -0.7260   -5.3760 H   0  0  0  0  0  0  0  0  0  0  0  0
  1  7  1  0  0  0  0
  1  2  1  0  0  0  0
  2  8  1  0  0  0  0
  3 10  1  1  0  0  0
  3  4  1  0  0  0  0
  3  2  1  0  0  0  0
  5  3  1  0  0  0  0
  6  5  2  0  0  0  0
  9  2  1  0  0  0  0
 11  4  1  0  0  0  0
 12  4  1  0  0  0  0
 13 22  1  0  0  0  0
 14 16  1  0  0  0  0
 14 13  1  0  0  0  0
 15 14  2  0  0  0  0
 16 25  1  0  0  0  0
 17 26  1  0  0  0  0
 17 16  1  0  0  0  0
 17 18  1  0  0  0  0
 18 28  1  6  0  0  0
 18 19  1  0  0  0  0
 19 29  1  0  0  0  0
 19  5  1  0  0  0  0
 20 18  1  0  0  0  0
 20 21  2  0  0  0  0
 23 13  1  0  0  0  0
 24 16  1  0  0  0  0
 27 17  1  0  0  0  0
 30 31  1  0  0  0  0
 31 32  1  0  0  0  0
 32 44  1  0  0  0  0
 32 33  2  0  0  0  0
 33 45  1  0  0  0  0
 34 33  1  0  0  0  0
 34 35  1  0  0  0  0
 35 36  1  0  0  0  0
 35 46  1  0  0  0  0
 36 37  1  0  0  0  0
 36 48  1  1  0  0  0
 37 20  1  0  0  0  0
 38 36  1  0  0  0  0
 39 38  1  0  0  0  0
 40 34  2  0  0  0  0
 41 31  2  0  0  0  0
 41 40  1  0  0  0  0
 42 38  2  0  0  0  0
 43 30  1  0  0  0  0
 47 35  1  0  0  0  0
 49 37  1  0  0  0  0
 50 40  1  0  0  0  0
 51 41  1  0  0  0  0
M  END
$$$$
