SRC.pdb
 OpenBabel07022419063D

 47 46  0  0  1  0  0  0  0  0999 V2000
    0.0750   -2.4960    3.7810 O   0  0  0  0  0  0  0  0  0  0  0  0
   -1.1950   -3.0600    3.8650 C   0  0  0  0  0  0  0  0  0  0  0  0
   -2.2830   -2.1620    3.3600 C   0  0  2  0  0  0  0  0  0  0  0  0
   -3.5540   -2.8280    3.4920 N   0  0  0  0  0  0  0  0  0  0  0  0
   -2.1290   -1.6830    1.9920 C   0  0  0  0  0  0  0  0  0  0  0  0
   -3.0290   -1.8950    1.1500 O   0  0  0  0  0  0  0  0  0  0  0  0
    0.2300   -1.8080    4.4750 H   0  0  0  0  0  0  0  0  0  0  0  0
   -1.1910   -4.0660    3.4010 H   0  0  0  0  0  0  0  0  0  0  0  0
   -1.3910   -3.2280    4.9490 H   0  0  0  0  0  0  0  0  0  0  0  0
   -2.3210   -1.2870    4.0750 H   0  0  0  0  0  0  0  0  0  0  0  0
   -4.2500   -2.5600    2.7690 H   0  0  0  0  0  0  0  0  0  0  0  0
   -3.4610   -3.8570    3.6340 H   0  0  0  0  0  0  0  0  0  0  0  0
   -0.3460    3.5200   -2.8410 N   0  0  0  0  0  0  0  0  0  0  0  0
   -0.5910    3.6970   -1.4520 C   0  0  0  0  0  0  0  0  0  0  0  0
   -1.7980    3.8490   -1.0110 N   0  0  0  0  0  0  0  0  0  0  0  0
    0.4910    3.7110   -0.5120 N   0  0  0  0  0  0  0  0  0  0  0  0
    0.3720    3.1100    0.7700 C   0  0  0  0  0  0  0  0  0  0  0  0
    0.3020    1.6160    0.8050 C   0  0  0  0  0  0  0  0  0  0  0  0
   -0.8350    1.0150    0.0630 C   0  0  0  0  0  0  0  0  0  0  0  0
   -0.8650   -0.4980    0.1520 C   0  0  2  0  0  0  0  0  0  0  0  0
   -0.9800   -0.9570    1.5100 N   0  0  0  0  0  0  0  0  0  0  0  0
    0.3180   -1.1380   -0.4670 C   0  0  0  0  0  0  0  0  0  0  0  0
    0.6110   -0.8600   -1.6590 O   0  0  0  0  0  0  0  0  0  0  0  0
    0.6020    3.4950   -3.2430 H   0  0  0  0  0  0  0  0  0  0  0  0
   -1.1410    3.4090   -3.5010 H   0  0  0  0  0  0  0  0  0  0  0  0
   -2.5870    3.8380   -1.7000 H   0  0  0  0  0  0  0  0  0  0  0  0
    1.3820    4.1900   -0.8200 H   0  0  0  0  0  0  0  0  0  0  0  0
   -0.5350    3.5170    1.3060 H   0  0  0  0  0  0  0  0  0  0  0  0
    1.2640    3.4400    1.3860 H   0  0  0  0  0  0  0  0  0  0  0  0
    1.2660    1.1440    0.5300 H   0  0  0  0  0  0  0  0  0  0  0  0
    0.1600    1.3250    1.8900 H   0  0  0  0  0  0  0  0  0  0  0  0
   -0.7100    1.3070   -1.0240 H   0  0  0  0  0  0  0  0  0  0  0  0
   -1.8230    1.4090    0.3610 H   0  0  0  0  0  0  0  0  0  0  0  0
   -1.8150   -0.8070   -0.3770 H   0  0  0  0  0  0  0  0  0  0  0  0
   -0.2430   -0.7910    2.2240 H   0  0  0  0  0  0  0  0  0  0  0  0
    1.1590   -2.0610    0.2050 N   0  0  0  0  0  0  0  0  0  0  0  0
    2.2830   -2.6370   -0.4600 C   0  0  1  0  0  0  0  0  0  0  0  0
    3.5940   -2.3000    0.2450 C   0  0  0  0  0  0  0  0  0  0  0  0
    3.8490   -0.5070    0.3000 S   0  0  0  0  0  0  0  0  0  0  0  0
    2.2070   -4.1200   -0.5370 C   0  0  0  0  0  0  0  0  0  0  0  0
    3.1500   -4.7140   -1.1060 O   0  0  0  0  0  0  0  0  0  0  0  0
    1.1720   -4.8820   -0.0260 O   0  0  0  0  0  0  0  0  0  0  0  0
    0.9710   -2.3330    1.1940 H   0  0  0  0  0  0  0  0  0  0  0  0
    2.3550   -2.2140   -1.4880 H   0  0  0  0  0  0  0  0  0  0  0  0
    4.4320   -2.7710   -0.3050 H   0  0  0  0  0  0  0  0  0  0  0  0
    3.5420   -2.6530    1.3000 H   0  0  0  0  0  0  0  0  0  0  0  0
    3.2100    0.0620    1.4230 H   0  0  0  0  0  0  0  0  0  0  0  0
  1  2  1  0  0  0  0
  1  7  1  0  0  0  0
  2  9  1  0  0  0  0
  3  4  1  0  0  0  0
  3  2  1  0  0  0  0
  3 10  1  1  0  0  0
  4 12  1  0  0  0  0
  5  3  1  0  0  0  0
  6  5  2  0  0  0  0
  8  2  1  0  0  0  0
 11  4  1  0  0  0  0
 13 14  1  0  0  0  0
 14 15  2  0  0  0  0
 14 16  1  0  0  0  0
 16 17  1  0  0  0  0
 17 18  1  0  0  0  0
 17 28  1  0  0  0  0
 17 29  1  0  0  0  0
 18 31  1  0  0  0  0
 19 20  1  0  0  0  0
 19 33  1  0  0  0  0
 19 18  1  0  0  0  0
 20 34  1  6  0  0  0
 20 21  1  0  0  0  0
 21  5  1  0  0  0  0
 21 35  1  0  0  0  0
 22 20  1  0  0  0  0
 22 36  1  0  0  0  0
 23 22  2  0  0  0  0
 24 13  1  0  0  0  0
 25 13  1  0  0  0  0
 26 15  1  0  0  0  0
 27 16  1  0  0  0  0
 30 18  1  0  0  0  0
 32 19  1  0  0  0  0
 36 43  1  0  0  0  0
 37 44  1  6  0  0  0
 37 36  1  0  0  0  0
 37 38  1  0  0  0  0
 38 39  1  0  0  0  0
 38 46  1  0  0  0  0
 39 47  1  0  0  0  0
 40 37  1  0  0  0  0
 40 42  1  0  0  0  0
 41 40  2  0  0  0  0
 45 38  1  0  0  0  0
M  END
$$$$
