SRD.pdb
 OpenBabel07022419063D

 49 48  0  0  1  0  0  0  0  0999 V2000
    4.5690   -2.5640    2.5070 O   0  0  0  0  0  0  0  0  0  0  0  0
    3.9320   -3.8030    2.4430 C   0  0  0  0  0  0  0  0  0  0  0  0
    2.7190   -3.6500    1.5560 C   0  0  2  0  0  0  0  0  0  0  0  0
    3.1570   -3.2280    0.2640 N   0  0  0  0  0  0  0  0  0  0  0  0
    1.6620   -2.8040    2.1560 C   0  0  0  0  0  0  0  0  0  0  0  0
    1.1780   -3.0760    3.2580 O   0  0  0  0  0  0  0  0  0  0  0  0
    5.4260   -2.5760    3.0030 H   0  0  0  0  0  0  0  0  0  0  0  0
    4.6340   -4.4790    1.8900 H   0  0  0  0  0  0  0  0  0  0  0  0
    3.6900   -4.2330    3.4130 H   0  0  0  0  0  0  0  0  0  0  0  0
    2.2380   -4.6660    1.4310 H   0  0  0  0  0  0  0  0  0  0  0  0
    2.9540   -3.8690   -0.5200 H   0  0  0  0  0  0  0  0  0  0  0  0
    4.1130   -2.8120    0.2240 H   0  0  0  0  0  0  0  0  0  0  0  0
   -1.6980    4.6340    1.0090 N   0  0  0  0  0  0  0  0  0  0  0  0
   -0.4750    3.9150    0.8960 C   0  0  0  0  0  0  0  0  0  0  0  0
    0.6510    4.4000    1.2960 N   0  0  0  0  0  0  0  0  0  0  0  0
   -0.5650    2.6070    0.3100 N   0  0  0  0  0  0  0  0  0  0  0  0
    0.6740    1.8680    0.1410 C   0  0  0  0  0  0  0  0  0  0  0  0
    1.3240    1.4510    1.3890 C   0  0  0  0  0  0  0  0  0  0  0  0
    0.6050    0.5690    2.3260 C   0  0  0  0  0  0  0  0  0  0  0  0
    0.1830   -0.7600    1.9070 C   0  0  2  0  0  0  0  0  0  0  0  0
    1.1980   -1.6780    1.4680 N   0  0  0  0  0  0  0  0  0  0  0  0
   -1.0650   -0.8420    1.1200 C   0  0  0  0  0  0  0  0  0  0  0  0
   -2.0210   -0.0760    1.3950 O   0  0  0  0  0  0  0  0  0  0  0  0
   -2.1110    4.7540    1.9560 H   0  0  0  0  0  0  0  0  0  0  0  0
   -2.2100    5.0520    0.2040 H   0  0  0  0  0  0  0  0  0  0  0  0
    0.6490    5.3440    1.7110 H   0  0  0  0  0  0  0  0  0  0  0  0
   -1.5020    2.2210    0.0170 H   0  0  0  0  0  0  0  0  0  0  0  0
    1.3440    2.5740   -0.4230 H   0  0  0  0  0  0  0  0  0  0  0  0
    0.4490    1.0600   -0.5800 H   0  0  0  0  0  0  0  0  0  0  0  0
    2.2650    0.8770    1.1030 H   0  0  0  0  0  0  0  0  0  0  0  0
    1.7460    2.3640    1.8790 H   0  0  0  0  0  0  0  0  0  0  0  0
   -0.3420    1.1570    2.5850 H   0  0  0  0  0  0  0  0  0  0  0  0
    1.0910    0.5140    3.3440 H   0  0  0  0  0  0  0  0  0  0  0  0
   -0.1590   -1.2710    2.8880 H   0  0  0  0  0  0  0  0  0  0  0  0
    1.6320   -1.4800    0.5370 H   0  0  0  0  0  0  0  0  0  0  0  0
   -1.2470   -1.7610    0.0480 N   0  0  0  0  0  0  0  0  0  0  0  0
   -2.4490   -1.8610   -0.7160 C   0  0  1  0  0  0  0  0  0  0  0  0
   -2.2970   -1.7220   -2.2010 C   0  0  0  0  0  0  0  0  0  0  0  0
   -1.7320   -0.4140   -2.5400 C   0  0  0  0  0  0  0  0  0  0  0  0
   -0.5240   -0.1930   -2.7810 O   0  0  0  0  0  0  0  0  0  0  0  0
   -3.2240   -3.0980   -0.3760 C   0  0  0  0  0  0  0  0  0  0  0  0
   -2.7830   -3.8760    0.4980 O   0  0  0  0  0  0  0  0  0  0  0  0
   -2.6220    0.6730   -2.5970 O   0  0  0  0  0  0  0  0  0  0  0  0
   -4.4110   -3.3820   -1.0150 O   0  0  0  0  0  0  0  0  0  0  0  0
   -0.4220   -2.3950   -0.1720 H   0  0  0  0  0  0  0  0  0  0  0  0
   -3.1340   -1.0270   -0.3790 H   0  0  0  0  0  0  0  0  0  0  0  0
   -3.3490   -1.7550   -2.6140 H   0  0  0  0  0  0  0  0  0  0  0  0
   -1.7700   -2.5840   -2.6620 H   0  0  0  0  0  0  0  0  0  0  0  0
   -2.2660    1.5970   -2.3850 H   0  0  0  0  0  0  0  0  0  0  0  0
  1  7  1  0  0  0  0
  2  1  1  0  0  0  0
  2  9  1  0  0  0  0
  3 10  1  6  0  0  0
  3  5  1  0  0  0  0
  3  2  1  0  0  0  0
  4  3  1  0  0  0  0
  5  6  2  0  0  0  0
  8  2  1  0  0  0  0
 11  4  1  0  0  0  0
 12  4  1  0  0  0  0
 13 24  1  0  0  0  0
 14 13  1  0  0  0  0
 14 15  2  0  0  0  0
 15 26  1  0  0  0  0
 16 14  1  0  0  0  0
 17 16  1  0  0  0  0
 17 18  1  0  0  0  0
 18 31  1  0  0  0  0
 18 19  1  0  0  0  0
 19 32  1  0  0  0  0
 19 33  1  0  0  0  0
 20 19  1  0  0  0  0
 20 34  1  1  0  0  0
 21 20  1  0  0  0  0
 21  5  1  0  0  0  0
 22 23  2  0  0  0  0
 22 20  1  0  0  0  0
 25 13  1  0  0  0  0
 27 16  1  0  0  0  0
 28 17  1  0  0  0  0
 29 17  1  0  0  0  0
 30 18  1  0  0  0  0
 35 21  1  0  0  0  0
 36 22  1  0  0  0  0
 37 46  1  1  0  0  0
 37 41  1  0  0  0  0
 37 36  1  0  0  0  0
 38 37  1  0  0  0  0
 39 38  1  0  0  0  0
 40 39  2  0  0  0  0
 41 42  1  0  0  0  0
 43 39  1  0  0  0  0
 43 49  1  0  0  0  0
 44 41  2  0  0  0  0
 45 36  1  0  0  0  0
 47 38  1  0  0  0  0
 48 38  1  0  0  0  0
M  END
$$$$
