SRF.pdb
 OpenBabel07022419073D

 56 56  0  0  1  0  0  0  0  0999 V2000
   -0.2790    0.6050    4.9700 O   0  0  0  0  0  0  0  0  0  0  0  0
   -1.5580    0.9490    4.6120 C   0  0  0  0  0  0  0  0  0  0  0  0
   -1.9100    0.4640    3.2010 C   0  0  2  0  0  0  0  0  0  0  0  0
   -1.8220   -0.9650    3.1090 N   0  0  0  0  0  0  0  0  0  0  0  0
   -1.0610    1.1280    2.1680 C   0  0  0  0  0  0  0  0  0  0  0  0
   -1.0370    2.3760    2.0240 O   0  0  0  0  0  0  0  0  0  0  0  0
    0.0090   -0.2970    4.8010 H   0  0  0  0  0  0  0  0  0  0  0  0
   -2.2740    0.4620    5.3370 H   0  0  0  0  0  0  0  0  0  0  0  0
   -1.6570    2.0580    4.6310 H   0  0  0  0  0  0  0  0  0  0  0  0
   -2.9440    0.7700    3.0050 H   0  0  0  0  0  0  0  0  0  0  0  0
   -2.4210   -1.3540    3.8940 H   0  0  0  0  0  0  0  0  0  0  0  0
   -0.8930   -1.3810    3.1880 H   0  0  0  0  0  0  0  0  0  0  0  0
    4.1050   -2.6460   -0.0160 N   0  0  0  0  0  0  0  0  0  0  0  0
    4.4470   -1.3590    0.4570 C   0  0  0  0  0  0  0  0  0  0  0  0
    4.4470   -1.1150    1.7160 N   0  0  0  0  0  0  0  0  0  0  0  0
    4.8010   -0.2920   -0.4190 N   0  0  0  0  0  0  0  0  0  0  0  0
    4.4090    1.0600   -0.2960 C   0  0  0  0  0  0  0  0  0  0  0  0
    2.9570    1.3830   -0.5460 C   0  0  0  0  0  0  0  0  0  0  0  0
    2.0780    0.6840    0.4390 C   0  0  0  0  0  0  0  0  0  0  0  0
    0.6100    0.9960    0.2630 C   0  0  2  0  0  0  0  0  0  0  0  0
   -0.2380    0.3740    1.3020 N   0  0  0  0  0  0  0  0  0  0  0  0
    0.1360    0.3220   -0.9780 C   0  0  0  0  0  0  0  0  0  0  0  0
    0.8960    0.1920   -1.9390 O   0  0  0  0  0  0  0  0  0  0  0  0
    4.4530   -3.0100   -0.9150 H   0  0  0  0  0  0  0  0  0  0  0  0
    3.4810   -3.2450    0.5690 H   0  0  0  0  0  0  0  0  0  0  0  0
    4.6920   -0.1800    2.1180 H   0  0  0  0  0  0  0  0  0  0  0  0
    5.4140   -0.5720   -1.2430 H   0  0  0  0  0  0  0  0  0  0  0  0
    5.0350    1.6960   -0.9940 H   0  0  0  0  0  0  0  0  0  0  0  0
    4.7250    1.4130    0.7350 H   0  0  0  0  0  0  0  0  0  0  0  0
    2.7260    1.2510   -1.6020 H   0  0  0  0  0  0  0  0  0  0  0  0
    2.8730    2.5100   -0.3380 H   0  0  0  0  0  0  0  0  0  0  0  0
    2.2390   -0.4300    0.2360 H   0  0  0  0  0  0  0  0  0  0  0  0
    2.4580    0.8490    1.4520 H   0  0  0  0  0  0  0  0  0  0  0  0
    0.4320    2.0940    0.2510 H   0  0  0  0  0  0  0  0  0  0  0  0
   -0.2160   -0.6890    1.3900 H   0  0  0  0  0  0  0  0  0  0  0  0
   -1.2040   -0.1780   -1.0710 N   0  0  0  0  0  0  0  0  0  0  0  0
   -1.7040   -0.8690   -2.2380 C   0  0  1  0  0  0  0  0  0  0  0  0
   -2.9430   -1.6470   -2.0470 C   0  0  0  0  0  0  0  0  0  0  0  0
   -2.8840   -2.7080   -1.0210 C   0  0  0  0  0  0  0  0  0  0  0  0
   -3.2430   -2.4680    0.2980 C   0  0  0  0  0  0  0  0  0  0  0  0
   -3.2080   -3.4310    1.2790 C   0  0  0  0  0  0  0  0  0  0  0  0
   -2.8010   -4.7200    0.9990 C   0  0  0  0  0  0  0  0  0  0  0  0
   -2.4340   -4.9810   -0.3170 C   0  0  0  0  0  0  0  0  0  0  0  0
   -2.4740   -4.0120   -1.2940 C   0  0  0  0  0  0  0  0  0  0  0  0
   -1.9340    0.1850   -3.3340 C   0  0  0  0  0  0  0  0  0  0  0  0
   -1.6540    1.3410   -3.1000 O   0  0  0  0  0  0  0  0  0  0  0  0
   -2.4510   -0.2660   -4.5090 O   0  0  0  0  0  0  0  0  0  0  0  0
   -1.8470   -0.0260   -0.2740 H   0  0  0  0  0  0  0  0  0  0  0  0
   -0.9010   -1.4780   -2.6790 H   0  0  0  0  0  0  0  0  0  0  0  0
   -3.8470   -1.0230   -1.8500 H   0  0  0  0  0  0  0  0  0  0  0  0
   -3.1580   -2.1720   -3.0180 H   0  0  0  0  0  0  0  0  0  0  0  0
   -3.5660   -1.4460    0.5140 H   0  0  0  0  0  0  0  0  0  0  0  0
   -3.5030   -3.1960    2.3010 H   0  0  0  0  0  0  0  0  0  0  0  0
   -2.7740   -5.4850    1.7650 H   0  0  0  0  0  0  0  0  0  0  0  0
   -2.1070   -5.9910   -0.5580 H   0  0  0  0  0  0  0  0  0  0  0  0
   -2.1850   -4.2380   -2.3290 H   0  0  0  0  0  0  0  0  0  0  0  0
  2  9  1  0  0  0  0
  2  1  1  0  0  0  0
  2  8  1  0  0  0  0
  3 10  1  6  0  0  0
  3  2  1  0  0  0  0
  4 12  1  0  0  0  0
  4  3  1  0  0  0  0
  4 11  1  0  0  0  0
  5  3  1  0  0  0  0
  6  5  2  0  0  0  0
  7  1  1  0  0  0  0
 13 14  1  0  0  0  0
 13 25  1  0  0  0  0
 14 15  2  0  0  0  0
 15 26  1  0  0  0  0
 16 17  1  0  0  0  0
 16 14  1  0  0  0  0
 17 29  1  0  0  0  0
 18 31  1  0  0  0  0
 18 17  1  0  0  0  0
 18 19  1  0  0  0  0
 19 33  1  0  0  0  0
 20 34  1  6  0  0  0
 20 19  1  0  0  0  0
 20 21  1  0  0  0  0
 21 35  1  0  0  0  0
 21  5  1  0  0  0  0
 22 20  1  0  0  0  0
 23 22  2  0  0  0  0
 24 13  1  0  0  0  0
 27 16  1  0  0  0  0
 28 17  1  0  0  0  0
 30 18  1  0  0  0  0
 32 19  1  0  0  0  0
 36 22  1  0  0  0  0
 36 48  1  0  0  0  0
 37 49  1  6  0  0  0
 37 38  1  0  0  0  0
 37 36  1  0  0  0  0
 38 50  1  0  0  0  0
 38 39  1  0  0  0  0
 39 40  1  0  0  0  0
 40 52  1  0  0  0  0
 40 41  2  0  0  0  0
 41 53  1  0  0  0  0
 42 41  1  0  0  0  0
 42 54  1  0  0  0  0
 43 42  2  0  0  0  0
 44 39  2  0  0  0  0
 44 43  1  0  0  0  0
 45 46  1  0  0  0  0
 45 37  1  0  0  0  0
 47 45  2  0  0  0  0
 51 38  1  0  0  0  0
 55 43  1  0  0  0  0
 56 44  1  0  0  0  0
M  END
$$$$
