SRN.pdb
 OpenBabel07022419063D

 50 49  0  0  1  0  0  0  0  0999 V2000
    3.5750   -4.0060    3.7140 O   0  0  0  0  0  0  0  0  0  0  0  0
    3.1990   -2.6670    3.5930 C   0  0  0  0  0  0  0  0  0  0  0  0
    1.6730   -2.6150    3.5330 C   0  0  2  0  0  0  0  0  0  0  0  0
    1.2410   -3.3710    2.3890 N   0  0  0  0  0  0  0  0  0  0  0  0
    1.2730   -1.1960    3.3580 C   0  0  0  0  0  0  0  0  0  0  0  0
    1.5530   -0.2870    4.1850 O   0  0  0  0  0  0  0  0  0  0  0  0
    3.4900   -4.4700    2.8440 H   0  0  0  0  0  0  0  0  0  0  0  0
    3.5760   -2.0730    4.4410 H   0  0  0  0  0  0  0  0  0  0  0  0
    3.6460   -2.2090    2.6790 H   0  0  0  0  0  0  0  0  0  0  0  0
    1.2560   -3.0580    4.4460 H   0  0  0  0  0  0  0  0  0  0  0  0
    2.0470   -3.4990    1.7450 H   0  0  0  0  0  0  0  0  0  0  0  0
    0.8130   -4.2920    2.6230 H   0  0  0  0  0  0  0  0  0  0  0  0
    3.2370    1.2290   -3.6770 N   0  0  0  0  0  0  0  0  0  0  0  0
    3.4190    0.7690   -2.3470 C   0  0  0  0  0  0  0  0  0  0  0  0
    4.4280    1.0910   -1.6000 N   0  0  0  0  0  0  0  0  0  0  0  0
    2.4440   -0.0930   -1.7950 N   0  0  0  0  0  0  0  0  0  0  0  0
    2.1240    0.0020   -0.3720 C   0  0  0  0  0  0  0  0  0  0  0  0
    1.4050    1.2930   -0.0720 C   0  0  0  0  0  0  0  0  0  0  0  0
    1.0480    1.5440    1.3400 C   0  0  0  0  0  0  0  0  0  0  0  0
    0.1400    0.6220    2.0610 C   0  0  2  0  0  0  0  0  0  0  0  0
    0.5170   -0.7390    2.2100 N   0  0  0  0  0  0  0  0  0  0  0  0
   -1.2480    0.7200    1.5540 C   0  0  0  0  0  0  0  0  0  0  0  0
   -1.7710    1.8730    1.4430 O   0  0  0  0  0  0  0  0  0  0  0  0
    2.7570    2.1350   -3.8320 H   0  0  0  0  0  0  0  0  0  0  0  0
    3.5650    0.6890   -4.4930 H   0  0  0  0  0  0  0  0  0  0  0  0
    5.1960    1.7080   -1.8850 H   0  0  0  0  0  0  0  0  0  0  0  0
    1.9430   -0.7930   -2.3900 H   0  0  0  0  0  0  0  0  0  0  0  0
    3.0290   -0.1080    0.2540 H   0  0  0  0  0  0  0  0  0  0  0  0
    1.4640   -0.8420   -0.1430 H   0  0  0  0  0  0  0  0  0  0  0  0
    2.1210    2.0950   -0.4590 H   0  0  0  0  0  0  0  0  0  0  0  0
    0.5360    1.4110   -0.7730 H   0  0  0  0  0  0  0  0  0  0  0  0
    2.0070    1.7060    1.9100 H   0  0  0  0  0  0  0  0  0  0  0  0
    0.6050    2.6130    1.3690 H   0  0  0  0  0  0  0  0  0  0  0  0
    0.1590    1.0500    3.1450 H   0  0  0  0  0  0  0  0  0  0  0  0
    0.2670   -1.5090    1.5550 H   0  0  0  0  0  0  0  0  0  0  0  0
   -5.2590   -1.7610   -2.0870 N   0  0  0  0  0  0  0  0  0  0  0  0
   -4.7500   -0.5930   -1.4040 C   0  0  0  0  0  0  0  0  0  0  0  0
   -5.4050    0.4690   -1.3960 O   0  0  0  0  0  0  0  0  0  0  0  0
   -3.4480   -0.7160   -0.7300 C   0  0  0  0  0  0  0  0  0  0  0  0
   -3.4390   -0.1480    0.6760 C   0  0  2  0  0  0  0  0  0  0  0  0
   -2.0660   -0.3640    1.1720 N   0  0  0  0  0  0  0  0  0  0  0  0
   -4.2980   -0.9800    1.5590 C   0  0  0  0  0  0  0  0  0  0  0  0
   -5.5460   -0.9750    1.3510 O   0  0  0  0  0  0  0  0  0  0  0  0
   -3.8190   -1.7530    2.5900 O   0  0  0  0  0  0  0  0  0  0  0  0
   -4.6480   -2.5710   -2.3140 H   0  0  0  0  0  0  0  0  0  0  0  0
   -6.2750   -1.8070   -2.3700 H   0  0  0  0  0  0  0  0  0  0  0  0
   -3.0850   -1.7590   -0.7340 H   0  0  0  0  0  0  0  0  0  0  0  0
   -2.6470   -0.1250   -1.2710 H   0  0  0  0  0  0  0  0  0  0  0  0
   -3.7080    0.9000    0.7080 H   0  0  0  0  0  0  0  0  0  0  0  0
   -1.6900   -1.3260    1.2440 H   0  0  0  0  0  0  0  0  0  0  0  0
  2  1  1  0  0  0  0
  2  8  1  0  0  0  0
  3  2  1  0  0  0  0
  3 10  1  1  0  0  0
  4 12  1  0  0  0  0
  4  3  1  0  0  0  0
  5  3  1  0  0  0  0
  5  6  2  0  0  0  0
  7  1  1  0  0  0  0
  9  2  1  0  0  0  0
 11  4  1  0  0  0  0
 13 14  1  0  0  0  0
 14 16  1  0  0  0  0
 14 15  2  0  0  0  0
 16 17  1  0  0  0  0
 17 29  1  0  0  0  0
 17 18  1  0  0  0  0
 17 28  1  0  0  0  0
 18 19  1  0  0  0  0
 19 33  1  0  0  0  0
 19 32  1  0  0  0  0
 19 20  1  0  0  0  0
 20 21  1  0  0  0  0
 20 34  1  1  0  0  0
 21  5  1  0  0  0  0
 22 20  1  0  0  0  0
 23 22  2  0  0  0  0
 24 13  1  0  0  0  0
 25 13  1  0  0  0  0
 26 15  1  0  0  0  0
 27 16  1  0  0  0  0
 30 18  1  0  0  0  0
 31 18  1  0  0  0  0
 35 21  1  0  0  0  0
 36 37  1  0  0  0  0
 37 38  2  0  0  0  0
 37 39  1  0  0  0  0
 39 40  1  0  0  0  0
 40 49  1  1  0  0  0
 40 41  1  0  0  0  0
 40 42  1  0  0  0  0
 41 50  1  0  0  0  0
 41 22  1  0  0  0  0
 42 44  1  0  0  0  0
 43 42  2  0  0  0  0
 45 36  1  0  0  0  0
 46 36  1  0  0  0  0
 47 39  1  0  0  0  0
 48 39  1  0  0  0  0
M  END
$$$$
