SRP.pdb
 OpenBabel07022419073D

 50 50  0  0  1  0  0  0  0  0999 V2000
   -0.3360   -3.6100    3.9020 O   0  0  0  0  0  0  0  0  0  0  0  0
   -0.2850   -2.3310    4.4560 C   0  0  0  0  0  0  0  0  0  0  0  0
   -1.4110   -1.4940    3.9520 C   0  0  2  0  0  0  0  0  0  0  0  0
   -2.6430   -2.1940    4.3510 N   0  0  0  0  0  0  0  0  0  0  0  0
   -1.4460   -1.2870    2.4950 C   0  0  0  0  0  0  0  0  0  0  0  0
   -2.3970   -1.7580    1.8400 O   0  0  0  0  0  0  0  0  0  0  0  0
   -0.9350   -4.2200    4.3930 H   0  0  0  0  0  0  0  0  0  0  0  0
   -0.4340   -2.4600    5.5480 H   0  0  0  0  0  0  0  0  0  0  0  0
    0.7100   -1.8600    4.3370 H   0  0  0  0  0  0  0  0  0  0  0  0
   -1.3760   -0.5100    4.5030 H   0  0  0  0  0  0  0  0  0  0  0  0
   -3.3540   -1.5140    4.6940 H   0  0  0  0  0  0  0  0  0  0  0  0
   -2.4750   -2.9850    4.9800 H   0  0  0  0  0  0  0  0  0  0  0  0
   -1.3540    2.5380   -3.5180 N   0  0  0  0  0  0  0  0  0  0  0  0
   -1.3500    3.1380   -2.2400 C   0  0  0  0  0  0  0  0  0  0  0  0
   -0.2390    3.6750   -1.8130 N   0  0  0  0  0  0  0  0  0  0  0  0
   -2.5110    3.1670   -1.4330 N   0  0  0  0  0  0  0  0  0  0  0  0
   -2.4420    2.9480   -0.0310 C   0  0  0  0  0  0  0  0  0  0  0  0
   -2.0990    1.5440    0.3890 C   0  0  0  0  0  0  0  0  0  0  0  0
   -0.7520    1.0610   -0.0940 C   0  0  0  0  0  0  0  0  0  0  0  0
   -0.4850   -0.3580    0.3600 C   0  0  2  0  0  0  0  0  0  0  0  0
   -0.4710   -0.5760    1.7390 N   0  0  0  0  0  0  0  0  0  0  0  0
    0.6740   -0.8700   -0.3880 C   0  0  0  0  0  0  0  0  0  0  0  0
    0.6350   -0.6270   -1.6760 O   0  0  0  0  0  0  0  0  0  0  0  0
   -1.9390    2.8600   -4.3040 H   0  0  0  0  0  0  0  0  0  0  0  0
   -0.7290    1.7230   -3.6770 H   0  0  0  0  0  0  0  0  0  0  0  0
    0.6160    3.6730   -2.3730 H   0  0  0  0  0  0  0  0  0  0  0  0
   -3.4260    3.3530   -1.8910 H   0  0  0  0  0  0  0  0  0  0  0  0
   -3.4150    3.1820    0.4750 H   0  0  0  0  0  0  0  0  0  0  0  0
   -1.7240    3.6590    0.4810 H   0  0  0  0  0  0  0  0  0  0  0  0
   -2.1520    1.5500    1.5130 H   0  0  0  0  0  0  0  0  0  0  0  0
   -2.9120    0.8340    0.0870 H   0  0  0  0  0  0  0  0  0  0  0  0
    0.0600    1.7480    0.1310 H   0  0  0  0  0  0  0  0  0  0  0  0
   -0.8170    0.9950   -1.1990 H   0  0  0  0  0  0  0  0  0  0  0  0
   -1.4050   -0.9080   -0.0270 H   0  0  0  0  0  0  0  0  0  0  0  0
    0.3230   -0.1750    2.2980 H   0  0  0  0  0  0  0  0  0  0  0  0
    1.7890   -1.5710    0.1120 N   0  0  0  0  0  0  0  0  0  0  0  0
    2.0300   -1.9520    1.4710 C   0  0  0  0  0  0  0  0  0  0  0  0
    3.0460   -3.0940    1.4330 C   0  0  0  0  0  0  0  0  0  0  0  0
    3.8870   -2.6640    0.2550 C   0  0  0  0  0  0  0  0  0  0  0  0
    2.9040   -2.0260   -0.6980 C   0  0  1  0  0  0  0  0  0  0  0  0
    2.4900   -3.0270   -1.7020 C   0  0  0  0  0  0  0  0  0  0  0  0
    1.3230   -3.4230   -1.8190 O   0  0  0  0  0  0  0  0  0  0  0  0
    3.4590   -3.5450   -2.5480 O   0  0  0  0  0  0  0  0  0  0  0  0
    2.4810   -1.0920    2.0270 H   0  0  0  0  0  0  0  0  0  0  0  0
    1.1640   -2.3700    1.9830 H   0  0  0  0  0  0  0  0  0  0  0  0
    2.5100   -4.0290    1.2410 H   0  0  0  0  0  0  0  0  0  0  0  0
    3.6510   -3.1070    2.3610 H   0  0  0  0  0  0  0  0  0  0  0  0
    4.3540   -3.5670   -0.1750 H   0  0  0  0  0  0  0  0  0  0  0  0
    4.6710   -1.9540    0.5850 H   0  0  0  0  0  0  0  0  0  0  0  0
    3.3890   -1.1330   -1.1420 H   0  0  0  0  0  0  0  0  0  0  0  0
  1  7  1  0  0  0  0
  1  2  1  0  0  0  0
  2  8  1  0  0  0  0
  3  4  1  0  0  0  0
  3  2  1  0  0  0  0
  3 10  1  1  0  0  0
  4 11  1  0  0  0  0
  4 12  1  0  0  0  0
  5  3  1  0  0  0  0
  6  5  2  0  0  0  0
  9  2  1  0  0  0  0
 13 14  1  0  0  0  0
 14 15  2  0  0  0  0
 14 16  1  0  0  0  0
 16 17  1  0  0  0  0
 17 18  1  0  0  0  0
 17 28  1  0  0  0  0
 17 29  1  0  0  0  0
 18 30  1  0  0  0  0
 19 32  1  0  0  0  0
 19 20  1  0  0  0  0
 19 18  1  0  0  0  0
 20 34  1  6  0  0  0
 20 21  1  0  0  0  0
 21 35  1  0  0  0  0
 21  5  1  0  0  0  0
 22 36  1  0  0  0  0
 22 20  1  0  0  0  0
 23 22  2  0  0  0  0
 24 13  1  0  0  0  0
 25 13  1  0  0  0  0
 26 15  1  0  0  0  0
 27 16  1  0  0  0  0
 31 18  1  0  0  0  0
 33 19  1  0  0  0  0
 36 37  1  0  0  0  0
 37 45  1  0  0  0  0
 37 44  1  0  0  0  0
 38 37  1  0  0  0  0
 38 47  1  0  0  0  0
 39 49  1  0  0  0  0
 39 38  1  0  0  0  0
 40 50  1  6  0  0  0
 40 36  1  0  0  0  0
 40 39  1  0  0  0  0
 41 40  1  0  0  0  0
 42 41  1  0  0  0  0
 43 41  2  0  0  0  0
 46 38  1  0  0  0  0
 48 39  1  0  0  0  0
M  END
$$$$
