SRT.pdb
 OpenBabel07022419073D

 50 49  0  0  1  0  0  0  0  0999 V2000
    4.6090   -2.2370    3.0310 O   0  0  0  0  0  0  0  0  0  0  0  0
    3.8660   -2.7040    4.1110 C   0  0  0  0  0  0  0  0  0  0  0  0
    2.4200   -2.9550    3.7280 C   0  0  2  0  0  0  0  0  0  0  0  0
    2.2970   -3.9310    2.6840 N   0  0  0  0  0  0  0  0  0  0  0  0
    1.8310   -1.6450    3.3980 C   0  0  0  0  0  0  0  0  0  0  0  0
    1.8980   -0.7630    4.2950 O   0  0  0  0  0  0  0  0  0  0  0  0
    4.1610   -2.3960    2.1640 H   0  0  0  0  0  0  0  0  0  0  0  0
    4.3680   -3.6170    4.4950 H   0  0  0  0  0  0  0  0  0  0  0  0
    3.9410   -1.9370    4.9080 H   0  0  0  0  0  0  0  0  0  0  0  0
    1.9040   -3.3430    4.6300 H   0  0  0  0  0  0  0  0  0  0  0  0
    2.5590   -4.8640    3.0580 H   0  0  0  0  0  0  0  0  0  0  0  0
    1.4100   -3.9070    2.1750 H   0  0  0  0  0  0  0  0  0  0  0  0
    0.4290   -1.1740   -4.7730 N   0  0  0  0  0  0  0  0  0  0  0  0
    0.4770   -0.4510   -3.5220 C   0  0  0  0  0  0  0  0  0  0  0  0
   -0.6130   -0.0370   -2.9710 N   0  0  0  0  0  0  0  0  0  0  0  0
    1.7130   -0.1830   -2.8790 N   0  0  0  0  0  0  0  0  0  0  0  0
    1.7910    0.6080   -1.6720 C   0  0  0  0  0  0  0  0  0  0  0  0
    1.1640   -0.1020   -0.4800 C   0  0  0  0  0  0  0  0  0  0  0  0
    1.2750    0.7300    0.7750 C   0  0  0  0  0  0  0  0  0  0  0  0
    0.6530   -0.0170    1.9040 C   0  0  2  0  0  0  0  0  0  0  0  0
    1.2120   -1.2830    2.1990 N   0  0  0  0  0  0  0  0  0  0  0  0
   -0.8160   -0.1240    1.7500 C   0  0  0  0  0  0  0  0  0  0  0  0
   -1.3490   -1.2650    1.8450 O   0  0  0  0  0  0  0  0  0  0  0  0
    0.9830   -0.9010   -5.5870 H   0  0  0  0  0  0  0  0  0  0  0  0
   -0.2180   -1.9940   -4.7780 H   0  0  0  0  0  0  0  0  0  0  0  0
   -1.5140   -0.2420   -3.4570 H   0  0  0  0  0  0  0  0  0  0  0  0
    2.5920   -0.5930   -3.3270 H   0  0  0  0  0  0  0  0  0  0  0  0
    1.4060    1.6240   -1.7960 H   0  0  0  0  0  0  0  0  0  0  0  0
    2.8810    0.7210   -1.4070 H   0  0  0  0  0  0  0  0  0  0  0  0
    0.0800   -0.1800   -0.7050 H   0  0  0  0  0  0  0  0  0  0  0  0
    1.5480   -1.1140   -0.3750 H   0  0  0  0  0  0  0  0  0  0  0  0
    2.2780    1.1080    0.9650 H   0  0  0  0  0  0  0  0  0  0  0  0
    0.6390    1.6370    0.5900 H   0  0  0  0  0  0  0  0  0  0  0  0
    0.7990    0.6110    2.8380 H   0  0  0  0  0  0  0  0  0  0  0  0
    1.1540   -2.0270    1.4380 H   0  0  0  0  0  0  0  0  0  0  0  0
   -3.1270    1.0340   -1.1000 C   0  0  0  0  0  0  0  0  0  0  0  0
   -3.5700    0.2440    0.1300 C   0  0  1  0  0  0  0  0  0  0  0  0
   -3.1790   -1.0590   -0.0380 O   0  0  0  0  0  0  0  0  0  0  0  0
   -3.0760    0.9110    1.3640 C   0  0  2  0  0  0  0  0  0  0  0  0
   -1.6540    0.9830    1.5050 N   0  0  0  0  0  0  0  0  0  0  0  0
   -3.6560    0.2180    2.5550 C   0  0  0  0  0  0  0  0  0  0  0  0
   -4.8890   -0.0320    2.6310 O   0  0  0  0  0  0  0  0  0  0  0  0
   -2.8360   -0.1570    3.6000 O   0  0  0  0  0  0  0  0  0  0  0  0
   -3.2830    0.3780   -1.9770 H   0  0  0  0  0  0  0  0  0  0  0  0
   -2.0620    1.2960   -0.9900 H   0  0  0  0  0  0  0  0  0  0  0  0
   -3.7710    1.9470   -1.1710 H   0  0  0  0  0  0  0  0  0  0  0  0
   -4.6880    0.2430    0.1230 H   0  0  0  0  0  0  0  0  0  0  0  0
   -3.8520   -1.6270   -0.4920 H   0  0  0  0  0  0  0  0  0  0  0  0
   -3.5380    1.9370    1.4060 H   0  0  0  0  0  0  0  0  0  0  0  0
   -1.2040    1.9460    1.4180 H   0  0  0  0  0  0  0  0  0  0  0  0
  1  2  1  0  0  0  0
  2  8  1  0  0  0  0
  2  9  1  0  0  0  0
  3  2  1  0  0  0  0
  3 10  1  1  0  0  0
  4 11  1  0  0  0  0
  4  3  1  0  0  0  0
  5  3  1  0  0  0  0
  5  6  2  0  0  0  0
  7  1  1  0  0  0  0
 12  4  1  0  0  0  0
 13 14  1  0  0  0  0
 14 15  2  0  0  0  0
 14 16  1  0  0  0  0
 16 17  1  0  0  0  0
 17 29  1  0  0  0  0
 17 18  1  0  0  0  0
 18 31  1  0  0  0  0
 18 19  1  0  0  0  0
 19 32  1  0  0  0  0
 19 20  1  0  0  0  0
 20 21  1  0  0  0  0
 20 34  1  1  0  0  0
 21  5  1  0  0  0  0
 22 23  2  0  0  0  0
 22 20  1  0  0  0  0
 24 13  1  0  0  0  0
 25 13  1  0  0  0  0
 26 15  1  0  0  0  0
 27 16  1  0  0  0  0
 28 17  1  0  0  0  0
 30 18  1  0  0  0  0
 33 19  1  0  0  0  0
 35 21  1  0  0  0  0
 36 45  1  0  0  0  0
 36 37  1  0  0  0  0
 37 47  1  1  0  0  0
 37 39  1  0  0  0  0
 38 37  1  0  0  0  0
 39 49  1  6  0  0  0
 39 40  1  0  0  0  0
 39 41  1  0  0  0  0
 40 22  1  0  0  0  0
 41 42  2  0  0  0  0
 41 43  1  0  0  0  0
 44 36  1  0  0  0  0
 46 36  1  0  0  0  0
 48 38  1  0  0  0  0
 50 40  1  0  0  0  0
M  END
$$$$
