SRV.pdb
 OpenBabel07022419073D

 52 51  0  0  1  0  0  0  0  0999 V2000
    2.4540   -3.9150    5.0910 O   0  0  0  0  0  0  0  0  0  0  0  0
    1.5990   -3.1090    4.3500 C   0  0  0  0  0  0  0  0  0  0  0  0
    2.0140   -1.6550    4.4230 C   0  0  2  0  0  0  0  0  0  0  0  0
    1.9740   -1.2480    5.8130 N   0  0  0  0  0  0  0  0  0  0  0  0
    1.0450   -0.7920    3.6670 C   0  0  0  0  0  0  0  0  0  0  0  0
    0.3730    0.0940    4.2560 O   0  0  0  0  0  0  0  0  0  0  0  0
    3.3350   -3.8880    4.6390 H   0  0  0  0  0  0  0  0  0  0  0  0
    1.7420   -3.4020    3.2720 H   0  0  0  0  0  0  0  0  0  0  0  0
    0.5750   -3.2810    4.6660 H   0  0  0  0  0  0  0  0  0  0  0  0
    2.9930   -1.4770    3.9750 H   0  0  0  0  0  0  0  0  0  0  0  0
    0.9910   -1.0070    6.1140 H   0  0  0  0  0  0  0  0  0  0  0  0
    2.2950   -1.9950    6.4690 H   0  0  0  0  0  0  0  0  0  0  0  0
    4.4940    1.0870   -3.4500 N   0  0  0  0  0  0  0  0  0  0  0  0
    4.1140    1.2150   -2.0980 C   0  0  0  0  0  0  0  0  0  0  0  0
    4.1920    2.3010   -1.4140 N   0  0  0  0  0  0  0  0  0  0  0  0
    3.6080    0.0720   -1.4310 N   0  0  0  0  0  0  0  0  0  0  0  0
    2.8150    0.1280   -0.2320 C   0  0  0  0  0  0  0  0  0  0  0  0
    1.4760    0.7030   -0.4120 C   0  0  0  0  0  0  0  0  0  0  0  0
    0.5540    0.8580    0.6820 C   0  0  0  0  0  0  0  0  0  0  0  0
    0.0110   -0.2180    1.5070 C   0  0  2  0  0  0  0  0  0  0  0  0
    0.9280   -1.0260    2.2600 N   0  0  0  0  0  0  0  0  0  0  0  0
   -1.0260   -1.0550    0.8350 C   0  0  0  0  0  0  0  0  0  0  0  0
   -0.9410   -2.2990    1.0080 O   0  0  0  0  0  0  0  0  0  0  0  0
    4.0080    1.6660   -4.1610 H   0  0  0  0  0  0  0  0  0  0  0  0
    5.2390    0.4410   -3.7770 H   0  0  0  0  0  0  0  0  0  0  0  0
    4.5660    3.1590   -1.8920 H   0  0  0  0  0  0  0  0  0  0  0  0
    3.8250   -0.8590   -1.8390 H   0  0  0  0  0  0  0  0  0  0  0  0
    2.7360   -0.9090    0.1370 H   0  0  0  0  0  0  0  0  0  0  0  0
    3.3860    0.7810    0.4760 H   0  0  0  0  0  0  0  0  0  0  0  0
    1.6400    1.7490   -0.8360 H   0  0  0  0  0  0  0  0  0  0  0  0
    0.9970    0.1730   -1.2750 H   0  0  0  0  0  0  0  0  0  0  0  0
    0.9850    1.6230    1.4180 H   0  0  0  0  0  0  0  0  0  0  0  0
   -0.3480    1.4370    0.2930 H   0  0  0  0  0  0  0  0  0  0  0  0
   -0.6110    0.3290    2.2960 H   0  0  0  0  0  0  0  0  0  0  0  0
    1.5190   -1.8070    1.8430 H   0  0  0  0  0  0  0  0  0  0  0  0
   -4.8930    0.2920   -0.4380 C   0  0  0  0  0  0  0  0  0  0  0  0
   -4.4330   -1.1070   -0.1160 C   0  0  0  0  0  0  0  0  0  0  0  0
   -5.4190   -2.0830   -0.6760 C   0  0  0  0  0  0  0  0  0  0  0  0
   -3.0180   -1.3880   -0.5720 C   0  0  2  0  0  0  0  0  0  0  0  0
   -2.0610   -0.5060    0.0390 N   0  0  0  0  0  0  0  0  0  0  0  0
   -3.0060   -1.2750   -2.0540 C   0  0  0  0  0  0  0  0  0  0  0  0
   -2.2260   -0.4780   -2.6760 O   0  0  0  0  0  0  0  0  0  0  0  0
   -3.8430   -2.0300   -2.8600 O   0  0  0  0  0  0  0  0  0  0  0  0
   -5.6460    0.2450   -1.2540 H   0  0  0  0  0  0  0  0  0  0  0  0
   -5.2410    0.8350    0.4430 H   0  0  0  0  0  0  0  0  0  0  0  0
   -4.0010    0.8210   -0.8830 H   0  0  0  0  0  0  0  0  0  0  0  0
   -4.4700   -1.2180    1.0020 H   0  0  0  0  0  0  0  0  0  0  0  0
   -5.0820   -3.1270   -0.6990 H   0  0  0  0  0  0  0  0  0  0  0  0
   -5.8020   -1.6970   -1.6350 H   0  0  0  0  0  0  0  0  0  0  0  0
   -6.3080   -2.0740    0.0180 H   0  0  0  0  0  0  0  0  0  0  0  0
   -2.7730   -2.4210   -0.3200 H   0  0  0  0  0  0  0  0  0  0  0  0
   -2.1230    0.5260   -0.0980 H   0  0  0  0  0  0  0  0  0  0  0  0
  2  3  1  0  0  0  0
  2  9  1  0  0  0  0
  2  1  1  0  0  0  0
  3 10  1  6  0  0  0
  3  4  1  0  0  0  0
  4 11  1  0  0  0  0
  4 12  1  0  0  0  0
  5  6  2  0  0  0  0
  5  3  1  0  0  0  0
  7  1  1  0  0  0  0
  8  2  1  0  0  0  0
 13 14  1  0  0  0  0
 14 16  1  0  0  0  0
 14 15  2  0  0  0  0
 16 17  1  0  0  0  0
 17 28  1  0  0  0  0
 17 29  1  0  0  0  0
 18 17  1  0  0  0  0
 18 19  1  0  0  0  0
 19 32  1  0  0  0  0
 19 20  1  0  0  0  0
 20 21  1  0  0  0  0
 20 34  1  1  0  0  0
 21  5  1  0  0  0  0
 22 23  2  0  0  0  0
 22 20  1  0  0  0  0
 24 13  1  0  0  0  0
 25 13  1  0  0  0  0
 26 15  1  0  0  0  0
 27 16  1  0  0  0  0
 30 18  1  0  0  0  0
 31 18  1  0  0  0  0
 33 19  1  0  0  0  0
 35 21  1  0  0  0  0
 36 37  1  0  0  0  0
 36 45  1  0  0  0  0
 37 47  1  0  0  0  0
 38 37  1  0  0  0  0
 38 50  1  0  0  0  0
 39 51  1  1  0  0  0
 39 37  1  0  0  0  0
 39 40  1  0  0  0  0
 40 22  1  0  0  0  0
 41 39  1  0  0  0  0
 42 41  1  0  0  0  0
 43 41  2  0  0  0  0
 44 36  1  0  0  0  0
 46 36  1  0  0  0  0
 48 38  1  0  0  0  0
 49 38  1  0  0  0  0
 52 40  1  0  0  0  0
M  END
$$$$
