SSG.pdb
 OpenBabel07022419093D

 31 30  0  0  1  0  0  0  0  0999 V2000
   -1.3570   -4.8750    3.0950 O   0  0  0  0  0  0  0  0  0  0  0  0
   -0.4460   -4.1850    2.3180 C   0  0  0  0  0  0  0  0  0  0  0  0
   -0.7030   -2.6930    2.3190 C   0  0  2  0  0  0  0  0  0  0  0  0
   -1.9970   -2.3560    1.8140 N   0  0  0  0  0  0  0  0  0  0  0  0
    0.3790   -2.0710    1.4770 C   0  0  0  0  0  0  0  0  0  0  0  0
    1.5880   -2.2310    1.7310 O   0  0  0  0  0  0  0  0  0  0  0  0
   -1.8330   -4.2780    3.6980 H   0  0  0  0  0  0  0  0  0  0  0  0
    0.5610   -4.3510    2.7320 H   0  0  0  0  0  0  0  0  0  0  0  0
   -0.4400   -4.5240    1.2640 H   0  0  0  0  0  0  0  0  0  0  0  0
   -0.6170   -2.2650    3.3440 H   0  0  0  0  0  0  0  0  0  0  0  0
   -2.3800   -1.4720    2.1560 H   0  0  0  0  0  0  0  0  0  0  0  0
   -2.1710   -2.5930    0.8330 H   0  0  0  0  0  0  0  0  0  0  0  0
    1.0710   -2.4490   -2.1020 O   0  0  0  0  0  0  0  0  0  0  0  0
    0.9490   -1.0650   -1.9390 C   0  0  0  0  0  0  0  0  0  0  0  0
    1.0700   -0.6560   -0.4860 C   0  0  2  0  0  0  0  0  0  0  0  0
    0.0560   -1.2630    0.3370 N   0  0  0  0  0  0  0  0  0  0  0  0
    0.8820    0.8150   -0.4330 C   0  0  0  0  0  0  0  0  0  0  0  0
    1.6620    1.5850   -1.0870 O   0  0  0  0  0  0  0  0  0  0  0  0
    2.0140   -2.7270   -2.0890 H   0  0  0  0  0  0  0  0  0  0  0  0
    1.7790   -0.5960   -2.5050 H   0  0  0  0  0  0  0  0  0  0  0  0
   -0.0100   -0.6890   -2.3120 H   0  0  0  0  0  0  0  0  0  0  0  0
    2.0880   -0.8840   -0.1440 H   0  0  0  0  0  0  0  0  0  0  0  0
   -0.9530   -1.1230    0.1150 H   0  0  0  0  0  0  0  0  0  0  0  0
   -0.1590    1.4020    0.3360 N   0  0  0  0  0  0  0  0  0  0  0  0
   -0.3480    2.8500    0.3910 C   0  0  0  0  0  0  0  0  0  0  0  0
    0.9120    3.4450    0.9480 C   0  0  0  0  0  0  0  0  0  0  0  0
    1.8870    2.7310    1.2740 O   0  0  0  0  0  0  0  0  0  0  0  0
    1.0430    4.8130    1.1230 O   0  0  0  0  0  0  0  0  0  0  0  0
   -0.8000    0.7640    0.8730 H   0  0  0  0  0  0  0  0  0  0  0  0
   -1.1460    3.0710    1.1120 H   0  0  0  0  0  0  0  0  0  0  0  0
   -0.5090    3.2780   -0.6100 H   0  0  0  0  0  0  0  0  0  0  0  0
  1  7  1  0  0  0  0
  2  3  1  0  0  0  0
  2  8  1  0  0  0  0
  2  1  1  0  0  0  0
  3 10  1  1  0  0  0
  4 11  1  0  0  0  0
  4  3  1  0  0  0  0
  5  6  2  0  0  0  0
  5  3  1  0  0  0  0
  9  2  1  0  0  0  0
 12  4  1  0  0  0  0
 13 19  1  0  0  0  0
 13 14  1  0  0  0  0
 14 15  1  0  0  0  0
 15 17  1  0  0  0  0
 15 22  1  1  0  0  0
 15 16  1  0  0  0  0
 16  5  1  0  0  0  0
 17 24  1  0  0  0  0
 18 17  2  0  0  0  0
 20 14  1  0  0  0  0
 21 14  1  0  0  0  0
 23 16  1  0  0  0  0
 24 25  1  0  0  0  0
 24 29  1  0  0  0  0
 25 26  1  0  0  0  0
 25 30  1  0  0  0  0
 26 28  2  0  0  0  0
 26 27  1  0  0  0  0
 31 25  1  0  0  0  0
M  END
$$$$
