SSM.pdb
 OpenBabel07022419103D

 41 40  0  0  1  0  0  0  0  0999 V2000
   -2.8300   -4.1020    0.3890 O   0  0  0  0  0  0  0  0  0  0  0  0
   -1.8600   -5.0260    0.0850 C   0  0  0  0  0  0  0  0  0  0  0  0
   -0.9270   -5.1870    1.2510 C   0  0  2  0  0  0  0  0  0  0  0  0
   -1.7020   -5.6400    2.3890 N   0  0  0  0  0  0  0  0  0  0  0  0
   -0.2190   -3.9600    1.6090 C   0  0  0  0  0  0  0  0  0  0  0  0
   -0.3170   -3.4930    2.7600 O   0  0  0  0  0  0  0  0  0  0  0  0
   -2.6190   -3.5740    1.2230 H   0  0  0  0  0  0  0  0  0  0  0  0
   -1.3300   -4.8410   -0.8680 H   0  0  0  0  0  0  0  0  0  0  0  0
   -2.3780   -6.0150   -0.0410 H   0  0  0  0  0  0  0  0  0  0  0  0
   -0.2210   -6.0300    0.9960 H   0  0  0  0  0  0  0  0  0  0  0  0
   -1.8850   -4.8120    3.0010 H   0  0  0  0  0  0  0  0  0  0  0  0
   -1.2170   -6.4050    2.9000 H   0  0  0  0  0  0  0  0  0  0  0  0
    3.2140   -2.4470   -0.3890 O   0  0  0  0  0  0  0  0  0  0  0  0
    2.8030   -2.1270    0.8880 C   0  0  0  0  0  0  0  0  0  0  0  0
    1.3110   -2.0300    1.0230 C   0  0  2  0  0  0  0  0  0  0  0  0
    0.6080   -3.2260    0.7070 N   0  0  0  0  0  0  0  0  0  0  0  0
    0.7420   -0.8890    0.2960 C   0  0  0  0  0  0  0  0  0  0  0  0
   -0.2340   -1.0750   -0.4710 O   0  0  0  0  0  0  0  0  0  0  0  0
    4.1570   -2.1390   -0.5060 H   0  0  0  0  0  0  0  0  0  0  0  0
    3.1840   -2.8150    1.6640 H   0  0  0  0  0  0  0  0  0  0  0  0
    3.2170   -1.1260    1.1290 H   0  0  0  0  0  0  0  0  0  0  0  0
    1.1060   -1.8240    2.1170 H   0  0  0  0  0  0  0  0  0  0  0  0
    0.6990   -3.6030   -0.2610 H   0  0  0  0  0  0  0  0  0  0  0  0
   -0.3530    5.8470    1.6030 C   0  0  0  0  0  0  0  0  0  0  0  0
    0.2580    4.4330    2.5410 S   0  0  0  0  0  0  0  0  0  0  0  0
    1.0500    3.1950    1.4770 C   0  0  0  0  0  0  0  0  0  0  0  0
    0.0190    2.5740    0.5650 C   0  0  0  0  0  0  0  0  0  0  0  0
    0.6160    1.5370   -0.3500 C   0  0  2  0  0  0  0  0  0  0  0  0
    1.2270    0.4450    0.4000 N   0  0  0  0  0  0  0  0  0  0  0  0
    1.6020    2.1450   -1.2580 C   0  0  0  0  0  0  0  0  0  0  0  0
    1.2810    3.1000   -1.9900 O   0  0  0  0  0  0  0  0  0  0  0  0
    2.8870    1.6530   -1.2960 O   0  0  0  0  0  0  0  0  0  0  0  0
   -1.3900    5.7480    1.2820 H   0  0  0  0  0  0  0  0  0  0  0  0
   -0.2660    6.7510    2.2770 H   0  0  0  0  0  0  0  0  0  0  0  0
    0.2670    6.0680    0.7090 H   0  0  0  0  0  0  0  0  0  0  0  0
    1.9270    3.5670    0.9510 H   0  0  0  0  0  0  0  0  0  0  0  0
    1.4090    2.3850    2.1610 H   0  0  0  0  0  0  0  0  0  0  0  0
   -0.8120    2.1540    1.1630 H   0  0  0  0  0  0  0  0  0  0  0  0
   -0.4070    3.3780   -0.0670 H   0  0  0  0  0  0  0  0  0  0  0  0
   -0.2230    1.1060   -0.9430 H   0  0  0  0  0  0  0  0  0  0  0  0
    2.0240    0.6280    1.0180 H   0  0  0  0  0  0  0  0  0  0  0  0
  1  7  1  0  0  0  0
  2  1  1  0  0  0  0
  2  3  1  0  0  0  0
  3 10  1  6  0  0  0
  3  5  1  0  0  0  0
  3  4  1  0  0  0  0
  4 12  1  0  0  0  0
  4 11  1  0  0  0  0
  5  6  2  0  0  0  0
  8  2  1  0  0  0  0
  9  2  1  0  0  0  0
 13 14  1  0  0  0  0
 14 15  1  0  0  0  0
 14 21  1  0  0  0  0
 14 20  1  0  0  0  0
 15 22  1  1  0  0  0
 16 15  1  0  0  0  0
 16  5  1  0  0  0  0
 17 29  1  0  0  0  0
 17 15  1  0  0  0  0
 18 17  2  0  0  0  0
 19 13  1  0  0  0  0
 23 16  1  0  0  0  0
 24 34  1  0  0  0  0
 24 25  1  0  0  0  0
 26 37  1  0  0  0  0
 26 25  1  0  0  0  0
 27 38  1  0  0  0  0
 27 26  1  0  0  0  0
 28 40  1  6  0  0  0
 28 29  1  0  0  0  0
 28 27  1  0  0  0  0
 29 41  1  0  0  0  0
 30 28  1  0  0  0  0
 31 30  2  0  0  0  0
 32 30  1  0  0  0  0
 33 24  1  0  0  0  0
 35 24  1  0  0  0  0
 36 26  1  0  0  0  0
 39 27  1  0  0  0  0
M  END
$$$$
