SSS.pdb
 OpenBabel07022419103D

 35 34  0  0  1  0  0  0  0  0999 V2000
   -2.2010   -3.9130    3.6320 O   0  0  0  0  0  0  0  0  0  0  0  0
   -1.3920   -2.9300    3.0670 C   0  0  0  0  0  0  0  0  0  0  0  0
    0.0820   -3.3190    3.2170 C   0  0  2  0  0  0  0  0  0  0  0  0
    0.4550   -3.4660    4.5850 N   0  0  0  0  0  0  0  0  0  0  0  0
    0.8520   -2.2110    2.5430 C   0  0  0  0  0  0  0  0  0  0  0  0
    1.7060   -1.5280    3.1470 O   0  0  0  0  0  0  0  0  0  0  0  0
   -2.2470   -3.7810    4.6260 H   0  0  0  0  0  0  0  0  0  0  0  0
   -1.6640   -2.8450    1.9960 H   0  0  0  0  0  0  0  0  0  0  0  0
   -1.5850   -1.9730    3.5890 H   0  0  0  0  0  0  0  0  0  0  0  0
    0.2430   -4.2340    2.6160 H   0  0  0  0  0  0  0  0  0  0  0  0
   -0.1990   -2.9190    5.2030 H   0  0  0  0  0  0  0  0  0  0  0  0
    0.2920   -4.4840    4.8490 H   0  0  0  0  0  0  0  0  0  0  0  0
    1.3010   -2.2270   -1.4880 O   0  0  0  0  0  0  0  0  0  0  0  0
    2.1340   -1.5390   -0.6160 C   0  0  0  0  0  0  0  0  0  0  0  0
    1.3220   -0.8630    0.4660 C   0  0  2  0  0  0  0  0  0  0  0  0
    0.6100   -1.9190    1.1690 N   0  0  0  0  0  0  0  0  0  0  0  0
    0.3080    0.0600   -0.0900 C   0  0  0  0  0  0  0  0  0  0  0  0
   -0.9110   -0.1590    0.0940 O   0  0  0  0  0  0  0  0  0  0  0  0
    1.5130   -3.1920   -1.4850 H   0  0  0  0  0  0  0  0  0  0  0  0
    2.7980   -0.8250   -1.1120 H   0  0  0  0  0  0  0  0  0  0  0  0
    2.7930   -2.2800   -0.0900 H   0  0  0  0  0  0  0  0  0  0  0  0
    2.0440   -0.3450    1.1230 H   0  0  0  0  0  0  0  0  0  0  0  0
   -0.1090   -2.5110    0.7000 H   0  0  0  0  0  0  0  0  0  0  0  0
    1.1460    4.0390   -1.0960 O   0  0  0  0  0  0  0  0  0  0  0  0
   -0.1450    3.5410   -0.8380 C   0  0  0  0  0  0  0  0  0  0  0  0
   -0.2790    2.1390   -1.4030 C   0  0  2  0  0  0  0  0  0  0  0  0
    0.6490    1.2190   -0.8460 N   0  0  0  0  0  0  0  0  0  0  0  0
   -0.2100    2.2400   -2.8830 C   0  0  0  0  0  0  0  0  0  0  0  0
    0.6060    1.5620   -3.5610 O   0  0  0  0  0  0  0  0  0  0  0  0
   -1.0490    3.0920   -3.5830 O   0  0  0  0  0  0  0  0  0  0  0  0
    1.5010    3.6140   -1.9330 H   0  0  0  0  0  0  0  0  0  0  0  0
   -0.8380    4.2260   -1.3680 H   0  0  0  0  0  0  0  0  0  0  0  0
   -0.3960    3.5950    0.2370 H   0  0  0  0  0  0  0  0  0  0  0  0
   -1.3060    1.7990   -1.1490 H   0  0  0  0  0  0  0  0  0  0  0  0
    1.6740    1.3830   -0.9870 H   0  0  0  0  0  0  0  0  0  0  0  0
  1  7  1  0  0  0  0
  2  3  1  0  0  0  0
  2  9  1  0  0  0  0
  2  1  1  0  0  0  0
  3 10  1  6  0  0  0
  3  4  1  0  0  0  0
  4 12  1  0  0  0  0
  4 11  1  0  0  0  0
  5  6  2  0  0  0  0
  5  3  1  0  0  0  0
  8  2  1  0  0  0  0
 13 19  1  0  0  0  0
 13 14  1  0  0  0  0
 14 21  1  0  0  0  0
 14 15  1  0  0  0  0
 15 22  1  1  0  0  0
 15 16  1  0  0  0  0
 16  5  1  0  0  0  0
 17 18  2  0  0  0  0
 17 15  1  0  0  0  0
 20 14  1  0  0  0  0
 23 16  1  0  0  0  0
 24 25  1  0  0  0  0
 25 33  1  0  0  0  0
 26 34  1  1  0  0  0
 26 27  1  0  0  0  0
 26 25  1  0  0  0  0
 27 17  1  0  0  0  0
 28 26  1  0  0  0  0
 29 28  1  0  0  0  0
 30 28  2  0  0  0  0
 31 24  1  0  0  0  0
 32 25  1  0  0  0  0
 35 27  1  0  0  0  0
M  END
$$$$
