SST.pdb
 OpenBabel07022419103D

 38 37  0  0  1  0  0  0  0  0999 V2000
   -1.5300   -4.0430    0.4070 O   0  0  0  0  0  0  0  0  0  0  0  0
   -0.2580   -4.5110    0.1460 C   0  0  0  0  0  0  0  0  0  0  0  0
    0.6070   -4.5280    1.3950 C   0  0  2  0  0  0  0  0  0  0  0  0
   -0.0300   -5.3960    2.3600 N   0  0  0  0  0  0  0  0  0  0  0  0
    0.6960   -3.1620    1.9870 C   0  0  0  0  0  0  0  0  0  0  0  0
    0.2520   -2.9400    3.1420 O   0  0  0  0  0  0  0  0  0  0  0  0
   -1.5090   -3.2150    0.9660 H   0  0  0  0  0  0  0  0  0  0  0  0
    0.1830   -3.8670   -0.6430 H   0  0  0  0  0  0  0  0  0  0  0  0
   -0.3440   -5.5620   -0.2050 H   0  0  0  0  0  0  0  0  0  0  0  0
    1.6390   -4.8390    1.1410 H   0  0  0  0  0  0  0  0  0  0  0  0
   -0.4930   -4.8660    3.1060 H   0  0  0  0  0  0  0  0  0  0  0  0
   -0.7210   -6.0360    1.9320 H   0  0  0  0  0  0  0  0  0  0  0  0
    3.4260   -0.1400    0.9340 O   0  0  0  0  0  0  0  0  0  0  0  0
    2.7310   -0.2860    2.1190 C   0  0  0  0  0  0  0  0  0  0  0  0
    1.3220   -0.7860    1.9290 C   0  0  2  0  0  0  0  0  0  0  0  0
    1.2740   -2.0700    1.2890 N   0  0  0  0  0  0  0  0  0  0  0  0
    0.4890    0.1690    1.1580 C   0  0  0  0  0  0  0  0  0  0  0  0
   -0.0840   -0.2780    0.1350 O   0  0  0  0  0  0  0  0  0  0  0  0
    2.8360   -0.1010    0.1400 H   0  0  0  0  0  0  0  0  0  0  0  0
    2.6880    0.6150    2.7350 H   0  0  0  0  0  0  0  0  0  0  0  0
    3.2650   -1.0610    2.7170 H   0  0  0  0  0  0  0  0  0  0  0  0
    0.8720   -0.8350    2.9390 H   0  0  0  0  0  0  0  0  0  0  0  0
    1.6600   -2.1880    0.3300 H   0  0  0  0  0  0  0  0  0  0  0  0
   -0.7080    3.4730   -1.5160 C   0  0  0  0  0  0  0  0  0  0  0  0
    0.1140    2.5730   -0.6200 C   0  0  1  0  0  0  0  0  0  0  0  0
    1.3850    3.1190   -0.5380 O   0  0  0  0  0  0  0  0  0  0  0  0
   -0.4990    2.3960    0.7330 C   0  0  2  0  0  0  0  0  0  0  0  0
    0.3270    1.5190    1.5270 N   0  0  0  0  0  0  0  0  0  0  0  0
   -1.8640    1.8320    0.6800 C   0  0  0  0  0  0  0  0  0  0  0  0
   -2.1160    0.7860    1.3120 O   0  0  0  0  0  0  0  0  0  0  0  0
   -2.9040    2.4030   -0.0440 O   0  0  0  0  0  0  0  0  0  0  0  0
   -1.5940    2.9550   -1.9430 H   0  0  0  0  0  0  0  0  0  0  0  0
   -0.0590    3.7440   -2.3740 H   0  0  0  0  0  0  0  0  0  0  0  0
   -0.9740    4.4310   -1.0120 H   0  0  0  0  0  0  0  0  0  0  0  0
    0.1780    1.6030   -1.1320 H   0  0  0  0  0  0  0  0  0  0  0  0
    1.8970    2.9560   -1.3850 H   0  0  0  0  0  0  0  0  0  0  0  0
   -0.5470    3.4220    1.2160 H   0  0  0  0  0  0  0  0  0  0  0  0
    0.8290    1.8390    2.3900 H   0  0  0  0  0  0  0  0  0  0  0  0
  1  7  1  0  0  0  0
  2  1  1  0  0  0  0
  2  3  1  0  0  0  0
  3 10  1  6  0  0  0
  3  5  1  0  0  0  0
  3  4  1  0  0  0  0
  4 11  1  0  0  0  0
  5  6  2  0  0  0  0
  8  2  1  0  0  0  0
  9  2  1  0  0  0  0
 12  4  1  0  0  0  0
 13 14  1  0  0  0  0
 14 21  1  0  0  0  0
 14 20  1  0  0  0  0
 15 14  1  0  0  0  0
 15 22  1  1  0  0  0
 16 15  1  0  0  0  0
 16  5  1  0  0  0  0
 17 28  1  0  0  0  0
 17 15  1  0  0  0  0
 18 17  2  0  0  0  0
 19 13  1  0  0  0  0
 23 16  1  0  0  0  0
 24 34  1  0  0  0  0
 24 25  1  0  0  0  0
 25 35  1  6  0  0  0
 25 26  1  0  0  0  0
 25 27  1  0  0  0  0
 27 37  1  1  0  0  0
 27 28  1  0  0  0  0
 28 38  1  0  0  0  0
 29 27  1  0  0  0  0
 29 30  1  0  0  0  0
 31 29  2  0  0  0  0
 32 24  1  0  0  0  0
 33 24  1  0  0  0  0
 36 26  1  0  0  0  0
M  END
$$$$
