SSV.pdb
 OpenBabel07022419103D

 40 39  0  0  1  0  0  0  0  0999 V2000
   -1.3530   -1.4650    3.5390 O   0  0  0  0  0  0  0  0  0  0  0  0
   -1.9520   -2.1650    2.4940 C   0  0  0  0  0  0  0  0  0  0  0  0
   -1.1980   -3.4750    2.2770 C   0  0  2  0  0  0  0  0  0  0  0  0
   -1.2540   -4.2290    3.4480 N   0  0  0  0  0  0  0  0  0  0  0  0
    0.1860   -3.1260    1.9430 C   0  0  0  0  0  0  0  0  0  0  0  0
    1.1050   -3.5320    2.7210 O   0  0  0  0  0  0  0  0  0  0  0  0
   -2.0430   -1.0220    4.0800 H   0  0  0  0  0  0  0  0  0  0  0  0
   -3.0020   -2.4280    2.7300 H   0  0  0  0  0  0  0  0  0  0  0  0
   -1.8620   -1.5690    1.5580 H   0  0  0  0  0  0  0  0  0  0  0  0
   -1.7340   -3.9950    1.4610 H   0  0  0  0  0  0  0  0  0  0  0  0
   -1.0860   -3.7640    4.3440 H   0  0  0  0  0  0  0  0  0  0  0  0
   -1.8030   -5.0900    3.4620 H   0  0  0  0  0  0  0  0  0  0  0  0
    1.7480   -2.1690   -1.7970 O   0  0  0  0  0  0  0  0  0  0  0  0
    2.4560   -2.6980   -0.7130 C   0  0  0  0  0  0  0  0  0  0  0  0
    1.9730   -2.0950    0.6050 C   0  0  2  0  0  0  0  0  0  0  0  0
    0.5710   -2.3680    0.8170 N   0  0  0  0  0  0  0  0  0  0  0  0
    2.1770   -0.6140    0.5300 C   0  0  0  0  0  0  0  0  0  0  0  0
    3.3320   -0.1490    0.3490 O   0  0  0  0  0  0  0  0  0  0  0  0
    1.2640   -1.3790   -1.4960 H   0  0  0  0  0  0  0  0  0  0  0  0
    2.4270   -3.7880   -0.7000 H   0  0  0  0  0  0  0  0  0  0  0  0
    3.5140   -2.3910   -0.8480 H   0  0  0  0  0  0  0  0  0  0  0  0
    2.6160   -2.5350    1.3920 H   0  0  0  0  0  0  0  0  0  0  0  0
   -0.1380   -2.0200    0.1620 H   0  0  0  0  0  0  0  0  0  0  0  0
    0.9600    1.7770   -1.8940 C   0  0  0  0  0  0  0  0  0  0  0  0
    0.5100    2.3520   -0.5650 C   0  0  0  0  0  0  0  0  0  0  0  0
   -0.9720    2.1120   -0.4550 C   0  0  0  0  0  0  0  0  0  0  0  0
    1.2850    1.7510    0.5880 C   0  0  2  0  0  0  0  0  0  0  0  0
    1.1100    0.3020    0.6570 N   0  0  0  0  0  0  0  0  0  0  0  0
    0.8320    2.4030    1.8360 C   0  0  0  0  0  0  0  0  0  0  0  0
    0.3770    1.6850    2.7540 O   0  0  0  0  0  0  0  0  0  0  0  0
    0.8900    3.7670    2.0280 O   0  0  0  0  0  0  0  0  0  0  0  0
    0.4760    0.8070   -2.0980 H   0  0  0  0  0  0  0  0  0  0  0  0
    2.0470    1.6920   -1.9770 H   0  0  0  0  0  0  0  0  0  0  0  0
    0.5810    2.4780   -2.6890 H   0  0  0  0  0  0  0  0  0  0  0  0
    0.6870    3.4300   -0.5540 H   0  0  0  0  0  0  0  0  0  0  0  0
   -1.2560    1.1950   -1.0290 H   0  0  0  0  0  0  0  0  0  0  0  0
   -1.3530    2.1030    0.5690 H   0  0  0  0  0  0  0  0  0  0  0  0
   -1.4760    2.9540   -0.9930 H   0  0  0  0  0  0  0  0  0  0  0  0
    2.3490    2.0160    0.4250 H   0  0  0  0  0  0  0  0  0  0  0  0
    0.1580   -0.0940    0.8080 H   0  0  0  0  0  0  0  0  0  0  0  0
  1  7  1  0  0  0  0
  2  8  1  0  0  0  0
  2  1  1  0  0  0  0
  3 10  1  6  0  0  0
  3  2  1  0  0  0  0
  3  4  1  0  0  0  0
  4 12  1  0  0  0  0
  4 11  1  0  0  0  0
  5  3  1  0  0  0  0
  5  6  2  0  0  0  0
  9  2  1  0  0  0  0
 13 19  1  0  0  0  0
 13 14  1  0  0  0  0
 14 20  1  0  0  0  0
 14 15  1  0  0  0  0
 15 16  1  0  0  0  0
 15 22  1  1  0  0  0
 16  5  1  0  0  0  0
 17 15  1  0  0  0  0
 17 28  1  0  0  0  0
 18 17  2  0  0  0  0
 21 14  1  0  0  0  0
 23 16  1  0  0  0  0
 24 25  1  0  0  0  0
 25 35  1  0  0  0  0
 25 26  1  0  0  0  0
 25 27  1  0  0  0  0
 26 37  1  0  0  0  0
 27 39  1  6  0  0  0
 27 28  1  0  0  0  0
 27 29  1  0  0  0  0
 28 40  1  0  0  0  0
 29 31  2  0  0  0  0
 29 30  1  0  0  0  0
 32 24  1  0  0  0  0
 33 24  1  0  0  0  0
 34 24  1  0  0  0  0
 36 26  1  0  0  0  0
 38 26  1  0  0  0  0
M  END
$$$$
