STF.pdb
 OpenBabel07022419103D

 47 47  0  0  1  0  0  0  0  0999 V2000
    5.7720   -0.3530    3.7850 O   0  0  0  0  0  0  0  0  0  0  0  0
    5.2360   -0.7220    2.5420 C   0  0  0  0  0  0  0  0  0  0  0  0
    3.8380   -0.1170    2.3640 C   0  0  2  0  0  0  0  0  0  0  0  0
    3.0160   -0.6210    3.4220 N   0  0  0  0  0  0  0  0  0  0  0  0
    3.3650   -0.4690    1.0210 C   0  0  0  0  0  0  0  0  0  0  0  0
    4.0330   -0.0660    0.0350 O   0  0  0  0  0  0  0  0  0  0  0  0
    5.6020   -1.0780    4.4600 H   0  0  0  0  0  0  0  0  0  0  0  0
    5.1770   -1.8280    2.5100 H   0  0  0  0  0  0  0  0  0  0  0  0
    5.8780   -0.3550    1.7390 H   0  0  0  0  0  0  0  0  0  0  0  0
    3.9230    0.9870    2.5100 H   0  0  0  0  0  0  0  0  0  0  0  0
    2.8590   -1.6480    3.3790 H   0  0  0  0  0  0  0  0  0  0  0  0
    2.1520   -0.0780    3.5950 H   0  0  0  0  0  0  0  0  0  0  0  0
    1.3460   -3.3240   -2.2550 C   0  0  0  0  0  0  0  0  0  0  0  0
    1.7930   -3.0520   -0.8480 C   0  0  1  0  0  0  0  0  0  0  0  0
    3.0540   -3.5660   -0.6810 O   0  0  0  0  0  0  0  0  0  0  0  0
    1.7730   -1.5600   -0.6010 C   0  0  2  0  0  0  0  0  0  0  0  0
    2.2000   -1.2380    0.7450 N   0  0  0  0  0  0  0  0  0  0  0  0
    0.4270   -0.9910   -0.8510 C   0  0  0  0  0  0  0  0  0  0  0  0
   -0.1570   -1.1360   -1.9440 O   0  0  0  0  0  0  0  0  0  0  0  0
    1.9190   -4.2000   -2.6720 H   0  0  0  0  0  0  0  0  0  0  0  0
    0.2830   -3.6010   -2.3410 H   0  0  0  0  0  0  0  0  0  0  0  0
    1.5500   -2.4280   -2.9000 H   0  0  0  0  0  0  0  0  0  0  0  0
    1.0470   -3.5420   -0.1700 H   0  0  0  0  0  0  0  0  0  0  0  0
    3.7200   -2.8380   -0.6490 H   0  0  0  0  0  0  0  0  0  0  0  0
    2.5210   -1.0930   -1.2960 H   0  0  0  0  0  0  0  0  0  0  0  0
    1.6410   -1.5750    1.5700 H   0  0  0  0  0  0  0  0  0  0  0  0
   -0.2180   -0.2660    0.1650 N   0  0  0  0  0  0  0  0  0  0  0  0
   -1.5270    0.3390    0.0530 C   0  0  1  0  0  0  0  0  0  0  0  0
   -2.4190   -0.3660    1.0450 C   0  0  0  0  0  0  0  0  0  0  0  0
   -3.8050    0.1240    1.0710 C   0  0  0  0  0  0  0  0  0  0  0  0
   -4.1540    1.1470    1.9230 C   0  0  0  0  0  0  0  0  0  0  0  0
   -5.4580    1.5850    1.9270 C   0  0  0  0  0  0  0  0  0  0  0  0
   -6.3990    1.0210    1.1020 C   0  0  0  0  0  0  0  0  0  0  0  0
   -6.0790   -0.0020    0.2420 C   0  0  0  0  0  0  0  0  0  0  0  0
   -4.7590   -0.4310    0.2510 C   0  0  0  0  0  0  0  0  0  0  0  0
   -1.5020    1.7940    0.2050 C   0  0  0  0  0  0  0  0  0  0  0  0
   -2.5460    2.4890    0.1320 O   0  0  0  0  0  0  0  0  0  0  0  0
   -0.3140    2.5130    0.4410 O   0  0  0  0  0  0  0  0  0  0  0  0
    0.2690   -0.1440    1.0800 H   0  0  0  0  0  0  0  0  0  0  0  0
   -1.8930    0.1110   -0.9690 H   0  0  0  0  0  0  0  0  0  0  0  0
   -2.0150   -0.2390    2.0890 H   0  0  0  0  0  0  0  0  0  0  0  0
   -2.3700   -1.4570    0.8520 H   0  0  0  0  0  0  0  0  0  0  0  0
   -3.4080    1.6120    2.5930 H   0  0  0  0  0  0  0  0  0  0  0  0
   -5.7020    2.4020    2.6170 H   0  0  0  0  0  0  0  0  0  0  0  0
   -7.4220    1.3920    1.1310 H   0  0  0  0  0  0  0  0  0  0  0  0
   -6.8360   -0.4340   -0.4010 H   0  0  0  0  0  0  0  0  0  0  0  0
   -4.5410   -1.2490   -0.4480 H   0  0  0  0  0  0  0  0  0  0  0  0
  1  7  1  0  0  0  0
  2  1  1  0  0  0  0
  3 10  1  1  0  0  0
  3  2  1  0  0  0  0
  3  4  1  0  0  0  0
  4 12  1  0  0  0  0
  5  3  1  0  0  0  0
  6  5  2  0  0  0  0
  8  2  1  0  0  0  0
  9  2  1  0  0  0  0
 11  4  1  0  0  0  0
 13 14  1  0  0  0  0
 14 15  1  0  0  0  0
 14 16  1  0  0  0  0
 14 23  1  1  0  0  0
 15 24  1  0  0  0  0
 16 25  1  6  0  0  0
 16 17  1  0  0  0  0
 17  5  1  0  0  0  0
 17 26  1  0  0  0  0
 18 16  1  0  0  0  0
 18 27  1  0  0  0  0
 19 18  2  0  0  0  0
 20 13  1  0  0  0  0
 21 13  1  0  0  0  0
 22 13  1  0  0  0  0
 27 39  1  0  0  0  0
 28 40  1  6  0  0  0
 28 27  1  0  0  0  0
 28 36  1  0  0  0  0
 28 29  1  0  0  0  0
 29 30  1  0  0  0  0
 29 41  1  0  0  0  0
 30 31  1  0  0  0  0
 31 32  2  0  0  0  0
 31 43  1  0  0  0  0
 32 44  1  0  0  0  0
 33 45  1  0  0  0  0
 33 32  1  0  0  0  0
 34 35  1  0  0  0  0
 34 33  2  0  0  0  0
 35 30  2  0  0  0  0
 36 38  1  0  0  0  0
 37 36  2  0  0  0  0
 42 29  1  0  0  0  0
 46 34  1  0  0  0  0
 47 35  1  0  0  0  0
M  END
$$$$
