STG.pdb
 OpenBabel07022419103D

 34 33  0  0  1  0  0  0  0  0999 V2000
    2.5540   -5.5390    0.2130 O   0  0  0  0  0  0  0  0  0  0  0  0
    2.2350   -4.2380   -0.1600 C   0  0  0  0  0  0  0  0  0  0  0  0
    2.0940   -3.3260    1.0430 C   0  0  2  0  0  0  0  0  0  0  0  0
    1.0360   -3.8600    1.8680 N   0  0  0  0  0  0  0  0  0  0  0  0
    1.7560   -1.9820    0.5000 C   0  0  0  0  0  0  0  0  0  0  0  0
    2.6100   -1.4360   -0.2270 O   0  0  0  0  0  0  0  0  0  0  0  0
    3.5180   -5.6870    0.1180 H   0  0  0  0  0  0  0  0  0  0  0  0
    1.2510   -4.2540   -0.6710 H   0  0  0  0  0  0  0  0  0  0  0  0
    2.9590   -3.8220   -0.8970 H   0  0  0  0  0  0  0  0  0  0  0  0
    3.0610   -3.2750    1.6140 H   0  0  0  0  0  0  0  0  0  0  0  0
    0.2540   -4.1520    1.2370 H   0  0  0  0  0  0  0  0  0  0  0  0
    0.7120   -3.2190    2.6050 H   0  0  0  0  0  0  0  0  0  0  0  0
   -2.0730   -1.0060   -0.0240 C   0  0  0  0  0  0  0  0  0  0  0  0
   -0.9770   -0.2120   -0.6970 C   0  0  1  0  0  0  0  0  0  0  0  0
   -1.4140    0.9440   -1.2870 O   0  0  0  0  0  0  0  0  0  0  0  0
    0.2100   -0.0030    0.2360 C   0  0  2  0  0  0  0  0  0  0  0  0
    0.5380   -1.3130    0.7660 N   0  0  0  0  0  0  0  0  0  0  0  0
   -0.1520    0.9480    1.3290 C   0  0  0  0  0  0  0  0  0  0  0  0
   -0.1520    0.5830    2.5330 O   0  0  0  0  0  0  0  0  0  0  0  0
   -1.9780   -0.9320    1.0950 H   0  0  0  0  0  0  0  0  0  0  0  0
   -1.9880   -2.0890   -0.2520 H   0  0  0  0  0  0  0  0  0  0  0  0
   -3.0890   -0.7050   -0.3670 H   0  0  0  0  0  0  0  0  0  0  0  0
   -0.5800   -0.8710   -1.5250 H   0  0  0  0  0  0  0  0  0  0  0  0
   -0.8220    1.1650   -2.0420 H   0  0  0  0  0  0  0  0  0  0  0  0
    1.0240    0.4040   -0.3970 H   0  0  0  0  0  0  0  0  0  0  0  0
   -0.1360   -1.8210    1.3800 H   0  0  0  0  0  0  0  0  0  0  0  0
   -0.5100    2.2960    1.0680 N   0  0  0  0  0  0  0  0  0  0  0  0
   -0.8650    3.2420    2.0980 C   0  0  0  0  0  0  0  0  0  0  0  0
   -1.1800    4.5480    1.4680 C   0  0  0  0  0  0  0  0  0  0  0  0
   -1.5220    5.5640    2.1080 O   0  0  0  0  0  0  0  0  0  0  0  0
   -1.1040    4.7000    0.0700 O   0  0  0  0  0  0  0  0  0  0  0  0
   -0.5120    2.5990    0.0910 H   0  0  0  0  0  0  0  0  0  0  0  0
   -1.7650    2.9310    2.6720 H   0  0  0  0  0  0  0  0  0  0  0  0
   -0.0290    3.3570    2.8460 H   0  0  0  0  0  0  0  0  0  0  0  0
  2  1  1  0  0  0  0
  2  3  1  0  0  0  0
  3 10  1  1  0  0  0
  3  4  1  0  0  0  0
  4 12  1  0  0  0  0
  5 17  1  0  0  0  0
  5  3  1  0  0  0  0
  6  5  2  0  0  0  0
  7  1  1  0  0  0  0
  8  2  1  0  0  0  0
  9  2  1  0  0  0  0
 11  4  1  0  0  0  0
 13 20  1  0  0  0  0
 14 23  1  6  0  0  0
 14 13  1  0  0  0  0
 14 16  1  0  0  0  0
 15 14  1  0  0  0  0
 16 25  1  6  0  0  0
 16 17  1  0  0  0  0
 16 18  1  0  0  0  0
 17 26  1  0  0  0  0
 18 19  2  0  0  0  0
 21 13  1  0  0  0  0
 22 13  1  0  0  0  0
 24 15  1  0  0  0  0
 27 18  1  0  0  0  0
 27 28  1  0  0  0  0
 28 33  1  0  0  0  0
 28 34  1  0  0  0  0
 29 28  1  0  0  0  0
 29 30  1  0  0  0  0
 31 29  2  0  0  0  0
 32 27  1  0  0  0  0
M  END
$$$$
