STH.pdb
 OpenBabel07022419103D

 44 44  0  0  1  0  0  0  0  0999 V2000
    0.7580   -5.6790   -0.6720 O   0  0  0  0  0  0  0  0  0  0  0  0
    1.5250   -4.5370   -0.8860 C   0  0  0  0  0  0  0  0  0  0  0  0
    0.9840   -3.4680    0.0470 C   0  0  2  0  0  0  0  0  0  0  0  0
   -0.3930   -3.1680   -0.1990 N   0  0  0  0  0  0  0  0  0  0  0  0
    1.8410   -2.2530    0.0510 C   0  0  0  0  0  0  0  0  0  0  0  0
    3.0630   -2.3650    0.2530 O   0  0  0  0  0  0  0  0  0  0  0  0
    0.6370   -5.8530    0.3120 H   0  0  0  0  0  0  0  0  0  0  0  0
    2.5870   -4.6910   -0.6200 H   0  0  0  0  0  0  0  0  0  0  0  0
    1.3810   -4.2180   -1.9400 H   0  0  0  0  0  0  0  0  0  0  0  0
    1.0430   -3.8790    1.0960 H   0  0  0  0  0  0  0  0  0  0  0  0
   -1.0480   -3.7070    0.3830 H   0  0  0  0  0  0  0  0  0  0  0  0
   -0.6500   -3.1120   -1.2040 H   0  0  0  0  0  0  0  0  0  0  0  0
    2.5120   -0.3700   -2.4950 C   0  0  0  0  0  0  0  0  0  0  0  0
    2.0790    0.7980   -1.5990 C   0  0  1  0  0  0  0  0  0  0  0  0
    0.7570    1.0840   -1.9680 O   0  0  0  0  0  0  0  0  0  0  0  0
    2.1050    0.2420   -0.1730 C   0  0  2  0  0  0  0  0  0  0  0  0
    1.3150   -0.9470   -0.1690 N   0  0  0  0  0  0  0  0  0  0  0  0
    1.6970    1.2390    0.8170 C   0  0  0  0  0  0  0  0  0  0  0  0
    2.2860    2.3400    0.9450 O   0  0  0  0  0  0  0  0  0  0  0  0
    1.6860   -1.0970   -2.6140 H   0  0  0  0  0  0  0  0  0  0  0  0
    3.4510   -0.8310   -2.1260 H   0  0  0  0  0  0  0  0  0  0  0  0
    2.7350    0.0070   -3.5280 H   0  0  0  0  0  0  0  0  0  0  0  0
    2.7380    1.6530   -1.7290 H   0  0  0  0  0  0  0  0  0  0  0  0
    0.6640    0.9500   -2.9450 H   0  0  0  0  0  0  0  0  0  0  0  0
    3.1810    0.0010    0.0200 H   0  0  0  0  0  0  0  0  0  0  0  0
    0.2860   -0.8910   -0.3350 H   0  0  0  0  0  0  0  0  0  0  0  0
    0.5660    0.9020    1.6600 N   0  0  0  0  0  0  0  0  0  0  0  0
    0.1400    1.8670    2.6470 C   0  0  1  0  0  0  0  0  0  0  0  0
   -1.2510    2.3490    2.3890 C   0  0  0  0  0  0  0  0  0  0  0  0
   -2.3180    1.3530    2.4390 C   0  0  0  0  0  0  0  0  0  0  0  0
   -2.3280    0.0230    2.7530 C   0  0  0  0  0  0  0  0  0  0  0  0
   -3.5990   -0.4010    2.6710 N   0  0  0  0  0  0  0  0  0  0  0  0
   -4.3970    0.6260    2.3140 C   0  0  0  0  0  0  0  0  0  0  0  0
   -3.6240    1.7030    2.1700 N   0  0  0  0  0  0  0  0  0  0  0  0
    0.3220    1.3620    4.0260 C   0  0  0  0  0  0  0  0  0  0  0  0
    0.8070    0.2320    4.2090 O   0  0  0  0  0  0  0  0  0  0  0  0
   -0.0440    2.1420    5.0960 O   0  0  0  0  0  0  0  0  0  0  0  0
    0.0850   -0.0050    1.5460 H   0  0  0  0  0  0  0  0  0  0  0  0
    0.7960    2.7890    2.5580 H   0  0  0  0  0  0  0  0  0  0  0  0
   -1.2240    2.8030    1.3490 H   0  0  0  0  0  0  0  0  0  0  0  0
   -1.4910    3.1900    3.1060 H   0  0  0  0  0  0  0  0  0  0  0  0
   -1.5150   -0.6050    3.0310 H   0  0  0  0  0  0  0  0  0  0  0  0
   -3.9640   -1.3620    2.8450 H   0  0  0  0  0  0  0  0  0  0  0  0
   -5.4590    0.6450    2.1570 H   0  0  0  0  0  0  0  0  0  0  0  0
  1  7  1  0  0  0  0
  2  1  1  0  0  0  0
  2  8  1  0  0  0  0
  2  3  1  0  0  0  0
  3  5  1  0  0  0  0
  3 10  1  1  0  0  0
  4  3  1  0  0  0  0
  4 11  1  0  0  0  0
  5  6  2  0  0  0  0
  9  2  1  0  0  0  0
 12  4  1  0  0  0  0
 13 21  1  0  0  0  0
 13 14  1  0  0  0  0
 14 23  1  6  0  0  0
 14 16  1  0  0  0  0
 15 14  1  0  0  0  0
 16 17  1  0  0  0  0
 16 25  1  1  0  0  0
 16 18  1  0  0  0  0
 17  5  1  0  0  0  0
 18 19  2  0  0  0  0
 18 27  1  0  0  0  0
 20 13  1  0  0  0  0
 22 13  1  0  0  0  0
 24 15  1  0  0  0  0
 26 17  1  0  0  0  0
 27 28  1  0  0  0  0
 28 39  1  6  0  0  0
 28 35  1  0  0  0  0
 29 30  1  0  0  0  0
 29 28  1  0  0  0  0
 29 41  1  0  0  0  0
 30 31  2  0  0  0  0
 31 42  1  0  0  0  0
 32 31  1  0  0  0  0
 32 43  1  0  0  0  0
 33 32  1  0  0  0  0
 34 33  2  0  0  0  0
 34 30  1  0  0  0  0
 35 36  2  0  0  0  0
 35 37  1  0  0  0  0
 38 27  1  0  0  0  0
 40 29  1  0  0  0  0
 44 33  1  0  0  0  0
M  END
$$$$
