STQ.pdb
 OpenBabel07022419103D

 44 43  0  0  1  0  0  0  0  0999 V2000
    2.8190   -4.6560    0.8350 O   0  0  0  0  0  0  0  0  0  0  0  0
    2.5000   -4.7840   -0.5160 C   0  0  0  0  0  0  0  0  0  0  0  0
    3.1150   -3.6700   -1.3360 C   0  0  2  0  0  0  0  0  0  0  0  0
    4.5540   -3.7480   -1.1670 N   0  0  0  0  0  0  0  0  0  0  0  0
    2.6740   -2.3420   -0.9000 C   0  0  0  0  0  0  0  0  0  0  0  0
    3.4870   -1.4640   -0.4590 O   0  0  0  0  0  0  0  0  0  0  0  0
    2.0180   -4.6350    1.4110 H   0  0  0  0  0  0  0  0  0  0  0  0
    1.3950   -4.8200   -0.6190 H   0  0  0  0  0  0  0  0  0  0  0  0
    2.8950   -5.7680   -0.8430 H   0  0  0  0  0  0  0  0  0  0  0  0
    2.8600   -3.8090   -2.3910 H   0  0  0  0  0  0  0  0  0  0  0  0
    5.0640   -3.0430   -1.7390 H   0  0  0  0  0  0  0  0  0  0  0  0
    4.7780   -3.6770   -0.1440 H   0  0  0  0  0  0  0  0  0  0  0  0
   -0.8250   -0.9330   -2.3890 C   0  0  0  0  0  0  0  0  0  0  0  0
    0.2120   -0.0260   -1.7620 C   0  0  1  0  0  0  0  0  0  0  0  0
   -0.2670    1.2350   -1.5100 O   0  0  0  0  0  0  0  0  0  0  0  0
    0.8230   -0.6890   -0.5360 C   0  0  2  0  0  0  0  0  0  0  0  0
    1.2770   -1.9990   -0.9640 N   0  0  0  0  0  0  0  0  0  0  0  0
   -0.1580   -0.7970    0.5780 C   0  0  0  0  0  0  0  0  0  0  0  0
   -0.5230   -1.9010    1.0590 O   0  0  0  0  0  0  0  0  0  0  0  0
   -0.4140   -1.5170   -3.2390 H   0  0  0  0  0  0  0  0  0  0  0  0
   -1.2160   -1.6770   -1.6580 H   0  0  0  0  0  0  0  0  0  0  0  0
   -1.6630   -0.3240   -2.8210 H   0  0  0  0  0  0  0  0  0  0  0  0
    1.0400    0.0700   -2.4980 H   0  0  0  0  0  0  0  0  0  0  0  0
    0.5200    1.8540   -1.4720 H   0  0  0  0  0  0  0  0  0  0  0  0
    1.6840   -0.1030   -0.1980 H   0  0  0  0  0  0  0  0  0  0  0  0
    0.6280   -2.7310   -1.3270 H   0  0  0  0  0  0  0  0  0  0  0  0
   -0.2410    4.2890    4.8600 N   0  0  0  0  0  0  0  0  0  0  0  0
   -0.5740    2.9200    4.7210 C   0  0  0  0  0  0  0  0  0  0  0  0
   -0.5230    2.1620    5.7350 O   0  0  0  0  0  0  0  0  0  0  0  0
   -0.9790    2.4020    3.3760 C   0  0  0  0  0  0  0  0  0  0  0  0
   -1.2750    0.9250    3.5240 C   0  0  0  0  0  0  0  0  0  0  0  0
   -1.6930    0.2830    2.2420 C   0  0  2  0  0  0  0  0  0  0  0  0
   -0.7560    0.3400    1.1820 N   0  0  0  0  0  0  0  0  0  0  0  0
   -3.0070    0.7820    1.8000 C   0  0  0  0  0  0  0  0  0  0  0  0
   -3.1550    1.1780    0.6160 O   0  0  0  0  0  0  0  0  0  0  0  0
   -4.1320    0.8510    2.6140 O   0  0  0  0  0  0  0  0  0  0  0  0
    0.7600    4.5850    4.9360 H   0  0  0  0  0  0  0  0  0  0  0  0
   -0.9630    5.0260    4.8890 H   0  0  0  0  0  0  0  0  0  0  0  0
   -1.9010    2.9580    3.1070 H   0  0  0  0  0  0  0  0  0  0  0  0
   -0.2010    2.6320    2.6550 H   0  0  0  0  0  0  0  0  0  0  0  0
   -2.1490    0.8750    4.2190 H   0  0  0  0  0  0  0  0  0  0  0  0
   -0.4670    0.3800    4.0260 H   0  0  0  0  0  0  0  0  0  0  0  0
   -1.8440   -0.8130    2.4810 H   0  0  0  0  0  0  0  0  0  0  0  0
   -0.4850    1.2920    0.8160 H   0  0  0  0  0  0  0  0  0  0  0  0
  1  7  1  0  0  0  0
  2  1  1  0  0  0  0
  3 10  1  6  0  0  0
  3  4  1  0  0  0  0
  3  5  1  0  0  0  0
  3  2  1  0  0  0  0
  4 12  1  0  0  0  0
  5  6  2  0  0  0  0
  8  2  1  0  0  0  0
  9  2  1  0  0  0  0
 11  4  1  0  0  0  0
 13 14  1  0  0  0  0
 13 21  1  0  0  0  0
 14 23  1  6  0  0  0
 14 15  1  0  0  0  0
 14 16  1  0  0  0  0
 15 24  1  0  0  0  0
 16 25  1  1  0  0  0
 16 18  1  0  0  0  0
 17  5  1  0  0  0  0
 17 16  1  0  0  0  0
 18 19  2  0  0  0  0
 18 33  1  0  0  0  0
 20 13  1  0  0  0  0
 22 13  1  0  0  0  0
 26 17  1  0  0  0  0
 27 38  1  0  0  0  0
 27 37  1  0  0  0  0
 28 27  1  0  0  0  0
 28 29  2  0  0  0  0
 30 31  1  0  0  0  0
 30 28  1  0  0  0  0
 31 42  1  0  0  0  0
 31 41  1  0  0  0  0
 32 43  1  1  0  0  0
 32 31  1  0  0  0  0
 33 32  1  0  0  0  0
 34 32  1  0  0  0  0
 34 36  1  0  0  0  0
 35 34  2  0  0  0  0
 39 30  1  0  0  0  0
 40 30  1  0  0  0  0
 44 33  1  0  0  0  0
M  END
$$$$
