STT.pdb
 OpenBabel07022419103D

 41 40  0  0  1  0  0  0  0  0999 V2000
    3.0240   -4.2540    2.2640 O   0  0  0  0  0  0  0  0  0  0  0  0
    2.4180   -3.3170    1.4290 C   0  0  0  0  0  0  0  0  0  0  0  0
    1.2900   -4.0130    0.7120 C   0  0  2  0  0  0  0  0  0  0  0  0
    1.7930   -5.1180   -0.0710 N   0  0  0  0  0  0  0  0  0  0  0  0
    0.5510   -3.1030   -0.1970 C   0  0  0  0  0  0  0  0  0  0  0  0
    0.4330   -3.3400   -1.4450 O   0  0  0  0  0  0  0  0  0  0  0  0
    2.3790   -4.6990    2.8620 H   0  0  0  0  0  0  0  0  0  0  0  0
    2.0080   -2.5270    2.0890 H   0  0  0  0  0  0  0  0  0  0  0  0
    3.1860   -2.9360    0.7420 H   0  0  0  0  0  0  0  0  0  0  0  0
    0.6170   -4.4510    1.4910 H   0  0  0  0  0  0  0  0  0  0  0  0
    1.7840   -4.9310   -1.1010 H   0  0  0  0  0  0  0  0  0  0  0  0
    1.3420   -6.0210    0.1300 H   0  0  0  0  0  0  0  0  0  0  0  0
   -2.3620   -0.4500    1.2330 C   0  0  0  0  0  0  0  0  0  0  0  0
   -2.2720   -0.9600   -0.1920 C   0  0  1  0  0  0  0  0  0  0  0  0
   -2.9940   -0.1240   -1.0090 O   0  0  0  0  0  0  0  0  0  0  0  0
   -0.7960   -1.0120   -0.6100 C   0  0  2  0  0  0  0  0  0  0  0  0
   -0.0750   -1.9020    0.2750 N   0  0  0  0  0  0  0  0  0  0  0  0
   -0.3190    0.3920   -0.4920 C   0  0  0  0  0  0  0  0  0  0  0  0
   -0.8610    1.2740   -1.2060 O   0  0  0  0  0  0  0  0  0  0  0  0
   -1.3840   -0.1460    1.6320 H   0  0  0  0  0  0  0  0  0  0  0  0
   -3.0630    0.4250    1.3030 H   0  0  0  0  0  0  0  0  0  0  0  0
   -2.7920   -1.2330    1.9110 H   0  0  0  0  0  0  0  0  0  0  0  0
   -2.7320   -1.9650   -0.2440 H   0  0  0  0  0  0  0  0  0  0  0  0
   -3.7540   -0.5850   -1.4740 H   0  0  0  0  0  0  0  0  0  0  0  0
   -0.7910   -1.3820   -1.6540 H   0  0  0  0  0  0  0  0  0  0  0  0
    0.0290   -1.7200    1.2970 H   0  0  0  0  0  0  0  0  0  0  0  0
   -0.4330    2.6700    2.3430 C   0  0  0  0  0  0  0  0  0  0  0  0
    0.9980    2.6180    1.9250 C   0  0  1  0  0  0  0  0  0  0  0  0
    1.7400    1.7740    2.7670 O   0  0  0  0  0  0  0  0  0  0  0  0
    1.1960    2.1350    0.5170 C   0  0  2  0  0  0  0  0  0  0  0  0
    0.7290    0.7670    0.4010 N   0  0  0  0  0  0  0  0  0  0  0  0
    2.6380    2.2450    0.1560 C   0  0  0  0  0  0  0  0  0  0  0  0
    3.2370    3.3480    0.1910 O   0  0  0  0  0  0  0  0  0  0  0  0
    3.3380    1.1100   -0.2280 O   0  0  0  0  0  0  0  0  0  0  0  0
   -0.5870    3.5150    3.0450 H   0  0  0  0  0  0  0  0  0  0  0  0
   -0.6590    1.7480    2.9170 H   0  0  0  0  0  0  0  0  0  0  0  0
   -1.1330    2.8350    1.5010 H   0  0  0  0  0  0  0  0  0  0  0  0
    1.4370    3.6320    2.0610 H   0  0  0  0  0  0  0  0  0  0  0  0
    2.7060    1.9080    2.6600 H   0  0  0  0  0  0  0  0  0  0  0  0
    0.6450    2.8180   -0.1580 H   0  0  0  0  0  0  0  0  0  0  0  0
    1.1260   -0.0190    0.9580 H   0  0  0  0  0  0  0  0  0  0  0  0
  1  7  1  0  0  0  0
  2  8  1  0  0  0  0
  2  1  1  0  0  0  0
  3  2  1  0  0  0  0
  3 10  1  1  0  0  0
  4 12  1  0  0  0  0
  4  3  1  0  0  0  0
  5 17  1  0  0  0  0
  5  3  1  0  0  0  0
  6  5  2  0  0  0  0
  9  2  1  0  0  0  0
 11  4  1  0  0  0  0
 13 21  1  0  0  0  0
 13 20  1  0  0  0  0
 13 22  1  0  0  0  0
 14 23  1  6  0  0  0
 14 13  1  0  0  0  0
 15 14  1  0  0  0  0
 16 25  1  6  0  0  0
 16 18  1  0  0  0  0
 16 14  1  0  0  0  0
 16 17  1  0  0  0  0
 17 26  1  0  0  0  0
 18 31  1  0  0  0  0
 19 18  2  0  0  0  0
 24 15  1  0  0  0  0
 27 36  1  0  0  0  0
 27 35  1  0  0  0  0
 28 38  1  1  0  0  0
 28 27  1  0  0  0  0
 28 29  1  0  0  0  0
 30 40  1  6  0  0  0
 30 28  1  0  0  0  0
 31 30  1  0  0  0  0
 31 41  1  0  0  0  0
 32 33  1  0  0  0  0
 32 30  1  0  0  0  0
 34 32  2  0  0  0  0
 37 27  1  0  0  0  0
 39 29  1  0  0  0  0
M  END
$$$$
