SVA.pdb
 OpenBabel07022419103D

 39 38  0  0  1  0  0  0  0  0999 V2000
    3.1840   -2.8040    3.3220 O   0  0  0  0  0  0  0  0  0  0  0  0
    2.5570   -2.1110    2.2930 C   0  0  0  0  0  0  0  0  0  0  0  0
    2.0500   -3.0650    1.2170 C   0  0  2  0  0  0  0  0  0  0  0  0
    3.1160   -3.8350    0.6240 N   0  0  0  0  0  0  0  0  0  0  0  0
    1.3030   -2.2830    0.1890 C   0  0  0  0  0  0  0  0  0  0  0  0
    1.6370   -2.3580   -1.0150 O   0  0  0  0  0  0  0  0  0  0  0  0
    2.5910   -3.4980    3.7090 H   0  0  0  0  0  0  0  0  0  0  0  0
    3.3240   -1.4260    1.8600 H   0  0  0  0  0  0  0  0  0  0  0  0
    1.6920   -1.5050    2.6310 H   0  0  0  0  0  0  0  0  0  0  0  0
    1.3750   -3.7820    1.7270 H   0  0  0  0  0  0  0  0  0  0  0  0
    3.3250   -4.6450    1.2540 H   0  0  0  0  0  0  0  0  0  0  0  0
    2.7300   -4.2420   -0.2620 H   0  0  0  0  0  0  0  0  0  0  0  0
   -1.8560   -2.6900   -0.8850 C   0  0  0  0  0  0  0  0  0  0  0  0
   -1.9560   -1.2580   -0.4120 C   0  0  0  0  0  0  0  0  0  0  0  0
   -2.8870   -0.5100   -1.3140 C   0  0  0  0  0  0  0  0  0  0  0  0
   -0.5580   -0.6580   -0.3960 C   0  0  2  0  0  0  0  0  0  0  0  0
    0.2270   -1.4520    0.5140 N   0  0  0  0  0  0  0  0  0  0  0  0
   -0.5630    0.7690   -0.1020 C   0  0  0  0  0  0  0  0  0  0  0  0
   -1.2210    1.5320   -0.8440 O   0  0  0  0  0  0  0  0  0  0  0  0
   -2.7870   -3.0130   -1.3950 H   0  0  0  0  0  0  0  0  0  0  0  0
   -1.0140   -2.7650   -1.6030 H   0  0  0  0  0  0  0  0  0  0  0  0
   -1.5940   -3.3520   -0.0190 H   0  0  0  0  0  0  0  0  0  0  0  0
   -2.3690   -1.3160    0.6340 H   0  0  0  0  0  0  0  0  0  0  0  0
   -2.4120    0.0050   -2.1480 H   0  0  0  0  0  0  0  0  0  0  0  0
   -3.6520   -1.2270   -1.7290 H   0  0  0  0  0  0  0  0  0  0  0  0
   -3.4890    0.1890   -0.6710 H   0  0  0  0  0  0  0  0  0  0  0  0
   -0.1290   -0.8730   -1.4200 H   0  0  0  0  0  0  0  0  0  0  0  0
   -0.0480   -1.3950    1.5310 H   0  0  0  0  0  0  0  0  0  0  0  0
   -0.2870    3.0560    2.6930 C   0  0  0  0  0  0  0  0  0  0  0  0
    0.1820    2.7160    1.3320 C   0  0  2  0  0  0  0  0  0  0  0  0
    0.1450    1.3240    0.9880 N   0  0  0  0  0  0  0  0  0  0  0  0
    1.5780    3.2250    1.0790 C   0  0  0  0  0  0  0  0  0  0  0  0
    2.4700    2.4560    0.6360 O   0  0  0  0  0  0  0  0  0  0  0  0
    1.8790    4.5380    1.3330 O   0  0  0  0  0  0  0  0  0  0  0  0
    0.4940    3.0770    3.4730 H   0  0  0  0  0  0  0  0  0  0  0  0
   -0.7310    4.0730    2.6780 H   0  0  0  0  0  0  0  0  0  0  0  0
   -1.0730    2.3700    3.0590 H   0  0  0  0  0  0  0  0  0  0  0  0
   -0.4540    3.2660    0.6060 H   0  0  0  0  0  0  0  0  0  0  0  0
    0.6950    0.6720    1.6050 H   0  0  0  0  0  0  0  0  0  0  0  0
  1  7  1  0  0  0  0
  2  9  1  0  0  0  0
  2  1  1  0  0  0  0
  3 10  1  1  0  0  0
  3  2  1  0  0  0  0
  4  3  1  0  0  0  0
  4 11  1  0  0  0  0
  5 17  1  0  0  0  0
  5  3  1  0  0  0  0
  6  5  2  0  0  0  0
  8  2  1  0  0  0  0
 12  4  1  0  0  0  0
 13 14  1  0  0  0  0
 13 22  1  0  0  0  0
 14 16  1  0  0  0  0
 14 23  1  0  0  0  0
 15 26  1  0  0  0  0
 15 14  1  0  0  0  0
 16 27  1  6  0  0  0
 16 18  1  0  0  0  0
 16 17  1  0  0  0  0
 17 28  1  0  0  0  0
 18 31  1  0  0  0  0
 19 18  2  0  0  0  0
 20 13  1  0  0  0  0
 21 13  1  0  0  0  0
 24 15  1  0  0  0  0
 25 15  1  0  0  0  0
 29 37  1  0  0  0  0
 29 35  1  0  0  0  0
 30 38  1  6  0  0  0
 30 29  1  0  0  0  0
 31 30  1  0  0  0  0
 31 39  1  0  0  0  0
 32 30  1  0  0  0  0
 32 34  1  0  0  0  0
 33 32  2  0  0  0  0
 36 29  1  0  0  0  0
M  END
$$$$
