SVC.pdb
 OpenBabel07022419103D

 40 39  0  0  1  0  0  0  0  0999 V2000
   -0.7560   -3.3790    2.6210 O   0  0  0  0  0  0  0  0  0  0  0  0
   -0.7070   -3.6460    1.2420 C   0  0  0  0  0  0  0  0  0  0  0  0
    0.7570   -3.7360    0.8150 C   0  0  2  0  0  0  0  0  0  0  0  0
    1.3520   -4.8060    1.5700 N   0  0  0  0  0  0  0  0  0  0  0  0
    1.4250   -2.4350    1.0810 C   0  0  0  0  0  0  0  0  0  0  0  0
    2.3860   -2.4220    1.8980 O   0  0  0  0  0  0  0  0  0  0  0  0
   -1.5830   -3.7910    2.9530 H   0  0  0  0  0  0  0  0  0  0  0  0
   -1.1550   -4.6470    1.0860 H   0  0  0  0  0  0  0  0  0  0  0  0
   -1.2350   -2.8840    0.6470 H   0  0  0  0  0  0  0  0  0  0  0  0
    0.7820   -3.9250   -0.2640 H   0  0  0  0  0  0  0  0  0  0  0  0
    2.1390   -5.2660    1.0500 H   0  0  0  0  0  0  0  0  0  0  0  0
    0.6120   -5.5580    1.6900 H   0  0  0  0  0  0  0  0  0  0  0  0
    3.3250   -0.6310   -0.9790 C   0  0  0  0  0  0  0  0  0  0  0  0
    2.3570    0.4600   -0.5780 C   0  0  0  0  0  0  0  0  0  0  0  0
    3.1740    1.7290   -0.3860 C   0  0  0  0  0  0  0  0  0  0  0  0
    1.7090    0.0450    0.7480 C   0  0  2  0  0  0  0  0  0  0  0  0
    1.0300   -1.2270    0.4650 N   0  0  0  0  0  0  0  0  0  0  0  0
    0.7170    1.0640    1.1280 C   0  0  0  0  0  0  0  0  0  0  0  0
    1.1260    2.2190    1.4060 O   0  0  0  0  0  0  0  0  0  0  0  0
    3.5480   -0.6190   -2.0680 H   0  0  0  0  0  0  0  0  0  0  0  0
    4.3060   -0.4820   -0.4590 H   0  0  0  0  0  0  0  0  0  0  0  0
    2.9450   -1.6410   -0.7390 H   0  0  0  0  0  0  0  0  0  0  0  0
    1.5990    0.6720   -1.3460 H   0  0  0  0  0  0  0  0  0  0  0  0
    4.0000    1.7150   -1.1270 H   0  0  0  0  0  0  0  0  0  0  0  0
    2.5890    2.6430   -0.5690 H   0  0  0  0  0  0  0  0  0  0  0  0
    3.6350    1.7360    0.6270 H   0  0  0  0  0  0  0  0  0  0  0  0
    2.5170   -0.0990    1.4700 H   0  0  0  0  0  0  0  0  0  0  0  0
    0.2350   -1.2420   -0.2090 H   0  0  0  0  0  0  0  0  0  0  0  0
   -0.6760    0.8290    1.2010 N   0  0  0  0  0  0  0  0  0  0  0  0
   -1.5930    1.8680    1.5780 C   0  0  1  0  0  0  0  0  0  0  0  0
   -2.5580    2.2230    0.4700 C   0  0  0  0  0  0  0  0  0  0  0  0
   -3.5650    0.8260   -0.0390 S   0  0  0  0  0  0  0  0  0  0  0  0
   -2.2940    1.5560    2.8470 C   0  0  0  0  0  0  0  0  0  0  0  0
   -3.1270    2.3220    3.3480 O   0  0  0  0  0  0  0  0  0  0  0  0
   -1.9880    0.3600    3.4740 O   0  0  0  0  0  0  0  0  0  0  0  0
   -1.0340   -0.1240    0.9730 H   0  0  0  0  0  0  0  0  0  0  0  0
   -1.0060    2.8100    1.7800 H   0  0  0  0  0  0  0  0  0  0  0  0
   -1.9640    2.6280   -0.3770 H   0  0  0  0  0  0  0  0  0  0  0  0
   -3.2340    3.0340    0.8060 H   0  0  0  0  0  0  0  0  0  0  0  0
   -3.6490    0.8060   -1.4440 H   0  0  0  0  0  0  0  0  0  0  0  0
  1  7  1  0  0  0  0
  2  1  1  0  0  0  0
  3 10  1  6  0  0  0
  3  5  1  0  0  0  0
  3  2  1  0  0  0  0
  3  4  1  0  0  0  0
  4 12  1  0  0  0  0
  5  6  2  0  0  0  0
  8  2  1  0  0  0  0
  9  2  1  0  0  0  0
 11  4  1  0  0  0  0
 13 22  1  0  0  0  0
 13 14  1  0  0  0  0
 13 21  1  0  0  0  0
 14 15  1  0  0  0  0
 14 16  1  0  0  0  0
 15 26  1  0  0  0  0
 16 18  1  0  0  0  0
 16 27  1  1  0  0  0
 17 16  1  0  0  0  0
 17  5  1  0  0  0  0
 18 29  1  0  0  0  0
 18 19  2  0  0  0  0
 20 13  1  0  0  0  0
 23 14  1  0  0  0  0
 24 15  1  0  0  0  0
 25 15  1  0  0  0  0
 28 17  1  0  0  0  0
 29 30  1  0  0  0  0
 30 37  1  1  0  0  0
 30 33  1  0  0  0  0
 31 39  1  0  0  0  0
 31 30  1  0  0  0  0
 32 31  1  0  0  0  0
 33 34  2  0  0  0  0
 33 35  1  0  0  0  0
 36 29  1  0  0  0  0
 38 31  1  0  0  0  0
 40 32  1  0  0  0  0
M  END
$$$$
