SVD.pdb
 OpenBabel07022419103D

 42 41  0  0  1  0  0  0  0  0999 V2000
    0.5570   -3.1360    1.7580 O   0  0  0  0  0  0  0  0  0  0  0  0
    1.2960   -2.9060    2.9080 C   0  0  0  0  0  0  0  0  0  0  0  0
    2.4920   -2.0650    2.6630 C   0  0  2  0  0  0  0  0  0  0  0  0
    3.2230   -1.8690    3.9160 N   0  0  0  0  0  0  0  0  0  0  0  0
    2.3100   -0.8150    1.9530 C   0  0  0  0  0  0  0  0  0  0  0  0
    2.8280    0.2350    2.4670 O   0  0  0  0  0  0  0  0  0  0  0  0
    1.0650   -3.7040    1.0990 H   0  0  0  0  0  0  0  0  0  0  0  0
    1.6490   -3.8980    3.2720 H   0  0  0  0  0  0  0  0  0  0  0  0
    0.6040   -2.5270    3.6780 H   0  0  0  0  0  0  0  0  0  0  0  0
    3.2020   -2.6930    2.0390 H   0  0  0  0  0  0  0  0  0  0  0  0
    2.5390   -1.6510    4.7030 H   0  0  0  0  0  0  0  0  0  0  0  0
    3.6880   -2.7540    4.2260 H   0  0  0  0  0  0  0  0  0  0  0  0
    3.4010    0.1180   -1.4150 C   0  0  0  0  0  0  0  0  0  0  0  0
    1.9350    0.5440   -1.3540 C   0  0  0  0  0  0  0  0  0  0  0  0
    1.7020    1.8080   -2.1230 C   0  0  0  0  0  0  0  0  0  0  0  0
    1.4770    0.6580    0.0880 C   0  0  2  0  0  0  0  0  0  0  0  0
    1.6210   -0.6160    0.7470 N   0  0  0  0  0  0  0  0  0  0  0  0
    0.0290    1.0000    0.0790 C   0  0  0  0  0  0  0  0  0  0  0  0
   -0.3740    2.0700   -0.4380 O   0  0  0  0  0  0  0  0  0  0  0  0
    4.0060    0.6640   -0.6660 H   0  0  0  0  0  0  0  0  0  0  0  0
    3.7450    0.3040   -2.4440 H   0  0  0  0  0  0  0  0  0  0  0  0
    3.4120   -0.9790   -1.2480 H   0  0  0  0  0  0  0  0  0  0  0  0
    1.3700   -0.2610   -1.8710 H   0  0  0  0  0  0  0  0  0  0  0  0
    0.6500    1.8460   -2.5300 H   0  0  0  0  0  0  0  0  0  0  0  0
    1.8520    2.6970   -1.4560 H   0  0  0  0  0  0  0  0  0  0  0  0
    2.4010    1.8970   -2.9880 H   0  0  0  0  0  0  0  0  0  0  0  0
    2.0180    1.4710    0.6180 H   0  0  0  0  0  0  0  0  0  0  0  0
    1.1810   -1.4370    0.2930 H   0  0  0  0  0  0  0  0  0  0  0  0
   -0.9670    0.1300    0.6570 N   0  0  0  0  0  0  0  0  0  0  0  0
   -2.3500    0.5400    0.6070 C   0  0  1  0  0  0  0  0  0  0  0  0
   -3.1540   -0.5000   -0.1320 C   0  0  0  0  0  0  0  0  0  0  0  0
   -3.0610   -1.7910    0.5830 C   0  0  0  0  0  0  0  0  0  0  0  0
   -3.6010   -2.8110    0.0380 O   0  0  0  0  0  0  0  0  0  0  0  0
   -2.9390    0.6140    1.9840 C   0  0  0  0  0  0  0  0  0  0  0  0
   -4.1360    0.9530    2.1140 O   0  0  0  0  0  0  0  0  0  0  0  0
   -2.4400   -1.9970    1.7930 O   0  0  0  0  0  0  0  0  0  0  0  0
   -2.2100    0.3230    3.1230 O   0  0  0  0  0  0  0  0  0  0  0  0
   -0.6440   -0.7620    1.0870 H   0  0  0  0  0  0  0  0  0  0  0  0
   -2.4310    1.5400    0.1030 H   0  0  0  0  0  0  0  0  0  0  0  0
   -2.8550   -0.5870   -1.1970 H   0  0  0  0  0  0  0  0  0  0  0  0
   -4.2410   -0.1970   -0.1710 H   0  0  0  0  0  0  0  0  0  0  0  0
   -2.6000   -2.7840    2.4040 H   0  0  0  0  0  0  0  0  0  0  0  0
  1  2  1  0  0  0  0
  2  8  1  0  0  0  0
  2  9  1  0  0  0  0
  3 10  1  6  0  0  0
  3  2  1  0  0  0  0
  3  4  1  0  0  0  0
  4 12  1  0  0  0  0
  4 11  1  0  0  0  0
  5  6  2  0  0  0  0
  5  3  1  0  0  0  0
  7  1  1  0  0  0  0
 13 14  1  0  0  0  0
 13 22  1  0  0  0  0
 13 20  1  0  0  0  0
 14 16  1  0  0  0  0
 15 25  1  0  0  0  0
 15 14  1  0  0  0  0
 16 27  1  1  0  0  0
 16 17  1  0  0  0  0
 17  5  1  0  0  0  0
 18 16  1  0  0  0  0
 18 29  1  0  0  0  0
 19 18  2  0  0  0  0
 21 13  1  0  0  0  0
 23 14  1  0  0  0  0
 24 15  1  0  0  0  0
 26 15  1  0  0  0  0
 28 17  1  0  0  0  0
 29 38  1  0  0  0  0
 30 39  1  6  0  0  0
 30 29  1  0  0  0  0
 30 34  1  0  0  0  0
 31 32  1  0  0  0  0
 31 30  1  0  0  0  0
 32 36  1  0  0  0  0
 33 32  2  0  0  0  0
 34 35  2  0  0  0  0
 34 37  1  0  0  0  0
 36 42  1  0  0  0  0
 40 31  1  0  0  0  0
 41 31  1  0  0  0  0
M  END
$$$$
