SVF.pdb
 OpenBabel07022419103D

 49 49  0  0  1  0  0  0  0  0999 V2000
    2.4180   -4.9620    2.0640 O   0  0  0  0  0  0  0  0  0  0  0  0
    2.2620   -3.5780    1.9790 C   0  0  0  0  0  0  0  0  0  0  0  0
    3.6100   -2.8880    1.9680 C   0  0  2  0  0  0  0  0  0  0  0  0
    4.3800   -3.1620    3.1630 N   0  0  0  0  0  0  0  0  0  0  0  0
    3.3700   -1.4220    1.8240 C   0  0  0  0  0  0  0  0  0  0  0  0
    3.8390   -0.6540    2.7050 O   0  0  0  0  0  0  0  0  0  0  0  0
    3.0410   -5.1770    2.7850 H   0  0  0  0  0  0  0  0  0  0  0  0
    1.7280   -3.2730    1.0660 H   0  0  0  0  0  0  0  0  0  0  0  0
    1.6800   -3.2290    2.8560 H   0  0  0  0  0  0  0  0  0  0  0  0
    4.1930   -3.1960    1.0850 H   0  0  0  0  0  0  0  0  0  0  0  0
    3.7810   -3.6010    3.8970 H   0  0  0  0  0  0  0  0  0  0  0  0
    4.8070   -2.3010    3.5660 H   0  0  0  0  0  0  0  0  0  0  0  0
    2.5350    0.3850   -1.9330 C   0  0  0  0  0  0  0  0  0  0  0  0
    3.0300    1.0510   -0.6870 C   0  0  0  0  0  0  0  0  0  0  0  0
    2.8630    2.5440   -0.7960 C   0  0  0  0  0  0  0  0  0  0  0  0
    2.3890    0.5280    0.5670 C   0  0  2  0  0  0  0  0  0  0  0  0
    2.6370   -0.8870    0.7330 N   0  0  0  0  0  0  0  0  0  0  0  0
    0.9390    0.8360    0.6450 C   0  0  0  0  0  0  0  0  0  0  0  0
    0.5710    2.0240    0.5180 O   0  0  0  0  0  0  0  0  0  0  0  0
    3.2110    0.6750   -2.7650 H   0  0  0  0  0  0  0  0  0  0  0  0
    2.4930   -0.7000   -1.8760 H   0  0  0  0  0  0  0  0  0  0  0  0
    1.5410    0.8420   -2.1990 H   0  0  0  0  0  0  0  0  0  0  0  0
    4.1170    0.8520   -0.6050 H   0  0  0  0  0  0  0  0  0  0  0  0
    2.6880    2.9660    0.2030 H   0  0  0  0  0  0  0  0  0  0  0  0
    1.9590    2.7410   -1.4070 H   0  0  0  0  0  0  0  0  0  0  0  0
    3.7760    2.9930   -1.2410 H   0  0  0  0  0  0  0  0  0  0  0  0
    2.8660    1.0630    1.4230 H   0  0  0  0  0  0  0  0  0  0  0  0
    2.2660   -1.5710    0.0230 H   0  0  0  0  0  0  0  0  0  0  0  0
   -0.0540   -0.1560    0.8560 N   0  0  0  0  0  0  0  0  0  0  0  0
   -1.4880    0.1670    0.9310 C   0  0  1  0  0  0  0  0  0  0  0  0
   -2.1490   -0.6080   -0.1890 C   0  0  0  0  0  0  0  0  0  0  0  0
   -3.6010   -0.4210   -0.2810 C   0  0  0  0  0  0  0  0  0  0  0  0
   -4.1110    0.6250   -1.0190 C   0  0  0  0  0  0  0  0  0  0  0  0
   -5.4730    0.7880   -1.1100 C   0  0  0  0  0  0  0  0  0  0  0  0
   -6.3510   -0.0670   -0.4840 C   0  0  0  0  0  0  0  0  0  0  0  0
   -5.8670   -1.1220    0.2610 C   0  0  0  0  0  0  0  0  0  0  0  0
   -4.4830   -1.2660    0.3380 C   0  0  0  0  0  0  0  0  0  0  0  0
   -2.0560   -0.3010    2.2120 C   0  0  0  0  0  0  0  0  0  0  0  0
   -3.2550   -0.1040    2.5160 O   0  0  0  0  0  0  0  0  0  0  0  0
   -1.2300   -0.9750    3.0940 O   0  0  0  0  0  0  0  0  0  0  0  0
    0.2670   -1.1390    0.9600 H   0  0  0  0  0  0  0  0  0  0  0  0
   -1.6220    1.2640    0.7970 H   0  0  0  0  0  0  0  0  0  0  0  0
   -1.9760   -1.7080   -0.0460 H   0  0  0  0  0  0  0  0  0  0  0  0
   -1.6960   -0.3760   -1.1750 H   0  0  0  0  0  0  0  0  0  0  0  0
   -3.4450    1.3220   -1.5290 H   0  0  0  0  0  0  0  0  0  0  0  0
   -5.8840    1.6150   -1.6940 H   0  0  0  0  0  0  0  0  0  0  0  0
   -7.4340    0.0780   -0.5670 H   0  0  0  0  0  0  0  0  0  0  0  0
   -6.5280   -1.8150    0.7680 H   0  0  0  0  0  0  0  0  0  0  0  0
   -4.1550   -2.1180    0.9320 H   0  0  0  0  0  0  0  0  0  0  0  0
  1  7  1  0  0  0  0
  2  1  1  0  0  0  0
  2  9  1  0  0  0  0
  3 10  1  6  0  0  0
  3  2  1  0  0  0  0
  3  4  1  0  0  0  0
  4 12  1  0  0  0  0
  4 11  1  0  0  0  0
  5  3  1  0  0  0  0
  5  6  2  0  0  0  0
  8  2  1  0  0  0  0
 13 21  1  0  0  0  0
 13 14  1  0  0  0  0
 14 23  1  0  0  0  0
 14 16  1  0  0  0  0
 15 14  1  0  0  0  0
 15 24  1  0  0  0  0
 16 18  1  0  0  0  0
 16 17  1  0  0  0  0
 16 27  1  1  0  0  0
 17  5  1  0  0  0  0
 18 29  1  0  0  0  0
 19 18  2  0  0  0  0
 20 13  1  0  0  0  0
 22 13  1  0  0  0  0
 25 15  1  0  0  0  0
 26 15  1  0  0  0  0
 28 17  1  0  0  0  0
 29 30  1  0  0  0  0
 29 41  1  0  0  0  0
 30 42  1  6  0  0  0
 30 38  1  0  0  0  0
 31 43  1  0  0  0  0
 31 30  1  0  0  0  0
 32 31  1  0  0  0  0
 32 37  1  0  0  0  0
 33 32  2  0  0  0  0
 34 33  1  0  0  0  0
 34 35  2  0  0  0  0
 35 36  1  0  0  0  0
 36 37  2  0  0  0  0
 36 48  1  0  0  0  0
 37 49  1  0  0  0  0
 38 39  2  0  0  0  0
 38 40  1  0  0  0  0
 44 31  1  0  0  0  0
 45 33  1  0  0  0  0
 46 34  1  0  0  0  0
 47 35  1  0  0  0  0
M  END
$$$$
