SVH.pdb
 OpenBabel07022419103D

 46 46  0  0  1  0  0  0  0  0999 V2000
    2.4020   -5.1300    2.1450 O   0  0  0  0  0  0  0  0  0  0  0  0
    1.4960   -4.0610    2.0730 C   0  0  0  0  0  0  0  0  0  0  0  0
    1.7970   -3.1480    3.2330 C   0  0  2  0  0  0  0  0  0  0  0  0
    1.6550   -3.7970    4.5130 N   0  0  0  0  0  0  0  0  0  0  0  0
    1.0100   -1.8890    3.1680 C   0  0  0  0  0  0  0  0  0  0  0  0
    0.3500   -1.5550    4.1790 O   0  0  0  0  0  0  0  0  0  0  0  0
    1.9750   -5.9520    2.4730 H   0  0  0  0  0  0  0  0  0  0  0  0
    0.4780   -4.4670    2.0810 H   0  0  0  0  0  0  0  0  0  0  0  0
    1.7520   -3.5020    1.1480 H   0  0  0  0  0  0  0  0  0  0  0  0
    2.8730   -2.8500    3.1340 H   0  0  0  0  0  0  0  0  0  0  0  0
    2.5740   -4.0550    4.9370 H   0  0  0  0  0  0  0  0  0  0  0  0
    0.9650   -4.5690    4.5220 H   0  0  0  0  0  0  0  0  0  0  0  0
    1.9940    1.3080    0.5670 C   0  0  0  0  0  0  0  0  0  0  0  0
    1.1270    1.3060    1.7620 C   0  0  0  0  0  0  0  0  0  0  0  0
    1.9920    1.4390    3.0010 C   0  0  0  0  0  0  0  0  0  0  0  0
    0.2110    0.1720    1.9490 C   0  0  2  0  0  0  0  0  0  0  0  0
    0.9670   -1.0560    2.0370 N   0  0  0  0  0  0  0  0  0  0  0  0
   -0.8430   -0.0250    0.9480 C   0  0  0  0  0  0  0  0  0  0  0  0
   -0.8910   -1.1480    0.3900 O   0  0  0  0  0  0  0  0  0  0  0  0
    1.6230    2.0010   -0.2420 H   0  0  0  0  0  0  0  0  0  0  0  0
    3.0090    1.7420    0.8190 H   0  0  0  0  0  0  0  0  0  0  0  0
    2.2160    0.3170    0.1420 H   0  0  0  0  0  0  0  0  0  0  0  0
    0.5100    2.2540    1.7340 H   0  0  0  0  0  0  0  0  0  0  0  0
    2.2110    2.4970    3.2400 H   0  0  0  0  0  0  0  0  0  0  0  0
    2.9650    0.9400    2.7720 H   0  0  0  0  0  0  0  0  0  0  0  0
    1.5600    0.8940    3.8670 H   0  0  0  0  0  0  0  0  0  0  0  0
   -0.2980    0.2850    2.9390 H   0  0  0  0  0  0  0  0  0  0  0  0
    1.5310   -1.3590    1.1990 H   0  0  0  0  0  0  0  0  0  0  0  0
   -1.7860    0.9470    0.5820 N   0  0  0  0  0  0  0  0  0  0  0  0
   -2.7780    0.7060   -0.3980 C   0  0  1  0  0  0  0  0  0  0  0  0
   -2.3390   -0.0630   -1.6250 C   0  0  0  0  0  0  0  0  0  0  0  0
   -1.2820    0.5550   -2.4080 C   0  0  0  0  0  0  0  0  0  0  0  0
    0.0810    0.4000   -2.2940 C   0  0  0  0  0  0  0  0  0  0  0  0
    0.7040    1.1630   -3.2320 N   0  0  0  0  0  0  0  0  0  0  0  0
   -0.2420    1.7950   -3.9350 C   0  0  0  0  0  0  0  0  0  0  0  0
   -1.4250    1.4270   -3.4370 N   0  0  0  0  0  0  0  0  0  0  0  0
   -3.8990   -0.0380    0.2110 C   0  0  0  0  0  0  0  0  0  0  0  0
   -4.9290   -0.3840   -0.4580 O   0  0  0  0  0  0  0  0  0  0  0  0
   -3.8950   -0.4060    1.5570 O   0  0  0  0  0  0  0  0  0  0  0  0
   -1.6840    1.8720    1.1050 H   0  0  0  0  0  0  0  0  0  0  0  0
   -3.2180    1.6800   -0.7900 H   0  0  0  0  0  0  0  0  0  0  0  0
   -3.2670   -0.0330   -2.2940 H   0  0  0  0  0  0  0  0  0  0  0  0
   -2.1790   -1.1210   -1.4470 H   0  0  0  0  0  0  0  0  0  0  0  0
    0.6600   -0.1980   -1.6150 H   0  0  0  0  0  0  0  0  0  0  0  0
    1.7450    1.2500   -3.3890 H   0  0  0  0  0  0  0  0  0  0  0  0
   -0.0990    2.4710   -4.7450 H   0  0  0  0  0  0  0  0  0  0  0  0
  1  7  1  0  0  0  0
  2  8  1  0  0  0  0
  2  1  1  0  0  0  0
  2  3  1  0  0  0  0
  3 10  1  6  0  0  0
  3  4  1  0  0  0  0
  4 12  1  0  0  0  0
  4 11  1  0  0  0  0
  5  3  1  0  0  0  0
  5  6  2  0  0  0  0
  9  2  1  0  0  0  0
 13 21  1  0  0  0  0
 13 14  1  0  0  0  0
 14 16  1  0  0  0  0
 14 15  1  0  0  0  0
 15 24  1  0  0  0  0
 15 26  1  0  0  0  0
 16 17  1  0  0  0  0
 16 27  1  1  0  0  0
 17  5  1  0  0  0  0
 18 16  1  0  0  0  0
 19 18  2  0  0  0  0
 20 13  1  0  0  0  0
 22 13  1  0  0  0  0
 23 14  1  0  0  0  0
 25 15  1  0  0  0  0
 28 17  1  0  0  0  0
 29 18  1  0  0  0  0
 29 40  1  0  0  0  0
 30 41  1  6  0  0  0
 30 37  1  0  0  0  0
 30 29  1  0  0  0  0
 31 43  1  0  0  0  0
 31 30  1  0  0  0  0
 32 33  2  0  0  0  0
 32 31  1  0  0  0  0
 33 44  1  0  0  0  0
 34 33  1  0  0  0  0
 35 36  2  0  0  0  0
 35 34  1  0  0  0  0
 36 32  1  0  0  0  0
 37 39  1  0  0  0  0
 38 37  2  0  0  0  0
 42 31  1  0  0  0  0
 45 34  1  0  0  0  0
 46 35  1  0  0  0  0
M  END
$$$$
