SVI.pdb
 OpenBabel07022419103D

 48 47  0  0  1  0  0  0  0  0999 V2000
    4.8690   -2.4410    1.4670 O   0  0  0  0  0  0  0  0  0  0  0  0
    3.7200   -1.7550    1.0910 C   0  0  0  0  0  0  0  0  0  0  0  0
    3.9170   -1.2280   -0.3140 C   0  0  2  0  0  0  0  0  0  0  0  0
    5.0670   -0.3450   -0.2820 N   0  0  0  0  0  0  0  0  0  0  0  0
    2.7370   -0.4500   -0.7710 C   0  0  0  0  0  0  0  0  0  0  0  0
    2.8350    0.7700   -1.0560 O   0  0  0  0  0  0  0  0  0  0  0  0
    4.6980   -3.3380    1.8240 H   0  0  0  0  0  0  0  0  0  0  0  0
    2.8690   -2.4290    1.1920 H   0  0  0  0  0  0  0  0  0  0  0  0
    3.6530   -0.8560    1.7570 H   0  0  0  0  0  0  0  0  0  0  0  0
    4.1570   -2.0700   -1.0160 H   0  0  0  0  0  0  0  0  0  0  0  0
    5.7820   -0.7300    0.3620 H   0  0  0  0  0  0  0  0  0  0  0  0
    4.7510    0.6060   -0.0230 H   0  0  0  0  0  0  0  0  0  0  0  0
   -0.6100   -2.3530   -2.4790 C   0  0  0  0  0  0  0  0  0  0  0  0
   -0.2200   -0.9020   -2.6330 C   0  0  0  0  0  0  0  0  0  0  0  0
   -1.3570   -0.1270   -3.2310 C   0  0  0  0  0  0  0  0  0  0  0  0
    0.2840   -0.3020   -1.3510 C   0  0  2  0  0  0  0  0  0  0  0  0
    1.4460   -1.0330   -0.9100 N   0  0  0  0  0  0  0  0  0  0  0  0
   -0.7800   -0.2840   -0.2960 C   0  0  0  0  0  0  0  0  0  0  0  0
   -1.8700    0.3030   -0.4880 O   0  0  0  0  0  0  0  0  0  0  0  0
    0.1790   -2.9710   -2.0550 H   0  0  0  0  0  0  0  0  0  0  0  0
   -1.5710   -2.4740   -1.9520 H   0  0  0  0  0  0  0  0  0  0  0  0
   -0.7830   -2.7400   -3.5250 H   0  0  0  0  0  0  0  0  0  0  0  0
    0.6190   -0.8720   -3.3580 H   0  0  0  0  0  0  0  0  0  0  0  0
   -2.2880   -0.7510   -3.2250 H   0  0  0  0  0  0  0  0  0  0  0  0
   -1.5390    0.8480   -2.7370 H   0  0  0  0  0  0  0  0  0  0  0  0
   -1.1740    0.1010   -4.3220 H   0  0  0  0  0  0  0  0  0  0  0  0
    0.5390    0.7560   -1.5600 H   0  0  0  0  0  0  0  0  0  0  0  0
    1.3600   -2.0420   -0.6760 H   0  0  0  0  0  0  0  0  0  0  0  0
   -1.9440    1.0490    5.2210 C   0  0  0  0  0  0  0  0  0  0  0  0
   -2.2470   -0.0630    4.1990 C   0  0  0  0  0  0  0  0  0  0  0  0
   -1.3130    0.0390    3.0290 C   0  0  2  0  0  0  0  0  0  0  0  0
   -1.5470    1.3950    2.3620 C   0  0  0  0  0  0  0  0  0  0  0  0
   -1.4590   -1.0360    2.0520 C   0  0  2  0  0  0  0  0  0  0  0  0
   -0.5590   -0.9300    0.9240 N   0  0  0  0  0  0  0  0  0  0  0  0
   -2.8370   -1.3750    1.6590 C   0  0  0  0  0  0  0  0  0  0  0  0
   -3.2080   -1.5360    0.4550 O   0  0  0  0  0  0  0  0  0  0  0  0
   -3.8130   -1.5430    2.6230 O   0  0  0  0  0  0  0  0  0  0  0  0
   -2.4950    1.9450    4.9030 H   0  0  0  0  0  0  0  0  0  0  0  0
   -2.3030    0.7160    6.2220 H   0  0  0  0  0  0  0  0  0  0  0  0
   -0.8600    1.2200    5.2730 H   0  0  0  0  0  0  0  0  0  0  0  0
   -3.3160    0.1270    3.9030 H   0  0  0  0  0  0  0  0  0  0  0  0
   -2.2100   -1.0160    4.7400 H   0  0  0  0  0  0  0  0  0  0  0  0
   -0.2790    0.0560    3.5050 H   0  0  0  0  0  0  0  0  0  0  0  0
   -0.7620    1.6410    1.6330 H   0  0  0  0  0  0  0  0  0  0  0  0
   -2.5610    1.4360    1.9170 H   0  0  0  0  0  0  0  0  0  0  0  0
   -1.5380    2.2220    3.1310 H   0  0  0  0  0  0  0  0  0  0  0  0
   -1.1130   -2.0150    2.5720 H   0  0  0  0  0  0  0  0  0  0  0  0
    0.3940   -1.4040    1.0520 H   0  0  0  0  0  0  0  0  0  0  0  0
  1  7  1  0  0  0  0
  2  8  1  0  0  0  0
  2  1  1  0  0  0  0
  2  9  1  0  0  0  0
  3 10  1  6  0  0  0
  3  4  1  0  0  0  0
  3  2  1  0  0  0  0
  4 12  1  0  0  0  0
  4 11  1  0  0  0  0
  5  3  1  0  0  0  0
  6  5  2  0  0  0  0
 13 20  1  0  0  0  0
 13 21  1  0  0  0  0
 14 13  1  0  0  0  0
 14 16  1  0  0  0  0
 15 24  1  0  0  0  0
 15 25  1  0  0  0  0
 15 14  1  0  0  0  0
 16 27  1  6  0  0  0
 16 17  1  0  0  0  0
 16 18  1  0  0  0  0
 17  5  1  0  0  0  0
 17 28  1  0  0  0  0
 18 34  1  0  0  0  0
 19 18  2  0  0  0  0
 22 13  1  0  0  0  0
 23 14  1  0  0  0  0
 26 15  1  0  0  0  0
 29 40  1  0  0  0  0
 29 39  1  0  0  0  0
 30 42  1  0  0  0  0
 30 29  1  0  0  0  0
 31 43  1  1  0  0  0
 31 30  1  0  0  0  0
 32 31  1  0  0  0  0
 32 46  1  0  0  0  0
 33 47  1  1  0  0  0
 33 31  1  0  0  0  0
 34 48  1  0  0  0  0
 34 33  1  0  0  0  0
 35 33  1  0  0  0  0
 35 37  1  0  0  0  0
 36 35  2  0  0  0  0
 38 29  1  0  0  0  0
 41 30  1  0  0  0  0
 44 32  1  0  0  0  0
 45 32  1  0  0  0  0
M  END
$$$$
