SVN.pdb
 OpenBabel07022419103D

 43 42  0  0  1  0  0  0  0  0999 V2000
   -2.4290   -5.5820    0.0510 O   0  0  0  0  0  0  0  0  0  0  0  0
   -1.7030   -4.4330    0.2960 C   0  0  0  0  0  0  0  0  0  0  0  0
   -0.7600   -4.1660   -0.8750 C   0  0  2  0  0  0  0  0  0  0  0  0
    0.1100   -5.3190   -0.9680 N   0  0  0  0  0  0  0  0  0  0  0  0
    0.0600   -2.9700   -0.6320 C   0  0  0  0  0  0  0  0  0  0  0  0
    1.3080   -3.0950   -0.5450 O   0  0  0  0  0  0  0  0  0  0  0  0
   -2.1910   -6.3380    0.6200 H   0  0  0  0  0  0  0  0  0  0  0  0
   -2.4440   -3.5850    0.3060 H   0  0  0  0  0  0  0  0  0  0  0  0
   -1.1550   -4.5250    1.2360 H   0  0  0  0  0  0  0  0  0  0  0  0
   -1.3210   -4.1180   -1.8260 H   0  0  0  0  0  0  0  0  0  0  0  0
    0.7560   -5.3570   -0.1500 H   0  0  0  0  0  0  0  0  0  0  0  0
   -0.4420   -6.1900   -1.0940 H   0  0  0  0  0  0  0  0  0  0  0  0
    0.5060   -0.2590   -2.7270 C   0  0  0  0  0  0  0  0  0  0  0  0
    0.2310    0.4340   -1.4020 C   0  0  0  0  0  0  0  0  0  0  0  0
    1.0890    1.6500   -1.3030 C   0  0  0  0  0  0  0  0  0  0  0  0
    0.4740   -0.5440   -0.2430 C   0  0  2  0  0  0  0  0  0  0  0  0
   -0.4580   -1.6690   -0.4850 N   0  0  0  0  0  0  0  0  0  0  0  0
    0.0140    0.1310    0.9910 C   0  0  0  0  0  0  0  0  0  0  0  0
   -1.0940   -0.2590    1.4940 O   0  0  0  0  0  0  0  0  0  0  0  0
    1.4770    0.1120   -3.1300 H   0  0  0  0  0  0  0  0  0  0  0  0
    0.5810   -1.3480   -2.6260 H   0  0  0  0  0  0  0  0  0  0  0  0
   -0.2980    0.0500   -3.4310 H   0  0  0  0  0  0  0  0  0  0  0  0
   -0.8330    0.7270   -1.3350 H   0  0  0  0  0  0  0  0  0  0  0  0
    1.1390    2.0810   -2.3390 H   0  0  0  0  0  0  0  0  0  0  0  0
    0.6260    2.4070   -0.6590 H   0  0  0  0  0  0  0  0  0  0  0  0
    2.1240    1.3560   -1.0190 H   0  0  0  0  0  0  0  0  0  0  0  0
    1.5100   -0.9000   -0.2100 H   0  0  0  0  0  0  0  0  0  0  0  0
   -1.4820   -1.5140   -0.5490 H   0  0  0  0  0  0  0  0  0  0  0  0
    3.3560    1.7260    4.8390 N   0  0  0  0  0  0  0  0  0  0  0  0
    2.3710    1.9900    3.8230 C   0  0  0  0  0  0  0  0  0  0  0  0
    2.7400    2.6870    2.8740 O   0  0  0  0  0  0  0  0  0  0  0  0
    1.0500    1.4110    4.0180 C   0  0  0  0  0  0  0  0  0  0  0  0
    0.1330    1.7340    2.8540 C   0  0  2  0  0  0  0  0  0  0  0  0
    0.7140    1.1750    1.6590 N   0  0  0  0  0  0  0  0  0  0  0  0
   -0.1090    3.1810    2.7480 C   0  0  0  0  0  0  0  0  0  0  0  0
   -0.6140    3.7820    3.7210 O   0  0  0  0  0  0  0  0  0  0  0  0
    0.2080    3.8770    1.6120 O   0  0  0  0  0  0  0  0  0  0  0  0
    3.8290    2.5250    5.2780 H   0  0  0  0  0  0  0  0  0  0  0  0
    3.5570    0.7330    5.0960 H   0  0  0  0  0  0  0  0  0  0  0  0
    1.0670    0.2880    4.0820 H   0  0  0  0  0  0  0  0  0  0  0  0
    0.5700    1.8100    4.9320 H   0  0  0  0  0  0  0  0  0  0  0  0
   -0.8520    1.2480    3.0230 H   0  0  0  0  0  0  0  0  0  0  0  0
    1.6170    1.4940    1.2730 H   0  0  0  0  0  0  0  0  0  0  0  0
  1  2  1  0  0  0  0
  1  7  1  0  0  0  0
  2  8  1  0  0  0  0
  2  9  1  0  0  0  0
  3 10  1  6  0  0  0
  3  5  1  0  0  0  0
  3  2  1  0  0  0  0
  4  3  1  0  0  0  0
  4 11  1  0  0  0  0
  5  6  2  0  0  0  0
  5 17  1  0  0  0  0
 12  4  1  0  0  0  0
 13 21  1  0  0  0  0
 13 14  1  0  0  0  0
 14 23  1  0  0  0  0
 14 15  1  0  0  0  0
 14 16  1  0  0  0  0
 15 26  1  0  0  0  0
 15 25  1  0  0  0  0
 16 27  1  1  0  0  0
 16 18  1  0  0  0  0
 17 16  1  0  0  0  0
 18 19  2  0  0  0  0
 18 34  1  0  0  0  0
 20 13  1  0  0  0  0
 22 13  1  0  0  0  0
 24 15  1  0  0  0  0
 28 17  1  0  0  0  0
 29 39  1  0  0  0  0
 29 38  1  0  0  0  0
 30 32  1  0  0  0  0
 30 29  1  0  0  0  0
 31 30  2  0  0  0  0
 32 40  1  0  0  0  0
 32 41  1  0  0  0  0
 33 42  1  1  0  0  0
 33 32  1  0  0  0  0
 34 33  1  0  0  0  0
 35 33  1  0  0  0  0
 35 36  1  0  0  0  0
 37 35  2  0  0  0  0
 43 34  1  0  0  0  0
M  END
$$$$
