SVR.pdb
 OpenBabel07022419103D

 52 51  0  0  1  0  0  0  0  0999 V2000
    2.7630   -3.6750   -2.8460 O   0  0  0  0  0  0  0  0  0  0  0  0
    2.2410   -3.0400   -1.7260 C   0  0  0  0  0  0  0  0  0  0  0  0
    3.2750   -2.1480   -1.0660 C   0  0  2  0  0  0  0  0  0  0  0  0
    4.3740   -3.0120   -0.6850 N   0  0  0  0  0  0  0  0  0  0  0  0
    2.7490   -1.5060    0.1530 C   0  0  0  0  0  0  0  0  0  0  0  0
    3.2770   -1.7760    1.2720 O   0  0  0  0  0  0  0  0  0  0  0  0
    3.0740   -4.6020   -2.6120 H   0  0  0  0  0  0  0  0  0  0  0  0
    1.3710   -2.4410   -2.0590 H   0  0  0  0  0  0  0  0  0  0  0  0
    1.8530   -3.8130   -1.0470 H   0  0  0  0  0  0  0  0  0  0  0  0
    3.6250   -1.4000   -1.7990 H   0  0  0  0  0  0  0  0  0  0  0  0
    4.1240   -3.4880    0.2340 H   0  0  0  0  0  0  0  0  0  0  0  0
    4.5120   -3.7220   -1.4210 H   0  0  0  0  0  0  0  0  0  0  0  0
    1.0000    2.1920    2.6840 C   0  0  0  0  0  0  0  0  0  0  0  0
    1.3960    1.4610    1.4650 C   0  0  0  0  0  0  0  0  0  0  0  0
    2.8510    1.8290    1.1230 C   0  0  0  0  0  0  0  0  0  0  0  0
    1.2220   -0.0090    1.4460 C   0  0  2  0  0  0  0  0  0  0  0  0
    1.6760   -0.5920    0.1670 N   0  0  0  0  0  0  0  0  0  0  0  0
   -0.1350   -0.5190    1.7690 C   0  0  0  0  0  0  0  0  0  0  0  0
   -0.7150   -0.1380    2.7820 O   0  0  0  0  0  0  0  0  0  0  0  0
    1.9210    2.6880    3.1210 H   0  0  0  0  0  0  0  0  0  0  0  0
    0.6360    1.5530    3.5120 H   0  0  0  0  0  0  0  0  0  0  0  0
    0.3120    3.0480    2.5060 H   0  0  0  0  0  0  0  0  0  0  0  0
    0.8120    1.8800    0.6110 H   0  0  0  0  0  0  0  0  0  0  0  0
    3.4670    1.5910    2.0140 H   0  0  0  0  0  0  0  0  0  0  0  0
    2.9550    2.9150    0.9580 H   0  0  0  0  0  0  0  0  0  0  0  0
    3.2090    1.2200    0.2720 H   0  0  0  0  0  0  0  0  0  0  0  0
    1.8770   -0.4180    2.2710 H   0  0  0  0  0  0  0  0  0  0  0  0
    1.2220   -0.3440   -0.7200 H   0  0  0  0  0  0  0  0  0  0  0  0
   -2.4180    2.4210    2.0610 N   0  0  0  0  0  0  0  0  0  0  0  0
   -2.6860    1.5950    0.9270 C   0  0  0  0  0  0  0  0  0  0  0  0
   -2.0490    1.7240   -0.1990 N   0  0  0  0  0  0  0  0  0  0  0  0
   -3.7020    0.6080    1.0280 N   0  0  0  0  0  0  0  0  0  0  0  0
   -4.2270   -0.0440   -0.1170 C   0  0  0  0  0  0  0  0  0  0  0  0
   -3.3660   -1.0120   -0.8350 C   0  0  0  0  0  0  0  0  0  0  0  0
   -2.9400   -2.2050   -0.0710 C   0  0  0  0  0  0  0  0  0  0  0  0
   -2.0900   -2.0380    1.1210 C   0  0  2  0  0  0  0  0  0  0  0  0
   -0.8000   -1.4610    0.9260 N   0  0  0  0  0  0  0  0  0  0  0  0
   -1.8120   -3.4070    1.7320 C   0  0  0  0  0  0  0  0  0  0  0  0
   -2.7750   -4.1530    2.0140 O   0  0  0  0  0  0  0  0  0  0  0  0
   -0.5320   -3.8460    1.9820 O   0  0  0  0  0  0  0  0  0  0  0  0
   -2.6400    2.0530    3.0190 H   0  0  0  0  0  0  0  0  0  0  0  0
   -2.0140    3.3800    2.0120 H   0  0  0  0  0  0  0  0  0  0  0  0
   -1.3170    2.4780   -0.2320 H   0  0  0  0  0  0  0  0  0  0  0  0
   -4.0630    0.3720    2.0020 H   0  0  0  0  0  0  0  0  0  0  0  0
   -4.5530    0.7790   -0.8260 H   0  0  0  0  0  0  0  0  0  0  0  0
   -5.2010   -0.5370    0.1550 H   0  0  0  0  0  0  0  0  0  0  0  0
   -3.9670   -1.3950   -1.7130 H   0  0  0  0  0  0  0  0  0  0  0  0
   -2.5350   -0.4510   -1.3150 H   0  0  0  0  0  0  0  0  0  0  0  0
   -3.9080   -2.6910    0.2860 H   0  0  0  0  0  0  0  0  0  0  0  0
   -2.5580   -2.9640   -0.7970 H   0  0  0  0  0  0  0  0  0  0  0  0
   -2.6720   -1.5500    1.9330 H   0  0  0  0  0  0  0  0  0  0  0  0
   -0.2120   -1.7290    0.0680 H   0  0  0  0  0  0  0  0  0  0  0  0
  1  7  1  0  0  0  0
  1  2  1  0  0  0  0
  2  3  1  0  0  0  0
  2  9  1  0  0  0  0
  3 10  1  6  0  0  0
  3  4  1  0  0  0  0
  3  5  1  0  0  0  0
  4 11  1  0  0  0  0
  5 17  1  0  0  0  0
  5  6  2  0  0  0  0
  8  2  1  0  0  0  0
 12  4  1  0  0  0  0
 13 20  1  0  0  0  0
 13 21  1  0  0  0  0
 14 13  1  0  0  0  0
 15 14  1  0  0  0  0
 15 24  1  0  0  0  0
 16 14  1  0  0  0  0
 16 18  1  0  0  0  0
 16 27  1  1  0  0  0
 17 16  1  0  0  0  0
 18 19  2  0  0  0  0
 22 13  1  0  0  0  0
 23 14  1  0  0  0  0
 25 15  1  0  0  0  0
 26 15  1  0  0  0  0
 28 17  1  0  0  0  0
 29 41  1  0  0  0  0
 30 32  1  0  0  0  0
 30 29  1  0  0  0  0
 31 30  2  0  0  0  0
 32 44  1  0  0  0  0
 33 46  1  0  0  0  0
 33 32  1  0  0  0  0
 34 33  1  0  0  0  0
 34 35  1  0  0  0  0
 35 49  1  0  0  0  0
 35 36  1  0  0  0  0
 36 38  1  0  0  0  0
 36 51  1  1  0  0  0
 37 36  1  0  0  0  0
 37 18  1  0  0  0  0
 38 40  2  0  0  0  0
 38 39  1  0  0  0  0
 42 29  1  0  0  0  0
 43 31  1  0  0  0  0
 45 33  1  0  0  0  0
 47 34  1  0  0  0  0
 48 34  1  0  0  0  0
 50 35  1  0  0  0  0
 52 37  1  0  0  0  0
M  END
$$$$
