SVS.pdb
 OpenBabel07022419103D

 40 39  0  0  1  0  0  0  0  0999 V2000
    2.7520   -4.7300    1.6300 O   0  0  0  0  0  0  0  0  0  0  0  0
    1.5730   -4.7740    0.8900 C   0  0  0  0  0  0  0  0  0  0  0  0
    0.6480   -3.6480    1.2980 C   0  0  2  0  0  0  0  0  0  0  0  0
   -0.5800   -3.6470    0.5680 N   0  0  0  0  0  0  0  0  0  0  0  0
    1.3240   -2.3250    1.2340 C   0  0  0  0  0  0  0  0  0  0  0  0
    2.4160   -2.1630    1.8240 O   0  0  0  0  0  0  0  0  0  0  0  0
    2.5910   -4.8680    2.5960 H   0  0  0  0  0  0  0  0  0  0  0  0
    1.0510   -5.7280    1.1000 H   0  0  0  0  0  0  0  0  0  0  0  0
    1.8490   -4.6600   -0.1720 H   0  0  0  0  0  0  0  0  0  0  0  0
    0.4000   -3.8240    2.3710 H   0  0  0  0  0  0  0  0  0  0  0  0
   -1.3090   -3.0910    1.0660 H   0  0  0  0  0  0  0  0  0  0  0  0
   -0.4990   -3.4560   -0.4370 H   0  0  0  0  0  0  0  0  0  0  0  0
    2.5470   -0.6990   -1.6110 C   0  0  0  0  0  0  0  0  0  0  0  0
    1.6450    0.3660   -1.0320 C   0  0  0  0  0  0  0  0  0  0  0  0
    2.2330    1.7480   -1.2210 C   0  0  0  0  0  0  0  0  0  0  0  0
    1.4050    0.0680    0.4420 C   0  0  2  0  0  0  0  0  0  0  0  0
    0.7830   -1.2210    0.5260 N   0  0  0  0  0  0  0  0  0  0  0  0
    0.5390    1.1470    1.0140 C   0  0  0  0  0  0  0  0  0  0  0  0
    0.9100    2.3480    1.0330 O   0  0  0  0  0  0  0  0  0  0  0  0
    3.6180   -0.4380   -1.5230 H   0  0  0  0  0  0  0  0  0  0  0  0
    2.4170   -1.6810   -1.0990 H   0  0  0  0  0  0  0  0  0  0  0  0
    2.2420   -0.8710   -2.6660 H   0  0  0  0  0  0  0  0  0  0  0  0
    0.6570    0.2570   -1.5270 H   0  0  0  0  0  0  0  0  0  0  0  0
    1.4000    2.4960   -1.3360 H   0  0  0  0  0  0  0  0  0  0  0  0
    2.8660    2.0210   -0.3340 H   0  0  0  0  0  0  0  0  0  0  0  0
    2.8320    1.7620   -2.1390 H   0  0  0  0  0  0  0  0  0  0  0  0
    2.3630    0.1280    0.9870 H   0  0  0  0  0  0  0  0  0  0  0  0
   -0.1280   -1.3760    0.0410 H   0  0  0  0  0  0  0  0  0  0  0  0
   -2.8380    2.1670    0.0760 O   0  0  0  0  0  0  0  0  0  0  0  0
   -2.9640    1.8760    1.4300 C   0  0  0  0  0  0  0  0  0  0  0  0
   -1.6190    1.8390    2.1230 C   0  0  2  0  0  0  0  0  0  0  0  0
   -0.7440    0.8400    1.5590 N   0  0  0  0  0  0  0  0  0  0  0  0
   -1.8700    1.5030    3.5450 C   0  0  0  0  0  0  0  0  0  0  0  0
   -2.6040    2.2050    4.2920 O   0  0  0  0  0  0  0  0  0  0  0  0
   -1.2940    0.3800    4.1140 O   0  0  0  0  0  0  0  0  0  0  0  0
   -2.0400    2.6890   -0.1080 H   0  0  0  0  0  0  0  0  0  0  0  0
   -3.5280    2.7220    1.8890 H   0  0  0  0  0  0  0  0  0  0  0  0
   -3.5480    0.9680    1.5920 H   0  0  0  0  0  0  0  0  0  0  0  0
   -1.2070    2.8500    2.0920 H   0  0  0  0  0  0  0  0  0  0  0  0
   -1.0220   -0.1650    1.5280 H   0  0  0  0  0  0  0  0  0  0  0  0
  1  7  1  0  0  0  0
  2  8  1  0  0  0  0
  2  3  1  0  0  0  0
  2  1  1  0  0  0  0
  3 10  1  1  0  0  0
  4 11  1  0  0  0  0
  4  3  1  0  0  0  0
  5  3  1  0  0  0  0
  5  6  2  0  0  0  0
  9  2  1  0  0  0  0
 12  4  1  0  0  0  0
 13 20  1  0  0  0  0
 13 21  1  0  0  0  0
 13 14  1  0  0  0  0
 14 16  1  0  0  0  0
 15 14  1  0  0  0  0
 15 25  1  0  0  0  0
 16 17  1  0  0  0  0
 16 27  1  1  0  0  0
 16 18  1  0  0  0  0
 17  5  1  0  0  0  0
 18 19  2  0  0  0  0
 18 32  1  0  0  0  0
 22 13  1  0  0  0  0
 23 14  1  0  0  0  0
 24 15  1  0  0  0  0
 26 15  1  0  0  0  0
 28 17  1  0  0  0  0
 29 30  1  0  0  0  0
 30 38  1  0  0  0  0
 30 37  1  0  0  0  0
 30 31  1  0  0  0  0
 31 39  1  6  0  0  0
 31 33  1  0  0  0  0
 32 31  1  0  0  0  0
 33 35  2  0  0  0  0
 33 34  1  0  0  0  0
 36 29  1  0  0  0  0
 40 32  1  0  0  0  0
M  END
$$$$
