SVW.pdb
 OpenBabel07022419103D

 53 54  0  0  1  0  0  0  0  0999 V2000
    0.3280    2.3130    5.2870 O   0  0  0  0  0  0  0  0  0  0  0  0
    1.2080    1.7940    4.3290 C   0  0  0  0  0  0  0  0  0  0  0  0
    0.4430    1.5210    3.0310 C   0  0  2  0  0  0  0  0  0  0  0  0
   -0.6060    0.5780    3.2620 N   0  0  0  0  0  0  0  0  0  0  0  0
    1.4280    1.0810    2.0270 C   0  0  0  0  0  0  0  0  0  0  0  0
    2.3880    1.8410    1.7690 O   0  0  0  0  0  0  0  0  0  0  0  0
    0.3470    1.7630    6.0910 H   0  0  0  0  0  0  0  0  0  0  0  0
    2.0560    2.4800    4.1480 H   0  0  0  0  0  0  0  0  0  0  0  0
    1.6510    0.8570    4.7260 H   0  0  0  0  0  0  0  0  0  0  0  0
    0.0370    2.5090    2.6960 H   0  0  0  0  0  0  0  0  0  0  0  0
   -0.2280   -0.1980    3.8780 H   0  0  0  0  0  0  0  0  0  0  0  0
   -1.3900    1.0590    3.7550 H   0  0  0  0  0  0  0  0  0  0  0  0
    2.1300   -3.0270    0.9760 C   0  0  0  0  0  0  0  0  0  0  0  0
    3.0380   -1.8460    0.7470 C   0  0  0  0  0  0  0  0  0  0  0  0
    3.9780   -1.6050    1.9140 C   0  0  0  0  0  0  0  0  0  0  0  0
    2.2920   -0.6010    0.3610 C   0  0  2  0  0  0  0  0  0  0  0  0
    1.3420   -0.1610    1.3380 N   0  0  0  0  0  0  0  0  0  0  0  0
    1.7380   -0.6990   -1.0050 C   0  0  0  0  0  0  0  0  0  0  0  0
    2.4940   -1.0830   -1.9220 O   0  0  0  0  0  0  0  0  0  0  0  0
    2.6530   -3.8280    1.5750 H   0  0  0  0  0  0  0  0  0  0  0  0
    1.8530   -3.5370    0.0230 H   0  0  0  0  0  0  0  0  0  0  0  0
    1.1660   -2.7510    1.4620 H   0  0  0  0  0  0  0  0  0  0  0  0
    3.6970   -2.1230   -0.1190 H   0  0  0  0  0  0  0  0  0  0  0  0
    4.1620   -0.5230    2.0320 H   0  0  0  0  0  0  0  0  0  0  0  0
    4.9920   -2.0640    1.7250 H   0  0  0  0  0  0  0  0  0  0  0  0
    3.6200   -2.0840    2.8550 H   0  0  0  0  0  0  0  0  0  0  0  0
    3.0640    0.2280    0.2850 H   0  0  0  0  0  0  0  0  0  0  0  0
    0.5200   -0.7610    1.5890 H   0  0  0  0  0  0  0  0  0  0  0  0
    0.3990   -0.3790   -1.3160 N   0  0  0  0  0  0  0  0  0  0  0  0
   -0.1430   -0.4710   -2.6450 C   0  0  1  0  0  0  0  0  0  0  0  0
   -1.1760   -1.5220   -2.8520 C   0  0  0  0  0  0  0  0  0  0  0  0
   -2.3830   -1.4280   -2.0400 C   0  0  0  0  0  0  0  0  0  0  0  0
   -3.5890   -0.9210   -2.4640 C   0  0  0  0  0  0  0  0  0  0  0  0
   -4.4290   -1.0000   -1.4280 N   0  0  0  0  0  0  0  0  0  0  0  0
   -3.8410   -1.5320   -0.3410 C   0  0  0  0  0  0  0  0  0  0  0  0
   -4.2930   -1.8140    0.9410 C   0  0  0  0  0  0  0  0  0  0  0  0
   -3.4540   -2.3750    1.8630 C   0  0  0  0  0  0  0  0  0  0  0  0
   -2.1380   -2.6640    1.5080 C   0  0  0  0  0  0  0  0  0  0  0  0
   -1.7170   -2.3740    0.2310 C   0  0  0  0  0  0  0  0  0  0  0  0
   -2.5330   -1.8080   -0.7260 C   0  0  0  0  0  0  0  0  0  0  0  0
   -0.5430    0.8560   -3.1790 C   0  0  0  0  0  0  0  0  0  0  0  0
   -0.3810    1.8750   -2.4680 O   0  0  0  0  0  0  0  0  0  0  0  0
   -1.0890    1.0130   -4.4350 O   0  0  0  0  0  0  0  0  0  0  0  0
   -0.2610   -0.0450   -0.5630 H   0  0  0  0  0  0  0  0  0  0  0  0
    0.7280   -0.7810   -3.3060 H   0  0  0  0  0  0  0  0  0  0  0  0
   -0.6520   -2.5110   -2.6930 H   0  0  0  0  0  0  0  0  0  0  0  0
   -1.3970   -1.5320   -3.9570 H   0  0  0  0  0  0  0  0  0  0  0  0
   -3.8280   -0.5230   -3.4670 H   0  0  0  0  0  0  0  0  0  0  0  0
   -5.4410   -0.6870   -1.4350 H   0  0  0  0  0  0  0  0  0  0  0  0
   -5.3100   -1.5840    1.1950 H   0  0  0  0  0  0  0  0  0  0  0  0
   -3.7820   -2.6080    2.8790 H   0  0  0  0  0  0  0  0  0  0  0  0
   -1.5170   -3.1060    2.2730 H   0  0  0  0  0  0  0  0  0  0  0  0
   -0.7000   -2.6020   -0.0320 H   0  0  0  0  0  0  0  0  0  0  0  0
  1  7  1  0  0  0  0
  2  9  1  0  0  0  0
  2  1  1  0  0  0  0
  3 10  1  6  0  0  0
  3  4  1  0  0  0  0
  3  2  1  0  0  0  0
  4 12  1  0  0  0  0
  4 11  1  0  0  0  0
  5  3  1  0  0  0  0
  6  5  2  0  0  0  0
  8  2  1  0  0  0  0
 13 22  1  0  0  0  0
 13 20  1  0  0  0  0
 14 13  1  0  0  0  0
 14 15  1  0  0  0  0
 15 24  1  0  0  0  0
 15 26  1  0  0  0  0
 16 27  1  6  0  0  0
 16 14  1  0  0  0  0
 16 17  1  0  0  0  0
 17 28  1  0  0  0  0
 17  5  1  0  0  0  0
 18 16  1  0  0  0  0
 19 18  2  0  0  0  0
 21 13  1  0  0  0  0
 23 14  1  0  0  0  0
 25 15  1  0  0  0  0
 29 18  1  0  0  0  0
 29 44  1  0  0  0  0
 30 45  1  6  0  0  0
 30 29  1  0  0  0  0
 31 46  1  0  0  0  0
 31 30  1  0  0  0  0
 31 32  1  0  0  0  0
 32 40  1  0  0  0  0
 33 32  2  0  0  0  0
 33 34  1  0  0  0  0
 34 35  1  0  0  0  0
 35 36  1  0  0  0  0
 36 50  1  0  0  0  0
 36 37  2  0  0  0  0
 37 51  1  0  0  0  0
 38 37  1  0  0  0  0
 38 52  1  0  0  0  0
 39 38  2  0  0  0  0
 40 35  2  0  0  0  0
 40 39  1  0  0  0  0
 41 30  1  0  0  0  0
 41 42  1  0  0  0  0
 43 41  2  0  0  0  0
 47 31  1  0  0  0  0
 48 33  1  0  0  0  0
 49 34  1  0  0  0  0
 53 39  1  0  0  0  0
M  END
$$$$
