SVY.pdb
 OpenBabel07022419103D

 50 50  0  0  1  0  0  0  0  0999 V2000
    5.6620   -5.2410    0.4210 O   0  0  0  0  0  0  0  0  0  0  0  0
    5.0040   -4.1180    0.9000 C   0  0  0  0  0  0  0  0  0  0  0  0
    3.5590   -4.1190    0.4410 C   0  0  2  0  0  0  0  0  0  0  0  0
    3.5340   -4.1140   -1.0010 N   0  0  0  0  0  0  0  0  0  0  0  0
    2.8220   -2.9430    0.9580 C   0  0  0  0  0  0  0  0  0  0  0  0
    2.6890   -2.7040    2.1840 O   0  0  0  0  0  0  0  0  0  0  0  0
    5.4900   -6.0280    0.9820 H   0  0  0  0  0  0  0  0  0  0  0  0
    5.5500   -3.2320    0.5360 H   0  0  0  0  0  0  0  0  0  0  0  0
    5.0800   -4.1180    1.9980 H   0  0  0  0  0  0  0  0  0  0  0  0
    3.1000   -5.0610    0.8320 H   0  0  0  0  0  0  0  0  0  0  0  0
    2.5930   -4.2130   -1.4000 H   0  0  0  0  0  0  0  0  0  0  0  0
    4.0630   -3.2890   -1.3500 H   0  0  0  0  0  0  0  0  0  0  0  0
    2.2410    0.4950   -1.5280 C   0  0  0  0  0  0  0  0  0  0  0  0
    2.1420    0.3960   -0.0410 C   0  0  0  0  0  0  0  0  0  0  0  0
    1.4470    1.6070    0.4960 C   0  0  0  0  0  0  0  0  0  0  0  0
    1.4860   -0.8460    0.4690 C   0  0  2  0  0  0  0  0  0  0  0  0
    2.2360   -2.0390    0.0600 N   0  0  0  0  0  0  0  0  0  0  0  0
    0.1450   -1.0170   -0.1130 C   0  0  0  0  0  0  0  0  0  0  0  0
   -0.0440   -1.9670   -0.9660 O   0  0  0  0  0  0  0  0  0  0  0  0
    3.3070    0.5860   -1.8820 H   0  0  0  0  0  0  0  0  0  0  0  0
    1.7270    1.3900   -1.9480 H   0  0  0  0  0  0  0  0  0  0  0  0
    1.7930   -0.3830   -2.0560 H   0  0  0  0  0  0  0  0  0  0  0  0
    3.1850    0.4680    0.4330 H   0  0  0  0  0  0  0  0  0  0  0  0
    1.1590    1.5100    1.5670 H   0  0  0  0  0  0  0  0  0  0  0  0
    0.6280    1.9930   -0.1470 H   0  0  0  0  0  0  0  0  0  0  0  0
    2.1820    2.4920    0.5130 H   0  0  0  0  0  0  0  0  0  0  0  0
    1.4930   -0.8290    1.5640 H   0  0  0  0  0  0  0  0  0  0  0  0
    2.3000   -2.1660   -0.9740 H   0  0  0  0  0  0  0  0  0  0  0  0
   -4.1860    2.8380    4.7440 O   0  0  0  0  0  0  0  0  0  0  0  0
   -4.0110    1.9530    3.6810 C   0  0  0  0  0  0  0  0  0  0  0  0
   -4.7420    2.0300    2.5170 C   0  0  0  0  0  0  0  0  0  0  0  0
   -4.5260    1.1280    1.5000 C   0  0  0  0  0  0  0  0  0  0  0  0
   -3.5960    0.1240    1.5780 C   0  0  0  0  0  0  0  0  0  0  0  0
   -3.3140   -0.8610    0.5480 C   0  0  0  0  0  0  0  0  0  0  0  0
   -2.2500   -0.4610   -0.4380 C   0  0  2  0  0  0  0  0  0  0  0  0
   -0.9740   -0.2090    0.1990 N   0  0  0  0  0  0  0  0  0  0  0  0
   -2.6910    0.6820   -1.2800 C   0  0  0  0  0  0  0  0  0  0  0  0
   -3.7910    0.5650   -1.8800 O   0  0  0  0  0  0  0  0  0  0  0  0
   -2.8560    0.0490    2.7600 C   0  0  0  0  0  0  0  0  0  0  0  0
   -3.0690    0.9500    3.7820 C   0  0  0  0  0  0  0  0  0  0  0  0
   -1.9910    1.8480   -1.4490 O   0  0  0  0  0  0  0  0  0  0  0  0
   -4.3610    2.4960    5.6710 H   0  0  0  0  0  0  0  0  0  0  0  0
   -5.4800    2.8260    2.4550 H   0  0  0  0  0  0  0  0  0  0  0  0
   -5.1060    1.1990    0.5940 H   0  0  0  0  0  0  0  0  0  0  0  0
   -3.0420   -1.8240    1.0250 H   0  0  0  0  0  0  0  0  0  0  0  0
   -4.2350   -1.0730   -0.0480 H   0  0  0  0  0  0  0  0  0  0  0  0
   -2.1190   -1.3190   -1.1220 H   0  0  0  0  0  0  0  0  0  0  0  0
   -0.8400    0.5420    0.9040 H   0  0  0  0  0  0  0  0  0  0  0  0
   -2.0940   -0.7220    2.9030 H   0  0  0  0  0  0  0  0  0  0  0  0
   -2.5000    0.8990    4.7010 H   0  0  0  0  0  0  0  0  0  0  0  0
  1  2  1  0  0  0  0
  1  7  1  0  0  0  0
  2  9  1  0  0  0  0
  3 10  1  1  0  0  0
  3  2  1  0  0  0  0
  3  5  1  0  0  0  0
  4  3  1  0  0  0  0
  5  6  2  0  0  0  0
  8  2  1  0  0  0  0
 11  4  1  0  0  0  0
 12  4  1  0  0  0  0
 13 14  1  0  0  0  0
 14 23  1  0  0  0  0
 14 16  1  0  0  0  0
 14 15  1  0  0  0  0
 15 26  1  0  0  0  0
 15 24  1  0  0  0  0
 16 27  1  1  0  0  0
 17 16  1  0  0  0  0
 17  5  1  0  0  0  0
 18 36  1  0  0  0  0
 18 16  1  0  0  0  0
 19 18  2  0  0  0  0
 20 13  1  0  0  0  0
 21 13  1  0  0  0  0
 22 13  1  0  0  0  0
 25 15  1  0  0  0  0
 28 17  1  0  0  0  0
 29 42  1  0  0  0  0
 30 40  1  0  0  0  0
 30 29  1  0  0  0  0
 31 30  2  0  0  0  0
 32 33  2  0  0  0  0
 32 31  1  0  0  0  0
 33 39  1  0  0  0  0
 34 45  1  0  0  0  0
 34 33  1  0  0  0  0
 35 47  1  6  0  0  0
 35 36  1  0  0  0  0
 35 34  1  0  0  0  0
 36 48  1  0  0  0  0
 37 35  1  0  0  0  0
 38 37  2  0  0  0  0
 39 49  1  0  0  0  0
 39 40  2  0  0  0  0
 40 50  1  0  0  0  0
 41 37  1  0  0  0  0
 43 31  1  0  0  0  0
 44 32  1  0  0  0  0
 46 34  1  0  0  0  0
M  END
$$$$
