SWL.pdb
 OpenBabel07022419103D

 56 57  0  0  1  0  0  0  0  0999 V2000
    1.4240    1.5360   -3.7520 O   0  0  0  0  0  0  0  0  0  0  0  0
    1.9560    1.1050   -2.5160 C   0  0  0  0  0  0  0  0  0  0  0  0
    1.1090   -0.0640   -2.0830 C   0  0  2  0  0  0  0  0  0  0  0  0
   -0.2480    0.3700   -1.9450 N   0  0  0  0  0  0  0  0  0  0  0  0
    1.5740   -0.7130   -0.8480 C   0  0  0  0  0  0  0  0  0  0  0  0
    2.7540   -1.1650   -0.7380 O   0  0  0  0  0  0  0  0  0  0  0  0
    1.4420    2.5290   -3.8130 H   0  0  0  0  0  0  0  0  0  0  0  0
    3.0210    0.8190   -2.6120 H   0  0  0  0  0  0  0  0  0  0  0  0
    1.8510    1.9550   -1.8340 H   0  0  0  0  0  0  0  0  0  0  0  0
    1.1390   -0.8450   -2.8820 H   0  0  0  0  0  0  0  0  0  0  0  0
   -0.9190   -0.3730   -1.7140 H   0  0  0  0  0  0  0  0  0  0  0  0
   -0.5460    1.0530   -2.6490 H   0  0  0  0  0  0  0  0  0  0  0  0
    0.7400   -0.8770    0.2970 N   0  0  0  0  0  0  0  0  0  0  0  0
    1.1790   -1.5090    1.5110 C   0  0  1  0  0  0  0  0  0  0  0  0
    1.1840   -0.5530    2.6550 C   0  0  0  0  0  0  0  0  0  0  0  0
    2.0890    0.6000    2.4260 C   0  0  0  0  0  0  0  0  0  0  0  0
    3.4140    0.7080    2.8870 C   0  0  0  0  0  0  0  0  0  0  0  0
    3.9350    1.8680    2.4640 N   0  0  0  0  0  0  0  0  0  0  0  0
    3.0230    2.5590    1.7330 C   0  0  0  0  0  0  0  0  0  0  0  0
    3.0780    3.7940    1.0970 C   0  0  0  0  0  0  0  0  0  0  0  0
    1.9870    4.2840    0.4170 C   0  0  0  0  0  0  0  0  0  0  0  0
    0.8530    3.5030    0.3980 C   0  0  0  0  0  0  0  0  0  0  0  0
    0.7990    2.2690    1.0330 C   0  0  0  0  0  0  0  0  0  0  0  0
    1.8950    1.7670    1.7190 C   0  0  0  0  0  0  0  0  0  0  0  0
    0.2580   -2.6390    1.8630 C   0  0  0  0  0  0  0  0  0  0  0  0
    0.4530   -3.3130    2.9010 O   0  0  0  0  0  0  0  0  0  0  0  0
   -0.2340   -0.5200    0.2210 H   0  0  0  0  0  0  0  0  0  0  0  0
    2.2170   -1.9180    1.4090 H   0  0  0  0  0  0  0  0  0  0  0  0
    0.1570   -0.1140    2.7960 H   0  0  0  0  0  0  0  0  0  0  0  0
    1.4430   -1.0560    3.6290 H   0  0  0  0  0  0  0  0  0  0  0  0
    3.8720   -0.0630    3.4850 H   0  0  0  0  0  0  0  0  0  0  0  0
    4.8850    2.2370    2.6370 H   0  0  0  0  0  0  0  0  0  0  0  0
    3.9690    4.4020    1.1150 H   0  0  0  0  0  0  0  0  0  0  0  0
    2.0190    5.2550   -0.0870 H   0  0  0  0  0  0  0  0  0  0  0  0
   -0.0290    3.8590   -0.1300 H   0  0  0  0  0  0  0  0  0  0  0  0
   -0.0920    1.6650    1.0280 H   0  0  0  0  0  0  0  0  0  0  0  0
   -5.0660   -2.2440    0.5310 C   0  0  0  0  0  0  0  0  0  0  0  0
   -3.6520   -2.7580    0.2020 C   0  0  0  0  0  0  0  0  0  0  0  0
   -3.8550   -3.6670   -1.0000 C   0  0  0  0  0  0  0  0  0  0  0  0
   -3.1320   -3.4600    1.4100 C   0  0  0  0  0  0  0  0  0  0  0  0
   -1.7630   -4.0240    1.3120 C   0  0  2  0  0  0  0  0  0  0  0  0
   -0.8300   -2.9470    1.0300 N   0  0  0  0  0  0  0  0  0  0  0  0
   -1.6030   -5.0980    0.3150 C   0  0  0  0  0  0  0  0  0  0  0  0
   -2.3120   -6.1250    0.3190 O   0  0  0  0  0  0  0  0  0  0  0  0
   -0.6280   -4.9840   -0.6750 O   0  0  0  0  0  0  0  0  0  0  0  0
   -5.1110   -1.9550    1.6080 H   0  0  0  0  0  0  0  0  0  0  0  0
   -5.7720   -3.0800    0.3570 H   0  0  0  0  0  0  0  0  0  0  0  0
   -5.2910   -1.4030   -0.1280 H   0  0  0  0  0  0  0  0  0  0  0  0
   -3.0340   -1.9050   -0.1040 H   0  0  0  0  0  0  0  0  0  0  0  0
   -2.9440   -3.8980   -1.5500 H   0  0  0  0  0  0  0  0  0  0  0  0
   -4.6080   -3.1330   -1.6600 H   0  0  0  0  0  0  0  0  0  0  0  0
   -4.3570   -4.6200   -0.6930 H   0  0  0  0  0  0  0  0  0  0  0  0
   -3.1240   -2.7170    2.2590 H   0  0  0  0  0  0  0  0  0  0  0  0
   -3.8830   -4.2420    1.7040 H   0  0  0  0  0  0  0  0  0  0  0  0
   -1.4260   -4.4810    2.2880 H   0  0  0  0  0  0  0  0  0  0  0  0
   -0.9980   -2.3970    0.1670 H   0  0  0  0  0  0  0  0  0  0  0  0
  1  2  1  0  0  0  0
  2  3  1  0  0  0  0
  2  9  1  0  0  0  0
  3 10  1  6  0  0  0
  3  4  1  0  0  0  0
  3  5  1  0  0  0  0
  4 11  1  0  0  0  0
  5  6  2  0  0  0  0
  5 13  1  0  0  0  0
  7  1  1  0  0  0  0
  8  2  1  0  0  0  0
 12  4  1  0  0  0  0
 13 14  1  0  0  0  0
 14 28  1  6  0  0  0
 14 25  1  0  0  0  0
 14 15  1  0  0  0  0
 15 29  1  0  0  0  0
 15 30  1  0  0  0  0
 16 15  1  0  0  0  0
 16 17  2  0  0  0  0
 17 31  1  0  0  0  0
 18 32  1  0  0  0  0
 18 17  1  0  0  0  0
 19 18  1  0  0  0  0
 20 33  1  0  0  0  0
 20 19  2  0  0  0  0
 21 20  1  0  0  0  0
 22 21  2  0  0  0  0
 22 23  1  0  0  0  0
 23 24  2  0  0  0  0
 24 19  1  0  0  0  0
 24 16  1  0  0  0  0
 25 26  2  0  0  0  0
 27 13  1  0  0  0  0
 34 21  1  0  0  0  0
 35 22  1  0  0  0  0
 36 23  1  0  0  0  0
 37 46  1  0  0  0  0
 38 37  1  0  0  0  0
 38 40  1  0  0  0  0
 39 52  1  0  0  0  0
 39 38  1  0  0  0  0
 40 54  1  0  0  0  0
 40 53  1  0  0  0  0
 41 40  1  0  0  0  0
 41 55  1  1  0  0  0
 42 41  1  0  0  0  0
 42 25  1  0  0  0  0
 43 44  1  0  0  0  0
 43 41  1  0  0  0  0
 45 43  2  0  0  0  0
 47 37  1  0  0  0  0
 48 37  1  0  0  0  0
 49 38  1  0  0  0  0
 50 39  1  0  0  0  0
 51 39  1  0  0  0  0
 56 42  1  0  0  0  0
M  END
$$$$
