SWW.pdb
 OpenBabel07022419103D

 61 64  0  0  1  0  0  0  0  0999 V2000
    2.2820   -0.3340    5.8470 O   0  0  0  0  0  0  0  0  0  0  0  0
    2.1470   -1.6090    5.3050 C   0  0  0  0  0  0  0  0  0  0  0  0
    0.7250   -1.7880    4.7650 C   0  0  2  0  0  0  0  0  0  0  0  0
    0.6550   -3.1200    4.2250 N   0  0  0  0  0  0  0  0  0  0  0  0
    0.5550   -0.7430    3.7270 C   0  0  0  0  0  0  0  0  0  0  0  0
    0.6150    0.4600    4.1430 O   0  0  0  0  0  0  0  0  0  0  0  0
    1.6000   -0.1390    6.5410 H   0  0  0  0  0  0  0  0  0  0  0  0
    2.4500   -2.4220    5.9770 H   0  0  0  0  0  0  0  0  0  0  0  0
    2.8160   -1.6360    4.4190 H   0  0  0  0  0  0  0  0  0  0  0  0
    0.0550   -1.6790    5.6210 H   0  0  0  0  0  0  0  0  0  0  0  0
    1.5150   -3.4120    3.7290 H   0  0  0  0  0  0  0  0  0  0  0  0
   -0.2320   -3.3730    3.7840 H   0  0  0  0  0  0  0  0  0  0  0  0
    0.3410   -0.9500    2.3640 N   0  0  0  0  0  0  0  0  0  0  0  0
    0.1790    0.0660    1.3630 C   0  0  1  0  0  0  0  0  0  0  0  0
    1.3340   -0.0090    0.3890 C   0  0  0  0  0  0  0  0  0  0  0  0
    1.2420    1.0050   -0.6810 C   0  0  0  0  0  0  0  0  0  0  0  0
    0.8810    0.8400   -2.0000 C   0  0  0  0  0  0  0  0  0  0  0  0
    0.9400    2.0510   -2.6270 N   0  0  0  0  0  0  0  0  0  0  0  0
    1.3300    2.9900   -1.7430 C   0  0  0  0  0  0  0  0  0  0  0  0
    1.5480    4.3410   -1.8400 C   0  0  0  0  0  0  0  0  0  0  0  0
    1.9550    5.0330   -0.7150 C   0  0  0  0  0  0  0  0  0  0  0  0
    2.1460    4.4160    0.4870 C   0  0  0  0  0  0  0  0  0  0  0  0
    1.9280    3.0630    0.5810 C   0  0  0  0  0  0  0  0  0  0  0  0
    1.5200    2.3450   -0.5290 C   0  0  0  0  0  0  0  0  0  0  0  0
   -1.0720   -0.0270    0.6120 C   0  0  0  0  0  0  0  0  0  0  0  0
   -1.2850    0.8150   -0.3080 O   0  0  0  0  0  0  0  0  0  0  0  0
    0.2920   -1.9580    2.0270 H   0  0  0  0  0  0  0  0  0  0  0  0
    0.2890    1.0520    1.8960 H   0  0  0  0  0  0  0  0  0  0  0  0
    2.2820    0.1390    0.9840 H   0  0  0  0  0  0  0  0  0  0  0  0
    1.3590   -1.0010   -0.1230 H   0  0  0  0  0  0  0  0  0  0  0  0
    0.5960   -0.0620   -2.4900 H   0  0  0  0  0  0  0  0  0  0  0  0
    0.7240    2.2530   -3.6270 H   0  0  0  0  0  0  0  0  0  0  0  0
    1.3890    4.8050   -2.8040 H   0  0  0  0  0  0  0  0  0  0  0  0
    2.1300    6.1000   -0.7750 H   0  0  0  0  0  0  0  0  0  0  0  0
    2.4620    4.9480    1.3640 H   0  0  0  0  0  0  0  0  0  0  0  0
    2.0880    2.5910    1.5570 H   0  0  0  0  0  0  0  0  0  0  0  0
   -2.1040   -0.9980    0.8220 N   0  0  0  0  0  0  0  0  0  0  0  0
   -3.3070   -1.0520    0.0660 C   0  0  1  0  0  0  0  0  0  0  0  0
   -3.5720   -2.2870   -0.7150 C   0  0  0  0  0  0  0  0  0  0  0  0
   -2.5940   -2.6450   -1.7380 C   0  0  0  0  0  0  0  0  0  0  0  0
   -2.6600   -2.4060   -3.0940 C   0  0  0  0  0  0  0  0  0  0  0  0
   -1.5410   -2.8780   -3.6560 N   0  0  0  0  0  0  0  0  0  0  0  0
   -0.7310   -3.4250   -2.7150 C   0  0  0  0  0  0  0  0  0  0  0  0
    0.5020   -4.0390   -2.7710 C   0  0  0  0  0  0  0  0  0  0  0  0
    1.1080   -4.5240   -1.6320 C   0  0  0  0  0  0  0  0  0  0  0  0
    0.4500   -4.3820   -0.4220 C   0  0  0  0  0  0  0  0  0  0  0  0
   -0.7780   -3.7720   -0.3550 C   0  0  0  0  0  0  0  0  0  0  0  0
   -1.3910   -3.2800   -1.5150 C   0  0  0  0  0  0  0  0  0  0  0  0
   -4.4790   -0.8550    0.9860 C   0  0  0  0  0  0  0  0  0  0  0  0
   -5.6710   -0.8560    0.5870 O   0  0  0  0  0  0  0  0  0  0  0  0
   -4.2620   -0.6620    2.3430 O   0  0  0  0  0  0  0  0  0  0  0  0
   -1.9210   -1.6720    1.5930 H   0  0  0  0  0  0  0  0  0  0  0  0
   -3.3900   -0.1970   -0.6690 H   0  0  0  0  0  0  0  0  0  0  0  0
   -3.7390   -3.1420    0.0060 H   0  0  0  0  0  0  0  0  0  0  0  0
   -4.5820   -2.1850   -1.2110 H   0  0  0  0  0  0  0  0  0  0  0  0
   -3.4970   -1.9100   -3.6130 H   0  0  0  0  0  0  0  0  0  0  0  0
   -1.2740   -2.8540   -4.6810 H   0  0  0  0  0  0  0  0  0  0  0  0
    1.0080   -4.1420   -3.7440 H   0  0  0  0  0  0  0  0  0  0  0  0
    2.0930   -5.0120   -1.6870 H   0  0  0  0  0  0  0  0  0  0  0  0
    0.9340   -4.7660    0.4640 H   0  0  0  0  0  0  0  0  0  0  0  0
   -1.2840   -3.6810    0.6070 H   0  0  0  0  0  0  0  0  0  0  0  0
  1  7  1  0  0  0  0
  2  1  1  0  0  0  0
  2  8  1  0  0  0  0
  3  2  1  0  0  0  0
  3 10  1  1  0  0  0
  4  3  1  0  0  0  0
  5  6  2  0  0  0  0
  5  3  1  0  0  0  0
  9  2  1  0  0  0  0
 11  4  1  0  0  0  0
 12  4  1  0  0  0  0
 13  5  1  0  0  0  0
 14 28  1  1  0  0  0
 14 13  1  0  0  0  0
 15 29  1  0  0  0  0
 15 14  1  0  0  0  0
 16 24  1  0  0  0  0
 16 15  1  0  0  0  0
 17 16  2  0  0  0  0
 18 17  1  0  0  0  0
 18 19  1  0  0  0  0
 19 24  1  0  0  0  0
 20 19  2  0  0  0  0
 20 21  1  0  0  0  0
 21 22  2  0  0  0  0
 22 23  1  0  0  0  0
 22 35  1  0  0  0  0
 23 36  1  0  0  0  0
 24 23  2  0  0  0  0
 25 37  1  0  0  0  0
 25 14  1  0  0  0  0
 26 25  2  0  0  0  0
 27 13  1  0  0  0  0
 30 15  1  0  0  0  0
 31 17  1  0  0  0  0
 32 18  1  0  0  0  0
 33 20  1  0  0  0  0
 34 21  1  0  0  0  0
 37 52  1  0  0  0  0
 38 53  1  6  0  0  0
 38 37  1  0  0  0  0
 38 49  1  0  0  0  0
 39 54  1  0  0  0  0
 39 38  1  0  0  0  0
 40 48  1  0  0  0  0
 40 39  1  0  0  0  0
 41 40  2  0  0  0  0
 42 41  1  0  0  0  0
 42 43  1  0  0  0  0
 43 48  1  0  0  0  0
 44 43  2  0  0  0  0
 44 45  1  0  0  0  0
 45 46  2  0  0  0  0
 46 47  1  0  0  0  0
 46 60  1  0  0  0  0
 47 61  1  0  0  0  0
 48 47  2  0  0  0  0
 49 51  1  0  0  0  0
 50 49  2  0  0  0  0
 55 39  1  0  0  0  0
 56 41  1  0  0  0  0
 57 42  1  0  0  0  0
 58 44  1  0  0  0  0
 59 45  1  0  0  0  0
M  END
$$$$
