SYC.pdb
 OpenBabel07022419103D

 45 45  0  0  1  0  0  0  0  0999 V2000
    4.7310   -1.2580    0.7780 O   0  0  0  0  0  0  0  0  0  0  0  0
    4.5280   -1.7990    2.0250 C   0  0  0  0  0  0  0  0  0  0  0  0
    3.0510   -1.8410    2.3940 C   0  0  2  0  0  0  0  0  0  0  0  0
    2.3940   -2.6600    1.3930 N   0  0  0  0  0  0  0  0  0  0  0  0
    2.4970   -0.4620    2.3650 C   0  0  0  0  0  0  0  0  0  0  0  0
    2.9050    0.4290    3.1380 O   0  0  0  0  0  0  0  0  0  0  0  0
    4.7440   -1.9850    0.0870 H   0  0  0  0  0  0  0  0  0  0  0  0
    4.9150   -2.8340    2.0180 H   0  0  0  0  0  0  0  0  0  0  0  0
    5.0410   -1.2400    2.8390 H   0  0  0  0  0  0  0  0  0  0  0  0
    2.9210   -2.3260    3.3690 H   0  0  0  0  0  0  0  0  0  0  0  0
    2.4750   -3.6740    1.5900 H   0  0  0  0  0  0  0  0  0  0  0  0
    2.7870   -2.5070    0.4340 H   0  0  0  0  0  0  0  0  0  0  0  0
   -0.9960   -1.2140   -4.3150 O   0  0  0  0  0  0  0  0  0  0  0  0
   -0.4670   -0.4860   -3.2600 C   0  0  0  0  0  0  0  0  0  0  0  0
    0.8360   -0.6890   -2.8580 C   0  0  0  0  0  0  0  0  0  0  0  0
    1.3040    0.0710   -1.7970 C   0  0  0  0  0  0  0  0  0  0  0  0
    0.5230    0.9980   -1.1510 C   0  0  0  0  0  0  0  0  0  0  0  0
    1.0560    1.7790   -0.0360 C   0  0  0  0  0  0  0  0  0  0  0  0
    0.8630    1.1450    1.3130 C   0  0  2  0  0  0  0  0  0  0  0  0
    1.4840   -0.1390    1.4480 N   0  0  0  0  0  0  0  0  0  0  0  0
   -0.5730    1.0250    1.6740 C   0  0  0  0  0  0  0  0  0  0  0  0
   -1.3250    2.0280    1.6310 O   0  0  0  0  0  0  0  0  0  0  0  0
   -0.7710    1.1900   -1.5610 C   0  0  0  0  0  0  0  0  0  0  0  0
   -1.2810    0.4420   -2.6290 C   0  0  0  0  0  0  0  0  0  0  0  0
   -0.3750   -1.6840   -4.9420 H   0  0  0  0  0  0  0  0  0  0  0  0
    1.4230   -1.4260   -3.3870 H   0  0  0  0  0  0  0  0  0  0  0  0
    2.3350   -0.1070   -1.4980 H   0  0  0  0  0  0  0  0  0  0  0  0
    0.5060    2.7550   -0.0080 H   0  0  0  0  0  0  0  0  0  0  0  0
    2.1250    2.0540   -0.1580 H   0  0  0  0  0  0  0  0  0  0  0  0
    1.3290    1.8210    2.0610 H   0  0  0  0  0  0  0  0  0  0  0  0
    1.1510   -0.8940    0.8070 H   0  0  0  0  0  0  0  0  0  0  0  0
   -1.4580    1.8990   -1.1110 H   0  0  0  0  0  0  0  0  0  0  0  0
   -2.2940    0.5880   -2.9550 H   0  0  0  0  0  0  0  0  0  0  0  0
   -1.1630   -0.2050    2.0790 N   0  0  0  0  0  0  0  0  0  0  0  0
   -2.5500   -0.3590    2.4360 C   0  0  1  0  0  0  0  0  0  0  0  0
   -3.2290   -1.3550    1.4900 C   0  0  0  0  0  0  0  0  0  0  0  0
   -4.9700   -1.5270    1.9640 S   0  0  0  0  0  0  0  0  0  0  0  0
   -2.6950   -0.8450    3.8300 C   0  0  0  0  0  0  0  0  0  0  0  0
   -1.6520   -1.0530    4.4990 O   0  0  0  0  0  0  0  0  0  0  0  0
   -3.9570   -1.0570    4.3640 O   0  0  0  0  0  0  0  0  0  0  0  0
   -0.5530   -1.0490    2.1200 H   0  0  0  0  0  0  0  0  0  0  0  0
   -3.1060    0.5960    2.3580 H   0  0  0  0  0  0  0  0  0  0  0  0
   -2.7610   -2.3620    1.6500 H   0  0  0  0  0  0  0  0  0  0  0  0
   -3.0950   -1.0460    0.4440 H   0  0  0  0  0  0  0  0  0  0  0  0
   -5.6720   -0.3220    1.6650 H   0  0  0  0  0  0  0  0  0  0  0  0
  1  2  1  0  0  0  0
  2  3  1  0  0  0  0
  2  9  1  0  0  0  0
  3 10  1  1  0  0  0
  4 11  1  0  0  0  0
  4  3  1  0  0  0  0
  5  3  1  0  0  0  0
  5  6  2  0  0  0  0
  7  1  1  0  0  0  0
  8  2  1  0  0  0  0
 12  4  1  0  0  0  0
 13 14  1  0  0  0  0
 14 15  2  0  0  0  0
 14 24  1  0  0  0  0
 15 16  1  0  0  0  0
 16 27  1  0  0  0  0
 16 17  2  0  0  0  0
 17 18  1  0  0  0  0
 18 28  1  0  0  0  0
 18 19  1  0  0  0  0
 19 20  1  0  0  0  0
 19 21  1  0  0  0  0
 19 30  1  1  0  0  0
 20  5  1  0  0  0  0
 21 34  1  0  0  0  0
 22 21  2  0  0  0  0
 23 17  1  0  0  0  0
 23 32  1  0  0  0  0
 24 23  2  0  0  0  0
 25 13  1  0  0  0  0
 26 15  1  0  0  0  0
 29 18  1  0  0  0  0
 31 20  1  0  0  0  0
 33 24  1  0  0  0  0
 34 41  1  0  0  0  0
 34 35  1  0  0  0  0
 35 42  1  6  0  0  0
 35 38  1  0  0  0  0
 36 43  1  0  0  0  0
 36 37  1  0  0  0  0
 36 35  1  0  0  0  0
 38 40  2  0  0  0  0
 38 39  1  0  0  0  0
 44 36  1  0  0  0  0
 45 37  1  0  0  0  0
M  END
$$$$
