SYD.pdb
 OpenBabel07022419103D

 47 47  0  0  1  0  0  0  0  0999 V2000
    3.1340   -3.4660   -0.5060 O   0  0  0  0  0  0  0  0  0  0  0  0
    2.9470   -2.3080   -1.2730 C   0  0  0  0  0  0  0  0  0  0  0  0
    1.4710   -1.9930   -1.3980 C   0  0  2  0  0  0  0  0  0  0  0  0
    1.3240   -0.8030   -2.1890 N   0  0  0  0  0  0  0  0  0  0  0  0
    0.9170   -1.8680   -0.0370 C   0  0  0  0  0  0  0  0  0  0  0  0
    1.0110   -2.8720    0.7160 O   0  0  0  0  0  0  0  0  0  0  0  0
    4.0580   -3.5850   -0.2270 H   0  0  0  0  0  0  0  0  0  0  0  0
    3.3690   -2.4860   -2.2870 H   0  0  0  0  0  0  0  0  0  0  0  0
    3.5270   -1.4770   -0.8260 H   0  0  0  0  0  0  0  0  0  0  0  0
    1.0210   -2.8870   -1.9190 H   0  0  0  0  0  0  0  0  0  0  0  0
    0.3200   -0.7260   -2.5170 H   0  0  0  0  0  0  0  0  0  0  0  0
    1.8720   -0.9750   -3.0830 H   0  0  0  0  0  0  0  0  0  0  0  0
    5.9900   -1.1170    2.8070 O   0  0  0  0  0  0  0  0  0  0  0  0
    4.6390   -0.7500    2.7710 C   0  0  0  0  0  0  0  0  0  0  0  0
    4.1500    0.0760    1.7810 C   0  0  0  0  0  0  0  0  0  0  0  0
    2.8260    0.4520    1.7220 C   0  0  0  0  0  0  0  0  0  0  0  0
    1.9280    0.0070    2.6700 C   0  0  0  0  0  0  0  0  0  0  0  0
    0.4830    0.3990    2.6340 C   0  0  0  0  0  0  0  0  0  0  0  0
   -0.2310   -0.6400    1.8030 C   0  0  2  0  0  0  0  0  0  0  0  0
    0.2930   -0.6970    0.4570 N   0  0  0  0  0  0  0  0  0  0  0  0
   -1.6940   -0.3900    1.7420 C   0  0  0  0  0  0  0  0  0  0  0  0
   -2.3890   -0.3000    2.8090 O   0  0  0  0  0  0  0  0  0  0  0  0
    2.4190   -0.8240    3.6650 C   0  0  0  0  0  0  0  0  0  0  0  0
    3.7450   -1.2000    3.7230 C   0  0  0  0  0  0  0  0  0  0  0  0
    6.6180   -0.6510    2.1680 H   0  0  0  0  0  0  0  0  0  0  0  0
    4.8670    0.4220    1.0370 H   0  0  0  0  0  0  0  0  0  0  0  0
    2.4670    1.1070    0.9260 H   0  0  0  0  0  0  0  0  0  0  0  0
    0.1170    0.3510    3.6800 H   0  0  0  0  0  0  0  0  0  0  0  0
    0.3650    1.4240    2.2560 H   0  0  0  0  0  0  0  0  0  0  0  0
   -0.0540   -1.6180    2.2970 H   0  0  0  0  0  0  0  0  0  0  0  0
    0.2070    0.1410   -0.1520 H   0  0  0  0  0  0  0  0  0  0  0  0
    1.6810   -1.1570    4.3980 H   0  0  0  0  0  0  0  0  0  0  0  0
    4.0500   -1.8440    4.5230 H   0  0  0  0  0  0  0  0  0  0  0  0
   -2.4210   -0.2340    0.5320 N   0  0  0  0  0  0  0  0  0  0  0  0
   -3.8610    0.0110    0.5030 C   0  0  1  0  0  0  0  0  0  0  0  0
   -4.0500    1.4360    0.0040 C   0  0  0  0  0  0  0  0  0  0  0  0
   -5.4620    1.8470   -0.0830 C   0  0  0  0  0  0  0  0  0  0  0  0
   -6.1450    1.5470   -1.0950 O   0  0  0  0  0  0  0  0  0  0  0  0
   -4.5890   -0.9910   -0.2540 C   0  0  0  0  0  0  0  0  0  0  0  0
   -5.8290   -0.9420   -0.3620 O   0  0  0  0  0  0  0  0  0  0  0  0
   -6.0060    2.5700    0.9830 O   0  0  0  0  0  0  0  0  0  0  0  0
   -3.9180   -2.0260   -0.8730 O   0  0  0  0  0  0  0  0  0  0  0  0
   -1.9310   -0.2940   -0.3640 H   0  0  0  0  0  0  0  0  0  0  0  0
   -4.2010    0.0320    1.5730 H   0  0  0  0  0  0  0  0  0  0  0  0
   -3.6150    1.5410   -1.0230 H   0  0  0  0  0  0  0  0  0  0  0  0
   -3.4600    2.1470    0.6300 H   0  0  0  0  0  0  0  0  0  0  0  0
   -6.9290    2.9590    0.8360 H   0  0  0  0  0  0  0  0  0  0  0  0
  1  7  1  0  0  0  0
  2  9  1  0  0  0  0
  2  1  1  0  0  0  0
  3 10  1  6  0  0  0
  3  2  1  0  0  0  0
  3  5  1  0  0  0  0
  4  3  1  0  0  0  0
  5 20  1  0  0  0  0
  5  6  2  0  0  0  0
  8  2  1  0  0  0  0
 11  4  1  0  0  0  0
 12  4  1  0  0  0  0
 14 13  1  0  0  0  0
 14 24  1  0  0  0  0
 15 14  2  0  0  0  0
 16 15  1  0  0  0  0
 16 17  2  0  0  0  0
 17 23  1  0  0  0  0
 18 17  1  0  0  0  0
 18 28  1  0  0  0  0
 19 30  1  1  0  0  0
 19 18  1  0  0  0  0
 20 19  1  0  0  0  0
 21 19  1  0  0  0  0
 21 22  2  0  0  0  0
 23 24  2  0  0  0  0
 23 32  1  0  0  0  0
 24 33  1  0  0  0  0
 25 13  1  0  0  0  0
 26 15  1  0  0  0  0
 27 16  1  0  0  0  0
 29 18  1  0  0  0  0
 31 20  1  0  0  0  0
 34 21  1  0  0  0  0
 35 34  1  0  0  0  0
 35 44  1  1  0  0  0
 36 35  1  0  0  0  0
 36 46  1  0  0  0  0
 37 36  1  0  0  0  0
 37 41  1  0  0  0  0
 38 37  2  0  0  0  0
 39 35  1  0  0  0  0
 40 39  1  0  0  0  0
 42 39  2  0  0  0  0
 43 34  1  0  0  0  0
 45 36  1  0  0  0  0
 47 41  1  0  0  0  0
M  END
$$$$
