SYI.pdb
 OpenBabel07022419103D

 53 53  0  0  1  0  0  0  0  0999 V2000
    1.0790    1.0790    5.1110 O   0  0  0  0  0  0  0  0  0  0  0  0
    0.1110    2.0450    4.9300 C   0  0  0  0  0  0  0  0  0  0  0  0
   -0.8280    1.6970    3.7930 C   0  0  2  0  0  0  0  0  0  0  0  0
   -1.4640    0.4370    4.1250 N   0  0  0  0  0  0  0  0  0  0  0  0
    0.0370    1.5200    2.5710 C   0  0  0  0  0  0  0  0  0  0  0  0
    0.6890    2.4840    2.0950 O   0  0  0  0  0  0  0  0  0  0  0  0
    1.1320    0.8110    6.0700 H   0  0  0  0  0  0  0  0  0  0  0  0
   -0.4270    2.2270    5.8730 H   0  0  0  0  0  0  0  0  0  0  0  0
    0.6460    2.9800    4.6190 H   0  0  0  0  0  0  0  0  0  0  0  0
   -1.5820    2.4660    3.6340 H   0  0  0  0  0  0  0  0  0  0  0  0
   -2.0500    0.0570    3.3570 H   0  0  0  0  0  0  0  0  0  0  0  0
   -0.7670   -0.2720    4.4400 H   0  0  0  0  0  0  0  0  0  0  0  0
    5.3510   -2.5110   -3.3000 O   0  0  0  0  0  0  0  0  0  0  0  0
    4.5310   -2.1180   -2.2480 C   0  0  0  0  0  0  0  0  0  0  0  0
    4.9470   -1.1630   -1.3610 C   0  0  0  0  0  0  0  0  0  0  0  0
    4.1020   -0.8040   -0.3330 C   0  0  0  0  0  0  0  0  0  0  0  0
    2.8520   -1.3500   -0.1370 C   0  0  0  0  0  0  0  0  0  0  0  0
    1.9350   -1.0180    0.9230 C   0  0  0  0  0  0  0  0  0  0  0  0
    0.9850    0.1010    0.7330 C   0  0  2  0  0  0  0  0  0  0  0  0
    0.1510    0.2670    1.9100 N   0  0  0  0  0  0  0  0  0  0  0  0
    0.0720   -0.1850   -0.4060 C   0  0  0  0  0  0  0  0  0  0  0  0
    0.5160   -0.3570   -1.5840 O   0  0  0  0  0  0  0  0  0  0  0  0
    2.4620   -2.3180   -1.0560 C   0  0  0  0  0  0  0  0  0  0  0  0
    3.2950   -2.6890   -2.0920 C   0  0  0  0  0  0  0  0  0  0  0  0
    6.1410   -1.9270   -3.5590 H   0  0  0  0  0  0  0  0  0  0  0  0
    5.9380   -0.6920   -1.4710 H   0  0  0  0  0  0  0  0  0  0  0  0
    4.4210   -0.0640    0.3550 H   0  0  0  0  0  0  0  0  0  0  0  0
    1.3680   -1.9370    1.2120 H   0  0  0  0  0  0  0  0  0  0  0  0
    2.5450   -0.7820    1.8460 H   0  0  0  0  0  0  0  0  0  0  0  0
    1.4380    1.0790    0.5260 H   0  0  0  0  0  0  0  0  0  0  0  0
   -0.4020   -0.5450    2.3160 H   0  0  0  0  0  0  0  0  0  0  0  0
    1.5070   -2.8300   -1.0140 H   0  0  0  0  0  0  0  0  0  0  0  0
    2.9660   -3.4580   -2.8080 H   0  0  0  0  0  0  0  0  0  0  0  0
   -2.9540   -2.3280    1.2130 C   0  0  0  0  0  0  0  0  0  0  0  0
   -3.6780   -2.1710   -0.0740 C   0  0  0  0  0  0  0  0  0  0  0  0
   -2.8430   -1.9150   -1.2780 C   0  0  2  0  0  0  0  0  0  0  0  0
   -1.8550   -3.0270   -1.5340 C   0  0  0  0  0  0  0  0  0  0  0  0
   -2.2150   -0.5620   -1.3740 C   0  0  2  0  0  0  0  0  0  0  0  0
   -1.3300   -0.2840   -0.2650 N   0  0  0  0  0  0  0  0  0  0  0  0
   -3.1770    0.5140   -1.6230 C   0  0  0  0  0  0  0  0  0  0  0  0
   -4.0010    0.3970   -2.5580 O   0  0  0  0  0  0  0  0  0  0  0  0
   -3.2200    1.6690   -0.8640 O   0  0  0  0  0  0  0  0  0  0  0  0
   -1.8700   -2.4930    1.0760 H   0  0  0  0  0  0  0  0  0  0  0  0
   -3.2000   -1.5290    1.9530 H   0  0  0  0  0  0  0  0  0  0  0  0
   -3.3120   -3.2760    1.7170 H   0  0  0  0  0  0  0  0  0  0  0  0
   -4.2450   -3.1240   -0.2830 H   0  0  0  0  0  0  0  0  0  0  0  0
   -4.4760   -1.4020    0.0040 H   0  0  0  0  0  0  0  0  0  0  0  0
   -3.5600   -1.9700   -2.1610 H   0  0  0  0  0  0  0  0  0  0  0  0
   -1.6540   -3.1750   -2.6130 H   0  0  0  0  0  0  0  0  0  0  0  0
   -2.3480   -3.9740   -1.1800 H   0  0  0  0  0  0  0  0  0  0  0  0
   -0.8920   -2.8660   -1.0310 H   0  0  0  0  0  0  0  0  0  0  0  0
   -1.5710   -0.6180   -2.3120 H   0  0  0  0  0  0  0  0  0  0  0  0
   -1.7470   -0.1470    0.6720 H   0  0  0  0  0  0  0  0  0  0  0  0
  1  7  1  0  0  0  0
  2  1  1  0  0  0  0
  2  8  1  0  0  0  0
  3 10  1  6  0  0  0
  3  4  1  0  0  0  0
  3  2  1  0  0  0  0
  4 12  1  0  0  0  0
  5  3  1  0  0  0  0
  6  5  2  0  0  0  0
  9  2  1  0  0  0  0
 11  4  1  0  0  0  0
 13 14  1  0  0  0  0
 14 24  2  0  0  0  0
 14 15  1  0  0  0  0
 15 16  2  0  0  0  0
 16 17  1  0  0  0  0
 16 27  1  0  0  0  0
 17 18  1  0  0  0  0
 18 28  1  0  0  0  0
 18 29  1  0  0  0  0
 19 30  1  6  0  0  0
 19 18  1  0  0  0  0
 19 20  1  0  0  0  0
 20 31  1  0  0  0  0
 20  5  1  0  0  0  0
 21 39  1  0  0  0  0
 21 19  1  0  0  0  0
 22 21  2  0  0  0  0
 23 32  1  0  0  0  0
 23 17  2  0  0  0  0
 24 23  1  0  0  0  0
 25 13  1  0  0  0  0
 26 15  1  0  0  0  0
 33 24  1  0  0  0  0
 34 45  1  0  0  0  0
 34 44  1  0  0  0  0
 35 47  1  0  0  0  0
 35 34  1  0  0  0  0
 36 48  1  6  0  0  0
 36 35  1  0  0  0  0
 37 36  1  0  0  0  0
 37 50  1  0  0  0  0
 37 51  1  0  0  0  0
 38 52  1  6  0  0  0
 38 36  1  0  0  0  0
 38 39  1  0  0  0  0
 39 53  1  0  0  0  0
 40 38  1  0  0  0  0
 40 42  1  0  0  0  0
 41 40  2  0  0  0  0
 43 34  1  0  0  0  0
 46 35  1  0  0  0  0
 49 37  1  0  0  0  0
M  END
$$$$
