SYL.pdb
 OpenBabel07022419103D

 53 53  0  0  1  0  0  0  0  0999 V2000
    3.0240   -3.2300    4.9880 O   0  0  0  0  0  0  0  0  0  0  0  0
    1.9960   -2.8830    4.1020 C   0  0  0  0  0  0  0  0  0  0  0  0
    1.2120   -1.7720    4.7660 C   0  0  2  0  0  0  0  0  0  0  0  0
    0.6560   -2.2040    6.0290 N   0  0  0  0  0  0  0  0  0  0  0  0
    0.1870   -1.3000    3.8230 C   0  0  0  0  0  0  0  0  0  0  0  0
   -1.0450   -1.2660    4.0660 O   0  0  0  0  0  0  0  0  0  0  0  0
    2.6120   -3.6970    5.7400 H   0  0  0  0  0  0  0  0  0  0  0  0
    2.4310   -2.5160    3.1670 H   0  0  0  0  0  0  0  0  0  0  0  0
    1.3140   -3.7430    3.9010 H   0  0  0  0  0  0  0  0  0  0  0  0
    1.9570   -0.9660    5.0170 H   0  0  0  0  0  0  0  0  0  0  0  0
   -0.2640   -1.7750    6.2300 H   0  0  0  0  0  0  0  0  0  0  0  0
    0.6630   -3.2380    6.1460 H   0  0  0  0  0  0  0  0  0  0  0  0
    5.2890    2.2510   -0.2940 O   0  0  0  0  0  0  0  0  0  0  0  0
    3.9880    1.9670    0.1150 C   0  0  0  0  0  0  0  0  0  0  0  0
    2.9700    1.7360   -0.7930 C   0  0  0  0  0  0  0  0  0  0  0  0
    1.6770    1.4530   -0.4280 C   0  0  0  0  0  0  0  0  0  0  0  0
    1.3550    1.3920    0.9110 C   0  0  0  0  0  0  0  0  0  0  0  0
   -0.0320    1.0880    1.3400 C   0  0  0  0  0  0  0  0  0  0  0  0
   -0.3000   -0.3640    1.5330 C   0  0  2  0  0  0  0  0  0  0  0  0
    0.6070   -0.8490    2.5450 N   0  0  0  0  0  0  0  0  0  0  0  0
   -0.3250   -1.1880    0.3290 C   0  0  0  0  0  0  0  0  0  0  0  0
    0.4670   -2.1950    0.3010 O   0  0  0  0  0  0  0  0  0  0  0  0
    2.3360    1.6150    1.8520 C   0  0  0  0  0  0  0  0  0  0  0  0
    3.6220    1.8960    1.4440 C   0  0  0  0  0  0  0  0  0  0  0  0
    5.5970    1.7930   -1.1420 H   0  0  0  0  0  0  0  0  0  0  0  0
    3.2130    1.7820   -1.8480 H   0  0  0  0  0  0  0  0  0  0  0  0
    0.9140    1.2800   -1.2030 H   0  0  0  0  0  0  0  0  0  0  0  0
   -0.2040    1.6000    2.3030 H   0  0  0  0  0  0  0  0  0  0  0  0
   -0.7240    1.5370    0.6040 H   0  0  0  0  0  0  0  0  0  0  0  0
   -1.3310   -0.4320    1.9900 H   0  0  0  0  0  0  0  0  0  0  0  0
    1.6250   -0.8580    2.2940 H   0  0  0  0  0  0  0  0  0  0  0  0
    2.0710    1.5640    2.9120 H   0  0  0  0  0  0  0  0  0  0  0  0
    4.3830    2.0690    2.2140 H   0  0  0  0  0  0  0  0  0  0  0  0
   -4.1500   -1.1090   -1.0570 C   0  0  0  0  0  0  0  0  0  0  0  0
   -3.7230   -1.9230   -2.2390 C   0  0  0  0  0  0  0  0  0  0  0  0
   -3.9050   -1.1630   -3.5470 C   0  0  0  0  0  0  0  0  0  0  0  0
   -2.4070   -2.5810   -2.1280 C   0  0  0  0  0  0  0  0  0  0  0  0
   -1.2000   -1.7170   -1.9350 C   0  0  2  0  0  0  0  0  0  0  0  0
   -1.1840   -0.9020   -0.7710 N   0  0  0  0  0  0  0  0  0  0  0  0
   -0.9040   -0.9760   -3.1890 C   0  0  0  0  0  0  0  0  0  0  0  0
   -0.8820   -1.6150   -4.2720 O   0  0  0  0  0  0  0  0  0  0  0  0
   -0.6470    0.3830   -3.2550 O   0  0  0  0  0  0  0  0  0  0  0  0
   -3.6590   -1.4160   -0.1220 H   0  0  0  0  0  0  0  0  0  0  0  0
   -4.0720   -0.0330   -1.3010 H   0  0  0  0  0  0  0  0  0  0  0  0
   -5.2560   -1.2470   -0.8370 H   0  0  0  0  0  0  0  0  0  0  0  0
   -4.4770   -2.7670   -2.3090 H   0  0  0  0  0  0  0  0  0  0  0  0
   -4.9620   -0.8590   -3.6930 H   0  0  0  0  0  0  0  0  0  0  0  0
   -3.6540   -1.8110   -4.4100 H   0  0  0  0  0  0  0  0  0  0  0  0
   -3.3150   -0.2150   -3.5550 H   0  0  0  0  0  0  0  0  0  0  0  0
   -2.2420   -3.1790   -3.0510 H   0  0  0  0  0  0  0  0  0  0  0  0
   -2.4820   -3.3560   -1.3080 H   0  0  0  0  0  0  0  0  0  0  0  0
   -0.3470   -2.4630   -1.8250 H   0  0  0  0  0  0  0  0  0  0  0  0
   -1.7830   -0.0570   -0.6540 H   0  0  0  0  0  0  0  0  0  0  0  0
  1  7  1  0  0  0  0
  2  3  1  0  0  0  0
  2  1  1  0  0  0  0
  3 10  1  1  0  0  0
  3  4  1  0  0  0  0
  4 12  1  0  0  0  0
  4 11  1  0  0  0  0
  5  6  2  0  0  0  0
  5  3  1  0  0  0  0
  8  2  1  0  0  0  0
  9  2  1  0  0  0  0
 13 14  1  0  0  0  0
 14 24  1  0  0  0  0
 15 16  1  0  0  0  0
 15 14  2  0  0  0  0
 16 17  2  0  0  0  0
 17 18  1  0  0  0  0
 17 23  1  0  0  0  0
 18 19  1  0  0  0  0
 18 28  1  0  0  0  0
 19 30  1  1  0  0  0
 19 20  1  0  0  0  0
 20  5  1  0  0  0  0
 21 19  1  0  0  0  0
 22 21  2  0  0  0  0
 23 32  1  0  0  0  0
 24 23  2  0  0  0  0
 24 33  1  0  0  0  0
 25 13  1  0  0  0  0
 26 15  1  0  0  0  0
 27 16  1  0  0  0  0
 29 18  1  0  0  0  0
 31 20  1  0  0  0  0
 34 45  1  0  0  0  0
 34 43  1  0  0  0  0
 35 37  1  0  0  0  0
 35 34  1  0  0  0  0
 36 35  1  0  0  0  0
 37 38  1  0  0  0  0
 37 51  1  0  0  0  0
 38 52  1  1  0  0  0
 38 39  1  0  0  0  0
 39 53  1  0  0  0  0
 39 21  1  0  0  0  0
 40 38  1  0  0  0  0
 41 40  2  0  0  0  0
 42 40  1  0  0  0  0
 44 34  1  0  0  0  0
 46 35  1  0  0  0  0
 47 36  1  0  0  0  0
 48 36  1  0  0  0  0
 49 36  1  0  0  0  0
 50 37  1  0  0  0  0
M  END
$$$$
