SYN.pdb
 OpenBabel07022419103D

 48 48  0  0  1  0  0  0  0  0999 V2000
    0.8360   -4.4090    1.3520 O   0  0  0  0  0  0  0  0  0  0  0  0
    1.9420   -3.6080    1.0710 C   0  0  0  0  0  0  0  0  0  0  0  0
    2.4340   -3.0190    2.3770 C   0  0  2  0  0  0  0  0  0  0  0  0
    2.8100   -4.0600    3.2870 N   0  0  0  0  0  0  0  0  0  0  0  0
    1.3710   -2.1460    2.8990 C   0  0  0  0  0  0  0  0  0  0  0  0
    0.8870   -2.3700    4.0610 O   0  0  0  0  0  0  0  0  0  0  0  0
    0.3290   -4.0780    2.1390 H   0  0  0  0  0  0  0  0  0  0  0  0
    2.7270   -4.2950    0.6770 H   0  0  0  0  0  0  0  0  0  0  0  0
    1.7570   -2.8440    0.3150 H   0  0  0  0  0  0  0  0  0  0  0  0
    3.3400   -2.4080    2.1150 H   0  0  0  0  0  0  0  0  0  0  0  0
    2.8370   -4.9600    2.7670 H   0  0  0  0  0  0  0  0  0  0  0  0
    2.1920   -4.1350    4.1070 H   0  0  0  0  0  0  0  0  0  0  0  0
    2.3800    3.9480   -1.7180 O   0  0  0  0  0  0  0  0  0  0  0  0
    1.8420    3.2820   -0.6350 C   0  0  0  0  0  0  0  0  0  0  0  0
    2.6670    2.5770    0.2110 C   0  0  0  0  0  0  0  0  0  0  0  0
    2.1110    1.9220    1.2820 C   0  0  0  0  0  0  0  0  0  0  0  0
    0.7360    1.9530    1.5350 C   0  0  0  0  0  0  0  0  0  0  0  0
    0.2510    1.2320    2.6960 C   0  0  0  0  0  0  0  0  0  0  0  0
   -0.1210   -0.1870    2.5390 C   0  0  2  0  0  0  0  0  0  0  0  0
    0.9050   -1.0720    2.0980 N   0  0  0  0  0  0  0  0  0  0  0  0
   -1.3740   -0.3020    1.7550 C   0  0  0  0  0  0  0  0  0  0  0  0
   -2.3220    0.4510    2.0380 O   0  0  0  0  0  0  0  0  0  0  0  0
   -0.0450    2.6640    0.6690 C   0  0  0  0  0  0  0  0  0  0  0  0
    0.4810    3.3380   -0.4230 C   0  0  0  0  0  0  0  0  0  0  0  0
    2.7990    3.4770   -2.5150 H   0  0  0  0  0  0  0  0  0  0  0  0
    3.7480    2.5220    0.0580 H   0  0  0  0  0  0  0  0  0  0  0  0
    2.7760    1.3760    1.9320 H   0  0  0  0  0  0  0  0  0  0  0  0
    1.0290    1.3330    3.5100 H   0  0  0  0  0  0  0  0  0  0  0  0
   -0.6610    1.7730    3.0710 H   0  0  0  0  0  0  0  0  0  0  0  0
   -0.4230   -0.5400    3.5780 H   0  0  0  0  0  0  0  0  0  0  0  0
    1.3420   -0.9440    1.1600 H   0  0  0  0  0  0  0  0  0  0  0  0
   -1.1120    2.6750    0.8830 H   0  0  0  0  0  0  0  0  0  0  0  0
   -0.1960    3.8820   -1.0660 H   0  0  0  0  0  0  0  0  0  0  0  0
   -1.8680   -0.1050   -3.5450 N   0  0  0  0  0  0  0  0  0  0  0  0
   -2.0190   -0.1280   -2.1190 C   0  0  0  0  0  0  0  0  0  0  0  0
   -1.6530    0.8590   -1.4710 O   0  0  0  0  0  0  0  0  0  0  0  0
   -2.6030   -1.3400   -1.5390 C   0  0  0  0  0  0  0  0  0  0  0  0
   -2.7440   -1.3560   -0.0590 C   0  0  2  0  0  0  0  0  0  0  0  0
   -1.5530   -1.2240    0.7020 N   0  0  0  0  0  0  0  0  0  0  0  0
   -3.3930   -2.6500    0.3150 C   0  0  0  0  0  0  0  0  0  0  0  0
   -4.4700   -3.0370   -0.2000 O   0  0  0  0  0  0  0  0  0  0  0  0
   -2.8010   -3.4650    1.2600 O   0  0  0  0  0  0  0  0  0  0  0  0
   -1.3750    0.6830   -4.0220 H   0  0  0  0  0  0  0  0  0  0  0  0
   -2.2310   -0.8510   -4.1760 H   0  0  0  0  0  0  0  0  0  0  0  0
   -3.6510   -1.4170   -1.9560 H   0  0  0  0  0  0  0  0  0  0  0  0
   -2.0950   -2.2540   -1.8910 H   0  0  0  0  0  0  0  0  0  0  0  0
   -3.4450   -0.5520    0.3030 H   0  0  0  0  0  0  0  0  0  0  0  0
   -0.7400   -1.8490    0.4770 H   0  0  0  0  0  0  0  0  0  0  0  0
  1  7  1  0  0  0  0
  2  1  1  0  0  0  0
  2  3  1  0  0  0  0
  3 10  1  6  0  0  0
  3  5  1  0  0  0  0
  3  4  1  0  0  0  0
  4 12  1  0  0  0  0
  5  6  2  0  0  0  0
  8  2  1  0  0  0  0
  9  2  1  0  0  0  0
 11  4  1  0  0  0  0
 13 14  1  0  0  0  0
 14 24  2  0  0  0  0
 14 15  1  0  0  0  0
 15 16  2  0  0  0  0
 16 17  1  0  0  0  0
 16 27  1  0  0  0  0
 17 18  1  0  0  0  0
 18 29  1  0  0  0  0
 18 28  1  0  0  0  0
 19 18  1  0  0  0  0
 19 30  1  1  0  0  0
 20 19  1  0  0  0  0
 20  5  1  0  0  0  0
 21 22  2  0  0  0  0
 21 19  1  0  0  0  0
 23 32  1  0  0  0  0
 23 17  2  0  0  0  0
 24 23  1  0  0  0  0
 25 13  1  0  0  0  0
 26 15  1  0  0  0  0
 31 20  1  0  0  0  0
 33 24  1  0  0  0  0
 34 35  1  0  0  0  0
 35 37  1  0  0  0  0
 35 36  2  0  0  0  0
 37 38  1  0  0  0  0
 38 47  1  1  0  0  0
 38 40  1  0  0  0  0
 38 39  1  0  0  0  0
 39 21  1  0  0  0  0
 40 42  1  0  0  0  0
 41 40  2  0  0  0  0
 43 34  1  0  0  0  0
 44 34  1  0  0  0  0
 45 37  1  0  0  0  0
 46 37  1  0  0  0  0
 48 39  1  0  0  0  0
M  END
$$$$
