SYR.pdb
 OpenBabel07022419103D

 57 57  0  0  1  0  0  0  0  0999 V2000
   -0.6580   -1.1940    3.7930 O   0  0  0  0  0  0  0  0  0  0  0  0
    0.6280   -1.5740    4.0630 C   0  0  0  0  0  0  0  0  0  0  0  0
    1.3290   -2.1960    2.8770 C   0  0  2  0  0  0  0  0  0  0  0  0
    2.6840   -2.5700    3.2580 N   0  0  0  0  0  0  0  0  0  0  0  0
    1.3960   -1.2540    1.7130 C   0  0  0  0  0  0  0  0  0  0  0  0
    2.5350   -0.8920    1.2800 O   0  0  0  0  0  0  0  0  0  0  0  0
   -1.3180   -1.4780    4.4620 H   0  0  0  0  0  0  0  0  0  0  0  0
    1.1850   -0.6730    4.4130 H   0  0  0  0  0  0  0  0  0  0  0  0
    0.5870   -2.3580    4.8520 H   0  0  0  0  0  0  0  0  0  0  0  0
    0.7970   -3.1320    2.6230 H   0  0  0  0  0  0  0  0  0  0  0  0
    3.3490   -1.7850    3.2400 H   0  0  0  0  0  0  0  0  0  0  0  0
    2.6480   -3.0710    4.1700 H   0  0  0  0  0  0  0  0  0  0  0  0
   -0.9050    4.3620    4.5770 O   0  0  0  0  0  0  0  0  0  0  0  0
   -0.4170    3.6360    3.4880 C   0  0  0  0  0  0  0  0  0  0  0  0
    0.6260    2.7500    3.6370 C   0  0  0  0  0  0  0  0  0  0  0  0
    1.1240    2.0170    2.5550 C   0  0  0  0  0  0  0  0  0  0  0  0
    0.6000    2.1420    1.2940 C   0  0  0  0  0  0  0  0  0  0  0  0
    1.0860    1.3790    0.1160 C   0  0  0  0  0  0  0  0  0  0  0  0
    0.2270    0.1450   -0.0280 C   0  0  2  0  0  0  0  0  0  0  0  0
    0.2530   -0.7530    1.0760 N   0  0  0  0  0  0  0  0  0  0  0  0
    0.4500   -0.5370   -1.3330 C   0  0  0  0  0  0  0  0  0  0  0  0
    0.4770    0.0700   -2.4140 O   0  0  0  0  0  0  0  0  0  0  0  0
   -0.4610    3.0490    1.1590 C   0  0  0  0  0  0  0  0  0  0  0  0
   -0.9500    3.7700    2.2250 C   0  0  0  0  0  0  0  0  0  0  0  0
   -1.7850    4.1150    5.0200 H   0  0  0  0  0  0  0  0  0  0  0  0
    1.0600    2.6300    4.6220 H   0  0  0  0  0  0  0  0  0  0  0  0
    1.9500    1.3440    2.7280 H   0  0  0  0  0  0  0  0  0  0  0  0
    2.1550    1.1550    0.2960 H   0  0  0  0  0  0  0  0  0  0  0  0
    0.9830    1.9710   -0.8230 H   0  0  0  0  0  0  0  0  0  0  0  0
   -0.8270    0.5840   -0.1050 H   0  0  0  0  0  0  0  0  0  0  0  0
   -0.6750   -1.0980    1.4820 H   0  0  0  0  0  0  0  0  0  0  0  0
   -0.8680    3.1370    0.1460 H   0  0  0  0  0  0  0  0  0  0  0  0
   -1.7700    4.4620    2.0910 H   0  0  0  0  0  0  0  0  0  0  0  0
   -3.1810   -2.1950    0.9250 N   0  0  0  0  0  0  0  0  0  0  0  0
   -2.9310   -1.6020   -0.3660 C   0  0  0  0  0  0  0  0  0  0  0  0
   -3.4010   -0.4280   -0.5370 N   0  0  0  0  0  0  0  0  0  0  0  0
   -2.2090   -2.2920   -1.3740 N   0  0  0  0  0  0  0  0  0  0  0  0
   -2.2380   -1.8440   -2.7360 C   0  0  0  0  0  0  0  0  0  0  0  0
   -1.3550   -2.5490   -3.6660 C   0  0  0  0  0  0  0  0  0  0  0  0
    0.1090   -2.4750   -3.6250 C   0  0  0  0  0  0  0  0  0  0  0  0
    0.8600   -2.8110   -2.4050 C   0  0  2  0  0  0  0  0  0  0  0  0
    0.6370   -1.9460   -1.3060 N   0  0  0  0  0  0  0  0  0  0  0  0
    2.2600   -3.1670   -2.6260 C   0  0  0  0  0  0  0  0  0  0  0  0
    2.5680   -3.9230   -3.5660 O   0  0  0  0  0  0  0  0  0  0  0  0
    3.2400   -2.6700   -1.8010 O   0  0  0  0  0  0  0  0  0  0  0  0
   -2.4500   -2.7170    1.4480 H   0  0  0  0  0  0  0  0  0  0  0  0
   -4.1230   -2.1150    1.3820 H   0  0  0  0  0  0  0  0  0  0  0  0
   -3.3200    0.1450   -1.3870 H   0  0  0  0  0  0  0  0  0  0  0  0
   -1.6890   -3.1420   -1.1090 H   0  0  0  0  0  0  0  0  0  0  0  0
   -2.0730   -0.7210   -2.7370 H   0  0  0  0  0  0  0  0  0  0  0  0
   -3.3340   -1.9410   -3.0770 H   0  0  0  0  0  0  0  0  0  0  0  0
   -1.6590   -2.2010   -4.7210 H   0  0  0  0  0  0  0  0  0  0  0  0
   -1.6800   -3.6620   -3.7290 H   0  0  0  0  0  0  0  0  0  0  0  0
    0.5460   -3.1900   -4.4420 H   0  0  0  0  0  0  0  0  0  0  0  0
    0.5060   -1.4920   -4.0250 H   0  0  0  0  0  0  0  0  0  0  0  0
    0.3660   -3.8210   -2.0720 H   0  0  0  0  0  0  0  0  0  0  0  0
    0.6080   -2.4000   -0.3360 H   0  0  0  0  0  0  0  0  0  0  0  0
  1  2  1  0  0  0  0
  1  7  1  0  0  0  0
  2  8  1  0  0  0  0
  2  9  1  0  0  0  0
  3 10  1  6  0  0  0
  3  4  1  0  0  0  0
  3  2  1  0  0  0  0
  4 12  1  0  0  0  0
  5  3  1  0  0  0  0
  6  5  2  0  0  0  0
 11  4  1  0  0  0  0
 13 25  1  0  0  0  0
 14 15  1  0  0  0  0
 14 13  1  0  0  0  0
 15 26  1  0  0  0  0
 16 27  1  0  0  0  0
 16 15  2  0  0  0  0
 17 16  1  0  0  0  0
 18 28  1  0  0  0  0
 18 17  1  0  0  0  0
 19 30  1  6  0  0  0
 19 18  1  0  0  0  0
 19 20  1  0  0  0  0
 20 31  1  0  0  0  0
 20  5  1  0  0  0  0
 21 42  1  0  0  0  0
 21 19  1  0  0  0  0
 22 21  2  0  0  0  0
 23 17  2  0  0  0  0
 23 24  1  0  0  0  0
 24 14  2  0  0  0  0
 29 18  1  0  0  0  0
 32 23  1  0  0  0  0
 33 24  1  0  0  0  0
 34 47  1  0  0  0  0
 34 46  1  0  0  0  0
 35 34  1  0  0  0  0
 36 35  2  0  0  0  0
 37 49  1  0  0  0  0
 37 35  1  0  0  0  0
 38 37  1  0  0  0  0
 39 40  1  0  0  0  0
 39 38  1  0  0  0  0
 40 41  1  0  0  0  0
 41 56  1  1  0  0  0
 41 42  1  0  0  0  0
 42 57  1  0  0  0  0
 43 41  1  0  0  0  0
 43 45  1  0  0  0  0
 44 43  2  0  0  0  0
 48 36  1  0  0  0  0
 50 38  1  0  0  0  0
 51 38  1  0  0  0  0
 52 39  1  0  0  0  0
 53 39  1  0  0  0  0
 54 40  1  0  0  0  0
 55 40  1  0  0  0  0
M  END
$$$$
