SYV.pdb
 OpenBabel07022419103D

 50 50  0  0  1  0  0  0  0  0999 V2000
    0.2640   -2.1440    4.6890 O   0  0  0  0  0  0  0  0  0  0  0  0
    1.6000   -2.4720    4.4730 C   0  0  0  0  0  0  0  0  0  0  0  0
    2.3480   -1.3240    3.8140 C   0  0  2  0  0  0  0  0  0  0  0  0
    2.2660   -0.1840    4.7000 N   0  0  0  0  0  0  0  0  0  0  0  0
    1.5720   -0.9900    2.5600 C   0  0  0  0  0  0  0  0  0  0  0  0
    1.4930   -1.8290    1.6270 O   0  0  0  0  0  0  0  0  0  0  0  0
   -0.3080   -2.9400    4.7460 H   0  0  0  0  0  0  0  0  0  0  0  0
    2.0520   -2.6730    5.4610 H   0  0  0  0  0  0  0  0  0  0  0  0
    1.6210   -3.3890    3.8590 H   0  0  0  0  0  0  0  0  0  0  0  0
    3.3750   -1.5960    3.5590 H   0  0  0  0  0  0  0  0  0  0  0  0
    3.0250   -0.1590    5.4070 H   0  0  0  0  0  0  0  0  0  0  0  0
    1.3440   -0.2190    5.1770 H   0  0  0  0  0  0  0  0  0  0  0  0
    5.1170   -1.8850   -1.8880 O   0  0  0  0  0  0  0  0  0  0  0  0
    4.0760   -1.0950   -1.3780 C   0  0  0  0  0  0  0  0  0  0  0  0
    4.3340   -0.3120   -0.2920 C   0  0  0  0  0  0  0  0  0  0  0  0
    3.3020    0.4730    0.2160 C   0  0  0  0  0  0  0  0  0  0  0  0
    2.0420    0.4850   -0.3330 C   0  0  0  0  0  0  0  0  0  0  0  0
    0.9640    1.3230    0.2180 C   0  0  0  0  0  0  0  0  0  0  0  0
    0.1550    0.6720    1.2690 C   0  0  2  0  0  0  0  0  0  0  0  0
    0.9260    0.2630    2.4150 N   0  0  0  0  0  0  0  0  0  0  0  0
   -0.8430   -0.3220    0.8080 C   0  0  0  0  0  0  0  0  0  0  0  0
   -0.9720   -1.3730    1.4770 O   0  0  0  0  0  0  0  0  0  0  0  0
    1.7860   -0.3030   -1.4240 C   0  0  0  0  0  0  0  0  0  0  0  0
    2.8200   -1.0930   -1.9380 C   0  0  0  0  0  0  0  0  0  0  0  0
    5.5840   -1.6320   -2.7700 H   0  0  0  0  0  0  0  0  0  0  0  0
    5.3090   -0.2820    0.1820 H   0  0  0  0  0  0  0  0  0  0  0  0
    3.4730    1.1080    1.0800 H   0  0  0  0  0  0  0  0  0  0  0  0
    1.4340    2.2350    0.6780 H   0  0  0  0  0  0  0  0  0  0  0  0
    0.3000    1.7220   -0.5780 H   0  0  0  0  0  0  0  0  0  0  0  0
   -0.5290    1.5000    1.6950 H   0  0  0  0  0  0  0  0  0  0  0  0
    1.0490    0.9280    3.2480 H   0  0  0  0  0  0  0  0  0  0  0  0
    0.8530   -0.3710   -1.9280 H   0  0  0  0  0  0  0  0  0  0  0  0
    2.6500   -1.7290   -2.8020 H   0  0  0  0  0  0  0  0  0  0  0  0
   -4.3060    0.5510   -1.3270 C   0  0  0  0  0  0  0  0  0  0  0  0
   -4.0300   -0.6700   -0.4930 C   0  0  0  0  0  0  0  0  0  0  0  0
   -4.2830   -0.4360    0.9630 C   0  0  0  0  0  0  0  0  0  0  0  0
   -2.5980   -1.1630   -0.7050 C   0  0  2  0  0  0  0  0  0  0  0  0
   -1.6490   -0.1440   -0.3340 N   0  0  0  0  0  0  0  0  0  0  0  0
   -2.4290   -1.5960   -2.0930 C   0  0  0  0  0  0  0  0  0  0  0  0
   -1.5790   -1.1470   -2.8890 O   0  0  0  0  0  0  0  0  0  0  0  0
   -3.2850   -2.5930   -2.5740 O   0  0  0  0  0  0  0  0  0  0  0  0
   -3.4130    0.7710   -1.9230 H   0  0  0  0  0  0  0  0  0  0  0  0
   -5.1750    0.3930   -2.0060 H   0  0  0  0  0  0  0  0  0  0  0  0
   -4.5010    1.4280   -0.6760 H   0  0  0  0  0  0  0  0  0  0  0  0
   -4.6910   -1.4820   -0.8470 H   0  0  0  0  0  0  0  0  0  0  0  0
   -3.9290   -1.2920    1.5370 H   0  0  0  0  0  0  0  0  0  0  0  0
   -5.3970   -0.3970    1.1010 H   0  0  0  0  0  0  0  0  0  0  0  0
   -3.8460    0.5210    1.3210 H   0  0  0  0  0  0  0  0  0  0  0  0
   -2.4850   -2.0110    0.0050 H   0  0  0  0  0  0  0  0  0  0  0  0
   -1.5160    0.7440   -0.8750 H   0  0  0  0  0  0  0  0  0  0  0  0
  1  7  1  0  0  0  0
  2  1  1  0  0  0  0
  2  8  1  0  0  0  0
  3 10  1  6  0  0  0
  3  2  1  0  0  0  0
  3  4  1  0  0  0  0
  4 12  1  0  0  0  0
  4 11  1  0  0  0  0
  5  3  1  0  0  0  0
  6  5  2  0  0  0  0
  9  2  1  0  0  0  0
 13 14  1  0  0  0  0
 14 15  1  0  0  0  0
 15 26  1  0  0  0  0
 15 16  2  0  0  0  0
 16 27  1  0  0  0  0
 17 16  1  0  0  0  0
 17 18  1  0  0  0  0
 18 28  1  0  0  0  0
 18 19  1  0  0  0  0
 19 30  1  1  0  0  0
 19 20  1  0  0  0  0
 20  5  1  0  0  0  0
 20 31  1  0  0  0  0
 21 19  1  0  0  0  0
 21 22  2  0  0  0  0
 23 17  2  0  0  0  0
 24 23  1  0  0  0  0
 24 14  2  0  0  0  0
 25 13  1  0  0  0  0
 29 18  1  0  0  0  0
 32 23  1  0  0  0  0
 33 24  1  0  0  0  0
 34 44  1  0  0  0  0
 34 35  1  0  0  0  0
 35 36  1  0  0  0  0
 36 47  1  0  0  0  0
 36 48  1  0  0  0  0
 36 46  1  0  0  0  0
 37 35  1  0  0  0  0
 37 38  1  0  0  0  0
 37 49  1  1  0  0  0
 38 21  1  0  0  0  0
 39 37  1  0  0  0  0
 40 39  2  0  0  0  0
 41 39  1  0  0  0  0
 42 34  1  0  0  0  0
 43 34  1  0  0  0  0
 45 35  1  0  0  0  0
 50 38  1  0  0  0  0
M  END
$$$$
