SYY.pdb
 OpenBabel07022419103D

 55 56  0  0  1  0  0  0  0  0999 V2000
    4.4000   -2.6630    4.1940 O   0  0  0  0  0  0  0  0  0  0  0  0
    4.8010   -2.1870    2.9400 C   0  0  0  0  0  0  0  0  0  0  0  0
    3.8490   -2.6550    1.8530 C   0  0  2  0  0  0  0  0  0  0  0  0
    4.2410   -2.1800    0.5670 N   0  0  0  0  0  0  0  0  0  0  0  0
    2.4880   -2.2060    2.2500 C   0  0  0  0  0  0  0  0  0  0  0  0
    2.0360   -2.5590    3.3630 O   0  0  0  0  0  0  0  0  0  0  0  0
    4.8790   -2.2460    4.9280 H   0  0  0  0  0  0  0  0  0  0  0  0
    5.8300   -2.5490    2.7840 H   0  0  0  0  0  0  0  0  0  0  0  0
    4.7290   -1.0870    2.9880 H   0  0  0  0  0  0  0  0  0  0  0  0
    3.8450   -3.7800    1.7990 H   0  0  0  0  0  0  0  0  0  0  0  0
    3.5530   -2.4350   -0.1460 H   0  0  0  0  0  0  0  0  0  0  0  0
    4.5220   -1.1790    0.5520 H   0  0  0  0  0  0  0  0  0  0  0  0
   -4.8010    2.5990    3.2560 O   0  0  0  0  0  0  0  0  0  0  0  0
   -3.5650    2.1070    2.8970 C   0  0  0  0  0  0  0  0  0  0  0  0
   -2.6420    1.7530    3.8760 C   0  0  0  0  0  0  0  0  0  0  0  0
   -1.4020    1.2600    3.5290 C   0  0  0  0  0  0  0  0  0  0  0  0
   -1.0280    1.0990    2.1980 C   0  0  0  0  0  0  0  0  0  0  0  0
    0.3080    0.5770    1.8410 C   0  0  0  0  0  0  0  0  0  0  0  0
    0.3600   -0.9340    1.7560 C   0  0  2  0  0  0  0  0  0  0  0  0
    1.6910   -1.3900    1.4000 N   0  0  0  0  0  0  0  0  0  0  0  0
   -0.5850   -1.5020    0.7940 C   0  0  0  0  0  0  0  0  0  0  0  0
   -1.7980   -1.2670    0.9160 O   0  0  0  0  0  0  0  0  0  0  0  0
   -1.9600    1.4570    1.2480 C   0  0  0  0  0  0  0  0  0  0  0  0
   -3.2060    1.9520    1.5750 C   0  0  0  0  0  0  0  0  0  0  0  0
   -4.8570    3.2560    4.0210 H   0  0  0  0  0  0  0  0  0  0  0  0
   -2.8680    1.8530    4.9300 H   0  0  0  0  0  0  0  0  0  0  0  0
   -0.7120    0.9960    4.3180 H   0  0  0  0  0  0  0  0  0  0  0  0
    0.6100    1.0540    0.8860 H   0  0  0  0  0  0  0  0  0  0  0  0
    1.0120    0.9000    2.6200 H   0  0  0  0  0  0  0  0  0  0  0  0
    0.0550   -1.2990    2.7610 H   0  0  0  0  0  0  0  0  0  0  0  0
    2.1200   -1.1280    0.4860 H   0  0  0  0  0  0  0  0  0  0  0  0
   -1.7440    1.3650    0.1840 H   0  0  0  0  0  0  0  0  0  0  0  0
   -3.9400    2.2340    0.8320 H   0  0  0  0  0  0  0  0  0  0  0  0
   -1.6090    3.1510   -3.0800 O   0  0  0  0  0  0  0  0  0  0  0  0
   -1.4200    1.7880   -2.9770 C   0  0  0  0  0  0  0  0  0  0  0  0
   -2.4340    0.8720   -3.1700 C   0  0  0  0  0  0  0  0  0  0  0  0
   -2.2190   -0.4830   -3.0620 C   0  0  0  0  0  0  0  0  0  0  0  0
   -0.9600   -0.9320   -2.7520 C   0  0  0  0  0  0  0  0  0  0  0  0
   -0.7670   -2.4130   -2.6430 C   0  0  0  0  0  0  0  0  0  0  0  0
   -1.0170   -2.9020   -1.2550 C   0  0  2  0  0  0  0  0  0  0  0  0
   -0.1430   -2.3080   -0.2680 N   0  0  0  0  0  0  0  0  0  0  0  0
   -0.9990   -4.3690   -1.2300 C   0  0  0  0  0  0  0  0  0  0  0  0
   -0.2760   -4.9810   -0.4110 O   0  0  0  0  0  0  0  0  0  0  0  0
    0.0560   -0.0460   -2.5570 C   0  0  0  0  0  0  0  0  0  0  0  0
   -0.1540    1.2960   -2.6640 C   0  0  0  0  0  0  0  0  0  0  0  0
   -1.7760   -5.0870   -2.1050 O   0  0  0  0  0  0  0  0  0  0  0  0
   -2.5610    3.5020   -2.9980 H   0  0  0  0  0  0  0  0  0  0  0  0
   -3.4340    1.2450   -3.4170 H   0  0  0  0  0  0  0  0  0  0  0  0
   -3.0540   -1.1970   -3.2220 H   0  0  0  0  0  0  0  0  0  0  0  0
    0.2260   -2.7020   -3.0440 H   0  0  0  0  0  0  0  0  0  0  0  0
   -1.5130   -2.8800   -3.3130 H   0  0  0  0  0  0  0  0  0  0  0  0
   -2.0550   -2.5820   -0.9800 H   0  0  0  0  0  0  0  0  0  0  0  0
    0.8920   -2.5250   -0.3970 H   0  0  0  0  0  0  0  0  0  0  0  0
    1.0370   -0.4110   -2.3160 H   0  0  0  0  0  0  0  0  0  0  0  0
    0.6820    1.9870   -2.5020 H   0  0  0  0  0  0  0  0  0  0  0  0
  1  7  1  0  0  0  0
  2  9  1  0  0  0  0
  2  1  1  0  0  0  0
  3 10  1  6  0  0  0
  3  5  1  0  0  0  0
  3  2  1  0  0  0  0
  4  3  1  0  0  0  0
  5  6  2  0  0  0  0
  8  2  1  0  0  0  0
 11  4  1  0  0  0  0
 12  4  1  0  0  0  0
 13 25  1  0  0  0  0
 14 13  1  0  0  0  0
 14 15  1  0  0  0  0
 15 26  1  0  0  0  0
 16 15  2  0  0  0  0
 16 27  1  0  0  0  0
 17 16  1  0  0  0  0
 18 17  1  0  0  0  0
 18 29  1  0  0  0  0
 19 18  1  0  0  0  0
 19 30  1  1  0  0  0
 20 19  1  0  0  0  0
 20  5  1  0  0  0  0
 21 22  2  0  0  0  0
 21 19  1  0  0  0  0
 23 24  1  0  0  0  0
 23 17  2  0  0  0  0
 24 14  2  0  0  0  0
 28 18  1  0  0  0  0
 31 20  1  0  0  0  0
 32 23  1  0  0  0  0
 33 24  1  0  0  0  0
 34 47  1  0  0  0  0
 34 35  1  0  0  0  0
 35 45  1  0  0  0  0
 36 37  1  0  0  0  0
 36 35  2  0  0  0  0
 37 38  2  0  0  0  0
 38 39  1  0  0  0  0
 38 44  1  0  0  0  0
 39 40  1  0  0  0  0
 40 42  1  0  0  0  0
 40 52  1  1  0  0  0
 40 41  1  0  0  0  0
 41 21  1  0  0  0  0
 42 43  1  0  0  0  0
 44 54  1  0  0  0  0
 45 44  2  0  0  0  0
 45 55  1  0  0  0  0
 46 42  2  0  0  0  0
 48 36  1  0  0  0  0
 49 37  1  0  0  0  0
 50 39  1  0  0  0  0
 51 39  1  0  0  0  0
 53 41  1  0  0  0  0
M  END
$$$$
