TAA.pdb
 OpenBabel07022419103D

 36 35  0  0  1  0  0  0  0  0999 V2000
   -1.8780   -1.6660    0.9020 C   0  0  0  0  0  0  0  0  0  0  0  0
   -1.5490   -3.1010    1.1610 C   0  0  1  0  0  0  0  0  0  0  0  0
   -2.7040   -3.8760    1.0340 O   0  0  0  0  0  0  0  0  0  0  0  0
   -0.4980   -3.5530    0.1330 C   0  0  2  0  0  0  0  0  0  0  0  0
   -0.2580   -4.9720    0.4600 N   0  0  0  0  0  0  0  0  0  0  0  0
    0.7260   -2.7660    0.3920 C   0  0  0  0  0  0  0  0  0  0  0  0
    1.6270   -3.3290    1.1000 O   0  0  0  0  0  0  0  0  0  0  0  0
   -1.9840   -1.4410   -0.1680 H   0  0  0  0  0  0  0  0  0  0  0  0
   -2.8680   -1.4100    1.3880 H   0  0  0  0  0  0  0  0  0  0  0  0
   -1.1010   -1.0140    1.3400 H   0  0  0  0  0  0  0  0  0  0  0  0
   -1.1340   -3.2530    2.1770 H   0  0  0  0  0  0  0  0  0  0  0  0
   -2.5660   -4.6930    1.5780 H   0  0  0  0  0  0  0  0  0  0  0  0
   -0.8630   -3.4230   -0.8950 H   0  0  0  0  0  0  0  0  0  0  0  0
   -1.1690   -5.4460    0.2490 H   0  0  0  0  0  0  0  0  0  0  0  0
    0.4490   -5.3870   -0.1870 H   0  0  0  0  0  0  0  0  0  0  0  0
    3.1370   -0.7390   -1.0020 C   0  0  0  0  0  0  0  0  0  0  0  0
    2.2270   -0.7580    0.2290 C   0  0  2  0  0  0  0  0  0  0  0  0
    0.9990   -1.4610   -0.0660 N   0  0  0  0  0  0  0  0  0  0  0  0
    2.0580    0.6220    0.6390 C   0  0  0  0  0  0  0  0  0  0  0  0
    3.1150    1.2540    0.9790 O   0  0  0  0  0  0  0  0  0  0  0  0
    2.5650   -0.4330   -1.8980 H   0  0  0  0  0  0  0  0  0  0  0  0
    3.6810   -1.6870   -1.1230 H   0  0  0  0  0  0  0  0  0  0  0  0
    3.8930    0.0530   -0.8190 H   0  0  0  0  0  0  0  0  0  0  0  0
    2.8320   -1.3050    1.0080 H   0  0  0  0  0  0  0  0  0  0  0  0
    0.2890   -0.9790   -0.6440 H   0  0  0  0  0  0  0  0  0  0  0  0
    0.2260    3.4910   -0.0850 C   0  0  0  0  0  0  0  0  0  0  0  0
    0.7570    2.7220    1.1230 C   0  0  2  0  0  0  0  0  0  0  0  0
    0.8540    1.3300    0.6970 N   0  0  0  0  0  0  0  0  0  0  0  0
   -0.2610    2.8810    2.1960 C   0  0  0  0  0  0  0  0  0  0  0  0
   -0.5330    3.9660    2.7290 O   0  0  0  0  0  0  0  0  0  0  0  0
   -0.9350    1.7380    2.6140 O   0  0  0  0  0  0  0  0  0  0  0  0
    0.0790    4.5750    0.1660 H   0  0  0  0  0  0  0  0  0  0  0  0
    0.8910    3.3890   -0.9580 H   0  0  0  0  0  0  0  0  0  0  0  0
   -0.7780    3.0420   -0.2980 H   0  0  0  0  0  0  0  0  0  0  0  0
    1.7320    3.1410    1.3880 H   0  0  0  0  0  0  0  0  0  0  0  0
   -0.0200    0.8500    0.4170 H   0  0  0  0  0  0  0  0  0  0  0  0
  1  2  1  0  0  0  0
  1 10  1  0  0  0  0
  1  9  1  0  0  0  0
  2 11  1  1  0  0  0
  3  2  1  0  0  0  0
  3 12  1  0  0  0  0
  4 13  1  6  0  0  0
  4  6  1  0  0  0  0
  4  5  1  0  0  0  0
  4  2  1  0  0  0  0
  6  7  2  0  0  0  0
  8  1  1  0  0  0  0
 14  5  1  0  0  0  0
 15  5  1  0  0  0  0
 16 23  1  0  0  0  0
 16 17  1  0  0  0  0
 17 19  1  0  0  0  0
 17 24  1  1  0  0  0
 18 17  1  0  0  0  0
 18  6  1  0  0  0  0
 19 28  1  0  0  0  0
 19 20  2  0  0  0  0
 21 16  1  0  0  0  0
 22 16  1  0  0  0  0
 25 18  1  0  0  0  0
 26 32  1  0  0  0  0
 26 27  1  0  0  0  0
 27 35  1  1  0  0  0
 27 29  1  0  0  0  0
 28 27  1  0  0  0  0
 29 31  2  0  0  0  0
 29 30  1  0  0  0  0
 33 26  1  0  0  0  0
 34 26  1  0  0  0  0
 36 28  1  0  0  0  0
M  END
$$$$
