TAE.pdb
 OpenBabel07022419113D

 42 41  0  0  1  0  0  0  0  0999 V2000
    0.7050   -4.7930   -0.8240 C   0  0  0  0  0  0  0  0  0  0  0  0
    2.0230   -4.0890   -0.7610 C   0  0  1  0  0  0  0  0  0  0  0  0
    2.6060   -3.8610   -2.0040 O   0  0  0  0  0  0  0  0  0  0  0  0
    2.0030   -2.8570    0.1070 C   0  0  2  0  0  0  0  0  0  0  0  0
    1.3570   -3.2420    1.3540 N   0  0  0  0  0  0  0  0  0  0  0  0
    1.3290   -1.7130   -0.4960 C   0  0  0  0  0  0  0  0  0  0  0  0
    1.8100   -1.0370   -1.4570 O   0  0  0  0  0  0  0  0  0  0  0  0
   -0.1520   -4.1260   -1.0180 H   0  0  0  0  0  0  0  0  0  0  0  0
    0.7400   -5.5140   -1.6640 H   0  0  0  0  0  0  0  0  0  0  0  0
    0.5860   -5.3890    0.1040 H   0  0  0  0  0  0  0  0  0  0  0  0
    2.7320   -4.7970   -0.2350 H   0  0  0  0  0  0  0  0  0  0  0  0
    2.0520   -4.2860   -2.7250 H   0  0  0  0  0  0  0  0  0  0  0  0
    3.0430   -2.5740    0.3550 H   0  0  0  0  0  0  0  0  0  0  0  0
    1.9850   -3.8370    1.9170 H   0  0  0  0  0  0  0  0  0  0  0  0
    0.4230   -3.6560    1.1490 H   0  0  0  0  0  0  0  0  0  0  0  0
   -1.9030   -0.5990   -1.2730 C   0  0  0  0  0  0  0  0  0  0  0  0
   -0.6370   -0.1680   -0.5700 C   0  0  2  0  0  0  0  0  0  0  0  0
    0.0680   -1.3110   -0.0040 N   0  0  0  0  0  0  0  0  0  0  0  0
   -0.8940    0.8710    0.4540 C   0  0  0  0  0  0  0  0  0  0  0  0
   -1.4730    1.9320    0.1320 O   0  0  0  0  0  0  0  0  0  0  0  0
   -2.5130    0.3090   -1.4280 H   0  0  0  0  0  0  0  0  0  0  0  0
   -1.6060   -1.0030   -2.2720 H   0  0  0  0  0  0  0  0  0  0  0  0
   -2.4630   -1.3780   -0.7660 H   0  0  0  0  0  0  0  0  0  0  0  0
   -0.0060    0.3040   -1.3600 H   0  0  0  0  0  0  0  0  0  0  0  0
   -0.4130   -1.8340    0.7860 H   0  0  0  0  0  0  0  0  0  0  0  0
   -0.4850    0.6510    1.7810 N   0  0  0  0  0  0  0  0  0  0  0  0
   -0.6640    1.5360    2.8830 C   0  0  1  0  0  0  0  0  0  0  0  0
    0.2870    2.6860    2.9690 C   0  0  0  0  0  0  0  0  0  0  0  0
    1.7250    2.3720    3.0920 C   0  0  0  0  0  0  0  0  0  0  0  0
    2.2530    1.6310    1.9550 C   0  0  0  0  0  0  0  0  0  0  0  0
    2.5670    0.4130    1.9570 O   0  0  0  0  0  0  0  0  0  0  0  0
   -2.0740    2.0160    2.9990 C   0  0  0  0  0  0  0  0  0  0  0  0
   -2.9310    1.6130    2.2050 O   0  0  0  0  0  0  0  0  0  0  0  0
    2.4400    2.2950    0.7450 O   0  0  0  0  0  0  0  0  0  0  0  0
   -2.4200    2.9070    3.9910 O   0  0  0  0  0  0  0  0  0  0  0  0
    0.0010   -0.2780    1.9920 H   0  0  0  0  0  0  0  0  0  0  0  0
   -0.5310    0.9160    3.8370 H   0  0  0  0  0  0  0  0  0  0  0  0
    0.1770    3.3190    2.0300 H   0  0  0  0  0  0  0  0  0  0  0  0
   -0.0020    3.3460    3.8290 H   0  0  0  0  0  0  0  0  0  0  0  0
    1.9830    1.8880    4.0760 H   0  0  0  0  0  0  0  0  0  0  0  0
    2.2720    3.3610    3.1500 H   0  0  0  0  0  0  0  0  0  0  0  0
    3.1140    1.9590    0.0530 H   0  0  0  0  0  0  0  0  0  0  0  0
  1  2  1  0  0  0  0
  1 10  1  0  0  0  0
  2 11  1  1  0  0  0
  2  4  1  0  0  0  0
  3  2  1  0  0  0  0
  4 13  1  1  0  0  0
  4  5  1  0  0  0  0
  5 14  1  0  0  0  0
  6 18  1  0  0  0  0
  6  4  1  0  0  0  0
  7  6  2  0  0  0  0
  8  1  1  0  0  0  0
  9  1  1  0  0  0  0
 12  3  1  0  0  0  0
 15  5  1  0  0  0  0
 16 23  1  0  0  0  0
 16 17  1  0  0  0  0
 17 24  1  6  0  0  0
 17 18  1  0  0  0  0
 17 19  1  0  0  0  0
 18 25  1  0  0  0  0
 19 26  1  0  0  0  0
 20 19  2  0  0  0  0
 21 16  1  0  0  0  0
 22 16  1  0  0  0  0
 26 36  1  0  0  0  0
 26 27  1  0  0  0  0
 27 28  1  0  0  0  0
 27 32  1  0  0  0  0
 27 37  1  1  0  0  0
 28 29  1  0  0  0  0
 28 39  1  0  0  0  0
 29 41  1  0  0  0  0
 29 40  1  0  0  0  0
 30 31  2  0  0  0  0
 30 29  1  0  0  0  0
 32 35  1  0  0  0  0
 33 32  2  0  0  0  0
 34 30  1  0  0  0  0
 38 28  1  0  0  0  0
 42 34  1  0  0  0  0
M  END
$$$$
