TAH.pdb
 OpenBabel07022419113D

 43 43  0  0  1  0  0  0  0  0999 V2000
    4.0330   -4.6300    0.9960 C   0  0  0  0  0  0  0  0  0  0  0  0
    3.5520   -3.4880    0.1350 C   0  0  1  0  0  0  0  0  0  0  0  0
    2.7590   -3.9580   -0.9150 O   0  0  0  0  0  0  0  0  0  0  0  0
    2.7690   -2.4710    0.9290 C   0  0  2  0  0  0  0  0  0  0  0  0
    1.5490   -3.0630    1.4980 N   0  0  0  0  0  0  0  0  0  0  0  0
    2.3930   -1.3750   -0.0170 C   0  0  0  0  0  0  0  0  0  0  0  0
    3.2740   -0.7720   -0.6780 O   0  0  0  0  0  0  0  0  0  0  0  0
    5.0810   -4.8410    0.7370 H   0  0  0  0  0  0  0  0  0  0  0  0
    3.9940   -4.2950    2.0390 H   0  0  0  0  0  0  0  0  0  0  0  0
    3.4370   -5.5520    0.8450 H   0  0  0  0  0  0  0  0  0  0  0  0
    4.4270   -2.9650   -0.2760 H   0  0  0  0  0  0  0  0  0  0  0  0
    3.2780   -4.0660   -1.7450 H   0  0  0  0  0  0  0  0  0  0  0  0
    3.3510   -2.1230    1.7890 H   0  0  0  0  0  0  0  0  0  0  0  0
    1.0330   -3.5560    0.7090 H   0  0  0  0  0  0  0  0  0  0  0  0
    1.7920   -3.7690    2.2280 H   0  0  0  0  0  0  0  0  0  0  0  0
   -0.4070   -0.4380   -2.0800 C   0  0  0  0  0  0  0  0  0  0  0  0
    0.6330    0.0650   -1.1070 C   0  0  2  0  0  0  0  0  0  0  0  0
    1.0490   -0.9780   -0.2070 N   0  0  0  0  0  0  0  0  0  0  0  0
    0.0650    1.2130   -0.3210 C   0  0  0  0  0  0  0  0  0  0  0  0
   -0.4060    2.2340   -0.8610 O   0  0  0  0  0  0  0  0  0  0  0  0
   -0.1590   -0.2060   -3.1340 H   0  0  0  0  0  0  0  0  0  0  0  0
   -0.4580   -1.5370   -2.0010 H   0  0  0  0  0  0  0  0  0  0  0  0
   -1.4100    0.0260   -1.8470 H   0  0  0  0  0  0  0  0  0  0  0  0
    1.4730    0.4860   -1.6930 H   0  0  0  0  0  0  0  0  0  0  0  0
    0.2750   -1.4560    0.3300 H   0  0  0  0  0  0  0  0  0  0  0  0
    0.0330    1.2020    1.0970 N   0  0  0  0  0  0  0  0  0  0  0  0
   -0.4910    2.2620    1.8660 C   0  0  1  0  0  0  0  0  0  0  0  0
   -1.6410    1.9690    2.7530 C   0  0  0  0  0  0  0  0  0  0  0  0
   -2.7670    1.4830    1.9200 C   0  0  0  0  0  0  0  0  0  0  0  0
   -3.1120    0.2190    1.5420 C   0  0  0  0  0  0  0  0  0  0  0  0
   -4.2150    0.2980    0.7910 N   0  0  0  0  0  0  0  0  0  0  0  0
   -4.5650    1.5910    0.6940 C   0  0  0  0  0  0  0  0  0  0  0  0
   -3.6860    2.3030    1.3790 N   0  0  0  0  0  0  0  0  0  0  0  0
    0.5400    3.0020    2.6500 C   0  0  0  0  0  0  0  0  0  0  0  0
    0.1210    3.9610    3.3610 O   0  0  0  0  0  0  0  0  0  0  0  0
    1.8950    2.6740    2.6160 O   0  0  0  0  0  0  0  0  0  0  0  0
    0.4200    0.3650    1.5910 H   0  0  0  0  0  0  0  0  0  0  0  0
   -0.8670    3.0480    1.1380 H   0  0  0  0  0  0  0  0  0  0  0  0
   -1.9680    2.9250    3.2040 H   0  0  0  0  0  0  0  0  0  0  0  0
   -1.4170    1.3000    3.6020 H   0  0  0  0  0  0  0  0  0  0  0  0
   -2.5810   -0.6730    1.8090 H   0  0  0  0  0  0  0  0  0  0  0  0
   -4.7660   -0.4600    0.3260 H   0  0  0  0  0  0  0  0  0  0  0  0
   -5.4210    2.0090    0.1510 H   0  0  0  0  0  0  0  0  0  0  0  0
  1  9  1  0  0  0  0
  2 11  1  6  0  0  0
  2  4  1  0  0  0  0
  2  1  1  0  0  0  0
  3  2  1  0  0  0  0
  4  5  1  0  0  0  0
  4 13  1  1  0  0  0
  5 15  1  0  0  0  0
  6  4  1  0  0  0  0
  7  6  2  0  0  0  0
  8  1  1  0  0  0  0
 10  1  1  0  0  0  0
 12  3  1  0  0  0  0
 14  5  1  0  0  0  0
 16 22  1  0  0  0  0
 16 23  1  0  0  0  0
 16 17  1  0  0  0  0
 17 24  1  6  0  0  0
 17 19  1  0  0  0  0
 17 18  1  0  0  0  0
 18  6  1  0  0  0  0
 18 25  1  0  0  0  0
 19 26  1  0  0  0  0
 20 19  2  0  0  0  0
 21 16  1  0  0  0  0
 26 37  1  0  0  0  0
 26 27  1  0  0  0  0
 27 38  1  6  0  0  0
 27 34  1  0  0  0  0
 27 28  1  0  0  0  0
 28 39  1  0  0  0  0
 28 40  1  0  0  0  0
 29 28  1  0  0  0  0
 30 41  1  0  0  0  0
 30 29  2  0  0  0  0
 31 30  1  0  0  0  0
 32 31  1  0  0  0  0
 32 33  2  0  0  0  0
 33 29  1  0  0  0  0
 34 35  1  0  0  0  0
 36 34  2  0  0  0  0
 42 31  1  0  0  0  0
 43 32  1  0  0  0  0
M  END
$$$$
