TAN.pdb
 OpenBabel07022419103D

 40 39  0  0  1  0  0  0  0  0999 V2000
    3.2760    0.5890    0.9030 C   0  0  0  0  0  0  0  0  0  0  0  0
    3.1080   -0.7550    0.2360 C   0  0  1  0  0  0  0  0  0  0  0  0
    2.3400   -1.5810    1.0070 O   0  0  0  0  0  0  0  0  0  0  0  0
    2.6650   -0.6110   -1.2010 C   0  0  2  0  0  0  0  0  0  0  0  0
    3.6080    0.2890   -1.8300 N   0  0  0  0  0  0  0  0  0  0  0  0
    1.3180   -0.0890   -1.3910 C   0  0  0  0  0  0  0  0  0  0  0  0
    1.1460    0.9840   -2.0330 O   0  0  0  0  0  0  0  0  0  0  0  0
    2.3410    0.9500    1.3860 H   0  0  0  0  0  0  0  0  0  0  0  0
    4.0370    0.5060    1.7310 H   0  0  0  0  0  0  0  0  0  0  0  0
    3.7110    1.3290    0.1910 H   0  0  0  0  0  0  0  0  0  0  0  0
    4.1470   -1.1950    0.1790 H   0  0  0  0  0  0  0  0  0  0  0  0
    2.7880   -2.4300    1.1460 H   0  0  0  0  0  0  0  0  0  0  0  0
    2.7570   -1.5920   -1.7490 H   0  0  0  0  0  0  0  0  0  0  0  0
    3.7490   -0.0040   -2.8180 H   0  0  0  0  0  0  0  0  0  0  0  0
    3.2050    1.2730   -1.8520 H   0  0  0  0  0  0  0  0  0  0  0  0
   -1.9930   -1.0840   -1.9590 C   0  0  0  0  0  0  0  0  0  0  0  0
   -1.1170   -0.1780   -1.1140 C   0  0  2  0  0  0  0  0  0  0  0  0
    0.1720   -0.7710   -0.8650 N   0  0  0  0  0  0  0  0  0  0  0  0
   -1.7900    0.1410    0.1740 C   0  0  0  0  0  0  0  0  0  0  0  0
   -2.9390    0.6460    0.2240 O   0  0  0  0  0  0  0  0  0  0  0  0
   -3.0590   -0.8930   -1.8730 H   0  0  0  0  0  0  0  0  0  0  0  0
   -1.7190   -1.0280   -3.0390 H   0  0  0  0  0  0  0  0  0  0  0  0
   -1.8260   -2.1570   -1.6750 H   0  0  0  0  0  0  0  0  0  0  0  0
   -1.0150    0.7640   -1.6860 H   0  0  0  0  0  0  0  0  0  0  0  0
    0.3090   -1.6600   -0.3310 H   0  0  0  0  0  0  0  0  0  0  0  0
   -0.4200   -3.2780    2.8560 N   0  0  0  0  0  0  0  0  0  0  0  0
   -0.5350   -1.9480    3.4120 C   0  0  0  0  0  0  0  0  0  0  0  0
    0.4730   -1.4220    3.9170 O   0  0  0  0  0  0  0  0  0  0  0  0
   -1.8330   -1.2340    3.3710 C   0  0  0  0  0  0  0  0  0  0  0  0
   -1.6100    0.1060    2.7110 C   0  0  2  0  0  0  0  0  0  0  0  0
   -1.1080   -0.1360    1.3800 N   0  0  0  0  0  0  0  0  0  0  0  0
   -0.7950    1.0430    3.4880 C   0  0  0  0  0  0  0  0  0  0  0  0
    0.2090    1.5650    2.9950 O   0  0  0  0  0  0  0  0  0  0  0  0
   -1.1590    1.3400    4.7840 O   0  0  0  0  0  0  0  0  0  0  0  0
    0.5120   -3.6580    2.6270 H   0  0  0  0  0  0  0  0  0  0  0  0
   -1.2560   -3.8600    2.6760 H   0  0  0  0  0  0  0  0  0  0  0  0
   -2.2150   -1.1080    4.4240 H   0  0  0  0  0  0  0  0  0  0  0  0
   -2.5600   -1.8380    2.8070 H   0  0  0  0  0  0  0  0  0  0  0  0
   -2.6280    0.5630    2.5900 H   0  0  0  0  0  0  0  0  0  0  0  0
   -0.1540   -0.5460    1.3210 H   0  0  0  0  0  0  0  0  0  0  0  0
  1  8  1  0  0  0  0
  1  9  1  0  0  0  0
  2 11  1  6  0  0  0
  2  1  1  0  0  0  0
  2  3  1  0  0  0  0
  3 12  1  0  0  0  0
  4 13  1  6  0  0  0
  4  2  1  0  0  0  0
  5  4  1  0  0  0  0
  6  4  1  0  0  0  0
  6 18  1  0  0  0  0
  7  6  2  0  0  0  0
 10  1  1  0  0  0  0
 14  5  1  0  0  0  0
 15  5  1  0  0  0  0
 16 21  1  0  0  0  0
 16 23  1  0  0  0  0
 16 17  1  0  0  0  0
 17 24  1  6  0  0  0
 17 18  1  0  0  0  0
 17 19  1  0  0  0  0
 18 25  1  0  0  0  0
 19 20  2  0  0  0  0
 19 31  1  0  0  0  0
 22 16  1  0  0  0  0
 26 27  1  0  0  0  0
 27 28  2  0  0  0  0
 29 27  1  0  0  0  0
 29 37  1  0  0  0  0
 30 39  1  6  0  0  0
 30 29  1  0  0  0  0
 30 32  1  0  0  0  0
 31 30  1  0  0  0  0
 32 34  1  0  0  0  0
 33 32  2  0  0  0  0
 35 26  1  0  0  0  0
 36 26  1  0  0  0  0
 38 29  1  0  0  0  0
 40 31  1  0  0  0  0
M  END
$$$$
