TAQ.pdb
 OpenBabel07022419113D

 43 42  0  0  1  0  0  0  0  0999 V2000
    0.5560   -4.7830   -3.1840 C   0  0  0  0  0  0  0  0  0  0  0  0
    1.9030   -4.1240   -3.0010 C   0  0  1  0  0  0  0  0  0  0  0  0
    2.2320   -3.2480   -4.0060 O   0  0  0  0  0  0  0  0  0  0  0  0
    2.0340   -3.5020   -1.6270 C   0  0  2  0  0  0  0  0  0  0  0  0
    1.6840   -4.4450   -0.6020 N   0  0  0  0  0  0  0  0  0  0  0  0
    1.2570   -2.2410   -1.5070 C   0  0  0  0  0  0  0  0  0  0  0  0
    1.4780   -1.3330   -2.3550 O   0  0  0  0  0  0  0  0  0  0  0  0
    0.6660   -5.5030   -4.0220 H   0  0  0  0  0  0  0  0  0  0  0  0
   -0.2340   -4.0290   -3.3800 H   0  0  0  0  0  0  0  0  0  0  0  0
    0.3600   -5.3950   -2.2800 H   0  0  0  0  0  0  0  0  0  0  0  0
    2.6590   -4.9540   -3.0310 H   0  0  0  0  0  0  0  0  0  0  0  0
    2.7860   -3.6810   -4.7110 H   0  0  0  0  0  0  0  0  0  0  0  0
    3.1010   -3.2250   -1.4640 H   0  0  0  0  0  0  0  0  0  0  0  0
    2.2730   -4.3900    0.2490 H   0  0  0  0  0  0  0  0  0  0  0  0
    0.6800   -4.5690   -0.4430 H   0  0  0  0  0  0  0  0  0  0  0  0
   -1.9270   -1.0280   -0.5980 C   0  0  0  0  0  0  0  0  0  0  0  0
   -0.4560   -0.7570   -0.4070 C   0  0  2  0  0  0  0  0  0  0  0  0
    0.2950   -1.9890   -0.5150 N   0  0  0  0  0  0  0  0  0  0  0  0
   -0.1500   -0.1180    0.8810 C   0  0  0  0  0  0  0  0  0  0  0  0
    0.6600   -0.6820    1.6590 O   0  0  0  0  0  0  0  0  0  0  0  0
   -2.0030   -1.9190   -1.2620 H   0  0  0  0  0  0  0  0  0  0  0  0
   -2.4340   -1.3110    0.3480 H   0  0  0  0  0  0  0  0  0  0  0  0
   -2.4320   -0.1970   -1.1270 H   0  0  0  0  0  0  0  0  0  0  0  0
   -0.1590   -0.0480   -1.2190 H   0  0  0  0  0  0  0  0  0  0  0  0
    0.0950   -2.7230    0.1970 H   0  0  0  0  0  0  0  0  0  0  0  0
    1.8660    3.6300    5.7960 N   0  0  0  0  0  0  0  0  0  0  0  0
    1.5450    3.1890    4.4890 C   0  0  0  0  0  0  0  0  0  0  0  0
    2.1540    2.1920    3.9810 O   0  0  0  0  0  0  0  0  0  0  0  0
    0.5120    3.8430    3.6560 C   0  0  0  0  0  0  0  0  0  0  0  0
    0.1620    3.1040    2.4020 C   0  0  0  0  0  0  0  0  0  0  0  0
   -0.3990    1.7340    2.6030 C   0  0  2  0  0  0  0  0  0  0  0  0
   -0.7030    1.0990    1.3230 N   0  0  0  0  0  0  0  0  0  0  0  0
   -1.6450    1.7080    3.4060 C   0  0  0  0  0  0  0  0  0  0  0  0
   -2.6810    1.2240    2.8830 O   0  0  0  0  0  0  0  0  0  0  0  0
   -1.7780    2.1710    4.6960 O   0  0  0  0  0  0  0  0  0  0  0  0
    1.1770    3.5720    6.5680 H   0  0  0  0  0  0  0  0  0  0  0  0
    2.8040    4.0210    5.9990 H   0  0  0  0  0  0  0  0  0  0  0  0
    0.9050    4.8600    3.3930 H   0  0  0  0  0  0  0  0  0  0  0  0
   -0.4380    3.9600    4.2530 H   0  0  0  0  0  0  0  0  0  0  0  0
   -0.6400    3.7300    1.9010 H   0  0  0  0  0  0  0  0  0  0  0  0
    0.9930    3.1190    1.6550 H   0  0  0  0  0  0  0  0  0  0  0  0
    0.3300    1.1220    3.1810 H   0  0  0  0  0  0  0  0  0  0  0  0
   -1.3750    1.5790    0.6910 H   0  0  0  0  0  0  0  0  0  0  0  0
  1  2  1  0  0  0  0
  1 10  1  0  0  0  0
  2 11  1  6  0  0  0
  2  4  1  0  0  0  0
  3  2  1  0  0  0  0
  4  6  1  0  0  0  0
  4 13  1  1  0  0  0
  4  5  1  0  0  0  0
  5 15  1  0  0  0  0
  5 14  1  0  0  0  0
  6 18  1  0  0  0  0
  7  6  2  0  0  0  0
  8  1  1  0  0  0  0
  9  1  1  0  0  0  0
 12  3  1  0  0  0  0
 16 17  1  0  0  0  0
 16 22  1  0  0  0  0
 17 24  1  6  0  0  0
 17 19  1  0  0  0  0
 18 17  1  0  0  0  0
 18 25  1  0  0  0  0
 19 32  1  0  0  0  0
 19 20  2  0  0  0  0
 21 16  1  0  0  0  0
 23 16  1  0  0  0  0
 26 37  1  0  0  0  0
 26 36  1  0  0  0  0
 27 26  1  0  0  0  0
 28 27  2  0  0  0  0
 29 39  1  0  0  0  0
 29 27  1  0  0  0  0
 30 31  1  0  0  0  0
 30 29  1  0  0  0  0
 31 42  1  1  0  0  0
 31 33  1  0  0  0  0
 32 31  1  0  0  0  0
 33 35  1  0  0  0  0
 34 33  2  0  0  0  0
 38 29  1  0  0  0  0
 40 30  1  0  0  0  0
 41 30  1  0  0  0  0
 43 32  1  0  0  0  0
M  END
$$$$
