TAS.pdb
 OpenBabel07022419113D

 37 36  0  0  1  0  0  0  0  0999 V2000
    0.9980   -3.3760    2.2040 C   0  0  0  0  0  0  0  0  0  0  0  0
    1.6180   -4.0870    1.0250 C   0  0  1  0  0  0  0  0  0  0  0  0
    1.8430   -5.4220    1.3860 O   0  0  0  0  0  0  0  0  0  0  0  0
    0.6720   -4.0050   -0.1600 C   0  0  2  0  0  0  0  0  0  0  0  0
    1.2820   -4.7390   -1.2730 N   0  0  0  0  0  0  0  0  0  0  0  0
    0.4840   -2.5890   -0.5110 C   0  0  0  0  0  0  0  0  0  0  0  0
    1.1160   -2.1510   -1.5230 O   0  0  0  0  0  0  0  0  0  0  0  0
   -0.0650   -3.6390    2.3630 H   0  0  0  0  0  0  0  0  0  0  0  0
    1.5040   -3.7850    3.1400 H   0  0  0  0  0  0  0  0  0  0  0  0
    1.1100   -2.2820    2.1630 H   0  0  0  0  0  0  0  0  0  0  0  0
    2.6020   -3.6340    0.8170 H   0  0  0  0  0  0  0  0  0  0  0  0
    1.9140   -5.5300    2.3690 H   0  0  0  0  0  0  0  0  0  0  0  0
   -0.2570   -4.5340    0.0930 H   0  0  0  0  0  0  0  0  0  0  0  0
    2.1710   -5.1720   -1.0150 H   0  0  0  0  0  0  0  0  0  0  0  0
    0.5870   -5.3230   -1.7390 H   0  0  0  0  0  0  0  0  0  0  0  0
   -1.8860   -0.0770   -0.7520 C   0  0  0  0  0  0  0  0  0  0  0  0
   -0.4500   -0.2640   -0.2630 C   0  0  2  0  0  0  0  0  0  0  0  0
   -0.3230   -1.6480    0.1460 N   0  0  0  0  0  0  0  0  0  0  0  0
   -0.2060    0.6820    0.8240 C   0  0  0  0  0  0  0  0  0  0  0  0
    0.0800    0.2610    1.9720 O   0  0  0  0  0  0  0  0  0  0  0  0
   -2.4950    0.1200    0.1690 H   0  0  0  0  0  0  0  0  0  0  0  0
   -1.8970    0.8370   -1.3550 H   0  0  0  0  0  0  0  0  0  0  0  0
   -2.2490   -0.9770   -1.2720 H   0  0  0  0  0  0  0  0  0  0  0  0
    0.1910   -0.1240   -1.1520 H   0  0  0  0  0  0  0  0  0  0  0  0
   -0.8830   -1.9350    0.9680 H   0  0  0  0  0  0  0  0  0  0  0  0
    2.3070    3.0440    1.1310 O   0  0  0  0  0  0  0  0  0  0  0  0
    1.1850    3.8550    1.3190 C   0  0  0  0  0  0  0  0  0  0  0  0
   -0.0330    3.0280    1.7310 C   0  0  2  0  0  0  0  0  0  0  0  0
   -0.2730    2.0900    0.6630 N   0  0  0  0  0  0  0  0  0  0  0  0
   -1.1420    3.9690    1.9340 C   0  0  0  0  0  0  0  0  0  0  0  0
   -1.0600    4.8400    2.8350 O   0  0  0  0  0  0  0  0  0  0  0  0
   -2.2980    3.9460    1.1670 O   0  0  0  0  0  0  0  0  0  0  0  0
    2.4030    2.7560    0.1740 H   0  0  0  0  0  0  0  0  0  0  0  0
    0.9900    4.3990    0.3860 H   0  0  0  0  0  0  0  0  0  0  0  0
    1.4510    4.5690    2.1330 H   0  0  0  0  0  0  0  0  0  0  0  0
    0.2010    2.4760    2.6570 H   0  0  0  0  0  0  0  0  0  0  0  0
   -0.5090    2.4790   -0.2830 H   0  0  0  0  0  0  0  0  0  0  0  0
  1  8  1  0  0  0  0
  1  9  1  0  0  0  0
  2 11  1  6  0  0  0
  2  3  1  0  0  0  0
  2  1  1  0  0  0  0
  3 12  1  0  0  0  0
  4 13  1  1  0  0  0
  4  2  1  0  0  0  0
  5 14  1  0  0  0  0
  5  4  1  0  0  0  0
  6  4  1  0  0  0  0
  6 18  1  0  0  0  0
  7  6  2  0  0  0  0
 10  1  1  0  0  0  0
 15  5  1  0  0  0  0
 16 17  1  0  0  0  0
 16 21  1  0  0  0  0
 17 24  1  6  0  0  0
 17 18  1  0  0  0  0
 17 19  1  0  0  0  0
 18 25  1  0  0  0  0
 19 20  2  0  0  0  0
 22 16  1  0  0  0  0
 23 16  1  0  0  0  0
 26 27  1  0  0  0  0
 27 28  1  0  0  0  0
 27 35  1  0  0  0  0
 28 30  1  0  0  0  0
 28 36  1  1  0  0  0
 29 19  1  0  0  0  0
 29 28  1  0  0  0  0
 30 31  1  0  0  0  0
 32 30  2  0  0  0  0
 33 26  1  0  0  0  0
 34 27  1  0  0  0  0
 37 29  1  0  0  0  0
M  END
$$$$
