TAW.pdb
 OpenBabel07022419113D

 50 51  0  0  1  0  0  0  0  0999 V2000
    0.1230   -4.1070    1.8010 C   0  0  0  0  0  0  0  0  0  0  0  0
    0.6480   -2.7230    2.1010 C   0  0  1  0  0  0  0  0  0  0  0  0
    0.0430   -2.1760    3.2340 O   0  0  0  0  0  0  0  0  0  0  0  0
    2.1630   -2.7370    2.3390 C   0  0  2  0  0  0  0  0  0  0  0  0
    2.3830   -3.5530    3.5180 N   0  0  0  0  0  0  0  0  0  0  0  0
    2.5110   -1.3070    2.6610 C   0  0  0  0  0  0  0  0  0  0  0  0
    2.8440   -0.9350    3.8140 O   0  0  0  0  0  0  0  0  0  0  0  0
    0.4750   -4.8270    2.5650 H   0  0  0  0  0  0  0  0  0  0  0  0
   -0.9750   -4.0840    1.8510 H   0  0  0  0  0  0  0  0  0  0  0  0
    0.4820   -4.3870    0.7840 H   0  0  0  0  0  0  0  0  0  0  0  0
    0.4090   -2.0910    1.2110 H   0  0  0  0  0  0  0  0  0  0  0  0
   -0.5760   -1.4380    3.0350 H   0  0  0  0  0  0  0  0  0  0  0  0
    2.7200   -3.0520    1.4580 H   0  0  0  0  0  0  0  0  0  0  0  0
    2.3830   -4.5520    3.2180 H   0  0  0  0  0  0  0  0  0  0  0  0
    3.3640   -3.3640    3.8370 H   0  0  0  0  0  0  0  0  0  0  0  0
    4.0670    1.5010    1.1780 C   0  0  0  0  0  0  0  0  0  0  0  0
    2.8000    1.0780    1.8990 C   0  0  2  0  0  0  0  0  0  0  0  0
    2.4780   -0.3000    1.6510 N   0  0  0  0  0  0  0  0  0  0  0  0
    1.6490    1.9130    1.5170 C   0  0  0  0  0  0  0  0  0  0  0  0
    1.6370    3.1690    1.6270 O   0  0  0  0  0  0  0  0  0  0  0  0
    4.8670    0.8220    1.5710 H   0  0  0  0  0  0  0  0  0  0  0  0
    4.0160    1.4030    0.0950 H   0  0  0  0  0  0  0  0  0  0  0  0
    4.3090    2.5110    1.5240 H   0  0  0  0  0  0  0  0  0  0  0  0
    3.0120    1.2780    2.9780 H   0  0  0  0  0  0  0  0  0  0  0  0
    2.2040   -0.6210    0.6980 H   0  0  0  0  0  0  0  0  0  0  0  0
    0.4820    1.3120    0.9960 N   0  0  0  0  0  0  0  0  0  0  0  0
   -0.7030    2.0900    0.5890 C   0  0  1  0  0  0  0  0  0  0  0  0
   -0.8210    1.9020   -0.8840 C   0  0  0  0  0  0  0  0  0  0  0  0
   -0.9630    0.5330   -1.3670 C   0  0  0  0  0  0  0  0  0  0  0  0
    0.0430   -0.3200   -1.8160 C   0  0  0  0  0  0  0  0  0  0  0  0
   -0.4400   -1.5050   -2.1390 N   0  0  0  0  0  0  0  0  0  0  0  0
   -1.7520   -1.4770   -1.9210 C   0  0  0  0  0  0  0  0  0  0  0  0
   -2.7030   -2.4660   -2.1130 C   0  0  0  0  0  0  0  0  0  0  0  0
   -4.0300   -2.2570   -1.8430 C   0  0  0  0  0  0  0  0  0  0  0  0
   -4.3820   -1.0190   -1.3710 C   0  0  0  0  0  0  0  0  0  0  0  0
   -3.4420   -0.0170   -1.1730 C   0  0  0  0  0  0  0  0  0  0  0  0
   -2.1120   -0.2130   -1.4370 C   0  0  0  0  0  0  0  0  0  0  0  0
   -1.9120    1.7520    1.2980 C   0  0  0  0  0  0  0  0  0  0  0  0
   -2.9330    2.4940    1.1080 O   0  0  0  0  0  0  0  0  0  0  0  0
   -2.0830    0.6860    2.1800 O   0  0  0  0  0  0  0  0  0  0  0  0
    0.3960    0.2870    0.8710 H   0  0  0  0  0  0  0  0  0  0  0  0
   -0.4670    3.1660    0.7860 H   0  0  0  0  0  0  0  0  0  0  0  0
    0.0150    2.4290   -1.4200 H   0  0  0  0  0  0  0  0  0  0  0  0
   -1.7390    2.4710   -1.2210 H   0  0  0  0  0  0  0  0  0  0  0  0
    1.0680   -0.0280   -1.8810 H   0  0  0  0  0  0  0  0  0  0  0  0
    0.1000   -2.3350   -2.5060 H   0  0  0  0  0  0  0  0  0  0  0  0
   -2.4210   -3.4530   -2.4900 H   0  0  0  0  0  0  0  0  0  0  0  0
   -4.7920   -3.0230   -1.9880 H   0  0  0  0  0  0  0  0  0  0  0  0
   -5.4390   -0.8130   -1.1430 H   0  0  0  0  0  0  0  0  0  0  0  0
   -3.7390    0.9410   -0.8220 H   0  0  0  0  0  0  0  0  0  0  0  0
  1  9  1  0  0  0  0
  1  2  1  0  0  0  0
  1  8  1  0  0  0  0
  2 11  1  6  0  0  0
  2  4  1  0  0  0  0
  2  3  1  0  0  0  0
  4 13  1  6  0  0  0
  4  6  1  0  0  0  0
  4  5  1  0  0  0  0
  5 15  1  0  0  0  0
  6  7  2  0  0  0  0
 10  1  1  0  0  0  0
 12  3  1  0  0  0  0
 14  5  1  0  0  0  0
 16 23  1  0  0  0  0
 16 21  1  0  0  0  0
 16 17  1  0  0  0  0
 17 24  1  1  0  0  0
 18 17  1  0  0  0  0
 18  6  1  0  0  0  0
 19 20  2  0  0  0  0
 19 17  1  0  0  0  0
 22 16  1  0  0  0  0
 25 18  1  0  0  0  0
 26 19  1  0  0  0  0
 27 42  1  1  0  0  0
 27 26  1  0  0  0  0
 27 38  1  0  0  0  0
 28 27  1  0  0  0  0
 29 28  1  0  0  0  0
 30 29  2  0  0  0  0
 31 32  1  0  0  0  0
 31 30  1  0  0  0  0
 32 37  1  0  0  0  0
 33 32  2  0  0  0  0
 33 34  1  0  0  0  0
 34 35  2  0  0  0  0
 35 36  1  0  0  0  0
 35 49  1  0  0  0  0
 36 50  1  0  0  0  0
 37 29  1  0  0  0  0
 37 36  2  0  0  0  0
 38 40  1  0  0  0  0
 39 38  2  0  0  0  0
 41 26  1  0  0  0  0
 43 28  1  0  0  0  0
 44 28  1  0  0  0  0
 45 30  1  0  0  0  0
 46 31  1  0  0  0  0
 47 33  1  0  0  0  0
 48 34  1  0  0  0  0
M  END
$$$$
