TAY.pdb
 OpenBabel07022419113D

 47 47  0  0  1  0  0  0  0  0999 V2000
    1.8870   -5.4260   -0.9460 C   0  0  0  0  0  0  0  0  0  0  0  0
    1.7390   -4.1820   -1.8190 C   0  0  1  0  0  0  0  0  0  0  0  0
    1.2740   -4.6340   -3.0730 O   0  0  0  0  0  0  0  0  0  0  0  0
    0.6160   -3.3640   -1.2260 C   0  0  2  0  0  0  0  0  0  0  0  0
    0.2730   -2.2420   -2.0560 N   0  0  0  0  0  0  0  0  0  0  0  0
    1.0300   -2.9450    0.1410 C   0  0  0  0  0  0  0  0  0  0  0  0
    1.3640   -3.8040    0.9970 O   0  0  0  0  0  0  0  0  0  0  0  0
    2.0910   -6.3000   -1.6070 H   0  0  0  0  0  0  0  0  0  0  0  0
    2.7210   -5.3060   -0.2280 H   0  0  0  0  0  0  0  0  0  0  0  0
    0.9500   -5.6270   -0.4100 H   0  0  0  0  0  0  0  0  0  0  0  0
    2.6760   -3.6290   -1.8940 H   0  0  0  0  0  0  0  0  0  0  0  0
    1.5140   -5.5730   -3.2290 H   0  0  0  0  0  0  0  0  0  0  0  0
   -0.2820   -4.0290   -1.1910 H   0  0  0  0  0  0  0  0  0  0  0  0
   -0.6380   -1.8600   -1.7190 H   0  0  0  0  0  0  0  0  0  0  0  0
    0.1450   -2.5950   -3.0290 H   0  0  0  0  0  0  0  0  0  0  0  0
    2.6900   -0.2760    1.8390 C   0  0  0  0  0  0  0  0  0  0  0  0
    1.4670   -1.1560    1.8690 C   0  0  2  0  0  0  0  0  0  0  0  0
    1.0670   -1.5810    0.5430 N   0  0  0  0  0  0  0  0  0  0  0  0
    0.3170   -0.5150    2.5220 C   0  0  0  0  0  0  0  0  0  0  0  0
    0.4060   -0.0600    3.6780 O   0  0  0  0  0  0  0  0  0  0  0  0
    3.2580   -0.4220    2.7930 H   0  0  0  0  0  0  0  0  0  0  0  0
    2.4710    0.7900    1.7170 H   0  0  0  0  0  0  0  0  0  0  0  0
    3.3540   -0.6110    1.0280 H   0  0  0  0  0  0  0  0  0  0  0  0
    1.7200   -2.0660    2.4630 H   0  0  0  0  0  0  0  0  0  0  0  0
    0.7960   -0.8490   -0.1440 H   0  0  0  0  0  0  0  0  0  0  0  0
    1.0870    5.4880    0.6460 O   0  0  0  0  0  0  0  0  0  0  0  0
    0.1630    4.4750    0.8960 C   0  0  0  0  0  0  0  0  0  0  0  0
   -0.6740    4.4980    1.9980 C   0  0  0  0  0  0  0  0  0  0  0  0
   -1.5940    3.5150    2.2710 C   0  0  0  0  0  0  0  0  0  0  0  0
   -1.7050    2.4600    1.4300 C   0  0  0  0  0  0  0  0  0  0  0  0
   -2.6600    1.3350    1.6140 C   0  0  0  0  0  0  0  0  0  0  0  0
   -2.0920    0.2130    2.4150 C   0  0  2  0  0  0  0  0  0  0  0  0
   -0.9190   -0.3960    1.8590 N   0  0  0  0  0  0  0  0  0  0  0  0
   -3.1350   -0.8410    2.5300 C   0  0  0  0  0  0  0  0  0  0  0  0
   -4.2920   -0.5900    2.9950 O   0  0  0  0  0  0  0  0  0  0  0  0
   -0.8950    2.3940    0.3220 C   0  0  0  0  0  0  0  0  0  0  0  0
    0.0260    3.3870    0.0580 C   0  0  0  0  0  0  0  0  0  0  0  0
   -2.9150   -2.1610    2.1380 O   0  0  0  0  0  0  0  0  0  0  0  0
    1.7080    5.7150    1.4360 H   0  0  0  0  0  0  0  0  0  0  0  0
   -0.5900    5.3500    2.6840 H   0  0  0  0  0  0  0  0  0  0  0  0
   -2.2020    3.5980    3.1330 H   0  0  0  0  0  0  0  0  0  0  0  0
   -3.1010    0.9940    0.6500 H   0  0  0  0  0  0  0  0  0  0  0  0
   -3.5110    1.7520    2.1940 H   0  0  0  0  0  0  0  0  0  0  0  0
   -1.8810    0.5700    3.4310 H   0  0  0  0  0  0  0  0  0  0  0  0
   -1.0140   -0.7710    0.8880 H   0  0  0  0  0  0  0  0  0  0  0  0
   -0.9470    1.5590   -0.3900 H   0  0  0  0  0  0  0  0  0  0  0  0
    0.6790    3.3630   -0.8080 H   0  0  0  0  0  0  0  0  0  0  0  0
  1 10  1  0  0  0  0
  1  9  1  0  0  0  0
  2 11  1  6  0  0  0
  2  4  1  0  0  0  0
  2  1  1  0  0  0  0
  3  2  1  0  0  0  0
  4 13  1  1  0  0  0
  4  6  1  0  0  0  0
  5 14  1  0  0  0  0
  5  4  1  0  0  0  0
  6 18  1  0  0  0  0
  6  7  2  0  0  0  0
  8  1  1  0  0  0  0
 12  3  1  0  0  0  0
 15  5  1  0  0  0  0
 16 17  1  0  0  0  0
 16 21  1  0  0  0  0
 17 24  1  1  0  0  0
 17 19  1  0  0  0  0
 18 17  1  0  0  0  0
 19 20  2  0  0  0  0
 22 16  1  0  0  0  0
 23 16  1  0  0  0  0
 25 18  1  0  0  0  0
 26 27  1  0  0  0  0
 26 39  1  0  0  0  0
 27 28  1  0  0  0  0
 28 29  2  0  0  0  0
 28 40  1  0  0  0  0
 29 41  1  0  0  0  0
 30 31  1  0  0  0  0
 30 29  1  0  0  0  0
 31 43  1  0  0  0  0
 31 32  1  0  0  0  0
 32 34  1  0  0  0  0
 32 44  1  1  0  0  0
 33 32  1  0  0  0  0
 33 19  1  0  0  0  0
 34 35  1  0  0  0  0
 36 30  2  0  0  0  0
 37 36  1  0  0  0  0
 37 27  2  0  0  0  0
 38 34  2  0  0  0  0
 42 31  1  0  0  0  0
 45 33  1  0  0  0  0
 46 36  1  0  0  0  0
 47 37  1  0  0  0  0
M  END
$$$$
