TCF.pdb
 OpenBabel07022419123D

 47 47  0  0  1  0  0  0  0  0999 V2000
    1.5970   -4.6280    0.0600 C   0  0  0  0  0  0  0  0  0  0  0  0
    2.8720   -4.4050    0.8420 C   0  0  1  0  0  0  0  0  0  0  0  0
    3.4970   -5.6780    0.8840 O   0  0  0  0  0  0  0  0  0  0  0  0
    3.8400   -3.4770    0.1050 C   0  0  2  0  0  0  0  0  0  0  0  0
    5.0960   -3.4730    0.8820 N   0  0  0  0  0  0  0  0  0  0  0  0
    3.3820   -2.0840    0.0580 C   0  0  0  0  0  0  0  0  0  0  0  0
    3.9940   -1.1580    0.7030 O   0  0  0  0  0  0  0  0  0  0  0  0
    1.8660   -4.6310   -1.0170 H   0  0  0  0  0  0  0  0  0  0  0  0
    1.1710   -5.6430    0.2900 H   0  0  0  0  0  0  0  0  0  0  0  0
    0.8160   -3.8850    0.2730 H   0  0  0  0  0  0  0  0  0  0  0  0
    2.6380   -4.0630    1.8490 H   0  0  0  0  0  0  0  0  0  0  0  0
    3.5370   -5.9660   -0.0810 H   0  0  0  0  0  0  0  0  0  0  0  0
    4.0690   -3.9410   -0.8570 H   0  0  0  0  0  0  0  0  0  0  0  0
    5.6660   -2.6130    0.6360 H   0  0  0  0  0  0  0  0  0  0  0  0
    5.7000   -4.2850    0.6120 H   0  0  0  0  0  0  0  0  0  0  0  0
    2.2670   -1.6230   -0.6700 N   0  0  0  0  0  0  0  0  0  0  0  0
    1.8490   -0.2050   -0.6810 C   0  0  1  0  0  0  0  0  0  0  0  0
    1.9370    0.3170   -2.0990 C   0  0  0  0  0  0  0  0  0  0  0  0
    1.4450    2.0490   -2.1170 S   0  0  0  0  0  0  0  0  0  0  0  0
    0.4640   -0.2110   -0.1750 C   0  0  0  0  0  0  0  0  0  0  0  0
   -0.1280   -1.3140    0.0370 O   0  0  0  0  0  0  0  0  0  0  0  0
    1.6980   -2.2670   -1.2310 H   0  0  0  0  0  0  0  0  0  0  0  0
    2.5300    0.3850   -0.0540 H   0  0  0  0  0  0  0  0  0  0  0  0
    1.2610   -0.2290   -2.7870 H   0  0  0  0  0  0  0  0  0  0  0  0
    2.9970    0.2590   -2.4020 H   0  0  0  0  0  0  0  0  0  0  0  0
    2.5700    2.9140   -2.1570 H   0  0  0  0  0  0  0  0  0  0  0  0
   -0.2570    0.9480    0.0970 N   0  0  0  0  0  0  0  0  0  0  0  0
   -1.6480    0.9090    0.6010 C   0  0  1  0  0  0  0  0  0  0  0  0
   -1.6070    1.5610    1.9580 C   0  0  0  0  0  0  0  0  0  0  0  0
   -2.9050    1.6230    2.6320 C   0  0  0  0  0  0  0  0  0  0  0  0
   -3.7300    2.7130    2.4550 C   0  0  0  0  0  0  0  0  0  0  0  0
   -4.9400    2.7130    3.1160 C   0  0  0  0  0  0  0  0  0  0  0  0
   -5.3120    1.6590    3.9270 C   0  0  0  0  0  0  0  0  0  0  0  0
   -4.4900    0.5600    4.1100 C   0  0  0  0  0  0  0  0  0  0  0  0
   -3.2810    0.5690    3.4450 C   0  0  0  0  0  0  0  0  0  0  0  0
   -2.5420    1.5820   -0.3550 C   0  0  0  0  0  0  0  0  0  0  0  0
   -2.0750    2.0830   -1.4090 O   0  0  0  0  0  0  0  0  0  0  0  0
   -3.9060    1.6970   -0.1500 O   0  0  0  0  0  0  0  0  0  0  0  0
    0.1590    1.8920   -0.0340 H   0  0  0  0  0  0  0  0  0  0  0  0
   -1.9950   -0.1370    0.7170 H   0  0  0  0  0  0  0  0  0  0  0  0
   -0.8790    1.0130    2.5890 H   0  0  0  0  0  0  0  0  0  0  0  0
   -1.2160    2.6080    1.9000 H   0  0  0  0  0  0  0  0  0  0  0  0
   -3.4530    3.5580    1.8190 H   0  0  0  0  0  0  0  0  0  0  0  0
   -5.5880    3.5830    2.9690 H   0  0  0  0  0  0  0  0  0  0  0  0
   -6.2780    1.6950    4.4330 H   0  0  0  0  0  0  0  0  0  0  0  0
   -4.8150   -0.2470    4.7520 H   0  0  0  0  0  0  0  0  0  0  0  0
   -2.6490   -0.3070    3.6040 H   0  0  0  0  0  0  0  0  0  0  0  0
  1 10  1  0  0  0  0
  1  9  1  0  0  0  0
  1  2  1  0  0  0  0
  2  3  1  0  0  0  0
  2 11  1  1  0  0  0
  4 13  1  6  0  0  0
  4  2  1  0  0  0  0
  4  5  1  0  0  0  0
  6  4  1  0  0  0  0
  6  7  2  0  0  0  0
  8  1  1  0  0  0  0
 12  3  1  0  0  0  0
 14  5  1  0  0  0  0
 15  5  1  0  0  0  0
 16  6  1  0  0  0  0
 17 16  1  0  0  0  0
 17 20  1  0  0  0  0
 17 23  1  1  0  0  0
 18 17  1  0  0  0  0
 19 18  1  0  0  0  0
 20 21  2  0  0  0  0
 20 27  1  0  0  0  0
 22 16  1  0  0  0  0
 24 18  1  0  0  0  0
 25 18  1  0  0  0  0
 26 19  1  0  0  0  0
 27 28  1  0  0  0  0
 28 40  1  1  0  0  0
 28 29  1  0  0  0  0
 29 41  1  0  0  0  0
 29 30  1  0  0  0  0
 30 35  1  0  0  0  0
 31 30  2  0  0  0  0
 31 32  1  0  0  0  0
 32 33  2  0  0  0  0
 33 34  1  0  0  0  0
 33 45  1  0  0  0  0
 34 46  1  0  0  0  0
 35 47  1  0  0  0  0
 35 34  2  0  0  0  0
 36 38  1  0  0  0  0
 36 28  1  0  0  0  0
 37 36  2  0  0  0  0
 39 27  1  0  0  0  0
 42 29  1  0  0  0  0
 43 31  1  0  0  0  0
 44 32  1  0  0  0  0
M  END
$$$$
