TCM.pdb
 OpenBabel07022419123D

 44 43  0  0  1  0  0  0  0  0999 V2000
    1.3480   -5.8640    0.7160 C   0  0  0  0  0  0  0  0  0  0  0  0
    1.3720   -4.6640   -0.2080 C   0  0  1  0  0  0  0  0  0  0  0  0
    0.4710   -4.9410   -1.2470 O   0  0  0  0  0  0  0  0  0  0  0  0
    0.9240   -3.4260    0.5480 C   0  0  2  0  0  0  0  0  0  0  0  0
   -0.3760   -3.6790    1.0840 N   0  0  0  0  0  0  0  0  0  0  0  0
    1.0190   -2.2080   -0.2610 C   0  0  0  0  0  0  0  0  0  0  0  0
    2.1130   -1.8840   -0.7860 O   0  0  0  0  0  0  0  0  0  0  0  0
    2.1880   -6.5220    0.4630 H   0  0  0  0  0  0  0  0  0  0  0  0
    0.3750   -6.3930    0.6760 H   0  0  0  0  0  0  0  0  0  0  0  0
    1.5170   -5.4710    1.7460 H   0  0  0  0  0  0  0  0  0  0  0  0
    2.3900   -4.5040   -0.6380 H   0  0  0  0  0  0  0  0  0  0  0  0
   -0.3920   -5.1660   -0.8140 H   0  0  0  0  0  0  0  0  0  0  0  0
    1.6260   -3.3120    1.4180 H   0  0  0  0  0  0  0  0  0  0  0  0
   -1.1530   -3.6490    0.4180 H   0  0  0  0  0  0  0  0  0  0  0  0
   -0.5560   -3.3070    2.0250 H   0  0  0  0  0  0  0  0  0  0  0  0
   -0.1020   -1.3340   -0.4970 N   0  0  0  0  0  0  0  0  0  0  0  0
   -0.0190   -0.1490   -1.2810 C   0  0  1  0  0  0  0  0  0  0  0  0
   -0.9590   -0.1800   -2.4930 C   0  0  0  0  0  0  0  0  0  0  0  0
   -0.7950    1.3630   -3.4430 S   0  0  0  0  0  0  0  0  0  0  0  0
   -0.3750    1.0480   -0.4260 C   0  0  0  0  0  0  0  0  0  0  0  0
   -0.3760    2.1930   -0.9330 O   0  0  0  0  0  0  0  0  0  0  0  0
   -1.0000   -1.6540   -0.0340 H   0  0  0  0  0  0  0  0  0  0  0  0
    0.9900   -0.0110   -1.6640 H   0  0  0  0  0  0  0  0  0  0  0  0
   -0.7220   -1.0040   -3.1640 H   0  0  0  0  0  0  0  0  0  0  0  0
   -1.9980   -0.2040   -2.1150 H   0  0  0  0  0  0  0  0  0  0  0  0
    0.5770    1.6820   -3.6070 H   0  0  0  0  0  0  0  0  0  0  0  0
    2.6840    1.6580    4.6040 C   0  0  0  0  0  0  0  0  0  0  0  0
    2.2810    3.2170    3.7800 S   0  0  0  0  0  0  0  0  0  0  0  0
    1.2290    2.8360    2.3480 C   0  0  0  0  0  0  0  0  0  0  0  0
   -0.0600    2.3110    2.8600 C   0  0  0  0  0  0  0  0  0  0  0  0
   -1.0810    1.9290    1.8660 C   0  0  2  0  0  0  0  0  0  0  0  0
   -0.7070    0.8990    0.9390 N   0  0  0  0  0  0  0  0  0  0  0  0
   -1.9240    3.0180    1.3280 C   0  0  0  0  0  0  0  0  0  0  0  0
   -2.2120    4.0520    1.9880 O   0  0  0  0  0  0  0  0  0  0  0  0
   -2.4650    2.9890    0.0650 O   0  0  0  0  0  0  0  0  0  0  0  0
    3.5210    1.2020    4.0180 H   0  0  0  0  0  0  0  0  0  0  0  0
    1.8120    0.9850    4.6130 H   0  0  0  0  0  0  0  0  0  0  0  0
    2.9660    1.8440    5.6540 H   0  0  0  0  0  0  0  0  0  0  0  0
    1.7520    2.0720    1.7500 H   0  0  0  0  0  0  0  0  0  0  0  0
    1.1700    3.7510    1.7490 H   0  0  0  0  0  0  0  0  0  0  0  0
    0.1820    1.3830    3.4600 H   0  0  0  0  0  0  0  0  0  0  0  0
   -0.5140    3.0030    3.6050 H   0  0  0  0  0  0  0  0  0  0  0  0
   -1.8910    1.3820    2.5110 H   0  0  0  0  0  0  0  0  0  0  0  0
   -0.6550   -0.1320    1.2680 H   0  0  0  0  0  0  0  0  0  0  0  0
  1 10  1  0  0  0  0
  2 11  1  6  0  0  0
  2  4  1  0  0  0  0
  2  1  1  0  0  0  0
  3 12  1  0  0  0  0
  3  2  1  0  0  0  0
  4  5  1  0  0  0  0
  4 13  1  1  0  0  0
  5 15  1  0  0  0  0
  6  4  1  0  0  0  0
  7  6  2  0  0  0  0
  8  1  1  0  0  0  0
  9  1  1  0  0  0  0
 14  5  1  0  0  0  0
 16  6  1  0  0  0  0
 16 22  1  0  0  0  0
 17 23  1  6  0  0  0
 17 16  1  0  0  0  0
 17 20  1  0  0  0  0
 18 25  1  0  0  0  0
 18 17  1  0  0  0  0
 19 18  1  0  0  0  0
 20 32  1  0  0  0  0
 21 20  2  0  0  0  0
 24 18  1  0  0  0  0
 26 19  1  0  0  0  0
 27 37  1  0  0  0  0
 27 38  1  0  0  0  0
 28 27  1  0  0  0  0
 29 30  1  0  0  0  0
 29 28  1  0  0  0  0
 30 41  1  0  0  0  0
 30 42  1  0  0  0  0
 31 43  1  1  0  0  0
 31 30  1  0  0  0  0
 32 44  1  0  0  0  0
 32 31  1  0  0  0  0
 33 31  1  0  0  0  0
 33 34  1  0  0  0  0
 35 33  2  0  0  0  0
 36 27  1  0  0  0  0
 39 29  1  0  0  0  0
 40 29  1  0  0  0  0
M  END
$$$$
