TCN.pdb
 OpenBabel07022419123D

 41 40  0  0  1  0  0  0  0  0999 V2000
   -1.4050   -2.6420   -0.5740 C   0  0  0  0  0  0  0  0  0  0  0  0
   -0.4820   -3.8200   -0.6480 C   0  0  1  0  0  0  0  0  0  0  0  0
   -1.1340   -4.7570   -1.4990 O   0  0  0  0  0  0  0  0  0  0  0  0
    0.8820   -3.5280   -1.1880 C   0  0  2  0  0  0  0  0  0  0  0  0
    1.5770   -4.8400   -1.2200 N   0  0  0  0  0  0  0  0  0  0  0  0
    1.6880   -2.5660   -0.4630 C   0  0  0  0  0  0  0  0  0  0  0  0
    2.7800   -2.9600    0.0870 O   0  0  0  0  0  0  0  0  0  0  0  0
   -1.3030   -2.0560    0.3430 H   0  0  0  0  0  0  0  0  0  0  0  0
   -1.4050   -2.0300   -1.5020 H   0  0  0  0  0  0  0  0  0  0  0  0
   -2.4600   -3.0640   -0.5420 H   0  0  0  0  0  0  0  0  0  0  0  0
   -0.4670   -4.3140    0.3400 H   0  0  0  0  0  0  0  0  0  0  0  0
   -1.1640   -4.4230   -2.4320 H   0  0  0  0  0  0  0  0  0  0  0  0
    0.7780   -3.2540   -2.2600 H   0  0  0  0  0  0  0  0  0  0  0  0
    0.8750   -5.5730   -1.3830 H   0  0  0  0  0  0  0  0  0  0  0  0
    2.0350   -4.9860   -0.2890 H   0  0  0  0  0  0  0  0  0  0  0  0
    1.3620   -1.1940   -0.3120 N   0  0  0  0  0  0  0  0  0  0  0  0
    2.2050   -0.2770    0.4080 C   0  0  1  0  0  0  0  0  0  0  0  0
    2.9290    0.6710   -0.5470 C   0  0  0  0  0  0  0  0  0  0  0  0
    3.9710   -0.2530   -1.7000 S   0  0  0  0  0  0  0  0  0  0  0  0
    1.5950    0.4640    1.4980 C   0  0  0  0  0  0  0  0  0  0  0  0
    2.3270    1.2770    2.1670 O   0  0  0  0  0  0  0  0  0  0  0  0
    0.4840   -0.8220   -0.7330 H   0  0  0  0  0  0  0  0  0  0  0  0
    3.0470   -0.8970    0.8460 H   0  0  0  0  0  0  0  0  0  0  0  0
    3.5550    1.3840    0.0220 H   0  0  0  0  0  0  0  0  0  0  0  0
    2.1710    1.2440   -1.1100 H   0  0  0  0  0  0  0  0  0  0  0  0
    4.6540    0.5780   -2.5780 H   0  0  0  0  0  0  0  0  0  0  0  0
   -0.4760    4.4770    2.0760 N   0  0  0  0  0  0  0  0  0  0  0  0
   -0.7890    3.1580    1.6640 C   0  0  0  0  0  0  0  0  0  0  0  0
   -0.6110    2.8050    0.4680 O   0  0  0  0  0  0  0  0  0  0  0  0
   -1.3300    2.1700    2.6400 C   0  0  0  0  0  0  0  0  0  0  0  0
   -0.2740    1.1870    3.0380 C   0  0  2  0  0  0  0  0  0  0  0  0
    0.2620    0.4230    1.9490 N   0  0  0  0  0  0  0  0  0  0  0  0
   -0.7190    0.3630    4.1790 C   0  0  0  0  0  0  0  0  0  0  0  0
   -1.1900    0.9120    5.1940 O   0  0  0  0  0  0  0  0  0  0  0  0
   -0.6170   -1.0080    4.1270 O   0  0  0  0  0  0  0  0  0  0  0  0
   -0.0140    5.1390    1.4250 H   0  0  0  0  0  0  0  0  0  0  0  0
   -0.7070    4.7950    3.0350 H   0  0  0  0  0  0  0  0  0  0  0  0
   -2.2720    1.7090    2.2780 H   0  0  0  0  0  0  0  0  0  0  0  0
   -1.6050    2.7450    3.5470 H   0  0  0  0  0  0  0  0  0  0  0  0
    0.5840    1.8130    3.4220 H   0  0  0  0  0  0  0  0  0  0  0  0
   -0.3910   -0.2140    1.4510 H   0  0  0  0  0  0  0  0  0  0  0  0
  1 10  1  0  0  0  0
  1  8  1  0  0  0  0
  2  1  1  0  0  0  0
  2 11  1  1  0  0  0
  3  2  1  0  0  0  0
  4 13  1  6  0  0  0
  4  2  1  0  0  0  0
  4  6  1  0  0  0  0
  5  4  1  0  0  0  0
  5 15  1  0  0  0  0
  6 16  1  0  0  0  0
  6  7  2  0  0  0  0
  9  1  1  0  0  0  0
 12  3  1  0  0  0  0
 14  5  1  0  0  0  0
 16 17  1  0  0  0  0
 17 23  1  1  0  0  0
 17 20  1  0  0  0  0
 18 24  1  0  0  0  0
 18 17  1  0  0  0  0
 19 18  1  0  0  0  0
 20 32  1  0  0  0  0
 20 21  2  0  0  0  0
 22 16  1  0  0  0  0
 25 18  1  0  0  0  0
 26 19  1  0  0  0  0
 27 37  1  0  0  0  0
 28 27  1  0  0  0  0
 28 30  1  0  0  0  0
 29 28  2  0  0  0  0
 30 31  1  0  0  0  0
 30 39  1  0  0  0  0
 31 40  1  1  0  0  0
 31 33  1  0  0  0  0
 32 31  1  0  0  0  0
 33 34  1  0  0  0  0
 35 33  2  0  0  0  0
 36 27  1  0  0  0  0
 38 30  1  0  0  0  0
 41 32  1  0  0  0  0
M  END
$$$$
