TCP.pdb
 OpenBabel07022419123D

 41 41  0  0  1  0  0  0  0  0999 V2000
   -0.7580   -4.7250    2.0420 C   0  0  0  0  0  0  0  0  0  0  0  0
   -1.7760   -4.2610    1.0100 C   0  0  1  0  0  0  0  0  0  0  0  0
   -2.5510   -3.2180    1.4890 O   0  0  0  0  0  0  0  0  0  0  0  0
   -1.1430   -4.0080   -0.3120 C   0  0  2  0  0  0  0  0  0  0  0  0
   -0.3790   -5.1920   -0.6590 N   0  0  0  0  0  0  0  0  0  0  0  0
   -0.3080   -2.8410   -0.4430 C   0  0  0  0  0  0  0  0  0  0  0  0
    0.8880   -2.9670   -0.8250 O   0  0  0  0  0  0  0  0  0  0  0  0
    0.1280   -4.0730    2.0810 H   0  0  0  0  0  0  0  0  0  0  0  0
   -1.3170   -4.7510    3.0110 H   0  0  0  0  0  0  0  0  0  0  0  0
   -0.5290   -5.7850    1.8060 H   0  0  0  0  0  0  0  0  0  0  0  0
   -2.4700   -5.1200    0.8800 H   0  0  0  0  0  0  0  0  0  0  0  0
   -2.8200   -3.4640    2.4160 H   0  0  0  0  0  0  0  0  0  0  0  0
   -1.9770   -3.9670   -1.0730 H   0  0  0  0  0  0  0  0  0  0  0  0
   -0.2770   -5.2400   -1.6990 H   0  0  0  0  0  0  0  0  0  0  0  0
    0.6000   -5.0060   -0.2870 H   0  0  0  0  0  0  0  0  0  0  0  0
   -0.7470   -1.5210   -0.1660 N   0  0  0  0  0  0  0  0  0  0  0  0
    0.1260   -0.3420   -0.3070 C   0  0  1  0  0  0  0  0  0  0  0  0
   -0.5970    0.4540   -1.4030 C   0  0  0  0  0  0  0  0  0  0  0  0
    0.1930    1.9960   -1.8440 S   0  0  0  0  0  0  0  0  0  0  0  0
    0.1440    0.4310    0.9440 C   0  0  0  0  0  0  0  0  0  0  0  0
   -0.8200    0.2250    1.7750 O   0  0  0  0  0  0  0  0  0  0  0  0
   -1.7310   -1.4330    0.1460 H   0  0  0  0  0  0  0  0  0  0  0  0
    1.1180   -0.5660   -0.6710 H   0  0  0  0  0  0  0  0  0  0  0  0
   -0.7650   -0.2020   -2.2860 H   0  0  0  0  0  0  0  0  0  0  0  0
   -1.6070    0.6760   -0.9620 H   0  0  0  0  0  0  0  0  0  0  0  0
   -0.6560    2.8090   -2.5970 H   0  0  0  0  0  0  0  0  0  0  0  0
    1.1140    1.3800    1.3390 N   0  0  0  0  0  0  0  0  0  0  0  0
    0.9790    2.1620    2.5830 C   0  0  0  0  0  0  0  0  0  0  0  0
    1.7060    3.4480    2.3760 C   0  0  0  0  0  0  0  0  0  0  0  0
    2.2690    3.3130    0.9510 C   0  0  0  0  0  0  0  0  0  0  0  0
    2.3710    1.7930    0.7940 C   0  0  1  0  0  0  0  0  0  0  0  0
    3.5350    1.3120    1.5990 C   0  0  0  0  0  0  0  0  0  0  0  0
    3.3420    0.5700    2.5740 O   0  0  0  0  0  0  0  0  0  0  0  0
    4.8120    1.6940    1.2570 O   0  0  0  0  0  0  0  0  0  0  0  0
   -0.1080    2.3230    2.8040 H   0  0  0  0  0  0  0  0  0  0  0  0
    1.4500    1.5830    3.3830 H   0  0  0  0  0  0  0  0  0  0  0  0
    2.5800    3.5670    3.0590 H   0  0  0  0  0  0  0  0  0  0  0  0
    1.0150    4.3100    2.4020 H   0  0  0  0  0  0  0  0  0  0  0  0
    3.2590    3.7850    0.9020 H   0  0  0  0  0  0  0  0  0  0  0  0
    1.5410    3.6880    0.2310 H   0  0  0  0  0  0  0  0  0  0  0  0
    2.5040    1.5210   -0.2650 H   0  0  0  0  0  0  0  0  0  0  0  0
  1  8  1  0  0  0  0
  1  9  1  0  0  0  0
  2 11  1  6  0  0  0
  2  3  1  0  0  0  0
  2  1  1  0  0  0  0
  3 12  1  0  0  0  0
  4 13  1  6  0  0  0
  4  2  1  0  0  0  0
  5  4  1  0  0  0  0
  5 15  1  0  0  0  0
  6  4  1  0  0  0  0
  6 16  1  0  0  0  0
  7  6  2  0  0  0  0
 10  1  1  0  0  0  0
 14  5  1  0  0  0  0
 16 22  1  0  0  0  0
 17 23  1  6  0  0  0
 17 16  1  0  0  0  0
 17 20  1  0  0  0  0
 18 25  1  0  0  0  0
 18 17  1  0  0  0  0
 19 18  1  0  0  0  0
 20 27  1  0  0  0  0
 20 21  2  0  0  0  0
 24 18  1  0  0  0  0
 26 19  1  0  0  0  0
 27 28  1  0  0  0  0
 28 35  1  0  0  0  0
 28 36  1  0  0  0  0
 29 38  1  0  0  0  0
 29 28  1  0  0  0  0
 29 37  1  0  0  0  0
 30 29  1  0  0  0  0
 31 41  1  6  0  0  0
 31 30  1  0  0  0  0
 31 27  1  0  0  0  0
 31 32  1  0  0  0  0
 32 33  1  0  0  0  0
 34 32  2  0  0  0  0
 39 30  1  0  0  0  0
 40 30  1  0  0  0  0
M  END
$$$$
