TCW.pdb
 OpenBabel07022419123D

 51 52  0  0  1  0  0  0  0  0999 V2000
    2.8930   -4.2740    1.5130 C   0  0  0  0  0  0  0  0  0  0  0  0
    3.9680   -3.2780    1.8660 C   0  0  1  0  0  0  0  0  0  0  0  0
    5.0880   -3.3590    1.0810 O   0  0  0  0  0  0  0  0  0  0  0  0
    3.3380   -1.9080    1.9300 C   0  0  2  0  0  0  0  0  0  0  0  0
    2.1810   -2.0240    2.7950 N   0  0  0  0  0  0  0  0  0  0  0  0
    2.8880   -1.4380    0.5960 C   0  0  0  0  0  0  0  0  0  0  0  0
    3.7110   -1.2290   -0.3460 O   0  0  0  0  0  0  0  0  0  0  0  0
    2.0910   -4.2360    2.2910 H   0  0  0  0  0  0  0  0  0  0  0  0
    3.2920   -5.3090    1.5410 H   0  0  0  0  0  0  0  0  0  0  0  0
    2.3930   -4.0470    0.5560 H   0  0  0  0  0  0  0  0  0  0  0  0
    4.2730   -3.5210    2.9270 H   0  0  0  0  0  0  0  0  0  0  0  0
    4.9810   -4.0580    0.3670 H   0  0  0  0  0  0  0  0  0  0  0  0
    4.0430   -1.1890    2.4060 H   0  0  0  0  0  0  0  0  0  0  0  0
    1.6750   -1.1420    2.9540 H   0  0  0  0  0  0  0  0  0  0  0  0
    2.4050   -2.5310    3.6820 H   0  0  0  0  0  0  0  0  0  0  0  0
    1.5060   -1.1990    0.3180 N   0  0  0  0  0  0  0  0  0  0  0  0
    1.0250   -0.7430   -0.9520 C   0  0  1  0  0  0  0  0  0  0  0  0
    0.1460   -1.7600   -1.6610 C   0  0  0  0  0  0  0  0  0  0  0  0
    1.0020   -3.3070   -1.9930 S   0  0  0  0  0  0  0  0  0  0  0  0
    0.3120    0.5380   -0.8920 C   0  0  0  0  0  0  0  0  0  0  0  0
   -0.1490    1.0190   -1.9580 O   0  0  0  0  0  0  0  0  0  0  0  0
    0.8400   -1.3820    1.1170 H   0  0  0  0  0  0  0  0  0  0  0  0
    1.9110   -0.6100   -1.6180 H   0  0  0  0  0  0  0  0  0  0  0  0
   -0.8080   -1.9450   -1.1160 H   0  0  0  0  0  0  0  0  0  0  0  0
   -0.1500   -1.3270   -2.6380 H   0  0  0  0  0  0  0  0  0  0  0  0
    1.4390   -3.4260   -3.3180 H   0  0  0  0  0  0  0  0  0  0  0  0
    0.1230    1.2540    0.3150 N   0  0  0  0  0  0  0  0  0  0  0  0
   -0.5790    2.5070    0.3490 C   0  0  1  0  0  0  0  0  0  0  0  0
   -1.8640    2.4550    1.1440 C   0  0  0  0  0  0  0  0  0  0  0  0
   -2.8540    1.4950    0.6350 C   0  0  0  0  0  0  0  0  0  0  0  0
   -3.9320    1.8260   -0.1810 C   0  0  0  0  0  0  0  0  0  0  0  0
   -4.5850    0.7010   -0.4590 N   0  0  0  0  0  0  0  0  0  0  0  0
   -3.9960   -0.3520    0.1300 C   0  0  0  0  0  0  0  0  0  0  0  0
   -4.3410   -1.7130    0.1150 C   0  0  0  0  0  0  0  0  0  0  0  0
   -3.5420   -2.5800    0.8300 C   0  0  0  0  0  0  0  0  0  0  0  0
   -2.4530   -2.0860    1.5210 C   0  0  0  0  0  0  0  0  0  0  0  0
   -2.1180   -0.7680    1.5360 C   0  0  0  0  0  0  0  0  0  0  0  0
   -2.9140    0.1350    0.8160 C   0  0  0  0  0  0  0  0  0  0  0  0
    0.3240    3.5440    0.8980 C   0  0  0  0  0  0  0  0  0  0  0  0
    1.4920    3.2520    1.2380 O   0  0  0  0  0  0  0  0  0  0  0  0
   -0.1230    4.8390    1.0370 O   0  0  0  0  0  0  0  0  0  0  0  0
    0.5250    0.8310    1.1690 H   0  0  0  0  0  0  0  0  0  0  0  0
   -0.8090    2.7760   -0.7330 H   0  0  0  0  0  0  0  0  0  0  0  0
   -2.2880    3.4610    1.3150 H   0  0  0  0  0  0  0  0  0  0  0  0
   -1.5630    2.0870    2.1680 H   0  0  0  0  0  0  0  0  0  0  0  0
   -4.1750    2.8440   -0.5180 H   0  0  0  0  0  0  0  0  0  0  0  0
   -5.4550    0.6300   -1.0630 H   0  0  0  0  0  0  0  0  0  0  0  0
   -5.2080   -2.0510   -0.4450 H   0  0  0  0  0  0  0  0  0  0  0  0
   -3.7590   -3.6390    0.8550 H   0  0  0  0  0  0  0  0  0  0  0  0
   -1.8380   -2.7950    2.0790 H   0  0  0  0  0  0  0  0  0  0  0  0
   -1.2740   -0.3670    2.0820 H   0  0  0  0  0  0  0  0  0  0  0  0
  1  9  1  0  0  0  0
  1  2  1  0  0  0  0
  1  8  1  0  0  0  0
  2  4  1  0  0  0  0
  2 11  1  1  0  0  0
  3  2  1  0  0  0  0
  4 13  1  1  0  0  0
  4  5  1  0  0  0  0
  5 14  1  0  0  0  0
  5 15  1  0  0  0  0
  6  4  1  0  0  0  0
  7  6  2  0  0  0  0
 10  1  1  0  0  0  0
 12  3  1  0  0  0  0
 16  6  1  0  0  0  0
 16 22  1  0  0  0  0
 17 23  1  6  0  0  0
 17 20  1  0  0  0  0
 17 16  1  0  0  0  0
 18 24  1  0  0  0  0
 18 17  1  0  0  0  0
 19 18  1  0  0  0  0
 20 27  1  0  0  0  0
 21 20  2  0  0  0  0
 25 18  1  0  0  0  0
 26 19  1  0  0  0  0
 27 28  1  0  0  0  0
 27 42  1  0  0  0  0
 28 43  1  6  0  0  0
 28 39  1  0  0  0  0
 28 29  1  0  0  0  0
 29 44  1  0  0  0  0
 29 45  1  0  0  0  0
 30 38  1  0  0  0  0
 30 29  1  0  0  0  0
 31 30  2  0  0  0  0
 32 31  1  0  0  0  0
 32 33  1  0  0  0  0
 33 38  1  0  0  0  0
 34 33  2  0  0  0  0
 34 35  1  0  0  0  0
 35 49  1  0  0  0  0
 35 36  2  0  0  0  0
 36 37  1  0  0  0  0
 36 50  1  0  0  0  0
 37 51  1  0  0  0  0
 38 37  2  0  0  0  0
 39 41  2  0  0  0  0
 39 40  1  0  0  0  0
 46 31  1  0  0  0  0
 47 32  1  0  0  0  0
 48 34  1  0  0  0  0
M  END
$$$$
