TDA.pdb
 OpenBabel07022419113D

 39 38  0  0  1  0  0  0  0  0999 V2000
   -2.7070   -3.5650    1.6130 C   0  0  0  0  0  0  0  0  0  0  0  0
   -2.8920   -2.1080    1.9850 C   0  0  1  0  0  0  0  0  0  0  0  0
   -3.7180   -2.0480    3.1160 O   0  0  0  0  0  0  0  0  0  0  0  0
   -1.5570   -1.4440    2.2580 C   0  0  2  0  0  0  0  0  0  0  0  0
   -1.7310   -0.0500    2.6220 N   0  0  0  0  0  0  0  0  0  0  0  0
   -0.7150   -1.5750    1.0410 C   0  0  0  0  0  0  0  0  0  0  0  0
   -0.4590   -2.7240    0.6210 O   0  0  0  0  0  0  0  0  0  0  0  0
   -3.5570   -4.1650    2.0070 H   0  0  0  0  0  0  0  0  0  0  0  0
   -2.5760   -3.6780    0.5270 H   0  0  0  0  0  0  0  0  0  0  0  0
   -1.7830   -3.9180    2.1080 H   0  0  0  0  0  0  0  0  0  0  0  0
   -3.4260   -1.5910    1.1620 H   0  0  0  0  0  0  0  0  0  0  0  0
   -4.2220   -1.2040    3.0620 H   0  0  0  0  0  0  0  0  0  0  0  0
   -1.0370   -1.9580    3.0860 H   0  0  0  0  0  0  0  0  0  0  0  0
   -0.9520    0.2920    3.2420 H   0  0  0  0  0  0  0  0  0  0  0  0
   -2.5960    0.0250    3.2370 H   0  0  0  0  0  0  0  0  0  0  0  0
   -0.1890   -0.4700    0.3330 N   0  0  0  0  0  0  0  0  0  0  0  0
    0.6160   -0.6980   -0.8360 C   0  0  1  0  0  0  0  0  0  0  0  0
    0.0450   -0.0260   -2.0630 C   0  0  0  0  0  0  0  0  0  0  0  0
   -1.3020   -0.4820   -2.4150 C   0  0  0  0  0  0  0  0  0  0  0  0
   -1.4650   -1.5720   -2.9990 O   0  0  0  0  0  0  0  0  0  0  0  0
    1.9960   -0.1170   -0.6610 C   0  0  0  0  0  0  0  0  0  0  0  0
    2.8430   -0.2230   -1.5820 O   0  0  0  0  0  0  0  0  0  0  0  0
   -2.4070    0.2820   -2.1100 O   0  0  0  0  0  0  0  0  0  0  0  0
   -0.4150    0.4870    0.7020 H   0  0  0  0  0  0  0  0  0  0  0  0
    0.6980   -1.7790   -1.0070 H   0  0  0  0  0  0  0  0  0  0  0  0
    0.0210    1.0780   -1.9560 H   0  0  0  0  0  0  0  0  0  0  0  0
    0.7740   -0.2120   -2.9040 H   0  0  0  0  0  0  0  0  0  0  0  0
   -3.3660   -0.0440   -2.1410 H   0  0  0  0  0  0  0  0  0  0  0  0
    3.5790    2.6140    0.9610 C   0  0  0  0  0  0  0  0  0  0  0  0
    3.6630    1.1200    0.7430 C   0  0  2  0  0  0  0  0  0  0  0  0
    2.3460    0.5530    0.5480 N   0  0  0  0  0  0  0  0  0  0  0  0
    4.3810    0.4580    1.8630 C   0  0  0  0  0  0  0  0  0  0  0  0
    3.8130   -0.4690    2.4910 O   0  0  0  0  0  0  0  0  0  0  0  0
    5.6520    0.8240    2.2390 O   0  0  0  0  0  0  0  0  0  0  0  0
    2.6160    2.8780    1.4460 H   0  0  0  0  0  0  0  0  0  0  0  0
    3.6820    3.1120   -0.0040 H   0  0  0  0  0  0  0  0  0  0  0  0
    4.3750    2.8810    1.6780 H   0  0  0  0  0  0  0  0  0  0  0  0
    4.2580    0.9270   -0.1690 H   0  0  0  0  0  0  0  0  0  0  0  0
    1.5890    0.6030    1.2720 H   0  0  0  0  0  0  0  0  0  0  0  0
  1  2  1  0  0  0  0
  1  8  1  0  0  0  0
  1 10  1  0  0  0  0
  2 11  1  6  0  0  0
  2  4  1  0  0  0  0
  2  3  1  0  0  0  0
  4  5  1  0  0  0  0
  4 13  1  1  0  0  0
  5 15  1  0  0  0  0
  5 14  1  0  0  0  0
  6  4  1  0  0  0  0
  7  6  2  0  0  0  0
  9  1  1  0  0  0  0
 12  3  1  0  0  0  0
 16 24  1  0  0  0  0
 16  6  1  0  0  0  0
 17 25  1  6  0  0  0
 17 21  1  0  0  0  0
 17 16  1  0  0  0  0
 18 26  1  0  0  0  0
 18 17  1  0  0  0  0
 19 23  1  0  0  0  0
 19 18  1  0  0  0  0
 20 19  2  0  0  0  0
 21 31  1  0  0  0  0
 22 21  2  0  0  0  0
 27 18  1  0  0  0  0
 28 23  1  0  0  0  0
 29 35  1  0  0  0  0
 29 37  1  0  0  0  0
 30 38  1  6  0  0  0
 30 29  1  0  0  0  0
 30 32  1  0  0  0  0
 31 30  1  0  0  0  0
 31 39  1  0  0  0  0
 32 34  2  0  0  0  0
 32 33  1  0  0  0  0
 36 29  1  0  0  0  0
M  END
$$$$
