TDC.pdb
 OpenBabel07022419113D

 40 39  0  0  1  0  0  0  0  0999 V2000
    1.7990   -5.2210   -0.0390 C   0  0  0  0  0  0  0  0  0  0  0  0
    2.2660   -3.9330    0.5950 C   0  0  1  0  0  0  0  0  0  0  0  0
    3.1690   -3.3170   -0.2660 O   0  0  0  0  0  0  0  0  0  0  0  0
    1.0510   -3.0520    0.8050 C   0  0  2  0  0  0  0  0  0  0  0  0
    0.4140   -2.8250   -0.4720 N   0  0  0  0  0  0  0  0  0  0  0  0
    1.4390   -1.7470    1.3870 C   0  0  0  0  0  0  0  0  0  0  0  0
    2.0250   -1.6880    2.4920 O   0  0  0  0  0  0  0  0  0  0  0  0
    1.9420   -5.1860   -1.1400 H   0  0  0  0  0  0  0  0  0  0  0  0
    2.3930   -6.0980    0.3170 H   0  0  0  0  0  0  0  0  0  0  0  0
    0.7330   -5.4270    0.1480 H   0  0  0  0  0  0  0  0  0  0  0  0
    2.7840   -4.1690    1.5250 H   0  0  0  0  0  0  0  0  0  0  0  0
    4.1020   -3.3010    0.1030 H   0  0  0  0  0  0  0  0  0  0  0  0
    0.3710   -3.5840    1.5170 H   0  0  0  0  0  0  0  0  0  0  0  0
    0.1070   -3.7530   -0.8400 H   0  0  0  0  0  0  0  0  0  0  0  0
    1.1610   -2.4820   -1.1280 H   0  0  0  0  0  0  0  0  0  0  0  0
    1.1490   -0.5570    0.6980 N   0  0  0  0  0  0  0  0  0  0  0  0
    1.5020    0.7790    1.2100 C   0  0  1  0  0  0  0  0  0  0  0  0
    2.3310    1.4190    0.1540 C   0  0  0  0  0  0  0  0  0  0  0  0
    2.8320    2.7570    0.4230 C   0  0  0  0  0  0  0  0  0  0  0  0
    3.4020    3.3900   -0.4990 O   0  0  0  0  0  0  0  0  0  0  0  0
    0.2210    1.5220    1.4980 C   0  0  0  0  0  0  0  0  0  0  0  0
    0.2510    2.6800    1.9410 O   0  0  0  0  0  0  0  0  0  0  0  0
    2.7150    3.3740    1.6530 O   0  0  0  0  0  0  0  0  0  0  0  0
    0.6660   -0.5910   -0.2130 H   0  0  0  0  0  0  0  0  0  0  0  0
    2.0410    0.6890    2.1730 H   0  0  0  0  0  0  0  0  0  0  0  0
    3.1990    0.7150   -0.0250 H   0  0  0  0  0  0  0  0  0  0  0  0
    1.7680    1.3550   -0.8250 H   0  0  0  0  0  0  0  0  0  0  0  0
    2.5850    4.3920    1.7470 H   0  0  0  0  0  0  0  0  0  0  0  0
   -1.0380    0.9040    1.2670 N   0  0  0  0  0  0  0  0  0  0  0  0
   -2.3130    1.5310    1.5100 C   0  0  1  0  0  0  0  0  0  0  0  0
   -3.1660    1.6000    0.2690 C   0  0  0  0  0  0  0  0  0  0  0  0
   -3.5180   -0.0390   -0.4050 S   0  0  0  0  0  0  0  0  0  0  0  0
   -3.0430    0.7950    2.5630 C   0  0  0  0  0  0  0  0  0  0  0  0
   -2.4950   -0.2060    3.0790 O   0  0  0  0  0  0  0  0  0  0  0  0
   -4.3010    1.1460    3.0170 O   0  0  0  0  0  0  0  0  0  0  0  0
   -0.9930   -0.0780    0.8920 H   0  0  0  0  0  0  0  0  0  0  0  0
   -2.1980    2.5770    1.8860 H   0  0  0  0  0  0  0  0  0  0  0  0
   -4.1410    2.0440    0.5660 H   0  0  0  0  0  0  0  0  0  0  0  0
   -2.7200    2.2820   -0.4820 H   0  0  0  0  0  0  0  0  0  0  0  0
   -2.3670   -0.8310   -0.5320 H   0  0  0  0  0  0  0  0  0  0  0  0
  1 10  1  0  0  0  0
  1  9  1  0  0  0  0
  1  2  1  0  0  0  0
  2  4  1  0  0  0  0
  2 11  1  1  0  0  0
  3 12  1  0  0  0  0
  3  2  1  0  0  0  0
  4  6  1  0  0  0  0
  4 13  1  1  0  0  0
  5  4  1  0  0  0  0
  6  7  2  0  0  0  0
  8  1  1  0  0  0  0
 14  5  1  0  0  0  0
 15  5  1  0  0  0  0
 16 17  1  0  0  0  0
 16  6  1  0  0  0  0
 17 21  1  0  0  0  0
 17 25  1  1  0  0  0
 18 19  1  0  0  0  0
 18 17  1  0  0  0  0
 19 23  1  0  0  0  0
 20 19  2  0  0  0  0
 21 22  2  0  0  0  0
 23 28  1  0  0  0  0
 24 16  1  0  0  0  0
 26 18  1  0  0  0  0
 27 18  1  0  0  0  0
 29 21  1  0  0  0  0
 29 30  1  0  0  0  0
 30 37  1  1  0  0  0
 30 33  1  0  0  0  0
 31 38  1  0  0  0  0
 31 30  1  0  0  0  0
 32 31  1  0  0  0  0
 33 35  2  0  0  0  0
 33 34  1  0  0  0  0
 36 29  1  0  0  0  0
 39 31  1  0  0  0  0
 40 32  1  0  0  0  0
M  END
$$$$
