TDD.pdb
 OpenBabel07022419113D

 42 41  0  0  1  0  0  0  0  0999 V2000
   -3.6430   -1.8200    3.1910 C   0  0  0  0  0  0  0  0  0  0  0  0
   -3.9690   -1.2390    1.8430 C   0  0  1  0  0  0  0  0  0  0  0  0
   -5.3260   -1.2810    1.5560 O   0  0  0  0  0  0  0  0  0  0  0  0
   -3.4160    0.1700    1.7450 C   0  0  2  0  0  0  0  0  0  0  0  0
   -3.6320    0.6320    0.4080 N   0  0  0  0  0  0  0  0  0  0  0  0
   -1.9200    0.0650    2.0080 C   0  0  0  0  0  0  0  0  0  0  0  0
   -1.5330   -0.2470    3.1570 O   0  0  0  0  0  0  0  0  0  0  0  0
   -2.6330   -2.2930    3.1540 H   0  0  0  0  0  0  0  0  0  0  0  0
   -4.4110   -2.5790    3.5120 H   0  0  0  0  0  0  0  0  0  0  0  0
   -3.6130   -0.9820    3.9080 H   0  0  0  0  0  0  0  0  0  0  0  0
   -3.4820   -1.9050    1.0870 H   0  0  0  0  0  0  0  0  0  0  0  0
   -5.8770   -0.6810    2.1050 H   0  0  0  0  0  0  0  0  0  0  0  0
   -3.9030    0.8470    2.4470 H   0  0  0  0  0  0  0  0  0  0  0  0
   -3.3820    1.6180    0.2400 H   0  0  0  0  0  0  0  0  0  0  0  0
   -3.3920   -0.0330   -0.3370 H   0  0  0  0  0  0  0  0  0  0  0  0
   -0.9950    0.3130    0.9850 N   0  0  0  0  0  0  0  0  0  0  0  0
    0.4200    0.2800    1.0790 C   0  0  1  0  0  0  0  0  0  0  0  0
    1.0000    0.0390    2.4620 C   0  0  0  0  0  0  0  0  0  0  0  0
    0.6920    1.1230    3.4240 C   0  0  0  0  0  0  0  0  0  0  0  0
    0.1300    2.1920    3.0880 O   0  0  0  0  0  0  0  0  0  0  0  0
    1.1450   -0.4160    0.0330 C   0  0  0  0  0  0  0  0  0  0  0  0
    0.4920   -0.9890   -0.9070 O   0  0  0  0  0  0  0  0  0  0  0  0
    1.0380    0.9560    4.7510 O   0  0  0  0  0  0  0  0  0  0  0  0
   -1.4430    0.5550    0.0240 H   0  0  0  0  0  0  0  0  0  0  0  0
    0.7000    1.4170    0.9700 H   0  0  0  0  0  0  0  0  0  0  0  0
    2.1040    0.0270    2.3570 H   0  0  0  0  0  0  0  0  0  0  0  0
    0.6960   -0.9480    2.8650 H   0  0  0  0  0  0  0  0  0  0  0  0
    0.9540    1.6830    5.4500 H   0  0  0  0  0  0  0  0  0  0  0  0
    2.5470   -0.5290   -0.0600 N   0  0  0  0  0  0  0  0  0  0  0  0
    3.2060   -1.2580   -1.1570 C   0  0  1  0  0  0  0  0  0  0  0  0
    4.1400   -0.3310   -1.8910 C   0  0  0  0  0  0  0  0  0  0  0  0
    4.7680   -1.0300   -3.0240 C   0  0  0  0  0  0  0  0  0  0  0  0
    4.5050   -2.1920   -3.4210 O   0  0  0  0  0  0  0  0  0  0  0  0
    4.0510   -2.3330   -0.5370 C   0  0  0  0  0  0  0  0  0  0  0  0
    4.7300   -3.1650   -1.1400 O   0  0  0  0  0  0  0  0  0  0  0  0
    5.7770   -0.3930   -3.7910 O   0  0  0  0  0  0  0  0  0  0  0  0
    4.0610   -2.3840    0.8650 O   0  0  0  0  0  0  0  0  0  0  0  0
    3.1620   -0.1000    0.6430 H   0  0  0  0  0  0  0  0  0  0  0  0
    2.4880   -1.7070   -1.8460 H   0  0  0  0  0  0  0  0  0  0  0  0
    4.9790   -0.0880   -1.1750 H   0  0  0  0  0  0  0  0  0  0  0  0
    3.6370    0.6010   -2.2270 H   0  0  0  0  0  0  0  0  0  0  0  0
    6.4400   -0.9500   -4.3210 H   0  0  0  0  0  0  0  0  0  0  0  0
  1  9  1  0  0  0  0
  1 10  1  0  0  0  0
  2 11  1  6  0  0  0
  2  1  1  0  0  0  0
  3  2  1  0  0  0  0
  3 12  1  0  0  0  0
  4  2  1  0  0  0  0
  4  6  1  0  0  0  0
  4 13  1  1  0  0  0
  5  4  1  0  0  0  0
  6  7  2  0  0  0  0
  8  1  1  0  0  0  0
 14  5  1  0  0  0  0
 15  5  1  0  0  0  0
 16 17  1  0  0  0  0
 16  6  1  0  0  0  0
 17 25  1  6  0  0  0
 17 18  1  0  0  0  0
 18 27  1  0  0  0  0
 18 19  1  0  0  0  0
 19 23  1  0  0  0  0
 20 19  2  0  0  0  0
 21 17  1  0  0  0  0
 22 21  2  0  0  0  0
 23 28  1  0  0  0  0
 24 16  1  0  0  0  0
 26 18  1  0  0  0  0
 29 21  1  0  0  0  0
 29 38  1  0  0  0  0
 30 39  1  6  0  0  0
 30 34  1  0  0  0  0
 30 29  1  0  0  0  0
 31 40  1  0  0  0  0
 31 30  1  0  0  0  0
 32 31  1  0  0  0  0
 33 32  2  0  0  0  0
 34 37  1  0  0  0  0
 35 34  2  0  0  0  0
 36 32  1  0  0  0  0
 41 31  1  0  0  0  0
 42 36  1  0  0  0  0
M  END
$$$$
