TDE.pdb
 OpenBabel07022419113D

 45 44  0  0  1  0  0  0  0  0999 V2000
    3.2190   -4.3780    0.7350 C   0  0  0  0  0  0  0  0  0  0  0  0
    2.0680   -4.0780   -0.2120 C   0  0  1  0  0  0  0  0  0  0  0  0
    1.5070   -5.2850   -0.6460 O   0  0  0  0  0  0  0  0  0  0  0  0
    1.0200   -3.2190    0.4530 C   0  0  2  0  0  0  0  0  0  0  0  0
   -0.0260   -2.9580   -0.5270 N   0  0  0  0  0  0  0  0  0  0  0  0
    1.6420   -1.9420    0.8910 C   0  0  0  0  0  0  0  0  0  0  0  0
    2.5810   -1.9790    1.7290 O   0  0  0  0  0  0  0  0  0  0  0  0
    3.5560   -5.4330    0.5810 H   0  0  0  0  0  0  0  0  0  0  0  0
    4.0780   -3.7140    0.5750 H   0  0  0  0  0  0  0  0  0  0  0  0
    2.8510   -4.2940    1.7740 H   0  0  0  0  0  0  0  0  0  0  0  0
    2.4600   -3.5320   -1.0780 H   0  0  0  0  0  0  0  0  0  0  0  0
    2.2060   -5.9650   -0.5560 H   0  0  0  0  0  0  0  0  0  0  0  0
    0.6200   -3.8040    1.3190 H   0  0  0  0  0  0  0  0  0  0  0  0
   -0.0680   -3.7770   -1.1650 H   0  0  0  0  0  0  0  0  0  0  0  0
   -0.9590   -2.8640   -0.0760 H   0  0  0  0  0  0  0  0  0  0  0  0
    1.2320   -0.6790    0.4130 N   0  0  0  0  0  0  0  0  0  0  0  0
    1.8840    0.5130    0.8860 C   0  0  1  0  0  0  0  0  0  0  0  0
    2.4990    1.2330   -0.2860 C   0  0  0  0  0  0  0  0  0  0  0  0
    3.4780    0.3080   -0.9070 C   0  0  0  0  0  0  0  0  0  0  0  0
    3.0830   -0.7010   -1.5640 O   0  0  0  0  0  0  0  0  0  0  0  0
    0.8930    1.3670    1.6100 C   0  0  0  0  0  0  0  0  0  0  0  0
    1.2110    2.4550    2.1130 O   0  0  0  0  0  0  0  0  0  0  0  0
    4.8290    0.5420   -0.7720 O   0  0  0  0  0  0  0  0  0  0  0  0
    0.4550   -0.6200   -0.2810 H   0  0  0  0  0  0  0  0  0  0  0  0
    2.6810    0.2640    1.5980 H   0  0  0  0  0  0  0  0  0  0  0  0
    3.0240    2.1420    0.0600 H   0  0  0  0  0  0  0  0  0  0  0  0
    1.7180    1.4670   -1.0610 H   0  0  0  0  0  0  0  0  0  0  0  0
    5.5560   -0.0650   -1.1320 H   0  0  0  0  0  0  0  0  0  0  0  0
   -0.4630    0.9430    1.7420 N   0  0  0  0  0  0  0  0  0  0  0  0
   -1.4660    1.7200    2.4280 C   0  0  1  0  0  0  0  0  0  0  0  0
   -2.5300    2.2300    1.4840 C   0  0  0  0  0  0  0  0  0  0  0  0
   -3.2600    1.1210    0.7770 C   0  0  0  0  0  0  0  0  0  0  0  0
   -4.2800    1.6870   -0.1270 C   0  0  0  0  0  0  0  0  0  0  0  0
   -4.5000    2.9090   -0.2740 O   0  0  0  0  0  0  0  0  0  0  0  0
   -2.0040    1.0720    3.6160 C   0  0  0  0  0  0  0  0  0  0  0  0
   -1.6010   -0.0500    3.9710 O   0  0  0  0  0  0  0  0  0  0  0  0
   -5.0530    0.7990   -0.8680 O   0  0  0  0  0  0  0  0  0  0  0  0
   -2.9710    1.6950    4.3680 O   0  0  0  0  0  0  0  0  0  0  0  0
   -0.6920    0.0040    1.2950 H   0  0  0  0  0  0  0  0  0  0  0  0
   -0.9310    2.6520    2.7890 H   0  0  0  0  0  0  0  0  0  0  0  0
   -2.0310    2.8750    0.7360 H   0  0  0  0  0  0  0  0  0  0  0  0
   -3.2450    2.8500    2.0590 H   0  0  0  0  0  0  0  0  0  0  0  0
   -3.7400    0.4060    1.4410 H   0  0  0  0  0  0  0  0  0  0  0  0
   -2.5230    0.5470    0.1610 H   0  0  0  0  0  0  0  0  0  0  0  0
   -5.8150    1.1150   -1.4540 H   0  0  0  0  0  0  0  0  0  0  0  0
  1 10  1  0  0  0  0
  2 11  1  6  0  0  0
  2  4  1  0  0  0  0
  2  1  1  0  0  0  0
  3 12  1  0  0  0  0
  3  2  1  0  0  0  0
  4  6  1  0  0  0  0
  4 13  1  1  0  0  0
  5 15  1  0  0  0  0
  5  4  1  0  0  0  0
  6  7  2  0  0  0  0
  8  1  1  0  0  0  0
  9  1  1  0  0  0  0
 14  5  1  0  0  0  0
 16 17  1  0  0  0  0
 16  6  1  0  0  0  0
 17 25  1  1  0  0  0
 17 21  1  0  0  0  0
 18 26  1  0  0  0  0
 18 17  1  0  0  0  0
 19 23  1  0  0  0  0
 19 18  1  0  0  0  0
 20 19  2  0  0  0  0
 21 29  1  0  0  0  0
 21 22  2  0  0  0  0
 24 16  1  0  0  0  0
 27 18  1  0  0  0  0
 28 23  1  0  0  0  0
 29 30  1  0  0  0  0
 30 40  1  1  0  0  0
 30 35  1  0  0  0  0
 31 42  1  0  0  0  0
 31 30  1  0  0  0  0
 32 43  1  0  0  0  0
 32 31  1  0  0  0  0
 33 32  1  0  0  0  0
 34 33  2  0  0  0  0
 35 36  2  0  0  0  0
 35 38  1  0  0  0  0
 37 33  1  0  0  0  0
 39 29  1  0  0  0  0
 41 31  1  0  0  0  0
 44 32  1  0  0  0  0
 45 37  1  0  0  0  0
M  END
$$$$
