TDI.pdb
 OpenBabel07022419113D

 48 47  0  0  1  0  0  0  0  0999 V2000
    1.8940   -4.3590   -1.4530 C   0  0  0  0  0  0  0  0  0  0  0  0
    2.0080   -3.8500   -0.0370 C   0  0  1  0  0  0  0  0  0  0  0  0
    2.7800   -4.7960    0.6740 O   0  0  0  0  0  0  0  0  0  0  0  0
    2.6470   -2.5080    0.0750 C   0  0  2  0  0  0  0  0  0  0  0  0
    2.7140   -2.1360    1.4660 N   0  0  0  0  0  0  0  0  0  0  0  0
    1.9710   -1.4580   -0.7680 C   0  0  0  0  0  0  0  0  0  0  0  0
    1.8820   -1.6710   -1.9910 O   0  0  0  0  0  0  0  0  0  0  0  0
    0.8370   -4.1890   -1.7780 H   0  0  0  0  0  0  0  0  0  0  0  0
    2.0160   -5.4770   -1.4390 H   0  0  0  0  0  0  0  0  0  0  0  0
    2.6080   -3.8780   -2.1340 H   0  0  0  0  0  0  0  0  0  0  0  0
    1.0130   -3.8460    0.4560 H   0  0  0  0  0  0  0  0  0  0  0  0
    2.1580   -5.5580    0.8940 H   0  0  0  0  0  0  0  0  0  0  0  0
    3.6970   -2.5880   -0.2900 H   0  0  0  0  0  0  0  0  0  0  0  0
    3.5740   -1.5960    1.7210 H   0  0  0  0  0  0  0  0  0  0  0  0
    2.5420   -2.9330    2.1190 H   0  0  0  0  0  0  0  0  0  0  0  0
    1.4720   -0.2970   -0.1780 N   0  0  0  0  0  0  0  0  0  0  0  0
    0.8270    0.8540   -0.6980 C   0  0  1  0  0  0  0  0  0  0  0  0
    0.4580    0.7600   -2.1840 C   0  0  0  0  0  0  0  0  0  0  0  0
    1.6210    0.6880   -3.0760 C   0  0  0  0  0  0  0  0  0  0  0  0
    1.4920    0.3170   -4.2570 O   0  0  0  0  0  0  0  0  0  0  0  0
   -0.2270    1.4490    0.1110 C   0  0  0  0  0  0  0  0  0  0  0  0
   -0.8390    2.5050   -0.2390 O   0  0  0  0  0  0  0  0  0  0  0  0
    2.8690    1.0380   -2.6050 O   0  0  0  0  0  0  0  0  0  0  0  0
    1.6240   -0.2910    0.9080 H   0  0  0  0  0  0  0  0  0  0  0  0
    1.6780    1.6690   -0.8070 H   0  0  0  0  0  0  0  0  0  0  0  0
   -0.1590   -0.1660   -2.3090 H   0  0  0  0  0  0  0  0  0  0  0  0
   -0.2190    1.6040   -2.4340 H   0  0  0  0  0  0  0  0  0  0  0  0
    3.7320    0.9810   -3.1280 H   0  0  0  0  0  0  0  0  0  0  0  0
   -2.3570   -0.8350    4.2090 C   0  0  0  0  0  0  0  0  0  0  0  0
   -2.7570   -0.7280    2.7840 C   0  0  0  0  0  0  0  0  0  0  0  0
   -2.9350    0.6260    2.2160 C   0  0  2  0  0  0  0  0  0  0  0  0
   -3.3630    0.4380    0.7440 C   0  0  0  0  0  0  0  0  0  0  0  0
   -1.6910    1.4790    2.1450 C   0  0  2  0  0  0  0  0  0  0  0  0
   -0.6550    0.8890    1.3610 N   0  0  0  0  0  0  0  0  0  0  0  0
   -1.2640    1.8570    3.4910 C   0  0  0  0  0  0  0  0  0  0  0  0
   -0.0880    1.6620    3.9080 O   0  0  0  0  0  0  0  0  0  0  0  0
   -2.1320    2.4600    4.4030 O   0  0  0  0  0  0  0  0  0  0  0  0
   -1.2890   -0.7360    4.4090 H   0  0  0  0  0  0  0  0  0  0  0  0
   -2.6310   -1.8850    4.5350 H   0  0  0  0  0  0  0  0  0  0  0  0
   -2.9410   -0.0970    4.8050 H   0  0  0  0  0  0  0  0  0  0  0  0
   -1.9700   -1.2450    2.1850 H   0  0  0  0  0  0  0  0  0  0  0  0
   -3.6910   -1.3120    2.5740 H   0  0  0  0  0  0  0  0  0  0  0  0
   -3.7480    1.1570    2.7460 H   0  0  0  0  0  0  0  0  0  0  0  0
   -2.5070   -0.0660    0.2520 H   0  0  0  0  0  0  0  0  0  0  0  0
   -3.5740    1.4280    0.3330 H   0  0  0  0  0  0  0  0  0  0  0  0
   -4.2350   -0.2520    0.7520 H   0  0  0  0  0  0  0  0  0  0  0  0
   -1.9920    2.4610    1.6390 H   0  0  0  0  0  0  0  0  0  0  0  0
   -0.1980    0.0010    1.7310 H   0  0  0  0  0  0  0  0  0  0  0  0
  1  9  1  0  0  0  0
  1  2  1  0  0  0  0
  2  4  1  0  0  0  0
  2 11  1  1  0  0  0
  2  3  1  0  0  0  0
  3 12  1  0  0  0  0
  4 13  1  6  0  0  0
  4  5  1  0  0  0  0
  5 14  1  0  0  0  0
  5 15  1  0  0  0  0
  6 16  1  0  0  0  0
  6  4  1  0  0  0  0
  7  6  2  0  0  0  0
  8  1  1  0  0  0  0
 10  1  1  0  0  0  0
 16 24  1  0  0  0  0
 17 25  1  1  0  0  0
 17 16  1  0  0  0  0
 17 21  1  0  0  0  0
 18 17  1  0  0  0  0
 19 23  1  0  0  0  0
 19 18  1  0  0  0  0
 20 19  2  0  0  0  0
 21 34  1  0  0  0  0
 22 21  2  0  0  0  0
 26 18  1  0  0  0  0
 27 18  1  0  0  0  0
 28 23  1  0  0  0  0
 29 38  1  0  0  0  0
 29 39  1  0  0  0  0
 29 40  1  0  0  0  0
 30 29  1  0  0  0  0
 31 43  1  1  0  0  0
 31 30  1  0  0  0  0
 32 46  1  0  0  0  0
 32 31  1  0  0  0  0
 33 47  1  6  0  0  0
 33 31  1  0  0  0  0
 33 35  1  0  0  0  0
 34 48  1  0  0  0  0
 34 33  1  0  0  0  0
 35 36  2  0  0  0  0
 35 37  1  0  0  0  0
 41 30  1  0  0  0  0
 42 30  1  0  0  0  0
 44 32  1  0  0  0  0
 45 32  1  0  0  0  0
M  END
$$$$
