TDM.pdb
 OpenBabel07022419113D

 46 45  0  0  1  0  0  0  0  0999 V2000
    2.9380   -5.7380   -1.4510 C   0  0  0  0  0  0  0  0  0  0  0  0
    2.5970   -4.6720   -0.4320 C   0  0  1  0  0  0  0  0  0  0  0  0
    3.6410   -3.7320   -0.4790 O   0  0  0  0  0  0  0  0  0  0  0  0
    1.2760   -4.0000   -0.7700 C   0  0  2  0  0  0  0  0  0  0  0  0
    1.3930   -3.4570   -2.0860 N   0  0  0  0  0  0  0  0  0  0  0  0
    1.0000   -2.9530    0.2560 C   0  0  0  0  0  0  0  0  0  0  0  0
    0.8520   -3.2570    1.4680 O   0  0  0  0  0  0  0  0  0  0  0  0
    2.6640   -6.7370   -1.0300 H   0  0  0  0  0  0  0  0  0  0  0  0
    2.3990   -5.5270   -2.4060 H   0  0  0  0  0  0  0  0  0  0  0  0
    4.0090   -5.7590   -1.7010 H   0  0  0  0  0  0  0  0  0  0  0  0
    2.5950   -5.0860    0.6050 H   0  0  0  0  0  0  0  0  0  0  0  0
    4.4230   -4.1380   -0.0680 H   0  0  0  0  0  0  0  0  0  0  0  0
    0.5090   -4.7890   -0.7770 H   0  0  0  0  0  0  0  0  0  0  0  0
    2.3230   -3.1070   -2.3380 H   0  0  0  0  0  0  0  0  0  0  0  0
    0.5950   -2.8660   -2.3940 H   0  0  0  0  0  0  0  0  0  0  0  0
    0.8890   -1.5760   -0.0770 N   0  0  0  0  0  0  0  0  0  0  0  0
    0.6210   -0.5780    0.9370 C   0  0  1  0  0  0  0  0  0  0  0  0
    1.6610    0.4930    0.8720 C   0  0  0  0  0  0  0  0  0  0  0  0
    3.0130   -0.0400    1.1000 C   0  0  0  0  0  0  0  0  0  0  0  0
    3.1770   -1.2570    1.3180 O   0  0  0  0  0  0  0  0  0  0  0  0
   -0.7440   -0.0260    0.6280 C   0  0  0  0  0  0  0  0  0  0  0  0
   -1.3760   -0.4580   -0.3630 O   0  0  0  0  0  0  0  0  0  0  0  0
    4.1120    0.7930    1.0760 O   0  0  0  0  0  0  0  0  0  0  0  0
    1.0050   -1.2890   -1.0720 H   0  0  0  0  0  0  0  0  0  0  0  0
    0.6310   -1.0380    1.9470 H   0  0  0  0  0  0  0  0  0  0  0  0
    1.4710    1.3050    1.6100 H   0  0  0  0  0  0  0  0  0  0  0  0
    1.6790    0.9610   -0.1570 H   0  0  0  0  0  0  0  0  0  0  0  0
    5.0560    0.4590    0.8250 H   0  0  0  0  0  0  0  0  0  0  0  0
   -1.9420    4.0620    3.6200 C   0  0  0  0  0  0  0  0  0  0  0  0
   -3.4340    3.2190    4.0900 S   0  0  0  0  0  0  0  0  0  0  0  0
   -3.5430    1.5320    3.5940 C   0  0  0  0  0  0  0  0  0  0  0  0
   -3.6910    1.1910    2.1730 C   0  0  0  0  0  0  0  0  0  0  0  0
   -2.6430    1.5510    1.1960 C   0  0  2  0  0  0  0  0  0  0  0  0
   -1.3370    0.9850    1.4470 N   0  0  0  0  0  0  0  0  0  0  0  0
   -2.6160    2.9510    0.7400 C   0  0  0  0  0  0  0  0  0  0  0  0
   -3.6530    3.6330    0.5350 O   0  0  0  0  0  0  0  0  0  0  0  0
   -1.4150    3.6480    0.4890 O   0  0  0  0  0  0  0  0  0  0  0  0
   -1.4630    4.6200    4.4650 H   0  0  0  0  0  0  0  0  0  0  0  0
   -1.1770    3.3780    3.2080 H   0  0  0  0  0  0  0  0  0  0  0  0
   -2.1100    4.8570    2.8470 H   0  0  0  0  0  0  0  0  0  0  0  0
   -4.4550    1.0880    4.1190 H   0  0  0  0  0  0  0  0  0  0  0  0
   -2.7050    0.9600    4.0900 H   0  0  0  0  0  0  0  0  0  0  0  0
   -4.6850    1.5660    1.7730 H   0  0  0  0  0  0  0  0  0  0  0  0
   -3.8570    0.0620    2.1390 H   0  0  0  0  0  0  0  0  0  0  0  0
   -2.9690    0.9840    0.2320 H   0  0  0  0  0  0  0  0  0  0  0  0
   -0.7220    1.2700    2.2510 H   0  0  0  0  0  0  0  0  0  0  0  0
  1  8  1  0  0  0  0
  1  2  1  0  0  0  0
  2 11  1  1  0  0  0
  3  2  1  0  0  0  0
  3 12  1  0  0  0  0
  4 13  1  1  0  0  0
  4  2  1  0  0  0  0
  4  6  1  0  0  0  0
  5  4  1  0  0  0  0
  6  7  2  0  0  0  0
  9  1  1  0  0  0  0
 10  1  1  0  0  0  0
 14  5  1  0  0  0  0
 15  5  1  0  0  0  0
 16  6  1  0  0  0  0
 16 17  1  0  0  0  0
 17 25  1  1  0  0  0
 18 17  1  0  0  0  0
 18 19  1  0  0  0  0
 18 26  1  0  0  0  0
 19 20  2  0  0  0  0
 21 17  1  0  0  0  0
 21 34  1  0  0  0  0
 22 21  2  0  0  0  0
 23 19  1  0  0  0  0
 24 16  1  0  0  0  0
 27 18  1  0  0  0  0
 28 23  1  0  0  0  0
 29 30  1  0  0  0  0
 29 38  1  0  0  0  0
 31 42  1  0  0  0  0
 31 30  1  0  0  0  0
 31 41  1  0  0  0  0
 32 31  1  0  0  0  0
 33 45  1  6  0  0  0
 33 34  1  0  0  0  0
 33 32  1  0  0  0  0
 34 46  1  0  0  0  0
 35 33  1  0  0  0  0
 36 35  1  0  0  0  0
 37 35  2  0  0  0  0
 39 29  1  0  0  0  0
 40 29  1  0  0  0  0
 43 32  1  0  0  0  0
 44 32  1  0  0  0  0
M  END
$$$$
