TDW.pdb
 OpenBabel07022419113D

 53 54  0  0  1  0  0  0  0  0999 V2000
    1.3980    1.8160    5.4670 C   0  0  0  0  0  0  0  0  0  0  0  0
    2.6300    0.9610    5.3930 C   0  0  1  0  0  0  0  0  0  0  0  0
    2.3170   -0.3810    5.7120 O   0  0  0  0  0  0  0  0  0  0  0  0
    3.3200    1.0000    4.0500 C   0  0  2  0  0  0  0  0  0  0  0  0
    3.6510    2.3450    3.6900 N   0  0  0  0  0  0  0  0  0  0  0  0
    2.5500    0.2690    3.0010 C   0  0  0  0  0  0  0  0  0  0  0  0
    2.2040   -0.8840    3.2840 O   0  0  0  0  0  0  0  0  0  0  0  0
    0.5320    1.2940    4.9670 H   0  0  0  0  0  0  0  0  0  0  0  0
    1.5440    2.7900    5.0070 H   0  0  0  0  0  0  0  0  0  0  0  0
    1.1670    2.0180    6.5540 H   0  0  0  0  0  0  0  0  0  0  0  0
    3.3670    1.2950    6.1590 H   0  0  0  0  0  0  0  0  0  0  0  0
    1.3320   -0.4620    5.5620 H   0  0  0  0  0  0  0  0  0  0  0  0
    4.3130    0.4830    4.2240 H   0  0  0  0  0  0  0  0  0  0  0  0
    4.4830    2.4520    3.0940 H   0  0  0  0  0  0  0  0  0  0  0  0
    2.8590    2.9580    3.4600 H   0  0  0  0  0  0  0  0  0  0  0  0
    2.2230    0.8420    1.7450 N   0  0  0  0  0  0  0  0  0  0  0  0
    1.4850    0.2330    0.6880 C   0  0  1  0  0  0  0  0  0  0  0  0
    2.2960   -0.4320   -0.3520 C   0  0  0  0  0  0  0  0  0  0  0  0
    3.2100    0.5600   -1.0020 C   0  0  0  0  0  0  0  0  0  0  0  0
    4.0290    0.2610   -1.8930 O   0  0  0  0  0  0  0  0  0  0  0  0
    0.2810   -0.5430    1.1430 C   0  0  0  0  0  0  0  0  0  0  0  0
   -0.0890   -0.6060    2.3500 O   0  0  0  0  0  0  0  0  0  0  0  0
    3.1550    1.8840   -0.6050 O   0  0  0  0  0  0  0  0  0  0  0  0
    2.6040    1.8460    1.6490 H   0  0  0  0  0  0  0  0  0  0  0  0
    0.9640    1.1180    0.1680 H   0  0  0  0  0  0  0  0  0  0  0  0
    2.9660   -1.2320    0.0240 H   0  0  0  0  0  0  0  0  0  0  0  0
    1.6940   -0.8980   -1.1390 H   0  0  0  0  0  0  0  0  0  0  0  0
    3.6710    2.6090   -1.1220 H   0  0  0  0  0  0  0  0  0  0  0  0
   -0.5130   -1.2600    0.2050 N   0  0  0  0  0  0  0  0  0  0  0  0
   -1.6990   -2.0320    0.6160 C   0  0  1  0  0  0  0  0  0  0  0  0
   -2.9340   -1.4060    0.0610 C   0  0  0  0  0  0  0  0  0  0  0  0
   -3.0090   -1.2890   -1.3940 C   0  0  0  0  0  0  0  0  0  0  0  0
   -2.6520   -0.1500   -2.1330 C   0  0  0  0  0  0  0  0  0  0  0  0
   -2.8100   -0.4190   -3.4250 N   0  0  0  0  0  0  0  0  0  0  0  0
   -3.2610   -1.6940   -3.5840 C   0  0  0  0  0  0  0  0  0  0  0  0
   -3.5790   -2.4130   -4.7270 C   0  0  0  0  0  0  0  0  0  0  0  0
   -4.0370   -3.7080   -4.6500 C   0  0  0  0  0  0  0  0  0  0  0  0
   -4.1560   -4.2290   -3.3830 C   0  0  0  0  0  0  0  0  0  0  0  0
   -3.8460   -3.5330   -2.2430 C   0  0  0  0  0  0  0  0  0  0  0  0
   -3.3830   -2.2290   -2.3210 C   0  0  0  0  0  0  0  0  0  0  0  0
   -1.5190   -3.4600    0.4140 C   0  0  0  0  0  0  0  0  0  0  0  0
   -2.3520   -4.3180    0.7900 O   0  0  0  0  0  0  0  0  0  0  0  0
   -0.3830   -3.9990   -0.2280 O   0  0  0  0  0  0  0  0  0  0  0  0
   -0.2420   -1.2280   -0.7950 H   0  0  0  0  0  0  0  0  0  0  0  0
   -1.7690   -1.8830    1.7400 H   0  0  0  0  0  0  0  0  0  0  0  0
   -3.0450   -0.4100    0.5710 H   0  0  0  0  0  0  0  0  0  0  0  0
   -3.8020   -2.0500    0.3850 H   0  0  0  0  0  0  0  0  0  0  0  0
   -2.3030    0.7850   -1.6730 H   0  0  0  0  0  0  0  0  0  0  0  0
   -2.6270    0.2280   -4.2470 H   0  0  0  0  0  0  0  0  0  0  0  0
   -3.4710   -1.9620   -5.7130 H   0  0  0  0  0  0  0  0  0  0  0  0
   -4.2870   -4.2750   -5.5360 H   0  0  0  0  0  0  0  0  0  0  0  0
   -4.5240   -5.2640   -3.3270 H   0  0  0  0  0  0  0  0  0  0  0  0
   -3.9610   -3.9580   -1.2630 H   0  0  0  0  0  0  0  0  0  0  0  0
  1 10  1  0  0  0  0
  2  1  1  0  0  0  0
  2  3  1  0  0  0  0
  2 11  1  1  0  0  0
  4 13  1  1  0  0  0
  4  2  1  0  0  0  0
  5  4  1  0  0  0  0
  6  7  2  0  0  0  0
  6  4  1  0  0  0  0
  8  1  1  0  0  0  0
  9  1  1  0  0  0  0
 12  3  1  0  0  0  0
 14  5  1  0  0  0  0
 15  5  1  0  0  0  0
 16  6  1  0  0  0  0
 17 25  1  6  0  0  0
 17 21  1  0  0  0  0
 17 16  1  0  0  0  0
 18 26  1  0  0  0  0
 18 17  1  0  0  0  0
 19 23  1  0  0  0  0
 19 18  1  0  0  0  0
 20 19  2  0  0  0  0
 21 22  2  0  0  0  0
 24 16  1  0  0  0  0
 27 18  1  0  0  0  0
 28 23  1  0  0  0  0
 29 30  1  0  0  0  0
 29 21  1  0  0  0  0
 30 45  1  1  0  0  0
 31 47  1  0  0  0  0
 31 46  1  0  0  0  0
 31 30  1  0  0  0  0
 32 31  1  0  0  0  0
 33 48  1  0  0  0  0
 33 32  2  0  0  0  0
 34 33  1  0  0  0  0
 35 34  1  0  0  0  0
 35 40  1  0  0  0  0
 36 37  1  0  0  0  0
 36 35  2  0  0  0  0
 37 38  2  0  0  0  0
 38 52  1  0  0  0  0
 38 39  1  0  0  0  0
 39 53  1  0  0  0  0
 40 39  2  0  0  0  0
 40 32  1  0  0  0  0
 41 30  1  0  0  0  0
 41 42  1  0  0  0  0
 43 41  2  0  0  0  0
 44 29  1  0  0  0  0
 49 34  1  0  0  0  0
 50 36  1  0  0  0  0
 51 37  1  0  0  0  0
M  END
$$$$
