TEG.pdb
 OpenBabel07022419113D

 39 38  0  0  1  0  0  0  0  0999 V2000
   -0.0710   -3.1950    3.6200 C   0  0  0  0  0  0  0  0  0  0  0  0
   -0.4680   -3.6050    2.2260 C   0  0  1  0  0  0  0  0  0  0  0  0
   -1.5580   -2.9300    1.7360 O   0  0  0  0  0  0  0  0  0  0  0  0
    0.7600   -3.5200    1.3550 C   0  0  2  0  0  0  0  0  0  0  0  0
    1.8000   -4.2820    2.0170 N   0  0  0  0  0  0  0  0  0  0  0  0
    1.2430   -2.1660    1.1030 C   0  0  0  0  0  0  0  0  0  0  0  0
    2.4060   -1.8500    1.4660 O   0  0  0  0  0  0  0  0  0  0  0  0
   -0.8890   -2.8070    4.2300 H   0  0  0  0  0  0  0  0  0  0  0  0
    0.7550   -2.4370    3.5650 H   0  0  0  0  0  0  0  0  0  0  0  0
    0.3790   -4.0610    4.1830 H   0  0  0  0  0  0  0  0  0  0  0  0
   -0.7370   -4.6910    2.2780 H   0  0  0  0  0  0  0  0  0  0  0  0
   -1.9190   -3.4690    0.9710 H   0  0  0  0  0  0  0  0  0  0  0  0
    0.5550   -4.0330    0.3770 H   0  0  0  0  0  0  0  0  0  0  0  0
    2.4530   -4.6900    1.2910 H   0  0  0  0  0  0  0  0  0  0  0  0
    2.3730   -3.5780    2.5710 H   0  0  0  0  0  0  0  0  0  0  0  0
    0.4910   -1.1420    0.4640 N   0  0  0  0  0  0  0  0  0  0  0  0
    1.0720    0.1820    0.2580 C   0  0  1  0  0  0  0  0  0  0  0  0
    1.1500    0.3800   -1.2350 C   0  0  0  0  0  0  0  0  0  0  0  0
    1.7250    1.6920   -1.6580 C   0  0  0  0  0  0  0  0  0  0  0  0
    1.7160    1.6870   -3.1640 C   0  0  0  0  0  0  0  0  0  0  0  0
    0.6660    1.8900   -3.8270 O   0  0  0  0  0  0  0  0  0  0  0  0
    0.2720    1.1850    0.9430 C   0  0  0  0  0  0  0  0  0  0  0  0
    0.5970    2.3900    0.9100 O   0  0  0  0  0  0  0  0  0  0  0  0
    2.8820    1.4550   -3.8810 O   0  0  0  0  0  0  0  0  0  0  0  0
   -0.4770   -1.3570    0.1470 H   0  0  0  0  0  0  0  0  0  0  0  0
    2.1090    0.2070    0.6830 H   0  0  0  0  0  0  0  0  0  0  0  0
    1.8510   -0.4130   -1.6150 H   0  0  0  0  0  0  0  0  0  0  0  0
    0.1920    0.2330   -1.7390 H   0  0  0  0  0  0  0  0  0  0  0  0
    1.0960    2.5630   -1.3590 H   0  0  0  0  0  0  0  0  0  0  0  0
    2.7810    1.8370   -1.3550 H   0  0  0  0  0  0  0  0  0  0  0  0
    2.8860    0.9680   -4.7830 H   0  0  0  0  0  0  0  0  0  0  0  0
   -0.8850    0.8060    1.6560 N   0  0  0  0  0  0  0  0  0  0  0  0
   -1.6920    1.7840    2.3410 C   0  0  0  0  0  0  0  0  0  0  0  0
   -2.1970    2.7600    1.3540 C   0  0  0  0  0  0  0  0  0  0  0  0
   -1.8990    2.6260    0.1440 O   0  0  0  0  0  0  0  0  0  0  0  0
   -2.9980    3.8310    1.7200 O   0  0  0  0  0  0  0  0  0  0  0  0
   -1.1810   -0.2150    1.6990 H   0  0  0  0  0  0  0  0  0  0  0  0
   -2.5860    1.2850    2.8090 H   0  0  0  0  0  0  0  0  0  0  0  0
   -1.1330    2.2960    3.1540 H   0  0  0  0  0  0  0  0  0  0  0  0
  1 10  1  0  0  0  0
  1  8  1  0  0  0  0
  2 11  1  1  0  0  0
  2  1  1  0  0  0  0
  3  2  1  0  0  0  0
  4 13  1  6  0  0  0
  4  5  1  0  0  0  0
  4  2  1  0  0  0  0
  5 15  1  0  0  0  0
  6  4  1  0  0  0  0
  6  7  2  0  0  0  0
  9  1  1  0  0  0  0
 12  3  1  0  0  0  0
 14  5  1  0  0  0  0
 16  6  1  0  0  0  0
 17 16  1  0  0  0  0
 17 26  1  1  0  0  0
 17 22  1  0  0  0  0
 18 17  1  0  0  0  0
 19 29  1  0  0  0  0
 19 30  1  0  0  0  0
 19 18  1  0  0  0  0
 20 19  1  0  0  0  0
 21 20  2  0  0  0  0
 22 32  1  0  0  0  0
 23 22  2  0  0  0  0
 24 20  1  0  0  0  0
 25 16  1  0  0  0  0
 27 18  1  0  0  0  0
 28 18  1  0  0  0  0
 31 24  1  0  0  0  0
 32 37  1  0  0  0  0
 32 33  1  0  0  0  0
 33 38  1  0  0  0  0
 33 39  1  0  0  0  0
 34 36  1  0  0  0  0
 34 33  1  0  0  0  0
 35 34  2  0  0  0  0
M  END
$$$$
