TEH.pdb
 OpenBabel07022419113D

 49 49  0  0  1  0  0  0  0  0999 V2000
   -1.6840    1.5120    3.7430 C   0  0  0  0  0  0  0  0  0  0  0  0
   -1.5780    0.3500    4.6890 C   0  0  1  0  0  0  0  0  0  0  0  0
   -2.8180    0.1230    5.2750 O   0  0  0  0  0  0  0  0  0  0  0  0
   -1.0970   -0.9210    4.0020 C   0  0  2  0  0  0  0  0  0  0  0  0
   -0.9550   -1.9190    5.0780 N   0  0  0  0  0  0  0  0  0  0  0  0
    0.1580   -0.7740    3.2810 C   0  0  0  0  0  0  0  0  0  0  0  0
    1.2330   -0.5210    3.8830 O   0  0  0  0  0  0  0  0  0  0  0  0
   -2.0200    2.4430    4.2550 H   0  0  0  0  0  0  0  0  0  0  0  0
   -2.3430    1.3060    2.8840 H   0  0  0  0  0  0  0  0  0  0  0  0
   -0.6490    1.6860    3.3400 H   0  0  0  0  0  0  0  0  0  0  0  0
   -0.9010    0.5970    5.5600 H   0  0  0  0  0  0  0  0  0  0  0  0
   -3.5510    0.2660    4.6180 H   0  0  0  0  0  0  0  0  0  0  0  0
   -1.9510   -1.2630    3.3850 H   0  0  0  0  0  0  0  0  0  0  0  0
    0.0190   -2.0560    5.3300 H   0  0  0  0  0  0  0  0  0  0  0  0
   -1.6500   -1.8270    5.8190 H   0  0  0  0  0  0  0  0  0  0  0  0
    0.2920   -0.9070    1.8630 N   0  0  0  0  0  0  0  0  0  0  0  0
    1.5580   -0.7580    1.1670 C   0  0  1  0  0  0  0  0  0  0  0  0
    2.2710   -2.1230    1.2160 C   0  0  0  0  0  0  0  0  0  0  0  0
    3.5820   -2.1560    0.5330 C   0  0  0  0  0  0  0  0  0  0  0  0
    4.6080   -1.2490    1.0640 C   0  0  0  0  0  0  0  0  0  0  0  0
    4.3790   -0.5110    2.0400 O   0  0  0  0  0  0  0  0  0  0  0  0
    1.5310   -0.1930   -0.1430 C   0  0  0  0  0  0  0  0  0  0  0  0
    2.6040    0.0870   -0.7940 O   0  0  0  0  0  0  0  0  0  0  0  0
    5.8760   -1.1610    0.5100 O   0  0  0  0  0  0  0  0  0  0  0  0
   -0.5420   -1.1240    1.3110 H   0  0  0  0  0  0  0  0  0  0  0  0
    2.1750   -0.1620    1.8880 H   0  0  0  0  0  0  0  0  0  0  0  0
    2.4440   -2.4020    2.2980 H   0  0  0  0  0  0  0  0  0  0  0  0
    1.6250   -2.9260    0.8130 H   0  0  0  0  0  0  0  0  0  0  0  0
    3.9870   -3.2110    0.6910 H   0  0  0  0  0  0  0  0  0  0  0  0
    3.5050   -2.1000   -0.5830 H   0  0  0  0  0  0  0  0  0  0  0  0
    6.6600   -0.8950    1.0760 H   0  0  0  0  0  0  0  0  0  0  0  0
    0.3330    0.1060   -0.8430 N   0  0  0  0  0  0  0  0  0  0  0  0
    0.3010    0.6830   -2.1730 C   0  0  1  0  0  0  0  0  0  0  0  0
    0.1470   -0.2880   -3.2790 C   0  0  0  0  0  0  0  0  0  0  0  0
   -1.0710   -1.1040   -3.3030 C   0  0  0  0  0  0  0  0  0  0  0  0
   -2.1870   -1.2030   -2.5410 C   0  0  0  0  0  0  0  0  0  0  0  0
   -3.0010   -2.1600   -3.0670 N   0  0  0  0  0  0  0  0  0  0  0  0
   -2.3890   -2.6550   -4.1590 C   0  0  0  0  0  0  0  0  0  0  0  0
   -1.2390   -2.0330   -4.3030 N   0  0  0  0  0  0  0  0  0  0  0  0
   -0.7630    1.7090   -2.2420 C   0  0  0  0  0  0  0  0  0  0  0  0
   -1.0480    2.3950   -3.2400 O   0  0  0  0  0  0  0  0  0  0  0  0
   -1.5510    1.9560   -1.0970 O   0  0  0  0  0  0  0  0  0  0  0  0
   -0.5950   -0.0730   -0.3930 H   0  0  0  0  0  0  0  0  0  0  0  0
    1.2840    1.1940   -2.3640 H   0  0  0  0  0  0  0  0  0  0  0  0
    1.0450   -0.9540   -3.4030 H   0  0  0  0  0  0  0  0  0  0  0  0
    0.1250    0.3270   -4.2370 H   0  0  0  0  0  0  0  0  0  0  0  0
   -2.4140   -0.6230   -1.6710 H   0  0  0  0  0  0  0  0  0  0  0  0
   -3.9190   -2.4630   -2.7090 H   0  0  0  0  0  0  0  0  0  0  0  0
   -2.7590   -3.4370   -4.8290 H   0  0  0  0  0  0  0  0  0  0  0  0
  1  8  1  0  0  0  0
  1  2  1  0  0  0  0
  2  3  1  0  0  0  0
  2 11  1  1  0  0  0
  4 13  1  6  0  0  0
  4  2  1  0  0  0  0
  4  5  1  0  0  0  0
  5 14  1  0  0  0  0
  5 15  1  0  0  0  0
  6  7  2  0  0  0  0
  6  4  1  0  0  0  0
  9  1  1  0  0  0  0
 10  1  1  0  0  0  0
 12  3  1  0  0  0  0
 16  6  1  0  0  0  0
 17 18  1  0  0  0  0
 17 16  1  0  0  0  0
 17 26  1  1  0  0  0
 18 27  1  0  0  0  0
 19 29  1  0  0  0  0
 19 20  1  0  0  0  0
 19 18  1  0  0  0  0
 20 21  2  0  0  0  0
 22 17  1  0  0  0  0
 23 22  2  0  0  0  0
 24 20  1  0  0  0  0
 24 31  1  0  0  0  0
 25 16  1  0  0  0  0
 28 18  1  0  0  0  0
 30 19  1  0  0  0  0
 32 43  1  0  0  0  0
 32 22  1  0  0  0  0
 33 44  1  6  0  0  0
 33 32  1  0  0  0  0
 34 33  1  0  0  0  0
 35 34  1  0  0  0  0
 35 36  2  0  0  0  0
 36 47  1  0  0  0  0
 37 48  1  0  0  0  0
 37 36  1  0  0  0  0
 38 37  1  0  0  0  0
 39 38  2  0  0  0  0
 39 35  1  0  0  0  0
 40 33  1  0  0  0  0
 40 42  1  0  0  0  0
 41 40  2  0  0  0  0
 45 34  1  0  0  0  0
 46 34  1  0  0  0  0
 49 38  1  0  0  0  0
M  END
$$$$
