TEI.pdb
 OpenBabel07022419113D

 51 50  0  0  1  0  0  0  0  0999 V2000
    1.7900   -3.2990    5.2970 C   0  0  0  0  0  0  0  0  0  0  0  0
    1.9150   -2.2230    4.2490 C   0  0  1  0  0  0  0  0  0  0  0  0
    3.1990   -1.6240    4.4200 O   0  0  0  0  0  0  0  0  0  0  0  0
    2.0180   -2.8980    2.8590 C   0  0  2  0  0  0  0  0  0  0  0  0
    3.0860   -3.8590    2.8630 N   0  0  0  0  0  0  0  0  0  0  0  0
    2.2600   -1.8540    1.8290 C   0  0  0  0  0  0  0  0  0  0  0  0
    3.4590   -1.4750    1.5780 O   0  0  0  0  0  0  0  0  0  0  0  0
    1.1030   -4.1310    4.9760 H   0  0  0  0  0  0  0  0  0  0  0  0
    2.7810   -3.8050    5.4840 H   0  0  0  0  0  0  0  0  0  0  0  0
    1.3270   -2.9150    6.2400 H   0  0  0  0  0  0  0  0  0  0  0  0
    1.1700   -1.4370    4.2840 H   0  0  0  0  0  0  0  0  0  0  0  0
    3.8240   -2.4170    4.3420 H   0  0  0  0  0  0  0  0  0  0  0  0
    1.0600   -3.4310    2.6850 H   0  0  0  0  0  0  0  0  0  0  0  0
    2.7470   -4.6760    2.2900 H   0  0  0  0  0  0  0  0  0  0  0  0
    3.9550   -3.4720    2.4850 H   0  0  0  0  0  0  0  0  0  0  0  0
    1.2190   -1.2300    1.0740 N   0  0  0  0  0  0  0  0  0  0  0  0
    1.4850   -0.1760    0.0850 C   0  0  1  0  0  0  0  0  0  0  0  0
    1.9980   -0.9120   -1.1230 C   0  0  0  0  0  0  0  0  0  0  0  0
    2.3900   -0.1860   -2.3190 C   0  0  0  0  0  0  0  0  0  0  0  0
    1.3560    0.5860   -3.0380 C   0  0  0  0  0  0  0  0  0  0  0  0
    1.6000    1.7370   -3.5010 O   0  0  0  0  0  0  0  0  0  0  0  0
    0.4070    0.7370   -0.0870 C   0  0  0  0  0  0  0  0  0  0  0  0
    0.5060    1.8230   -0.7400 O   0  0  0  0  0  0  0  0  0  0  0  0
    0.0940    0.0690   -3.2300 O   0  0  0  0  0  0  0  0  0  0  0  0
    0.2550   -1.6100    1.2790 H   0  0  0  0  0  0  0  0  0  0  0  0
    2.3960    0.3620    0.5060 H   0  0  0  0  0  0  0  0  0  0  0  0
    1.2680   -1.7110   -1.4360 H   0  0  0  0  0  0  0  0  0  0  0  0
    2.8880   -1.5090   -0.7550 H   0  0  0  0  0  0  0  0  0  0  0  0
    3.3430    0.4000   -2.2200 H   0  0  0  0  0  0  0  0  0  0  0  0
    2.7010   -0.9870   -3.0780 H   0  0  0  0  0  0  0  0  0  0  0  0
   -0.4360    0.4550   -4.0160 H   0  0  0  0  0  0  0  0  0  0  0  0
   -2.9450   -1.5380   -0.4870 C   0  0  0  0  0  0  0  0  0  0  0  0
   -3.7480   -0.3030   -0.1960 C   0  0  0  0  0  0  0  0  0  0  0  0
   -3.0950    0.9740   -0.6290 C   0  0  2  0  0  0  0  0  0  0  0  0
   -2.7980    1.0350   -2.0940 C   0  0  0  0  0  0  0  0  0  0  0  0
   -1.9950    1.4680    0.2750 C   0  0  2  0  0  0  0  0  0  0  0  0
   -0.8950    0.5290    0.4550 N   0  0  0  0  0  0  0  0  0  0  0  0
   -2.5040    1.9310    1.5890 C   0  0  0  0  0  0  0  0  0  0  0  0
   -2.0410    1.5330    2.6530 O   0  0  0  0  0  0  0  0  0  0  0  0
   -3.5690    2.8580    1.6110 O   0  0  0  0  0  0  0  0  0  0  0  0
   -2.7390   -2.0240    0.4990 H   0  0  0  0  0  0  0  0  0  0  0  0
   -1.9880   -1.3690   -0.9920 H   0  0  0  0  0  0  0  0  0  0  0  0
   -3.5430   -2.3010   -1.0780 H   0  0  0  0  0  0  0  0  0  0  0  0
   -4.0410   -0.2450    0.8730 H   0  0  0  0  0  0  0  0  0  0  0  0
   -4.7140   -0.4280   -0.7670 H   0  0  0  0  0  0  0  0  0  0  0  0
   -3.9260    1.7700   -0.4760 H   0  0  0  0  0  0  0  0  0  0  0  0
   -3.6600    1.4460   -2.6970 H   0  0  0  0  0  0  0  0  0  0  0  0
   -1.9490    1.7340   -2.2950 H   0  0  0  0  0  0  0  0  0  0  0  0
   -2.6230    0.0160   -2.5290 H   0  0  0  0  0  0  0  0  0  0  0  0
   -1.5370    2.3430   -0.2880 H   0  0  0  0  0  0  0  0  0  0  0  0
   -1.1240   -0.3480    1.0200 H   0  0  0  0  0  0  0  0  0  0  0  0
  1  9  1  0  0  0  0
  1 10  1  0  0  0  0
  2 11  1  1  0  0  0
  2  3  1  0  0  0  0
  2  1  1  0  0  0  0
  4 13  1  6  0  0  0
  4  5  1  0  0  0  0
  4  2  1  0  0  0  0
  6  4  1  0  0  0  0
  7  6  2  0  0  0  0
  8  1  1  0  0  0  0
 12  3  1  0  0  0  0
 14  5  1  0  0  0  0
 15  5  1  0  0  0  0
 16 25  1  0  0  0  0
 16  6  1  0  0  0  0
 17 26  1  1  0  0  0
 17 16  1  0  0  0  0
 18 28  1  0  0  0  0
 18 17  1  0  0  0  0
 19 29  1  0  0  0  0
 19 18  1  0  0  0  0
 20 19  1  0  0  0  0
 21 20  2  0  0  0  0
 22 17  1  0  0  0  0
 22 37  1  0  0  0  0
 23 22  2  0  0  0  0
 24 20  1  0  0  0  0
 27 18  1  0  0  0  0
 30 19  1  0  0  0  0
 31 24  1  0  0  0  0
 32 33  1  0  0  0  0
 32 41  1  0  0  0  0
 33 44  1  0  0  0  0
 34 46  1  1  0  0  0
 34 33  1  0  0  0  0
 34 36  1  0  0  0  0
 35 34  1  0  0  0  0
 36 50  1  6  0  0  0
 36 37  1  0  0  0  0
 36 38  1  0  0  0  0
 37 51  1  0  0  0  0
 38 40  2  0  0  0  0
 38 39  1  0  0  0  0
 42 32  1  0  0  0  0
 43 32  1  0  0  0  0
 45 33  1  0  0  0  0
 47 35  1  0  0  0  0
 48 35  1  0  0  0  0
 49 35  1  0  0  0  0
M  END
$$$$
