TEK.pdb
 OpenBabel07022419113D

 53 52  0  0  1  0  0  0  0  0999 V2000
    1.4660   -3.4290   -0.2380 C   0  0  0  0  0  0  0  0  0  0  0  0
    2.7160   -3.8000    0.5220 C   0  0  1  0  0  0  0  0  0  0  0  0
    3.3460   -4.8960   -0.1180 O   0  0  0  0  0  0  0  0  0  0  0  0
    3.6630   -2.5950    0.4680 C   0  0  2  0  0  0  0  0  0  0  0  0
    4.9060   -3.0230    1.1710 N   0  0  0  0  0  0  0  0  0  0  0  0
    3.1890   -1.4320    1.2020 C   0  0  0  0  0  0  0  0  0  0  0  0
    3.6660   -1.1570    2.3410 O   0  0  0  0  0  0  0  0  0  0  0  0
    0.9880   -4.3820   -0.5820 H   0  0  0  0  0  0  0  0  0  0  0  0
    0.7940   -2.8310    0.3850 H   0  0  0  0  0  0  0  0  0  0  0  0
    1.6900   -2.8610   -1.1610 H   0  0  0  0  0  0  0  0  0  0  0  0
    2.5140   -4.1160    1.5500 H   0  0  0  0  0  0  0  0  0  0  0  0
    3.1060   -5.7400    0.2950 H   0  0  0  0  0  0  0  0  0  0  0  0
    3.9440   -2.4590   -0.5720 H   0  0  0  0  0  0  0  0  0  0  0  0
    5.4890   -2.1810    1.3680 H   0  0  0  0  0  0  0  0  0  0  0  0
    5.4770   -3.6260    0.5180 H   0  0  0  0  0  0  0  0  0  0  0  0
    2.1800   -0.4910    0.7650 N   0  0  0  0  0  0  0  0  0  0  0  0
    1.7910    0.6220    1.5630 C   0  0  1  0  0  0  0  0  0  0  0  0
    2.4730    1.9260    1.2910 C   0  0  0  0  0  0  0  0  0  0  0  0
    2.2970    2.4910   -0.0780 C   0  0  0  0  0  0  0  0  0  0  0  0
    2.7690    1.7000   -1.2030 C   0  0  0  0  0  0  0  0  0  0  0  0
    1.9890    1.1400   -2.0260 O   0  0  0  0  0  0  0  0  0  0  0  0
    0.3170    0.7890    1.7200 C   0  0  0  0  0  0  0  0  0  0  0  0
   -0.1530    1.7200    2.4650 O   0  0  0  0  0  0  0  0  0  0  0  0
    4.1360    1.4900   -1.4700 O   0  0  0  0  0  0  0  0  0  0  0  0
    1.7710   -0.7150   -0.1640 H   0  0  0  0  0  0  0  0  0  0  0  0
    2.1490    0.3650    2.6210 H   0  0  0  0  0  0  0  0  0  0  0  0
    2.0830    2.7240    1.9990 H   0  0  0  0  0  0  0  0  0  0  0  0
    3.5660    1.8950    1.5870 H   0  0  0  0  0  0  0  0  0  0  0  0
    2.8070    3.5030   -0.1780 H   0  0  0  0  0  0  0  0  0  0  0  0
    1.2170    2.7760   -0.2710 H   0  0  0  0  0  0  0  0  0  0  0  0
    4.4550    0.6630   -1.9750 H   0  0  0  0  0  0  0  0  0  0  0  0
   -0.6560   -0.0160    1.0990 N   0  0  0  0  0  0  0  0  0  0  0  0
   -2.1270    0.2350    1.3270 C   0  0  1  0  0  0  0  0  0  0  0  0
   -2.7210    0.5770    0.0170 C   0  0  0  0  0  0  0  0  0  0  0  0
   -4.1250    0.9320   -0.0710 C   0  0  0  0  0  0  0  0  0  0  0  0
   -5.2230    0.0440    0.3050 C   0  0  0  0  0  0  0  0  0  0  0  0
   -5.2590   -1.2820   -0.3990 C   0  0  0  0  0  0  0  0  0  0  0  0
   -6.4050   -2.0230    0.0960 N   0  0  0  0  0  0  0  0  0  0  0  0
   -2.5810   -0.9900    1.9960 C   0  0  0  0  0  0  0  0  0  0  0  0
   -3.6970   -1.2280    2.5020 O   0  0  0  0  0  0  0  0  0  0  0  0
   -1.6820   -2.0810    2.1140 O   0  0  0  0  0  0  0  0  0  0  0  0
   -0.3570   -0.7840    0.4770 H   0  0  0  0  0  0  0  0  0  0  0  0
   -2.2280    1.0880    2.0190 H   0  0  0  0  0  0  0  0  0  0  0  0
   -2.1380    1.5080   -0.3290 H   0  0  0  0  0  0  0  0  0  0  0  0
   -2.3940   -0.1570   -0.7920 H   0  0  0  0  0  0  0  0  0  0  0  0
   -4.2600    1.8870    0.5660 H   0  0  0  0  0  0  0  0  0  0  0  0
   -4.3410    1.3860   -1.1130 H   0  0  0  0  0  0  0  0  0  0  0  0
   -6.1750    0.5730   -0.1570 H   0  0  0  0  0  0  0  0  0  0  0  0
   -5.5420   -0.0390    1.3390 H   0  0  0  0  0  0  0  0  0  0  0  0
   -4.3670   -1.8950   -0.2250 H   0  0  0  0  0  0  0  0  0  0  0  0
   -5.4370   -1.1210   -1.4980 H   0  0  0  0  0  0  0  0  0  0  0  0
   -7.0840   -2.2630   -0.6650 H   0  0  0  0  0  0  0  0  0  0  0  0
   -6.1130   -2.9590    0.5020 H   0  0  0  0  0  0  0  0  0  0  0  0
  1  9  1  0  0  0  0
  1  2  1  0  0  0  0
  2 11  1  1  0  0  0
  3 12  1  0  0  0  0
  3  2  1  0  0  0  0
  4 13  1  6  0  0  0
  4  2  1  0  0  0  0
  4  5  1  0  0  0  0
  4  6  1  0  0  0  0
  5 14  1  0  0  0  0
  6  7  2  0  0  0  0
  8  1  1  0  0  0  0
 10  1  1  0  0  0  0
 15  5  1  0  0  0  0
 16  6  1  0  0  0  0
 16 17  1  0  0  0  0
 17 22  1  0  0  0  0
 17 26  1  1  0  0  0
 18 17  1  0  0  0  0
 18 28  1  0  0  0  0
 18 27  1  0  0  0  0
 19 18  1  0  0  0  0
 20 19  1  0  0  0  0
 21 20  2  0  0  0  0
 22 23  2  0  0  0  0
 24 20  1  0  0  0  0
 25 16  1  0  0  0  0
 29 19  1  0  0  0  0
 30 19  1  0  0  0  0
 31 24  1  0  0  0  0
 32 33  1  0  0  0  0
 32 22  1  0  0  0  0
 33 39  1  0  0  0  0
 33 43  1  1  0  0  0
 34 33  1  0  0  0  0
 35 34  1  0  0  0  0
 35 36  1  0  0  0  0
 35 46  1  0  0  0  0
 36 49  1  0  0  0  0
 37 50  1  0  0  0  0
 37 38  1  0  0  0  0
 37 36  1  0  0  0  0
 38 53  1  0  0  0  0
 39 41  2  0  0  0  0
 39 40  1  0  0  0  0
 42 32  1  0  0  0  0
 44 34  1  0  0  0  0
 45 34  1  0  0  0  0
 47 35  1  0  0  0  0
 48 36  1  0  0  0  0
 51 37  1  0  0  0  0
 52 38  1  0  0  0  0
M  END
$$$$
