TEL.pdb
 OpenBabel07022419113D

 51 50  0  0  1  0  0  0  0  0999 V2000
    2.5270   -3.6790    3.3090 C   0  0  0  0  0  0  0  0  0  0  0  0
    2.0620   -2.5010    2.4780 C   0  0  1  0  0  0  0  0  0  0  0  0
    2.0930   -1.3890    3.3510 O   0  0  0  0  0  0  0  0  0  0  0  0
    3.0440   -2.2410    1.3420 C   0  0  2  0  0  0  0  0  0  0  0  0
    4.3610   -2.0780    1.9280 N   0  0  0  0  0  0  0  0  0  0  0  0
    2.7110   -1.0260    0.5930 C   0  0  0  0  0  0  0  0  0  0  0  0
    3.5390   -0.0520    0.5450 O   0  0  0  0  0  0  0  0  0  0  0  0
    2.1170   -4.6100    2.8680 H   0  0  0  0  0  0  0  0  0  0  0  0
    3.6310   -3.7630    3.3300 H   0  0  0  0  0  0  0  0  0  0  0  0
    2.1030   -3.6210    4.3490 H   0  0  0  0  0  0  0  0  0  0  0  0
    1.0380   -2.6400    2.1290 H   0  0  0  0  0  0  0  0  0  0  0  0
    3.0470   -1.2250    3.5450 H   0  0  0  0  0  0  0  0  0  0  0  0
    3.0720   -3.1610    0.7340 H   0  0  0  0  0  0  0  0  0  0  0  0
    5.0490   -2.3600    1.1940 H   0  0  0  0  0  0  0  0  0  0  0  0
    4.4960   -1.0550    2.0980 H   0  0  0  0  0  0  0  0  0  0  0  0
    1.5150   -0.8040   -0.1170 N   0  0  0  0  0  0  0  0  0  0  0  0
    1.2080    0.4200   -0.8560 C   0  0  1  0  0  0  0  0  0  0  0  0
    0.9160    0.1470   -2.2770 C   0  0  0  0  0  0  0  0  0  0  0  0
    0.6130    1.3530   -3.0820 C   0  0  0  0  0  0  0  0  0  0  0  0
    0.3500    0.9660   -4.5240 C   0  0  0  0  0  0  0  0  0  0  0  0
    0.0740    1.8140   -5.3840 O   0  0  0  0  0  0  0  0  0  0  0  0
    0.0440    1.0170   -0.1590 C   0  0  0  0  0  0  0  0  0  0  0  0
   -0.4620    2.1150   -0.5200 O   0  0  0  0  0  0  0  0  0  0  0  0
    0.4260   -0.3680   -4.8580 O   0  0  0  0  0  0  0  0  0  0  0  0
    0.7930   -1.5480   -0.1320 H   0  0  0  0  0  0  0  0  0  0  0  0
    2.1040    1.1060   -0.7960 H   0  0  0  0  0  0  0  0  0  0  0  0
   -0.0100   -0.5010   -2.3090 H   0  0  0  0  0  0  0  0  0  0  0  0
    1.7620   -0.3770   -2.7890 H   0  0  0  0  0  0  0  0  0  0  0  0
   -0.2150    1.9900   -2.7340 H   0  0  0  0  0  0  0  0  0  0  0  0
    1.5000    2.0500   -3.1590 H   0  0  0  0  0  0  0  0  0  0  0  0
    0.1890   -0.7390   -5.7630 H   0  0  0  0  0  0  0  0  0  0  0  0
   -2.3220   -1.9630    0.8270 C   0  0  0  0  0  0  0  0  0  0  0  0
   -3.2560   -1.0500    1.5790 C   0  0  0  0  0  0  0  0  0  0  0  0
   -4.6900   -1.4800    1.2270 C   0  0  0  0  0  0  0  0  0  0  0  0
   -3.0430    0.3860    1.3060 C   0  0  0  0  0  0  0  0  0  0  0  0
   -1.7280    0.9860    1.6440 C   0  0  2  0  0  0  0  0  0  0  0  0
   -0.6000    0.4060    0.9700 N   0  0  0  0  0  0  0  0  0  0  0  0
   -1.5310    1.0310    3.1160 C   0  0  0  0  0  0  0  0  0  0  0  0
   -0.5070    0.6150    3.6990 O   0  0  0  0  0  0  0  0  0  0  0  0
   -2.5760    1.5800    3.8650 O   0  0  0  0  0  0  0  0  0  0  0  0
   -1.5200   -2.3800    1.4470 H   0  0  0  0  0  0  0  0  0  0  0  0
   -1.8570   -1.4290   -0.0300 H   0  0  0  0  0  0  0  0  0  0  0  0
   -2.8870   -2.8500    0.4270 H   0  0  0  0  0  0  0  0  0  0  0  0
   -3.1810   -1.2290    2.6790 H   0  0  0  0  0  0  0  0  0  0  0  0
   -4.7590   -1.7230    0.1410 H   0  0  0  0  0  0  0  0  0  0  0  0
   -5.3780   -0.6640    1.5290 H   0  0  0  0  0  0  0  0  0  0  0  0
   -4.9130   -2.3860    1.8200 H   0  0  0  0  0  0  0  0  0  0  0  0
   -3.8450    0.9450    1.8650 H   0  0  0  0  0  0  0  0  0  0  0  0
   -3.3100    0.6170    0.2220 H   0  0  0  0  0  0  0  0  0  0  0  0
   -1.7880    2.0510    1.2300 H   0  0  0  0  0  0  0  0  0  0  0  0
   -0.1660   -0.4870    1.2800 H   0  0  0  0  0  0  0  0  0  0  0  0
  1  9  1  0  0  0  0
  1 10  1  0  0  0  0
  2 11  1  6  0  0  0
  2  1  1  0  0  0  0
  2  3  1  0  0  0  0
  3 12  1  0  0  0  0
  4 13  1  6  0  0  0
  4  5  1  0  0  0  0
  4  2  1  0  0  0  0
  5 15  1  0  0  0  0
  6  4  1  0  0  0  0
  7  6  2  0  0  0  0
  8  1  1  0  0  0  0
 14  5  1  0  0  0  0
 16  6  1  0  0  0  0
 17 26  1  1  0  0  0
 17 22  1  0  0  0  0
 17 16  1  0  0  0  0
 18 17  1  0  0  0  0
 19 29  1  0  0  0  0
 19 18  1  0  0  0  0
 20 19  1  0  0  0  0
 21 20  2  0  0  0  0
 22 37  1  0  0  0  0
 23 22  2  0  0  0  0
 24 20  1  0  0  0  0
 25 16  1  0  0  0  0
 27 18  1  0  0  0  0
 28 18  1  0  0  0  0
 30 19  1  0  0  0  0
 31 24  1  0  0  0  0
 32 41  1  0  0  0  0
 32 33  1  0  0  0  0
 33 44  1  0  0  0  0
 34 46  1  0  0  0  0
 34 33  1  0  0  0  0
 34 47  1  0  0  0  0
 35 33  1  0  0  0  0
 35 36  1  0  0  0  0
 35 48  1  0  0  0  0
 36 50  1  6  0  0  0
 36 38  1  0  0  0  0
 37 51  1  0  0  0  0
 37 36  1  0  0  0  0
 38 39  2  0  0  0  0
 38 40  1  0  0  0  0
 42 32  1  0  0  0  0
 43 32  1  0  0  0  0
 45 34  1  0  0  0  0
 49 35  1  0  0  0  0
M  END
$$$$
