TEM.pdb
 OpenBabel07022419113D

 49 48  0  0  1  0  0  0  0  0999 V2000
    1.5410   -5.1420    1.8440 C   0  0  0  0  0  0  0  0  0  0  0  0
    1.3840   -3.6940    1.4550 C   0  0  1  0  0  0  0  0  0  0  0  0
    1.1810   -2.9510    2.6350 O   0  0  0  0  0  0  0  0  0  0  0  0
    2.6690   -3.1640    0.8080 C   0  0  2  0  0  0  0  0  0  0  0  0
    3.7620   -3.3510    1.7380 N   0  0  0  0  0  0  0  0  0  0  0  0
    2.5520   -1.7200    0.5150 C   0  0  0  0  0  0  0  0  0  0  0  0
    3.3470   -0.8810    1.0590 O   0  0  0  0  0  0  0  0  0  0  0  0
    0.5710   -5.6720    1.6190 H   0  0  0  0  0  0  0  0  0  0  0  0
    2.2990   -5.6770    1.2350 H   0  0  0  0  0  0  0  0  0  0  0  0
    1.7000   -5.2700    2.9360 H   0  0  0  0  0  0  0  0  0  0  0  0
    0.5270   -3.5890    0.7630 H   0  0  0  0  0  0  0  0  0  0  0  0
    2.1000   -2.7520    2.9940 H   0  0  0  0  0  0  0  0  0  0  0  0
    2.8440   -3.7830   -0.0680 H   0  0  0  0  0  0  0  0  0  0  0  0
    4.1860   -2.4300    2.0200 H   0  0  0  0  0  0  0  0  0  0  0  0
    4.5270   -3.8840    1.2700 H   0  0  0  0  0  0  0  0  0  0  0  0
    1.5920   -1.1660   -0.3550 N   0  0  0  0  0  0  0  0  0  0  0  0
    1.4950    0.2760   -0.6310 C   0  0  1  0  0  0  0  0  0  0  0  0
    1.5480    0.5470   -2.0860 C   0  0  0  0  0  0  0  0  0  0  0  0
    1.4650    2.0220   -2.3610 C   0  0  0  0  0  0  0  0  0  0  0  0
    1.5530    2.2580   -3.8630 C   0  0  0  0  0  0  0  0  0  0  0  0
    1.5070    3.4100   -4.3140 O   0  0  0  0  0  0  0  0  0  0  0  0
    0.1830    0.7140   -0.0760 C   0  0  0  0  0  0  0  0  0  0  0  0
   -0.2220    1.9030   -0.0640 O   0  0  0  0  0  0  0  0  0  0  0  0
    1.6830    1.1750   -4.7140 O   0  0  0  0  0  0  0  0  0  0  0  0
    0.9080   -1.7670   -0.8430 H   0  0  0  0  0  0  0  0  0  0  0  0
    2.3030    0.7920   -0.0610 H   0  0  0  0  0  0  0  0  0  0  0  0
    0.6300    0.1010   -2.5450 H   0  0  0  0  0  0  0  0  0  0  0  0
    2.4700    0.1750   -2.5810 H   0  0  0  0  0  0  0  0  0  0  0  0
    0.4900    2.4810   -2.0870 H   0  0  0  0  0  0  0  0  0  0  0  0
    2.2700    2.6060   -1.9110 H   0  0  0  0  0  0  0  0  0  0  0  0
    2.0630    1.2770   -5.6400 H   0  0  0  0  0  0  0  0  0  0  0  0
   -3.6830   -0.8530    4.5880 C   0  0  0  0  0  0  0  0  0  0  0  0
   -4.2640    0.1660    3.2300 S   0  0  0  0  0  0  0  0  0  0  0  0
   -3.1370    1.5010    2.8120 C   0  0  0  0  0  0  0  0  0  0  0  0
   -1.8370    1.0340    2.2620 C   0  0  0  0  0  0  0  0  0  0  0  0
   -2.0180    0.2220    1.0370 C   0  0  2  0  0  0  0  0  0  0  0  0
   -0.7290   -0.2390    0.5000 N   0  0  0  0  0  0  0  0  0  0  0  0
   -2.8240    0.8350   -0.0180 C   0  0  0  0  0  0  0  0  0  0  0  0
   -2.3540    0.9410   -1.2110 O   0  0  0  0  0  0  0  0  0  0  0  0
   -4.1040    1.3420    0.1240 O   0  0  0  0  0  0  0  0  0  0  0  0
   -3.6600   -0.3600    5.5580 H   0  0  0  0  0  0  0  0  0  0  0  0
   -4.3770   -1.7270    4.6700 H   0  0  0  0  0  0  0  0  0  0  0  0
   -2.6530   -1.2770    4.4080 H   0  0  0  0  0  0  0  0  0  0  0  0
   -3.6420    2.2170    2.1430 H   0  0  0  0  0  0  0  0  0  0  0  0
   -2.9450    2.0810    3.7650 H   0  0  0  0  0  0  0  0  0  0  0  0
   -1.2930    0.4980    3.0700 H   0  0  0  0  0  0  0  0  0  0  0  0
   -1.2070    1.9550    2.0860 H   0  0  0  0  0  0  0  0  0  0  0  0
   -2.5690   -0.7220    1.3240 H   0  0  0  0  0  0  0  0  0  0  0  0
   -0.4800   -1.2270    0.5360 H   0  0  0  0  0  0  0  0  0  0  0  0
  1 10  1  0  0  0  0
  2 11  1  6  0  0  0
  2  1  1  0  0  0  0
  2  3  1  0  0  0  0
  3 12  1  0  0  0  0
  4 13  1  6  0  0  0
  4  2  1  0  0  0  0
  4  5  1  0  0  0  0
  5 14  1  0  0  0  0
  6  4  1  0  0  0  0
  6  7  2  0  0  0  0
  8  1  1  0  0  0  0
  9  1  1  0  0  0  0
 15  5  1  0  0  0  0
 16  6  1  0  0  0  0
 17 16  1  0  0  0  0
 17 22  1  0  0  0  0
 17 26  1  1  0  0  0
 18 17  1  0  0  0  0
 19 29  1  0  0  0  0
 19 18  1  0  0  0  0
 19 30  1  0  0  0  0
 20 19  1  0  0  0  0
 21 20  2  0  0  0  0
 22 23  2  0  0  0  0
 22 37  1  0  0  0  0
 24 20  1  0  0  0  0
 25 16  1  0  0  0  0
 27 18  1  0  0  0  0
 28 18  1  0  0  0  0
 31 24  1  0  0  0  0
 32 42  1  0  0  0  0
 32 41  1  0  0  0  0
 33 32  1  0  0  0  0
 34 33  1  0  0  0  0
 34 45  1  0  0  0  0
 35 34  1  0  0  0  0
 35 46  1  0  0  0  0
 36 48  1  1  0  0  0
 36 35  1  0  0  0  0
 37 49  1  0  0  0  0
 37 36  1  0  0  0  0
 38 40  1  0  0  0  0
 38 36  1  0  0  0  0
 39 38  2  0  0  0  0
 43 32  1  0  0  0  0
 44 34  1  0  0  0  0
 47 35  1  0  0  0  0
M  END
$$$$
