TEN.pdb
 OpenBabel07022419113D

 46 45  0  0  1  0  0  0  0  0999 V2000
   -0.4950   -4.9340    0.7910 C   0  0  0  0  0  0  0  0  0  0  0  0
   -0.0510   -3.5160    0.9980 C   0  0  1  0  0  0  0  0  0  0  0  0
   -0.0700   -3.2470    2.3750 O   0  0  0  0  0  0  0  0  0  0  0  0
    1.3750   -3.3030    0.5310 C   0  0  2  0  0  0  0  0  0  0  0  0
    2.2950   -4.1880    1.2210 N   0  0  0  0  0  0  0  0  0  0  0  0
    1.8360   -1.9270    0.7360 C   0  0  0  0  0  0  0  0  0  0  0  0
    2.8800   -1.6420    1.4180 O   0  0  0  0  0  0  0  0  0  0  0  0
   -0.9060   -5.0010   -0.2520 H   0  0  0  0  0  0  0  0  0  0  0  0
    0.3460   -5.6600    0.8260 H   0  0  0  0  0  0  0  0  0  0  0  0
   -1.3120   -5.2360    1.4700 H   0  0  0  0  0  0  0  0  0  0  0  0
   -0.7390   -2.8360    0.4770 H   0  0  0  0  0  0  0  0  0  0  0  0
    0.4720   -3.8900    2.8760 H   0  0  0  0  0  0  0  0  0  0  0  0
    1.3990   -3.6220   -0.5480 H   0  0  0  0  0  0  0  0  0  0  0  0
    2.3200   -5.1460    0.8150 H   0  0  0  0  0  0  0  0  0  0  0  0
    3.2480   -3.7500    1.2500 H   0  0  0  0  0  0  0  0  0  0  0  0
    1.1520   -0.7990    0.1880 N   0  0  0  0  0  0  0  0  0  0  0  0
    1.6390    0.5550    0.4110 C   0  0  1  0  0  0  0  0  0  0  0  0
    1.8460    1.2870   -0.8660 C   0  0  0  0  0  0  0  0  0  0  0  0
    2.3550    2.6930   -0.7220 C   0  0  0  0  0  0  0  0  0  0  0  0
    2.5250    3.2600   -2.1130 C   0  0  0  0  0  0  0  0  0  0  0  0
    2.2490    2.5600   -3.1180 O   0  0  0  0  0  0  0  0  0  0  0  0
    0.6010    1.2410    1.2150 C   0  0  0  0  0  0  0  0  0  0  0  0
    0.7470    2.4400    1.6330 O   0  0  0  0  0  0  0  0  0  0  0  0
    2.9830    4.5470   -2.3220 O   0  0  0  0  0  0  0  0  0  0  0  0
    0.3010   -0.9560   -0.3750 H   0  0  0  0  0  0  0  0  0  0  0  0
    2.5620    0.5290    1.0260 H   0  0  0  0  0  0  0  0  0  0  0  0
    0.9350    1.3470   -1.4990 H   0  0  0  0  0  0  0  0  0  0  0  0
    2.6550    0.7310   -1.4290 H   0  0  0  0  0  0  0  0  0  0  0  0
    1.5300    3.3230   -0.2970 H   0  0  0  0  0  0  0  0  0  0  0  0
    3.2920    2.7770   -0.1650 H   0  0  0  0  0  0  0  0  0  0  0  0
    3.2660    4.8960   -3.2380 H   0  0  0  0  0  0  0  0  0  0  0  0
   -3.1280   -0.9960    1.2820 N   0  0  0  0  0  0  0  0  0  0  0  0
   -3.6400    0.2990    1.1230 C   0  0  0  0  0  0  0  0  0  0  0  0
   -4.7420    0.4350    0.5080 O   0  0  0  0  0  0  0  0  0  0  0  0
   -2.9430    1.4780    1.6440 C   0  0  0  0  0  0  0  0  0  0  0  0
   -1.6600    1.2260    2.3520 C   0  0  2  0  0  0  0  0  0  0  0  0
   -0.6380    0.5840    1.5720 N   0  0  0  0  0  0  0  0  0  0  0  0
   -1.9350    0.4920    3.6210 C   0  0  0  0  0  0  0  0  0  0  0  0
   -2.8140    0.8790    4.4250 O   0  0  0  0  0  0  0  0  0  0  0  0
   -1.2270   -0.6540    3.9680 O   0  0  0  0  0  0  0  0  0  0  0  0
   -3.1320   -1.4780    2.2060 H   0  0  0  0  0  0  0  0  0  0  0  0
   -2.7320   -1.5060    0.4580 H   0  0  0  0  0  0  0  0  0  0  0  0
   -3.6340    1.9930    2.3580 H   0  0  0  0  0  0  0  0  0  0  0  0
   -2.7320    2.2350    0.8380 H   0  0  0  0  0  0  0  0  0  0  0  0
   -1.2470    2.2530    2.6060 H   0  0  0  0  0  0  0  0  0  0  0  0
   -0.7850   -0.3920    1.2490 H   0  0  0  0  0  0  0  0  0  0  0  0
  1  9  1  0  0  0  0
  1  2  1  0  0  0  0
  1 10  1  0  0  0  0
  2 11  1  6  0  0  0
  2  3  1  0  0  0  0
  3 12  1  0  0  0  0
  4 13  1  6  0  0  0
  4  6  1  0  0  0  0
  4  2  1  0  0  0  0
  4  5  1  0  0  0  0
  5 15  1  0  0  0  0
  6  7  2  0  0  0  0
  8  1  1  0  0  0  0
 14  5  1  0  0  0  0
 16 17  1  0  0  0  0
 16  6  1  0  0  0  0
 17 26  1  1  0  0  0
 17 22  1  0  0  0  0
 18 19  1  0  0  0  0
 18 17  1  0  0  0  0
 19 29  1  0  0  0  0
 19 30  1  0  0  0  0
 20 19  1  0  0  0  0
 21 20  2  0  0  0  0
 22 37  1  0  0  0  0
 22 23  2  0  0  0  0
 24 20  1  0  0  0  0
 25 16  1  0  0  0  0
 27 18  1  0  0  0  0
 28 18  1  0  0  0  0
 31 24  1  0  0  0  0
 32 41  1  0  0  0  0
 33 32  1  0  0  0  0
 33 35  1  0  0  0  0
 34 33  2  0  0  0  0
 35 36  1  0  0  0  0
 35 43  1  0  0  0  0
 36 45  1  1  0  0  0
 36 38  1  0  0  0  0
 37 36  1  0  0  0  0
 38 40  2  0  0  0  0
 38 39  1  0  0  0  0
 42 32  1  0  0  0  0
 44 35  1  0  0  0  0
 46 37  1  0  0  0  0
M  END
$$$$
