TER.pdb
 OpenBabel07022419113D

 55 54  0  0  1  0  0  0  0  0999 V2000
    2.6670   -3.3540   -0.4580 C   0  0  0  0  0  0  0  0  0  0  0  0
    3.6460   -3.3690    0.6590 C   0  0  1  0  0  0  0  0  0  0  0  0
    4.8520   -3.8570    0.1430 O   0  0  0  0  0  0  0  0  0  0  0  0
    3.8690   -2.0340    1.3360 C   0  0  2  0  0  0  0  0  0  0  0  0
    4.8480   -2.2420    2.4320 N   0  0  0  0  0  0  0  0  0  0  0  0
    2.6510   -1.4550    1.9380 C   0  0  0  0  0  0  0  0  0  0  0  0
    2.5270   -1.4400    3.2170 O   0  0  0  0  0  0  0  0  0  0  0  0
    1.6190   -3.5360   -0.1360 H   0  0  0  0  0  0  0  0  0  0  0  0
    2.9000   -4.2560   -1.1040 H   0  0  0  0  0  0  0  0  0  0  0  0
    2.7900   -2.4830   -1.1310 H   0  0  0  0  0  0  0  0  0  0  0  0
    3.3390   -4.0690    1.4670 H   0  0  0  0  0  0  0  0  0  0  0  0
    5.1420   -4.6600    0.6360 H   0  0  0  0  0  0  0  0  0  0  0  0
    4.3840   -1.3770    0.6130 H   0  0  0  0  0  0  0  0  0  0  0  0
    5.6020   -2.8320    1.9970 H   0  0  0  0  0  0  0  0  0  0  0  0
    5.2610   -1.3180    2.6530 H   0  0  0  0  0  0  0  0  0  0  0  0
    1.5650   -0.8900    1.2500 N   0  0  0  0  0  0  0  0  0  0  0  0
    0.3950   -0.3370    1.9350 C   0  0  1  0  0  0  0  0  0  0  0  0
    0.4820    1.1740    1.9800 C   0  0  0  0  0  0  0  0  0  0  0  0
   -0.6480    1.8540    2.6560 C   0  0  0  0  0  0  0  0  0  0  0  0
   -0.8570    1.5200    4.0700 C   0  0  0  0  0  0  0  0  0  0  0  0
   -1.8760    1.9530    4.6470 O   0  0  0  0  0  0  0  0  0  0  0  0
   -0.8840   -0.8070    1.3680 C   0  0  0  0  0  0  0  0  0  0  0  0
   -2.0060   -0.4670    1.8740 O   0  0  0  0  0  0  0  0  0  0  0  0
    0.0640    0.7410    4.7370 O   0  0  0  0  0  0  0  0  0  0  0  0
    1.5850   -0.8610    0.2170 H   0  0  0  0  0  0  0  0  0  0  0  0
    0.4750   -0.6650    2.9880 H   0  0  0  0  0  0  0  0  0  0  0  0
    0.6180    1.6230    0.9800 H   0  0  0  0  0  0  0  0  0  0  0  0
    1.4160    1.4680    2.5430 H   0  0  0  0  0  0  0  0  0  0  0  0
   -0.4400    2.9730    2.6490 H   0  0  0  0  0  0  0  0  0  0  0  0
   -1.5930    1.7880    2.0570 H   0  0  0  0  0  0  0  0  0  0  0  0
   -0.1770    0.4340    5.6870 H   0  0  0  0  0  0  0  0  0  0  0  0
   -1.8080    3.6080   -2.6780 N   0  0  0  0  0  0  0  0  0  0  0  0
   -2.1840    2.5840   -1.7650 C   0  0  0  0  0  0  0  0  0  0  0  0
   -1.5590    2.3910   -0.6710 N   0  0  0  0  0  0  0  0  0  0  0  0
   -3.2940    1.7560   -2.0950 N   0  0  0  0  0  0  0  0  0  0  0  0
   -3.4160    0.3950   -1.5990 C   0  0  0  0  0  0  0  0  0  0  0  0
   -2.3530   -0.4870   -2.2220 C   0  0  0  0  0  0  0  0  0  0  0  0
   -2.4250   -1.9120   -1.7760 C   0  0  0  0  0  0  0  0  0  0  0  0
   -2.2590   -2.1170   -0.3100 C   0  0  2  0  0  0  0  0  0  0  0  0
   -1.0070   -1.6630    0.2330 N   0  0  0  0  0  0  0  0  0  0  0  0
   -2.4170   -3.5590    0.0630 C   0  0  0  0  0  0  0  0  0  0  0  0
   -1.5200   -4.1030    0.7340 O   0  0  0  0  0  0  0  0  0  0  0  0
   -3.5200   -4.3120   -0.3070 O   0  0  0  0  0  0  0  0  0  0  0  0
   -0.7790    3.8130   -2.7350 H   0  0  0  0  0  0  0  0  0  0  0  0
   -2.4810    4.1400   -3.2680 H   0  0  0  0  0  0  0  0  0  0  0  0
   -0.7580    2.9820   -0.4240 H   0  0  0  0  0  0  0  0  0  0  0  0
   -4.0260    2.1910   -2.7250 H   0  0  0  0  0  0  0  0  0  0  0  0
   -4.4250    0.0320   -1.9200 H   0  0  0  0  0  0  0  0  0  0  0  0
   -3.3960    0.3740   -0.4970 H   0  0  0  0  0  0  0  0  0  0  0  0
   -1.3710   -0.0120   -1.9880 H   0  0  0  0  0  0  0  0  0  0  0  0
   -2.5130   -0.4560   -3.3240 H   0  0  0  0  0  0  0  0  0  0  0  0
   -3.4590   -2.2800   -2.0290 H   0  0  0  0  0  0  0  0  0  0  0  0
   -1.7350   -2.5210   -2.3860 H   0  0  0  0  0  0  0  0  0  0  0  0
   -3.1330   -1.6130    0.2050 H   0  0  0  0  0  0  0  0  0  0  0  0
   -0.1240   -1.9650   -0.2240 H   0  0  0  0  0  0  0  0  0  0  0  0
  1  8  1  0  0  0  0
  1  2  1  0  0  0  0
  2  4  1  0  0  0  0
  2 11  1  1  0  0  0
  3 12  1  0  0  0  0
  3  2  1  0  0  0  0
  4 13  1  6  0  0  0
  4  6  1  0  0  0  0
  4  5  1  0  0  0  0
  5 15  1  0  0  0  0
  6  7  2  0  0  0  0
  9  1  1  0  0  0  0
 10  1  1  0  0  0  0
 14  5  1  0  0  0  0
 16 17  1  0  0  0  0
 16  6  1  0  0  0  0
 17 18  1  0  0  0  0
 17 26  1  1  0  0  0
 18 28  1  0  0  0  0
 18 19  1  0  0  0  0
 19 20  1  0  0  0  0
 20 21  2  0  0  0  0
 20 24  1  0  0  0  0
 22 23  2  0  0  0  0
 22 17  1  0  0  0  0
 24 31  1  0  0  0  0
 25 16  1  0  0  0  0
 27 18  1  0  0  0  0
 29 19  1  0  0  0  0
 30 19  1  0  0  0  0
 32 33  1  0  0  0  0
 33 34  2  0  0  0  0
 34 46  1  0  0  0  0
 35 33  1  0  0  0  0
 35 36  1  0  0  0  0
 36 49  1  0  0  0  0
 37 50  1  0  0  0  0
 37 38  1  0  0  0  0
 37 36  1  0  0  0  0
 38 39  1  0  0  0  0
 39 41  1  0  0  0  0
 39 54  1  1  0  0  0
 39 40  1  0  0  0  0
 40 22  1  0  0  0  0
 41 42  1  0  0  0  0
 43 41  2  0  0  0  0
 44 32  1  0  0  0  0
 45 32  1  0  0  0  0
 47 35  1  0  0  0  0
 48 36  1  0  0  0  0
 51 37  1  0  0  0  0
 52 38  1  0  0  0  0
 53 38  1  0  0  0  0
 55 40  1  0  0  0  0
M  END
$$$$
