TEV.pdb
 OpenBabel07022419123D

 48 47  0  0  1  0  0  0  0  0999 V2000
    2.3100   -3.7020    0.2260 C   0  0  0  0  0  0  0  0  0  0  0  0
    1.9160   -3.2700    1.6230 C   0  0  1  0  0  0  0  0  0  0  0  0
    2.5310   -4.1570    2.5050 O   0  0  0  0  0  0  0  0  0  0  0  0
    2.4890   -1.8970    1.8940 C   0  0  2  0  0  0  0  0  0  0  0  0
    2.2370   -1.4830    3.2580 N   0  0  0  0  0  0  0  0  0  0  0  0
    1.9360   -0.8890    0.9190 C   0  0  0  0  0  0  0  0  0  0  0  0
    2.0680   -1.0930   -0.3060 O   0  0  0  0  0  0  0  0  0  0  0  0
    2.3150   -4.8200    0.1740 H   0  0  0  0  0  0  0  0  0  0  0  0
    1.5250   -3.3580   -0.5070 H   0  0  0  0  0  0  0  0  0  0  0  0
    3.2870   -3.3100   -0.0830 H   0  0  0  0  0  0  0  0  0  0  0  0
    0.8320   -3.3280    1.7710 H   0  0  0  0  0  0  0  0  0  0  0  0
    1.9320   -4.4430    3.2240 H   0  0  0  0  0  0  0  0  0  0  0  0
    3.5790   -1.9550    1.7530 H   0  0  0  0  0  0  0  0  0  0  0  0
    1.2280   -1.4020    3.4880 H   0  0  0  0  0  0  0  0  0  0  0  0
    2.7380   -0.5810    3.4110 H   0  0  0  0  0  0  0  0  0  0  0  0
    1.2790    0.2680    1.3700 N   0  0  0  0  0  0  0  0  0  0  0  0
    0.7140    1.3290    0.5840 C   0  0  1  0  0  0  0  0  0  0  0  0
    1.3290    1.4900   -0.7950 C   0  0  0  0  0  0  0  0  0  0  0  0
    2.7790    1.8380   -0.7370 C   0  0  0  0  0  0  0  0  0  0  0  0
    3.3040    1.9450   -2.1220 C   0  0  0  0  0  0  0  0  0  0  0  0
    2.5270    1.7450   -3.0820 O   0  0  0  0  0  0  0  0  0  0  0  0
   -0.7430    1.2170    0.4660 C   0  0  0  0  0  0  0  0  0  0  0  0
   -1.4290    2.0590   -0.1890 O   0  0  0  0  0  0  0  0  0  0  0  0
    4.6520    2.2650   -2.3120 O   0  0  0  0  0  0  0  0  0  0  0  0
    1.2030    0.3490    2.4450 H   0  0  0  0  0  0  0  0  0  0  0  0
    0.9560    2.2880    1.1570 H   0  0  0  0  0  0  0  0  0  0  0  0
    1.1610    0.6310   -1.4510 H   0  0  0  0  0  0  0  0  0  0  0  0
    0.8130    2.3590   -1.3160 H   0  0  0  0  0  0  0  0  0  0  0  0
    3.3340    1.1550   -0.0980 H   0  0  0  0  0  0  0  0  0  0  0  0
    2.8980    2.9010   -0.3220 H   0  0  0  0  0  0  0  0  0  0  0  0
    4.9810    2.3070   -3.2880 H   0  0  0  0  0  0  0  0  0  0  0  0
   -2.7750   -2.3340    1.2090 C   0  0  0  0  0  0  0  0  0  0  0  0
   -3.2610   -1.2460    0.3060 C   0  0  0  0  0  0  0  0  0  0  0  0
   -4.7110   -1.3650   -0.0630 C   0  0  0  0  0  0  0  0  0  0  0  0
   -2.9320    0.0940    0.9270 C   0  0  2  0  0  0  0  0  0  0  0  0
   -1.4920    0.1540    1.0780 N   0  0  0  0  0  0  0  0  0  0  0  0
   -3.5960    0.2080    2.2470 C   0  0  0  0  0  0  0  0  0  0  0  0
   -2.8820    0.3350    3.2710 O   0  0  0  0  0  0  0  0  0  0  0  0
   -4.9620    0.1800    2.3990 O   0  0  0  0  0  0  0  0  0  0  0  0
   -2.9950   -2.0620    2.2650 H   0  0  0  0  0  0  0  0  0  0  0  0
   -1.6720   -2.4050    1.1020 H   0  0  0  0  0  0  0  0  0  0  0  0
   -3.2800   -3.2760    0.8970 H   0  0  0  0  0  0  0  0  0  0  0  0
   -2.6750   -1.2960   -0.6460 H   0  0  0  0  0  0  0  0  0  0  0  0
   -4.9530   -0.5140   -0.7330 H   0  0  0  0  0  0  0  0  0  0  0  0
   -5.3840   -1.4610    0.7880 H   0  0  0  0  0  0  0  0  0  0  0  0
   -4.8130   -2.3010   -0.6710 H   0  0  0  0  0  0  0  0  0  0  0  0
   -3.2920    0.9400    0.3140 H   0  0  0  0  0  0  0  0  0  0  0  0
   -0.9730   -0.5620    1.6260 H   0  0  0  0  0  0  0  0  0  0  0  0
  1  2  1  0  0  0  0
  2 11  1  1  0  0  0
  2  4  1  0  0  0  0
  2  3  1  0  0  0  0
  3 12  1  0  0  0  0
  4 13  1  6  0  0  0
  4  5  1  0  0  0  0
  5 15  1  0  0  0  0
  5 14  1  0  0  0  0
  6 16  1  0  0  0  0
  6  4  1  0  0  0  0
  7  6  2  0  0  0  0
  8  1  1  0  0  0  0
  9  1  1  0  0  0  0
 10  1  1  0  0  0  0
 16 25  1  0  0  0  0
 17 26  1  1  0  0  0
 17 16  1  0  0  0  0
 18 19  1  0  0  0  0
 18 17  1  0  0  0  0
 19 30  1  0  0  0  0
 19 29  1  0  0  0  0
 20 19  1  0  0  0  0
 21 20  2  0  0  0  0
 22 17  1  0  0  0  0
 22 36  1  0  0  0  0
 23 22  2  0  0  0  0
 24 20  1  0  0  0  0
 27 18  1  0  0  0  0
 28 18  1  0  0  0  0
 31 24  1  0  0  0  0
 32 40  1  0  0  0  0
 33 35  1  0  0  0  0
 33 32  1  0  0  0  0
 34 33  1  0  0  0  0
 34 45  1  0  0  0  0
 35 47  1  6  0  0  0
 35 36  1  0  0  0  0
 35 37  1  0  0  0  0
 36 48  1  0  0  0  0
 37 39  2  0  0  0  0
 37 38  1  0  0  0  0
 41 32  1  0  0  0  0
 42 32  1  0  0  0  0
 43 33  1  0  0  0  0
 44 34  1  0  0  0  0
 46 34  1  0  0  0  0
M  END
$$$$
