TEY.pdb
 OpenBabel07022419123D

 53 53  0  0  1  0  0  0  0  0999 V2000
   -0.2120   -1.7780    4.4630 C   0  0  0  0  0  0  0  0  0  0  0  0
    0.0390   -1.0790    3.1400 C   0  0  1  0  0  0  0  0  0  0  0  0
   -0.7240    0.0960    3.1550 O   0  0  0  0  0  0  0  0  0  0  0  0
    1.4900   -0.6600    3.1140 C   0  0  2  0  0  0  0  0  0  0  0  0
    1.7850    0.1290    4.2890 N   0  0  0  0  0  0  0  0  0  0  0  0
    1.8230    0.1390    1.9110 C   0  0  0  0  0  0  0  0  0  0  0  0
    2.2880    1.3190    1.9830 O   0  0  0  0  0  0  0  0  0  0  0  0
    0.3320   -2.7460    4.5200 H   0  0  0  0  0  0  0  0  0  0  0  0
   -1.2990   -1.9450    4.6450 H   0  0  0  0  0  0  0  0  0  0  0  0
    0.1720   -1.1460    5.2900 H   0  0  0  0  0  0  0  0  0  0  0  0
   -0.2320   -1.7410    2.3110 H   0  0  0  0  0  0  0  0  0  0  0  0
   -1.1630    0.2520    4.0290 H   0  0  0  0  0  0  0  0  0  0  0  0
    2.0900   -1.5940    3.1770 H   0  0  0  0  0  0  0  0  0  0  0  0
    2.5670    0.7780    4.0360 H   0  0  0  0  0  0  0  0  0  0  0  0
    2.0950   -0.5070    5.0550 H   0  0  0  0  0  0  0  0  0  0  0  0
    1.6360   -0.3810    0.6160 N   0  0  0  0  0  0  0  0  0  0  0  0
    1.9460    0.3590   -0.6040 C   0  0  1  0  0  0  0  0  0  0  0  0
    2.8280   -0.4170   -1.5160 C   0  0  0  0  0  0  0  0  0  0  0  0
    3.1960    0.2830   -2.7920 C   0  0  0  0  0  0  0  0  0  0  0  0
    3.9250    1.5470   -2.6030 C   0  0  0  0  0  0  0  0  0  0  0  0
    4.2460    1.9980   -1.4810 O   0  0  0  0  0  0  0  0  0  0  0  0
    0.6340    0.5810   -1.2680 C   0  0  0  0  0  0  0  0  0  0  0  0
    0.4850    1.2210   -2.3450 O   0  0  0  0  0  0  0  0  0  0  0  0
    4.2680    2.2690   -3.7400 O   0  0  0  0  0  0  0  0  0  0  0  0
    1.2560   -1.3460    0.5030 H   0  0  0  0  0  0  0  0  0  0  0  0
    2.3400    1.3650   -0.3730 H   0  0  0  0  0  0  0  0  0  0  0  0
    2.3860   -1.3970   -1.8170 H   0  0  0  0  0  0  0  0  0  0  0  0
    3.8050   -0.5860   -0.9710 H   0  0  0  0  0  0  0  0  0  0  0  0
    3.8570   -0.4280   -3.3940 H   0  0  0  0  0  0  0  0  0  0  0  0
    2.2960    0.3770   -3.4510 H   0  0  0  0  0  0  0  0  0  0  0  0
    4.7390    3.1660   -3.6940 H   0  0  0  0  0  0  0  0  0  0  0  0
   -3.1540   -4.6890    2.4820 O   0  0  0  0  0  0  0  0  0  0  0  0
   -2.9180   -3.8190    1.4150 C   0  0  0  0  0  0  0  0  0  0  0  0
   -3.9380   -2.9810    1.0160 C   0  0  0  0  0  0  0  0  0  0  0  0
   -3.7770   -2.0920   -0.0340 C   0  0  0  0  0  0  0  0  0  0  0  0
   -2.5720   -2.0270   -0.7090 C   0  0  0  0  0  0  0  0  0  0  0  0
   -2.4040   -1.0750   -1.8300 C   0  0  0  0  0  0  0  0  0  0  0  0
   -1.8830    0.2780   -1.3560 C   0  0  2  0  0  0  0  0  0  0  0  0
   -0.5990    0.0700   -0.7200 N   0  0  0  0  0  0  0  0  0  0  0  0
   -2.8470    0.9440   -0.4750 C   0  0  0  0  0  0  0  0  0  0  0  0
   -3.9910    1.1900   -0.8810 O   0  0  0  0  0  0  0  0  0  0  0  0
   -1.5630   -2.8750   -0.2920 C   0  0  0  0  0  0  0  0  0  0  0  0
   -1.7190   -3.7630    0.7520 C   0  0  0  0  0  0  0  0  0  0  0  0
   -2.4880    1.3030    0.8160 O   0  0  0  0  0  0  0  0  0  0  0  0
   -3.8280   -4.4030    3.1960 H   0  0  0  0  0  0  0  0  0  0  0  0
   -4.8950   -3.0320    1.5510 H   0  0  0  0  0  0  0  0  0  0  0  0
   -4.6320   -1.4740   -0.2780 H   0  0  0  0  0  0  0  0  0  0  0  0
   -1.6950   -1.5350   -2.5440 H   0  0  0  0  0  0  0  0  0  0  0  0
   -3.3690   -0.8820   -2.3570 H   0  0  0  0  0  0  0  0  0  0  0  0
   -1.6950    0.8730   -2.2810 H   0  0  0  0  0  0  0  0  0  0  0  0
   -0.5870   -0.4730    0.1680 H   0  0  0  0  0  0  0  0  0  0  0  0
   -0.6020   -2.8620   -0.7890 H   0  0  0  0  0  0  0  0  0  0  0  0
   -0.9370   -4.4240    1.0800 H   0  0  0  0  0  0  0  0  0  0  0  0
  1  8  1  0  0  0  0
  1  9  1  0  0  0  0
  1 10  1  0  0  0  0
  2 11  1  6  0  0  0
  2  3  1  0  0  0  0
  2  1  1  0  0  0  0
  3 12  1  0  0  0  0
  4  2  1  0  0  0  0
  4 13  1  1  0  0  0
  4  5  1  0  0  0  0
  5 15  1  0  0  0  0
  6  7  2  0  0  0  0
  6  4  1  0  0  0  0
 14  5  1  0  0  0  0
 16  6  1  0  0  0  0
 17 26  1  1  0  0  0
 17 16  1  0  0  0  0
 18 28  1  0  0  0  0
 18 17  1  0  0  0  0
 19 20  1  0  0  0  0
 19 18  1  0  0  0  0
 20 21  2  0  0  0  0
 22 39  1  0  0  0  0
 22 17  1  0  0  0  0
 23 22  2  0  0  0  0
 24 31  1  0  0  0  0
 24 20  1  0  0  0  0
 25 16  1  0  0  0  0
 27 18  1  0  0  0  0
 29 19  1  0  0  0  0
 30 19  1  0  0  0  0
 32 45  1  0  0  0  0
 33 32  1  0  0  0  0
 34 33  1  0  0  0  0
 34 46  1  0  0  0  0
 35 34  2  0  0  0  0
 36 42  2  0  0  0  0
 36 35  1  0  0  0  0
 37 38  1  0  0  0  0
 37 36  1  0  0  0  0
 38 50  1  6  0  0  0
 38 39  1  0  0  0  0
 38 40  1  0  0  0  0
 39 51  1  0  0  0  0
 40 44  1  0  0  0  0
 41 40  2  0  0  0  0
 42 43  1  0  0  0  0
 43 53  1  0  0  0  0
 43 33  2  0  0  0  0
 47 35  1  0  0  0  0
 48 37  1  0  0  0  0
 49 37  1  0  0  0  0
 52 42  1  0  0  0  0
M  END
$$$$
