TFA.pdb
 OpenBabel07022419133D

 46 46  0  0  1  0  0  0  0  0999 V2000
    3.1380   -2.4870    1.9150 C   0  0  0  0  0  0  0  0  0  0  0  0
    3.8460   -1.6290    0.9160 C   0  0  1  0  0  0  0  0  0  0  0  0
    5.1060   -2.1710    0.5960 O   0  0  0  0  0  0  0  0  0  0  0  0
    2.9850   -1.5750   -0.3540 C   0  0  2  0  0  0  0  0  0  0  0  0
    3.7720   -0.7120   -1.2620 N   0  0  0  0  0  0  0  0  0  0  0  0
    1.6980   -0.9040   -0.1140 C   0  0  0  0  0  0  0  0  0  0  0  0
    1.5160    0.2930   -0.5340 O   0  0  0  0  0  0  0  0  0  0  0  0
    2.3900   -1.8990    2.4650 H   0  0  0  0  0  0  0  0  0  0  0  0
    2.7710   -3.4310    1.4930 H   0  0  0  0  0  0  0  0  0  0  0  0
    3.9040   -2.7690    2.6850 H   0  0  0  0  0  0  0  0  0  0  0  0
    3.9810   -0.6040    1.2600 H   0  0  0  0  0  0  0  0  0  0  0  0
    4.9940   -3.0200    0.1060 H   0  0  0  0  0  0  0  0  0  0  0  0
    2.9080   -2.5620   -0.8390 H   0  0  0  0  0  0  0  0  0  0  0  0
    3.1080   -0.1530   -1.8490 H   0  0  0  0  0  0  0  0  0  0  0  0
    4.3250   -0.0120   -0.7200 H   0  0  0  0  0  0  0  0  0  0  0  0
    0.5810   -1.4530    0.5600 N   0  0  0  0  0  0  0  0  0  0  0  0
   -0.6410   -0.7790    0.7870 C   0  0  1  0  0  0  0  0  0  0  0  0
   -0.5410    0.6280    1.3390 C   0  0  0  0  0  0  0  0  0  0  0  0
    0.1140    0.6180    2.6390 C   0  0  0  0  0  0  0  0  0  0  0  0
   -0.6560    0.4020    3.7750 C   0  0  0  0  0  0  0  0  0  0  0  0
   -0.1240    0.3880    5.0480 C   0  0  0  0  0  0  0  0  0  0  0  0
    1.2430    0.6010    5.1750 C   0  0  0  0  0  0  0  0  0  0  0  0
    2.0510    0.8210    4.0840 C   0  0  0  0  0  0  0  0  0  0  0  0
    1.4600    0.8250    2.8130 C   0  0  0  0  0  0  0  0  0  0  0  0
   -1.5050   -0.8830   -0.4030 C   0  0  0  0  0  0  0  0  0  0  0  0
   -1.1050   -1.5060   -1.4150 O   0  0  0  0  0  0  0  0  0  0  0  0
    0.6960   -2.4510    0.9010 H   0  0  0  0  0  0  0  0  0  0  0  0
   -1.1380   -1.3330    1.6640 H   0  0  0  0  0  0  0  0  0  0  0  0
   -1.6200    0.9370    1.5010 H   0  0  0  0  0  0  0  0  0  0  0  0
   -0.1640    1.3720    0.6300 H   0  0  0  0  0  0  0  0  0  0  0  0
   -1.7110    0.2420    3.6170 H   0  0  0  0  0  0  0  0  0  0  0  0
   -0.7690    0.2140    5.9060 H   0  0  0  0  0  0  0  0  0  0  0  0
    1.6330    0.5840    6.1970 H   0  0  0  0  0  0  0  0  0  0  0  0
    3.1070    0.9810    4.2390 H   0  0  0  0  0  0  0  0  0  0  0  0
    2.1270    1.0090    1.9840 H   0  0  0  0  0  0  0  0  0  0  0  0
   -4.9270   -1.1450   -1.3970 C   0  0  0  0  0  0  0  0  0  0  0  0
   -3.6490   -0.4160   -1.6610 C   0  0  2  0  0  0  0  0  0  0  0  0
   -2.8070   -0.3080   -0.4890 N   0  0  0  0  0  0  0  0  0  0  0  0
   -3.8790    0.9080   -2.2680 C   0  0  0  0  0  0  0  0  0  0  0  0
   -4.5810    1.0450   -3.2940 O   0  0  0  0  0  0  0  0  0  0  0  0
   -3.3100    2.0300   -1.6980 O   0  0  0  0  0  0  0  0  0  0  0  0
   -5.0030   -1.5270   -0.3600 H   0  0  0  0  0  0  0  0  0  0  0  0
   -5.7570   -0.3830   -1.4850 H   0  0  0  0  0  0  0  0  0  0  0  0
   -5.1200   -1.8910   -2.1650 H   0  0  0  0  0  0  0  0  0  0  0  0
   -3.0610   -1.0110   -2.4060 H   0  0  0  0  0  0  0  0  0  0  0  0
   -3.1400    0.2100    0.3540 H   0  0  0  0  0  0  0  0  0  0  0  0
  1  8  1  0  0  0  0
  1 10  1  0  0  0  0
  2 11  1  1  0  0  0
  2  1  1  0  0  0  0
  3  2  1  0  0  0  0
  4 13  1  6  0  0  0
  4  6  1  0  0  0  0
  4  2  1  0  0  0  0
  5 15  1  0  0  0  0
  5  4  1  0  0  0  0
  6 16  1  0  0  0  0
  7  6  2  0  0  0  0
  9  1  1  0  0  0  0
 12  3  1  0  0  0  0
 14  5  1  0  0  0  0
 16 17  1  0  0  0  0
 16 27  1  0  0  0  0
 17 18  1  0  0  0  0
 17 28  1  1  0  0  0
 18 29  1  0  0  0  0
 18 19  1  0  0  0  0
 19 24  2  0  0  0  0
 19 20  1  0  0  0  0
 20 21  2  0  0  0  0
 21 22  1  0  0  0  0
 21 32  1  0  0  0  0
 22 33  1  0  0  0  0
 23 34  1  0  0  0  0
 23 22  2  0  0  0  0
 24 23  1  0  0  0  0
 25 17  1  0  0  0  0
 26 25  2  0  0  0  0
 30 18  1  0  0  0  0
 31 20  1  0  0  0  0
 35 24  1  0  0  0  0
 36 42  1  0  0  0  0
 37 45  1  6  0  0  0
 37 36  1  0  0  0  0
 37 38  1  0  0  0  0
 38 25  1  0  0  0  0
 38 46  1  0  0  0  0
 39 41  1  0  0  0  0
 39 37  1  0  0  0  0
 40 39  2  0  0  0  0
 43 36  1  0  0  0  0
 44 36  1  0  0  0  0
M  END
$$$$
