TFD.pdb
 OpenBabel07022419133D

 49 49  0  0  1  0  0  0  0  0999 V2000
    4.8670   -1.1980   -0.6730 C   0  0  0  0  0  0  0  0  0  0  0  0
    3.6040   -1.6970   -0.0480 C   0  0  1  0  0  0  0  0  0  0  0  0
    3.1900   -2.9350   -0.5380 O   0  0  0  0  0  0  0  0  0  0  0  0
    3.7110   -1.8210    1.4560 C   0  0  2  0  0  0  0  0  0  0  0  0
    4.6630   -2.8350    1.8410 N   0  0  0  0  0  0  0  0  0  0  0  0
    2.3570   -2.0940    1.9990 C   0  0  0  0  0  0  0  0  0  0  0  0
    2.0760   -3.1040    2.7000 O   0  0  0  0  0  0  0  0  0  0  0  0
    5.5900   -1.9920   -0.9430 H   0  0  0  0  0  0  0  0  0  0  0  0
    4.5970   -0.6320   -1.6120 H   0  0  0  0  0  0  0  0  0  0  0  0
    5.3060   -0.4220   -0.0020 H   0  0  0  0  0  0  0  0  0  0  0  0
    2.8090   -0.9470   -0.2780 H   0  0  0  0  0  0  0  0  0  0  0  0
    2.4190   -2.8630   -1.1520 H   0  0  0  0  0  0  0  0  0  0  0  0
    4.0530   -0.8560    1.8710 H   0  0  0  0  0  0  0  0  0  0  0  0
    5.2050   -2.5910    2.6950 H   0  0  0  0  0  0  0  0  0  0  0  0
    5.3870   -2.9130    1.0740 H   0  0  0  0  0  0  0  0  0  0  0  0
    1.3300   -1.1710    1.7130 N   0  0  0  0  0  0  0  0  0  0  0  0
   -0.0460   -1.3140    2.1830 C   0  0  1  0  0  0  0  0  0  0  0  0
   -0.3470   -0.0880    3.0090 C   0  0  0  0  0  0  0  0  0  0  0  0
   -0.2150    1.1800    2.2530 C   0  0  0  0  0  0  0  0  0  0  0  0
    1.0050    1.8610    2.1860 C   0  0  0  0  0  0  0  0  0  0  0  0
    1.1280    3.0410    1.4880 C   0  0  0  0  0  0  0  0  0  0  0  0
    0.0600    3.6060    0.8260 C   0  0  0  0  0  0  0  0  0  0  0  0
   -1.1470    2.9630    0.8740 C   0  0  0  0  0  0  0  0  0  0  0  0
   -1.2580    1.7770    1.5780 C   0  0  0  0  0  0  0  0  0  0  0  0
   -0.9450   -1.3500    1.0030 C   0  0  0  0  0  0  0  0  0  0  0  0
   -0.4460   -1.2770   -0.1700 O   0  0  0  0  0  0  0  0  0  0  0  0
    1.4940   -0.3010    1.1290 H   0  0  0  0  0  0  0  0  0  0  0  0
   -0.1510   -2.2450    2.7950 H   0  0  0  0  0  0  0  0  0  0  0  0
   -1.3800   -0.1010    3.4170 H   0  0  0  0  0  0  0  0  0  0  0  0
    0.3750   -0.0150    3.8640 H   0  0  0  0  0  0  0  0  0  0  0  0
    1.8810    1.4780    2.6820 H   0  0  0  0  0  0  0  0  0  0  0  0
    2.0650    3.5930    1.4180 H   0  0  0  0  0  0  0  0  0  0  0  0
    0.1710    4.5360    0.2790 H   0  0  0  0  0  0  0  0  0  0  0  0
   -2.0440    3.3510    0.3700 H   0  0  0  0  0  0  0  0  0  0  0  0
   -2.2230    1.2810    1.6100 H   0  0  0  0  0  0  0  0  0  0  0  0
   -2.3500   -1.4660    1.1050 N   0  0  0  0  0  0  0  0  0  0  0  0
   -3.2390   -1.5210   -0.0370 C   0  0  1  0  0  0  0  0  0  0  0  0
   -3.4160   -0.2240   -0.7270 C   0  0  0  0  0  0  0  0  0  0  0  0
   -4.3370   -0.3670   -1.8790 C   0  0  0  0  0  0  0  0  0  0  0  0
   -3.9620   -0.5770   -3.0700 O   0  0  0  0  0  0  0  0  0  0  0  0
   -2.8520   -2.6370   -0.9490 C   0  0  0  0  0  0  0  0  0  0  0  0
   -1.8580   -3.3830   -0.6890 O   0  0  0  0  0  0  0  0  0  0  0  0
   -5.7190   -0.2730   -1.7100 O   0  0  0  0  0  0  0  0  0  0  0  0
   -3.5400   -2.9190   -2.1040 O   0  0  0  0  0  0  0  0  0  0  0  0
   -2.7350   -1.5110    2.0780 H   0  0  0  0  0  0  0  0  0  0  0  0
   -4.2530   -1.8510    0.3580 H   0  0  0  0  0  0  0  0  0  0  0  0
   -3.7930    0.5300    0.0040 H   0  0  0  0  0  0  0  0  0  0  0  0
   -2.4790    0.2030   -1.1420 H   0  0  0  0  0  0  0  0  0  0  0  0
   -6.3440   -0.8190   -2.2840 H   0  0  0  0  0  0  0  0  0  0  0  0
  1  2  1  0  0  0  0
  1 10  1  0  0  0  0
  2 11  1  6  0  0  0
  2  4  1  0  0  0  0
  3  2  1  0  0  0  0
  4  5  1  0  0  0  0
  4 13  1  1  0  0  0
  4  6  1  0  0  0  0
  5 14  1  0  0  0  0
  6  7  2  0  0  0  0
  8  1  1  0  0  0  0
  9  1  1  0  0  0  0
 12  3  1  0  0  0  0
 15  5  1  0  0  0  0
 16  6  1  0  0  0  0
 16 17  1  0  0  0  0
 17 28  1  1  0  0  0
 17 18  1  0  0  0  0
 18 29  1  0  0  0  0
 18 30  1  0  0  0  0
 19 18  1  0  0  0  0
 20 19  1  0  0  0  0
 20 31  1  0  0  0  0
 21 20  2  0  0  0  0
 22 23  2  0  0  0  0
 22 21  1  0  0  0  0
 23 24  1  0  0  0  0
 24 35  1  0  0  0  0
 24 19  2  0  0  0  0
 25 36  1  0  0  0  0
 25 17  1  0  0  0  0
 26 25  2  0  0  0  0
 27 16  1  0  0  0  0
 32 21  1  0  0  0  0
 33 22  1  0  0  0  0
 34 23  1  0  0  0  0
 36 45  1  0  0  0  0
 37 46  1  1  0  0  0
 37 36  1  0  0  0  0
 38 37  1  0  0  0  0
 38 47  1  0  0  0  0
 39 43  1  0  0  0  0
 39 38  1  0  0  0  0
 40 39  2  0  0  0  0
 41 42  1  0  0  0  0
 41 37  1  0  0  0  0
 44 41  2  0  0  0  0
 48 38  1  0  0  0  0
 49 43  1  0  0  0  0
M  END
$$$$
