TFG.pdb
 OpenBabel07022419133D

 43 43  0  0  1  0  0  0  0  0999 V2000
   -0.7230   -3.9360    2.2670 C   0  0  0  0  0  0  0  0  0  0  0  0
    0.7540   -3.7170    2.4070 C   0  0  1  0  0  0  0  0  0  0  0  0
    1.4970   -4.4010    1.4660 O   0  0  0  0  0  0  0  0  0  0  0  0
    1.1550   -2.2660    2.4960 C   0  0  2  0  0  0  0  0  0  0  0  0
    0.3490   -1.5990    3.4900 N   0  0  0  0  0  0  0  0  0  0  0  0
    1.0370   -1.5410    1.2100 C   0  0  0  0  0  0  0  0  0  0  0  0
    1.6310   -1.9620    0.1600 O   0  0  0  0  0  0  0  0  0  0  0  0
   -1.2430   -3.5710    3.1770 H   0  0  0  0  0  0  0  0  0  0  0  0
   -0.8650   -5.0570    2.3040 H   0  0  0  0  0  0  0  0  0  0  0  0
   -1.1210   -3.5510    1.3270 H   0  0  0  0  0  0  0  0  0  0  0  0
    1.0380   -4.1610    3.4070 H   0  0  0  0  0  0  0  0  0  0  0  0
    2.4060   -4.5560    1.8650 H   0  0  0  0  0  0  0  0  0  0  0  0
    2.2080   -2.2330    2.8700 H   0  0  0  0  0  0  0  0  0  0  0  0
    0.6990   -0.6590    3.7140 H   0  0  0  0  0  0  0  0  0  0  0  0
   -0.6390   -1.6290    3.2160 H   0  0  0  0  0  0  0  0  0  0  0  0
    0.2580   -0.3580    1.1140 N   0  0  0  0  0  0  0  0  0  0  0  0
    0.0680    0.4380   -0.0440 C   0  0  1  0  0  0  0  0  0  0  0  0
    1.3320    0.7430   -0.8410 C   0  0  0  0  0  0  0  0  0  0  0  0
    2.2410    1.5040    0.0450 C   0  0  0  0  0  0  0  0  0  0  0  0
    2.0850    2.8950    0.1350 C   0  0  0  0  0  0  0  0  0  0  0  0
    2.8980    3.6810    0.9210 C   0  0  0  0  0  0  0  0  0  0  0  0
    3.9140    3.1200    1.6610 C   0  0  0  0  0  0  0  0  0  0  0  0
    4.0860    1.7640    1.5890 C   0  0  0  0  0  0  0  0  0  0  0  0
    3.2550    0.9670    0.7860 C   0  0  0  0  0  0  0  0  0  0  0  0
   -1.0640    0.0570   -0.9090 C   0  0  0  0  0  0  0  0  0  0  0  0
   -1.2370    0.7580   -1.9480 O   0  0  0  0  0  0  0  0  0  0  0  0
   -0.2270   -0.0560    2.0150 H   0  0  0  0  0  0  0  0  0  0  0  0
   -0.1930    1.4970    0.3470 H   0  0  0  0  0  0  0  0  0  0  0  0
    1.8160   -0.1430   -1.2420 H   0  0  0  0  0  0  0  0  0  0  0  0
    1.0180    1.3580   -1.7170 H   0  0  0  0  0  0  0  0  0  0  0  0
    1.2720    3.3190   -0.4620 H   0  0  0  0  0  0  0  0  0  0  0  0
    2.7620    4.7530    0.9780 H   0  0  0  0  0  0  0  0  0  0  0  0
    4.5760    3.6990    2.2920 H   0  0  0  0  0  0  0  0  0  0  0  0
    4.8840    1.3110    2.1690 H   0  0  0  0  0  0  0  0  0  0  0  0
    3.4420   -0.0770    0.7600 H   0  0  0  0  0  0  0  0  0  0  0  0
   -1.9550   -0.9990   -0.6840 N   0  0  0  0  0  0  0  0  0  0  0  0
   -3.0610   -1.3160   -1.5950 C   0  0  0  0  0  0  0  0  0  0  0  0
   -3.9630   -0.1540   -1.6930 C   0  0  0  0  0  0  0  0  0  0  0  0
   -4.9720   -0.2150   -2.4210 O   0  0  0  0  0  0  0  0  0  0  0  0
   -3.6970    0.9940   -0.9860 O   0  0  0  0  0  0  0  0  0  0  0  0
   -1.8170   -1.5780    0.1700 H   0  0  0  0  0  0  0  0  0  0  0  0
   -3.6330   -2.1620   -1.1920 H   0  0  0  0  0  0  0  0  0  0  0  0
   -2.6730   -1.5110   -2.6230 H   0  0  0  0  0  0  0  0  0  0  0  0
  1  9  1  0  0  0  0
  1  2  1  0  0  0  0
  1  8  1  0  0  0  0
  2  4  1  0  0  0  0
  2 11  1  1  0  0  0
  3 12  1  0  0  0  0
  3  2  1  0  0  0  0
  4 13  1  1  0  0  0
  4  5  1  0  0  0  0
  5 14  1  0  0  0  0
  6  4  1  0  0  0  0
  7  6  2  0  0  0  0
 10  1  1  0  0  0  0
 15  5  1  0  0  0  0
 16  6  1  0  0  0  0
 16 27  1  0  0  0  0
 17 28  1  1  0  0  0
 17 16  1  0  0  0  0
 18 17  1  0  0  0  0
 18 19  1  0  0  0  0
 19 20  2  0  0  0  0
 19 24  1  0  0  0  0
 20 21  1  0  0  0  0
 21 32  1  0  0  0  0
 21 22  2  0  0  0  0
 22 33  1  0  0  0  0
 23 22  1  0  0  0  0
 23 34  1  0  0  0  0
 24 23  2  0  0  0  0
 25 36  1  0  0  0  0
 25 17  1  0  0  0  0
 26 25  2  0  0  0  0
 29 18  1  0  0  0  0
 30 18  1  0  0  0  0
 31 20  1  0  0  0  0
 35 24  1  0  0  0  0
 36 41  1  0  0  0  0
 37 42  1  0  0  0  0
 37 36  1  0  0  0  0
 38 37  1  0  0  0  0
 38 40  1  0  0  0  0
 39 38  2  0  0  0  0
 43 37  1  0  0  0  0
M  END
$$$$
