TFK.pdb
 OpenBabel07022419133D

 57 57  0  0  1  0  0  0  0  0999 V2000
    3.8460   -2.8940   -1.3030 C   0  0  0  0  0  0  0  0  0  0  0  0
    4.5100   -1.5380   -1.2010 C   0  0  1  0  0  0  0  0  0  0  0  0
    3.8060   -0.5500   -1.8810 O   0  0  0  0  0  0  0  0  0  0  0  0
    4.7620   -1.1530    0.2430 C   0  0  2  0  0  0  0  0  0  0  0  0
    5.5090   -2.2450    0.8870 N   0  0  0  0  0  0  0  0  0  0  0  0
    3.5150   -0.9180    0.9940 C   0  0  0  0  0  0  0  0  0  0  0  0
    3.2270   -1.6340    2.0040 O   0  0  0  0  0  0  0  0  0  0  0  0
    3.2200   -3.1230   -0.4130 H   0  0  0  0  0  0  0  0  0  0  0  0
    4.5930   -3.7160   -1.3770 H   0  0  0  0  0  0  0  0  0  0  0  0
    3.2570   -2.9430   -2.2490 H   0  0  0  0  0  0  0  0  0  0  0  0
    5.5010   -1.6200   -1.6930 H   0  0  0  0  0  0  0  0  0  0  0  0
    4.0100   -0.5160   -2.8420 H   0  0  0  0  0  0  0  0  0  0  0  0
    5.4370   -0.2740    0.2620 H   0  0  0  0  0  0  0  0  0  0  0  0
    5.6720   -3.0340    0.2220 H   0  0  0  0  0  0  0  0  0  0  0  0
    6.3830   -1.8990    1.3400 H   0  0  0  0  0  0  0  0  0  0  0  0
    2.6010    0.0870    0.6400 N   0  0  0  0  0  0  0  0  0  0  0  0
    1.3390    0.3290    1.3940 C   0  0  1  0  0  0  0  0  0  0  0  0
    1.3650    1.7010    1.9460 C   0  0  0  0  0  0  0  0  0  0  0  0
    0.1640    2.0270    2.7290 C   0  0  0  0  0  0  0  0  0  0  0  0
    0.0590    1.6390    4.0750 C   0  0  0  0  0  0  0  0  0  0  0  0
   -0.9990    1.9520    4.8790 C   0  0  0  0  0  0  0  0  0  0  0  0
   -2.0400    2.6940    4.3560 C   0  0  0  0  0  0  0  0  0  0  0  0
   -1.9710    3.0920    3.0370 C   0  0  0  0  0  0  0  0  0  0  0  0
   -0.8950    2.7680    2.2360 C   0  0  0  0  0  0  0  0  0  0  0  0
    0.2750    0.1400    0.4100 C   0  0  0  0  0  0  0  0  0  0  0  0
    0.6240    0.0400   -0.8250 O   0  0  0  0  0  0  0  0  0  0  0  0
    2.8070    0.6910   -0.1800 H   0  0  0  0  0  0  0  0  0  0  0  0
    1.2740   -0.4090    2.2290 H   0  0  0  0  0  0  0  0  0  0  0  0
    2.2330    1.8940    2.6210 H   0  0  0  0  0  0  0  0  0  0  0  0
    1.5140    2.4250    1.1030 H   0  0  0  0  0  0  0  0  0  0  0  0
    0.8630    1.0570    4.5070 H   0  0  0  0  0  0  0  0  0  0  0  0
   -1.0810    1.6560    5.9120 H   0  0  0  0  0  0  0  0  0  0  0  0
   -2.8870    2.9460    4.9960 H   0  0  0  0  0  0  0  0  0  0  0  0
   -2.8090    3.6820    2.6370 H   0  0  0  0  0  0  0  0  0  0  0  0
   -0.8800    3.1020    1.1990 H   0  0  0  0  0  0  0  0  0  0  0  0
   -1.1100    0.0390    0.6220 N   0  0  0  0  0  0  0  0  0  0  0  0
   -2.0640   -0.1700   -0.4750 C   0  0  1  0  0  0  0  0  0  0  0  0
   -2.5950   -1.5800   -0.4000 C   0  0  0  0  0  0  0  0  0  0  0  0
   -3.5710   -1.8350   -1.5030 C   0  0  0  0  0  0  0  0  0  0  0  0
   -4.0820   -3.2730   -1.4790 C   0  0  0  0  0  0  0  0  0  0  0  0
   -2.9760   -4.2820   -1.6360 C   0  0  0  0  0  0  0  0  0  0  0  0
   -3.4860   -5.6390   -1.6130 N   0  0  0  0  0  0  0  0  0  0  0  0
   -3.1610    0.8030   -0.4830 C   0  0  0  0  0  0  0  0  0  0  0  0
   -3.9610    0.8530   -1.4530 O   0  0  0  0  0  0  0  0  0  0  0  0
   -3.4020    1.7090    0.5320 O   0  0  0  0  0  0  0  0  0  0  0  0
   -1.4940    0.0980    1.5710 H   0  0  0  0  0  0  0  0  0  0  0  0
   -1.4580   -0.1380   -1.4170 H   0  0  0  0  0  0  0  0  0  0  0  0
   -3.1470   -1.7570    0.5600 H   0  0  0  0  0  0  0  0  0  0  0  0
   -1.7350   -2.2800   -0.5010 H   0  0  0  0  0  0  0  0  0  0  0  0
   -3.2570   -1.5020   -2.4970 H   0  0  0  0  0  0  0  0  0  0  0  0
   -4.5120   -1.2440   -1.2520 H   0  0  0  0  0  0  0  0  0  0  0  0
   -4.6410   -3.4360   -0.5570 H   0  0  0  0  0  0  0  0  0  0  0  0
   -4.7770   -3.3820   -2.3310 H   0  0  0  0  0  0  0  0  0  0  0  0
   -2.4440   -4.1470   -2.5990 H   0  0  0  0  0  0  0  0  0  0  0  0
   -2.2180   -4.2180   -0.8320 H   0  0  0  0  0  0  0  0  0  0  0  0
   -3.6330   -6.0140   -0.6720 H   0  0  0  0  0  0  0  0  0  0  0  0
   -3.0500   -6.2600   -2.2980 H   0  0  0  0  0  0  0  0  0  0  0  0
  1  2  1  0  0  0  0
  1  8  1  0  0  0  0
  2 11  1  6  0  0  0
  2  4  1  0  0  0  0
  3  2  1  0  0  0  0
  4 13  1  1  0  0  0
  4  5  1  0  0  0  0
  4  6  1  0  0  0  0
  5 15  1  0  0  0  0
  6  7  2  0  0  0  0
  9  1  1  0  0  0  0
 10  1  1  0  0  0  0
 12  3  1  0  0  0  0
 14  5  1  0  0  0  0
 16  6  1  0  0  0  0
 16 17  1  0  0  0  0
 17 18  1  0  0  0  0
 17 28  1  1  0  0  0
 18 29  1  0  0  0  0
 18 19  1  0  0  0  0
 19 20  1  0  0  0  0
 20 31  1  0  0  0  0
 20 21  2  0  0  0  0
 21 32  1  0  0  0  0
 22 21  1  0  0  0  0
 22 33  1  0  0  0  0
 23 22  2  0  0  0  0
 24 19  2  0  0  0  0
 24 23  1  0  0  0  0
 25 36  1  0  0  0  0
 25 17  1  0  0  0  0
 26 25  2  0  0  0  0
 27 16  1  0  0  0  0
 30 18  1  0  0  0  0
 34 23  1  0  0  0  0
 35 24  1  0  0  0  0
 36 46  1  0  0  0  0
 37 47  1  6  0  0  0
 37 38  1  0  0  0  0
 37 36  1  0  0  0  0
 38 48  1  0  0  0  0
 39 40  1  0  0  0  0
 39 51  1  0  0  0  0
 39 38  1  0  0  0  0
 40 52  1  0  0  0  0
 41 42  1  0  0  0  0
 41 40  1  0  0  0  0
 41 55  1  0  0  0  0
 42 56  1  0  0  0  0
 43 37  1  0  0  0  0
 43 45  1  0  0  0  0
 44 43  2  0  0  0  0
 49 38  1  0  0  0  0
 50 39  1  0  0  0  0
 53 40  1  0  0  0  0
 54 41  1  0  0  0  0
 57 42  1  0  0  0  0
M  END
$$$$
