TFL.pdb
 OpenBabel07022419133D

 55 55  0  0  1  0  0  0  0  0999 V2000
    2.2860   -3.9850    3.0910 C   0  0  0  0  0  0  0  0  0  0  0  0
    1.5280   -2.8040    2.5810 C   0  0  1  0  0  0  0  0  0  0  0  0
    0.2440   -2.7170    3.1140 O   0  0  0  0  0  0  0  0  0  0  0  0
    2.2360   -1.4910    2.8530 C   0  0  2  0  0  0  0  0  0  0  0  0
    2.3320   -1.2080    4.2600 N   0  0  0  0  0  0  0  0  0  0  0  0
    1.4490   -0.4330    2.1450 C   0  0  0  0  0  0  0  0  0  0  0  0
    0.9930    0.5140    2.8170 O   0  0  0  0  0  0  0  0  0  0  0  0
    3.3720   -3.8590    3.1060 H   0  0  0  0  0  0  0  0  0  0  0  0
    1.9720   -4.1320    4.1660 H   0  0  0  0  0  0  0  0  0  0  0  0
    1.9420   -4.8970    2.5540 H   0  0  0  0  0  0  0  0  0  0  0  0
    1.4390   -2.9010    1.4820 H   0  0  0  0  0  0  0  0  0  0  0  0
   -0.3610   -2.1840    2.5460 H   0  0  0  0  0  0  0  0  0  0  0  0
    3.2800   -1.5290    2.4530 H   0  0  0  0  0  0  0  0  0  0  0  0
    2.7510   -2.0440    4.7220 H   0  0  0  0  0  0  0  0  0  0  0  0
    3.0470   -0.4360    4.3730 H   0  0  0  0  0  0  0  0  0  0  0  0
    1.2060   -0.4660    0.7570 N   0  0  0  0  0  0  0  0  0  0  0  0
    0.4660    0.5090    0.0230 C   0  0  1  0  0  0  0  0  0  0  0  0
    1.2840    1.1760   -1.0620 C   0  0  0  0  0  0  0  0  0  0  0  0
    2.4580    1.8750   -0.5380 C   0  0  0  0  0  0  0  0  0  0  0  0
    3.6510    1.1520   -0.4330 C   0  0  0  0  0  0  0  0  0  0  0  0
    4.7790    1.7830    0.0590 C   0  0  0  0  0  0  0  0  0  0  0  0
    4.7090    3.1080    0.4360 C   0  0  0  0  0  0  0  0  0  0  0  0
    3.5400    3.8370    0.3390 C   0  0  0  0  0  0  0  0  0  0  0  0
    2.4250    3.1910   -0.1540 C   0  0  0  0  0  0  0  0  0  0  0  0
   -0.7700   -0.0920   -0.6010 C   0  0  0  0  0  0  0  0  0  0  0  0
   -1.5430    0.6230   -1.2860 O   0  0  0  0  0  0  0  0  0  0  0  0
    1.6190   -1.2950    0.2370 H   0  0  0  0  0  0  0  0  0  0  0  0
    0.0900    1.3170    0.6820 H   0  0  0  0  0  0  0  0  0  0  0  0
    0.6720    1.8740   -1.6440 H   0  0  0  0  0  0  0  0  0  0  0  0
    1.5920    0.3590   -1.7600 H   0  0  0  0  0  0  0  0  0  0  0  0
    3.7080    0.1060   -0.7290 H   0  0  0  0  0  0  0  0  0  0  0  0
    5.7280    1.2740    0.1620 H   0  0  0  0  0  0  0  0  0  0  0  0
    5.5980    3.5830    0.8170 H   0  0  0  0  0  0  0  0  0  0  0  0
    3.4800    4.8910    0.6370 H   0  0  0  0  0  0  0  0  0  0  0  0
    1.4780    3.7160   -0.2510 H   0  0  0  0  0  0  0  0  0  0  0  0
   -5.6760   -1.7140    0.6570 C   0  0  0  0  0  0  0  0  0  0  0  0
   -4.8050   -2.2430   -0.5320 C   0  0  0  0  0  0  0  0  0  0  0  0
   -5.4560   -1.6050   -1.7410 C   0  0  0  0  0  0  0  0  0  0  0  0
   -3.4490   -1.7790   -0.2080 C   0  0  0  0  0  0  0  0  0  0  0  0
   -2.2850   -2.0900   -1.0350 C   0  0  2  0  0  0  0  0  0  0  0  0
   -1.0800   -1.4600   -0.4300 N   0  0  0  0  0  0  0  0  0  0  0  0
   -2.3060   -1.9140   -2.4670 C   0  0  0  0  0  0  0  0  0  0  0  0
   -3.1760   -2.4360   -3.1890 O   0  0  0  0  0  0  0  0  0  0  0  0
   -1.3550   -1.1490   -3.1430 O   0  0  0  0  0  0  0  0  0  0  0  0
   -5.5280   -2.3580    1.5370 H   0  0  0  0  0  0  0  0  0  0  0  0
   -5.3330   -0.6950    0.9320 H   0  0  0  0  0  0  0  0  0  0  0  0
   -6.7250   -1.6280    0.3330 H   0  0  0  0  0  0  0  0  0  0  0  0
   -4.9660   -3.3190   -0.5480 H   0  0  0  0  0  0  0  0  0  0  0  0
   -5.7330   -2.3350   -2.5320 H   0  0  0  0  0  0  0  0  0  0  0  0
   -6.4650   -1.2020   -1.3970 H   0  0  0  0  0  0  0  0  0  0  0  0
   -4.9090   -0.7220   -2.0990 H   0  0  0  0  0  0  0  0  0  0  0  0
   -3.2390   -2.0670    0.8770 H   0  0  0  0  0  0  0  0  0  0  0  0
   -3.5200   -0.6400   -0.1080 H   0  0  0  0  0  0  0  0  0  0  0  0
   -2.0630   -3.2040   -0.8770 H   0  0  0  0  0  0  0  0  0  0  0  0
   -0.4050   -2.0040    0.1530 H   0  0  0  0  0  0  0  0  0  0  0  0
  1  8  1  0  0  0  0
  1  9  1  0  0  0  0
  2 11  1  6  0  0  0
  2  4  1  0  0  0  0
  2  1  1  0  0  0  0
  2  3  1  0  0  0  0
  4 13  1  6  0  0  0
  4  5  1  0  0  0  0
  5 15  1  0  0  0  0
  5 14  1  0  0  0  0
  6  7  2  0  0  0  0
  6  4  1  0  0  0  0
 10  1  1  0  0  0  0
 12  3  1  0  0  0  0
 16  6  1  0  0  0  0
 17 28  1  1  0  0  0
 17 16  1  0  0  0  0
 18 19  1  0  0  0  0
 18 17  1  0  0  0  0
 19 20  2  0  0  0  0
 19 24  1  0  0  0  0
 20 21  1  0  0  0  0
 21 32  1  0  0  0  0
 21 22  2  0  0  0  0
 22 33  1  0  0  0  0
 23 22  1  0  0  0  0
 23 34  1  0  0  0  0
 24 23  2  0  0  0  0
 25 41  1  0  0  0  0
 25 17  1  0  0  0  0
 26 25  2  0  0  0  0
 27 16  1  0  0  0  0
 29 18  1  0  0  0  0
 30 18  1  0  0  0  0
 31 20  1  0  0  0  0
 35 24  1  0  0  0  0
 36 46  1  0  0  0  0
 36 45  1  0  0  0  0
 37 39  1  0  0  0  0
 37 36  1  0  0  0  0
 38 50  1  0  0  0  0
 38 37  1  0  0  0  0
 39 53  1  0  0  0  0
 39 52  1  0  0  0  0
 40 54  1  1  0  0  0
 40 41  1  0  0  0  0
 40 39  1  0  0  0  0
 41 55  1  0  0  0  0
 42 40  1  0  0  0  0
 43 42  2  0  0  0  0
 44 42  1  0  0  0  0
 47 36  1  0  0  0  0
 48 37  1  0  0  0  0
 49 38  1  0  0  0  0
 51 38  1  0  0  0  0
M  END
$$$$
