TFV.pdb
 OpenBabel07022419133D

 52 52  0  0  1  0  0  0  0  0999 V2000
   -0.1850   -6.2070    3.2620 C   0  0  0  0  0  0  0  0  0  0  0  0
    0.6920   -5.0860    2.7330 C   0  0  1  0  0  0  0  0  0  0  0  0
    1.4350   -5.5560    1.6650 O   0  0  0  0  0  0  0  0  0  0  0  0
   -0.2090   -3.9520    2.3480 C   0  0  2  0  0  0  0  0  0  0  0  0
   -1.1620   -4.2900    1.3350 N   0  0  0  0  0  0  0  0  0  0  0  0
    0.5720   -2.7180    2.0040 C   0  0  0  0  0  0  0  0  0  0  0  0
    1.4290   -2.3590    2.8460 O   0  0  0  0  0  0  0  0  0  0  0  0
    0.3050   -7.1890    3.1650 H   0  0  0  0  0  0  0  0  0  0  0  0
   -0.4330   -6.0260    4.3210 H   0  0  0  0  0  0  0  0  0  0  0  0
   -1.1310   -6.1740    2.6760 H   0  0  0  0  0  0  0  0  0  0  0  0
    1.3210   -4.7580    3.5830 H   0  0  0  0  0  0  0  0  0  0  0  0
    0.8250   -5.9700    1.0180 H   0  0  0  0  0  0  0  0  0  0  0  0
   -0.7950   -3.6790    3.2710 H   0  0  0  0  0  0  0  0  0  0  0  0
   -0.6900   -4.3230    0.4130 H   0  0  0  0  0  0  0  0  0  0  0  0
   -1.9120   -3.5560    1.3130 H   0  0  0  0  0  0  0  0  0  0  0  0
    0.3970   -1.9820    0.8420 N   0  0  0  0  0  0  0  0  0  0  0  0
    1.1830   -0.7940    0.5630 C   0  0  1  0  0  0  0  0  0  0  0  0
    1.9680   -0.9070   -0.6900 C   0  0  0  0  0  0  0  0  0  0  0  0
    2.7650    0.2940   -0.9760 C   0  0  0  0  0  0  0  0  0  0  0  0
    2.3430    1.3190   -1.7950 C   0  0  0  0  0  0  0  0  0  0  0  0
    3.0980    2.4370   -2.0500 C   0  0  0  0  0  0  0  0  0  0  0  0
    4.3370    2.5750   -1.4800 C   0  0  0  0  0  0  0  0  0  0  0  0
    4.7940    1.5770   -0.6580 C   0  0  0  0  0  0  0  0  0  0  0  0
    4.0230    0.4500   -0.4070 C   0  0  0  0  0  0  0  0  0  0  0  0
    0.3330    0.4150    0.5260 C   0  0  0  0  0  0  0  0  0  0  0  0
    0.8110    1.5620    0.3800 O   0  0  0  0  0  0  0  0  0  0  0  0
   -0.3030   -2.2640    0.1420 H   0  0  0  0  0  0  0  0  0  0  0  0
    1.8960   -0.6290    1.4260 H   0  0  0  0  0  0  0  0  0  0  0  0
    2.6180   -1.8100   -0.7320 H   0  0  0  0  0  0  0  0  0  0  0  0
    1.2700   -1.0680   -1.5720 H   0  0  0  0  0  0  0  0  0  0  0  0
    1.3600    1.2600   -2.2810 H   0  0  0  0  0  0  0  0  0  0  0  0
    2.7670    3.2500   -2.6980 H   0  0  0  0  0  0  0  0  0  0  0  0
    4.9820    3.4410   -1.6460 H   0  0  0  0  0  0  0  0  0  0  0  0
    5.7800    1.6730   -0.1970 H   0  0  0  0  0  0  0  0  0  0  0  0
    4.4550   -0.2850    0.2490 H   0  0  0  0  0  0  0  0  0  0  0  0
   -3.7890    2.7100   -0.4160 C   0  0  0  0  0  0  0  0  0  0  0  0
   -2.9520    1.4530   -0.5150 C   0  0  0  0  0  0  0  0  0  0  0  0
   -3.8160    0.2250   -0.4680 C   0  0  0  0  0  0  0  0  0  0  0  0
   -1.9570    1.5000    0.6240 C   0  0  2  0  0  0  0  0  0  0  0  0
   -1.0890    0.3640    0.6530 N   0  0  0  0  0  0  0  0  0  0  0  0
   -2.6330    1.6200    1.9380 C   0  0  0  0  0  0  0  0  0  0  0  0
   -2.3800    0.7790    2.8220 O   0  0  0  0  0  0  0  0  0  0  0  0
   -3.5480    2.6470    2.2250 O   0  0  0  0  0  0  0  0  0  0  0  0
   -4.0380    3.1190   -1.4170 H   0  0  0  0  0  0  0  0  0  0  0  0
   -4.7000    2.5480    0.2030 H   0  0  0  0  0  0  0  0  0  0  0  0
   -3.2010    3.5040    0.0880 H   0  0  0  0  0  0  0  0  0  0  0  0
   -2.3650    1.5390   -1.4590 H   0  0  0  0  0  0  0  0  0  0  0  0
   -4.8160    0.4750   -0.8920 H   0  0  0  0  0  0  0  0  0  0  0  0
   -3.8890   -0.2170    0.5460 H   0  0  0  0  0  0  0  0  0  0  0  0
   -3.3690   -0.5210   -1.1870 H   0  0  0  0  0  0  0  0  0  0  0  0
   -1.3930    2.4650    0.4870 H   0  0  0  0  0  0  0  0  0  0  0  0
   -1.5060   -0.5820    0.7750 H   0  0  0  0  0  0  0  0  0  0  0  0
  1  9  1  0  0  0  0
  2  1  1  0  0  0  0
  2 11  1  1  0  0  0
  3  2  1  0  0  0  0
  4  2  1  0  0  0  0
  4 13  1  1  0  0  0
  5  4  1  0  0  0  0
  6  4  1  0  0  0  0
  6  7  2  0  0  0  0
  8  1  1  0  0  0  0
 10  1  1  0  0  0  0
 12  3  1  0  0  0  0
 14  5  1  0  0  0  0
 15  5  1  0  0  0  0
 16  6  1  0  0  0  0
 17 16  1  0  0  0  0
 17 28  1  1  0  0  0
 18 17  1  0  0  0  0
 19 18  1  0  0  0  0
 19 24  1  0  0  0  0
 20 19  2  0  0  0  0
 21 20  1  0  0  0  0
 21 22  2  0  0  0  0
 22 23  1  0  0  0  0
 23 24  2  0  0  0  0
 23 34  1  0  0  0  0
 24 35  1  0  0  0  0
 25 17  1  0  0  0  0
 25 40  1  0  0  0  0
 26 25  2  0  0  0  0
 27 16  1  0  0  0  0
 29 18  1  0  0  0  0
 30 18  1  0  0  0  0
 31 20  1  0  0  0  0
 32 21  1  0  0  0  0
 33 22  1  0  0  0  0
 36 46  1  0  0  0  0
 36 45  1  0  0  0  0
 37 38  1  0  0  0  0
 37 36  1  0  0  0  0
 37 39  1  0  0  0  0
 38 49  1  0  0  0  0
 39 51  1  6  0  0  0
 39 40  1  0  0  0  0
 39 41  1  0  0  0  0
 40 52  1  0  0  0  0
 41 43  2  0  0  0  0
 41 42  1  0  0  0  0
 44 36  1  0  0  0  0
 47 37  1  0  0  0  0
 48 38  1  0  0  0  0
 50 38  1  0  0  0  0
M  END
$$$$
