TFW.pdb
 OpenBabel07022419133D

 60 62  0  0  1  0  0  0  0  0999 V2000
    3.9180    0.9360    2.6140 C   0  0  0  0  0  0  0  0  0  0  0  0
    3.8970   -0.5600    2.6070 C   0  0  1  0  0  0  0  0  0  0  0  0
    3.1760   -1.0270    3.6950 O   0  0  0  0  0  0  0  0  0  0  0  0
    3.3480   -1.1610    1.3550 C   0  0  2  0  0  0  0  0  0  0  0  0
    4.0190   -0.7460    0.1530 N   0  0  0  0  0  0  0  0  0  0  0  0
    1.9010   -0.9570    1.2560 C   0  0  0  0  0  0  0  0  0  0  0  0
    1.0850   -1.1980    2.1830 O   0  0  0  0  0  0  0  0  0  0  0  0
    3.0270    1.2910    3.1870 H   0  0  0  0  0  0  0  0  0  0  0  0
    3.8950    1.3880    1.6130 H   0  0  0  0  0  0  0  0  0  0  0  0
    4.7990    1.3300    3.1980 H   0  0  0  0  0  0  0  0  0  0  0  0
    4.9520   -0.8930    2.7810 H   0  0  0  0  0  0  0  0  0  0  0  0
    2.9440   -0.3130    4.3290 H   0  0  0  0  0  0  0  0  0  0  0  0
    3.4950   -2.2800    1.4520 H   0  0  0  0  0  0  0  0  0  0  0  0
    3.8620    0.2400   -0.0890 H   0  0  0  0  0  0  0  0  0  0  0  0
    5.0120   -1.0250    0.1150 H   0  0  0  0  0  0  0  0  0  0  0  0
    1.3560   -0.4560    0.0470 N   0  0  0  0  0  0  0  0  0  0  0  0
   -0.0530   -0.2220   -0.1530 C   0  0  1  0  0  0  0  0  0  0  0  0
   -0.3400    1.2400   -0.4210 C   0  0  0  0  0  0  0  0  0  0  0  0
    0.0840    2.1010    0.6940 C   0  0  0  0  0  0  0  0  0  0  0  0
   -0.7890    2.3740    1.7130 C   0  0  0  0  0  0  0  0  0  0  0  0
   -0.4310    3.1910    2.7870 C   0  0  0  0  0  0  0  0  0  0  0  0
    0.8380    3.7070    2.7730 C   0  0  0  0  0  0  0  0  0  0  0  0
    1.7340    3.4390    1.7450 C   0  0  0  0  0  0  0  0  0  0  0  0
    1.3500    2.6240    0.6920 C   0  0  0  0  0  0  0  0  0  0  0  0
   -0.6190   -1.0060   -1.2570 C   0  0  0  0  0  0  0  0  0  0  0  0
    0.0970   -1.7710   -1.9430 O   0  0  0  0  0  0  0  0  0  0  0  0
    1.9950   -0.2410   -0.7530 H   0  0  0  0  0  0  0  0  0  0  0  0
   -0.5470   -0.4820    0.8300 H   0  0  0  0  0  0  0  0  0  0  0  0
    0.1440    1.5620   -1.3730 H   0  0  0  0  0  0  0  0  0  0  0  0
   -1.4460    1.3690   -0.5820 H   0  0  0  0  0  0  0  0  0  0  0  0
   -1.7950    1.9610    1.7190 H   0  0  0  0  0  0  0  0  0  0  0  0
   -1.1120    3.4090    3.5920 H   0  0  0  0  0  0  0  0  0  0  0  0
    1.1460    4.3500    3.6010 H   0  0  0  0  0  0  0  0  0  0  0  0
    2.7270    3.8520    1.7480 H   0  0  0  0  0  0  0  0  0  0  0  0
    2.0610    2.4140   -0.1190 H   0  0  0  0  0  0  0  0  0  0  0  0
   -1.9950   -0.9230   -1.5810 N   0  0  0  0  0  0  0  0  0  0  0  0
   -2.6170   -1.6640   -2.6490 C   0  0  1  0  0  0  0  0  0  0  0  0
   -3.5500   -2.7080   -2.1150 C   0  0  0  0  0  0  0  0  0  0  0  0
   -2.7900   -3.6540   -1.2700 C   0  0  0  0  0  0  0  0  0  0  0  0
   -2.2650   -4.8820   -1.7000 C   0  0  0  0  0  0  0  0  0  0  0  0
   -1.6040   -5.4570   -0.6880 N   0  0  0  0  0  0  0  0  0  0  0  0
   -1.6610   -4.6750    0.4010 C   0  0  0  0  0  0  0  0  0  0  0  0
   -1.1540   -4.8210    1.6810 C   0  0  0  0  0  0  0  0  0  0  0  0
   -1.4010   -3.8210    2.5960 C   0  0  0  0  0  0  0  0  0  0  0  0
   -2.1240   -2.7060    2.2760 C   0  0  0  0  0  0  0  0  0  0  0  0
   -2.6220   -2.5740    1.0000 C   0  0  0  0  0  0  0  0  0  0  0  0
   -2.4030   -3.5430    0.0450 C   0  0  0  0  0  0  0  0  0  0  0  0
   -3.2480   -0.7380   -3.5910 C   0  0  0  0  0  0  0  0  0  0  0  0
   -3.1810    0.4950   -3.3830 O   0  0  0  0  0  0  0  0  0  0  0  0
   -3.9330   -1.1570   -4.7260 O   0  0  0  0  0  0  0  0  0  0  0  0
   -2.5690   -0.2660   -0.9910 H   0  0  0  0  0  0  0  0  0  0  0  0
   -1.8020   -2.2010   -3.2320 H   0  0  0  0  0  0  0  0  0  0  0  0
   -4.1440   -3.2070   -2.8960 H   0  0  0  0  0  0  0  0  0  0  0  0
   -4.2980   -2.1970   -1.4470 H   0  0  0  0  0  0  0  0  0  0  0  0
   -2.4060   -5.2470   -2.6980 H   0  0  0  0  0  0  0  0  0  0  0  0
   -1.1190   -6.3700   -0.7320 H   0  0  0  0  0  0  0  0  0  0  0  0
   -0.5810   -5.6720    1.9900 H   0  0  0  0  0  0  0  0  0  0  0  0
   -1.0080   -3.9170    3.6160 H   0  0  0  0  0  0  0  0  0  0  0  0
   -2.3260   -1.9160    2.9820 H   0  0  0  0  0  0  0  0  0  0  0  0
   -3.2090   -1.6880    0.7640 H   0  0  0  0  0  0  0  0  0  0  0  0
  1  8  1  0  0  0  0
  1 10  1  0  0  0  0
  2  1  1  0  0  0  0
  2 11  1  1  0  0  0
  2  3  1  0  0  0  0
  3 12  1  0  0  0  0
  4 13  1  1  0  0  0
  4  2  1  0  0  0  0
  5  4  1  0  0  0  0
  6  4  1  0  0  0  0
  6  7  2  0  0  0  0
  9  1  1  0  0  0  0
 14  5  1  0  0  0  0
 15  5  1  0  0  0  0
 16  6  1  0  0  0  0
 17 16  1  0  0  0  0
 17 28  1  1  0  0  0
 18 17  1  0  0  0  0
 18 19  1  0  0  0  0
 19 20  1  0  0  0  0
 20 31  1  0  0  0  0
 20 21  2  0  0  0  0
 21 32  1  0  0  0  0
 22 21  1  0  0  0  0
 22 33  1  0  0  0  0
 23 34  1  0  0  0  0
 23 22  2  0  0  0  0
 24 19  2  0  0  0  0
 24 23  1  0  0  0  0
 25 17  1  0  0  0  0
 26 25  2  0  0  0  0
 27 16  1  0  0  0  0
 29 18  1  0  0  0  0
 30 18  1  0  0  0  0
 35 24  1  0  0  0  0
 36 25  1  0  0  0  0
 36 51  1  0  0  0  0
 37 52  1  6  0  0  0
 37 38  1  0  0  0  0
 37 36  1  0  0  0  0
 38 54  1  0  0  0  0
 38 39  1  0  0  0  0
 39 47  1  0  0  0  0
 40 39  2  0  0  0  0
 40 41  1  0  0  0  0
 41 42  1  0  0  0  0
 42 43  1  0  0  0  0
 43 57  1  0  0  0  0
 43 44  2  0  0  0  0
 44 58  1  0  0  0  0
 45 44  1  0  0  0  0
 45 59  1  0  0  0  0
 46 45  2  0  0  0  0
 47 42  2  0  0  0  0
 47 46  1  0  0  0  0
 48 49  1  0  0  0  0
 48 37  1  0  0  0  0
 50 48  2  0  0  0  0
 53 38  1  0  0  0  0
 55 40  1  0  0  0  0
 56 41  1  0  0  0  0
 60 46  1  0  0  0  0
M  END
$$$$
