TFY.pdb
 OpenBabel07022419133D

 57 58  0  0  1  0  0  0  0  0999 V2000
    3.8060    1.6730    3.9520 C   0  0  0  0  0  0  0  0  0  0  0  0
    4.3760    0.3700    4.4280 C   0  0  1  0  0  0  0  0  0  0  0  0
    3.6160   -0.0870    5.5040 O   0  0  0  0  0  0  0  0  0  0  0  0
    4.2490   -0.6570    3.3210 C   0  0  2  0  0  0  0  0  0  0  0  0
    5.0250   -0.2090    2.2030 N   0  0  0  0  0  0  0  0  0  0  0  0
    2.8100   -0.7940    3.0080 C   0  0  0  0  0  0  0  0  0  0  0  0
    2.0080   -1.1620    3.9280 O   0  0  0  0  0  0  0  0  0  0  0  0
    3.0180    2.0650    4.6480 H   0  0  0  0  0  0  0  0  0  0  0  0
    4.5950    2.4770    3.9500 H   0  0  0  0  0  0  0  0  0  0  0  0
    3.3000    1.6060    2.9630 H   0  0  0  0  0  0  0  0  0  0  0  0
    5.4200    0.5350    4.7410 H   0  0  0  0  0  0  0  0  0  0  0  0
    4.1930   -0.2950    6.2880 H   0  0  0  0  0  0  0  0  0  0  0  0
    4.6860   -1.6210    3.6630 H   0  0  0  0  0  0  0  0  0  0  0  0
    4.5570    0.5880    1.7270 H   0  0  0  0  0  0  0  0  0  0  0  0
    5.9750    0.1290    2.4650 H   0  0  0  0  0  0  0  0  0  0  0  0
    2.2330   -0.5450    1.7380 N   0  0  0  0  0  0  0  0  0  0  0  0
    0.7750   -0.7070    1.5050 C   0  0  1  0  0  0  0  0  0  0  0  0
    0.2640    0.6660    1.2760 C   0  0  0  0  0  0  0  0  0  0  0  0
   -1.1640    0.8310    1.0180 C   0  0  0  0  0  0  0  0  0  0  0  0
   -2.0610    0.8370    2.0960 C   0  0  0  0  0  0  0  0  0  0  0  0
   -3.4040    1.0350    1.8930 C   0  0  0  0  0  0  0  0  0  0  0  0
   -3.8610    1.2280    0.6180 C   0  0  0  0  0  0  0  0  0  0  0  0
   -2.9700    1.2230   -0.4620 C   0  0  0  0  0  0  0  0  0  0  0  0
   -1.6210    1.0250   -0.2690 C   0  0  0  0  0  0  0  0  0  0  0  0
    0.5180   -1.7530    0.5340 C   0  0  0  0  0  0  0  0  0  0  0  0
    1.5510   -2.3250    0.0340 O   0  0  0  0  0  0  0  0  0  0  0  0
    2.8620   -0.2440    0.9680 H   0  0  0  0  0  0  0  0  0  0  0  0
    0.3200   -1.0250    2.5130 H   0  0  0  0  0  0  0  0  0  0  0  0
    0.8900    1.1620    0.4650 H   0  0  0  0  0  0  0  0  0  0  0  0
    0.4920    1.3280    2.1740 H   0  0  0  0  0  0  0  0  0  0  0  0
   -1.6930    0.6840    3.1060 H   0  0  0  0  0  0  0  0  0  0  0  0
   -4.0690    1.0360    2.7240 H   0  0  0  0  0  0  0  0  0  0  0  0
   -4.9170    1.3860    0.4340 H   0  0  0  0  0  0  0  0  0  0  0  0
   -3.4010    1.3810   -1.4190 H   0  0  0  0  0  0  0  0  0  0  0  0
   -0.9620    1.0400   -1.1240 H   0  0  0  0  0  0  0  0  0  0  0  0
   -4.5910    0.4650   -4.7010 O   0  0  0  0  0  0  0  0  0  0  0  0
   -3.6710   -0.3880   -4.1080 C   0  0  0  0  0  0  0  0  0  0  0  0
   -2.4190    0.0430   -3.7750 C   0  0  0  0  0  0  0  0  0  0  0  0
   -1.5110   -0.8140   -3.1830 C   0  0  0  0  0  0  0  0  0  0  0  0
   -1.8110   -2.1240   -2.9030 C   0  0  0  0  0  0  0  0  0  0  0  0
   -0.8970   -3.0930   -2.2760 C   0  0  0  0  0  0  0  0  0  0  0  0
   -0.9670   -3.2690   -0.8260 C   0  0  2  0  0  0  0  0  0  0  0  0
   -0.7260   -2.2210    0.0820 N   0  0  0  0  0  0  0  0  0  0  0  0
   -0.2030   -4.5280   -0.4740 C   0  0  0  0  0  0  0  0  0  0  0  0
   -0.3010   -5.4790   -1.2530 O   0  0  0  0  0  0  0  0  0  0  0  0
   -3.0920   -2.5350   -3.2520 C   0  0  0  0  0  0  0  0  0  0  0  0
   -4.0190   -1.7030   -3.8430 C   0  0  0  0  0  0  0  0  0  0  0  0
    0.5460   -4.5850    0.6510 O   0  0  0  0  0  0  0  0  0  0  0  0
   -5.3900    0.1300   -5.2220 H   0  0  0  0  0  0  0  0  0  0  0  0
   -2.1590    1.0860   -3.9900 H   0  0  0  0  0  0  0  0  0  0  0  0
   -0.5130   -0.4670   -2.9210 H   0  0  0  0  0  0  0  0  0  0  0  0
   -1.1870   -4.0990   -2.7270 H   0  0  0  0  0  0  0  0  0  0  0  0
    0.1460   -2.9700   -2.6770 H   0  0  0  0  0  0  0  0  0  0  0  0
   -2.0380   -3.6390   -0.5960 H   0  0  0  0  0  0  0  0  0  0  0  0
   -1.5650   -1.7070    0.5000 H   0  0  0  0  0  0  0  0  0  0  0  0
   -3.4060   -3.5710   -3.0580 H   0  0  0  0  0  0  0  0  0  0  0  0
   -5.0010   -2.0430   -4.1040 H   0  0  0  0  0  0  0  0  0  0  0  0
  1  2  1  0  0  0  0
  1  8  1  0  0  0  0
  2 11  1  1  0  0  0
  2  3  1  0  0  0  0
  3 12  1  0  0  0  0
  4 13  1  1  0  0  0
  4  2  1  0  0  0  0
  5 15  1  0  0  0  0
  5  4  1  0  0  0  0
  6  4  1  0  0  0  0
  6  7  2  0  0  0  0
  9  1  1  0  0  0  0
 10  1  1  0  0  0  0
 14  5  1  0  0  0  0
 16  6  1  0  0  0  0
 17 16  1  0  0  0  0
 17 28  1  1  0  0  0
 18 17  1  0  0  0  0
 18 30  1  0  0  0  0
 19 18  1  0  0  0  0
 19 20  1  0  0  0  0
 20 31  1  0  0  0  0
 21 20  2  0  0  0  0
 21 32  1  0  0  0  0
 22 21  1  0  0  0  0
 23 24  1  0  0  0  0
 23 22  2  0  0  0  0
 24 19  2  0  0  0  0
 25 17  1  0  0  0  0
 26 25  2  0  0  0  0
 27 16  1  0  0  0  0
 29 18  1  0  0  0  0
 33 22  1  0  0  0  0
 34 23  1  0  0  0  0
 35 24  1  0  0  0  0
 36 37  1  0  0  0  0
 37 47  2  0  0  0  0
 37 38  1  0  0  0  0
 38 39  2  0  0  0  0
 39 51  1  0  0  0  0
 39 40  1  0  0  0  0
 40 41  1  0  0  0  0
 41 42  1  0  0  0  0
 42 54  1  1  0  0  0
 42 44  1  0  0  0  0
 42 43  1  0  0  0  0
 43 55  1  0  0  0  0
 43 25  1  0  0  0  0
 44 48  1  0  0  0  0
 45 44  2  0  0  0  0
 46 56  1  0  0  0  0
 46 40  2  0  0  0  0
 47 46  1  0  0  0  0
 49 36  1  0  0  0  0
 50 38  1  0  0  0  0
 52 41  1  0  0  0  0
 53 41  1  0  0  0  0
 57 47  1  0  0  0  0
M  END
$$$$
