TGA.pdb
 OpenBabel07022419123D

 33 32  0  0  1  0  0  0  0  0999 V2000
   -1.9380   -5.4240    0.8660 C   0  0  0  0  0  0  0  0  0  0  0  0
   -1.3810   -4.1190    1.3900 C   0  0  1  0  0  0  0  0  0  0  0  0
   -0.4310   -4.3720    2.3790 O   0  0  0  0  0  0  0  0  0  0  0  0
   -0.7250   -3.3310    0.2530 C   0  0  2  0  0  0  0  0  0  0  0  0
    0.3610   -4.0630   -0.3290 N   0  0  0  0  0  0  0  0  0  0  0  0
   -0.2960   -1.9960    0.7630 C   0  0  0  0  0  0  0  0  0  0  0  0
   -1.1300   -1.2260    1.3050 O   0  0  0  0  0  0  0  0  0  0  0  0
   -3.0120   -5.2900    0.5440 H   0  0  0  0  0  0  0  0  0  0  0  0
   -1.9890   -6.1800    1.6910 H   0  0  0  0  0  0  0  0  0  0  0  0
   -1.3190   -5.8190    0.0280 H   0  0  0  0  0  0  0  0  0  0  0  0
   -2.1800   -3.5260    1.8540 H   0  0  0  0  0  0  0  0  0  0  0  0
    0.1050   -3.5410    2.5170 H   0  0  0  0  0  0  0  0  0  0  0  0
   -1.5000   -3.1330   -0.5170 H   0  0  0  0  0  0  0  0  0  0  0  0
    0.0510   -4.4780   -1.2390 H   0  0  0  0  0  0  0  0  0  0  0  0
    0.7750   -4.7840    0.3040 H   0  0  0  0  0  0  0  0  0  0  0  0
    1.0400   -1.5410    0.6650 N   0  0  0  0  0  0  0  0  0  0  0  0
    1.4910   -0.2640    1.1430 C   0  0  0  0  0  0  0  0  0  0  0  0
    0.7280    0.7880    0.4210 C   0  0  0  0  0  0  0  0  0  0  0  0
   -0.1380    0.5060   -0.4380 O   0  0  0  0  0  0  0  0  0  0  0  0
    1.7240   -2.1820    0.2160 H   0  0  0  0  0  0  0  0  0  0  0  0
    2.5690   -0.1470    1.0070 H   0  0  0  0  0  0  0  0  0  0  0  0
    1.2820   -0.1130    2.2230 H   0  0  0  0  0  0  0  0  0  0  0  0
   -0.5080    4.1200    0.9720 C   0  0  0  0  0  0  0  0  0  0  0  0
    0.2640    3.2330    0.0310 C   0  0  2  0  0  0  0  0  0  0  0  0
    0.9510    2.1670    0.6780 N   0  0  0  0  0  0  0  0  0  0  0  0
    1.2410    4.0280   -0.7520 C   0  0  0  0  0  0  0  0  0  0  0  0
    2.4560    3.7120   -0.7630 O   0  0  0  0  0  0  0  0  0  0  0  0
    0.8740    5.1390   -1.4960 O   0  0  0  0  0  0  0  0  0  0  0  0
   -0.5590    3.7090    2.0020 H   0  0  0  0  0  0  0  0  0  0  0  0
    0.0450    5.0790    1.0530 H   0  0  0  0  0  0  0  0  0  0  0  0
   -1.5350    4.3270    0.6150 H   0  0  0  0  0  0  0  0  0  0  0  0
   -0.4730    2.8330   -0.7040 H   0  0  0  0  0  0  0  0  0  0  0  0
    1.6740    2.4070    1.3960 H   0  0  0  0  0  0  0  0  0  0  0  0
  1  2  1  0  0  0  0
  1  9  1  0  0  0  0
  2 11  1  1  0  0  0
  2  3  1  0  0  0  0
  3 12  1  0  0  0  0
  4 13  1  6  0  0  0
  4  6  1  0  0  0  0
  4  2  1  0  0  0  0
  5  4  1  0  0  0  0
  5 15  1  0  0  0  0
  6  7  2  0  0  0  0
  8  1  1  0  0  0  0
 10  1  1  0  0  0  0
 14  5  1  0  0  0  0
 16  6  1  0  0  0  0
 16 17  1  0  0  0  0
 17 22  1  0  0  0  0
 18 25  1  0  0  0  0
 18 17  1  0  0  0  0
 19 18  2  0  0  0  0
 20 16  1  0  0  0  0
 21 17  1  0  0  0  0
 23 30  1  0  0  0  0
 23 29  1  0  0  0  0
 24 32  1  6  0  0  0
 24 25  1  0  0  0  0
 24 23  1  0  0  0  0
 25 33  1  0  0  0  0
 26 24  1  0  0  0  0
 27 26  1  0  0  0  0
 28 26  2  0  0  0  0
 31 23  1  0  0  0  0
M  END
$$$$
