TGH.pdb
 OpenBabel07022419123D

 40 40  0  0  1  0  0  0  0  0999 V2000
    1.5720   -6.1760   -1.2860 C   0  0  0  0  0  0  0  0  0  0  0  0
    0.7810   -4.8910   -1.3070 C   0  0  1  0  0  0  0  0  0  0  0  0
   -0.1140   -4.9020   -0.2510 O   0  0  0  0  0  0  0  0  0  0  0  0
    1.6890   -3.6780   -1.2980 C   0  0  2  0  0  0  0  0  0  0  0  0
    2.4790   -3.6130   -0.0840 N   0  0  0  0  0  0  0  0  0  0  0  0
    0.9130   -2.4230   -1.4940 C   0  0  0  0  0  0  0  0  0  0  0  0
    0.1590   -2.2680   -2.4880 O   0  0  0  0  0  0  0  0  0  0  0  0
    1.6640   -6.5970   -2.3250 H   0  0  0  0  0  0  0  0  0  0  0  0
    2.6030   -6.0320   -0.9030 H   0  0  0  0  0  0  0  0  0  0  0  0
    1.0830   -6.9110   -0.6230 H   0  0  0  0  0  0  0  0  0  0  0  0
    0.2120   -4.8700   -2.2580 H   0  0  0  0  0  0  0  0  0  0  0  0
   -0.2660   -5.8270    0.0320 H   0  0  0  0  0  0  0  0  0  0  0  0
    2.3820   -3.7800   -2.1500 H   0  0  0  0  0  0  0  0  0  0  0  0
    1.9020   -3.5770    0.7710 H   0  0  0  0  0  0  0  0  0  0  0  0
    3.1640   -2.8440   -0.1810 H   0  0  0  0  0  0  0  0  0  0  0  0
    0.9830   -1.3430   -0.5760 N   0  0  0  0  0  0  0  0  0  0  0  0
    0.2330   -0.1170   -0.7560 C   0  0  0  0  0  0  0  0  0  0  0  0
    0.5360    0.8180    0.3960 C   0  0  0  0  0  0  0  0  0  0  0  0
    1.3160    0.4970    1.3030 O   0  0  0  0  0  0  0  0  0  0  0  0
    1.5960   -1.4320    0.2600 H   0  0  0  0  0  0  0  0  0  0  0  0
   -0.8600   -0.3410   -0.6430 H   0  0  0  0  0  0  0  0  0  0  0  0
    0.4180    0.3800   -1.7050 H   0  0  0  0  0  0  0  0  0  0  0  0
   -0.0860    2.0900    0.4390 N   0  0  0  0  0  0  0  0  0  0  0  0
    0.0460    3.0930    1.4290 C   0  0  1  0  0  0  0  0  0  0  0  0
    0.3750    2.6390    2.8380 C   0  0  0  0  0  0  0  0  0  0  0  0
   -0.6760    1.7770    3.4310 C   0  0  0  0  0  0  0  0  0  0  0  0
   -1.7670    2.2450    4.1620 C   0  0  0  0  0  0  0  0  0  0  0  0
   -2.4750    1.1660    4.5190 N   0  0  0  0  0  0  0  0  0  0  0  0
   -1.8970    0.0460    4.0580 C   0  0  0  0  0  0  0  0  0  0  0  0
   -0.8040    0.4500    3.4000 N   0  0  0  0  0  0  0  0  0  0  0  0
    0.7600    4.3140    1.0380 C   0  0  0  0  0  0  0  0  0  0  0  0
    1.2350    4.4810   -0.1020 O   0  0  0  0  0  0  0  0  0  0  0  0
    0.9190    5.3300    1.9690 O   0  0  0  0  0  0  0  0  0  0  0  0
   -0.7390    2.2950   -0.3990 H   0  0  0  0  0  0  0  0  0  0  0  0
   -1.0650    3.4360    1.5980 H   0  0  0  0  0  0  0  0  0  0  0  0
    1.3340    2.0990    2.9240 H   0  0  0  0  0  0  0  0  0  0  0  0
    0.4160    3.5740    3.4530 H   0  0  0  0  0  0  0  0  0  0  0  0
   -1.9540    3.2810    4.3680 H   0  0  0  0  0  0  0  0  0  0  0  0
   -3.3630    1.1670    5.0810 H   0  0  0  0  0  0  0  0  0  0  0  0
   -2.2590   -0.9480    4.2030 H   0  0  0  0  0  0  0  0  0  0  0  0
  1  9  1  0  0  0  0
  1 10  1  0  0  0  0
  2 11  1  6  0  0  0
  2  4  1  0  0  0  0
  2  1  1  0  0  0  0
  2  3  1  0  0  0  0
  3 12  1  0  0  0  0
  4 13  1  6  0  0  0
  4  5  1  0  0  0  0
  5 14  1  0  0  0  0
  6  4  1  0  0  0  0
  6 16  1  0  0  0  0
  7  6  2  0  0  0  0
  8  1  1  0  0  0  0
 15  5  1  0  0  0  0
 16 20  1  0  0  0  0
 17 21  1  0  0  0  0
 17 16  1  0  0  0  0
 17 18  1  0  0  0  0
 18 23  1  0  0  0  0
 18 19  2  0  0  0  0
 22 17  1  0  0  0  0
 23 24  1  0  0  0  0
 24 35  1  1  0  0  0
 24 25  1  0  0  0  0
 25 36  1  0  0  0  0
 25 26  1  0  0  0  0
 25 37  1  0  0  0  0
 26 27  2  0  0  0  0
 27 38  1  0  0  0  0
 27 28  1  0  0  0  0
 28 39  1  0  0  0  0
 29 40  1  0  0  0  0
 29 28  1  0  0  0  0
 30 26  1  0  0  0  0
 30 29  2  0  0  0  0
 31 24  1  0  0  0  0
 31 33  1  0  0  0  0
 32 31  2  0  0  0  0
 34 23  1  0  0  0  0
M  END
$$$$
