TGL.pdb
 OpenBabel07022419123D

 42 41  0  0  1  0  0  0  0  0999 V2000
   -1.8530   -2.5970    1.0120 C   0  0  0  0  0  0  0  0  0  0  0  0
   -1.1910   -3.8510    0.5370 C   0  0  1  0  0  0  0  0  0  0  0  0
   -0.8260   -3.8440   -0.7900 O   0  0  0  0  0  0  0  0  0  0  0  0
   -0.0790   -4.2110    1.4790 C   0  0  2  0  0  0  0  0  0  0  0  0
   -0.5930   -4.1780    2.8280 N   0  0  0  0  0  0  0  0  0  0  0  0
    1.1250   -3.3880    1.3510 C   0  0  0  0  0  0  0  0  0  0  0  0
    1.5310   -2.7870    2.3940 O   0  0  0  0  0  0  0  0  0  0  0  0
   -1.2600   -2.0540    1.7870 H   0  0  0  0  0  0  0  0  0  0  0  0
   -2.8480   -2.7900    1.5100 H   0  0  0  0  0  0  0  0  0  0  0  0
   -2.0860   -1.8790    0.1930 H   0  0  0  0  0  0  0  0  0  0  0  0
   -1.9600   -4.6730    0.6430 H   0  0  0  0  0  0  0  0  0  0  0  0
   -1.6500   -3.8400   -1.3390 H   0  0  0  0  0  0  0  0  0  0  0  0
    0.2450   -5.2790    1.2950 H   0  0  0  0  0  0  0  0  0  0  0  0
   -0.2010   -3.3800    3.3720 H   0  0  0  0  0  0  0  0  0  0  0  0
   -0.3590   -5.0470    3.3750 H   0  0  0  0  0  0  0  0  0  0  0  0
    1.8560   -3.2230    0.1500 N   0  0  0  0  0  0  0  0  0  0  0  0
    3.0280   -2.3870    0.0980 C   0  0  0  0  0  0  0  0  0  0  0  0
    2.7060   -0.9730    0.3830 C   0  0  0  0  0  0  0  0  0  0  0  0
    3.6600   -0.1200    0.4180 O   0  0  0  0  0  0  0  0  0  0  0  0
    1.5390   -3.7180   -0.7110 H   0  0  0  0  0  0  0  0  0  0  0  0
    3.7590   -2.7150    0.8980 H   0  0  0  0  0  0  0  0  0  0  0  0
    3.5870   -2.5020   -0.8550 H   0  0  0  0  0  0  0  0  0  0  0  0
   -0.9430    3.4290    0.8310 C   0  0  0  0  0  0  0  0  0  0  0  0
   -0.0140    2.9520   -0.2220 C   0  0  0  0  0  0  0  0  0  0  0  0
    1.2270    3.8790   -0.1690 C   0  0  0  0  0  0  0  0  0  0  0  0
    0.3950    1.5440   -0.2200 C   0  0  0  0  0  0  0  0  0  0  0  0
    1.1540    0.9720    0.9090 C   0  0  2  0  0  0  0  0  0  0  0  0
    1.4180   -0.4750    0.6200 N   0  0  0  0  0  0  0  0  0  0  0  0
    0.6690    1.1280    2.2620 C   0  0  0  0  0  0  0  0  0  0  0  0
    0.3700    0.0390    2.8890 O   0  0  0  0  0  0  0  0  0  0  0  0
    0.4800    2.2630    2.9970 O   0  0  0  0  0  0  0  0  0  0  0  0
   -0.5110    4.1970    1.5140 H   0  0  0  0  0  0  0  0  0  0  0  0
   -1.7530    4.0310    0.2780 H   0  0  0  0  0  0  0  0  0  0  0  0
   -1.5100    2.6310    1.3080 H   0  0  0  0  0  0  0  0  0  0  0  0
   -0.4450    3.1750   -1.2380 H   0  0  0  0  0  0  0  0  0  0  0  0
    1.9770    3.5140   -0.8800 H   0  0  0  0  0  0  0  0  0  0  0  0
    1.6090    3.9440    0.8720 H   0  0  0  0  0  0  0  0  0  0  0  0
    0.8310    4.8810   -0.4320 H   0  0  0  0  0  0  0  0  0  0  0  0
   -0.5550    0.9320   -0.4030 H   0  0  0  0  0  0  0  0  0  0  0  0
    0.9510    1.3650   -1.1980 H   0  0  0  0  0  0  0  0  0  0  0  0
    2.1850    1.4400    0.8780 H   0  0  0  0  0  0  0  0  0  0  0  0
    0.5830   -1.0870    0.5920 H   0  0  0  0  0  0  0  0  0  0  0  0
  1  9  1  0  0  0  0
  1  8  1  0  0  0  0
  2 11  1  1  0  0  0
  2  1  1  0  0  0  0
  2  4  1  0  0  0  0
  3  2  1  0  0  0  0
  4 13  1  6  0  0  0
  4  5  1  0  0  0  0
  5 14  1  0  0  0  0
  5 15  1  0  0  0  0
  6  4  1  0  0  0  0
  6  7  2  0  0  0  0
 10  1  1  0  0  0  0
 12  3  1  0  0  0  0
 16  6  1  0  0  0  0
 17 16  1  0  0  0  0
 17 18  1  0  0  0  0
 17 21  1  0  0  0  0
 18 19  2  0  0  0  0
 18 28  1  0  0  0  0
 20 16  1  0  0  0  0
 22 17  1  0  0  0  0
 23 34  1  0  0  0  0
 23 32  1  0  0  0  0
 24 26  1  0  0  0  0
 24 25  1  0  0  0  0
 24 23  1  0  0  0  0
 25 37  1  0  0  0  0
 26 27  1  0  0  0  0
 27 41  1  6  0  0  0
 27 29  1  0  0  0  0
 28 27  1  0  0  0  0
 29 30  2  0  0  0  0
 29 31  1  0  0  0  0
 33 23  1  0  0  0  0
 35 24  1  0  0  0  0
 36 25  1  0  0  0  0
 38 25  1  0  0  0  0
 39 26  1  0  0  0  0
 40 26  1  0  0  0  0
 42 28  1  0  0  0  0
M  END
$$$$
