TGM.pdb
 OpenBabel07022419123D

 40 39  0  0  1  0  0  0  0  0999 V2000
    1.3960   -4.6840    1.4150 C   0  0  0  0  0  0  0  0  0  0  0  0
    0.1150   -4.8360    0.6490 C   0  0  1  0  0  0  0  0  0  0  0  0
   -0.9810   -4.7480    1.4800 O   0  0  0  0  0  0  0  0  0  0  0  0
    0.0350   -3.9620   -0.5710 C   0  0  2  0  0  0  0  0  0  0  0  0
    1.2130   -4.1290   -1.3540 N   0  0  0  0  0  0  0  0  0  0  0  0
   -0.2320   -2.5570   -0.3140 C   0  0  0  0  0  0  0  0  0  0  0  0
    0.5880   -1.7030   -0.7830 O   0  0  0  0  0  0  0  0  0  0  0  0
    2.1610   -5.4110    1.0770 H   0  0  0  0  0  0  0  0  0  0  0  0
    1.1820   -4.9380    2.4760 H   0  0  0  0  0  0  0  0  0  0  0  0
    1.8440   -3.6890    1.3510 H   0  0  0  0  0  0  0  0  0  0  0  0
    0.1190   -5.8970    0.2540 H   0  0  0  0  0  0  0  0  0  0  0  0
   -0.7120   -4.7220    2.4300 H   0  0  0  0  0  0  0  0  0  0  0  0
   -0.8200   -4.3680   -1.1810 H   0  0  0  0  0  0  0  0  0  0  0  0
    1.5850   -3.2610   -1.7860 H   0  0  0  0  0  0  0  0  0  0  0  0
    1.9400   -4.7280   -0.9280 H   0  0  0  0  0  0  0  0  0  0  0  0
   -1.3540   -2.0790    0.4300 N   0  0  0  0  0  0  0  0  0  0  0  0
   -1.5080   -0.6690    0.6140 C   0  0  0  0  0  0  0  0  0  0  0  0
   -0.3560   -0.0640    1.3330 C   0  0  0  0  0  0  0  0  0  0  0  0
    0.5970   -0.8070    1.6950 O   0  0  0  0  0  0  0  0  0  0  0  0
   -2.0110   -2.7620    0.8060 H   0  0  0  0  0  0  0  0  0  0  0  0
   -2.4840   -0.4290    1.1000 H   0  0  0  0  0  0  0  0  0  0  0  0
   -1.5650   -0.2120   -0.4160 H   0  0  0  0  0  0  0  0  0  0  0  0
   -0.4660    2.9320   -1.4730 C   0  0  0  0  0  0  0  0  0  0  0  0
    0.7080    1.7380   -0.8520 S   0  0  0  0  0  0  0  0  0  0  0  0
    1.9880    2.4170    0.1880 C   0  0  0  0  0  0  0  0  0  0  0  0
    1.4990    2.9710    1.4930 C   0  0  0  0  0  0  0  0  0  0  0  0
    0.8120    1.8700    2.3110 C   0  0  2  0  0  0  0  0  0  0  0  0
   -0.3100    1.3180    1.6170 N   0  0  0  0  0  0  0  0  0  0  0  0
    0.3520    2.4790    3.5750 C   0  0  0  0  0  0  0  0  0  0  0  0
   -0.8610    2.4450    3.8690 O   0  0  0  0  0  0  0  0  0  0  0  0
    1.2430    3.0830    4.4350 O   0  0  0  0  0  0  0  0  0  0  0  0
    0.1180    3.8600   -1.7470 H   0  0  0  0  0  0  0  0  0  0  0  0
   -0.9290    2.5910   -2.4190 H   0  0  0  0  0  0  0  0  0  0  0  0
   -1.2280    3.2570   -0.7610 H   0  0  0  0  0  0  0  0  0  0  0  0
    2.5410    3.1930   -0.3780 H   0  0  0  0  0  0  0  0  0  0  0  0
    2.7220    1.6170    0.4110 H   0  0  0  0  0  0  0  0  0  0  0  0
    2.3820    3.2810    2.0870 H   0  0  0  0  0  0  0  0  0  0  0  0
    0.8330    3.8250    1.4220 H   0  0  0  0  0  0  0  0  0  0  0  0
    1.5500    1.0700    2.5480 H   0  0  0  0  0  0  0  0  0  0  0  0
   -1.1310    1.8860    1.2910 H   0  0  0  0  0  0  0  0  0  0  0  0
  1  9  1  0  0  0  0
  2 11  1  6  0  0  0
  2  1  1  0  0  0  0
  2  3  1  0  0  0  0
  3 12  1  0  0  0  0
  4 13  1  6  0  0  0
  4  6  1  0  0  0  0
  4  2  1  0  0  0  0
  5 15  1  0  0  0  0
  5  4  1  0  0  0  0
  6 16  1  0  0  0  0
  7  6  2  0  0  0  0
  8  1  1  0  0  0  0
 10  1  1  0  0  0  0
 14  5  1  0  0  0  0
 16 17  1  0  0  0  0
 16 20  1  0  0  0  0
 17 21  1  0  0  0  0
 17 18  1  0  0  0  0
 18 28  1  0  0  0  0
 18 19  2  0  0  0  0
 22 17  1  0  0  0  0
 23 24  1  0  0  0  0
 23 34  1  0  0  0  0
 24 25  1  0  0  0  0
 25 36  1  0  0  0  0
 25 26  1  0  0  0  0
 26 37  1  0  0  0  0
 26 27  1  0  0  0  0
 27 39  1  1  0  0  0
 27 29  1  0  0  0  0
 28 27  1  0  0  0  0
 29 30  2  0  0  0  0
 29 31  1  0  0  0  0
 32 23  1  0  0  0  0
 33 23  1  0  0  0  0
 35 25  1  0  0  0  0
 38 26  1  0  0  0  0
 40 28  1  0  0  0  0
M  END
$$$$
