TGN.pdb
 OpenBabel07022419123D

 37 36  0  0  1  0  0  0  0  0999 V2000
   -2.3690   -3.3430   -0.4500 C   0  0  0  0  0  0  0  0  0  0  0  0
   -1.4540   -4.4070    0.0900 C   0  0  1  0  0  0  0  0  0  0  0  0
   -1.0140   -5.2160   -0.9740 O   0  0  0  0  0  0  0  0  0  0  0  0
   -0.2850   -3.7730    0.8140 C   0  0  2  0  0  0  0  0  0  0  0  0
   -0.8210   -2.9660    1.8830 N   0  0  0  0  0  0  0  0  0  0  0  0
    0.5950   -3.0230   -0.0830 C   0  0  0  0  0  0  0  0  0  0  0  0
    1.1420   -3.5850   -1.0650 O   0  0  0  0  0  0  0  0  0  0  0  0
   -2.0430   -2.3170   -0.1420 H   0  0  0  0  0  0  0  0  0  0  0  0
   -3.4100   -3.4450   -0.0530 H   0  0  0  0  0  0  0  0  0  0  0  0
   -2.4300   -3.3310   -1.5560 H   0  0  0  0  0  0  0  0  0  0  0  0
   -2.0470   -5.0490    0.7720 H   0  0  0  0  0  0  0  0  0  0  0  0
   -1.7900   -5.3260   -1.5990 H   0  0  0  0  0  0  0  0  0  0  0  0
    0.2880   -4.6050    1.2870 H   0  0  0  0  0  0  0  0  0  0  0  0
   -1.3700   -3.6010    2.5030 H   0  0  0  0  0  0  0  0  0  0  0  0
   -0.0210   -2.5010    2.3980 H   0  0  0  0  0  0  0  0  0  0  0  0
    0.8810   -1.6280    0.1000 N   0  0  0  0  0  0  0  0  0  0  0  0
    1.7400   -0.9200   -0.7860 C   0  0  0  0  0  0  0  0  0  0  0  0
    1.9610    0.5040   -0.5010 C   0  0  0  0  0  0  0  0  0  0  0  0
    2.7390    1.1910   -1.2840 O   0  0  0  0  0  0  0  0  0  0  0  0
    0.4280   -1.1870    0.9040 H   0  0  0  0  0  0  0  0  0  0  0  0
    2.7380   -1.4620   -0.9020 H   0  0  0  0  0  0  0  0  0  0  0  0
    1.3010   -1.0470   -1.8270 H   0  0  0  0  0  0  0  0  0  0  0  0
   -0.6820    1.9880    2.5890 N   0  0  0  0  0  0  0  0  0  0  0  0
   -0.7210    2.9840    1.6090 C   0  0  0  0  0  0  0  0  0  0  0  0
   -1.8160    3.6350    1.4970 O   0  0  0  0  0  0  0  0  0  0  0  0
    0.3490    3.3740    0.6900 C   0  0  0  0  0  0  0  0  0  0  0  0
    1.6170    2.5920    0.8350 C   0  0  2  0  0  0  0  0  0  0  0  0
    1.3630    1.1600    0.5900 N   0  0  0  0  0  0  0  0  0  0  0  0
    2.2940    2.7970    2.1220 C   0  0  0  0  0  0  0  0  0  0  0  0
    2.6080    1.8410    2.8990 O   0  0  0  0  0  0  0  0  0  0  0  0
    2.6360    4.0650    2.5710 O   0  0  0  0  0  0  0  0  0  0  0  0
   -1.2610    1.1330    2.4740 H   0  0  0  0  0  0  0  0  0  0  0  0
   -0.0780    2.1060    3.4230 H   0  0  0  0  0  0  0  0  0  0  0  0
    0.5330    4.4520    0.8180 H   0  0  0  0  0  0  0  0  0  0  0  0
   -0.0460    3.2360   -0.3500 H   0  0  0  0  0  0  0  0  0  0  0  0
    2.3040    2.9140    0.0300 H   0  0  0  0  0  0  0  0  0  0  0  0
    0.7390    0.6510    1.2360 H   0  0  0  0  0  0  0  0  0  0  0  0
  1  8  1  0  0  0  0
  1  9  1  0  0  0  0
  1  2  1  0  0  0  0
  2 11  1  1  0  0  0
  2  4  1  0  0  0  0
  3  2  1  0  0  0  0
  4 13  1  1  0  0  0
  4  5  1  0  0  0  0
  5 15  1  0  0  0  0
  5 14  1  0  0  0  0
  6 16  1  0  0  0  0
  6  4  1  0  0  0  0
  7  6  2  0  0  0  0
 10  1  1  0  0  0  0
 12  3  1  0  0  0  0
 16 20  1  0  0  0  0
 17 18  1  0  0  0  0
 17 16  1  0  0  0  0
 18 28  1  0  0  0  0
 19 18  2  0  0  0  0
 21 17  1  0  0  0  0
 22 17  1  0  0  0  0
 23 33  1  0  0  0  0
 24 23  1  0  0  0  0
 25 24  2  0  0  0  0
 26 34  1  0  0  0  0
 26 27  1  0  0  0  0
 26 24  1  0  0  0  0
 27 36  1  6  0  0  0
 27 29  1  0  0  0  0
 28 27  1  0  0  0  0
 28 37  1  0  0  0  0
 29 31  2  0  0  0  0
 29 30  1  0  0  0  0
 32 23  1  0  0  0  0
 35 26  1  0  0  0  0
M  END
$$$$
