TGR.pdb
 OpenBabel07022419123D

 46 45  0  0  1  0  0  0  0  0999 V2000
    3.5520   -5.5600   -0.9400 C   0  0  0  0  0  0  0  0  0  0  0  0
    2.9230   -4.2220   -1.2220 C   0  0  1  0  0  0  0  0  0  0  0  0
    2.8980   -3.8830   -2.5560 O   0  0  0  0  0  0  0  0  0  0  0  0
    1.5200   -4.1920   -0.6800 C   0  0  2  0  0  0  0  0  0  0  0  0
    0.6720   -5.1210   -1.3820 N   0  0  0  0  0  0  0  0  0  0  0  0
    0.9370   -2.8260   -0.7960 C   0  0  0  0  0  0  0  0  0  0  0  0
   -0.1360   -2.6550   -1.4320 O   0  0  0  0  0  0  0  0  0  0  0  0
    3.1040   -6.0650   -0.0670 H   0  0  0  0  0  0  0  0  0  0  0  0
    4.6430   -5.4440   -0.7430 H   0  0  0  0  0  0  0  0  0  0  0  0
    3.4440   -6.1940   -1.8390 H   0  0  0  0  0  0  0  0  0  0  0  0
    3.5420   -3.4540   -0.6810 H   0  0  0  0  0  0  0  0  0  0  0  0
    3.8250   -4.0040   -2.9060 H   0  0  0  0  0  0  0  0  0  0  0  0
    1.5410   -4.5100    0.3910 H   0  0  0  0  0  0  0  0  0  0  0  0
    1.2870   -5.7260   -2.0030 H   0  0  0  0  0  0  0  0  0  0  0  0
    0.0160   -4.5890   -1.9890 H   0  0  0  0  0  0  0  0  0  0  0  0
    1.5440   -1.6870   -0.2130 N   0  0  0  0  0  0  0  0  0  0  0  0
    0.9540   -0.3740   -0.3410 C   0  0  0  0  0  0  0  0  0  0  0  0
   -0.3850   -0.3910    0.2680 C   0  0  0  0  0  0  0  0  0  0  0  0
   -0.8250   -1.4390    0.7840 O   0  0  0  0  0  0  0  0  0  0  0  0
    2.4340   -1.8220    0.3150 H   0  0  0  0  0  0  0  0  0  0  0  0
    0.8590   -0.1240   -1.4250 H   0  0  0  0  0  0  0  0  0  0  0  0
    1.5840    0.4040    0.1400 H   0  0  0  0  0  0  0  0  0  0  0  0
    1.5870    1.9540    4.8360 N   0  0  0  0  0  0  0  0  0  0  0  0
    0.4430    2.5670    4.2360 C   0  0  0  0  0  0  0  0  0  0  0  0
   -0.3890    3.1550    5.0030 N   0  0  0  0  0  0  0  0  0  0  0  0
    0.2270    2.5310    2.8370 N   0  0  0  0  0  0  0  0  0  0  0  0
   -0.7990    3.2670    2.1660 C   0  0  0  0  0  0  0  0  0  0  0  0
   -2.1810    2.7950    2.4690 C   0  0  0  0  0  0  0  0  0  0  0  0
   -2.5470    1.4100    2.1970 C   0  0  0  0  0  0  0  0  0  0  0  0
   -2.5110    0.8140    0.8600 C   0  0  2  0  0  0  0  0  0  0  0  0
   -1.2000    0.8060    0.2710 N   0  0  0  0  0  0  0  0  0  0  0  0
   -3.4950    1.3430   -0.0970 C   0  0  0  0  0  0  0  0  0  0  0  0
   -3.1100    1.7090   -1.2340 O   0  0  0  0  0  0  0  0  0  0  0  0
   -4.8410    1.4600    0.1910 O   0  0  0  0  0  0  0  0  0  0  0  0
    2.1680    2.5990    5.4430 H   0  0  0  0  0  0  0  0  0  0  0  0
    1.8380    0.9670    4.6980 H   0  0  0  0  0  0  0  0  0  0  0  0
   -0.2740    3.2080    6.0310 H   0  0  0  0  0  0  0  0  0  0  0  0
    0.8630    1.9260    2.2720 H   0  0  0  0  0  0  0  0  0  0  0  0
   -0.6860    4.3520    2.5660 H   0  0  0  0  0  0  0  0  0  0  0  0
   -0.6720    3.4110    1.0930 H   0  0  0  0  0  0  0  0  0  0  0  0
   -2.9540    3.5460    2.0990 H   0  0  0  0  0  0  0  0  0  0  0  0
   -2.2890    2.9330    3.6000 H   0  0  0  0  0  0  0  0  0  0  0  0
   -3.5880    1.2620    2.6620 H   0  0  0  0  0  0  0  0  0  0  0  0
   -1.9240    0.7700    2.9200 H   0  0  0  0  0  0  0  0  0  0  0  0
   -2.7550   -0.2990    1.0100 H   0  0  0  0  0  0  0  0  0  0  0  0
   -0.7390    1.6090   -0.2080 H   0  0  0  0  0  0  0  0  0  0  0  0
  1  9  1  0  0  0  0
  1  8  1  0  0  0  0
  2  1  1  0  0  0  0
  2 11  1  1  0  0  0
  2  4  1  0  0  0  0
  3  2  1  0  0  0  0
  4 13  1  1  0  0  0
  5  4  1  0  0  0  0
  6  4  1  0  0  0  0
  6 16  1  0  0  0  0
  7  6  2  0  0  0  0
 10  1  1  0  0  0  0
 12  3  1  0  0  0  0
 14  5  1  0  0  0  0
 15  5  1  0  0  0  0
 16 20  1  0  0  0  0
 17 16  1  0  0  0  0
 17 22  1  0  0  0  0
 17 18  1  0  0  0  0
 18 31  1  0  0  0  0
 18 19  2  0  0  0  0
 21 17  1  0  0  0  0
 23 35  1  0  0  0  0
 24 23  1  0  0  0  0
 24 25  2  0  0  0  0
 25 37  1  0  0  0  0
 26 24  1  0  0  0  0
 27 28  1  0  0  0  0
 27 39  1  0  0  0  0
 27 26  1  0  0  0  0
 28 42  1  0  0  0  0
 29 28  1  0  0  0  0
 29 43  1  0  0  0  0
 29 44  1  0  0  0  0
 30 45  1  1  0  0  0
 30 29  1  0  0  0  0
 31 30  1  0  0  0  0
 32 34  1  0  0  0  0
 32 30  1  0  0  0  0
 33 32  2  0  0  0  0
 36 23  1  0  0  0  0
 38 26  1  0  0  0  0
 40 27  1  0  0  0  0
 41 28  1  0  0  0  0
 46 31  1  0  0  0  0
M  END
$$$$
