TGS.pdb
 OpenBabel07022419123D

 34 33  0  0  1  0  0  0  0  0999 V2000
   -0.9900   -3.8580    3.2680 C   0  0  0  0  0  0  0  0  0  0  0  0
   -0.0510   -3.0860    2.3650 C   0  0  1  0  0  0  0  0  0  0  0  0
    1.2450   -3.2920    2.8200 O   0  0  0  0  0  0  0  0  0  0  0  0
   -0.1990   -3.5330    0.9260 C   0  0  2  0  0  0  0  0  0  0  0  0
    0.1160   -4.9350    0.8620 N   0  0  0  0  0  0  0  0  0  0  0  0
    0.6970   -2.8100    0.0170 C   0  0  0  0  0  0  0  0  0  0  0  0
    1.5800   -3.3840   -0.6810 O   0  0  0  0  0  0  0  0  0  0  0  0
   -2.0380   -3.7720    2.8690 H   0  0  0  0  0  0  0  0  0  0  0  0
   -0.6620   -4.8940    3.3970 H   0  0  0  0  0  0  0  0  0  0  0  0
   -0.9540   -3.3820    4.2780 H   0  0  0  0  0  0  0  0  0  0  0  0
   -0.2640   -2.0040    2.4120 H   0  0  0  0  0  0  0  0  0  0  0  0
    1.2730   -3.9440    3.5620 H   0  0  0  0  0  0  0  0  0  0  0  0
   -1.2750   -3.4170    0.6650 H   0  0  0  0  0  0  0  0  0  0  0  0
   -0.7280   -5.5180    0.5920 H   0  0  0  0  0  0  0  0  0  0  0  0
    0.5440   -5.3120    1.7360 H   0  0  0  0  0  0  0  0  0  0  0  0
    0.6300   -1.3760   -0.1450 N   0  0  0  0  0  0  0  0  0  0  0  0
    1.5120   -0.6820   -1.0380 C   0  0  0  0  0  0  0  0  0  0  0  0
    1.3100    0.7820   -1.0850 C   0  0  0  0  0  0  0  0  0  0  0  0
    2.0520    1.4980   -1.8570 O   0  0  0  0  0  0  0  0  0  0  0  0
   -0.0880   -0.9060    0.4220 H   0  0  0  0  0  0  0  0  0  0  0  0
    1.4840   -1.1390   -2.0530 H   0  0  0  0  0  0  0  0  0  0  0  0
    2.5490   -0.8290   -0.6250 H   0  0  0  0  0  0  0  0  0  0  0  0
   -1.2420    4.7050   -1.0850 O   0  0  0  0  0  0  0  0  0  0  0  0
   -1.1410    3.3290   -0.9750 C   0  0  0  0  0  0  0  0  0  0  0  0
    0.2450    2.9630   -0.4730 C   0  0  2  0  0  0  0  0  0  0  0  0
    0.3620    1.5230   -0.3540 N   0  0  0  0  0  0  0  0  0  0  0  0
    0.4420    3.6430    0.8290 C   0  0  0  0  0  0  0  0  0  0  0  0
    0.6800    3.0480    1.9060 O   0  0  0  0  0  0  0  0  0  0  0  0
    0.3520    5.0280    0.8380 O   0  0  0  0  0  0  0  0  0  0  0  0
   -1.7560    4.9030   -1.9080 H   0  0  0  0  0  0  0  0  0  0  0  0
   -1.2810    2.8190   -1.9570 H   0  0  0  0  0  0  0  0  0  0  0  0
   -1.8610    2.9720   -0.2260 H   0  0  0  0  0  0  0  0  0  0  0  0
    0.9710    3.3590   -1.1810 H   0  0  0  0  0  0  0  0  0  0  0  0
   -0.2830    1.0350    0.2950 H   0  0  0  0  0  0  0  0  0  0  0  0
  1  9  1  0  0  0  0
  1 10  1  0  0  0  0
  2 11  1  1  0  0  0
  2  3  1  0  0  0  0
  2  1  1  0  0  0  0
  3 12  1  0  0  0  0
  4 13  1  6  0  0  0
  4  2  1  0  0  0  0
  5  4  1  0  0  0  0
  5 15  1  0  0  0  0
  6  4  1  0  0  0  0
  7  6  2  0  0  0  0
  8  1  1  0  0  0  0
 14  5  1  0  0  0  0
 16  6  1  0  0  0  0
 16 20  1  0  0  0  0
 17 22  1  0  0  0  0
 17 16  1  0  0  0  0
 18 17  1  0  0  0  0
 18 26  1  0  0  0  0
 19 18  2  0  0  0  0
 21 17  1  0  0  0  0
 23 24  1  0  0  0  0
 24 25  1  0  0  0  0
 24 32  1  0  0  0  0
 25 33  1  6  0  0  0
 25 26  1  0  0  0  0
 25 27  1  0  0  0  0
 26 34  1  0  0  0  0
 27 29  2  0  0  0  0
 27 28  1  0  0  0  0
 30 23  1  0  0  0  0
 31 24  1  0  0  0  0
M  END
$$$$
