TGW.pdb
 OpenBabel07022419123D

 47 48  0  0  1  0  0  0  0  0999 V2000
    4.8460   -3.2360    4.3940 C   0  0  0  0  0  0  0  0  0  0  0  0
    4.3290   -3.2360    2.9560 C   0  0  1  0  0  0  0  0  0  0  0  0
    3.9860   -4.5540    2.6560 O   0  0  0  0  0  0  0  0  0  0  0  0
    3.0510   -2.4230    2.9420 C   0  0  2  0  0  0  0  0  0  0  0  0
    2.1200   -2.9310    3.9350 N   0  0  0  0  0  0  0  0  0  0  0  0
    2.3760   -2.4860    1.6270 C   0  0  0  0  0  0  0  0  0  0  0  0
    1.1480   -2.8140    1.5770 O   0  0  0  0  0  0  0  0  0  0  0  0
    4.6410   -4.1860    4.9100 H   0  0  0  0  0  0  0  0  0  0  0  0
    5.9180   -2.9940    4.4620 H   0  0  0  0  0  0  0  0  0  0  0  0
    4.3170   -2.4490    5.0060 H   0  0  0  0  0  0  0  0  0  0  0  0
    5.0920   -2.8040    2.3000 H   0  0  0  0  0  0  0  0  0  0  0  0
    3.9140   -5.1020    3.4840 H   0  0  0  0  0  0  0  0  0  0  0  0
    3.3320   -1.3950    3.2600 H   0  0  0  0  0  0  0  0  0  0  0  0
    1.9020   -3.9260    3.6250 H   0  0  0  0  0  0  0  0  0  0  0  0
    1.2100   -2.4230    3.8930 H   0  0  0  0  0  0  0  0  0  0  0  0
    2.9930   -2.2060    0.3770 N   0  0  0  0  0  0  0  0  0  0  0  0
    2.2940   -2.2760   -0.8850 C   0  0  0  0  0  0  0  0  0  0  0  0
    1.1830   -1.3210   -1.0330 C   0  0  0  0  0  0  0  0  0  0  0  0
    0.5210   -1.3720   -2.1170 O   0  0  0  0  0  0  0  0  0  0  0  0
    4.0040   -1.9410    0.4140 H   0  0  0  0  0  0  0  0  0  0  0  0
    1.8930   -3.3160   -1.0360 H   0  0  0  0  0  0  0  0  0  0  0  0
    3.0550   -2.1520   -1.7110 H   0  0  0  0  0  0  0  0  0  0  0  0
    0.7840   -0.3580   -0.0990 N   0  0  0  0  0  0  0  0  0  0  0  0
   -0.3470    0.5550   -0.3410 C   0  0  1  0  0  0  0  0  0  0  0  0
   -1.3740    0.4450    0.7500 C   0  0  0  0  0  0  0  0  0  0  0  0
   -2.5160    1.3780    0.4810 C   0  0  0  0  0  0  0  0  0  0  0  0
   -2.7770    2.5910    1.0630 C   0  0  0  0  0  0  0  0  0  0  0  0
   -3.8930    3.1000    0.5200 N   0  0  0  0  0  0  0  0  0  0  0  0
   -4.3700    2.2430   -0.4090 C   0  0  0  0  0  0  0  0  0  0  0  0
   -5.4940    2.3120   -1.2400 C   0  0  0  0  0  0  0  0  0  0  0  0
   -5.7560    1.2790   -2.1100 C   0  0  0  0  0  0  0  0  0  0  0  0
   -4.8950    0.1950   -2.1390 C   0  0  0  0  0  0  0  0  0  0  0  0
   -3.7920    0.1270   -1.3230 C   0  0  0  0  0  0  0  0  0  0  0  0
   -3.5190    1.1640   -0.4420 C   0  0  0  0  0  0  0  0  0  0  0  0
    0.1230    1.9280   -0.5470 C   0  0  0  0  0  0  0  0  0  0  0  0
    1.3430    2.1910   -0.4980 O   0  0  0  0  0  0  0  0  0  0  0  0
   -0.7740    2.9480   -0.7990 O   0  0  0  0  0  0  0  0  0  0  0  0
    1.2770   -0.2520    0.7900 H   0  0  0  0  0  0  0  0  0  0  0  0
   -0.8140    0.2060   -1.2880 H   0  0  0  0  0  0  0  0  0  0  0  0
   -0.8610    0.7380    1.6960 H   0  0  0  0  0  0  0  0  0  0  0  0
   -1.7550   -0.5800    0.8860 H   0  0  0  0  0  0  0  0  0  0  0  0
   -2.1630    3.0530    1.8440 H   0  0  0  0  0  0  0  0  0  0  0  0
   -4.3660    4.0220    0.7460 H   0  0  0  0  0  0  0  0  0  0  0  0
   -6.1390    3.1990   -1.1720 H   0  0  0  0  0  0  0  0  0  0  0  0
   -6.6240    1.3120   -2.7640 H   0  0  0  0  0  0  0  0  0  0  0  0
   -5.1420   -0.5940   -2.8390 H   0  0  0  0  0  0  0  0  0  0  0  0
   -3.1260   -0.7100   -1.3450 H   0  0  0  0  0  0  0  0  0  0  0  0
  1  9  1  0  0  0  0
  1  8  1  0  0  0  0
  1 10  1  0  0  0  0
  2 11  1  6  0  0  0
  2  1  1  0  0  0  0
  3  2  1  0  0  0  0
  3 12  1  0  0  0  0
  4  2  1  0  0  0  0
  4 13  1  1  0  0  0
  4  5  1  0  0  0  0
  6  4  1  0  0  0  0
  7  6  2  0  0  0  0
 14  5  1  0  0  0  0
 15  5  1  0  0  0  0
 16 20  1  0  0  0  0
 16  6  1  0  0  0  0
 17 16  1  0  0  0  0
 18 17  1  0  0  0  0
 18 23  1  0  0  0  0
 19 18  2  0  0  0  0
 21 17  1  0  0  0  0
 22 17  1  0  0  0  0
 23 38  1  0  0  0  0
 24 39  1  6  0  0  0
 24 23  1  0  0  0  0
 24 25  1  0  0  0  0
 25 41  1  0  0  0  0
 25 40  1  0  0  0  0
 26 25  1  0  0  0  0
 26 27  2  0  0  0  0
 27 42  1  0  0  0  0
 28 43  1  0  0  0  0
 28 27  1  0  0  0  0
 29 28  1  0  0  0  0
 30 44  1  0  0  0  0
 30 29  2  0  0  0  0
 31 30  1  0  0  0  0
 32 31  2  0  0  0  0
 32 33  1  0  0  0  0
 33 34  2  0  0  0  0
 34 29  1  0  0  0  0
 34 26  1  0  0  0  0
 35 36  1  0  0  0  0
 35 24  1  0  0  0  0
 37 35  2  0  0  0  0
 45 31  1  0  0  0  0
 46 32  1  0  0  0  0
 47 33  1  0  0  0  0
M  END
$$$$
