THC.pdb
 OpenBabel07022419123D

 44 44  0  0  1  0  0  0  0  0999 V2000
    0.3830   -3.5020    2.0060 C   0  0  0  0  0  0  0  0  0  0  0  0
    1.8880   -3.3660    1.9880 C   0  0  1  0  0  0  0  0  0  0  0  0
    2.4240   -4.6580    1.7450 O   0  0  0  0  0  0  0  0  0  0  0  0
    2.4160   -2.4730    0.9120 C   0  0  2  0  0  0  0  0  0  0  0  0
    3.8730   -2.4940    1.0030 N   0  0  0  0  0  0  0  0  0  0  0  0
    1.9970   -1.0450    1.0540 C   0  0  0  0  0  0  0  0  0  0  0  0
    2.8310   -0.1830    1.3920 O   0  0  0  0  0  0  0  0  0  0  0  0
   -0.0860   -2.6500    2.5140 H   0  0  0  0  0  0  0  0  0  0  0  0
   -0.0070   -3.7170    0.9930 H   0  0  0  0  0  0  0  0  0  0  0  0
    0.0940   -4.4040    2.6320 H   0  0  0  0  0  0  0  0  0  0  0  0
    2.2730   -3.0740    2.9750 H   0  0  0  0  0  0  0  0  0  0  0  0
    1.9510   -5.2770    2.3580 H   0  0  0  0  0  0  0  0  0  0  0  0
    2.1320   -2.8370   -0.0850 H   0  0  0  0  0  0  0  0  0  0  0  0
    4.2400   -1.6130    1.4310 H   0  0  0  0  0  0  0  0  0  0  0  0
    4.2910   -2.7270    0.0930 H   0  0  0  0  0  0  0  0  0  0  0  0
    0.6860   -0.6140    0.8200 N   0  0  0  0  0  0  0  0  0  0  0  0
    0.0520    0.6260    0.9080 C   0  0  1  0  0  0  0  0  0  0  0  0
    0.8280    1.8690    1.2220 C   0  0  0  0  0  0  0  0  0  0  0  0
    1.4140    1.8700    2.5790 C   0  0  0  0  0  0  0  0  0  0  0  0
    1.2490    0.9860    3.6230 C   0  0  0  0  0  0  0  0  0  0  0  0
    1.9070    1.3960    4.7210 N   0  0  0  0  0  0  0  0  0  0  0  0
    2.5040    2.5530    4.3910 C   0  0  0  0  0  0  0  0  0  0  0  0
    2.2130    2.8400    3.1130 N   0  0  0  0  0  0  0  0  0  0  0  0
   -1.0700    0.8710   -0.0000 C   0  0  0  0  0  0  0  0  0  0  0  0
   -1.6560    2.0010    0.1120 O   0  0  0  0  0  0  0  0  0  0  0  0
    0.0300   -1.4050    0.5030 H   0  0  0  0  0  0  0  0  0  0  0  0
   -0.4770    0.5260    1.9700 H   0  0  0  0  0  0  0  0  0  0  0  0
    1.5530    2.1580    0.4410 H   0  0  0  0  0  0  0  0  0  0  0  0
    0.0710    2.6980    1.2150 H   0  0  0  0  0  0  0  0  0  0  0  0
    0.6670    0.0740    3.5800 H   0  0  0  0  0  0  0  0  0  0  0  0
    1.9580    0.9200    5.6660 H   0  0  0  0  0  0  0  0  0  0  0  0
    3.1080    3.1060    5.0990 H   0  0  0  0  0  0  0  0  0  0  0  0
   -1.5670   -0.0150   -0.9870 N   0  0  0  0  0  0  0  0  0  0  0  0
   -2.6900    0.3130   -1.8460 C   0  0  1  0  0  0  0  0  0  0  0  0
   -2.2990    0.3570   -3.3070 C   0  0  0  0  0  0  0  0  0  0  0  0
   -1.0190    1.6040   -3.5910 S   0  0  0  0  0  0  0  0  0  0  0  0
   -3.7780   -0.6380   -1.5840 C   0  0  0  0  0  0  0  0  0  0  0  0
   -4.8510   -0.5450   -2.2150 O   0  0  0  0  0  0  0  0  0  0  0  0
   -3.6230   -1.6320   -0.6460 O   0  0  0  0  0  0  0  0  0  0  0  0
   -1.0880   -0.9380   -1.0840 H   0  0  0  0  0  0  0  0  0  0  0  0
   -3.0490    1.3380   -1.5800 H   0  0  0  0  0  0  0  0  0  0  0  0
   -3.2010    0.6760   -3.8660 H   0  0  0  0  0  0  0  0  0  0  0  0
   -1.9980   -0.6290   -3.6950 H   0  0  0  0  0  0  0  0  0  0  0  0
   -1.5570    2.7560   -4.2240 H   0  0  0  0  0  0  0  0  0  0  0  0
  1  8  1  0  0  0  0
  1 10  1  0  0  0  0
  2  1  1  0  0  0  0
  2 11  1  1  0  0  0
  3  2  1  0  0  0  0
  3 12  1  0  0  0  0
  4 13  1  6  0  0  0
  4  5  1  0  0  0  0
  4  6  1  0  0  0  0
  4  2  1  0  0  0  0
  5 14  1  0  0  0  0
  6  7  2  0  0  0  0
  9  1  1  0  0  0  0
 15  5  1  0  0  0  0
 16 17  1  0  0  0  0
 16  6  1  0  0  0  0
 17 18  1  0  0  0  0
 17 27  1  1  0  0  0
 18 19  1  0  0  0  0
 19 23  1  0  0  0  0
 19 20  2  0  0  0  0
 20 21  1  0  0  0  0
 21 31  1  0  0  0  0
 22 21  1  0  0  0  0
 22 32  1  0  0  0  0
 23 22  2  0  0  0  0
 24 25  2  0  0  0  0
 24 17  1  0  0  0  0
 26 16  1  0  0  0  0
 28 18  1  0  0  0  0
 29 18  1  0  0  0  0
 30 20  1  0  0  0  0
 33 24  1  0  0  0  0
 34 37  1  0  0  0  0
 34 41  1  1  0  0  0
 34 33  1  0  0  0  0
 35 34  1  0  0  0  0
 36 35  1  0  0  0  0
 37 39  1  0  0  0  0
 38 37  2  0  0  0  0
 40 33  1  0  0  0  0
 42 35  1  0  0  0  0
 43 35  1  0  0  0  0
 44 36  1  0  0  0  0
M  END
$$$$
