THE.pdb
 OpenBabel07022419123D

 49 49  0  0  1  0  0  0  0  0999 V2000
    1.8630   -4.8540    2.1620 C   0  0  0  0  0  0  0  0  0  0  0  0
    1.0520   -3.6310    1.8330 C   0  0  1  0  0  0  0  0  0  0  0  0
   -0.0050   -3.9950    0.9890 O   0  0  0  0  0  0  0  0  0  0  0  0
    0.5110   -3.0690    3.1180 C   0  0  2  0  0  0  0  0  0  0  0  0
   -0.3090   -4.0010    3.8420 N   0  0  0  0  0  0  0  0  0  0  0  0
   -0.2390   -1.8010    2.9400 C   0  0  0  0  0  0  0  0  0  0  0  0
   -1.4270   -1.6710    3.3960 O   0  0  0  0  0  0  0  0  0  0  0  0
    2.0030   -4.9560    3.2610 H   0  0  0  0  0  0  0  0  0  0  0  0
    2.9000   -4.7690    1.7250 H   0  0  0  0  0  0  0  0  0  0  0  0
    1.3650   -5.7670    1.7410 H   0  0  0  0  0  0  0  0  0  0  0  0
    1.7120   -2.8880    1.3760 H   0  0  0  0  0  0  0  0  0  0  0  0
    0.4480   -4.3030    0.1400 H   0  0  0  0  0  0  0  0  0  0  0  0
    1.3990   -2.8100    3.7590 H   0  0  0  0  0  0  0  0  0  0  0  0
   -1.0580   -3.4790    4.3280 H   0  0  0  0  0  0  0  0  0  0  0  0
   -0.7190   -4.7030    3.1890 H   0  0  0  0  0  0  0  0  0  0  0  0
    0.2680   -0.6570    2.2740 N   0  0  0  0  0  0  0  0  0  0  0  0
   -0.4720    0.5680    2.1090 C   0  0  1  0  0  0  0  0  0  0  0  0
    0.2170    1.7080    2.7840 C   0  0  0  0  0  0  0  0  0  0  0  0
    1.5800    1.9530    2.2510 C   0  0  0  0  0  0  0  0  0  0  0  0
    1.9000    2.7870    1.2060 C   0  0  0  0  0  0  0  0  0  0  0  0
    3.2340    2.7280    1.0400 N   0  0  0  0  0  0  0  0  0  0  0  0
    3.7510    1.8840    1.9470 C   0  0  0  0  0  0  0  0  0  0  0  0
    2.7370    1.4210    2.6760 N   0  0  0  0  0  0  0  0  0  0  0  0
   -0.7830    0.8400    0.6700 C   0  0  0  0  0  0  0  0  0  0  0  0
   -1.4330    1.8620    0.3600 O   0  0  0  0  0  0  0  0  0  0  0  0
    1.2300   -0.7100    1.8840 H   0  0  0  0  0  0  0  0  0  0  0  0
   -1.4550    0.4220    2.6020 H   0  0  0  0  0  0  0  0  0  0  0  0
   -0.3660    2.6650    2.7060 H   0  0  0  0  0  0  0  0  0  0  0  0
    0.2570    1.4960    3.8760 H   0  0  0  0  0  0  0  0  0  0  0  0
    1.2650    3.4040    0.5870 H   0  0  0  0  0  0  0  0  0  0  0  0
    3.8090    3.2500    0.3190 H   0  0  0  0  0  0  0  0  0  0  0  0
    4.8170    1.6650    2.0180 H   0  0  0  0  0  0  0  0  0  0  0  0
   -0.3790   -0.0030   -0.3690 N   0  0  0  0  0  0  0  0  0  0  0  0
   -0.5570    0.0110   -1.7560 C   0  0  1  0  0  0  0  0  0  0  0  0
   -1.3710    0.9860   -2.4740 C   0  0  0  0  0  0  0  0  0  0  0  0
   -2.8370    0.9710   -2.2070 C   0  0  0  0  0  0  0  0  0  0  0  0
   -3.4520   -0.3270   -2.6730 C   0  0  0  0  0  0  0  0  0  0  0  0
   -2.8760   -1.2200   -3.2920 O   0  0  0  0  0  0  0  0  0  0  0  0
    0.7170   -0.2690   -2.4500 C   0  0  0  0  0  0  0  0  0  0  0  0
    0.7160   -0.2940   -3.7070 O   0  0  0  0  0  0  0  0  0  0  0  0
   -4.8140   -0.5450   -2.3740 O   0  0  0  0  0  0  0  0  0  0  0  0
    1.9150   -0.5070   -1.7930 O   0  0  0  0  0  0  0  0  0  0  0  0
    0.2010   -0.8580   -0.0220 H   0  0  0  0  0  0  0  0  0  0  0  0
   -1.1860   -0.9860   -1.9210 H   0  0  0  0  0  0  0  0  0  0  0  0
   -1.2910    0.7000   -3.5790 H   0  0  0  0  0  0  0  0  0  0  0  0
   -0.9510    2.0250   -2.4990 H   0  0  0  0  0  0  0  0  0  0  0  0
   -3.1900    1.0760   -1.1920 H   0  0  0  0  0  0  0  0  0  0  0  0
   -3.3360    1.7320   -2.8940 H   0  0  0  0  0  0  0  0  0  0  0  0
   -5.2670   -1.4220   -2.4640 H   0  0  0  0  0  0  0  0  0  0  0  0
  1  8  1  0  0  0  0
  2 11  1  6  0  0  0
  2  1  1  0  0  0  0
  2  4  1  0  0  0  0
  3  2  1  0  0  0  0
  4 13  1  1  0  0  0
  4  5  1  0  0  0  0
  5 14  1  0  0  0  0
  6  4  1  0  0  0  0
  6  7  2  0  0  0  0
  9  1  1  0  0  0  0
 10  1  1  0  0  0  0
 12  3  1  0  0  0  0
 15  5  1  0  0  0  0
 16  6  1  0  0  0  0
 17 16  1  0  0  0  0
 17 27  1  1  0  0  0
 17 18  1  0  0  0  0
 18 29  1  0  0  0  0
 19 23  1  0  0  0  0
 19 18  1  0  0  0  0
 20 19  2  0  0  0  0
 21 20  1  0  0  0  0
 21 22  1  0  0  0  0
 22 32  1  0  0  0  0
 22 23  2  0  0  0  0
 24 17  1  0  0  0  0
 25 24  2  0  0  0  0
 26 16  1  0  0  0  0
 28 18  1  0  0  0  0
 30 20  1  0  0  0  0
 31 21  1  0  0  0  0
 33 43  1  0  0  0  0
 33 24  1  0  0  0  0
 34 44  1  6  0  0  0
 34 33  1  0  0  0  0
 35 36  1  0  0  0  0
 35 34  1  0  0  0  0
 36 47  1  0  0  0  0
 37 41  1  0  0  0  0
 37 36  1  0  0  0  0
 38 37  2  0  0  0  0
 39 42  1  0  0  0  0
 39 34  1  0  0  0  0
 40 39  2  0  0  0  0
 45 35  1  0  0  0  0
 46 35  1  0  0  0  0
 48 36  1  0  0  0  0
 49 41  1  0  0  0  0
M  END
$$$$
