THF.pdb
 OpenBabel07022419123D

 53 54  0  0  1  0  0  0  0  0999 V2000
    0.4100   -1.6910    4.9060 C   0  0  0  0  0  0  0  0  0  0  0  0
    1.6340   -2.3650    4.3410 C   0  0  1  0  0  0  0  0  0  0  0  0
    1.3960   -3.0860    3.1990 O   0  0  0  0  0  0  0  0  0  0  0  0
    2.7540   -1.3780    4.0910 C   0  0  2  0  0  0  0  0  0  0  0  0
    3.0320   -0.5970    5.2960 N   0  0  0  0  0  0  0  0  0  0  0  0
    2.5190   -0.4680    2.9710 C   0  0  0  0  0  0  0  0  0  0  0  0
    2.5340    0.7880    3.1760 O   0  0  0  0  0  0  0  0  0  0  0  0
    0.5070   -1.5830    6.0240 H   0  0  0  0  0  0  0  0  0  0  0  0
    0.3150   -0.6570    4.5210 H   0  0  0  0  0  0  0  0  0  0  0  0
   -0.4680   -2.3190    4.7150 H   0  0  0  0  0  0  0  0  0  0  0  0
    2.0050   -3.0800    5.1120 H   0  0  0  0  0  0  0  0  0  0  0  0
    0.6730   -3.7310    3.2470 H   0  0  0  0  0  0  0  0  0  0  0  0
    3.6670   -1.9830    3.8650 H   0  0  0  0  0  0  0  0  0  0  0  0
    3.8250   -1.0060    5.8540 H   0  0  0  0  0  0  0  0  0  0  0  0
    3.3490    0.3690    4.9890 H   0  0  0  0  0  0  0  0  0  0  0  0
    2.2670   -0.8500    1.6270 N   0  0  0  0  0  0  0  0  0  0  0  0
    2.0390    0.1000    0.5440 C   0  0  1  0  0  0  0  0  0  0  0  0
    3.1500    0.0750   -0.4480 C   0  0  0  0  0  0  0  0  0  0  0  0
    2.9480    1.0350   -1.5550 C   0  0  0  0  0  0  0  0  0  0  0  0
    2.3830    0.8600   -2.7950 C   0  0  0  0  0  0  0  0  0  0  0  0
    2.4430    1.9890   -3.4830 N   0  0  0  0  0  0  0  0  0  0  0  0
    3.0430    2.9070   -2.7070 C   0  0  0  0  0  0  0  0  0  0  0  0
    3.3530    2.3450   -1.5420 N   0  0  0  0  0  0  0  0  0  0  0  0
    0.7440   -0.1440   -0.1210 C   0  0  0  0  0  0  0  0  0  0  0  0
    0.3390    0.5770   -1.0650 O   0  0  0  0  0  0  0  0  0  0  0  0
    2.2500   -1.8700    1.4150 H   0  0  0  0  0  0  0  0  0  0  0  0
    2.0830    1.1160    1.0370 H   0  0  0  0  0  0  0  0  0  0  0  0
    3.1040   -0.9480   -0.9330 H   0  0  0  0  0  0  0  0  0  0  0  0
    4.1520    0.2270    0.0160 H   0  0  0  0  0  0  0  0  0  0  0  0
    1.9500   -0.0720   -3.1730 H   0  0  0  0  0  0  0  0  0  0  0  0
    2.0850    2.1470   -4.4700 H   0  0  0  0  0  0  0  0  0  0  0  0
    3.2170    3.9380   -3.0480 H   0  0  0  0  0  0  0  0  0  0  0  0
   -0.1170   -1.2150    0.2780 N   0  0  0  0  0  0  0  0  0  0  0  0
   -1.3850   -1.5080   -0.3320 C   0  0  1  0  0  0  0  0  0  0  0  0
   -2.4440   -0.5950    0.1580 C   0  0  0  0  0  0  0  0  0  0  0  0
   -3.7540   -0.8800   -0.4590 C   0  0  0  0  0  0  0  0  0  0  0  0
   -4.2010   -0.2450   -1.5960 C   0  0  0  0  0  0  0  0  0  0  0  0
   -5.4270   -0.5290   -2.1620 C   0  0  0  0  0  0  0  0  0  0  0  0
   -6.2720   -1.4700   -1.6120 C   0  0  0  0  0  0  0  0  0  0  0  0
   -5.8330   -2.1170   -0.4670 C   0  0  0  0  0  0  0  0  0  0  0  0
   -4.6140   -1.8300    0.0900 C   0  0  0  0  0  0  0  0  0  0  0  0
   -1.3070   -1.6770   -1.8050 C   0  0  0  0  0  0  0  0  0  0  0  0
   -0.1830   -1.5710   -2.3770 O   0  0  0  0  0  0  0  0  0  0  0  0
   -2.3770   -1.9470   -2.6220 O   0  0  0  0  0  0  0  0  0  0  0  0
    0.2490   -1.7900    1.0730 H   0  0  0  0  0  0  0  0  0  0  0  0
   -1.6460   -2.5600    0.0370 H   0  0  0  0  0  0  0  0  0  0  0  0
   -2.5520   -0.7770    1.2690 H   0  0  0  0  0  0  0  0  0  0  0  0
   -2.1720    0.4810    0.0960 H   0  0  0  0  0  0  0  0  0  0  0  0
   -3.5660    0.5160   -2.0790 H   0  0  0  0  0  0  0  0  0  0  0  0
   -5.7860   -0.0240   -3.0680 H   0  0  0  0  0  0  0  0  0  0  0  0
   -7.2400   -1.7080   -2.0390 H   0  0  0  0  0  0  0  0  0  0  0  0
   -6.4930   -2.8700   -0.0160 H   0  0  0  0  0  0  0  0  0  0  0  0
   -4.3110   -2.3590    0.9860 H   0  0  0  0  0  0  0  0  0  0  0  0
  1  8  1  0  0  0  0
  2  1  1  0  0  0  0
  2 11  1  1  0  0  0
  3 12  1  0  0  0  0
  3  2  1  0  0  0  0
  4 13  1  6  0  0  0
  4  2  1  0  0  0  0
  4  5  1  0  0  0  0
  5 14  1  0  0  0  0
  6  7  2  0  0  0  0
  6  4  1  0  0  0  0
  9  1  1  0  0  0  0
 10  1  1  0  0  0  0
 15  5  1  0  0  0  0
 16  6  1  0  0  0  0
 17 27  1  1  0  0  0
 17 16  1  0  0  0  0
 18 29  1  0  0  0  0
 18 17  1  0  0  0  0
 19 23  1  0  0  0  0
 19 18  1  0  0  0  0
 20 19  2  0  0  0  0
 21 20  1  0  0  0  0
 21 22  1  0  0  0  0
 22 23  2  0  0  0  0
 24 33  1  0  0  0  0
 24 17  1  0  0  0  0
 25 24  2  0  0  0  0
 26 16  1  0  0  0  0
 28 18  1  0  0  0  0
 30 20  1  0  0  0  0
 31 21  1  0  0  0  0
 32 22  1  0  0  0  0
 33 45  1  0  0  0  0
 34 46  1  1  0  0  0
 34 35  1  0  0  0  0
 34 33  1  0  0  0  0
 35 47  1  0  0  0  0
 36 41  1  0  0  0  0
 36 35  1  0  0  0  0
 37 36  2  0  0  0  0
 38 39  2  0  0  0  0
 38 37  1  0  0  0  0
 39 40  1  0  0  0  0
 40 52  1  0  0  0  0
 40 41  2  0  0  0  0
 41 53  1  0  0  0  0
 42 34  1  0  0  0  0
 43 42  1  0  0  0  0
 44 42  2  0  0  0  0
 48 35  1  0  0  0  0
 49 37  1  0  0  0  0
 50 38  1  0  0  0  0
 51 39  1  0  0  0  0
M  END
$$$$
