THH.pdb
 OpenBabel07022419123D

 50 51  0  0  1  0  0  0  0  0999 V2000
    1.2840   -4.1650    0.9090 C   0  0  0  0  0  0  0  0  0  0  0  0
    2.0230   -3.3250   -0.1020 C   0  0  1  0  0  0  0  0  0  0  0  0
    1.1440   -2.6250   -0.9120 O   0  0  0  0  0  0  0  0  0  0  0  0
    3.0380   -2.4110    0.5320 C   0  0  2  0  0  0  0  0  0  0  0  0
    3.9560   -3.1520    1.3740 N   0  0  0  0  0  0  0  0  0  0  0  0
    2.4850   -1.2900    1.2890 C   0  0  0  0  0  0  0  0  0  0  0  0
    2.8310   -1.1180    2.5100 O   0  0  0  0  0  0  0  0  0  0  0  0
    0.1940   -4.2130    0.6780 H   0  0  0  0  0  0  0  0  0  0  0  0
    1.3850   -3.7630    1.9390 H   0  0  0  0  0  0  0  0  0  0  0  0
    1.6350   -5.2160    0.9440 H   0  0  0  0  0  0  0  0  0  0  0  0
    2.5840   -4.0190   -0.7620 H   0  0  0  0  0  0  0  0  0  0  0  0
    1.2690   -2.8270   -1.8820 H   0  0  0  0  0  0  0  0  0  0  0  0
    3.6490   -1.9830   -0.3050 H   0  0  0  0  0  0  0  0  0  0  0  0
    4.9450   -2.7820    1.2680 H   0  0  0  0  0  0  0  0  0  0  0  0
    3.9720   -4.1450    1.0440 H   0  0  0  0  0  0  0  0  0  0  0  0
    1.5640   -0.3190    0.8120 N   0  0  0  0  0  0  0  0  0  0  0  0
    1.0760    0.7650    1.6550 C   0  0  1  0  0  0  0  0  0  0  0  0
    1.4450    2.1120    1.0490 C   0  0  0  0  0  0  0  0  0  0  0  0
    0.9850    3.2610    1.8500 C   0  0  0  0  0  0  0  0  0  0  0  0
    1.6760    3.9120    2.8790 C   0  0  0  0  0  0  0  0  0  0  0  0
    0.9280    4.9130    3.3660 N   0  0  0  0  0  0  0  0  0  0  0  0
   -0.2240    4.9220    2.6770 C   0  0  0  0  0  0  0  0  0  0  0  0
   -0.1820    3.9230    1.7640 N   0  0  0  0  0  0  0  0  0  0  0  0
   -0.4000    0.7090    1.7260 C   0  0  0  0  0  0  0  0  0  0  0  0
   -1.0750    1.5150    2.4280 O   0  0  0  0  0  0  0  0  0  0  0  0
    1.2530   -0.4170   -0.1760 H   0  0  0  0  0  0  0  0  0  0  0  0
    1.5110    0.7000    2.6770 H   0  0  0  0  0  0  0  0  0  0  0  0
    2.5750    2.1160    1.0310 H   0  0  0  0  0  0  0  0  0  0  0  0
    1.1460    2.1730   -0.0110 H   0  0  0  0  0  0  0  0  0  0  0  0
    2.6520    3.6490    3.2230 H   0  0  0  0  0  0  0  0  0  0  0  0
    1.2200    5.5550    4.1450 H   0  0  0  0  0  0  0  0  0  0  0  0
   -1.0100    5.6390    2.8740 H   0  0  0  0  0  0  0  0  0  0  0  0
   -1.0970   -0.2740    0.9880 N   0  0  0  0  0  0  0  0  0  0  0  0
   -2.5650   -0.3740    1.0250 C   0  0  1  0  0  0  0  0  0  0  0  0
   -3.0840   -0.1830   -0.3620 C   0  0  0  0  0  0  0  0  0  0  0  0
   -2.6080   -1.1600   -1.3380 C   0  0  0  0  0  0  0  0  0  0  0  0
   -3.1610   -2.3690   -1.6910 C   0  0  0  0  0  0  0  0  0  0  0  0
   -2.4140   -2.9630   -2.6320 N   0  0  0  0  0  0  0  0  0  0  0  0
   -1.3730   -2.1450   -2.8940 C   0  0  0  0  0  0  0  0  0  0  0  0
   -1.4980   -1.0580   -2.1080 N   0  0  0  0  0  0  0  0  0  0  0  0
   -2.8840   -1.7470    1.4790 C   0  0  0  0  0  0  0  0  0  0  0  0
   -1.9940   -2.5780    1.7500 O   0  0  0  0  0  0  0  0  0  0  0  0
   -4.2070   -2.1790    1.6250 O   0  0  0  0  0  0  0  0  0  0  0  0
   -0.6220   -0.9760    0.3830 H   0  0  0  0  0  0  0  0  0  0  0  0
   -2.9850    0.3790    1.7240 H   0  0  0  0  0  0  0  0  0  0  0  0
   -2.8830    0.8360   -0.7530 H   0  0  0  0  0  0  0  0  0  0  0  0
   -4.2070   -0.2650   -0.3150 H   0  0  0  0  0  0  0  0  0  0  0  0
   -4.0620   -2.7850   -1.2790 H   0  0  0  0  0  0  0  0  0  0  0  0
   -2.5740   -3.8830   -3.0970 H   0  0  0  0  0  0  0  0  0  0  0  0
   -0.6110   -2.3770   -3.6150 H   0  0  0  0  0  0  0  0  0  0  0  0
  1 10  1  0  0  0  0
  1  9  1  0  0  0  0
  2 11  1  6  0  0  0
  2  4  1  0  0  0  0
  2  1  1  0  0  0  0
  3  2  1  0  0  0  0
  4 13  1  6  0  0  0
  4  6  1  0  0  0  0
  4  5  1  0  0  0  0
  6  7  2  0  0  0  0
  8  1  1  0  0  0  0
 12  3  1  0  0  0  0
 14  5  1  0  0  0  0
 15  5  1  0  0  0  0
 16  6  1  0  0  0  0
 16 17  1  0  0  0  0
 17 24  1  0  0  0  0
 17 27  1  1  0  0  0
 18 17  1  0  0  0  0
 18 19  1  0  0  0  0
 19 20  2  0  0  0  0
 20 30  1  0  0  0  0
 20 21  1  0  0  0  0
 21 31  1  0  0  0  0
 22 32  1  0  0  0  0
 22 21  1  0  0  0  0
 23 19  1  0  0  0  0
 23 22  2  0  0  0  0
 24 25  2  0  0  0  0
 26 16  1  0  0  0  0
 28 18  1  0  0  0  0
 29 18  1  0  0  0  0
 33 34  1  0  0  0  0
 33 24  1  0  0  0  0
 34 41  1  0  0  0  0
 34 45  1  1  0  0  0
 35 47  1  0  0  0  0
 35 34  1  0  0  0  0
 36 35  1  0  0  0  0
 37 36  2  0  0  0  0
 37 48  1  0  0  0  0
 38 37  1  0  0  0  0
 39 38  1  0  0  0  0
 39 40  2  0  0  0  0
 40 36  1  0  0  0  0
 41 43  2  0  0  0  0
 41 42  1  0  0  0  0
 44 33  1  0  0  0  0
 46 35  1  0  0  0  0
 49 38  1  0  0  0  0
 50 39  1  0  0  0  0
M  END
$$$$
