THL.pdb
 OpenBabel07022419123D

 52 52  0  0  1  0  0  0  0  0999 V2000
    3.6440   -4.6550    2.6980 C   0  0  0  0  0  0  0  0  0  0  0  0
    3.7810   -3.8380    1.4330 C   0  0  1  0  0  0  0  0  0  0  0  0
    4.3690   -4.6440    0.4620 O   0  0  0  0  0  0  0  0  0  0  0  0
    2.4520   -3.3830    0.9010 C   0  0  2  0  0  0  0  0  0  0  0  0
    2.6850   -2.6400   -0.3180 N   0  0  0  0  0  0  0  0  0  0  0  0
    1.6580   -2.6160    1.8820 C   0  0  0  0  0  0  0  0  0  0  0  0
    1.3740   -3.1300    2.9920 O   0  0  0  0  0  0  0  0  0  0  0  0
    4.4690   -5.3970    2.7020 H   0  0  0  0  0  0  0  0  0  0  0  0
    3.7380   -4.0550    3.6160 H   0  0  0  0  0  0  0  0  0  0  0  0
    2.6920   -5.2560    2.6890 H   0  0  0  0  0  0  0  0  0  0  0  0
    4.4540   -3.0000    1.6440 H   0  0  0  0  0  0  0  0  0  0  0  0
    3.8680   -4.6240   -0.3910 H   0  0  0  0  0  0  0  0  0  0  0  0
    1.8880   -4.2990    0.6080 H   0  0  0  0  0  0  0  0  0  0  0  0
    3.7200   -2.5920   -0.5550 H   0  0  0  0  0  0  0  0  0  0  0  0
    2.2290   -3.0710   -1.1540 H   0  0  0  0  0  0  0  0  0  0  0  0
    1.1870   -1.2970    1.6320 N   0  0  0  0  0  0  0  0  0  0  0  0
    0.4220   -0.6130    2.6320 C   0  0  1  0  0  0  0  0  0  0  0  0
    1.0980    0.6480    3.1230 C   0  0  0  0  0  0  0  0  0  0  0  0
    1.3230    1.6190    2.0330 C   0  0  0  0  0  0  0  0  0  0  0  0
    0.4430    2.6070    1.6410 C   0  0  0  0  0  0  0  0  0  0  0  0
    0.9820    3.2970    0.6220 N   0  0  0  0  0  0  0  0  0  0  0  0
    2.1890    2.7780    0.3460 C   0  0  0  0  0  0  0  0  0  0  0  0
    2.3750    1.7660    1.2090 N   0  0  0  0  0  0  0  0  0  0  0  0
   -0.9350   -0.3450    2.1160 C   0  0  0  0  0  0  0  0  0  0  0  0
   -1.7880    0.2460    2.8130 O   0  0  0  0  0  0  0  0  0  0  0  0
    1.3950   -0.8210    0.7230 H   0  0  0  0  0  0  0  0  0  0  0  0
    0.2770   -1.2490    3.5550 H   0  0  0  0  0  0  0  0  0  0  0  0
    2.0280    0.3440    3.6280 H   0  0  0  0  0  0  0  0  0  0  0  0
    0.4400    1.0830    3.8960 H   0  0  0  0  0  0  0  0  0  0  0  0
   -0.5360    2.8060    2.0810 H   0  0  0  0  0  0  0  0  0  0  0  0
    0.5470    4.1150    0.1070 H   0  0  0  0  0  0  0  0  0  0  0  0
    2.8810    3.1250   -0.4390 H   0  0  0  0  0  0  0  0  0  0  0  0
   -3.1990    1.5390   -2.9210 C   0  0  0  0  0  0  0  0  0  0  0  0
   -3.6220    0.6830   -1.7330 C   0  0  0  0  0  0  0  0  0  0  0  0
   -4.5420    1.4930   -0.8680 C   0  0  0  0  0  0  0  0  0  0  0  0
   -2.3750    0.3280   -0.9910 C   0  0  0  0  0  0  0  0  0  0  0  0
   -2.6050   -0.5280    0.2340 C   0  0  2  0  0  0  0  0  0  0  0  0
   -1.2810   -0.7590    0.8110 N   0  0  0  0  0  0  0  0  0  0  0  0
   -3.1910   -1.8360   -0.1140 C   0  0  0  0  0  0  0  0  0  0  0  0
   -4.3270   -1.9300   -0.6150 O   0  0  0  0  0  0  0  0  0  0  0  0
   -2.4680   -2.9900    0.1190 O   0  0  0  0  0  0  0  0  0  0  0  0
   -3.8850    1.3660   -3.7660 H   0  0  0  0  0  0  0  0  0  0  0  0
   -3.1760    2.5950   -2.6100 H   0  0  0  0  0  0  0  0  0  0  0  0
   -2.1860    1.2240   -3.2310 H   0  0  0  0  0  0  0  0  0  0  0  0
   -4.1600   -0.1900   -2.1400 H   0  0  0  0  0  0  0  0  0  0  0  0
   -5.2930    0.7990   -0.4080 H   0  0  0  0  0  0  0  0  0  0  0  0
   -4.0180    2.0430   -0.0670 H   0  0  0  0  0  0  0  0  0  0  0  0
   -5.1190    2.2050   -1.4910 H   0  0  0  0  0  0  0  0  0  0  0  0
   -1.6550   -0.1190   -1.6800 H   0  0  0  0  0  0  0  0  0  0  0  0
   -1.9170    1.2910   -0.6450 H   0  0  0  0  0  0  0  0  0  0  0  0
   -3.2050    0.0010    1.0000 H   0  0  0  0  0  0  0  0  0  0  0  0
   -0.6010   -1.2620    0.1790 H   0  0  0  0  0  0  0  0  0  0  0  0
  1  8  1  0  0  0  0
  1  9  1  0  0  0  0
  2 11  1  1  0  0  0
  2  1  1  0  0  0  0
  3  2  1  0  0  0  0
  4 13  1  6  0  0  0
  4  2  1  0  0  0  0
  4  6  1  0  0  0  0
  5  4  1  0  0  0  0
  6  7  2  0  0  0  0
 10  1  1  0  0  0  0
 12  3  1  0  0  0  0
 14  5  1  0  0  0  0
 15  5  1  0  0  0  0
 16  6  1  0  0  0  0
 16 17  1  0  0  0  0
 17 18  1  0  0  0  0
 17 27  1  1  0  0  0
 18 28  1  0  0  0  0
 18 29  1  0  0  0  0
 19 18  1  0  0  0  0
 20 19  2  0  0  0  0
 20 30  1  0  0  0  0
 21 20  1  0  0  0  0
 22 21  1  0  0  0  0
 22 23  2  0  0  0  0
 23 19  1  0  0  0  0
 24 17  1  0  0  0  0
 24 25  2  0  0  0  0
 26 16  1  0  0  0  0
 31 21  1  0  0  0  0
 32 22  1  0  0  0  0
 33 43  1  0  0  0  0
 33 34  1  0  0  0  0
 34 36  1  0  0  0  0
 34 35  1  0  0  0  0
 35 46  1  0  0  0  0
 35 47  1  0  0  0  0
 36 50  1  0  0  0  0
 36 37  1  0  0  0  0
 37 38  1  0  0  0  0
 37 51  1  1  0  0  0
 38 24  1  0  0  0  0
 39 41  1  0  0  0  0
 39 37  1  0  0  0  0
 40 39  2  0  0  0  0
 42 33  1  0  0  0  0
 44 33  1  0  0  0  0
 45 34  1  0  0  0  0
 48 35  1  0  0  0  0
 49 36  1  0  0  0  0
 52 38  1  0  0  0  0
M  END
$$$$
