THM.pdb
 OpenBabel07022419123D

 50 50  0  0  1  0  0  0  0  0999 V2000
    4.0500   -2.8360    3.0430 C   0  0  0  0  0  0  0  0  0  0  0  0
    3.5930   -3.7320    1.9310 C   0  0  1  0  0  0  0  0  0  0  0  0
    2.7850   -4.7500    2.4330 O   0  0  0  0  0  0  0  0  0  0  0  0
    2.9050   -2.9750    0.8170 C   0  0  2  0  0  0  0  0  0  0  0  0
    3.7480   -1.9170    0.2960 N   0  0  0  0  0  0  0  0  0  0  0  0
    1.5870   -2.4560    1.2120 C   0  0  0  0  0  0  0  0  0  0  0  0
    0.7270   -3.2340    1.6860 O   0  0  0  0  0  0  0  0  0  0  0  0
    4.3290   -3.5090    3.9010 H   0  0  0  0  0  0  0  0  0  0  0  0
    4.9630   -2.2790    2.7770 H   0  0  0  0  0  0  0  0  0  0  0  0
    3.2370   -2.1980    3.4220 H   0  0  0  0  0  0  0  0  0  0  0  0
    4.4910   -4.2260    1.5070 H   0  0  0  0  0  0  0  0  0  0  0  0
    2.4020   -4.5020    3.2980 H   0  0  0  0  0  0  0  0  0  0  0  0
    2.7910   -3.7130   -0.0260 H   0  0  0  0  0  0  0  0  0  0  0  0
    3.3320   -1.5990   -0.6170 H   0  0  0  0  0  0  0  0  0  0  0  0
    4.6780   -2.3630    0.0880 H   0  0  0  0  0  0  0  0  0  0  0  0
    1.2490   -1.0900    1.0770 N   0  0  0  0  0  0  0  0  0  0  0  0
   -0.0620   -0.6410    1.4830 C   0  0  1  0  0  0  0  0  0  0  0  0
    0.0360    0.3030    2.6680 C   0  0  0  0  0  0  0  0  0  0  0  0
    0.8430    1.5010    2.3910 C   0  0  0  0  0  0  0  0  0  0  0  0
    0.4090    2.7080    1.8950 C   0  0  0  0  0  0  0  0  0  0  0  0
    1.4630    3.5690    1.7820 N   0  0  0  0  0  0  0  0  0  0  0  0
    2.5530    2.9060    2.2050 C   0  0  0  0  0  0  0  0  0  0  0  0
    2.1870    1.6660    2.5710 N   0  0  0  0  0  0  0  0  0  0  0  0
   -0.8390   -0.0820    0.3530 C   0  0  0  0  0  0  0  0  0  0  0  0
   -0.3110    0.0130   -0.7970 O   0  0  0  0  0  0  0  0  0  0  0  0
    1.9350   -0.3790    0.6820 H   0  0  0  0  0  0  0  0  0  0  0  0
   -0.6300   -1.5220    1.8660 H   0  0  0  0  0  0  0  0  0  0  0  0
    0.4530   -0.3050    3.5060 H   0  0  0  0  0  0  0  0  0  0  0  0
   -1.0020    0.5510    2.9660 H   0  0  0  0  0  0  0  0  0  0  0  0
   -0.5790    3.0240    1.6120 H   0  0  0  0  0  0  0  0  0  0  0  0
    1.4350    4.5520    1.4350 H   0  0  0  0  0  0  0  0  0  0  0  0
    3.5580    3.3440    2.2300 H   0  0  0  0  0  0  0  0  0  0  0  0
   -2.0500   -3.0290   -3.0970 C   0  0  0  0  0  0  0  0  0  0  0  0
   -2.6490   -1.3860   -2.6910 S   0  0  0  0  0  0  0  0  0  0  0  0
   -3.6460   -1.3680   -1.1930 C   0  0  0  0  0  0  0  0  0  0  0  0
   -4.1550   -0.0140   -0.8360 C   0  0  0  0  0  0  0  0  0  0  0  0
   -2.9610    0.9050   -0.5990 C   0  0  2  0  0  0  0  0  0  0  0  0
   -2.1790    0.3650    0.4840 N   0  0  0  0  0  0  0  0  0  0  0  0
   -3.4170    2.2950   -0.3450 C   0  0  0  0  0  0  0  0  0  0  0  0
   -3.1460    2.8930    0.7200 O   0  0  0  0  0  0  0  0  0  0  0  0
   -4.1550    2.9430   -1.3040 O   0  0  0  0  0  0  0  0  0  0  0  0
   -2.7930   -3.6650   -3.5980 H   0  0  0  0  0  0  0  0  0  0  0  0
   -1.8030   -3.5420   -2.1290 H   0  0  0  0  0  0  0  0  0  0  0  0
   -1.0810   -2.9960   -3.6680 H   0  0  0  0  0  0  0  0  0  0  0  0
   -4.4810   -2.0920   -1.3290 H   0  0  0  0  0  0  0  0  0  0  0  0
   -2.9710   -1.7000   -0.3510 H   0  0  0  0  0  0  0  0  0  0  0  0
   -4.8040    0.3640   -1.6410 H   0  0  0  0  0  0  0  0  0  0  0  0
   -4.6810   -0.0850    0.1320 H   0  0  0  0  0  0  0  0  0  0  0  0
   -2.3700    0.9030   -1.5350 H   0  0  0  0  0  0  0  0  0  0  0  0
   -2.6280    0.2940    1.4470 H   0  0  0  0  0  0  0  0  0  0  0  0
  1 10  1  0  0  0  0
  1  8  1  0  0  0  0
  2 11  1  6  0  0  0
  2  3  1  0  0  0  0
  2  1  1  0  0  0  0
  3 12  1  0  0  0  0
  4 13  1  6  0  0  0
  4  6  1  0  0  0  0
  4  2  1  0  0  0  0
  5  4  1  0  0  0  0
  6  7  2  0  0  0  0
  9  1  1  0  0  0  0
 14  5  1  0  0  0  0
 15  5  1  0  0  0  0
 16  6  1  0  0  0  0
 16 17  1  0  0  0  0
 17 27  1  1  0  0  0
 17 18  1  0  0  0  0
 18 29  1  0  0  0  0
 18 28  1  0  0  0  0
 19 23  1  0  0  0  0
 19 18  1  0  0  0  0
 20 19  2  0  0  0  0
 21 20  1  0  0  0  0
 21 22  1  0  0  0  0
 22 32  1  0  0  0  0
 22 23  2  0  0  0  0
 24 38  1  0  0  0  0
 24 17  1  0  0  0  0
 25 24  2  0  0  0  0
 26 16  1  0  0  0  0
 30 20  1  0  0  0  0
 31 21  1  0  0  0  0
 33 34  1  0  0  0  0
 33 43  1  0  0  0  0
 34 35  1  0  0  0  0
 35 36  1  0  0  0  0
 35 46  1  0  0  0  0
 36 37  1  0  0  0  0
 36 48  1  0  0  0  0
 37 49  1  6  0  0  0
 37 39  1  0  0  0  0
 37 38  1  0  0  0  0
 38 50  1  0  0  0  0
 39 40  1  0  0  0  0
 41 39  2  0  0  0  0
 42 33  1  0  0  0  0
 44 33  1  0  0  0  0
 45 35  1  0  0  0  0
 47 36  1  0  0  0  0
M  END
$$$$
