THR.pdb
 OpenBabel07022419123D

 56 56  0  0  1  0  0  0  0  0999 V2000
    0.3490    2.5660    3.9850 C   0  0  0  0  0  0  0  0  0  0  0  0
    0.2180    1.2030    4.6590 C   0  0  1  0  0  0  0  0  0  0  0  0
   -1.1320    0.8580    4.6960 O   0  0  0  0  0  0  0  0  0  0  0  0
    1.0190    0.1550    3.9200 C   0  0  2  0  0  0  0  0  0  0  0  0
    2.4070    0.4920    3.8750 N   0  0  0  0  0  0  0  0  0  0  0  0
    0.5260   -0.0550    2.5210 C   0  0  0  0  0  0  0  0  0  0  0  0
   -0.7100   -0.2880    2.3130 O   0  0  0  0  0  0  0  0  0  0  0  0
   -0.3590    2.6190    3.1060 H   0  0  0  0  0  0  0  0  0  0  0  0
    1.3790    2.7850    3.6680 H   0  0  0  0  0  0  0  0  0  0  0  0
    0.0080    3.3680    4.6630 H   0  0  0  0  0  0  0  0  0  0  0  0
    0.6700    1.2940    5.6650 H   0  0  0  0  0  0  0  0  0  0  0  0
   -1.7000    1.5420    4.2340 H   0  0  0  0  0  0  0  0  0  0  0  0
    0.8590   -0.8060    4.4710 H   0  0  0  0  0  0  0  0  0  0  0  0
    2.6760    1.2550    4.5600 H   0  0  0  0  0  0  0  0  0  0  0  0
    2.9700   -0.3810    4.0170 H   0  0  0  0  0  0  0  0  0  0  0  0
    1.3660   -0.0110    1.3880 N   0  0  0  0  0  0  0  0  0  0  0  0
    0.8400   -0.2230    0.0640 C   0  0  1  0  0  0  0  0  0  0  0  0
    1.1900    0.8930   -0.8520 C   0  0  0  0  0  0  0  0  0  0  0  0
    0.6290    2.1590   -0.3270 C   0  0  0  0  0  0  0  0  0  0  0  0
   -0.6410    2.6410   -0.6530 C   0  0  0  0  0  0  0  0  0  0  0  0
   -0.8380    3.8110   -0.0140 N   0  0  0  0  0  0  0  0  0  0  0  0
    0.2570    4.0790    0.6970 C   0  0  0  0  0  0  0  0  0  0  0  0
    1.1480    3.0760    0.5070 N   0  0  0  0  0  0  0  0  0  0  0  0
    1.2320   -1.5530   -0.4770 C   0  0  0  0  0  0  0  0  0  0  0  0
    1.9510   -2.2750    0.2470 O   0  0  0  0  0  0  0  0  0  0  0  0
    2.3980    0.1780    1.5080 H   0  0  0  0  0  0  0  0  0  0  0  0
   -0.2800   -0.2820    0.1580 H   0  0  0  0  0  0  0  0  0  0  0  0
    0.8840    0.7400   -1.8960 H   0  0  0  0  0  0  0  0  0  0  0  0
    2.3110    1.0110   -0.8130 H   0  0  0  0  0  0  0  0  0  0  0  0
   -1.3320    2.1380   -1.3120 H   0  0  0  0  0  0  0  0  0  0  0  0
   -1.7050    4.3900   -0.0800 H   0  0  0  0  0  0  0  0  0  0  0  0
    0.3930    4.9550    1.3160 H   0  0  0  0  0  0  0  0  0  0  0  0
   -4.8660   -3.4620    0.7880 N   0  0  0  0  0  0  0  0  0  0  0  0
   -3.9080   -3.0720   -0.1850 C   0  0  0  0  0  0  0  0  0  0  0  0
   -3.8750   -1.8420   -0.6260 N   0  0  0  0  0  0  0  0  0  0  0  0
   -2.9520   -3.9670   -0.7260 N   0  0  0  0  0  0  0  0  0  0  0  0
   -1.8160   -3.4520   -1.5210 C   0  0  0  0  0  0  0  0  0  0  0  0
   -0.9480   -4.5720   -1.9800 C   0  0  0  0  0  0  0  0  0  0  0  0
    0.2320   -4.1940   -2.8100 C   0  0  0  0  0  0  0  0  0  0  0  0
    1.2570   -3.3250   -2.1960 C   0  0  2  0  0  0  0  0  0  0  0  0
    0.8340   -2.0240   -1.7480 N   0  0  0  0  0  0  0  0  0  0  0  0
    2.4440   -3.1760   -3.1370 C   0  0  0  0  0  0  0  0  0  0  0  0
    2.9510   -4.2130   -3.6310 O   0  0  0  0  0  0  0  0  0  0  0  0
    2.9800   -1.9600   -3.4670 O   0  0  0  0  0  0  0  0  0  0  0  0
   -5.3090   -4.4080    0.8220 H   0  0  0  0  0  0  0  0  0  0  0  0
   -5.1790   -2.7860    1.5420 H   0  0  0  0  0  0  0  0  0  0  0  0
   -4.5610   -1.1340   -0.2600 H   0  0  0  0  0  0  0  0  0  0  0  0
   -3.0500   -4.9850   -0.5640 H   0  0  0  0  0  0  0  0  0  0  0  0
   -1.2870   -2.6810   -0.9580 H   0  0  0  0  0  0  0  0  0  0  0  0
   -2.3050   -2.9500   -2.3870 H   0  0  0  0  0  0  0  0  0  0  0  0
   -0.5360   -5.1520   -1.0970 H   0  0  0  0  0  0  0  0  0  0  0  0
   -1.5640   -5.3110   -2.5490 H   0  0  0  0  0  0  0  0  0  0  0  0
    0.7550   -5.1750   -3.0650 H   0  0  0  0  0  0  0  0  0  0  0  0
   -0.0960   -3.8150   -3.8290 H   0  0  0  0  0  0  0  0  0  0  0  0
    1.7220   -3.8800   -1.3250 H   0  0  0  0  0  0  0  0  0  0  0  0
    0.2340   -1.4120   -2.3400 H   0  0  0  0  0  0  0  0  0  0  0  0
  1  2  1  0  0  0  0
  1 10  1  0  0  0  0
  2  3  1  0  0  0  0
  2 11  1  1  0  0  0
  4 13  1  1  0  0  0
  4  2  1  0  0  0  0
  5  4  1  0  0  0  0
  5 15  1  0  0  0  0
  5 14  1  0  0  0  0
  6  4  1  0  0  0  0
  7  6  2  0  0  0  0
  8  1  1  0  0  0  0
  9  1  1  0  0  0  0
 12  3  1  0  0  0  0
 16 26  1  0  0  0  0
 16  6  1  0  0  0  0
 17 27  1  1  0  0  0
 17 16  1  0  0  0  0
 18 29  1  0  0  0  0
 18 19  1  0  0  0  0
 18 17  1  0  0  0  0
 19 23  1  0  0  0  0
 20 19  2  0  0  0  0
 20 21  1  0  0  0  0
 21 22  1  0  0  0  0
 22 32  1  0  0  0  0
 23 22  2  0  0  0  0
 24 17  1  0  0  0  0
 24 25  2  0  0  0  0
 28 18  1  0  0  0  0
 30 20  1  0  0  0  0
 31 21  1  0  0  0  0
 33 45  1  0  0  0  0
 33 46  1  0  0  0  0
 34 33  1  0  0  0  0
 35 47  1  0  0  0  0
 35 34  2  0  0  0  0
 36 48  1  0  0  0  0
 36 34  1  0  0  0  0
 37 49  1  0  0  0  0
 37 36  1  0  0  0  0
 38 37  1  0  0  0  0
 38 51  1  0  0  0  0
 39 40  1  0  0  0  0
 39 38  1  0  0  0  0
 40 41  1  0  0  0  0
 40 55  1  1  0  0  0
 41 24  1  0  0  0  0
 42 40  1  0  0  0  0
 43 42  2  0  0  0  0
 44 42  1  0  0  0  0
 50 37  1  0  0  0  0
 52 38  1  0  0  0  0
 53 39  1  0  0  0  0
 54 39  1  0  0  0  0
 56 41  1  0  0  0  0
M  END
$$$$
