THV.pdb
 OpenBabel07022419123D

 49 49  0  0  1  0  0  0  0  0999 V2000
    0.8970   -3.9630    1.4840 C   0  0  0  0  0  0  0  0  0  0  0  0
    1.5340   -3.2710    2.6910 C   0  0  1  0  0  0  0  0  0  0  0  0
    2.1820   -4.3510    3.3760 O   0  0  0  0  0  0  0  0  0  0  0  0
    2.6510   -2.3980    2.2250 C   0  0  2  0  0  0  0  0  0  0  0  0
    3.4030   -1.9740    3.4340 N   0  0  0  0  0  0  0  0  0  0  0  0
    2.3180   -1.1930    1.4900 C   0  0  0  0  0  0  0  0  0  0  0  0
    2.6450   -0.0480    1.9740 O   0  0  0  0  0  0  0  0  0  0  0  0
    1.6590   -4.1020    0.6870 H   0  0  0  0  0  0  0  0  0  0  0  0
    0.6180   -5.0260    1.7630 H   0  0  0  0  0  0  0  0  0  0  0  0
    0.0600   -3.4000    1.0960 H   0  0  0  0  0  0  0  0  0  0  0  0
    0.8120   -2.8180    3.3680 H   0  0  0  0  0  0  0  0  0  0  0  0
    2.7150   -4.8780    2.7190 H   0  0  0  0  0  0  0  0  0  0  0  0
    3.3690   -3.0760    1.6960 H   0  0  0  0  0  0  0  0  0  0  0  0
    4.3750   -1.7720    3.1040 H   0  0  0  0  0  0  0  0  0  0  0  0
    3.0120   -1.0550    3.7250 H   0  0  0  0  0  0  0  0  0  0  0  0
    1.6570   -1.0880    0.2490 N   0  0  0  0  0  0  0  0  0  0  0  0
    1.3620    0.1480   -0.4570 C   0  0  1  0  0  0  0  0  0  0  0  0
    1.8370    0.2090   -1.8550 C   0  0  0  0  0  0  0  0  0  0  0  0
    1.5980    1.5350   -2.4740 C   0  0  0  0  0  0  0  0  0  0  0  0
    1.1620    2.7250   -2.0030 C   0  0  0  0  0  0  0  0  0  0  0  0
    1.2170    3.5980   -3.0480 N   0  0  0  0  0  0  0  0  0  0  0  0
    1.6730    2.9870   -4.1410 C   0  0  0  0  0  0  0  0  0  0  0  0
    1.9040    1.7290   -3.7890 N   0  0  0  0  0  0  0  0  0  0  0  0
   -0.1440    0.3570   -0.4090 C   0  0  0  0  0  0  0  0  0  0  0  0
   -0.7520    0.9410   -1.3160 O   0  0  0  0  0  0  0  0  0  0  0  0
    1.3510   -1.9530   -0.2270 H   0  0  0  0  0  0  0  0  0  0  0  0
    1.7810    1.0370    0.1000 H   0  0  0  0  0  0  0  0  0  0  0  0
    1.3630   -0.5390   -2.5540 H   0  0  0  0  0  0  0  0  0  0  0  0
    2.9560    0.0900   -1.8610 H   0  0  0  0  0  0  0  0  0  0  0  0
    0.8480    2.9500   -0.9870 H   0  0  0  0  0  0  0  0  0  0  0  0
    0.9440    4.6010   -2.9870 H   0  0  0  0  0  0  0  0  0  0  0  0
    1.8420    3.3670   -5.1460 H   0  0  0  0  0  0  0  0  0  0  0  0
   -3.0900   -2.3410    0.8510 C   0  0  0  0  0  0  0  0  0  0  0  0
   -3.1670   -0.9560    1.3930 C   0  0  0  0  0  0  0  0  0  0  0  0
   -2.9110   -0.9400    2.8940 C   0  0  0  0  0  0  0  0  0  0  0  0
   -2.3630    0.0930    0.7360 C   0  0  2  0  0  0  0  0  0  0  0  0
   -0.9300   -0.1080    0.6950 N   0  0  0  0  0  0  0  0  0  0  0  0
   -2.5880    1.4230    1.4310 C   0  0  0  0  0  0  0  0  0  0  0  0
   -1.6330    2.1520    1.7680 O   0  0  0  0  0  0  0  0  0  0  0  0
   -3.8690    1.8270    1.6950 O   0  0  0  0  0  0  0  0  0  0  0  0
   -3.0100   -2.4320   -0.2330 H   0  0  0  0  0  0  0  0  0  0  0  0
   -2.2480   -2.9310    1.3040 H   0  0  0  0  0  0  0  0  0  0  0  0
   -4.0100   -2.9360    1.1420 H   0  0  0  0  0  0  0  0  0  0  0  0
   -4.2610   -0.6440    1.2230 H   0  0  0  0  0  0  0  0  0  0  0  0
   -3.8250   -1.3090    3.4060 H   0  0  0  0  0  0  0  0  0  0  0  0
   -2.0070   -1.5370    3.0810 H   0  0  0  0  0  0  0  0  0  0  0  0
   -2.7250    0.1440    3.1420 H   0  0  0  0  0  0  0  0  0  0  0  0
   -2.6920    0.2730   -0.2990 H   0  0  0  0  0  0  0  0  0  0  0  0
   -0.4570   -0.5900    1.4790 H   0  0  0  0  0  0  0  0  0  0  0  0
  1  9  1  0  0  0  0
  1  2  1  0  0  0  0
  2 11  1  1  0  0  0
  2  3  1  0  0  0  0
  4 13  1  6  0  0  0
  4  2  1  0  0  0  0
  4  5  1  0  0  0  0
  5 15  1  0  0  0  0
  6  7  2  0  0  0  0
  6  4  1  0  0  0  0
  8  1  1  0  0  0  0
 10  1  1  0  0  0  0
 12  3  1  0  0  0  0
 14  5  1  0  0  0  0
 16  6  1  0  0  0  0
 17 24  1  0  0  0  0
 17 27  1  1  0  0  0
 17 16  1  0  0  0  0
 18 17  1  0  0  0  0
 19 20  2  0  0  0  0
 19 18  1  0  0  0  0
 20 30  1  0  0  0  0
 21 31  1  0  0  0  0
 21 20  1  0  0  0  0
 22 23  2  0  0  0  0
 22 21  1  0  0  0  0
 23 19  1  0  0  0  0
 24 37  1  0  0  0  0
 25 24  2  0  0  0  0
 26 16  1  0  0  0  0
 28 18  1  0  0  0  0
 29 18  1  0  0  0  0
 32 22  1  0  0  0  0
 33 43  1  0  0  0  0
 33 42  1  0  0  0  0
 33 34  1  0  0  0  0
 34 35  1  0  0  0  0
 35 46  1  0  0  0  0
 35 47  1  0  0  0  0
 35 45  1  0  0  0  0
 36 48  1  6  0  0  0
 36 34  1  0  0  0  0
 36 38  1  0  0  0  0
 37 36  1  0  0  0  0
 37 49  1  0  0  0  0
 38 40  2  0  0  0  0
 38 39  1  0  0  0  0
 41 33  1  0  0  0  0
 44 34  1  0  0  0  0
M  END
$$$$
