TIA.pdb
 OpenBabel07022419123D

 45 44  0  0  1  0  0  0  0  0999 V2000
    0.9490   -3.7180    0.2730 C   0  0  0  0  0  0  0  0  0  0  0  0
    0.7340   -3.9690    1.7210 C   0  0  1  0  0  0  0  0  0  0  0  0
    1.4170   -5.1780    2.0200 O   0  0  0  0  0  0  0  0  0  0  0  0
    1.3600   -2.9490    2.6500 C   0  0  2  0  0  0  0  0  0  0  0  0
    1.0840   -3.5220    3.9930 N   0  0  0  0  0  0  0  0  0  0  0  0
    0.7060   -1.6200    2.6050 C   0  0  0  0  0  0  0  0  0  0  0  0
   -0.0580   -1.2370    3.5550 O   0  0  0  0  0  0  0  0  0  0  0  0
    1.8590   -3.1470    0.0880 H   0  0  0  0  0  0  0  0  0  0  0  0
    0.0210   -3.2880   -0.1570 H   0  0  0  0  0  0  0  0  0  0  0  0
    1.0580   -4.7260   -0.2330 H   0  0  0  0  0  0  0  0  0  0  0  0
   -0.3220   -4.0660    1.9900 H   0  0  0  0  0  0  0  0  0  0  0  0
    1.1810   -5.7820    1.2480 H   0  0  0  0  0  0  0  0  0  0  0  0
    2.4570   -2.9040    2.5750 H   0  0  0  0  0  0  0  0  0  0  0  0
    1.8010   -3.2320    4.6720 H   0  0  0  0  0  0  0  0  0  0  0  0
    0.1200   -3.2050    4.2370 H   0  0  0  0  0  0  0  0  0  0  0  0
   -0.4640    3.1890    2.8690 C   0  0  0  0  0  0  0  0  0  0  0  0
    0.5970    3.0940    1.7720 C   0  0  0  0  0  0  0  0  0  0  0  0
    1.2090    1.7180    1.7200 C   0  0  2  0  0  0  0  0  0  0  0  0
    2.2460    1.6710    0.6280 C   0  0  0  0  0  0  0  0  0  0  0  0
    0.1900    0.6110    1.5780 C   0  0  2  0  0  0  0  0  0  0  0  0
    0.8670   -0.6880    1.5460 N   0  0  0  0  0  0  0  0  0  0  0  0
   -0.6280    0.8220    0.3760 C   0  0  0  0  0  0  0  0  0  0  0  0
   -1.3550    1.8300    0.1990 O   0  0  0  0  0  0  0  0  0  0  0  0
   -0.4060    2.3310    3.5750 H   0  0  0  0  0  0  0  0  0  0  0  0
   -1.4560    3.3710    2.4530 H   0  0  0  0  0  0  0  0  0  0  0  0
   -0.2510    4.0880    3.5220 H   0  0  0  0  0  0  0  0  0  0  0  0
    0.1630    3.4290    0.8210 H   0  0  0  0  0  0  0  0  0  0  0  0
    1.3880    3.8650    2.0060 H   0  0  0  0  0  0  0  0  0  0  0  0
    1.7620    1.5850    2.6900 H   0  0  0  0  0  0  0  0  0  0  0  0
    1.8180    1.5130   -0.3740 H   0  0  0  0  0  0  0  0  0  0  0  0
    2.9830    0.8880    0.8930 H   0  0  0  0  0  0  0  0  0  0  0  0
    2.8130    2.6440    0.6910 H   0  0  0  0  0  0  0  0  0  0  0  0
   -0.4630    0.6360    2.4640 H   0  0  0  0  0  0  0  0  0  0  0  0
    1.4630   -0.8890    0.7210 H   0  0  0  0  0  0  0  0  0  0  0  0
   -0.5340   -0.0040   -3.0890 C   0  0  0  0  0  0  0  0  0  0  0  0
   -1.4600    0.0710   -1.8910 C   0  0  2  0  0  0  0  0  0  0  0  0
   -0.6540   -0.1300   -0.7030 N   0  0  0  0  0  0  0  0  0  0  0  0
   -2.4020   -1.0920   -2.0100 C   0  0  0  0  0  0  0  0  0  0  0  0
   -2.3990   -2.0220   -1.1620 O   0  0  0  0  0  0  0  0  0  0  0  0
   -3.3080   -1.1840   -3.0550 O   0  0  0  0  0  0  0  0  0  0  0  0
   -1.0260    0.4060   -3.9990 H   0  0  0  0  0  0  0  0  0  0  0  0
   -0.3610   -1.0880   -3.2970 H   0  0  0  0  0  0  0  0  0  0  0  0
    0.4200    0.5330   -2.8860 H   0  0  0  0  0  0  0  0  0  0  0  0
   -2.0280    1.0200   -1.8510 H   0  0  0  0  0  0  0  0  0  0  0  0
   -0.0770   -0.9730   -0.6190 H   0  0  0  0  0  0  0  0  0  0  0  0
  1  2  1  0  0  0  0
  2 11  1  1  0  0  0
  2  3  1  0  0  0  0
  2  4  1  0  0  0  0
  4 13  1  6  0  0  0
  4  5  1  0  0  0  0
  5 15  1  0  0  0  0
  5 14  1  0  0  0  0
  6  4  1  0  0  0  0
  6  7  2  0  0  0  0
  8  1  1  0  0  0  0
  9  1  1  0  0  0  0
 10  1  1  0  0  0  0
 12  3  1  0  0  0  0
 16 26  1  0  0  0  0
 16 24  1  0  0  0  0
 17 28  1  0  0  0  0
 17 16  1  0  0  0  0
 18 17  1  0  0  0  0
 18 29  1  1  0  0  0
 19 32  1  0  0  0  0
 19 31  1  0  0  0  0
 19 18  1  0  0  0  0
 20 18  1  0  0  0  0
 20 33  1  1  0  0  0
 21 20  1  0  0  0  0
 21  6  1  0  0  0  0
 22 20  1  0  0  0  0
 23 22  2  0  0  0  0
 25 16  1  0  0  0  0
 27 17  1  0  0  0  0
 30 19  1  0  0  0  0
 34 21  1  0  0  0  0
 35 43  1  0  0  0  0
 35 36  1  0  0  0  0
 36 44  1  1  0  0  0
 36 37  1  0  0  0  0
 37 45  1  0  0  0  0
 37 22  1  0  0  0  0
 38 36  1  0  0  0  0
 38 39  1  0  0  0  0
 40 38  2  0  0  0  0
 41 35  1  0  0  0  0
 42 35  1  0  0  0  0
M  END
$$$$
