TIC.pdb
 OpenBabel07022419123D

 46 45  0  0  1  0  0  0  0  0999 V2000
    0.4990   -5.1170    1.0920 C   0  0  0  0  0  0  0  0  0  0  0  0
    0.2560   -3.6340    1.2800 C   0  0  1  0  0  0  0  0  0  0  0  0
   -0.4280   -3.4740    2.4820 O   0  0  0  0  0  0  0  0  0  0  0  0
    1.6100   -2.9700    1.3920 C   0  0  2  0  0  0  0  0  0  0  0  0
    2.3140   -3.6210    2.4780 N   0  0  0  0  0  0  0  0  0  0  0  0
    1.5300   -1.5360    1.6650 C   0  0  0  0  0  0  0  0  0  0  0  0
    2.0360   -1.0670    2.7190 O   0  0  0  0  0  0  0  0  0  0  0  0
    0.3660   -5.3420   -0.0070 H   0  0  0  0  0  0  0  0  0  0  0  0
    1.5320   -5.4170    1.3870 H   0  0  0  0  0  0  0  0  0  0  0  0
   -0.2440   -5.6910    1.6810 H   0  0  0  0  0  0  0  0  0  0  0  0
   -0.3370   -3.2320    0.4450 H   0  0  0  0  0  0  0  0  0  0  0  0
   -1.3990   -3.5460    2.2840 H   0  0  0  0  0  0  0  0  0  0  0  0
    2.1690   -3.1980    0.4510 H   0  0  0  0  0  0  0  0  0  0  0  0
    3.0710   -3.0090    2.8520 H   0  0  0  0  0  0  0  0  0  0  0  0
    1.6210   -3.8290    3.2280 H   0  0  0  0  0  0  0  0  0  0  0  0
    3.2910    2.2010   -1.4550 C   0  0  0  0  0  0  0  0  0  0  0  0
    2.8480    1.3050   -0.3250 C   0  0  0  0  0  0  0  0  0  0  0  0
    1.4150    1.6480   -0.0090 C   0  0  2  0  0  0  0  0  0  0  0  0
    1.3590    3.1010    0.3970 C   0  0  0  0  0  0  0  0  0  0  0  0
    0.8500    0.8020    1.1150 C   0  0  2  0  0  0  0  0  0  0  0  0
    0.8870   -0.6070    0.7710 N   0  0  0  0  0  0  0  0  0  0  0  0
   -0.5880    1.2060    1.2560 C   0  0  0  0  0  0  0  0  0  0  0  0
   -0.9090    2.3850    1.5530 O   0  0  0  0  0  0  0  0  0  0  0  0
    3.6940    1.6140   -2.2870 H   0  0  0  0  0  0  0  0  0  0  0  0
    4.0230    2.9570   -1.0640 H   0  0  0  0  0  0  0  0  0  0  0  0
    2.4450    2.8110   -1.8640 H   0  0  0  0  0  0  0  0  0  0  0  0
    3.4410    1.5330    0.5990 H   0  0  0  0  0  0  0  0  0  0  0  0
    2.9910    0.2560   -0.6300 H   0  0  0  0  0  0  0  0  0  0  0  0
    0.8030    1.4410   -0.9220 H   0  0  0  0  0  0  0  0  0  0  0  0
    0.4910    3.5870   -0.0760 H   0  0  0  0  0  0  0  0  0  0  0  0
    2.2630    3.6660    0.0270 H   0  0  0  0  0  0  0  0  0  0  0  0
    1.3780    3.2200    1.4980 H   0  0  0  0  0  0  0  0  0  0  0  0
    1.3460    0.9920    2.0680 H   0  0  0  0  0  0  0  0  0  0  0  0
    0.4740   -0.9860   -0.0870 H   0  0  0  0  0  0  0  0  0  0  0  0
   -1.6550    0.2830    1.0640 N   0  0  0  0  0  0  0  0  0  0  0  0
   -3.0510    0.6840    1.2030 C   0  0  1  0  0  0  0  0  0  0  0  0
   -3.7130    0.5530   -0.1690 C   0  0  0  0  0  0  0  0  0  0  0  0
   -3.6360   -1.1350   -0.7790 S   0  0  0  0  0  0  0  0  0  0  0  0
   -3.7670   -0.1650    2.1680 C   0  0  0  0  0  0  0  0  0  0  0  0
   -4.9820    0.0590    2.3950 O   0  0  0  0  0  0  0  0  0  0  0  0
   -3.1510   -1.1960    2.8300 O   0  0  0  0  0  0  0  0  0  0  0  0
   -1.4380   -0.7020    0.8180 H   0  0  0  0  0  0  0  0  0  0  0  0
   -3.1280    1.7590    1.4670 H   0  0  0  0  0  0  0  0  0  0  0  0
   -4.7720    0.8820   -0.0430 H   0  0  0  0  0  0  0  0  0  0  0  0
   -3.2310    1.2410   -0.8920 H   0  0  0  0  0  0  0  0  0  0  0  0
   -2.5950   -1.2320   -1.7320 H   0  0  0  0  0  0  0  0  0  0  0  0
  1  2  1  0  0  0  0
  1  9  1  0  0  0  0
  1 10  1  0  0  0  0
  2 11  1  6  0  0  0
  2  4  1  0  0  0  0
  2  3  1  0  0  0  0
  4 13  1  6  0  0  0
  4  6  1  0  0  0  0
  4  5  1  0  0  0  0
  5 14  1  0  0  0  0
  5 15  1  0  0  0  0
  6  7  2  0  0  0  0
  8  1  1  0  0  0  0
 12  3  1  0  0  0  0
 16 25  1  0  0  0  0
 16 17  1  0  0  0  0
 17 18  1  0  0  0  0
 17 27  1  0  0  0  0
 18 29  1  6  0  0  0
 18 19  1  0  0  0  0
 18 20  1  0  0  0  0
 19 32  1  0  0  0  0
 20 22  1  0  0  0  0
 20 33  1  1  0  0  0
 21 20  1  0  0  0  0
 21  6  1  0  0  0  0
 22 23  2  0  0  0  0
 24 16  1  0  0  0  0
 26 16  1  0  0  0  0
 28 17  1  0  0  0  0
 30 19  1  0  0  0  0
 31 19  1  0  0  0  0
 34 21  1  0  0  0  0
 35 36  1  0  0  0  0
 35 22  1  0  0  0  0
 36 43  1  1  0  0  0
 36 39  1  0  0  0  0
 37 44  1  0  0  0  0
 37 36  1  0  0  0  0
 38 37  1  0  0  0  0
 39 40  2  0  0  0  0
 39 41  1  0  0  0  0
 42 35  1  0  0  0  0
 45 37  1  0  0  0  0
 46 38  1  0  0  0  0
M  END
$$$$
