TIF.pdb
 OpenBabel07022419133D

 55 55  0  0  1  0  0  0  0  0999 V2000
    0.8850   -1.3550    4.7710 C   0  0  0  0  0  0  0  0  0  0  0  0
   -0.3650   -1.2500    3.9480 C   0  0  1  0  0  0  0  0  0  0  0  0
   -0.9710    0.0090    4.0240 O   0  0  0  0  0  0  0  0  0  0  0  0
   -0.2410   -1.7810    2.5600 C   0  0  2  0  0  0  0  0  0  0  0  0
    0.4030   -3.0780    2.6500 N   0  0  0  0  0  0  0  0  0  0  0  0
    0.4610   -0.9210    1.6000 C   0  0  0  0  0  0  0  0  0  0  0  0
    1.4870   -1.3800    1.0010 O   0  0  0  0  0  0  0  0  0  0  0  0
    1.7140   -1.7560    4.1400 H   0  0  0  0  0  0  0  0  0  0  0  0
    1.1160   -0.3230    5.1520 H   0  0  0  0  0  0  0  0  0  0  0  0
    0.7760   -1.9790    5.6820 H   0  0  0  0  0  0  0  0  0  0  0  0
   -1.1100   -1.9350    4.4610 H   0  0  0  0  0  0  0  0  0  0  0  0
   -1.4420    0.1510    4.8760 H   0  0  0  0  0  0  0  0  0  0  0  0
   -1.2960   -2.0160    2.2190 H   0  0  0  0  0  0  0  0  0  0  0  0
    1.0790   -3.1990    1.8650 H   0  0  0  0  0  0  0  0  0  0  0  0
   -0.2580   -3.8680    2.7010 H   0  0  0  0  0  0  0  0  0  0  0  0
    2.4580    1.0280    2.9450 C   0  0  0  0  0  0  0  0  0  0  0  0
    2.7790    1.8260    1.7250 C   0  0  0  0  0  0  0  0  0  0  0  0
    2.2130    1.3380    0.4380 C   0  0  2  0  0  0  0  0  0  0  0  0
    2.7010    2.3380   -0.6270 C   0  0  0  0  0  0  0  0  0  0  0  0
    0.7290    1.2830    0.3500 C   0  0  2  0  0  0  0  0  0  0  0  0
    0.0690    0.4050    1.2870 N   0  0  0  0  0  0  0  0  0  0  0  0
    0.2420    1.0730   -1.0290 C   0  0  0  0  0  0  0  0  0  0  0  0
    0.6520    1.7360   -2.0000 O   0  0  0  0  0  0  0  0  0  0  0  0
    2.8220   -0.0060    2.9330 H   0  0  0  0  0  0  0  0  0  0  0  0
    1.4090    1.1570    3.2880 H   0  0  0  0  0  0  0  0  0  0  0  0
    3.0550    1.5090    3.7920 H   0  0  0  0  0  0  0  0  0  0  0  0
    2.4950    2.8980    1.9360 H   0  0  0  0  0  0  0  0  0  0  0  0
    3.8940    1.8110    1.6220 H   0  0  0  0  0  0  0  0  0  0  0  0
    2.7270    0.3890    0.1800 H   0  0  0  0  0  0  0  0  0  0  0  0
    2.8920    1.8250   -1.5820 H   0  0  0  0  0  0  0  0  0  0  0  0
    3.6910    2.7560   -0.3180 H   0  0  0  0  0  0  0  0  0  0  0  0
    1.9760    3.1480   -0.7960 H   0  0  0  0  0  0  0  0  0  0  0  0
    0.4020    2.3340    0.6460 H   0  0  0  0  0  0  0  0  0  0  0  0
   -0.7950    0.7350    1.8160 H   0  0  0  0  0  0  0  0  0  0  0  0
   -0.7470    0.0760   -1.3350 N   0  0  0  0  0  0  0  0  0  0  0  0
   -1.2170   -0.1190   -2.6910 C   0  0  1  0  0  0  0  0  0  0  0  0
   -0.8860   -1.5090   -3.1670 C   0  0  0  0  0  0  0  0  0  0  0  0
   -1.5310   -2.5240   -2.2980 C   0  0  0  0  0  0  0  0  0  0  0  0
   -0.8970   -3.0320   -1.1850 C   0  0  0  0  0  0  0  0  0  0  0  0
   -1.5210   -3.9730   -0.3960 C   0  0  0  0  0  0  0  0  0  0  0  0
   -2.7900   -4.4340   -0.6910 C   0  0  0  0  0  0  0  0  0  0  0  0
   -3.4320   -3.9350   -1.7970 C   0  0  0  0  0  0  0  0  0  0  0  0
   -2.7950   -2.9880   -2.5850 C   0  0  0  0  0  0  0  0  0  0  0  0
   -2.6670    0.1690   -2.8020 C   0  0  0  0  0  0  0  0  0  0  0  0
   -3.2800    0.5200   -1.7700 O   0  0  0  0  0  0  0  0  0  0  0  0
   -3.3140    0.0490   -4.0210 O   0  0  0  0  0  0  0  0  0  0  0  0
   -1.0980   -0.4850   -0.5370 H   0  0  0  0  0  0  0  0  0  0  0  0
   -0.6730    0.5970   -3.3440 H   0  0  0  0  0  0  0  0  0  0  0  0
   -1.1150   -1.6650   -4.2260 H   0  0  0  0  0  0  0  0  0  0  0  0
    0.2240   -1.6400   -3.0700 H   0  0  0  0  0  0  0  0  0  0  0  0
    0.0850   -2.6630   -0.9750 H   0  0  0  0  0  0  0  0  0  0  0  0
   -0.9950   -4.3500    0.4690 H   0  0  0  0  0  0  0  0  0  0  0  0
   -3.2900   -5.1730   -0.0790 H   0  0  0  0  0  0  0  0  0  0  0  0
   -4.4380   -4.2730   -2.0670 H   0  0  0  0  0  0  0  0  0  0  0  0
   -3.3430   -2.6340   -3.4370 H   0  0  0  0  0  0  0  0  0  0  0  0
  1  9  1  0  0  0  0
  1 10  1  0  0  0  0
  2  3  1  0  0  0  0
  2 11  1  1  0  0  0
  2  1  1  0  0  0  0
  3 12  1  0  0  0  0
  4 13  1  6  0  0  0
  4  5  1  0  0  0  0
  4  2  1  0  0  0  0
  5 15  1  0  0  0  0
  6  4  1  0  0  0  0
  7  6  2  0  0  0  0
  8  1  1  0  0  0  0
 14  5  1  0  0  0  0
 16 25  1  0  0  0  0
 16 26  1  0  0  0  0
 17 27  1  0  0  0  0
 17 16  1  0  0  0  0
 18 29  1  6  0  0  0
 18 17  1  0  0  0  0
 19 31  1  0  0  0  0
 19 18  1  0  0  0  0
 20 18  1  0  0  0  0
 20 33  1  1  0  0  0
 20 21  1  0  0  0  0
 21  6  1  0  0  0  0
 21 34  1  0  0  0  0
 22 20  1  0  0  0  0
 23 22  2  0  0  0  0
 24 16  1  0  0  0  0
 28 17  1  0  0  0  0
 30 19  1  0  0  0  0
 32 19  1  0  0  0  0
 35 22  1  0  0  0  0
 35 47  1  0  0  0  0
 36 48  1  6  0  0  0
 36 35  1  0  0  0  0
 37 50  1  0  0  0  0
 37 36  1  0  0  0  0
 37 38  1  0  0  0  0
 38 39  1  0  0  0  0
 39 51  1  0  0  0  0
 39 40  2  0  0  0  0
 40 52  1  0  0  0  0
 41 40  1  0  0  0  0
 41 53  1  0  0  0  0
 42 41  2  0  0  0  0
 43 38  2  0  0  0  0
 43 42  1  0  0  0  0
 44 36  1  0  0  0  0
 44 45  1  0  0  0  0
 46 44  2  0  0  0  0
 49 37  1  0  0  0  0
 54 42  1  0  0  0  0
 55 43  1  0  0  0  0
M  END
$$$$
