TIH.pdb
 OpenBabel07022419123D

 52 52  0  0  1  0  0  0  0  0999 V2000
    5.1400   -1.0980    0.7280 C   0  0  0  0  0  0  0  0  0  0  0  0
    4.4240   -0.0600   -0.0770 C   0  0  1  0  0  0  0  0  0  0  0  0
    5.2680    0.4180   -1.0490 O   0  0  0  0  0  0  0  0  0  0  0  0
    3.1670   -0.6390   -0.7380 C   0  0  2  0  0  0  0  0  0  0  0  0
    2.4890    0.3710   -1.4920 N   0  0  0  0  0  0  0  0  0  0  0  0
    2.2800   -1.2340    0.3080 C   0  0  0  0  0  0  0  0  0  0  0  0
    2.6960   -2.1400    1.0730 O   0  0  0  0  0  0  0  0  0  0  0  0
    4.7300   -1.2010    1.7400 H   0  0  0  0  0  0  0  0  0  0  0  0
    5.1310   -2.0700    0.1840 H   0  0  0  0  0  0  0  0  0  0  0  0
    6.2000   -0.7440    0.8450 H   0  0  0  0  0  0  0  0  0  0  0  0
    4.0920    0.7740    0.5450 H   0  0  0  0  0  0  0  0  0  0  0  0
    5.2790    1.4020   -1.1010 H   0  0  0  0  0  0  0  0  0  0  0  0
    3.5220   -1.4700   -1.3780 H   0  0  0  0  0  0  0  0  0  0  0  0
    2.5310    0.2350   -2.5240 H   0  0  0  0  0  0  0  0  0  0  0  0
    2.8600    1.3240   -1.2190 H   0  0  0  0  0  0  0  0  0  0  0  0
    0.4000    1.4610    4.0700 C   0  0  0  0  0  0  0  0  0  0  0  0
    0.7840    0.3270    3.1820 C   0  0  0  0  0  0  0  0  0  0  0  0
   -0.4010   -0.2860    2.4680 C   0  0  2  0  0  0  0  0  0  0  0  0
   -1.4110   -0.8240    3.4540 C   0  0  0  0  0  0  0  0  0  0  0  0
    0.0480   -1.3590    1.4860 C   0  0  2  0  0  0  0  0  0  0  0  0
    0.9360   -0.8060    0.4840 N   0  0  0  0  0  0  0  0  0  0  0  0
   -1.1690   -1.9430    0.8820 C   0  0  0  0  0  0  0  0  0  0  0  0
   -2.0390   -2.4720    1.6170 O   0  0  0  0  0  0  0  0  0  0  0  0
    0.8610    2.3930    3.7020 H   0  0  0  0  0  0  0  0  0  0  0  0
    0.8070    1.3130    5.1050 H   0  0  0  0  0  0  0  0  0  0  0  0
   -0.7110    1.6260    4.1250 H   0  0  0  0  0  0  0  0  0  0  0  0
    1.2380   -0.4720    3.7950 H   0  0  0  0  0  0  0  0  0  0  0  0
    1.5580    0.6630    2.4710 H   0  0  0  0  0  0  0  0  0  0  0  0
   -0.8930    0.5410    1.9140 H   0  0  0  0  0  0  0  0  0  0  0  0
   -1.3800   -0.2770    4.4210 H   0  0  0  0  0  0  0  0  0  0  0  0
   -1.1840   -1.8840    3.7020 H   0  0  0  0  0  0  0  0  0  0  0  0
   -2.4190   -0.6670    3.0390 H   0  0  0  0  0  0  0  0  0  0  0  0
    0.6090   -2.1330    2.0430 H   0  0  0  0  0  0  0  0  0  0  0  0
    0.5770   -0.0480   -0.1520 H   0  0  0  0  0  0  0  0  0  0  0  0
   -1.4210   -1.9420   -0.5170 N   0  0  0  0  0  0  0  0  0  0  0  0
   -2.6400   -2.5370   -1.0260 C   0  0  1  0  0  0  0  0  0  0  0  0
   -3.4710   -1.4790   -1.7370 C   0  0  0  0  0  0  0  0  0  0  0  0
   -3.8140   -0.4000   -0.7880 C   0  0  0  0  0  0  0  0  0  0  0  0
   -3.1070    0.7620   -0.5050 C   0  0  0  0  0  0  0  0  0  0  0  0
   -3.7720    1.4730    0.4210 N   0  0  0  0  0  0  0  0  0  0  0  0
   -4.8840    0.7920    0.7340 C   0  0  0  0  0  0  0  0  0  0  0  0
   -4.9160   -0.3490    0.0020 N   0  0  0  0  0  0  0  0  0  0  0  0
   -2.3350   -3.6690   -1.9390 C   0  0  0  0  0  0  0  0  0  0  0  0
   -1.1470   -3.9880   -2.1720 O   0  0  0  0  0  0  0  0  0  0  0  0
   -3.3310   -4.3910   -2.5460 O   0  0  0  0  0  0  0  0  0  0  0  0
   -0.7240   -1.5140   -1.1580 H   0  0  0  0  0  0  0  0  0  0  0  0
   -3.2440   -2.9340   -0.2050 H   0  0  0  0  0  0  0  0  0  0  0  0
   -4.3450   -1.9360   -2.2140 H   0  0  0  0  0  0  0  0  0  0  0  0
   -2.8150   -1.0540   -2.5260 H   0  0  0  0  0  0  0  0  0  0  0  0
   -2.1720    1.0440   -0.9600 H   0  0  0  0  0  0  0  0  0  0  0  0
   -3.4680    2.3940    0.8220 H   0  0  0  0  0  0  0  0  0  0  0  0
   -5.6390    1.0810    1.4440 H   0  0  0  0  0  0  0  0  0  0  0  0
  1 10  1  0  0  0  0
  1  8  1  0  0  0  0
  2 11  1  1  0  0  0
  2  1  1  0  0  0  0
  3  2  1  0  0  0  0
  4 13  1  6  0  0  0
  4  2  1  0  0  0  0
  4  6  1  0  0  0  0
  5 15  1  0  0  0  0
  5  4  1  0  0  0  0
  6 21  1  0  0  0  0
  6  7  2  0  0  0  0
  9  1  1  0  0  0  0
 12  3  1  0  0  0  0
 14  5  1  0  0  0  0
 16 26  1  0  0  0  0
 16 25  1  0  0  0  0
 17 27  1  0  0  0  0
 17 16  1  0  0  0  0
 18 29  1  6  0  0  0
 18 17  1  0  0  0  0
 18 19  1  0  0  0  0
 19 31  1  0  0  0  0
 19 30  1  0  0  0  0
 20 33  1  1  0  0  0
 20 18  1  0  0  0  0
 21 20  1  0  0  0  0
 22 20  1  0  0  0  0
 22 23  2  0  0  0  0
 24 16  1  0  0  0  0
 28 17  1  0  0  0  0
 32 19  1  0  0  0  0
 34 21  1  0  0  0  0
 35 22  1  0  0  0  0
 36 35  1  0  0  0  0
 36 47  1  1  0  0  0
 37 36  1  0  0  0  0
 37 38  1  0  0  0  0
 38 39  2  0  0  0  0
 38 42  1  0  0  0  0
 39 40  1  0  0  0  0
 40 41  1  0  0  0  0
 40 51  1  0  0  0  0
 41 52  1  0  0  0  0
 42 41  2  0  0  0  0
 43 36  1  0  0  0  0
 44 43  1  0  0  0  0
 45 43  2  0  0  0  0
 46 35  1  0  0  0  0
 48 37  1  0  0  0  0
 49 37  1  0  0  0  0
 50 39  1  0  0  0  0
M  END
$$$$
