TII.pdb
 OpenBabel07022419133D

 54 53  0  0  1  0  0  0  0  0999 V2000
    3.0820   -4.6510    3.4590 C   0  0  0  0  0  0  0  0  0  0  0  0
    2.8300   -3.1600    3.4230 C   0  0  1  0  0  0  0  0  0  0  0  0
    3.7860   -2.6160    2.5440 O   0  0  0  0  0  0  0  0  0  0  0  0
    1.4720   -2.8520    2.8280 C   0  0  2  0  0  0  0  0  0  0  0  0
    1.3230   -3.4370    1.5110 N   0  0  0  0  0  0  0  0  0  0  0  0
    1.2560   -1.3980    2.7450 C   0  0  0  0  0  0  0  0  0  0  0  0
    1.3250   -0.6270    3.7440 O   0  0  0  0  0  0  0  0  0  0  0  0
    2.4820   -5.1450    4.2740 H   0  0  0  0  0  0  0  0  0  0  0  0
    2.6730   -5.0710    2.4990 H   0  0  0  0  0  0  0  0  0  0  0  0
    4.1500   -4.8900    3.5170 H   0  0  0  0  0  0  0  0  0  0  0  0
    2.9590   -2.6890    4.4060 H   0  0  0  0  0  0  0  0  0  0  0  0
    4.5920   -2.4380    3.1030 H   0  0  0  0  0  0  0  0  0  0  0  0
    0.7150   -3.3550    3.4780 H   0  0  0  0  0  0  0  0  0  0  0  0
    2.0190   -3.0680    0.8310 H   0  0  0  0  0  0  0  0  0  0  0  0
    0.3320   -3.2770    1.2230 H   0  0  0  0  0  0  0  0  0  0  0  0
    1.7880    3.4670    1.5640 C   0  0  0  0  0  0  0  0  0  0  0  0
    1.7630    2.6780    0.2850 C   0  0  0  0  0  0  0  0  0  0  0  0
    1.8240    1.1940    0.4940 C   0  0  2  0  0  0  0  0  0  0  0  0
    1.7910    0.5300   -0.8660 C   0  0  0  0  0  0  0  0  0  0  0  0
    0.7330    0.6690    1.3970 C   0  0  2  0  0  0  0  0  0  0  0  0
    0.9500   -0.7830    1.4850 N   0  0  0  0  0  0  0  0  0  0  0  0
   -0.5810    0.9640    0.7830 C   0  0  0  0  0  0  0  0  0  0  0  0
   -0.9890    2.1330    0.6050 O   0  0  0  0  0  0  0  0  0  0  0  0
    1.5310    4.5290    1.2790 H   0  0  0  0  0  0  0  0  0  0  0  0
    1.0400    3.1660    2.3000 H   0  0  0  0  0  0  0  0  0  0  0  0
    2.8230    3.4960    1.9460 H   0  0  0  0  0  0  0  0  0  0  0  0
    2.7130    2.9470   -0.2650 H   0  0  0  0  0  0  0  0  0  0  0  0
    0.9500    2.9570   -0.4010 H   0  0  0  0  0  0  0  0  0  0  0  0
    2.8430    0.9690    0.9120 H   0  0  0  0  0  0  0  0  0  0  0  0
    2.3680   -0.4070   -0.8950 H   0  0  0  0  0  0  0  0  0  0  0  0
    2.2880    1.2180   -1.6100 H   0  0  0  0  0  0  0  0  0  0  0  0
    0.7500    0.4030   -1.2320 H   0  0  0  0  0  0  0  0  0  0  0  0
    0.8450    1.1370    2.3950 H   0  0  0  0  0  0  0  0  0  0  0  0
    0.8790   -1.3680    0.6250 H   0  0  0  0  0  0  0  0  0  0  0  0
   -3.6130   -0.7840   -3.8340 C   0  0  0  0  0  0  0  0  0  0  0  0
   -3.9270   -0.2880   -2.4160 C   0  0  0  0  0  0  0  0  0  0  0  0
   -2.6710   -0.4350   -1.6220 C   0  0  2  0  0  0  0  0  0  0  0  0
   -2.2510   -1.8850   -1.6020 C   0  0  0  0  0  0  0  0  0  0  0  0
   -2.7400    0.1420   -0.2390 C   0  0  2  0  0  0  0  0  0  0  0  0
   -1.4260   -0.0980    0.3750 N   0  0  0  0  0  0  0  0  0  0  0  0
   -3.8240   -0.4310    0.5740 C   0  0  0  0  0  0  0  0  0  0  0  0
   -5.0040   -0.2950    0.1640 O   0  0  0  0  0  0  0  0  0  0  0  0
   -3.6440   -1.1150    1.7670 O   0  0  0  0  0  0  0  0  0  0  0  0
   -4.0680   -0.1120   -4.5980 H   0  0  0  0  0  0  0  0  0  0  0  0
   -3.8850   -1.8360   -3.9740 H   0  0  0  0  0  0  0  0  0  0  0  0
   -2.5030   -0.7250   -4.0200 H   0  0  0  0  0  0  0  0  0  0  0  0
   -4.3430    0.7190   -2.4300 H   0  0  0  0  0  0  0  0  0  0  0  0
   -4.6910   -1.0190   -2.0330 H   0  0  0  0  0  0  0  0  0  0  0  0
   -1.8720    0.1360   -2.1790 H   0  0  0  0  0  0  0  0  0  0  0  0
   -1.1560   -2.0020   -1.8210 H   0  0  0  0  0  0  0  0  0  0  0  0
   -2.4790   -2.3330   -0.5910 H   0  0  0  0  0  0  0  0  0  0  0  0
   -2.8050   -2.5050   -2.3340 H   0  0  0  0  0  0  0  0  0  0  0  0
   -2.8850    1.2340   -0.2950 H   0  0  0  0  0  0  0  0  0  0  0  0
   -1.1380   -1.0910    0.4990 H   0  0  0  0  0  0  0  0  0  0  0  0
  1 10  1  0  0  0  0
  1  8  1  0  0  0  0
  2  1  1  0  0  0  0
  2 11  1  1  0  0  0
  3 12  1  0  0  0  0
  3  2  1  0  0  0  0
  4  2  1  0  0  0  0
  4 13  1  1  0  0  0
  5  4  1  0  0  0  0
  6  4  1  0  0  0  0
  6  7  2  0  0  0  0
  9  1  1  0  0  0  0
 14  5  1  0  0  0  0
 15  5  1  0  0  0  0
 16 26  1  0  0  0  0
 16 25  1  0  0  0  0
 17 18  1  0  0  0  0
 17 16  1  0  0  0  0
 18 29  1  1  0  0  0
 18 20  1  0  0  0  0
 19 18  1  0  0  0  0
 20 21  1  0  0  0  0
 20 33  1  1  0  0  0
 21  6  1  0  0  0  0
 22 20  1  0  0  0  0
 23 22  2  0  0  0  0
 24 16  1  0  0  0  0
 27 17  1  0  0  0  0
 28 17  1  0  0  0  0
 30 19  1  0  0  0  0
 31 19  1  0  0  0  0
 32 19  1  0  0  0  0
 34 21  1  0  0  0  0
 35 36  1  0  0  0  0
 36 48  1  0  0  0  0
 36 37  1  0  0  0  0
 37 49  1  6  0  0  0
 37 38  1  0  0  0  0
 37 39  1  0  0  0  0
 38 51  1  0  0  0  0
 39 53  1  6  0  0  0
 39 40  1  0  0  0  0
 39 41  1  0  0  0  0
 40 54  1  0  0  0  0
 40 22  1  0  0  0  0
 41 43  1  0  0  0  0
 42 41  2  0  0  0  0
 44 35  1  0  0  0  0
 45 35  1  0  0  0  0
 46 35  1  0  0  0  0
 47 36  1  0  0  0  0
 50 38  1  0  0  0  0
 52 38  1  0  0  0  0
M  END
$$$$
