TIK.pdb
 OpenBabel07022419133D

 56 55  0  0  1  0  0  0  0  0999 V2000
   -0.3870    1.1140    5.5600 C   0  0  0  0  0  0  0  0  0  0  0  0
   -1.0150   -0.2710    5.7000 C   0  0  1  0  0  0  0  0  0  0  0  0
   -1.4620   -0.2890    7.0560 O   0  0  0  0  0  0  0  0  0  0  0  0
   -2.2430   -0.4000    4.8700 C   0  0  2  0  0  0  0  0  0  0  0  0
   -2.9510   -1.6250    5.2800 N   0  0  0  0  0  0  0  0  0  0  0  0
   -2.0600   -0.5300    3.4190 C   0  0  0  0  0  0  0  0  0  0  0  0
   -2.9250   -1.1950    2.7250 O   0  0  0  0  0  0  0  0  0  0  0  0
   -1.0910    1.7240    4.9700 H   0  0  0  0  0  0  0  0  0  0  0  0
    0.6490    1.1050    5.2290 H   0  0  0  0  0  0  0  0  0  0  0  0
   -0.3540    1.6480    6.5630 H   0  0  0  0  0  0  0  0  0  0  0  0
   -0.3280   -1.1020    5.5940 H   0  0  0  0  0  0  0  0  0  0  0  0
   -0.7620    0.1970    7.5590 H   0  0  0  0  0  0  0  0  0  0  0  0
   -2.9050    0.4830    5.1230 H   0  0  0  0  0  0  0  0  0  0  0  0
   -3.0130   -1.6430    6.3180 H   0  0  0  0  0  0  0  0  0  0  0  0
   -2.3230   -2.4240    5.0080 H   0  0  0  0  0  0  0  0  0  0  0  0
    1.2090    2.6470   -0.2250 C   0  0  0  0  0  0  0  0  0  0  0  0
    0.8960    1.5570    0.7850 C   0  0  0  0  0  0  0  0  0  0  0  0
   -0.4690    1.0160    0.4530 C   0  0  2  0  0  0  0  0  0  0  0  0
   -1.4870    2.1410    0.5520 C   0  0  0  0  0  0  0  0  0  0  0  0
   -0.8990   -0.1560    1.2210 C   0  0  2  0  0  0  0  0  0  0  0  0
   -0.9930    0.0130    2.6630 N   0  0  0  0  0  0  0  0  0  0  0  0
   -0.1350   -1.4160    0.9050 C   0  0  0  0  0  0  0  0  0  0  0  0
    0.2520   -2.2230    1.7820 O   0  0  0  0  0  0  0  0  0  0  0  0
    2.3120    2.8340   -0.2700 H   0  0  0  0  0  0  0  0  0  0  0  0
    0.6590    3.5620    0.0430 H   0  0  0  0  0  0  0  0  0  0  0  0
    0.8860    2.3260   -1.2310 H   0  0  0  0  0  0  0  0  0  0  0  0
    1.6620    0.7760    0.6440 H   0  0  0  0  0  0  0  0  0  0  0  0
    0.9460    2.0580    1.7710 H   0  0  0  0  0  0  0  0  0  0  0  0
   -0.4300    0.7580   -0.6250 H   0  0  0  0  0  0  0  0  0  0  0  0
   -1.7020    2.6160   -0.4290 H   0  0  0  0  0  0  0  0  0  0  0  0
   -1.0880    2.9740    1.1950 H   0  0  0  0  0  0  0  0  0  0  0  0
   -2.4570    1.7700    0.9390 H   0  0  0  0  0  0  0  0  0  0  0  0
   -1.9250   -0.4130    0.8910 H   0  0  0  0  0  0  0  0  0  0  0  0
   -0.2480    0.5400    3.1690 H   0  0  0  0  0  0  0  0  0  0  0  0
    0.1940   -1.7550   -0.4320 N   0  0  0  0  0  0  0  0  0  0  0  0
    0.9120   -2.9400   -0.8180 C   0  0  1  0  0  0  0  0  0  0  0  0
    0.5110   -3.5130   -2.1400 C   0  0  0  0  0  0  0  0  0  0  0  0
    0.7260   -2.5280   -3.2740 C   0  0  0  0  0  0  0  0  0  0  0  0
    0.3230   -3.1760   -4.5830 C   0  0  0  0  0  0  0  0  0  0  0  0
    0.5210   -2.2020   -5.7340 C   0  0  0  0  0  0  0  0  0  0  0  0
    0.1510   -2.7790   -7.0010 N   0  0  0  0  0  0  0  0  0  0  0  0
    2.3560   -2.4920   -1.0100 C   0  0  0  0  0  0  0  0  0  0  0  0
    2.6800   -1.3020   -0.8320 O   0  0  0  0  0  0  0  0  0  0  0  0
    3.3440   -3.4010   -1.3880 O   0  0  0  0  0  0  0  0  0  0  0  0
   -0.0990   -1.1230   -1.2080 H   0  0  0  0  0  0  0  0  0  0  0  0
    0.9850   -3.7250   -0.0620 H   0  0  0  0  0  0  0  0  0  0  0  0
   -0.5550   -3.8410   -2.1530 H   0  0  0  0  0  0  0  0  0  0  0  0
    1.1360   -4.4010   -2.3430 H   0  0  0  0  0  0  0  0  0  0  0  0
    1.7950   -2.2440   -3.3640 H   0  0  0  0  0  0  0  0  0  0  0  0
    0.1500   -1.5900   -3.1460 H   0  0  0  0  0  0  0  0  0  0  0  0
   -0.7500   -3.4330   -4.5740 H   0  0  0  0  0  0  0  0  0  0  0  0
    0.8960   -4.0760   -4.8170 H   0  0  0  0  0  0  0  0  0  0  0  0
    1.5940   -1.8880   -5.8430 H   0  0  0  0  0  0  0  0  0  0  0  0
   -0.0820   -1.2910   -5.5020 H   0  0  0  0  0  0  0  0  0  0  0  0
   -0.4530   -2.1370   -7.5360 H   0  0  0  0  0  0  0  0  0  0  0  0
   -0.2570   -3.7150   -6.8570 H   0  0  0  0  0  0  0  0  0  0  0  0
  1  2  1  0  0  0  0
  1 10  1  0  0  0  0
  2 11  1  6  0  0  0
  2  3  1  0  0  0  0
  3 12  1  0  0  0  0
  4 13  1  1  0  0  0
  4  5  1  0  0  0  0
  4  2  1  0  0  0  0
  5 14  1  0  0  0  0
  6  4  1  0  0  0  0
  7  6  2  0  0  0  0
  8  1  1  0  0  0  0
  9  1  1  0  0  0  0
 15  5  1  0  0  0  0
 16 25  1  0  0  0  0
 16 17  1  0  0  0  0
 17 28  1  0  0  0  0
 18 29  1  6  0  0  0
 18 19  1  0  0  0  0
 18 17  1  0  0  0  0
 18 20  1  0  0  0  0
 19 32  1  0  0  0  0
 19 31  1  0  0  0  0
 20 33  1  6  0  0  0
 20 21  1  0  0  0  0
 21 34  1  0  0  0  0
 21  6  1  0  0  0  0
 22 20  1  0  0  0  0
 22 23  2  0  0  0  0
 24 16  1  0  0  0  0
 26 16  1  0  0  0  0
 27 17  1  0  0  0  0
 30 19  1  0  0  0  0
 35 22  1  0  0  0  0
 36 35  1  0  0  0  0
 36 46  1  1  0  0  0
 37 36  1  0  0  0  0
 38 50  1  0  0  0  0
 38 37  1  0  0  0  0
 39 51  1  0  0  0  0
 39 38  1  0  0  0  0
 40 54  1  0  0  0  0
 40 39  1  0  0  0  0
 41 56  1  0  0  0  0
 41 40  1  0  0  0  0
 42 43  1  0  0  0  0
 42 36  1  0  0  0  0
 44 42  2  0  0  0  0
 45 35  1  0  0  0  0
 47 37  1  0  0  0  0
 48 37  1  0  0  0  0
 49 38  1  0  0  0  0
 52 39  1  0  0  0  0
 53 40  1  0  0  0  0
 55 41  1  0  0  0  0
M  END
$$$$
