TIL.pdb
 OpenBabel07022419133D

 54 53  0  0  1  0  0  0  0  0999 V2000
    0.7430   -4.1770    4.2640 C   0  0  0  0  0  0  0  0  0  0  0  0
    1.3340   -4.2410    2.8750 C   0  0  1  0  0  0  0  0  0  0  0  0
    1.3640   -5.5990    2.5220 O   0  0  0  0  0  0  0  0  0  0  0  0
    0.4480   -3.5250    1.8800 C   0  0  2  0  0  0  0  0  0  0  0  0
    0.9740   -3.6740    0.5460 N   0  0  0  0  0  0  0  0  0  0  0  0
    0.2410   -2.1010    2.2480 C   0  0  0  0  0  0  0  0  0  0  0  0
   -0.2100   -1.8520    3.3740 O   0  0  0  0  0  0  0  0  0  0  0  0
    1.2280   -3.3950    4.8710 H   0  0  0  0  0  0  0  0  0  0  0  0
   -0.3530   -4.0100    4.2580 H   0  0  0  0  0  0  0  0  0  0  0  0
    0.9230   -5.1510    4.8060 H   0  0  0  0  0  0  0  0  0  0  0  0
    2.3610   -3.8520    2.9010 H   0  0  0  0  0  0  0  0  0  0  0  0
    2.1890   -6.0480    2.8090 H   0  0  0  0  0  0  0  0  0  0  0  0
   -0.5350   -4.0410    1.9000 H   0  0  0  0  0  0  0  0  0  0  0  0
    1.8380   -3.1520    0.3610 H   0  0  0  0  0  0  0  0  0  0  0  0
    0.2030   -3.5250   -0.1230 H   0  0  0  0  0  0  0  0  0  0  0  0
    2.2410    1.8530   -0.4110 C   0  0  0  0  0  0  0  0  0  0  0  0
    2.6300    1.1930    0.8660 C   0  0  0  0  0  0  0  0  0  0  0  0
    1.6090    1.1150    1.9240 C   0  0  2  0  0  0  0  0  0  0  0  0
    2.3040    0.3950    3.1040 C   0  0  0  0  0  0  0  0  0  0  0  0
    0.3440    0.3870    1.6970 C   0  0  2  0  0  0  0  0  0  0  0  0
    0.5290   -1.0180    1.3850 N   0  0  0  0  0  0  0  0  0  0  0  0
   -0.7590    1.0190    1.0010 C   0  0  0  0  0  0  0  0  0  0  0  0
   -1.0680    2.2360    1.1310 O   0  0  0  0  0  0  0  0  0  0  0  0
    2.3570    1.0940   -1.2380 H   0  0  0  0  0  0  0  0  0  0  0  0
    1.1800    2.1600   -0.4110 H   0  0  0  0  0  0  0  0  0  0  0  0
    2.8780    2.7030   -0.7090 H   0  0  0  0  0  0  0  0  0  0  0  0
    3.4560    1.8490    1.2950 H   0  0  0  0  0  0  0  0  0  0  0  0
    3.1990    0.2320    0.7090 H   0  0  0  0  0  0  0  0  0  0  0  0
    1.4800    2.1490    2.3130 H   0  0  0  0  0  0  0  0  0  0  0  0
    1.6080    0.3980    3.9630 H   0  0  0  0  0  0  0  0  0  0  0  0
    2.5970   -0.6110    2.7650 H   0  0  0  0  0  0  0  0  0  0  0  0
    3.2460    0.9440    3.3170 H   0  0  0  0  0  0  0  0  0  0  0  0
   -0.0730    0.3230    2.7700 H   0  0  0  0  0  0  0  0  0  0  0  0
    0.9130   -1.3340    0.4380 H   0  0  0  0  0  0  0  0  0  0  0  0
   -1.9420    0.3480   -4.3390 C   0  0  0  0  0  0  0  0  0  0  0  0
   -1.6340    0.8260   -2.9020 C   0  0  0  0  0  0  0  0  0  0  0  0
   -0.4510   -0.0590   -2.4840 C   0  0  0  0  0  0  0  0  0  0  0  0
   -2.7890    0.5270   -2.0210 C   0  0  0  0  0  0  0  0  0  0  0  0
   -2.7060    0.9280   -0.6020 C   0  0  2  0  0  0  0  0  0  0  0  0
   -1.6220    0.3190    0.0850 N   0  0  0  0  0  0  0  0  0  0  0  0
   -3.9990    0.4520    0.0370 C   0  0  0  0  0  0  0  0  0  0  0  0
   -5.1100    0.8440   -0.3850 O   0  0  0  0  0  0  0  0  0  0  0  0
   -3.9100   -0.4220    1.0940 O   0  0  0  0  0  0  0  0  0  0  0  0
   -2.7820    0.9680   -4.6850 H   0  0  0  0  0  0  0  0  0  0  0  0
   -1.0040    0.5080   -4.9120 H   0  0  0  0  0  0  0  0  0  0  0  0
   -2.1420   -0.7280   -4.3290 H   0  0  0  0  0  0  0  0  0  0  0  0
   -1.3530    1.8680   -2.9800 H   0  0  0  0  0  0  0  0  0  0  0  0
    0.2790   -0.1360   -3.3280 H   0  0  0  0  0  0  0  0  0  0  0  0
   -0.7870   -1.0960   -2.3020 H   0  0  0  0  0  0  0  0  0  0  0  0
    0.1010    0.3650   -1.6410 H   0  0  0  0  0  0  0  0  0  0  0  0
   -3.7180    1.0020   -2.4590 H   0  0  0  0  0  0  0  0  0  0  0  0
   -3.0340   -0.5760   -2.0300 H   0  0  0  0  0  0  0  0  0  0  0  0
   -2.7440    2.0390   -0.4580 H   0  0  0  0  0  0  0  0  0  0  0  0
   -1.4150   -0.6700   -0.0500 H   0  0  0  0  0  0  0  0  0  0  0  0
  1 10  1  0  0  0  0
  1  8  1  0  0  0  0
  2 11  1  6  0  0  0
  2  1  1  0  0  0  0
  3 12  1  0  0  0  0
  3  2  1  0  0  0  0
  4 13  1  1  0  0  0
  4  6  1  0  0  0  0
  4  2  1  0  0  0  0
  5  4  1  0  0  0  0
  6  7  2  0  0  0  0
  9  1  1  0  0  0  0
 14  5  1  0  0  0  0
 15  5  1  0  0  0  0
 16 25  1  0  0  0  0
 16 17  1  0  0  0  0
 17 27  1  0  0  0  0
 17 18  1  0  0  0  0
 18 29  1  1  0  0  0
 18 19  1  0  0  0  0
 19 32  1  0  0  0  0
 19 30  1  0  0  0  0
 20 18  1  0  0  0  0
 20 33  1  1  0  0  0
 21 20  1  0  0  0  0
 21  6  1  0  0  0  0
 22 23  2  0  0  0  0
 22 20  1  0  0  0  0
 24 16  1  0  0  0  0
 26 16  1  0  0  0  0
 28 17  1  0  0  0  0
 31 19  1  0  0  0  0
 34 21  1  0  0  0  0
 35 46  1  0  0  0  0
 35 36  1  0  0  0  0
 36 37  1  0  0  0  0
 36 38  1  0  0  0  0
 37 49  1  0  0  0  0
 37 50  1  0  0  0  0
 38 39  1  0  0  0  0
 39 53  1  1  0  0  0
 39 41  1  0  0  0  0
 39 40  1  0  0  0  0
 40 22  1  0  0  0  0
 41 43  1  0  0  0  0
 42 41  2  0  0  0  0
 44 35  1  0  0  0  0
 45 35  1  0  0  0  0
 47 36  1  0  0  0  0
 48 37  1  0  0  0  0
 51 38  1  0  0  0  0
 52 38  1  0  0  0  0
 54 40  1  0  0  0  0
M  END
$$$$
