TIN.pdb
 OpenBabel07022419123D

 49 48  0  0  1  0  0  0  0  0999 V2000
   -0.6430   -2.7760    5.4690 C   0  0  0  0  0  0  0  0  0  0  0  0
    0.7130   -3.1920    4.8940 C   0  0  1  0  0  0  0  0  0  0  0  0
    0.9330   -4.4910    5.4170 O   0  0  0  0  0  0  0  0  0  0  0  0
    0.5550   -3.3840    3.4010 C   0  0  2  0  0  0  0  0  0  0  0  0
    1.7100   -3.9640    2.7940 N   0  0  0  0  0  0  0  0  0  0  0  0
    0.1110   -2.1370    2.7140 C   0  0  0  0  0  0  0  0  0  0  0  0
   -0.8980   -1.5420    3.1290 O   0  0  0  0  0  0  0  0  0  0  0  0
   -0.7370   -1.6740    5.5330 H   0  0  0  0  0  0  0  0  0  0  0  0
   -1.4410   -3.1170    4.7710 H   0  0  0  0  0  0  0  0  0  0  0  0
   -0.8620   -3.2810    6.4350 H   0  0  0  0  0  0  0  0  0  0  0  0
    1.5100   -2.5030    5.1620 H   0  0  0  0  0  0  0  0  0  0  0  0
    0.3840   -5.1240    4.8880 H   0  0  0  0  0  0  0  0  0  0  0  0
   -0.2950   -4.1080    3.2770 H   0  0  0  0  0  0  0  0  0  0  0  0
    2.6090   -3.6190    3.1340 H   0  0  0  0  0  0  0  0  0  0  0  0
    1.6480   -4.9540    2.5420 H   0  0  0  0  0  0  0  0  0  0  0  0
    0.3610    2.7110    0.9360 C   0  0  0  0  0  0  0  0  0  0  0  0
    1.4380    1.8730    0.3450 C   0  0  0  0  0  0  0  0  0  0  0  0
    1.6040    0.5150    0.9640 C   0  0  2  0  0  0  0  0  0  0  0  0
    2.7770   -0.1210    0.1840 C   0  0  0  0  0  0  0  0  0  0  0  0
    0.3990   -0.3860    0.8920 C   0  0  2  0  0  0  0  0  0  0  0  0
    0.8260   -1.6210    1.5900 N   0  0  0  0  0  0  0  0  0  0  0  0
    0.1310   -0.7070   -0.5270 C   0  0  0  0  0  0  0  0  0  0  0  0
    0.4510   -1.8520   -0.9310 O   0  0  0  0  0  0  0  0  0  0  0  0
   -0.4540    2.9120    0.2230 H   0  0  0  0  0  0  0  0  0  0  0  0
    0.0040    2.2890    1.9000 H   0  0  0  0  0  0  0  0  0  0  0  0
    0.7930    3.7340    1.1570 H   0  0  0  0  0  0  0  0  0  0  0  0
    2.4290    2.3990    0.5650 H   0  0  0  0  0  0  0  0  0  0  0  0
    1.4220    1.8400   -0.7690 H   0  0  0  0  0  0  0  0  0  0  0  0
    1.9900    0.6620    1.9990 H   0  0  0  0  0  0  0  0  0  0  0  0
    3.2050   -0.9710    0.7100 H   0  0  0  0  0  0  0  0  0  0  0  0
    2.3920   -0.3520   -0.8220 H   0  0  0  0  0  0  0  0  0  0  0  0
    3.5690    0.6470    0.0400 H   0  0  0  0  0  0  0  0  0  0  0  0
   -0.4450    0.0940    1.3760 H   0  0  0  0  0  0  0  0  0  0  0  0
    1.6620   -2.1650    1.3010 H   0  0  0  0  0  0  0  0  0  0  0  0
   -3.7170    1.2630   -1.8230 N   0  0  0  0  0  0  0  0  0  0  0  0
   -2.6940    1.0430   -2.7520 C   0  0  0  0  0  0  0  0  0  0  0  0
   -2.1490    2.0020   -3.3960 O   0  0  0  0  0  0  0  0  0  0  0  0
   -2.1990   -0.3290   -3.0230 C   0  0  0  0  0  0  0  0  0  0  0  0
   -0.6820   -0.2710   -2.8670 C   0  0  2  0  0  0  0  0  0  0  0  0
   -0.4560    0.1400   -1.4880 N   0  0  0  0  0  0  0  0  0  0  0  0
   -0.1570    0.6660   -3.8560 C   0  0  0  0  0  0  0  0  0  0  0  0
   -0.3020    0.3970   -5.0680 O   0  0  0  0  0  0  0  0  0  0  0  0
    0.4990    1.8490   -3.5450 O   0  0  0  0  0  0  0  0  0  0  0  0
   -4.4450    0.5590   -1.5840 H   0  0  0  0  0  0  0  0  0  0  0  0
   -3.8210    2.1740   -1.2900 H   0  0  0  0  0  0  0  0  0  0  0  0
   -2.4370   -0.6020   -4.0850 H   0  0  0  0  0  0  0  0  0  0  0  0
   -2.6310   -1.1040   -2.3710 H   0  0  0  0  0  0  0  0  0  0  0  0
   -0.3180   -1.2810   -3.0920 H   0  0  0  0  0  0  0  0  0  0  0  0
   -0.7550    1.0900   -1.2080 H   0  0  0  0  0  0  0  0  0  0  0  0
  1  8  1  0  0  0  0
  1 10  1  0  0  0  0
  2 11  1  1  0  0  0
  2  3  1  0  0  0  0
  2  1  1  0  0  0  0
  4 13  1  6  0  0  0
  4  2  1  0  0  0  0
  5 14  1  0  0  0  0
  5  4  1  0  0  0  0
  6  7  2  0  0  0  0
  6  4  1  0  0  0  0
  9  1  1  0  0  0  0
 12  3  1  0  0  0  0
 15  5  1  0  0  0  0
 16 26  1  0  0  0  0
 16 25  1  0  0  0  0
 17 27  1  0  0  0  0
 17 16  1  0  0  0  0
 17 18  1  0  0  0  0
 18 29  1  1  0  0  0
 19 30  1  0  0  0  0
 19 18  1  0  0  0  0
 20 18  1  0  0  0  0
 20 33  1  1  0  0  0
 20 21  1  0  0  0  0
 21  6  1  0  0  0  0
 22 20  1  0  0  0  0
 23 22  2  0  0  0  0
 24 16  1  0  0  0  0
 28 17  1  0  0  0  0
 31 19  1  0  0  0  0
 32 19  1  0  0  0  0
 34 21  1  0  0  0  0
 35 44  1  0  0  0  0
 35 45  1  0  0  0  0
 36 35  1  0  0  0  0
 37 36  2  0  0  0  0
 38 39  1  0  0  0  0
 38 36  1  0  0  0  0
 38 47  1  0  0  0  0
 39 48  1  6  0  0  0
 39 40  1  0  0  0  0
 40 49  1  0  0  0  0
 40 22  1  0  0  0  0
 41 43  1  0  0  0  0
 41 39  1  0  0  0  0
 42 41  2  0  0  0  0
 46 38  1  0  0  0  0
M  END
$$$$
