TIQ.pdb
 OpenBabel07022419123D

 52 51  0  0  1  0  0  0  0  0999 V2000
    2.5490   -3.5420    0.5260 C   0  0  0  0  0  0  0  0  0  0  0  0
    2.5490   -3.2200   -0.9410 C   0  0  1  0  0  0  0  0  0  0  0  0
    2.4810   -4.4830   -1.5920 O   0  0  0  0  0  0  0  0  0  0  0  0
    1.2570   -2.5320   -1.3040 C   0  0  2  0  0  0  0  0  0  0  0  0
    1.1490   -2.4050   -2.7560 N   0  0  0  0  0  0  0  0  0  0  0  0
    1.1160   -1.1690   -0.7270 C   0  0  0  0  0  0  0  0  0  0  0  0
    1.2530   -0.2180   -1.5520 O   0  0  0  0  0  0  0  0  0  0  0  0
    1.5450   -3.9040    0.8230 H   0  0  0  0  0  0  0  0  0  0  0  0
    3.2150   -4.4480    0.7230 H   0  0  0  0  0  0  0  0  0  0  0  0
    2.8530   -2.7050    1.1710 H   0  0  0  0  0  0  0  0  0  0  0  0
    3.4460   -2.7120   -1.2860 H   0  0  0  0  0  0  0  0  0  0  0  0
    3.3310   -4.9520   -1.5350 H   0  0  0  0  0  0  0  0  0  0  0  0
    0.4180   -3.1440   -0.9540 H   0  0  0  0  0  0  0  0  0  0  0  0
    0.4950   -3.0870   -3.1620 H   0  0  0  0  0  0  0  0  0  0  0  0
    2.0740   -2.3680   -3.2050 H   0  0  0  0  0  0  0  0  0  0  0  0
    3.4970    1.3330    1.8030 C   0  0  0  0  0  0  0  0  0  0  0  0
    2.8210    1.3810    0.4220 C   0  0  0  0  0  0  0  0  0  0  0  0
    1.3500    1.5540    0.5400 C   0  0  2  0  0  0  0  0  0  0  0  0
    1.1160    2.8620    1.2910 C   0  0  0  0  0  0  0  0  0  0  0  0
    0.7240    0.3990    1.2590 C   0  0  2  0  0  0  0  0  0  0  0  0
    0.8490   -0.8690    0.6150 N   0  0  0  0  0  0  0  0  0  0  0  0
   -0.5790    0.6490    1.8690 C   0  0  0  0  0  0  0  0  0  0  0  0
   -0.8360    1.7430    2.4800 O   0  0  0  0  0  0  0  0  0  0  0  0
    3.1650    2.1260    2.4720 H   0  0  0  0  0  0  0  0  0  0  0  0
    4.5870    1.5410    1.5860 H   0  0  0  0  0  0  0  0  0  0  0  0
    3.5010    0.3170    2.2280 H   0  0  0  0  0  0  0  0  0  0  0  0
    3.2010    0.4840   -0.0760 H   0  0  0  0  0  0  0  0  0  0  0  0
    3.2960    2.2450   -0.1080 H   0  0  0  0  0  0  0  0  0  0  0  0
    0.9410    1.7450   -0.4740 H   0  0  0  0  0  0  0  0  0  0  0  0
    0.1460    3.2900    0.9880 H   0  0  0  0  0  0  0  0  0  0  0  0
    1.2480    2.7650    2.3790 H   0  0  0  0  0  0  0  0  0  0  0  0
    1.8940    3.5680    0.8910 H   0  0  0  0  0  0  0  0  0  0  0  0
    1.4760    0.3110    2.1580 H   0  0  0  0  0  0  0  0  0  0  0  0
    0.7110   -1.7450    1.2290 H   0  0  0  0  0  0  0  0  0  0  0  0
   -3.5590   -1.9750   -1.6170 N   0  0  0  0  0  0  0  0  0  0  0  0
   -3.3600   -0.8760   -0.7150 C   0  0  0  0  0  0  0  0  0  0  0  0
   -2.3280   -0.1930   -0.9160 O   0  0  0  0  0  0  0  0  0  0  0  0
   -4.3480   -0.6450    0.3300 C   0  0  0  0  0  0  0  0  0  0  0  0
   -3.9950    0.2300    1.4540 C   0  0  0  0  0  0  0  0  0  0  0  0
   -2.9030   -0.1490    2.3750 C   0  0  2  0  0  0  0  0  0  0  0  0
   -1.6030   -0.3340    1.7970 N   0  0  0  0  0  0  0  0  0  0  0  0
   -3.2640   -1.2140    3.3340 C   0  0  0  0  0  0  0  0  0  0  0  0
   -2.4840   -2.1610    3.5840 O   0  0  0  0  0  0  0  0  0  0  0  0
   -4.4830   -1.1910    3.9840 O   0  0  0  0  0  0  0  0  0  0  0  0
   -2.8870   -2.7700   -1.6810 H   0  0  0  0  0  0  0  0  0  0  0  0
   -4.3910   -2.0170   -2.2440 H   0  0  0  0  0  0  0  0  0  0  0  0
   -4.8110   -1.6300    0.6610 H   0  0  0  0  0  0  0  0  0  0  0  0
   -5.2390   -0.1540   -0.1790 H   0  0  0  0  0  0  0  0  0  0  0  0
   -3.7500    1.2400    1.0470 H   0  0  0  0  0  0  0  0  0  0  0  0
   -4.9200    0.3840    2.0700 H   0  0  0  0  0  0  0  0  0  0  0  0
   -2.7730    0.7770    3.0430 H   0  0  0  0  0  0  0  0  0  0  0  0
   -1.4000   -1.2380    1.3210 H   0  0  0  0  0  0  0  0  0  0  0  0
  1  9  1  0  0  0  0
  1  8  1  0  0  0  0
  1 10  1  0  0  0  0
  2 11  1  6  0  0  0
  2  1  1  0  0  0  0
  3 12  1  0  0  0  0
  3  2  1  0  0  0  0
  4 13  1  1  0  0  0
  4  2  1  0  0  0  0
  4  6  1  0  0  0  0
  5  4  1  0  0  0  0
  6 21  1  0  0  0  0
  7  6  2  0  0  0  0
 14  5  1  0  0  0  0
 15  5  1  0  0  0  0
 16 26  1  0  0  0  0
 16 24  1  0  0  0  0
 17 18  1  0  0  0  0
 17 16  1  0  0  0  0
 18 29  1  6  0  0  0
 18 20  1  0  0  0  0
 18 19  1  0  0  0  0
 19 31  1  0  0  0  0
 20 22  1  0  0  0  0
 20 33  1  1  0  0  0
 21 34  1  0  0  0  0
 21 20  1  0  0  0  0
 22 23  2  0  0  0  0
 25 16  1  0  0  0  0
 27 17  1  0  0  0  0
 28 17  1  0  0  0  0
 30 19  1  0  0  0  0
 32 19  1  0  0  0  0
 35 36  1  0  0  0  0
 36 38  1  0  0  0  0
 37 36  2  0  0  0  0
 38 47  1  0  0  0  0
 38 39  1  0  0  0  0
 39 50  1  0  0  0  0
 39 40  1  0  0  0  0
 40 51  1  1  0  0  0
 40 42  1  0  0  0  0
 41 22  1  0  0  0  0
 41 40  1  0  0  0  0
 42 43  2  0  0  0  0
 42 44  1  0  0  0  0
 45 35  1  0  0  0  0
 46 35  1  0  0  0  0
 48 38  1  0  0  0  0
 49 39  1  0  0  0  0
 52 41  1  0  0  0  0
M  END
$$$$
