TIR.pdb
 OpenBabel07022419123D

 58 57  0  0  1  0  0  0  0  0999 V2000
    4.3700   -2.3270    1.0030 C   0  0  0  0  0  0  0  0  0  0  0  0
    4.5090   -0.8140    0.8870 C   0  0  1  0  0  0  0  0  0  0  0  0
    3.7880   -0.3870   -0.1810 O   0  0  0  0  0  0  0  0  0  0  0  0
    4.2670   -0.1220    2.1930 C   0  0  2  0  0  0  0  0  0  0  0  0
    5.1760   -0.7840    3.1440 N   0  0  0  0  0  0  0  0  0  0  0  0
    2.9020   -0.1730    2.7060 C   0  0  0  0  0  0  0  0  0  0  0  0
    2.6860   -0.7730    3.7940 O   0  0  0  0  0  0  0  0  0  0  0  0
    5.1580   -2.7580    1.6430 H   0  0  0  0  0  0  0  0  0  0  0  0
    3.3520   -2.6360    1.2540 H   0  0  0  0  0  0  0  0  0  0  0  0
    4.5690   -2.7170   -0.0350 H   0  0  0  0  0  0  0  0  0  0  0  0
    5.6050   -0.6510    0.6610 H   0  0  0  0  0  0  0  0  0  0  0  0
    4.3690   -0.0730   -0.9160 H   0  0  0  0  0  0  0  0  0  0  0  0
    4.6760    0.9230    2.1050 H   0  0  0  0  0  0  0  0  0  0  0  0
    5.2910   -0.1340    3.9780 H   0  0  0  0  0  0  0  0  0  0  0  0
    6.0660   -1.0440    2.7090 H   0  0  0  0  0  0  0  0  0  0  0  0
   -1.4130    0.7460    4.9500 C   0  0  0  0  0  0  0  0  0  0  0  0
   -1.4660    1.6250    3.7010 C   0  0  0  0  0  0  0  0  0  0  0  0
   -0.0920    1.6410    3.0870 C   0  0  2  0  0  0  0  0  0  0  0  0
   -0.2190    2.5340    1.8430 C   0  0  0  0  0  0  0  0  0  0  0  0
    0.4160    0.3180    2.6600 C   0  0  2  0  0  0  0  0  0  0  0  0
    1.7630    0.3990    2.0960 N   0  0  0  0  0  0  0  0  0  0  0  0
   -0.4140   -0.4190    1.6870 C   0  0  0  0  0  0  0  0  0  0  0  0
   -1.6130   -0.6720    1.9390 O   0  0  0  0  0  0  0  0  0  0  0  0
   -1.6720   -0.2750    4.6320 H   0  0  0  0  0  0  0  0  0  0  0  0
   -0.3820    0.7860    5.3450 H   0  0  0  0  0  0  0  0  0  0  0  0
   -2.1450    1.1130    5.7160 H   0  0  0  0  0  0  0  0  0  0  0  0
   -2.2110    1.1930    3.0190 H   0  0  0  0  0  0  0  0  0  0  0  0
   -1.7750    2.6700    4.0000 H   0  0  0  0  0  0  0  0  0  0  0  0
    0.5560    2.1420    3.8430 H   0  0  0  0  0  0  0  0  0  0  0  0
   -1.0430    2.1530    1.2060 H   0  0  0  0  0  0  0  0  0  0  0  0
   -0.5070    3.5750    2.1590 H   0  0  0  0  0  0  0  0  0  0  0  0
    0.6940    2.5440    1.2310 H   0  0  0  0  0  0  0  0  0  0  0  0
    0.4980   -0.3160    3.5740 H   0  0  0  0  0  0  0  0  0  0  0  0
    1.8660    0.9060    1.1980 H   0  0  0  0  0  0  0  0  0  0  0  0
   -5.7170   -3.0660   -4.7210 N   0  0  0  0  0  0  0  0  0  0  0  0
   -5.0360   -2.6050   -3.5560 C   0  0  0  0  0  0  0  0  0  0  0  0
   -5.6250   -2.4990   -2.4270 N   0  0  0  0  0  0  0  0  0  0  0  0
   -3.6440   -2.2380   -3.6160 N   0  0  0  0  0  0  0  0  0  0  0  0
   -2.9590   -1.6440   -2.4930 C   0  0  0  0  0  0  0  0  0  0  0  0
   -1.5280   -1.3890   -2.9030 C   0  0  0  0  0  0  0  0  0  0  0  0
   -0.7450   -0.7680   -1.7880 C   0  0  0  0  0  0  0  0  0  0  0  0
   -0.6800   -1.5980   -0.5480 C   0  0  2  0  0  0  0  0  0  0  0  0
    0.1120   -0.8630    0.4460 N   0  0  0  0  0  0  0  0  0  0  0  0
   -0.1640   -2.9530   -0.7190 C   0  0  0  0  0  0  0  0  0  0  0  0
    0.8380   -3.3180   -0.0700 O   0  0  0  0  0  0  0  0  0  0  0  0
   -0.7610   -3.8400   -1.5820 O   0  0  0  0  0  0  0  0  0  0  0  0
   -5.9110   -4.0810   -4.8090 H   0  0  0  0  0  0  0  0  0  0  0  0
   -6.0090   -2.4190   -5.4530 H   0  0  0  0  0  0  0  0  0  0  0  0
   -5.1230   -2.1650   -1.5930 H   0  0  0  0  0  0  0  0  0  0  0  0
   -3.1620   -2.4270   -4.5190 H   0  0  0  0  0  0  0  0  0  0  0  0
   -3.4440   -0.6460   -2.3090 H   0  0  0  0  0  0  0  0  0  0  0  0
   -3.0350   -2.2740   -1.5920 H   0  0  0  0  0  0  0  0  0  0  0  0
   -1.5910   -0.7100   -3.7960 H   0  0  0  0  0  0  0  0  0  0  0  0
   -1.0410   -2.3000   -3.2850 H   0  0  0  0  0  0  0  0  0  0  0  0
    0.3020   -0.6020   -2.1820 H   0  0  0  0  0  0  0  0  0  0  0  0
   -1.0960    0.2650   -1.5460 H   0  0  0  0  0  0  0  0  0  0  0  0
   -1.7090   -1.6790   -0.1060 H   0  0  0  0  0  0  0  0  0  0  0  0
    1.0970   -0.6810    0.1900 H   0  0  0  0  0  0  0  0  0  0  0  0
  1  9  1  0  0  0  0
  1  8  1  0  0  0  0
  2 11  1  6  0  0  0
  2  1  1  0  0  0  0
  2  4  1  0  0  0  0
  3  2  1  0  0  0  0
  4 13  1  6  0  0  0
  4  6  1  0  0  0  0
  4  5  1  0  0  0  0
  5 14  1  0  0  0  0
  6  7  2  0  0  0  0
 10  1  1  0  0  0  0
 12  3  1  0  0  0  0
 15  5  1  0  0  0  0
 16 25  1  0  0  0  0
 16 26  1  0  0  0  0
 17 28  1  0  0  0  0
 17 16  1  0  0  0  0
 18 17  1  0  0  0  0
 18 29  1  1  0  0  0
 19 31  1  0  0  0  0
 19 18  1  0  0  0  0
 20 18  1  0  0  0  0
 20 33  1  1  0  0  0
 21 20  1  0  0  0  0
 21  6  1  0  0  0  0
 22 23  2  0  0  0  0
 22 20  1  0  0  0  0
 24 16  1  0  0  0  0
 27 17  1  0  0  0  0
 30 19  1  0  0  0  0
 32 19  1  0  0  0  0
 34 21  1  0  0  0  0
 35 36  1  0  0  0  0
 36 37  2  0  0  0  0
 37 49  1  0  0  0  0
 38 36  1  0  0  0  0
 38 39  1  0  0  0  0
 39 51  1  0  0  0  0
 39 52  1  0  0  0  0
 40 39  1  0  0  0  0
 40 41  1  0  0  0  0
 41 56  1  0  0  0  0
 41 42  1  0  0  0  0
 42 57  1  1  0  0  0
 42 43  1  0  0  0  0
 43 22  1  0  0  0  0
 44 42  1  0  0  0  0
 44 45  1  0  0  0  0
 46 44  2  0  0  0  0
 47 35  1  0  0  0  0
 48 35  1  0  0  0  0
 50 38  1  0  0  0  0
 53 40  1  0  0  0  0
 54 40  1  0  0  0  0
 55 41  1  0  0  0  0
 58 43  1  0  0  0  0
M  END
$$$$
