TIS.pdb
 OpenBabel07022419133D

 46 45  0  0  1  0  0  0  0  0999 V2000
    2.3630   -5.1520   -1.0550 C   0  0  0  0  0  0  0  0  0  0  0  0
    1.4430   -3.9670   -0.9000 C   0  0  1  0  0  0  0  0  0  0  0  0
    0.9420   -4.0040    0.4030 O   0  0  0  0  0  0  0  0  0  0  0  0
    2.1700   -2.6610   -1.0830 C   0  0  2  0  0  0  0  0  0  0  0  0
    3.2480   -2.6060   -0.1140 N   0  0  0  0  0  0  0  0  0  0  0  0
    1.1500   -1.5790   -0.7640 C   0  0  0  0  0  0  0  0  0  0  0  0
    0.1440   -1.4780   -1.5020 O   0  0  0  0  0  0  0  0  0  0  0  0
    2.8570   -5.1980   -2.0360 H   0  0  0  0  0  0  0  0  0  0  0  0
    3.1620   -5.0980   -0.2810 H   0  0  0  0  0  0  0  0  0  0  0  0
    1.7440   -6.0700   -0.9170 H   0  0  0  0  0  0  0  0  0  0  0  0
    0.5830   -4.0790   -1.5840 H   0  0  0  0  0  0  0  0  0  0  0  0
    1.4680   -4.5830    0.9910 H   0  0  0  0  0  0  0  0  0  0  0  0
    2.5970   -2.5210   -2.0770 H   0  0  0  0  0  0  0  0  0  0  0  0
    3.7840   -1.7270   -0.1410 H   0  0  0  0  0  0  0  0  0  0  0  0
    2.9620   -2.9120    0.8270 H   0  0  0  0  0  0  0  0  0  0  0  0
   -0.1320    2.2150   -2.4950 C   0  0  0  0  0  0  0  0  0  0  0  0
    0.6730    1.5420   -1.4030 C   0  0  0  0  0  0  0  0  0  0  0  0
   -0.2870    0.9780   -0.3620 C   0  0  2  0  0  0  0  0  0  0  0  0
   -1.0370    2.2100    0.1520 C   0  0  0  0  0  0  0  0  0  0  0  0
    0.4870    0.3720    0.7700 C   0  0  2  0  0  0  0  0  0  0  0  0
    1.3340   -0.7200    0.3250 N   0  0  0  0  0  0  0  0  0  0  0  0
   -0.3240   -0.0040    1.9180 C   0  0  0  0  0  0  0  0  0  0  0  0
   -0.3720   -1.2600    2.1710 O   0  0  0  0  0  0  0  0  0  0  0  0
   -1.1780    1.8370   -2.5400 H   0  0  0  0  0  0  0  0  0  0  0  0
   -0.1070    3.3210   -2.4230 H   0  0  0  0  0  0  0  0  0  0  0  0
    0.3280    1.9810   -3.4970 H   0  0  0  0  0  0  0  0  0  0  0  0
    1.3000    2.3530   -0.9430 H   0  0  0  0  0  0  0  0  0  0  0  0
    1.3320    0.8080   -1.8560 H   0  0  0  0  0  0  0  0  0  0  0  0
   -0.9820    0.3120   -0.8820 H   0  0  0  0  0  0  0  0  0  0  0  0
   -0.3890    2.8590    0.7630 H   0  0  0  0  0  0  0  0  0  0  0  0
   -1.9840    1.9640    0.6230 H   0  0  0  0  0  0  0  0  0  0  0  0
   -1.2220    2.8620   -0.7770 H   0  0  0  0  0  0  0  0  0  0  0  0
    1.2020    1.1990    1.0680 H   0  0  0  0  0  0  0  0  0  0  0  0
    2.2240   -0.9070    0.8970 H   0  0  0  0  0  0  0  0  0  0  0  0
   -0.0620    0.4490    5.5090 O   0  0  0  0  0  0  0  0  0  0  0  0
   -1.3900    0.8130    5.2370 C   0  0  0  0  0  0  0  0  0  0  0  0
   -1.8390    0.3010    3.9070 C   0  0  2  0  0  0  0  0  0  0  0  0
   -1.0570    0.7890    2.7970 N   0  0  0  0  0  0  0  0  0  0  0  0
   -3.2840    0.6020    3.7480 C   0  0  0  0  0  0  0  0  0  0  0  0
   -3.7720    1.2110    2.7620 O   0  0  0  0  0  0  0  0  0  0  0  0
   -4.1560    0.1900    4.7430 O   0  0  0  0  0  0  0  0  0  0  0  0
    0.0160   -0.4960    5.1740 H   0  0  0  0  0  0  0  0  0  0  0  0
   -2.0040    0.3040    6.0110 H   0  0  0  0  0  0  0  0  0  0  0  0
   -1.5520    1.8950    5.3750 H   0  0  0  0  0  0  0  0  0  0  0  0
   -1.7350   -0.8040    3.9130 H   0  0  0  0  0  0  0  0  0  0  0  0
   -1.0490    1.8180    2.6950 H   0  0  0  0  0  0  0  0  0  0  0  0
  1 10  1  0  0  0  0
  1  2  1  0  0  0  0
  1  9  1  0  0  0  0
  2 11  1  6  0  0  0
  2  3  1  0  0  0  0
  3 12  1  0  0  0  0
  4 13  1  6  0  0  0
  4  2  1  0  0  0  0
  4  6  1  0  0  0  0
  4  5  1  0  0  0  0
  5 15  1  0  0  0  0
  6 21  1  0  0  0  0
  7  6  2  0  0  0  0
  8  1  1  0  0  0  0
 14  5  1  0  0  0  0
 16 25  1  0  0  0  0
 16 17  1  0  0  0  0
 17 27  1  0  0  0  0
 17 18  1  0  0  0  0
 18 29  1  6  0  0  0
 18 19  1  0  0  0  0
 18 20  1  0  0  0  0
 19 31  1  0  0  0  0
 19 30  1  0  0  0  0
 20 33  1  1  0  0  0
 20 22  1  0  0  0  0
 21 20  1  0  0  0  0
 21 34  1  0  0  0  0
 22 23  2  0  0  0  0
 22 38  1  0  0  0  0
 24 16  1  0  0  0  0
 26 16  1  0  0  0  0
 28 17  1  0  0  0  0
 32 19  1  0  0  0  0
 36 44  1  0  0  0  0
 36 35  1  0  0  0  0
 36 43  1  0  0  0  0
 37 45  1  1  0  0  0
 37 36  1  0  0  0  0
 38 37  1  0  0  0  0
 39 37  1  0  0  0  0
 39 41  1  0  0  0  0
 40 39  2  0  0  0  0
 42 35  1  0  0  0  0
 46 38  1  0  0  0  0
M  END
$$$$
