TIW.pdb
 OpenBabel07022419133D

 59 60  0  0  1  0  0  0  0  0999 V2000
   -0.5730   -0.7140    3.4270 C   0  0  0  0  0  0  0  0  0  0  0  0
    0.8920   -0.4640    3.1180 C   0  0  1  0  0  0  0  0  0  0  0  0
    1.2480   -1.2500    2.0600 O   0  0  0  0  0  0  0  0  0  0  0  0
    1.1950    0.9870    2.9410 C   0  0  2  0  0  0  0  0  0  0  0  0
    0.8090    1.7490    4.1410 N   0  0  0  0  0  0  0  0  0  0  0  0
    0.5940    1.6100    1.7490 C   0  0  0  0  0  0  0  0  0  0  0  0
   -0.1510    2.6470    1.8600 O   0  0  0  0  0  0  0  0  0  0  0  0
   -0.6540   -1.5670    4.1010 H   0  0  0  0  0  0  0  0  0  0  0  0
   -1.1630   -0.9380    2.5110 H   0  0  0  0  0  0  0  0  0  0  0  0
   -1.0570    0.1630    3.9070 H   0  0  0  0  0  0  0  0  0  0  0  0
    1.4590   -0.8100    4.0330 H   0  0  0  0  0  0  0  0  0  0  0  0
    1.4870   -2.1810    2.3060 H   0  0  0  0  0  0  0  0  0  0  0  0
    2.3010    1.0850    2.8350 H   0  0  0  0  0  0  0  0  0  0  0  0
    1.5920    2.3740    4.4370 H   0  0  0  0  0  0  0  0  0  0  0  0
    0.7030    1.0420    4.9090 H   0  0  0  0  0  0  0  0  0  0  0  0
    2.9800    2.8070    0.1110 C   0  0  0  0  0  0  0  0  0  0  0  0
    2.2420    3.1060   -1.1470 C   0  0  0  0  0  0  0  0  0  0  0  0
    1.3310    2.0550   -1.6880 C   0  0  2  0  0  0  0  0  0  0  0  0
    0.7400    2.6190   -2.9850 C   0  0  0  0  0  0  0  0  0  0  0  0
    0.2710    1.6670   -0.7370 C   0  0  2  0  0  0  0  0  0  0  0  0
    0.8130    1.1040    0.4660 N   0  0  0  0  0  0  0  0  0  0  0  0
   -0.7260    0.7310   -1.3100 C   0  0  0  0  0  0  0  0  0  0  0  0
   -1.2820    1.0740   -2.3850 O   0  0  0  0  0  0  0  0  0  0  0  0
    3.1230    1.7650    0.3730 H   0  0  0  0  0  0  0  0  0  0  0  0
    2.6310    3.4120    0.9880 H   0  0  0  0  0  0  0  0  0  0  0  0
    4.0410    3.2070   -0.0380 H   0  0  0  0  0  0  0  0  0  0  0  0
    1.6690    4.0690   -0.9370 H   0  0  0  0  0  0  0  0  0  0  0  0
    2.9590    3.4660   -1.9640 H   0  0  0  0  0  0  0  0  0  0  0  0
    1.9270    1.1520   -1.9430 H   0  0  0  0  0  0  0  0  0  0  0  0
   -0.1700    3.2040   -2.8130 H   0  0  0  0  0  0  0  0  0  0  0  0
    0.5930    1.7490   -3.6550 H   0  0  0  0  0  0  0  0  0  0  0  0
    1.4780    3.2830   -3.4820 H   0  0  0  0  0  0  0  0  0  0  0  0
   -0.3030    2.6220   -0.5070 H   0  0  0  0  0  0  0  0  0  0  0  0
    1.4060    0.2320    0.3200 H   0  0  0  0  0  0  0  0  0  0  0  0
   -1.0750   -0.4990   -0.7210 N   0  0  0  0  0  0  0  0  0  0  0  0
   -2.0780   -1.3800   -1.3510 C   0  0  1  0  0  0  0  0  0  0  0  0
   -1.3910   -2.6060   -1.8720 C   0  0  0  0  0  0  0  0  0  0  0  0
   -0.6600   -3.3900   -0.8710 C   0  0  0  0  0  0  0  0  0  0  0  0
    0.7130   -3.3280   -0.6170 C   0  0  0  0  0  0  0  0  0  0  0  0
    1.0330   -4.1480    0.3710 N   0  0  0  0  0  0  0  0  0  0  0  0
   -0.0880   -4.7660    0.7940 C   0  0  0  0  0  0  0  0  0  0  0  0
   -0.3330   -5.7060    1.7720 C   0  0  0  0  0  0  0  0  0  0  0  0
   -1.5900   -6.2070    2.0230 C   0  0  0  0  0  0  0  0  0  0  0  0
   -2.6640   -5.7500    1.2580 C   0  0  0  0  0  0  0  0  0  0  0  0
   -2.4020   -4.8180    0.2940 C   0  0  0  0  0  0  0  0  0  0  0  0
   -1.1570   -4.2940    0.0170 C   0  0  0  0  0  0  0  0  0  0  0  0
   -3.2720   -1.5690   -0.5610 C   0  0  0  0  0  0  0  0  0  0  0  0
   -3.3910   -1.1390    0.6140 O   0  0  0  0  0  0  0  0  0  0  0  0
   -4.3530   -2.2480   -1.1010 O   0  0  0  0  0  0  0  0  0  0  0  0
   -0.6230   -0.8000    0.1780 H   0  0  0  0  0  0  0  0  0  0  0  0
   -2.4080   -0.8200   -2.2910 H   0  0  0  0  0  0  0  0  0  0  0  0
   -2.1410   -3.2950   -2.3580 H   0  0  0  0  0  0  0  0  0  0  0  0
   -0.6810   -2.3700   -2.7010 H   0  0  0  0  0  0  0  0  0  0  0  0
    1.3730   -2.6840   -1.1780 H   0  0  0  0  0  0  0  0  0  0  0  0
    1.9730   -4.3100    0.7720 H   0  0  0  0  0  0  0  0  0  0  0  0
    0.4950   -6.0560    2.3570 H   0  0  0  0  0  0  0  0  0  0  0  0
   -1.7620   -6.9340    2.7840 H   0  0  0  0  0  0  0  0  0  0  0  0
   -3.6460   -6.1520    1.4660 H   0  0  0  0  0  0  0  0  0  0  0  0
   -3.2430   -4.4890   -0.2920 H   0  0  0  0  0  0  0  0  0  0  0  0
  1 10  1  0  0  0  0
  1  8  1  0  0  0  0
  2  1  1  0  0  0  0
  2 11  1  1  0  0  0
  3 12  1  0  0  0  0
  3  2  1  0  0  0  0
  4 13  1  6  0  0  0
  4  2  1  0  0  0  0
  4  5  1  0  0  0  0
  5 14  1  0  0  0  0
  5 15  1  0  0  0  0
  6  7  2  0  0  0  0
  6  4  1  0  0  0  0
  9  1  1  0  0  0  0
 16 24  1  0  0  0  0
 16 25  1  0  0  0  0
 17 27  1  0  0  0  0
 17 16  1  0  0  0  0
 18 29  1  6  0  0  0
 18 17  1  0  0  0  0
 18 20  1  0  0  0  0
 19 30  1  0  0  0  0
 19 18  1  0  0  0  0
 20 33  1  1  0  0  0
 20 21  1  0  0  0  0
 21  6  1  0  0  0  0
 22 20  1  0  0  0  0
 22 35  1  0  0  0  0
 23 22  2  0  0  0  0
 26 16  1  0  0  0  0
 28 17  1  0  0  0  0
 31 19  1  0  0  0  0
 32 19  1  0  0  0  0
 34 21  1  0  0  0  0
 35 50  1  0  0  0  0
 36 51  1  6  0  0  0
 36 35  1  0  0  0  0
 36 47  1  0  0  0  0
 37 36  1  0  0  0  0
 37 38  1  0  0  0  0
 38 39  2  0  0  0  0
 38 46  1  0  0  0  0
 39 40  1  0  0  0  0
 40 55  1  0  0  0  0
 40 41  1  0  0  0  0
 41 42  1  0  0  0  0
 42 43  2  0  0  0  0
 42 56  1  0  0  0  0
 43 57  1  0  0  0  0
 44 58  1  0  0  0  0
 44 43  1  0  0  0  0
 45 44  2  0  0  0  0
 46 45  1  0  0  0  0
 46 41  2  0  0  0  0
 47 48  1  0  0  0  0
 49 47  2  0  0  0  0
 52 37  1  0  0  0  0
 53 37  1  0  0  0  0
 54 39  1  0  0  0  0
 59 45  1  0  0  0  0
M  END
$$$$
