TKA.pdb
 OpenBabel07022419133D

 47 46  0  0  1  0  0  0  0  0999 V2000
    0.7820   -3.7230    2.8840 C   0  0  0  0  0  0  0  0  0  0  0  0
    0.2180   -2.4580    3.4890 C   0  0  1  0  0  0  0  0  0  0  0  0
    0.4190   -2.5260    4.8740 O   0  0  0  0  0  0  0  0  0  0  0  0
    0.9420   -1.2320    2.9550 C   0  0  2  0  0  0  0  0  0  0  0  0
    0.4380   -0.0220    3.5720 N   0  0  0  0  0  0  0  0  0  0  0  0
    0.7870   -1.1800    1.4560 C   0  0  0  0  0  0  0  0  0  0  0  0
    1.2110   -2.1730    0.8490 O   0  0  0  0  0  0  0  0  0  0  0  0
    0.6800   -4.5280    3.6470 H   0  0  0  0  0  0  0  0  0  0  0  0
    1.8420   -3.5450    2.6250 H   0  0  0  0  0  0  0  0  0  0  0  0
    0.2440   -3.9850    1.9490 H   0  0  0  0  0  0  0  0  0  0  0  0
   -0.8580   -2.3750    3.2760 H   0  0  0  0  0  0  0  0  0  0  0  0
    0.2080   -3.4560    5.1390 H   0  0  0  0  0  0  0  0  0  0  0  0
    2.0110   -1.3270    3.1810 H   0  0  0  0  0  0  0  0  0  0  0  0
   -0.5700    0.1190    3.4350 H   0  0  0  0  0  0  0  0  0  0  0  0
    1.0020    0.7660    3.2240 H   0  0  0  0  0  0  0  0  0  0  0  0
    0.1920   -0.0390    0.9210 N   0  0  0  0  0  0  0  0  0  0  0  0
   -0.0070    0.1640   -0.4840 C   0  0  1  0  0  0  0  0  0  0  0  0
    0.9450   -0.6100   -1.3670 C   0  0  0  0  0  0  0  0  0  0  0  0
    2.3670   -0.2580   -1.2040 C   0  0  0  0  0  0  0  0  0  0  0  0
    2.6850    1.1900   -1.5330 C   0  0  0  0  0  0  0  0  0  0  0  0
    4.1890    1.4510   -1.3410 C   0  0  0  0  0  0  0  0  0  0  0  0
    4.5290    1.1710    0.0550 N   0  0  0  0  0  0  0  0  0  0  0  0
   -1.4080    0.0530   -0.8090 C   0  0  0  0  0  0  0  0  0  0  0  0
   -1.9210    0.1750   -1.9500 O   0  0  0  0  0  0  0  0  0  0  0  0
   -0.1470    0.7480    1.5410 H   0  0  0  0  0  0  0  0  0  0  0  0
    0.3180    1.2510   -0.7390 H   0  0  0  0  0  0  0  0  0  0  0  0
    0.7850   -1.6990   -1.3420 H   0  0  0  0  0  0  0  0  0  0  0  0
    0.6440   -0.3270   -2.4300 H   0  0  0  0  0  0  0  0  0  0  0  0
    2.9860   -0.8590   -1.9330 H   0  0  0  0  0  0  0  0  0  0  0  0
    2.7910   -0.4460   -0.2270 H   0  0  0  0  0  0  0  0  0  0  0  0
    2.2190    1.9030   -0.8230 H   0  0  0  0  0  0  0  0  0  0  0  0
    2.4850    1.3820   -2.5880 H   0  0  0  0  0  0  0  0  0  0  0  0
    4.3560    2.5380   -1.4900 H   0  0  0  0  0  0  0  0  0  0  0  0
    4.7980    0.8980   -2.0520 H   0  0  0  0  0  0  0  0  0  0  0  0
    3.6660    1.1730    0.6660 H   0  0  0  0  0  0  0  0  0  0  0  0
    5.1630    1.8990    0.4550 H   0  0  0  0  0  0  0  0  0  0  0  0
   -4.1880   -1.7660    0.3160 C   0  0  0  0  0  0  0  0  0  0  0  0
   -3.7630   -0.3520    0.0030 C   0  0  2  0  0  0  0  0  0  0  0  0
   -2.3600   -0.2250    0.2340 N   0  0  0  0  0  0  0  0  0  0  0  0
   -4.5700    0.6490    0.7380 C   0  0  0  0  0  0  0  0  0  0  0  0
   -4.0620    1.5120    1.4820 O   0  0  0  0  0  0  0  0  0  0  0  0
   -5.9480    0.6030    0.5740 O   0  0  0  0  0  0  0  0  0  0  0  0
   -3.2880   -2.4060    0.4180 H   0  0  0  0  0  0  0  0  0  0  0  0
   -4.7680   -2.2180   -0.5350 H   0  0  0  0  0  0  0  0  0  0  0  0
   -4.8110   -1.8110    1.2480 H   0  0  0  0  0  0  0  0  0  0  0  0
   -3.9310   -0.2000   -1.0960 H   0  0  0  0  0  0  0  0  0  0  0  0
   -1.9980   -0.3380    1.2030 H   0  0  0  0  0  0  0  0  0  0  0  0
  1  2  1  0  0  0  0
  1  8  1  0  0  0  0
  2 11  1  6  0  0  0
  2  3  1  0  0  0  0
  3 12  1  0  0  0  0
  4 13  1  1  0  0  0
  4  2  1  0  0  0  0
  4  5  1  0  0  0  0
  6  4  1  0  0  0  0
  7  6  2  0  0  0  0
  9  1  1  0  0  0  0
 10  1  1  0  0  0  0
 14  5  1  0  0  0  0
 15  5  1  0  0  0  0
 16  6  1  0  0  0  0
 16 25  1  0  0  0  0
 17 26  1  6  0  0  0
 17 16  1  0  0  0  0
 18 27  1  0  0  0  0
 18 19  1  0  0  0  0
 18 17  1  0  0  0  0
 19 30  1  0  0  0  0
 20 21  1  0  0  0  0
 20 19  1  0  0  0  0
 20 31  1  0  0  0  0
 21 22  1  0  0  0  0
 22 36  1  0  0  0  0
 22 35  1  0  0  0  0
 23 17  1  0  0  0  0
 23 39  1  0  0  0  0
 24 23  2  0  0  0  0
 28 18  1  0  0  0  0
 29 19  1  0  0  0  0
 32 20  1  0  0  0  0
 33 21  1  0  0  0  0
 34 21  1  0  0  0  0
 37 43  1  0  0  0  0
 37 45  1  0  0  0  0
 38 46  1  6  0  0  0
 38 39  1  0  0  0  0
 38 37  1  0  0  0  0
 38 40  1  0  0  0  0
 39 47  1  0  0  0  0
 40 41  1  0  0  0  0
 42 40  2  0  0  0  0
 44 37  1  0  0  0  0
M  END
$$$$
