TKE.pdb
 OpenBabel07022419133D

 53 52  0  0  1  0  0  0  0  0999 V2000
    0.9560   -4.2190    5.6730 C   0  0  0  0  0  0  0  0  0  0  0  0
    0.2530   -3.3280    4.7110 C   0  0  1  0  0  0  0  0  0  0  0  0
    0.2770   -2.0160    5.2240 O   0  0  0  0  0  0  0  0  0  0  0  0
    0.8270   -3.3610    3.3140 C   0  0  2  0  0  0  0  0  0  0  0  0
    2.1850   -2.9100    3.2550 N   0  0  0  0  0  0  0  0  0  0  0  0
   -0.0640   -2.5760    2.4130 C   0  0  0  0  0  0  0  0  0  0  0  0
   -1.3060   -2.8740    2.3710 O   0  0  0  0  0  0  0  0  0  0  0  0
    0.3170   -5.1010    5.8840 H   0  0  0  0  0  0  0  0  0  0  0  0
    1.9010   -4.6340    5.2490 H   0  0  0  0  0  0  0  0  0  0  0  0
    1.1400   -3.7210    6.6530 H   0  0  0  0  0  0  0  0  0  0  0  0
   -0.8180   -3.6070    4.6640 H   0  0  0  0  0  0  0  0  0  0  0  0
   -0.5780   -1.7760    5.6600 H   0  0  0  0  0  0  0  0  0  0  0  0
    0.7920   -4.4100    2.9580 H   0  0  0  0  0  0  0  0  0  0  0  0
    2.2820   -1.8900    3.4980 H   0  0  0  0  0  0  0  0  0  0  0  0
    2.8210   -3.4270    3.8880 H   0  0  0  0  0  0  0  0  0  0  0  0
    0.4880   -1.5360    1.6410 N   0  0  0  0  0  0  0  0  0  0  0  0
   -0.3480   -0.7650    0.7670 C   0  0  1  0  0  0  0  0  0  0  0  0
   -0.3000    0.7220    1.1000 C   0  0  0  0  0  0  0  0  0  0  0  0
    1.0720    1.2790    0.9840 C   0  0  0  0  0  0  0  0  0  0  0  0
    1.2500    2.7120    1.2930 C   0  0  0  0  0  0  0  0  0  0  0  0
    0.4990    3.6950    0.4790 C   0  0  0  0  0  0  0  0  0  0  0  0
   -0.9410    3.5670    0.5420 N   0  0  0  0  0  0  0  0  0  0  0  0
    0.0730   -0.9340   -0.6670 C   0  0  0  0  0  0  0  0  0  0  0  0
    1.0200   -1.6400   -1.0370 O   0  0  0  0  0  0  0  0  0  0  0  0
    1.4950   -1.3260    1.7030 H   0  0  0  0  0  0  0  0  0  0  0  0
   -1.3830   -1.1490    0.8510 H   0  0  0  0  0  0  0  0  0  0  0  0
   -0.7690    0.8410    2.0750 H   0  0  0  0  0  0  0  0  0  0  0  0
   -0.9640    1.2290    0.3590 H   0  0  0  0  0  0  0  0  0  0  0  0
    1.7740    0.7100    1.6640 H   0  0  0  0  0  0  0  0  0  0  0  0
    1.5010    1.0860   -0.0400 H   0  0  0  0  0  0  0  0  0  0  0  0
    1.0030    2.9280    2.3730 H   0  0  0  0  0  0  0  0  0  0  0  0
    2.3410    2.9850    1.2290 H   0  0  0  0  0  0  0  0  0  0  0  0
    0.8250    3.7600   -0.5790 H   0  0  0  0  0  0  0  0  0  0  0  0
    0.7210    4.7200    0.9020 H   0  0  0  0  0  0  0  0  0  0  0  0
   -1.3430    3.9880   -0.3190 H   0  0  0  0  0  0  0  0  0  0  0  0
   -1.3250    3.9420    1.4240 H   0  0  0  0  0  0  0  0  0  0  0  0
   -0.6770   -0.2310   -1.6530 N   0  0  0  0  0  0  0  0  0  0  0  0
   -0.3170   -0.3580   -3.0380 C   0  0  1  0  0  0  0  0  0  0  0  0
   -1.3870   -0.9810   -3.8470 C   0  0  0  0  0  0  0  0  0  0  0  0
   -1.8280   -2.3450   -3.5250 C   0  0  0  0  0  0  0  0  0  0  0  0
   -2.4750   -2.6200   -2.2500 C   0  0  0  0  0  0  0  0  0  0  0  0
   -2.8620   -1.8360   -1.3780 O   0  0  0  0  0  0  0  0  0  0  0  0
    0.1270    0.9530   -3.6020 C   0  0  0  0  0  0  0  0  0  0  0  0
    0.1350    1.9450   -2.8590 O   0  0  0  0  0  0  0  0  0  0  0  0
   -2.6980   -3.9870   -1.9580 O   0  0  0  0  0  0  0  0  0  0  0  0
    0.5100    1.0350   -4.9080 O   0  0  0  0  0  0  0  0  0  0  0  0
   -1.4840    0.4060   -1.4240 H   0  0  0  0  0  0  0  0  0  0  0  0
    0.5910   -1.0410   -3.1460 H   0  0  0  0  0  0  0  0  0  0  0  0
   -1.0750   -0.9870   -4.9320 H   0  0  0  0  0  0  0  0  0  0  0  0
   -2.3050   -0.3070   -3.7640 H   0  0  0  0  0  0  0  0  0  0  0  0
   -0.9990   -3.1030   -3.6880 H   0  0  0  0  0  0  0  0  0  0  0  0
   -2.5870   -2.6760   -4.3190 H   0  0  0  0  0  0  0  0  0  0  0  0
   -2.9590   -4.2810   -1.0280 H   0  0  0  0  0  0  0  0  0  0  0  0
  1  8  1  0  0  0  0
  1 10  1  0  0  0  0
  2 11  1  6  0  0  0
  2  3  1  0  0  0  0
  2  1  1  0  0  0  0
  3 12  1  0  0  0  0
  4 13  1  6  0  0  0
  4  2  1  0  0  0  0
  5  4  1  0  0  0  0
  5 14  1  0  0  0  0
  5 15  1  0  0  0  0
  6  4  1  0  0  0  0
  7  6  2  0  0  0  0
  9  1  1  0  0  0  0
 16 25  1  0  0  0  0
 16  6  1  0  0  0  0
 17 26  1  1  0  0  0
 17 18  1  0  0  0  0
 17 16  1  0  0  0  0
 18 27  1  0  0  0  0
 19 18  1  0  0  0  0
 19 20  1  0  0  0  0
 19 29  1  0  0  0  0
 20 31  1  0  0  0  0
 21 22  1  0  0  0  0
 21 34  1  0  0  0  0
 21 20  1  0  0  0  0
 22 36  1  0  0  0  0
 23 17  1  0  0  0  0
 24 23  2  0  0  0  0
 28 18  1  0  0  0  0
 30 19  1  0  0  0  0
 32 20  1  0  0  0  0
 33 21  1  0  0  0  0
 35 22  1  0  0  0  0
 37 47  1  0  0  0  0
 37 23  1  0  0  0  0
 38 48  1  6  0  0  0
 38 37  1  0  0  0  0
 39 50  1  0  0  0  0
 39 40  1  0  0  0  0
 39 38  1  0  0  0  0
 40 41  1  0  0  0  0
 41 45  1  0  0  0  0
 41 42  2  0  0  0  0
 43 38  1  0  0  0  0
 43 44  1  0  0  0  0
 45 53  1  0  0  0  0
 46 43  2  0  0  0  0
 49 39  1  0  0  0  0
 51 40  1  0  0  0  0
 52 40  1  0  0  0  0
M  END
$$$$
