TKF.pdb
 OpenBabel07022419133D

 57 57  0  0  1  0  0  0  0  0999 V2000
   -1.5840   -4.8960   -0.9880 C   0  0  0  0  0  0  0  0  0  0  0  0
   -1.2220   -4.5800   -2.4210 C   0  0  1  0  0  0  0  0  0  0  0  0
   -1.7720   -5.6350   -3.1930 O   0  0  0  0  0  0  0  0  0  0  0  0
   -1.8590   -3.2740   -2.8970 C   0  0  2  0  0  0  0  0  0  0  0  0
   -1.5540   -3.1120   -4.3360 N   0  0  0  0  0  0  0  0  0  0  0  0
   -1.3360   -2.0890   -2.2150 C   0  0  0  0  0  0  0  0  0  0  0  0
   -0.6240   -1.2340   -2.8570 O   0  0  0  0  0  0  0  0  0  0  0  0
   -1.5570   -6.0170   -0.8150 H   0  0  0  0  0  0  0  0  0  0  0  0
   -0.9030   -4.4320   -0.2640 H   0  0  0  0  0  0  0  0  0  0  0  0
   -2.6440   -4.6340   -0.8090 H   0  0  0  0  0  0  0  0  0  0  0  0
   -0.1330   -4.5860   -2.5120 H   0  0  0  0  0  0  0  0  0  0  0  0
   -1.4810   -5.5280   -4.1380 H   0  0  0  0  0  0  0  0  0  0  0  0
   -2.9510   -3.4180   -2.8360 H   0  0  0  0  0  0  0  0  0  0  0  0
   -1.9740   -2.1720   -4.5810 H   0  0  0  0  0  0  0  0  0  0  0  0
   -0.5230   -3.1330   -4.4890 H   0  0  0  0  0  0  0  0  0  0  0  0
   -1.5370   -1.7550   -0.8480 N   0  0  0  0  0  0  0  0  0  0  0  0
   -0.9990   -0.5700   -0.2120 C   0  0  1  0  0  0  0  0  0  0  0  0
   -2.0960    0.2270    0.4120 C   0  0  0  0  0  0  0  0  0  0  0  0
   -3.1440    0.7030   -0.5540 C   0  0  0  0  0  0  0  0  0  0  0  0
   -2.6090    1.5930   -1.6370 C   0  0  0  0  0  0  0  0  0  0  0  0
   -3.8070    1.9750   -2.5140 C   0  0  0  0  0  0  0  0  0  0  0  0
   -3.3560    2.8480   -3.5980 N   0  0  0  0  0  0  0  0  0  0  0  0
   -0.0360   -0.9200    0.8680 C   0  0  0  0  0  0  0  0  0  0  0  0
    0.2480   -2.1040    1.1610 O   0  0  0  0  0  0  0  0  0  0  0  0
   -2.1100   -2.3920   -0.2600 H   0  0  0  0  0  0  0  0  0  0  0  0
   -0.4420    0.0670   -0.9140 H   0  0  0  0  0  0  0  0  0  0  0  0
   -1.6870    1.0880    0.9780 H   0  0  0  0  0  0  0  0  0  0  0  0
   -2.6270   -0.4600    1.1300 H   0  0  0  0  0  0  0  0  0  0  0  0
   -3.9320    1.2270   -0.0070 H   0  0  0  0  0  0  0  0  0  0  0  0
   -3.6070   -0.2000   -1.0420 H   0  0  0  0  0  0  0  0  0  0  0  0
   -2.2140    2.5410   -1.2390 H   0  0  0  0  0  0  0  0  0  0  0  0
   -1.8480    1.1460   -2.2740 H   0  0  0  0  0  0  0  0  0  0  0  0
   -4.6050    2.4570   -1.9300 H   0  0  0  0  0  0  0  0  0  0  0  0
   -4.2430    1.0800   -3.0060 H   0  0  0  0  0  0  0  0  0  0  0  0
   -3.3310    3.8410   -3.3120 H   0  0  0  0  0  0  0  0  0  0  0  0
   -2.4470    2.4920   -3.9700 H   0  0  0  0  0  0  0  0  0  0  0  0
    0.5760    0.1240    1.5850 N   0  0  0  0  0  0  0  0  0  0  0  0
    1.5340   -0.0740    2.6640 C   0  0  1  0  0  0  0  0  0  0  0  0
    2.8840    0.4530    2.3250 C   0  0  0  0  0  0  0  0  0  0  0  0
    3.8050    0.2200    3.4580 C   0  0  0  0  0  0  0  0  0  0  0  0
    4.5250   -0.9700    3.5840 C   0  0  0  0  0  0  0  0  0  0  0  0
    5.3980   -1.2150    4.6120 C   0  0  0  0  0  0  0  0  0  0  0  0
    5.6000   -0.2630    5.5860 C   0  0  0  0  0  0  0  0  0  0  0  0
    4.9130    0.9260    5.5050 C   0  0  0  0  0  0  0  0  0  0  0  0
    4.0420    1.1460    4.4620 C   0  0  0  0  0  0  0  0  0  0  0  0
    0.9620    0.3830    3.9350 C   0  0  0  0  0  0  0  0  0  0  0  0
   -0.2030    0.8990    3.9220 O   0  0  0  0  0  0  0  0  0  0  0  0
    1.5630    0.3120    5.1730 O   0  0  0  0  0  0  0  0  0  0  0  0
    0.3500    1.1150    1.3520 H   0  0  0  0  0  0  0  0  0  0  0  0
    1.6380   -1.1970    2.7530 H   0  0  0  0  0  0  0  0  0  0  0  0
    3.2320   -0.0300    1.3900 H   0  0  0  0  0  0  0  0  0  0  0  0
    2.8300    1.5500    2.1690 H   0  0  0  0  0  0  0  0  0  0  0  0
    4.3820   -1.7220    2.8360 H   0  0  0  0  0  0  0  0  0  0  0  0
    5.9510   -2.1390    4.7020 H   0  0  0  0  0  0  0  0  0  0  0  0
    6.2910   -0.4790    6.3840 H   0  0  0  0  0  0  0  0  0  0  0  0
    5.0770    1.6820    6.2840 H   0  0  0  0  0  0  0  0  0  0  0  0
    3.5010    2.1030    4.4120 H   0  0  0  0  0  0  0  0  0  0  0  0
  1  8  1  0  0  0  0
  1 10  1  0  0  0  0
  1  9  1  0  0  0  0
  2 11  1  6  0  0  0
  2  1  1  0  0  0  0
  3  2  1  0  0  0  0
  4 13  1  1  0  0  0
  4  2  1  0  0  0  0
  4  6  1  0  0  0  0
  5  4  1  0  0  0  0
  6 16  1  0  0  0  0
  7  6  2  0  0  0  0
 12  3  1  0  0  0  0
 14  5  1  0  0  0  0
 15  5  1  0  0  0  0
 16 25  1  0  0  0  0
 16 17  1  0  0  0  0
 17 26  1  6  0  0  0
 17 18  1  0  0  0  0
 17 23  1  0  0  0  0
 18 27  1  0  0  0  0
 18 28  1  0  0  0  0
 19 29  1  0  0  0  0
 19 18  1  0  0  0  0
 20 31  1  0  0  0  0
 20 19  1  0  0  0  0
 21 33  1  0  0  0  0
 21 20  1  0  0  0  0
 22 35  1  0  0  0  0
 22 21  1  0  0  0  0
 23 24  2  0  0  0  0
 23 37  1  0  0  0  0
 30 19  1  0  0  0  0
 32 20  1  0  0  0  0
 34 21  1  0  0  0  0
 36 22  1  0  0  0  0
 37 38  1  0  0  0  0
 38 50  1  1  0  0  0
 38 46  1  0  0  0  0
 39 38  1  0  0  0  0
 39 40  1  0  0  0  0
 40 41  2  0  0  0  0
 40 45  1  0  0  0  0
 41 42  1  0  0  0  0
 42 54  1  0  0  0  0
 42 43  2  0  0  0  0
 43 55  1  0  0  0  0
 44 43  1  0  0  0  0
 44 56  1  0  0  0  0
 45 44  2  0  0  0  0
 46 48  1  0  0  0  0
 47 46  2  0  0  0  0
 49 37  1  0  0  0  0
 51 39  1  0  0  0  0
 52 39  1  0  0  0  0
 53 41  1  0  0  0  0
 57 45  1  0  0  0  0
M  END
$$$$
