TKG.pdb
 OpenBabel07022419133D

 44 43  0  0  1  0  0  0  0  0999 V2000
    0.0980   -2.5410    4.1970 C   0  0  0  0  0  0  0  0  0  0  0  0
    0.2950   -3.7150    3.2890 C   0  0  1  0  0  0  0  0  0  0  0  0
   -0.9440   -4.3330    3.0620 O   0  0  0  0  0  0  0  0  0  0  0  0
    0.9730   -3.3520    1.9880 C   0  0  2  0  0  0  0  0  0  0  0  0
    2.2320   -2.7220    2.3000 N   0  0  0  0  0  0  0  0  0  0  0  0
    0.1520   -2.5330    1.0920 C   0  0  0  0  0  0  0  0  0  0  0  0
   -1.0040   -2.9390    0.7960 O   0  0  0  0  0  0  0  0  0  0  0  0
   -0.1370   -2.9450    5.2210 H   0  0  0  0  0  0  0  0  0  0  0  0
    0.9630   -1.8720    4.2530 H   0  0  0  0  0  0  0  0  0  0  0  0
   -0.8000   -1.9760    3.8720 H   0  0  0  0  0  0  0  0  0  0  0  0
    0.9780   -4.4710    3.7760 H   0  0  0  0  0  0  0  0  0  0  0  0
   -1.5970   -4.1110    3.7940 H   0  0  0  0  0  0  0  0  0  0  0  0
    1.2240   -4.2980    1.4510 H   0  0  0  0  0  0  0  0  0  0  0  0
    2.8340   -3.2740    2.9150 H   0  0  0  0  0  0  0  0  0  0  0  0
    2.1640   -1.7220    2.5170 H   0  0  0  0  0  0  0  0  0  0  0  0
    0.5520   -1.2890    0.5090 N   0  0  0  0  0  0  0  0  0  0  0  0
   -0.2810   -0.5310   -0.3570 C   0  0  1  0  0  0  0  0  0  0  0  0
   -0.8070    0.6950    0.2570 C   0  0  0  0  0  0  0  0  0  0  0  0
    0.0680    1.7680    0.7270 C   0  0  0  0  0  0  0  0  0  0  0  0
    1.0600    1.5380    1.7880 C   0  0  0  0  0  0  0  0  0  0  0  0
    0.4900    1.0420    3.0980 C   0  0  0  0  0  0  0  0  0  0  0  0
    1.5460    0.8490    4.0750 N   0  0  0  0  0  0  0  0  0  0  0  0
    0.3310   -0.3130   -1.6980 C   0  0  0  0  0  0  0  0  0  0  0  0
    1.4590   -0.7540   -2.0210 O   0  0  0  0  0  0  0  0  0  0  0  0
    1.5020   -0.9730    0.7390 H   0  0  0  0  0  0  0  0  0  0  0  0
   -1.1990   -1.1940   -0.5410 H   0  0  0  0  0  0  0  0  0  0  0  0
   -1.6510    1.0850   -0.4020 H   0  0  0  0  0  0  0  0  0  0  0  0
   -1.4080    0.3450    1.1710 H   0  0  0  0  0  0  0  0  0  0  0  0
   -0.6160    2.6020    1.1060 H   0  0  0  0  0  0  0  0  0  0  0  0
    0.6160    2.2970   -0.1110 H   0  0  0  0  0  0  0  0  0  0  0  0
    1.4260    2.6060    2.0730 H   0  0  0  0  0  0  0  0  0  0  0  0
    2.0110    1.0570    1.5210 H   0  0  0  0  0  0  0  0  0  0  0  0
   -0.2300    1.7380    3.5400 H   0  0  0  0  0  0  0  0  0  0  0  0
    0.0330    0.0520    2.9080 H   0  0  0  0  0  0  0  0  0  0  0  0
    2.3850    0.3960    3.6370 H   0  0  0  0  0  0  0  0  0  0  0  0
    1.9050    1.7730    4.4450 H   0  0  0  0  0  0  0  0  0  0  0  0
   -0.3740    0.4290   -2.6900 N   0  0  0  0  0  0  0  0  0  0  0  0
    0.1740    0.6700   -4.0060 C   0  0  0  0  0  0  0  0  0  0  0  0
   -0.7720    1.4600   -4.8080 C   0  0  0  0  0  0  0  0  0  0  0  0
   -0.5390    1.8100   -6.0020 O   0  0  0  0  0  0  0  0  0  0  0  0
   -1.9760    1.8460   -4.2490 O   0  0  0  0  0  0  0  0  0  0  0  0
   -1.3330    0.8340   -2.4920 H   0  0  0  0  0  0  0  0  0  0  0  0
    1.0990    1.2860   -3.8950 H   0  0  0  0  0  0  0  0  0  0  0  0
    0.4880   -0.2690   -4.5070 H   0  0  0  0  0  0  0  0  0  0  0  0
  1  9  1  0  0  0  0
  1  8  1  0  0  0  0
  2 11  1  1  0  0  0
  2  1  1  0  0  0  0
  3  2  1  0  0  0  0
  3 12  1  0  0  0  0
  4 13  1  6  0  0  0
  4  5  1  0  0  0  0
  4  2  1  0  0  0  0
  5 15  1  0  0  0  0
  5 14  1  0  0  0  0
  6  4  1  0  0  0  0
  7  6  2  0  0  0  0
 10  1  1  0  0  0  0
 16 25  1  0  0  0  0
 16  6  1  0  0  0  0
 17 26  1  6  0  0  0
 17 18  1  0  0  0  0
 17 16  1  0  0  0  0
 18 19  1  0  0  0  0
 18 28  1  0  0  0  0
 19 29  1  0  0  0  0
 19 20  1  0  0  0  0
 20 31  1  0  0  0  0
 20 21  1  0  0  0  0
 21 33  1  0  0  0  0
 21 22  1  0  0  0  0
 22 36  1  0  0  0  0
 23 17  1  0  0  0  0
 24 23  2  0  0  0  0
 27 18  1  0  0  0  0
 30 19  1  0  0  0  0
 32 20  1  0  0  0  0
 34 21  1  0  0  0  0
 35 22  1  0  0  0  0
 37 42  1  0  0  0  0
 37 23  1  0  0  0  0
 38 43  1  0  0  0  0
 38 37  1  0  0  0  0
 39 41  1  0  0  0  0
 39 38  1  0  0  0  0
 40 39  2  0  0  0  0
 44 38  1  0  0  0  0
M  END
$$$$
