TKH.pdb
 OpenBabel07022419133D

 54 54  0  0  1  0  0  0  0  0999 V2000
    3.3530   -5.0880    4.4730 C   0  0  0  0  0  0  0  0  0  0  0  0
    2.6070   -3.7920    4.1320 C   0  0  1  0  0  0  0  0  0  0  0  0
    3.3920   -2.6980    4.3910 O   0  0  0  0  0  0  0  0  0  0  0  0
    2.1970   -3.9170    2.6810 C   0  0  2  0  0  0  0  0  0  0  0  0
    3.3540   -4.0330    1.8150 N   0  0  0  0  0  0  0  0  0  0  0  0
    1.3120   -2.8260    2.2400 C   0  0  0  0  0  0  0  0  0  0  0  0
    0.2550   -2.5710    2.8660 O   0  0  0  0  0  0  0  0  0  0  0  0
    3.9760   -4.9460    5.3790 H   0  0  0  0  0  0  0  0  0  0  0  0
    4.0220   -5.3800    3.6470 H   0  0  0  0  0  0  0  0  0  0  0  0
    2.6040   -5.8740    4.7180 H   0  0  0  0  0  0  0  0  0  0  0  0
    1.7200   -3.7840    4.7970 H   0  0  0  0  0  0  0  0  0  0  0  0
    4.3630   -2.9300    4.3220 H   0  0  0  0  0  0  0  0  0  0  0  0
    1.6480   -4.8850    2.5950 H   0  0  0  0  0  0  0  0  0  0  0  0
    3.3680   -4.9040    1.2570 H   0  0  0  0  0  0  0  0  0  0  0  0
    4.2510   -3.8420    2.3250 H   0  0  0  0  0  0  0  0  0  0  0  0
    1.6180   -2.0340    1.1080 N   0  0  0  0  0  0  0  0  0  0  0  0
    0.6630   -0.9550    0.7390 C   0  0  1  0  0  0  0  0  0  0  0  0
    1.4450    0.3090    0.9110 C   0  0  0  0  0  0  0  0  0  0  0  0
    0.7460    1.5820    0.6270 C   0  0  0  0  0  0  0  0  0  0  0  0
   -0.4630    1.8170    1.5010 C   0  0  0  0  0  0  0  0  0  0  0  0
   -1.1260    3.1310    1.1460 C   0  0  0  0  0  0  0  0  0  0  0  0
   -2.2790    3.3570    1.9780 N   0  0  0  0  0  0  0  0  0  0  0  0
    0.2620   -1.1270   -0.6700 C   0  0  0  0  0  0  0  0  0  0  0  0
    0.8440   -2.0320   -1.3460 O   0  0  0  0  0  0  0  0  0  0  0  0
    2.4670   -2.1680    0.5270 H   0  0  0  0  0  0  0  0  0  0  0  0
   -0.1870   -0.9390    1.4500 H   0  0  0  0  0  0  0  0  0  0  0  0
    2.3180    0.2510    0.1990 H   0  0  0  0  0  0  0  0  0  0  0  0
    1.9060    0.3840    1.9200 H   0  0  0  0  0  0  0  0  0  0  0  0
    0.5220    1.8180   -0.4100 H   0  0  0  0  0  0  0  0  0  0  0  0
    1.4770    2.4030    0.9420 H   0  0  0  0  0  0  0  0  0  0  0  0
   -0.1540    1.9390    2.5830 H   0  0  0  0  0  0  0  0  0  0  0  0
   -1.1810    0.9980    1.4060 H   0  0  0  0  0  0  0  0  0  0  0  0
   -0.4010    3.9780    1.1900 H   0  0  0  0  0  0  0  0  0  0  0  0
   -1.4450    3.0980    0.0630 H   0  0  0  0  0  0  0  0  0  0  0  0
   -2.4040    2.5390    2.5970 H   0  0  0  0  0  0  0  0  0  0  0  0
   -2.0620    4.1820    2.5960 H   0  0  0  0  0  0  0  0  0  0  0  0
   -0.7180   -0.3840   -1.3610 N   0  0  0  0  0  0  0  0  0  0  0  0
   -1.0130   -0.6620   -2.7700 C   0  0  1  0  0  0  0  0  0  0  0  0
   -2.4620   -1.1340   -2.8600 C   0  0  0  0  0  0  0  0  0  0  0  0
   -3.3900   -0.0900   -2.3520 C   0  0  0  0  0  0  0  0  0  0  0  0
   -3.7820   -0.0050   -1.0340 C   0  0  0  0  0  0  0  0  0  0  0  0
   -4.6130    1.0490   -0.9460 N   0  0  0  0  0  0  0  0  0  0  0  0
   -4.7430    1.6110   -2.1640 C   0  0  0  0  0  0  0  0  0  0  0  0
   -3.9900    0.9080   -3.0210 N   0  0  0  0  0  0  0  0  0  0  0  0
   -0.7880    0.5340   -3.6030 C   0  0  0  0  0  0  0  0  0  0  0  0
   -0.3940    1.6050   -3.0760 O   0  0  0  0  0  0  0  0  0  0  0  0
   -0.9930    0.5400   -4.9720 O   0  0  0  0  0  0  0  0  0  0  0  0
   -1.2340    0.3490   -0.8710 H   0  0  0  0  0  0  0  0  0  0  0  0
   -0.3800   -1.4840   -3.1430 H   0  0  0  0  0  0  0  0  0  0  0  0
   -2.7340   -1.3450   -3.9040 H   0  0  0  0  0  0  0  0  0  0  0  0
   -2.5930   -2.0560   -2.2580 H   0  0  0  0  0  0  0  0  0  0  0  0
   -3.4750   -0.6670   -0.2220 H   0  0  0  0  0  0  0  0  0  0  0  0
   -5.0910    1.3980   -0.0950 H   0  0  0  0  0  0  0  0  0  0  0  0
   -5.3290    2.4700   -2.4610 H   0  0  0  0  0  0  0  0  0  0  0  0
  1 10  1  0  0  0  0
  1  8  1  0  0  0  0
  2  3  1  0  0  0  0
  2  1  1  0  0  0  0
  2 11  1  1  0  0  0
  4 13  1  6  0  0  0
  4  2  1  0  0  0  0
  5 15  1  0  0  0  0
  5  4  1  0  0  0  0
  6  4  1  0  0  0  0
  6  7  2  0  0  0  0
  9  1  1  0  0  0  0
 12  3  1  0  0  0  0
 14  5  1  0  0  0  0
 16  6  1  0  0  0  0
 17 18  1  0  0  0  0
 17 16  1  0  0  0  0
 17 26  1  1  0  0  0
 18 28  1  0  0  0  0
 19 18  1  0  0  0  0
 19 30  1  0  0  0  0
 19 20  1  0  0  0  0
 20 31  1  0  0  0  0
 21 33  1  0  0  0  0
 21 20  1  0  0  0  0
 21 22  1  0  0  0  0
 22 36  1  0  0  0  0
 22 35  1  0  0  0  0
 23 17  1  0  0  0  0
 24 23  2  0  0  0  0
 25 16  1  0  0  0  0
 27 18  1  0  0  0  0
 29 19  1  0  0  0  0
 32 20  1  0  0  0  0
 34 21  1  0  0  0  0
 37 48  1  0  0  0  0
 37 23  1  0  0  0  0
 38 49  1  6  0  0  0
 38 37  1  0  0  0  0
 39 38  1  0  0  0  0
 39 40  1  0  0  0  0
 39 51  1  0  0  0  0
 40 41  2  0  0  0  0
 41 42  1  0  0  0  0
 41 52  1  0  0  0  0
 42 53  1  0  0  0  0
 43 42  1  0  0  0  0
 44 40  1  0  0  0  0
 44 43  2  0  0  0  0
 45 46  1  0  0  0  0
 45 38  1  0  0  0  0
 47 45  2  0  0  0  0
 50 39  1  0  0  0  0
 54 43  1  0  0  0  0
M  END
$$$$
