TKK.pdb
 OpenBabel07022419133D

 58 57  0  0  1  0  0  0  0  0999 V2000
    1.3710   -3.4520    3.3760 C   0  0  0  0  0  0  0  0  0  0  0  0
   -0.0690   -3.0160    3.5440 C   0  0  1  0  0  0  0  0  0  0  0  0
   -0.6010   -3.6490    4.6750 O   0  0  0  0  0  0  0  0  0  0  0  0
   -0.1740   -1.5180    3.7820 C   0  0  2  0  0  0  0  0  0  0  0  0
   -1.5670   -1.1910    3.9600 N   0  0  0  0  0  0  0  0  0  0  0  0
    0.4500   -0.7560    2.6690 C   0  0  0  0  0  0  0  0  0  0  0  0
    1.6610   -0.9870    2.4550 O   0  0  0  0  0  0  0  0  0  0  0  0
    1.4620   -4.5220    3.6780 H   0  0  0  0  0  0  0  0  0  0  0  0
    1.6260   -3.3210    2.3030 H   0  0  0  0  0  0  0  0  0  0  0  0
    1.9960   -2.7880    4.0180 H   0  0  0  0  0  0  0  0  0  0  0  0
   -0.6970   -3.3410    2.6810 H   0  0  0  0  0  0  0  0  0  0  0  0
   -0.3360   -3.1820    5.5180 H   0  0  0  0  0  0  0  0  0  0  0  0
    0.3800   -1.2980    4.7110 H   0  0  0  0  0  0  0  0  0  0  0  0
   -1.8700   -1.4860    4.9150 H   0  0  0  0  0  0  0  0  0  0  0  0
   -2.1920   -1.6890    3.2890 H   0  0  0  0  0  0  0  0  0  0  0  0
   -0.2300    0.1760    1.8760 N   0  0  0  0  0  0  0  0  0  0  0  0
    0.3130    0.9410    0.8080 C   0  0  1  0  0  0  0  0  0  0  0  0
    1.7420    1.2810    0.8000 C   0  0  0  0  0  0  0  0  0  0  0  0
    2.4120    2.1600    1.7340 C   0  0  0  0  0  0  0  0  0  0  0  0
    2.4380    2.0720    3.1780 C   0  0  0  0  0  0  0  0  0  0  0  0
    1.2380    2.3320    3.9960 C   0  0  0  0  0  0  0  0  0  0  0  0
    1.5180    2.1660    5.4350 N   0  0  0  0  0  0  0  0  0  0  0  0
   -0.1960    0.5660   -0.5320 C   0  0  0  0  0  0  0  0  0  0  0  0
    0.2470    1.2050   -1.5150 O   0  0  0  0  0  0  0  0  0  0  0  0
   -1.2650    0.3020    2.1270 H   0  0  0  0  0  0  0  0  0  0  0  0
   -0.1690    2.0140    0.9700 H   0  0  0  0  0  0  0  0  0  0  0  0
    1.9300    1.7520   -0.2600 H   0  0  0  0  0  0  0  0  0  0  0  0
    2.3910    0.3350    0.7210 H   0  0  0  0  0  0  0  0  0  0  0  0
    3.5330    2.1910    1.3690 H   0  0  0  0  0  0  0  0  0  0  0  0
    2.1070    3.2610    1.4170 H   0  0  0  0  0  0  0  0  0  0  0  0
    2.9250    1.1110    3.5200 H   0  0  0  0  0  0  0  0  0  0  0  0
    3.2350    2.8400    3.5510 H   0  0  0  0  0  0  0  0  0  0  0  0
    0.3510    1.7840    3.7580 H   0  0  0  0  0  0  0  0  0  0  0  0
    0.9820    3.4480    3.9200 H   0  0  0  0  0  0  0  0  0  0  0  0
    0.7220    2.6160    5.9390 H   0  0  0  0  0  0  0  0  0  0  0  0
    1.6610    1.1700    5.6680 H   0  0  0  0  0  0  0  0  0  0  0  0
   -1.1410   -0.4630   -0.7490 N   0  0  0  0  0  0  0  0  0  0  0  0
   -1.6250   -0.8080   -2.1070 C   0  0  1  0  0  0  0  0  0  0  0  0
   -1.3140   -2.2440   -2.3890 C   0  0  0  0  0  0  0  0  0  0  0  0
   -1.7450   -2.6970   -3.7290 C   0  0  0  0  0  0  0  0  0  0  0  0
   -1.1290   -1.9170   -4.8620 C   0  0  0  0  0  0  0  0  0  0  0  0
    0.3800   -2.0120   -4.8590 C   0  0  0  0  0  0  0  0  0  0  0  0
    0.8510   -3.3690   -4.9920 N   0  0  0  0  0  0  0  0  0  0  0  0
   -3.0850   -0.6110   -2.0750 C   0  0  0  0  0  0  0  0  0  0  0  0
   -3.7020   -0.3010   -1.0290 O   0  0  0  0  0  0  0  0  0  0  0  0
   -3.8340   -0.7620   -3.2200 O   0  0  0  0  0  0  0  0  0  0  0  0
   -1.4970   -0.9810    0.0740 H   0  0  0  0  0  0  0  0  0  0  0  0
   -1.1410   -0.1570   -2.8560 H   0  0  0  0  0  0  0  0  0  0  0  0
   -1.8940   -2.8390   -1.6200 H   0  0  0  0  0  0  0  0  0  0  0  0
   -0.2490   -2.5020   -2.1950 H   0  0  0  0  0  0  0  0  0  0  0  0
   -2.8340   -2.6620   -3.8310 H   0  0  0  0  0  0  0  0  0  0  0  0
   -1.4670   -3.7780   -3.8980 H   0  0  0  0  0  0  0  0  0  0  0  0
   -1.4120   -0.8630   -4.8450 H   0  0  0  0  0  0  0  0  0  0  0  0
   -1.5120   -2.3480   -5.8090 H   0  0  0  0  0  0  0  0  0  0  0  0
    0.8220   -1.5530   -3.9590 H   0  0  0  0  0  0  0  0  0  0  0  0
    0.7700   -1.4470   -5.7290 H   0  0  0  0  0  0  0  0  0  0  0  0
    1.3720   -3.5340   -5.8940 H   0  0  0  0  0  0  0  0  0  0  0  0
    1.5370   -3.6230   -4.2380 H   0  0  0  0  0  0  0  0  0  0  0  0
  1  2  1  0  0  0  0
  1  8  1  0  0  0  0
  1 10  1  0  0  0  0
  2 11  1  6  0  0  0
  2  4  1  0  0  0  0
  2  3  1  0  0  0  0
  3 12  1  0  0  0  0
  4  5  1  0  0  0  0
  4 13  1  1  0  0  0
  5 14  1  0  0  0  0
  6  4  1  0  0  0  0
  7  6  2  0  0  0  0
  9  1  1  0  0  0  0
 15  5  1  0  0  0  0
 16 25  1  0  0  0  0
 16  6  1  0  0  0  0
 17 26  1  1  0  0  0
 17 16  1  0  0  0  0
 18 17  1  0  0  0  0
 18 19  1  0  0  0  0
 19 20  1  0  0  0  0
 20 31  1  0  0  0  0
 20 32  1  0  0  0  0
 20 21  1  0  0  0  0
 21 22  1  0  0  0  0
 22 36  1  0  0  0  0
 22 35  1  0  0  0  0
 23 17  1  0  0  0  0
 24 23  2  0  0  0  0
 27 18  1  0  0  0  0
 28 18  1  0  0  0  0
 29 19  1  0  0  0  0
 30 19  1  0  0  0  0
 33 21  1  0  0  0  0
 34 21  1  0  0  0  0
 37 23  1  0  0  0  0
 37 47  1  0  0  0  0
 38 48  1  6  0  0  0
 38 44  1  0  0  0  0
 38 37  1  0  0  0  0
 39 50  1  0  0  0  0
 39 38  1  0  0  0  0
 39 49  1  0  0  0  0
 40 39  1  0  0  0  0
 41 42  1  0  0  0  0
 41 53  1  0  0  0  0
 41 40  1  0  0  0  0
 42 55  1  0  0  0  0
 43 42  1  0  0  0  0
 43 58  1  0  0  0  0
 44 45  1  0  0  0  0
 46 44  2  0  0  0  0
 51 40  1  0  0  0  0
 52 40  1  0  0  0  0
 54 41  1  0  0  0  0
 56 42  1  0  0  0  0
 57 43  1  0  0  0  0
M  END
$$$$
