TKV.pdb
 OpenBabel07022419133D

 53 52  0  0  1  0  0  0  0  0999 V2000
   -0.7100   -2.6650    5.3100 C   0  0  0  0  0  0  0  0  0  0  0  0
    0.7280   -2.7380    4.9030 C   0  0  1  0  0  0  0  0  0  0  0  0
    1.2990   -3.8220    5.6100 O   0  0  0  0  0  0  0  0  0  0  0  0
    0.9170   -3.0510    3.4370 C   0  0  2  0  0  0  0  0  0  0  0  0
    2.3380   -3.1690    3.1930 N   0  0  0  0  0  0  0  0  0  0  0  0
    0.2640   -2.0950    2.5450 C   0  0  0  0  0  0  0  0  0  0  0  0
   -0.9660   -1.8910    2.6440 O   0  0  0  0  0  0  0  0  0  0  0  0
   -0.8170   -3.0500    6.3310 H   0  0  0  0  0  0  0  0  0  0  0  0
   -1.0460   -1.6110    5.2970 H   0  0  0  0  0  0  0  0  0  0  0  0
   -1.3920   -3.2250    4.6380 H   0  0  0  0  0  0  0  0  0  0  0  0
    1.2210   -1.7920    5.1340 H   0  0  0  0  0  0  0  0  0  0  0  0
    0.9790   -4.6400    5.1310 H   0  0  0  0  0  0  0  0  0  0  0  0
    0.5000   -4.0910    3.2940 H   0  0  0  0  0  0  0  0  0  0  0  0
    2.4920   -3.4990    2.2090 H   0  0  0  0  0  0  0  0  0  0  0  0
    2.8510   -2.2830    3.3950 H   0  0  0  0  0  0  0  0  0  0  0  0
    0.9990   -1.3910    1.5650 N   0  0  0  0  0  0  0  0  0  0  0  0
    0.3880   -0.4360    0.6650 C   0  0  1  0  0  0  0  0  0  0  0  0
    1.0520    0.9040    0.6670 C   0  0  0  0  0  0  0  0  0  0  0  0
    1.0100    1.5230    2.0230 C   0  0  0  0  0  0  0  0  0  0  0  0
   -0.3630    1.7580    2.5650 C   0  0  0  0  0  0  0  0  0  0  0  0
   -1.1770    2.6820    1.6830 C   0  0  0  0  0  0  0  0  0  0  0  0
   -2.4930    2.9090    2.1980 N   0  0  0  0  0  0  0  0  0  0  0  0
    0.4490   -0.9800   -0.7450 C   0  0  0  0  0  0  0  0  0  0  0  0
    0.9770   -2.1050   -0.9580 O   0  0  0  0  0  0  0  0  0  0  0  0
    2.0230   -1.5720    1.4930 H   0  0  0  0  0  0  0  0  0  0  0  0
   -0.6850   -0.3040    0.8810 H   0  0  0  0  0  0  0  0  0  0  0  0
    0.5350    1.5320   -0.0820 H   0  0  0  0  0  0  0  0  0  0  0  0
    2.1110    0.8490    0.3490 H   0  0  0  0  0  0  0  0  0  0  0  0
    1.5620    2.4820    2.0780 H   0  0  0  0  0  0  0  0  0  0  0  0
    1.5310    0.8370    2.7320 H   0  0  0  0  0  0  0  0  0  0  0  0
   -0.2310    2.3100    3.5380 H   0  0  0  0  0  0  0  0  0  0  0  0
   -0.9080    0.8390    2.8210 H   0  0  0  0  0  0  0  0  0  0  0  0
   -1.2750    2.2780    0.6510 H   0  0  0  0  0  0  0  0  0  0  0  0
   -0.6850    3.6700    1.5760 H   0  0  0  0  0  0  0  0  0  0  0  0
   -2.5670    2.7650    3.2280 H   0  0  0  0  0  0  0  0  0  0  0  0
   -2.9010    3.8190    1.9010 H   0  0  0  0  0  0  0  0  0  0  0  0
   -2.1450   -1.9800   -2.8650 C   0  0  0  0  0  0  0  0  0  0  0  0
   -1.3640   -1.0190   -3.7700 C   0  0  0  0  0  0  0  0  0  0  0  0
   -1.1670   -1.7560   -5.0760 C   0  0  0  0  0  0  0  0  0  0  0  0
    0.0020   -0.8060   -3.1640 C   0  0  2  0  0  0  0  0  0  0  0  0
   -0.0810   -0.2380   -1.8330 N   0  0  0  0  0  0  0  0  0  0  0  0
    0.8340    0.0610   -4.0370 C   0  0  0  0  0  0  0  0  0  0  0  0
    1.3520    1.1350   -3.5860 O   0  0  0  0  0  0  0  0  0  0  0  0
    1.0890   -0.2390   -5.3640 O   0  0  0  0  0  0  0  0  0  0  0  0
   -1.8040   -3.0220   -3.0350 H   0  0  0  0  0  0  0  0  0  0  0  0
   -2.0100   -1.7460   -1.8070 H   0  0  0  0  0  0  0  0  0  0  0  0
   -3.2340   -1.9360   -3.0990 H   0  0  0  0  0  0  0  0  0  0  0  0
   -1.9240   -0.0740   -3.9000 H   0  0  0  0  0  0  0  0  0  0  0  0
   -1.9880   -2.4790   -5.2680 H   0  0  0  0  0  0  0  0  0  0  0  0
   -1.0130   -1.0670   -5.9380 H   0  0  0  0  0  0  0  0  0  0  0  0
   -0.2470   -2.3660   -4.9770 H   0  0  0  0  0  0  0  0  0  0  0  0
    0.4960   -1.7980   -3.1350 H   0  0  0  0  0  0  0  0  0  0  0  0
   -0.5070    0.6770   -1.6380 H   0  0  0  0  0  0  0  0  0  0  0  0
  1  8  1  0  0  0  0
  2 11  1  1  0  0  0
  2  1  1  0  0  0  0
  2  3  1  0  0  0  0
  4 13  1  6  0  0  0
  4  2  1  0  0  0  0
  5 15  1  0  0  0  0
  5  4  1  0  0  0  0
  6  7  2  0  0  0  0
  6  4  1  0  0  0  0
  9  1  1  0  0  0  0
 10  1  1  0  0  0  0
 12  3  1  0  0  0  0
 14  5  1  0  0  0  0
 16  6  1  0  0  0  0
 17 18  1  0  0  0  0
 17 26  1  1  0  0  0
 17 16  1  0  0  0  0
 18 19  1  0  0  0  0
 19 29  1  0  0  0  0
 19 20  1  0  0  0  0
 19 30  1  0  0  0  0
 20 32  1  0  0  0  0
 20 31  1  0  0  0  0
 21 22  1  0  0  0  0
 21 20  1  0  0  0  0
 22 35  1  0  0  0  0
 23 17  1  0  0  0  0
 24 23  2  0  0  0  0
 25 16  1  0  0  0  0
 27 18  1  0  0  0  0
 28 18  1  0  0  0  0
 33 21  1  0  0  0  0
 34 21  1  0  0  0  0
 36 22  1  0  0  0  0
 37 46  1  0  0  0  0
 38 40  1  0  0  0  0
 38 37  1  0  0  0  0
 39 51  1  0  0  0  0
 39 38  1  0  0  0  0
 40 52  1  1  0  0  0
 40 41  1  0  0  0  0
 41 53  1  0  0  0  0
 41 23  1  0  0  0  0
 42 43  1  0  0  0  0
 42 40  1  0  0  0  0
 44 42  2  0  0  0  0
 45 37  1  0  0  0  0
 47 37  1  0  0  0  0
 48 38  1  0  0  0  0
 49 39  1  0  0  0  0
 50 39  1  0  0  0  0
M  END
$$$$
