TKW.pdb
 OpenBabel07022419133D

 61 62  0  0  1  0  0  0  0  0999 V2000
    0.6140   -1.3890    4.1150 C   0  0  0  0  0  0  0  0  0  0  0  0
    1.8000   -1.5940    3.1970 C   0  0  1  0  0  0  0  0  0  0  0  0
    1.4090   -2.2490    2.0460 O   0  0  0  0  0  0  0  0  0  0  0  0
    2.6240   -0.3780    3.0020 C   0  0  2  0  0  0  0  0  0  0  0  0
    2.9320    0.1400    4.3380 N   0  0  0  0  0  0  0  0  0  0  0  0
    2.0710    0.6960    2.2000 C   0  0  0  0  0  0  0  0  0  0  0  0
    2.0010    1.8610    2.7330 O   0  0  0  0  0  0  0  0  0  0  0  0
    0.0390   -0.4900    3.9170 H   0  0  0  0  0  0  0  0  0  0  0  0
   -0.0260   -2.3050    3.9920 H   0  0  0  0  0  0  0  0  0  0  0  0
    0.9340   -1.3660    5.1790 H   0  0  0  0  0  0  0  0  0  0  0  0
    2.4590   -2.3360    3.7440 H   0  0  0  0  0  0  0  0  0  0  0  0
    2.0280   -2.9550    1.7850 H   0  0  0  0  0  0  0  0  0  0  0  0
    3.6200   -0.7360    2.5930 H   0  0  0  0  0  0  0  0  0  0  0  0
    2.1190    0.7290    4.6720 H   0  0  0  0  0  0  0  0  0  0  0  0
    3.1190   -0.6530    4.9930 H   0  0  0  0  0  0  0  0  0  0  0  0
    1.6040    0.5460    0.8700 N   0  0  0  0  0  0  0  0  0  0  0  0
    1.0550    1.7240    0.1110 C   0  0  1  0  0  0  0  0  0  0  0  0
    1.8030    1.7360   -1.1580 C   0  0  0  0  0  0  0  0  0  0  0  0
    1.6410    2.7480   -2.1880 C   0  0  0  0  0  0  0  0  0  0  0  0
    0.3710    2.9930   -2.8820 C   0  0  0  0  0  0  0  0  0  0  0  0
   -0.2240    1.8030   -3.6030 C   0  0  0  0  0  0  0  0  0  0  0  0
    0.6890    1.3070   -4.6310 N   0  0  0  0  0  0  0  0  0  0  0  0
   -0.3880    1.4080   -0.0560 C   0  0  0  0  0  0  0  0  0  0  0  0
   -1.2410    2.1780   -0.5650 O   0  0  0  0  0  0  0  0  0  0  0  0
    1.6490   -0.3690    0.4290 H   0  0  0  0  0  0  0  0  0  0  0  0
    1.1730    2.5960    0.7490 H   0  0  0  0  0  0  0  0  0  0  0  0
    2.9250    1.7330   -0.8920 H   0  0  0  0  0  0  0  0  0  0  0  0
    1.7250    0.6910   -1.6330 H   0  0  0  0  0  0  0  0  0  0  0  0
    1.9860    3.7550   -1.7900 H   0  0  0  0  0  0  0  0  0  0  0  0
    2.4150    2.5340   -2.9900 H   0  0  0  0  0  0  0  0  0  0  0  0
    0.6850    3.6740   -3.7910 H   0  0  0  0  0  0  0  0  0  0  0  0
   -0.3610    3.6590   -2.4030 H   0  0  0  0  0  0  0  0  0  0  0  0
   -0.5530    0.9960   -2.9450 H   0  0  0  0  0  0  0  0  0  0  0  0
   -1.1220    2.1810   -4.1470 H   0  0  0  0  0  0  0  0  0  0  0  0
    1.5470    0.8990   -4.2390 H   0  0  0  0  0  0  0  0  0  0  0  0
    0.8820    2.0210   -5.3460 H   0  0  0  0  0  0  0  0  0  0  0  0
   -0.9310    0.1500    0.3720 N   0  0  0  0  0  0  0  0  0  0  0  0
   -2.3630   -0.1630    0.2040 C   0  0  1  0  0  0  0  0  0  0  0  0
   -2.4530   -1.2940   -0.7870 C   0  0  0  0  0  0  0  0  0  0  0  0
   -1.7210   -2.5200   -0.3690 C   0  0  0  0  0  0  0  0  0  0  0  0
   -0.4210   -2.8570   -0.7320 C   0  0  0  0  0  0  0  0  0  0  0  0
   -0.0970   -3.9930   -0.1310 N   0  0  0  0  0  0  0  0  0  0  0  0
   -1.1400   -4.4360    0.6260 C   0  0  0  0  0  0  0  0  0  0  0  0
   -1.2610   -5.5750    1.4160 C   0  0  0  0  0  0  0  0  0  0  0  0
   -2.4480   -5.7920    2.0760 C   0  0  0  0  0  0  0  0  0  0  0  0
   -3.4570   -4.8700    1.9210 C   0  0  0  0  0  0  0  0  0  0  0  0
   -3.3590   -3.7400    1.1470 C   0  0  0  0  0  0  0  0  0  0  0  0
   -2.1540   -3.5130    0.4750 C   0  0  0  0  0  0  0  0  0  0  0  0
   -3.0370   -0.3390    1.4730 C   0  0  0  0  0  0  0  0  0  0  0  0
   -2.3680   -0.3530    2.5440 O   0  0  0  0  0  0  0  0  0  0  0  0
   -4.4050   -0.4950    1.5970 O   0  0  0  0  0  0  0  0  0  0  0  0
   -0.3150   -0.5550    0.8070 H   0  0  0  0  0  0  0  0  0  0  0  0
   -2.8550    0.7150   -0.3240 H   0  0  0  0  0  0  0  0  0  0  0  0
   -3.5240   -1.5710   -0.8980 H   0  0  0  0  0  0  0  0  0  0  0  0
   -2.0230   -0.9680   -1.7550 H   0  0  0  0  0  0  0  0  0  0  0  0
    0.2030   -2.2790   -1.3910 H   0  0  0  0  0  0  0  0  0  0  0  0
    0.8120   -4.5330   -0.1850 H   0  0  0  0  0  0  0  0  0  0  0  0
   -0.4430   -6.2780    1.5120 H   0  0  0  0  0  0  0  0  0  0  0  0
   -2.6010   -6.6760    2.7150 H   0  0  0  0  0  0  0  0  0  0  0  0
   -4.3850   -5.0590    2.4480 H   0  0  0  0  0  0  0  0  0  0  0  0
   -4.1640   -3.0440    1.0290 H   0  0  0  0  0  0  0  0  0  0  0  0
  1 10  1  0  0  0  0
  2 11  1  1  0  0  0
  2  1  1  0  0  0  0
  3  2  1  0  0  0  0
  4 13  1  6  0  0  0
  4  2  1  0  0  0  0
  4  5  1  0  0  0  0
  5 14  1  0  0  0  0
  5 15  1  0  0  0  0
  6  7  2  0  0  0  0
  6  4  1  0  0  0  0
  8  1  1  0  0  0  0
  9  1  1  0  0  0  0
 12  3  1  0  0  0  0
 16  6  1  0  0  0  0
 17 26  1  1  0  0  0
 17 16  1  0  0  0  0
 18 27  1  0  0  0  0
 18 17  1  0  0  0  0
 19 29  1  0  0  0  0
 19 18  1  0  0  0  0
 20 32  1  0  0  0  0
 20 19  1  0  0  0  0
 21 33  1  0  0  0  0
 21 20  1  0  0  0  0
 22 35  1  0  0  0  0
 22 21  1  0  0  0  0
 23 17  1  0  0  0  0
 23 37  1  0  0  0  0
 24 23  2  0  0  0  0
 25 16  1  0  0  0  0
 28 18  1  0  0  0  0
 30 19  1  0  0  0  0
 31 20  1  0  0  0  0
 34 21  1  0  0  0  0
 36 22  1  0  0  0  0
 37 52  1  0  0  0  0
 38 53  1  6  0  0  0
 38 37  1  0  0  0  0
 38 49  1  0  0  0  0
 39 40  1  0  0  0  0
 39 38  1  0  0  0  0
 40 48  1  0  0  0  0
 41 40  2  0  0  0  0
 41 42  1  0  0  0  0
 42 43  1  0  0  0  0
 43 44  1  0  0  0  0
 44 58  1  0  0  0  0
 44 45  2  0  0  0  0
 45 59  1  0  0  0  0
 46 45  1  0  0  0  0
 46 60  1  0  0  0  0
 47 46  2  0  0  0  0
 48 43  2  0  0  0  0
 48 47  1  0  0  0  0
 49 51  2  0  0  0  0
 49 50  1  0  0  0  0
 54 39  1  0  0  0  0
 55 39  1  0  0  0  0
 56 41  1  0  0  0  0
 57 42  1  0  0  0  0
 61 47  1  0  0  0  0
M  END
$$$$
