TLA.pdb
 OpenBabel07022419133D

 45 44  0  0  1  0  0  0  0  0999 V2000
    4.8610   -3.8580    0.8130 C   0  0  0  0  0  0  0  0  0  0  0  0
    3.6870   -3.0960    1.3690 C   0  0  1  0  0  0  0  0  0  0  0  0
    4.0010   -1.7430    1.5770 O   0  0  0  0  0  0  0  0  0  0  0  0
    2.4700   -3.2120    0.4490 C   0  0  2  0  0  0  0  0  0  0  0  0
    2.8210   -2.5800   -0.7950 N   0  0  0  0  0  0  0  0  0  0  0  0
    1.3680   -2.4840    1.1410 C   0  0  0  0  0  0  0  0  0  0  0  0
    0.9550   -2.8990    2.2310 O   0  0  0  0  0  0  0  0  0  0  0  0
    5.3740   -4.3600    1.6560 H   0  0  0  0  0  0  0  0  0  0  0  0
    4.4550   -4.5900    0.0800 H   0  0  0  0  0  0  0  0  0  0  0  0
    5.6170   -3.1890    0.3490 H   0  0  0  0  0  0  0  0  0  0  0  0
    3.4630   -3.5120    2.3720 H   0  0  0  0  0  0  0  0  0  0  0  0
    4.2500   -1.5480    2.5080 H   0  0  0  0  0  0  0  0  0  0  0  0
    2.2390   -4.2850    0.3260 H   0  0  0  0  0  0  0  0  0  0  0  0
    3.1200   -3.2450   -1.5320 H   0  0  0  0  0  0  0  0  0  0  0  0
    3.5000   -1.7920   -0.6900 H   0  0  0  0  0  0  0  0  0  0  0  0
    0.8400    3.0730    1.6820 C   0  0  0  0  0  0  0  0  0  0  0  0
    0.5610    1.7870    0.8730 C   0  0  0  0  0  0  0  0  0  0  0  0
    1.8890    1.3690    0.2840 C   0  0  0  0  0  0  0  0  0  0  0  0
    0.0480    0.7410    1.7810 C   0  0  0  0  0  0  0  0  0  0  0  0
   -0.3080   -0.5800    1.2310 C   0  0  2  0  0  0  0  0  0  0  0  0
    0.7620   -1.3100    0.5870 N   0  0  0  0  0  0  0  0  0  0  0  0
   -1.5480   -0.6000    0.4310 C   0  0  0  0  0  0  0  0  0  0  0  0
   -1.5290   -1.2150   -0.6590 O   0  0  0  0  0  0  0  0  0  0  0  0
   -0.0990    3.4130    2.1910 H   0  0  0  0  0  0  0  0  0  0  0  0
    1.1930    3.8760    1.0270 H   0  0  0  0  0  0  0  0  0  0  0  0
    1.5390    2.8170    2.5050 H   0  0  0  0  0  0  0  0  0  0  0  0
   -0.1130    2.0920    0.0710 H   0  0  0  0  0  0  0  0  0  0  0  0
    2.4060    0.5920    0.8490 H   0  0  0  0  0  0  0  0  0  0  0  0
    2.5750    2.2680    0.3440 H   0  0  0  0  0  0  0  0  0  0  0  0
    1.8070    1.1820   -0.8150 H   0  0  0  0  0  0  0  0  0  0  0  0
   -0.8560    1.1700    2.3060 H   0  0  0  0  0  0  0  0  0  0  0  0
    0.7700    0.5660    2.6340 H   0  0  0  0  0  0  0  0  0  0  0  0
   -0.5590   -1.2250    2.1390 H   0  0  0  0  0  0  0  0  0  0  0  0
    1.1730   -1.0380   -0.3510 H   0  0  0  0  0  0  0  0  0  0  0  0
   -5.0470   -0.7030    0.7280 C   0  0  0  0  0  0  0  0  0  0  0  0
   -3.8990   -0.0170    0.0260 C   0  0  2  0  0  0  0  0  0  0  0  0
   -2.7210    0.0380    0.8520 N   0  0  0  0  0  0  0  0  0  0  0  0
   -4.3560    1.3600   -0.3020 C   0  0  0  0  0  0  0  0  0  0  0  0
   -3.7180    2.3440    0.1390 O   0  0  0  0  0  0  0  0  0  0  0  0
   -5.4790    1.5640   -1.0890 O   0  0  0  0  0  0  0  0  0  0  0  0
   -4.7050   -1.4840    1.4360 H   0  0  0  0  0  0  0  0  0  0  0  0
   -5.6400    0.0260    1.3190 H   0  0  0  0  0  0  0  0  0  0  0  0
   -5.7690   -1.1600    0.0100 H   0  0  0  0  0  0  0  0  0  0  0  0
   -3.7070   -0.5890   -0.8990 H   0  0  0  0  0  0  0  0  0  0  0  0
   -2.7900    0.5720    1.7710 H   0  0  0  0  0  0  0  0  0  0  0  0
  1  2  1  0  0  0  0
  1  8  1  0  0  0  0
  2  3  1  0  0  0  0
  2 11  1  1  0  0  0
  3 12  1  0  0  0  0
  4 13  1  6  0  0  0
  4  6  1  0  0  0  0
  4  2  1  0  0  0  0
  5 15  1  0  0  0  0
  5  4  1  0  0  0  0
  6  7  2  0  0  0  0
  9  1  1  0  0  0  0
 10  1  1  0  0  0  0
 14  5  1  0  0  0  0
 16 24  1  0  0  0  0
 16 26  1  0  0  0  0
 17 16  1  0  0  0  0
 17 19  1  0  0  0  0
 18 29  1  0  0  0  0
 18 28  1  0  0  0  0
 18 17  1  0  0  0  0
 19 31  1  0  0  0  0
 19 32  1  0  0  0  0
 20 19  1  0  0  0  0
 20 33  1  1  0  0  0
 21  6  1  0  0  0  0
 21 20  1  0  0  0  0
 22 37  1  0  0  0  0
 22 20  1  0  0  0  0
 23 22  2  0  0  0  0
 25 16  1  0  0  0  0
 27 17  1  0  0  0  0
 30 18  1  0  0  0  0
 34 21  1  0  0  0  0
 35 42  1  0  0  0  0
 35 41  1  0  0  0  0
 36 44  1  6  0  0  0
 36 35  1  0  0  0  0
 36 37  1  0  0  0  0
 37 45  1  0  0  0  0
 38 36  1  0  0  0  0
 38 39  1  0  0  0  0
 40 38  2  0  0  0  0
 43 35  1  0  0  0  0
M  END
$$$$
