TLI.pdb
 OpenBabel07022419133D

 54 53  0  0  1  0  0  0  0  0999 V2000
    0.4480   -4.1270    1.0660 C   0  0  0  0  0  0  0  0  0  0  0  0
    1.4570   -4.2770    2.1330 C   0  0  1  0  0  0  0  0  0  0  0  0
    2.0100   -5.5760    2.0260 O   0  0  0  0  0  0  0  0  0  0  0  0
    2.5280   -3.2590    2.2480 C   0  0  2  0  0  0  0  0  0  0  0  0
    3.3110   -3.5910    3.4730 N   0  0  0  0  0  0  0  0  0  0  0  0
    2.1200   -1.8570    2.3070 C   0  0  0  0  0  0  0  0  0  0  0  0
    2.2090   -1.1540    3.3590 O   0  0  0  0  0  0  0  0  0  0  0  0
   -0.0220   -5.1560    0.9330 H   0  0  0  0  0  0  0  0  0  0  0  0
   -0.4530   -3.5220    1.3900 H   0  0  0  0  0  0  0  0  0  0  0  0
    0.8090   -3.8790    0.0650 H   0  0  0  0  0  0  0  0  0  0  0  0
    0.8950   -4.3120    3.1140 H   0  0  0  0  0  0  0  0  0  0  0  0
    1.2800   -6.2420    1.9600 H   0  0  0  0  0  0  0  0  0  0  0  0
    3.2490   -3.3830    1.4180 H   0  0  0  0  0  0  0  0  0  0  0  0
    2.6220   -3.8350    4.2070 H   0  0  0  0  0  0  0  0  0  0  0  0
    3.7740   -2.6870    3.7470 H   0  0  0  0  0  0  0  0  0  0  0  0
    3.0160    3.3240   -0.1560 C   0  0  0  0  0  0  0  0  0  0  0  0
    1.9090    2.5730    0.5770 C   0  0  0  0  0  0  0  0  0  0  0  0
    1.8660    3.1260    1.9850 C   0  0  0  0  0  0  0  0  0  0  0  0
    2.2230    1.1050    0.5550 C   0  0  0  0  0  0  0  0  0  0  0  0
    1.1870    0.2570    1.2690 C   0  0  2  0  0  0  0  0  0  0  0  0
    1.5910   -1.1620    1.1910 N   0  0  0  0  0  0  0  0  0  0  0  0
   -0.1820    0.4570    0.8050 C   0  0  0  0  0  0  0  0  0  0  0  0
   -0.7480    1.5770    0.8780 O   0  0  0  0  0  0  0  0  0  0  0  0
    3.1310    4.3260    0.3050 H   0  0  0  0  0  0  0  0  0  0  0  0
    2.7550    3.4930   -1.2170 H   0  0  0  0  0  0  0  0  0  0  0  0
    3.9860    2.8030   -0.0220 H   0  0  0  0  0  0  0  0  0  0  0  0
    0.9610    2.8470    0.0700 H   0  0  0  0  0  0  0  0  0  0  0  0
    1.4910    4.1790    1.8990 H   0  0  0  0  0  0  0  0  0  0  0  0
    1.1420    2.5980    2.6250 H   0  0  0  0  0  0  0  0  0  0  0  0
    2.8810    3.1960    2.4250 H   0  0  0  0  0  0  0  0  0  0  0  0
    2.4070    0.7720   -0.4690 H   0  0  0  0  0  0  0  0  0  0  0  0
    3.1790    0.9760    1.1110 H   0  0  0  0  0  0  0  0  0  0  0  0
    1.2640    0.5300    2.3370 H   0  0  0  0  0  0  0  0  0  0  0  0
    1.4670   -1.6170    0.2680 H   0  0  0  0  0  0  0  0  0  0  0  0
   -4.4250    1.0340   -1.8780 C   0  0  0  0  0  0  0  0  0  0  0  0
   -3.8780   -0.3310   -2.1920 C   0  0  0  0  0  0  0  0  0  0  0  0
   -2.4930   -0.5750   -1.6950 C   0  0  2  0  0  0  0  0  0  0  0  0
   -2.1010   -1.9820   -2.0930 C   0  0  0  0  0  0  0  0  0  0  0  0
   -2.3480   -0.3450   -0.2120 C   0  0  2  0  0  0  0  0  0  0  0  0
   -0.9890   -0.5870    0.2340 N   0  0  0  0  0  0  0  0  0  0  0  0
   -3.3200   -1.1420    0.5880 C   0  0  0  0  0  0  0  0  0  0  0  0
   -2.9170   -1.9190    1.5200 O   0  0  0  0  0  0  0  0  0  0  0  0
   -4.6890   -1.1120    0.4010 O   0  0  0  0  0  0  0  0  0  0  0  0
   -5.3690    0.9580   -1.2650 H   0  0  0  0  0  0  0  0  0  0  0  0
   -4.7650    1.5690   -2.8150 H   0  0  0  0  0  0  0  0  0  0  0  0
   -3.6790    1.7030   -1.4110 H   0  0  0  0  0  0  0  0  0  0  0  0
   -3.8180   -0.4060   -3.3190 H   0  0  0  0  0  0  0  0  0  0  0  0
   -4.6120   -1.1200   -1.9200 H   0  0  0  0  0  0  0  0  0  0  0  0
   -1.8110    0.1090   -2.2390 H   0  0  0  0  0  0  0  0  0  0  0  0
   -2.5810   -2.7100   -1.4140 H   0  0  0  0  0  0  0  0  0  0  0  0
   -1.0230   -2.1270   -2.1780 H   0  0  0  0  0  0  0  0  0  0  0  0
   -2.5400   -2.1570   -3.0990 H   0  0  0  0  0  0  0  0  0  0  0  0
   -2.5660    0.7240   -0.0200 H   0  0  0  0  0  0  0  0  0  0  0  0
   -0.5660   -1.5230    0.1460 H   0  0  0  0  0  0  0  0  0  0  0  0
  1  9  1  0  0  0  0
  1  2  1  0  0  0  0
  2  4  1  0  0  0  0
  2 11  1  1  0  0  0
  3  2  1  0  0  0  0
  4 13  1  6  0  0  0
  4  6  1  0  0  0  0
  4  5  1  0  0  0  0
  5 15  1  0  0  0  0
  5 14  1  0  0  0  0
  6  7  2  0  0  0  0
  8  1  1  0  0  0  0
 10  1  1  0  0  0  0
 12  3  1  0  0  0  0
 16 26  1  0  0  0  0
 16 24  1  0  0  0  0
 16 17  1  0  0  0  0
 17 18  1  0  0  0  0
 18 30  1  0  0  0  0
 18 29  1  0  0  0  0
 19 17  1  0  0  0  0
 19 32  1  0  0  0  0
 19 20  1  0  0  0  0
 20 33  1  1  0  0  0
 21 20  1  0  0  0  0
 21  6  1  0  0  0  0
 22 23  2  0  0  0  0
 22 20  1  0  0  0  0
 25 16  1  0  0  0  0
 27 17  1  0  0  0  0
 28 18  1  0  0  0  0
 31 19  1  0  0  0  0
 34 21  1  0  0  0  0
 35 46  1  0  0  0  0
 35 44  1  0  0  0  0
 36 48  1  0  0  0  0
 36 35  1  0  0  0  0
 36 37  1  0  0  0  0
 37 49  1  6  0  0  0
 37 39  1  0  0  0  0
 38 37  1  0  0  0  0
 38 50  1  0  0  0  0
 39 53  1  1  0  0  0
 39 40  1  0  0  0  0
 39 41  1  0  0  0  0
 40 22  1  0  0  0  0
 41 42  1  0  0  0  0
 43 41  2  0  0  0  0
 45 35  1  0  0  0  0
 47 36  1  0  0  0  0
 51 38  1  0  0  0  0
 52 38  1  0  0  0  0
 54 40  1  0  0  0  0
M  END
$$$$
