TLR.pdb
 OpenBabel07022419133D

 58 57  0  0  1  0  0  0  0  0999 V2000
    4.4480   -1.1800   -0.9070 C   0  0  0  0  0  0  0  0  0  0  0  0
    3.5580   -0.3050   -0.0310 C   0  0  1  0  0  0  0  0  0  0  0  0
    4.1740    0.9180    0.1900 O   0  0  0  0  0  0  0  0  0  0  0  0
    2.1670   -0.2110   -0.5720 C   0  0  2  0  0  0  0  0  0  0  0  0
    2.1220    0.5210   -1.8200 N   0  0  0  0  0  0  0  0  0  0  0  0
    1.1740    0.2180    0.4160 C   0  0  0  0  0  0  0  0  0  0  0  0
    0.4540    1.2400    0.2200 O   0  0  0  0  0  0  0  0  0  0  0  0
    4.7840   -2.0970   -0.3980 H   0  0  0  0  0  0  0  0  0  0  0  0
    5.3490   -0.6070   -1.1780 H   0  0  0  0  0  0  0  0  0  0  0  0
    3.8910   -1.4830   -1.8340 H   0  0  0  0  0  0  0  0  0  0  0  0
    3.5420   -0.8150    0.9680 H   0  0  0  0  0  0  0  0  0  0  0  0
    4.8310    0.8820    0.9240 H   0  0  0  0  0  0  0  0  0  0  0  0
    1.8740   -1.2760   -0.8650 H   0  0  0  0  0  0  0  0  0  0  0  0
    1.3180    0.2270   -2.4090 H   0  0  0  0  0  0  0  0  0  0  0  0
    3.0420    0.4450   -2.2940 H   0  0  0  0  0  0  0  0  0  0  0  0
    1.6750    1.0720    4.8960 C   0  0  0  0  0  0  0  0  0  0  0  0
    1.2970    1.8030    3.6120 C   0  0  0  0  0  0  0  0  0  0  0  0
    2.4830    1.8960    2.7210 C   0  0  0  0  0  0  0  0  0  0  0  0
    0.0340    1.3040    3.0340 C   0  0  0  0  0  0  0  0  0  0  0  0
   -0.0010   -0.1550    2.6470 C   0  0  2  0  0  0  0  0  0  0  0  0
    0.9270   -0.4530    1.6430 N   0  0  0  0  0  0  0  0  0  0  0  0
   -1.3630   -0.6200    2.4730 C   0  0  0  0  0  0  0  0  0  0  0  0
   -2.2150   -0.3680    3.3510 O   0  0  0  0  0  0  0  0  0  0  0  0
    2.1620    0.1300    4.5920 H   0  0  0  0  0  0  0  0  0  0  0  0
    0.7900    0.9210    5.5260 H   0  0  0  0  0  0  0  0  0  0  0  0
    2.4490    1.6750    5.4170 H   0  0  0  0  0  0  0  0  0  0  0  0
    1.0890    2.8640    3.9570 H   0  0  0  0  0  0  0  0  0  0  0  0
    2.3020    2.4630    1.8100 H   0  0  0  0  0  0  0  0  0  0  0  0
    3.2680    2.4650    3.3160 H   0  0  0  0  0  0  0  0  0  0  0  0
    2.9460    0.8940    2.5860 H   0  0  0  0  0  0  0  0  0  0  0  0
   -0.2900    1.9880    2.2290 H   0  0  0  0  0  0  0  0  0  0  0  0
   -0.7490    1.4180    3.8590 H   0  0  0  0  0  0  0  0  0  0  0  0
    0.4160   -0.6610    3.6080 H   0  0  0  0  0  0  0  0  0  0  0  0
    1.5620   -1.3090    1.7800 H   0  0  0  0  0  0  0  0  0  0  0  0
   -0.9500   -1.7280   -4.5600 N   0  0  0  0  0  0  0  0  0  0  0  0
   -1.3330   -2.3760   -3.3590 C   0  0  0  0  0  0  0  0  0  0  0  0
   -0.4360   -2.5710   -2.4760 N   0  0  0  0  0  0  0  0  0  0  0  0
   -2.6610   -2.8020   -3.1230 N   0  0  0  0  0  0  0  0  0  0  0  0
   -3.2170   -2.8430   -1.7700 C   0  0  0  0  0  0  0  0  0  0  0  0
   -3.3330   -1.4000   -1.3310 C   0  0  0  0  0  0  0  0  0  0  0  0
   -3.8840   -1.2260    0.0250 C   0  0  0  0  0  0  0  0  0  0  0  0
   -3.1640   -1.8250    1.1660 C   0  0  2  0  0  0  0  0  0  0  0  0
   -1.8110   -1.3560    1.3530 N   0  0  0  0  0  0  0  0  0  0  0  0
   -3.2120   -3.2910    1.2700 C   0  0  0  0  0  0  0  0  0  0  0  0
   -4.2920   -3.8870    1.1250 O   0  0  0  0  0  0  0  0  0  0  0  0
   -2.0640   -3.9950    1.5270 O   0  0  0  0  0  0  0  0  0  0  0  0
   -0.1870   -1.0270   -4.5490 H   0  0  0  0  0  0  0  0  0  0  0  0
   -1.4140   -1.9340   -5.4680 H   0  0  0  0  0  0  0  0  0  0  0  0
   -0.5920   -3.0290   -1.5690 H   0  0  0  0  0  0  0  0  0  0  0  0
   -3.2310   -3.0860   -3.9540 H   0  0  0  0  0  0  0  0  0  0  0  0
   -4.2150   -3.3210   -1.8410 H   0  0  0  0  0  0  0  0  0  0  0  0
   -2.5350   -3.3780   -1.0960 H   0  0  0  0  0  0  0  0  0  0  0  0
   -4.0620   -0.9280   -2.0490 H   0  0  0  0  0  0  0  0  0  0  0  0
   -2.3520   -0.9320   -1.5120 H   0  0  0  0  0  0  0  0  0  0  0  0
   -4.0820   -0.1530    0.2660 H   0  0  0  0  0  0  0  0  0  0  0  0
   -4.9170   -1.6860    0.0220 H   0  0  0  0  0  0  0  0  0  0  0  0
   -3.7160   -1.4620    2.0910 H   0  0  0  0  0  0  0  0  0  0  0  0
   -1.1480   -1.6140    0.5570 H   0  0  0  0  0  0  0  0  0  0  0  0
  1  8  1  0  0  0  0
  1  2  1  0  0  0  0
  2  3  1  0  0  0  0
  2 11  1  1  0  0  0
  3 12  1  0  0  0  0
  4 13  1  6  0  0  0
  4  2  1  0  0  0  0
  4  6  1  0  0  0  0
  5  4  1  0  0  0  0
  6 21  1  0  0  0  0
  7  6  2  0  0  0  0
  9  1  1  0  0  0  0
 10  1  1  0  0  0  0
 14  5  1  0  0  0  0
 15  5  1  0  0  0  0
 16 26  1  0  0  0  0
 16 25  1  0  0  0  0
 17 27  1  0  0  0  0
 17 16  1  0  0  0  0
 18 29  1  0  0  0  0
 18 17  1  0  0  0  0
 19 17  1  0  0  0  0
 19 32  1  0  0  0  0
 20 19  1  0  0  0  0
 20 33  1  1  0  0  0
 21 34  1  0  0  0  0
 21 20  1  0  0  0  0
 22 20  1  0  0  0  0
 22 23  2  0  0  0  0
 24 16  1  0  0  0  0
 28 18  1  0  0  0  0
 30 18  1  0  0  0  0
 31 19  1  0  0  0  0
 35 47  1  0  0  0  0
 35 36  1  0  0  0  0
 36 38  1  0  0  0  0
 36 37  2  0  0  0  0
 37 49  1  0  0  0  0
 38 39  1  0  0  0  0
 39 40  1  0  0  0  0
 39 52  1  0  0  0  0
 40 41  1  0  0  0  0
 41 55  1  0  0  0  0
 41 42  1  0  0  0  0
 42 44  1  0  0  0  0
 42 43  1  0  0  0  0
 42 57  1  1  0  0  0
 43 22  1  0  0  0  0
 44 46  1  0  0  0  0
 45 44  2  0  0  0  0
 48 35  1  0  0  0  0
 50 38  1  0  0  0  0
 51 39  1  0  0  0  0
 53 40  1  0  0  0  0
 54 40  1  0  0  0  0
 56 41  1  0  0  0  0
 58 43  1  0  0  0  0
M  END
$$$$
