TMF.pdb
 OpenBabel07022419133D

 53 53  0  0  1  0  0  0  0  0999 V2000
    1.8610   -3.0550   -1.3730 C   0  0  0  0  0  0  0  0  0  0  0  0
    2.3540   -3.7380   -0.1110 C   0  0  1  0  0  0  0  0  0  0  0  0
    3.2670   -4.7340   -0.5910 O   0  0  0  0  0  0  0  0  0  0  0  0
    3.1560   -2.8790    0.7890 C   0  0  2  0  0  0  0  0  0  0  0  0
    3.7150   -3.7820    1.8260 N   0  0  0  0  0  0  0  0  0  0  0  0
    2.4460   -1.7660    1.4610 C   0  0  0  0  0  0  0  0  0  0  0  0
    2.5510   -1.6460    2.7420 O   0  0  0  0  0  0  0  0  0  0  0  0
    2.5210   -2.2400   -1.6650 H   0  0  0  0  0  0  0  0  0  0  0  0
    0.7870   -2.8200   -1.2920 H   0  0  0  0  0  0  0  0  0  0  0  0
    1.9070   -3.7850   -2.2430 H   0  0  0  0  0  0  0  0  0  0  0  0
    1.5390   -4.3050    0.3680 H   0  0  0  0  0  0  0  0  0  0  0  0
    2.7950   -5.2920   -1.2690 H   0  0  0  0  0  0  0  0  0  0  0  0
    4.0290   -2.4680    0.2740 H   0  0  0  0  0  0  0  0  0  0  0  0
    3.0190   -3.9260    2.5890 H   0  0  0  0  0  0  0  0  0  0  0  0
    4.6400   -3.4660    2.1260 H   0  0  0  0  0  0  0  0  0  0  0  0
   -1.0530    2.8950    3.8100 C   0  0  0  0  0  0  0  0  0  0  0  0
   -0.6390    3.3880    2.1350 S   0  0  0  0  0  0  0  0  0  0  0  0
    0.9270    2.9030    1.5350 C   0  0  0  0  0  0  0  0  0  0  0  0
    1.2570    1.5930    0.9810 C   0  0  0  0  0  0  0  0  0  0  0  0
    0.9910    0.3110    1.6670 C   0  0  2  0  0  0  0  0  0  0  0  0
    1.6500   -0.7900    0.8720 N   0  0  0  0  0  0  0  0  0  0  0  0
   -0.4860   -0.0540    1.5890 C   0  0  0  0  0  0  0  0  0  0  0  0
   -1.4040    0.6600    1.9980 O   0  0  0  0  0  0  0  0  0  0  0  0
   -0.9890    3.7390    4.5320 H   0  0  0  0  0  0  0  0  0  0  0  0
   -0.4050    2.0560    4.1220 H   0  0  0  0  0  0  0  0  0  0  0  0
   -2.1030    2.5500    3.8360 H   0  0  0  0  0  0  0  0  0  0  0  0
    1.6740    3.0770    2.4200 H   0  0  0  0  0  0  0  0  0  0  0  0
    1.3140    3.7370    0.8290 H   0  0  0  0  0  0  0  0  0  0  0  0
    2.3550    1.6520    0.6590 H   0  0  0  0  0  0  0  0  0  0  0  0
    0.6950    1.5520   -0.0410 H   0  0  0  0  0  0  0  0  0  0  0  0
    1.2630    0.3130    2.6930 H   0  0  0  0  0  0  0  0  0  0  0  0
    1.4730   -0.7740   -0.1340 H   0  0  0  0  0  0  0  0  0  0  0  0
   -0.8740   -1.3020    1.0130 N   0  0  0  0  0  0  0  0  0  0  0  0
   -2.2780   -1.6920    0.9190 C   0  0  1  0  0  0  0  0  0  0  0  0
   -2.6770   -1.7790   -0.5620 C   0  0  0  0  0  0  0  0  0  0  0  0
   -2.4790   -0.4370   -1.1920 C   0  0  0  0  0  0  0  0  0  0  0  0
   -1.2810   -0.1170   -1.7680 C   0  0  0  0  0  0  0  0  0  0  0  0
   -1.1360    1.1320   -2.3320 C   0  0  0  0  0  0  0  0  0  0  0  0
   -2.1890    2.0420   -2.3150 C   0  0  0  0  0  0  0  0  0  0  0  0
   -3.3890    1.6790   -1.7210 C   0  0  0  0  0  0  0  0  0  0  0  0
   -3.5540    0.4430   -1.1530 C   0  0  0  0  0  0  0  0  0  0  0  0
   -2.4200   -3.0340    1.5040 C   0  0  0  0  0  0  0  0  0  0  0  0
   -1.4150   -3.6230    1.9630 O   0  0  0  0  0  0  0  0  0  0  0  0
   -3.6330   -3.7060    1.5800 O   0  0  0  0  0  0  0  0  0  0  0  0
   -0.1420   -1.9410    0.6640 H   0  0  0  0  0  0  0  0  0  0  0  0
   -2.8960   -0.9270    1.4330 H   0  0  0  0  0  0  0  0  0  0  0  0
   -2.0120   -2.4990   -1.0810 H   0  0  0  0  0  0  0  0  0  0  0  0
   -3.7260   -2.0470   -0.6720 H   0  0  0  0  0  0  0  0  0  0  0  0
   -0.4620   -0.8380   -1.7760 H   0  0  0  0  0  0  0  0  0  0  0  0
   -0.1950    1.3860   -2.7850 H   0  0  0  0  0  0  0  0  0  0  0  0
   -2.0800    3.0250   -2.7570 H   0  0  0  0  0  0  0  0  0  0  0  0
   -4.2070    2.3850   -1.7070 H   0  0  0  0  0  0  0  0  0  0  0  0
   -4.4730    0.1360   -0.6870 H   0  0  0  0  0  0  0  0  0  0  0  0
  1  9  1  0  0  0  0
  1  2  1  0  0  0  0
  2 11  1  1  0  0  0
  2  4  1  0  0  0  0
  3  2  1  0  0  0  0
  4 13  1  6  0  0  0
  4  6  1  0  0  0  0
  4  5  1  0  0  0  0
  5 15  1  0  0  0  0
  5 14  1  0  0  0  0
  6  7  2  0  0  0  0
  8  1  1  0  0  0  0
 10  1  1  0  0  0  0
 12  3  1  0  0  0  0
 16 26  1  0  0  0  0
 16 25  1  0  0  0  0
 16 24  1  0  0  0  0
 17 16  1  0  0  0  0
 18 17  1  0  0  0  0
 18 27  1  0  0  0  0
 19 18  1  0  0  0  0
 19 20  1  0  0  0  0
 20 31  1  1  0  0  0
 21  6  1  0  0  0  0
 21 20  1  0  0  0  0
 22 20  1  0  0  0  0
 22 23  2  0  0  0  0
 28 18  1  0  0  0  0
 29 19  1  0  0  0  0
 30 19  1  0  0  0  0
 32 21  1  0  0  0  0
 33 22  1  0  0  0  0
 34 33  1  0  0  0  0
 34 46  1  1  0  0  0
 34 42  1  0  0  0  0
 35 34  1  0  0  0  0
 36 41  1  0  0  0  0
 36 35  1  0  0  0  0
 37 36  2  0  0  0  0
 38 39  2  0  0  0  0
 38 37  1  0  0  0  0
 39 40  1  0  0  0  0
 40 52  1  0  0  0  0
 40 41  2  0  0  0  0
 41 53  1  0  0  0  0
 42 44  2  0  0  0  0
 42 43  1  0  0  0  0
 45 33  1  0  0  0  0
 47 35  1  0  0  0  0
 48 35  1  0  0  0  0
 49 37  1  0  0  0  0
 50 38  1  0  0  0  0
 51 39  1  0  0  0  0
M  END
$$$$
