TMM.pdb
 OpenBabel07022419133D

 50 49  0  0  1  0  0  0  0  0999 V2000
   -0.6150   -5.2650    1.1590 C   0  0  0  0  0  0  0  0  0  0  0  0
   -0.0230   -3.9030    1.3950 C   0  0  1  0  0  0  0  0  0  0  0  0
    0.0610   -3.7020    2.7870 O   0  0  0  0  0  0  0  0  0  0  0  0
    1.3840   -3.8020    0.7940 C   0  0  2  0  0  0  0  0  0  0  0  0
    2.1780   -4.8340    1.4400 N   0  0  0  0  0  0  0  0  0  0  0  0
    1.9770   -2.4750    0.9640 C   0  0  0  0  0  0  0  0  0  0  0  0
    3.0200   -2.2540    1.6580 O   0  0  0  0  0  0  0  0  0  0  0  0
   -1.6870   -5.3050    1.3820 H   0  0  0  0  0  0  0  0  0  0  0  0
   -0.4230   -5.6000    0.1050 H   0  0  0  0  0  0  0  0  0  0  0  0
   -0.1000   -6.0260    1.8060 H   0  0  0  0  0  0  0  0  0  0  0  0
   -0.6930   -3.1260    1.0120 H   0  0  0  0  0  0  0  0  0  0  0  0
    0.6840   -4.4200    3.1050 H   0  0  0  0  0  0  0  0  0  0  0  0
    1.2640   -4.1010   -0.2710 H   0  0  0  0  0  0  0  0  0  0  0  0
    2.4510   -5.5880    0.7780 H   0  0  0  0  0  0  0  0  0  0  0  0
    3.0290   -4.3960    1.8940 H   0  0  0  0  0  0  0  0  0  0  0  0
    0.5310    3.6270   -1.4020 C   0  0  0  0  0  0  0  0  0  0  0  0
    1.9520    3.3000   -0.3390 S   0  0  0  0  0  0  0  0  0  0  0  0
    2.9270    1.9100   -0.8770 C   0  0  0  0  0  0  0  0  0  0  0  0
    2.3170    0.5630   -0.8250 C   0  0  0  0  0  0  0  0  0  0  0  0
    1.9860    0.0010    0.4950 C   0  0  2  0  0  0  0  0  0  0  0  0
    1.4050   -1.3440    0.3450 N   0  0  0  0  0  0  0  0  0  0  0  0
    1.0300    0.7920    1.2470 C   0  0  0  0  0  0  0  0  0  0  0  0
    1.2710    1.9520    1.7130 O   0  0  0  0  0  0  0  0  0  0  0  0
   -0.2550    4.2030   -0.9100 H   0  0  0  0  0  0  0  0  0  0  0  0
    0.8830    4.1920   -2.2800 H   0  0  0  0  0  0  0  0  0  0  0  0
    0.0720    2.6930   -1.7930 H   0  0  0  0  0  0  0  0  0  0  0  0
    3.3000    2.1650   -1.9130 H   0  0  0  0  0  0  0  0  0  0  0  0
    3.8890    1.9530   -0.2580 H   0  0  0  0  0  0  0  0  0  0  0  0
    1.3720    0.6590   -1.4770 H   0  0  0  0  0  0  0  0  0  0  0  0
    2.8960   -0.1770   -1.4730 H   0  0  0  0  0  0  0  0  0  0  0  0
    2.9460   -0.1310    1.1010 H   0  0  0  0  0  0  0  0  0  0  0  0
    0.5600   -1.4150   -0.2580 H   0  0  0  0  0  0  0  0  0  0  0  0
   -2.0640    0.3320   -1.8120 C   0  0  0  0  0  0  0  0  0  0  0  0
   -2.4750   -0.6470   -0.3440 S   0  0  0  0  0  0  0  0  0  0  0  0
   -3.2910    0.4100    0.8660 C   0  0  0  0  0  0  0  0  0  0  0  0
   -2.4380    1.4760    1.4500 C   0  0  0  0  0  0  0  0  0  0  0  0
   -1.2400    1.0200    2.2280 C   0  0  2  0  0  0  0  0  0  0  0  0
   -0.2880    0.2440    1.4960 N   0  0  0  0  0  0  0  0  0  0  0  0
   -1.6710    0.2140    3.4150 C   0  0  0  0  0  0  0  0  0  0  0  0
   -2.5280    0.6910    4.2250 O   0  0  0  0  0  0  0  0  0  0  0  0
   -1.1930   -1.0490    3.7040 O   0  0  0  0  0  0  0  0  0  0  0  0
   -0.9920    0.5330   -1.8110 H   0  0  0  0  0  0  0  0  0  0  0  0
   -2.3050   -0.2400   -2.7280 H   0  0  0  0  0  0  0  0  0  0  0  0
   -2.6610    1.2870   -1.8500 H   0  0  0  0  0  0  0  0  0  0  0  0
   -3.6510   -0.2560    1.6850 H   0  0  0  0  0  0  0  0  0  0  0  0
   -4.2190    0.8840    0.4250 H   0  0  0  0  0  0  0  0  0  0  0  0
   -3.0650    2.0680    2.1740 H   0  0  0  0  0  0  0  0  0  0  0  0
   -2.1550    2.2330    0.6650 H   0  0  0  0  0  0  0  0  0  0  0  0
   -0.7220    1.9660    2.6010 H   0  0  0  0  0  0  0  0  0  0  0  0
   -0.5410   -0.6990    1.1700 H   0  0  0  0  0  0  0  0  0  0  0  0
  1  8  1  0  0  0  0
  1  2  1  0  0  0  0
  1 10  1  0  0  0  0
  2 11  1  6  0  0  0
  2  3  1  0  0  0  0
  3 12  1  0  0  0  0
  4 13  1  6  0  0  0
  4  6  1  0  0  0  0
  4  2  1  0  0  0  0
  4  5  1  0  0  0  0
  5 15  1  0  0  0  0
  6  7  2  0  0  0  0
  9  1  1  0  0  0  0
 14  5  1  0  0  0  0
 16 24  1  0  0  0  0
 16 17  1  0  0  0  0
 18 19  1  0  0  0  0
 18 17  1  0  0  0  0
 18 28  1  0  0  0  0
 19 20  1  0  0  0  0
 20 31  1  1  0  0  0
 20 22  1  0  0  0  0
 21 20  1  0  0  0  0
 21  6  1  0  0  0  0
 22 38  1  0  0  0  0
 22 23  2  0  0  0  0
 25 16  1  0  0  0  0
 26 16  1  0  0  0  0
 27 18  1  0  0  0  0
 29 19  1  0  0  0  0
 30 19  1  0  0  0  0
 32 21  1  0  0  0  0
 33 42  1  0  0  0  0
 33 34  1  0  0  0  0
 34 35  1  0  0  0  0
 35 36  1  0  0  0  0
 35 45  1  0  0  0  0
 36 47  1  0  0  0  0
 36 37  1  0  0  0  0
 37 49  1  1  0  0  0
 37 39  1  0  0  0  0
 38 37  1  0  0  0  0
 39 41  2  0  0  0  0
 39 40  1  0  0  0  0
 43 33  1  0  0  0  0
 44 33  1  0  0  0  0
 46 35  1  0  0  0  0
 48 36  1  0  0  0  0
 50 38  1  0  0  0  0
M  END
$$$$
