TMR.pdb
 OpenBabel07022419133D

 56 55  0  0  1  0  0  0  0  0999 V2000
    0.8030    0.4130    6.4840 C   0  0  0  0  0  0  0  0  0  0  0  0
    0.4900    0.7880    5.0480 C   0  0  1  0  0  0  0  0  0  0  0  0
    1.3590    1.7900    4.6630 O   0  0  0  0  0  0  0  0  0  0  0  0
    0.5980   -0.3930    4.1370 C   0  0  2  0  0  0  0  0  0  0  0  0
    1.8930   -0.9940    4.0900 N   0  0  0  0  0  0  0  0  0  0  0  0
    0.2420    0.0290    2.7390 C   0  0  0  0  0  0  0  0  0  0  0  0
   -0.8430    0.6250    2.5960 O   0  0  0  0  0  0  0  0  0  0  0  0
    0.7060    1.2950    7.1380 H   0  0  0  0  0  0  0  0  0  0  0  0
    1.7920   -0.0360    6.6100 H   0  0  0  0  0  0  0  0  0  0  0  0
    0.0220   -0.3160    6.8210 H   0  0  0  0  0  0  0  0  0  0  0  0
   -0.5420    1.2130    5.0450 H   0  0  0  0  0  0  0  0  0  0  0  0
    0.8830    2.6620    4.5630 H   0  0  0  0  0  0  0  0  0  0  0  0
   -0.1350   -1.1840    4.4270 H   0  0  0  0  0  0  0  0  0  0  0  0
    2.5470   -0.7270    4.8400 H   0  0  0  0  0  0  0  0  0  0  0  0
    1.9050   -1.9800    3.8060 H   0  0  0  0  0  0  0  0  0  0  0  0
    3.2870    4.8850    0.7330 C   0  0  0  0  0  0  0  0  0  0  0  0
    3.1490    3.4100   -0.3080 S   0  0  0  0  0  0  0  0  0  0  0  0
    1.9360    2.2970    0.4500 C   0  0  0  0  0  0  0  0  0  0  0  0
    1.7680    1.0300   -0.3620 C   0  0  0  0  0  0  0  0  0  0  0  0
    0.7650    0.1580    0.3100 C   0  0  2  0  0  0  0  0  0  0  0  0
    1.0990   -0.2430    1.6480 N   0  0  0  0  0  0  0  0  0  0  0  0
    0.3390   -1.0060   -0.5230 C   0  0  0  0  0  0  0  0  0  0  0  0
    0.2880   -2.1530    0.0090 O   0  0  0  0  0  0  0  0  0  0  0  0
    3.5540    4.5630    1.7720 H   0  0  0  0  0  0  0  0  0  0  0  0
    4.1100    5.5560    0.4080 H   0  0  0  0  0  0  0  0  0  0  0  0
    2.3400    5.4290    0.7700 H   0  0  0  0  0  0  0  0  0  0  0  0
    2.3760    1.9970    1.4360 H   0  0  0  0  0  0  0  0  0  0  0  0
    0.9700    2.8280    0.5620 H   0  0  0  0  0  0  0  0  0  0  0  0
    2.7720    0.5800   -0.4580 H   0  0  0  0  0  0  0  0  0  0  0  0
    1.4070    1.2460   -1.3870 H   0  0  0  0  0  0  0  0  0  0  0  0
   -0.1830    0.7750    0.3900 H   0  0  0  0  0  0  0  0  0  0  0  0
    2.0050   -0.7570    1.8750 H   0  0  0  0  0  0  0  0  0  0  0  0
   -3.8100   -6.4100   -2.1190 N   0  0  0  0  0  0  0  0  0  0  0  0
   -3.6490   -5.1590   -1.4560 C   0  0  0  0  0  0  0  0  0  0  0  0
   -3.7260   -5.1410   -0.1460 N   0  0  0  0  0  0  0  0  0  0  0  0
   -3.4120   -3.9790   -2.2100 N   0  0  0  0  0  0  0  0  0  0  0  0
   -3.1430   -2.7540   -1.5350 C   0  0  0  0  0  0  0  0  0  0  0  0
   -2.9000   -1.5990   -2.4780 C   0  0  0  0  0  0  0  0  0  0  0  0
   -1.7450   -1.8070   -3.3860 C   0  0  0  0  0  0  0  0  0  0  0  0
   -0.4320   -2.0050   -2.7150 C   0  0  2  0  0  0  0  0  0  0  0  0
   -0.0160   -0.9130   -1.8880 N   0  0  0  0  0  0  0  0  0  0  0  0
    0.5650   -2.3220   -3.7760 C   0  0  0  0  0  0  0  0  0  0  0  0
    0.4150   -3.2340   -4.6210 O   0  0  0  0  0  0  0  0  0  0  0  0
    1.7200   -1.5650   -3.8260 O   0  0  0  0  0  0  0  0  0  0  0  0
   -3.0590   -7.1140   -1.9360 H   0  0  0  0  0  0  0  0  0  0  0  0
   -4.6050   -6.6410   -2.7510 H   0  0  0  0  0  0  0  0  0  0  0  0
   -3.8990   -6.0070    0.3950 H   0  0  0  0  0  0  0  0  0  0  0  0
   -3.4530   -4.0830   -3.2490 H   0  0  0  0  0  0  0  0  0  0  0  0
   -2.2710   -2.8140   -0.8620 H   0  0  0  0  0  0  0  0  0  0  0  0
   -4.0310   -2.5210   -0.8820 H   0  0  0  0  0  0  0  0  0  0  0  0
   -2.7700   -0.6430   -1.9580 H   0  0  0  0  0  0  0  0  0  0  0  0
   -3.8150   -1.4910   -3.1120 H   0  0  0  0  0  0  0  0  0  0  0  0
   -1.8940   -2.6510   -4.1050 H   0  0  0  0  0  0  0  0  0  0  0  0
   -1.6650   -0.8950   -4.0370 H   0  0  0  0  0  0  0  0  0  0  0  0
   -0.4960   -2.9510   -2.1010 H   0  0  0  0  0  0  0  0  0  0  0  0
    0.0310    0.0450   -2.3300 H   0  0  0  0  0  0  0  0  0  0  0  0
  1  9  1  0  0  0  0
  1 10  1  0  0  0  0
  1  8  1  0  0  0  0
  2 11  1  6  0  0  0
  2  1  1  0  0  0  0
  3  2  1  0  0  0  0
  4 13  1  1  0  0  0
  4  2  1  0  0  0  0
  5  4  1  0  0  0  0
  5 14  1  0  0  0  0
  6  4  1  0  0  0  0
  7  6  2  0  0  0  0
 12  3  1  0  0  0  0
 15  5  1  0  0  0  0
 16 26  1  0  0  0  0
 16 24  1  0  0  0  0
 17 18  1  0  0  0  0
 17 16  1  0  0  0  0
 18 28  1  0  0  0  0
 18 27  1  0  0  0  0
 19 20  1  0  0  0  0
 19 18  1  0  0  0  0
 20 31  1  1  0  0  0
 20 21  1  0  0  0  0
 21 32  1  0  0  0  0
 21  6  1  0  0  0  0
 22 23  2  0  0  0  0
 22 20  1  0  0  0  0
 25 16  1  0  0  0  0
 29 19  1  0  0  0  0
 30 19  1  0  0  0  0
 33 45  1  0  0  0  0
 33 34  1  0  0  0  0
 34 35  2  0  0  0  0
 35 47  1  0  0  0  0
 36 37  1  0  0  0  0
 36 34  1  0  0  0  0
 37 50  1  0  0  0  0
 37 49  1  0  0  0  0
 38 51  1  0  0  0  0
 38 37  1  0  0  0  0
 39 40  1  0  0  0  0
 39 38  1  0  0  0  0
 40 55  1  1  0  0  0
 40 41  1  0  0  0  0
 41 22  1  0  0  0  0
 42 40  1  0  0  0  0
 43 42  2  0  0  0  0
 44 42  1  0  0  0  0
 46 33  1  0  0  0  0
 48 36  1  0  0  0  0
 52 38  1  0  0  0  0
 53 39  1  0  0  0  0
 54 39  1  0  0  0  0
 56 41  1  0  0  0  0
M  END
$$$$
