TMS.pdb
 OpenBabel07022419133D

 44 43  0  0  1  0  0  0  0  0999 V2000
    1.1670   -5.0170    1.6430 C   0  0  0  0  0  0  0  0  0  0  0  0
    0.9960   -3.4950    1.6120 C   0  0  1  0  0  0  0  0  0  0  0  0
    0.9060   -3.0860    2.9410 O   0  0  0  0  0  0  0  0  0  0  0  0
    2.2370   -2.9140    0.9770 C   0  0  2  0  0  0  0  0  0  0  0  0
    3.4010   -3.3800    1.7070 N   0  0  0  0  0  0  0  0  0  0  0  0
    2.2240   -1.4540    0.9080 C   0  0  0  0  0  0  0  0  0  0  0  0
    3.1750   -0.8100    1.4550 O   0  0  0  0  0  0  0  0  0  0  0  0
    1.3470   -5.3910    0.6180 H   0  0  0  0  0  0  0  0  0  0  0  0
    0.3500   -5.5160    2.1690 H   0  0  0  0  0  0  0  0  0  0  0  0
    2.1180   -5.2220    2.2140 H   0  0  0  0  0  0  0  0  0  0  0  0
    0.0840   -3.3030    1.0510 H   0  0  0  0  0  0  0  0  0  0  0  0
    1.3800   -3.7290    3.5130 H   0  0  0  0  0  0  0  0  0  0  0  0
    2.3380   -3.3390   -0.0560 H   0  0  0  0  0  0  0  0  0  0  0  0
    3.7270   -4.3200    1.3460 H   0  0  0  0  0  0  0  0  0  0  0  0
    3.2390   -3.4360    2.7250 H   0  0  0  0  0  0  0  0  0  0  0  0
   -0.0740    2.8620   -3.8540 C   0  0  0  0  0  0  0  0  0  0  0  0
    1.4380    3.3410   -2.9790 S   0  0  0  0  0  0  0  0  0  0  0  0
    1.3110    2.7730   -1.2250 C   0  0  0  0  0  0  0  0  0  0  0  0
    1.3060    1.2800   -1.1650 C   0  0  0  0  0  0  0  0  0  0  0  0
    1.2340    0.7680    0.2150 C   0  0  2  0  0  0  0  0  0  0  0  0
    1.2380   -0.6870    0.2780 N   0  0  0  0  0  0  0  0  0  0  0  0
    0.0870    1.2010    1.0320 C   0  0  0  0  0  0  0  0  0  0  0  0
   -0.1220    2.4200    1.2130 O   0  0  0  0  0  0  0  0  0  0  0  0
    0.0690    1.9020   -4.4190 H   0  0  0  0  0  0  0  0  0  0  0  0
   -0.4130    3.6210   -4.5720 H   0  0  0  0  0  0  0  0  0  0  0  0
   -0.9000    2.6540   -3.1250 H   0  0  0  0  0  0  0  0  0  0  0  0
    0.4020    3.2580   -0.7860 H   0  0  0  0  0  0  0  0  0  0  0  0
    2.1800    3.2320   -0.7120 H   0  0  0  0  0  0  0  0  0  0  0  0
    2.3060    0.9570   -1.5770 H   0  0  0  0  0  0  0  0  0  0  0  0
    0.4820    0.8620   -1.8040 H   0  0  0  0  0  0  0  0  0  0  0  0
    2.1610    1.0940    0.7600 H   0  0  0  0  0  0  0  0  0  0  0  0
    0.4440   -1.1680   -0.1820 H   0  0  0  0  0  0  0  0  0  0  0  0
   -3.1560    0.9250    0.4630 O   0  0  0  0  0  0  0  0  0  0  0  0
   -3.2020    0.2280    1.6810 C   0  0  0  0  0  0  0  0  0  0  0  0
   -1.9440    0.6640    2.4400 C   0  0  2  0  0  0  0  0  0  0  0  0
   -0.8160    0.2960    1.6380 N   0  0  0  0  0  0  0  0  0  0  0  0
   -1.9180    0.0920    3.7920 C   0  0  0  0  0  0  0  0  0  0  0  0
   -0.9670   -0.6410    4.1460 O   0  0  0  0  0  0  0  0  0  0  0  0
   -2.9280    0.3450    4.6970 O   0  0  0  0  0  0  0  0  0  0  0  0
   -3.2300    0.3200   -0.3090 H   0  0  0  0  0  0  0  0  0  0  0  0
   -3.0890   -0.8500    1.4690 H   0  0  0  0  0  0  0  0  0  0  0  0
   -4.1100    0.4350    2.2550 H   0  0  0  0  0  0  0  0  0  0  0  0
   -1.9410    1.7910    2.4890 H   0  0  0  0  0  0  0  0  0  0  0  0
   -0.6450   -0.7230    1.4880 H   0  0  0  0  0  0  0  0  0  0  0  0
  1  9  1  0  0  0  0
  1 10  1  0  0  0  0
  2 11  1  6  0  0  0
  2  1  1  0  0  0  0
  2  3  1  0  0  0  0
  3 12  1  0  0  0  0
  4 13  1  6  0  0  0
  4  2  1  0  0  0  0
  4  5  1  0  0  0  0
  5 15  1  0  0  0  0
  6  4  1  0  0  0  0
  6  7  2  0  0  0  0
  8  1  1  0  0  0  0
 14  5  1  0  0  0  0
 16 26  1  0  0  0  0
 16 17  1  0  0  0  0
 17 18  1  0  0  0  0
 18 19  1  0  0  0  0
 18 27  1  0  0  0  0
 18 28  1  0  0  0  0
 19 20  1  0  0  0  0
 20 21  1  0  0  0  0
 20 31  1  1  0  0  0
 20 22  1  0  0  0  0
 21  6  1  0  0  0  0
 22 23  2  0  0  0  0
 22 36  1  0  0  0  0
 24 16  1  0  0  0  0
 25 16  1  0  0  0  0
 29 19  1  0  0  0  0
 30 19  1  0  0  0  0
 32 21  1  0  0  0  0
 33 34  1  0  0  0  0
 34 42  1  0  0  0  0
 34 35  1  0  0  0  0
 35 43  1  1  0  0  0
 35 37  1  0  0  0  0
 36 35  1  0  0  0  0
 37 38  2  0  0  0  0
 37 39  1  0  0  0  0
 40 33  1  0  0  0  0
 41 34  1  0  0  0  0
 44 36  1  0  0  0  0
M  END
$$$$
