TMY.pdb
 OpenBabel07022419133D

 54 54  0  0  1  0  0  0  0  0999 V2000
    0.1110   -3.4870    0.9550 C   0  0  0  0  0  0  0  0  0  0  0  0
    1.4810   -2.8660    0.8280 C   0  0  1  0  0  0  0  0  0  0  0  0
    1.5830   -2.1580   -0.3370 O   0  0  0  0  0  0  0  0  0  0  0  0
    1.8990   -2.1020    2.0290 C   0  0  2  0  0  0  0  0  0  0  0  0
    1.7720   -2.9210    3.2260 N   0  0  0  0  0  0  0  0  0  0  0  0
    1.2740   -0.7800    2.2090 C   0  0  0  0  0  0  0  0  0  0  0  0
    0.7360   -0.4890    3.3430 O   0  0  0  0  0  0  0  0  0  0  0  0
   -0.5080   -2.9810    1.7170 H   0  0  0  0  0  0  0  0  0  0  0  0
   -0.3940   -3.4530   -0.0340 H   0  0  0  0  0  0  0  0  0  0  0  0
    0.1880   -4.5530    1.3220 H   0  0  0  0  0  0  0  0  0  0  0  0
    2.1940   -3.7340    0.7280 H   0  0  0  0  0  0  0  0  0  0  0  0
    2.5340   -2.0410   -0.5990 H   0  0  0  0  0  0  0  0  0  0  0  0
    3.0110   -1.9130    1.9310 H   0  0  0  0  0  0  0  0  0  0  0  0
    1.9200   -2.2590    4.0410 H   0  0  0  0  0  0  0  0  0  0  0  0
    0.7930   -3.2800    3.3440 H   0  0  0  0  0  0  0  0  0  0  0  0
    2.7120    1.9390    4.1890 C   0  0  0  0  0  0  0  0  0  0  0  0
    2.9250    3.2930    3.0600 S   0  0  0  0  0  0  0  0  0  0  0  0
    2.6840    2.9460    1.3270 C   0  0  0  0  0  0  0  0  0  0  0  0
    1.2650    2.7010    0.9410 C   0  0  0  0  0  0  0  0  0  0  0  0
    0.5630    1.5350    1.5430 C   0  0  2  0  0  0  0  0  0  0  0  0
    1.1960    0.2470    1.2390 N   0  0  0  0  0  0  0  0  0  0  0  0
   -0.8580    1.5050    1.0670 C   0  0  0  0  0  0  0  0  0  0  0  0
   -1.6120    2.4940    1.2770 O   0  0  0  0  0  0  0  0  0  0  0  0
    2.9890    0.9540    3.7190 H   0  0  0  0  0  0  0  0  0  0  0  0
    1.6920    1.8610    4.6030 H   0  0  0  0  0  0  0  0  0  0  0  0
    3.3700    2.0590    5.1160 H   0  0  0  0  0  0  0  0  0  0  0  0
    3.2680    2.0340    1.0080 H   0  0  0  0  0  0  0  0  0  0  0  0
    3.1010    3.8170    0.7550 H   0  0  0  0  0  0  0  0  0  0  0  0
    1.1290    2.7400   -0.1780 H   0  0  0  0  0  0  0  0  0  0  0  0
    0.6850    3.6280    1.2710 H   0  0  0  0  0  0  0  0  0  0  0  0
    0.4690    1.6780    2.6360 H   0  0  0  0  0  0  0  0  0  0  0  0
    1.6060    0.0570    0.3010 H   0  0  0  0  0  0  0  0  0  0  0  0
   -0.5820   -4.4490   -3.4500 O   0  0  0  0  0  0  0  0  0  0  0  0
   -1.1730   -3.2760   -2.9730 C   0  0  0  0  0  0  0  0  0  0  0  0
   -2.4990   -3.2380   -2.6240 C   0  0  0  0  0  0  0  0  0  0  0  0
   -3.0700   -2.0670   -2.1520 C   0  0  0  0  0  0  0  0  0  0  0  0
   -2.2930   -0.9210   -2.0310 C   0  0  0  0  0  0  0  0  0  0  0  0
   -2.9160    0.3200   -1.5440 C   0  0  0  0  0  0  0  0  0  0  0  0
   -2.8100    0.4160   -0.0600 C   0  0  2  0  0  0  0  0  0  0  0  0
   -1.4110    0.4150    0.3860 N   0  0  0  0  0  0  0  0  0  0  0  0
   -3.4920   -0.6920    0.6400 C   0  0  0  0  0  0  0  0  0  0  0  0
   -4.7280   -0.9270    0.4790 O   0  0  0  0  0  0  0  0  0  0  0  0
   -0.9380   -0.9440   -2.3830 C   0  0  0  0  0  0  0  0  0  0  0  0
   -0.4190   -2.1320   -2.8470 C   0  0  0  0  0  0  0  0  0  0  0  0
   -2.8280   -1.5410    1.5150 O   0  0  0  0  0  0  0  0  0  0  0  0
    0.0670   -4.3860   -4.2220 H   0  0  0  0  0  0  0  0  0  0  0  0
   -3.1370   -4.1230   -2.7070 H   0  0  0  0  0  0  0  0  0  0  0  0
   -4.1160   -2.0900   -1.8960 H   0  0  0  0  0  0  0  0  0  0  0  0
   -3.9650    0.3490   -1.9060 H   0  0  0  0  0  0  0  0  0  0  0  0
   -2.3420    1.1840   -1.9950 H   0  0  0  0  0  0  0  0  0  0  0  0
   -3.3070    1.3550    0.2980 H   0  0  0  0  0  0  0  0  0  0  0  0
   -0.8540   -0.4200    0.1770 H   0  0  0  0  0  0  0  0  0  0  0  0
   -0.3610   -0.0350   -2.2770 H   0  0  0  0  0  0  0  0  0  0  0  0
    0.6460   -2.1190   -3.1160 H   0  0  0  0  0  0  0  0  0  0  0  0
  1 10  1  0  0  0  0
  1  8  1  0  0  0  0
  2 11  1  6  0  0  0
  2  1  1  0  0  0  0
  2  4  1  0  0  0  0
  3  2  1  0  0  0  0
  4 13  1  6  0  0  0
  4  6  1  0  0  0  0
  4  5  1  0  0  0  0
  5 15  1  0  0  0  0
  5 14  1  0  0  0  0
  6  7  2  0  0  0  0
  9  1  1  0  0  0  0
 12  3  1  0  0  0  0
 16 25  1  0  0  0  0
 16 26  1  0  0  0  0
 17 16  1  0  0  0  0
 18 17  1  0  0  0  0
 19 30  1  0  0  0  0
 19 18  1  0  0  0  0
 19 20  1  0  0  0  0
 20 31  1  1  0  0  0
 21 20  1  0  0  0  0
 21  6  1  0  0  0  0
 22 23  2  0  0  0  0
 22 20  1  0  0  0  0
 24 16  1  0  0  0  0
 27 18  1  0  0  0  0
 28 18  1  0  0  0  0
 29 19  1  0  0  0  0
 32 21  1  0  0  0  0
 33 34  1  0  0  0  0
 34 44  2  0  0  0  0
 34 35  1  0  0  0  0
 35 36  2  0  0  0  0
 36 37  1  0  0  0  0
 36 48  1  0  0  0  0
 37 38  1  0  0  0  0
 38 39  1  0  0  0  0
 39 51  1  1  0  0  0
 39 40  1  0  0  0  0
 39 41  1  0  0  0  0
 40 22  1  0  0  0  0
 41 45  1  0  0  0  0
 42 41  2  0  0  0  0
 43 53  1  0  0  0  0
 43 37  2  0  0  0  0
 44 43  1  0  0  0  0
 46 33  1  0  0  0  0
 47 35  1  0  0  0  0
 49 38  1  0  0  0  0
 50 38  1  0  0  0  0
 52 40  1  0  0  0  0
 54 44  1  0  0  0  0
M  END
$$$$
