TNG.pdb
 OpenBabel07022419113D

 37 36  0  0  1  0  0  0  0  0999 V2000
    2.1920   -3.1840    2.5790 C   0  0  0  0  0  0  0  0  0  0  0  0
    1.7860   -3.3120    1.1320 C   0  0  1  0  0  0  0  0  0  0  0  0
    0.4040   -3.2150    1.0000 O   0  0  0  0  0  0  0  0  0  0  0  0
    2.5590   -2.4590    0.1830 C   0  0  2  0  0  0  0  0  0  0  0  0
    3.9880   -2.6890    0.4650 N   0  0  0  0  0  0  0  0  0  0  0  0
    2.2450   -1.0420    0.1740 C   0  0  0  0  0  0  0  0  0  0  0  0
    3.1610   -0.2140    0.4010 O   0  0  0  0  0  0  0  0  0  0  0  0
    3.1960   -2.7810    2.7340 H   0  0  0  0  0  0  0  0  0  0  0  0
    2.1470   -4.1930    3.0920 H   0  0  0  0  0  0  0  0  0  0  0  0
    1.3910   -2.5790    3.0850 H   0  0  0  0  0  0  0  0  0  0  0  0
    2.0200   -4.3830    0.8530 H   0  0  0  0  0  0  0  0  0  0  0  0
    0.0120   -3.6200    1.8180 H   0  0  0  0  0  0  0  0  0  0  0  0
    2.3960   -2.8900   -0.8490 H   0  0  0  0  0  0  0  0  0  0  0  0
    4.5290   -1.8150    0.2260 H   0  0  0  0  0  0  0  0  0  0  0  0
    4.3280   -3.5480    0.0170 H   0  0  0  0  0  0  0  0  0  0  0  0
   -2.3630    1.5180   -2.1150 N   0  0  0  0  0  0  0  0  0  0  0  0
   -1.1900    0.7310   -1.7940 C   0  0  0  0  0  0  0  0  0  0  0  0
   -1.3190   -0.5110   -1.8770 O   0  0  0  0  0  0  0  0  0  0  0  0
    0.0840    1.3340   -1.3890 C   0  0  0  0  0  0  0  0  0  0  0  0
    0.6480    0.8140   -0.0920 C   0  0  2  0  0  0  0  0  0  0  0  0
    0.9200   -0.5890   -0.0890 N   0  0  0  0  0  0  0  0  0  0  0  0
   -0.2980    1.2210    0.9880 C   0  0  0  0  0  0  0  0  0  0  0  0
   -0.5710    2.4510    1.0710 O   0  0  0  0  0  0  0  0  0  0  0  0
   -3.2940    1.1480   -1.8350 H   0  0  0  0  0  0  0  0  0  0  0  0
   -2.3130    2.4320   -2.6060 H   0  0  0  0  0  0  0  0  0  0  0  0
    0.8690    1.2180   -2.1940 H   0  0  0  0  0  0  0  0  0  0  0  0
   -0.0400    2.4380   -1.3110 H   0  0  0  0  0  0  0  0  0  0  0  0
    1.6170    1.3870    0.0640 H   0  0  0  0  0  0  0  0  0  0  0  0
    0.1530   -1.2680   -0.2760 H   0  0  0  0  0  0  0  0  0  0  0  0
   -0.9030    0.3640    1.9100 N   0  0  0  0  0  0  0  0  0  0  0  0
   -1.8030    0.8820    2.9180 C   0  0  0  0  0  0  0  0  0  0  0  0
   -2.9430    1.5600    2.2460 C   0  0  0  0  0  0  0  0  0  0  0  0
   -3.0620    1.6420    0.9980 O   0  0  0  0  0  0  0  0  0  0  0  0
   -3.9700    2.1580    2.9880 O   0  0  0  0  0  0  0  0  0  0  0  0
   -0.6880   -0.6600    1.8540 H   0  0  0  0  0  0  0  0  0  0  0  0
   -2.2400    0.0460    3.5290 H   0  0  0  0  0  0  0  0  0  0  0  0
   -1.2550    1.5530    3.5980 H   0  0  0  0  0  0  0  0  0  0  0  0
  1  8  1  0  0  0  0
  1 10  1  0  0  0  0
  1  9  1  0  0  0  0
  2 11  1  6  0  0  0
  2  1  1  0  0  0  0
  3  2  1  0  0  0  0
  3 12  1  0  0  0  0
  4 13  1  6  0  0  0
  4  5  1  0  0  0  0
  4  2  1  0  0  0  0
  6  4  1  0  0  0  0
  6  7  2  0  0  0  0
 14  5  1  0  0  0  0
 15  5  1  0  0  0  0
 16 24  1  0  0  0  0
 16 17  1  0  0  0  0
 17 19  1  0  0  0  0
 18 17  2  0  0  0  0
 19 27  1  0  0  0  0
 19 20  1  0  0  0  0
 20 21  1  0  0  0  0
 20 28  1  1  0  0  0
 20 22  1  0  0  0  0
 21  6  1  0  0  0  0
 22 23  2  0  0  0  0
 22 30  1  0  0  0  0
 25 16  1  0  0  0  0
 26 19  1  0  0  0  0
 29 21  1  0  0  0  0
 30 31  1  0  0  0  0
 31 36  1  0  0  0  0
 31 37  1  0  0  0  0
 32 31  1  0  0  0  0
 32 34  1  0  0  0  0
 33 32  2  0  0  0  0
 35 30  1  0  0  0  0
M  END
$$$$
