TNH.pdb
 OpenBabel07022419113D

 47 47  0  0  1  0  0  0  0  0999 V2000
    3.9210   -3.8950   -0.4260 C   0  0  0  0  0  0  0  0  0  0  0  0
    3.0970   -3.1830   -1.4530 C   0  0  1  0  0  0  0  0  0  0  0  0
    2.9480   -4.0080   -2.5610 O   0  0  0  0  0  0  0  0  0  0  0  0
    1.7500   -2.7440   -0.9070 C   0  0  2  0  0  0  0  0  0  0  0  0
    1.0750   -2.0230   -1.9730 N   0  0  0  0  0  0  0  0  0  0  0  0
    1.8830   -1.8720    0.2610 C   0  0  0  0  0  0  0  0  0  0  0  0
    2.4570   -2.3580    1.2870 O   0  0  0  0  0  0  0  0  0  0  0  0
    4.5620   -4.6330   -0.9510 H   0  0  0  0  0  0  0  0  0  0  0  0
    4.6220   -3.2170    0.1120 H   0  0  0  0  0  0  0  0  0  0  0  0
    3.2960   -4.4710    0.2890 H   0  0  0  0  0  0  0  0  0  0  0  0
    3.6940   -2.3030   -1.8020 H   0  0  0  0  0  0  0  0  0  0  0  0
    2.0270   -4.3490   -2.6770 H   0  0  0  0  0  0  0  0  0  0  0  0
    1.1580   -3.6470   -0.6980 H   0  0  0  0  0  0  0  0  0  0  0  0
    1.6970   -1.3310   -2.4300 H   0  0  0  0  0  0  0  0  0  0  0  0
    0.6450   -2.6900   -2.6490 H   0  0  0  0  0  0  0  0  0  0  0  0
    4.3540    0.0330    0.5190 N   0  0  0  0  0  0  0  0  0  0  0  0
    3.7610    1.2680    0.8500 C   0  0  0  0  0  0  0  0  0  0  0  0
    4.4750    2.2990    0.6870 O   0  0  0  0  0  0  0  0  0  0  0  0
    2.4070    1.4700    1.3600 C   0  0  0  0  0  0  0  0  0  0  0  0
    1.6120    0.2120    1.5320 C   0  0  2  0  0  0  0  0  0  0  0  0
    1.4200   -0.5330    0.3320 N   0  0  0  0  0  0  0  0  0  0  0  0
    0.2920    0.5300    2.1360 C   0  0  0  0  0  0  0  0  0  0  0  0
    0.2750    1.1850    3.2020 O   0  0  0  0  0  0  0  0  0  0  0  0
    4.8550   -0.5080    1.2370 H   0  0  0  0  0  0  0  0  0  0  0  0
    4.2850   -0.3270   -0.4430 H   0  0  0  0  0  0  0  0  0  0  0  0
    1.8540    2.1250    0.6320 H   0  0  0  0  0  0  0  0  0  0  0  0
    2.4620    2.0590    2.2960 H   0  0  0  0  0  0  0  0  0  0  0  0
    2.1440   -0.4050    2.2930 H   0  0  0  0  0  0  0  0  0  0  0  0
    0.9530   -0.1460   -0.5090 H   0  0  0  0  0  0  0  0  0  0  0  0
   -0.9210    0.1170    1.5450 N   0  0  0  0  0  0  0  0  0  0  0  0
   -2.2410    0.4130    2.1130 C   0  0  1  0  0  0  0  0  0  0  0  0
   -2.9700    1.1920    1.0600 C   0  0  0  0  0  0  0  0  0  0  0  0
   -4.3270    1.5520    1.5080 C   0  0  0  0  0  0  0  0  0  0  0  0
   -5.5200    0.8850    1.3380 C   0  0  0  0  0  0  0  0  0  0  0  0
   -6.5210    1.5790    1.8950 N   0  0  0  0  0  0  0  0  0  0  0  0
   -5.9950    2.6900    2.4260 C   0  0  0  0  0  0  0  0  0  0  0  0
   -4.6500    2.6770    2.1910 N   0  0  0  0  0  0  0  0  0  0  0  0
   -2.9460   -0.8580    2.3530 C   0  0  0  0  0  0  0  0  0  0  0  0
   -4.0780   -0.9160    2.8750 O   0  0  0  0  0  0  0  0  0  0  0  0
   -2.3360   -2.0440    1.9880 O   0  0  0  0  0  0  0  0  0  0  0  0
   -0.9110   -0.4250    0.6620 H   0  0  0  0  0  0  0  0  0  0  0  0
   -2.1010    0.9980    3.0540 H   0  0  0  0  0  0  0  0  0  0  0  0
   -2.4340    2.1220    0.7710 H   0  0  0  0  0  0  0  0  0  0  0  0
   -3.0280    0.5330    0.1460 H   0  0  0  0  0  0  0  0  0  0  0  0
   -5.5960   -0.0760    0.8050 H   0  0  0  0  0  0  0  0  0  0  0  0
   -7.5180    1.3090    1.9120 H   0  0  0  0  0  0  0  0  0  0  0  0
   -6.5090    3.4940    2.9620 H   0  0  0  0  0  0  0  0  0  0  0  0
  1  9  1  0  0  0  0
  1 10  1  0  0  0  0
  2 11  1  6  0  0  0
  2  4  1  0  0  0  0
  2  1  1  0  0  0  0
  3  2  1  0  0  0  0
  4 13  1  1  0  0  0
  4  6  1  0  0  0  0
  5  4  1  0  0  0  0
  6 21  1  0  0  0  0
  6  7  2  0  0  0  0
  8  1  1  0  0  0  0
 12  3  1  0  0  0  0
 14  5  1  0  0  0  0
 15  5  1  0  0  0  0
 16 17  1  0  0  0  0
 16 24  1  0  0  0  0
 17 19  1  0  0  0  0
 18 17  2  0  0  0  0
 19 20  1  0  0  0  0
 19 27  1  0  0  0  0
 20 22  1  0  0  0  0
 20 28  1  1  0  0  0
 21 20  1  0  0  0  0
 22 23  2  0  0  0  0
 25 16  1  0  0  0  0
 26 19  1  0  0  0  0
 29 21  1  0  0  0  0
 30 31  1  0  0  0  0
 30 22  1  0  0  0  0
 31 38  1  0  0  0  0
 31 42  1  1  0  0  0
 32 33  1  0  0  0  0
 32 31  1  0  0  0  0
 33 37  1  0  0  0  0
 34 33  2  0  0  0  0
 34 35  1  0  0  0  0
 35 46  1  0  0  0  0
 35 36  1  0  0  0  0
 36 47  1  0  0  0  0
 37 36  2  0  0  0  0
 38 39  1  0  0  0  0
 40 38  2  0  0  0  0
 41 30  1  0  0  0  0
 43 32  1  0  0  0  0
 44 32  1  0  0  0  0
 45 34  1  0  0  0  0
M  END
$$$$
