TNL.pdb
 OpenBabel07022419113D

 49 48  0  0  1  0  0  0  0  0999 V2000
    1.1770   -4.4130    0.2900 C   0  0  0  0  0  0  0  0  0  0  0  0
    2.3820   -4.1090    1.1460 C   0  0  1  0  0  0  0  0  0  0  0  0
    3.1390   -5.3060    1.1510 O   0  0  0  0  0  0  0  0  0  0  0  0
    3.2670   -3.0650    0.5200 C   0  0  2  0  0  0  0  0  0  0  0  0
    4.4900   -2.9490    1.3390 N   0  0  0  0  0  0  0  0  0  0  0  0
    2.6530   -1.7470    0.3960 C   0  0  0  0  0  0  0  0  0  0  0  0
    3.1570   -0.7900    1.0800 O   0  0  0  0  0  0  0  0  0  0  0  0
    0.3120   -3.7730    0.5290 H   0  0  0  0  0  0  0  0  0  0  0  0
    1.4380   -4.4450   -0.7920 H   0  0  0  0  0  0  0  0  0  0  0  0
    0.8070   -5.4650    0.4970 H   0  0  0  0  0  0  0  0  0  0  0  0
    2.1010   -3.9100    2.1760 H   0  0  0  0  0  0  0  0  0  0  0  0
    2.8980   -5.8230    1.9390 H   0  0  0  0  0  0  0  0  0  0  0  0
    3.5890   -3.4210   -0.4670 H   0  0  0  0  0  0  0  0  0  0  0  0
    5.2240   -3.5550    0.9520 H   0  0  0  0  0  0  0  0  0  0  0  0
    4.2300   -3.2160    2.3000 H   0  0  0  0  0  0  0  0  0  0  0  0
    1.2340    3.0120   -1.2480 N   0  0  0  0  0  0  0  0  0  0  0  0
    0.6610    1.8950   -1.9290 C   0  0  0  0  0  0  0  0  0  0  0  0
   -0.3560    2.1580   -2.6440 O   0  0  0  0  0  0  0  0  0  0  0  0
    1.2040    0.5360   -1.8150 C   0  0  0  0  0  0  0  0  0  0  0  0
    0.9800   -0.0420   -0.4770 C   0  0  2  0  0  0  0  0  0  0  0  0
    1.5630   -1.3960   -0.3920 N   0  0  0  0  0  0  0  0  0  0  0  0
   -0.4190   -0.1940   -0.1260 C   0  0  0  0  0  0  0  0  0  0  0  0
   -0.9070   -1.3590    0.0270 O   0  0  0  0  0  0  0  0  0  0  0  0
    0.7960    3.9480   -1.2120 H   0  0  0  0  0  0  0  0  0  0  0  0
    2.1400    2.8690   -0.7640 H   0  0  0  0  0  0  0  0  0  0  0  0
    0.7190   -0.0650   -2.6370 H   0  0  0  0  0  0  0  0  0  0  0  0
    2.3090    0.6400   -2.0450 H   0  0  0  0  0  0  0  0  0  0  0  0
    1.5890    0.5590    0.2520 H   0  0  0  0  0  0  0  0  0  0  0  0
    1.0970   -2.1030   -0.9820 H   0  0  0  0  0  0  0  0  0  0  0  0
   -2.2680   -0.7230    3.0980 C   0  0  0  0  0  0  0  0  0  0  0  0
   -2.1190    0.7550    2.8850 C   0  0  0  0  0  0  0  0  0  0  0  0
   -0.7060    1.2410    2.8840 C   0  0  0  0  0  0  0  0  0  0  0  0
   -2.9720    1.2680    1.7700 C   0  0  0  0  0  0  0  0  0  0  0  0
   -2.6860    0.6320    0.4500 C   0  0  2  0  0  0  0  0  0  0  0  0
   -1.3010    0.8830    0.0730 N   0  0  0  0  0  0  0  0  0  0  0  0
   -3.5730    1.2110   -0.5770 C   0  0  0  0  0  0  0  0  0  0  0  0
   -4.8320    1.0760   -0.4200 O   0  0  0  0  0  0  0  0  0  0  0  0
   -3.1930    1.8960   -1.7070 O   0  0  0  0  0  0  0  0  0  0  0  0
   -2.4150   -0.9360    4.1530 H   0  0  0  0  0  0  0  0  0  0  0  0
   -1.3960   -1.3000    2.7250 H   0  0  0  0  0  0  0  0  0  0  0  0
   -3.1660   -1.0560    2.5070 H   0  0  0  0  0  0  0  0  0  0  0  0
   -2.5830    1.2220    3.8260 H   0  0  0  0  0  0  0  0  0  0  0  0
   -0.3830    1.5530    3.9270 H   0  0  0  0  0  0  0  0  0  0  0  0
    0.0500    0.4530    2.6240 H   0  0  0  0  0  0  0  0  0  0  0  0
   -0.6010    2.1640    2.2800 H   0  0  0  0  0  0  0  0  0  0  0  0
   -4.0420    1.1020    2.0150 H   0  0  0  0  0  0  0  0  0  0  0  0
   -2.8320    2.3700    1.6740 H   0  0  0  0  0  0  0  0  0  0  0  0
   -2.8550   -0.4790    0.5230 H   0  0  0  0  0  0  0  0  0  0  0  0
   -0.9710    1.8490   -0.0410 H   0  0  0  0  0  0  0  0  0  0  0  0
  1 10  1  0  0  0  0
  1  8  1  0  0  0  0
  1  2  1  0  0  0  0
  2  3  1  0  0  0  0
  2 11  1  1  0  0  0
  3 12  1  0  0  0  0
  4 13  1  6  0  0  0
  4  2  1  0  0  0  0
  4  5  1  0  0  0  0
  5 15  1  0  0  0  0
  6  4  1  0  0  0  0
  6  7  2  0  0  0  0
  9  1  1  0  0  0  0
 14  5  1  0  0  0  0
 16 24  1  0  0  0  0
 16 25  1  0  0  0  0
 17 19  1  0  0  0  0
 17 16  1  0  0  0  0
 18 17  2  0  0  0  0
 19 20  1  0  0  0  0
 20 21  1  0  0  0  0
 20 22  1  0  0  0  0
 20 28  1  1  0  0  0
 21  6  1  0  0  0  0
 22 23  2  0  0  0  0
 22 35  1  0  0  0  0
 26 19  1  0  0  0  0
 27 19  1  0  0  0  0
 29 21  1  0  0  0  0
 30 39  1  0  0  0  0
 31 30  1  0  0  0  0
 31 42  1  0  0  0  0
 32 31  1  0  0  0  0
 32 43  1  0  0  0  0
 33 46  1  0  0  0  0
 33 31  1  0  0  0  0
 34 48  1  1  0  0  0
 34 33  1  0  0  0  0
 35 34  1  0  0  0  0
 36 37  1  0  0  0  0
 36 34  1  0  0  0  0
 38 36  2  0  0  0  0
 40 30  1  0  0  0  0
 41 30  1  0  0  0  0
 44 32  1  0  0  0  0
 45 32  1  0  0  0  0
 47 33  1  0  0  0  0
 49 35  1  0  0  0  0
M  END
$$$$
