TNM.pdb
 OpenBabel07022419113D

 47 46  0  0  1  0  0  0  0  0999 V2000
    0.1080   -3.3770    1.4270 C   0  0  0  0  0  0  0  0  0  0  0  0
    0.4130   -3.3430    2.9160 C   0  0  1  0  0  0  0  0  0  0  0  0
    0.7990   -4.6890    3.2020 O   0  0  0  0  0  0  0  0  0  0  0  0
    1.6620   -2.5320    3.2320 C   0  0  2  0  0  0  0  0  0  0  0  0
    2.0230   -2.7880    4.6450 N   0  0  0  0  0  0  0  0  0  0  0  0
    1.4920   -1.0790    3.0950 C   0  0  0  0  0  0  0  0  0  0  0  0
    1.5770   -0.3380    4.1480 O   0  0  0  0  0  0  0  0  0  0  0  0
   -0.6590   -2.6730    1.1110 H   0  0  0  0  0  0  0  0  0  0  0  0
    1.0310   -3.2820    0.8220 H   0  0  0  0  0  0  0  0  0  0  0  0
   -0.2950   -4.4000    1.1410 H   0  0  0  0  0  0  0  0  0  0  0  0
   -0.4410   -3.1240    3.5410 H   0  0  0  0  0  0  0  0  0  0  0  0
    0.0330   -5.2170    2.9000 H   0  0  0  0  0  0  0  0  0  0  0  0
    2.4930   -2.9610    2.6380 H   0  0  0  0  0  0  0  0  0  0  0  0
    2.0370   -3.7920    4.8530 H   0  0  0  0  0  0  0  0  0  0  0  0
    3.0330   -2.4650    4.7530 H   0  0  0  0  0  0  0  0  0  0  0  0
    3.6220    1.7970   -0.9070 N   0  0  0  0  0  0  0  0  0  0  0  0
    2.5240    1.2990   -0.1720 C   0  0  0  0  0  0  0  0  0  0  0  0
    1.7330    0.5010   -0.7150 O   0  0  0  0  0  0  0  0  0  0  0  0
    2.3200    1.7270    1.2320 C   0  0  0  0  0  0  0  0  0  0  0  0
    1.1010    1.0790    1.8750 C   0  0  2  0  0  0  0  0  0  0  0  0
    1.2380   -0.3720    1.8870 N   0  0  0  0  0  0  0  0  0  0  0  0
   -0.1500    1.5660    1.2760 C   0  0  0  0  0  0  0  0  0  0  0  0
   -0.3850    2.8080    1.2330 O   0  0  0  0  0  0  0  0  0  0  0  0
    3.7950    1.4420   -1.8690 H   0  0  0  0  0  0  0  0  0  0  0  0
    4.2860    2.5090   -0.5470 H   0  0  0  0  0  0  0  0  0  0  0  0
    2.2010    2.8330    1.2170 H   0  0  0  0  0  0  0  0  0  0  0  0
    3.2350    1.5490    1.8390 H   0  0  0  0  0  0  0  0  0  0  0  0
    1.1240    1.4260    2.9390 H   0  0  0  0  0  0  0  0  0  0  0  0
    1.1520   -0.9360    1.0130 H   0  0  0  0  0  0  0  0  0  0  0  0
   -0.9830   -0.4430   -4.1310 C   0  0  0  0  0  0  0  0  0  0  0  0
   -2.4670   -1.0770   -3.2990 S   0  0  0  0  0  0  0  0  0  0  0  0
   -2.3660   -0.7570   -1.5050 C   0  0  0  0  0  0  0  0  0  0  0  0
   -2.4140    0.7420   -1.3150 C   0  0  0  0  0  0  0  0  0  0  0  0
   -2.3350    1.1300    0.1480 C   0  0  2  0  0  0  0  0  0  0  0  0
   -1.0940    0.6550    0.7450 N   0  0  0  0  0  0  0  0  0  0  0  0
   -3.5180    0.5980    0.8670 C   0  0  0  0  0  0  0  0  0  0  0  0
   -4.6760    0.8880    0.5040 O   0  0  0  0  0  0  0  0  0  0  0  0
   -3.3390   -0.2340    1.9590 O   0  0  0  0  0  0  0  0  0  0  0  0
   -0.9210    0.6760   -4.0390 H   0  0  0  0  0  0  0  0  0  0  0  0
   -1.0880   -0.6260   -5.2170 H   0  0  0  0  0  0  0  0  0  0  0  0
   -0.0850   -0.9040   -3.6970 H   0  0  0  0  0  0  0  0  0  0  0  0
   -3.2270   -1.2630   -1.0520 H   0  0  0  0  0  0  0  0  0  0  0  0
   -1.4500   -1.1640   -1.0700 H   0  0  0  0  0  0  0  0  0  0  0  0
   -1.5910    1.2440   -1.8260 H   0  0  0  0  0  0  0  0  0  0  0  0
   -3.4000    1.0870   -1.6920 H   0  0  0  0  0  0  0  0  0  0  0  0
   -2.3690    2.2330    0.2140 H   0  0  0  0  0  0  0  0  0  0  0  0
   -0.9670   -0.3760    0.7460 H   0  0  0  0  0  0  0  0  0  0  0  0
  1  2  1  0  0  0  0
  2  3  1  0  0  0  0
  2  4  1  0  0  0  0
  2 11  1  1  0  0  0
  4 13  1  6  0  0  0
  4  5  1  0  0  0  0
  5 15  1  0  0  0  0
  5 14  1  0  0  0  0
  6  4  1  0  0  0  0
  6  7  2  0  0  0  0
  8  1  1  0  0  0  0
  9  1  1  0  0  0  0
 10  1  1  0  0  0  0
 12  3  1  0  0  0  0
 16 25  1  0  0  0  0
 16 17  1  0  0  0  0
 17 19  1  0  0  0  0
 18 17  2  0  0  0  0
 19 27  1  0  0  0  0
 19 20  1  0  0  0  0
 20 21  1  0  0  0  0
 20 28  1  1  0  0  0
 21  6  1  0  0  0  0
 22 20  1  0  0  0  0
 23 22  2  0  0  0  0
 24 16  1  0  0  0  0
 26 19  1  0  0  0  0
 29 21  1  0  0  0  0
 30 39  1  0  0  0  0
 30 41  1  0  0  0  0
 30 31  1  0  0  0  0
 31 32  1  0  0  0  0
 32 33  1  0  0  0  0
 32 43  1  0  0  0  0
 32 42  1  0  0  0  0
 33 34  1  0  0  0  0
 34 46  1  1  0  0  0
 34 35  1  0  0  0  0
 34 36  1  0  0  0  0
 35 47  1  0  0  0  0
 35 22  1  0  0  0  0
 36 38  1  0  0  0  0
 37 36  2  0  0  0  0
 40 30  1  0  0  0  0
 44 33  1  0  0  0  0
 45 33  1  0  0  0  0
M  END
$$$$
