TNV.pdb
 OpenBabel07022419113D

 46 45  0  0  1  0  0  0  0  0999 V2000
    3.5790   -4.8540    1.8030 C   0  0  0  0  0  0  0  0  0  0  0  0
    3.5400   -3.3190    1.8680 C   0  0  1  0  0  0  0  0  0  0  0  0
    4.3020   -2.7600    0.8520 O   0  0  0  0  0  0  0  0  0  0  0  0
    2.1200   -2.8500    1.7820 C   0  0  2  0  0  0  0  0  0  0  0  0
    1.5560   -3.2410    0.5200 N   0  0  0  0  0  0  0  0  0  0  0  0
    2.0680   -1.3770    1.9420 C   0  0  0  0  0  0  0  0  0  0  0  0
    2.5650   -0.7710    2.9230 O   0  0  0  0  0  0  0  0  0  0  0  0
    4.4660   -5.2280    2.3640 H   0  0  0  0  0  0  0  0  0  0  0  0
    2.6450   -5.3010    2.2170 H   0  0  0  0  0  0  0  0  0  0  0  0
    3.6610   -5.1710    0.7540 H   0  0  0  0  0  0  0  0  0  0  0  0
    3.9910   -3.0830    2.8720 H   0  0  0  0  0  0  0  0  0  0  0  0
    5.1920   -3.2110    0.8120 H   0  0  0  0  0  0  0  0  0  0  0  0
    1.4870   -3.3300    2.5740 H   0  0  0  0  0  0  0  0  0  0  0  0
    0.5170   -3.2560    0.4930 H   0  0  0  0  0  0  0  0  0  0  0  0
    1.8980   -4.1940    0.2860 H   0  0  0  0  0  0  0  0  0  0  0  0
    1.0740    2.3380   -2.3200 N   0  0  0  0  0  0  0  0  0  0  0  0
    1.4400    1.2970   -1.4110 C   0  0  0  0  0  0  0  0  0  0  0  0
    1.2540    0.1140   -1.8060 O   0  0  0  0  0  0  0  0  0  0  0  0
    2.0060    1.5910   -0.0720 C   0  0  0  0  0  0  0  0  0  0  0  0
    1.3500    0.8770    1.0580 C   0  0  2  0  0  0  0  0  0  0  0  0
    1.4250   -0.5510    0.9470 N   0  0  0  0  0  0  0  0  0  0  0  0
   -0.0330    1.3610    1.3060 C   0  0  0  0  0  0  0  0  0  0  0  0
   -0.2180    2.6000    1.4290 O   0  0  0  0  0  0  0  0  0  0  0  0
    0.3120    2.1420   -2.9960 H   0  0  0  0  0  0  0  0  0  0  0  0
    1.5300    3.2630   -2.3260 H   0  0  0  0  0  0  0  0  0  0  0  0
    2.0800    2.6930    0.0930 H   0  0  0  0  0  0  0  0  0  0  0  0
    3.0870    1.2540   -0.1230 H   0  0  0  0  0  0  0  0  0  0  0  0
    1.9320    1.1460    1.9920 H   0  0  0  0  0  0  0  0  0  0  0  0
    1.0050   -1.0560    0.1370 H   0  0  0  0  0  0  0  0  0  0  0  0
   -3.7120   -0.6210    0.2440 C   0  0  0  0  0  0  0  0  0  0  0  0
   -3.4640    0.8400    0.5380 C   0  0  0  0  0  0  0  0  0  0  0  0
   -3.0970    1.5550   -0.7200 C   0  0  0  0  0  0  0  0  0  0  0  0
   -2.4890    1.0710    1.6560 C   0  0  2  0  0  0  0  0  0  0  0  0
   -1.1770    0.5250    1.4160 N   0  0  0  0  0  0  0  0  0  0  0  0
   -3.0760    0.6350    2.9350 C   0  0  0  0  0  0  0  0  0  0  0  0
   -2.5190   -0.1280    3.7630 O   0  0  0  0  0  0  0  0  0  0  0  0
   -4.3410    1.0940    3.2680 O   0  0  0  0  0  0  0  0  0  0  0  0
   -2.9340   -1.0390   -0.4360 H   0  0  0  0  0  0  0  0  0  0  0  0
   -3.8920   -1.2340    1.1300 H   0  0  0  0  0  0  0  0  0  0  0  0
   -4.6580   -0.6580   -0.3700 H   0  0  0  0  0  0  0  0  0  0  0  0
   -4.4470    1.2650    0.8920 H   0  0  0  0  0  0  0  0  0  0  0  0
   -3.4260    0.9110   -1.5860 H   0  0  0  0  0  0  0  0  0  0  0  0
   -2.0370    1.8250   -0.8080 H   0  0  0  0  0  0  0  0  0  0  0  0
   -3.6990    2.4980   -0.8420 H   0  0  0  0  0  0  0  0  0  0  0  0
   -2.3690    2.1820    1.7330 H   0  0  0  0  0  0  0  0  0  0  0  0
   -0.9990   -0.5010    1.3100 H   0  0  0  0  0  0  0  0  0  0  0  0
  1  2  1  0  0  0  0
  1  9  1  0  0  0  0
  1  8  1  0  0  0  0
  2 11  1  1  0  0  0
  3  2  1  0  0  0  0
  4  2  1  0  0  0  0
  4  6  1  0  0  0  0
  4 13  1  1  0  0  0
  5  4  1  0  0  0  0
  6  7  2  0  0  0  0
 10  1  1  0  0  0  0
 12  3  1  0  0  0  0
 14  5  1  0  0  0  0
 15  5  1  0  0  0  0
 16 17  1  0  0  0  0
 17 19  1  0  0  0  0
 18 17  2  0  0  0  0
 19 26  1  0  0  0  0
 19 20  1  0  0  0  0
 20 22  1  0  0  0  0
 20 28  1  1  0  0  0
 21 20  1  0  0  0  0
 21  6  1  0  0  0  0
 22 34  1  0  0  0  0
 22 23  2  0  0  0  0
 24 16  1  0  0  0  0
 25 16  1  0  0  0  0
 27 19  1  0  0  0  0
 29 21  1  0  0  0  0
 30 31  1  0  0  0  0
 30 39  1  0  0  0  0
 31 41  1  0  0  0  0
 31 33  1  0  0  0  0
 32 31  1  0  0  0  0
 33 45  1  1  0  0  0
 33 35  1  0  0  0  0
 34 33  1  0  0  0  0
 35 37  2  0  0  0  0
 35 36  1  0  0  0  0
 38 30  1  0  0  0  0
 40 30  1  0  0  0  0
 42 32  1  0  0  0  0
 43 32  1  0  0  0  0
 44 32  1  0  0  0  0
 46 34  1  0  0  0  0
M  END
$$$$
