TNW.pdb
 OpenBabel07022419113D

 54 55  0  0  1  0  0  0  0  0999 V2000
    1.8210   -1.8000   -1.0020 C   0  0  0  0  0  0  0  0  0  0  0  0
    2.6320   -2.1800    0.2420 C   0  0  1  0  0  0  0  0  0  0  0  0
    3.6530   -3.0870   -0.2070 O   0  0  0  0  0  0  0  0  0  0  0  0
    3.3830   -1.0250    0.8010 C   0  0  2  0  0  0  0  0  0  0  0  0
    4.2610   -1.6170    1.8530 N   0  0  0  0  0  0  0  0  0  0  0  0
    2.6240    0.0770    1.3750 C   0  0  0  0  0  0  0  0  0  0  0  0
    2.8210    0.3290    2.6120 O   0  0  0  0  0  0  0  0  0  0  0  0
    2.3410   -1.0100   -1.5410 H   0  0  0  0  0  0  0  0  0  0  0  0
    1.7040   -2.7280   -1.6180 H   0  0  0  0  0  0  0  0  0  0  0  0
    0.8400   -1.4730   -0.6630 H   0  0  0  0  0  0  0  0  0  0  0  0
    2.0030   -2.7450    0.9130 H   0  0  0  0  0  0  0  0  0  0  0  0
    3.1580   -3.9160   -0.4840 H   0  0  0  0  0  0  0  0  0  0  0  0
    4.0730   -0.6520    0.0070 H   0  0  0  0  0  0  0  0  0  0  0  0
    4.4480   -2.6060    1.6590 H   0  0  0  0  0  0  0  0  0  0  0  0
    3.8670   -1.4130    2.7940 H   0  0  0  0  0  0  0  0  0  0  0  0
    3.1020    4.5700    1.7280 N   0  0  0  0  0  0  0  0  0  0  0  0
    2.6190    3.6890    0.7260 C   0  0  0  0  0  0  0  0  0  0  0  0
    3.4460    3.2520   -0.1190 O   0  0  0  0  0  0  0  0  0  0  0  0
    1.1860    3.3270    0.7190 C   0  0  0  0  0  0  0  0  0  0  0  0
    0.9950    1.9940    1.3760 C   0  0  2  0  0  0  0  0  0  0  0  0
    1.6980    0.9090    0.7430 N   0  0  0  0  0  0  0  0  0  0  0  0
   -0.4260    1.6670    1.5990 C   0  0  0  0  0  0  0  0  0  0  0  0
   -1.1620    2.5750    2.1310 O   0  0  0  0  0  0  0  0  0  0  0  0
    3.9570    4.3510    2.3170 H   0  0  0  0  0  0  0  0  0  0  0  0
    2.6520    5.4870    1.9510 H   0  0  0  0  0  0  0  0  0  0  0  0
    0.6420    4.0740    1.3300 H   0  0  0  0  0  0  0  0  0  0  0  0
    0.7370    3.3830   -0.2920 H   0  0  0  0  0  0  0  0  0  0  0  0
    1.4370    2.0580    2.4190 H   0  0  0  0  0  0  0  0  0  0  0  0
    1.4880    0.7560   -0.2610 H   0  0  0  0  0  0  0  0  0  0  0  0
   -1.0680    0.4530    1.2870 N   0  0  0  0  0  0  0  0  0  0  0  0
   -2.5090    0.2570    1.5650 C   0  0  1  0  0  0  0  0  0  0  0  0
   -3.1980    0.0560    0.2660 C   0  0  0  0  0  0  0  0  0  0  0  0
   -2.7770   -1.0570   -0.5610 C   0  0  0  0  0  0  0  0  0  0  0  0
   -1.8450   -0.9350   -1.5990 C   0  0  0  0  0  0  0  0  0  0  0  0
   -1.6330   -2.1380   -2.1530 N   0  0  0  0  0  0  0  0  0  0  0  0
   -2.3950   -3.0600   -1.5160 C   0  0  0  0  0  0  0  0  0  0  0  0
   -2.5370   -4.4150   -1.7160 C   0  0  0  0  0  0  0  0  0  0  0  0
   -3.4080   -5.1460   -0.9220 C   0  0  0  0  0  0  0  0  0  0  0  0
   -4.1250   -4.5000    0.0620 C   0  0  0  0  0  0  0  0  0  0  0  0
   -3.9650   -3.1530    0.2410 C   0  0  0  0  0  0  0  0  0  0  0  0
   -3.0950   -2.3870   -0.5400 C   0  0  0  0  0  0  0  0  0  0  0  0
   -2.6450   -0.8520    2.5130 C   0  0  0  0  0  0  0  0  0  0  0  0
   -3.7460   -1.1780    3.0210 O   0  0  0  0  0  0  0  0  0  0  0  0
   -1.5340   -1.6090    2.8990 O   0  0  0  0  0  0  0  0  0  0  0  0
   -0.5030   -0.3020    0.8600 H   0  0  0  0  0  0  0  0  0  0  0  0
   -2.9180    1.1880    2.0260 H   0  0  0  0  0  0  0  0  0  0  0  0
   -4.3050   -0.0220    0.5130 H   0  0  0  0  0  0  0  0  0  0  0  0
   -3.1560    1.0480   -0.2830 H   0  0  0  0  0  0  0  0  0  0  0  0
   -1.3490   -0.0360   -1.9370 H   0  0  0  0  0  0  0  0  0  0  0  0
   -1.0010   -2.3850   -2.9400 H   0  0  0  0  0  0  0  0  0  0  0  0
   -1.9810   -4.9560   -2.4900 H   0  0  0  0  0  0  0  0  0  0  0  0
   -3.5220   -6.2170   -1.0780 H   0  0  0  0  0  0  0  0  0  0  0  0
   -4.8080   -5.0950    0.6780 H   0  0  0  0  0  0  0  0  0  0  0  0
   -4.5430   -2.6590    1.0030 H   0  0  0  0  0  0  0  0  0  0  0  0
  1 10  1  0  0  0  0
  1  2  1  0  0  0  0
  2  4  1  0  0  0  0
  2 11  1  1  0  0  0
  3  2  1  0  0  0  0
  4 13  1  6  0  0  0
  4  6  1  0  0  0  0
  4  5  1  0  0  0  0
  5 15  1  0  0  0  0
  6  7  2  0  0  0  0
  8  1  1  0  0  0  0
  9  1  1  0  0  0  0
 12  3  1  0  0  0  0
 14  5  1  0  0  0  0
 16 25  1  0  0  0  0
 16 24  1  0  0  0  0
 17 16  1  0  0  0  0
 18 17  2  0  0  0  0
 19 17  1  0  0  0  0
 19 26  1  0  0  0  0
 19 20  1  0  0  0  0
 20 22  1  0  0  0  0
 20 28  1  1  0  0  0
 21  6  1  0  0  0  0
 21 20  1  0  0  0  0
 22 23  2  0  0  0  0
 27 19  1  0  0  0  0
 29 21  1  0  0  0  0
 30 31  1  0  0  0  0
 30 22  1  0  0  0  0
 31 46  1  1  0  0  0
 31 42  1  0  0  0  0
 32 47  1  0  0  0  0
 32 31  1  0  0  0  0
 33 41  1  0  0  0  0
 33 32  1  0  0  0  0
 34 33  2  0  0  0  0
 35 34  1  0  0  0  0
 35 36  1  0  0  0  0
 36 41  1  0  0  0  0
 37 36  2  0  0  0  0
 37 38  1  0  0  0  0
 38 39  2  0  0  0  0
 39 40  1  0  0  0  0
 39 53  1  0  0  0  0
 40 54  1  0  0  0  0
 41 40  2  0  0  0  0
 42 44  2  0  0  0  0
 42 43  1  0  0  0  0
 45 30  1  0  0  0  0
 48 32  1  0  0  0  0
 49 34  1  0  0  0  0
 50 35  1  0  0  0  0
 51 37  1  0  0  0  0
 52 38  1  0  0  0  0
M  END
$$$$
