TPG.pdb
 OpenBabel07022419143D

 37 37  0  0  1  0  0  0  0  0999 V2000
   -0.9290   -4.1570    1.8320 C   0  0  0  0  0  0  0  0  0  0  0  0
   -0.3320   -2.8230    1.4860 C   0  0  1  0  0  0  0  0  0  0  0  0
    0.7660   -2.5940    2.3400 O   0  0  0  0  0  0  0  0  0  0  0  0
    0.2060   -2.9070    0.0640 C   0  0  2  0  0  0  0  0  0  0  0  0
    1.1730   -4.0010   -0.0120 N   0  0  0  0  0  0  0  0  0  0  0  0
    0.8660   -1.6480   -0.3530 C   0  0  0  0  0  0  0  0  0  0  0  0
    2.1290   -1.6440   -0.5470 O   0  0  0  0  0  0  0  0  0  0  0  0
   -1.8070   -4.3290    1.1910 H   0  0  0  0  0  0  0  0  0  0  0  0
   -0.1800   -4.9460    1.6830 H   0  0  0  0  0  0  0  0  0  0  0  0
   -1.2490   -4.2090    2.8950 H   0  0  0  0  0  0  0  0  0  0  0  0
   -1.0290   -1.9890    1.6080 H   0  0  0  0  0  0  0  0  0  0  0  0
    1.5440   -2.2960    1.8130 H   0  0  0  0  0  0  0  0  0  0  0  0
   -0.6110   -3.1240   -0.6450 H   0  0  0  0  0  0  0  0  0  0  0  0
    0.6480   -4.8580   -0.2890 H   0  0  0  0  0  0  0  0  0  0  0  0
    1.6960   -4.1330    0.8620 H   0  0  0  0  0  0  0  0  0  0  0  0
    0.1110   -0.4590   -0.5370 N   0  0  0  0  0  0  0  0  0  0  0  0
   -1.2980   -0.2240   -0.3910 C   0  0  0  0  0  0  0  0  0  0  0  0
   -1.5820    0.6620   -1.5980 C   0  0  0  0  0  0  0  0  0  0  0  0
   -0.4010    1.6020   -1.5740 C   0  0  0  0  0  0  0  0  0  0  0  0
    0.7060    0.8180   -0.9430 C   0  0  1  0  0  0  0  0  0  0  0  0
    1.2570    1.5270    0.2610 C   0  0  0  0  0  0  0  0  0  0  0  0
    1.8480    2.6310    0.1520 O   0  0  0  0  0  0  0  0  0  0  0  0
   -1.5770    0.3490    0.5010 H   0  0  0  0  0  0  0  0  0  0  0  0
   -1.9110   -1.1500   -0.4270 H   0  0  0  0  0  0  0  0  0  0  0  0
   -2.5380    1.1810   -1.3850 H   0  0  0  0  0  0  0  0  0  0  0  0
   -1.6150    0.0330   -2.4870 H   0  0  0  0  0  0  0  0  0  0  0  0
   -0.6180    2.4740   -0.9260 H   0  0  0  0  0  0  0  0  0  0  0  0
   -0.1540    1.9390   -2.6050 H   0  0  0  0  0  0  0  0  0  0  0  0
    1.4920    0.6550   -1.7110 H   0  0  0  0  0  0  0  0  0  0  0  0
    1.1230    0.9680    1.5490 N   0  0  0  0  0  0  0  0  0  0  0  0
    1.6340    1.6060    2.7450 C   0  0  0  0  0  0  0  0  0  0  0  0
    1.0350    2.9370    2.9640 C   0  0  0  0  0  0  0  0  0  0  0  0
    0.1870    3.3960    2.1640 O   0  0  0  0  0  0  0  0  0  0  0  0
    1.3880    3.7150    4.0530 O   0  0  0  0  0  0  0  0  0  0  0  0
    0.6160    0.0350    1.6100 H   0  0  0  0  0  0  0  0  0  0  0  0
    2.7380    1.7090    2.7240 H   0  0  0  0  0  0  0  0  0  0  0  0
    1.3620    0.9800    3.6190 H   0  0  0  0  0  0  0  0  0  0  0  0
  1 10  1  0  0  0  0
  2 11  1  1  0  0  0
  2  1  1  0  0  0  0
  2  3  1  0  0  0  0
  4 13  1  6  0  0  0
  4  2  1  0  0  0  0
  5  4  1  0  0  0  0
  5 15  1  0  0  0  0
  6  4  1  0  0  0  0
  7  6  2  0  0  0  0
  8  1  1  0  0  0  0
  9  1  1  0  0  0  0
 12  3  1  0  0  0  0
 14  5  1  0  0  0  0
 16 17  1  0  0  0  0
 16  6  1  0  0  0  0
 17 23  1  0  0  0  0
 18 19  1  0  0  0  0
 18 25  1  0  0  0  0
 18 17  1  0  0  0  0
 19 20  1  0  0  0  0
 19 27  1  0  0  0  0
 20 29  1  6  0  0  0
 20 16  1  0  0  0  0
 20 21  1  0  0  0  0
 21 30  1  0  0  0  0
 22 21  2  0  0  0  0
 24 17  1  0  0  0  0
 26 18  1  0  0  0  0
 28 19  1  0  0  0  0
 30 35  1  0  0  0  0
 30 31  1  0  0  0  0
 31 32  1  0  0  0  0
 31 37  1  0  0  0  0
 32 34  1  0  0  0  0
 33 32  2  0  0  0  0
 36 31  1  0  0  0  0
M  END
$$$$
