TPQ.pdb
 OpenBabel07022419143D

 47 47  0  0  1  0  0  0  0  0999 V2000
    0.1390   -4.6610    1.4890 C   0  0  0  0  0  0  0  0  0  0  0  0
    0.2490   -3.3710    2.2400 C   0  0  1  0  0  0  0  0  0  0  0  0
    0.3270   -3.6640    3.6000 O   0  0  0  0  0  0  0  0  0  0  0  0
    1.4430   -2.5370    1.8140 C   0  0  2  0  0  0  0  0  0  0  0  0
    1.4170   -1.3380    2.5740 N   0  0  0  0  0  0  0  0  0  0  0  0
    1.5680   -2.4140    0.3700 C   0  0  0  0  0  0  0  0  0  0  0  0
    1.5430   -3.5080   -0.2950 O   0  0  0  0  0  0  0  0  0  0  0  0
   -0.4560   -5.3650    2.1070 H   0  0  0  0  0  0  0  0  0  0  0  0
   -0.3870   -4.5300    0.5360 H   0  0  0  0  0  0  0  0  0  0  0  0
    1.1120   -5.1520    1.3100 H   0  0  0  0  0  0  0  0  0  0  0  0
   -0.7060   -2.8160    2.0880 H   0  0  0  0  0  0  0  0  0  0  0  0
    1.2430   -3.9520    3.8230 H   0  0  0  0  0  0  0  0  0  0  0  0
    2.3510   -3.1130    2.1660 H   0  0  0  0  0  0  0  0  0  0  0  0
    2.2770   -1.1430    3.1270 H   0  0  0  0  0  0  0  0  0  0  0  0
    0.5390   -1.1600    3.1030 H   0  0  0  0  0  0  0  0  0  0  0  0
    1.7140   -1.2230   -0.3890 N   0  0  0  0  0  0  0  0  0  0  0  0
    1.8210   -1.1800   -1.8600 C   0  0  0  0  0  0  0  0  0  0  0  0
    2.9270   -0.1460   -2.0910 C   0  0  0  0  0  0  0  0  0  0  0  0
    2.6830    0.8130   -0.9430 C   0  0  0  0  0  0  0  0  0  0  0  0
    1.7920    0.1450    0.0440 C   0  0  1  0  0  0  0  0  0  0  0  0
    0.4340    0.7620    0.1420 C   0  0  0  0  0  0  0  0  0  0  0  0
    0.2920    1.9710    0.4670 O   0  0  0  0  0  0  0  0  0  0  0  0
    2.1490   -2.1570   -2.2200 H   0  0  0  0  0  0  0  0  0  0  0  0
    0.9170   -0.7850   -2.3280 H   0  0  0  0  0  0  0  0  0  0  0  0
    3.9170   -0.6270   -2.0350 H   0  0  0  0  0  0  0  0  0  0  0  0
    2.7740    0.3900   -3.0490 H   0  0  0  0  0  0  0  0  0  0  0  0
    3.6700    1.0230   -0.4830 H   0  0  0  0  0  0  0  0  0  0  0  0
    2.2720    1.7810   -1.2970 H   0  0  0  0  0  0  0  0  0  0  0  0
    2.2910    0.1830    1.0540 H   0  0  0  0  0  0  0  0  0  0  0  0
   -1.9750    2.9330    4.1680 N   0  0  0  0  0  0  0  0  0  0  0  0
   -2.2470    2.8090    2.7850 C   0  0  0  0  0  0  0  0  0  0  0  0
   -2.6980    3.7540    2.1160 O   0  0  0  0  0  0  0  0  0  0  0  0
   -1.9910    1.5060    2.0770 C   0  0  0  0  0  0  0  0  0  0  0  0
   -2.3520    1.6240    0.6400 C   0  0  0  0  0  0  0  0  0  0  0  0
   -2.0480    0.3230   -0.0870 C   0  0  2  0  0  0  0  0  0  0  0  0
   -0.6790   -0.0470   -0.1390 N   0  0  0  0  0  0  0  0  0  0  0  0
   -2.8000    0.1070   -1.3060 C   0  0  0  0  0  0  0  0  0  0  0  0
   -4.0150    0.3740   -1.4410 O   0  0  0  0  0  0  0  0  0  0  0  0
   -2.1300   -0.4370   -2.4140 O   0  0  0  0  0  0  0  0  0  0  0  0
   -1.0310    3.2350    4.4660 H   0  0  0  0  0  0  0  0  0  0  0  0
   -2.7010    2.7260    4.8750 H   0  0  0  0  0  0  0  0  0  0  0  0
   -1.0780    1.0240    2.3690 H   0  0  0  0  0  0  0  0  0  0  0  0
   -2.8100    0.8040    2.5140 H   0  0  0  0  0  0  0  0  0  0  0  0
   -3.4730    1.7310    0.5760 H   0  0  0  0  0  0  0  0  0  0  0  0
   -1.9520    2.5080    0.1220 H   0  0  0  0  0  0  0  0  0  0  0  0
   -2.4850   -0.4250    0.7050 H   0  0  0  0  0  0  0  0  0  0  0  0
   -0.4990   -1.0640   -0.4260 H   0  0  0  0  0  0  0  0  0  0  0  0
  1  8  1  0  0  0  0
  1  2  1  0  0  0  0
  2 11  1  6  0  0  0
  2  3  1  0  0  0  0
  3 12  1  0  0  0  0
  4 13  1  1  0  0  0
  4  2  1  0  0  0  0
  4  5  1  0  0  0  0
  5 15  1  0  0  0  0
  5 14  1  0  0  0  0
  6  4  1  0  0  0  0
  7  6  2  0  0  0  0
  9  1  1  0  0  0  0
 10  1  1  0  0  0  0
 16 20  1  0  0  0  0
 16  6  1  0  0  0  0
 17 16  1  0  0  0  0
 18 25  1  0  0  0  0
 18 17  1  0  0  0  0
 18 19  1  0  0  0  0
 19 27  1  0  0  0  0
 19 20  1  0  0  0  0
 20 21  1  0  0  0  0
 20 29  1  1  0  0  0
 21 22  2  0  0  0  0
 23 17  1  0  0  0  0
 24 17  1  0  0  0  0
 26 18  1  0  0  0  0
 28 19  1  0  0  0  0
 30 40  1  0  0  0  0
 30 41  1  0  0  0  0
 31 30  1  0  0  0  0
 32 31  2  0  0  0  0
 33 42  1  0  0  0  0
 33 43  1  0  0  0  0
 33 31  1  0  0  0  0
 34 33  1  0  0  0  0
 35 34  1  0  0  0  0
 35 46  1  1  0  0  0
 36 35  1  0  0  0  0
 36 21  1  0  0  0  0
 37 35  1  0  0  0  0
 38 37  1  0  0  0  0
 39 37  2  0  0  0  0
 44 34  1  0  0  0  0
 45 34  1  0  0  0  0
 47 36  1  0  0  0  0
M  END
$$$$
