TPR.pdb
 OpenBabel07022419143D

 53 53  0  0  1  0  0  0  0  0999 V2000
    3.8190   -4.6810   -0.2350 C   0  0  0  0  0  0  0  0  0  0  0  0
    2.6540   -5.5640    0.1420 C   0  0  1  0  0  0  0  0  0  0  0  0
    3.1850   -6.7950    0.5380 O   0  0  0  0  0  0  0  0  0  0  0  0
    1.8570   -4.9630    1.2900 C   0  0  2  0  0  0  0  0  0  0  0  0
    0.8200   -5.8810    1.6120 N   0  0  0  0  0  0  0  0  0  0  0  0
    1.4250   -3.5950    1.0000 C   0  0  0  0  0  0  0  0  0  0  0  0
    2.2920   -2.7590    0.6860 O   0  0  0  0  0  0  0  0  0  0  0  0
    4.2390   -4.1380    0.6290 H   0  0  0  0  0  0  0  0  0  0  0  0
    4.6190   -5.3470   -0.6380 H   0  0  0  0  0  0  0  0  0  0  0  0
    3.5720   -3.9930   -1.0800 H   0  0  0  0  0  0  0  0  0  0  0  0
    2.0250   -5.7130   -0.7370 H   0  0  0  0  0  0  0  0  0  0  0  0
    3.6440   -7.2470   -0.2130 H   0  0  0  0  0  0  0  0  0  0  0  0
    2.5800   -4.9760    2.1640 H   0  0  0  0  0  0  0  0  0  0  0  0
    0.9440   -6.3160    2.5340 H   0  0  0  0  0  0  0  0  0  0  0  0
    0.6770   -6.5680    0.8520 H   0  0  0  0  0  0  0  0  0  0  0  0
    0.0710   -3.2020    1.0670 N   0  0  0  0  0  0  0  0  0  0  0  0
   -0.9910   -4.1330    1.3990 C   0  0  0  0  0  0  0  0  0  0  0  0
   -2.3000   -3.3180    1.3130 C   0  0  0  0  0  0  0  0  0  0  0  0
   -1.7870   -1.9410    1.6880 C   0  0  0  0  0  0  0  0  0  0  0  0
   -0.5140   -1.9260    0.8230 C   0  0  1  0  0  0  0  0  0  0  0  0
    0.2770   -0.7400    1.1490 C   0  0  0  0  0  0  0  0  0  0  0  0
    1.3240   -0.7510    1.7950 O   0  0  0  0  0  0  0  0  0  0  0  0
   -1.0200   -4.9000    0.5990 H   0  0  0  0  0  0  0  0  0  0  0  0
   -0.9290   -4.5720    2.3920 H   0  0  0  0  0  0  0  0  0  0  0  0
   -3.0610   -3.6990    1.9920 H   0  0  0  0  0  0  0  0  0  0  0  0
   -2.6040   -3.2770    0.2470 H   0  0  0  0  0  0  0  0  0  0  0  0
   -1.5090   -1.9830    2.7510 H   0  0  0  0  0  0  0  0  0  0  0  0
   -2.4760   -1.1350    1.4250 H   0  0  0  0  0  0  0  0  0  0  0  0
   -0.8910   -1.9270   -0.2250 H   0  0  0  0  0  0  0  0  0  0  0  0
   -3.8390    4.2000    0.8000 N   0  0  0  0  0  0  0  0  0  0  0  0
   -3.1250    4.3030   -0.4080 C   0  0  0  0  0  0  0  0  0  0  0  0
   -3.3700    5.2000   -1.3050 N   0  0  0  0  0  0  0  0  0  0  0  0
   -2.0620    3.3480   -0.6470 N   0  0  0  0  0  0  0  0  0  0  0  0
   -0.9830    3.6280   -1.5150 C   0  0  0  0  0  0  0  0  0  0  0  0
    0.0850    2.6250   -1.5430 C   0  0  0  0  0  0  0  0  0  0  0  0
    0.9280    2.3290   -0.4000 C   0  0  0  0  0  0  0  0  0  0  0  0
    0.4040    1.7800    0.8830 C   0  0  2  0  0  0  0  0  0  0  0  0
   -0.2250    0.5260    0.6690 N   0  0  0  0  0  0  0  0  0  0  0  0
   -0.2280    2.7330    1.7740 C   0  0  0  0  0  0  0  0  0  0  0  0
   -1.2800    2.4740    2.3870 O   0  0  0  0  0  0  0  0  0  0  0  0
    0.3200    3.9770    1.9780 O   0  0  0  0  0  0  0  0  0  0  0  0
   -4.6330    3.5620    0.9670 H   0  0  0  0  0  0  0  0  0  0  0  0
   -3.5350    4.8230    1.5850 H   0  0  0  0  0  0  0  0  0  0  0  0
   -4.1280    5.8840   -1.1360 H   0  0  0  0  0  0  0  0  0  0  0  0
   -2.1770    2.4540   -0.1640 H   0  0  0  0  0  0  0  0  0  0  0  0
   -1.4450    3.6600   -2.5660 H   0  0  0  0  0  0  0  0  0  0  0  0
   -0.6080    4.6860   -1.4170 H   0  0  0  0  0  0  0  0  0  0  0  0
   -0.3680    1.7060   -2.0310 H   0  0  0  0  0  0  0  0  0  0  0  0
    0.7990    2.9590   -2.3840 H   0  0  0  0  0  0  0  0  0  0  0  0
    1.5270    3.2930   -0.1840 H   0  0  0  0  0  0  0  0  0  0  0  0
    1.7750    1.6310   -0.7530 H   0  0  0  0  0  0  0  0  0  0  0  0
    1.3870    1.4680    1.4620 H   0  0  0  0  0  0  0  0  0  0  0  0
   -1.1010    0.4740    0.1300 H   0  0  0  0  0  0  0  0  0  0  0  0
  1  2  1  0  0  0  0
  1  8  1  0  0  0  0
  2 11  1  6  0  0  0
  2  3  1  0  0  0  0
  2  4  1  0  0  0  0
  4  5  1  0  0  0  0
  4 13  1  1  0  0  0
  5 14  1  0  0  0  0
  6 16  1  0  0  0  0
  6  4  1  0  0  0  0
  7  6  2  0  0  0  0
  9  1  1  0  0  0  0
 10  1  1  0  0  0  0
 12  3  1  0  0  0  0
 15  5  1  0  0  0  0
 16 17  1  0  0  0  0
 17 24  1  0  0  0  0
 18 17  1  0  0  0  0
 18 19  1  0  0  0  0
 18 25  1  0  0  0  0
 19 27  1  0  0  0  0
 20 29  1  6  0  0  0
 20 16  1  0  0  0  0
 20 21  1  0  0  0  0
 20 19  1  0  0  0  0
 21 22  2  0  0  0  0
 23 17  1  0  0  0  0
 26 18  1  0  0  0  0
 28 19  1  0  0  0  0
 30 42  1  0  0  0  0
 30 43  1  0  0  0  0
 31 30  1  0  0  0  0
 32 44  1  0  0  0  0
 32 31  2  0  0  0  0
 33 31  1  0  0  0  0
 33 45  1  0  0  0  0
 34 47  1  0  0  0  0
 34 33  1  0  0  0  0
 35 34  1  0  0  0  0
 35 36  1  0  0  0  0
 36 50  1  0  0  0  0
 36 37  1  0  0  0  0
 37 52  1  1  0  0  0
 37 39  1  0  0  0  0
 38 37  1  0  0  0  0
 38 21  1  0  0  0  0
 39 41  2  0  0  0  0
 39 40  1  0  0  0  0
 46 34  1  0  0  0  0
 48 35  1  0  0  0  0
 49 35  1  0  0  0  0
 51 36  1  0  0  0  0
 53 38  1  0  0  0  0
M  END
$$$$
