TPV.pdb
 OpenBabel07022419143D

 46 46  0  0  1  0  0  0  0  0999 V2000
   -0.8880   -4.7340    1.1790 C   0  0  0  0  0  0  0  0  0  0  0  0
   -0.7860   -3.5960    0.1920 C   0  0  1  0  0  0  0  0  0  0  0  0
   -1.5170   -2.5190    0.6210 O   0  0  0  0  0  0  0  0  0  0  0  0
    0.6520   -3.2550   -0.1300 C   0  0  2  0  0  0  0  0  0  0  0  0
    1.3650   -2.7420    0.9970 N   0  0  0  0  0  0  0  0  0  0  0  0
    0.6100   -2.2450   -1.2170 C   0  0  0  0  0  0  0  0  0  0  0  0
   -0.1440   -2.5770   -2.1930 O   0  0  0  0  0  0  0  0  0  0  0  0
    0.0110   -4.8940    1.7700 H   0  0  0  0  0  0  0  0  0  0  0  0
   -1.1280   -5.7030    0.6730 H   0  0  0  0  0  0  0  0  0  0  0  0
   -1.7610   -4.5340    1.8540 H   0  0  0  0  0  0  0  0  0  0  0  0
   -1.2450   -3.9470   -0.7720 H   0  0  0  0  0  0  0  0  0  0  0  0
   -2.1130   -2.7860    1.3670 H   0  0  0  0  0  0  0  0  0  0  0  0
    1.0940   -4.2200   -0.5020 H   0  0  0  0  0  0  0  0  0  0  0  0
    0.7290   -2.8490    1.8240 H   0  0  0  0  0  0  0  0  0  0  0  0
    2.2600   -3.2620    1.1530 H   0  0  0  0  0  0  0  0  0  0  0  0
    1.3100   -1.0150   -1.2370 N   0  0  0  0  0  0  0  0  0  0  0  0
    1.1810   -0.1040   -2.3510 C   0  0  0  0  0  0  0  0  0  0  0  0
    1.8460    1.1590   -1.9070 C   0  0  0  0  0  0  0  0  0  0  0  0
    3.0020    0.5830   -1.0710 C   0  0  0  0  0  0  0  0  0  0  0  0
    2.2130   -0.4760   -0.2870 C   0  0  1  0  0  0  0  0  0  0  0  0
    1.6530    0.2310    0.8590 C   0  0  0  0  0  0  0  0  0  0  0  0
    2.4930    0.7640    1.6650 O   0  0  0  0  0  0  0  0  0  0  0  0
    0.1090    0.0480   -2.6240 H   0  0  0  0  0  0  0  0  0  0  0  0
    1.7400   -0.5710   -3.2070 H   0  0  0  0  0  0  0  0  0  0  0  0
    2.2320    1.7730   -2.7360 H   0  0  0  0  0  0  0  0  0  0  0  0
    1.1940    1.7120   -1.2200 H   0  0  0  0  0  0  0  0  0  0  0  0
    3.3770    1.3910   -0.4350 H   0  0  0  0  0  0  0  0  0  0  0  0
    3.7640    0.0980   -1.7080 H   0  0  0  0  0  0  0  0  0  0  0  0
    2.9340   -1.2730    0.0170 H   0  0  0  0  0  0  0  0  0  0  0  0
   -1.3620    2.9260    3.4360 C   0  0  0  0  0  0  0  0  0  0  0  0
   -1.0330    2.2700    2.1130 C   0  0  0  0  0  0  0  0  0  0  0  0
   -2.3700    1.8160    1.5240 C   0  0  0  0  0  0  0  0  0  0  0  0
   -0.1080    1.1480    2.3640 C   0  0  2  0  0  0  0  0  0  0  0  0
    0.3160    0.4160    1.2100 N   0  0  0  0  0  0  0  0  0  0  0  0
   -0.6890    0.2340    3.3770 C   0  0  0  0  0  0  0  0  0  0  0  0
   -0.7810   -1.0280    3.1960 O   0  0  0  0  0  0  0  0  0  0  0  0
   -1.1860    0.6590    4.6120 O   0  0  0  0  0  0  0  0  0  0  0  0
   -0.5490    2.8440    4.1810 H   0  0  0  0  0  0  0  0  0  0  0  0
   -1.5280    4.0290    3.2790 H   0  0  0  0  0  0  0  0  0  0  0  0
   -2.3050    2.5490    3.8840 H   0  0  0  0  0  0  0  0  0  0  0  0
   -0.6520    3.0660    1.4590 H   0  0  0  0  0  0  0  0  0  0  0  0
   -2.7310    2.5170    0.7520 H   0  0  0  0  0  0  0  0  0  0  0  0
   -3.1620    1.7710    2.3040 H   0  0  0  0  0  0  0  0  0  0  0  0
   -2.2970    0.7940    1.1030 H   0  0  0  0  0  0  0  0  0  0  0  0
    0.8170    1.5640    2.8490 H   0  0  0  0  0  0  0  0  0  0  0  0
   -0.4160    0.0000    0.6030 H   0  0  0  0  0  0  0  0  0  0  0  0
  1  8  1  0  0  0  0
  1 10  1  0  0  0  0
  2 11  1  6  0  0  0
  2  3  1  0  0  0  0
  2  1  1  0  0  0  0
  3 12  1  0  0  0  0
  4 13  1  6  0  0  0
  4  2  1  0  0  0  0
  4  5  1  0  0  0  0
  5 15  1  0  0  0  0
  5 14  1  0  0  0  0
  6  4  1  0  0  0  0
  7  6  2  0  0  0  0
  9  1  1  0  0  0  0
 16  6  1  0  0  0  0
 16 20  1  0  0  0  0
 17 18  1  0  0  0  0
 17 16  1  0  0  0  0
 18 26  1  0  0  0  0
 18 19  1  0  0  0  0
 19 27  1  0  0  0  0
 19 20  1  0  0  0  0
 20 29  1  1  0  0  0
 20 21  1  0  0  0  0
 21 34  1  0  0  0  0
 21 22  2  0  0  0  0
 23 17  1  0  0  0  0
 24 17  1  0  0  0  0
 25 18  1  0  0  0  0
 28 19  1  0  0  0  0
 30 40  1  0  0  0  0
 30 38  1  0  0  0  0
 31 33  1  0  0  0  0
 31 30  1  0  0  0  0
 32 31  1  0  0  0  0
 32 43  1  0  0  0  0
 33 45  1  1  0  0  0
 33 35  1  0  0  0  0
 34 33  1  0  0  0  0
 35 37  1  0  0  0  0
 36 35  2  0  0  0  0
 39 30  1  0  0  0  0
 41 31  1  0  0  0  0
 42 32  1  0  0  0  0
 44 32  1  0  0  0  0
 46 34  1  0  0  0  0
M  END
$$$$
