TPY.pdb
 OpenBabel07022419143D

 51 52  0  0  1  0  0  0  0  0999 V2000
   -0.7320   -1.7030    2.6450 C   0  0  0  0  0  0  0  0  0  0  0  0
    0.2720   -1.1770    3.6290 C   0  0  1  0  0  0  0  0  0  0  0  0
    0.8860   -2.2250    4.2710 O   0  0  0  0  0  0  0  0  0  0  0  0
    1.3100   -0.2890    2.9660 C   0  0  2  0  0  0  0  0  0  0  0  0
    0.7240    0.8290    2.2740 N   0  0  0  0  0  0  0  0  0  0  0  0
    2.2310   -1.0840    2.1160 C   0  0  0  0  0  0  0  0  0  0  0  0
    2.7610   -2.1090    2.6860 O   0  0  0  0  0  0  0  0  0  0  0  0
   -0.4030   -2.6440    2.1580 H   0  0  0  0  0  0  0  0  0  0  0  0
   -0.9550   -0.9800    1.8320 H   0  0  0  0  0  0  0  0  0  0  0  0
   -1.7050   -1.9690    3.1540 H   0  0  0  0  0  0  0  0  0  0  0  0
   -0.2670   -0.5640    4.3900 H   0  0  0  0  0  0  0  0  0  0  0  0
    0.7510   -3.1030    3.8620 H   0  0  0  0  0  0  0  0  0  0  0  0
    1.9520    0.1410    3.7940 H   0  0  0  0  0  0  0  0  0  0  0  0
    1.2520    1.6920    2.5270 H   0  0  0  0  0  0  0  0  0  0  0  0
   -0.2370    0.9810    2.6630 H   0  0  0  0  0  0  0  0  0  0  0  0
    2.5720   -0.8330    0.7900 N   0  0  0  0  0  0  0  0  0  0  0  0
    3.5160   -1.6930    0.0280 C   0  0  0  0  0  0  0  0  0  0  0  0
    4.3970   -0.5690   -0.5330 C   0  0  0  0  0  0  0  0  0  0  0  0
    3.3610    0.3670   -1.0940 C   0  0  0  0  0  0  0  0  0  0  0  0
    2.1840    0.2010   -0.1550 C   0  0  1  0  0  0  0  0  0  0  0  0
    0.9520   -0.1620   -0.9120 C   0  0  0  0  0  0  0  0  0  0  0  0
    0.5500    0.6200   -1.8090 O   0  0  0  0  0  0  0  0  0  0  0  0
    2.9980   -2.1470   -0.8250 H   0  0  0  0  0  0  0  0  0  0  0  0
    4.0610   -2.3710    0.6810 H   0  0  0  0  0  0  0  0  0  0  0  0
    4.9200   -0.1150    0.3300 H   0  0  0  0  0  0  0  0  0  0  0  0
    5.0920   -0.9470   -1.3050 H   0  0  0  0  0  0  0  0  0  0  0  0
    3.7450    1.4180   -1.1060 H   0  0  0  0  0  0  0  0  0  0  0  0
    3.1220    0.0200   -2.1180 H   0  0  0  0  0  0  0  0  0  0  0  0
    2.0410    1.1490    0.3460 H   0  0  0  0  0  0  0  0  0  0  0  0
   -4.4020    1.4400    3.0560 O   0  0  0  0  0  0  0  0  0  0  0  0
   -3.7710    0.9570    1.8930 C   0  0  0  0  0  0  0  0  0  0  0  0
   -2.7090    1.6110    1.3250 C   0  0  0  0  0  0  0  0  0  0  0  0
   -2.1320    1.0880    0.1850 C   0  0  0  0  0  0  0  0  0  0  0  0
   -2.5640   -0.0630   -0.4210 C   0  0  0  0  0  0  0  0  0  0  0  0
   -1.9990   -0.6870   -1.6340 C   0  0  0  0  0  0  0  0  0  0  0  0
   -0.9590   -1.7450   -1.3540 C   0  0  2  0  0  0  0  0  0  0  0  0
    0.2160   -1.3340   -0.6800 N   0  0  0  0  0  0  0  0  0  0  0  0
   -0.6370   -2.5200   -2.5680 C   0  0  0  0  0  0  0  0  0  0  0  0
    0.5600   -2.7650   -2.9290 O   0  0  0  0  0  0  0  0  0  0  0  0
   -3.6500   -0.7140    0.1770 C   0  0  0  0  0  0  0  0  0  0  0  0
   -4.2310   -0.2040    1.3090 C   0  0  0  0  0  0  0  0  0  0  0  0
   -1.6310   -3.0350   -3.4010 O   0  0  0  0  0  0  0  0  0  0  0  0
   -4.4250    0.8290    3.8820 H   0  0  0  0  0  0  0  0  0  0  0  0
   -2.3550    2.5170    1.7860 H   0  0  0  0  0  0  0  0  0  0  0  0
   -1.3140    1.6300   -0.2290 H   0  0  0  0  0  0  0  0  0  0  0  0
   -2.8380   -1.1950   -2.1620 H   0  0  0  0  0  0  0  0  0  0  0  0
   -1.6400    0.0700   -2.3690 H   0  0  0  0  0  0  0  0  0  0  0  0
   -1.5480   -2.4780   -0.6770 H   0  0  0  0  0  0  0  0  0  0  0  0
    0.6050   -1.9640    0.0890 H   0  0  0  0  0  0  0  0  0  0  0  0
   -4.0550   -1.6380   -0.2430 H   0  0  0  0  0  0  0  0  0  0  0  0
   -5.0900   -0.7110    1.7900 H   0  0  0  0  0  0  0  0  0  0  0  0
  1 10  1  0  0  0  0
  1  2  1  0  0  0  0
  2  3  1  0  0  0  0
  2 11  1  1  0  0  0
  4  2  1  0  0  0  0
  4 13  1  1  0  0  0
  5 14  1  0  0  0  0
  5 15  1  0  0  0  0
  5  4  1  0  0  0  0
  6  7  2  0  0  0  0
  6  4  1  0  0  0  0
  8  1  1  0  0  0  0
  9  1  1  0  0  0  0
 12  3  1  0  0  0  0
 16  6  1  0  0  0  0
 17 24  1  0  0  0  0
 17 16  1  0  0  0  0
 18 17  1  0  0  0  0
 18 25  1  0  0  0  0
 19 18  1  0  0  0  0
 19 20  1  0  0  0  0
 20 29  1  1  0  0  0
 20 16  1  0  0  0  0
 21 37  1  0  0  0  0
 21 20  1  0  0  0  0
 22 21  2  0  0  0  0
 23 17  1  0  0  0  0
 26 18  1  0  0  0  0
 27 19  1  0  0  0  0
 28 19  1  0  0  0  0
 30 43  1  0  0  0  0
 31 30  1  0  0  0  0
 32 44  1  0  0  0  0
 32 31  1  0  0  0  0
 33 32  2  0  0  0  0
 34 40  2  0  0  0  0
 34 33  1  0  0  0  0
 35 36  1  0  0  0  0
 35 34  1  0  0  0  0
 36 37  1  0  0  0  0
 36 48  1  1  0  0  0
 37 49  1  0  0  0  0
 38 36  1  0  0  0  0
 39 38  1  0  0  0  0
 40 41  1  0  0  0  0
 41 51  1  0  0  0  0
 41 31  2  0  0  0  0
 42 38  2  0  0  0  0
 45 33  1  0  0  0  0
 46 35  1  0  0  0  0
 47 35  1  0  0  0  0
 50 40  1  0  0  0  0
M  END
$$$$
