TQD.pdb
 OpenBabel07022419123D

 46 45  0  0  1  0  0  0  0  0999 V2000
    3.0500   -4.4150    0.3210 C   0  0  0  0  0  0  0  0  0  0  0  0
    3.8680   -3.1850    0.0380 C   0  0  1  0  0  0  0  0  0  0  0  0
    4.9730   -3.5780   -0.7320 O   0  0  0  0  0  0  0  0  0  0  0  0
    3.0540   -2.2470   -0.8180 C   0  0  2  0  0  0  0  0  0  0  0  0
    3.8370   -1.0810   -1.2020 N   0  0  0  0  0  0  0  0  0  0  0  0
    1.7710   -1.8650   -0.1890 C   0  0  0  0  0  0  0  0  0  0  0  0
    1.0140   -2.7990    0.1800 O   0  0  0  0  0  0  0  0  0  0  0  0
    2.3260   -4.6110   -0.4970 H   0  0  0  0  0  0  0  0  0  0  0  0
    3.6920   -5.3220    0.4060 H   0  0  0  0  0  0  0  0  0  0  0  0
    2.5230   -4.2200    1.3000 H   0  0  0  0  0  0  0  0  0  0  0  0
    4.2500   -2.7030    0.9590 H   0  0  0  0  0  0  0  0  0  0  0  0
    5.1860   -4.5290   -0.6130 H   0  0  0  0  0  0  0  0  0  0  0  0
    2.8260   -2.7980   -1.7550 H   0  0  0  0  0  0  0  0  0  0  0  0
    4.5470   -1.4170   -1.9170 H   0  0  0  0  0  0  0  0  0  0  0  0
    3.2500   -0.3800   -1.7040 H   0  0  0  0  0  0  0  0  0  0  0  0
    1.7850    0.0300    5.3130 N   0  0  0  0  0  0  0  0  0  0  0  0
    1.0630    0.5760    4.1990 C   0  0  0  0  0  0  0  0  0  0  0  0
    0.5290    1.6890    4.3010 O   0  0  0  0  0  0  0  0  0  0  0  0
    1.0150   -0.2690    2.9720 C   0  0  0  0  0  0  0  0  0  0  0  0
    0.2190    0.4860    1.9430 C   0  0  0  0  0  0  0  0  0  0  0  0
    0.0900   -0.2620    0.6390 C   0  0  2  0  0  0  0  0  0  0  0  0
    1.3430   -0.5460    0.0240 N   0  0  0  0  0  0  0  0  0  0  0  0
   -0.8360    0.5020   -0.2080 C   0  0  0  0  0  0  0  0  0  0  0  0
   -0.5300    0.8960   -1.3490 O   0  0  0  0  0  0  0  0  0  0  0  0
    1.4390    0.0690    6.2890 H   0  0  0  0  0  0  0  0  0  0  0  0
    2.7100   -0.4360    5.1580 H   0  0  0  0  0  0  0  0  0  0  0  0
    2.0070   -0.5800    2.6250 H   0  0  0  0  0  0  0  0  0  0  0  0
    0.4630   -1.1890    3.2550 H   0  0  0  0  0  0  0  0  0  0  0  0
   -0.8030    0.6280    2.3410 H   0  0  0  0  0  0  0  0  0  0  0  0
    0.6330    1.4900    1.7330 H   0  0  0  0  0  0  0  0  0  0  0  0
   -0.4350   -1.2280    0.8920 H   0  0  0  0  0  0  0  0  0  0  0  0
    1.9430    0.2410   -0.2680 H   0  0  0  0  0  0  0  0  0  0  0  0
   -2.1230    0.8010    0.2840 N   0  0  0  0  0  0  0  0  0  0  0  0
   -3.1050    1.5500   -0.4760 C   0  0  1  0  0  0  0  0  0  0  0  0
   -4.3640    0.8090   -0.7500 C   0  0  0  0  0  0  0  0  0  0  0  0
   -5.1010    0.3820    0.4390 C   0  0  0  0  0  0  0  0  0  0  0  0
   -6.1730   -0.2770    0.2360 O   0  0  0  0  0  0  0  0  0  0  0  0
   -3.3540    2.8240    0.2340 C   0  0  0  0  0  0  0  0  0  0  0  0
   -4.1610    3.6650   -0.2030 O   0  0  0  0  0  0  0  0  0  0  0  0
   -4.7390    0.6270    1.7520 O   0  0  0  0  0  0  0  0  0  0  0  0
   -2.6820    3.1020    1.4110 O   0  0  0  0  0  0  0  0  0  0  0  0
   -2.4750    0.5040    1.2410 H   0  0  0  0  0  0  0  0  0  0  0  0
   -2.6810    1.8430   -1.4800 H   0  0  0  0  0  0  0  0  0  0  0  0
   -4.1670   -0.0140   -1.4710 H   0  0  0  0  0  0  0  0  0  0  0  0
   -5.0340    1.5200   -1.3110 H   0  0  0  0  0  0  0  0  0  0  0  0
   -5.0580   -0.0130    2.4840 H   0  0  0  0  0  0  0  0  0  0  0  0
  1  9  1  0  0  0  0
  1 10  1  0  0  0  0
  2  1  1  0  0  0  0
  2 11  1  1  0  0  0
  3 12  1  0  0  0  0
  3  2  1  0  0  0  0
  4 13  1  6  0  0  0
  4  6  1  0  0  0  0
  4  2  1  0  0  0  0
  5  4  1  0  0  0  0
  6 22  1  0  0  0  0
  6  7  2  0  0  0  0
  8  1  1  0  0  0  0
 14  5  1  0  0  0  0
 15  5  1  0  0  0  0
 16 25  1  0  0  0  0
 17 18  2  0  0  0  0
 17 16  1  0  0  0  0
 19 28  1  0  0  0  0
 19 17  1  0  0  0  0
 20 29  1  0  0  0  0
 20 19  1  0  0  0  0
 21 31  1  1  0  0  0
 21 20  1  0  0  0  0
 22 21  1  0  0  0  0
 23 33  1  0  0  0  0
 23 21  1  0  0  0  0
 24 23  2  0  0  0  0
 26 16  1  0  0  0  0
 27 19  1  0  0  0  0
 30 20  1  0  0  0  0
 32 22  1  0  0  0  0
 33 42  1  0  0  0  0
 34 43  1  6  0  0  0
 34 38  1  0  0  0  0
 34 33  1  0  0  0  0
 35 34  1  0  0  0  0
 35 36  1  0  0  0  0
 36 40  1  0  0  0  0
 37 36  2  0  0  0  0
 38 41  1  0  0  0  0
 39 38  2  0  0  0  0
 40 46  1  0  0  0  0
 44 35  1  0  0  0  0
 45 35  1  0  0  0  0
M  END
$$$$
