TQE.pdb
 OpenBabel07022419123D

 49 48  0  0  1  0  0  0  0  0999 V2000
    2.6620   -4.6140    2.7140 C   0  0  0  0  0  0  0  0  0  0  0  0
    3.0320   -4.1810    1.3380 C   0  0  1  0  0  0  0  0  0  0  0  0
    3.7400   -5.1840    0.6810 O   0  0  0  0  0  0  0  0  0  0  0  0
    1.8470   -3.7840    0.4890 C   0  0  2  0  0  0  0  0  0  0  0  0
    2.3740   -3.3050   -0.7780 N   0  0  0  0  0  0  0  0  0  0  0  0
    1.0390   -2.7220    1.1040 C   0  0  0  0  0  0  0  0  0  0  0  0
    0.4460   -2.9890    2.1990 O   0  0  0  0  0  0  0  0  0  0  0  0
    1.6920   -5.1860    2.7270 H   0  0  0  0  0  0  0  0  0  0  0  0
    3.4040   -5.3080    3.1630 H   0  0  0  0  0  0  0  0  0  0  0  0
    2.5340   -3.7760    3.4260 H   0  0  0  0  0  0  0  0  0  0  0  0
    3.7360   -3.3120    1.4200 H   0  0  0  0  0  0  0  0  0  0  0  0
    3.1620   -5.8210    0.1950 H   0  0  0  0  0  0  0  0  0  0  0  0
    1.2170   -4.6750    0.3020 H   0  0  0  0  0  0  0  0  0  0  0  0
    3.0420   -2.5260   -0.6720 H   0  0  0  0  0  0  0  0  0  0  0  0
    1.6560   -3.1830   -1.5040 H   0  0  0  0  0  0  0  0  0  0  0  0
    4.0320    1.2020   -0.2790 N   0  0  0  0  0  0  0  0  0  0  0  0
    3.1500    0.6540    0.6840 C   0  0  0  0  0  0  0  0  0  0  0  0
    3.3960   -0.4850    1.1330 O   0  0  0  0  0  0  0  0  0  0  0  0
    1.9800    1.3930    1.1520 C   0  0  0  0  0  0  0  0  0  0  0  0
    0.9080    0.6310    1.8160 C   0  0  0  0  0  0  0  0  0  0  0  0
    0.1590   -0.3870    1.0460 C   0  0  2  0  0  0  0  0  0  0  0  0
    0.9330   -1.4530    0.4900 N   0  0  0  0  0  0  0  0  0  0  0  0
   -0.7940    0.1910    0.0620 C   0  0  0  0  0  0  0  0  0  0  0  0
   -0.8750   -0.2580   -1.1060 O   0  0  0  0  0  0  0  0  0  0  0  0
    4.4240    0.5580   -0.9980 H   0  0  0  0  0  0  0  0  0  0  0  0
    4.3250    2.2010   -0.3300 H   0  0  0  0  0  0  0  0  0  0  0  0
    1.6010    2.0940    0.3540 H   0  0  0  0  0  0  0  0  0  0  0  0
    2.3760    2.1190    1.9310 H   0  0  0  0  0  0  0  0  0  0  0  0
    0.2070    1.3620    2.2800 H   0  0  0  0  0  0  0  0  0  0  0  0
    1.3700    0.1000    2.6920 H   0  0  0  0  0  0  0  0  0  0  0  0
   -0.4980   -0.8990    1.8360 H   0  0  0  0  0  0  0  0  0  0  0  0
    1.4230   -1.3030   -0.4130 H   0  0  0  0  0  0  0  0  0  0  0  0
   -1.6570    1.2810    0.4080 N   0  0  0  0  0  0  0  0  0  0  0  0
   -2.5850    1.8840   -0.4700 C   0  0  1  0  0  0  0  0  0  0  0  0
   -4.0330    1.7740   -0.1460 C   0  0  0  0  0  0  0  0  0  0  0  0
   -4.6070    0.4050   -0.0810 C   0  0  0  0  0  0  0  0  0  0  0  0
   -4.1110   -0.5010    0.9580 C   0  0  0  0  0  0  0  0  0  0  0  0
   -3.3500   -0.2240    1.8920 O   0  0  0  0  0  0  0  0  0  0  0  0
   -2.2030    3.2820   -0.8430 C   0  0  0  0  0  0  0  0  0  0  0  0
   -2.9440    3.9270   -1.6110 O   0  0  0  0  0  0  0  0  0  0  0  0
   -4.5310   -1.8530    0.9190 O   0  0  0  0  0  0  0  0  0  0  0  0
   -1.0530    3.8990   -0.3680 O   0  0  0  0  0  0  0  0  0  0  0  0
   -1.5890    1.6860    1.3900 H   0  0  0  0  0  0  0  0  0  0  0  0
   -2.4670    1.3240   -1.4650 H   0  0  0  0  0  0  0  0  0  0  0  0
   -4.2580    2.3570    0.7920 H   0  0  0  0  0  0  0  0  0  0  0  0
   -4.6070    2.3140   -0.9510 H   0  0  0  0  0  0  0  0  0  0  0  0
   -5.7260    0.4990   -0.0440 H   0  0  0  0  0  0  0  0  0  0  0  0
   -4.4000   -0.0840   -1.0920 H   0  0  0  0  0  0  0  0  0  0  0  0
   -3.9800   -2.5480    1.3660 H   0  0  0  0  0  0  0  0  0  0  0  0
  1  8  1  0  0  0  0
  1  9  1  0  0  0  0
  1 10  1  0  0  0  0
  2 11  1  1  0  0  0
  2  1  1  0  0  0  0
  3  2  1  0  0  0  0
  4 13  1  6  0  0  0
  4  6  1  0  0  0  0
  4  2  1  0  0  0  0
  5 14  1  0  0  0  0
  5  4  1  0  0  0  0
  6  7  2  0  0  0  0
 12  3  1  0  0  0  0
 15  5  1  0  0  0  0
 16 17  1  0  0  0  0
 17 18  2  0  0  0  0
 17 19  1  0  0  0  0
 19 20  1  0  0  0  0
 19 28  1  0  0  0  0
 20 29  1  0  0  0  0
 20 30  1  0  0  0  0
 21 20  1  0  0  0  0
 21 31  1  1  0  0  0
 22 21  1  0  0  0  0
 22  6  1  0  0  0  0
 23 33  1  0  0  0  0
 23 21  1  0  0  0  0
 24 23  2  0  0  0  0
 25 16  1  0  0  0  0
 26 16  1  0  0  0  0
 27 19  1  0  0  0  0
 32 22  1  0  0  0  0
 33 43  1  0  0  0  0
 34 44  1  6  0  0  0
 34 35  1  0  0  0  0
 34 33  1  0  0  0  0
 35 36  1  0  0  0  0
 35 45  1  0  0  0  0
 36 47  1  0  0  0  0
 36 37  1  0  0  0  0
 37 38  2  0  0  0  0
 39 34  1  0  0  0  0
 39 42  1  0  0  0  0
 40 39  2  0  0  0  0
 41 37  1  0  0  0  0
 41 49  1  0  0  0  0
 46 35  1  0  0  0  0
 48 36  1  0  0  0  0
M  END
$$$$
