TQF.pdb
 OpenBabel07022419123D

 53 53  0  0  1  0  0  0  0  0999 V2000
    2.6650   -1.6270    2.8490 C   0  0  0  0  0  0  0  0  0  0  0  0
    3.4510   -1.3860    1.5990 C   0  0  1  0  0  0  0  0  0  0  0  0
    4.3040   -2.5020    1.4320 O   0  0  0  0  0  0  0  0  0  0  0  0
    2.6200   -1.3280    0.3390 C   0  0  2  0  0  0  0  0  0  0  0  0
    3.5930   -1.1750   -0.7570 N   0  0  0  0  0  0  0  0  0  0  0  0
    1.7490   -0.1090    0.2840 C   0  0  0  0  0  0  0  0  0  0  0  0
    2.0750    0.7950   -0.5050 O   0  0  0  0  0  0  0  0  0  0  0  0
    3.3610   -1.9940    3.6650 H   0  0  0  0  0  0  0  0  0  0  0  0
    2.2150   -0.7100    3.2880 H   0  0  0  0  0  0  0  0  0  0  0  0
    1.9150   -2.4140    2.7600 H   0  0  0  0  0  0  0  0  0  0  0  0
    4.0880   -0.5000    1.6350 H   0  0  0  0  0  0  0  0  0  0  0  0
    4.5250   -2.8470    2.3240 H   0  0  0  0  0  0  0  0  0  0  0  0
    2.0220   -2.2140    0.1380 H   0  0  0  0  0  0  0  0  0  0  0  0
    3.9340   -2.1090   -1.0650 H   0  0  0  0  0  0  0  0  0  0  0  0
    4.4040   -0.5790   -0.4500 H   0  0  0  0  0  0  0  0  0  0  0  0
    1.8980    3.1390    4.1600 N   0  0  0  0  0  0  0  0  0  0  0  0
    0.9530    3.0620    3.1100 C   0  0  0  0  0  0  0  0  0  0  0  0
   -0.2590    3.2000    3.3700 O   0  0  0  0  0  0  0  0  0  0  0  0
    1.4000    2.8240    1.7110 C   0  0  0  0  0  0  0  0  0  0  0  0
    0.3120    2.4230    0.7720 C   0  0  0  0  0  0  0  0  0  0  0  0
   -0.2830    1.0890    1.1620 C   0  0  2  0  0  0  0  0  0  0  0  0
    0.6030   -0.0230    1.1130 N   0  0  0  0  0  0  0  0  0  0  0  0
   -1.6500    0.8610    0.6780 C   0  0  0  0  0  0  0  0  0  0  0  0
   -2.4630    1.8200    0.7060 O   0  0  0  0  0  0  0  0  0  0  0  0
    1.9670    2.4570    4.9460 H   0  0  0  0  0  0  0  0  0  0  0  0
    2.6090    3.9250    4.1980 H   0  0  0  0  0  0  0  0  0  0  0  0
    2.2290    2.0960    1.7070 H   0  0  0  0  0  0  0  0  0  0  0  0
    1.8610    3.7930    1.3860 H   0  0  0  0  0  0  0  0  0  0  0  0
   -0.5520    3.1530    0.9070 H   0  0  0  0  0  0  0  0  0  0  0  0
    0.5850    2.5280   -0.2730 H   0  0  0  0  0  0  0  0  0  0  0  0
   -0.4050    1.2550    2.3080 H   0  0  0  0  0  0  0  0  0  0  0  0
    0.4290   -0.8810    1.7250 H   0  0  0  0  0  0  0  0  0  0  0  0
   -2.1240   -0.3740    0.1790 N   0  0  0  0  0  0  0  0  0  0  0  0
   -3.4690   -0.5990   -0.2970 C   0  0  1  0  0  0  0  0  0  0  0  0
   -3.5280   -1.0260   -1.7250 C   0  0  0  0  0  0  0  0  0  0  0  0
   -2.7790   -2.2960   -1.9420 C   0  0  0  0  0  0  0  0  0  0  0  0
   -1.4360   -2.2350   -2.2410 C   0  0  0  0  0  0  0  0  0  0  0  0
   -0.7550   -3.4090   -2.4450 C   0  0  0  0  0  0  0  0  0  0  0  0
   -1.3360   -4.6600   -2.3690 C   0  0  0  0  0  0  0  0  0  0  0  0
   -2.6740   -4.6960   -2.0710 C   0  0  0  0  0  0  0  0  0  0  0  0
   -3.3720   -3.5320   -1.8640 C   0  0  0  0  0  0  0  0  0  0  0  0
   -4.1020   -1.6290    0.5530 C   0  0  0  0  0  0  0  0  0  0  0  0
   -5.2890   -2.0170    0.3970 O   0  0  0  0  0  0  0  0  0  0  0  0
   -3.3900   -2.2220    1.5850 O   0  0  0  0  0  0  0  0  0  0  0  0
   -1.4420   -1.1630    0.1610 H   0  0  0  0  0  0  0  0  0  0  0  0
   -4.0930    0.3310   -0.2210 H   0  0  0  0  0  0  0  0  0  0  0  0
   -4.5880   -1.2490   -1.9680 H   0  0  0  0  0  0  0  0  0  0  0  0
   -3.2040   -0.2470   -2.4380 H   0  0  0  0  0  0  0  0  0  0  0  0
   -0.9510   -1.2590   -2.3070 H   0  0  0  0  0  0  0  0  0  0  0  0
    0.3160   -3.3520   -2.6820 H   0  0  0  0  0  0  0  0  0  0  0  0
   -0.7520   -5.5710   -2.5400 H   0  0  0  0  0  0  0  0  0  0  0  0
   -3.1650   -5.6480   -2.0030 H   0  0  0  0  0  0  0  0  0  0  0  0
   -4.4410   -3.6200   -1.6320 H   0  0  0  0  0  0  0  0  0  0  0  0
  1  9  1  0  0  0  0
  1  8  1  0  0  0  0
  2 11  1  1  0  0  0
  2  1  1  0  0  0  0
  3  2  1  0  0  0  0
  3 12  1  0  0  0  0
  4 13  1  6  0  0  0
  4  2  1  0  0  0  0
  5 15  1  0  0  0  0
  5  4  1  0  0  0  0
  6  4  1  0  0  0  0
  6 22  1  0  0  0  0
  7  6  2  0  0  0  0
 10  1  1  0  0  0  0
 14  5  1  0  0  0  0
 16 26  1  0  0  0  0
 16 25  1  0  0  0  0
 17 18  2  0  0  0  0
 17 16  1  0  0  0  0
 19 17  1  0  0  0  0
 20 29  1  0  0  0  0
 20 21  1  0  0  0  0
 20 19  1  0  0  0  0
 21 31  1  1  0  0  0
 22 21  1  0  0  0  0
 22 32  1  0  0  0  0
 23 24  2  0  0  0  0
 23 21  1  0  0  0  0
 27 19  1  0  0  0  0
 28 19  1  0  0  0  0
 30 20  1  0  0  0  0
 33 23  1  0  0  0  0
 34 46  1  1  0  0  0
 34 33  1  0  0  0  0
 34 42  1  0  0  0  0
 35 34  1  0  0  0  0
 36 41  1  0  0  0  0
 36 35  1  0  0  0  0
 37 36  2  0  0  0  0
 38 39  2  0  0  0  0
 38 37  1  0  0  0  0
 39 40  1  0  0  0  0
 40 52  1  0  0  0  0
 40 41  2  0  0  0  0
 41 53  1  0  0  0  0
 42 44  1  0  0  0  0
 43 42  2  0  0  0  0
 45 33  1  0  0  0  0
 47 35  1  0  0  0  0
 48 35  1  0  0  0  0
 49 37  1  0  0  0  0
 50 38  1  0  0  0  0
 51 39  1  0  0  0  0
M  END
$$$$
