TQH.pdb
 OpenBabel07022419123D

 50 50  0  0  1  0  0  0  0  0999 V2000
    1.7900    0.4940   -3.0380 C   0  0  0  0  0  0  0  0  0  0  0  0
    1.7610   -0.3760   -1.7990 C   0  0  1  0  0  0  0  0  0  0  0  0
    1.4550   -1.6900   -2.0930 O   0  0  0  0  0  0  0  0  0  0  0  0
    3.0490   -0.2500   -1.0090 C   0  0  2  0  0  0  0  0  0  0  0  0
    4.1460   -0.7860   -1.7390 N   0  0  0  0  0  0  0  0  0  0  0  0
    2.8330   -0.9170    0.2980 C   0  0  0  0  0  0  0  0  0  0  0  0
    3.5930   -1.8620    0.6500 O   0  0  0  0  0  0  0  0  0  0  0  0
    1.7560    1.5450   -2.7110 H   0  0  0  0  0  0  0  0  0  0  0  0
    0.9840    0.2150   -3.7210 H   0  0  0  0  0  0  0  0  0  0  0  0
    2.7800    0.3110   -3.5260 H   0  0  0  0  0  0  0  0  0  0  0  0
    0.9540    0.0200   -1.1480 H   0  0  0  0  0  0  0  0  0  0  0  0
    1.8350   -2.2570   -1.3970 H   0  0  0  0  0  0  0  0  0  0  0  0
    3.2200    0.8430   -0.8710 H   0  0  0  0  0  0  0  0  0  0  0  0
    3.9150   -1.2620   -2.6140 H   0  0  0  0  0  0  0  0  0  0  0  0
    4.8260   -1.2730   -1.1250 H   0  0  0  0  0  0  0  0  0  0  0  0
   -0.8920    2.5180    3.6160 N   0  0  0  0  0  0  0  0  0  0  0  0
   -0.2620    1.2210    3.6990 C   0  0  0  0  0  0  0  0  0  0  0  0
   -1.0050    0.2380    3.8450 O   0  0  0  0  0  0  0  0  0  0  0  0
    1.1770    1.1210    3.6110 C   0  0  0  0  0  0  0  0  0  0  0  0
    1.8370   -0.1930    3.5790 C   0  0  0  0  0  0  0  0  0  0  0  0
    1.5120   -1.1170    2.4580 C   0  0  2  0  0  0  0  0  0  0  0  0
    1.7880   -0.5180    1.1700 N   0  0  0  0  0  0  0  0  0  0  0  0
    0.2710   -1.8520    2.5750 C   0  0  0  0  0  0  0  0  0  0  0  0
    0.0760   -2.5000    3.6570 O   0  0  0  0  0  0  0  0  0  0  0  0
   -1.7040    2.6920    3.0040 H   0  0  0  0  0  0  0  0  0  0  0  0
   -0.5130    3.2890    4.1890 H   0  0  0  0  0  0  0  0  0  0  0  0
    1.5920    1.7090    2.7280 H   0  0  0  0  0  0  0  0  0  0  0  0
    1.6520    1.6890    4.4830 H   0  0  0  0  0  0  0  0  0  0  0  0
    2.9510    0.0060    3.4980 H   0  0  0  0  0  0  0  0  0  0  0  0
    1.6260   -0.7290    4.5380 H   0  0  0  0  0  0  0  0  0  0  0  0
    2.3330   -1.9330    2.5310 H   0  0  0  0  0  0  0  0  0  0  0  0
    1.1700    0.2630    0.8650 H   0  0  0  0  0  0  0  0  0  0  0  0
   -0.6850   -1.8490    1.5260 N   0  0  0  0  0  0  0  0  0  0  0  0
   -1.9190   -2.5700    1.6230 C   0  0  1  0  0  0  0  0  0  0  0  0
   -3.0880   -1.6480    1.5360 C   0  0  0  0  0  0  0  0  0  0  0  0
   -3.1430   -0.8880    0.2740 C   0  0  0  0  0  0  0  0  0  0  0  0
   -4.1210    0.0250   -0.0440 C   0  0  0  0  0  0  0  0  0  0  0  0
   -3.8630    0.5290   -1.2690 N   0  0  0  0  0  0  0  0  0  0  0  0
   -2.7480   -0.0480   -1.7180 C   0  0  0  0  0  0  0  0  0  0  0  0
   -2.3050   -0.9080   -0.7910 N   0  0  0  0  0  0  0  0  0  0  0  0
   -2.0280   -3.6390    0.5830 C   0  0  0  0  0  0  0  0  0  0  0  0
   -3.0640   -4.3290    0.5760 O   0  0  0  0  0  0  0  0  0  0  0  0
   -1.0490   -3.8890   -0.3520 O   0  0  0  0  0  0  0  0  0  0  0  0
   -0.4500   -1.2950    0.6770 H   0  0  0  0  0  0  0  0  0  0  0  0
   -1.9540   -3.0810    2.6050 H   0  0  0  0  0  0  0  0  0  0  0  0
   -4.0400   -2.2040    1.6430 H   0  0  0  0  0  0  0  0  0  0  0  0
   -3.0280   -0.9190    2.3700 H   0  0  0  0  0  0  0  0  0  0  0  0
   -4.9730    0.3100    0.5720 H   0  0  0  0  0  0  0  0  0  0  0  0
   -4.4720    1.2510   -1.7370 H   0  0  0  0  0  0  0  0  0  0  0  0
   -2.2800    0.1380   -2.6610 H   0  0  0  0  0  0  0  0  0  0  0  0
  1  8  1  0  0  0  0
  1  2  1  0  0  0  0
  2 11  1  1  0  0  0
  2  4  1  0  0  0  0
  3  2  1  0  0  0  0
  3 12  1  0  0  0  0
  4 13  1  1  0  0  0
  4  6  1  0  0  0  0
  5 15  1  0  0  0  0
  5  4  1  0  0  0  0
  6  7  2  0  0  0  0
  6 22  1  0  0  0  0
  9  1  1  0  0  0  0
 10  1  1  0  0  0  0
 14  5  1  0  0  0  0
 16 17  1  0  0  0  0
 16 26  1  0  0  0  0
 17 18  2  0  0  0  0
 19 17  1  0  0  0  0
 19 28  1  0  0  0  0
 20 19  1  0  0  0  0
 20 30  1  0  0  0  0
 21 31  1  1  0  0  0
 21 23  1  0  0  0  0
 21 20  1  0  0  0  0
 22 21  1  0  0  0  0
 23 24  2  0  0  0  0
 25 16  1  0  0  0  0
 27 19  1  0  0  0  0
 29 20  1  0  0  0  0
 32 22  1  0  0  0  0
 33 34  1  0  0  0  0
 33 23  1  0  0  0  0
 34 45  1  1  0  0  0
 35 34  1  0  0  0  0
 35 46  1  0  0  0  0
 35 47  1  0  0  0  0
 36 35  1  0  0  0  0
 37 36  2  0  0  0  0
 37 48  1  0  0  0  0
 38 37  1  0  0  0  0
 39 38  1  0  0  0  0
 39 40  2  0  0  0  0
 40 36  1  0  0  0  0
 41 34  1  0  0  0  0
 42 41  1  0  0  0  0
 43 41  2  0  0  0  0
 44 33  1  0  0  0  0
 49 38  1  0  0  0  0
 50 39  1  0  0  0  0
M  END
$$$$
