TQL.pdb
 OpenBabel07022419123D

 52 51  0  0  1  0  0  0  0  0999 V2000
    4.2110   -4.5840    0.1320 C   0  0  0  0  0  0  0  0  0  0  0  0
    4.6700   -3.2070    0.4970 C   0  0  1  0  0  0  0  0  0  0  0  0
    6.0170   -3.0690    0.1640 O   0  0  0  0  0  0  0  0  0  0  0  0
    3.9180   -2.1160   -0.2410 C   0  0  2  0  0  0  0  0  0  0  0  0
    4.4590   -0.8470    0.2100 N   0  0  0  0  0  0  0  0  0  0  0  0
    2.4640   -2.1350    0.1370 C   0  0  0  0  0  0  0  0  0  0  0  0
    1.7330   -3.1310   -0.1350 O   0  0  0  0  0  0  0  0  0  0  0  0
    5.0860   -5.2640    0.0140 H   0  0  0  0  0  0  0  0  0  0  0  0
    3.6350   -4.6330   -0.8010 H   0  0  0  0  0  0  0  0  0  0  0  0
    3.5620   -5.0500    0.9280 H   0  0  0  0  0  0  0  0  0  0  0  0
    4.5740   -3.0790    1.5870 H   0  0  0  0  0  0  0  0  0  0  0  0
    6.4100   -3.9650    0.1160 H   0  0  0  0  0  0  0  0  0  0  0  0
    4.0230   -2.2660   -1.3260 H   0  0  0  0  0  0  0  0  0  0  0  0
    3.9690   -0.0700   -0.2850 H   0  0  0  0  0  0  0  0  0  0  0  0
    5.4760   -0.7850    0.0150 H   0  0  0  0  0  0  0  0  0  0  0  0
    1.3690    2.2620    3.9670 N   0  0  0  0  0  0  0  0  0  0  0  0
    0.6100    1.2500    3.3300 C   0  0  0  0  0  0  0  0  0  0  0  0
   -0.3950    1.6030    2.7040 O   0  0  0  0  0  0  0  0  0  0  0  0
    1.0460   -0.1220    3.4470 C   0  0  0  0  0  0  0  0  0  0  0  0
    0.3810   -1.1780    2.6460 C   0  0  0  0  0  0  0  0  0  0  0  0
    0.4350   -1.0860    1.1710 C   0  0  2  0  0  0  0  0  0  0  0  0
    1.8550   -1.0470    0.8110 N   0  0  0  0  0  0  0  0  0  0  0  0
   -0.2940   -0.0510    0.4790 C   0  0  0  0  0  0  0  0  0  0  0  0
    0.2830    0.8700   -0.1980 O   0  0  0  0  0  0  0  0  0  0  0  0
    2.3950    2.1820    3.9950 H   0  0  0  0  0  0  0  0  0  0  0  0
    0.9010    3.0710    4.4000 H   0  0  0  0  0  0  0  0  0  0  0  0
    2.1750   -0.2230    3.4010 H   0  0  0  0  0  0  0  0  0  0  0  0
    0.8550   -0.4160    4.5390 H   0  0  0  0  0  0  0  0  0  0  0  0
    0.9150   -2.1460    2.9180 H   0  0  0  0  0  0  0  0  0  0  0  0
   -0.6510   -1.3600    3.0420 H   0  0  0  0  0  0  0  0  0  0  0  0
    0.0350   -2.0950    0.8040 H   0  0  0  0  0  0  0  0  0  0  0  0
    2.4120   -0.2200    1.0500 H   0  0  0  0  0  0  0  0  0  0  0  0
   -4.8460   -0.7590   -2.6240 C   0  0  0  0  0  0  0  0  0  0  0  0
   -4.2140   -0.4450   -1.2560 C   0  0  0  0  0  0  0  0  0  0  0  0
   -5.4040    0.0150   -0.4040 C   0  0  0  0  0  0  0  0  0  0  0  0
   -3.1980    0.6310   -1.4400 C   0  0  0  0  0  0  0  0  0  0  0  0
   -2.4660    1.0690   -0.2170 C   0  0  2  0  0  0  0  0  0  0  0  0
   -1.7210    0.0700    0.4570 N   0  0  0  0  0  0  0  0  0  0  0  0
   -3.3260    1.7860    0.7420 C   0  0  0  0  0  0  0  0  0  0  0  0
   -4.0770    2.7550    0.3760 O   0  0  0  0  0  0  0  0  0  0  0  0
   -3.3960    1.4810    2.0930 O   0  0  0  0  0  0  0  0  0  0  0  0
   -4.2370   -1.5470   -3.1190 H   0  0  0  0  0  0  0  0  0  0  0  0
   -5.8660   -1.1290   -2.5300 H   0  0  0  0  0  0  0  0  0  0  0  0
   -4.8270    0.1290   -3.2730 H   0  0  0  0  0  0  0  0  0  0  0  0
   -3.8370   -1.3590   -0.7700 H   0  0  0  0  0  0  0  0  0  0  0  0
   -5.1820   -0.0260    0.6800 H   0  0  0  0  0  0  0  0  0  0  0  0
   -6.2510   -0.7260   -0.5280 H   0  0  0  0  0  0  0  0  0  0  0  0
   -5.8170    0.9660   -0.7360 H   0  0  0  0  0  0  0  0  0  0  0  0
   -2.4810    0.4450   -2.2440 H   0  0  0  0  0  0  0  0  0  0  0  0
   -3.7790    1.5430   -1.7870 H   0  0  0  0  0  0  0  0  0  0  0  0
   -1.6970    1.8150   -0.5950 H   0  0  0  0  0  0  0  0  0  0  0  0
   -2.2540   -0.6510    0.9910 H   0  0  0  0  0  0  0  0  0  0  0  0
  1  2  1  0  0  0  0
  1 10  1  0  0  0  0
  2 11  1  1  0  0  0
  3  2  1  0  0  0  0
  4 13  1  6  0  0  0
  4  6  1  0  0  0  0
  4  5  1  0  0  0  0
  4  2  1  0  0  0  0
  6 22  1  0  0  0  0
  7  6  2  0  0  0  0
  8  1  1  0  0  0  0
  9  1  1  0  0  0  0
 12  3  1  0  0  0  0
 14  5  1  0  0  0  0
 15  5  1  0  0  0  0
 16 25  1  0  0  0  0
 16 26  1  0  0  0  0
 17 19  1  0  0  0  0
 17 16  1  0  0  0  0
 18 17  2  0  0  0  0
 19 28  1  0  0  0  0
 20 29  1  0  0  0  0
 20 30  1  0  0  0  0
 20 19  1  0  0  0  0
 21 31  1  6  0  0  0
 21 20  1  0  0  0  0
 22 32  1  0  0  0  0
 22 21  1  0  0  0  0
 23 21  1  0  0  0  0
 24 23  2  0  0  0  0
 27 19  1  0  0  0  0
 33 43  1  0  0  0  0
 33 34  1  0  0  0  0
 34 45  1  0  0  0  0
 34 35  1  0  0  0  0
 35 46  1  0  0  0  0
 36 34  1  0  0  0  0
 36 37  1  0  0  0  0
 37 51  1  6  0  0  0
 37 38  1  0  0  0  0
 37 39  1  0  0  0  0
 38 23  1  0  0  0  0
 38 52  1  0  0  0  0
 39 41  1  0  0  0  0
 40 39  2  0  0  0  0
 42 33  1  0  0  0  0
 44 33  1  0  0  0  0
 47 35  1  0  0  0  0
 48 35  1  0  0  0  0
 49 36  1  0  0  0  0
 50 36  1  0  0  0  0
M  END
$$$$
