TQP.pdb
 OpenBabel07022419123D

 47 47  0  0  1  0  0  0  0  0999 V2000
    1.5630   -4.4910   -1.8430 C   0  0  0  0  0  0  0  0  0  0  0  0
    1.8800   -3.2230   -1.0780 C   0  0  1  0  0  0  0  0  0  0  0  0
    2.5330   -2.3260   -1.8990 O   0  0  0  0  0  0  0  0  0  0  0  0
    0.6450   -2.6750   -0.4290 C   0  0  2  0  0  0  0  0  0  0  0  0
   -0.3010   -2.2650   -1.4210 N   0  0  0  0  0  0  0  0  0  0  0  0
    0.9810   -1.5790    0.5370 C   0  0  0  0  0  0  0  0  0  0  0  0
    1.8320   -1.7710    1.4360 O   0  0  0  0  0  0  0  0  0  0  0  0
    0.5180   -4.7780   -1.6680 H   0  0  0  0  0  0  0  0  0  0  0  0
    1.7140   -4.3180   -2.9290 H   0  0  0  0  0  0  0  0  0  0  0  0
    2.2110   -5.3390   -1.5120 H   0  0  0  0  0  0  0  0  0  0  0  0
    2.6150   -3.4920   -0.2680 H   0  0  0  0  0  0  0  0  0  0  0  0
    3.5030   -2.5320   -1.9270 H   0  0  0  0  0  0  0  0  0  0  0  0
    0.1480   -3.5220    0.1350 H   0  0  0  0  0  0  0  0  0  0  0  0
    0.0780   -1.6180   -2.1400 H   0  0  0  0  0  0  0  0  0  0  0  0
   -1.2400   -2.0410   -1.0760 H   0  0  0  0  0  0  0  0  0  0  0  0
    3.9620    0.4570   -1.5520 N   0  0  0  0  0  0  0  0  0  0  0  0
    2.7270    0.9670   -1.0460 C   0  0  0  0  0  0  0  0  0  0  0  0
    1.7130    0.6440   -1.7010 O   0  0  0  0  0  0  0  0  0  0  0  0
    2.6030    1.8020    0.1320 C   0  0  0  0  0  0  0  0  0  0  0  0
    1.2980    1.9750    0.7760 C   0  0  0  0  0  0  0  0  0  0  0  0
    0.6460    0.7380    1.3560 C   0  0  2  0  0  0  0  0  0  0  0  0
    0.3450   -0.3040    0.4560 N   0  0  0  0  0  0  0  0  0  0  0  0
   -0.4820    1.0910    2.2460 C   0  0  0  0  0  0  0  0  0  0  0  0
   -0.1880    2.1670    2.9640 O   0  0  0  0  0  0  0  0  0  0  0  0
    4.1420    0.6190   -2.5670 H   0  0  0  0  0  0  0  0  0  0  0  0
    4.6700   -0.0450   -1.0090 H   0  0  0  0  0  0  0  0  0  0  0  0
    3.0860    2.7980   -0.1430 H   0  0  0  0  0  0  0  0  0  0  0  0
    3.3420    1.4230    0.9190 H   0  0  0  0  0  0  0  0  0  0  0  0
    0.5980    2.5420    0.1240 H   0  0  0  0  0  0  0  0  0  0  0  0
    1.4570    2.6580    1.6630 H   0  0  0  0  0  0  0  0  0  0  0  0
    1.4340    0.2810    2.0810 H   0  0  0  0  0  0  0  0  0  0  0  0
   -0.3540   -0.2170   -0.3290 H   0  0  0  0  0  0  0  0  0  0  0  0
   -1.7170    0.4950    2.4220 N   0  0  0  0  0  0  0  0  0  0  0  0
   -2.3070   -0.6520    1.8540 C   0  0  0  0  0  0  0  0  0  0  0  0
   -3.5740    0.0100    1.2500 C   0  0  0  0  0  0  0  0  0  0  0  0
   -3.9890    0.8510    2.4680 C   0  0  0  0  0  0  0  0  0  0  0  0
   -2.7530    1.0110    3.3180 C   0  0  1  0  0  0  0  0  0  0  0  0
   -2.8370    0.1510    4.5000 C   0  0  0  0  0  0  0  0  0  0  0  0
   -3.7280    0.3630    5.3920 O   0  0  0  0  0  0  0  0  0  0  0  0
   -2.0050   -0.9230    4.7620 O   0  0  0  0  0  0  0  0  0  0  0  0
   -2.7060   -1.3740    2.6250 H   0  0  0  0  0  0  0  0  0  0  0  0
   -1.7610   -1.2040    1.1200 H   0  0  0  0  0  0  0  0  0  0  0  0
   -3.2940    0.6690    0.4130 H   0  0  0  0  0  0  0  0  0  0  0  0
   -4.3240   -0.7310    0.9810 H   0  0  0  0  0  0  0  0  0  0  0  0
   -4.3220    1.8520    2.1700 H   0  0  0  0  0  0  0  0  0  0  0  0
   -4.7770    0.3270    3.0300 H   0  0  0  0  0  0  0  0  0  0  0  0
   -2.5560    2.0770    3.5710 H   0  0  0  0  0  0  0  0  0  0  0  0
  1  8  1  0  0  0  0
  1 10  1  0  0  0  0
  1  2  1  0  0  0  0
  2  4  1  0  0  0  0
  2 11  1  1  0  0  0
  3  2  1  0  0  0  0
  4 13  1  1  0  0  0
  4  6  1  0  0  0  0
  5 15  1  0  0  0  0
  5  4  1  0  0  0  0
  6  7  2  0  0  0  0
  9  1  1  0  0  0  0
 12  3  1  0  0  0  0
 14  5  1  0  0  0  0
 16 17  1  0  0  0  0
 16 26  1  0  0  0  0
 17 19  1  0  0  0  0
 18 17  2  0  0  0  0
 19 20  1  0  0  0  0
 19 28  1  0  0  0  0
 20 21  1  0  0  0  0
 20 30  1  0  0  0  0
 21 31  1  1  0  0  0
 21 23  1  0  0  0  0
 22  6  1  0  0  0  0
 22 21  1  0  0  0  0
 23 33  1  0  0  0  0
 23 24  2  0  0  0  0
 25 16  1  0  0  0  0
 27 19  1  0  0  0  0
 29 20  1  0  0  0  0
 32 22  1  0  0  0  0
 33 37  1  0  0  0  0
 34 33  1  0  0  0  0
 34 41  1  0  0  0  0
 35 34  1  0  0  0  0
 35 36  1  0  0  0  0
 36 46  1  0  0  0  0
 36 37  1  0  0  0  0
 37 47  1  1  0  0  0
 37 38  1  0  0  0  0
 38 40  2  0  0  0  0
 38 39  1  0  0  0  0
 42 34  1  0  0  0  0
 43 35  1  0  0  0  0
 44 35  1  0  0  0  0
 45 36  1  0  0  0  0
M  END
$$$$
