TQY.pdb
 OpenBabel07022419123D

 54 54  0  0  1  0  0  0  0  0999 V2000
   -0.0530    3.8530    2.1390 C   0  0  0  0  0  0  0  0  0  0  0  0
   -0.5100    2.6920    2.9560 C   0  0  1  0  0  0  0  0  0  0  0  0
   -1.3960    3.2280    3.9190 O   0  0  0  0  0  0  0  0  0  0  0  0
   -1.2980    1.6460    2.1950 C   0  0  2  0  0  0  0  0  0  0  0  0
   -1.7210    0.6790    3.2320 N   0  0  0  0  0  0  0  0  0  0  0  0
   -0.4930    0.9150    1.2110 C   0  0  0  0  0  0  0  0  0  0  0  0
   -0.2110   -0.3170    1.4020 O   0  0  0  0  0  0  0  0  0  0  0  0
    0.9170    3.7130    1.6460 H   0  0  0  0  0  0  0  0  0  0  0  0
    0.1250    4.7020    2.8700 H   0  0  0  0  0  0  0  0  0  0  0  0
   -0.8540    4.2420    1.4790 H   0  0  0  0  0  0  0  0  0  0  0  0
    0.3310    2.2500    3.5100 H   0  0  0  0  0  0  0  0  0  0  0  0
   -1.1570    2.9060    4.8240 H   0  0  0  0  0  0  0  0  0  0  0  0
   -2.1930    2.1220    1.7760 H   0  0  0  0  0  0  0  0  0  0  0  0
   -0.9020    0.0340    3.4250 H   0  0  0  0  0  0  0  0  0  0  0  0
   -1.9680    1.1870    4.0970 H   0  0  0  0  0  0  0  0  0  0  0  0
    4.8350   -0.6720    1.6670 N   0  0  0  0  0  0  0  0  0  0  0  0
    4.1580   -0.0930    0.5730 C   0  0  0  0  0  0  0  0  0  0  0  0
    4.8000    0.3870   -0.3820 O   0  0  0  0  0  0  0  0  0  0  0  0
    2.6550   -0.0280    0.5080 C   0  0  0  0  0  0  0  0  0  0  0  0
    2.2320    0.7010   -0.7070 C   0  0  0  0  0  0  0  0  0  0  0  0
    0.7760    0.8500   -0.9600 C   0  0  2  0  0  0  0  0  0  0  0  0
   -0.0000    1.5210    0.0230 N   0  0  0  0  0  0  0  0  0  0  0  0
    0.1460   -0.3250   -1.6000 C   0  0  0  0  0  0  0  0  0  0  0  0
    0.8970   -0.9840   -2.3890 O   0  0  0  0  0  0  0  0  0  0  0  0
    5.5320   -0.1150    2.1850 H   0  0  0  0  0  0  0  0  0  0  0  0
    4.6310   -1.6440    1.9420 H   0  0  0  0  0  0  0  0  0  0  0  0
    2.3170   -1.0820    0.4950 H   0  0  0  0  0  0  0  0  0  0  0  0
    2.3730    0.4750    1.4590 H   0  0  0  0  0  0  0  0  0  0  0  0
    2.7650    1.6990   -0.7310 H   0  0  0  0  0  0  0  0  0  0  0  0
    2.6590    0.1810   -1.6160 H   0  0  0  0  0  0  0  0  0  0  0  0
    0.7580    1.6020   -1.8650 H   0  0  0  0  0  0  0  0  0  0  0  0
   -0.2620    2.5420   -0.0770 H   0  0  0  0  0  0  0  0  0  0  0  0
    0.5680   -5.4230    2.7470 O   0  0  0  0  0  0  0  0  0  0  0  0
   -0.1770   -4.8060    1.7450 C   0  0  0  0  0  0  0  0  0  0  0  0
   -0.9370   -3.7030    2.0700 C   0  0  0  0  0  0  0  0  0  0  0  0
   -1.6860   -3.0830    1.0610 C   0  0  0  0  0  0  0  0  0  0  0  0
   -1.6600   -3.5680   -0.2230 C   0  0  0  0  0  0  0  0  0  0  0  0
   -2.4320   -2.9500   -1.3290 C   0  0  0  0  0  0  0  0  0  0  0  0
   -1.6860   -1.9470   -2.1390 C   0  0  2  0  0  0  0  0  0  0  0  0
   -1.1770   -0.7890   -1.4440 N   0  0  0  0  0  0  0  0  0  0  0  0
   -2.4870   -1.5250   -3.3430 C   0  0  0  0  0  0  0  0  0  0  0  0
   -2.6520   -0.3160   -3.6500 O   0  0  0  0  0  0  0  0  0  0  0  0
   -0.8710   -4.6870   -0.4860 C   0  0  0  0  0  0  0  0  0  0  0  0
   -0.1170   -5.3290    0.4760 C   0  0  0  0  0  0  0  0  0  0  0  0
   -3.0710   -2.4830   -4.1510 O   0  0  0  0  0  0  0  0  0  0  0  0
    0.4390   -5.1480    3.7220 H   0  0  0  0  0  0  0  0  0  0  0  0
   -0.9750   -3.3010    3.0770 H   0  0  0  0  0  0  0  0  0  0  0  0
   -2.3010   -2.2090    1.2740 H   0  0  0  0  0  0  0  0  0  0  0  0
   -2.8490   -3.7760   -1.9560 H   0  0  0  0  0  0  0  0  0  0  0  0
   -3.3490   -2.4780   -0.8560 H   0  0  0  0  0  0  0  0  0  0  0  0
   -0.8020   -2.4680   -2.6010 H   0  0  0  0  0  0  0  0  0  0  0  0
   -1.7870   -0.2400   -0.7930 H   0  0  0  0  0  0  0  0  0  0  0  0
   -0.8590   -5.0600   -1.5050 H   0  0  0  0  0  0  0  0  0  0  0  0
    0.4880   -6.2090    0.2140 H   0  0  0  0  0  0  0  0  0  0  0  0
  1  9  1  0  0  0  0
  1  2  1  0  0  0  0
  2 11  1  1  0  0  0
  2  3  1  0  0  0  0
  3 12  1  0  0  0  0
  4 13  1  6  0  0  0
  4  2  1  0  0  0  0
  4  5  1  0  0  0  0
  5 14  1  0  0  0  0
  5 15  1  0  0  0  0
  6  7  2  0  0  0  0
  6  4  1  0  0  0  0
  8  1  1  0  0  0  0
 10  1  1  0  0  0  0
 16 26  1  0  0  0  0
 16 25  1  0  0  0  0
 17 16  1  0  0  0  0
 18 17  2  0  0  0  0
 19 17  1  0  0  0  0
 19 28  1  0  0  0  0
 20 19  1  0  0  0  0
 21 31  1  6  0  0  0
 21 20  1  0  0  0  0
 21 22  1  0  0  0  0
 22  6  1  0  0  0  0
 23 40  1  0  0  0  0
 23 21  1  0  0  0  0
 24 23  2  0  0  0  0
 27 19  1  0  0  0  0
 29 20  1  0  0  0  0
 30 20  1  0  0  0  0
 32 22  1  0  0  0  0
 33 46  1  0  0  0  0
 34 35  1  0  0  0  0
 34 33  1  0  0  0  0
 35 47  1  0  0  0  0
 36 48  1  0  0  0  0
 36 35  2  0  0  0  0
 37 36  1  0  0  0  0
 38 50  1  0  0  0  0
 38 37  1  0  0  0  0
 39 51  1  6  0  0  0
 39 40  1  0  0  0  0
 39 38  1  0  0  0  0
 40 52  1  0  0  0  0
 41 39  1  0  0  0  0
 42 41  1  0  0  0  0
 43 37  2  0  0  0  0
 43 44  1  0  0  0  0
 44 34  2  0  0  0  0
 45 41  2  0  0  0  0
 49 38  1  0  0  0  0
 53 43  1  0  0  0  0
 54 44  1  0  0  0  0
M  END
$$$$
