TRA.pdb
 OpenBabel07022419113D

 49 48  0  0  1  0  0  0  0  0999 V2000
    2.0290   -6.2070    0.3730 C   0  0  0  0  0  0  0  0  0  0  0  0
    1.5460   -4.9980    1.1230 C   0  0  1  0  0  0  0  0  0  0  0  0
    2.6360   -4.2250    1.5220 O   0  0  0  0  0  0  0  0  0  0  0  0
    0.6430   -4.1160    0.2870 C   0  0  2  0  0  0  0  0  0  0  0  0
    1.3590   -3.6360   -0.8600 N   0  0  0  0  0  0  0  0  0  0  0  0
    0.1480   -3.0140    1.1450 C   0  0  0  0  0  0  0  0  0  0  0  0
   -0.4910   -3.2680    2.2020 O   0  0  0  0  0  0  0  0  0  0  0  0
    1.7460   -7.1140    0.9150 H   0  0  0  0  0  0  0  0  0  0  0  0
    1.5540   -6.2540   -0.6260 H   0  0  0  0  0  0  0  0  0  0  0  0
    3.1450   -6.2080    0.3240 H   0  0  0  0  0  0  0  0  0  0  0  0
    0.9380   -5.3140    2.0030 H   0  0  0  0  0  0  0  0  0  0  0  0
    3.1760   -4.7880    2.1340 H   0  0  0  0  0  0  0  0  0  0  0  0
   -0.1770   -4.7670   -0.0810 H   0  0  0  0  0  0  0  0  0  0  0  0
    1.4010   -4.3300   -1.6200 H   0  0  0  0  0  0  0  0  0  0  0  0
    2.2330   -3.1380   -0.6540 H   0  0  0  0  0  0  0  0  0  0  0  0
    0.2630    0.6860   -2.5320 N   0  0  0  0  0  0  0  0  0  0  0  0
    1.1940    1.0190   -1.5120 C   0  0  0  0  0  0  0  0  0  0  0  0
    2.4310    0.6360   -1.5170 N   0  0  0  0  0  0  0  0  0  0  0  0
    0.7410    1.8180   -0.4210 N   0  0  0  0  0  0  0  0  0  0  0  0
    1.5670    2.0660    0.6950 C   0  0  0  0  0  0  0  0  0  0  0  0
    1.9380    0.9530    1.6010 C   0  0  0  0  0  0  0  0  0  0  0  0
    0.9180    0.2280    2.3430 C   0  0  0  0  0  0  0  0  0  0  0  0
   -0.1420   -0.5600    1.7060 C   0  0  2  0  0  0  0  0  0  0  0  0
    0.3460   -1.6350    0.8580 N   0  0  0  0  0  0  0  0  0  0  0  0
   -1.2150    0.1380    0.9920 C   0  0  0  0  0  0  0  0  0  0  0  0
   -1.5580   -0.2600   -0.1470 O   0  0  0  0  0  0  0  0  0  0  0  0
   -0.2700    1.4050   -3.0720 H   0  0  0  0  0  0  0  0  0  0  0  0
    0.0680   -0.3120   -2.7930 H   0  0  0  0  0  0  0  0  0  0  0  0
    2.7160    0.0470   -2.3440 H   0  0  0  0  0  0  0  0  0  0  0  0
   -0.2330    2.2360   -0.5040 H   0  0  0  0  0  0  0  0  0  0  0  0
    1.0320    2.8520    1.3300 H   0  0  0  0  0  0  0  0  0  0  0  0
    2.4990    2.6580    0.3830 H   0  0  0  0  0  0  0  0  0  0  0  0
    2.7050    0.2680    1.1110 H   0  0  0  0  0  0  0  0  0  0  0  0
    2.6080    1.4450    2.3990 H   0  0  0  0  0  0  0  0  0  0  0  0
    1.4750   -0.4530    3.0810 H   0  0  0  0  0  0  0  0  0  0  0  0
    0.4560    0.9840    3.0780 H   0  0  0  0  0  0  0  0  0  0  0  0
   -0.6520   -1.1110    2.6140 H   0  0  0  0  0  0  0  0  0  0  0  0
    0.8700   -1.3950   -0.0060 H   0  0  0  0  0  0  0  0  0  0  0  0
   -4.2750    1.6860    1.5630 C   0  0  0  0  0  0  0  0  0  0  0  0
   -2.9780    1.9470    0.7920 C   0  0  2  0  0  0  0  0  0  0  0  0
   -1.9150    1.2640    1.5110 N   0  0  0  0  0  0  0  0  0  0  0  0
   -2.7230    3.3740    0.6200 C   0  0  0  0  0  0  0  0  0  0  0  0
   -3.5520    4.0880    0.0070 O   0  0  0  0  0  0  0  0  0  0  0  0
   -1.5860    3.9980    1.1090 O   0  0  0  0  0  0  0  0  0  0  0  0
   -5.1140    1.6500    0.8430 H   0  0  0  0  0  0  0  0  0  0  0  0
   -4.1660    0.6760    2.0090 H   0  0  0  0  0  0  0  0  0  0  0  0
   -4.4160    2.4410    2.3590 H   0  0  0  0  0  0  0  0  0  0  0  0
   -3.1320    1.4810   -0.2040 H   0  0  0  0  0  0  0  0  0  0  0  0
   -1.6430    1.6050    2.4500 H   0  0  0  0  0  0  0  0  0  0  0  0
  1  8  1  0  0  0  0
  1  2  1  0  0  0  0
  2  3  1  0  0  0  0
  2 11  1  1  0  0  0
  3 12  1  0  0  0  0
  4 13  1  6  0  0  0
  4  2  1  0  0  0  0
  4  6  1  0  0  0  0
  5 15  1  0  0  0  0
  5  4  1  0  0  0  0
  6  7  2  0  0  0  0
  9  1  1  0  0  0  0
 10  1  1  0  0  0  0
 14  5  1  0  0  0  0
 16 17  1  0  0  0  0
 17 19  1  0  0  0  0
 18 17  2  0  0  0  0
 19 20  1  0  0  0  0
 20 31  1  0  0  0  0
 20 21  1  0  0  0  0
 21 22  1  0  0  0  0
 21 34  1  0  0  0  0
 22 36  1  0  0  0  0
 22 35  1  0  0  0  0
 23 22  1  0  0  0  0
 23 37  1  1  0  0  0
 24  6  1  0  0  0  0
 24 23  1  0  0  0  0
 25 41  1  0  0  0  0
 25 23  1  0  0  0  0
 26 25  2  0  0  0  0
 27 16  1  0  0  0  0
 28 16  1  0  0  0  0
 29 18  1  0  0  0  0
 30 19  1  0  0  0  0
 32 20  1  0  0  0  0
 33 21  1  0  0  0  0
 38 24  1  0  0  0  0
 39 46  1  0  0  0  0
 39 47  1  0  0  0  0
 40 48  1  6  0  0  0
 40 41  1  0  0  0  0
 40 39  1  0  0  0  0
 41 49  1  0  0  0  0
 42 40  1  0  0  0  0
 42 44  1  0  0  0  0
 43 42  2  0  0  0  0
 45 39  1  0  0  0  0
M  END
$$$$
