TRD.pdb
 OpenBabel07022419113D

 52 51  0  0  1  0  0  0  0  0999 V2000
    0.0140   -4.3140    0.7290 C   0  0  0  0  0  0  0  0  0  0  0  0
    1.3320   -3.6330    0.7470 C   0  0  1  0  0  0  0  0  0  0  0  0
    1.6710   -3.3030   -0.5870 O   0  0  0  0  0  0  0  0  0  0  0  0
    1.3980   -2.3810    1.5500 C   0  0  2  0  0  0  0  0  0  0  0  0
    1.0530   -2.6970    2.9200 N   0  0  0  0  0  0  0  0  0  0  0  0
    0.5420   -1.2950    1.0010 C   0  0  0  0  0  0  0  0  0  0  0  0
    0.6250   -0.8740   -0.1610 O   0  0  0  0  0  0  0  0  0  0  0  0
    0.1560   -5.4170    0.6920 H   0  0  0  0  0  0  0  0  0  0  0  0
   -0.6000   -4.0840   -0.1910 H   0  0  0  0  0  0  0  0  0  0  0  0
   -0.5990   -4.1300    1.6510 H   0  0  0  0  0  0  0  0  0  0  0  0
    2.1090   -4.3630    1.0530 H   0  0  0  0  0  0  0  0  0  0  0  0
    2.6360   -3.0990   -0.6270 H   0  0  0  0  0  0  0  0  0  0  0  0
    2.4310   -1.9780    1.5680 H   0  0  0  0  0  0  0  0  0  0  0  0
    1.6760   -2.2310    3.6120 H   0  0  0  0  0  0  0  0  0  0  0  0
    0.9150   -3.7050    3.0870 H   0  0  0  0  0  0  0  0  0  0  0  0
    4.6390    3.1650    2.7800 N   0  0  0  0  0  0  0  0  0  0  0  0
    3.4370    2.4890    3.1240 C   0  0  0  0  0  0  0  0  0  0  0  0
    3.4830    1.5230    3.9820 N   0  0  0  0  0  0  0  0  0  0  0  0
    2.2120    2.8710    2.5350 N   0  0  0  0  0  0  0  0  0  0  0  0
    1.0670    1.9730    2.6360 C   0  0  0  0  0  0  0  0  0  0  0  0
   -0.1430    2.5260    1.9730 C   0  0  0  0  0  0  0  0  0  0  0  0
   -1.3100    1.6430    2.0830 C   0  0  0  0  0  0  0  0  0  0  0  0
   -1.3410    0.3150    1.5030 C   0  0  2  0  0  0  0  0  0  0  0  0
   -0.4310   -0.7010    1.8600 N   0  0  0  0  0  0  0  0  0  0  0  0
   -1.8580    0.2440    0.0740 C   0  0  0  0  0  0  0  0  0  0  0  0
   -2.2060    1.2890   -0.5330 O   0  0  0  0  0  0  0  0  0  0  0  0
    4.6050    4.0800    2.3070 H   0  0  0  0  0  0  0  0  0  0  0  0
    5.5710    2.7550    2.9960 H   0  0  0  0  0  0  0  0  0  0  0  0
    4.3630    1.2200    4.4310 H   0  0  0  0  0  0  0  0  0  0  0  0
    2.1340    3.7690    2.0420 H   0  0  0  0  0  0  0  0  0  0  0  0
    0.9160    1.8100    3.7340 H   0  0  0  0  0  0  0  0  0  0  0  0
    1.4070    1.0030    2.2470 H   0  0  0  0  0  0  0  0  0  0  0  0
    0.0580    2.9020    0.9430 H   0  0  0  0  0  0  0  0  0  0  0  0
   -0.4000    3.4760    2.5420 H   0  0  0  0  0  0  0  0  0  0  0  0
   -2.2320    2.1920    1.6820 H   0  0  0  0  0  0  0  0  0  0  0  0
   -1.5690    1.5490    3.1790 H   0  0  0  0  0  0  0  0  0  0  0  0
   -2.3570   -0.1450    1.9800 H   0  0  0  0  0  0  0  0  0  0  0  0
   -0.4690   -1.0610    2.8770 H   0  0  0  0  0  0  0  0  0  0  0  0
   -1.9450   -1.0090   -0.5450 N   0  0  0  0  0  0  0  0  0  0  0  0
   -2.4210   -1.1880   -1.9270 C   0  0  1  0  0  0  0  0  0  0  0  0
   -1.4850   -2.0540   -2.7090 C   0  0  0  0  0  0  0  0  0  0  0  0
   -1.9570   -2.1890   -4.0970 C   0  0  0  0  0  0  0  0  0  0  0  0
   -1.5630   -3.1360   -4.8300 O   0  0  0  0  0  0  0  0  0  0  0  0
   -3.7170   -1.8870   -1.8090 C   0  0  0  0  0  0  0  0  0  0  0  0
   -4.1550   -2.1860   -0.6840 O   0  0  0  0  0  0  0  0  0  0  0  0
   -2.8460   -1.3000   -4.6780 O   0  0  0  0  0  0  0  0  0  0  0  0
   -4.4420   -2.2110   -2.9200 O   0  0  0  0  0  0  0  0  0  0  0  0
   -1.7130   -1.8890   -0.0520 H   0  0  0  0  0  0  0  0  0  0  0  0
   -2.5940   -0.1960   -2.3380 H   0  0  0  0  0  0  0  0  0  0  0  0
   -1.5060   -3.1000   -2.2810 H   0  0  0  0  0  0  0  0  0  0  0  0
   -0.4240   -1.7450   -2.6280 H   0  0  0  0  0  0  0  0  0  0  0  0
   -3.3510   -1.4910   -5.5310 H   0  0  0  0  0  0  0  0  0  0  0  0
  1  2  1  0  0  0  0
  1 10  1  0  0  0  0
  2 11  1  1  0  0  0
  2  4  1  0  0  0  0
  3  2  1  0  0  0  0
  4 13  1  6  0  0  0
  4  5  1  0  0  0  0
  5 15  1  0  0  0  0
  5 14  1  0  0  0  0
  6  4  1  0  0  0  0
  6 24  1  0  0  0  0
  7  6  2  0  0  0  0
  8  1  1  0  0  0  0
  9  1  1  0  0  0  0
 12  3  1  0  0  0  0
 16 28  1  0  0  0  0
 16 17  1  0  0  0  0
 17 18  2  0  0  0  0
 18 29  1  0  0  0  0
 19 20  1  0  0  0  0
 19 17  1  0  0  0  0
 20 31  1  0  0  0  0
 21 22  1  0  0  0  0
 21 34  1  0  0  0  0
 21 20  1  0  0  0  0
 22 36  1  0  0  0  0
 23 24  1  0  0  0  0
 23 37  1  1  0  0  0
 23 22  1  0  0  0  0
 24 38  1  0  0  0  0
 25 23  1  0  0  0  0
 26 25  2  0  0  0  0
 27 16  1  0  0  0  0
 30 19  1  0  0  0  0
 32 20  1  0  0  0  0
 33 21  1  0  0  0  0
 35 22  1  0  0  0  0
 39 48  1  0  0  0  0
 39 25  1  0  0  0  0
 40 49  1  6  0  0  0
 40 44  1  0  0  0  0
 40 39  1  0  0  0  0
 41 51  1  0  0  0  0
 41 50  1  0  0  0  0
 41 40  1  0  0  0  0
 42 41  1  0  0  0  0
 43 42  2  0  0  0  0
 44 45  1  0  0  0  0
 46 42  1  0  0  0  0
 47 44  2  0  0  0  0
 52 46  1  0  0  0  0
M  END
$$$$
