TRE.pdb
 OpenBabel07022419113D

 55 54  0  0  1  0  0  0  0  0999 V2000
    3.6020    2.3200   -0.7600 C   0  0  0  0  0  0  0  0  0  0  0  0
    4.3100    0.9960   -0.8770 C   0  0  1  0  0  0  0  0  0  0  0  0
    4.6900    0.6140    0.4230 O   0  0  0  0  0  0  0  0  0  0  0  0
    3.4070   -0.0740   -1.4920 C   0  0  2  0  0  0  0  0  0  0  0  0
    3.0590    0.3890   -2.8230 N   0  0  0  0  0  0  0  0  0  0  0  0
    2.2180   -0.3150   -0.6520 C   0  0  0  0  0  0  0  0  0  0  0  0
    2.3870   -0.7150    0.5120 O   0  0  0  0  0  0  0  0  0  0  0  0
    3.3670    2.7070   -1.7720 H   0  0  0  0  0  0  0  0  0  0  0  0
    4.2870    3.0220   -0.2780 H   0  0  0  0  0  0  0  0  0  0  0  0
    2.7040    2.2440   -0.1170 H   0  0  0  0  0  0  0  0  0  0  0  0
    5.2270    1.1320   -1.4830 H   0  0  0  0  0  0  0  0  0  0  0  0
    5.0440    1.4090    0.8880 H   0  0  0  0  0  0  0  0  0  0  0  0
    4.0370   -0.9920   -1.5460 H   0  0  0  0  0  0  0  0  0  0  0  0
    2.3930    1.1870   -2.7210 H   0  0  0  0  0  0  0  0  0  0  0  0
    3.9450    0.8020   -3.2280 H   0  0  0  0  0  0  0  0  0  0  0  0
   -1.2390    1.1710    5.2910 N   0  0  0  0  0  0  0  0  0  0  0  0
   -0.3610    1.2530    4.1940 C   0  0  0  0  0  0  0  0  0  0  0  0
    0.9140    1.1490    4.4170 N   0  0  0  0  0  0  0  0  0  0  0  0
   -0.8520    1.4450    2.8650 N   0  0  0  0  0  0  0  0  0  0  0  0
    0.1230    1.8460    1.8680 C   0  0  0  0  0  0  0  0  0  0  0  0
   -0.4830    2.0220    0.5130 C   0  0  0  0  0  0  0  0  0  0  0  0
   -1.1260    0.8000   -0.0440 C   0  0  0  0  0  0  0  0  0  0  0  0
   -0.2130   -0.3730   -0.2200 C   0  0  2  0  0  0  0  0  0  0  0  0
    0.8870   -0.1120   -1.1100 N   0  0  0  0  0  0  0  0  0  0  0  0
   -1.0310   -1.4630   -0.8150 C   0  0  0  0  0  0  0  0  0  0  0  0
   -0.6870   -1.9670   -1.9150 O   0  0  0  0  0  0  0  0  0  0  0  0
   -1.3550    1.9800    5.9190 H   0  0  0  0  0  0  0  0  0  0  0  0
   -1.7660    0.3030    5.4680 H   0  0  0  0  0  0  0  0  0  0  0  0
    1.2950    1.0110    5.3560 H   0  0  0  0  0  0  0  0  0  0  0  0
   -1.8660    1.3000    2.6420 H   0  0  0  0  0  0  0  0  0  0  0  0
    0.9570    1.1540    1.9270 H   0  0  0  0  0  0  0  0  0  0  0  0
    0.5040    2.8450    2.2080 H   0  0  0  0  0  0  0  0  0  0  0  0
    0.2880    2.3810   -0.1990 H   0  0  0  0  0  0  0  0  0  0  0  0
   -1.2400    2.8300    0.5810 H   0  0  0  0  0  0  0  0  0  0  0  0
   -1.6090    1.0130   -1.0190 H   0  0  0  0  0  0  0  0  0  0  0  0
   -1.9540    0.4710    0.6310 H   0  0  0  0  0  0  0  0  0  0  0  0
    0.1210   -0.7060    0.7850 H   0  0  0  0  0  0  0  0  0  0  0  0
    0.7040    0.2210   -2.0770 H   0  0  0  0  0  0  0  0  0  0  0  0
   -2.2030   -1.9670   -0.1870 N   0  0  0  0  0  0  0  0  0  0  0  0
   -2.9400   -3.0300   -0.8370 C   0  0  1  0  0  0  0  0  0  0  0  0
   -2.9890   -4.2350    0.0780 C   0  0  0  0  0  0  0  0  0  0  0  0
   -1.6080   -4.7440    0.4060 C   0  0  0  0  0  0  0  0  0  0  0  0
   -1.7530   -5.9180    1.3020 C   0  0  0  0  0  0  0  0  0  0  0  0
   -2.8780   -6.3410    1.6690 O   0  0  0  0  0  0  0  0  0  0  0  0
   -4.3240   -2.6080   -1.1800 C   0  0  0  0  0  0  0  0  0  0  0  0
   -4.6860   -1.4490   -0.8890 O   0  0  0  0  0  0  0  0  0  0  0  0
   -0.6340   -6.5840    1.7610 O   0  0  0  0  0  0  0  0  0  0  0  0
   -5.1630   -3.5030   -1.8050 O   0  0  0  0  0  0  0  0  0  0  0  0
   -2.4830   -1.5580    0.7060 H   0  0  0  0  0  0  0  0  0  0  0  0
   -2.4580   -3.3220   -1.7910 H   0  0  0  0  0  0  0  0  0  0  0  0
   -3.5140   -3.9390    1.0070 H   0  0  0  0  0  0  0  0  0  0  0  0
   -3.5270   -5.0470   -0.4350 H   0  0  0  0  0  0  0  0  0  0  0  0
   -1.0100   -3.9730    0.9670 H   0  0  0  0  0  0  0  0  0  0  0  0
   -1.0560   -5.0550   -0.5040 H   0  0  0  0  0  0  0  0  0  0  0  0
   -0.6850   -7.4740    2.2510 H   0  0  0  0  0  0  0  0  0  0  0  0
  1  9  1  0  0  0  0
  1 10  1  0  0  0  0
  2 11  1  6  0  0  0
  2  1  1  0  0  0  0
  2  3  1  0  0  0  0
  3 12  1  0  0  0  0
  4 13  1  6  0  0  0
  4  2  1  0  0  0  0
  4  6  1  0  0  0  0
  5 14  1  0  0  0  0
  5  4  1  0  0  0  0
  6  7  2  0  0  0  0
  8  1  1  0  0  0  0
 15  5  1  0  0  0  0
 16 28  1  0  0  0  0
 16 27  1  0  0  0  0
 17 18  2  0  0  0  0
 17 16  1  0  0  0  0
 18 29  1  0  0  0  0
 19 17  1  0  0  0  0
 20 31  1  0  0  0  0
 20 32  1  0  0  0  0
 20 19  1  0  0  0  0
 21 34  1  0  0  0  0
 21 20  1  0  0  0  0
 22 21  1  0  0  0  0
 22 36  1  0  0  0  0
 23 22  1  0  0  0  0
 23 37  1  1  0  0  0
 24  6  1  0  0  0  0
 24 23  1  0  0  0  0
 25 23  1  0  0  0  0
 25 39  1  0  0  0  0
 26 25  2  0  0  0  0
 30 19  1  0  0  0  0
 33 21  1  0  0  0  0
 35 22  1  0  0  0  0
 38 24  1  0  0  0  0
 39 49  1  0  0  0  0
 40 50  1  6  0  0  0
 40 39  1  0  0  0  0
 40 41  1  0  0  0  0
 41 42  1  0  0  0  0
 41 51  1  0  0  0  0
 42 53  1  0  0  0  0
 42 43  1  0  0  0  0
 43 44  2  0  0  0  0
 43 47  1  0  0  0  0
 45 46  1  0  0  0  0
 45 40  1  0  0  0  0
 47 55  1  0  0  0  0
 48 45  2  0  0  0  0
 52 41  1  0  0  0  0
 54 42  1  0  0  0  0
M  END
$$$$
