TRH.pdb
 OpenBabel07022419113D

 56 56  0  0  1  0  0  0  0  0999 V2000
    2.5330   -4.0540    1.9880 C   0  0  0  0  0  0  0  0  0  0  0  0
    3.1420   -2.8330    1.3300 C   0  0  1  0  0  0  0  0  0  0  0  0
    2.6420   -2.6540    0.0430 O   0  0  0  0  0  0  0  0  0  0  0  0
    2.9410   -1.5740    2.1250 C   0  0  2  0  0  0  0  0  0  0  0  0
    3.4940   -1.8410    3.4600 N   0  0  0  0  0  0  0  0  0  0  0  0
    1.5360   -1.1850    2.3040 C   0  0  0  0  0  0  0  0  0  0  0  0
    0.9930   -1.1320    3.4470 O   0  0  0  0  0  0  0  0  0  0  0  0
    2.4160   -4.8410    1.1880 H   0  0  0  0  0  0  0  0  0  0  0  0
    1.5680   -3.8410    2.4800 H   0  0  0  0  0  0  0  0  0  0  0  0
    3.2140   -4.4650    2.7710 H   0  0  0  0  0  0  0  0  0  0  0  0
    4.2240   -3.0520    1.2100 H   0  0  0  0  0  0  0  0  0  0  0  0
    3.3100   -2.0790   -0.4470 H   0  0  0  0  0  0  0  0  0  0  0  0
    3.5810   -0.7870    1.6930 H   0  0  0  0  0  0  0  0  0  0  0  0
    3.3980   -1.0030    4.0860 H   0  0  0  0  0  0  0  0  0  0  0  0
    2.9390   -2.6220    3.9130 H   0  0  0  0  0  0  0  0  0  0  0  0
    2.2570    4.1490    1.9620 N   0  0  0  0  0  0  0  0  0  0  0  0
    1.5300    3.7580    0.7820 C   0  0  0  0  0  0  0  0  0  0  0  0
    0.8880    4.6730    0.1560 N   0  0  0  0  0  0  0  0  0  0  0  0
    1.5560    2.4040    0.3740 N   0  0  0  0  0  0  0  0  0  0  0  0
    0.6000    1.8380   -0.5230 C   0  0  0  0  0  0  0  0  0  0  0  0
   -0.7720    1.7290    0.0340 C   0  0  0  0  0  0  0  0  0  0  0  0
   -0.9940    0.9660    1.2620 C   0  0  0  0  0  0  0  0  0  0  0  0
   -0.6860   -0.4600    1.3800 C   0  0  2  0  0  0  0  0  0  0  0  0
    0.6700   -0.8350    1.1930 N   0  0  0  0  0  0  0  0  0  0  0  0
   -1.5720   -1.3820    0.5810 C   0  0  0  0  0  0  0  0  0  0  0  0
   -1.0450   -2.3460   -0.0410 O   0  0  0  0  0  0  0  0  0  0  0  0
    1.7900    4.6760    2.7220 H   0  0  0  0  0  0  0  0  0  0  0  0
    3.2710    3.8880    2.0340 H   0  0  0  0  0  0  0  0  0  0  0  0
    0.3570    4.4240   -0.6950 H   0  0  0  0  0  0  0  0  0  0  0  0
    2.3170    1.7930    0.7520 H   0  0  0  0  0  0  0  0  0  0  0  0
    0.9090    0.9020   -1.0090 H   0  0  0  0  0  0  0  0  0  0  0  0
    0.5960    2.5710   -1.4180 H   0  0  0  0  0  0  0  0  0  0  0  0
   -1.5220    1.4440   -0.7690 H   0  0  0  0  0  0  0  0  0  0  0  0
   -1.1000    2.8050    0.2580 H   0  0  0  0  0  0  0  0  0  0  0  0
   -2.0650    1.1220    1.6620 H   0  0  0  0  0  0  0  0  0  0  0  0
   -0.3740    1.4860    2.0850 H   0  0  0  0  0  0  0  0  0  0  0  0
   -0.9360   -0.7080    2.4930 H   0  0  0  0  0  0  0  0  0  0  0  0
    1.1320   -0.9070    0.2680 H   0  0  0  0  0  0  0  0  0  0  0  0
   -2.9760   -1.2140    0.5030 N   0  0  0  0  0  0  0  0  0  0  0  0
   -3.8990   -2.0560   -0.2020 C   0  0  1  0  0  0  0  0  0  0  0  0
   -4.0740   -1.8240   -1.6490 C   0  0  0  0  0  0  0  0  0  0  0  0
   -2.8650   -1.9850   -2.4830 C   0  0  0  0  0  0  0  0  0  0  0  0
   -1.9780   -1.0080   -2.8370 C   0  0  0  0  0  0  0  0  0  0  0  0
   -1.0320   -1.5610   -3.6120 N   0  0  0  0  0  0  0  0  0  0  0  0
   -1.3160   -2.8680   -3.7480 C   0  0  0  0  0  0  0  0  0  0  0  0
   -2.4400   -3.1230   -3.0550 N   0  0  0  0  0  0  0  0  0  0  0  0
   -3.6770   -3.5240    0.0940 C   0  0  0  0  0  0  0  0  0  0  0  0
   -4.3560   -4.3960   -0.4960 O   0  0  0  0  0  0  0  0  0  0  0  0
   -2.7460   -3.9260    0.9990 O   0  0  0  0  0  0  0  0  0  0  0  0
   -3.3290   -0.3520    1.0450 H   0  0  0  0  0  0  0  0  0  0  0  0
   -4.9120   -1.8950    0.3170 H   0  0  0  0  0  0  0  0  0  0  0  0
   -4.5780   -0.8400   -1.8420 H   0  0  0  0  0  0  0  0  0  0  0  0
   -4.8160   -2.5750   -2.0550 H   0  0  0  0  0  0  0  0  0  0  0  0
   -2.0080    0.0230   -2.5660 H   0  0  0  0  0  0  0  0  0  0  0  0
   -0.1940   -1.0790   -4.0550 H   0  0  0  0  0  0  0  0  0  0  0  0
   -0.7060   -3.5480   -4.3280 H   0  0  0  0  0  0  0  0  0  0  0  0
  1  9  1  0  0  0  0
  1 10  1  0  0  0  0
  2 11  1  6  0  0  0
  2  1  1  0  0  0  0
  2  4  1  0  0  0  0
  3  2  1  0  0  0  0
  4 13  1  6  0  0  0
  4  6  1  0  0  0  0
  4  5  1  0  0  0  0
  5 15  1  0  0  0  0
  5 14  1  0  0  0  0
  6  7  2  0  0  0  0
  8  1  1  0  0  0  0
 12  3  1  0  0  0  0
 16 28  1  0  0  0  0
 16 27  1  0  0  0  0
 17 16  1  0  0  0  0
 18 17  2  0  0  0  0
 19 30  1  0  0  0  0
 19 17  1  0  0  0  0
 20 21  1  0  0  0  0
 20 19  1  0  0  0  0
 21 34  1  0  0  0  0
 21 22  1  0  0  0  0
 22 23  1  0  0  0  0
 22 35  1  0  0  0  0
 22 36  1  0  0  0  0
 23 37  1  1  0  0  0
 24 23  1  0  0  0  0
 24  6  1  0  0  0  0
 25 23  1  0  0  0  0
 26 25  2  0  0  0  0
 29 18  1  0  0  0  0
 31 20  1  0  0  0  0
 32 20  1  0  0  0  0
 33 21  1  0  0  0  0
 38 24  1  0  0  0  0
 39 25  1  0  0  0  0
 39 50  1  0  0  0  0
 40 47  1  0  0  0  0
 40 51  1  1  0  0  0
 40 39  1  0  0  0  0
 41 40  1  0  0  0  0
 42 41  1  0  0  0  0
 43 54  1  0  0  0  0
 43 42  2  0  0  0  0
 44 43  1  0  0  0  0
 45 44  1  0  0  0  0
 45 46  2  0  0  0  0
 46 42  1  0  0  0  0
 47 49  1  0  0  0  0
 48 47  2  0  0  0  0
 52 41  1  0  0  0  0
 53 41  1  0  0  0  0
 55 44  1  0  0  0  0
 56 45  1  0  0  0  0
M  END
$$$$
