TRK.pdb
 OpenBabel07022419113D

 60 59  0  0  1  0  0  0  0  0999 V2000
    1.7130    1.1870    4.2890 C   0  0  0  0  0  0  0  0  0  0  0  0
    1.2030   -0.1030    4.8560 C   0  0  1  0  0  0  0  0  0  0  0  0
    0.1790    0.1400    5.7740 O   0  0  0  0  0  0  0  0  0  0  0  0
    0.7050   -1.0550    3.7870 C   0  0  2  0  0  0  0  0  0  0  0  0
    1.7440   -1.3100    2.8440 N   0  0  0  0  0  0  0  0  0  0  0  0
   -0.5580   -0.6090    3.2140 C   0  0  0  0  0  0  0  0  0  0  0  0
   -1.5170   -0.3560    3.9870 O   0  0  0  0  0  0  0  0  0  0  0  0
    2.1320    1.7750    5.1280 H   0  0  0  0  0  0  0  0  0  0  0  0
    2.5250    0.9230    3.5660 H   0  0  0  0  0  0  0  0  0  0  0  0
    0.9360    1.7630    3.7500 H   0  0  0  0  0  0  0  0  0  0  0  0
    2.0580   -0.5710    5.4100 H   0  0  0  0  0  0  0  0  0  0  0  0
   -0.2280   -0.7060    6.0290 H   0  0  0  0  0  0  0  0  0  0  0  0
    0.4930   -2.0290    4.3220 H   0  0  0  0  0  0  0  0  0  0  0  0
    1.9670   -0.5430    2.2100 H   0  0  0  0  0  0  0  0  0  0  0  0
    1.7050   -2.2500    2.4000 H   0  0  0  0  0  0  0  0  0  0  0  0
    2.6020    3.6140    2.2340 N   0  0  0  0  0  0  0  0  0  0  0  0
    2.1930    2.6430    1.2560 C   0  0  0  0  0  0  0  0  0  0  0  0
    3.0780    1.8880    0.7090 N   0  0  0  0  0  0  0  0  0  0  0  0
    0.8140    2.5740    0.9470 N   0  0  0  0  0  0  0  0  0  0  0  0
    0.3700    1.8080   -0.1750 C   0  0  0  0  0  0  0  0  0  0  0  0
   -1.0960    1.8200   -0.3900 C   0  0  0  0  0  0  0  0  0  0  0  0
   -1.9830    1.3570    0.6800 C   0  0  0  0  0  0  0  0  0  0  0  0
   -1.9170   -0.0280    1.1900 C   0  0  2  0  0  0  0  0  0  0  0  0
   -0.6910   -0.4640    1.7830 N   0  0  0  0  0  0  0  0  0  0  0  0
   -2.4200   -1.0350    0.1930 C   0  0  0  0  0  0  0  0  0  0  0  0
   -3.4810   -0.8360   -0.4510 O   0  0  0  0  0  0  0  0  0  0  0  0
    3.5700    3.6060    2.6220 H   0  0  0  0  0  0  0  0  0  0  0  0
    1.9620    4.3470    2.5860 H   0  0  0  0  0  0  0  0  0  0  0  0
    4.0640    1.9940    0.9820 H   0  0  0  0  0  0  0  0  0  0  0  0
    0.1440    3.0850    1.5460 H   0  0  0  0  0  0  0  0  0  0  0  0
    0.8340    0.8130   -0.2230 H   0  0  0  0  0  0  0  0  0  0  0  0
    0.8370    2.3520   -1.0850 H   0  0  0  0  0  0  0  0  0  0  0  0
   -1.3020    1.2410   -1.3380 H   0  0  0  0  0  0  0  0  0  0  0  0
   -1.4070    2.8880   -0.6430 H   0  0  0  0  0  0  0  0  0  0  0  0
   -3.0780    1.5440    0.4360 H   0  0  0  0  0  0  0  0  0  0  0  0
   -1.8610    2.0210    1.6110 H   0  0  0  0  0  0  0  0  0  0  0  0
   -2.6930   -0.0410    2.0420 H   0  0  0  0  0  0  0  0  0  0  0  0
    0.1550   -0.7170    1.2520 H   0  0  0  0  0  0  0  0  0  0  0  0
   -1.6760   -2.2280   -0.0180 N   0  0  0  0  0  0  0  0  0  0  0  0
   -2.0770   -3.2470   -0.9500 C   0  0  1  0  0  0  0  0  0  0  0  0
   -0.9830   -3.4930   -1.9990 C   0  0  0  0  0  0  0  0  0  0  0  0
   -0.6950   -2.2510   -2.7730 C   0  0  0  0  0  0  0  0  0  0  0  0
    0.4020   -2.4540   -3.7600 C   0  0  0  0  0  0  0  0  0  0  0  0
    0.1850   -3.4850   -4.8190 C   0  0  0  0  0  0  0  0  0  0  0  0
    0.0160   -4.8210   -4.3640 N   0  0  0  0  0  0  0  0  0  0  0  0
   -2.2620   -4.5130   -0.2230 C   0  0  0  0  0  0  0  0  0  0  0  0
   -2.6120   -5.5390   -0.8390 O   0  0  0  0  0  0  0  0  0  0  0  0
   -2.0510   -4.5730    1.1340 O   0  0  0  0  0  0  0  0  0  0  0  0
   -0.8020   -2.3500    0.5410 H   0  0  0  0  0  0  0  0  0  0  0  0
   -3.0280   -2.9610   -1.4580 H   0  0  0  0  0  0  0  0  0  0  0  0
   -0.1220   -3.9390   -1.4910 H   0  0  0  0  0  0  0  0  0  0  0  0
   -1.3740   -4.2650   -2.7260 H   0  0  0  0  0  0  0  0  0  0  0  0
   -0.5030   -1.3720   -2.1090 H   0  0  0  0  0  0  0  0  0  0  0  0
   -1.6010   -1.9280   -3.3800 H   0  0  0  0  0  0  0  0  0  0  0  0
    1.3260   -2.7660   -3.1940 H   0  0  0  0  0  0  0  0  0  0  0  0
    0.6830   -1.4910   -4.2650 H   0  0  0  0  0  0  0  0  0  0  0  0
   -0.6650   -3.1960   -5.4890 H   0  0  0  0  0  0  0  0  0  0  0  0
    1.1200   -3.4530   -5.4620 H   0  0  0  0  0  0  0  0  0  0  0  0
    0.8970   -5.3100   -4.1150 H   0  0  0  0  0  0  0  0  0  0  0  0
   -0.6790   -5.3870   -4.8590 H   0  0  0  0  0  0  0  0  0  0  0  0
  1  2  1  0  0  0  0
  1  8  1  0  0  0  0
  2 11  1  1  0  0  0
  2  3  1  0  0  0  0
  3 12  1  0  0  0  0
  4 13  1  1  0  0  0
  4  2  1  0  0  0  0
  5  4  1  0  0  0  0
  6  4  1  0  0  0  0
  6  7  2  0  0  0  0
  9  1  1  0  0  0  0
 10  1  1  0  0  0  0
 14  5  1  0  0  0  0
 15  5  1  0  0  0  0
 16 28  1  0  0  0  0
 16 27  1  0  0  0  0
 17 16  1  0  0  0  0
 18 29  1  0  0  0  0
 18 17  2  0  0  0  0
 19 17  1  0  0  0  0
 19 30  1  0  0  0  0
 20 19  1  0  0  0  0
 21 20  1  0  0  0  0
 21 22  1  0  0  0  0
 22 23  1  0  0  0  0
 22 36  1  0  0  0  0
 23 24  1  0  0  0  0
 23 37  1  1  0  0  0
 24  6  1  0  0  0  0
 25 23  1  0  0  0  0
 26 25  2  0  0  0  0
 31 20  1  0  0  0  0
 32 20  1  0  0  0  0
 33 21  1  0  0  0  0
 34 21  1  0  0  0  0
 35 22  1  0  0  0  0
 38 24  1  0  0  0  0
 39 25  1  0  0  0  0
 39 49  1  0  0  0  0
 40 50  1  6  0  0  0
 40 46  1  0  0  0  0
 40 39  1  0  0  0  0
 41 51  1  0  0  0  0
 41 40  1  0  0  0  0
 42 53  1  0  0  0  0
 42 41  1  0  0  0  0
 43 55  1  0  0  0  0
 43 42  1  0  0  0  0
 44 45  1  0  0  0  0
 44 43  1  0  0  0  0
 45 59  1  0  0  0  0
 46 48  1  0  0  0  0
 47 46  2  0  0  0  0
 52 41  1  0  0  0  0
 54 42  1  0  0  0  0
 56 43  1  0  0  0  0
 57 44  1  0  0  0  0
 58 44  1  0  0  0  0
 60 45  1  0  0  0  0
M  END
$$$$
