TRL.pdb
 OpenBabel07022419113D

 58 57  0  0  1  0  0  0  0  0999 V2000
   -0.6970   -3.9260    4.6680 C   0  0  0  0  0  0  0  0  0  0  0  0
    0.5890   -3.1870    4.8970 C   0  0  1  0  0  0  0  0  0  0  0  0
    1.4840   -3.3120    3.8610 O   0  0  0  0  0  0  0  0  0  0  0  0
    0.2850   -1.7360    5.1800 C   0  0  2  0  0  0  0  0  0  0  0  0
   -0.6560   -1.6990    6.2690 N   0  0  0  0  0  0  0  0  0  0  0  0
   -0.2960   -1.0450    4.0060 C   0  0  0  0  0  0  0  0  0  0  0  0
   -1.4650   -0.5750    4.1590 O   0  0  0  0  0  0  0  0  0  0  0  0
   -0.9380   -3.8620    3.5920 H   0  0  0  0  0  0  0  0  0  0  0  0
   -0.5700   -5.0260    4.8870 H   0  0  0  0  0  0  0  0  0  0  0  0
   -1.5140   -3.5260    5.3070 H   0  0  0  0  0  0  0  0  0  0  0  0
    1.0630   -3.5990    5.8270 H   0  0  0  0  0  0  0  0  0  0  0  0
    2.3490   -3.6880    4.1250 H   0  0  0  0  0  0  0  0  0  0  0  0
    1.2540   -1.2490    5.4980 H   0  0  0  0  0  0  0  0  0  0  0  0
   -1.6380   -1.6060    5.9980 H   0  0  0  0  0  0  0  0  0  0  0  0
   -0.5410   -2.4940    6.9330 H   0  0  0  0  0  0  0  0  0  0  0  0
    5.7850    0.8210   -1.4670 N   0  0  0  0  0  0  0  0  0  0  0  0
    4.4280    0.9900   -1.0840 C   0  0  0  0  0  0  0  0  0  0  0  0
    3.5110    0.4890   -1.8290 N   0  0  0  0  0  0  0  0  0  0  0  0
    4.0970    1.7000    0.1010 N   0  0  0  0  0  0  0  0  0  0  0  0
    2.7320    1.9740    0.4850 C   0  0  0  0  0  0  0  0  0  0  0  0
    1.9990    0.6910    0.8680 C   0  0  0  0  0  0  0  0  0  0  0  0
    0.5710    0.9930    1.2680 C   0  0  0  0  0  0  0  0  0  0  0  0
   -0.1960   -0.2290    1.6560 C   0  0  2  0  0  0  0  0  0  0  0  0
    0.4020   -0.9080    2.7760 N   0  0  0  0  0  0  0  0  0  0  0  0
   -0.4390   -1.1490    0.5130 C   0  0  0  0  0  0  0  0  0  0  0  0
   -0.1420   -2.3720    0.5470 O   0  0  0  0  0  0  0  0  0  0  0  0
    6.0910    0.1420   -2.1970 H   0  0  0  0  0  0  0  0  0  0  0  0
    6.5550    1.3870   -1.0180 H   0  0  0  0  0  0  0  0  0  0  0  0
    3.6840   -0.0380   -2.7000 H   0  0  0  0  0  0  0  0  0  0  0  0
    4.8880    2.0380    0.7190 H   0  0  0  0  0  0  0  0  0  0  0  0
    2.2470    2.4640   -0.4050 H   0  0  0  0  0  0  0  0  0  0  0  0
    2.7030    2.7120    1.2890 H   0  0  0  0  0  0  0  0  0  0  0  0
    1.9490    0.0750   -0.0550 H   0  0  0  0  0  0  0  0  0  0  0  0
    2.5720    0.2330    1.6840 H   0  0  0  0  0  0  0  0  0  0  0  0
    0.6250    1.6470    2.1650 H   0  0  0  0  0  0  0  0  0  0  0  0
    0.0180    1.5370    0.5050 H   0  0  0  0  0  0  0  0  0  0  0  0
   -1.2030    0.1110    1.9730 H   0  0  0  0  0  0  0  0  0  0  0  0
    1.3560   -1.2940    2.6630 H   0  0  0  0  0  0  0  0  0  0  0  0
   -2.9120    0.3580   -3.7080 C   0  0  0  0  0  0  0  0  0  0  0  0
   -3.4360   -0.3750   -2.5150 C   0  0  0  0  0  0  0  0  0  0  0  0
   -4.8990   -0.7340   -2.8010 C   0  0  0  0  0  0  0  0  0  0  0  0
   -2.7230   -1.6310   -2.1680 C   0  0  0  0  0  0  0  0  0  0  0  0
   -1.2850   -1.5390   -1.8270 C   0  0  2  0  0  0  0  0  0  0  0  0
   -1.0290   -0.6790   -0.6890 N   0  0  0  0  0  0  0  0  0  0  0  0
   -0.4250   -1.0930   -2.9360 C   0  0  0  0  0  0  0  0  0  0  0  0
    0.3870   -0.1090   -2.8350 O   0  0  0  0  0  0  0  0  0  0  0  0
   -0.4180   -1.7060   -4.1950 O   0  0  0  0  0  0  0  0  0  0  0  0
   -3.6900    1.0760   -4.1010 H   0  0  0  0  0  0  0  0  0  0  0  0
   -2.7330   -0.3540   -4.5590 H   0  0  0  0  0  0  0  0  0  0  0  0
   -2.0020    0.9390   -3.5150 H   0  0  0  0  0  0  0  0  0  0  0  0
   -3.4720    0.3550   -1.6710 H   0  0  0  0  0  0  0  0  0  0  0  0
   -5.5110   -0.5070   -1.9090 H   0  0  0  0  0  0  0  0  0  0  0  0
   -4.9700   -1.8210   -3.0760 H   0  0  0  0  0  0  0  0  0  0  0  0
   -5.2490   -0.1190   -3.6310 H   0  0  0  0  0  0  0  0  0  0  0  0
   -3.2380   -2.2010   -1.3460 H   0  0  0  0  0  0  0  0  0  0  0  0
   -2.8570   -2.3190   -3.0610 H   0  0  0  0  0  0  0  0  0  0  0  0
   -0.9470   -2.5920   -1.6050 H   0  0  0  0  0  0  0  0  0  0  0  0
   -1.2800    0.3150   -0.7450 H   0  0  0  0  0  0  0  0  0  0  0  0
  1  9  1  0  0  0  0
  1  2  1  0  0  0  0
  1 10  1  0  0  0  0
  2  4  1  0  0  0  0
  2 11  1  1  0  0  0
  3 12  1  0  0  0  0
  3  2  1  0  0  0  0
  4 13  1  1  0  0  0
  4  5  1  0  0  0  0
  5 15  1  0  0  0  0
  6  7  2  0  0  0  0
  6  4  1  0  0  0  0
  8  1  1  0  0  0  0
 14  5  1  0  0  0  0
 16 17  1  0  0  0  0
 16 28  1  0  0  0  0
 17 19  1  0  0  0  0
 18 17  2  0  0  0  0
 19 20  1  0  0  0  0
 19 30  1  0  0  0  0
 20 21  1  0  0  0  0
 20 32  1  0  0  0  0
 21 22  1  0  0  0  0
 21 34  1  0  0  0  0
 22 23  1  0  0  0  0
 22 35  1  0  0  0  0
 23 37  1  1  0  0  0
 23 24  1  0  0  0  0
 24  6  1  0  0  0  0
 25 26  2  0  0  0  0
 25 23  1  0  0  0  0
 27 16  1  0  0  0  0
 29 18  1  0  0  0  0
 31 20  1  0  0  0  0
 33 21  1  0  0  0  0
 36 22  1  0  0  0  0
 38 24  1  0  0  0  0
 39 50  1  0  0  0  0
 39 40  1  0  0  0  0
 40 42  1  0  0  0  0
 40 51  1  0  0  0  0
 41 40  1  0  0  0  0
 41 52  1  0  0  0  0
 42 43  1  0  0  0  0
 42 55  1  0  0  0  0
 43 57  1  1  0  0  0
 43 44  1  0  0  0  0
 44 25  1  0  0  0  0
 45 46  1  0  0  0  0
 45 43  1  0  0  0  0
 47 45  2  0  0  0  0
 48 39  1  0  0  0  0
 49 39  1  0  0  0  0
 53 41  1  0  0  0  0
 54 41  1  0  0  0  0
 56 42  1  0  0  0  0
 58 44  1  0  0  0  0
M  END
$$$$
