TRQ.pdb
 OpenBabel07022419113D

 56 55  0  0  1  0  0  0  0  0999 V2000
    1.3480   -0.2810    4.5460 C   0  0  0  0  0  0  0  0  0  0  0  0
    2.3170   -1.3290    4.0250 C   0  0  1  0  0  0  0  0  0  0  0  0
    2.9720   -1.7910    5.2140 O   0  0  0  0  0  0  0  0  0  0  0  0
    1.6410   -2.5170    3.4670 C   0  0  2  0  0  0  0  0  0  0  0  0
    2.6230   -3.5760    3.2380 N   0  0  0  0  0  0  0  0  0  0  0  0
    0.7520   -2.3520    2.3260 C   0  0  0  0  0  0  0  0  0  0  0  0
    0.2780   -3.3890    1.7960 O   0  0  0  0  0  0  0  0  0  0  0  0
    1.6580    0.6980    4.1450 H   0  0  0  0  0  0  0  0  0  0  0  0
    1.4000   -0.1840    5.6640 H   0  0  0  0  0  0  0  0  0  0  0  0
    0.2910   -0.5100    4.3410 H   0  0  0  0  0  0  0  0  0  0  0  0
    3.0520   -0.9210    3.3170 H   0  0  0  0  0  0  0  0  0  0  0  0
    3.3310   -2.7130    5.0770 H   0  0  0  0  0  0  0  0  0  0  0  0
    0.9910   -2.9420    4.3020 H   0  0  0  0  0  0  0  0  0  0  0  0
    2.3530   -4.2140    2.4640 H   0  0  0  0  0  0  0  0  0  0  0  0
    3.5890   -3.1900    3.1190 H   0  0  0  0  0  0  0  0  0  0  0  0
   -1.2090    3.3490    4.5740 N   0  0  0  0  0  0  0  0  0  0  0  0
   -0.4200    2.9130    3.4870 C   0  0  0  0  0  0  0  0  0  0  0  0
    0.8030    3.2730    3.4430 N   0  0  0  0  0  0  0  0  0  0  0  0
   -1.0130    2.1080    2.4760 N   0  0  0  0  0  0  0  0  0  0  0  0
   -0.4100    2.0620    1.1770 C   0  0  0  0  0  0  0  0  0  0  0  0
   -1.2200    1.2730    0.2100 C   0  0  0  0  0  0  0  0  0  0  0  0
   -1.5640   -0.1230    0.4460 C   0  0  0  0  0  0  0  0  0  0  0  0
   -0.5450   -1.1730    0.6030 C   0  0  2  0  0  0  0  0  0  0  0  0
    0.3460   -1.1180    1.7150 N   0  0  0  0  0  0  0  0  0  0  0  0
    0.2710   -1.3050   -0.6820 C   0  0  0  0  0  0  0  0  0  0  0  0
    1.5200   -1.3350   -0.6690 O   0  0  0  0  0  0  0  0  0  0  0  0
   -1.4440    2.7360    5.3690 H   0  0  0  0  0  0  0  0  0  0  0  0
   -1.5880    4.3400    4.6070 H   0  0  0  0  0  0  0  0  0  0  0  0
    1.5200    3.0570    2.7390 H   0  0  0  0  0  0  0  0  0  0  0  0
   -1.8590    1.5660    2.6950 H   0  0  0  0  0  0  0  0  0  0  0  0
   -0.4730    3.1540    0.7860 H   0  0  0  0  0  0  0  0  0  0  0  0
    0.6430    1.7770    1.1540 H   0  0  0  0  0  0  0  0  0  0  0  0
   -0.8360    1.4410   -0.8500 H   0  0  0  0  0  0  0  0  0  0  0  0
   -2.2190    1.8430    0.1460 H   0  0  0  0  0  0  0  0  0  0  0  0
   -2.2290   -0.4530   -0.4190 H   0  0  0  0  0  0  0  0  0  0  0  0
   -2.2860   -0.1660    1.3270 H   0  0  0  0  0  0  0  0  0  0  0  0
   -1.0710   -2.1650    0.6450 H   0  0  0  0  0  0  0  0  0  0  0  0
    0.7160   -0.2460    2.0980 H   0  0  0  0  0  0  0  0  0  0  0  0
   -3.5750   -3.1080   -4.9100 N   0  0  0  0  0  0  0  0  0  0  0  0
   -2.1860   -2.6930   -4.7990 C   0  0  0  0  0  0  0  0  0  0  0  0
   -1.8450   -1.7710   -5.5440 O   0  0  0  0  0  0  0  0  0  0  0  0
   -1.3160   -3.3610   -3.8560 C   0  0  0  0  0  0  0  0  0  0  0  0
    0.0820   -2.9260   -3.6880 C   0  0  0  0  0  0  0  0  0  0  0  0
    0.3260   -1.5250   -3.2120 C   0  0  2  0  0  0  0  0  0  0  0  0
   -0.3560   -1.4000   -1.9390 N   0  0  0  0  0  0  0  0  0  0  0  0
    0.1290   -0.4470   -4.1490 C   0  0  0  0  0  0  0  0  0  0  0  0
    0.7710   -0.4440   -5.2310 O   0  0  0  0  0  0  0  0  0  0  0  0
   -0.7390    0.5880   -3.9050 O   0  0  0  0  0  0  0  0  0  0  0  0
   -3.8340   -3.7980   -5.6450 H   0  0  0  0  0  0  0  0  0  0  0  0
   -4.3210   -2.7490   -4.2910 H   0  0  0  0  0  0  0  0  0  0  0  0
   -1.8590   -3.4280   -2.8620 H   0  0  0  0  0  0  0  0  0  0  0  0
   -1.2740   -4.4480   -4.1760 H   0  0  0  0  0  0  0  0  0  0  0  0
    0.5600   -3.6760   -2.9810 H   0  0  0  0  0  0  0  0  0  0  0  0
    0.6160   -3.1290   -4.6640 H   0  0  0  0  0  0  0  0  0  0  0  0
    1.4370   -1.5350   -2.8920 H   0  0  0  0  0  0  0  0  0  0  0  0
   -1.4010   -1.3850   -2.0090 H   0  0  0  0  0  0  0  0  0  0  0  0
  1  9  1  0  0  0  0
  2 11  1  6  0  0  0
  2  1  1  0  0  0  0
  2  3  1  0  0  0  0
  4  2  1  0  0  0  0
  4 13  1  1  0  0  0
  5  4  1  0  0  0  0
  6  4  1  0  0  0  0
  7  6  2  0  0  0  0
  8  1  1  0  0  0  0
 10  1  1  0  0  0  0
 12  3  1  0  0  0  0
 14  5  1  0  0  0  0
 15  5  1  0  0  0  0
 16 28  1  0  0  0  0
 16 27  1  0  0  0  0
 17 16  1  0  0  0  0
 18 17  2  0  0  0  0
 19 30  1  0  0  0  0
 19 17  1  0  0  0  0
 20 19  1  0  0  0  0
 21 22  1  0  0  0  0
 21 20  1  0  0  0  0
 22 23  1  0  0  0  0
 22 36  1  0  0  0  0
 23 37  1  1  0  0  0
 23 24  1  0  0  0  0
 24 38  1  0  0  0  0
 24  6  1  0  0  0  0
 25 26  2  0  0  0  0
 25 23  1  0  0  0  0
 29 18  1  0  0  0  0
 31 20  1  0  0  0  0
 32 20  1  0  0  0  0
 33 21  1  0  0  0  0
 34 21  1  0  0  0  0
 35 22  1  0  0  0  0
 39 40  1  0  0  0  0
 39 50  1  0  0  0  0
 40 42  1  0  0  0  0
 41 40  2  0  0  0  0
 42 43  1  0  0  0  0
 42 51  1  0  0  0  0
 43 44  1  0  0  0  0
 43 53  1  0  0  0  0
 44 55  1  1  0  0  0
 44 45  1  0  0  0  0
 45 25  1  0  0  0  0
 46 48  1  0  0  0  0
 46 44  1  0  0  0  0
 47 46  2  0  0  0  0
 49 39  1  0  0  0  0
 52 42  1  0  0  0  0
 54 43  1  0  0  0  0
 56 45  1  0  0  0  0
M  END
$$$$
