TRY.pdb
 OpenBabel07022419113D

 60 60  0  0  1  0  0  0  0  0999 V2000
   -0.9610   -2.8290    3.6020 C   0  0  0  0  0  0  0  0  0  0  0  0
    0.3880   -2.1480    3.7310 C   0  0  1  0  0  0  0  0  0  0  0  0
    1.3080   -2.5990    2.7970 O   0  0  0  0  0  0  0  0  0  0  0  0
    0.2790   -0.6720    3.8590 C   0  0  2  0  0  0  0  0  0  0  0  0
   -0.7180   -0.4150    4.8980 N   0  0  0  0  0  0  0  0  0  0  0  0
   -0.0760    0.0730    2.6430 C   0  0  0  0  0  0  0  0  0  0  0  0
   -1.1710    0.7510    2.7010 O   0  0  0  0  0  0  0  0  0  0  0  0
   -1.6550   -2.2670    2.9460 H   0  0  0  0  0  0  0  0  0  0  0  0
   -0.8440   -3.8480    3.1810 H   0  0  0  0  0  0  0  0  0  0  0  0
   -1.4620   -2.8640    4.6070 H   0  0  0  0  0  0  0  0  0  0  0  0
    0.7860   -2.5070    4.7290 H   0  0  0  0  0  0  0  0  0  0  0  0
    1.7060   -3.4730    3.0380 H   0  0  0  0  0  0  0  0  0  0  0  0
    1.2770   -0.2850    4.1940 H   0  0  0  0  0  0  0  0  0  0  0  0
   -1.3580    0.3550    4.6080 H   0  0  0  0  0  0  0  0  0  0  0  0
   -0.2270   -0.1120    5.7830 H   0  0  0  0  0  0  0  0  0  0  0  0
    4.8850    1.2220   -0.8550 N   0  0  0  0  0  0  0  0  0  0  0  0
    3.6620    1.0890   -1.5990 C   0  0  0  0  0  0  0  0  0  0  0  0
    3.0450   -0.0380   -1.6820 N   0  0  0  0  0  0  0  0  0  0  0  0
    3.0880    2.1800   -2.2650 N   0  0  0  0  0  0  0  0  0  0  0  0
    1.6570    2.4660   -2.3190 C   0  0  0  0  0  0  0  0  0  0  0  0
    1.2270    2.8570   -0.9550 C   0  0  0  0  0  0  0  0  0  0  0  0
    1.2880    1.9270    0.1620 C   0  0  0  0  0  0  0  0  0  0  0  0
    0.3430    0.8240    0.2920 C   0  0  2  0  0  0  0  0  0  0  0  0
    0.7140    0.0570    1.4990 N   0  0  0  0  0  0  0  0  0  0  0  0
   -0.0830   -0.0900   -0.7290 C   0  0  0  0  0  0  0  0  0  0  0  0
   -0.6000    0.2770   -1.8300 O   0  0  0  0  0  0  0  0  0  0  0  0
    5.6230    1.8530   -1.1970 H   0  0  0  0  0  0  0  0  0  0  0  0
    4.9570    0.6580    0.0100 H   0  0  0  0  0  0  0  0  0  0  0  0
    3.4590   -0.8540   -1.1940 H   0  0  0  0  0  0  0  0  0  0  0  0
    3.7450    2.8390   -2.7570 H   0  0  0  0  0  0  0  0  0  0  0  0
    1.1140    1.6870   -2.8100 H   0  0  0  0  0  0  0  0  0  0  0  0
    1.5790    3.4260   -2.9480 H   0  0  0  0  0  0  0  0  0  0  0  0
    0.1670    3.3160   -1.0400 H   0  0  0  0  0  0  0  0  0  0  0  0
    1.8200    3.8260   -0.7320 H   0  0  0  0  0  0  0  0  0  0  0  0
    2.3590    1.6090    0.4030 H   0  0  0  0  0  0  0  0  0  0  0  0
    1.0930    2.5920    1.1080 H   0  0  0  0  0  0  0  0  0  0  0  0
   -0.6710    1.3310    0.6510 H   0  0  0  0  0  0  0  0  0  0  0  0
    1.5880   -0.4840    1.4540 H   0  0  0  0  0  0  0  0  0  0  0  0
   -5.3930   -2.6070    2.3510 O   0  0  0  0  0  0  0  0  0  0  0  0
   -4.4990   -2.4960    1.2770 C   0  0  0  0  0  0  0  0  0  0  0  0
   -4.0730   -1.2910    0.8090 C   0  0  0  0  0  0  0  0  0  0  0  0
   -3.1820   -1.1990   -0.2610 C   0  0  0  0  0  0  0  0  0  0  0  0
   -2.7070   -2.3060   -0.8730 C   0  0  0  0  0  0  0  0  0  0  0  0
   -1.7470   -2.3300   -1.9890 C   0  0  0  0  0  0  0  0  0  0  0  0
   -0.3500   -2.5400   -1.4160 C   0  0  2  0  0  0  0  0  0  0  0  0
    0.0440   -1.5020   -0.5590 N   0  0  0  0  0  0  0  0  0  0  0  0
    0.5890   -3.1280   -2.3400 C   0  0  0  0  0  0  0  0  0  0  0  0
    0.1730   -4.0310   -3.1150 O   0  0  0  0  0  0  0  0  0  0  0  0
   -3.1620   -3.5370   -0.3710 C   0  0  0  0  0  0  0  0  0  0  0  0
   -4.0360   -3.6410    0.6760 C   0  0  0  0  0  0  0  0  0  0  0  0
    1.9050   -2.7620   -2.4220 O   0  0  0  0  0  0  0  0  0  0  0  0
   -6.2580   -3.1140    2.1850 H   0  0  0  0  0  0  0  0  0  0  0  0
   -4.4320   -0.3810    1.2750 H   0  0  0  0  0  0  0  0  0  0  0  0
   -2.9070   -0.2070   -0.5820 H   0  0  0  0  0  0  0  0  0  0  0  0
   -1.7770   -1.4570   -2.6290 H   0  0  0  0  0  0  0  0  0  0  0  0
   -1.9280   -3.2450   -2.6400 H   0  0  0  0  0  0  0  0  0  0  0  0
   -0.5950   -3.4330   -0.6730 H   0  0  0  0  0  0  0  0  0  0  0  0
    0.5150   -1.7720    0.3610 H   0  0  0  0  0  0  0  0  0  0  0  0
   -2.8040   -4.4460   -0.8380 H   0  0  0  0  0  0  0  0  0  0  0  0
   -4.3750   -4.6090    1.0480 H   0  0  0  0  0  0  0  0  0  0  0  0
  1  2  1  0  0  0  0
  1 10  1  0  0  0  0
  2  4  1  0  0  0  0
  2 11  1  1  0  0  0
  3 12  1  0  0  0  0
  3  2  1  0  0  0  0
  4 13  1  1  0  0  0
  4  5  1  0  0  0  0
  5 15  1  0  0  0  0
  6  7  2  0  0  0  0
  6  4  1  0  0  0  0
  8  1  1  0  0  0  0
  9  1  1  0  0  0  0
 14  5  1  0  0  0  0
 16 28  1  0  0  0  0
 17 16  1  0  0  0  0
 18 17  2  0  0  0  0
 18 29  1  0  0  0  0
 19 17  1  0  0  0  0
 20 19  1  0  0  0  0
 20 21  1  0  0  0  0
 21 34  1  0  0  0  0
 21 22  1  0  0  0  0
 22 23  1  0  0  0  0
 22 35  1  0  0  0  0
 22 36  1  0  0  0  0
 23 37  1  1  0  0  0
 23 24  1  0  0  0  0
 24  6  1  0  0  0  0
 25 46  1  0  0  0  0
 25 23  1  0  0  0  0
 26 25  2  0  0  0  0
 27 16  1  0  0  0  0
 30 19  1  0  0  0  0
 31 20  1  0  0  0  0
 32 20  1  0  0  0  0
 33 21  1  0  0  0  0
 38 24  1  0  0  0  0
 40 39  1  0  0  0  0
 41 53  1  0  0  0  0
 41 40  1  0  0  0  0
 42 41  2  0  0  0  0
 43 49  2  0  0  0  0
 43 42  1  0  0  0  0
 44 45  1  0  0  0  0
 44 43  1  0  0  0  0
 45 57  1  1  0  0  0
 45 46  1  0  0  0  0
 46 58  1  0  0  0  0
 47 45  1  0  0  0  0
 48 47  2  0  0  0  0
 49 50  1  0  0  0  0
 50 60  1  0  0  0  0
 50 40  2  0  0  0  0
 51 47  1  0  0  0  0
 52 39  1  0  0  0  0
 54 42  1  0  0  0  0
 55 44  1  0  0  0  0
 56 44  1  0  0  0  0
 59 49  1  0  0  0  0
M  END
$$$$
