TSF.pdb
 OpenBabel07022419143D

 47 47  0  0  1  0  0  0  0  0999 V2000
    3.2820   -3.9890   -0.3270 C   0  0  0  0  0  0  0  0  0  0  0  0
    4.2790   -3.2390    0.5030 C   0  0  1  0  0  0  0  0  0  0  0  0
    5.5120   -3.9120    0.3250 O   0  0  0  0  0  0  0  0  0  0  0  0
    4.5190   -1.8140    0.0250 C   0  0  2  0  0  0  0  0  0  0  0  0
    5.6050   -1.3190    0.8920 N   0  0  0  0  0  0  0  0  0  0  0  0
    3.3470   -0.9440    0.1970 C   0  0  0  0  0  0  0  0  0  0  0  0
    3.3980   -0.0280    1.0620 O   0  0  0  0  0  0  0  0  0  0  0  0
    3.3280   -3.7600   -1.3930 H   0  0  0  0  0  0  0  0  0  0  0  0
    3.4330   -5.0890   -0.1740 H   0  0  0  0  0  0  0  0  0  0  0  0
    2.2670   -3.7470    0.0500 H   0  0  0  0  0  0  0  0  0  0  0  0
    4.0500   -3.2980    1.5820 H   0  0  0  0  0  0  0  0  0  0  0  0
    5.5360   -4.7100    0.9280 H   0  0  0  0  0  0  0  0  0  0  0  0
    4.9140   -1.8560   -0.9900 H   0  0  0  0  0  0  0  0  0  0  0  0
    6.1450   -0.5560    0.4120 H   0  0  0  0  0  0  0  0  0  0  0  0
    5.1540   -0.9260    1.7280 H   0  0  0  0  0  0  0  0  0  0  0  0
   -0.2730    1.5820   -1.3520 O   0  0  0  0  0  0  0  0  0  0  0  0
    0.7890    0.7130   -1.5410 C   0  0  0  0  0  0  0  0  0  0  0  0
    1.0200   -0.1390   -0.3010 C   0  0  2  0  0  0  0  0  0  0  0  0
    2.1480   -1.0430   -0.5300 N   0  0  0  0  0  0  0  0  0  0  0  0
   -0.1880   -0.9050    0.1010 C   0  0  0  0  0  0  0  0  0  0  0  0
   -0.1500   -2.1600    0.1770 O   0  0  0  0  0  0  0  0  0  0  0  0
   -0.2630    2.2760   -2.0520 H   0  0  0  0  0  0  0  0  0  0  0  0
    0.5820    0.0720   -2.4330 H   0  0  0  0  0  0  0  0  0  0  0  0
    1.6920    1.3250   -1.6860 H   0  0  0  0  0  0  0  0  0  0  0  0
    1.3350    0.5540    0.5020 H   0  0  0  0  0  0  0  0  0  0  0  0
    2.0360   -1.7670   -1.2590 H   0  0  0  0  0  0  0  0  0  0  0  0
   -1.4310   -0.3070    0.4180 N   0  0  0  0  0  0  0  0  0  0  0  0
   -2.5670   -1.0810    0.7980 C   0  0  1  0  0  0  0  0  0  0  0  0
   -2.8520   -0.7730    2.2540 C   0  0  0  0  0  0  0  0  0  0  0  0
   -3.1410    0.6470    2.4960 C   0  0  0  0  0  0  0  0  0  0  0  0
   -2.1620    1.5520    2.7950 C   0  0  0  0  0  0  0  0  0  0  0  0
   -2.4110    2.8830    3.0250 C   0  0  0  0  0  0  0  0  0  0  0  0
   -3.7180    3.3190    2.9500 C   0  0  0  0  0  0  0  0  0  0  0  0
   -4.7270    2.4120    2.6470 C   0  0  0  0  0  0  0  0  0  0  0  0
   -4.4340    1.0890    2.4240 C   0  0  0  0  0  0  0  0  0  0  0  0
   -3.7330   -0.9310   -0.0620 C   0  0  0  0  0  0  0  0  0  0  0  0
   -3.7740   -0.1860   -1.0710 O   0  0  0  0  0  0  0  0  0  0  0  0
   -4.8890   -1.6410    0.2210 O   0  0  0  0  0  0  0  0  0  0  0  0
   -1.5440    0.7290    0.3820 H   0  0  0  0  0  0  0  0  0  0  0  0
   -2.2640   -2.1560    0.7840 H   0  0  0  0  0  0  0  0  0  0  0  0
   -3.7430   -1.3790    2.5750 H   0  0  0  0  0  0  0  0  0  0  0  0
   -2.0110   -1.1180    2.8790 H   0  0  0  0  0  0  0  0  0  0  0  0
   -1.1120    1.2550    2.8660 H   0  0  0  0  0  0  0  0  0  0  0  0
   -1.6450    3.6100    3.2620 H   0  0  0  0  0  0  0  0  0  0  0  0
   -4.0120    4.3500    3.1160 H   0  0  0  0  0  0  0  0  0  0  0  0
   -5.7590    2.7570    2.5880 H   0  0  0  0  0  0  0  0  0  0  0  0
   -5.2670    0.4190    2.1900 H   0  0  0  0  0  0  0  0  0  0  0  0
  1  9  1  0  0  0  0
  1 10  1  0  0  0  0
  1  2  1  0  0  0  0
  2 11  1  1  0  0  0
  3  2  1  0  0  0  0
  3 12  1  0  0  0  0
  4 13  1  6  0  0  0
  4  6  1  0  0  0  0
  4  2  1  0  0  0  0
  4  5  1  0  0  0  0
  5 15  1  0  0  0  0
  6  7  2  0  0  0  0
  8  1  1  0  0  0  0
 14  5  1  0  0  0  0
 17 16  1  0  0  0  0
 17 18  1  0  0  0  0
 18 20  1  0  0  0  0
 18 25  1  1  0  0  0
 19 18  1  0  0  0  0
 19  6  1  0  0  0  0
 20 21  2  0  0  0  0
 20 27  1  0  0  0  0
 22 16  1  0  0  0  0
 23 17  1  0  0  0  0
 24 17  1  0  0  0  0
 26 19  1  0  0  0  0
 27 28  1  0  0  0  0
 28 40  1  6  0  0  0
 28 29  1  0  0  0  0
 29 30  1  0  0  0  0
 29 41  1  0  0  0  0
 29 42  1  0  0  0  0
 30 31  1  0  0  0  0
 31 43  1  0  0  0  0
 31 32  2  0  0  0  0
 32 44  1  0  0  0  0
 33 32  1  0  0  0  0
 33 45  1  0  0  0  0
 34 33  2  0  0  0  0
 35 30  2  0  0  0  0
 35 34  1  0  0  0  0
 36 38  1  0  0  0  0
 36 28  1  0  0  0  0
 37 36  2  0  0  0  0
 39 27  1  0  0  0  0
 46 34  1  0  0  0  0
 47 35  1  0  0  0  0
M  END
$$$$
