TSH.pdb
 OpenBabel07022419143D

 44 44  0  0  1  0  0  0  0  0999 V2000
   -0.9230   -4.7380    0.9910 C   0  0  0  0  0  0  0  0  0  0  0  0
   -0.0540   -3.5160    0.7480 C   0  0  1  0  0  0  0  0  0  0  0  0
    1.1470   -3.6550    1.4560 O   0  0  0  0  0  0  0  0  0  0  0  0
    0.2160   -3.4230   -0.7480 C   0  0  2  0  0  0  0  0  0  0  0  0
    0.8780   -4.6250   -1.1540 N   0  0  0  0  0  0  0  0  0  0  0  0
    0.9780   -2.2220   -1.1030 C   0  0  0  0  0  0  0  0  0  0  0  0
    2.0940   -2.2370   -1.7000 O   0  0  0  0  0  0  0  0  0  0  0  0
   -0.5740   -5.3230    1.8620 H   0  0  0  0  0  0  0  0  0  0  0  0
   -0.9520   -5.3770    0.0780 H   0  0  0  0  0  0  0  0  0  0  0  0
   -1.9800   -4.4130    1.1700 H   0  0  0  0  0  0  0  0  0  0  0  0
   -0.6080   -2.6130    1.0750 H   0  0  0  0  0  0  0  0  0  0  0  0
    1.5430   -4.5140    1.1340 H   0  0  0  0  0  0  0  0  0  0  0  0
   -0.8040   -3.4370   -1.2320 H   0  0  0  0  0  0  0  0  0  0  0  0
    0.4140   -5.1040   -1.9560 H   0  0  0  0  0  0  0  0  0  0  0  0
    1.9040   -4.4880   -1.3210 H   0  0  0  0  0  0  0  0  0  0  0  0
   -0.0290    0.6220   -3.1590 O   0  0  0  0  0  0  0  0  0  0  0  0
    0.3760    1.2100   -1.9630 C   0  0  0  0  0  0  0  0  0  0  0  0
    1.2090    0.2700   -1.1180 C   0  0  2  0  0  0  0  0  0  0  0  0
    0.4640   -0.9360   -0.7730 N   0  0  0  0  0  0  0  0  0  0  0  0
    1.5190    0.9820    0.1520 C   0  0  0  0  0  0  0  0  0  0  0  0
    2.1670    2.0720    0.1310 O   0  0  0  0  0  0  0  0  0  0  0  0
   -0.8400    0.1030   -3.0340 H   0  0  0  0  0  0  0  0  0  0  0  0
   -0.5500    1.5280   -1.4410 H   0  0  0  0  0  0  0  0  0  0  0  0
    0.9490    2.1350   -2.1650 H   0  0  0  0  0  0  0  0  0  0  0  0
    2.1470    0.0480   -1.6290 H   0  0  0  0  0  0  0  0  0  0  0  0
   -0.4530   -0.8650   -0.2790 H   0  0  0  0  0  0  0  0  0  0  0  0
    1.1160    0.4890    1.4230 N   0  0  0  0  0  0  0  0  0  0  0  0
    1.4190    1.1830    2.6650 C   0  0  1  0  0  0  0  0  0  0  0  0
    0.1140    1.4620    3.3870 C   0  0  0  0  0  0  0  0  0  0  0  0
   -0.8090    2.2970    2.6040 C   0  0  0  0  0  0  0  0  0  0  0  0
   -1.7800    1.8810    1.7080 C   0  0  0  0  0  0  0  0  0  0  0  0
   -2.4010    2.9640    1.2110 N   0  0  0  0  0  0  0  0  0  0  0  0
   -1.8480    4.0680    1.7700 C   0  0  0  0  0  0  0  0  0  0  0  0
   -0.8880    3.6410    2.6090 N   0  0  0  0  0  0  0  0  0  0  0  0
    2.2150    0.2770    3.5270 C   0  0  0  0  0  0  0  0  0  0  0  0
    2.5210   -0.8870    3.1400 O   0  0  0  0  0  0  0  0  0  0  0  0
    2.6660    0.6410    4.7860 O   0  0  0  0  0  0  0  0  0  0  0  0
    0.5860   -0.4060    1.4280 H   0  0  0  0  0  0  0  0  0  0  0  0
    1.9850    2.1110    2.4710 H   0  0  0  0  0  0  0  0  0  0  0  0
    0.3930    2.0250    4.3170 H   0  0  0  0  0  0  0  0  0  0  0  0
   -0.3870    0.5420    3.7130 H   0  0  0  0  0  0  0  0  0  0  0  0
   -1.9810    0.8450    1.4690 H   0  0  0  0  0  0  0  0  0  0  0  0
   -3.1850    2.9990    0.5080 H   0  0  0  0  0  0  0  0  0  0  0  0
   -2.1640    5.0750    1.5430 H   0  0  0  0  0  0  0  0  0  0  0  0
  1 10  1  0  0  0  0
  1  8  1  0  0  0  0
  2  1  1  0  0  0  0
  2 11  1  1  0  0  0
  2  3  1  0  0  0  0
  4 13  1  6  0  0  0
  4  2  1  0  0  0  0
  5  4  1  0  0  0  0
  6 19  1  0  0  0  0
  6  4  1  0  0  0  0
  7  6  2  0  0  0  0
  9  1  1  0  0  0  0
 12  3  1  0  0  0  0
 14  5  1  0  0  0  0
 15  5  1  0  0  0  0
 16 22  1  0  0  0  0
 16 17  1  0  0  0  0
 17 23  1  0  0  0  0
 17 18  1  0  0  0  0
 18 25  1  6  0  0  0
 18 19  1  0  0  0  0
 18 20  1  0  0  0  0
 19 26  1  0  0  0  0
 20 27  1  0  0  0  0
 21 20  2  0  0  0  0
 24 17  1  0  0  0  0
 27 38  1  0  0  0  0
 27 28  1  0  0  0  0
 28 39  1  6  0  0  0
 28 29  1  0  0  0  0
 28 35  1  0  0  0  0
 29 41  1  0  0  0  0
 29 40  1  0  0  0  0
 30 34  1  0  0  0  0
 30 29  1  0  0  0  0
 31 30  2  0  0  0  0
 32 31  1  0  0  0  0
 32 33  1  0  0  0  0
 33 34  2  0  0  0  0
 35 37  1  0  0  0  0
 36 35  2  0  0  0  0
 42 31  1  0  0  0  0
 43 32  1  0  0  0  0
 44 33  1  0  0  0  0
M  END
$$$$
