TSK.pdb
 OpenBabel07022419143D

 48 47  0  0  1  0  0  0  0  0999 V2000
    5.0110   -4.8630    1.2850 C   0  0  0  0  0  0  0  0  0  0  0  0
    4.8040   -3.3950    0.9740 C   0  0  1  0  0  0  0  0  0  0  0  0
    4.9010   -3.1680   -0.3920 O   0  0  0  0  0  0  0  0  0  0  0  0
    3.4230   -2.9730    1.4500 C   0  0  2  0  0  0  0  0  0  0  0  0
    2.4070   -3.7360    0.7630 N   0  0  0  0  0  0  0  0  0  0  0  0
    3.2660   -1.5060    1.1940 C   0  0  0  0  0  0  0  0  0  0  0  0
    4.0580   -0.6770    1.7080 O   0  0  0  0  0  0  0  0  0  0  0  0
    4.6150   -5.1260    2.2860 H   0  0  0  0  0  0  0  0  0  0  0  0
    6.0890   -5.1270    1.2960 H   0  0  0  0  0  0  0  0  0  0  0  0
    4.4880   -5.4900    0.5480 H   0  0  0  0  0  0  0  0  0  0  0  0
    5.5950   -2.8380    1.4770 H   0  0  0  0  0  0  0  0  0  0  0  0
    5.7200   -3.6300   -0.7430 H   0  0  0  0  0  0  0  0  0  0  0  0
    3.3690   -3.2210    2.5190 H   0  0  0  0  0  0  0  0  0  0  0  0
    1.6370   -4.0370    1.3860 H   0  0  0  0  0  0  0  0  0  0  0  0
    2.7710   -4.4660    0.1400 H   0  0  0  0  0  0  0  0  0  0  0  0
    1.1890   -0.0880   -2.0760 O   0  0  0  0  0  0  0  0  0  0  0  0
    2.1720    0.6310   -1.3900 C   0  0  0  0  0  0  0  0  0  0  0  0
    2.0620    0.4210    0.1100 C   0  0  2  0  0  0  0  0  0  0  0  0
    2.2290   -0.9940    0.3700 N   0  0  0  0  0  0  0  0  0  0  0  0
    0.6670    0.8580    0.4820 C   0  0  0  0  0  0  0  0  0  0  0  0
    0.3000    2.0480    0.3390 O   0  0  0  0  0  0  0  0  0  0  0  0
    0.3180    0.2060   -1.6830 H   0  0  0  0  0  0  0  0  0  0  0  0
    3.1560    0.2700   -1.7770 H   0  0  0  0  0  0  0  0  0  0  0  0
    2.0430    1.7030   -1.6570 H   0  0  0  0  0  0  0  0  0  0  0  0
    2.8040    1.0490    0.6050 H   0  0  0  0  0  0  0  0  0  0  0  0
    1.5640   -1.6490   -0.0660 H   0  0  0  0  0  0  0  0  0  0  0  0
   -0.2790   -0.0580    1.0040 N   0  0  0  0  0  0  0  0  0  0  0  0
   -1.6080    0.4120    1.3450 C   0  0  1  0  0  0  0  0  0  0  0  0
   -2.5620   -0.3160    0.4250 C   0  0  0  0  0  0  0  0  0  0  0  0
   -4.0000    0.0330    0.6240 C   0  0  0  0  0  0  0  0  0  0  0  0
   -4.2640    1.5020    0.3920 C   0  0  0  0  0  0  0  0  0  0  0  0
   -5.7280    1.8410    0.5940 C   0  0  0  0  0  0  0  0  0  0  0  0
   -5.9380    3.2540    0.3620 N   0  0  0  0  0  0  0  0  0  0  0  0
   -1.8400    0.0950    2.7730 C   0  0  0  0  0  0  0  0  0  0  0  0
   -0.9640   -0.4920    3.4890 O   0  0  0  0  0  0  0  0  0  0  0  0
   -3.0270    0.4200    3.4130 O   0  0  0  0  0  0  0  0  0  0  0  0
   -0.0420   -1.0580    1.1470 H   0  0  0  0  0  0  0  0  0  0  0  0
   -1.7170    1.4980    1.1380 H   0  0  0  0  0  0  0  0  0  0  0  0
   -2.3630   -1.3980    0.4390 H   0  0  0  0  0  0  0  0  0  0  0  0
   -2.2950    0.0400   -0.6120 H   0  0  0  0  0  0  0  0  0  0  0  0
   -4.3730   -0.2800    1.6390 H   0  0  0  0  0  0  0  0  0  0  0  0
   -4.5860   -0.5490   -0.1280 H   0  0  0  0  0  0  0  0  0  0  0  0
   -4.0610    1.6830   -0.7000 H   0  0  0  0  0  0  0  0  0  0  0  0
   -3.6180    2.1640    0.9770 H   0  0  0  0  0  0  0  0  0  0  0  0
   -6.0820    1.6180    1.6120 H   0  0  0  0  0  0  0  0  0  0  0  0
   -6.3550    1.2790   -0.1170 H   0  0  0  0  0  0  0  0  0  0  0  0
   -6.3180    3.4510   -0.5970 H   0  0  0  0  0  0  0  0  0  0  0  0
   -5.0430    3.7590    0.5090 H   0  0  0  0  0  0  0  0  0  0  0  0
  1  9  1  0  0  0  0
  1  8  1  0  0  0  0
  2  1  1  0  0  0  0
  2  4  1  0  0  0  0
  2 11  1  1  0  0  0
  3  2  1  0  0  0  0
  4 13  1  1  0  0  0
  5 14  1  0  0  0  0
  5  4  1  0  0  0  0
  6  4  1  0  0  0  0
  6  7  2  0  0  0  0
 10  1  1  0  0  0  0
 12  3  1  0  0  0  0
 15  5  1  0  0  0  0
 16 22  1  0  0  0  0
 16 17  1  0  0  0  0
 17 18  1  0  0  0  0
 18 19  1  0  0  0  0
 18 20  1  0  0  0  0
 18 25  1  1  0  0  0
 19  6  1  0  0  0  0
 20 27  1  0  0  0  0
 21 20  2  0  0  0  0
 23 17  1  0  0  0  0
 24 17  1  0  0  0  0
 26 19  1  0  0  0  0
 27 37  1  0  0  0  0
 27 28  1  0  0  0  0
 28 38  1  6  0  0  0
 28 34  1  0  0  0  0
 29 39  1  0  0  0  0
 29 30  1  0  0  0  0
 29 28  1  0  0  0  0
 30 41  1  0  0  0  0
 31 32  1  0  0  0  0
 31 30  1  0  0  0  0
 31 44  1  0  0  0  0
 32 45  1  0  0  0  0
 33 48  1  0  0  0  0
 33 32  1  0  0  0  0
 34 36  2  0  0  0  0
 34 35  1  0  0  0  0
 40 29  1  0  0  0  0
 42 30  1  0  0  0  0
 43 31  1  0  0  0  0
 46 32  1  0  0  0  0
 47 33  1  0  0  0  0
M  END
$$$$
