TSL.pdb
 OpenBabel07022419143D

 46 45  0  0  1  0  0  0  0  0999 V2000
    0.0100   -5.4940    0.3280 C   0  0  0  0  0  0  0  0  0  0  0  0
    0.2220   -3.9950    0.3850 C   0  0  1  0  0  0  0  0  0  0  0  0
    0.6150   -3.6420    1.6460 O   0  0  0  0  0  0  0  0  0  0  0  0
    1.2100   -3.6360   -0.6910 C   0  0  2  0  0  0  0  0  0  0  0  0
    2.4480   -4.3230   -0.3990 N   0  0  0  0  0  0  0  0  0  0  0  0
    1.4570   -2.2060   -0.8150 C   0  0  0  0  0  0  0  0  0  0  0  0
    2.6270   -1.7750   -0.6660 O   0  0  0  0  0  0  0  0  0  0  0  0
   -0.6570   -5.7880   -0.5030 H   0  0  0  0  0  0  0  0  0  0  0  0
    1.0090   -5.9410    0.1000 H   0  0  0  0  0  0  0  0  0  0  0  0
   -0.3090   -5.8820    1.3030 H   0  0  0  0  0  0  0  0  0  0  0  0
   -0.7820   -3.5350    0.1680 H   0  0  0  0  0  0  0  0  0  0  0  0
   -0.1100   -3.3360    2.2410 H   0  0  0  0  0  0  0  0  0  0  0  0
    0.8240   -4.0610   -1.6420 H   0  0  0  0  0  0  0  0  0  0  0  0
    2.5190   -4.6310    0.5980 H   0  0  0  0  0  0  0  0  0  0  0  0
    3.2700   -3.6970   -0.5600 H   0  0  0  0  0  0  0  0  0  0  0  0
    0.8780    2.0760   -2.5580 O   0  0  0  0  0  0  0  0  0  0  0  0
    0.5030    0.7140   -2.5790 C   0  0  0  0  0  0  0  0  0  0  0  0
    0.8000    0.1580   -1.2040 C   0  0  2  0  0  0  0  0  0  0  0  0
    0.4570   -1.2350   -1.0990 N   0  0  0  0  0  0  0  0  0  0  0  0
    0.1130    0.9490   -0.1420 C   0  0  0  0  0  0  0  0  0  0  0  0
    0.3130    2.1840   -0.1020 O   0  0  0  0  0  0  0  0  0  0  0  0
    0.0500    2.5970   -2.7850 H   0  0  0  0  0  0  0  0  0  0  0  0
    1.1680    0.2440   -3.3300 H   0  0  0  0  0  0  0  0  0  0  0  0
   -0.5520    0.5900   -2.8780 H   0  0  0  0  0  0  0  0  0  0  0  0
    1.8880    0.2770   -1.0320 H   0  0  0  0  0  0  0  0  0  0  0  0
   -0.5140   -1.6030   -1.2220 H   0  0  0  0  0  0  0  0  0  0  0  0
    0.4640    1.1390    4.1150 C   0  0  0  0  0  0  0  0  0  0  0  0
    0.4570    2.1050    2.9040 C   0  0  0  0  0  0  0  0  0  0  0  0
    0.8890    3.4440    3.4730 C   0  0  0  0  0  0  0  0  0  0  0  0
   -0.9190    2.2100    2.3410 C   0  0  0  0  0  0  0  0  0  0  0  0
   -1.4440    0.8720    1.8520 C   0  0  2  0  0  0  0  0  0  0  0  0
   -0.7340    0.2840    0.7750 N   0  0  0  0  0  0  0  0  0  0  0  0
   -2.8880    0.7700    1.7590 C   0  0  0  0  0  0  0  0  0  0  0  0
   -3.6290    1.2490    2.6440 O   0  0  0  0  0  0  0  0  0  0  0  0
   -3.5240    0.1330    0.6760 O   0  0  0  0  0  0  0  0  0  0  0  0
    1.1950    1.4770    4.8500 H   0  0  0  0  0  0  0  0  0  0  0  0
    0.6520    0.1040    3.7600 H   0  0  0  0  0  0  0  0  0  0  0  0
   -0.5640    1.1700    4.5180 H   0  0  0  0  0  0  0  0  0  0  0  0
    1.2360    1.7260    2.2320 H   0  0  0  0  0  0  0  0  0  0  0  0
    0.3800    3.6430    4.4280 H   0  0  0  0  0  0  0  0  0  0  0  0
    1.9910    3.4380    3.6390 H   0  0  0  0  0  0  0  0  0  0  0  0
    0.7000    4.2320    2.7130 H   0  0  0  0  0  0  0  0  0  0  0  0
   -1.5930    2.4790    3.2060 H   0  0  0  0  0  0  0  0  0  0  0  0
   -1.0100    3.0210    1.6250 H   0  0  0  0  0  0  0  0  0  0  0  0
   -1.1280    0.2100    2.7660 H   0  0  0  0  0  0  0  0  0  0  0  0
   -0.8410   -0.7670    0.6350 H   0  0  0  0  0  0  0  0  0  0  0  0
  1  2  1  0  0  0  0
  1 10  1  0  0  0  0
  2 11  1  6  0  0  0
  2  3  1  0  0  0  0
  3 12  1  0  0  0  0
  4 13  1  6  0  0  0
  4  5  1  0  0  0  0
  4  2  1  0  0  0  0
  5 14  1  0  0  0  0
  6  4  1  0  0  0  0
  6  7  2  0  0  0  0
  8  1  1  0  0  0  0
  9  1  1  0  0  0  0
 15  5  1  0  0  0  0
 17 16  1  0  0  0  0
 17 18  1  0  0  0  0
 18 19  1  0  0  0  0
 18 25  1  1  0  0  0
 18 20  1  0  0  0  0
 19  6  1  0  0  0  0
 20 21  2  0  0  0  0
 20 32  1  0  0  0  0
 22 16  1  0  0  0  0
 23 17  1  0  0  0  0
 24 17  1  0  0  0  0
 26 19  1  0  0  0  0
 27 38  1  0  0  0  0
 27 36  1  0  0  0  0
 28 29  1  0  0  0  0
 28 27  1  0  0  0  0
 29 41  1  0  0  0  0
 29 40  1  0  0  0  0
 30 28  1  0  0  0  0
 30 43  1  0  0  0  0
 31 30  1  0  0  0  0
 31 45  1  1  0  0  0
 32 31  1  0  0  0  0
 33 31  1  0  0  0  0
 33 34  1  0  0  0  0
 35 33  2  0  0  0  0
 37 27  1  0  0  0  0
 39 28  1  0  0  0  0
 42 29  1  0  0  0  0
 44 30  1  0  0  0  0
 46 32  1  0  0  0  0
M  END
$$$$
