TSM.pdb
 OpenBabel07022419143D

 44 43  0  0  1  0  0  0  0  0999 V2000
    1.9140   -3.8150   -2.5930 C   0  0  0  0  0  0  0  0  0  0  0  0
    2.6280   -2.4880   -2.7260 C   0  0  1  0  0  0  0  0  0  0  0  0
    2.2980   -1.9610   -3.9540 O   0  0  0  0  0  0  0  0  0  0  0  0
    2.2810   -1.5410   -1.6060 C   0  0  2  0  0  0  0  0  0  0  0  0
    2.6280   -2.0900   -0.3200 N   0  0  0  0  0  0  0  0  0  0  0  0
    0.8870   -1.0920   -1.6370 C   0  0  0  0  0  0  0  0  0  0  0  0
    0.3380   -0.5940   -2.6500 O   0  0  0  0  0  0  0  0  0  0  0  0
    2.5520   -4.4630   -1.9580 H   0  0  0  0  0  0  0  0  0  0  0  0
    0.9270   -3.7130   -2.0960 H   0  0  0  0  0  0  0  0  0  0  0  0
    1.8320   -4.3140   -3.5810 H   0  0  0  0  0  0  0  0  0  0  0  0
    3.7170   -2.6710   -2.6820 H   0  0  0  0  0  0  0  0  0  0  0  0
    1.8520   -2.6320   -4.5440 H   0  0  0  0  0  0  0  0  0  0  0  0
    2.9460   -0.6410   -1.7470 H   0  0  0  0  0  0  0  0  0  0  0  0
    3.6750   -2.2110   -0.2430 H   0  0  0  0  0  0  0  0  0  0  0  0
    2.1900   -3.0260   -0.1580 H   0  0  0  0  0  0  0  0  0  0  0  0
   -3.4970   -1.4440   -0.0230 O   0  0  0  0  0  0  0  0  0  0  0  0
   -2.2020   -1.9570   -0.0680 C   0  0  0  0  0  0  0  0  0  0  0  0
   -1.2680   -0.8160   -0.3890 C   0  0  2  0  0  0  0  0  0  0  0  0
    0.1040   -1.2230   -0.4600 N   0  0  0  0  0  0  0  0  0  0  0  0
   -1.5130    0.2970    0.5530 C   0  0  0  0  0  0  0  0  0  0  0  0
   -2.6980    0.6960    0.6680 O   0  0  0  0  0  0  0  0  0  0  0  0
   -4.1020   -1.8420   -0.6990 H   0  0  0  0  0  0  0  0  0  0  0  0
   -2.1640   -2.7340   -0.8380 H   0  0  0  0  0  0  0  0  0  0  0  0
   -1.9740   -2.3770    0.9500 H   0  0  0  0  0  0  0  0  0  0  0  0
   -1.5810   -0.4200   -1.3970 H   0  0  0  0  0  0  0  0  0  0  0  0
    0.5270   -1.6360    0.4150 H   0  0  0  0  0  0  0  0  0  0  0  0
    0.0710   -0.5170    6.0690 C   0  0  0  0  0  0  0  0  0  0  0  0
    1.0070    1.0030    5.7410 S   0  0  0  0  0  0  0  0  0  0  0  0
    0.8540    1.3660    3.9620 C   0  0  0  0  0  0  0  0  0  0  0  0
   -0.5760    1.6990    3.6650 C   0  0  0  0  0  0  0  0  0  0  0  0
   -0.8460    2.0210    2.2250 C   0  0  2  0  0  0  0  0  0  0  0  0
   -0.5280    0.9450    1.3310 N   0  0  0  0  0  0  0  0  0  0  0  0
   -0.2370    3.3130    1.8030 C   0  0  0  0  0  0  0  0  0  0  0  0
    0.4800    3.4340    0.7700 O   0  0  0  0  0  0  0  0  0  0  0  0
   -0.4200    4.4840    2.5270 O   0  0  0  0  0  0  0  0  0  0  0  0
    0.2550   -1.2380    5.2350 H   0  0  0  0  0  0  0  0  0  0  0  0
   -1.0110   -0.2830    6.0460 H   0  0  0  0  0  0  0  0  0  0  0  0
    0.3730   -0.9900    7.0410 H   0  0  0  0  0  0  0  0  0  0  0  0
    1.1410    0.4200    3.4430 H   0  0  0  0  0  0  0  0  0  0  0  0
    1.5520    2.1920    3.7490 H   0  0  0  0  0  0  0  0  0  0  0  0
   -0.9020    2.5300    4.3210 H   0  0  0  0  0  0  0  0  0  0  0  0
   -1.2030    0.8200    3.9270 H   0  0  0  0  0  0  0  0  0  0  0  0
   -1.9490    2.1860    2.1540 H   0  0  0  0  0  0  0  0  0  0  0  0
    0.4640    0.5780    1.2040 H   0  0  0  0  0  0  0  0  0  0  0  0
  1  9  1  0  0  0  0
  1  8  1  0  0  0  0
  2 11  1  1  0  0  0
  2  1  1  0  0  0  0
  2  4  1  0  0  0  0
  3  2  1  0  0  0  0
  4 13  1  6  0  0  0
  4  5  1  0  0  0  0
  5 14  1  0  0  0  0
  5 15  1  0  0  0  0
  6  4  1  0  0  0  0
  6 19  1  0  0  0  0
  7  6  2  0  0  0  0
 10  1  1  0  0  0  0
 12  3  1  0  0  0  0
 17 16  1  0  0  0  0
 17 24  1  0  0  0  0
 18 25  1  6  0  0  0
 18 17  1  0  0  0  0
 18 20  1  0  0  0  0
 19 18  1  0  0  0  0
 19 26  1  0  0  0  0
 20 21  2  0  0  0  0
 20 32  1  0  0  0  0
 22 16  1  0  0  0  0
 23 17  1  0  0  0  0
 27 38  1  0  0  0  0
 28 27  1  0  0  0  0
 29 28  1  0  0  0  0
 30 42  1  0  0  0  0
 30 29  1  0  0  0  0
 30 41  1  0  0  0  0
 31 43  1  6  0  0  0
 31 30  1  0  0  0  0
 32 31  1  0  0  0  0
 33 31  1  0  0  0  0
 33 35  1  0  0  0  0
 34 33  2  0  0  0  0
 36 27  1  0  0  0  0
 37 27  1  0  0  0  0
 39 29  1  0  0  0  0
 40 29  1  0  0  0  0
 44 32  1  0  0  0  0
M  END
$$$$
