TSP.pdb
 OpenBabel07022419143D

 41 41  0  0  1  0  0  0  0  0999 V2000
   -1.0290   -4.6750    0.4810 C   0  0  0  0  0  0  0  0  0  0  0  0
    0.1050   -4.4200   -0.4840 C   0  0  1  0  0  0  0  0  0  0  0  0
   -0.3530   -4.5040   -1.7810 O   0  0  0  0  0  0  0  0  0  0  0  0
    0.8010   -3.1130   -0.2130 C   0  0  2  0  0  0  0  0  0  0  0  0
    1.2650   -3.0560    1.1430 N   0  0  0  0  0  0  0  0  0  0  0  0
   -0.0700   -1.9510   -0.5270 C   0  0  0  0  0  0  0  0  0  0  0  0
   -0.5730   -1.8200   -1.6560 O   0  0  0  0  0  0  0  0  0  0  0  0
   -1.6660   -3.7810    0.6110 H   0  0  0  0  0  0  0  0  0  0  0  0
   -1.6390   -5.4960    0.0540 H   0  0  0  0  0  0  0  0  0  0  0  0
   -0.6610   -5.0430    1.4720 H   0  0  0  0  0  0  0  0  0  0  0  0
    0.8420   -5.2370   -0.3390 H   0  0  0  0  0  0  0  0  0  0  0  0
   -1.2310   -4.9240   -1.8120 H   0  0  0  0  0  0  0  0  0  0  0  0
    1.6850   -3.0730   -0.8930 H   0  0  0  0  0  0  0  0  0  0  0  0
    2.1120   -3.6220    1.3140 H   0  0  0  0  0  0  0  0  0  0  0  0
    0.4890   -3.3760    1.7610 H   0  0  0  0  0  0  0  0  0  0  0  0
   -1.9990    0.2290    2.4980 O   0  0  0  0  0  0  0  0  0  0  0  0
   -2.3900    0.2290    1.1600 C   0  0  0  0  0  0  0  0  0  0  0  0
   -1.1530    0.1750    0.2780 C   0  0  2  0  0  0  0  0  0  0  0  0
   -0.3430   -0.9620    0.4710 N   0  0  0  0  0  0  0  0  0  0  0  0
   -0.5170    1.4980    0.4050 C   0  0  0  0  0  0  0  0  0  0  0  0
   -1.3370    2.4640    0.2290 O   0  0  0  0  0  0  0  0  0  0  0  0
   -2.6950    0.5310    3.1100 H   0  0  0  0  0  0  0  0  0  0  0  0
   -3.1360   -0.5190    0.9120 H   0  0  0  0  0  0  0  0  0  0  0  0
   -2.8540    1.2280    0.9850 H   0  0  0  0  0  0  0  0  0  0  0  0
   -1.5680    0.1710   -0.7800 H   0  0  0  0  0  0  0  0  0  0  0  0
    0.1030   -1.1260    1.4030 H   0  0  0  0  0  0  0  0  0  0  0  0
    0.8420    1.7640    0.6870 N   0  0  0  0  0  0  0  0  0  0  0  0
    1.3660    3.1150    0.7980 C   0  0  0  0  0  0  0  0  0  0  0  0
    2.8410    3.0420    0.8230 C   0  0  0  0  0  0  0  0  0  0  0  0
    3.1400    1.6640    0.3430 C   0  0  0  0  0  0  0  0  0  0  0  0
    1.9420    0.8870    0.9120 C   0  0  1  0  0  0  0  0  0  0  0  0
    2.1620    0.6770    2.3520 C   0  0  0  0  0  0  0  0  0  0  0  0
    3.1000   -0.0740    2.7130 O   0  0  0  0  0  0  0  0  0  0  0  0
    1.3560    1.2930    3.2690 O   0  0  0  0  0  0  0  0  0  0  0  0
    0.9810    3.7300   -0.0430 H   0  0  0  0  0  0  0  0  0  0  0  0
    0.9380    3.5530    1.7220 H   0  0  0  0  0  0  0  0  0  0  0  0
    3.1850    3.1200    1.8780 H   0  0  0  0  0  0  0  0  0  0  0  0
    3.3680    3.8080    0.2250 H   0  0  0  0  0  0  0  0  0  0  0  0
    4.0710    1.2300    0.7350 H   0  0  0  0  0  0  0  0  0  0  0  0
    3.0940    1.6270   -0.7570 H   0  0  0  0  0  0  0  0  0  0  0  0
    1.9340   -0.0460    0.3230 H   0  0  0  0  0  0  0  0  0  0  0  0
  1  8  1  0  0  0  0
  1 10  1  0  0  0  0
  2 11  1  1  0  0  0
  2  4  1  0  0  0  0
  2  1  1  0  0  0  0
  3  2  1  0  0  0  0
  4 13  1  6  0  0  0
  4  5  1  0  0  0  0
  5 14  1  0  0  0  0
  5 15  1  0  0  0  0
  6  4  1  0  0  0  0
  6 19  1  0  0  0  0
  7  6  2  0  0  0  0
  9  1  1  0  0  0  0
 12  3  1  0  0  0  0
 16 22  1  0  0  0  0
 17 16  1  0  0  0  0
 18 25  1  6  0  0  0
 18 20  1  0  0  0  0
 18 19  1  0  0  0  0
 18 17  1  0  0  0  0
 19 26  1  0  0  0  0
 20 27  1  0  0  0  0
 21 20  2  0  0  0  0
 23 17  1  0  0  0  0
 24 17  1  0  0  0  0
 27 28  1  0  0  0  0
 27 31  1  0  0  0  0
 28 29  1  0  0  0  0
 28 36  1  0  0  0  0
 29 37  1  0  0  0  0
 30 39  1  0  0  0  0
 30 29  1  0  0  0  0
 30 31  1  0  0  0  0
 31 41  1  6  0  0  0
 31 32  1  0  0  0  0
 32 33  2  0  0  0  0
 32 34  1  0  0  0  0
 35 28  1  0  0  0  0
 38 29  1  0  0  0  0
 40 30  1  0  0  0  0
M  END
$$$$
