TSQ.pdb
 OpenBabel07022419143D

 44 43  0  0  1  0  0  0  0  0999 V2000
    2.5790   -3.9330   -0.7740 C   0  0  0  0  0  0  0  0  0  0  0  0
    3.3140   -2.7020   -1.2400 C   0  0  1  0  0  0  0  0  0  0  0  0
    3.3880   -2.6210   -2.6190 O   0  0  0  0  0  0  0  0  0  0  0  0
    2.7050   -1.4630   -0.6250 C   0  0  2  0  0  0  0  0  0  0  0  0
    2.6700   -1.6430    0.8140 N   0  0  0  0  0  0  0  0  0  0  0  0
    1.3100   -1.2460   -1.0880 C   0  0  0  0  0  0  0  0  0  0  0  0
    1.0850   -1.0650   -2.3030 O   0  0  0  0  0  0  0  0  0  0  0  0
    1.5060   -3.6760   -0.6100 H   0  0  0  0  0  0  0  0  0  0  0  0
    2.5900   -4.7320   -1.5600 H   0  0  0  0  0  0  0  0  0  0  0  0
    2.9900   -4.3060    0.1850 H   0  0  0  0  0  0  0  0  0  0  0  0
    4.3640   -2.7530   -0.8660 H   0  0  0  0  0  0  0  0  0  0  0  0
    3.1320   -3.5080   -2.9770 H   0  0  0  0  0  0  0  0  0  0  0  0
    3.3690   -0.6200   -0.8720 H   0  0  0  0  0  0  0  0  0  0  0  0
    2.2080   -2.5150    1.1030 H   0  0  0  0  0  0  0  0  0  0  0  0
    2.3720   -0.8020    1.3230 H   0  0  0  0  0  0  0  0  0  0  0  0
   -1.6340   -3.3500   -0.9210 O   0  0  0  0  0  0  0  0  0  0  0  0
   -2.0530   -2.1830   -0.2550 C   0  0  0  0  0  0  0  0  0  0  0  0
   -1.1530   -1.0310   -0.5760 C   0  0  2  0  0  0  0  0  0  0  0  0
    0.2130   -1.2340   -0.2060 N   0  0  0  0  0  0  0  0  0  0  0  0
   -1.7170    0.1870    0.0650 C   0  0  0  0  0  0  0  0  0  0  0  0
   -2.9020    0.5100   -0.1540 O   0  0  0  0  0  0  0  0  0  0  0  0
   -1.9490   -3.3570   -1.8610 H   0  0  0  0  0  0  0  0  0  0  0  0
   -2.2170   -2.3470    0.8120 H   0  0  0  0  0  0  0  0  0  0  0  0
   -3.0560   -1.9440   -0.6980 H   0  0  0  0  0  0  0  0  0  0  0  0
   -1.1790   -0.8870   -1.6870 H   0  0  0  0  0  0  0  0  0  0  0  0
    0.4330   -1.3890    0.8170 H   0  0  0  0  0  0  0  0  0  0  0  0
    0.9270   -0.0500    4.2960 N   0  0  0  0  0  0  0  0  0  0  0  0
   -0.3350    0.3240    3.7600 C   0  0  0  0  0  0  0  0  0  0  0  0
   -0.9850   -0.5390    3.1280 O   0  0  0  0  0  0  0  0  0  0  0  0
   -0.8140    1.6990    3.9770 C   0  0  0  0  0  0  0  0  0  0  0  0
   -1.8430    2.1000    2.9980 C   0  0  0  0  0  0  0  0  0  0  0  0
   -1.4680    2.2020    1.5690 C   0  0  2  0  0  0  0  0  0  0  0  0
   -0.9610    1.0210    0.9320 N   0  0  0  0  0  0  0  0  0  0  0  0
   -0.6710    3.4100    1.2420 C   0  0  0  0  0  0  0  0  0  0  0  0
   -0.9070    4.5440    1.6660 O   0  0  0  0  0  0  0  0  0  0  0  0
    0.4230    3.2480    0.3910 O   0  0  0  0  0  0  0  0  0  0  0  0
    1.0760   -0.9760    4.7700 H   0  0  0  0  0  0  0  0  0  0  0  0
    1.7700    0.5670    4.2510 H   0  0  0  0  0  0  0  0  0  0  0  0
    0.0500    2.3950    4.0410 H   0  0  0  0  0  0  0  0  0  0  0  0
   -1.3090    1.6970    4.9960 H   0  0  0  0  0  0  0  0  0  0  0  0
   -2.7220    1.3820    3.0360 H   0  0  0  0  0  0  0  0  0  0  0  0
   -2.3290    3.0870    3.2740 H   0  0  0  0  0  0  0  0  0  0  0  0
   -2.4690    2.3880    1.0380 H   0  0  0  0  0  0  0  0  0  0  0  0
    0.0420    0.7470    1.0850 H   0  0  0  0  0  0  0  0  0  0  0  0
  1  8  1  0  0  0  0
  1 10  1  0  0  0  0
  2 11  1  1  0  0  0
  2  1  1  0  0  0  0
  2  4  1  0  0  0  0
  3  2  1  0  0  0  0
  4 13  1  6  0  0  0
  4  5  1  0  0  0  0
  5 14  1  0  0  0  0
  5 15  1  0  0  0  0
  6  4  1  0  0  0  0
  6 19  1  0  0  0  0
  7  6  2  0  0  0  0
  9  1  1  0  0  0  0
 12  3  1  0  0  0  0
 16 17  1  0  0  0  0
 17 23  1  0  0  0  0
 18 25  1  6  0  0  0
 18 17  1  0  0  0  0
 18 19  1  0  0  0  0
 18 20  1  0  0  0  0
 19 26  1  0  0  0  0
 20 33  1  0  0  0  0
 21 20  2  0  0  0  0
 22 16  1  0  0  0  0
 24 17  1  0  0  0  0
 27 37  1  0  0  0  0
 28 30  1  0  0  0  0
 28 27  1  0  0  0  0
 29 28  2  0  0  0  0
 30 39  1  0  0  0  0
 30 40  1  0  0  0  0
 31 41  1  0  0  0  0
 31 42  1  0  0  0  0
 31 30  1  0  0  0  0
 32 43  1  6  0  0  0
 32 31  1  0  0  0  0
 33 44  1  0  0  0  0
 33 32  1  0  0  0  0
 34 32  1  0  0  0  0
 34 35  1  0  0  0  0
 36 34  2  0  0  0  0
 38 27  1  0  0  0  0
M  END
$$$$
