TSW.pdb
 OpenBabel07022419143D

 51 52  0  0  1  0  0  0  0  0999 V2000
    2.3320   -2.9880    6.1150 C   0  0  0  0  0  0  0  0  0  0  0  0
    2.7970   -2.5410    4.7750 C   0  0  1  0  0  0  0  0  0  0  0  0
    4.1400   -2.1130    4.8150 O   0  0  0  0  0  0  0  0  0  0  0  0
    2.6630   -3.6180    3.6750 C   0  0  2  0  0  0  0  0  0  0  0  0
    3.5580   -4.6670    4.0430 N   0  0  0  0  0  0  0  0  0  0  0  0
    3.0330   -2.9480    2.3680 C   0  0  0  0  0  0  0  0  0  0  0  0
    4.2120   -2.8960    1.9500 O   0  0  0  0  0  0  0  0  0  0  0  0
    2.9420   -2.5140    6.9210 H   0  0  0  0  0  0  0  0  0  0  0  0
    2.3980   -4.0700    6.2850 H   0  0  0  0  0  0  0  0  0  0  0  0
    1.2770   -2.6850    6.3270 H   0  0  0  0  0  0  0  0  0  0  0  0
    2.2090   -1.6490    4.4560 H   0  0  0  0  0  0  0  0  0  0  0  0
    4.3460   -1.5700    3.9990 H   0  0  0  0  0  0  0  0  0  0  0  0
    1.6420   -3.9740    3.6090 H   0  0  0  0  0  0  0  0  0  0  0  0
    3.0910   -5.4410    4.5720 H   0  0  0  0  0  0  0  0  0  0  0  0
    4.1310   -5.0340    3.2450 H   0  0  0  0  0  0  0  0  0  0  0  0
    3.3930   -3.5470   -0.5760 O   0  0  0  0  0  0  0  0  0  0  0  0
    2.3380   -2.6880   -0.8070 C   0  0  0  0  0  0  0  0  0  0  0  0
    2.2390   -1.6670    0.3520 C   0  0  2  0  0  0  0  0  0  0  0  0
    2.0080   -2.3500    1.5800 N   0  0  0  0  0  0  0  0  0  0  0  0
    1.2280   -0.6950   -0.0620 C   0  0  0  0  0  0  0  0  0  0  0  0
    1.5030    0.0230   -1.0920 O   0  0  0  0  0  0  0  0  0  0  0  0
    4.2020   -3.1860   -1.0190 H   0  0  0  0  0  0  0  0  0  0  0  0
    2.5680   -2.0750   -1.6940 H   0  0  0  0  0  0  0  0  0  0  0  0
    1.3770   -3.2360   -0.9100 H   0  0  0  0  0  0  0  0  0  0  0  0
    3.2530   -1.1900    0.3280 H   0  0  0  0  0  0  0  0  0  0  0  0
    1.0130   -2.4300    1.9430 H   0  0  0  0  0  0  0  0  0  0  0  0
   -0.0200   -0.4490    0.5300 N   0  0  0  0  0  0  0  0  0  0  0  0
   -0.9690    0.5350    0.0520 C   0  0  1  0  0  0  0  0  0  0  0  0
   -2.1290   -0.2360   -0.5890 C   0  0  0  0  0  0  0  0  0  0  0  0
   -3.1560    0.7060   -1.1080 C   0  0  0  0  0  0  0  0  0  0  0  0
   -4.3900    0.9820   -0.5700 C   0  0  0  0  0  0  0  0  0  0  0  0
   -5.0100    1.8900   -1.3470 N   0  0  0  0  0  0  0  0  0  0  0  0
   -4.2340    2.2240   -2.3780 C   0  0  0  0  0  0  0  0  0  0  0  0
   -4.3790    3.0820   -3.4270 C   0  0  0  0  0  0  0  0  0  0  0  0
   -3.3800    3.2530   -4.3900 C   0  0  0  0  0  0  0  0  0  0  0  0
   -2.2310    2.5050   -4.2180 C   0  0  0  0  0  0  0  0  0  0  0  0
   -2.0610    1.6190   -3.1480 C   0  0  0  0  0  0  0  0  0  0  0  0
   -3.0710    1.5000   -2.2520 C   0  0  0  0  0  0  0  0  0  0  0  0
   -1.5300    1.3970    1.0980 C   0  0  0  0  0  0  0  0  0  0  0  0
   -1.1210    1.2220    2.2950 O   0  0  0  0  0  0  0  0  0  0  0  0
   -2.4780    2.3870    0.8600 O   0  0  0  0  0  0  0  0  0  0  0  0
   -0.2990   -1.0060    1.3650 H   0  0  0  0  0  0  0  0  0  0  0  0
   -0.4950    1.1880   -0.7310 H   0  0  0  0  0  0  0  0  0  0  0  0
   -2.5780   -0.9410    0.1400 H   0  0  0  0  0  0  0  0  0  0  0  0
   -1.7710   -0.8500   -1.4400 H   0  0  0  0  0  0  0  0  0  0  0  0
   -4.8290    0.5630    0.3240 H   0  0  0  0  0  0  0  0  0  0  0  0
   -5.9810    2.2980   -1.1710 H   0  0  0  0  0  0  0  0  0  0  0  0
   -5.2840    3.6900   -3.5840 H   0  0  0  0  0  0  0  0  0  0  0  0
   -3.5320    3.9420   -5.1990 H   0  0  0  0  0  0  0  0  0  0  0  0
   -1.4170    2.6030   -4.9410 H   0  0  0  0  0  0  0  0  0  0  0  0
   -1.1590    1.0520   -3.0400 H   0  0  0  0  0  0  0  0  0  0  0  0
  1  9  1  0  0  0  0
  1 10  1  0  0  0  0
  1  8  1  0  0  0  0
  2 11  1  6  0  0  0
  2  3  1  0  0  0  0
  2  1  1  0  0  0  0
  4 13  1  6  0  0  0
  4  5  1  0  0  0  0
  4  2  1  0  0  0  0
  5 14  1  0  0  0  0
  6  4  1  0  0  0  0
  7  6  2  0  0  0  0
 12  3  1  0  0  0  0
 15  5  1  0  0  0  0
 17 16  1  0  0  0  0
 17 18  1  0  0  0  0
 18 25  1  1  0  0  0
 18 19  1  0  0  0  0
 19 26  1  0  0  0  0
 19  6  1  0  0  0  0
 20 18  1  0  0  0  0
 20 27  1  0  0  0  0
 21 20  2  0  0  0  0
 22 16  1  0  0  0  0
 23 17  1  0  0  0  0
 24 17  1  0  0  0  0
 27 42  1  0  0  0  0
 28 43  1  6  0  0  0
 28 27  1  0  0  0  0
 28 39  1  0  0  0  0
 29 28  1  0  0  0  0
 29 44  1  0  0  0  0
 30 29  1  0  0  0  0
 30 31  2  0  0  0  0
 31 46  1  0  0  0  0
 32 47  1  0  0  0  0
 32 31  1  0  0  0  0
 33 38  1  0  0  0  0
 33 32  1  0  0  0  0
 34 33  2  0  0  0  0
 35 36  2  0  0  0  0
 35 34  1  0  0  0  0
 36 37  1  0  0  0  0
 37 51  1  0  0  0  0
 37 38  2  0  0  0  0
 38 30  1  0  0  0  0
 39 40  1  0  0  0  0
 41 39  2  0  0  0  0
 45 29  1  0  0  0  0
 48 34  1  0  0  0  0
 49 35  1  0  0  0  0
 50 36  1  0  0  0  0
M  END
$$$$
