TSY.pdb
 OpenBabel07022419143D

 48 48  0  0  1  0  0  0  0  0999 V2000
    4.6740   -4.1190   -0.8450 C   0  0  0  0  0  0  0  0  0  0  0  0
    4.3140   -3.2720   -2.0150 C   0  0  1  0  0  0  0  0  0  0  0  0
    4.7450   -3.8930   -3.1850 O   0  0  0  0  0  0  0  0  0  0  0  0
    2.8440   -3.0100   -2.1520 C   0  0  2  0  0  0  0  0  0  0  0  0
    2.6600   -2.1460   -3.3050 N   0  0  0  0  0  0  0  0  0  0  0  0
    2.2660   -2.3780   -0.9370 C   0  0  0  0  0  0  0  0  0  0  0  0
    2.2910   -2.9150    0.1920 O   0  0  0  0  0  0  0  0  0  0  0  0
    5.5040   -4.7960   -1.1360 H   0  0  0  0  0  0  0  0  0  0  0  0
    5.0880   -3.5130    0.0150 H   0  0  0  0  0  0  0  0  0  0  0  0
    3.8460   -4.7640   -0.4870 H   0  0  0  0  0  0  0  0  0  0  0  0
    4.8610   -2.3110   -1.9480 H   0  0  0  0  0  0  0  0  0  0  0  0
    4.7050   -4.8950   -3.0700 H   0  0  0  0  0  0  0  0  0  0  0  0
    2.3430   -3.9780   -2.3980 H   0  0  0  0  0  0  0  0  0  0  0  0
    1.6770   -2.1510   -3.6500 H   0  0  0  0  0  0  0  0  0  0  0  0
    3.3390   -2.4830   -4.0480 H   0  0  0  0  0  0  0  0  0  0  0  0
    1.2310    1.4170    1.5590 O   0  0  0  0  0  0  0  0  0  0  0  0
    1.8100    0.8450    0.4380 C   0  0  0  0  0  0  0  0  0  0  0  0
    1.0690   -0.4520    0.1510 C   0  0  2  0  0  0  0  0  0  0  0  0
    1.6500   -1.1060   -1.0320 N   0  0  0  0  0  0  0  0  0  0  0  0
   -0.3430   -0.1590   -0.1780 C   0  0  0  0  0  0  0  0  0  0  0  0
   -0.7760   -0.4570   -1.3190 O   0  0  0  0  0  0  0  0  0  0  0  0
    1.3100    2.4020    1.5800 H   0  0  0  0  0  0  0  0  0  0  0  0
    1.7720    1.5450   -0.4080 H   0  0  0  0  0  0  0  0  0  0  0  0
    2.8540    0.5560    0.7060 H   0  0  0  0  0  0  0  0  0  0  0  0
    1.1920   -1.0850    1.0480 H   0  0  0  0  0  0  0  0  0  0  0  0
    1.5830   -0.5830   -1.9310 H   0  0  0  0  0  0  0  0  0  0  0  0
   -2.5850    0.9090    6.7240 O   0  0  0  0  0  0  0  0  0  0  0  0
   -2.8340    0.6610    5.3760 C   0  0  0  0  0  0  0  0  0  0  0  0
   -2.0630   -0.2820    4.7400 C   0  0  0  0  0  0  0  0  0  0  0  0
   -2.3000   -0.5330    3.4160 C   0  0  0  0  0  0  0  0  0  0  0  0
   -3.2790    0.1110    2.6740 C   0  0  0  0  0  0  0  0  0  0  0  0
   -3.5110   -0.1840    1.2430 C   0  0  0  0  0  0  0  0  0  0  0  0
   -2.6590    0.7170    0.3400 C   0  0  2  0  0  0  0  0  0  0  0  0
   -1.2800    0.4420    0.6950 N   0  0  0  0  0  0  0  0  0  0  0  0
   -3.0100    2.1330    0.5140 C   0  0  0  0  0  0  0  0  0  0  0  0
   -2.1900    2.9780    0.9240 O   0  0  0  0  0  0  0  0  0  0  0  0
   -4.0370    1.0590    3.3610 C   0  0  0  0  0  0  0  0  0  0  0  0
   -3.8270    1.3400    4.6960 C   0  0  0  0  0  0  0  0  0  0  0  0
   -4.2940    2.5390    0.2140 O   0  0  0  0  0  0  0  0  0  0  0  0
   -1.5910    0.9880    6.9750 H   0  0  0  0  0  0  0  0  0  0  0  0
   -1.2750   -0.8200    5.2820 H   0  0  0  0  0  0  0  0  0  0  0  0
   -1.7010   -1.2730    2.9020 H   0  0  0  0  0  0  0  0  0  0  0  0
   -3.1290   -1.2240    1.0620 H   0  0  0  0  0  0  0  0  0  0  0  0
   -4.5700   -0.1680    0.9530 H   0  0  0  0  0  0  0  0  0  0  0  0
   -2.8930    0.4030   -0.6920 H   0  0  0  0  0  0  0  0  0  0  0  0
   -0.9650    0.7020    1.6510 H   0  0  0  0  0  0  0  0  0  0  0  0
   -4.8120    1.5910    2.8350 H   0  0  0  0  0  0  0  0  0  0  0  0
   -4.4130    2.0770    5.2360 H   0  0  0  0  0  0  0  0  0  0  0  0
  1 10  1  0  0  0  0
  1  9  1  0  0  0  0
  2 11  1  1  0  0  0
  2  1  1  0  0  0  0
  3 12  1  0  0  0  0
  3  2  1  0  0  0  0
  4 13  1  6  0  0  0
  4  2  1  0  0  0  0
  4  6  1  0  0  0  0
  5  4  1  0  0  0  0
  6  7  2  0  0  0  0
  8  1  1  0  0  0  0
 14  5  1  0  0  0  0
 15  5  1  0  0  0  0
 16 22  1  0  0  0  0
 17 24  1  0  0  0  0
 17 16  1  0  0  0  0
 18 17  1  0  0  0  0
 18 25  1  1  0  0  0
 19  6  1  0  0  0  0
 19 18  1  0  0  0  0
 20 18  1  0  0  0  0
 20 34  1  0  0  0  0
 21 20  2  0  0  0  0
 23 17  1  0  0  0  0
 26 19  1  0  0  0  0
 27 40  1  0  0  0  0
 28 27  1  0  0  0  0
 29 41  1  0  0  0  0
 29 28  1  0  0  0  0
 30 29  2  0  0  0  0
 31 37  2  0  0  0  0
 31 30  1  0  0  0  0
 32 31  1  0  0  0  0
 33 45  1  6  0  0  0
 33 35  1  0  0  0  0
 33 34  1  0  0  0  0
 33 32  1  0  0  0  0
 34 46  1  0  0  0  0
 35 36  1  0  0  0  0
 37 38  1  0  0  0  0
 38 48  1  0  0  0  0
 38 28  2  0  0  0  0
 39 35  2  0  0  0  0
 42 30  1  0  0  0  0
 43 32  1  0  0  0  0
 44 32  1  0  0  0  0
 47 37  1  0  0  0  0
M  END
$$$$
