TTA.pdb
 OpenBabel07022419143D

 40 39  0  0  1  0  0  0  0  0999 V2000
    2.1780   -4.0820   -1.8860 C   0  0  0  0  0  0  0  0  0  0  0  0
    2.1190   -4.3690   -0.4200 C   0  0  1  0  0  0  0  0  0  0  0  0
    2.9870   -5.4120   -0.1220 O   0  0  0  0  0  0  0  0  0  0  0  0
    2.5210   -3.1790    0.4230 C   0  0  2  0  0  0  0  0  0  0  0  0
    2.4140   -3.5610    1.8260 N   0  0  0  0  0  0  0  0  0  0  0  0
    1.5650   -2.0760    0.1070 C   0  0  0  0  0  0  0  0  0  0  0  0
    1.5530   -1.6500   -1.0690 O   0  0  0  0  0  0  0  0  0  0  0  0
    1.1670   -3.7080   -2.1890 H   0  0  0  0  0  0  0  0  0  0  0  0
    2.3730   -5.0340   -2.4450 H   0  0  0  0  0  0  0  0  0  0  0  0
    2.9470   -3.3510   -2.1650 H   0  0  0  0  0  0  0  0  0  0  0  0
    1.0910   -4.6950   -0.1130 H   0  0  0  0  0  0  0  0  0  0  0  0
    2.4970   -6.2520   -0.1000 H   0  0  0  0  0  0  0  0  0  0  0  0
    3.5280   -2.8650    0.1510 H   0  0  0  0  0  0  0  0  0  0  0  0
    2.8690   -2.9000    2.4670 H   0  0  0  0  0  0  0  0  0  0  0  0
    1.4520   -3.8180    2.0700 H   0  0  0  0  0  0  0  0  0  0  0  0
   -2.5790    0.1780    0.3080 C   0  0  0  0  0  0  0  0  0  0  0  0
   -1.6510   -0.8720    0.8850 C   0  0  1  0  0  0  0  0  0  0  0  0
   -1.8120   -1.9970    0.0530 O   0  0  0  0  0  0  0  0  0  0  0  0
   -0.2250   -0.4250    0.6930 C   0  0  2  0  0  0  0  0  0  0  0  0
    0.6980   -1.5040    1.0390 N   0  0  0  0  0  0  0  0  0  0  0  0
    0.1760    0.7360    1.4850 C   0  0  0  0  0  0  0  0  0  0  0  0
    1.1180    0.5770    2.3430 O   0  0  0  0  0  0  0  0  0  0  0  0
   -2.1700    0.6610   -0.5880 H   0  0  0  0  0  0  0  0  0  0  0  0
   -3.5320   -0.3280   -0.0710 H   0  0  0  0  0  0  0  0  0  0  0  0
   -2.9700    0.8760    1.0750 H   0  0  0  0  0  0  0  0  0  0  0  0
   -1.9310   -1.0390    1.9210 H   0  0  0  0  0  0  0  0  0  0  0  0
   -1.5980   -1.6720   -0.8680 H   0  0  0  0  0  0  0  0  0  0  0  0
   -0.0850   -0.1920   -0.3780 H   0  0  0  0  0  0  0  0  0  0  0  0
    0.6840   -1.8330    2.0170 H   0  0  0  0  0  0  0  0  0  0  0  0
    0.7610    4.2280    1.4560 C   0  0  0  0  0  0  0  0  0  0  0  0
    0.1560    3.1150    2.2980 C   0  0  2  0  0  0  0  0  0  0  0  0
   -0.3480    2.0400    1.4300 N   0  0  0  0  0  0  0  0  0  0  0  0
   -0.9510    3.6140    3.1460 C   0  0  0  0  0  0  0  0  0  0  0  0
   -0.8140    4.5310    3.9840 O   0  0  0  0  0  0  0  0  0  0  0  0
   -2.2130    3.0570    3.0270 O   0  0  0  0  0  0  0  0  0  0  0  0
    1.8650    4.2890    1.5980 H   0  0  0  0  0  0  0  0  0  0  0  0
    0.3520    5.1980    1.8350 H   0  0  0  0  0  0  0  0  0  0  0  0
    0.5650    4.0790    0.3890 H   0  0  0  0  0  0  0  0  0  0  0  0
    0.9630    2.7190    2.9480 H   0  0  0  0  0  0  0  0  0  0  0  0
   -1.1030    2.2600    0.7560 H   0  0  0  0  0  0  0  0  0  0  0  0
  1  2  1  0  0  0  0
  2  3  1  0  0  0  0
  2 11  1  1  0  0  0
  2  4  1  0  0  0  0
  3 12  1  0  0  0  0
  4 13  1  6  0  0  0
  4  5  1  0  0  0  0
  5 15  1  0  0  0  0
  5 14  1  0  0  0  0
  6  4  1  0  0  0  0
  6 20  1  0  0  0  0
  7  6  2  0  0  0  0
  8  1  1  0  0  0  0
  9  1  1  0  0  0  0
 10  1  1  0  0  0  0
 16 17  1  0  0  0  0
 16 25  1  0  0  0  0
 17 26  1  1  0  0  0
 18 17  1  0  0  0  0
 19 28  1  6  0  0  0
 19 17  1  0  0  0  0
 19 20  1  0  0  0  0
 19 21  1  0  0  0  0
 20 29  1  0  0  0  0
 21 22  2  0  0  0  0
 23 16  1  0  0  0  0
 24 16  1  0  0  0  0
 27 18  1  0  0  0  0
 30 36  1  0  0  0  0
 30 37  1  0  0  0  0
 30 31  1  0  0  0  0
 31 39  1  1  0  0  0
 31 33  1  0  0  0  0
 32 21  1  0  0  0  0
 32 31  1  0  0  0  0
 33 34  1  0  0  0  0
 35 33  2  0  0  0  0
 38 30  1  0  0  0  0
 40 32  1  0  0  0  0
M  END
$$$$
