TTD.pdb
 OpenBabel07022419143D

 43 42  0  0  1  0  0  0  0  0999 V2000
    3.6280   -3.4070    0.0550 C   0  0  0  0  0  0  0  0  0  0  0  0
    4.1670   -2.2670    0.8470 C   0  0  1  0  0  0  0  0  0  0  0  0
    5.1430   -1.6120    0.1390 O   0  0  0  0  0  0  0  0  0  0  0  0
    3.0900   -1.3540    1.3890 C   0  0  2  0  0  0  0  0  0  0  0  0
    2.1470   -2.2110    2.1080 N   0  0  0  0  0  0  0  0  0  0  0  0
    2.3790   -0.6240    0.3260 C   0  0  0  0  0  0  0  0  0  0  0  0
    2.9760    0.1730   -0.4350 O   0  0  0  0  0  0  0  0  0  0  0  0
    4.3430   -4.2540    0.1180 H   0  0  0  0  0  0  0  0  0  0  0  0
    2.6530   -3.7850    0.4200 H   0  0  0  0  0  0  0  0  0  0  0  0
    3.5150   -3.1740   -1.0370 H   0  0  0  0  0  0  0  0  0  0  0  0
    4.6670   -2.7120    1.7580 H   0  0  0  0  0  0  0  0  0  0  0  0
    5.1460   -1.9360   -0.7920 H   0  0  0  0  0  0  0  0  0  0  0  0
    3.5390   -0.6880    2.1550 H   0  0  0  0  0  0  0  0  0  0  0  0
    1.6030   -1.6810    2.8230 H   0  0  0  0  0  0  0  0  0  0  0  0
    2.7110   -2.9260    2.6580 H   0  0  0  0  0  0  0  0  0  0  0  0
    0.4840   -1.7330   -2.7390 C   0  0  0  0  0  0  0  0  0  0  0  0
   -0.5030   -1.0690   -1.8060 C   0  0  1  0  0  0  0  0  0  0  0  0
   -1.3640   -1.9870   -1.2110 O   0  0  0  0  0  0  0  0  0  0  0  0
    0.1840   -0.1730   -0.8420 C   0  0  2  0  0  0  0  0  0  0  0  0
    1.0060   -0.8020    0.1350 N   0  0  0  0  0  0  0  0  0  0  0  0
   -0.8400    0.7350   -0.2150 C   0  0  0  0  0  0  0  0  0  0  0  0
   -1.6580    1.3850   -0.9110 O   0  0  0  0  0  0  0  0  0  0  0  0
    0.0410   -1.9830   -3.7260 H   0  0  0  0  0  0  0  0  0  0  0  0
    1.3340   -1.0520   -2.9510 H   0  0  0  0  0  0  0  0  0  0  0  0
    0.8440   -2.7140   -2.3250 H   0  0  0  0  0  0  0  0  0  0  0  0
   -1.1520   -0.4290   -2.4450 H   0  0  0  0  0  0  0  0  0  0  0  0
   -1.0990   -2.8940   -1.5530 H   0  0  0  0  0  0  0  0  0  0  0  0
    0.8480    0.4890   -1.4390 H   0  0  0  0  0  0  0  0  0  0  0  0
    0.5170   -1.4830    0.7910 H   0  0  0  0  0  0  0  0  0  0  0  0
   -0.9210    0.8940    1.1950 N   0  0  0  0  0  0  0  0  0  0  0  0
   -1.9440    1.7990    1.7590 C   0  0  1  0  0  0  0  0  0  0  0  0
   -2.8960    1.0020    2.6220 C   0  0  0  0  0  0  0  0  0  0  0  0
   -3.9750    1.7970    3.2240 C   0  0  0  0  0  0  0  0  0  0  0  0
   -4.1570    3.0180    3.0280 O   0  0  0  0  0  0  0  0  0  0  0  0
   -1.1830    2.8220    2.5070 C   0  0  0  0  0  0  0  0  0  0  0  0
   -1.7050    3.7790    3.1190 O   0  0  0  0  0  0  0  0  0  0  0  0
   -4.8680    1.1650    4.0750 O   0  0  0  0  0  0  0  0  0  0  0  0
    0.2150    2.7700    2.5690 O   0  0  0  0  0  0  0  0  0  0  0  0
   -0.2860    0.3950    1.8240 H   0  0  0  0  0  0  0  0  0  0  0  0
   -2.5370    2.2590    0.9600 H   0  0  0  0  0  0  0  0  0  0  0  0
   -2.2930    0.5680    3.4590 H   0  0  0  0  0  0  0  0  0  0  0  0
   -3.3570    0.1950    2.0090 H   0  0  0  0  0  0  0  0  0  0  0  0
   -5.8070    1.5150    4.2530 H   0  0  0  0  0  0  0  0  0  0  0  0
  1  8  1  0  0  0  0
  1  9  1  0  0  0  0
  1  2  1  0  0  0  0
  2  4  1  0  0  0  0
  2 11  1  1  0  0  0
  3  2  1  0  0  0  0
  4  5  1  0  0  0  0
  4 13  1  1  0  0  0
  5 15  1  0  0  0  0
  5 14  1  0  0  0  0
  6  4  1  0  0  0  0
  7  6  2  0  0  0  0
 10  1  1  0  0  0  0
 12  3  1  0  0  0  0
 16 25  1  0  0  0  0
 16 17  1  0  0  0  0
 17 26  1  6  0  0  0
 17 18  1  0  0  0  0
 17 19  1  0  0  0  0
 19 28  1  6  0  0  0
 19 21  1  0  0  0  0
 19 20  1  0  0  0  0
 20  6  1  0  0  0  0
 20 29  1  0  0  0  0
 21 30  1  0  0  0  0
 22 21  2  0  0  0  0
 23 16  1  0  0  0  0
 24 16  1  0  0  0  0
 27 18  1  0  0  0  0
 30 31  1  0  0  0  0
 30 39  1  0  0  0  0
 31 40  1  6  0  0  0
 31 35  1  0  0  0  0
 31 32  1  0  0  0  0
 32 33  1  0  0  0  0
 32 41  1  0  0  0  0
 33 37  1  0  0  0  0
 34 33  2  0  0  0  0
 35 38  2  0  0  0  0
 35 36  1  0  0  0  0
 37 43  1  0  0  0  0
 42 32  1  0  0  0  0
M  END
$$$$
