TTQ.pdb
 OpenBabel07022419143D

 47 46  0  0  1  0  0  0  0  0999 V2000
    3.0520   -4.7010    0.0920 C   0  0  0  0  0  0  0  0  0  0  0  0
    1.7050   -4.9010    0.7000 C   0  0  1  0  0  0  0  0  0  0  0  0
    1.7370   -6.0130    1.5280 O   0  0  0  0  0  0  0  0  0  0  0  0
    1.1700   -3.6920    1.4320 C   0  0  2  0  0  0  0  0  0  0  0  0
   -0.1920   -4.0580    1.8450 N   0  0  0  0  0  0  0  0  0  0  0  0
    1.1650   -2.4860    0.6000 C   0  0  0  0  0  0  0  0  0  0  0  0
    2.2550   -1.9860    0.1960 O   0  0  0  0  0  0  0  0  0  0  0  0
    3.5100   -5.6730   -0.2090 H   0  0  0  0  0  0  0  0  0  0  0  0
    2.9550   -4.0080   -0.7840 H   0  0  0  0  0  0  0  0  0  0  0  0
    3.7500   -4.2320    0.8090 H   0  0  0  0  0  0  0  0  0  0  0  0
    1.0130   -5.1800   -0.1480 H   0  0  0  0  0  0  0  0  0  0  0  0
    1.2680   -6.8000    1.1530 H   0  0  0  0  0  0  0  0  0  0  0  0
    1.7360   -3.5430    2.3740 H   0  0  0  0  0  0  0  0  0  0  0  0
   -0.5790   -3.3350    2.5030 H   0  0  0  0  0  0  0  0  0  0  0  0
   -0.8280   -4.2060    1.0210 H   0  0  0  0  0  0  0  0  0  0  0  0
   -0.5920    0.3350   -2.8380 C   0  0  0  0  0  0  0  0  0  0  0  0
   -0.7100   -0.8760   -1.9140 C   0  0  1  0  0  0  0  0  0  0  0  0
    0.0070   -1.9090   -2.5500 O   0  0  0  0  0  0  0  0  0  0  0  0
   -0.0300   -0.6420   -0.6100 C   0  0  2  0  0  0  0  0  0  0  0  0
   -0.0320   -1.8270    0.2080 N   0  0  0  0  0  0  0  0  0  0  0  0
   -0.6470    0.4800    0.1880 C   0  0  0  0  0  0  0  0  0  0  0  0
   -0.7530    1.6270   -0.3470 O   0  0  0  0  0  0  0  0  0  0  0  0
   -1.3290    1.0900   -2.5490 H   0  0  0  0  0  0  0  0  0  0  0  0
    0.4300    0.7210   -2.8310 H   0  0  0  0  0  0  0  0  0  0  0  0
   -0.8520    0.0410   -3.8860 H   0  0  0  0  0  0  0  0  0  0  0  0
   -1.7530   -1.2270   -1.8500 H   0  0  0  0  0  0  0  0  0  0  0  0
    0.5910   -1.5520   -3.2370 H   0  0  0  0  0  0  0  0  0  0  0  0
    1.0340   -0.3900   -0.8490 H   0  0  0  0  0  0  0  0  0  0  0  0
   -0.9560   -2.2350    0.5300 H   0  0  0  0  0  0  0  0  0  0  0  0
    1.8480    4.5510    1.6940 N   0  0  0  0  0  0  0  0  0  0  0  0
    0.4770    4.2100    1.6810 C   0  0  0  0  0  0  0  0  0  0  0  0
   -0.3600    5.0620    1.3300 O   0  0  0  0  0  0  0  0  0  0  0  0
    0.0700    2.8620    2.0810 C   0  0  0  0  0  0  0  0  0  0  0  0
   -1.4230    2.6530    2.0150 C   0  0  0  0  0  0  0  0  0  0  0  0
   -1.6780    1.1890    2.3990 C   0  0  2  0  0  0  0  0  0  0  0  0
   -1.0980    0.2790    1.4850 N   0  0  0  0  0  0  0  0  0  0  0  0
   -3.0390    0.9200    2.8280 C   0  0  0  0  0  0  0  0  0  0  0  0
   -3.7260   -0.0800    2.4350 O   0  0  0  0  0  0  0  0  0  0  0  0
   -3.6950    1.7620    3.7190 O   0  0  0  0  0  0  0  0  0  0  0  0
    2.6280    3.8480    1.5730 H   0  0  0  0  0  0  0  0  0  0  0  0
    2.1500    5.5500    1.8260 H   0  0  0  0  0  0  0  0  0  0  0  0
    0.6280    2.0290    1.7060 H   0  0  0  0  0  0  0  0  0  0  0  0
    0.2930    2.8060    3.2300 H   0  0  0  0  0  0  0  0  0  0  0  0
   -1.9080    3.3160    2.7820 H   0  0  0  0  0  0  0  0  0  0  0  0
   -1.8620    2.9290    1.0530 H   0  0  0  0  0  0  0  0  0  0  0  0
   -1.0040    1.1580    3.3610 H   0  0  0  0  0  0  0  0  0  0  0  0
   -0.9850   -0.7320    1.8500 H   0  0  0  0  0  0  0  0  0  0  0  0
  1  2  1  0  0  0  0
  1 10  1  0  0  0  0
  2 11  1  6  0  0  0
  2  4  1  0  0  0  0
  2  3  1  0  0  0  0
  4  5  1  0  0  0  0
  4 13  1  1  0  0  0
  5 14  1  0  0  0  0
  6  4  1  0  0  0  0
  7  6  2  0  0  0  0
  8  1  1  0  0  0  0
  9  1  1  0  0  0  0
 12  3  1  0  0  0  0
 15  5  1  0  0  0  0
 16 24  1  0  0  0  0
 16 23  1  0  0  0  0
 16 17  1  0  0  0  0
 17 26  1  1  0  0  0
 17 19  1  0  0  0  0
 18 17  1  0  0  0  0
 19 28  1  6  0  0  0
 19 21  1  0  0  0  0
 19 20  1  0  0  0  0
 20 29  1  0  0  0  0
 20  6  1  0  0  0  0
 21 36  1  0  0  0  0
 22 21  2  0  0  0  0
 25 16  1  0  0  0  0
 27 18  1  0  0  0  0
 30 41  1  0  0  0  0
 31 30  1  0  0  0  0
 31 33  1  0  0  0  0
 32 31  2  0  0  0  0
 33 43  1  0  0  0  0
 34 33  1  0  0  0  0
 34 35  1  0  0  0  0
 34 44  1  0  0  0  0
 35 37  1  0  0  0  0
 35 46  1  1  0  0  0
 36 47  1  0  0  0  0
 36 35  1  0  0  0  0
 37 39  1  0  0  0  0
 38 37  2  0  0  0  0
 40 30  1  0  0  0  0
 42 33  1  0  0  0  0
 45 34  1  0  0  0  0
M  END
$$$$
