TTT.pdb
 OpenBabel07022419143D

 44 43  0  0  1  0  0  0  0  0999 V2000
   -1.2660   -3.5220    0.4480 C   0  0  0  0  0  0  0  0  0  0  0  0
   -1.5000   -2.6610   -0.7700 C   0  0  1  0  0  0  0  0  0  0  0  0
   -1.7870   -1.3710   -0.4010 O   0  0  0  0  0  0  0  0  0  0  0  0
   -0.3320   -2.6780   -1.7170 C   0  0  2  0  0  0  0  0  0  0  0  0
   -0.0290   -4.0560   -2.1150 N   0  0  0  0  0  0  0  0  0  0  0  0
    0.8910   -2.0280   -1.1580 C   0  0  0  0  0  0  0  0  0  0  0  0
    1.9790   -2.6950   -1.0520 O   0  0  0  0  0  0  0  0  0  0  0  0
   -1.8850   -3.1940    1.3070 H   0  0  0  0  0  0  0  0  0  0  0  0
   -0.1910   -3.5840    0.7160 H   0  0  0  0  0  0  0  0  0  0  0  0
   -1.5800   -4.5590    0.2060 H   0  0  0  0  0  0  0  0  0  0  0  0
   -2.3600   -3.0860   -1.3120 H   0  0  0  0  0  0  0  0  0  0  0  0
   -2.5240   -1.0240   -0.9380 H   0  0  0  0  0  0  0  0  0  0  0  0
   -0.6180   -2.1420   -2.6390 H   0  0  0  0  0  0  0  0  0  0  0  0
   -0.2460   -4.7370   -1.3570 H   0  0  0  0  0  0  0  0  0  0  0  0
    1.0190   -4.1050   -2.2620 H   0  0  0  0  0  0  0  0  0  0  0  0
    1.4950    2.0720   -1.2820 C   0  0  0  0  0  0  0  0  0  0  0  0
    2.6160    1.0770   -1.0640 C   0  0  1  0  0  0  0  0  0  0  0  0
    3.7550    1.6660   -0.5610 O   0  0  0  0  0  0  0  0  0  0  0  0
    2.1590   -0.0830   -0.1800 C   0  0  2  0  0  0  0  0  0  0  0  0
    0.9620   -0.6930   -0.7190 N   0  0  0  0  0  0  0  0  0  0  0  0
    1.9510    0.3760    1.2270 C   0  0  0  0  0  0  0  0  0  0  0  0
    2.8740    0.9350    1.8740 O   0  0  0  0  0  0  0  0  0  0  0  0
    0.8980    2.2450   -0.3670 H   0  0  0  0  0  0  0  0  0  0  0  0
    0.9060    1.7980   -2.1640 H   0  0  0  0  0  0  0  0  0  0  0  0
    1.9930    3.0490   -1.5200 H   0  0  0  0  0  0  0  0  0  0  0  0
    2.8490    0.6380   -2.0570 H   0  0  0  0  0  0  0  0  0  0  0  0
    3.7730    2.6290   -0.7830 H   0  0  0  0  0  0  0  0  0  0  0  0
    3.0130   -0.7910   -0.1550 H   0  0  0  0  0  0  0  0  0  0  0  0
    0.1120   -0.0980   -0.7810 H   0  0  0  0  0  0  0  0  0  0  0  0
   -1.9460    1.1520    2.9810 C   0  0  0  0  0  0  0  0  0  0  0  0
   -0.6020    1.6540    3.4230 C   0  0  1  0  0  0  0  0  0  0  0  0
   -0.6910    1.9550    4.7850 O   0  0  0  0  0  0  0  0  0  0  0  0
    0.4910    0.6450    3.2620 C   0  0  2  0  0  0  0  0  0  0  0  0
    0.7230    0.2190    1.9210 N   0  0  0  0  0  0  0  0  0  0  0  0
    0.1750   -0.5250    4.1090 C   0  0  0  0  0  0  0  0  0  0  0  0
   -0.0720   -0.4100    5.3500 O   0  0  0  0  0  0  0  0  0  0  0  0
    0.1310   -1.8210    3.5930 O   0  0  0  0  0  0  0  0  0  0  0  0
   -1.9120    0.2780    2.3220 H   0  0  0  0  0  0  0  0  0  0  0  0
   -2.6040    0.8670    3.8450 H   0  0  0  0  0  0  0  0  0  0  0  0
   -2.4710    2.0250    2.5020 H   0  0  0  0  0  0  0  0  0  0  0  0
   -0.3420    2.6370    2.9310 H   0  0  0  0  0  0  0  0  0  0  0  0
    0.1820    2.1610    5.1900 H   0  0  0  0  0  0  0  0  0  0  0  0
    1.4290    1.1070    3.6400 H   0  0  0  0  0  0  0  0  0  0  0  0
   -0.0620   -0.2410    1.4110 H   0  0  0  0  0  0  0  0  0  0  0  0
  1  9  1  0  0  0  0
  1  8  1  0  0  0  0
  2 11  1  6  0  0  0
  2  3  1  0  0  0  0
  2  1  1  0  0  0  0
  4 13  1  6  0  0  0
  4  6  1  0  0  0  0
  4  2  1  0  0  0  0
  5  4  1  0  0  0  0
  5 14  1  0  0  0  0
  6  7  2  0  0  0  0
  6 20  1  0  0  0  0
 10  1  1  0  0  0  0
 12  3  1  0  0  0  0
 15  5  1  0  0  0  0
 16 17  1  0  0  0  0
 16 23  1  0  0  0  0
 17 26  1  6  0  0  0
 17 18  1  0  0  0  0
 17 19  1  0  0  0  0
 19 28  1  1  0  0  0
 19 21  1  0  0  0  0
 20 19  1  0  0  0  0
 21 22  2  0  0  0  0
 21 34  1  0  0  0  0
 24 16  1  0  0  0  0
 25 16  1  0  0  0  0
 27 18  1  0  0  0  0
 29 20  1  0  0  0  0
 30 31  1  0  0  0  0
 30 39  1  0  0  0  0
 31 41  1  6  0  0  0
 31 32  1  0  0  0  0
 32 42  1  0  0  0  0
 33 31  1  0  0  0  0
 33 43  1  1  0  0  0
 33 35  1  0  0  0  0
 34 33  1  0  0  0  0
 35 36  1  0  0  0  0
 37 35  2  0  0  0  0
 38 30  1  0  0  0  0
 40 30  1  0  0  0  0
 44 34  1  0  0  0  0
M  END
$$$$
