TTV.pdb
 OpenBabel07022419143D

 46 45  0  0  1  0  0  0  0  0999 V2000
    3.3190   -5.3630    1.2170 C   0  0  0  0  0  0  0  0  0  0  0  0
    2.5630   -4.0620    1.0490 C   0  0  1  0  0  0  0  0  0  0  0  0
    3.3660   -3.0540    1.6210 O   0  0  0  0  0  0  0  0  0  0  0  0
    2.3280   -3.7500   -0.4010 C   0  0  2  0  0  0  0  0  0  0  0  0
    3.6200   -3.7020   -1.0550 N   0  0  0  0  0  0  0  0  0  0  0  0
    1.6110   -2.5080   -0.6450 C   0  0  0  0  0  0  0  0  0  0  0  0
    2.1660   -1.5970   -1.3510 O   0  0  0  0  0  0  0  0  0  0  0  0
    3.0870   -5.8290    2.1920 H   0  0  0  0  0  0  0  0  0  0  0  0
    4.4180   -5.1400    1.1130 H   0  0  0  0  0  0  0  0  0  0  0  0
    3.0120   -6.1010    0.4310 H   0  0  0  0  0  0  0  0  0  0  0  0
    1.6590   -4.1200    1.6520 H   0  0  0  0  0  0  0  0  0  0  0  0
    4.1330   -2.9160    1.0060 H   0  0  0  0  0  0  0  0  0  0  0  0
    1.8020   -4.6510   -0.8340 H   0  0  0  0  0  0  0  0  0  0  0  0
    3.5790   -4.0440   -2.0260 H   0  0  0  0  0  0  0  0  0  0  0  0
    3.9950   -2.7230   -1.0380 H   0  0  0  0  0  0  0  0  0  0  0  0
   -2.1770    0.1770   -1.6590 C   0  0  0  0  0  0  0  0  0  0  0  0
   -1.6480   -1.1650   -1.1860 C   0  0  1  0  0  0  0  0  0  0  0  0
   -1.2560   -1.8170   -2.3850 O   0  0  0  0  0  0  0  0  0  0  0  0
   -0.3730   -0.9300   -0.4310 C   0  0  2  0  0  0  0  0  0  0  0  0
    0.3300   -2.1820   -0.1760 N   0  0  0  0  0  0  0  0  0  0  0  0
   -0.5390   -0.2830    0.8850 C   0  0  0  0  0  0  0  0  0  0  0  0
   -0.1580   -0.9520    1.9080 O   0  0  0  0  0  0  0  0  0  0  0  0
   -2.9780    0.5800   -1.0090 H   0  0  0  0  0  0  0  0  0  0  0  0
   -2.7000    0.0510   -2.6600 H   0  0  0  0  0  0  0  0  0  0  0  0
   -1.3920    0.9120   -1.8670 H   0  0  0  0  0  0  0  0  0  0  0  0
   -2.4390   -1.6750   -0.6520 H   0  0  0  0  0  0  0  0  0  0  0  0
   -0.8810   -1.1810   -3.0250 H   0  0  0  0  0  0  0  0  0  0  0  0
    0.2810   -0.2970   -1.0530 H   0  0  0  0  0  0  0  0  0  0  0  0
   -0.1790   -2.8730    0.4030 H   0  0  0  0  0  0  0  0  0  0  0  0
   -0.6510    3.3300    4.0450 C   0  0  0  0  0  0  0  0  0  0  0  0
   -0.4190    2.8400    2.6320 C   0  0  0  0  0  0  0  0  0  0  0  0
   -0.8380    3.9220    1.6890 C   0  0  0  0  0  0  0  0  0  0  0  0
   -1.2020    1.5600    2.4730 C   0  0  2  0  0  0  0  0  0  0  0  0
   -1.0630    0.9810    1.1550 N   0  0  0  0  0  0  0  0  0  0  0  0
   -2.6380    1.8730    2.6740 C   0  0  0  0  0  0  0  0  0  0  0  0
   -3.4960    1.6450    1.7920 O   0  0  0  0  0  0  0  0  0  0  0  0
   -3.0830    2.4360    3.8590 O   0  0  0  0  0  0  0  0  0  0  0  0
    0.2650    3.8000    4.4180 H   0  0  0  0  0  0  0  0  0  0  0  0
   -0.9200    2.4950    4.7390 H   0  0  0  0  0  0  0  0  0  0  0  0
   -1.4690    4.1080    4.0100 H   0  0  0  0  0  0  0  0  0  0  0  0
    0.6910    2.6470    2.5540 H   0  0  0  0  0  0  0  0  0  0  0  0
   -1.5470    4.6510    2.1810 H   0  0  0  0  0  0  0  0  0  0  0  0
    0.0430    4.5680    1.4020 H   0  0  0  0  0  0  0  0  0  0  0  0
   -1.3490    3.5800    0.7830 H   0  0  0  0  0  0  0  0  0  0  0  0
   -0.8340    0.8550    3.2360 H   0  0  0  0  0  0  0  0  0  0  0  0
   -1.3790    1.5840    0.3730 H   0  0  0  0  0  0  0  0  0  0  0  0
  1  8  1  0  0  0  0
  2  1  1  0  0  0  0
  2  3  1  0  0  0  0
  2 11  1  1  0  0  0
  4 13  1  6  0  0  0
  4  2  1  0  0  0  0
  5 15  1  0  0  0  0
  5  4  1  0  0  0  0
  6  4  1  0  0  0  0
  6 20  1  0  0  0  0
  7  6  2  0  0  0  0
  9  1  1  0  0  0  0
 10  1  1  0  0  0  0
 12  3  1  0  0  0  0
 14  5  1  0  0  0  0
 16 17  1  0  0  0  0
 16 23  1  0  0  0  0
 17 26  1  1  0  0  0
 17 19  1  0  0  0  0
 18 17  1  0  0  0  0
 19 28  1  6  0  0  0
 19 20  1  0  0  0  0
 19 21  1  0  0  0  0
 20 29  1  0  0  0  0
 21 34  1  0  0  0  0
 21 22  2  0  0  0  0
 24 16  1  0  0  0  0
 25 16  1  0  0  0  0
 27 18  1  0  0  0  0
 30 38  1  0  0  0  0
 30 39  1  0  0  0  0
 31 30  1  0  0  0  0
 32 42  1  0  0  0  0
 32 31  1  0  0  0  0
 33 31  1  0  0  0  0
 33 35  1  0  0  0  0
 33 45  1  1  0  0  0
 34 33  1  0  0  0  0
 35 37  1  0  0  0  0
 36 35  2  0  0  0  0
 40 30  1  0  0  0  0
 41 31  1  0  0  0  0
 43 32  1  0  0  0  0
 44 32  1  0  0  0  0
 46 34  1  0  0  0  0
M  END
$$$$
