TVE.pdb
 OpenBabel07022419153D

 48 47  0  0  1  0  0  0  0  0999 V2000
   -0.4100   -4.8220   -0.4030 C   0  0  0  0  0  0  0  0  0  0  0  0
    0.0310   -3.4610    0.1020 C   0  0  1  0  0  0  0  0  0  0  0  0
    0.2920   -3.6120    1.4680 O   0  0  0  0  0  0  0  0  0  0  0  0
    1.2930   -3.0980   -0.6160 C   0  0  2  0  0  0  0  0  0  0  0  0
    2.2590   -4.1580   -0.4160 N   0  0  0  0  0  0  0  0  0  0  0  0
    1.8490   -1.7900   -0.2170 C   0  0  0  0  0  0  0  0  0  0  0  0
    3.0130   -1.7400    0.2220 O   0  0  0  0  0  0  0  0  0  0  0  0
   -0.7370   -5.4810    0.4370 H   0  0  0  0  0  0  0  0  0  0  0  0
   -1.2850   -4.7430   -1.0840 H   0  0  0  0  0  0  0  0  0  0  0  0
    0.3890   -5.3270   -0.9870 H   0  0  0  0  0  0  0  0  0  0  0  0
   -0.7990   -2.7700   -0.0670 H   0  0  0  0  0  0  0  0  0  0  0  0
    1.2190   -3.9250    1.6330 H   0  0  0  0  0  0  0  0  0  0  0  0
    1.0500   -3.0320   -1.7030 H   0  0  0  0  0  0  0  0  0  0  0  0
    2.6700   -4.4620   -1.3200 H   0  0  0  0  0  0  0  0  0  0  0  0
    3.0180   -3.9110    0.2420 H   0  0  0  0  0  0  0  0  0  0  0  0
    2.5190    1.2870   -2.1590 C   0  0  0  0  0  0  0  0  0  0  0  0
    1.6170    1.7370   -0.9990 C   0  0  0  0  0  0  0  0  0  0  0  0
    2.2830    2.9890   -0.4590 C   0  0  0  0  0  0  0  0  0  0  0  0
    1.6070    0.7020    0.0620 C   0  0  2  0  0  0  0  0  0  0  0  0
    1.1400   -0.5810   -0.3010 N   0  0  0  0  0  0  0  0  0  0  0  0
    0.8010    1.1820    1.2140 C   0  0  0  0  0  0  0  0  0  0  0  0
    0.9930    2.3020    1.7540 O   0  0  0  0  0  0  0  0  0  0  0  0
    2.0910    0.3700   -2.5600 H   0  0  0  0  0  0  0  0  0  0  0  0
    2.4520    2.0520   -2.9880 H   0  0  0  0  0  0  0  0  0  0  0  0
    3.5650    1.2520   -1.8670 H   0  0  0  0  0  0  0  0  0  0  0  0
    0.6280    2.0460   -1.3650 H   0  0  0  0  0  0  0  0  0  0  0  0
    1.5520    3.7010   -0.0330 H   0  0  0  0  0  0  0  0  0  0  0  0
    2.8440    3.5160   -1.2790 H   0  0  0  0  0  0  0  0  0  0  0  0
    3.0350    2.7480    0.3220 H   0  0  0  0  0  0  0  0  0  0  0  0
    2.6610    0.5940    0.4370 H   0  0  0  0  0  0  0  0  0  0  0  0
    0.1470   -0.6510   -0.6800 H   0  0  0  0  0  0  0  0  0  0  0  0
   -0.2400    0.3900    1.7710 N   0  0  0  0  0  0  0  0  0  0  0  0
   -1.0200    0.8560    2.8870 C   0  0  1  0  0  0  0  0  0  0  0  0
   -2.4790    1.0240    2.5460 C   0  0  0  0  0  0  0  0  0  0  0  0
   -3.1060   -0.2790    2.0960 C   0  0  0  0  0  0  0  0  0  0  0  0
   -4.5330   -0.0530    1.7760 C   0  0  0  0  0  0  0  0  0  0  0  0
   -5.0560    1.0910    1.8920 O   0  0  0  0  0  0  0  0  0  0  0  0
   -0.8820   -0.0130    4.0720 C   0  0  0  0  0  0  0  0  0  0  0  0
   -1.5180    0.2930    5.1110 O   0  0  0  0  0  0  0  0  0  0  0  0
   -5.3620   -1.0720    1.3360 O   0  0  0  0  0  0  0  0  0  0  0  0
   -0.0910   -1.1480    4.1010 O   0  0  0  0  0  0  0  0  0  0  0  0
   -0.4450   -0.5540    1.3620 H   0  0  0  0  0  0  0  0  0  0  0  0
   -0.6510    1.8790    3.1750 H   0  0  0  0  0  0  0  0  0  0  0  0
   -2.6540    1.8210    1.8190 H   0  0  0  0  0  0  0  0  0  0  0  0
   -3.0030    1.3140    3.4850 H   0  0  0  0  0  0  0  0  0  0  0  0
   -3.0620   -1.0310    2.8970 H   0  0  0  0  0  0  0  0  0  0  0  0
   -2.6060   -0.7160    1.2150 H   0  0  0  0  0  0  0  0  0  0  0  0
   -6.0710   -0.9130    0.6040 H   0  0  0  0  0  0  0  0  0  0  0  0
  1  2  1  0  0  0  0
  1  8  1  0  0  0  0
  2 11  1  6  0  0  0
  2  3  1  0  0  0  0
  3 12  1  0  0  0  0
  4 13  1  6  0  0  0
  4  5  1  0  0  0  0
  4  6  1  0  0  0  0
  4  2  1  0  0  0  0
  5 15  1  0  0  0  0
  6  7  2  0  0  0  0
  9  1  1  0  0  0  0
 10  1  1  0  0  0  0
 14  5  1  0  0  0  0
 16 25  1  0  0  0  0
 16 17  1  0  0  0  0
 17 18  1  0  0  0  0
 17 19  1  0  0  0  0
 18 27  1  0  0  0  0
 18 29  1  0  0  0  0
 19 30  1  1  0  0  0
 19 21  1  0  0  0  0
 20  6  1  0  0  0  0
 20 19  1  0  0  0  0
 21 22  2  0  0  0  0
 21 32  1  0  0  0  0
 23 16  1  0  0  0  0
 24 16  1  0  0  0  0
 26 17  1  0  0  0  0
 28 18  1  0  0  0  0
 31 20  1  0  0  0  0
 32 33  1  0  0  0  0
 33 43  1  1  0  0  0
 33 38  1  0  0  0  0
 34 33  1  0  0  0  0
 34 45  1  0  0  0  0
 35 34  1  0  0  0  0
 35 46  1  0  0  0  0
 36 37  2  0  0  0  0
 36 35  1  0  0  0  0
 38 41  2  0  0  0  0
 38 39  1  0  0  0  0
 40 36  1  0  0  0  0
 42 32  1  0  0  0  0
 44 34  1  0  0  0  0
 47 35  1  0  0  0  0
 48 40  1  0  0  0  0
M  END
$$$$
