TVH.pdb
 OpenBabel07022419153D

 49 49  0  0  1  0  0  0  0  0999 V2000
    5.6970   -2.6400    1.8230 C   0  0  0  0  0  0  0  0  0  0  0  0
    4.3260   -2.1890    2.2330 C   0  0  1  0  0  0  0  0  0  0  0  0
    4.3500   -0.9790    2.9260 O   0  0  0  0  0  0  0  0  0  0  0  0
    3.5080   -1.9610    0.9810 C   0  0  2  0  0  0  0  0  0  0  0  0
    4.0810   -0.9410    0.1570 N   0  0  0  0  0  0  0  0  0  0  0  0
    2.1130   -1.5630    1.3870 C   0  0  0  0  0  0  0  0  0  0  0  0
    1.4400   -2.3410    2.1210 O   0  0  0  0  0  0  0  0  0  0  0  0
    5.6480   -3.3130    0.9390 H   0  0  0  0  0  0  0  0  0  0  0  0
    6.3180   -1.7660    1.5020 H   0  0  0  0  0  0  0  0  0  0  0  0
    6.1630   -3.1460    2.6830 H   0  0  0  0  0  0  0  0  0  0  0  0
    3.8610   -2.9680    2.8440 H   0  0  0  0  0  0  0  0  0  0  0  0
    4.4300   -1.1140    3.8950 H   0  0  0  0  0  0  0  0  0  0  0  0
    3.4140   -2.9290    0.4480 H   0  0  0  0  0  0  0  0  0  0  0  0
    4.6080   -1.3330   -0.6620 H   0  0  0  0  0  0  0  0  0  0  0  0
    4.6460   -0.2670    0.7100 H   0  0  0  0  0  0  0  0  0  0  0  0
    0.8070    2.4260    1.4320 C   0  0  0  0  0  0  0  0  0  0  0  0
    0.2430    1.2810    2.2030 C   0  0  0  0  0  0  0  0  0  0  0  0
   -1.0630    1.6330    2.8480 C   0  0  0  0  0  0  0  0  0  0  0  0
    0.1500   -0.0000    1.4000 C   0  0  2  0  0  0  0  0  0  0  0  0
    1.5200   -0.3620    0.9860 N   0  0  0  0  0  0  0  0  0  0  0  0
   -0.6850    0.1210    0.1850 C   0  0  0  0  0  0  0  0  0  0  0  0
   -0.0580    0.0290   -0.9360 O   0  0  0  0  0  0  0  0  0  0  0  0
    0.5500    3.3630    1.9960 H   0  0  0  0  0  0  0  0  0  0  0  0
    1.9070    2.3580    1.4270 H   0  0  0  0  0  0  0  0  0  0  0  0
    0.3640    2.5530    0.4290 H   0  0  0  0  0  0  0  0  0  0  0  0
    0.9470    1.0560    3.0500 H   0  0  0  0  0  0  0  0  0  0  0  0
   -1.5900    0.6890    3.0980 H   0  0  0  0  0  0  0  0  0  0  0  0
   -0.9130    2.2060    3.8030 H   0  0  0  0  0  0  0  0  0  0  0  0
   -1.7080    2.2110    2.1630 H   0  0  0  0  0  0  0  0  0  0  0  0
   -0.2150   -0.8270    2.0230 H   0  0  0  0  0  0  0  0  0  0  0  0
    2.0230    0.3070    0.3890 H   0  0  0  0  0  0  0  0  0  0  0  0
   -2.0660    0.3210    0.1280 N   0  0  0  0  0  0  0  0  0  0  0  0
   -2.7250    0.4220   -1.1710 C   0  0  1  0  0  0  0  0  0  0  0  0
   -3.8490   -0.5850   -1.2890 C   0  0  0  0  0  0  0  0  0  0  0  0
   -3.3390   -1.9740   -1.1440 C   0  0  0  0  0  0  0  0  0  0  0  0
   -4.1440   -3.0830   -1.2100 C   0  0  0  0  0  0  0  0  0  0  0  0
   -3.3810   -4.1770   -1.0410 N   0  0  0  0  0  0  0  0  0  0  0  0
   -2.1310   -3.7340   -0.8750 C   0  0  0  0  0  0  0  0  0  0  0  0
   -2.0870   -2.3960   -0.9350 N   0  0  0  0  0  0  0  0  0  0  0  0
   -3.3300    1.7720   -1.3140 C   0  0  0  0  0  0  0  0  0  0  0  0
   -3.2110    2.5990   -0.3760 O   0  0  0  0  0  0  0  0  0  0  0  0
   -4.0240    2.1600   -2.4470 O   0  0  0  0  0  0  0  0  0  0  0  0
   -2.6080    0.3840    1.0120 H   0  0  0  0  0  0  0  0  0  0  0  0
   -1.9740    0.3170   -1.9550 H   0  0  0  0  0  0  0  0  0  0  0  0
   -4.6160   -0.3310   -0.5550 H   0  0  0  0  0  0  0  0  0  0  0  0
   -4.2790   -0.4790   -2.3000 H   0  0  0  0  0  0  0  0  0  0  0  0
   -5.2340   -3.0630   -1.3740 H   0  0  0  0  0  0  0  0  0  0  0  0
   -3.7380   -5.1500   -1.0460 H   0  0  0  0  0  0  0  0  0  0  0  0
   -1.2790   -4.3780   -0.7150 H   0  0  0  0  0  0  0  0  0  0  0  0
  1  2  1  0  0  0  0
  1 10  1  0  0  0  0
  2 11  1  1  0  0  0
  2  3  1  0  0  0  0
  3 12  1  0  0  0  0
  4 13  1  6  0  0  0
  4  6  1  0  0  0  0
  4  2  1  0  0  0  0
  5 15  1  0  0  0  0
  5  4  1  0  0  0  0
  6  7  2  0  0  0  0
  8  1  1  0  0  0  0
  9  1  1  0  0  0  0
 14  5  1  0  0  0  0
 16 23  1  0  0  0  0
 16 17  1  0  0  0  0
 17 18  1  0  0  0  0
 17 26  1  0  0  0  0
 18 27  1  0  0  0  0
 18 28  1  0  0  0  0
 19 30  1  1  0  0  0
 19 17  1  0  0  0  0
 20  6  1  0  0  0  0
 20 19  1  0  0  0  0
 21 19  1  0  0  0  0
 22 21  2  0  0  0  0
 24 16  1  0  0  0  0
 25 16  1  0  0  0  0
 29 18  1  0  0  0  0
 31 20  1  0  0  0  0
 32 21  1  0  0  0  0
 32 43  1  0  0  0  0
 33 44  1  6  0  0  0
 33 32  1  0  0  0  0
 34 33  1  0  0  0  0
 34 35  1  0  0  0  0
 34 45  1  0  0  0  0
 35 39  1  0  0  0  0
 36 35  2  0  0  0  0
 36 37  1  0  0  0  0
 37 38  1  0  0  0  0
 38 49  1  0  0  0  0
 39 38  2  0  0  0  0
 40 33  1  0  0  0  0
 40 41  1  0  0  0  0
 42 40  2  0  0  0  0
 46 34  1  0  0  0  0
 47 36  1  0  0  0  0
 48 37  1  0  0  0  0
M  END
$$$$
