TVM.pdb
 OpenBabel07022419153D

 49 48  0  0  1  0  0  0  0  0999 V2000
   -0.2580   -3.6630    2.2070 C   0  0  0  0  0  0  0  0  0  0  0  0
    1.1600   -3.7740    1.7470 C   0  0  1  0  0  0  0  0  0  0  0  0
    1.2250   -3.7040    0.3590 O   0  0  0  0  0  0  0  0  0  0  0  0
    2.0760   -2.7880    2.4150 C   0  0  2  0  0  0  0  0  0  0  0  0
    1.9910   -2.9040    3.8640 N   0  0  0  0  0  0  0  0  0  0  0  0
    1.7900   -1.3740    2.0940 C   0  0  0  0  0  0  0  0  0  0  0  0
    1.5400   -0.5050    3.0020 O   0  0  0  0  0  0  0  0  0  0  0  0
   -0.6570   -4.6780    2.4070 H   0  0  0  0  0  0  0  0  0  0  0  0
   -0.3160   -3.1130    3.1680 H   0  0  0  0  0  0  0  0  0  0  0  0
   -0.9270   -3.2110    1.4380 H   0  0  0  0  0  0  0  0  0  0  0  0
    1.5530   -4.7900    2.0360 H   0  0  0  0  0  0  0  0  0  0  0  0
    0.8130   -4.5490    0.0140 H   0  0  0  0  0  0  0  0  0  0  0  0
    3.1350   -2.9790    2.1540 H   0  0  0  0  0  0  0  0  0  0  0  0
    1.2320   -2.3200    4.2590 H   0  0  0  0  0  0  0  0  0  0  0  0
    1.9650   -3.9020    4.1670 H   0  0  0  0  0  0  0  0  0  0  0  0
    2.2870    2.6200   -0.5110 C   0  0  0  0  0  0  0  0  0  0  0  0
    2.6190    1.1750   -0.2490 C   0  0  0  0  0  0  0  0  0  0  0  0
    3.8840    1.1350    0.6180 C   0  0  0  0  0  0  0  0  0  0  0  0
    1.4970    0.5170    0.4700 C   0  0  2  0  0  0  0  0  0  0  0  0
    1.7740   -0.8820    0.7620 N   0  0  0  0  0  0  0  0  0  0  0  0
    0.2490    0.6560   -0.3310 C   0  0  0  0  0  0  0  0  0  0  0  0
   -0.1050    1.8170   -0.6210 O   0  0  0  0  0  0  0  0  0  0  0  0
    1.8110    2.7190   -1.5050 H   0  0  0  0  0  0  0  0  0  0  0  0
    3.2190    3.2550   -0.4530 H   0  0  0  0  0  0  0  0  0  0  0  0
    1.6120    3.0770    0.2390 H   0  0  0  0  0  0  0  0  0  0  0  0
    2.8080    0.6560   -1.2160 H   0  0  0  0  0  0  0  0  0  0  0  0
    3.7530    1.9540    1.3590 H   0  0  0  0  0  0  0  0  0  0  0  0
    4.7770    1.3040   -0.0380 H   0  0  0  0  0  0  0  0  0  0  0  0
    3.9600    0.1690    1.1710 H   0  0  0  0  0  0  0  0  0  0  0  0
    1.3340    1.0270    1.4350 H   0  0  0  0  0  0  0  0  0  0  0  0
    1.9630   -1.5280   -0.0060 H   0  0  0  0  0  0  0  0  0  0  0  0
   -4.5640   -0.4380    2.3550 C   0  0  0  0  0  0  0  0  0  0  0  0
   -4.4920    0.9380    1.1910 S   0  0  0  0  0  0  0  0  0  0  0  0
   -2.9350    0.8970    0.2240 C   0  0  0  0  0  0  0  0  0  0  0  0
   -2.8860   -0.2940   -0.6710 C   0  0  0  0  0  0  0  0  0  0  0  0
   -1.6590   -0.4060   -1.4950 C   0  0  2  0  0  0  0  0  0  0  0  0
   -0.4610   -0.4930   -0.7150 N   0  0  0  0  0  0  0  0  0  0  0  0
   -1.5900    0.4950   -2.6640 C   0  0  0  0  0  0  0  0  0  0  0  0
   -2.6020    0.7290   -3.3650 O   0  0  0  0  0  0  0  0  0  0  0  0
   -0.4010    1.0940   -3.0060 O   0  0  0  0  0  0  0  0  0  0  0  0
   -5.1890   -1.2770    1.9840 H   0  0  0  0  0  0  0  0  0  0  0  0
   -3.5360   -0.8590    2.4810 H   0  0  0  0  0  0  0  0  0  0  0  0
   -4.8670   -0.1080    3.3750 H   0  0  0  0  0  0  0  0  0  0  0  0
   -2.1320    0.9150    0.9870 H   0  0  0  0  0  0  0  0  0  0  0  0
   -2.8830    1.8150   -0.3570 H   0  0  0  0  0  0  0  0  0  0  0  0
   -3.8250   -0.3250   -1.2550 H   0  0  0  0  0  0  0  0  0  0  0  0
   -2.9110   -1.1990   -0.0010 H   0  0  0  0  0  0  0  0  0  0  0  0
   -1.7210   -1.4500   -1.9940 H   0  0  0  0  0  0  0  0  0  0  0  0
   -0.0590   -1.4290   -0.3930 H   0  0  0  0  0  0  0  0  0  0  0  0
  1  8  1  0  0  0  0
  1  9  1  0  0  0  0
  2 11  1  1  0  0  0
  2  1  1  0  0  0  0
  2  4  1  0  0  0  0
  3  2  1  0  0  0  0
  4 13  1  6  0  0  0
  4  5  1  0  0  0  0
  5 15  1  0  0  0  0
  5 14  1  0  0  0  0
  6  4  1  0  0  0  0
  6  7  2  0  0  0  0
 10  1  1  0  0  0  0
 12  3  1  0  0  0  0
 16 24  1  0  0  0  0
 16 17  1  0  0  0  0
 16 25  1  0  0  0  0
 17 19  1  0  0  0  0
 17 18  1  0  0  0  0
 18 29  1  0  0  0  0
 18 27  1  0  0  0  0
 19 20  1  0  0  0  0
 19 30  1  1  0  0  0
 20  6  1  0  0  0  0
 21 19  1  0  0  0  0
 22 21  2  0  0  0  0
 23 16  1  0  0  0  0
 26 17  1  0  0  0  0
 28 18  1  0  0  0  0
 31 20  1  0  0  0  0
 32 42  1  0  0  0  0
 32 43  1  0  0  0  0
 33 32  1  0  0  0  0
 34 44  1  0  0  0  0
 34 33  1  0  0  0  0
 35 47  1  0  0  0  0
 35 34  1  0  0  0  0
 36 48  1  6  0  0  0
 36 37  1  0  0  0  0
 36 35  1  0  0  0  0
 37 49  1  0  0  0  0
 37 21  1  0  0  0  0
 38 36  1  0  0  0  0
 39 38  2  0  0  0  0
 40 38  1  0  0  0  0
 41 32  1  0  0  0  0
 45 34  1  0  0  0  0
 46 35  1  0  0  0  0
M  END
$$$$
