TVQ.pdb
 OpenBabel07022419153D

 49 48  0  0  1  0  0  0  0  0999 V2000
    0.7930   -4.4950    3.3920 C   0  0  0  0  0  0  0  0  0  0  0  0
    1.1140   -3.1450    2.7830 C   0  0  1  0  0  0  0  0  0  0  0  0
    2.3490   -2.7400    3.3360 O   0  0  0  0  0  0  0  0  0  0  0  0
    1.2610   -3.3470    1.3010 C   0  0  2  0  0  0  0  0  0  0  0  0
    2.2590   -4.3690    1.0680 N   0  0  0  0  0  0  0  0  0  0  0  0
    1.6840   -2.0880    0.6070 C   0  0  0  0  0  0  0  0  0  0  0  0
    2.7630   -2.1070   -0.0150 O   0  0  0  0  0  0  0  0  0  0  0  0
    0.4070   -4.4110    4.4220 H   0  0  0  0  0  0  0  0  0  0  0  0
    1.6820   -5.1870    3.3550 H   0  0  0  0  0  0  0  0  0  0  0  0
    0.0060   -5.0270    2.8030 H   0  0  0  0  0  0  0  0  0  0  0  0
    0.3200   -2.4590    3.0670 H   0  0  0  0  0  0  0  0  0  0  0  0
    2.8780   -3.5230    3.6420 H   0  0  0  0  0  0  0  0  0  0  0  0
    0.2970   -3.7350    0.9160 H   0  0  0  0  0  0  0  0  0  0  0  0
    2.7250   -4.2450    0.1430 H   0  0  0  0  0  0  0  0  0  0  0  0
    2.9080   -4.5070    1.8480 H   0  0  0  0  0  0  0  0  0  0  0  0
    2.4480    1.8330   -1.4320 C   0  0  0  0  0  0  0  0  0  0  0  0
    2.3820    0.4360   -0.8310 C   0  0  0  0  0  0  0  0  0  0  0  0
    3.6050    0.4180    0.1180 C   0  0  0  0  0  0  0  0  0  0  0  0
    1.1550    0.3780    0.0640 C   0  0  2  0  0  0  0  0  0  0  0  0
    0.9060   -0.9160    0.6420 N   0  0  0  0  0  0  0  0  0  0  0  0
   -0.0160    1.0700   -0.4670 C   0  0  0  0  0  0  0  0  0  0  0  0
    0.0820    2.2220   -0.9170 O   0  0  0  0  0  0  0  0  0  0  0  0
    2.2940    2.6390   -0.7280 H   0  0  0  0  0  0  0  0  0  0  0  0
    3.4960    2.0110   -1.8450 H   0  0  0  0  0  0  0  0  0  0  0  0
    1.8130    1.8510   -2.3290 H   0  0  0  0  0  0  0  0  0  0  0  0
    2.4900   -0.3620   -1.5370 H   0  0  0  0  0  0  0  0  0  0  0  0
    3.9460    1.5020    0.1920 H   0  0  0  0  0  0  0  0  0  0  0  0
    4.4610   -0.1010   -0.3090 H   0  0  0  0  0  0  0  0  0  0  0  0
    3.3280    0.1670    1.1440 H   0  0  0  0  0  0  0  0  0  0  0  0
    1.5450    1.0030    0.9700 H   0  0  0  0  0  0  0  0  0  0  0  0
   -0.0040   -1.0590    1.2180 H   0  0  0  0  0  0  0  0  0  0  0  0
   -2.8080   -1.1380    2.6970 N   0  0  0  0  0  0  0  0  0  0  0  0
   -2.7150    0.1310    2.0260 C   0  0  0  0  0  0  0  0  0  0  0  0
   -1.6840    0.8250    2.2020 O   0  0  0  0  0  0  0  0  0  0  0  0
   -3.7890    0.6330    1.1530 C   0  0  0  0  0  0  0  0  0  0  0  0
   -3.3770    1.5550    0.0650 C   0  0  0  0  0  0  0  0  0  0  0  0
   -2.5090    0.9410   -0.9730 C   0  0  2  0  0  0  0  0  0  0  0  0
   -1.2880    0.4330   -0.4800 N   0  0  0  0  0  0  0  0  0  0  0  0
   -2.4390    1.7570   -2.2140 C   0  0  0  0  0  0  0  0  0  0  0  0
   -3.4850    2.3260   -2.5950 O   0  0  0  0  0  0  0  0  0  0  0  0
   -1.2900    1.8890   -2.9250 O   0  0  0  0  0  0  0  0  0  0  0  0
   -1.9390   -1.7010    2.8000 H   0  0  0  0  0  0  0  0  0  0  0  0
   -3.6850   -1.5170    3.0780 H   0  0  0  0  0  0  0  0  0  0  0  0
   -4.4210   -0.1980    0.7490 H   0  0  0  0  0  0  0  0  0  0  0  0
   -4.4680    1.2270    1.8460 H   0  0  0  0  0  0  0  0  0  0  0  0
   -4.2640    2.0790   -0.3940 H   0  0  0  0  0  0  0  0  0  0  0  0
   -2.7410    2.3740    0.5450 H   0  0  0  0  0  0  0  0  0  0  0  0
   -3.0920   -0.0190   -1.3200 H   0  0  0  0  0  0  0  0  0  0  0  0
   -1.3520   -0.5650   -0.0800 H   0  0  0  0  0  0  0  0  0  0  0  0
  1  8  1  0  0  0  0
  2 11  1  1  0  0  0
  2  3  1  0  0  0  0
  2  1  1  0  0  0  0
  3 12  1  0  0  0  0
  4 13  1  6  0  0  0
  4  2  1  0  0  0  0
  5  4  1  0  0  0  0
  5 15  1  0  0  0  0
  6 20  1  0  0  0  0
  6  4  1  0  0  0  0
  7  6  2  0  0  0  0
  9  1  1  0  0  0  0
 10  1  1  0  0  0  0
 14  5  1  0  0  0  0
 16 17  1  0  0  0  0
 16 23  1  0  0  0  0
 17 19  1  0  0  0  0
 17 18  1  0  0  0  0
 18 27  1  0  0  0  0
 18 29  1  0  0  0  0
 19 20  1  0  0  0  0
 19 30  1  1  0  0  0
 20 31  1  0  0  0  0
 21 19  1  0  0  0  0
 22 21  2  0  0  0  0
 24 16  1  0  0  0  0
 25 16  1  0  0  0  0
 26 17  1  0  0  0  0
 28 18  1  0  0  0  0
 32 42  1  0  0  0  0
 32 43  1  0  0  0  0
 33 34  2  0  0  0  0
 33 32  1  0  0  0  0
 35 45  1  0  0  0  0
 35 33  1  0  0  0  0
 36 47  1  0  0  0  0
 36 35  1  0  0  0  0
 37 48  1  6  0  0  0
 37 38  1  0  0  0  0
 37 36  1  0  0  0  0
 38 21  1  0  0  0  0
 38 49  1  0  0  0  0
 39 37  1  0  0  0  0
 40 39  1  0  0  0  0
 41 39  2  0  0  0  0
 44 35  1  0  0  0  0
 46 36  1  0  0  0  0
M  END
$$$$
