TVS.pdb
 OpenBabel07022419153D

 43 42  0  0  1  0  0  0  0  0999 V2000
    1.8420   -4.0330    2.8830 C   0  0  0  0  0  0  0  0  0  0  0  0
    1.6490   -2.7530    2.0920 C   0  0  1  0  0  0  0  0  0  0  0  0
    2.6560   -1.8740    2.4720 O   0  0  0  0  0  0  0  0  0  0  0  0
    1.7540   -3.0980    0.6340 C   0  0  2  0  0  0  0  0  0  0  0  0
    3.0130   -3.7300    0.2950 N   0  0  0  0  0  0  0  0  0  0  0  0
    1.4770   -1.9420   -0.2510 C   0  0  0  0  0  0  0  0  0  0  0  0
    2.3260   -1.6670   -1.1400 O   0  0  0  0  0  0  0  0  0  0  0  0
    1.9770   -3.8180    3.9690 H   0  0  0  0  0  0  0  0  0  0  0  0
    0.9320   -4.6900    2.7790 H   0  0  0  0  0  0  0  0  0  0  0  0
    2.7490   -4.5860    2.5500 H   0  0  0  0  0  0  0  0  0  0  0  0
    0.6440   -2.3600    2.2810 H   0  0  0  0  0  0  0  0  0  0  0  0
    2.3600   -1.2850    3.2140 H   0  0  0  0  0  0  0  0  0  0  0  0
    0.9570   -3.8670    0.4320 H   0  0  0  0  0  0  0  0  0  0  0  0
    3.7070   -3.5820    1.0460 H   0  0  0  0  0  0  0  0  0  0  0  0
    3.3800   -3.2870   -0.5780 H   0  0  0  0  0  0  0  0  0  0  0  0
   -2.3980   -0.2620   -1.0380 C   0  0  0  0  0  0  0  0  0  0  0  0
   -1.1450   -0.1730   -1.8640 C   0  0  0  0  0  0  0  0  0  0  0  0
   -0.9990   -1.3450   -2.8040 C   0  0  0  0  0  0  0  0  0  0  0  0
    0.1040   -0.0370   -1.0270 C   0  0  2  0  0  0  0  0  0  0  0  0
    0.3070   -1.1430   -0.1340 N   0  0  0  0  0  0  0  0  0  0  0  0
    0.0300    1.2650   -0.3140 C   0  0  0  0  0  0  0  0  0  0  0  0
   -0.1460    2.2970   -1.0060 O   0  0  0  0  0  0  0  0  0  0  0  0
   -2.4570    0.6730   -0.4320 H   0  0  0  0  0  0  0  0  0  0  0  0
   -3.2550   -0.2320   -1.7350 H   0  0  0  0  0  0  0  0  0  0  0  0
   -2.4370   -1.1710   -0.4170 H   0  0  0  0  0  0  0  0  0  0  0  0
   -1.2200    0.7430   -2.4880 H   0  0  0  0  0  0  0  0  0  0  0  0
   -1.8050   -1.2840   -3.5430 H   0  0  0  0  0  0  0  0  0  0  0  0
   -0.0000   -1.2250   -3.3030 H   0  0  0  0  0  0  0  0  0  0  0  0
   -0.9510   -2.3120   -2.2650 H   0  0  0  0  0  0  0  0  0  0  0  0
    0.9550    0.0410   -1.7340 H   0  0  0  0  0  0  0  0  0  0  0  0
   -0.3640   -1.4100    0.6160 H   0  0  0  0  0  0  0  0  0  0  0  0
   -2.2410    2.2810    2.0440 O   0  0  0  0  0  0  0  0  0  0  0  0
   -1.0720    2.5510    2.7800 C   0  0  0  0  0  0  0  0  0  0  0  0
    0.0710    2.6800    1.7720 C   0  0  2  0  0  0  0  0  0  0  0  0
    0.1430    1.4170    1.0790 N   0  0  0  0  0  0  0  0  0  0  0  0
    1.3090    2.9550    2.5530 C   0  0  0  0  0  0  0  0  0  0  0  0
    2.2670    2.1240    2.5550 O   0  0  0  0  0  0  0  0  0  0  0  0
    1.4750    4.1050    3.2990 O   0  0  0  0  0  0  0  0  0  0  0  0
   -2.8070    1.6400    2.5700 H   0  0  0  0  0  0  0  0  0  0  0  0
   -1.1620    3.4650    3.3730 H   0  0  0  0  0  0  0  0  0  0  0  0
   -0.8360    1.6610    3.4000 H   0  0  0  0  0  0  0  0  0  0  0  0
   -0.0830    3.5330    1.1050 H   0  0  0  0  0  0  0  0  0  0  0  0
    0.2900    0.5530    1.6470 H   0  0  0  0  0  0  0  0  0  0  0  0
  1  8  1  0  0  0  0
  2 11  1  1  0  0  0
  2  3  1  0  0  0  0
  2  1  1  0  0  0  0
  3 12  1  0  0  0  0
  4 13  1  6  0  0  0
  4  2  1  0  0  0  0
  5  4  1  0  0  0  0
  5 14  1  0  0  0  0
  6 20  1  0  0  0  0
  6  4  1  0  0  0  0
  7  6  2  0  0  0  0
  9  1  1  0  0  0  0
 10  1  1  0  0  0  0
 15  5  1  0  0  0  0
 16 23  1  0  0  0  0
 16 25  1  0  0  0  0
 17 16  1  0  0  0  0
 17 19  1  0  0  0  0
 18 29  1  0  0  0  0
 18 17  1  0  0  0  0
 19 30  1  6  0  0  0
 19 21  1  0  0  0  0
 19 20  1  0  0  0  0
 20 31  1  0  0  0  0
 21 35  1  0  0  0  0
 22 21  2  0  0  0  0
 24 16  1  0  0  0  0
 26 17  1  0  0  0  0
 27 18  1  0  0  0  0
 28 18  1  0  0  0  0
 32 39  1  0  0  0  0
 32 33  1  0  0  0  0
 33 40  1  0  0  0  0
 33 41  1  0  0  0  0
 34 42  1  6  0  0  0
 34 36  1  0  0  0  0
 34 33  1  0  0  0  0
 35 43  1  0  0  0  0
 35 34  1  0  0  0  0
 36 37  2  0  0  0  0
 36 38  1  0  0  0  0
M  END
$$$$
