TVW.pdb
 OpenBabel07022419153D

 56 57  0  0  1  0  0  0  0  0999 V2000
    6.1660   -0.7330    0.2030 C   0  0  0  0  0  0  0  0  0  0  0  0
    4.7200   -0.9050    0.6330 C   0  0  1  0  0  0  0  0  0  0  0  0
    4.5550   -2.2100    1.0270 O   0  0  0  0  0  0  0  0  0  0  0  0
    4.3900    0.0800    1.7380 C   0  0  2  0  0  0  0  0  0  0  0  0
    5.2580   -0.1570    2.8690 N   0  0  0  0  0  0  0  0  0  0  0  0
    2.9930   -0.1680    2.1430 C   0  0  0  0  0  0  0  0  0  0  0  0
    2.7440   -0.5110    3.3050 O   0  0  0  0  0  0  0  0  0  0  0  0
    6.8160   -0.4740    1.0450 H   0  0  0  0  0  0  0  0  0  0  0  0
    6.4840   -1.7030   -0.2450 H   0  0  0  0  0  0  0  0  0  0  0  0
    6.1720    0.0170   -0.6150 H   0  0  0  0  0  0  0  0  0  0  0  0
    4.0760   -0.7340   -0.2510 H   0  0  0  0  0  0  0  0  0  0  0  0
    4.2530   -2.8210    0.2860 H   0  0  0  0  0  0  0  0  0  0  0  0
    4.4680    1.1280    1.3830 H   0  0  0  0  0  0  0  0  0  0  0  0
    5.7700   -1.0380    2.7060 H   0  0  0  0  0  0  0  0  0  0  0  0
    5.9520    0.6050    3.0190 H   0  0  0  0  0  0  0  0  0  0  0  0
   -1.6500    1.0340    1.9640 C   0  0  0  0  0  0  0  0  0  0  0  0
   -0.2100    1.0100    1.5850 C   0  0  0  0  0  0  0  0  0  0  0  0
   -0.0380    1.7560    0.2820 C   0  0  0  0  0  0  0  0  0  0  0  0
    0.5040   -0.2760    1.6460 C   0  0  2  0  0  0  0  0  0  0  0  0
    1.8980   -0.0290    1.2410 N   0  0  0  0  0  0  0  0  0  0  0  0
   -0.0340   -1.4380    0.9520 C   0  0  0  0  0  0  0  0  0  0  0  0
    0.7090   -2.0720    0.1060 O   0  0  0  0  0  0  0  0  0  0  0  0
   -2.3330    0.7540    1.1480 H   0  0  0  0  0  0  0  0  0  0  0  0
   -1.8780    0.5590    2.9400 H   0  0  0  0  0  0  0  0  0  0  0  0
   -1.8910    2.1370    2.1410 H   0  0  0  0  0  0  0  0  0  0  0  0
    0.3060    1.6820    2.3610 H   0  0  0  0  0  0  0  0  0  0  0  0
    0.2030    1.0700   -0.5540 H   0  0  0  0  0  0  0  0  0  0  0  0
    0.8810    2.4050    0.3910 H   0  0  0  0  0  0  0  0  0  0  0  0
   -0.8640    2.4470    0.1020 H   0  0  0  0  0  0  0  0  0  0  0  0
    0.5810   -0.5540    2.7440 H   0  0  0  0  0  0  0  0  0  0  0  0
    2.0990    0.2550    0.2760 H   0  0  0  0  0  0  0  0  0  0  0  0
   -1.3260   -2.0000    1.0910 N   0  0  0  0  0  0  0  0  0  0  0  0
   -1.8710   -3.1330    0.4770 C   0  0  1  0  0  0  0  0  0  0  0  0
   -2.3870   -3.1510   -0.8850 C   0  0  0  0  0  0  0  0  0  0  0  0
   -3.4870   -2.2120   -1.1120 C   0  0  0  0  0  0  0  0  0  0  0  0
   -4.8220   -2.5350   -1.0410 C   0  0  0  0  0  0  0  0  0  0  0  0
   -5.5570   -1.4350   -1.2710 N   0  0  0  0  0  0  0  0  0  0  0  0
   -4.7220   -0.4090   -1.4900 C   0  0  0  0  0  0  0  0  0  0  0  0
   -5.0180    0.9240   -1.7830 C   0  0  0  0  0  0  0  0  0  0  0  0
   -3.9480    1.7700   -1.9780 C   0  0  0  0  0  0  0  0  0  0  0  0
   -2.6420    1.3330   -1.8900 C   0  0  0  0  0  0  0  0  0  0  0  0
   -2.3640    0.0160   -1.5990 C   0  0  0  0  0  0  0  0  0  0  0  0
   -3.4270   -0.8670   -1.3960 C   0  0  0  0  0  0  0  0  0  0  0  0
   -0.9670   -4.3620    0.6560 C   0  0  0  0  0  0  0  0  0  0  0  0
    0.0430   -4.1790    1.3640 O   0  0  0  0  0  0  0  0  0  0  0  0
   -1.2880   -5.5540    0.0590 O   0  0  0  0  0  0  0  0  0  0  0  0
   -1.9590   -1.4730    1.7720 H   0  0  0  0  0  0  0  0  0  0  0  0
   -2.7420   -3.4830    1.1520 H   0  0  0  0  0  0  0  0  0  0  0  0
   -2.8080   -4.1950   -1.0530 H   0  0  0  0  0  0  0  0  0  0  0  0
   -1.6070   -3.0980   -1.6890 H   0  0  0  0  0  0  0  0  0  0  0  0
   -5.2450   -3.5320   -0.8310 H   0  0  0  0  0  0  0  0  0  0  0  0
   -6.5950   -1.3730   -1.2820 H   0  0  0  0  0  0  0  0  0  0  0  0
   -6.0430    1.2790   -1.8550 H   0  0  0  0  0  0  0  0  0  0  0  0
   -4.1360    2.8100   -2.2070 H   0  0  0  0  0  0  0  0  0  0  0  0
   -1.8180    2.0310   -2.0520 H   0  0  0  0  0  0  0  0  0  0  0  0
   -1.3790   -0.3980   -1.5180 H   0  0  0  0  0  0  0  0  0  0  0  0
  1  2  1  0  0  0  0
  1  8  1  0  0  0  0
  2 11  1  6  0  0  0
  2  3  1  0  0  0  0
  2  4  1  0  0  0  0
  4 13  1  6  0  0  0
  4  6  1  0  0  0  0
  4  5  1  0  0  0  0
  5 15  1  0  0  0  0
  6  7  2  0  0  0  0
  9  1  1  0  0  0  0
 10  1  1  0  0  0  0
 12  3  1  0  0  0  0
 14  5  1  0  0  0  0
 16 25  1  0  0  0  0
 16 24  1  0  0  0  0
 17 19  1  0  0  0  0
 17 16  1  0  0  0  0
 17 26  1  0  0  0  0
 18 28  1  0  0  0  0
 18 17  1  0  0  0  0
 19 30  1  1  0  0  0
 20 19  1  0  0  0  0
 20  6  1  0  0  0  0
 21 32  1  0  0  0  0
 21 19  1  0  0  0  0
 22 21  2  0  0  0  0
 23 16  1  0  0  0  0
 27 18  1  0  0  0  0
 29 18  1  0  0  0  0
 31 20  1  0  0  0  0
 32 47  1  0  0  0  0
 33 44  1  0  0  0  0
 33 32  1  0  0  0  0
 33 48  1  1  0  0  0
 34 33  1  0  0  0  0
 35 36  2  0  0  0  0
 35 34  1  0  0  0  0
 36 51  1  0  0  0  0
 37 36  1  0  0  0  0
 38 43  1  0  0  0  0
 38 37  1  0  0  0  0
 39 38  2  0  0  0  0
 40 41  2  0  0  0  0
 40 39  1  0  0  0  0
 41 42  1  0  0  0  0
 42 56  1  0  0  0  0
 42 43  2  0  0  0  0
 43 35  1  0  0  0  0
 44 45  1  0  0  0  0
 46 44  2  0  0  0  0
 49 34  1  0  0  0  0
 50 34  1  0  0  0  0
 52 37  1  0  0  0  0
 53 39  1  0  0  0  0
 54 40  1  0  0  0  0
 55 41  1  0  0  0  0
M  END
$$$$
