TWC.pdb
 OpenBabel07022419143D

 51 52  0  0  1  0  0  0  0  0999 V2000
    2.7910   -5.2080    0.0560 C   0  0  0  0  0  0  0  0  0  0  0  0
    1.9530   -4.0870    0.6320 C   0  0  1  0  0  0  0  0  0  0  0  0
    0.9050   -4.6780    1.3370 O   0  0  0  0  0  0  0  0  0  0  0  0
    2.7960   -3.1890    1.4930 C   0  0  2  0  0  0  0  0  0  0  0  0
    3.3580   -3.9500    2.5650 N   0  0  0  0  0  0  0  0  0  0  0  0
    2.1130   -1.9610    1.9070 C   0  0  0  0  0  0  0  0  0  0  0  0
    2.0860   -1.6400    3.1230 O   0  0  0  0  0  0  0  0  0  0  0  0
    2.1930   -6.1550   -0.0260 H   0  0  0  0  0  0  0  0  0  0  0  0
    3.0630   -4.9630   -0.9980 H   0  0  0  0  0  0  0  0  0  0  0  0
    3.7440   -5.3550    0.5950 H   0  0  0  0  0  0  0  0  0  0  0  0
    1.4910   -3.5580   -0.2250 H   0  0  0  0  0  0  0  0  0  0  0  0
    0.8790   -4.4350    2.2870 H   0  0  0  0  0  0  0  0  0  0  0  0
    3.6630   -2.8690    0.8430 H   0  0  0  0  0  0  0  0  0  0  0  0
    2.9250   -4.9050    2.6700 H   0  0  0  0  0  0  0  0  0  0  0  0
    4.4020   -4.1110    2.4600 H   0  0  0  0  0  0  0  0  0  0  0  0
    1.4890   -1.1430    0.9560 N   0  0  0  0  0  0  0  0  0  0  0  0
    0.7840    0.0950    1.2610 C   0  0  1  0  0  0  0  0  0  0  0  0
    1.3260    1.2570    0.5410 C   0  0  0  0  0  0  0  0  0  0  0  0
    0.6260    2.5250    0.7830 C   0  0  0  0  0  0  0  0  0  0  0  0
    0.8900    3.4580    1.8000 C   0  0  0  0  0  0  0  0  0  0  0  0
    0.0220    4.4750    1.7440 N   0  0  0  0  0  0  0  0  0  0  0  0
   -0.8220    4.2490    0.7100 C   0  0  0  0  0  0  0  0  0  0  0  0
   -1.8870    4.9700    0.1820 C   0  0  0  0  0  0  0  0  0  0  0  0
   -2.6070    4.5550   -0.9160 C   0  0  0  0  0  0  0  0  0  0  0  0
   -2.2130    3.3610   -1.4830 C   0  0  0  0  0  0  0  0  0  0  0  0
   -1.1790    2.6290   -0.9940 C   0  0  0  0  0  0  0  0  0  0  0  0
   -0.4670    3.0600    0.1100 C   0  0  0  0  0  0  0  0  0  0  0  0
   -0.6310   -0.1260    1.0490 C   0  0  0  0  0  0  0  0  0  0  0  0
   -1.4720    0.7320    1.3760 O   0  0  0  0  0  0  0  0  0  0  0  0
    1.5210   -1.4210   -0.0440 H   0  0  0  0  0  0  0  0  0  0  0  0
    0.9250    0.2250    2.3950 H   0  0  0  0  0  0  0  0  0  0  0  0
    2.4080    1.4480    0.7130 H   0  0  0  0  0  0  0  0  0  0  0  0
    1.2760    1.0930   -0.5830 H   0  0  0  0  0  0  0  0  0  0  0  0
    1.6810    3.3770    2.5340 H   0  0  0  0  0  0  0  0  0  0  0  0
   -0.0380    5.3180    2.3660 H   0  0  0  0  0  0  0  0  0  0  0  0
   -2.1710    5.9130    0.6580 H   0  0  0  0  0  0  0  0  0  0  0  0
   -3.4410    5.1160   -1.3310 H   0  0  0  0  0  0  0  0  0  0  0  0
   -2.7530    2.9860   -2.3600 H   0  0  0  0  0  0  0  0  0  0  0  0
   -0.8560    1.6760   -1.4400 H   0  0  0  0  0  0  0  0  0  0  0  0
   -1.1000   -1.3250    0.4640 N   0  0  0  0  0  0  0  0  0  0  0  0
   -2.4830   -1.6400    0.2100 C   0  0  1  0  0  0  0  0  0  0  0  0
   -2.7580   -2.0230   -1.2120 C   0  0  0  0  0  0  0  0  0  0  0  0
   -1.7810   -3.5020   -1.6700 S   0  0  0  0  0  0  0  0  0  0  0  0
   -2.8570   -2.7900    1.0740 C   0  0  0  0  0  0  0  0  0  0  0  0
   -4.0190   -3.2560    1.0390 O   0  0  0  0  0  0  0  0  0  0  0  0
   -1.9420   -3.3740    1.9330 O   0  0  0  0  0  0  0  0  0  0  0  0
   -0.3950   -2.0650    0.1830 H   0  0  0  0  0  0  0  0  0  0  0  0
   -3.1300   -0.7800    0.4820 H   0  0  0  0  0  0  0  0  0  0  0  0
   -3.8230   -2.3300   -1.2730 H   0  0  0  0  0  0  0  0  0  0  0  0
   -2.6230   -1.2000   -1.9390 H   0  0  0  0  0  0  0  0  0  0  0  0
   -2.2590   -4.5790   -0.8810 H   0  0  0  0  0  0  0  0  0  0  0  0
  1 10  1  0  0  0  0
  1  2  1  0  0  0  0
  2 11  1  6  0  0  0
  2  3  1  0  0  0  0
  2  4  1  0  0  0  0
  3 12  1  0  0  0  0
  4 13  1  6  0  0  0
  4  6  1  0  0  0  0
  4  5  1  0  0  0  0
  5 14  1  0  0  0  0
  6  7  2  0  0  0  0
  8  1  1  0  0  0  0
  9  1  1  0  0  0  0
 15  5  1  0  0  0  0
 16 17  1  0  0  0  0
 16  6  1  0  0  0  0
 17 31  1  1  0  0  0
 18 32  1  0  0  0  0
 18 19  1  0  0  0  0
 18 17  1  0  0  0  0
 19 20  2  0  0  0  0
 20 34  1  0  0  0  0
 21 20  1  0  0  0  0
 21 35  1  0  0  0  0
 22 21  1  0  0  0  0
 23 36  1  0  0  0  0
 23 22  1  0  0  0  0
 24 23  2  0  0  0  0
 25 26  2  0  0  0  0
 25 24  1  0  0  0  0
 26 27  1  0  0  0  0
 27 22  2  0  0  0  0
 27 19  1  0  0  0  0
 28 17  1  0  0  0  0
 28 29  2  0  0  0  0
 30 16  1  0  0  0  0
 33 18  1  0  0  0  0
 37 24  1  0  0  0  0
 38 25  1  0  0  0  0
 39 26  1  0  0  0  0
 40 28  1  0  0  0  0
 41 40  1  0  0  0  0
 41 48  1  1  0  0  0
 41 44  1  0  0  0  0
 42 41  1  0  0  0  0
 43 42  1  0  0  0  0
 43 51  1  0  0  0  0
 44 46  1  0  0  0  0
 45 44  2  0  0  0  0
 47 40  1  0  0  0  0
 49 42  1  0  0  0  0
 50 42  1  0  0  0  0
M  END
$$$$
