TWD.pdb
 OpenBabel07022419143D

 53 54  0  0  1  0  0  0  0  0999 V2000
    1.1000    0.2710    4.8950 C   0  0  0  0  0  0  0  0  0  0  0  0
    2.2230    0.8230    4.0480 C   0  0  1  0  0  0  0  0  0  0  0  0
    3.3120    1.0290    4.9000 O   0  0  0  0  0  0  0  0  0  0  0  0
    2.6530   -0.1550    2.9900 C   0  0  2  0  0  0  0  0  0  0  0  0
    3.7720    0.4230    2.2740 N   0  0  0  0  0  0  0  0  0  0  0  0
    1.5680   -0.5810    2.1010 C   0  0  0  0  0  0  0  0  0  0  0  0
    0.5430   -1.0910    2.6450 O   0  0  0  0  0  0  0  0  0  0  0  0
    0.1310    0.5840    4.4680 H   0  0  0  0  0  0  0  0  0  0  0  0
    1.1290   -0.8460    4.9140 H   0  0  0  0  0  0  0  0  0  0  0  0
    1.1910    0.7200    5.9000 H   0  0  0  0  0  0  0  0  0  0  0  0
    1.9330    1.7880    3.6330 H   0  0  0  0  0  0  0  0  0  0  0  0
    3.4620    0.2190    5.4320 H   0  0  0  0  0  0  0  0  0  0  0  0
    3.0730   -1.0560    3.5250 H   0  0  0  0  0  0  0  0  0  0  0  0
    3.5600    1.4570    2.1720 H   0  0  0  0  0  0  0  0  0  0  0  0
    4.5940    0.3810    2.9380 H   0  0  0  0  0  0  0  0  0  0  0  0
    1.5750   -0.4690    0.6910 N   0  0  0  0  0  0  0  0  0  0  0  0
    0.4800   -0.9030   -0.1470 C   0  0  1  0  0  0  0  0  0  0  0  0
   -0.1780    0.2420   -0.8880 C   0  0  0  0  0  0  0  0  0  0  0  0
   -0.7200    1.2350    0.0780 C   0  0  0  0  0  0  0  0  0  0  0  0
   -0.1730    2.4800    0.4040 C   0  0  0  0  0  0  0  0  0  0  0  0
   -0.9530    3.0780    1.3130 N   0  0  0  0  0  0  0  0  0  0  0  0
   -2.0080    2.2910    1.6190 C   0  0  0  0  0  0  0  0  0  0  0  0
   -3.0650    2.4740    2.4890 C   0  0  0  0  0  0  0  0  0  0  0  0
   -4.0300    1.4950    2.6200 C   0  0  0  0  0  0  0  0  0  0  0  0
   -3.8810    0.3570    1.8540 C   0  0  0  0  0  0  0  0  0  0  0  0
   -2.8270    0.1750    0.9860 C   0  0  0  0  0  0  0  0  0  0  0  0
   -1.8620    1.1510    0.8540 C   0  0  0  0  0  0  0  0  0  0  0  0
    0.8590   -1.9870   -1.0580 C   0  0  0  0  0  0  0  0  0  0  0  0
    2.0250   -2.4300   -1.0360 O   0  0  0  0  0  0  0  0  0  0  0  0
    2.4240   -0.0490    0.2510 H   0  0  0  0  0  0  0  0  0  0  0  0
   -0.3080   -1.3030    0.5570 H   0  0  0  0  0  0  0  0  0  0  0  0
   -1.0220   -0.2030   -1.4580 H   0  0  0  0  0  0  0  0  0  0  0  0
    0.5390    0.7760   -1.5420 H   0  0  0  0  0  0  0  0  0  0  0  0
    0.7480    2.8200   -0.0630 H   0  0  0  0  0  0  0  0  0  0  0  0
   -0.7380    4.0220    1.7050 H   0  0  0  0  0  0  0  0  0  0  0  0
   -3.1880    3.3630    3.0940 H   0  0  0  0  0  0  0  0  0  0  0  0
   -4.8760    1.6160    3.3020 H   0  0  0  0  0  0  0  0  0  0  0  0
   -4.6370   -0.4060    1.9590 H   0  0  0  0  0  0  0  0  0  0  0  0
   -2.7090   -0.7210    0.3810 H   0  0  0  0  0  0  0  0  0  0  0  0
   -0.0590   -2.5530   -1.9680 N   0  0  0  0  0  0  0  0  0  0  0  0
    0.3360   -3.6260   -2.8590 C   0  0  1  0  0  0  0  0  0  0  0  0
   -0.4780   -4.8680   -2.7040 C   0  0  0  0  0  0  0  0  0  0  0  0
   -1.9160   -4.6840   -2.9660 C   0  0  0  0  0  0  0  0  0  0  0  0
   -2.3980   -3.5720   -3.2980 O   0  0  0  0  0  0  0  0  0  0  0  0
    0.3200   -3.1470   -4.2850 C   0  0  0  0  0  0  0  0  0  0  0  0
   -0.0020   -1.9620   -4.5810 O   0  0  0  0  0  0  0  0  0  0  0  0
   -2.7960   -5.7420   -2.8540 O   0  0  0  0  0  0  0  0  0  0  0  0
    0.6670   -4.0290   -5.2930 O   0  0  0  0  0  0  0  0  0  0  0  0
   -1.0560   -2.1880   -2.0030 H   0  0  0  0  0  0  0  0  0  0  0  0
    1.4040   -3.8690   -2.6640 H   0  0  0  0  0  0  0  0  0  0  0  0
   -0.3760   -5.2580   -1.6700 H   0  0  0  0  0  0  0  0  0  0  0  0
   -0.0380   -5.6350   -3.4040 H   0  0  0  0  0  0  0  0  0  0  0  0
   -3.7740   -5.6310   -2.5940 H   0  0  0  0  0  0  0  0  0  0  0  0
  1  9  1  0  0  0  0
  1 10  1  0  0  0  0
  2 11  1  6  0  0  0
  2  1  1  0  0  0  0
  2  3  1  0  0  0  0
  3 12  1  0  0  0  0
  4 13  1  1  0  0  0
  4  2  1  0  0  0  0
  5 15  1  0  0  0  0
  5  4  1  0  0  0  0
  6  7  2  0  0  0  0
  6  4  1  0  0  0  0
  8  1  1  0  0  0  0
 14  5  1  0  0  0  0
 16  6  1  0  0  0  0
 17 31  1  1  0  0  0
 17 16  1  0  0  0  0
 18 17  1  0  0  0  0
 18 19  1  0  0  0  0
 19 20  2  0  0  0  0
 19 27  1  0  0  0  0
 20 21  1  0  0  0  0
 21 22  1  0  0  0  0
 21 35  1  0  0  0  0
 22 23  1  0  0  0  0
 23 24  2  0  0  0  0
 23 36  1  0  0  0  0
 24 37  1  0  0  0  0
 25 38  1  0  0  0  0
 25 24  1  0  0  0  0
 26 25  2  0  0  0  0
 27 26  1  0  0  0  0
 27 22  2  0  0  0  0
 28 29  2  0  0  0  0
 28 17  1  0  0  0  0
 30 16  1  0  0  0  0
 32 18  1  0  0  0  0
 33 18  1  0  0  0  0
 34 20  1  0  0  0  0
 39 26  1  0  0  0  0
 40 28  1  0  0  0  0
 41 42  1  0  0  0  0
 41 50  1  1  0  0  0
 41 40  1  0  0  0  0
 42 51  1  0  0  0  0
 43 47  1  0  0  0  0
 43 42  1  0  0  0  0
 44 43  2  0  0  0  0
 45 41  1  0  0  0  0
 46 45  1  0  0  0  0
 47 53  1  0  0  0  0
 48 45  2  0  0  0  0
 49 40  1  0  0  0  0
 52 42  1  0  0  0  0
M  END
$$$$
