TWF.pdb
 OpenBabel07022419143D

 60 62  0  0  1  0  0  0  0  0999 V2000
    1.3390   -0.6180    5.6130 C   0  0  0  0  0  0  0  0  0  0  0  0
    2.0290   -0.5770    4.2640 C   0  0  1  0  0  0  0  0  0  0  0  0
    3.1680   -1.3930    4.3890 O   0  0  0  0  0  0  0  0  0  0  0  0
    1.1260   -1.2640    3.2690 C   0  0  2  0  0  0  0  0  0  0  0  0
    1.7650   -1.4210    1.9810 N   0  0  0  0  0  0  0  0  0  0  0  0
   -0.1530   -0.5610    3.0820 C   0  0  0  0  0  0  0  0  0  0  0  0
   -0.9460   -0.3000    4.0280 O   0  0  0  0  0  0  0  0  0  0  0  0
    0.5050   -1.3360    5.6040 H   0  0  0  0  0  0  0  0  0  0  0  0
    2.0570   -0.8970    6.4210 H   0  0  0  0  0  0  0  0  0  0  0  0
    0.9070    0.3830    5.8140 H   0  0  0  0  0  0  0  0  0  0  0  0
    2.3160    0.4290    3.9680 H   0  0  0  0  0  0  0  0  0  0  0  0
    3.6340   -1.4270    3.5140 H   0  0  0  0  0  0  0  0  0  0  0  0
    0.8760   -2.2910    3.6330 H   0  0  0  0  0  0  0  0  0  0  0  0
    1.9530   -2.3950    1.7240 H   0  0  0  0  0  0  0  0  0  0  0  0
    2.5110   -0.7420    1.7880 H   0  0  0  0  0  0  0  0  0  0  0  0
   -0.5350   -0.1470    1.7980 N   0  0  0  0  0  0  0  0  0  0  0  0
   -1.7290    0.5390    1.4520 C   0  0  1  0  0  0  0  0  0  0  0  0
   -1.4470    1.9480    1.0970 C   0  0  0  0  0  0  0  0  0  0  0  0
   -0.5460    2.2030   -0.0220 C   0  0  0  0  0  0  0  0  0  0  0  0
   -0.9680    2.5200   -1.3200 C   0  0  0  0  0  0  0  0  0  0  0  0
    0.0920    2.6750   -2.1120 N   0  0  0  0  0  0  0  0  0  0  0  0
    1.2070    2.4760   -1.3970 C   0  0  0  0  0  0  0  0  0  0  0  0
    2.5540    2.5360   -1.7900 C   0  0  0  0  0  0  0  0  0  0  0  0
    3.5080    2.2930   -0.8350 C   0  0  0  0  0  0  0  0  0  0  0  0
    3.1410    2.0000    0.4620 C   0  0  0  0  0  0  0  0  0  0  0  0
    1.8020    1.9430    0.8390 C   0  0  0  0  0  0  0  0  0  0  0  0
    0.8270    2.1850   -0.1090 C   0  0  0  0  0  0  0  0  0  0  0  0
   -2.6030   -0.1840    0.5130 C   0  0  0  0  0  0  0  0  0  0  0  0
   -3.6880    0.3110    0.1070 O   0  0  0  0  0  0  0  0  0  0  0  0
    0.1140   -0.3640    0.9880 H   0  0  0  0  0  0  0  0  0  0  0  0
   -2.3280    0.5960    2.4180 H   0  0  0  0  0  0  0  0  0  0  0  0
   -2.4000    2.5360    0.9460 H   0  0  0  0  0  0  0  0  0  0  0  0
   -0.9870    2.4500    2.0000 H   0  0  0  0  0  0  0  0  0  0  0  0
   -2.0230    2.6100   -1.5800 H   0  0  0  0  0  0  0  0  0  0  0  0
    0.0640    2.9110   -3.1170 H   0  0  0  0  0  0  0  0  0  0  0  0
    2.8270    2.7700   -2.8210 H   0  0  0  0  0  0  0  0  0  0  0  0
    4.5730    2.3250   -1.0810 H   0  0  0  0  0  0  0  0  0  0  0  0
    3.8670    1.8000    1.2530 H   0  0  0  0  0  0  0  0  0  0  0  0
    1.5030    1.7230    1.8360 H   0  0  0  0  0  0  0  0  0  0  0  0
   -2.2940   -1.4840   -0.0020 N   0  0  0  0  0  0  0  0  0  0  0  0
   -3.1610   -2.1740   -0.9180 C   0  0  1  0  0  0  0  0  0  0  0  0
   -2.5050   -2.4270   -2.2660 C   0  0  0  0  0  0  0  0  0  0  0  0
   -1.3010   -3.2390   -2.1740 C   0  0  0  0  0  0  0  0  0  0  0  0
   -0.0770   -2.6510   -2.0000 C   0  0  0  0  0  0  0  0  0  0  0  0
    1.0920   -3.3950   -1.9070 C   0  0  0  0  0  0  0  0  0  0  0  0
    1.0380   -4.7640   -1.9900 C   0  0  0  0  0  0  0  0  0  0  0  0
   -0.1970   -5.3350   -2.1640 C   0  0  0  0  0  0  0  0  0  0  0  0
   -1.3730   -4.6060   -2.2590 C   0  0  0  0  0  0  0  0  0  0  0  0
   -3.7570   -3.3940   -0.3570 C   0  0  0  0  0  0  0  0  0  0  0  0
   -3.5200   -3.7790    0.8060 O   0  0  0  0  0  0  0  0  0  0  0  0
   -4.6120   -4.1530   -1.1270 O   0  0  0  0  0  0  0  0  0  0  0  0
   -1.4140   -1.9480    0.2940 H   0  0  0  0  0  0  0  0  0  0  0  0
   -4.0240   -1.4880   -1.1310 H   0  0  0  0  0  0  0  0  0  0  0  0
   -3.2530   -2.9970   -2.8770 H   0  0  0  0  0  0  0  0  0  0  0  0
   -2.3410   -1.4810   -2.8200 H   0  0  0  0  0  0  0  0  0  0  0  0
    0.0430   -1.5630   -1.9240 H   0  0  0  0  0  0  0  0  0  0  0  0
    2.0540   -2.9170   -1.7690 H   0  0  0  0  0  0  0  0  0  0  0  0
    1.9260   -5.3880   -1.9220 H   0  0  0  0  0  0  0  0  0  0  0  0
   -0.2620   -6.4160   -2.2320 H   0  0  0  0  0  0  0  0  0  0  0  0
   -2.3350   -5.1250   -2.3990 H   0  0  0  0  0  0  0  0  0  0  0  0
  1 10  1  0  0  0  0
  1  9  1  0  0  0  0
  2 11  1  6  0  0  0
  2  3  1  0  0  0  0
  2  1  1  0  0  0  0
  4 13  1  1  0  0  0
  4  2  1  0  0  0  0
  5  4  1  0  0  0  0
  6  4  1  0  0  0  0
  6  7  2  0  0  0  0
  8  1  1  0  0  0  0
 12  3  1  0  0  0  0
 14  5  1  0  0  0  0
 15  5  1  0  0  0  0
 16  6  1  0  0  0  0
 17 16  1  0  0  0  0
 17 31  1  1  0  0  0
 18 17  1  0  0  0  0
 18 33  1  0  0  0  0
 19 18  1  0  0  0  0
 20 19  2  0  0  0  0
 21 22  1  0  0  0  0
 21 20  1  0  0  0  0
 22 27  1  0  0  0  0
 23 22  2  0  0  0  0
 23 24  1  0  0  0  0
 24 25  2  0  0  0  0
 25 26  1  0  0  0  0
 25 38  1  0  0  0  0
 26 39  1  0  0  0  0
 27 19  1  0  0  0  0
 27 26  2  0  0  0  0
 28 17  1  0  0  0  0
 29 28  2  0  0  0  0
 30 16  1  0  0  0  0
 32 18  1  0  0  0  0
 34 20  1  0  0  0  0
 35 21  1  0  0  0  0
 36 23  1  0  0  0  0
 37 24  1  0  0  0  0
 40 52  1  0  0  0  0
 40 28  1  0  0  0  0
 41 53  1  6  0  0  0
 41 49  1  0  0  0  0
 41 40  1  0  0  0  0
 42 43  1  0  0  0  0
 42 41  1  0  0  0  0
 43 44  1  0  0  0  0
 44 56  1  0  0  0  0
 44 45  2  0  0  0  0
 45 57  1  0  0  0  0
 46 58  1  0  0  0  0
 46 45  1  0  0  0  0
 47 46  2  0  0  0  0
 48 43  2  0  0  0  0
 48 47  1  0  0  0  0
 49 50  1  0  0  0  0
 51 49  2  0  0  0  0
 54 42  1  0  0  0  0
 55 42  1  0  0  0  0
 59 47  1  0  0  0  0
 60 48  1  0  0  0  0
M  END
$$$$
