TWG.pdb
 OpenBabel07022419143D

 47 48  0  0  1  0  0  0  0  0999 V2000
    2.8340   -3.5470    1.3000 C   0  0  0  0  0  0  0  0  0  0  0  0
    2.7010   -3.0430   -0.1030 C   0  0  1  0  0  0  0  0  0  0  0  0
    3.4650   -3.8890   -0.9200 O   0  0  0  0  0  0  0  0  0  0  0  0
    1.2820   -3.0200   -0.6000 C   0  0  2  0  0  0  0  0  0  0  0  0
    1.2750   -2.5300   -1.9610 N   0  0  0  0  0  0  0  0  0  0  0  0
    0.3840   -2.2010    0.2090 C   0  0  0  0  0  0  0  0  0  0  0  0
    0.1860   -2.3880    1.4440 O   0  0  0  0  0  0  0  0  0  0  0  0
    3.8150   -4.0540    1.4120 H   0  0  0  0  0  0  0  0  0  0  0  0
    2.8360   -2.7190    2.0660 H   0  0  0  0  0  0  0  0  0  0  0  0
    2.0690   -4.3160    1.5580 H   0  0  0  0  0  0  0  0  0  0  0  0
    3.1420   -2.0350   -0.1580 H   0  0  0  0  0  0  0  0  0  0  0  0
    3.3970   -4.8190   -0.5570 H   0  0  0  0  0  0  0  0  0  0  0  0
    0.9450   -4.0940   -0.6530 H   0  0  0  0  0  0  0  0  0  0  0  0
    1.7660   -3.1950   -2.5770 H   0  0  0  0  0  0  0  0  0  0  0  0
    1.7810   -1.6150   -1.9610 H   0  0  0  0  0  0  0  0  0  0  0  0
   -0.3230   -1.1270   -0.3880 N   0  0  0  0  0  0  0  0  0  0  0  0
   -1.2020   -0.3250    0.4040 C   0  0  1  0  0  0  0  0  0  0  0  0
   -0.9830    1.1600    0.2510 C   0  0  0  0  0  0  0  0  0  0  0  0
    0.3520    1.6230    0.6210 C   0  0  0  0  0  0  0  0  0  0  0  0
    1.3430    1.9760   -0.2780 C   0  0  0  0  0  0  0  0  0  0  0  0
    2.4220    2.3490    0.3960 N   0  0  0  0  0  0  0  0  0  0  0  0
    2.1600    2.2490    1.7120 C   0  0  0  0  0  0  0  0  0  0  0  0
    2.9430    2.5160    2.8240 C   0  0  0  0  0  0  0  0  0  0  0  0
    2.4120    2.3230    4.0850 C   0  0  0  0  0  0  0  0  0  0  0  0
    1.1190    1.8690    4.2350 C   0  0  0  0  0  0  0  0  0  0  0  0
    0.3140    1.5940    3.1530 C   0  0  0  0  0  0  0  0  0  0  0  0
    0.8510    1.7900    1.8960 C   0  0  0  0  0  0  0  0  0  0  0  0
   -2.5970   -0.5810   -0.1130 C   0  0  0  0  0  0  0  0  0  0  0  0
   -2.8290   -1.3700   -1.0630 O   0  0  0  0  0  0  0  0  0  0  0  0
   -0.2110   -0.9090   -1.4070 H   0  0  0  0  0  0  0  0  0  0  0  0
   -1.2230   -0.6590    1.4570 H   0  0  0  0  0  0  0  0  0  0  0  0
   -1.1990    1.4070   -0.8120 H   0  0  0  0  0  0  0  0  0  0  0  0
   -1.7990    1.6560    0.8310 H   0  0  0  0  0  0  0  0  0  0  0  0
    1.2990    1.9670   -1.3660 H   0  0  0  0  0  0  0  0  0  0  0  0
    3.3400    2.6730    0.0200 H   0  0  0  0  0  0  0  0  0  0  0  0
    3.9770    2.8790    2.7120 H   0  0  0  0  0  0  0  0  0  0  0  0
    3.0480    2.5400    4.9270 H   0  0  0  0  0  0  0  0  0  0  0  0
    0.6970    1.7150    5.2150 H   0  0  0  0  0  0  0  0  0  0  0  0
   -0.7060    1.2360    3.2550 H   0  0  0  0  0  0  0  0  0  0  0  0
   -3.7240    0.0700    0.4620 N   0  0  0  0  0  0  0  0  0  0  0  0
   -5.0680   -0.1640   -0.0230 C   0  0  0  0  0  0  0  0  0  0  0  0
   -5.3960   -1.5940    0.1270 C   0  0  0  0  0  0  0  0  0  0  0  0
   -6.5120   -2.0090   -0.2420 O   0  0  0  0  0  0  0  0  0  0  0  0
   -4.4780   -2.4580    0.6690 O   0  0  0  0  0  0  0  0  0  0  0  0
   -3.5830    0.7350    1.2540 H   0  0  0  0  0  0  0  0  0  0  0  0
   -5.7880    0.4870    0.5450 H   0  0  0  0  0  0  0  0  0  0  0  0
   -5.1720    0.1440   -1.0980 H   0  0  0  0  0  0  0  0  0  0  0  0
  1  8  1  0  0  0  0
  1 10  1  0  0  0  0
  1  9  1  0  0  0  0
  2 11  1  6  0  0  0
  2  1  1  0  0  0  0
  3 12  1  0  0  0  0
  3  2  1  0  0  0  0
  4 13  1  6  0  0  0
  4  2  1  0  0  0  0
  4  6  1  0  0  0  0
  5  4  1  0  0  0  0
  6  7  2  0  0  0  0
 14  5  1  0  0  0  0
 15  5  1  0  0  0  0
 16  6  1  0  0  0  0
 16 17  1  0  0  0  0
 17 31  1  1  0  0  0
 18 17  1  0  0  0  0
 18 19  1  0  0  0  0
 18 33  1  0  0  0  0
 19 27  1  0  0  0  0
 20 21  1  0  0  0  0
 20 19  2  0  0  0  0
 21 22  1  0  0  0  0
 22 27  2  0  0  0  0
 22 23  1  0  0  0  0
 23 24  2  0  0  0  0
 24 25  1  0  0  0  0
 24 37  1  0  0  0  0
 25 38  1  0  0  0  0
 26 39  1  0  0  0  0
 26 25  2  0  0  0  0
 27 26  1  0  0  0  0
 28 17  1  0  0  0  0
 28 40  1  0  0  0  0
 29 28  2  0  0  0  0
 30 16  1  0  0  0  0
 32 18  1  0  0  0  0
 34 20  1  0  0  0  0
 35 21  1  0  0  0  0
 36 23  1  0  0  0  0
 40 45  1  0  0  0  0
 41 42  1  0  0  0  0
 41 40  1  0  0  0  0
 41 46  1  0  0  0  0
 42 44  1  0  0  0  0
 43 42  2  0  0  0  0
 47 41  1  0  0  0  0
M  END
$$$$
