TWI.pdb
 OpenBabel07022419143D

 59 60  0  0  1  0  0  0  0  0999 V2000
    2.3940    1.1730    2.9810 C   0  0  0  0  0  0  0  0  0  0  0  0
    3.2600    1.1450    1.7840 C   0  0  1  0  0  0  0  0  0  0  0  0
    4.5980    1.0720    2.1980 O   0  0  0  0  0  0  0  0  0  0  0  0
    3.0310    0.0910    0.7790 C   0  0  2  0  0  0  0  0  0  0  0  0
    3.9480    0.3470   -0.3400 N   0  0  0  0  0  0  0  0  0  0  0  0
    1.6680    0.0040    0.2250 C   0  0  0  0  0  0  0  0  0  0  0  0
    1.5160    0.3040   -0.9820 O   0  0  0  0  0  0  0  0  0  0  0  0
    1.3530    1.5200    2.7530 H   0  0  0  0  0  0  0  0  0  0  0  0
    2.3460    0.2580    3.5680 H   0  0  0  0  0  0  0  0  0  0  0  0
    2.7650    1.9610    3.7040 H   0  0  0  0  0  0  0  0  0  0  0  0
    3.1720    2.1570    1.2860 H   0  0  0  0  0  0  0  0  0  0  0  0
    4.7300    0.3280    2.8570 H   0  0  0  0  0  0  0  0  0  0  0  0
    3.2990   -0.9110    1.1660 H   0  0  0  0  0  0  0  0  0  0  0  0
    3.9100   -0.4340   -1.0350 H   0  0  0  0  0  0  0  0  0  0  0  0
    3.6800    1.2610   -0.7760 H   0  0  0  0  0  0  0  0  0  0  0  0
    0.5410   -0.3990    0.9830 N   0  0  0  0  0  0  0  0  0  0  0  0
   -0.8070   -0.5150    0.6030 C   0  0  1  0  0  0  0  0  0  0  0  0
   -1.1950    0.6090   -0.3500 C   0  0  0  0  0  0  0  0  0  0  0  0
   -1.0090    1.8910    0.3730 C   0  0  0  0  0  0  0  0  0  0  0  0
   -0.0200    2.8410    0.3270 C   0  0  0  0  0  0  0  0  0  0  0  0
   -0.2900    3.8540    1.1910 N   0  0  0  0  0  0  0  0  0  0  0  0
   -1.4490    3.6020    1.8190 C   0  0  0  0  0  0  0  0  0  0  0  0
   -2.1710    4.2930    2.7700 C   0  0  0  0  0  0  0  0  0  0  0  0
   -3.3660    3.8040    3.2550 C   0  0  0  0  0  0  0  0  0  0  0  0
   -3.8540    2.6010    2.7860 C   0  0  0  0  0  0  0  0  0  0  0  0
   -3.1140    1.9230    1.8330 C   0  0  0  0  0  0  0  0  0  0  0  0
   -1.9080    2.3970    1.3310 C   0  0  0  0  0  0  0  0  0  0  0  0
   -1.2560   -1.8220    0.1630 C   0  0  0  0  0  0  0  0  0  0  0  0
   -2.4360   -2.0230   -0.1600 O   0  0  0  0  0  0  0  0  0  0  0  0
    0.7680   -0.6600    2.0020 H   0  0  0  0  0  0  0  0  0  0  0  0
   -1.4160   -0.2150    1.5340 H   0  0  0  0  0  0  0  0  0  0  0  0
   -2.3020    0.4890   -0.5950 H   0  0  0  0  0  0  0  0  0  0  0  0
   -0.6270    0.6390   -1.2840 H   0  0  0  0  0  0  0  0  0  0  0  0
    0.8620    2.8140   -0.3030 H   0  0  0  0  0  0  0  0  0  0  0  0
    0.2710    4.7160    1.3830 H   0  0  0  0  0  0  0  0  0  0  0  0
   -1.8280    5.2400    3.1680 H   0  0  0  0  0  0  0  0  0  0  0  0
   -3.9630    4.3280    4.0090 H   0  0  0  0  0  0  0  0  0  0  0  0
   -4.8040    2.2010    3.1630 H   0  0  0  0  0  0  0  0  0  0  0  0
   -3.4620    0.9750    1.4300 H   0  0  0  0  0  0  0  0  0  0  0  0
   -1.5010   -3.8030   -3.2060 C   0  0  0  0  0  0  0  0  0  0  0  0
   -0.0830   -3.9290   -2.7620 C   0  0  0  0  0  0  0  0  0  0  0  0
    0.0970   -4.7570   -1.4990 C   0  0  2  0  0  0  0  0  0  0  0  0
   -0.4540   -6.1290   -1.8190 C   0  0  0  0  0  0  0  0  0  0  0  0
   -0.6710   -4.2440   -0.3360 C   0  0  2  0  0  0  0  0  0  0  0  0
   -0.3670   -2.9160    0.0820 N   0  0  0  0  0  0  0  0  0  0  0  0
   -0.4680   -5.1480    0.8270 C   0  0  0  0  0  0  0  0  0  0  0  0
   -0.0860   -4.7010    1.9360 O   0  0  0  0  0  0  0  0  0  0  0  0
   -0.6860   -6.5260    0.7580 O   0  0  0  0  0  0  0  0  0  0  0  0
   -1.7380   -4.5200   -4.0480 H   0  0  0  0  0  0  0  0  0  0  0  0
   -1.6070   -2.7890   -3.6980 H   0  0  0  0  0  0  0  0  0  0  0  0
   -2.2640   -3.8290   -2.4330 H   0  0  0  0  0  0  0  0  0  0  0  0
    0.3620   -2.9200   -2.6530 H   0  0  0  0  0  0  0  0  0  0  0  0
    0.4840   -4.3890   -3.6170 H   0  0  0  0  0  0  0  0  0  0  0  0
    1.1770   -4.9180   -1.2830 H   0  0  0  0  0  0  0  0  0  0  0  0
   -1.4980   -6.2520   -1.4490 H   0  0  0  0  0  0  0  0  0  0  0  0
   -0.4080   -6.3050   -2.9170 H   0  0  0  0  0  0  0  0  0  0  0  0
    0.1980   -6.8900   -1.3520 H   0  0  0  0  0  0  0  0  0  0  0  0
   -1.7490   -4.3000   -0.5690 H   0  0  0  0  0  0  0  0  0  0  0  0
    0.6250   -2.7420    0.3550 H   0  0  0  0  0  0  0  0  0  0  0  0
  1  9  1  0  0  0  0
  1 10  1  0  0  0  0
  2 11  1  6  0  0  0
  2  3  1  0  0  0  0
  2  1  1  0  0  0  0
  3 12  1  0  0  0  0
  4 13  1  1  0  0  0
  4  2  1  0  0  0  0
  5  4  1  0  0  0  0
  6  4  1  0  0  0  0
  6 16  1  0  0  0  0
  7  6  2  0  0  0  0
  8  1  1  0  0  0  0
 14  5  1  0  0  0  0
 15  5  1  0  0  0  0
 16 30  1  0  0  0  0
 17 16  1  0  0  0  0
 17 31  1  1  0  0  0
 18 19  1  0  0  0  0
 18 17  1  0  0  0  0
 19 27  1  0  0  0  0
 20 19  2  0  0  0  0
 20 21  1  0  0  0  0
 21 35  1  0  0  0  0
 21 22  1  0  0  0  0
 22 23  1  0  0  0  0
 23 36  1  0  0  0  0
 23 24  2  0  0  0  0
 24 37  1  0  0  0  0
 25 38  1  0  0  0  0
 25 24  1  0  0  0  0
 26 25  2  0  0  0  0
 27 22  2  0  0  0  0
 27 26  1  0  0  0  0
 28 17  1  0  0  0  0
 29 28  2  0  0  0  0
 32 18  1  0  0  0  0
 33 18  1  0  0  0  0
 34 20  1  0  0  0  0
 39 26  1  0  0  0  0
 40 41  1  0  0  0  0
 40 51  1  0  0  0  0
 41 52  1  0  0  0  0
 41 42  1  0  0  0  0
 42 54  1  1  0  0  0
 42 44  1  0  0  0  0
 43 42  1  0  0  0  0
 43 55  1  0  0  0  0
 43 57  1  0  0  0  0
 44 58  1  6  0  0  0
 44 45  1  0  0  0  0
 44 46  1  0  0  0  0
 45 28  1  0  0  0  0
 45 59  1  0  0  0  0
 46 47  1  0  0  0  0
 48 46  2  0  0  0  0
 49 40  1  0  0  0  0
 50 40  1  0  0  0  0
 53 41  1  0  0  0  0
 56 43  1  0  0  0  0
M  END
$$$$
