TWL.pdb
 OpenBabel07022419143D

 59 60  0  0  1  0  0  0  0  0999 V2000
    0.5510    1.1010    5.1160 C   0  0  0  0  0  0  0  0  0  0  0  0
    1.9230    1.1930    4.5120 C   0  0  1  0  0  0  0  0  0  0  0  0
    2.8310    1.4050    5.5470 O   0  0  0  0  0  0  0  0  0  0  0  0
    2.3070   -0.0080    3.7060 C   0  0  2  0  0  0  0  0  0  0  0  0
    3.6180    0.1980    3.1420 N   0  0  0  0  0  0  0  0  0  0  0  0
    1.3280   -0.3730    2.6790 C   0  0  0  0  0  0  0  0  0  0  0  0
    0.1070   -0.6010    2.9280 O   0  0  0  0  0  0  0  0  0  0  0  0
   -0.2520    1.4640    4.4600 H   0  0  0  0  0  0  0  0  0  0  0  0
    0.4120    0.0650    5.4700 H   0  0  0  0  0  0  0  0  0  0  0  0
    0.5390    1.7440    6.0250 H   0  0  0  0  0  0  0  0  0  0  0  0
    1.9460    2.1230    3.8900 H   0  0  0  0  0  0  0  0  0  0  0  0
    2.9550    0.5880    6.1010 H   0  0  0  0  0  0  0  0  0  0  0  0
    2.4160   -0.8680    4.4300 H   0  0  0  0  0  0  0  0  0  0  0  0
    4.3970    0.0310    3.8020 H   0  0  0  0  0  0  0  0  0  0  0  0
    3.7080    1.0620    2.5860 H   0  0  0  0  0  0  0  0  0  0  0  0
    1.7330   -0.4860    1.3350 N   0  0  0  0  0  0  0  0  0  0  0  0
    0.8150   -0.8410    0.2850 C   0  0  1  0  0  0  0  0  0  0  0  0
    0.6940    0.3700   -0.6150 C   0  0  0  0  0  0  0  0  0  0  0  0
    0.1700    1.4820    0.2420 C   0  0  0  0  0  0  0  0  0  0  0  0
    0.8650    2.5430    0.7760 C   0  0  0  0  0  0  0  0  0  0  0  0
   -0.0230    3.2740    1.4720 N   0  0  0  0  0  0  0  0  0  0  0  0
   -1.2570    2.7290    1.4080 C   0  0  0  0  0  0  0  0  0  0  0  0
   -2.4920    3.0690    1.9270 C   0  0  0  0  0  0  0  0  0  0  0  0
   -3.6220    2.3140    1.6960 C   0  0  0  0  0  0  0  0  0  0  0  0
   -3.5000    1.1850    0.9210 C   0  0  0  0  0  0  0  0  0  0  0  0
   -2.2770    0.8430    0.4030 C   0  0  0  0  0  0  0  0  0  0  0  0
   -1.1360    1.5990    0.6320 C   0  0  0  0  0  0  0  0  0  0  0  0
    1.1330   -2.0630   -0.4200 C   0  0  0  0  0  0  0  0  0  0  0  0
    2.1400   -2.7330   -0.1150 O   0  0  0  0  0  0  0  0  0  0  0  0
    2.7370   -0.3140    1.0230 H   0  0  0  0  0  0  0  0  0  0  0  0
   -0.1870   -0.9790    0.7610 H   0  0  0  0  0  0  0  0  0  0  0  0
   -0.0740    0.2240   -1.4100 H   0  0  0  0  0  0  0  0  0  0  0  0
    1.6580    0.6110   -1.0630 H   0  0  0  0  0  0  0  0  0  0  0  0
    1.9190    2.7090    0.6330 H   0  0  0  0  0  0  0  0  0  0  0  0
    0.1830    4.1660    2.0120 H   0  0  0  0  0  0  0  0  0  0  0  0
   -2.5800    3.9580    2.5350 H   0  0  0  0  0  0  0  0  0  0  0  0
   -4.5790    2.6330    2.1360 H   0  0  0  0  0  0  0  0  0  0  0  0
   -4.3630    0.5710    0.7210 H   0  0  0  0  0  0  0  0  0  0  0  0
   -2.1600   -0.0460   -0.2140 H   0  0  0  0  0  0  0  0  0  0  0  0
   -2.5420   -3.5920   -1.6930 C   0  0  0  0  0  0  0  0  0  0  0  0
   -1.7860   -4.6460   -2.4560 C   0  0  0  0  0  0  0  0  0  0  0  0
   -1.9860   -4.3700   -3.9330 C   0  0  0  0  0  0  0  0  0  0  0  0
   -0.3770   -4.8450   -2.0740 C   0  0  0  0  0  0  0  0  0  0  0  0
    0.5670   -3.7190   -2.2050 C   0  0  2  0  0  0  0  0  0  0  0  0
    0.3150   -2.5310   -1.4720 N   0  0  0  0  0  0  0  0  0  0  0  0
    0.7960   -3.4100   -3.6380 C   0  0  0  0  0  0  0  0  0  0  0  0
    1.0330   -4.3410   -4.4450 O   0  0  0  0  0  0  0  0  0  0  0  0
    0.7620   -2.1150   -4.1510 O   0  0  0  0  0  0  0  0  0  0  0  0
   -2.6590   -2.7100   -2.3210 H   0  0  0  0  0  0  0  0  0  0  0  0
   -3.5800   -3.9600   -1.4150 H   0  0  0  0  0  0  0  0  0  0  0  0
   -2.0530   -3.4330   -0.7120 H   0  0  0  0  0  0  0  0  0  0  0  0
   -2.3500   -5.6130   -2.2800 H   0  0  0  0  0  0  0  0  0  0  0  0
   -3.1040   -4.4110   -4.0930 H   0  0  0  0  0  0  0  0  0  0  0  0
   -1.5790   -5.1890   -4.5700 H   0  0  0  0  0  0  0  0  0  0  0  0
   -1.6810   -3.3690   -4.2420 H   0  0  0  0  0  0  0  0  0  0  0  0
    0.0260   -5.6680   -2.7400 H   0  0  0  0  0  0  0  0  0  0  0  0
   -0.3580   -5.3320   -1.0600 H   0  0  0  0  0  0  0  0  0  0  0  0
    1.5670   -4.1060   -1.8370 H   0  0  0  0  0  0  0  0  0  0  0  0
   -0.5120   -1.9460   -1.7110 H   0  0  0  0  0  0  0  0  0  0  0  0
  1  9  1  0  0  0  0
  1 10  1  0  0  0  0
  2 11  1  6  0  0  0
  2  1  1  0  0  0  0
  2  3  1  0  0  0  0
  3 12  1  0  0  0  0
  4 13  1  1  0  0  0
  4  2  1  0  0  0  0
  5  4  1  0  0  0  0
  5 14  1  0  0  0  0
  6  7  2  0  0  0  0
  6  4  1  0  0  0  0
  8  1  1  0  0  0  0
 15  5  1  0  0  0  0
 16  6  1  0  0  0  0
 17 31  1  1  0  0  0
 17 16  1  0  0  0  0
 18 19  1  0  0  0  0
 18 17  1  0  0  0  0
 19 27  1  0  0  0  0
 19 20  2  0  0  0  0
 20 21  1  0  0  0  0
 21 35  1  0  0  0  0
 22 21  1  0  0  0  0
 22 23  1  0  0  0  0
 23 36  1  0  0  0  0
 24 23  2  0  0  0  0
 24 37  1  0  0  0  0
 25 24  1  0  0  0  0
 26 27  1  0  0  0  0
 26 25  2  0  0  0  0
 27 22  2  0  0  0  0
 28 29  2  0  0  0  0
 28 17  1  0  0  0  0
 30 16  1  0  0  0  0
 32 18  1  0  0  0  0
 33 18  1  0  0  0  0
 34 20  1  0  0  0  0
 38 25  1  0  0  0  0
 39 26  1  0  0  0  0
 40 50  1  0  0  0  0
 40 51  1  0  0  0  0
 41 52  1  0  0  0  0
 41 43  1  0  0  0  0
 41 40  1  0  0  0  0
 42 41  1  0  0  0  0
 43 57  1  0  0  0  0
 44 43  1  0  0  0  0
 44 58  1  1  0  0  0
 44 45  1  0  0  0  0
 45 28  1  0  0  0  0
 46 44  1  0  0  0  0
 47 46  2  0  0  0  0
 48 46  1  0  0  0  0
 49 40  1  0  0  0  0
 53 42  1  0  0  0  0
 54 42  1  0  0  0  0
 55 42  1  0  0  0  0
 56 43  1  0  0  0  0
 59 45  1  0  0  0  0
M  END
$$$$
