TWV.pdb
 OpenBabel07022419143D

 56 57  0  0  1  0  0  0  0  0999 V2000
    3.4550   -1.0140    3.3620 C   0  0  0  0  0  0  0  0  0  0  0  0
    2.8350   -2.2780    3.8660 C   0  0  1  0  0  0  0  0  0  0  0  0
    2.0680   -2.0050    4.9750 O   0  0  0  0  0  0  0  0  0  0  0  0
    2.0060   -2.9650    2.7690 C   0  0  2  0  0  0  0  0  0  0  0  0
    2.8490   -3.2350    1.6260 N   0  0  0  0  0  0  0  0  0  0  0  0
    1.0110   -1.9430    2.3390 C   0  0  0  0  0  0  0  0  0  0  0  0
    0.1750   -1.5570    3.1760 O   0  0  0  0  0  0  0  0  0  0  0  0
    2.9220   -0.6320    2.4680 H   0  0  0  0  0  0  0  0  0  0  0  0
    4.5300   -1.2070    3.0910 H   0  0  0  0  0  0  0  0  0  0  0  0
    3.3770   -0.2310    4.1380 H   0  0  0  0  0  0  0  0  0  0  0  0
    3.6580   -2.9640    4.2030 H   0  0  0  0  0  0  0  0  0  0  0  0
    1.9110   -1.0340    5.1220 H   0  0  0  0  0  0  0  0  0  0  0  0
    1.5050   -3.8460    3.1780 H   0  0  0  0  0  0  0  0  0  0  0  0
    3.3300   -2.3380    1.3830 H   0  0  0  0  0  0  0  0  0  0  0  0
    3.4840   -4.0220    1.7940 H   0  0  0  0  0  0  0  0  0  0  0  0
    0.9550   -1.3850    1.0430 N   0  0  0  0  0  0  0  0  0  0  0  0
   -0.0270   -0.4150    0.7210 C   0  0  1  0  0  0  0  0  0  0  0  0
    0.5190    0.8730    0.1800 C   0  0  0  0  0  0  0  0  0  0  0  0
   -0.5200    1.8780   -0.1490 C   0  0  0  0  0  0  0  0  0  0  0  0
   -1.0110    2.2740   -1.3850 C   0  0  0  0  0  0  0  0  0  0  0  0
   -1.9520    3.2250   -1.2330 N   0  0  0  0  0  0  0  0  0  0  0  0
   -2.1030    3.4750    0.0850 C   0  0  0  0  0  0  0  0  0  0  0  0
   -2.8950    4.3220    0.8270 C   0  0  0  0  0  0  0  0  0  0  0  0
   -2.8540    4.3860    2.2060 C   0  0  0  0  0  0  0  0  0  0  0  0
   -1.9700    3.5540    2.8570 C   0  0  0  0  0  0  0  0  0  0  0  0
   -1.1670    2.6990    2.1530 C   0  0  0  0  0  0  0  0  0  0  0  0
   -1.2260    2.6530    0.7780 C   0  0  0  0  0  0  0  0  0  0  0  0
   -0.9780   -0.9380   -0.3100 C   0  0  0  0  0  0  0  0  0  0  0  0
   -1.9270   -0.2200   -0.7050 O   0  0  0  0  0  0  0  0  0  0  0  0
    1.6460   -1.6990    0.3350 H   0  0  0  0  0  0  0  0  0  0  0  0
   -0.6840   -0.1920    1.6040 H   0  0  0  0  0  0  0  0  0  0  0  0
    1.2550    1.3600    0.8410 H   0  0  0  0  0  0  0  0  0  0  0  0
    1.0690    0.6630   -0.7760 H   0  0  0  0  0  0  0  0  0  0  0  0
   -0.6810    1.8730   -2.3400 H   0  0  0  0  0  0  0  0  0  0  0  0
   -2.5130    3.7290   -1.9600 H   0  0  0  0  0  0  0  0  0  0  0  0
   -3.5910    4.9770    0.3150 H   0  0  0  0  0  0  0  0  0  0  0  0
   -3.4860    5.0620    2.7910 H   0  0  0  0  0  0  0  0  0  0  0  0
   -1.8980    3.5640    3.9300 H   0  0  0  0  0  0  0  0  0  0  0  0
   -0.4560    2.0260    2.6360 H   0  0  0  0  0  0  0  0  0  0  0  0
   -0.3920   -1.8870   -3.7700 C   0  0  0  0  0  0  0  0  0  0  0  0
   -1.0870   -3.0940   -3.1560 C   0  0  0  0  0  0  0  0  0  0  0  0
   -0.0520   -4.1760   -3.0080 C   0  0  0  0  0  0  0  0  0  0  0  0
   -1.7550   -2.7320   -1.8480 C   0  0  2  0  0  0  0  0  0  0  0  0
   -0.8370   -2.2420   -0.8620 N   0  0  0  0  0  0  0  0  0  0  0  0
   -2.4240   -3.9520   -1.3290 C   0  0  0  0  0  0  0  0  0  0  0  0
   -3.2850   -4.5830   -2.0090 O   0  0  0  0  0  0  0  0  0  0  0  0
   -2.1380   -4.4620   -0.0700 O   0  0  0  0  0  0  0  0  0  0  0  0
   -1.0090   -0.9690   -3.6710 H   0  0  0  0  0  0  0  0  0  0  0  0
    0.6010   -1.7500   -3.2840 H   0  0  0  0  0  0  0  0  0  0  0  0
   -0.2130   -2.0760   -4.8490 H   0  0  0  0  0  0  0  0  0  0  0  0
   -1.8800   -3.4480   -3.8360 H   0  0  0  0  0  0  0  0  0  0  0  0
    0.1480   -4.5830   -4.0190 H   0  0  0  0  0  0  0  0  0  0  0  0
    0.9310   -3.7630   -2.6560 H   0  0  0  0  0  0  0  0  0  0  0  0
   -0.3850   -5.0110   -2.3790 H   0  0  0  0  0  0  0  0  0  0  0  0
   -2.5340   -1.9830   -2.0870 H   0  0  0  0  0  0  0  0  0  0  0  0
   -0.0480   -2.8110   -0.5180 H   0  0  0  0  0  0  0  0  0  0  0  0
  1  2  1  0  0  0  0
  1 10  1  0  0  0  0
  2 11  1  1  0  0  0
  2  3  1  0  0  0  0
  3 12  1  0  0  0  0
  4 13  1  1  0  0  0
  4  2  1  0  0  0  0
  5 15  1  0  0  0  0
  5  4  1  0  0  0  0
  6  4  1  0  0  0  0
  6  7  2  0  0  0  0
  8  1  1  0  0  0  0
  9  1  1  0  0  0  0
 14  5  1  0  0  0  0
 16  6  1  0  0  0  0
 17 16  1  0  0  0  0
 17 31  1  1  0  0  0
 18 17  1  0  0  0  0
 18 32  1  0  0  0  0
 19 18  1  0  0  0  0
 19 27  1  0  0  0  0
 20 21  1  0  0  0  0
 20 19  2  0  0  0  0
 21 22  1  0  0  0  0
 22 27  2  0  0  0  0
 22 23  1  0  0  0  0
 23 24  2  0  0  0  0
 24 37  1  0  0  0  0
 24 25  1  0  0  0  0
 25 38  1  0  0  0  0
 26 39  1  0  0  0  0
 26 25  2  0  0  0  0
 27 26  1  0  0  0  0
 28 17  1  0  0  0  0
 29 28  2  0  0  0  0
 30 16  1  0  0  0  0
 33 18  1  0  0  0  0
 34 20  1  0  0  0  0
 35 21  1  0  0  0  0
 36 23  1  0  0  0  0
 40 48  1  0  0  0  0
 40 49  1  0  0  0  0
 40 41  1  0  0  0  0
 41 42  1  0  0  0  0
 41 43  1  0  0  0  0
 42 53  1  0  0  0  0
 42 54  1  0  0  0  0
 43 55  1  6  0  0  0
 43 45  1  0  0  0  0
 43 44  1  0  0  0  0
 44 56  1  0  0  0  0
 44 28  1  0  0  0  0
 45 47  1  0  0  0  0
 46 45  2  0  0  0  0
 50 40  1  0  0  0  0
 51 41  1  0  0  0  0
 52 42  1  0  0  0  0
M  END
$$$$
