TYI.pdb
 OpenBabel07022419143D

 56 56  0  0  1  0  0  0  0  0999 V2000
    3.0550    2.8040   -2.5340 C   0  0  0  0  0  0  0  0  0  0  0  0
    2.2530    1.5630   -2.2870 C   0  0  1  0  0  0  0  0  0  0  0  0
    1.1790    1.4250   -3.1640 O   0  0  0  0  0  0  0  0  0  0  0  0
    3.0940    0.2950   -2.3910 C   0  0  2  0  0  0  0  0  0  0  0  0
    3.5890    0.0880   -3.7150 N   0  0  0  0  0  0  0  0  0  0  0  0
    2.2310   -0.8160   -1.9160 C   0  0  0  0  0  0  0  0  0  0  0  0
    2.0230   -1.7750   -2.6890 O   0  0  0  0  0  0  0  0  0  0  0  0
    2.5950    3.6550   -1.9610 H   0  0  0  0  0  0  0  0  0  0  0  0
    4.0970    2.7350   -2.2260 H   0  0  0  0  0  0  0  0  0  0  0  0
    2.9350    3.0600   -3.6220 H   0  0  0  0  0  0  0  0  0  0  0  0
    1.8170    1.6350   -1.2700 H   0  0  0  0  0  0  0  0  0  0  0  0
    0.3130    1.6290   -2.7330 H   0  0  0  0  0  0  0  0  0  0  0  0
    3.9180    0.4010   -1.6590 H   0  0  0  0  0  0  0  0  0  0  0  0
    4.5570    0.4220   -3.8550 H   0  0  0  0  0  0  0  0  0  0  0  0
    2.9290    0.3290   -4.4610 H   0  0  0  0  0  0  0  0  0  0  0  0
    2.7190    0.8740    5.3880 O   0  0  0  0  0  0  0  0  0  0  0  0
    2.4100    0.0270    4.3180 C   0  0  0  0  0  0  0  0  0  0  0  0
    3.2880   -0.1640    3.2670 C   0  0  0  0  0  0  0  0  0  0  0  0
    3.0050   -0.9960    2.1980 C   0  0  0  0  0  0  0  0  0  0  0  0
    1.8070   -1.6740    2.1540 C   0  0  0  0  0  0  0  0  0  0  0  0
    1.4890   -2.5680    1.0210 C   0  0  0  0  0  0  0  0  0  0  0  0
    0.7980   -1.8740   -0.1190 C   0  0  2  0  0  0  0  0  0  0  0  0
    1.6570   -0.7940   -0.6240 N   0  0  0  0  0  0  0  0  0  0  0  0
   -0.5420   -1.3430    0.2190 C   0  0  0  0  0  0  0  0  0  0  0  0
   -0.7560   -0.0870    0.0980 O   0  0  0  0  0  0  0  0  0  0  0  0
    0.9200   -1.4990    3.1890 C   0  0  0  0  0  0  0  0  0  0  0  0
    1.2130   -0.6550    4.2670 C   0  0  0  0  0  0  0  0  0  0  0  0
    3.1100    0.5410    6.2550 H   0  0  0  0  0  0  0  0  0  0  0  0
    4.2270    0.3530    3.2780 H   0  0  0  0  0  0  0  0  0  0  0  0
    3.7110   -1.1390    1.3690 H   0  0  0  0  0  0  0  0  0  0  0  0
    0.8140   -3.3980    1.3440 H   0  0  0  0  0  0  0  0  0  0  0  0
    2.4030   -3.0400    0.6190 H   0  0  0  0  0  0  0  0  0  0  0  0
    0.6980   -2.6610   -0.9250 H   0  0  0  0  0  0  0  0  0  0  0  0
    1.8620    0.0270   -0.0180 H   0  0  0  0  0  0  0  0  0  0  0  0
   -0.0190   -2.0050    3.1970 H   0  0  0  0  0  0  0  0  0  0  0  0
    0.5310   -0.5050    5.0860 H   0  0  0  0  0  0  0  0  0  0  0  0
   -5.1000    0.1260    0.0440 C   0  0  0  0  0  0  0  0  0  0  0  0
   -5.2120   -1.3830    0.0030 C   0  0  0  0  0  0  0  0  0  0  0  0
   -3.8390   -1.9530   -0.1480 C   0  0  2  0  0  0  0  0  0  0  0  0
   -3.8530   -3.4700   -0.2180 C   0  0  0  0  0  0  0  0  0  0  0  0
   -2.9380   -1.4800    0.9770 C   0  0  2  0  0  0  0  0  0  0  0  0
   -1.6290   -2.1080    0.6690 N   0  0  0  0  0  0  0  0  0  0  0  0
   -3.3950   -1.8620    2.3070 C   0  0  0  0  0  0  0  0  0  0  0  0
   -4.4540   -1.4270    2.7910 O   0  0  0  0  0  0  0  0  0  0  0  0
   -2.6360   -2.7360    3.0630 O   0  0  0  0  0  0  0  0  0  0  0  0
   -5.9110    0.6060   -0.5500 H   0  0  0  0  0  0  0  0  0  0  0  0
   -5.1640    0.5250    1.0570 H   0  0  0  0  0  0  0  0  0  0  0  0
   -4.1340    0.4420   -0.4460 H   0  0  0  0  0  0  0  0  0  0  0  0
   -5.7550   -1.7100    0.9050 H   0  0  0  0  0  0  0  0  0  0  0  0
   -5.8350   -1.6120   -0.9180 H   0  0  0  0  0  0  0  0  0  0  0  0
   -3.4100   -1.5860   -1.0960 H   0  0  0  0  0  0  0  0  0  0  0  0
   -4.7720   -3.8810   -0.6310 H   0  0  0  0  0  0  0  0  0  0  0  0
   -3.7450   -3.8240    0.8340 H   0  0  0  0  0  0  0  0  0  0  0  0
   -2.9840   -3.7730   -0.8350 H   0  0  0  0  0  0  0  0  0  0  0  0
   -2.8780   -0.3830    0.9090 H   0  0  0  0  0  0  0  0  0  0  0  0
   -1.5110   -3.1350    0.7870 H   0  0  0  0  0  0  0  0  0  0  0  0
  1  2  1  0  0  0  0
  1  9  1  0  0  0  0
  1  8  1  0  0  0  0
  2 11  1  1  0  0  0
  3 12  1  0  0  0  0
  3  2  1  0  0  0  0
  4  2  1  0  0  0  0
  4  6  1  0  0  0  0
  4 13  1  1  0  0  0
  5  4  1  0  0  0  0
  6 23  1  0  0  0  0
  7  6  2  0  0  0  0
 10  1  1  0  0  0  0
 14  5  1  0  0  0  0
 15  5  1  0  0  0  0
 16 28  1  0  0  0  0
 17 16  1  0  0  0  0
 18 29  1  0  0  0  0
 18 17  2  0  0  0  0
 19 18  1  0  0  0  0
 20 19  2  0  0  0  0
 20 26  1  0  0  0  0
 21 31  1  0  0  0  0
 21 20  1  0  0  0  0
 22 33  1  6  0  0  0
 22 24  1  0  0  0  0
 22 21  1  0  0  0  0
 23 22  1  0  0  0  0
 23 34  1  0  0  0  0
 24 42  1  0  0  0  0
 25 24  2  0  0  0  0
 26 35  1  0  0  0  0
 26 27  2  0  0  0  0
 27 17  1  0  0  0  0
 27 36  1  0  0  0  0
 30 19  1  0  0  0  0
 32 21  1  0  0  0  0
 37 47  1  0  0  0  0
 38 37  1  0  0  0  0
 38 49  1  0  0  0  0
 39 51  1  6  0  0  0
 39 38  1  0  0  0  0
 39 41  1  0  0  0  0
 40 39  1  0  0  0  0
 40 53  1  0  0  0  0
 41 55  1  6  0  0  0
 41 43  1  0  0  0  0
 42 56  1  0  0  0  0
 42 41  1  0  0  0  0
 43 44  2  0  0  0  0
 43 45  1  0  0  0  0
 46 37  1  0  0  0  0
 48 37  1  0  0  0  0
 50 38  1  0  0  0  0
 52 40  1  0  0  0  0
 54 40  1  0  0  0  0
M  END
$$$$
