TYL.pdb
 OpenBabel07022419143D

 56 56  0  0  1  0  0  0  0  0999 V2000
    1.9730    0.3710    4.5720 C   0  0  0  0  0  0  0  0  0  0  0  0
    1.6360   -1.0800    4.6520 C   0  0  1  0  0  0  0  0  0  0  0  0
    0.3310   -1.3380    5.0610 O   0  0  0  0  0  0  0  0  0  0  0  0
    1.9930   -1.8410    3.3940 C   0  0  2  0  0  0  0  0  0  0  0  0
    3.3370   -1.5290    3.0330 N   0  0  0  0  0  0  0  0  0  0  0  0
    0.9920   -1.5020    2.3500 C   0  0  0  0  0  0  0  0  0  0  0  0
   -0.2100   -1.7550    2.6170 O   0  0  0  0  0  0  0  0  0  0  0  0
    2.7620    0.6740    5.3220 H   0  0  0  0  0  0  0  0  0  0  0  0
    1.0840    1.0130    4.7860 H   0  0  0  0  0  0  0  0  0  0  0  0
    2.3670    0.6890    3.5980 H   0  0  0  0  0  0  0  0  0  0  0  0
    2.2880   -1.5230    5.4580 H   0  0  0  0  0  0  0  0  0  0  0  0
   -0.2450   -0.5420    5.0740 H   0  0  0  0  0  0  0  0  0  0  0  0
    1.9560   -2.9210    3.6630 H   0  0  0  0  0  0  0  0  0  0  0  0
    3.7870   -0.7690    3.5460 H   0  0  0  0  0  0  0  0  0  0  0  0
    3.6110   -1.6890    2.0610 H   0  0  0  0  0  0  0  0  0  0  0  0
   -1.1660    4.1100    4.2080 O   0  0  0  0  0  0  0  0  0  0  0  0
   -0.8350    3.3110    3.1150 C   0  0  0  0  0  0  0  0  0  0  0  0
    0.4760    3.0310    2.7940 C   0  0  0  0  0  0  0  0  0  0  0  0
    0.8190    2.2420    1.7160 C   0  0  0  0  0  0  0  0  0  0  0  0
   -0.1490    1.6930    0.9010 C   0  0  0  0  0  0  0  0  0  0  0  0
    0.2140    0.8430   -0.2610 C   0  0  0  0  0  0  0  0  0  0  0  0
    0.3020   -0.6050    0.0870 C   0  0  2  0  0  0  0  0  0  0  0  0
    1.2810   -0.9270    1.0980 N   0  0  0  0  0  0  0  0  0  0  0  0
    0.4570   -1.4590   -1.1200 C   0  0  0  0  0  0  0  0  0  0  0  0
    1.3620   -2.3340   -1.1910 O   0  0  0  0  0  0  0  0  0  0  0  0
   -1.4630    1.9730    1.2230 C   0  0  0  0  0  0  0  0  0  0  0  0
   -1.8050    2.7630    2.3020 C   0  0  0  0  0  0  0  0  0  0  0  0
   -2.1040    4.4580    4.3510 H   0  0  0  0  0  0  0  0  0  0  0  0
    1.2600    3.4610    3.4330 H   0  0  0  0  0  0  0  0  0  0  0  0
    1.8670    2.0280    1.4720 H   0  0  0  0  0  0  0  0  0  0  0  0
    1.1570    1.2480   -0.6810 H   0  0  0  0  0  0  0  0  0  0  0  0
   -0.5930    0.9800   -1.0090 H   0  0  0  0  0  0  0  0  0  0  0  0
   -0.6980   -0.8970    0.5250 H   0  0  0  0  0  0  0  0  0  0  0  0
    2.2750   -0.7140    0.8730 H   0  0  0  0  0  0  0  0  0  0  0  0
   -2.2300    1.5460    0.5890 H   0  0  0  0  0  0  0  0  0  0  0  0
   -2.8510    2.9780    2.5480 H   0  0  0  0  0  0  0  0  0  0  0  0
   -3.1500   -4.6960   -3.3140 C   0  0  0  0  0  0  0  0  0  0  0  0
   -1.9230   -3.9410   -2.7510 C   0  0  0  0  0  0  0  0  0  0  0  0
   -2.4630   -3.2000   -1.5420 C   0  0  0  0  0  0  0  0  0  0  0  0
   -1.4450   -2.9540   -3.7770 C   0  0  0  0  0  0  0  0  0  0  0  0
   -0.2530   -2.1540   -3.4170 C   0  0  2  0  0  0  0  0  0  0  0  0
   -0.4070   -1.3270   -2.2500 N   0  0  0  0  0  0  0  0  0  0  0  0
    0.2360   -1.3420   -4.5830 C   0  0  0  0  0  0  0  0  0  0  0  0
    0.4220   -1.9070   -5.6750 O   0  0  0  0  0  0  0  0  0  0  0  0
    0.4740    0.0020   -4.4470 O   0  0  0  0  0  0  0  0  0  0  0  0
   -2.8400   -5.4910   -4.0000 H   0  0  0  0  0  0  0  0  0  0  0  0
   -3.6760   -5.0970   -2.4360 H   0  0  0  0  0  0  0  0  0  0  0  0
   -3.7580   -3.9130   -3.8140 H   0  0  0  0  0  0  0  0  0  0  0  0
   -1.1580   -4.6780   -2.4740 H   0  0  0  0  0  0  0  0  0  0  0  0
   -1.7490   -3.1870   -0.6880 H   0  0  0  0  0  0  0  0  0  0  0  0
   -3.3570   -3.7740   -1.1430 H   0  0  0  0  0  0  0  0  0  0  0  0
   -2.8140   -2.1910   -1.7470 H   0  0  0  0  0  0  0  0  0  0  0  0
   -2.2670   -2.2660   -4.0880 H   0  0  0  0  0  0  0  0  0  0  0  0
   -1.2110   -3.5320   -4.7230 H   0  0  0  0  0  0  0  0  0  0  0  0
    0.5780   -2.8820   -3.2060 H   0  0  0  0  0  0  0  0  0  0  0  0
   -1.1490   -0.5880   -2.1760 H   0  0  0  0  0  0  0  0  0  0  0  0
  1  2  1  0  0  0  0
  1  9  1  0  0  0  0
  1  8  1  0  0  0  0
  2  3  1  0  0  0  0
  2 11  1  1  0  0  0
  3 12  1  0  0  0  0
  4 13  1  1  0  0  0
  4  2  1  0  0  0  0
  5  4  1  0  0  0  0
  5 14  1  0  0  0  0
  6  7  2  0  0  0  0
  6  4  1  0  0  0  0
 10  1  1  0  0  0  0
 15  5  1  0  0  0  0
 16 28  1  0  0  0  0
 17 16  1  0  0  0  0
 18 17  1  0  0  0  0
 18 29  1  0  0  0  0
 19 18  2  0  0  0  0
 20 26  2  0  0  0  0
 20 19  1  0  0  0  0
 21 22  1  0  0  0  0
 21 20  1  0  0  0  0
 22 33  1  1  0  0  0
 22 23  1  0  0  0  0
 23  6  1  0  0  0  0
 24 22  1  0  0  0  0
 25 24  2  0  0  0  0
 26 27  1  0  0  0  0
 27 36  1  0  0  0  0
 27 17  2  0  0  0  0
 30 19  1  0  0  0  0
 31 21  1  0  0  0  0
 32 21  1  0  0  0  0
 34 23  1  0  0  0  0
 35 26  1  0  0  0  0
 37 38  1  0  0  0  0
 37 47  1  0  0  0  0
 38 49  1  0  0  0  0
 38 39  1  0  0  0  0
 39 51  1  0  0  0  0
 39 50  1  0  0  0  0
 40 41  1  0  0  0  0
 40 38  1  0  0  0  0
 41 55  1  1  0  0  0
 41 42  1  0  0  0  0
 42 56  1  0  0  0  0
 42 24  1  0  0  0  0
 43 45  1  0  0  0  0
 43 41  1  0  0  0  0
 44 43  2  0  0  0  0
 46 37  1  0  0  0  0
 48 37  1  0  0  0  0
 52 39  1  0  0  0  0
 53 40  1  0  0  0  0
 54 40  1  0  0  0  0
M  END
$$$$
