TYM.pdb
 OpenBabel07022419143D

 54 54  0  0  1  0  0  0  0  0999 V2000
    3.1850   -3.3470    1.5690 C   0  0  0  0  0  0  0  0  0  0  0  0
    3.8460   -2.4120    0.5770 C   0  0  1  0  0  0  0  0  0  0  0  0
    3.1670   -2.4480   -0.6150 O   0  0  0  0  0  0  0  0  0  0  0  0
    3.9650   -1.0310    1.1750 C   0  0  2  0  0  0  0  0  0  0  0  0
    4.7090   -1.1760    2.4120 N   0  0  0  0  0  0  0  0  0  0  0  0
    2.6860   -0.3780    1.4580 C   0  0  0  0  0  0  0  0  0  0  0  0
    2.4210   -0.0150    2.6540 O   0  0  0  0  0  0  0  0  0  0  0  0
    3.0490   -4.3440    1.1160 H   0  0  0  0  0  0  0  0  0  0  0  0
    3.8350   -3.4700    2.4590 H   0  0  0  0  0  0  0  0  0  0  0  0
    2.2220   -2.9150    1.9440 H   0  0  0  0  0  0  0  0  0  0  0  0
    4.8760   -2.7860    0.4210 H   0  0  0  0  0  0  0  0  0  0  0  0
    2.6710   -3.2770   -0.7650 H   0  0  0  0  0  0  0  0  0  0  0  0
    4.6150   -0.4440    0.4910 H   0  0  0  0  0  0  0  0  0  0  0  0
    4.3770   -0.5330    3.1520 H   0  0  0  0  0  0  0  0  0  0  0  0
    5.7290   -1.2110    2.2830 H   0  0  0  0  0  0  0  0  0  0  0  0
   -4.6320    4.4190    1.8140 O   0  0  0  0  0  0  0  0  0  0  0  0
   -3.4630    3.7780    1.4120 C   0  0  0  0  0  0  0  0  0  0  0  0
   -2.2800    3.9120    2.1090 C   0  0  0  0  0  0  0  0  0  0  0  0
   -1.1210    3.2800    1.7150 C   0  0  0  0  0  0  0  0  0  0  0  0
   -1.0800    2.4590    0.5790 C   0  0  0  0  0  0  0  0  0  0  0  0
    0.1850    1.8130    0.1600 C   0  0  0  0  0  0  0  0  0  0  0  0
    0.4370    0.5580    0.8820 C   0  0  2  0  0  0  0  0  0  0  0  0
    1.6800   -0.0990    0.5090 N   0  0  0  0  0  0  0  0  0  0  0  0
   -0.6750   -0.4070    0.7240 C   0  0  0  0  0  0  0  0  0  0  0  0
   -1.8870   -0.1540    0.9230 O   0  0  0  0  0  0  0  0  0  0  0  0
   -2.2620    2.3320   -0.1080 C   0  0  0  0  0  0  0  0  0  0  0  0
   -3.4390    2.9760    0.2940 C   0  0  0  0  0  0  0  0  0  0  0  0
   -4.6450    5.1290    2.5330 H   0  0  0  0  0  0  0  0  0  0  0  0
   -2.3140    4.5550    2.9970 H   0  0  0  0  0  0  0  0  0  0  0  0
   -0.2000    3.3910    2.2670 H   0  0  0  0  0  0  0  0  0  0  0  0
    0.9790    2.5830    0.2730 H   0  0  0  0  0  0  0  0  0  0  0  0
    0.1290    1.6500   -0.9520 H   0  0  0  0  0  0  0  0  0  0  0  0
    0.4570    0.8010    1.9880 H   0  0  0  0  0  0  0  0  0  0  0  0
    1.8480   -0.3770   -0.4790 H   0  0  0  0  0  0  0  0  0  0  0  0
   -2.2810    1.7120   -1.0090 H   0  0  0  0  0  0  0  0  0  0  0  0
   -4.3630    2.8550   -0.2720 H   0  0  0  0  0  0  0  0  0  0  0  0
   -2.6820   -0.8430   -2.3070 C   0  0  0  0  0  0  0  0  0  0  0  0
   -2.4050   -2.4720   -3.0010 S   0  0  0  0  0  0  0  0  0  0  0  0
   -1.0260   -3.3540   -2.2590 C   0  0  0  0  0  0  0  0  0  0  0  0
   -1.2550   -3.7800   -0.8490 C   0  0  0  0  0  0  0  0  0  0  0  0
   -1.4890   -2.7180    0.1590 C   0  0  2  0  0  0  0  0  0  0  0  0
   -0.4140   -1.7680    0.3140 N   0  0  0  0  0  0  0  0  0  0  0  0
   -1.5980   -3.4090    1.5220 C   0  0  0  0  0  0  0  0  0  0  0  0
   -0.8340   -3.0770    2.4350 O   0  0  0  0  0  0  0  0  0  0  0  0
   -2.5490   -4.3970    1.7190 O   0  0  0  0  0  0  0  0  0  0  0  0
   -1.7320   -0.3910   -1.9320 H   0  0  0  0  0  0  0  0  0  0  0  0
   -3.0900   -0.1630   -3.1150 H   0  0  0  0  0  0  0  0  0  0  0  0
   -3.4650   -0.8270   -1.5340 H   0  0  0  0  0  0  0  0  0  0  0  0
   -0.0770   -2.7650   -2.3520 H   0  0  0  0  0  0  0  0  0  0  0  0
   -0.8730   -4.2700   -2.8910 H   0  0  0  0  0  0  0  0  0  0  0  0
   -2.1260   -4.5060   -0.8100 H   0  0  0  0  0  0  0  0  0  0  0  0
   -0.3770   -4.3980   -0.4770 H   0  0  0  0  0  0  0  0  0  0  0  0
   -2.4900   -2.2370    0.0690 H   0  0  0  0  0  0  0  0  0  0  0  0
    0.5660   -2.0410    0.1360 H   0  0  0  0  0  0  0  0  0  0  0  0
  1 10  1  0  0  0  0
  1  9  1  0  0  0  0
  2 11  1  6  0  0  0
  2  4  1  0  0  0  0
  2  1  1  0  0  0  0
  3  2  1  0  0  0  0
  4 13  1  6  0  0  0
  4  6  1  0  0  0  0
  4  5  1  0  0  0  0
  5 14  1  0  0  0  0
  6  7  2  0  0  0  0
  8  1  1  0  0  0  0
 12  3  1  0  0  0  0
 15  5  1  0  0  0  0
 16 28  1  0  0  0  0
 17 16  1  0  0  0  0
 17 18  1  0  0  0  0
 18 29  1  0  0  0  0
 19 18  2  0  0  0  0
 19 30  1  0  0  0  0
 20 19  1  0  0  0  0
 21 31  1  0  0  0  0
 21 20  1  0  0  0  0
 21 22  1  0  0  0  0
 22 33  1  1  0  0  0
 23 22  1  0  0  0  0
 23  6  1  0  0  0  0
 24 22  1  0  0  0  0
 24 25  2  0  0  0  0
 26 27  1  0  0  0  0
 26 20  2  0  0  0  0
 27 17  2  0  0  0  0
 32 21  1  0  0  0  0
 34 23  1  0  0  0  0
 35 26  1  0  0  0  0
 36 27  1  0  0  0  0
 37 46  1  0  0  0  0
 37 48  1  0  0  0  0
 38 37  1  0  0  0  0
 38 39  1  0  0  0  0
 39 40  1  0  0  0  0
 40 51  1  0  0  0  0
 40 52  1  0  0  0  0
 40 41  1  0  0  0  0
 41 53  1  6  0  0  0
 41 42  1  0  0  0  0
 41 43  1  0  0  0  0
 42 24  1  0  0  0  0
 43 45  2  0  0  0  0
 43 44  1  0  0  0  0
 47 37  1  0  0  0  0
 49 39  1  0  0  0  0
 50 39  1  0  0  0  0
 54 42  1  0  0  0  0
M  END
$$$$
