TYS.pdb
 OpenBabel07022419153D

 48 48  0  0  1  0  0  0  0  0999 V2000
    2.8300   -3.7380    3.1440 C   0  0  0  0  0  0  0  0  0  0  0  0
    2.5630   -2.3910    2.5070 C   0  0  1  0  0  0  0  0  0  0  0  0
    2.9730   -2.4680    1.1880 O   0  0  0  0  0  0  0  0  0  0  0  0
    1.0710   -2.1240    2.5940 C   0  0  2  0  0  0  0  0  0  0  0  0
    0.4020   -3.2120    1.9380 N   0  0  0  0  0  0  0  0  0  0  0  0
    0.7470   -0.8100    2.0210 C   0  0  0  0  0  0  0  0  0  0  0  0
    1.2800    0.2120    2.5220 O   0  0  0  0  0  0  0  0  0  0  0  0
    3.0600   -3.5370    4.2180 H   0  0  0  0  0  0  0  0  0  0  0  0
    3.6890   -4.2500    2.6540 H   0  0  0  0  0  0  0  0  0  0  0  0
    1.9190   -4.3330    3.0970 H   0  0  0  0  0  0  0  0  0  0  0  0
    3.0760   -1.5720    3.0650 H   0  0  0  0  0  0  0  0  0  0  0  0
    2.9190   -3.4160    0.8690 H   0  0  0  0  0  0  0  0  0  0  0  0
    0.7380   -2.1180    3.6510 H   0  0  0  0  0  0  0  0  0  0  0  0
    0.6920   -3.3250    0.9380 H   0  0  0  0  0  0  0  0  0  0  0  0
   -0.6190   -3.2180    2.0690 H   0  0  0  0  0  0  0  0  0  0  0  0
    5.0930   -0.8010   -2.4460 O   0  0  0  0  0  0  0  0  0  0  0  0
    3.7840   -0.4440   -2.1120 C   0  0  0  0  0  0  0  0  0  0  0  0
    3.4510    0.8680   -1.8890 C   0  0  0  0  0  0  0  0  0  0  0  0
    2.1810    1.2530   -1.5600 C   0  0  0  0  0  0  0  0  0  0  0  0
    1.1950    0.3140   -1.4460 C   0  0  0  0  0  0  0  0  0  0  0  0
   -0.2020    0.6570   -1.0940 C   0  0  0  0  0  0  0  0  0  0  0  0
   -0.4300    0.6330    0.3990 C   0  0  2  0  0  0  0  0  0  0  0  0
   -0.1510   -0.6810    0.9180 N   0  0  0  0  0  0  0  0  0  0  0  0
   -1.9070    0.8840    0.6030 C   0  0  0  0  0  0  0  0  0  0  0  0
   -2.4180    1.9690    0.2270 O   0  0  0  0  0  0  0  0  0  0  0  0
    1.5290   -1.0140   -1.6710 C   0  0  0  0  0  0  0  0  0  0  0  0
    2.8140   -1.3900   -2.0020 C   0  0  0  0  0  0  0  0  0  0  0  0
    5.8000   -0.7500   -1.7000 H   0  0  0  0  0  0  0  0  0  0  0  0
    4.2610    1.6030   -1.9870 H   0  0  0  0  0  0  0  0  0  0  0  0
    1.9570    2.2840   -1.3930 H   0  0  0  0  0  0  0  0  0  0  0  0
   -0.8630   -0.1440   -1.5200 H   0  0  0  0  0  0  0  0  0  0  0  0
   -0.5510    1.5990   -1.5570 H   0  0  0  0  0  0  0  0  0  0  0  0
    0.1300    1.4020    0.9470 H   0  0  0  0  0  0  0  0  0  0  0  0
   -0.5540   -1.5570    0.5500 H   0  0  0  0  0  0  0  0  0  0  0  0
    0.7300   -1.7620   -1.5770 H   0  0  0  0  0  0  0  0  0  0  0  0
    2.9980   -2.4600   -2.1640 H   0  0  0  0  0  0  0  0  0  0  0  0
   -3.9990    1.9700    2.9280 O   0  0  0  0  0  0  0  0  0  0  0  0
   -4.5270    0.7200    2.7170 C   0  0  0  0  0  0  0  0  0  0  0  0
   -4.1310    0.1040    1.4140 C   0  0  2  0  0  0  0  0  0  0  0  0
   -2.7320   -0.0880    1.2150 N   0  0  0  0  0  0  0  0  0  0  0  0
   -4.8630    0.6750    0.2480 C   0  0  0  0  0  0  0  0  0  0  0  0
   -6.1000    0.9690    0.3820 O   0  0  0  0  0  0  0  0  0  0  0  0
   -4.3370    0.9250   -0.9970 O   0  0  0  0  0  0  0  0  0  0  0  0
   -3.4640    1.9540    3.7600 H   0  0  0  0  0  0  0  0  0  0  0  0
   -5.6380    0.8300    2.7040 H   0  0  0  0  0  0  0  0  0  0  0  0
   -4.3110    0.0060    3.5380 H   0  0  0  0  0  0  0  0  0  0  0  0
   -4.5550   -0.9730    1.4430 H   0  0  0  0  0  0  0  0  0  0  0  0
   -2.2440   -0.9940    1.5300 H   0  0  0  0  0  0  0  0  0  0  0  0
  1  8  1  0  0  0  0
  2  4  1  0  0  0  0
  2 11  1  1  0  0  0
  2  1  1  0  0  0  0
  3  2  1  0  0  0  0
  4 13  1  1  0  0  0
  5 15  1  0  0  0  0
  5  4  1  0  0  0  0
  6  7  2  0  0  0  0
  6  4  1  0  0  0  0
  9  1  1  0  0  0  0
 10  1  1  0  0  0  0
 12  3  1  0  0  0  0
 14  5  1  0  0  0  0
 16 17  1  0  0  0  0
 16 28  1  0  0  0  0
 17 27  2  0  0  0  0
 17 18  1  0  0  0  0
 18 19  2  0  0  0  0
 19 20  1  0  0  0  0
 19 30  1  0  0  0  0
 20 21  1  0  0  0  0
 21 22  1  0  0  0  0
 22 24  1  0  0  0  0
 22 23  1  0  0  0  0
 22 33  1  1  0  0  0
 23  6  1  0  0  0  0
 24 40  1  0  0  0  0
 25 24  2  0  0  0  0
 26 35  1  0  0  0  0
 26 20  2  0  0  0  0
 27 26  1  0  0  0  0
 29 18  1  0  0  0  0
 31 21  1  0  0  0  0
 32 21  1  0  0  0  0
 34 23  1  0  0  0  0
 36 27  1  0  0  0  0
 37 44  1  0  0  0  0
 38 37  1  0  0  0  0
 38 46  1  0  0  0  0
 39 47  1  1  0  0  0
 39 38  1  0  0  0  0
 40 39  1  0  0  0  0
 40 48  1  0  0  0  0
 41 42  1  0  0  0  0
 41 39  1  0  0  0  0
 43 41  2  0  0  0  0
 45 38  1  0  0  0  0
M  END
$$$$
