TYT.pdb
 OpenBabel07022419153D

 51 51  0  0  1  0  0  0  0  0999 V2000
    1.4880    1.1550    5.4500 C   0  0  0  0  0  0  0  0  0  0  0  0
    1.8240   -0.2640    5.1860 C   0  0  1  0  0  0  0  0  0  0  0  0
    0.9830   -1.1060    5.9230 O   0  0  0  0  0  0  0  0  0  0  0  0
    1.9150   -0.6820    3.7620 C   0  0  2  0  0  0  0  0  0  0  0  0
    2.7910    0.1800    3.0270 N   0  0  0  0  0  0  0  0  0  0  0  0
    0.6220   -0.9050    3.0850 C   0  0  0  0  0  0  0  0  0  0  0  0
   -0.3500   -1.4750    3.6540 O   0  0  0  0  0  0  0  0  0  0  0  0
    2.3840    1.8080    5.6470 H   0  0  0  0  0  0  0  0  0  0  0  0
    0.8500    1.6580    4.7200 H   0  0  0  0  0  0  0  0  0  0  0  0
    0.8850    1.1870    6.4110 H   0  0  0  0  0  0  0  0  0  0  0  0
    2.8500   -0.4430    5.6330 H   0  0  0  0  0  0  0  0  0  0  0  0
    0.3940   -0.5360    6.4690 H   0  0  0  0  0  0  0  0  0  0  0  0
    2.4580   -1.6830    3.7870 H   0  0  0  0  0  0  0  0  0  0  0  0
    2.4210    1.1010    2.7910 H   0  0  0  0  0  0  0  0  0  0  0  0
    3.7640    0.1790    3.3940 H   0  0  0  0  0  0  0  0  0  0  0  0
    2.8900    2.9740   -2.9000 O   0  0  0  0  0  0  0  0  0  0  0  0
    1.9180    2.4300   -2.0760 C   0  0  0  0  0  0  0  0  0  0  0  0
    1.8390    2.6570   -0.7230 C   0  0  0  0  0  0  0  0  0  0  0  0
    0.8650    2.1070    0.0760 C   0  0  0  0  0  0  0  0  0  0  0  0
   -0.0910    1.2820   -0.4770 C   0  0  0  0  0  0  0  0  0  0  0  0
   -1.1340    0.6980    0.4140 C   0  0  0  0  0  0  0  0  0  0  0  0
   -0.7440   -0.6240    0.9750 C   0  0  2  0  0  0  0  0  0  0  0  0
    0.4640   -0.4690    1.7520 N   0  0  0  0  0  0  0  0  0  0  0  0
   -0.6380   -1.7110   -0.0220 C   0  0  0  0  0  0  0  0  0  0  0  0
    0.4330   -2.3830   -0.1330 O   0  0  0  0  0  0  0  0  0  0  0  0
   -0.0350    1.0370   -1.8330 C   0  0  0  0  0  0  0  0  0  0  0  0
    0.9510    1.6020   -2.6170 C   0  0  0  0  0  0  0  0  0  0  0  0
    3.8740    2.7390   -2.8320 H   0  0  0  0  0  0  0  0  0  0  0  0
    2.5970    3.3090   -0.2830 H   0  0  0  0  0  0  0  0  0  0  0  0
    0.8450    2.3260    1.1610 H   0  0  0  0  0  0  0  0  0  0  0  0
   -2.1420    0.6820   -0.0860 H   0  0  0  0  0  0  0  0  0  0  0  0
   -1.2570    1.4150    1.2540 H   0  0  0  0  0  0  0  0  0  0  0  0
   -1.5220   -0.9790    1.6990 H   0  0  0  0  0  0  0  0  0  0  0  0
    1.2680   -0.0070    1.2750 H   0  0  0  0  0  0  0  0  0  0  0  0
   -0.8020    0.3740   -2.2680 H   0  0  0  0  0  0  0  0  0  0  0  0
    0.9800    1.3990   -3.6840 H   0  0  0  0  0  0  0  0  0  0  0  0
   -2.1840   -4.8540   -0.1330 C   0  0  0  0  0  0  0  0  0  0  0  0
   -2.5130   -4.2430   -1.4440 C   0  0  1  0  0  0  0  0  0  0  0  0
   -3.7990   -3.7120   -1.4220 O   0  0  0  0  0  0  0  0  0  0  0  0
   -1.5800   -3.1200   -1.8550 C   0  0  2  0  0  0  0  0  0  0  0  0
   -1.7080   -2.0450   -0.8860 N   0  0  0  0  0  0  0  0  0  0  0  0
   -1.9920   -2.7180   -3.2210 C   0  0  0  0  0  0  0  0  0  0  0  0
   -1.9510   -3.5230   -4.1840 O   0  0  0  0  0  0  0  0  0  0  0  0
   -2.4450   -1.4310   -3.5140 O   0  0  0  0  0  0  0  0  0  0  0  0
   -3.1220   -5.0820    0.3980 H   0  0  0  0  0  0  0  0  0  0  0  0
   -1.6810   -5.8250   -0.3290 H   0  0  0  0  0  0  0  0  0  0  0  0
   -1.5450   -4.1910    0.4890 H   0  0  0  0  0  0  0  0  0  0  0  0
   -2.4510   -5.0170   -2.2510 H   0  0  0  0  0  0  0  0  0  0  0  0
   -3.9750   -3.1390   -2.2170 H   0  0  0  0  0  0  0  0  0  0  0  0
   -0.5520   -3.5320   -1.8010 H   0  0  0  0  0  0  0  0  0  0  0  0
   -2.6260   -1.5140   -0.8430 H   0  0  0  0  0  0  0  0  0  0  0  0
  1  8  1  0  0  0  0
  1 10  1  0  0  0  0
  2  1  1  0  0  0  0
  2 11  1  1  0  0  0
  2  3  1  0  0  0  0
  3 12  1  0  0  0  0
  4 13  1  1  0  0  0
  4  2  1  0  0  0  0
  5 15  1  0  0  0  0
  5  4  1  0  0  0  0
  6  7  2  0  0  0  0
  6  4  1  0  0  0  0
  9  1  1  0  0  0  0
 14  5  1  0  0  0  0
 16 28  1  0  0  0  0
 16 17  1  0  0  0  0
 17 18  1  0  0  0  0
 18 29  1  0  0  0  0
 18 19  2  0  0  0  0
 19 30  1  0  0  0  0
 20 19  1  0  0  0  0
 20 21  1  0  0  0  0
 21 22  1  0  0  0  0
 21 32  1  0  0  0  0
 22 33  1  1  0  0  0
 22 23  1  0  0  0  0
 23  6  1  0  0  0  0
 24 22  1  0  0  0  0
 25 24  2  0  0  0  0
 26 20  2  0  0  0  0
 27 17  2  0  0  0  0
 27 26  1  0  0  0  0
 31 21  1  0  0  0  0
 34 23  1  0  0  0  0
 35 26  1  0  0  0  0
 36 27  1  0  0  0  0
 37 45  1  0  0  0  0
 37 47  1  0  0  0  0
 38 48  1  6  0  0  0
 38 39  1  0  0  0  0
 38 37  1  0  0  0  0
 40 50  1  6  0  0  0
 40 38  1  0  0  0  0
 40 41  1  0  0  0  0
 41 51  1  0  0  0  0
 41 24  1  0  0  0  0
 42 40  1  0  0  0  0
 43 42  2  0  0  0  0
 44 42  1  0  0  0  0
 46 37  1  0  0  0  0
 49 39  1  0  0  0  0
M  END
$$$$
