TYW.pdb
 OpenBabel07022419153D

 61 63  0  0  1  0  0  0  0  0999 V2000
    1.0480   -1.7780    3.6850 C   0  0  0  0  0  0  0  0  0  0  0  0
    2.0330   -0.8180    4.2790 C   0  0  1  0  0  0  0  0  0  0  0  0
    3.0800   -1.5110    4.9200 O   0  0  0  0  0  0  0  0  0  0  0  0
    2.6610    0.0910    3.2290 C   0  0  2  0  0  0  0  0  0  0  0  0
    3.5740    0.9520    4.0290 N   0  0  0  0  0  0  0  0  0  0  0  0
    1.6070    0.9380    2.6280 C   0  0  0  0  0  0  0  0  0  0  0  0
    1.4410    2.0900    3.1800 O   0  0  0  0  0  0  0  0  0  0  0  0
    0.0230   -1.3700    3.7880 H   0  0  0  0  0  0  0  0  0  0  0  0
    1.2350   -2.0400    2.6450 H   0  0  0  0  0  0  0  0  0  0  0  0
    1.0500   -2.6940    4.3350 H   0  0  0  0  0  0  0  0  0  0  0  0
    1.5490   -0.1540    5.0210 H   0  0  0  0  0  0  0  0  0  0  0  0
    2.9080   -1.5400    5.8790 H   0  0  0  0  0  0  0  0  0  0  0  0
    3.2280   -0.4810    2.4750 H   0  0  0  0  0  0  0  0  0  0  0  0
    3.1590    1.0990    4.9980 H   0  0  0  0  0  0  0  0  0  0  0  0
    3.5220    1.8980    3.5860 H   0  0  0  0  0  0  0  0  0  0  0  0
    1.6610   -1.0170   -4.6900 O   0  0  0  0  0  0  0  0  0  0  0  0
    1.2930   -0.2300   -3.5940 C   0  0  0  0  0  0  0  0  0  0  0  0
    2.2240    0.1540   -2.6530 C   0  0  0  0  0  0  0  0  0  0  0  0
    1.8200    0.9300   -1.5870 C   0  0  0  0  0  0  0  0  0  0  0  0
    0.4980    1.3450   -1.4200 C   0  0  0  0  0  0  0  0  0  0  0  0
    0.2040    2.1670   -0.2660 C   0  0  0  0  0  0  0  0  0  0  0  0
   -0.1700    1.4620    1.0070 C   0  0  2  0  0  0  0  0  0  0  0  0
    0.8130    0.5790    1.5310 N   0  0  0  0  0  0  0  0  0  0  0  0
   -1.5310    0.9230    0.9290 C   0  0  0  0  0  0  0  0  0  0  0  0
   -2.4830    1.5980    0.4010 O   0  0  0  0  0  0  0  0  0  0  0  0
   -0.4150    0.9500   -2.3710 C   0  0  0  0  0  0  0  0  0  0  0  0
   -0.0070    0.1890   -3.4120 C   0  0  0  0  0  0  0  0  0  0  0  0
    1.5840   -0.6220   -5.6120 H   0  0  0  0  0  0  0  0  0  0  0  0
    3.2620   -0.1640   -2.7740 H   0  0  0  0  0  0  0  0  0  0  0  0
    2.5900    1.2030   -0.8800 H   0  0  0  0  0  0  0  0  0  0  0  0
    1.0870    2.8060   -0.0320 H   0  0  0  0  0  0  0  0  0  0  0  0
   -0.6160    2.8910   -0.4980 H   0  0  0  0  0  0  0  0  0  0  0  0
   -0.2400    2.3230    1.7670 H   0  0  0  0  0  0  0  0  0  0  0  0
    0.9320   -0.3420    1.0710 H   0  0  0  0  0  0  0  0  0  0  0  0
   -1.4410    1.2910   -2.2120 H   0  0  0  0  0  0  0  0  0  0  0  0
   -0.7290   -0.1180   -4.1580 H   0  0  0  0  0  0  0  0  0  0  0  0
   -1.9460   -0.3690    1.4170 N   0  0  0  0  0  0  0  0  0  0  0  0
   -3.3060   -0.8090    1.3010 C   0  0  1  0  0  0  0  0  0  0  0  0
   -3.4120   -2.2250    0.8690 C   0  0  0  0  0  0  0  0  0  0  0  0
   -2.7940   -2.4610   -0.4470 C   0  0  0  0  0  0  0  0  0  0  0  0
   -3.4930   -2.3830   -1.6540 C   0  0  0  0  0  0  0  0  0  0  0  0
   -2.6650   -2.6070   -2.6780 N   0  0  0  0  0  0  0  0  0  0  0  0
   -1.4500   -2.8280   -2.1650 C   0  0  0  0  0  0  0  0  0  0  0  0
   -0.2510   -3.1220   -2.7760 C   0  0  0  0  0  0  0  0  0  0  0  0
    0.8880   -3.3320   -2.0110 C   0  0  0  0  0  0  0  0  0  0  0  0
    0.8480   -3.2520   -0.6480 C   0  0  0  0  0  0  0  0  0  0  0  0
   -0.3520   -2.9560   -0.0200 C   0  0  0  0  0  0  0  0  0  0  0  0
   -1.4840   -2.7470   -0.7870 C   0  0  0  0  0  0  0  0  0  0  0  0
   -3.9850   -0.7600    2.6660 C   0  0  0  0  0  0  0  0  0  0  0  0
   -5.1740   -1.0820    2.8220 O   0  0  0  0  0  0  0  0  0  0  0  0
   -3.2040   -0.3390    3.7250 O   0  0  0  0  0  0  0  0  0  0  0  0
   -1.2110   -0.9420    1.8590 H   0  0  0  0  0  0  0  0  0  0  0  0
   -3.9070   -0.1090    0.6520 H   0  0  0  0  0  0  0  0  0  0  0  0
   -2.8030   -2.8260    1.6090 H   0  0  0  0  0  0  0  0  0  0  0  0
   -4.4760   -2.5990    0.8930 H   0  0  0  0  0  0  0  0  0  0  0  0
   -4.5520   -2.1710   -1.7080 H   0  0  0  0  0  0  0  0  0  0  0  0
   -2.8840   -2.6170   -3.7050 H   0  0  0  0  0  0  0  0  0  0  0  0
   -0.2210   -3.1850   -3.8560 H   0  0  0  0  0  0  0  0  0  0  0  0
    1.8080   -3.5590   -2.5280 H   0  0  0  0  0  0  0  0  0  0  0  0
    1.7620   -3.4230   -0.0870 H   0  0  0  0  0  0  0  0  0  0  0  0
   -0.4030   -2.9080    1.0440 H   0  0  0  0  0  0  0  0  0  0  0  0
  1  8  1  0  0  0  0
  1  2  1  0  0  0  0
  1 10  1  0  0  0  0
  2  3  1  0  0  0  0
  2 11  1  1  0  0  0
  3 12  1  0  0  0  0
  4 13  1  6  0  0  0
  4  5  1  0  0  0  0
  4  2  1  0  0  0  0
  5 14  1  0  0  0  0
  6  7  2  0  0  0  0
  6  4  1  0  0  0  0
  9  1  1  0  0  0  0
 15  5  1  0  0  0  0
 16 17  1  0  0  0  0
 17 27  2  0  0  0  0
 17 18  1  0  0  0  0
 18 19  2  0  0  0  0
 19 20  1  0  0  0  0
 19 30  1  0  0  0  0
 20 21  1  0  0  0  0
 21 31  1  0  0  0  0
 21 22  1  0  0  0  0
 22 23  1  0  0  0  0
 22 33  1  1  0  0  0
 23  6  1  0  0  0  0
 24 22  1  0  0  0  0
 24 37  1  0  0  0  0
 25 24  2  0  0  0  0
 26 35  1  0  0  0  0
 26 20  2  0  0  0  0
 27 26  1  0  0  0  0
 28 16  1  0  0  0  0
 29 18  1  0  0  0  0
 32 21  1  0  0  0  0
 34 23  1  0  0  0  0
 36 27  1  0  0  0  0
 37 52  1  0  0  0  0
 38 53  1  6  0  0  0
 38 37  1  0  0  0  0
 38 49  1  0  0  0  0
 39 55  1  0  0  0  0
 39 38  1  0  0  0  0
 39 54  1  0  0  0  0
 40 39  1  0  0  0  0
 41 40  2  0  0  0  0
 42 43  1  0  0  0  0
 42 41  1  0  0  0  0
 43 48  1  0  0  0  0
 44 43  2  0  0  0  0
 44 45  1  0  0  0  0
 45 46  2  0  0  0  0
 46 60  1  0  0  0  0
 46 47  1  0  0  0  0
 47 61  1  0  0  0  0
 48 40  1  0  0  0  0
 48 47  2  0  0  0  0
 49 50  2  0  0  0  0
 49 51  1  0  0  0  0
 56 41  1  0  0  0  0
 57 42  1  0  0  0  0
 58 44  1  0  0  0  0
 59 45  1  0  0  0  0
M  END
$$$$
