VAD.pdb
 OpenBabel07022419243D

 41 40  0  0  1  0  0  0  0  0999 V2000
   -1.8060    3.4820    2.2280 C   0  0  0  0  0  0  0  0  0  0  0  0
   -0.7390    3.1750    3.2440 C   0  0  0  0  0  0  0  0  0  0  0  0
   -1.2730    2.3840    4.4090 C   0  0  0  0  0  0  0  0  0  0  0  0
    0.4510    2.4690    2.6620 C   0  0  2  0  0  0  0  0  0  0  0  0
    1.0620    3.3050    1.6220 N   0  0  0  0  0  0  0  0  0  0  0  0
    0.1110    1.1280    2.1200 C   0  0  0  0  0  0  0  0  0  0  0  0
   -0.4260    0.3220    2.9400 O   0  0  0  0  0  0  0  0  0  0  0  0
   -2.2160    4.5090    2.3610 H   0  0  0  0  0  0  0  0  0  0  0  0
   -1.4790    3.3840    1.1870 H   0  0  0  0  0  0  0  0  0  0  0  0
   -2.6350    2.7430    2.4070 H   0  0  0  0  0  0  0  0  0  0  0  0
   -0.3690    4.1600    3.6230 H   0  0  0  0  0  0  0  0  0  0  0  0
   -2.1270    1.7910    4.0450 H   0  0  0  0  0  0  0  0  0  0  0  0
   -0.4790    1.7120    4.8180 H   0  0  0  0  0  0  0  0  0  0  0  0
   -1.5480    3.0630    5.2450 H   0  0  0  0  0  0  0  0  0  0  0  0
    1.2140    2.3940    3.4630 H   0  0  0  0  0  0  0  0  0  0  0  0
    1.3210    4.2030    2.1020 H   0  0  0  0  0  0  0  0  0  0  0  0
    1.9950    2.8480    1.4010 H   0  0  0  0  0  0  0  0  0  0  0  0
   -1.0210   -0.4300   -0.8130 C   0  0  0  0  0  0  0  0  0  0  0  0
    0.0370   -0.5260    0.2620 C   0  0  2  0  0  0  0  0  0  0  0  0
    0.3680    0.7660    0.7720 N   0  0  0  0  0  0  0  0  0  0  0  0
    1.2270   -1.2960   -0.1790 C   0  0  0  0  0  0  0  0  0  0  0  0
    2.4030   -0.8510   -0.1060 O   0  0  0  0  0  0  0  0  0  0  0  0
   -1.6510    0.4650   -0.5420 H   0  0  0  0  0  0  0  0  0  0  0  0
   -1.7280   -1.2990   -0.7480 H   0  0  0  0  0  0  0  0  0  0  0  0
   -0.6270   -0.3760   -1.8260 H   0  0  0  0  0  0  0  0  0  0  0  0
   -0.4290   -1.1360    1.0900 H   0  0  0  0  0  0  0  0  0  0  0  0
    0.8120    1.4850    0.1630 H   0  0  0  0  0  0  0  0  0  0  0  0
    1.0740   -2.6140   -0.7180 N   0  0  0  0  0  0  0  0  0  0  0  0
    2.1870   -3.4090   -1.1610 C   0  0  1  0  0  0  0  0  0  0  0  0
    2.4060   -4.6640   -0.3590 C   0  0  0  0  0  0  0  0  0  0  0  0
    1.2540   -5.5880   -0.3860 C   0  0  0  0  0  0  0  0  0  0  0  0
    0.2380   -5.2820   -1.0480 O   0  0  0  0  0  0  0  0  0  0  0  0
    2.0740   -3.8080   -2.5790 C   0  0  0  0  0  0  0  0  0  0  0  0
    1.0900   -3.4560   -3.2570 O   0  0  0  0  0  0  0  0  0  0  0  0
    1.2590   -6.7860    0.3000 O   0  0  0  0  0  0  0  0  0  0  0  0
    3.0610   -4.5720   -3.1570 O   0  0  0  0  0  0  0  0  0  0  0  0
    0.1010   -2.9830   -0.7790 H   0  0  0  0  0  0  0  0  0  0  0  0
    3.1080   -2.7740   -0.9920 H   0  0  0  0  0  0  0  0  0  0  0  0
    2.7130   -4.4150    0.6890 H   0  0  0  0  0  0  0  0  0  0  0  0
    3.3200   -5.1510   -0.8020 H   0  0  0  0  0  0  0  0  0  0  0  0
    0.4160   -7.3460    0.4480 H   0  0  0  0  0  0  0  0  0  0  0  0
  1  8  1  0  0  0  0
  1 10  1  0  0  0  0
  1  2  1  0  0  0  0
  2 11  1  0  0  0  0
  2  3  1  0  0  0  0
  3 13  1  0  0  0  0
  3 14  1  0  0  0  0
  4  2  1  0  0  0  0
  4 15  1  1  0  0  0
  5 16  1  0  0  0  0
  5  4  1  0  0  0  0
  6  4  1  0  0  0  0
  6  7  2  0  0  0  0
  9  1  1  0  0  0  0
 12  3  1  0  0  0  0
 17  5  1  0  0  0  0
 18 24  1  0  0  0  0
 18 23  1  0  0  0  0
 18 19  1  0  0  0  0
 19 20  1  0  0  0  0
 19 26  1  1  0  0  0
 20  6  1  0  0  0  0
 21 22  2  0  0  0  0
 21 19  1  0  0  0  0
 25 18  1  0  0  0  0
 27 20  1  0  0  0  0
 28 21  1  0  0  0  0
 29 38  1  1  0  0  0
 29 28  1  0  0  0  0
 29 30  1  0  0  0  0
 30 39  1  0  0  0  0
 31 30  1  0  0  0  0
 31 35  1  0  0  0  0
 32 31  2  0  0  0  0
 33 29  1  0  0  0  0
 34 33  2  0  0  0  0
 35 41  1  0  0  0  0
 36 33  1  0  0  0  0
 37 28  1  0  0  0  0
 40 30  1  0  0  0  0
M  END
$$$$
