VAF.pdb
 OpenBabel07022419243D

 48 48  0  0  1  0  0  0  0  0999 V2000
    3.6570   -4.8270   -0.0670 C   0  0  0  0  0  0  0  0  0  0  0  0
    2.3720   -5.2230    0.5800 C   0  0  0  0  0  0  0  0  0  0  0  0
    2.6590   -5.7880    1.9350 C   0  0  0  0  0  0  0  0  0  0  0  0
    1.3430   -4.1190    0.6150 C   0  0  2  0  0  0  0  0  0  0  0  0
    1.0220   -3.6890   -0.7290 N   0  0  0  0  0  0  0  0  0  0  0  0
    1.7440   -2.9730    1.4460 C   0  0  0  0  0  0  0  0  0  0  0  0
    2.0760   -3.0660    2.6530 O   0  0  0  0  0  0  0  0  0  0  0  0
    4.3930   -4.3780    0.6450 H   0  0  0  0  0  0  0  0  0  0  0  0
    4.1500   -5.7770   -0.4280 H   0  0  0  0  0  0  0  0  0  0  0  0
    3.5240   -4.2060   -0.9700 H   0  0  0  0  0  0  0  0  0  0  0  0
    1.9210   -6.0450   -0.0350 H   0  0  0  0  0  0  0  0  0  0  0  0
    3.6540   -5.4500    2.2890 H   0  0  0  0  0  0  0  0  0  0  0  0
    1.8490   -5.4540    2.6220 H   0  0  0  0  0  0  0  0  0  0  0  0
    2.6670   -6.8920    1.9160 H   0  0  0  0  0  0  0  0  0  0  0  0
    0.4090   -4.5780    1.0300 H   0  0  0  0  0  0  0  0  0  0  0  0
    1.1380   -4.4880   -1.3960 H   0  0  0  0  0  0  0  0  0  0  0  0
    0.0190   -3.4050   -0.7960 H   0  0  0  0  0  0  0  0  0  0  0  0
    3.4140    0.0780    1.0840 C   0  0  0  0  0  0  0  0  0  0  0  0
    2.1510   -0.5290    1.6510 C   0  0  2  0  0  0  0  0  0  0  0  0
    1.7640   -1.6780    0.8710 N   0  0  0  0  0  0  0  0  0  0  0  0
    1.0630    0.4660    1.7840 C   0  0  0  0  0  0  0  0  0  0  0  0
    1.2370    1.5290    2.4350 O   0  0  0  0  0  0  0  0  0  0  0  0
    3.3910    1.1690    1.0280 H   0  0  0  0  0  0  0  0  0  0  0  0
    3.5790   -0.3050    0.0550 H   0  0  0  0  0  0  0  0  0  0  0  0
    4.3170   -0.2230    1.6840 H   0  0  0  0  0  0  0  0  0  0  0  0
    2.3930   -0.8810    2.6720 H   0  0  0  0  0  0  0  0  0  0  0  0
    1.5030   -1.4990   -0.1330 H   0  0  0  0  0  0  0  0  0  0  0  0
   -0.2250    0.3060    1.2060 N   0  0  0  0  0  0  0  0  0  0  0  0
   -1.2960    1.2900    1.3410 C   0  0  1  0  0  0  0  0  0  0  0  0
   -1.6430    1.6710   -0.0730 C   0  0  0  0  0  0  0  0  0  0  0  0
   -2.7100    2.6600   -0.2210 C   0  0  0  0  0  0  0  0  0  0  0  0
   -4.0430    2.3430   -0.3710 C   0  0  0  0  0  0  0  0  0  0  0  0
   -5.0180    3.3190   -0.5020 C   0  0  0  0  0  0  0  0  0  0  0  0
   -4.6990    4.6590   -0.4870 C   0  0  0  0  0  0  0  0  0  0  0  0
   -3.3700    4.9910   -0.3380 C   0  0  0  0  0  0  0  0  0  0  0  0
   -2.4030    4.0170   -0.2080 C   0  0  0  0  0  0  0  0  0  0  0  0
   -2.4920    0.6770    1.9660 C   0  0  0  0  0  0  0  0  0  0  0  0
   -2.4500   -0.5630    2.2660 O   0  0  0  0  0  0  0  0  0  0  0  0
   -3.6490    1.3450    2.2510 O   0  0  0  0  0  0  0  0  0  0  0  0
   -0.4410   -0.5480    0.6550 H   0  0  0  0  0  0  0  0  0  0  0  0
   -0.9650    2.1600    1.9450 H   0  0  0  0  0  0  0  0  0  0  0  0
   -1.8640    0.7160   -0.6150 H   0  0  0  0  0  0  0  0  0  0  0  0
   -0.7220    2.0900   -0.5570 H   0  0  0  0  0  0  0  0  0  0  0  0
   -4.3170    1.2950   -0.3900 H   0  0  0  0  0  0  0  0  0  0  0  0
   -6.0560    3.0570   -0.6180 H   0  0  0  0  0  0  0  0  0  0  0  0
   -5.4580    5.4230   -0.5890 H   0  0  0  0  0  0  0  0  0  0  0  0
   -3.1360    6.0600   -0.3290 H   0  0  0  0  0  0  0  0  0  0  0  0
   -1.3600    4.3030   -0.0910 H   0  0  0  0  0  0  0  0  0  0  0  0
  1  2  1  0  0  0  0
  1  8  1  0  0  0  0
  2  4  1  0  0  0  0
  2  3  1  0  0  0  0
  3 12  1  0  0  0  0
  3 13  1  0  0  0  0
  4 15  1  1  0  0  0
  4  6  1  0  0  0  0
  5  4  1  0  0  0  0
  6  7  2  0  0  0  0
  9  1  1  0  0  0  0
 10  1  1  0  0  0  0
 11  2  1  0  0  0  0
 14  3  1  0  0  0  0
 16  5  1  0  0  0  0
 17  5  1  0  0  0  0
 18 19  1  0  0  0  0
 18 25  1  0  0  0  0
 19 21  1  0  0  0  0
 19 26  1  1  0  0  0
 20  6  1  0  0  0  0
 20 19  1  0  0  0  0
 21 22  2  0  0  0  0
 23 18  1  0  0  0  0
 24 18  1  0  0  0  0
 27 20  1  0  0  0  0
 28 29  1  0  0  0  0
 28 21  1  0  0  0  0
 29 41  1  1  0  0  0
 29 37  1  0  0  0  0
 30 29  1  0  0  0  0
 31 36  1  0  0  0  0
 31 30  1  0  0  0  0
 32 31  2  0  0  0  0
 33 34  2  0  0  0  0
 33 32  1  0  0  0  0
 34 35  1  0  0  0  0
 35 47  1  0  0  0  0
 35 36  2  0  0  0  0
 36 48  1  0  0  0  0
 37 39  2  0  0  0  0
 37 38  1  0  0  0  0
 40 28  1  0  0  0  0
 42 30  1  0  0  0  0
 43 30  1  0  0  0  0
 44 32  1  0  0  0  0
 45 33  1  0  0  0  0
 46 34  1  0  0  0  0
M  END
$$$$
