VAH.pdb
 OpenBabel07022419243D

 45 45  0  0  1  0  0  0  0  0999 V2000
    1.7370   -5.5280    1.8850 C   0  0  0  0  0  0  0  0  0  0  0  0
    2.2970   -4.1300    1.7410 C   0  0  0  0  0  0  0  0  0  0  0  0
    3.3130   -3.9180    2.8130 C   0  0  0  0  0  0  0  0  0  0  0  0
    1.1480   -3.1400    1.8280 C   0  0  2  0  0  0  0  0  0  0  0  0
    0.1980   -3.3840    0.7860 N   0  0  0  0  0  0  0  0  0  0  0  0
    1.6780   -1.7490    1.7170 C   0  0  0  0  0  0  0  0  0  0  0  0
    2.5310   -1.2880    2.5190 O   0  0  0  0  0  0  0  0  0  0  0  0
    2.5340   -6.1580    2.3300 H   0  0  0  0  0  0  0  0  0  0  0  0
    0.8660   -5.5120    2.5930 H   0  0  0  0  0  0  0  0  0  0  0  0
    1.4560   -5.9730    0.9100 H   0  0  0  0  0  0  0  0  0  0  0  0
    2.7560   -4.0580    0.7250 H   0  0  0  0  0  0  0  0  0  0  0  0
    4.2220   -3.3890    2.4520 H   0  0  0  0  0  0  0  0  0  0  0  0
    2.8500   -3.3770    3.6690 H   0  0  0  0  0  0  0  0  0  0  0  0
    3.6630   -4.8940    3.2090 H   0  0  0  0  0  0  0  0  0  0  0  0
    0.6510   -3.3170    2.8030 H   0  0  0  0  0  0  0  0  0  0  0  0
    0.1910   -4.3940    0.5250 H   0  0  0  0  0  0  0  0  0  0  0  0
   -0.7570   -3.1770    1.1550 H   0  0  0  0  0  0  0  0  0  0  0  0
    2.4090    0.7400   -0.7270 C   0  0  0  0  0  0  0  0  0  0  0  0
    1.7660    0.4800    0.5950 C   0  0  2  0  0  0  0  0  0  0  0  0
    1.2340   -0.8770    0.6870 N   0  0  0  0  0  0  0  0  0  0  0  0
    0.6190    1.4230    0.8500 C   0  0  0  0  0  0  0  0  0  0  0  0
    0.7870    2.6660    0.8330 O   0  0  0  0  0  0  0  0  0  0  0  0
    3.0710    1.6090   -0.6720 H   0  0  0  0  0  0  0  0  0  0  0  0
    1.6660    0.8010   -1.5480 H   0  0  0  0  0  0  0  0  0  0  0  0
    3.0520   -0.1390   -0.9650 H   0  0  0  0  0  0  0  0  0  0  0  0
    2.4960    0.6790    1.3900 H   0  0  0  0  0  0  0  0  0  0  0  0
    0.5330   -1.1840   -0.0120 H   0  0  0  0  0  0  0  0  0  0  0  0
   -0.6890    0.9450    1.1180 N   0  0  0  0  0  0  0  0  0  0  0  0
   -1.8380    1.7530    1.3710 C   0  0  1  0  0  0  0  0  0  0  0  0
   -2.8100    1.6220    0.1890 C   0  0  0  0  0  0  0  0  0  0  0  0
   -2.1700    2.0700   -1.0670 C   0  0  0  0  0  0  0  0  0  0  0  0
   -2.1890    3.3510   -1.5600 C   0  0  0  0  0  0  0  0  0  0  0  0
   -1.5090    3.3600   -2.7030 N   0  0  0  0  0  0  0  0  0  0  0  0
   -1.0650    2.0970   -2.9280 C   0  0  0  0  0  0  0  0  0  0  0  0
   -1.4760    1.3120   -1.9180 N   0  0  0  0  0  0  0  0  0  0  0  0
   -2.5360    1.4560    2.6160 C   0  0  0  0  0  0  0  0  0  0  0  0
   -2.1180    0.5540    3.3670 O   0  0  0  0  0  0  0  0  0  0  0  0
   -3.6590    2.1560    2.9880 O   0  0  0  0  0  0  0  0  0  0  0  0
   -0.8230   -0.0900    1.1300 H   0  0  0  0  0  0  0  0  0  0  0  0
   -1.4900    2.8280    1.3130 H   0  0  0  0  0  0  0  0  0  0  0  0
   -3.0990    0.5560    0.1070 H   0  0  0  0  0  0  0  0  0  0  0  0
   -3.7240    2.2070    0.4310 H   0  0  0  0  0  0  0  0  0  0  0  0
   -2.6610    4.2220   -1.1270 H   0  0  0  0  0  0  0  0  0  0  0  0
   -1.3300    4.1650   -3.3340 H   0  0  0  0  0  0  0  0  0  0  0  0
   -0.4910    1.8150   -3.7750 H   0  0  0  0  0  0  0  0  0  0  0  0
  1  8  1  0  0  0  0
  1  9  1  0  0  0  0
  2  4  1  0  0  0  0
  2  1  1  0  0  0  0
  2  3  1  0  0  0  0
  3 14  1  0  0  0  0
  3 13  1  0  0  0  0
  4 15  1  1  0  0  0
  5 17  1  0  0  0  0
  5  4  1  0  0  0  0
  6  4  1  0  0  0  0
  6  7  2  0  0  0  0
 10  1  1  0  0  0  0
 11  2  1  0  0  0  0
 12  3  1  0  0  0  0
 16  5  1  0  0  0  0
 18 23  1  0  0  0  0
 18 19  1  0  0  0  0
 19 20  1  0  0  0  0
 19 21  1  0  0  0  0
 19 26  1  1  0  0  0
 20  6  1  0  0  0  0
 21 28  1  0  0  0  0
 22 21  2  0  0  0  0
 24 18  1  0  0  0  0
 25 18  1  0  0  0  0
 27 20  1  0  0  0  0
 28 39  1  0  0  0  0
 28 29  1  0  0  0  0
 29 40  1  1  0  0  0
 29 36  1  0  0  0  0
 30 42  1  0  0  0  0
 30 29  1  0  0  0  0
 31 30  1  0  0  0  0
 32 43  1  0  0  0  0
 32 31  2  0  0  0  0
 33 32  1  0  0  0  0
 34 33  1  0  0  0  0
 34 35  2  0  0  0  0
 35 31  1  0  0  0  0
 36 38  2  0  0  0  0
 36 37  1  0  0  0  0
 41 30  1  0  0  0  0
 44 33  1  0  0  0  0
 45 34  1  0  0  0  0
M  END
$$$$
