VAM.pdb
 OpenBabel07022419243D

 45 44  0  0  1  0  0  0  0  0999 V2000
   -0.4580   -5.0110    2.1310 C   0  0  0  0  0  0  0  0  0  0  0  0
   -1.4590   -4.3980    1.1820 C   0  0  0  0  0  0  0  0  0  0  0  0
   -1.3470   -5.0020   -0.1880 C   0  0  0  0  0  0  0  0  0  0  0  0
   -1.3480   -2.8970    1.1630 C   0  0  2  0  0  0  0  0  0  0  0  0
   -2.2780   -2.2700    0.2770 N   0  0  0  0  0  0  0  0  0  0  0  0
    0.0480   -2.4280    0.9460 C   0  0  0  0  0  0  0  0  0  0  0  0
    0.9580   -2.9030    1.6460 O   0  0  0  0  0  0  0  0  0  0  0  0
   -0.2840   -4.3390    3.0070 H   0  0  0  0  0  0  0  0  0  0  0  0
   -0.8790   -5.9900    2.4810 H   0  0  0  0  0  0  0  0  0  0  0  0
    0.5120   -5.2260    1.6620 H   0  0  0  0  0  0  0  0  0  0  0  0
   -2.4680   -4.6420    1.5800 H   0  0  0  0  0  0  0  0  0  0  0  0
   -2.1900   -4.5840   -0.7960 H   0  0  0  0  0  0  0  0  0  0  0  0
   -0.3630   -4.7330   -0.6100 H   0  0  0  0  0  0  0  0  0  0  0  0
   -1.5190   -6.0920   -0.1120 H   0  0  0  0  0  0  0  0  0  0  0  0
   -1.6150   -2.5560    2.2070 H   0  0  0  0  0  0  0  0  0  0  0  0
   -2.4550   -1.2720    0.5650 H   0  0  0  0  0  0  0  0  0  0  0  0
   -3.1980   -2.7590    0.3830 H   0  0  0  0  0  0  0  0  0  0  0  0
    2.0160   -1.2520   -1.7560 C   0  0  0  0  0  0  0  0  0  0  0  0
    1.7000   -0.9660   -0.2890 C   0  0  2  0  0  0  0  0  0  0  0  0
    0.3550   -1.4500   -0.0450 N   0  0  0  0  0  0  0  0  0  0  0  0
    1.7970    0.5060   -0.1310 C   0  0  0  0  0  0  0  0  0  0  0  0
    2.8460    1.1510   -0.3110 O   0  0  0  0  0  0  0  0  0  0  0  0
    1.7250   -2.2720   -2.0490 H   0  0  0  0  0  0  0  0  0  0  0  0
    3.0800   -1.0290   -1.9490 H   0  0  0  0  0  0  0  0  0  0  0  0
    1.4110   -0.5080   -2.3400 H   0  0  0  0  0  0  0  0  0  0  0  0
    2.4430   -1.4930    0.3520 H   0  0  0  0  0  0  0  0  0  0  0  0
   -0.4540   -1.0970   -0.5990 H   0  0  0  0  0  0  0  0  0  0  0  0
    0.0210    1.9860    3.7370 C   0  0  0  0  0  0  0  0  0  0  0  0
    1.3500    3.1550    3.5850 S   0  0  0  0  0  0  0  0  0  0  0  0
    2.3580    2.9790    2.0970 C   0  0  0  0  0  0  0  0  0  0  0  0
    1.6940    3.3800    0.8250 C   0  0  0  0  0  0  0  0  0  0  0  0
    0.4780    2.5960    0.4770 C   0  0  2  0  0  0  0  0  0  0  0  0
    0.6260    1.2020    0.2460 N   0  0  0  0  0  0  0  0  0  0  0  0
   -0.2850    3.1930   -0.6280 C   0  0  0  0  0  0  0  0  0  0  0  0
   -0.6840    2.4780   -1.5680 O   0  0  0  0  0  0  0  0  0  0  0  0
   -0.5730    4.5420   -0.6500 O   0  0  0  0  0  0  0  0  0  0  0  0
    0.0360    1.6080    4.8020 H   0  0  0  0  0  0  0  0  0  0  0  0
    0.1200    1.0570    3.1370 H   0  0  0  0  0  0  0  0  0  0  0  0
   -0.9590    2.4910    3.6440 H   0  0  0  0  0  0  0  0  0  0  0  0
    3.2500    3.6560    2.2440 H   0  0  0  0  0  0  0  0  0  0  0  0
    2.7110    1.9080    2.1270 H   0  0  0  0  0  0  0  0  0  0  0  0
    2.4040    3.5070   -0.0190 H   0  0  0  0  0  0  0  0  0  0  0  0
    1.3260    4.4390    1.0050 H   0  0  0  0  0  0  0  0  0  0  0  0
   -0.1470    2.6630    1.4420 H   0  0  0  0  0  0  0  0  0  0  0  0
   -0.2940    0.6530    0.3860 H   0  0  0  0  0  0  0  0  0  0  0  0
  1  9  1  0  0  0  0
  1  8  1  0  0  0  0
  2 11  1  0  0  0  0
  2  1  1  0  0  0  0
  3 14  1  0  0  0  0
  3  2  1  0  0  0  0
  4  2  1  0  0  0  0
  4 15  1  1  0  0  0
  5 17  1  0  0  0  0
  5 16  1  0  0  0  0
  5  4  1  0  0  0  0
  6  4  1  0  0  0  0
  6  7  2  0  0  0  0
 10  1  1  0  0  0  0
 12  3  1  0  0  0  0
 13  3  1  0  0  0  0
 18 19  1  0  0  0  0
 19 21  1  0  0  0  0
 19 20  1  0  0  0  0
 19 26  1  1  0  0  0
 20  6  1  0  0  0  0
 21 33  1  0  0  0  0
 22 21  2  0  0  0  0
 23 18  1  0  0  0  0
 24 18  1  0  0  0  0
 25 18  1  0  0  0  0
 27 20  1  0  0  0  0
 28 37  1  0  0  0  0
 29 28  1  0  0  0  0
 30 41  1  0  0  0  0
 30 40  1  0  0  0  0
 30 29  1  0  0  0  0
 31 43  1  0  0  0  0
 31 30  1  0  0  0  0
 32 31  1  0  0  0  0
 32 44  1  1  0  0  0
 33 45  1  0  0  0  0
 33 32  1  0  0  0  0
 34 32  1  0  0  0  0
 35 34  2  0  0  0  0
 36 34  1  0  0  0  0
 38 28  1  0  0  0  0
 39 28  1  0  0  0  0
 42 31  1  0  0  0  0
M  END
$$$$
