VAP.pdb
 OpenBabel07022419243D

 42 42  0  0  1  0  0  0  0  0999 V2000
   -0.9350   -4.0990   -1.0400 C   0  0  0  0  0  0  0  0  0  0  0  0
    0.3440   -4.1600   -0.2600 C   0  0  0  0  0  0  0  0  0  0  0  0
    1.4740   -4.4440   -1.2220 C   0  0  0  0  0  0  0  0  0  0  0  0
    0.6040   -2.9520    0.5900 C   0  0  2  0  0  0  0  0  0  0  0  0
   -0.4740   -2.8150    1.5390 N   0  0  0  0  0  0  0  0  0  0  0  0
    0.8000   -1.7220   -0.1830 C   0  0  0  0  0  0  0  0  0  0  0  0
    1.6740   -1.6480   -1.0760 O   0  0  0  0  0  0  0  0  0  0  0  0
   -1.7620   -3.5740   -0.5490 H   0  0  0  0  0  0  0  0  0  0  0  0
   -0.7280   -3.6600   -2.0560 H   0  0  0  0  0  0  0  0  0  0  0  0
   -1.3190   -5.1380   -1.2480 H   0  0  0  0  0  0  0  0  0  0  0  0
    0.2760   -5.0480    0.4140 H   0  0  0  0  0  0  0  0  0  0  0  0
    1.2730   -5.4690   -1.6480 H   0  0  0  0  0  0  0  0  0  0  0  0
    1.5140   -3.7590   -2.0710 H   0  0  0  0  0  0  0  0  0  0  0  0
    2.4540   -4.5280   -0.7170 H   0  0  0  0  0  0  0  0  0  0  0  0
    1.5300   -3.1370    1.2170 H   0  0  0  0  0  0  0  0  0  0  0  0
   -1.3830   -2.5530    1.1500 H   0  0  0  0  0  0  0  0  0  0  0  0
   -0.2350   -2.2160    2.3550 H   0  0  0  0  0  0  0  0  0  0  0  0
   -1.1160    1.0310   -1.4320 C   0  0  0  0  0  0  0  0  0  0  0  0
    0.1110    0.6580   -0.6310 C   0  0  2  0  0  0  0  0  0  0  0  0
   -0.0030   -0.5680    0.0600 N   0  0  0  0  0  0  0  0  0  0  0  0
    0.5300    1.8380    0.1420 C   0  0  0  0  0  0  0  0  0  0  0  0
    0.6050    2.9300   -0.5430 O   0  0  0  0  0  0  0  0  0  0  0  0
   -1.8010    0.1720   -1.5830 H   0  0  0  0  0  0  0  0  0  0  0  0
   -0.8560    1.5440   -2.3800 H   0  0  0  0  0  0  0  0  0  0  0  0
   -1.6820    1.7670   -0.8210 H   0  0  0  0  0  0  0  0  0  0  0  0
    0.9160    0.5020   -1.4200 H   0  0  0  0  0  0  0  0  0  0  0  0
   -0.7270   -0.6680    0.8020 H   0  0  0  0  0  0  0  0  0  0  0  0
    0.8510    1.9120    1.5060 N   0  0  0  0  0  0  0  0  0  0  0  0
    1.2650    3.1710    2.1590 C   0  0  0  0  0  0  0  0  0  0  0  0
    2.0230    2.8040    3.3820 C   0  0  0  0  0  0  0  0  0  0  0  0
    1.9840    1.3130    3.4730 C   0  0  0  0  0  0  0  0  0  0  0  0
    0.8660    0.9060    2.5160 C   0  0  1  0  0  0  0  0  0  0  0  0
   -0.4230    0.7840    3.2350 C   0  0  0  0  0  0  0  0  0  0  0  0
   -0.5840   -0.0560    4.1550 O   0  0  0  0  0  0  0  0  0  0  0  0
   -1.5090    1.5940    2.9200 O   0  0  0  0  0  0  0  0  0  0  0  0
    0.3390    3.7490    2.3720 H   0  0  0  0  0  0  0  0  0  0  0  0
    1.9160    3.6920    1.4320 H   0  0  0  0  0  0  0  0  0  0  0  0
    1.5840    3.2440    4.3070 H   0  0  0  0  0  0  0  0  0  0  0  0
    3.0800    3.1580    3.2810 H   0  0  0  0  0  0  0  0  0  0  0  0
    1.8360    0.9240    4.4820 H   0  0  0  0  0  0  0  0  0  0  0  0
    2.9630    0.9160    3.0970 H   0  0  0  0  0  0  0  0  0  0  0  0
    1.1570   -0.0500    2.1060 H   0  0  0  0  0  0  0  0  0  0  0  0
  1  8  1  0  0  0  0
  1  2  1  0  0  0  0
  2 11  1  0  0  0  0
  2  4  1  0  0  0  0
  3 14  1  0  0  0  0
  3  2  1  0  0  0  0
  4 15  1  1  0  0  0
  4  5  1  0  0  0  0
  5 17  1  0  0  0  0
  6 20  1  0  0  0  0
  6  4  1  0  0  0  0
  7  6  2  0  0  0  0
  9  1  1  0  0  0  0
 10  1  1  0  0  0  0
 12  3  1  0  0  0  0
 13  3  1  0  0  0  0
 16  5  1  0  0  0  0
 18 25  1  0  0  0  0
 18 19  1  0  0  0  0
 19 26  1  6  0  0  0
 19 20  1  0  0  0  0
 19 21  1  0  0  0  0
 20 27  1  0  0  0  0
 21 28  1  0  0  0  0
 22 21  2  0  0  0  0
 23 18  1  0  0  0  0
 24 18  1  0  0  0  0
 28 29  1  0  0  0  0
 28 32  1  0  0  0  0
 29 36  1  0  0  0  0
 29 30  1  0  0  0  0
 30 31  1  0  0  0  0
 30 38  1  0  0  0  0
 31 40  1  0  0  0  0
 32 42  1  6  0  0  0
 32 33  1  0  0  0  0
 32 31  1  0  0  0  0
 33 34  1  0  0  0  0
 35 33  2  0  0  0  0
 37 29  1  0  0  0  0
 39 30  1  0  0  0  0
 41 31  1  0  0  0  0
M  END
$$$$
