VAQ.pdb
 OpenBabel07022419243D

 45 44  0  0  1  0  0  0  0  0999 V2000
   -2.4010   -4.4160    2.5510 C   0  0  0  0  0  0  0  0  0  0  0  0
   -1.5270   -4.9950    1.4610 C   0  0  0  0  0  0  0  0  0  0  0  0
   -0.8870   -6.2810    1.8740 C   0  0  0  0  0  0  0  0  0  0  0  0
   -0.4630   -3.9670    1.1500 C   0  0  2  0  0  0  0  0  0  0  0  0
    0.3130   -3.6970    2.3190 N   0  0  0  0  0  0  0  0  0  0  0  0
   -1.0620   -2.7300    0.5740 C   0  0  0  0  0  0  0  0  0  0  0  0
   -1.7700   -2.8340   -0.4600 O   0  0  0  0  0  0  0  0  0  0  0  0
   -3.4660   -4.6690    2.3460 H   0  0  0  0  0  0  0  0  0  0  0  0
   -2.1260   -4.8230    3.5450 H   0  0  0  0  0  0  0  0  0  0  0  0
   -2.3390   -3.3070    2.5610 H   0  0  0  0  0  0  0  0  0  0  0  0
   -2.0980   -5.1470    0.5160 H   0  0  0  0  0  0  0  0  0  0  0  0
   -1.4370   -7.1250    1.3700 H   0  0  0  0  0  0  0  0  0  0  0  0
    0.1710   -6.3010    1.5630 H   0  0  0  0  0  0  0  0  0  0  0  0
   -1.0020   -6.4570    2.9510 H   0  0  0  0  0  0  0  0  0  0  0  0
    0.2480   -4.3500    0.3620 H   0  0  0  0  0  0  0  0  0  0  0  0
    0.4600   -4.5470    2.8850 H   0  0  0  0  0  0  0  0  0  0  0  0
    1.1590   -3.1400    2.1230 H   0  0  0  0  0  0  0  0  0  0  0  0
   -2.4520    0.3190    1.5200 C   0  0  0  0  0  0  0  0  0  0  0  0
   -1.4980   -0.2840    0.5040 C   0  0  2  0  0  0  0  0  0  0  0  0
   -0.8860   -1.4480    1.1150 N   0  0  0  0  0  0  0  0  0  0  0  0
   -0.4690    0.7760    0.2300 C   0  0  0  0  0  0  0  0  0  0  0  0
   -0.8050    1.8630   -0.3000 O   0  0  0  0  0  0  0  0  0  0  0  0
   -3.4330   -0.2100    1.5300 H   0  0  0  0  0  0  0  0  0  0  0  0
   -2.6660    1.3940    1.2950 H   0  0  0  0  0  0  0  0  0  0  0  0
   -2.0590    0.2900    2.5460 H   0  0  0  0  0  0  0  0  0  0  0  0
   -2.0840   -0.5260   -0.3870 H   0  0  0  0  0  0  0  0  0  0  0  0
   -0.3070   -1.3170    1.9710 H   0  0  0  0  0  0  0  0  0  0  0  0
    3.6290    5.3070   -1.0890 N   0  0  0  0  0  0  0  0  0  0  0  0
    2.6230    4.3030   -1.2440 C   0  0  0  0  0  0  0  0  0  0  0  0
    1.4190    4.6900   -1.0670 O   0  0  0  0  0  0  0  0  0  0  0  0
    2.9910    2.9330   -1.5910 C   0  0  0  0  0  0  0  0  0  0  0  0
    2.0320    1.8740   -1.1730 C   0  0  0  0  0  0  0  0  0  0  0  0
    1.9200    1.6360    0.2810 C   0  0  2  0  0  0  0  0  0  0  0  0
    0.8960    0.5960    0.5520 N   0  0  0  0  0  0  0  0  0  0  0  0
    1.7830    2.7510    1.1940 C   0  0  0  0  0  0  0  0  0  0  0  0
    2.6110    3.6710    1.3800 O   0  0  0  0  0  0  0  0  0  0  0  0
    0.6140    2.8640    1.9870 O   0  0  0  0  0  0  0  0  0  0  0  0
    3.8210    5.7980   -0.2100 H   0  0  0  0  0  0  0  0  0  0  0  0
    4.2090    5.5610   -1.9240 H   0  0  0  0  0  0  0  0  0  0  0  0
    3.2750    2.8380   -2.6790 H   0  0  0  0  0  0  0  0  0  0  0  0
    3.9590    2.7080   -1.0630 H   0  0  0  0  0  0  0  0  0  0  0  0
    1.0280    2.0110   -1.6690 H   0  0  0  0  0  0  0  0  0  0  0  0
    2.4460    0.9090   -1.6250 H   0  0  0  0  0  0  0  0  0  0  0  0
    2.8990    1.0760    0.5490 H   0  0  0  0  0  0  0  0  0  0  0  0
    1.1840   -0.2960    0.9940 H   0  0  0  0  0  0  0  0  0  0  0  0
  1 10  1  0  0  0  0
  1  9  1  0  0  0  0
  2  3  1  0  0  0  0
  2  1  1  0  0  0  0
  3 14  1  0  0  0  0
  4 15  1  6  0  0  0
  4  2  1  0  0  0  0
  4  5  1  0  0  0  0
  5 16  1  0  0  0  0
  6 20  1  0  0  0  0
  6  4  1  0  0  0  0
  7  6  2  0  0  0  0
  8  1  1  0  0  0  0
 11  2  1  0  0  0  0
 12  3  1  0  0  0  0
 13  3  1  0  0  0  0
 17  5  1  0  0  0  0
 18 23  1  0  0  0  0
 18 25  1  0  0  0  0
 19 26  1  6  0  0  0
 19 20  1  0  0  0  0
 19 18  1  0  0  0  0
 20 27  1  0  0  0  0
 21 19  1  0  0  0  0
 21 34  1  0  0  0  0
 22 21  2  0  0  0  0
 24 18  1  0  0  0  0
 28 38  1  0  0  0  0
 29 28  1  0  0  0  0
 29 30  2  0  0  0  0
 31 29  1  0  0  0  0
 31 32  1  0  0  0  0
 31 41  1  0  0  0  0
 32 33  1  0  0  0  0
 33 44  1  1  0  0  0
 33 34  1  0  0  0  0
 33 35  1  0  0  0  0
 34 45  1  0  0  0  0
 35 36  2  0  0  0  0
 35 37  1  0  0  0  0
 39 28  1  0  0  0  0
 40 31  1  0  0  0  0
 42 32  1  0  0  0  0
 43 32  1  0  0  0  0
M  END
$$$$
