VAS.pdb
 OpenBabel07022419243D

 39 38  0  0  1  0  0  0  0  0999 V2000
    4.7000    2.5320    2.2770 C   0  0  0  0  0  0  0  0  0  0  0  0
    3.5620    2.3050    1.3100 C   0  0  0  0  0  0  0  0  0  0  0  0
    2.7360    3.5470    1.2040 C   0  0  0  0  0  0  0  0  0  0  0  0
    2.7360    1.1450    1.8820 C   0  0  2  0  0  0  0  0  0  0  0  0
    3.5250   -0.0370    2.0020 N   0  0  0  0  0  0  0  0  0  0  0  0
    1.5020    0.9460    1.0730 C   0  0  0  0  0  0  0  0  0  0  0  0
    0.7620    1.9430    0.9260 O   0  0  0  0  0  0  0  0  0  0  0  0
    4.4440    3.3960    2.9130 H   0  0  0  0  0  0  0  0  0  0  0  0
    5.6620    2.7190    1.7470 H   0  0  0  0  0  0  0  0  0  0  0  0
    4.8700    1.6340    2.9140 H   0  0  0  0  0  0  0  0  0  0  0  0
    3.9470    2.0560    0.2960 H   0  0  0  0  0  0  0  0  0  0  0  0
    3.4370    4.4140    1.2210 H   0  0  0  0  0  0  0  0  0  0  0  0
    2.0310    3.7030    2.0330 H   0  0  0  0  0  0  0  0  0  0  0  0
    2.2290    3.6120    0.2030 H   0  0  0  0  0  0  0  0  0  0  0  0
    2.3910    1.4970    2.8840 H   0  0  0  0  0  0  0  0  0  0  0  0
    3.7260   -0.4200    1.0530 H   0  0  0  0  0  0  0  0  0  0  0  0
    3.0900   -0.7170    2.6430 H   0  0  0  0  0  0  0  0  0  0  0  0
    0.2240   -0.9760   -1.6990 C   0  0  0  0  0  0  0  0  0  0  0  0
   -0.0640   -0.4790   -0.3090 C   0  0  2  0  0  0  0  0  0  0  0  0
    1.1290   -0.2680    0.4790 N   0  0  0  0  0  0  0  0  0  0  0  0
   -0.9040   -1.5060    0.3640 C   0  0  0  0  0  0  0  0  0  0  0  0
   -0.5220   -2.0420    1.4590 O   0  0  0  0  0  0  0  0  0  0  0  0
    0.6000   -2.0170   -1.7070 H   0  0  0  0  0  0  0  0  0  0  0  0
   -0.7230   -0.8600   -2.2780 H   0  0  0  0  0  0  0  0  0  0  0  0
    0.9740   -0.3600   -2.2350 H   0  0  0  0  0  0  0  0  0  0  0  0
   -0.6770    0.4390   -0.4020 H   0  0  0  0  0  0  0  0  0  0  0  0
    1.7670   -1.0820    0.6190 H   0  0  0  0  0  0  0  0  0  0  0  0
   -5.0230   -3.5210    1.4430 O   0  0  0  0  0  0  0  0  0  0  0  0
   -4.3370   -2.4420    0.8640 C   0  0  0  0  0  0  0  0  0  0  0  0
   -2.9830   -2.9330    0.4690 C   0  0  2  0  0  0  0  0  0  0  0  0
   -2.1460   -1.9520   -0.1420 N   0  0  0  0  0  0  0  0  0  0  0  0
   -3.1500   -4.1570   -0.3600 C   0  0  0  0  0  0  0  0  0  0  0  0
   -2.6230   -4.3230   -1.4680 O   0  0  0  0  0  0  0  0  0  0  0  0
   -3.9510   -5.1630    0.1630 O   0  0  0  0  0  0  0  0  0  0  0  0
   -4.4430   -3.9740    2.1270 H   0  0  0  0  0  0  0  0  0  0  0  0
   -4.1940   -1.6790    1.6710 H   0  0  0  0  0  0  0  0  0  0  0  0
   -4.9360   -2.0480    0.0420 H   0  0  0  0  0  0  0  0  0  0  0  0
   -2.4780   -3.2830    1.4170 H   0  0  0  0  0  0  0  0  0  0  0  0
   -2.4620   -1.5070   -1.0500 H   0  0  0  0  0  0  0  0  0  0  0  0
  1  8  1  0  0  0  0
  1 10  1  0  0  0  0
  2  4  1  0  0  0  0
  2  1  1  0  0  0  0
  3 12  1  0  0  0  0
  3  2  1  0  0  0  0
  3 13  1  0  0  0  0
  4  5  1  0  0  0  0
  4 15  1  1  0  0  0
  5 17  1  0  0  0  0
  6  4  1  0  0  0  0
  7  6  2  0  0  0  0
  9  1  1  0  0  0  0
 11  2  1  0  0  0  0
 14  3  1  0  0  0  0
 16  5  1  0  0  0  0
 18 19  1  0  0  0  0
 19 26  1  6  0  0  0
 19 21  1  0  0  0  0
 19 20  1  0  0  0  0
 20 27  1  0  0  0  0
 20  6  1  0  0  0  0
 21 22  2  0  0  0  0
 23 18  1  0  0  0  0
 24 18  1  0  0  0  0
 25 18  1  0  0  0  0
 28 35  1  0  0  0  0
 29 28  1  0  0  0  0
 29 36  1  0  0  0  0
 30 29  1  0  0  0  0
 30 38  1  1  0  0  0
 31 21  1  0  0  0  0
 31 30  1  0  0  0  0
 32 34  1  0  0  0  0
 32 30  1  0  0  0  0
 33 32  2  0  0  0  0
 37 29  1  0  0  0  0
 39 31  1  0  0  0  0
M  END
$$$$
