VCA.pdb
 OpenBabel07022419253D

 39 38  0  0  1  0  0  0  0  0999 V2000
    0.2140   -2.3150    2.9320 C   0  0  0  0  0  0  0  0  0  0  0  0
   -0.5590   -2.9360    1.8140 C   0  0  0  0  0  0  0  0  0  0  0  0
   -1.4060   -4.1000    2.3170 C   0  0  0  0  0  0  0  0  0  0  0  0
    0.3330   -3.4230    0.6890 C   0  0  2  0  0  0  0  0  0  0  0  0
    1.2710   -4.4160    1.1380 N   0  0  0  0  0  0  0  0  0  0  0  0
    1.0690   -2.2840    0.1210 C   0  0  0  0  0  0  0  0  0  0  0  0
    2.3220   -2.2810    0.0820 O   0  0  0  0  0  0  0  0  0  0  0  0
   -0.2060   -1.3390    3.2590 H   0  0  0  0  0  0  0  0  0  0  0  0
    0.1690   -2.9830    3.8210 H   0  0  0  0  0  0  0  0  0  0  0  0
    1.2790   -2.1080    2.6520 H   0  0  0  0  0  0  0  0  0  0  0  0
   -1.2740   -2.1840    1.4310 H   0  0  0  0  0  0  0  0  0  0  0  0
   -0.8320   -4.5990    3.1310 H   0  0  0  0  0  0  0  0  0  0  0  0
   -2.3750   -3.7190    2.6770 H   0  0  0  0  0  0  0  0  0  0  0  0
   -1.5190   -4.7910    1.4550 H   0  0  0  0  0  0  0  0  0  0  0  0
   -0.2610   -3.8730   -0.1210 H   0  0  0  0  0  0  0  0  0  0  0  0
    0.9070   -4.9550    1.9340 H   0  0  0  0  0  0  0  0  0  0  0  0
    2.1640   -3.9290    1.3770 H   0  0  0  0  0  0  0  0  0  0  0  0
    0.3770   -1.1550   -0.3990 N   0  0  0  0  0  0  0  0  0  0  0  0
    1.1040   -0.0560   -0.9480 C   0  0  1  0  0  0  0  0  0  0  0  0
    0.8160    0.1830   -2.4170 C   0  0  0  0  0  0  0  0  0  0  0  0
    1.8130    1.6060   -2.9580 S   0  0  0  0  0  0  0  0  0  0  0  0
    0.8130    1.2380   -0.2430 C   0  0  0  0  0  0  0  0  0  0  0  0
    1.4120    2.2390   -0.6690 O   0  0  0  0  0  0  0  0  0  0  0  0
   -0.6580   -1.1280   -0.3820 H   0  0  0  0  0  0  0  0  0  0  0  0
    2.2110   -0.2510   -0.8880 H   0  0  0  0  0  0  0  0  0  0  0  0
    1.0940   -0.6650   -3.0470 H   0  0  0  0  0  0  0  0  0  0  0  0
   -0.2420    0.4850   -2.5030 H   0  0  0  0  0  0  0  0  0  0  0  0
    2.7840    1.2270   -3.8880 H   0  0  0  0  0  0  0  0  0  0  0  0
    0.7140    2.9740    2.4270 C   0  0  0  0  0  0  0  0  0  0  0  0
   -0.3820    2.5440    1.5180 C   0  0  2  0  0  0  0  0  0  0  0  0
   -0.0830    1.3170    0.8350 N   0  0  0  0  0  0  0  0  0  0  0  0
   -0.7500    3.6390    0.5610 C   0  0  0  0  0  0  0  0  0  0  0  0
   -0.9790    4.8010    0.9580 O   0  0  0  0  0  0  0  0  0  0  0  0
   -0.8530    3.4030   -0.7940 O   0  0  0  0  0  0  0  0  0  0  0  0
    1.6710    2.4870    2.1420 H   0  0  0  0  0  0  0  0  0  0  0  0
    0.8640    4.0810    2.4140 H   0  0  0  0  0  0  0  0  0  0  0  0
    0.5000    2.6700    3.4740 H   0  0  0  0  0  0  0  0  0  0  0  0
   -1.3400    2.3630    2.0910 H   0  0  0  0  0  0  0  0  0  0  0  0
   -0.5330    0.4150    1.1250 H   0  0  0  0  0  0  0  0  0  0  0  0
  1  8  1  0  0  0  0
  1  9  1  0  0  0  0
  2  3  1  0  0  0  0
  2  1  1  0  0  0  0
  3 13  1  0  0  0  0
  3 12  1  0  0  0  0
  4 15  1  6  0  0  0
  4  5  1  0  0  0  0
  4  2  1  0  0  0  0
  5 17  1  0  0  0  0
  5 16  1  0  0  0  0
  6  4  1  0  0  0  0
  7  6  2  0  0  0  0
 10  1  1  0  0  0  0
 11  2  1  0  0  0  0
 14  3  1  0  0  0  0
 18 24  1  0  0  0  0
 18  6  1  0  0  0  0
 19 25  1  1  0  0  0
 19 18  1  0  0  0  0
 19 22  1  0  0  0  0
 20 19  1  0  0  0  0
 21 20  1  0  0  0  0
 22 31  1  0  0  0  0
 23 22  2  0  0  0  0
 26 20  1  0  0  0  0
 27 20  1  0  0  0  0
 28 21  1  0  0  0  0
 29 37  1  0  0  0  0
 30 38  1  1  0  0  0
 30 29  1  0  0  0  0
 31 39  1  0  0  0  0
 31 30  1  0  0  0  0
 32 33  1  0  0  0  0
 32 30  1  0  0  0  0
 34 32  2  0  0  0  0
 35 29  1  0  0  0  0
 36 29  1  0  0  0  0
M  END
$$$$
