VCC.pdb
 OpenBabel07022419253D

 40 39  0  0  1  0  0  0  0  0999 V2000
    2.0260    1.0210    2.5200 C   0  0  0  0  0  0  0  0  0  0  0  0
    2.6280   -0.3680    2.5400 C   0  0  0  0  0  0  0  0  0  0  0  0
    1.7070   -1.3640    3.1770 C   0  0  0  0  0  0  0  0  0  0  0  0
    3.2350   -0.7700    1.2500 C   0  0  2  0  0  0  0  0  0  0  0  0
    4.3050    0.2100    0.9740 N   0  0  0  0  0  0  0  0  0  0  0  0
    2.3330   -0.8780    0.0930 C   0  0  0  0  0  0  0  0  0  0  0  0
    2.5720   -0.2340   -0.9930 O   0  0  0  0  0  0  0  0  0  0  0  0
    2.7780    1.7360    2.0970 H   0  0  0  0  0  0  0  0  0  0  0  0
    1.7600    1.3180    3.5520 H   0  0  0  0  0  0  0  0  0  0  0  0
    1.1410    1.0840    1.8720 H   0  0  0  0  0  0  0  0  0  0  0  0
    3.5010   -0.2730    3.2700 H   0  0  0  0  0  0  0  0  0  0  0  0
    0.6580   -1.0960    2.9590 H   0  0  0  0  0  0  0  0  0  0  0  0
    1.7660   -1.3210    4.3080 H   0  0  0  0  0  0  0  0  0  0  0  0
    1.9730   -2.4130    2.9460 H   0  0  0  0  0  0  0  0  0  0  0  0
    3.7830   -1.7470    1.3370 H   0  0  0  0  0  0  0  0  0  0  0  0
    3.8000    1.0020    0.4980 H   0  0  0  0  0  0  0  0  0  0  0  0
    4.9030   -0.2300    0.2350 H   0  0  0  0  0  0  0  0  0  0  0  0
    1.1550   -1.6580    0.0250 N   0  0  0  0  0  0  0  0  0  0  0  0
    0.3020   -1.7430   -1.1400 C   0  0  1  0  0  0  0  0  0  0  0  0
    0.1060   -3.1740   -1.5470 C   0  0  0  0  0  0  0  0  0  0  0  0
   -0.9450   -3.3600   -2.9880 S   0  0  0  0  0  0  0  0  0  0  0  0
   -1.0260   -1.0950   -0.8820 C   0  0  0  0  0  0  0  0  0  0  0  0
   -1.9160   -1.1240   -1.7680 O   0  0  0  0  0  0  0  0  0  0  0  0
    0.8700   -2.2150    0.8570 H   0  0  0  0  0  0  0  0  0  0  0  0
    0.7380   -1.2020   -2.0140 H   0  0  0  0  0  0  0  0  0  0  0  0
    1.0810   -3.6450   -1.7790 H   0  0  0  0  0  0  0  0  0  0  0  0
   -0.3590   -3.7500   -0.7200 H   0  0  0  0  0  0  0  0  0  0  0  0
   -0.6380   -2.4650   -4.0190 H   0  0  0  0  0  0  0  0  0  0  0  0
   -1.3330   -0.4350    0.3380 N   0  0  0  0  0  0  0  0  0  0  0  0
   -2.6110    0.1940    0.6010 C   0  0  1  0  0  0  0  0  0  0  0  0
   -3.2670   -0.2840    1.8520 C   0  0  0  0  0  0  0  0  0  0  0  0
   -2.2330    0.0490    3.3120 S   0  0  0  0  0  0  0  0  0  0  0  0
   -2.4730    1.6880    0.5800 C   0  0  0  0  0  0  0  0  0  0  0  0
   -3.4400    2.4430    0.7900 O   0  0  0  0  0  0  0  0  0  0  0  0
   -1.2290    2.2340    0.3190 O   0  0  0  0  0  0  0  0  0  0  0  0
   -0.5750   -0.4240    1.0510 H   0  0  0  0  0  0  0  0  0  0  0  0
   -3.2690   -0.0380   -0.2600 H   0  0  0  0  0  0  0  0  0  0  0  0
   -3.4000   -1.3950    1.7400 H   0  0  0  0  0  0  0  0  0  0  0  0
   -4.2750    0.1370    1.9910 H   0  0  0  0  0  0  0  0  0  0  0  0
   -1.5990    1.3000    3.0690 H   0  0  0  0  0  0  0  0  0  0  0  0
  1  2  1  0  0  0  0
  1  9  1  0  0  0  0
  2  3  1  0  0  0  0
  2 11  1  0  0  0  0
  3 13  1  0  0  0  0
  4 15  1  1  0  0  0
  4  2  1  0  0  0  0
  5  4  1  0  0  0  0
  6  4  1  0  0  0  0
  7  6  2  0  0  0  0
  8  1  1  0  0  0  0
 10  1  1  0  0  0  0
 12  3  1  0  0  0  0
 14  3  1  0  0  0  0
 16  5  1  0  0  0  0
 17  5  1  0  0  0  0
 18  6  1  0  0  0  0
 18 24  1  0  0  0  0
 19 25  1  6  0  0  0
 19 22  1  0  0  0  0
 19 18  1  0  0  0  0
 20 19  1  0  0  0  0
 20 27  1  0  0  0  0
 21 20  1  0  0  0  0
 22 29  1  0  0  0  0
 23 22  2  0  0  0  0
 26 20  1  0  0  0  0
 28 21  1  0  0  0  0
 29 30  1  0  0  0  0
 29 36  1  0  0  0  0
 30 37  1  6  0  0  0
 30 31  1  0  0  0  0
 31 39  1  0  0  0  0
 31 32  1  0  0  0  0
 33 30  1  0  0  0  0
 33 34  1  0  0  0  0
 35 33  2  0  0  0  0
 38 31  1  0  0  0  0
 40 32  1  0  0  0  0
M  END
$$$$
