VCG.pdb
 OpenBabel07022419253D

 36 35  0  0  1  0  0  0  0  0999 V2000
   -1.7590   -1.8600    1.7680 C   0  0  0  0  0  0  0  0  0  0  0  0
   -0.7540   -2.9490    1.8230 C   0  0  0  0  0  0  0  0  0  0  0  0
   -1.5060   -4.2310    2.2080 C   0  0  0  0  0  0  0  0  0  0  0  0
    0.0550   -3.1910    0.6050 C   0  0  2  0  0  0  0  0  0  0  0  0
    0.9490   -4.3280    0.9420 N   0  0  0  0  0  0  0  0  0  0  0  0
    0.8220   -2.0790    0.0660 C   0  0  0  0  0  0  0  0  0  0  0  0
    2.0930   -2.1950   -0.0120 O   0  0  0  0  0  0  0  0  0  0  0  0
   -2.4100   -1.9110    0.8670 H   0  0  0  0  0  0  0  0  0  0  0  0
   -2.4660   -2.0520    2.6360 H   0  0  0  0  0  0  0  0  0  0  0  0
   -1.3730   -0.8490    1.9660 H   0  0  0  0  0  0  0  0  0  0  0  0
   -0.1070   -2.7440    2.7280 H   0  0  0  0  0  0  0  0  0  0  0  0
   -1.7820   -4.7270    1.2400 H   0  0  0  0  0  0  0  0  0  0  0  0
   -0.7590   -4.9010    2.6760 H   0  0  0  0  0  0  0  0  0  0  0  0
   -2.3740   -4.0080    2.8330 H   0  0  0  0  0  0  0  0  0  0  0  0
   -0.6170   -3.6090   -0.1860 H   0  0  0  0  0  0  0  0  0  0  0  0
    1.2740   -4.2100    1.9270 H   0  0  0  0  0  0  0  0  0  0  0  0
    0.3390   -5.1910    0.9590 H   0  0  0  0  0  0  0  0  0  0  0  0
    0.2740   -0.8580   -0.3890 N   0  0  0  0  0  0  0  0  0  0  0  0
    1.0930    0.1810   -0.9150 C   0  0  1  0  0  0  0  0  0  0  0  0
    0.8330    0.2750   -2.4130 C   0  0  0  0  0  0  0  0  0  0  0  0
    1.8300    1.5690   -3.1720 S   0  0  0  0  0  0  0  0  0  0  0  0
    1.0470    1.4750   -0.2540 C   0  0  0  0  0  0  0  0  0  0  0  0
    1.7950    2.4030   -0.7290 O   0  0  0  0  0  0  0  0  0  0  0  0
   -0.7660   -0.6970   -0.3480 H   0  0  0  0  0  0  0  0  0  0  0  0
    2.1640   -0.1700   -0.8560 H   0  0  0  0  0  0  0  0  0  0  0  0
   -0.2320    0.3840   -2.6520 H   0  0  0  0  0  0  0  0  0  0  0  0
    1.1640   -0.6970   -2.8420 H   0  0  0  0  0  0  0  0  0  0  0  0
    0.9680    2.5880   -3.6180 H   0  0  0  0  0  0  0  0  0  0  0  0
    0.2760    1.8570    0.8600 N   0  0  0  0  0  0  0  0  0  0  0  0
    0.3110    3.1840    1.4400 C   0  0  0  0  0  0  0  0  0  0  0  0
    1.6810    3.4570    1.8930 C   0  0  0  0  0  0  0  0  0  0  0  0
    1.9490    4.5550    2.4200 O   0  0  0  0  0  0  0  0  0  0  0  0
    2.6660    2.5140    1.7420 O   0  0  0  0  0  0  0  0  0  0  0  0
   -0.3410    1.1560    1.2790 H   0  0  0  0  0  0  0  0  0  0  0  0
    0.0510    3.9640    0.6920 H   0  0  0  0  0  0  0  0  0  0  0  0
   -0.4320    3.2900    2.2580 H   0  0  0  0  0  0  0  0  0  0  0  0
  1  2  1  0  0  0  0
  1 10  1  0  0  0  0
  1  9  1  0  0  0  0
  2  3  1  0  0  0  0
  2 11  1  0  0  0  0
  3 13  1  0  0  0  0
  3 14  1  0  0  0  0
  4 15  1  6  0  0  0
  4  5  1  0  0  0  0
  4  2  1  0  0  0  0
  5 17  1  0  0  0  0
  5 16  1  0  0  0  0
  6  4  1  0  0  0  0
  7  6  2  0  0  0  0
  8  1  1  0  0  0  0
 12  3  1  0  0  0  0
 18 24  1  0  0  0  0
 18  6  1  0  0  0  0
 19 25  1  1  0  0  0
 19 18  1  0  0  0  0
 19 22  1  0  0  0  0
 20 19  1  0  0  0  0
 21 20  1  0  0  0  0
 22 29  1  0  0  0  0
 23 22  2  0  0  0  0
 26 20  1  0  0  0  0
 27 20  1  0  0  0  0
 28 21  1  0  0  0  0
 29 34  1  0  0  0  0
 29 30  1  0  0  0  0
 30 31  1  0  0  0  0
 30 36  1  0  0  0  0
 31 32  1  0  0  0  0
 33 31  2  0  0  0  0
 35 30  1  0  0  0  0
M  END
$$$$
