VCL.pdb
 OpenBabel07022419253D

 48 47  0  0  1  0  0  0  0  0999 V2000
    0.4480   -6.2950    1.0280 C   0  0  0  0  0  0  0  0  0  0  0  0
    0.3630   -4.7610    0.9850 C   0  0  0  0  0  0  0  0  0  0  0  0
   -0.9140   -4.4210    1.7210 C   0  0  0  0  0  0  0  0  0  0  0  0
    0.1780   -4.3940   -0.4760 C   0  0  2  0  0  0  0  0  0  0  0  0
    1.3360   -4.9080   -1.2430 N   0  0  0  0  0  0  0  0  0  0  0  0
    0.1540   -2.9420   -0.7240 C   0  0  0  0  0  0  0  0  0  0  0  0
    1.1340   -2.3720   -1.3270 O   0  0  0  0  0  0  0  0  0  0  0  0
   -0.1800   -6.7360    0.2350 H   0  0  0  0  0  0  0  0  0  0  0  0
    0.0810   -6.6090    2.0270 H   0  0  0  0  0  0  0  0  0  0  0  0
    1.5050   -6.6230    0.9730 H   0  0  0  0  0  0  0  0  0  0  0  0
    1.2410   -4.2990    1.4460 H   0  0  0  0  0  0  0  0  0  0  0  0
   -1.0340   -5.1650    2.5560 H   0  0  0  0  0  0  0  0  0  0  0  0
   -0.9030   -3.3930    2.1320 H   0  0  0  0  0  0  0  0  0  0  0  0
   -1.7570   -4.6330    1.0340 H   0  0  0  0  0  0  0  0  0  0  0  0
   -0.7000   -4.9460   -0.8500 H   0  0  0  0  0  0  0  0  0  0  0  0
    2.0900   -4.2040   -1.0820 H   0  0  0  0  0  0  0  0  0  0  0  0
    1.0370   -4.8240   -2.2550 H   0  0  0  0  0  0  0  0  0  0  0  0
   -0.8930   -2.0570   -0.3510 N   0  0  0  0  0  0  0  0  0  0  0  0
   -0.8250   -0.6190   -0.6400 C   0  0  1  0  0  0  0  0  0  0  0  0
   -1.9720   -0.2080   -1.5380 C   0  0  0  0  0  0  0  0  0  0  0  0
   -1.8670   -1.1340   -3.0860 S   0  0  0  0  0  0  0  0  0  0  0  0
   -0.8520    0.1090    0.6510 C   0  0  0  0  0  0  0  0  0  0  0  0
   -0.9300   -0.5290    1.7300 O   0  0  0  0  0  0  0  0  0  0  0  0
   -1.7210   -2.4490    0.1290 H   0  0  0  0  0  0  0  0  0  0  0  0
    0.1250   -0.4200   -1.1520 H   0  0  0  0  0  0  0  0  0  0  0  0
   -1.8520    0.8750   -1.7320 H   0  0  0  0  0  0  0  0  0  0  0  0
   -2.9390   -0.3360   -1.0310 H   0  0  0  0  0  0  0  0  0  0  0  0
   -0.7040   -0.7660   -3.7700 H   0  0  0  0  0  0  0  0  0  0  0  0
    2.7170    3.6460    2.2730 C   0  0  0  0  0  0  0  0  0  0  0  0
    1.6960    2.5060    2.0960 C   0  0  0  0  0  0  0  0  0  0  0  0
    2.0680    1.8000    0.8330 C   0  0  0  0  0  0  0  0  0  0  0  0
    0.3550    3.1460    2.1160 C   0  0  0  0  0  0  0  0  0  0  0  0
   -0.8210    2.2520    1.9700 C   0  0  2  0  0  0  0  0  0  0  0  0
   -0.7930    1.5440    0.7280 N   0  0  0  0  0  0  0  0  0  0  0  0
   -2.0760    3.0620    2.0280 C   0  0  0  0  0  0  0  0  0  0  0  0
   -2.8810    3.0260    1.0670 O   0  0  0  0  0  0  0  0  0  0  0  0
   -2.3780    3.8600    3.1240 O   0  0  0  0  0  0  0  0  0  0  0  0
    2.3050    4.3180    3.0390 H   0  0  0  0  0  0  0  0  0  0  0  0
    3.7130    3.2360    2.5210 H   0  0  0  0  0  0  0  0  0  0  0  0
    2.7160    4.1800    1.2990 H   0  0  0  0  0  0  0  0  0  0  0  0
    1.8220    1.8250    2.9580 H   0  0  0  0  0  0  0  0  0  0  0  0
    3.1840    1.9330    0.6890 H   0  0  0  0  0  0  0  0  0  0  0  0
    1.9460    0.6970    0.9000 H   0  0  0  0  0  0  0  0  0  0  0  0
    1.6330    2.2460   -0.0810 H   0  0  0  0  0  0  0  0  0  0  0  0
    0.2990    4.0070    1.3950 H   0  0  0  0  0  0  0  0  0  0  0  0
    0.2580    3.6500    3.1220 H   0  0  0  0  0  0  0  0  0  0  0  0
   -0.8750    1.5700    2.8500 H   0  0  0  0  0  0  0  0  0  0  0  0
   -0.7330    2.0160   -0.2010 H   0  0  0  0  0  0  0  0  0  0  0  0
  1  9  1  0  0  0  0
  2  1  1  0  0  0  0
  2 11  1  0  0  0  0
  2  3  1  0  0  0  0
  3 13  1  0  0  0  0
  3 12  1  0  0  0  0
  4 15  1  6  0  0  0
  4  2  1  0  0  0  0
  5 16  1  0  0  0  0
  5  4  1  0  0  0  0
  6  4  1  0  0  0  0
  6 18  1  0  0  0  0
  7  6  2  0  0  0  0
  8  1  1  0  0  0  0
 10  1  1  0  0  0  0
 14  3  1  0  0  0  0
 17  5  1  0  0  0  0
 18 24  1  0  0  0  0
 19 25  1  6  0  0  0
 19 18  1  0  0  0  0
 19 22  1  0  0  0  0
 20 27  1  0  0  0  0
 20 19  1  0  0  0  0
 21 20  1  0  0  0  0
 22 34  1  0  0  0  0
 22 23  2  0  0  0  0
 26 20  1  0  0  0  0
 28 21  1  0  0  0  0
 29 39  1  0  0  0  0
 29 38  1  0  0  0  0
 30 32  1  0  0  0  0
 30 29  1  0  0  0  0
 30 41  1  0  0  0  0
 31 43  1  0  0  0  0
 31 30  1  0  0  0  0
 32 46  1  0  0  0  0
 33 35  1  0  0  0  0
 33 32  1  0  0  0  0
 33 47  1  1  0  0  0
 34 33  1  0  0  0  0
 35 37  1  0  0  0  0
 36 35  2  0  0  0  0
 40 29  1  0  0  0  0
 42 31  1  0  0  0  0
 44 31  1  0  0  0  0
 45 32  1  0  0  0  0
 48 34  1  0  0  0  0
M  END
$$$$
