VCS.pdb
 OpenBabel07022419253D

 40 39  0  0  1  0  0  0  0  0999 V2000
   -0.8990   -3.1410    1.7990 C   0  0  0  0  0  0  0  0  0  0  0  0
   -0.7270   -3.3190    0.3100 C   0  0  0  0  0  0  0  0  0  0  0  0
   -1.5420   -2.3300   -0.4520 C   0  0  0  0  0  0  0  0  0  0  0  0
    0.7020   -3.4640   -0.1230 C   0  0  2  0  0  0  0  0  0  0  0  0
    1.3160   -4.6460    0.4870 N   0  0  0  0  0  0  0  0  0  0  0  0
    1.5650   -2.3020    0.1670 C   0  0  0  0  0  0  0  0  0  0  0  0
    2.6510   -2.4440    0.8480 O   0  0  0  0  0  0  0  0  0  0  0  0
   -0.3950   -3.9210    2.3840 H   0  0  0  0  0  0  0  0  0  0  0  0
   -2.0030   -3.2860    1.9960 H   0  0  0  0  0  0  0  0  0  0  0  0
   -0.6770   -2.1110    2.1360 H   0  0  0  0  0  0  0  0  0  0  0  0
   -1.2480   -4.3260    0.1160 H   0  0  0  0  0  0  0  0  0  0  0  0
   -1.6650   -1.3520    0.0520 H   0  0  0  0  0  0  0  0  0  0  0  0
   -1.2090   -2.2360   -1.5240 H   0  0  0  0  0  0  0  0  0  0  0  0
   -2.6170   -2.6840   -0.5770 H   0  0  0  0  0  0  0  0  0  0  0  0
    0.7250   -3.6420   -1.2150 H   0  0  0  0  0  0  0  0  0  0  0  0
    1.7910   -4.4140    1.3820 H   0  0  0  0  0  0  0  0  0  0  0  0
    1.8830   -5.1890   -0.1790 H   0  0  0  0  0  0  0  0  0  0  0  0
    1.3370   -0.9630   -0.2350 N   0  0  0  0  0  0  0  0  0  0  0  0
    2.2190    0.1260    0.0720 C   0  0  1  0  0  0  0  0  0  0  0  0
    2.7600    0.7820   -1.2020 C   0  0  0  0  0  0  0  0  0  0  0  0
    3.8680    2.1510   -0.7800 S   0  0  0  0  0  0  0  0  0  0  0  0
    1.5960    1.1370    0.9540 C   0  0  0  0  0  0  0  0  0  0  0  0
    2.2910    2.1390    1.2640 O   0  0  0  0  0  0  0  0  0  0  0  0
    0.4830   -0.7570   -0.7860 H   0  0  0  0  0  0  0  0  0  0  0  0
    3.1330   -0.2210    0.6350 H   0  0  0  0  0  0  0  0  0  0  0  0
    3.3590    0.0430   -1.7620 H   0  0  0  0  0  0  0  0  0  0  0  0
    1.9480    1.1920   -1.8110 H   0  0  0  0  0  0  0  0  0  0  0  0
    3.9610    3.1020   -1.7890 H   0  0  0  0  0  0  0  0  0  0  0  0
   -1.0330    3.2810    0.4790 O   0  0  0  0  0  0  0  0  0  0  0  0
   -1.5110    2.6710    1.6400 C   0  0  0  0  0  0  0  0  0  0  0  0
   -0.3270    2.0230    2.3200 C   0  0  2  0  0  0  0  0  0  0  0  0
    0.2950    1.0220    1.4450 N   0  0  0  0  0  0  0  0  0  0  0  0
   -0.6620    1.4520    3.6320 C   0  0  0  0  0  0  0  0  0  0  0  0
   -1.2010    2.1770    4.4980 O   0  0  0  0  0  0  0  0  0  0  0  0
   -0.3870    0.1260    3.9100 O   0  0  0  0  0  0  0  0  0  0  0  0
   -1.2300    4.2560    0.4540 H   0  0  0  0  0  0  0  0  0  0  0  0
   -1.9190    3.4140    2.3430 H   0  0  0  0  0  0  0  0  0  0  0  0
   -2.2530    1.8990    1.4020 H   0  0  0  0  0  0  0  0  0  0  0  0
    0.4340    2.8160    2.4750 H   0  0  0  0  0  0  0  0  0  0  0  0
   -0.2730    0.1900    1.1880 H   0  0  0  0  0  0  0  0  0  0  0  0
  1  9  1  0  0  0  0
  1 10  1  0  0  0  0
  1  8  1  0  0  0  0
  2  1  1  0  0  0  0
  3 12  1  0  0  0  0
  3  2  1  0  0  0  0
  4 15  1  6  0  0  0
  4  6  1  0  0  0  0
  4  2  1  0  0  0  0
  4  5  1  0  0  0  0
  5 16  1  0  0  0  0
  6  7  2  0  0  0  0
 11  2  1  0  0  0  0
 13  3  1  0  0  0  0
 14  3  1  0  0  0  0
 17  5  1  0  0  0  0
 18 19  1  0  0  0  0
 18  6  1  0  0  0  0
 19 25  1  1  0  0  0
 19 22  1  0  0  0  0
 20 21  1  0  0  0  0
 20 19  1  0  0  0  0
 22 23  2  0  0  0  0
 22 32  1  0  0  0  0
 24 18  1  0  0  0  0
 26 20  1  0  0  0  0
 27 20  1  0  0  0  0
 28 21  1  0  0  0  0
 29 30  1  0  0  0  0
 30 31  1  0  0  0  0
 30 37  1  0  0  0  0
 31 39  1  1  0  0  0
 31 33  1  0  0  0  0
 32 31  1  0  0  0  0
 33 35  2  0  0  0  0
 33 34  1  0  0  0  0
 36 29  1  0  0  0  0
 38 30  1  0  0  0  0
 40 32  1  0  0  0  0
M  END
$$$$
