VCW.pdb
 OpenBabel07022419253D

 53 54  0  0  1  0  0  0  0  0999 V2000
    2.4930   -0.9920    5.1680 C   0  0  0  0  0  0  0  0  0  0  0  0
    3.2400    0.2290    4.7110 C   0  0  0  0  0  0  0  0  0  0  0  0
    2.3500    1.4530    4.7310 C   0  0  0  0  0  0  0  0  0  0  0  0
    3.8860    0.0240    3.3560 C   0  0  2  0  0  0  0  0  0  0  0  0
    4.5960    1.2240    2.9560 N   0  0  0  0  0  0  0  0  0  0  0  0
    2.9180   -0.4240    2.3330 C   0  0  0  0  0  0  0  0  0  0  0  0
    2.2390   -1.4460    2.5890 O   0  0  0  0  0  0  0  0  0  0  0  0
    2.4570   -1.1030    6.2710 H   0  0  0  0  0  0  0  0  0  0  0  0
    2.9560   -1.9270    4.7850 H   0  0  0  0  0  0  0  0  0  0  0  0
    1.4260   -0.9980    4.8290 H   0  0  0  0  0  0  0  0  0  0  0  0
    4.0620    0.4130    5.4330 H   0  0  0  0  0  0  0  0  0  0  0  0
    2.6840    2.2580    4.0780 H   0  0  0  0  0  0  0  0  0  0  0  0
    1.3440    1.1150    4.3510 H   0  0  0  0  0  0  0  0  0  0  0  0
    2.1700    1.7840    5.7700 H   0  0  0  0  0  0  0  0  0  0  0  0
    4.6900   -0.7520    3.5290 H   0  0  0  0  0  0  0  0  0  0  0  0
    5.0510    1.6050    3.8140 H   0  0  0  0  0  0  0  0  0  0  0  0
    4.0040    1.9550    2.5550 H   0  0  0  0  0  0  0  0  0  0  0  0
    2.7040    0.2140    1.0910 N   0  0  0  0  0  0  0  0  0  0  0  0
    1.7460   -0.2580    0.1340 C   0  0  1  0  0  0  0  0  0  0  0  0
    2.1380   -1.5090   -0.5660 C   0  0  0  0  0  0  0  0  0  0  0  0
    3.6870   -1.2720   -1.4720 S   0  0  0  0  0  0  0  0  0  0  0  0
    0.4030   -0.3360    0.7710 C   0  0  0  0  0  0  0  0  0  0  0  0
    0.2010    0.0030    1.9650 O   0  0  0  0  0  0  0  0  0  0  0  0
    3.2730    1.0600    0.8770 H   0  0  0  0  0  0  0  0  0  0  0  0
    1.5980    0.5390   -0.6660 H   0  0  0  0  0  0  0  0  0  0  0  0
    2.2260   -2.3910    0.0730 H   0  0  0  0  0  0  0  0  0  0  0  0
    1.3690   -1.7440   -1.3310 H   0  0  0  0  0  0  0  0  0  0  0  0
    4.2540   -0.0180   -1.2500 H   0  0  0  0  0  0  0  0  0  0  0  0
   -0.6870   -0.8110    0.0030 N   0  0  0  0  0  0  0  0  0  0  0  0
   -2.0440   -0.9150    0.5700 C   0  0  1  0  0  0  0  0  0  0  0  0
   -2.9010    0.0760   -0.1650 C   0  0  0  0  0  0  0  0  0  0  0  0
   -2.8870   -0.2300   -1.6040 C   0  0  0  0  0  0  0  0  0  0  0  0
   -2.0030    0.3390   -2.5260 C   0  0  0  0  0  0  0  0  0  0  0  0
   -2.2590   -0.2200   -3.7120 N   0  0  0  0  0  0  0  0  0  0  0  0
   -3.2590   -1.1190   -3.6190 C   0  0  0  0  0  0  0  0  0  0  0  0
   -3.8740   -1.9330   -4.5800 C   0  0  0  0  0  0  0  0  0  0  0  0
   -4.9060   -2.7770   -4.2440 C   0  0  0  0  0  0  0  0  0  0  0  0
   -5.3130   -2.7930   -2.9310 C   0  0  0  0  0  0  0  0  0  0  0  0
   -4.6930   -1.9770   -1.9770 C   0  0  0  0  0  0  0  0  0  0  0  0
   -3.6530   -1.1260   -2.3030 C   0  0  0  0  0  0  0  0  0  0  0  0
   -2.4950   -2.3050    0.5350 C   0  0  0  0  0  0  0  0  0  0  0  0
   -3.5680   -2.6590    1.0900 O   0  0  0  0  0  0  0  0  0  0  0  0
   -1.7570   -3.2940   -0.1150 O   0  0  0  0  0  0  0  0  0  0  0  0
   -0.5140   -1.0890   -0.9810 H   0  0  0  0  0  0  0  0  0  0  0  0
   -2.0130   -0.5680    1.6340 H   0  0  0  0  0  0  0  0  0  0  0  0
   -2.5230    1.0920    0.0590 H   0  0  0  0  0  0  0  0  0  0  0  0
   -3.9400   -0.0100    0.2210 H   0  0  0  0  0  0  0  0  0  0  0  0
   -1.2730    1.0860   -2.2620 H   0  0  0  0  0  0  0  0  0  0  0  0
   -1.7680   -0.0100   -4.6100 H   0  0  0  0  0  0  0  0  0  0  0  0
   -3.5250   -1.8860   -5.5830 H   0  0  0  0  0  0  0  0  0  0  0  0
   -5.4050   -3.4200   -4.9580 H   0  0  0  0  0  0  0  0  0  0  0  0
   -6.1200   -3.4410   -2.6290 H   0  0  0  0  0  0  0  0  0  0  0  0
   -5.0310   -1.9800   -0.9580 H   0  0  0  0  0  0  0  0  0  0  0  0
  1  8  1  0  0  0  0
  2  3  1  0  0  0  0
  2  1  1  0  0  0  0
  2 11  1  0  0  0  0
  3 14  1  0  0  0  0
  4 15  1  1  0  0  0
  4  2  1  0  0  0  0
  5  4  1  0  0  0  0
  5 16  1  0  0  0  0
  6  7  2  0  0  0  0
  6  4  1  0  0  0  0
  9  1  1  0  0  0  0
 10  1  1  0  0  0  0
 12  3  1  0  0  0  0
 13  3  1  0  0  0  0
 17  5  1  0  0  0  0
 18  6  1  0  0  0  0
 19 25  1  6  0  0  0
 19 22  1  0  0  0  0
 19 18  1  0  0  0  0
 20 26  1  0  0  0  0
 20 19  1  0  0  0  0
 21 28  1  0  0  0  0
 21 20  1  0  0  0  0
 22 23  2  0  0  0  0
 24 18  1  0  0  0  0
 27 20  1  0  0  0  0
 29 30  1  0  0  0  0
 29 22  1  0  0  0  0
 30 45  1  1  0  0  0
 31 46  1  0  0  0  0
 31 47  1  0  0  0  0
 31 30  1  0  0  0  0
 32 31  1  0  0  0  0
 33 48  1  0  0  0  0
 33 32  2  0  0  0  0
 34 35  1  0  0  0  0
 34 33  1  0  0  0  0
 35 40  1  0  0  0  0
 36 37  1  0  0  0  0
 36 35  2  0  0  0  0
 37 38  2  0  0  0  0
 38 52  1  0  0  0  0
 38 39  1  0  0  0  0
 39 53  1  0  0  0  0
 40 39  2  0  0  0  0
 40 32  1  0  0  0  0
 41 30  1  0  0  0  0
 41 42  1  0  0  0  0
 43 41  2  0  0  0  0
 44 29  1  0  0  0  0
 49 34  1  0  0  0  0
 50 36  1  0  0  0  0
 51 37  1  0  0  0  0
M  END
$$$$
