VDD.pdb
 OpenBabel07022419243D

 44 43  0  0  1  0  0  0  0  0999 V2000
    2.4280   -5.6060   -0.1860 C   0  0  0  0  0  0  0  0  0  0  0  0
    1.9160   -4.5380    0.7630 C   0  0  0  0  0  0  0  0  0  0  0  0
    0.9410   -5.1710    1.6980 C   0  0  0  0  0  0  0  0  0  0  0  0
    1.3250   -3.4470   -0.0880 C   0  0  2  0  0  0  0  0  0  0  0  0
    2.3750   -2.9410   -0.9440 N   0  0  0  0  0  0  0  0  0  0  0  0
    0.6650   -2.3850    0.6780 C   0  0  0  0  0  0  0  0  0  0  0  0
   -0.2680   -2.7100    1.4580 O   0  0  0  0  0  0  0  0  0  0  0  0
    2.6100   -6.5710    0.3590 H   0  0  0  0  0  0  0  0  0  0  0  0
    1.6670   -5.8520   -0.9630 H   0  0  0  0  0  0  0  0  0  0  0  0
    3.3590   -5.2950   -0.6960 H   0  0  0  0  0  0  0  0  0  0  0  0
    2.8260   -4.1790    1.3230 H   0  0  0  0  0  0  0  0  0  0  0  0
    1.0490   -4.7870    2.7530 H   0  0  0  0  0  0  0  0  0  0  0  0
    1.1010   -6.2840    1.7910 H   0  0  0  0  0  0  0  0  0  0  0  0
   -0.0710   -5.0440    1.3050 H   0  0  0  0  0  0  0  0  0  0  0  0
    0.5530   -3.9250   -0.7330 H   0  0  0  0  0  0  0  0  0  0  0  0
    3.3280   -3.2230   -0.6120 H   0  0  0  0  0  0  0  0  0  0  0  0
    2.2680   -3.3040   -1.9290 H   0  0  0  0  0  0  0  0  0  0  0  0
    1.0050   -1.0040    0.6030 N   0  0  0  0  0  0  0  0  0  0  0  0
    0.3090   -0.0050    1.3910 C   0  0  1  0  0  0  0  0  0  0  0  0
    1.2620    0.6440    2.3590 C   0  0  0  0  0  0  0  0  0  0  0  0
    2.3870    1.3160    1.7030 C   0  0  0  0  0  0  0  0  0  0  0  0
    2.5760    1.3710    0.4610 O   0  0  0  0  0  0  0  0  0  0  0  0
   -0.3290    1.0230    0.5030 C   0  0  0  0  0  0  0  0  0  0  0  0
   -0.1960    0.9070   -0.7410 O   0  0  0  0  0  0  0  0  0  0  0  0
    3.3270    1.9470    2.5070 O   0  0  0  0  0  0  0  0  0  0  0  0
    1.7820   -0.7660   -0.0510 H   0  0  0  0  0  0  0  0  0  0  0  0
   -0.4710   -0.5120    2.0020 H   0  0  0  0  0  0  0  0  0  0  0  0
    1.6740   -0.1680    2.9980 H   0  0  0  0  0  0  0  0  0  0  0  0
    0.6940    1.3140    3.0450 H   0  0  0  0  0  0  0  0  0  0  0  0
    4.3040    2.0640    2.2280 H   0  0  0  0  0  0  0  0  0  0  0  0
   -1.0670    2.1040    1.0050 N   0  0  0  0  0  0  0  0  0  0  0  0
   -1.7130    3.1300    0.2050 C   0  0  1  0  0  0  0  0  0  0  0  0
   -3.1640    3.1750    0.5740 C   0  0  0  0  0  0  0  0  0  0  0  0
   -3.7920    1.8610    0.3060 C   0  0  0  0  0  0  0  0  0  0  0  0
   -3.1990    0.8610   -0.1620 O   0  0  0  0  0  0  0  0  0  0  0  0
   -1.0490    4.4390    0.3630 C   0  0  0  0  0  0  0  0  0  0  0  0
   -1.4760    5.4300   -0.2540 O   0  0  0  0  0  0  0  0  0  0  0  0
   -5.1540    1.6630    0.5780 O   0  0  0  0  0  0  0  0  0  0  0  0
    0.0400    4.5580    1.1910 O   0  0  0  0  0  0  0  0  0  0  0  0
   -1.1800    2.2080    2.0530 H   0  0  0  0  0  0  0  0  0  0  0  0
   -1.6370    2.7810   -0.8670 H   0  0  0  0  0  0  0  0  0  0  0  0
   -3.2900    3.3810    1.6730 H   0  0  0  0  0  0  0  0  0  0  0  0
   -3.7200    3.9690    0.0140 H   0  0  0  0  0  0  0  0  0  0  0  0
   -5.5880    0.7510    0.5390 H   0  0  0  0  0  0  0  0  0  0  0  0
  1  8  1  0  0  0  0
  1  2  1  0  0  0  0
  2 11  1  0  0  0  0
  2  3  1  0  0  0  0
  3 13  1  0  0  0  0
  3 12  1  0  0  0  0
  4 15  1  6  0  0  0
  4  6  1  0  0  0  0
  4  2  1  0  0  0  0
  5 16  1  0  0  0  0
  5  4  1  0  0  0  0
  6  7  2  0  0  0  0
  9  1  1  0  0  0  0
 10  1  1  0  0  0  0
 14  3  1  0  0  0  0
 17  5  1  0  0  0  0
 18  6  1  0  0  0  0
 18 19  1  0  0  0  0
 19 27  1  1  0  0  0
 19 20  1  0  0  0  0
 20 28  1  0  0  0  0
 20 29  1  0  0  0  0
 21 20  1  0  0  0  0
 21 25  1  0  0  0  0
 22 21  2  0  0  0  0
 23 31  1  0  0  0  0
 23 19  1  0  0  0  0
 24 23  2  0  0  0  0
 26 18  1  0  0  0  0
 30 25  1  0  0  0  0
 31 40  1  0  0  0  0
 32 41  1  6  0  0  0
 32 36  1  0  0  0  0
 32 33  1  0  0  0  0
 32 31  1  0  0  0  0
 33 42  1  0  0  0  0
 34 33  1  0  0  0  0
 34 38  1  0  0  0  0
 35 34  2  0  0  0  0
 36 39  1  0  0  0  0
 37 36  2  0  0  0  0
 43 33  1  0  0  0  0
 44 38  1  0  0  0  0
M  END
$$$$
