VDE.pdb
 OpenBabel07022419243D

 47 46  0  0  1  0  0  0  0  0999 V2000
    2.9650   -3.0560    3.3400 C   0  0  0  0  0  0  0  0  0  0  0  0
    2.0980   -1.9390    2.7150 C   0  0  0  0  0  0  0  0  0  0  0  0
    1.0220   -2.6760    1.9590 C   0  0  0  0  0  0  0  0  0  0  0  0
    3.0370   -1.1530    1.8610 C   0  0  2  0  0  0  0  0  0  0  0  0
    4.0870   -0.6620    2.7800 N   0  0  0  0  0  0  0  0  0  0  0  0
    2.4860    0.0430    1.2170 C   0  0  0  0  0  0  0  0  0  0  0  0
    2.8920    1.2200    1.5040 O   0  0  0  0  0  0  0  0  0  0  0  0
    3.1440   -3.8650    2.5910 H   0  0  0  0  0  0  0  0  0  0  0  0
    3.9590   -2.6500    3.5990 H   0  0  0  0  0  0  0  0  0  0  0  0
    2.4950   -3.4530    4.2450 H   0  0  0  0  0  0  0  0  0  0  0  0
    1.6400   -1.3690    3.5440 H   0  0  0  0  0  0  0  0  0  0  0  0
    0.8410   -3.6490    2.5100 H   0  0  0  0  0  0  0  0  0  0  0  0
    1.3890   -2.9710    0.9700 H   0  0  0  0  0  0  0  0  0  0  0  0
    0.0450   -2.1770    1.9710 H   0  0  0  0  0  0  0  0  0  0  0  0
    3.5580   -1.8400    1.1770 H   0  0  0  0  0  0  0  0  0  0  0  0
    3.6360    0.1400    3.2740 H   0  0  0  0  0  0  0  0  0  0  0  0
    4.8560   -0.3120    2.1760 H   0  0  0  0  0  0  0  0  0  0  0  0
    1.4800   -0.0190    0.2380 N   0  0  0  0  0  0  0  0  0  0  0  0
    0.9870    1.2250   -0.3820 C   0  0  1  0  0  0  0  0  0  0  0  0
    1.5250    1.1360   -1.7950 C   0  0  0  0  0  0  0  0  0  0  0  0
    1.2380    2.2390   -2.6800 C   0  0  0  0  0  0  0  0  0  0  0  0
    0.6370    3.2620   -2.3070 O   0  0  0  0  0  0  0  0  0  0  0  0
   -0.4590    1.3520   -0.2720 C   0  0  0  0  0  0  0  0  0  0  0  0
   -1.0990    2.3740   -0.6960 O   0  0  0  0  0  0  0  0  0  0  0  0
    1.6400    2.1710   -3.9970 O   0  0  0  0  0  0  0  0  0  0  0  0
    1.0320   -0.8880   -0.1040 H   0  0  0  0  0  0  0  0  0  0  0  0
    1.4770    2.1120    0.0640 H   0  0  0  0  0  0  0  0  0  0  0  0
    2.6290    0.9210   -1.6960 H   0  0  0  0  0  0  0  0  0  0  0  0
    1.0720    0.1830   -2.2170 H   0  0  0  0  0  0  0  0  0  0  0  0
    1.1500    2.5590   -4.7720 H   0  0  0  0  0  0  0  0  0  0  0  0
   -1.3530    0.3970    0.3020 N   0  0  0  0  0  0  0  0  0  0  0  0
   -2.7760    0.5390    0.4040 C   0  0  1  0  0  0  0  0  0  0  0  0
   -3.3910   -0.4290   -0.5820 C   0  0  0  0  0  0  0  0  0  0  0  0
   -3.0440   -1.8560   -0.3410 C   0  0  0  0  0  0  0  0  0  0  0  0
   -3.4490   -2.4070    0.9400 C   0  0  0  0  0  0  0  0  0  0  0  0
   -4.6610   -2.3520    1.3470 O   0  0  0  0  0  0  0  0  0  0  0  0
   -3.3350    0.5070    1.7270 C   0  0  0  0  0  0  0  0  0  0  0  0
   -2.6540    0.3440    2.7560 O   0  0  0  0  0  0  0  0  0  0  0  0
   -2.5670   -3.0250    1.8140 O   0  0  0  0  0  0  0  0  0  0  0  0
   -4.6900    0.6610    1.9150 O   0  0  0  0  0  0  0  0  0  0  0  0
   -0.9350   -0.4770    0.6760 H   0  0  0  0  0  0  0  0  0  0  0  0
   -3.0220    1.5540   -0.0400 H   0  0  0  0  0  0  0  0  0  0  0  0
   -4.4790   -0.2330   -0.5890 H   0  0  0  0  0  0  0  0  0  0  0  0
   -3.0090   -0.1430   -1.5830 H   0  0  0  0  0  0  0  0  0  0  0  0
   -3.5820   -2.4420   -1.1480 H   0  0  0  0  0  0  0  0  0  0  0  0
   -1.9710   -2.0530   -0.5200 H   0  0  0  0  0  0  0  0  0  0  0  0
   -2.6330   -2.8040    2.8230 H   0  0  0  0  0  0  0  0  0  0  0  0
  1  9  1  0  0  0  0
  1 10  1  0  0  0  0
  2  1  1  0  0  0  0
  2 11  1  0  0  0  0
  3 14  1  0  0  0  0
  3 12  1  0  0  0  0
  3  2  1  0  0  0  0
  4 15  1  6  0  0  0
  4  2  1  0  0  0  0
  4  5  1  0  0  0  0
  5 16  1  0  0  0  0
  6  7  2  0  0  0  0
  6  4  1  0  0  0  0
  8  1  1  0  0  0  0
 13  3  1  0  0  0  0
 17  5  1  0  0  0  0
 18  6  1  0  0  0  0
 19 23  1  0  0  0  0
 19 27  1  1  0  0  0
 19 18  1  0  0  0  0
 20 28  1  0  0  0  0
 20 19  1  0  0  0  0
 21 22  2  0  0  0  0
 21 20  1  0  0  0  0
 23 31  1  0  0  0  0
 24 23  2  0  0  0  0
 25 21  1  0  0  0  0
 26 18  1  0  0  0  0
 29 20  1  0  0  0  0
 30 25  1  0  0  0  0
 31 32  1  0  0  0  0
 31 41  1  0  0  0  0
 32 42  1  6  0  0  0
 32 37  1  0  0  0  0
 33 34  1  0  0  0  0
 33 32  1  0  0  0  0
 34 35  1  0  0  0  0
 35 36  2  0  0  0  0
 35 39  1  0  0  0  0
 37 40  2  0  0  0  0
 37 38  1  0  0  0  0
 39 47  1  0  0  0  0
 43 33  1  0  0  0  0
 44 33  1  0  0  0  0
 45 34  1  0  0  0  0
 46 34  1  0  0  0  0
M  END
$$$$
