VDH.pdb
 OpenBabel07022419243D

 48 48  0  0  1  0  0  0  0  0999 V2000
    1.9490   -3.2820    3.7960 C   0  0  0  0  0  0  0  0  0  0  0  0
    1.2100   -3.7020    2.5610 C   0  0  0  0  0  0  0  0  0  0  0  0
   -0.2830   -3.4990    2.6390 C   0  0  0  0  0  0  0  0  0  0  0  0
    1.8420   -3.2500    1.2890 C   0  0  2  0  0  0  0  0  0  0  0  0
    3.1820   -3.8450    1.2560 N   0  0  0  0  0  0  0  0  0  0  0  0
    1.9650   -1.7950    1.1020 C   0  0  0  0  0  0  0  0  0  0  0  0
    3.1250   -1.3370    1.0570 O   0  0  0  0  0  0  0  0  0  0  0  0
    2.7290   -4.0310    4.1100 H   0  0  0  0  0  0  0  0  0  0  0  0
    2.5480   -2.3380    3.6300 H   0  0  0  0  0  0  0  0  0  0  0  0
    1.2870   -3.1840    4.6840 H   0  0  0  0  0  0  0  0  0  0  0  0
    1.3270   -4.8350    2.5350 H   0  0  0  0  0  0  0  0  0  0  0  0
   -0.6890   -3.6410    1.6160 H   0  0  0  0  0  0  0  0  0  0  0  0
   -0.7030   -4.2940    3.3180 H   0  0  0  0  0  0  0  0  0  0  0  0
   -0.5750   -2.5190    3.0560 H   0  0  0  0  0  0  0  0  0  0  0  0
    1.2850   -3.6770    0.4410 H   0  0  0  0  0  0  0  0  0  0  0  0
    3.6630   -3.5490    0.3830 H   0  0  0  0  0  0  0  0  0  0  0  0
    3.7170   -3.6230    2.1180 H   0  0  0  0  0  0  0  0  0  0  0  0
    0.8780   -0.9190    0.9720 N   0  0  0  0  0  0  0  0  0  0  0  0
    0.8500    0.4840    0.8140 C   0  0  1  0  0  0  0  0  0  0  0  0
    2.2100    1.1710    0.8460 C   0  0  0  0  0  0  0  0  0  0  0  0
    2.8650    1.0240    2.1700 C   0  0  0  0  0  0  0  0  0  0  0  0
    2.2930    0.5310    3.1940 O   0  0  0  0  0  0  0  0  0  0  0  0
   -0.0480    0.9670   -0.2210 C   0  0  0  0  0  0  0  0  0  0  0  0
   -0.2330    2.2070   -0.4510 O   0  0  0  0  0  0  0  0  0  0  0  0
    4.1890    1.4310    2.3750 O   0  0  0  0  0  0  0  0  0  0  0  0
   -0.0620   -1.4220    1.0100 H   0  0  0  0  0  0  0  0  0  0  0  0
    0.4330    0.8960    1.8320 H   0  0  0  0  0  0  0  0  0  0  0  0
    2.9130    0.7690    0.0900 H   0  0  0  0  0  0  0  0  0  0  0  0
    2.0330    2.2620    0.6970 H   0  0  0  0  0  0  0  0  0  0  0  0
    4.7720    1.0280    3.1140 H   0  0  0  0  0  0  0  0  0  0  0  0
   -0.7710    0.0740   -1.0380 N   0  0  0  0  0  0  0  0  0  0  0  0
   -1.6930    0.3740   -2.0720 C   0  0  1  0  0  0  0  0  0  0  0  0
   -2.6110    1.5650   -1.8260 C   0  0  0  0  0  0  0  0  0  0  0  0
   -3.4940    1.3800   -0.6540 C   0  0  0  0  0  0  0  0  0  0  0  0
   -3.2470    1.7470    0.6300 C   0  0  0  0  0  0  0  0  0  0  0  0
   -4.3380    1.3900    1.3490 N   0  0  0  0  0  0  0  0  0  0  0  0
   -5.2570    0.8160    0.5700 C   0  0  0  0  0  0  0  0  0  0  0  0
   -4.7370    0.8110   -0.6620 N   0  0  0  0  0  0  0  0  0  0  0  0
   -1.1840    0.3030   -3.4430 C   0  0  0  0  0  0  0  0  0  0  0  0
   -1.9390    0.5500   -4.4020 O   0  0  0  0  0  0  0  0  0  0  0  0
    0.1280   -0.0360   -3.6810 O   0  0  0  0  0  0  0  0  0  0  0  0
   -0.5850   -0.9620   -0.8520 H   0  0  0  0  0  0  0  0  0  0  0  0
   -2.4750   -0.4850   -1.9970 H   0  0  0  0  0  0  0  0  0  0  0  0
   -2.1060    2.5190   -1.7350 H   0  0  0  0  0  0  0  0  0  0  0  0
   -3.2980    1.5610   -2.7290 H   0  0  0  0  0  0  0  0  0  0  0  0
   -2.3850    2.2370    1.0910 H   0  0  0  0  0  0  0  0  0  0  0  0
   -4.4360    1.5470    2.3750 H   0  0  0  0  0  0  0  0  0  0  0  0
   -6.2380    0.4280    0.8780 H   0  0  0  0  0  0  0  0  0  0  0  0
  1  8  1  0  0  0  0
  1 10  1  0  0  0  0
  2  3  1  0  0  0  0
  2  1  1  0  0  0  0
  3 14  1  0  0  0  0
  3 13  1  0  0  0  0
  4 15  1  6  0  0  0
  4  2  1  0  0  0  0
  5  4  1  0  0  0  0
  5 17  1  0  0  0  0
  6  4  1  0  0  0  0
  7  6  2  0  0  0  0
  9  1  1  0  0  0  0
 11  2  1  0  0  0  0
 12  3  1  0  0  0  0
 16  5  1  0  0  0  0
 18 26  1  0  0  0  0
 18  6  1  0  0  0  0
 19 20  1  0  0  0  0
 19 18  1  0  0  0  0
 19 27  1  1  0  0  0
 20 21  1  0  0  0  0
 21 25  1  0  0  0  0
 21 22  2  0  0  0  0
 23 19  1  0  0  0  0
 24 23  2  0  0  0  0
 25 30  1  0  0  0  0
 28 20  1  0  0  0  0
 29 20  1  0  0  0  0
 31 42  1  0  0  0  0
 31 23  1  0  0  0  0
 32 43  1  1  0  0  0
 32 33  1  0  0  0  0
 32 31  1  0  0  0  0
 33 44  1  0  0  0  0
 33 34  1  0  0  0  0
 34 35  2  0  0  0  0
 35 46  1  0  0  0  0
 35 36  1  0  0  0  0
 36 47  1  0  0  0  0
 37 48  1  0  0  0  0
 37 36  1  0  0  0  0
 38 34  1  0  0  0  0
 38 37  2  0  0  0  0
 39 32  1  0  0  0  0
 40 39  2  0  0  0  0
 41 39  1  0  0  0  0
 45 33  1  0  0  0  0
M  END
$$$$
