VDI.pdb
 OpenBabel07022419243D

 50 49  0  0  1  0  0  0  0  0999 V2000
    1.9430   -2.9620    5.5760 C   0  0  0  0  0  0  0  0  0  0  0  0
    0.8680   -2.3050    4.7630 C   0  0  0  0  0  0  0  0  0  0  0  0
    0.4650   -0.9510    5.2450 C   0  0  0  0  0  0  0  0  0  0  0  0
    1.1790   -2.2350    3.2840 C   0  0  2  0  0  0  0  0  0  0  0  0
    2.3810   -1.5010    3.0770 N   0  0  0  0  0  0  0  0  0  0  0  0
    0.0050   -1.5800    2.6250 C   0  0  0  0  0  0  0  0  0  0  0  0
   -1.1570   -2.0930    2.7320 O   0  0  0  0  0  0  0  0  0  0  0  0
    2.1860   -2.3760    6.5040 H   0  0  0  0  0  0  0  0  0  0  0  0
    1.5380   -3.9350    5.9550 H   0  0  0  0  0  0  0  0  0  0  0  0
    2.8590   -3.2150    5.0350 H   0  0  0  0  0  0  0  0  0  0  0  0
   -0.0690   -2.9650    4.8020 H   0  0  0  0  0  0  0  0  0  0  0  0
    0.6440   -0.8250    6.3530 H   0  0  0  0  0  0  0  0  0  0  0  0
    0.9700   -0.0980    4.7590 H   0  0  0  0  0  0  0  0  0  0  0  0
   -0.6230   -0.8120    5.0680 H   0  0  0  0  0  0  0  0  0  0  0  0
    1.2660   -3.2640    2.8520 H   0  0  0  0  0  0  0  0  0  0  0  0
    2.2480   -0.4940    3.2710 H   0  0  0  0  0  0  0  0  0  0  0  0
    3.1980   -1.8160    3.6270 H   0  0  0  0  0  0  0  0  0  0  0  0
    0.0830   -0.3910    1.8630 N   0  0  0  0  0  0  0  0  0  0  0  0
   -1.0460    0.2330    1.2380 C   0  0  1  0  0  0  0  0  0  0  0  0
   -1.3050    1.5710    1.8750 C   0  0  0  0  0  0  0  0  0  0  0  0
   -1.5950    1.4220    3.3280 C   0  0  0  0  0  0  0  0  0  0  0  0
   -2.4990    0.6820    3.7790 O   0  0  0  0  0  0  0  0  0  0  0  0
   -0.9210    0.3310   -0.2520 C   0  0  0  0  0  0  0  0  0  0  0  0
   -1.8680    0.8910   -0.8350 O   0  0  0  0  0  0  0  0  0  0  0  0
   -0.8320    2.1330    4.2720 O   0  0  0  0  0  0  0  0  0  0  0  0
    1.0340    0.0490    1.7550 H   0  0  0  0  0  0  0  0  0  0  0  0
   -1.9490   -0.3870    1.4370 H   0  0  0  0  0  0  0  0  0  0  0  0
   -0.5240    2.3200    1.7220 H   0  0  0  0  0  0  0  0  0  0  0  0
   -2.2290    2.0010    1.4160 H   0  0  0  0  0  0  0  0  0  0  0  0
   -1.1580    2.3160    5.2000 H   0  0  0  0  0  0  0  0  0  0  0  0
   -1.2180   -2.3990   -3.5290 C   0  0  0  0  0  0  0  0  0  0  0  0
   -1.7940   -1.0150   -3.2230 C   0  0  0  0  0  0  0  0  0  0  0  0
   -0.7240    0.0320   -3.2880 C   0  0  2  0  0  0  0  0  0  0  0  0
   -0.1830   -0.0270   -4.7160 C   0  0  0  0  0  0  0  0  0  0  0  0
    0.4320   -0.1790   -2.3560 C   0  0  2  0  0  0  0  0  0  0  0  0
    0.1700   -0.1660   -0.9630 N   0  0  0  0  0  0  0  0  0  0  0  0
    1.6230    0.5560   -2.7560 C   0  0  0  0  0  0  0  0  0  0  0  0
    2.2580    1.1390   -1.7890 O   0  0  0  0  0  0  0  0  0  0  0  0
    2.1500    0.7060   -4.0110 O   0  0  0  0  0  0  0  0  0  0  0  0
   -0.6760   -2.8400   -2.6950 H   0  0  0  0  0  0  0  0  0  0  0  0
   -2.1010   -3.0450   -3.7320 H   0  0  0  0  0  0  0  0  0  0  0  0
   -0.6640   -2.3180   -4.4690 H   0  0  0  0  0  0  0  0  0  0  0  0
   -2.4540   -0.8080   -4.1280 H   0  0  0  0  0  0  0  0  0  0  0  0
   -2.4490   -1.0220   -2.3800 H   0  0  0  0  0  0  0  0  0  0  0  0
   -1.2020    1.0220   -3.1830 H   0  0  0  0  0  0  0  0  0  0  0  0
    0.6090   -0.7700   -4.8170 H   0  0  0  0  0  0  0  0  0  0  0  0
   -0.9940   -0.3620   -5.4160 H   0  0  0  0  0  0  0  0  0  0  0  0
    0.1140    0.9910   -5.0050 H   0  0  0  0  0  0  0  0  0  0  0  0
    0.6410   -1.3100   -2.5680 H   0  0  0  0  0  0  0  0  0  0  0  0
    0.9390   -0.6110   -0.3580 H   0  0  0  0  0  0  0  0  0  0  0  0
  1  9  1  0  0  0  0
  1  8  1  0  0  0  0
  2 11  1  0  0  0  0
  2  3  1  0  0  0  0
  2  1  1  0  0  0  0
  3 12  1  0  0  0  0
  4 15  1  6  0  0  0
  4  2  1  0  0  0  0
  5 16  1  0  0  0  0
  5  4  1  0  0  0  0
  5 17  1  0  0  0  0
  6  7  2  0  0  0  0
  6  4  1  0  0  0  0
 10  1  1  0  0  0  0
 13  3  1  0  0  0  0
 14  3  1  0  0  0  0
 18  6  1  0  0  0  0
 19 27  1  1  0  0  0
 19 18  1  0  0  0  0
 19 20  1  0  0  0  0
 20 21  1  0  0  0  0
 21 22  2  0  0  0  0
 21 25  1  0  0  0  0
 23 19  1  0  0  0  0
 24 23  2  0  0  0  0
 25 30  1  0  0  0  0
 26 18  1  0  0  0  0
 28 20  1  0  0  0  0
 29 20  1  0  0  0  0
 31 32  1  0  0  0  0
 31 40  1  0  0  0  0
 32 44  1  0  0  0  0
 33 32  1  0  0  0  0
 33 45  1  1  0  0  0
 33 35  1  0  0  0  0
 34 33  1  0  0  0  0
 35 49  1  6  0  0  0
 35 36  1  0  0  0  0
 36 50  1  0  0  0  0
 36 23  1  0  0  0  0
 37 35  1  0  0  0  0
 37 38  1  0  0  0  0
 39 37  2  0  0  0  0
 41 31  1  0  0  0  0
 42 31  1  0  0  0  0
 43 32  1  0  0  0  0
 46 34  1  0  0  0  0
 47 34  1  0  0  0  0
 48 34  1  0  0  0  0
M  END
$$$$
