VDL.pdb
 OpenBabel07022419243D

 50 49  0  0  1  0  0  0  0  0999 V2000
   -0.3650   -3.1730    2.3750 C   0  0  0  0  0  0  0  0  0  0  0  0
   -0.9450   -2.5010    3.5700 C   0  0  0  0  0  0  0  0  0  0  0  0
   -2.3230   -1.9520    3.1630 C   0  0  0  0  0  0  0  0  0  0  0  0
   -0.1140   -1.4450    4.2050 C   0  0  2  0  0  0  0  0  0  0  0  0
   -0.8900   -0.9550    5.3660 N   0  0  0  0  0  0  0  0  0  0  0  0
    0.2010   -0.2700    3.4080 C   0  0  0  0  0  0  0  0  0  0  0  0
   -0.1340    0.9100    3.7980 O   0  0  0  0  0  0  0  0  0  0  0  0
   -0.7870   -4.2260    2.3440 H   0  0  0  0  0  0  0  0  0  0  0  0
   -0.6110   -2.7470    1.4040 H   0  0  0  0  0  0  0  0  0  0  0  0
    0.7410   -3.3690    2.5110 H   0  0  0  0  0  0  0  0  0  0  0  0
   -1.2070   -3.3070    4.3190 H   0  0  0  0  0  0  0  0  0  0  0  0
   -3.0020   -1.9730    4.0240 H   0  0  0  0  0  0  0  0  0  0  0  0
   -2.7180   -2.5890    2.3620 H   0  0  0  0  0  0  0  0  0  0  0  0
   -2.2110   -0.9160    2.7570 H   0  0  0  0  0  0  0  0  0  0  0  0
    0.7690   -1.9410    4.6610 H   0  0  0  0  0  0  0  0  0  0  0  0
   -1.6640   -0.3370    5.0350 H   0  0  0  0  0  0  0  0  0  0  0  0
   -0.2530   -0.3600    5.9410 H   0  0  0  0  0  0  0  0  0  0  0  0
    0.8890   -0.2420    2.1510 N   0  0  0  0  0  0  0  0  0  0  0  0
    1.1730    0.9780    1.4350 C   0  0  1  0  0  0  0  0  0  0  0  0
    2.6620    1.0400    1.1900 C   0  0  0  0  0  0  0  0  0  0  0  0
    3.4800    1.0370    2.4050 C   0  0  0  0  0  0  0  0  0  0  0  0
    4.7430    1.0870    2.3360 O   0  0  0  0  0  0  0  0  0  0  0  0
    0.4810    1.1380    0.1570 C   0  0  0  0  0  0  0  0  0  0  0  0
    0.7080    2.1770   -0.5120 O   0  0  0  0  0  0  0  0  0  0  0  0
    2.9400    0.9810    3.6610 O   0  0  0  0  0  0  0  0  0  0  0  0
    1.1890   -1.1530    1.7530 H   0  0  0  0  0  0  0  0  0  0  0  0
    0.9060    1.8820    2.0420 H   0  0  0  0  0  0  0  0  0  0  0  0
    3.0110    0.1860    0.5560 H   0  0  0  0  0  0  0  0  0  0  0  0
    2.9370    1.9540    0.5950 H   0  0  0  0  0  0  0  0  0  0  0  0
    3.4500    1.2800    4.4880 H   0  0  0  0  0  0  0  0  0  0  0  0
    1.0410    0.1560   -3.5700 C   0  0  0  0  0  0  0  0  0  0  0  0
    0.5570   -1.0970   -2.8520 C   0  0  0  0  0  0  0  0  0  0  0  0
    0.6320   -2.2900   -3.7910 C   0  0  0  0  0  0  0  0  0  0  0  0
   -0.8710   -0.9020   -2.4840 C   0  0  0  0  0  0  0  0  0  0  0  0
   -1.1240    0.2720   -1.5720 C   0  0  2  0  0  0  0  0  0  0  0  0
   -0.4190    0.1560   -0.3150 N   0  0  0  0  0  0  0  0  0  0  0  0
   -2.5830    0.3470   -1.3580 C   0  0  0  0  0  0  0  0  0  0  0  0
   -3.3830    0.4510   -2.3080 O   0  0  0  0  0  0  0  0  0  0  0  0
   -3.0620    0.3010   -0.0680 O   0  0  0  0  0  0  0  0  0  0  0  0
    1.8310   -0.1030   -4.3170 H   0  0  0  0  0  0  0  0  0  0  0  0
    1.4000    0.8720   -2.8280 H   0  0  0  0  0  0  0  0  0  0  0  0
    0.1550    0.5960   -4.0780 H   0  0  0  0  0  0  0  0  0  0  0  0
    1.2120   -1.3440   -1.9930 H   0  0  0  0  0  0  0  0  0  0  0  0
   -0.3770   -2.6210   -4.1120 H   0  0  0  0  0  0  0  0  0  0  0  0
    1.2400   -2.0300   -4.7040 H   0  0  0  0  0  0  0  0  0  0  0  0
    1.1010   -3.1740   -3.3050 H   0  0  0  0  0  0  0  0  0  0  0  0
   -1.4310   -0.6850   -3.4310 H   0  0  0  0  0  0  0  0  0  0  0  0
   -1.3250   -1.8310   -2.0850 H   0  0  0  0  0  0  0  0  0  0  0  0
   -0.8290    1.2240   -2.0670 H   0  0  0  0  0  0  0  0  0  0  0  0
   -0.5630   -0.6780    0.2880 H   0  0  0  0  0  0  0  0  0  0  0  0
  1 10  1  0  0  0  0
  1  2  1  0  0  0  0
  2  4  1  0  0  0  0
  2 11  1  0  0  0  0
  3  2  1  0  0  0  0
  3 12  1  0  0  0  0
  4 15  1  1  0  0  0
  4  5  1  0  0  0  0
  5 17  1  0  0  0  0
  6  7  2  0  0  0  0
  6  4  1  0  0  0  0
  8  1  1  0  0  0  0
  9  1  1  0  0  0  0
 13  3  1  0  0  0  0
 14  3  1  0  0  0  0
 16  5  1  0  0  0  0
 18  6  1  0  0  0  0
 19 27  1  1  0  0  0
 19 18  1  0  0  0  0
 20 19  1  0  0  0  0
 20 21  1  0  0  0  0
 21 25  1  0  0  0  0
 22 21  2  0  0  0  0
 23 19  1  0  0  0  0
 24 23  2  0  0  0  0
 25 30  1  0  0  0  0
 26 18  1  0  0  0  0
 28 20  1  0  0  0  0
 29 20  1  0  0  0  0
 31 32  1  0  0  0  0
 31 41  1  0  0  0  0
 32 34  1  0  0  0  0
 32 43  1  0  0  0  0
 33 46  1  0  0  0  0
 33 32  1  0  0  0  0
 34 48  1  0  0  0  0
 34 35  1  0  0  0  0
 35 49  1  6  0  0  0
 35 37  1  0  0  0  0
 35 36  1  0  0  0  0
 36 23  1  0  0  0  0
 36 50  1  0  0  0  0
 37 39  1  0  0  0  0
 38 37  2  0  0  0  0
 40 31  1  0  0  0  0
 42 31  1  0  0  0  0
 44 33  1  0  0  0  0
 45 33  1  0  0  0  0
 47 34  1  0  0  0  0
M  END
$$$$
