VDN.pdb
 OpenBabel07022419243D

 45 44  0  0  1  0  0  0  0  0999 V2000
    0.7670   -4.9990    2.4510 C   0  0  0  0  0  0  0  0  0  0  0  0
    0.3390   -3.5560    2.3820 C   0  0  0  0  0  0  0  0  0  0  0  0
   -0.1120   -3.2320    0.9870 C   0  0  0  0  0  0  0  0  0  0  0  0
    1.4640   -2.6590    2.8610 C   0  0  2  0  0  0  0  0  0  0  0  0
    1.7120   -3.0660    4.2480 N   0  0  0  0  0  0  0  0  0  0  0  0
    1.1320   -1.2340    2.8890 C   0  0  0  0  0  0  0  0  0  0  0  0
    0.7750   -0.6490    3.9670 O   0  0  0  0  0  0  0  0  0  0  0  0
   -0.1020   -5.6590    2.7420 H   0  0  0  0  0  0  0  0  0  0  0  0
    1.0990   -5.4050    1.4550 H   0  0  0  0  0  0  0  0  0  0  0  0
    1.5710   -5.1490    3.2170 H   0  0  0  0  0  0  0  0  0  0  0  0
   -0.5460   -3.4790    3.0670 H   0  0  0  0  0  0  0  0  0  0  0  0
   -0.4670   -2.1640    0.9150 H   0  0  0  0  0  0  0  0  0  0  0  0
   -1.0290   -3.8140    0.6980 H   0  0  0  0  0  0  0  0  0  0  0  0
    0.6360   -3.4770    0.2170 H   0  0  0  0  0  0  0  0  0  0  0  0
    2.3670   -2.9300    2.2880 H   0  0  0  0  0  0  0  0  0  0  0  0
    0.9050   -3.5520    4.6530 H   0  0  0  0  0  0  0  0  0  0  0  0
    2.5580   -3.6870    4.3100 H   0  0  0  0  0  0  0  0  0  0  0  0
    1.1710   -0.3560    1.7440 N   0  0  0  0  0  0  0  0  0  0  0  0
    0.8300    1.0280    1.8350 C   0  0  1  0  0  0  0  0  0  0  0  0
    2.0630    1.9240    1.8040 C   0  0  0  0  0  0  0  0  0  0  0  0
    3.0030    1.6730    2.8890 C   0  0  0  0  0  0  0  0  0  0  0  0
    3.6900    0.5950    2.9070 O   0  0  0  0  0  0  0  0  0  0  0  0
   -0.0820    1.5400    0.8090 C   0  0  0  0  0  0  0  0  0  0  0  0
   -0.4320    2.7430    0.9050 O   0  0  0  0  0  0  0  0  0  0  0  0
    3.2260    2.5370    3.9450 O   0  0  0  0  0  0  0  0  0  0  0  0
    1.4670   -0.7710    0.8370 H   0  0  0  0  0  0  0  0  0  0  0  0
    0.3870    1.2070    2.8430 H   0  0  0  0  0  0  0  0  0  0  0  0
    2.6150    1.7990    0.8300 H   0  0  0  0  0  0  0  0  0  0  0  0
    1.7540    2.9920    1.8320 H   0  0  0  0  0  0  0  0  0  0  0  0
    3.6990    2.2510    4.8130 H   0  0  0  0  0  0  0  0  0  0  0  0
   -1.3940    1.5640   -5.0460 N   0  0  0  0  0  0  0  0  0  0  0  0
   -1.7490    1.8010   -3.6740 C   0  0  0  0  0  0  0  0  0  0  0  0
   -2.7360    2.5410   -3.4900 O   0  0  0  0  0  0  0  0  0  0  0  0
   -0.9690    1.1880   -2.6150 C   0  0  0  0  0  0  0  0  0  0  0  0
   -1.5090    1.4370   -1.2330 C   0  0  2  0  0  0  0  0  0  0  0  0
   -0.5870    0.7770   -0.2720 N   0  0  0  0  0  0  0  0  0  0  0  0
   -2.7800    0.6780   -1.0960 C   0  0  0  0  0  0  0  0  0  0  0  0
   -3.7770    0.9950   -1.7680 O   0  0  0  0  0  0  0  0  0  0  0  0
   -2.9170   -0.3940   -0.2350 O   0  0  0  0  0  0  0  0  0  0  0  0
   -1.2940    2.4000   -5.6510 H   0  0  0  0  0  0  0  0  0  0  0  0
   -1.2450    0.6090   -5.4060 H   0  0  0  0  0  0  0  0  0  0  0  0
   -1.0060    0.0680   -2.7600 H   0  0  0  0  0  0  0  0  0  0  0  0
    0.0920    1.4970   -2.7190 H   0  0  0  0  0  0  0  0  0  0  0  0
   -1.6240    2.4990   -0.9680 H   0  0  0  0  0  0  0  0  0  0  0  0
   -0.3210   -0.2180   -0.4020 H   0  0  0  0  0  0  0  0  0  0  0  0
  1  8  1  0  0  0  0
  1 10  1  0  0  0  0
  2  1  1  0  0  0  0
  2  4  1  0  0  0  0
  2 11  1  0  0  0  0
  3  2  1  0  0  0  0
  4 15  1  6  0  0  0
  4  6  1  0  0  0  0
  4  5  1  0  0  0  0
  5 17  1  0  0  0  0
  5 16  1  0  0  0  0
  6  7  2  0  0  0  0
  9  1  1  0  0  0  0
 12  3  1  0  0  0  0
 13  3  1  0  0  0  0
 14  3  1  0  0  0  0
 18 19  1  0  0  0  0
 18  6  1  0  0  0  0
 19 27  1  1  0  0  0
 20 29  1  0  0  0  0
 20 19  1  0  0  0  0
 20 21  1  0  0  0  0
 21 22  2  0  0  0  0
 21 25  1  0  0  0  0
 23 24  2  0  0  0  0
 23 19  1  0  0  0  0
 25 30  1  0  0  0  0
 26 18  1  0  0  0  0
 28 20  1  0  0  0  0
 31 32  1  0  0  0  0
 32 33  2  0  0  0  0
 32 34  1  0  0  0  0
 34 35  1  0  0  0  0
 35 37  1  0  0  0  0
 35 44  1  1  0  0  0
 35 36  1  0  0  0  0
 36 23  1  0  0  0  0
 37 39  1  0  0  0  0
 38 37  2  0  0  0  0
 40 31  1  0  0  0  0
 41 31  1  0  0  0  0
 42 34  1  0  0  0  0
 43 34  1  0  0  0  0
 45 36  1  0  0  0  0
M  END
$$$$
