VDT.pdb
 OpenBabel07022419243D

 45 44  0  0  1  0  0  0  0  0999 V2000
    0.0310   -5.0160   -0.9060 C   0  0  0  0  0  0  0  0  0  0  0  0
    0.3900   -3.5630   -0.5180 C   0  0  0  0  0  0  0  0  0  0  0  0
   -0.2210   -3.3920    0.8520 C   0  0  0  0  0  0  0  0  0  0  0  0
   -0.2520   -2.7090   -1.5910 C   0  0  2  0  0  0  0  0  0  0  0  0
    0.3880   -3.2280   -2.8530 N   0  0  0  0  0  0  0  0  0  0  0  0
    0.0330   -1.2730   -1.5110 C   0  0  0  0  0  0  0  0  0  0  0  0
    0.9430   -0.7580   -2.2750 O   0  0  0  0  0  0  0  0  0  0  0  0
    0.6930   -5.6600   -0.2910 H   0  0  0  0  0  0  0  0  0  0  0  0
   -0.9980   -5.1780   -0.5760 H   0  0  0  0  0  0  0  0  0  0  0  0
    0.1960   -5.1870   -1.9830 H   0  0  0  0  0  0  0  0  0  0  0  0
    1.4730   -3.4010   -0.5530 H   0  0  0  0  0  0  0  0  0  0  0  0
    0.5210   -2.9130    1.5300 H   0  0  0  0  0  0  0  0  0  0  0  0
   -1.2130   -2.9310    0.8470 H   0  0  0  0  0  0  0  0  0  0  0  0
   -0.3870   -4.4030    1.3450 H   0  0  0  0  0  0  0  0  0  0  0  0
   -1.3050   -2.9900   -1.6790 H   0  0  0  0  0  0  0  0  0  0  0  0
   -0.3410   -3.4400   -3.5560 H   0  0  0  0  0  0  0  0  0  0  0  0
    0.9860   -2.4760   -3.2650 H   0  0  0  0  0  0  0  0  0  0  0  0
   -0.6460   -0.3990   -0.6390 N   0  0  0  0  0  0  0  0  0  0  0  0
   -0.3460    1.0370   -0.6070 C   0  0  1  0  0  0  0  0  0  0  0  0
   -1.5810    1.8370   -0.8740 C   0  0  0  0  0  0  0  0  0  0  0  0
   -1.2940    3.2750   -0.9020 C   0  0  0  0  0  0  0  0  0  0  0  0
   -0.1830    3.8170   -0.8430 O   0  0  0  0  0  0  0  0  0  0  0  0
    0.1550    1.3320    0.7830 C   0  0  0  0  0  0  0  0  0  0  0  0
    0.5330    2.4810    1.1240 O   0  0  0  0  0  0  0  0  0  0  0  0
   -2.4370    4.1110   -1.0090 O   0  0  0  0  0  0  0  0  0  0  0  0
   -1.3780   -0.7430   -0.0130 H   0  0  0  0  0  0  0  0  0  0  0  0
    0.4720    1.2180   -1.3070 H   0  0  0  0  0  0  0  0  0  0  0  0
   -2.1360    1.4870   -1.7710 H   0  0  0  0  0  0  0  0  0  0  0  0
   -2.3180    1.6910   -0.0280 H   0  0  0  0  0  0  0  0  0  0  0  0
   -2.3980    5.0890   -0.7870 H   0  0  0  0  0  0  0  0  0  0  0  0
    2.5720    0.2590    4.7440 C   0  0  0  0  0  0  0  0  0  0  0  0
    2.1050    0.1380    3.3330 C   0  0  1  0  0  0  0  0  0  0  0  0
    2.2330   -1.2230    2.9730 O   0  0  0  0  0  0  0  0  0  0  0  0
    0.6750    0.5060    3.1420 C   0  0  2  0  0  0  0  0  0  0  0  0
    0.2330    0.3360    1.7990 N   0  0  0  0  0  0  0  0  0  0  0  0
    0.2650    1.7660    3.8120 C   0  0  0  0  0  0  0  0  0  0  0  0
    0.7380    2.0180    4.9740 O   0  0  0  0  0  0  0  0  0  0  0  0
   -0.5930    2.7190    3.3140 O   0  0  0  0  0  0  0  0  0  0  0  0
    1.7700   -0.0250    5.4520 H   0  0  0  0  0  0  0  0  0  0  0  0
    2.9750    1.2650    4.9600 H   0  0  0  0  0  0  0  0  0  0  0  0
    3.4010   -0.4720    4.8870 H   0  0  0  0  0  0  0  0  0  0  0  0
    2.8010    0.7050    2.6830 H   0  0  0  0  0  0  0  0  0  0  0  0
    3.1320   -1.4400    2.6510 H   0  0  0  0  0  0  0  0  0  0  0  0
    0.0630   -0.2690    3.7530 H   0  0  0  0  0  0  0  0  0  0  0  0
   -0.0840   -0.6380    1.4820 H   0  0  0  0  0  0  0  0  0  0  0  0
  1  9  1  0  0  0  0
  1  2  1  0  0  0  0
  1  8  1  0  0  0  0
  2  3  1  0  0  0  0
  3 14  1  0  0  0  0
  3 12  1  0  0  0  0
  4 15  1  6  0  0  0
  4  6  1  0  0  0  0
  4  2  1  0  0  0  0
  5  4  1  0  0  0  0
  6 18  1  0  0  0  0
  7  6  2  0  0  0  0
 10  1  1  0  0  0  0
 11  2  1  0  0  0  0
 13  3  1  0  0  0  0
 16  5  1  0  0  0  0
 17  5  1  0  0  0  0
 18 19  1  0  0  0  0
 18 26  1  0  0  0  0
 19 27  1  6  0  0  0
 19 23  1  0  0  0  0
 20 19  1  0  0  0  0
 20 29  1  0  0  0  0
 21 20  1  0  0  0  0
 21 22  2  0  0  0  0
 23 24  2  0  0  0  0
 23 35  1  0  0  0  0
 25 21  1  0  0  0  0
 25 30  1  0  0  0  0
 28 20  1  0  0  0  0
 31 41  1  0  0  0  0
 31 40  1  0  0  0  0
 31 39  1  0  0  0  0
 32 42  1  6  0  0  0
 32 31  1  0  0  0  0
 33 32  1  0  0  0  0
 34 32  1  0  0  0  0
 34 44  1  1  0  0  0
 34 36  1  0  0  0  0
 35 34  1  0  0  0  0
 36 37  1  0  0  0  0
 38 36  2  0  0  0  0
 43 33  1  0  0  0  0
 45 35  1  0  0  0  0
M  END
$$$$
