VDW.pdb
 OpenBabel07022419243D

 55 56  0  0  1  0  0  0  0  0999 V2000
   -1.2850   -1.1550    2.4680 C   0  0  0  0  0  0  0  0  0  0  0  0
   -0.1810   -0.8220    3.4450 C   0  0  0  0  0  0  0  0  0  0  0  0
    0.8290   -1.9420    3.4170 C   0  0  0  0  0  0  0  0  0  0  0  0
    0.3930    0.5360    3.2520 C   0  0  2  0  0  0  0  0  0  0  0  0
   -0.5990    1.5690    3.3940 N   0  0  0  0  0  0  0  0  0  0  0  0
    1.1950    0.7290    2.0220 C   0  0  0  0  0  0  0  0  0  0  0  0
    2.2180    0.0050    1.8280 O   0  0  0  0  0  0  0  0  0  0  0  0
   -1.0640   -0.9070    1.4260 H   0  0  0  0  0  0  0  0  0  0  0  0
   -1.4480   -2.2500    2.5280 H   0  0  0  0  0  0  0  0  0  0  0  0
   -2.2030   -0.6720    2.8670 H   0  0  0  0  0  0  0  0  0  0  0  0
   -0.6290   -0.8410    4.4600 H   0  0  0  0  0  0  0  0  0  0  0  0
    0.6590   -2.6800    4.2590 H   0  0  0  0  0  0  0  0  0  0  0  0
    1.8630   -1.6050    3.4520 H   0  0  0  0  0  0  0  0  0  0  0  0
    0.6660   -2.5780    2.4970 H   0  0  0  0  0  0  0  0  0  0  0  0
    1.1180    0.6870    4.1070 H   0  0  0  0  0  0  0  0  0  0  0  0
   -1.3090    1.2560    4.1250 H   0  0  0  0  0  0  0  0  0  0  0  0
   -0.1640    2.4340    3.8060 H   0  0  0  0  0  0  0  0  0  0  0  0
    0.8860    1.6930    1.0320 N   0  0  0  0  0  0  0  0  0  0  0  0
    1.6090    1.9610   -0.1580 C   0  0  1  0  0  0  0  0  0  0  0  0
    3.1400    1.9210    0.0060 C   0  0  0  0  0  0  0  0  0  0  0  0
    3.4980    2.9530    0.9940 C   0  0  0  0  0  0  0  0  0  0  0  0
    3.4550    2.7210    2.2320 O   0  0  0  0  0  0  0  0  0  0  0  0
    1.2290    1.2030   -1.3490 C   0  0  0  0  0  0  0  0  0  0  0  0
    1.9440    1.3760   -2.3830 O   0  0  0  0  0  0  0  0  0  0  0  0
    3.8970    4.2240    0.6040 O   0  0  0  0  0  0  0  0  0  0  0  0
   -0.0000    2.2850    1.1920 H   0  0  0  0  0  0  0  0  0  0  0  0
    1.4470    3.0700   -0.3960 H   0  0  0  0  0  0  0  0  0  0  0  0
    3.4800    0.9170    0.2160 H   0  0  0  0  0  0  0  0  0  0  0  0
    3.5310    2.2740   -0.9880 H   0  0  0  0  0  0  0  0  0  0  0  0
    3.6570    5.0500    1.1520 H   0  0  0  0  0  0  0  0  0  0  0  0
    0.1570    0.3010   -1.4770 N   0  0  0  0  0  0  0  0  0  0  0  0
   -0.1650   -0.4290   -2.6680 C   0  0  1  0  0  0  0  0  0  0  0  0
   -0.2960   -1.8940   -2.4400 C   0  0  0  0  0  0  0  0  0  0  0  0
   -1.3430   -2.2720   -1.4700 C   0  0  0  0  0  0  0  0  0  0  0  0
   -2.4050   -1.5140   -1.0420 C   0  0  0  0  0  0  0  0  0  0  0  0
   -3.0990   -2.2530   -0.1610 N   0  0  0  0  0  0  0  0  0  0  0  0
   -2.5280   -3.4560   -0.0040 C   0  0  0  0  0  0  0  0  0  0  0  0
   -2.8610   -4.5640    0.7900 C   0  0  0  0  0  0  0  0  0  0  0  0
   -2.0880   -5.7070    0.7710 C   0  0  0  0  0  0  0  0  0  0  0  0
   -0.9810   -5.7360   -0.0460 C   0  0  0  0  0  0  0  0  0  0  0  0
   -0.6630   -4.6410   -0.8220 C   0  0  0  0  0  0  0  0  0  0  0  0
   -1.4270   -3.4820   -0.8170 C   0  0  0  0  0  0  0  0  0  0  0  0
   -1.2790    0.1710   -3.4510 C   0  0  0  0  0  0  0  0  0  0  0  0
   -1.7150   -0.4010   -4.4940 O   0  0  0  0  0  0  0  0  0  0  0  0
   -1.9060    1.3600   -3.1150 O   0  0  0  0  0  0  0  0  0  0  0  0
   -0.4500    0.1560   -0.6370 H   0  0  0  0  0  0  0  0  0  0  0  0
    0.7350   -0.2930   -3.3490 H   0  0  0  0  0  0  0  0  0  0  0  0
   -0.3970   -2.4530   -3.3930 H   0  0  0  0  0  0  0  0  0  0  0  0
    0.6860   -2.2360   -1.9960 H   0  0  0  0  0  0  0  0  0  0  0  0
   -2.6780   -0.5070   -1.3240 H   0  0  0  0  0  0  0  0  0  0  0  0
   -3.9790   -1.9710    0.3630 H   0  0  0  0  0  0  0  0  0  0  0  0
   -3.7250   -4.5390    1.4280 H   0  0  0  0  0  0  0  0  0  0  0  0
   -2.3310   -6.5810    1.3830 H   0  0  0  0  0  0  0  0  0  0  0  0
   -0.3310   -6.5980   -0.1090 H   0  0  0  0  0  0  0  0  0  0  0  0
    0.2080   -4.6300   -1.4830 H   0  0  0  0  0  0  0  0  0  0  0  0
  1  9  1  0  0  0  0
  1 10  1  0  0  0  0
  1  2  1  0  0  0  0
  2 11  1  0  0  0  0
  3  2  1  0  0  0  0
  3 13  1  0  0  0  0
  3 12  1  0  0  0  0
  4  5  1  0  0  0  0
  4  2  1  0  0  0  0
  4 15  1  1  0  0  0
  5 17  1  0  0  0  0
  5 16  1  0  0  0  0
  6  4  1  0  0  0  0
  7  6  2  0  0  0  0
  8  1  1  0  0  0  0
 14  3  1  0  0  0  0
 18 26  1  0  0  0  0
 18  6  1  0  0  0  0
 19 27  1  6  0  0  0
 19 20  1  0  0  0  0
 19 18  1  0  0  0  0
 20 28  1  0  0  0  0
 20 21  1  0  0  0  0
 21 22  2  0  0  0  0
 23 19  1  0  0  0  0
 24 23  2  0  0  0  0
 25 21  1  0  0  0  0
 25 30  1  0  0  0  0
 29 20  1  0  0  0  0
 31 23  1  0  0  0  0
 31 46  1  0  0  0  0
 32 47  1  6  0  0  0
 32 33  1  0  0  0  0
 32 31  1  0  0  0  0
 33 49  1  0  0  0  0
 33 34  1  0  0  0  0
 34 35  2  0  0  0  0
 34 42  1  0  0  0  0
 35 36  1  0  0  0  0
 36 37  1  0  0  0  0
 36 51  1  0  0  0  0
 37 38  1  0  0  0  0
 38 52  1  0  0  0  0
 39 38  2  0  0  0  0
 39 53  1  0  0  0  0
 40 39  1  0  0  0  0
 41 42  1  0  0  0  0
 41 40  2  0  0  0  0
 42 37  2  0  0  0  0
 43 45  1  0  0  0  0
 43 32  1  0  0  0  0
 44 43  2  0  0  0  0
 48 33  1  0  0  0  0
 50 35  1  0  0  0  0
 54 40  1  0  0  0  0
 55 41  1  0  0  0  0
M  END
$$$$
