VDY.pdb
 OpenBabel07022419243D

 52 52  0  0  1  0  0  0  0  0999 V2000
    3.6940   -4.0610    1.5690 C   0  0  0  0  0  0  0  0  0  0  0  0
    3.5180   -2.7540    0.8100 C   0  0  0  0  0  0  0  0  0  0  0  0
    2.7770   -3.1160   -0.4590 C   0  0  0  0  0  0  0  0  0  0  0  0
    2.7210   -1.7530    1.6330 C   0  0  2  0  0  0  0  0  0  0  0  0
    1.4020   -2.3030    1.9180 N   0  0  0  0  0  0  0  0  0  0  0  0
    2.5830   -0.4670    0.9150 C   0  0  0  0  0  0  0  0  0  0  0  0
    3.5140    0.3800    0.9100 O   0  0  0  0  0  0  0  0  0  0  0  0
    2.7260   -4.3430    2.0160 H   0  0  0  0  0  0  0  0  0  0  0  0
    4.4900   -3.9640    2.3500 H   0  0  0  0  0  0  0  0  0  0  0  0
    3.9770   -4.8270    0.8120 H   0  0  0  0  0  0  0  0  0  0  0  0
    4.4990   -2.3320    0.6250 H   0  0  0  0  0  0  0  0  0  0  0  0
    2.2070   -2.2840   -0.8830 H   0  0  0  0  0  0  0  0  0  0  0  0
    2.0020   -3.9090   -0.2440 H   0  0  0  0  0  0  0  0  0  0  0  0
    3.4760   -3.5510   -1.2010 H   0  0  0  0  0  0  0  0  0  0  0  0
    3.2700   -1.6330    2.5770 H   0  0  0  0  0  0  0  0  0  0  0  0
    1.4630   -2.9430    2.7500 H   0  0  0  0  0  0  0  0  0  0  0  0
    0.7170   -1.5320    2.1040 H   0  0  0  0  0  0  0  0  0  0  0  0
    1.3980   -0.1310    0.2000 N   0  0  0  0  0  0  0  0  0  0  0  0
    1.1900    1.0880   -0.4970 C   0  0  1  0  0  0  0  0  0  0  0  0
    1.5300    1.0340   -1.9850 C   0  0  0  0  0  0  0  0  0  0  0  0
    2.9560    0.7230   -2.2300 C   0  0  0  0  0  0  0  0  0  0  0  0
    3.4610   -0.4010   -2.3760 O   0  0  0  0  0  0  0  0  0  0  0  0
   -0.1210    1.7150   -0.3540 C   0  0  0  0  0  0  0  0  0  0  0  0
   -0.3140    2.7980   -0.9650 O   0  0  0  0  0  0  0  0  0  0  0  0
    3.8450    1.8130   -2.3090 O   0  0  0  0  0  0  0  0  0  0  0  0
    0.6350   -0.8640    0.2130 H   0  0  0  0  0  0  0  0  0  0  0  0
    1.9620    1.8450   -0.1100 H   0  0  0  0  0  0  0  0  0  0  0  0
    0.9550    0.2480   -2.5200 H   0  0  0  0  0  0  0  0  0  0  0  0
    1.2920    1.9910   -2.4780 H   0  0  0  0  0  0  0  0  0  0  0  0
    4.7530    1.7990   -1.8470 H   0  0  0  0  0  0  0  0  0  0  0  0
   -4.1920   -3.9150    2.5790 O   0  0  0  0  0  0  0  0  0  0  0  0
   -4.0390   -2.6970    1.9290 C   0  0  0  0  0  0  0  0  0  0  0  0
   -4.7170   -1.5840    2.4000 C   0  0  0  0  0  0  0  0  0  0  0  0
   -4.5980   -0.3470    1.7840 C   0  0  0  0  0  0  0  0  0  0  0  0
   -3.8040   -0.1810    0.6870 C   0  0  0  0  0  0  0  0  0  0  0  0
   -3.6290    1.1040   -0.0240 C   0  0  0  0  0  0  0  0  0  0  0  0
   -2.4770    1.9080    0.5020 C   0  0  2  0  0  0  0  0  0  0  0  0
   -1.2040    1.2280    0.4040 N   0  0  0  0  0  0  0  0  0  0  0  0
   -2.7160    2.3530    1.8930 C   0  0  0  0  0  0  0  0  0  0  0  0
   -3.7590    2.9580    2.1710 O   0  0  0  0  0  0  0  0  0  0  0  0
   -3.1150   -1.2990    0.2020 C   0  0  0  0  0  0  0  0  0  0  0  0
   -3.2330   -2.5290    0.8120 C   0  0  0  0  0  0  0  0  0  0  0  0
   -1.7850    2.0930    2.8620 O   0  0  0  0  0  0  0  0  0  0  0  0
   -4.3580   -4.7280    2.0210 H   0  0  0  0  0  0  0  0  0  0  0  0
   -5.3560   -1.7040    3.2800 H   0  0  0  0  0  0  0  0  0  0  0  0
   -5.1350    0.5170    2.1690 H   0  0  0  0  0  0  0  0  0  0  0  0
   -3.5340    0.9510   -1.1090 H   0  0  0  0  0  0  0  0  0  0  0  0
   -4.5500    1.7240    0.1370 H   0  0  0  0  0  0  0  0  0  0  0  0
   -2.4680    2.8640   -0.1010 H   0  0  0  0  0  0  0  0  0  0  0  0
   -1.0820    0.3300    0.9120 H   0  0  0  0  0  0  0  0  0  0  0  0
   -2.4810   -1.1750   -0.6740 H   0  0  0  0  0  0  0  0  0  0  0  0
   -2.7080   -3.4130    0.4590 H   0  0  0  0  0  0  0  0  0  0  0  0
  1  8  1  0  0  0  0
  1  9  1  0  0  0  0
  2  1  1  0  0  0  0
  2  4  1  0  0  0  0
  3 13  1  0  0  0  0
  3  2  1  0  0  0  0
  4  5  1  0  0  0  0
  4 15  1  1  0  0  0
  5 17  1  0  0  0  0
  5 16  1  0  0  0  0
  6  4  1  0  0  0  0
  7  6  2  0  0  0  0
 10  1  1  0  0  0  0
 11  2  1  0  0  0  0
 12  3  1  0  0  0  0
 14  3  1  0  0  0  0
 18 26  1  0  0  0  0
 18  6  1  0  0  0  0
 19 23  1  0  0  0  0
 19 27  1  1  0  0  0
 19 18  1  0  0  0  0
 20 19  1  0  0  0  0
 21 20  1  0  0  0  0
 22 21  2  0  0  0  0
 23 38  1  0  0  0  0
 24 23  2  0  0  0  0
 25 21  1  0  0  0  0
 25 30  1  0  0  0  0
 28 20  1  0  0  0  0
 29 20  1  0  0  0  0
 32 33  1  0  0  0  0
 32 31  1  0  0  0  0
 33 45  1  0  0  0  0
 34 46  1  0  0  0  0
 34 33  2  0  0  0  0
 35 34  1  0  0  0  0
 36 48  1  0  0  0  0
 36 37  1  0  0  0  0
 36 35  1  0  0  0  0
 37 49  1  6  0  0  0
 37 39  1  0  0  0  0
 38 37  1  0  0  0  0
 38 50  1  0  0  0  0
 39 40  2  0  0  0  0
 39 43  1  0  0  0  0
 41 35  2  0  0  0  0
 41 42  1  0  0  0  0
 42 32  2  0  0  0  0
 44 31  1  0  0  0  0
 47 36  1  0  0  0  0
 51 41  1  0  0  0  0
 52 42  1  0  0  0  0
M  END
$$$$
