VED.pdb
 OpenBabel07022419253D

 47 46  0  0  1  0  0  0  0  0999 V2000
   -2.1570   -2.2080    4.1740 C   0  0  0  0  0  0  0  0  0  0  0  0
   -1.2090   -1.3990    3.3220 C   0  0  0  0  0  0  0  0  0  0  0  0
   -1.2040    0.0280    3.8110 C   0  0  0  0  0  0  0  0  0  0  0  0
    0.1590   -2.0390    3.4170 C   0  0  2  0  0  0  0  0  0  0  0  0
    0.6480   -2.0620    4.7780 N   0  0  0  0  0  0  0  0  0  0  0  0
    1.1580   -1.3480    2.5760 C   0  0  0  0  0  0  0  0  0  0  0  0
    2.1870   -0.8230    3.0650 O   0  0  0  0  0  0  0  0  0  0  0  0
   -3.1880   -1.8240    3.9240 H   0  0  0  0  0  0  0  0  0  0  0  0
   -2.0500   -2.0030    5.2680 H   0  0  0  0  0  0  0  0  0  0  0  0
   -2.1510   -3.2730    3.9190 H   0  0  0  0  0  0  0  0  0  0  0  0
   -1.5830   -1.4120    2.2840 H   0  0  0  0  0  0  0  0  0  0  0  0
   -0.5890    0.6940    3.1880 H   0  0  0  0  0  0  0  0  0  0  0  0
   -2.2380    0.4280    3.8140 H   0  0  0  0  0  0  0  0  0  0  0  0
   -0.8690    0.0530    4.8720 H   0  0  0  0  0  0  0  0  0  0  0  0
    0.0250   -3.1030    3.1130 H   0  0  0  0  0  0  0  0  0  0  0  0
   -0.0420   -1.7290    5.4750 H   0  0  0  0  0  0  0  0  0  0  0  0
    1.0620   -2.9930    5.0080 H   0  0  0  0  0  0  0  0  0  0  0  0
    0.9550   -1.2710    1.1730 N   0  0  0  0  0  0  0  0  0  0  0  0
    1.9720   -0.5690    0.3290 C   0  0  1  0  0  0  0  0  0  0  0  0
    2.6130   -1.6730   -0.4500 C   0  0  0  0  0  0  0  0  0  0  0  0
    3.6870   -1.3870   -1.4020 C   0  0  0  0  0  0  0  0  0  0  0  0
    3.3220   -0.5680   -2.5650 C   0  0  0  0  0  0  0  0  0  0  0  0
    3.9910    0.3980   -3.0180 O   0  0  0  0  0  0  0  0  0  0  0  0
    1.2510    0.4320   -0.4630 C   0  0  0  0  0  0  0  0  0  0  0  0
    1.8430    1.3050   -1.1820 O   0  0  0  0  0  0  0  0  0  0  0  0
    2.1290   -0.8900   -3.2300 O   0  0  0  0  0  0  0  0  0  0  0  0
    0.1150   -1.7080    0.7500 H   0  0  0  0  0  0  0  0  0  0  0  0
    2.7440   -0.1360    0.9960 H   0  0  0  0  0  0  0  0  0  0  0  0
    1.8060   -2.2580   -1.0080 H   0  0  0  0  0  0  0  0  0  0  0  0
    2.9270   -2.4360    0.3410 H   0  0  0  0  0  0  0  0  0  0  0  0
    4.0010   -2.3940   -1.8470 H   0  0  0  0  0  0  0  0  0  0  0  0
    4.6370   -1.0360   -0.9270 H   0  0  0  0  0  0  0  0  0  0  0  0
    1.9360   -0.5460   -4.1680 H   0  0  0  0  0  0  0  0  0  0  0  0
   -0.1820    0.5520   -0.5260 N   0  0  0  0  0  0  0  0  0  0  0  0
   -0.8440    1.5670   -1.3370 C   0  0  1  0  0  0  0  0  0  0  0  0
   -1.7110    0.7860   -2.3290 C   0  0  0  0  0  0  0  0  0  0  0  0
   -2.6890   -0.0290   -1.5790 C   0  0  0  0  0  0  0  0  0  0  0  0
   -3.7350    0.5090   -1.1200 O   0  0  0  0  0  0  0  0  0  0  0  0
   -1.7030    2.4450   -0.4930 C   0  0  0  0  0  0  0  0  0  0  0  0
   -2.3280    3.3670   -1.0860 O   0  0  0  0  0  0  0  0  0  0  0  0
   -2.5510   -1.3880   -1.3230 O   0  0  0  0  0  0  0  0  0  0  0  0
   -1.8580    2.3200    0.8550 O   0  0  0  0  0  0  0  0  0  0  0  0
   -0.7690   -0.0920    0.0190 H   0  0  0  0  0  0  0  0  0  0  0  0
   -0.1630    2.2090   -1.8900 H   0  0  0  0  0  0  0  0  0  0  0  0
   -2.1300    1.4280   -3.1010 H   0  0  0  0  0  0  0  0  0  0  0  0
   -1.0380    0.0670   -2.8610 H   0  0  0  0  0  0  0  0  0  0  0  0
   -2.7620   -1.8010   -0.4230 H   0  0  0  0  0  0  0  0  0  0  0  0
  1  9  1  0  0  0  0
  2  4  1  0  0  0  0
  2  3  1  0  0  0  0
  2  1  1  0  0  0  0
  3 13  1  0  0  0  0
  3 14  1  0  0  0  0
  4 15  1  6  0  0  0
  4  5  1  0  0  0  0
  5 17  1  0  0  0  0
  5 16  1  0  0  0  0
  6  7  2  0  0  0  0
  6  4  1  0  0  0  0
  8  1  1  0  0  0  0
 10  1  1  0  0  0  0
 11  2  1  0  0  0  0
 12  3  1  0  0  0  0
 18  6  1  0  0  0  0
 19 28  1  1  0  0  0
 19 18  1  0  0  0  0
 20 19  1  0  0  0  0
 20 30  1  0  0  0  0
 21 32  1  0  0  0  0
 21 20  1  0  0  0  0
 22 21  1  0  0  0  0
 23 22  2  0  0  0  0
 24 19  1  0  0  0  0
 25 24  2  0  0  0  0
 26 22  1  0  0  0  0
 27 18  1  0  0  0  0
 29 20  1  0  0  0  0
 31 21  1  0  0  0  0
 33 26  1  0  0  0  0
 34 24  1  0  0  0  0
 34 43  1  0  0  0  0
 35 44  1  6  0  0  0
 35 34  1  0  0  0  0
 35 39  1  0  0  0  0
 36 37  1  0  0  0  0
 36 35  1  0  0  0  0
 37 41  1  0  0  0  0
 37 38  2  0  0  0  0
 39 42  1  0  0  0  0
 40 39  2  0  0  0  0
 41 47  1  0  0  0  0
 45 36  1  0  0  0  0
 46 36  1  0  0  0  0
M  END
$$$$
