VEF.pdb
 OpenBabel07022419253D

 54 54  0  0  1  0  0  0  0  0999 V2000
   -2.5490    0.0440    4.3770 C   0  0  0  0  0  0  0  0  0  0  0  0
   -1.1550    0.4790    4.7590 C   0  0  0  0  0  0  0  0  0  0  0  0
   -1.0310    1.9750    4.5660 C   0  0  0  0  0  0  0  0  0  0  0  0
   -0.1000   -0.2840    4.0200 C   0  0  2  0  0  0  0  0  0  0  0  0
    1.2130    0.1820    4.4340 N   0  0  0  0  0  0  0  0  0  0  0  0
   -0.2460   -0.2680    2.5650 C   0  0  0  0  0  0  0  0  0  0  0  0
   -1.3370   -0.6410    2.0590 O   0  0  0  0  0  0  0  0  0  0  0  0
   -3.2420    0.0980    5.2700 H   0  0  0  0  0  0  0  0  0  0  0  0
   -2.5870   -1.0000    4.0560 H   0  0  0  0  0  0  0  0  0  0  0  0
   -2.9940    0.7640    3.6480 H   0  0  0  0  0  0  0  0  0  0  0  0
   -1.0390    0.2740    5.8400 H   0  0  0  0  0  0  0  0  0  0  0  0
   -1.1090    2.2640    3.5030 H   0  0  0  0  0  0  0  0  0  0  0  0
   -1.9120    2.4220    5.0960 H   0  0  0  0  0  0  0  0  0  0  0  0
   -0.1320    2.3330    5.0770 H   0  0  0  0  0  0  0  0  0  0  0  0
   -0.1660   -1.3440    4.4150 H   0  0  0  0  0  0  0  0  0  0  0  0
    1.2560    0.3510    5.4640 H   0  0  0  0  0  0  0  0  0  0  0  0
    1.8960   -0.6070    4.2630 H   0  0  0  0  0  0  0  0  0  0  0  0
    0.7870    0.1490    1.7010 N   0  0  0  0  0  0  0  0  0  0  0  0
    0.5940    0.1560    0.2730 C   0  0  1  0  0  0  0  0  0  0  0  0
    1.0350    1.4210   -0.3710 C   0  0  0  0  0  0  0  0  0  0  0  0
    0.3380    2.6700    0.0830 C   0  0  0  0  0  0  0  0  0  0  0  0
   -1.1140    2.6900   -0.1620 C   0  0  0  0  0  0  0  0  0  0  0  0
   -1.8620    1.7860    0.2690 O   0  0  0  0  0  0  0  0  0  0  0  0
    1.2970   -1.0310   -0.3560 C   0  0  0  0  0  0  0  0  0  0  0  0
    1.9320   -1.8370    0.3310 O   0  0  0  0  0  0  0  0  0  0  0  0
   -1.6960    3.7340   -0.8940 O   0  0  0  0  0  0  0  0  0  0  0  0
    1.7270    0.4680    2.0430 H   0  0  0  0  0  0  0  0  0  0  0  0
   -0.4800   -0.0310    0.0590 H   0  0  0  0  0  0  0  0  0  0  0  0
    2.1370    1.5990   -0.2690 H   0  0  0  0  0  0  0  0  0  0  0  0
    0.8760    1.3820   -1.4820 H   0  0  0  0  0  0  0  0  0  0  0  0
    0.5550    2.8480    1.1720 H   0  0  0  0  0  0  0  0  0  0  0  0
    0.8060    3.5550   -0.4460 H   0  0  0  0  0  0  0  0  0  0  0  0
   -2.6510    3.9910   -0.6900 H   0  0  0  0  0  0  0  0  0  0  0  0
    1.1920   -1.1720   -1.7600 N   0  0  0  0  0  0  0  0  0  0  0  0
    1.8080   -2.2500   -2.4940 C   0  0  1  0  0  0  0  0  0  0  0  0
    0.7270   -2.9750   -3.3000 C   0  0  0  0  0  0  0  0  0  0  0  0
   -0.2600   -3.5000   -2.3520 C   0  0  0  0  0  0  0  0  0  0  0  0
   -1.3340   -2.7480   -1.9620 C   0  0  0  0  0  0  0  0  0  0  0  0
   -2.2820   -3.2510   -1.0590 C   0  0  0  0  0  0  0  0  0  0  0  0
   -2.1320   -4.5280   -0.5510 C   0  0  0  0  0  0  0  0  0  0  0  0
   -1.0560   -5.2830   -0.9420 C   0  0  0  0  0  0  0  0  0  0  0  0
   -0.1300   -4.7690   -1.8350 C   0  0  0  0  0  0  0  0  0  0  0  0
    2.8780   -1.7520   -3.4040 C   0  0  0  0  0  0  0  0  0  0  0  0
    3.5340   -2.5330   -4.1300 O   0  0  0  0  0  0  0  0  0  0  0  0
    3.1710   -0.4030   -3.4620 O   0  0  0  0  0  0  0  0  0  0  0  0
    0.6380   -0.4590   -2.2780 H   0  0  0  0  0  0  0  0  0  0  0  0
    2.3170   -2.9380   -1.7900 H   0  0  0  0  0  0  0  0  0  0  0  0
    0.2530   -2.2150   -3.9880 H   0  0  0  0  0  0  0  0  0  0  0  0
    1.2080   -3.7700   -3.9210 H   0  0  0  0  0  0  0  0  0  0  0  0
   -1.5040   -1.7450   -2.3250 H   0  0  0  0  0  0  0  0  0  0  0  0
   -3.1180   -2.6590   -0.7560 H   0  0  0  0  0  0  0  0  0  0  0  0
   -2.8830   -4.9080    0.1550 H   0  0  0  0  0  0  0  0  0  0  0  0
   -0.9450   -6.2740   -0.5460 H   0  0  0  0  0  0  0  0  0  0  0  0
    0.7280   -5.3740   -2.1450 H   0  0  0  0  0  0  0  0  0  0  0  0
  1  2  1  0  0  0  0
  1  8  1  0  0  0  0
  2 11  1  0  0  0  0
  3  2  1  0  0  0  0
  3 14  1  0  0  0  0
  3 13  1  0  0  0  0
  4 15  1  1  0  0  0
  4  5  1  0  0  0  0
  4  2  1  0  0  0  0
  5 16  1  0  0  0  0
  6  4  1  0  0  0  0
  7  6  2  0  0  0  0
  9  1  1  0  0  0  0
 10  1  1  0  0  0  0
 12  3  1  0  0  0  0
 17  5  1  0  0  0  0
 18 27  1  0  0  0  0
 18  6  1  0  0  0  0
 19 28  1  6  0  0  0
 19 18  1  0  0  0  0
 20 29  1  0  0  0  0
 20 21  1  0  0  0  0
 20 19  1  0  0  0  0
 21 31  1  0  0  0  0
 22 21  1  0  0  0  0
 22 23  2  0  0  0  0
 24 19  1  0  0  0  0
 24 25  2  0  0  0  0
 26 33  1  0  0  0  0
 26 22  1  0  0  0  0
 30 20  1  0  0  0  0
 32 21  1  0  0  0  0
 34 24  1  0  0  0  0
 35 47  1  1  0  0  0
 35 34  1  0  0  0  0
 36 35  1  0  0  0  0
 36 37  1  0  0  0  0
 37 38  2  0  0  0  0
 37 42  1  0  0  0  0
 38 39  1  0  0  0  0
 39 51  1  0  0  0  0
 39 40  2  0  0  0  0
 40 52  1  0  0  0  0
 41 40  1  0  0  0  0
 41 53  1  0  0  0  0
 42 41  2  0  0  0  0
 43 35  1  0  0  0  0
 44 43  2  0  0  0  0
 45 43  1  0  0  0  0
 46 34  1  0  0  0  0
 48 36  1  0  0  0  0
 49 36  1  0  0  0  0
 50 38  1  0  0  0  0
 54 42  1  0  0  0  0
M  END
$$$$
