VEH.pdb
 OpenBabel07022419253D

 51 51  0  0  1  0  0  0  0  0999 V2000
    1.0460   -3.3360    2.4180 C   0  0  0  0  0  0  0  0  0  0  0  0
    2.2010   -2.7090    1.7070 C   0  0  0  0  0  0  0  0  0  0  0  0
    1.9700   -2.5390    0.2240 C   0  0  0  0  0  0  0  0  0  0  0  0
    2.7800   -1.5180    2.3890 C   0  0  2  0  0  0  0  0  0  0  0  0
    3.2460   -1.9570    3.6950 N   0  0  0  0  0  0  0  0  0  0  0  0
    1.9370   -0.3410    2.5150 C   0  0  0  0  0  0  0  0  0  0  0  0
    1.7620    0.1240    3.6980 O   0  0  0  0  0  0  0  0  0  0  0  0
    1.2720   -4.3140    2.8930 H   0  0  0  0  0  0  0  0  0  0  0  0
    0.1760   -3.5500    1.7280 H   0  0  0  0  0  0  0  0  0  0  0  0
    0.6820   -2.6850    3.2660 H   0  0  0  0  0  0  0  0  0  0  0  0
    3.0310   -3.4890    1.7570 H   0  0  0  0  0  0  0  0  0  0  0  0
    2.0950   -3.5250   -0.3170 H   0  0  0  0  0  0  0  0  0  0  0  0
    0.9050   -2.2880    0.0770 H   0  0  0  0  0  0  0  0  0  0  0  0
    2.6840   -1.8670   -0.2490 H   0  0  0  0  0  0  0  0  0  0  0  0
    3.6980   -1.2250    1.8260 H   0  0  0  0  0  0  0  0  0  0  0  0
    3.8340   -2.7960    3.5830 H   0  0  0  0  0  0  0  0  0  0  0  0
    2.5080   -2.0130    4.4030 H   0  0  0  0  0  0  0  0  0  0  0  0
    1.2780    0.3660    1.4840 N   0  0  0  0  0  0  0  0  0  0  0  0
    0.4670    1.5130    1.6350 C   0  0  1  0  0  0  0  0  0  0  0  0
    0.9060    2.7320    0.8810 C   0  0  0  0  0  0  0  0  0  0  0  0
    0.9470    2.4740   -0.6240 C   0  0  0  0  0  0  0  0  0  0  0  0
    1.3870    3.7080   -1.3270 C   0  0  0  0  0  0  0  0  0  0  0  0
    1.6670    4.7770   -0.7130 O   0  0  0  0  0  0  0  0  0  0  0  0
   -0.9460    1.2520    1.2710 C   0  0  0  0  0  0  0  0  0  0  0  0
   -1.7250    2.2540    1.3850 O   0  0  0  0  0  0  0  0  0  0  0  0
    1.5070    3.7320   -2.7090 O   0  0  0  0  0  0  0  0  0  0  0  0
    1.4080    0.0020    0.5200 H   0  0  0  0  0  0  0  0  0  0  0  0
    0.4460    1.7990    2.7120 H   0  0  0  0  0  0  0  0  0  0  0  0
    1.8170    3.2010    1.2520 H   0  0  0  0  0  0  0  0  0  0  0  0
    0.0910    3.4870    1.0140 H   0  0  0  0  0  0  0  0  0  0  0  0
    1.6240    1.6390   -0.8720 H   0  0  0  0  0  0  0  0  0  0  0  0
   -0.1040    2.2960   -0.9290 H   0  0  0  0  0  0  0  0  0  0  0  0
    1.5820    4.6250   -3.2190 H   0  0  0  0  0  0  0  0  0  0  0  0
   -1.4720    0.0260    0.8260 N   0  0  0  0  0  0  0  0  0  0  0  0
   -2.8680   -0.1200    0.4980 C   0  0  1  0  0  0  0  0  0  0  0  0
   -3.1390   -0.5450   -0.9100 C   0  0  0  0  0  0  0  0  0  0  0  0
   -2.5230   -1.8830   -1.2270 C   0  0  0  0  0  0  0  0  0  0  0  0
   -2.5730   -2.5610   -2.4190 C   0  0  0  0  0  0  0  0  0  0  0  0
   -1.9040   -3.7150   -2.2980 N   0  0  0  0  0  0  0  0  0  0  0  0
   -1.4470   -3.7480   -1.0460 C   0  0  0  0  0  0  0  0  0  0  0  0
   -1.8150   -2.6420   -0.3830 N   0  0  0  0  0  0  0  0  0  0  0  0
   -3.5360   -1.1210    1.3900 C   0  0  0  0  0  0  0  0  0  0  0  0
   -4.7400   -1.4040    1.2850 O   0  0  0  0  0  0  0  0  0  0  0  0
   -2.7560   -1.7330    2.3560 O   0  0  0  0  0  0  0  0  0  0  0  0
   -0.8450   -0.7840    0.7330 H   0  0  0  0  0  0  0  0  0  0  0  0
   -3.4130    0.8440    0.6470 H   0  0  0  0  0  0  0  0  0  0  0  0
   -4.2250   -0.6620   -1.0260 H   0  0  0  0  0  0  0  0  0  0  0  0
   -2.7900    0.1880   -1.6630 H   0  0  0  0  0  0  0  0  0  0  0  0
   -3.0680   -2.2390   -3.3300 H   0  0  0  0  0  0  0  0  0  0  0  0
   -1.7450   -4.4740   -3.0190 H   0  0  0  0  0  0  0  0  0  0  0  0
   -0.8530   -4.5520   -0.5980 H   0  0  0  0  0  0  0  0  0  0  0  0
  1  8  1  0  0  0  0
  1 10  1  0  0  0  0
  2 11  1  0  0  0  0
  2  4  1  0  0  0  0
  2  1  1  0  0  0  0
  3  2  1  0  0  0  0
  4 15  1  6  0  0  0
  4  6  1  0  0  0  0
  4  5  1  0  0  0  0
  5 17  1  0  0  0  0
  6  7  2  0  0  0  0
  9  1  1  0  0  0  0
 12  3  1  0  0  0  0
 13  3  1  0  0  0  0
 14  3  1  0  0  0  0
 16  5  1  0  0  0  0
 18 19  1  0  0  0  0
 18  6  1  0  0  0  0
 19 28  1  1  0  0  0
 20 30  1  0  0  0  0
 20 29  1  0  0  0  0
 20 19  1  0  0  0  0
 21 20  1  0  0  0  0
 22 23  2  0  0  0  0
 22 21  1  0  0  0  0
 24 25  2  0  0  0  0
 24 19  1  0  0  0  0
 26 22  1  0  0  0  0
 27 18  1  0  0  0  0
 31 21  1  0  0  0  0
 32 21  1  0  0  0  0
 33 26  1  0  0  0  0
 34 24  1  0  0  0  0
 35 46  1  1  0  0  0
 35 34  1  0  0  0  0
 35 42  1  0  0  0  0
 36 35  1  0  0  0  0
 37 36  1  0  0  0  0
 37 41  1  0  0  0  0
 38 39  1  0  0  0  0
 38 37  2  0  0  0  0
 39 40  1  0  0  0  0
 40 51  1  0  0  0  0
 40 41  2  0  0  0  0
 42 44  1  0  0  0  0
 43 42  2  0  0  0  0
 45 34  1  0  0  0  0
 47 36  1  0  0  0  0
 48 36  1  0  0  0  0
 49 38  1  0  0  0  0
 50 39  1  0  0  0  0
M  END
$$$$
