VEK.pdb
 OpenBabel07022419253D

 55 54  0  0  1  0  0  0  0  0999 V2000
    1.8530   -3.8850    2.9640 C   0  0  0  0  0  0  0  0  0  0  0  0
    2.6560   -3.2240    1.8970 C   0  0  0  0  0  0  0  0  0  0  0  0
    2.0180   -3.1850    0.5380 C   0  0  0  0  0  0  0  0  0  0  0  0
    3.2630   -1.9070    2.2950 C   0  0  2  0  0  0  0  0  0  0  0  0
    4.1580   -2.2150    3.4440 N   0  0  0  0  0  0  0  0  0  0  0  0
    2.3690   -0.8590    2.7220 C   0  0  0  0  0  0  0  0  0  0  0  0
    2.3610   -0.4880    3.9340 O   0  0  0  0  0  0  0  0  0  0  0  0
    2.1620   -4.9240    3.1950 H   0  0  0  0  0  0  0  0  0  0  0  0
    1.9010   -3.3440    3.9390 H   0  0  0  0  0  0  0  0  0  0  0  0
    0.7820   -3.9780    2.6160 H   0  0  0  0  0  0  0  0  0  0  0  0
    3.5620   -3.9070    1.7560 H   0  0  0  0  0  0  0  0  0  0  0  0
    2.1690   -4.1680    0.0360 H   0  0  0  0  0  0  0  0  0  0  0  0
    0.9750   -2.8790    0.5440 H   0  0  0  0  0  0  0  0  0  0  0  0
    2.5850   -2.4320   -0.0690 H   0  0  0  0  0  0  0  0  0  0  0  0
    3.9410   -1.5820    1.4750 H   0  0  0  0  0  0  0  0  0  0  0  0
    4.7750   -1.3880    3.5310 H   0  0  0  0  0  0  0  0  0  0  0  0
    4.7780   -3.0070    3.1030 H   0  0  0  0  0  0  0  0  0  0  0  0
    1.4810   -0.2160    1.8220 N   0  0  0  0  0  0  0  0  0  0  0  0
    0.5820    0.8280    2.2090 C   0  0  1  0  0  0  0  0  0  0  0  0
    1.0910    2.2040    1.8170 C   0  0  0  0  0  0  0  0  0  0  0  0
    1.3230    2.3850    0.3580 C   0  0  0  0  0  0  0  0  0  0  0  0
    1.8020    3.7810    0.1600 C   0  0  0  0  0  0  0  0  0  0  0  0
    1.1210    4.7750    0.5730 O   0  0  0  0  0  0  0  0  0  0  0  0
   -0.7770    0.6100    1.7530 C   0  0  0  0  0  0  0  0  0  0  0  0
   -1.6440    1.4920    2.1150 O   0  0  0  0  0  0  0  0  0  0  0  0
    3.0040    4.0450   -0.4780 O   0  0  0  0  0  0  0  0  0  0  0  0
    1.5020   -0.5380    0.8350 H   0  0  0  0  0  0  0  0  0  0  0  0
    0.6090    0.8460    3.3400 H   0  0  0  0  0  0  0  0  0  0  0  0
    2.0340    2.3960    2.3610 H   0  0  0  0  0  0  0  0  0  0  0  0
    0.3150    2.9320    2.1380 H   0  0  0  0  0  0  0  0  0  0  0  0
    2.0960    1.7130   -0.0600 H   0  0  0  0  0  0  0  0  0  0  0  0
    0.4050    2.2720   -0.2540 H   0  0  0  0  0  0  0  0  0  0  0  0
    3.5740    4.8610   -0.2090 H   0  0  0  0  0  0  0  0  0  0  0  0
   -1.2760   -0.4370    0.9690 N   0  0  0  0  0  0  0  0  0  0  0  0
   -2.6640   -0.5240    0.5980 C   0  0  1  0  0  0  0  0  0  0  0  0
   -2.9130   -0.3710   -0.8830 C   0  0  0  0  0  0  0  0  0  0  0  0
   -2.2310   -1.3970   -1.7090 C   0  0  0  0  0  0  0  0  0  0  0  0
   -2.5260   -1.1840   -3.1750 C   0  0  0  0  0  0  0  0  0  0  0  0
   -4.0000   -1.2780   -3.4860 C   0  0  0  0  0  0  0  0  0  0  0  0
   -4.2100   -1.0720   -4.9190 N   0  0  0  0  0  0  0  0  0  0  0  0
   -3.2530   -1.7290    1.1700 C   0  0  0  0  0  0  0  0  0  0  0  0
   -2.5340   -2.4820    1.8700 O   0  0  0  0  0  0  0  0  0  0  0  0
   -4.5870   -2.1160    0.9930 O   0  0  0  0  0  0  0  0  0  0  0  0
   -0.6310   -1.1590    0.6430 H   0  0  0  0  0  0  0  0  0  0  0  0
   -3.2260    0.3430    1.0640 H   0  0  0  0  0  0  0  0  0  0  0  0
   -3.9950   -0.3910   -1.0270 H   0  0  0  0  0  0  0  0  0  0  0  0
   -2.5380    0.6490   -1.1510 H   0  0  0  0  0  0  0  0  0  0  0  0
   -1.1400   -1.4390   -1.5740 H   0  0  0  0  0  0  0  0  0  0  0  0
   -2.6210   -2.4250   -1.4650 H   0  0  0  0  0  0  0  0  0  0  0  0
   -1.9200   -1.8290   -3.8320 H   0  0  0  0  0  0  0  0  0  0  0  0
   -2.2590   -0.0990   -3.3750 H   0  0  0  0  0  0  0  0  0  0  0  0
   -4.4310   -2.2620   -3.1760 H   0  0  0  0  0  0  0  0  0  0  0  0
   -4.5450   -0.4630   -2.9580 H   0  0  0  0  0  0  0  0  0  0  0  0
   -4.3370   -0.0540   -5.0830 H   0  0  0  0  0  0  0  0  0  0  0  0
   -3.3350   -1.3570   -5.4190 H   0  0  0  0  0  0  0  0  0  0  0  0
  1  8  1  0  0  0  0
  1  9  1  0  0  0  0
  2  4  1  0  0  0  0
  2  1  1  0  0  0  0
  3 13  1  0  0  0  0
  3  2  1  0  0  0  0
  4 15  1  6  0  0  0
  4  6  1  0  0  0  0
  4  5  1  0  0  0  0
  5 16  1  0  0  0  0
  6  7  2  0  0  0  0
 10  1  1  0  0  0  0
 11  2  1  0  0  0  0
 12  3  1  0  0  0  0
 14  3  1  0  0  0  0
 17  5  1  0  0  0  0
 18 19  1  0  0  0  0
 18  6  1  0  0  0  0
 19 28  1  1  0  0  0
 20 30  1  0  0  0  0
 20 19  1  0  0  0  0
 20 29  1  0  0  0  0
 21 20  1  0  0  0  0
 22 21  1  0  0  0  0
 22 23  2  0  0  0  0
 24 25  2  0  0  0  0
 24 19  1  0  0  0  0
 26 33  1  0  0  0  0
 26 22  1  0  0  0  0
 27 18  1  0  0  0  0
 31 21  1  0  0  0  0
 32 21  1  0  0  0  0
 34 24  1  0  0  0  0
 35 34  1  0  0  0  0
 35 45  1  1  0  0  0
 35 41  1  0  0  0  0
 36 35  1  0  0  0  0
 37 48  1  0  0  0  0
 37 49  1  0  0  0  0
 37 36  1  0  0  0  0
 38 37  1  0  0  0  0
 39 52  1  0  0  0  0
 39 38  1  0  0  0  0
 39 53  1  0  0  0  0
 40 39  1  0  0  0  0
 41 42  1  0  0  0  0
 43 41  2  0  0  0  0
 44 34  1  0  0  0  0
 46 36  1  0  0  0  0
 47 36  1  0  0  0  0
 50 38  1  0  0  0  0
 51 38  1  0  0  0  0
 54 40  1  0  0  0  0
 55 40  1  0  0  0  0
M  END
$$$$
