VEP.pdb
 OpenBabel07022419253D

 48 48  0  0  1  0  0  0  0  0999 V2000
    2.1360   -4.6070   -0.7780 C   0  0  0  0  0  0  0  0  0  0  0  0
    2.0940   -3.5780    0.3350 C   0  0  0  0  0  0  0  0  0  0  0  0
    1.6250   -4.3230    1.5700 C   0  0  0  0  0  0  0  0  0  0  0  0
    1.1050   -2.5200   -0.0490 C   0  0  2  0  0  0  0  0  0  0  0  0
    1.4590   -1.8630   -1.2720 N   0  0  0  0  0  0  0  0  0  0  0  0
    0.8360   -1.5420    1.0500 C   0  0  0  0  0  0  0  0  0  0  0  0
    0.6540   -1.9140    2.2330 O   0  0  0  0  0  0  0  0  0  0  0  0
    2.1600   -5.6510   -0.3780 H   0  0  0  0  0  0  0  0  0  0  0  0
    1.2080   -4.5180   -1.3720 H   0  0  0  0  0  0  0  0  0  0  0  0
    3.0500   -4.4740   -1.4110 H   0  0  0  0  0  0  0  0  0  0  0  0
    3.1320   -3.1930    0.4580 H   0  0  0  0  0  0  0  0  0  0  0  0
    0.5230   -4.2570    1.6830 H   0  0  0  0  0  0  0  0  0  0  0  0
    2.0520   -3.9180    2.5020 H   0  0  0  0  0  0  0  0  0  0  0  0
    1.8790   -5.4030    1.5110 H   0  0  0  0  0  0  0  0  0  0  0  0
    0.1530   -3.0930   -0.2890 H   0  0  0  0  0  0  0  0  0  0  0  0
    1.5900   -2.6070   -2.0000 H   0  0  0  0  0  0  0  0  0  0  0  0
    0.6760   -1.2630   -1.5920 H   0  0  0  0  0  0  0  0  0  0  0  0
    0.7770   -0.1540    0.7780 N   0  0  0  0  0  0  0  0  0  0  0  0
    0.5300    0.8230    1.7900 C   0  0  1  0  0  0  0  0  0  0  0  0
    1.5050    1.9500    1.8750 C   0  0  0  0  0  0  0  0  0  0  0  0
    2.9110    1.5700    2.1580 C   0  0  0  0  0  0  0  0  0  0  0  0
    3.4700    0.7010    1.1010 C   0  0  0  0  0  0  0  0  0  0  0  0
    3.4590    1.1140   -0.0850 O   0  0  0  0  0  0  0  0  0  0  0  0
   -0.8480    1.3750    1.7590 C   0  0  0  0  0  0  0  0  0  0  0  0
   -1.0000    2.3710    2.5740 O   0  0  0  0  0  0  0  0  0  0  0  0
    4.0080   -0.5550    1.3460 O   0  0  0  0  0  0  0  0  0  0  0  0
    0.9300    0.2010   -0.2030 H   0  0  0  0  0  0  0  0  0  0  0  0
    0.6590    0.2490    2.7720 H   0  0  0  0  0  0  0  0  0  0  0  0
    1.4830    2.6140    0.9830 H   0  0  0  0  0  0  0  0  0  0  0  0
    1.1430    2.6060    2.7130 H   0  0  0  0  0  0  0  0  0  0  0  0
    3.0680    1.1510    3.1740 H   0  0  0  0  0  0  0  0  0  0  0  0
    3.5250    2.5190    2.1270 H   0  0  0  0  0  0  0  0  0  0  0  0
    4.4090   -1.1150    0.5770 H   0  0  0  0  0  0  0  0  0  0  0  0
   -1.9260    0.9320    0.9740 N   0  0  0  0  0  0  0  0  0  0  0  0
   -2.0660   -0.1230    0.0160 C   0  0  0  0  0  0  0  0  0  0  0  0
   -3.3110    0.2120   -0.8260 C   0  0  0  0  0  0  0  0  0  0  0  0
   -3.5930    1.6470   -0.4250 C   0  0  0  0  0  0  0  0  0  0  0  0
   -3.2480    1.5650    1.0450 C   0  0  1  0  0  0  0  0  0  0  0  0
   -4.2350    0.6620    1.6770 C   0  0  0  0  0  0  0  0  0  0  0  0
   -3.9920   -0.4680    2.1060 O   0  0  0  0  0  0  0  0  0  0  0  0
   -5.5420    1.1430    1.7890 O   0  0  0  0  0  0  0  0  0  0  0  0
   -1.2690   -0.2350   -0.7130 H   0  0  0  0  0  0  0  0  0  0  0  0
   -2.2190   -1.1140    0.5210 H   0  0  0  0  0  0  0  0  0  0  0  0
   -3.0960    0.2050   -1.9060 H   0  0  0  0  0  0  0  0  0  0  0  0
   -4.1450   -0.4770   -0.6010 H   0  0  0  0  0  0  0  0  0  0  0  0
   -4.6720    1.8480   -0.5860 H   0  0  0  0  0  0  0  0  0  0  0  0
   -2.9280    2.3340   -0.9880 H   0  0  0  0  0  0  0  0  0  0  0  0
   -3.2080    2.5560    1.5240 H   0  0  0  0  0  0  0  0  0  0  0  0
  1  8  1  0  0  0  0
  1  2  1  0  0  0  0
  2 11  1  0  0  0  0
  2  3  1  0  0  0  0
  3 12  1  0  0  0  0
  3 13  1  0  0  0  0
  4 15  1  6  0  0  0
  4  2  1  0  0  0  0
  4  6  1  0  0  0  0
  5  4  1  0  0  0  0
  6  7  2  0  0  0  0
  9  1  1  0  0  0  0
 10  1  1  0  0  0  0
 14  3  1  0  0  0  0
 16  5  1  0  0  0  0
 17  5  1  0  0  0  0
 18  6  1  0  0  0  0
 18 19  1  0  0  0  0
 19 20  1  0  0  0  0
 19 28  1  1  0  0  0
 20 21  1  0  0  0  0
 20 30  1  0  0  0  0
 21 31  1  0  0  0  0
 22 26  1  0  0  0  0
 22 21  1  0  0  0  0
 23 22  2  0  0  0  0
 24 19  1  0  0  0  0
 24 25  2  0  0  0  0
 27 18  1  0  0  0  0
 29 20  1  0  0  0  0
 32 21  1  0  0  0  0
 33 26  1  0  0  0  0
 34 38  1  0  0  0  0
 34 24  1  0  0  0  0
 35 43  1  0  0  0  0
 35 34  1  0  0  0  0
 36 45  1  0  0  0  0
 36 37  1  0  0  0  0
 36 35  1  0  0  0  0
 37 38  1  0  0  0  0
 38 48  1  1  0  0  0
 38 39  1  0  0  0  0
 39 41  2  0  0  0  0
 39 40  1  0  0  0  0
 42 35  1  0  0  0  0
 44 36  1  0  0  0  0
 46 37  1  0  0  0  0
 47 37  1  0  0  0  0
M  END
$$$$
