VER.pdb
 OpenBabel07022419253D

 57 56  0  0  1  0  0  0  0  0999 V2000
    1.3410   -3.2640    2.2140 C   0  0  0  0  0  0  0  0  0  0  0  0
    1.5770   -2.5240    3.4960 C   0  0  0  0  0  0  0  0  0  0  0  0
    0.3660   -2.6150    4.3640 C   0  0  0  0  0  0  0  0  0  0  0  0
    2.1130   -1.1320    3.3370 C   0  0  2  0  0  0  0  0  0  0  0  0
    2.2690   -0.5370    4.6910 N   0  0  0  0  0  0  0  0  0  0  0  0
    1.3410   -0.2280    2.4720 C   0  0  0  0  0  0  0  0  0  0  0  0
    0.4800    0.5930    2.9620 O   0  0  0  0  0  0  0  0  0  0  0  0
    1.3570   -4.3680    2.3590 H   0  0  0  0  0  0  0  0  0  0  0  0
    0.3290   -2.9740    1.8110 H   0  0  0  0  0  0  0  0  0  0  0  0
    2.0830   -2.9320    1.4780 H   0  0  0  0  0  0  0  0  0  0  0  0
    2.4170   -3.0850    4.0370 H   0  0  0  0  0  0  0  0  0  0  0  0
   -0.1060   -1.6300    4.5690 H   0  0  0  0  0  0  0  0  0  0  0  0
    0.6260   -3.0120    5.3910 H   0  0  0  0  0  0  0  0  0  0  0  0
   -0.4340   -3.2810    3.9830 H   0  0  0  0  0  0  0  0  0  0  0  0
    3.1490   -1.2100    2.9490 H   0  0  0  0  0  0  0  0  0  0  0  0
    3.1350   -0.9050    5.1510 H   0  0  0  0  0  0  0  0  0  0  0  0
    2.3390    0.4840    4.6530 H   0  0  0  0  0  0  0  0  0  0  0  0
    1.4780   -0.1700    1.0600 N   0  0  0  0  0  0  0  0  0  0  0  0
    0.6460    0.8110    0.2800 C   0  0  1  0  0  0  0  0  0  0  0  0
    1.5470    1.9410   -0.0660 C   0  0  0  0  0  0  0  0  0  0  0  0
    1.0450    3.1070   -0.7890 C   0  0  0  0  0  0  0  0  0  0  0  0
    0.5520    2.9760   -2.1460 C   0  0  0  0  0  0  0  0  0  0  0  0
   -0.5890    3.3960   -2.5390 O   0  0  0  0  0  0  0  0  0  0  0  0
    0.0420    0.0710   -0.8030 C   0  0  0  0  0  0  0  0  0  0  0  0
   -0.6550    0.6370   -1.6610 O   0  0  0  0  0  0  0  0  0  0  0  0
    1.3300    2.3610   -3.1400 O   0  0  0  0  0  0  0  0  0  0  0  0
    2.1630   -0.7730    0.5650 H   0  0  0  0  0  0  0  0  0  0  0  0
   -0.1440    1.2060    0.9580 H   0  0  0  0  0  0  0  0  0  0  0  0
    2.4300    1.5230   -0.6600 H   0  0  0  0  0  0  0  0  0  0  0  0
    2.0380    2.3140    0.9070 H   0  0  0  0  0  0  0  0  0  0  0  0
    0.1700    3.5930   -0.2020 H   0  0  0  0  0  0  0  0  0  0  0  0
    1.8120    3.9530   -0.7540 H   0  0  0  0  0  0  0  0  0  0  0  0
    1.2660    2.7000   -4.1020 H   0  0  0  0  0  0  0  0  0  0  0  0
   -2.3550   -0.7200    2.6960 N   0  0  0  0  0  0  0  0  0  0  0  0
   -2.9760   -0.3960    1.4570 C   0  0  0  0  0  0  0  0  0  0  0  0
   -3.7930    0.5740    1.3370 N   0  0  0  0  0  0  0  0  0  0  0  0
   -2.6750   -1.1900    0.2930 N   0  0  0  0  0  0  0  0  0  0  0  0
   -3.2870   -0.9190   -0.9680 C   0  0  0  0  0  0  0  0  0  0  0  0
   -2.8870   -1.7210   -2.1130 C   0  0  0  0  0  0  0  0  0  0  0  0
   -1.5780   -1.7570   -2.7330 C   0  0  0  0  0  0  0  0  0  0  0  0
   -0.3630   -2.1240   -2.0260 C   0  0  2  0  0  0  0  0  0  0  0  0
    0.1920   -1.3260   -0.9720 N   0  0  0  0  0  0  0  0  0  0  0  0
    0.7000   -2.6340   -2.9460 C   0  0  0  0  0  0  0  0  0  0  0  0
    0.3550   -3.3520   -3.9020 O   0  0  0  0  0  0  0  0  0  0  0  0
    2.0180   -2.3260   -2.7470 O   0  0  0  0  0  0  0  0  0  0  0  0
   -1.6180   -1.4460    2.7280 H   0  0  0  0  0  0  0  0  0  0  0  0
   -2.6330   -0.2360    3.5700 H   0  0  0  0  0  0  0  0  0  0  0  0
   -4.2300    0.7900    0.4350 H   0  0  0  0  0  0  0  0  0  0  0  0
   -2.0120   -1.9630    0.4430 H   0  0  0  0  0  0  0  0  0  0  0  0
   -3.2130    0.1990   -1.1710 H   0  0  0  0  0  0  0  0  0  0  0  0
   -4.4240   -1.0110   -0.7800 H   0  0  0  0  0  0  0  0  0  0  0  0
   -3.1720   -2.8460   -1.9250 H   0  0  0  0  0  0  0  0  0  0  0  0
   -3.6560   -1.4600   -2.9540 H   0  0  0  0  0  0  0  0  0  0  0  0
   -1.6900   -2.5160   -3.6190 H   0  0  0  0  0  0  0  0  0  0  0  0
   -1.3700   -0.7930   -3.3390 H   0  0  0  0  0  0  0  0  0  0  0  0
   -0.6740   -3.1100   -1.4630 H   0  0  0  0  0  0  0  0  0  0  0  0
    0.7830   -1.8230   -0.2170 H   0  0  0  0  0  0  0  0  0  0  0  0
  1  8  1  0  0  0  0
  1  2  1  0  0  0  0
  2 11  1  0  0  0  0
  2  3  1  0  0  0  0
  3 12  1  0  0  0  0
  3 13  1  0  0  0  0
  4 15  1  6  0  0  0
  4  2  1  0  0  0  0
  4  5  1  0  0  0  0
  5 16  1  0  0  0  0
  6  7  2  0  0  0  0
  6  4  1  0  0  0  0
  9  1  1  0  0  0  0
 10  1  1  0  0  0  0
 14  3  1  0  0  0  0
 17  5  1  0  0  0  0
 18  6  1  0  0  0  0
 19 28  1  1  0  0  0
 19 18  1  0  0  0  0
 20 19  1  0  0  0  0
 20 30  1  0  0  0  0
 21 32  1  0  0  0  0
 21 31  1  0  0  0  0
 21 20  1  0  0  0  0
 22 21  1  0  0  0  0
 23 22  2  0  0  0  0
 24 19  1  0  0  0  0
 25 24  2  0  0  0  0
 26 22  1  0  0  0  0
 27 18  1  0  0  0  0
 29 20  1  0  0  0  0
 33 26  1  0  0  0  0
 34 46  1  0  0  0  0
 34 47  1  0  0  0  0
 35 34  1  0  0  0  0
 36 35  2  0  0  0  0
 37 49  1  0  0  0  0
 37 35  1  0  0  0  0
 38 51  1  0  0  0  0
 38 37  1  0  0  0  0
 39 52  1  0  0  0  0
 39 38  1  0  0  0  0
 40 39  1  0  0  0  0
 40 41  1  0  0  0  0
 41 56  1  1  0  0  0
 41 42  1  0  0  0  0
 42 24  1  0  0  0  0
 42 57  1  0  0  0  0
 43 45  1  0  0  0  0
 43 41  1  0  0  0  0
 44 43  2  0  0  0  0
 48 36  1  0  0  0  0
 50 38  1  0  0  0  0
 53 39  1  0  0  0  0
 54 40  1  0  0  0  0
 55 40  1  0  0  0  0
M  END
$$$$
