VFA.pdb
 OpenBabel07022419263D

 48 48  0  0  1  0  0  0  0  0999 V2000
    1.2130   -5.9200    2.2860 C   0  0  0  0  0  0  0  0  0  0  0  0
    0.6590   -4.5370    2.4900 C   0  0  0  0  0  0  0  0  0  0  0  0
   -0.4490   -4.6410    3.5200 C   0  0  0  0  0  0  0  0  0  0  0  0
    0.1010   -3.9680    1.1870 C   0  0  2  0  0  0  0  0  0  0  0  0
    1.1290   -3.8970    0.2010 N   0  0  0  0  0  0  0  0  0  0  0  0
   -0.4800   -2.6430    1.5240 C   0  0  0  0  0  0  0  0  0  0  0  0
   -1.3990   -2.5370    2.3770 O   0  0  0  0  0  0  0  0  0  0  0  0
    1.0750   -6.4960    3.2240 H   0  0  0  0  0  0  0  0  0  0  0  0
    2.2770   -5.9140    1.9590 H   0  0  0  0  0  0  0  0  0  0  0  0
    0.5490   -6.4180    1.5290 H   0  0  0  0  0  0  0  0  0  0  0  0
    1.4420   -3.8350    2.8620 H   0  0  0  0  0  0  0  0  0  0  0  0
   -0.4300   -3.7940    4.2290 H   0  0  0  0  0  0  0  0  0  0  0  0
   -1.4500   -4.7800    3.0390 H   0  0  0  0  0  0  0  0  0  0  0  0
   -0.3180   -5.5650    4.1560 H   0  0  0  0  0  0  0  0  0  0  0  0
   -0.6600   -4.6940    0.8390 H   0  0  0  0  0  0  0  0  0  0  0  0
    0.7940   -3.9170   -0.7860 H   0  0  0  0  0  0  0  0  0  0  0  0
    1.8330   -3.1640    0.3340 H   0  0  0  0  0  0  0  0  0  0  0  0
   -0.0480   -1.4310    0.9190 N   0  0  0  0  0  0  0  0  0  0  0  0
   -0.6240   -0.1260    1.2550 C   0  0  1  0  0  0  0  0  0  0  0  0
    0.3750    0.7880    1.8690 C   0  0  0  0  0  0  0  0  0  0  0  0
    1.5490    1.1000    1.0680 C   0  0  0  0  0  0  0  0  0  0  0  0
    1.5670    2.1840    0.2290 C   0  0  0  0  0  0  0  0  0  0  0  0
    2.7070    2.4530   -0.5270 C   0  0  0  0  0  0  0  0  0  0  0  0
    3.8200    1.6490   -0.4460 C   0  0  0  0  0  0  0  0  0  0  0  0
    3.8110    0.5610    0.3930 C   0  0  0  0  0  0  0  0  0  0  0  0
    2.6670    0.3040    1.1400 C   0  0  0  0  0  0  0  0  0  0  0  0
   -1.2860    0.3870    0.0370 C   0  0  0  0  0  0  0  0  0  0  0  0
   -1.2470   -0.2590   -1.0690 O   0  0  0  0  0  0  0  0  0  0  0  0
    0.7100   -1.4660    0.2070 H   0  0  0  0  0  0  0  0  0  0  0  0
   -1.4290   -0.2610    2.0400 H   0  0  0  0  0  0  0  0  0  0  0  0
   -0.1640    1.7630    2.0550 H   0  0  0  0  0  0  0  0  0  0  0  0
    0.6120    0.4130    2.8890 H   0  0  0  0  0  0  0  0  0  0  0  0
    0.7200    2.8620    0.1200 H   0  0  0  0  0  0  0  0  0  0  0  0
    2.7390    3.3050   -1.1950 H   0  0  0  0  0  0  0  0  0  0  0  0
    4.7200    1.8390   -1.0250 H   0  0  0  0  0  0  0  0  0  0  0  0
    4.6960   -0.0720    0.4510 H   0  0  0  0  0  0  0  0  0  0  0  0
    2.7210   -0.5700    1.7840 H   0  0  0  0  0  0  0  0  0  0  0  0
   -4.1690    1.9480   -1.1440 C   0  0  0  0  0  0  0  0  0  0  0  0
   -2.6520    2.0640   -1.2540 C   0  0  2  0  0  0  0  0  0  0  0  0
   -2.0140    1.6080   -0.0370 N   0  0  0  0  0  0  0  0  0  0  0  0
   -2.2350    3.4030   -1.6590 C   0  0  0  0  0  0  0  0  0  0  0  0
   -2.7400    3.8660   -2.7330 O   0  0  0  0  0  0  0  0  0  0  0  0
   -1.3460    4.2290   -0.9970 O   0  0  0  0  0  0  0  0  0  0  0  0
   -4.6710    2.6120   -1.8580 H   0  0  0  0  0  0  0  0  0  0  0  0
   -4.4070    2.1880   -0.0760 H   0  0  0  0  0  0  0  0  0  0  0  0
   -4.4620    0.8990   -1.3500 H   0  0  0  0  0  0  0  0  0  0  0  0
   -2.3770    1.3460   -2.0830 H   0  0  0  0  0  0  0  0  0  0  0  0
   -2.0910    2.1960    0.8170 H   0  0  0  0  0  0  0  0  0  0  0  0
  1  2  1  0  0  0  0
  1  8  1  0  0  0  0
  2 11  1  0  0  0  0
  2  3  1  0  0  0  0
  3 14  1  0  0  0  0
  3 12  1  0  0  0  0
  4 15  1  6  0  0  0
  4  6  1  0  0  0  0
  4  2  1  0  0  0  0
  5 17  1  0  0  0  0
  5  4  1  0  0  0  0
  6  7  2  0  0  0  0
  9  1  1  0  0  0  0
 10  1  1  0  0  0  0
 13  3  1  0  0  0  0
 16  5  1  0  0  0  0
 18 19  1  0  0  0  0
 18  6  1  0  0  0  0
 19 20  1  0  0  0  0
 19 30  1  1  0  0  0
 20 31  1  0  0  0  0
 20 32  1  0  0  0  0
 21 26  1  0  0  0  0
 21 20  1  0  0  0  0
 22 21  2  0  0  0  0
 23 24  2  0  0  0  0
 23 22  1  0  0  0  0
 24 25  1  0  0  0  0
 25 36  1  0  0  0  0
 25 26  2  0  0  0  0
 26 37  1  0  0  0  0
 27 19  1  0  0  0  0
 28 27  2  0  0  0  0
 29 18  1  0  0  0  0
 33 22  1  0  0  0  0
 34 23  1  0  0  0  0
 35 24  1  0  0  0  0
 38 45  1  0  0  0  0
 39 47  1  6  0  0  0
 39 38  1  0  0  0  0
 39 40  1  0  0  0  0
 40 27  1  0  0  0  0
 40 48  1  0  0  0  0
 41 39  1  0  0  0  0
 41 43  1  0  0  0  0
 42 41  2  0  0  0  0
 44 38  1  0  0  0  0
 46 38  1  0  0  0  0
M  END
$$$$
