VFE.pdb
 OpenBabel07022419273D

 54 54  0  0  1  0  0  0  0  0999 V2000
    2.6900   -0.5260    4.5930 C   0  0  0  0  0  0  0  0  0  0  0  0
    3.3260    0.4300    3.6070 C   0  0  0  0  0  0  0  0  0  0  0  0
    2.7070    1.7860    3.7350 C   0  0  0  0  0  0  0  0  0  0  0  0
    3.2800   -0.1610    2.2370 C   0  0  2  0  0  0  0  0  0  0  0  0
    3.8570    0.6680    1.2230 N   0  0  0  0  0  0  0  0  0  0  0  0
    1.8750   -0.5000    1.8130 C   0  0  0  0  0  0  0  0  0  0  0  0
    1.1200   -1.1780    2.5490 O   0  0  0  0  0  0  0  0  0  0  0  0
    3.2340   -0.4750    5.5640 H   0  0  0  0  0  0  0  0  0  0  0  0
    1.6280   -0.2790    4.7810 H   0  0  0  0  0  0  0  0  0  0  0  0
    2.7640   -1.5510    4.1840 H   0  0  0  0  0  0  0  0  0  0  0  0
    4.3940    0.5180    3.8970 H   0  0  0  0  0  0  0  0  0  0  0  0
    1.7480    1.7850    3.1980 H   0  0  0  0  0  0  0  0  0  0  0  0
    2.4650    1.9380    4.8130 H   0  0  0  0  0  0  0  0  0  0  0  0
    3.4010    2.5950    3.4140 H   0  0  0  0  0  0  0  0  0  0  0  0
    3.8030   -1.1580    2.3140 H   0  0  0  0  0  0  0  0  0  0  0  0
    4.6100    0.1360    0.7370 H   0  0  0  0  0  0  0  0  0  0  0  0
    4.1730    1.5910    1.5480 H   0  0  0  0  0  0  0  0  0  0  0  0
    1.3270   -0.0840    0.5750 N   0  0  0  0  0  0  0  0  0  0  0  0
   -0.0010   -0.4200    0.1900 C   0  0  1  0  0  0  0  0  0  0  0  0
   -0.8930    0.7800   -0.0870 C   0  0  0  0  0  0  0  0  0  0  0  0
   -1.0500    1.6730    1.0840 C   0  0  0  0  0  0  0  0  0  0  0  0
   -0.2020    2.7380    1.2870 C   0  0  0  0  0  0  0  0  0  0  0  0
   -0.3700    3.5730    2.3980 C   0  0  0  0  0  0  0  0  0  0  0  0
   -1.3780    3.3610    3.3160 C   0  0  0  0  0  0  0  0  0  0  0  0
   -2.2200    2.2920    3.1000 C   0  0  0  0  0  0  0  0  0  0  0  0
   -2.0640    1.4520    1.9980 C   0  0  0  0  0  0  0  0  0  0  0  0
   -0.0860   -1.3050   -0.9790 C   0  0  0  0  0  0  0  0  0  0  0  0
    0.9490   -1.6840   -1.5550 O   0  0  0  0  0  0  0  0  0  0  0  0
    1.9030    0.4850   -0.0820 H   0  0  0  0  0  0  0  0  0  0  0  0
   -0.4750   -0.9500    1.0720 H   0  0  0  0  0  0  0  0  0  0  0  0
   -1.8590    0.4760   -0.4960 H   0  0  0  0  0  0  0  0  0  0  0  0
   -0.3900    1.3850   -0.8960 H   0  0  0  0  0  0  0  0  0  0  0  0
    0.6000    2.9490    0.6030 H   0  0  0  0  0  0  0  0  0  0  0  0
    0.2910    4.4120    2.5660 H   0  0  0  0  0  0  0  0  0  0  0  0
   -1.5090    4.0060    4.1750 H   0  0  0  0  0  0  0  0  0  0  0  0
   -3.0070    2.1350    3.8270 H   0  0  0  0  0  0  0  0  0  0  0  0
   -2.7510    0.6040    1.8500 H   0  0  0  0  0  0  0  0  0  0  0  0
   -1.3380   -1.7330   -1.4610 N   0  0  0  0  0  0  0  0  0  0  0  0
   -1.3920   -2.6240   -2.6420 C   0  0  1  0  0  0  0  0  0  0  0  0
   -2.0860   -3.9080   -2.2550 C   0  0  0  0  0  0  0  0  0  0  0  0
   -2.2150   -4.9160   -3.3370 C   0  0  0  0  0  0  0  0  0  0  0  0
   -2.9010   -6.1520   -2.8090 C   0  0  0  0  0  0  0  0  0  0  0  0
   -3.2690   -6.2200   -1.6210 O   0  0  0  0  0  0  0  0  0  0  0  0
   -2.1890   -1.9510   -3.6750 C   0  0  0  0  0  0  0  0  0  0  0  0
   -2.3470   -2.4710   -4.7950 O   0  0  0  0  0  0  0  0  0  0  0  0
   -3.1260   -7.2240   -3.6460 O   0  0  0  0  0  0  0  0  0  0  0  0
   -2.7740   -0.7310   -3.4150 O   0  0  0  0  0  0  0  0  0  0  0  0
   -2.2490   -1.4500   -1.0200 H   0  0  0  0  0  0  0  0  0  0  0  0
   -0.3450   -2.8170   -2.9850 H   0  0  0  0  0  0  0  0  0  0  0  0
   -1.4750   -4.3590   -1.4450 H   0  0  0  0  0  0  0  0  0  0  0  0
   -3.0980   -3.6580   -1.8220 H   0  0  0  0  0  0  0  0  0  0  0  0
   -1.2420   -5.1830   -3.7470 H   0  0  0  0  0  0  0  0  0  0  0  0
   -2.9440   -4.5480   -4.1190 H   0  0  0  0  0  0  0  0  0  0  0  0
   -3.4020   -8.1450   -3.3070 H   0  0  0  0  0  0  0  0  0  0  0  0
  1  9  1  0  0  0  0
  1  8  1  0  0  0  0
  2  3  1  0  0  0  0
  2 11  1  0  0  0  0
  2  1  1  0  0  0  0
  3 13  1  0  0  0  0
  4 15  1  1  0  0  0
  4  2  1  0  0  0  0
  5 17  1  0  0  0  0
  5  4  1  0  0  0  0
  6  4  1  0  0  0  0
  6  7  2  0  0  0  0
 10  1  1  0  0  0  0
 12  3  1  0  0  0  0
 14  3  1  0  0  0  0
 16  5  1  0  0  0  0
 18  6  1  0  0  0  0
 19 18  1  0  0  0  0
 19 30  1  1  0  0  0
 20 19  1  0  0  0  0
 20 21  1  0  0  0  0
 21 22  2  0  0  0  0
 21 26  1  0  0  0  0
 22 23  1  0  0  0  0
 23 34  1  0  0  0  0
 23 24  2  0  0  0  0
 24 35  1  0  0  0  0
 25 24  1  0  0  0  0
 25 36  1  0  0  0  0
 26 25  2  0  0  0  0
 27 19  1  0  0  0  0
 28 27  2  0  0  0  0
 29 18  1  0  0  0  0
 31 20  1  0  0  0  0
 32 20  1  0  0  0  0
 33 22  1  0  0  0  0
 37 26  1  0  0  0  0
 38 48  1  0  0  0  0
 38 27  1  0  0  0  0
 39 49  1  6  0  0  0
 39 40  1  0  0  0  0
 39 38  1  0  0  0  0
 40 51  1  0  0  0  0
 40 50  1  0  0  0  0
 41 42  1  0  0  0  0
 41 40  1  0  0  0  0
 42 43  2  0  0  0  0
 44 47  1  0  0  0  0
 44 39  1  0  0  0  0
 45 44  2  0  0  0  0
 46 54  1  0  0  0  0
 46 42  1  0  0  0  0
 52 41  1  0  0  0  0
 53 41  1  0  0  0  0
M  END
$$$$
