VFL.pdb
 OpenBabel07022419273D

 57 57  0  0  1  0  0  0  0  0999 V2000
    0.9340   -1.6060    6.2440 C   0  0  0  0  0  0  0  0  0  0  0  0
    0.2430   -1.1000    4.9980 C   0  0  0  0  0  0  0  0  0  0  0  0
    0.0590    0.3810    5.1130 C   0  0  0  0  0  0  0  0  0  0  0  0
    1.0610   -1.5180    3.8020 C   0  0  2  0  0  0  0  0  0  0  0  0
    2.4050   -0.9770    3.8470 N   0  0  0  0  0  0  0  0  0  0  0  0
    0.4100   -1.2760    2.5050 C   0  0  0  0  0  0  0  0  0  0  0  0
   -0.7730   -1.6510    2.3140 O   0  0  0  0  0  0  0  0  0  0  0  0
    1.6570   -2.4330    5.9870 H   0  0  0  0  0  0  0  0  0  0  0  0
    1.4810   -0.7570    6.7030 H   0  0  0  0  0  0  0  0  0  0  0  0
    0.1710   -1.9310    6.9750 H   0  0  0  0  0  0  0  0  0  0  0  0
   -0.7600   -1.5830    4.9670 H   0  0  0  0  0  0  0  0  0  0  0  0
   -0.8800    0.5390    5.7210 H   0  0  0  0  0  0  0  0  0  0  0  0
   -0.1300    0.8730    4.1540 H   0  0  0  0  0  0  0  0  0  0  0  0
    0.8600    0.8760    5.7150 H   0  0  0  0  0  0  0  0  0  0  0  0
    1.1940   -2.6360    3.9110 H   0  0  0  0  0  0  0  0  0  0  0  0
    2.7160   -0.7910    4.8300 H   0  0  0  0  0  0  0  0  0  0  0  0
    3.0830   -1.6620    3.4420 H   0  0  0  0  0  0  0  0  0  0  0  0
    1.0560   -0.6270    1.4230 N   0  0  0  0  0  0  0  0  0  0  0  0
    0.3730   -0.4160    0.1680 C   0  0  1  0  0  0  0  0  0  0  0  0
    0.2820    1.0300   -0.2410 C   0  0  0  0  0  0  0  0  0  0  0  0
   -0.4390    1.8840    0.7240 C   0  0  0  0  0  0  0  0  0  0  0  0
   -1.7990    2.1060    0.6850 C   0  0  0  0  0  0  0  0  0  0  0  0
   -2.4240    2.9330    1.6230 C   0  0  0  0  0  0  0  0  0  0  0  0
   -1.6970    3.5410    2.6010 C   0  0  0  0  0  0  0  0  0  0  0  0
   -0.3380    3.3340    2.6590 C   0  0  0  0  0  0  0  0  0  0  0  0
    0.2740    2.5080    1.7200 C   0  0  0  0  0  0  0  0  0  0  0  0
    0.9660   -1.2500   -0.9190 C   0  0  0  0  0  0  0  0  0  0  0  0
    1.9400   -2.0220   -0.7310 O   0  0  0  0  0  0  0  0  0  0  0  0
    2.0530   -0.2870    1.5200 H   0  0  0  0  0  0  0  0  0  0  0  0
   -0.6660   -0.7850    0.2920 H   0  0  0  0  0  0  0  0  0  0  0  0
   -0.2470    1.0600   -1.2110 H   0  0  0  0  0  0  0  0  0  0  0  0
    1.3460    1.3840   -0.3590 H   0  0  0  0  0  0  0  0  0  0  0  0
   -2.3820    1.6200   -0.0960 H   0  0  0  0  0  0  0  0  0  0  0  0
   -3.4970    3.0700    1.5420 H   0  0  0  0  0  0  0  0  0  0  0  0
   -2.1360    4.1870    3.3450 H   0  0  0  0  0  0  0  0  0  0  0  0
    0.2960    3.7870    3.4100 H   0  0  0  0  0  0  0  0  0  0  0  0
    1.3410    2.3610    1.7850 H   0  0  0  0  0  0  0  0  0  0  0  0
   -1.8710   -4.3510   -4.1860 C   0  0  0  0  0  0  0  0  0  0  0  0
   -1.2300   -2.9520   -3.9680 C   0  0  0  0  0  0  0  0  0  0  0  0
   -2.1110   -2.2870   -2.9330 C   0  0  0  0  0  0  0  0  0  0  0  0
    0.1610   -3.2190   -3.5310 C   0  0  0  0  0  0  0  0  0  0  0  0
    1.0320   -2.0180   -3.2780 C   0  0  2  0  0  0  0  0  0  0  0  0
    0.4550   -1.2190   -2.2530 N   0  0  0  0  0  0  0  0  0  0  0  0
    1.3080   -1.2970   -4.5280 C   0  0  0  0  0  0  0  0  0  0  0  0
    1.8150   -1.9320   -5.4790 O   0  0  0  0  0  0  0  0  0  0  0  0
    1.0400    0.0440   -4.7150 O   0  0  0  0  0  0  0  0  0  0  0  0
   -2.9710   -4.2670   -4.0630 H   0  0  0  0  0  0  0  0  0  0  0  0
   -1.6460   -4.6290   -5.2250 H   0  0  0  0  0  0  0  0  0  0  0  0
   -1.5110   -5.0570   -3.4320 H   0  0  0  0  0  0  0  0  0  0  0  0
   -1.2140   -2.3770   -4.9130 H   0  0  0  0  0  0  0  0  0  0  0  0
   -1.7460   -2.3580   -1.9080 H   0  0  0  0  0  0  0  0  0  0  0  0
   -2.3880   -1.2710   -3.2830 H   0  0  0  0  0  0  0  0  0  0  0  0
   -3.1230   -2.8150   -2.8920 H   0  0  0  0  0  0  0  0  0  0  0  0
    0.0940   -3.7570   -2.5360 H   0  0  0  0  0  0  0  0  0  0  0  0
    0.6910   -3.9540   -4.1790 H   0  0  0  0  0  0  0  0  0  0  0  0
    2.0200   -2.4650   -2.9650 H   0  0  0  0  0  0  0  0  0  0  0  0
   -0.3400   -0.5670   -2.4260 H   0  0  0  0  0  0  0  0  0  0  0  0
  1  9  1  0  0  0  0
  1 10  1  0  0  0  0
  2  3  1  0  0  0  0
  2  1  1  0  0  0  0
  3 14  1  0  0  0  0
  3 12  1  0  0  0  0
  4  5  1  0  0  0  0
  4 15  1  1  0  0  0
  4  2  1  0  0  0  0
  5 16  1  0  0  0  0
  6  4  1  0  0  0  0
  7  6  2  0  0  0  0
  8  1  1  0  0  0  0
 11  2  1  0  0  0  0
 13  3  1  0  0  0  0
 17  5  1  0  0  0  0
 18 29  1  0  0  0  0
 18  6  1  0  0  0  0
 19 30  1  1  0  0  0
 19 18  1  0  0  0  0
 20 19  1  0  0  0  0
 20 21  1  0  0  0  0
 21 26  1  0  0  0  0
 22 21  2  0  0  0  0
 22 23  1  0  0  0  0
 23 24  2  0  0  0  0
 24 25  1  0  0  0  0
 24 35  1  0  0  0  0
 25 36  1  0  0  0  0
 26 37  1  0  0  0  0
 26 25  2  0  0  0  0
 27 28  2  0  0  0  0
 27 19  1  0  0  0  0
 31 20  1  0  0  0  0
 32 20  1  0  0  0  0
 33 22  1  0  0  0  0
 34 23  1  0  0  0  0
 38 47  1  0  0  0  0
 38 39  1  0  0  0  0
 38 49  1  0  0  0  0
 39 41  1  0  0  0  0
 39 40  1  0  0  0  0
 40 53  1  0  0  0  0
 40 51  1  0  0  0  0
 41 42  1  0  0  0  0
 41 54  1  0  0  0  0
 42 56  1  1  0  0  0
 42 43  1  0  0  0  0
 43 27  1  0  0  0  0
 44 42  1  0  0  0  0
 45 44  2  0  0  0  0
 46 44  1  0  0  0  0
 48 38  1  0  0  0  0
 50 39  1  0  0  0  0
 52 40  1  0  0  0  0
 55 41  1  0  0  0  0
 57 43  1  0  0  0  0
M  END
$$$$
