VFR.pdb
 OpenBabel07022419263D

 61 61  0  0  1  0  0  0  0  0999 V2000
    1.5480   -1.8420    3.6790 C   0  0  0  0  0  0  0  0  0  0  0  0
    2.7760   -1.0520    3.3110 C   0  0  0  0  0  0  0  0  0  0  0  0
    3.4190   -1.7630    2.1390 C   0  0  0  0  0  0  0  0  0  0  0  0
    2.4650    0.3940    3.0050 C   0  0  2  0  0  0  0  0  0  0  0  0
    1.8680    0.9830    4.1700 N   0  0  0  0  0  0  0  0  0  0  0  0
    1.6170    0.4960    1.7900 C   0  0  0  0  0  0  0  0  0  0  0  0
    2.1010    0.0410    0.7220 O   0  0  0  0  0  0  0  0  0  0  0  0
    1.6630   -2.2990    4.6970 H   0  0  0  0  0  0  0  0  0  0  0  0
    0.6220   -1.2520    3.6940 H   0  0  0  0  0  0  0  0  0  0  0  0
    1.3790   -2.7270    2.9980 H   0  0  0  0  0  0  0  0  0  0  0  0
    3.4900   -1.1030    4.1770 H   0  0  0  0  0  0  0  0  0  0  0  0
    3.8730   -2.7080    2.5530 H   0  0  0  0  0  0  0  0  0  0  0  0
    2.6230   -2.1230    1.4270 H   0  0  0  0  0  0  0  0  0  0  0  0
    4.2250   -1.2070    1.6620 H   0  0  0  0  0  0  0  0  0  0  0  0
    3.4440    0.9260    2.8530 H   0  0  0  0  0  0  0  0  0  0  0  0
    2.5370    1.2890    4.8830 H   0  0  0  0  0  0  0  0  0  0  0  0
    0.9950    0.5650    4.4970 H   0  0  0  0  0  0  0  0  0  0  0  0
    0.3360    1.0590    1.7680 N   0  0  0  0  0  0  0  0  0  0  0  0
   -0.5020    1.1840    0.6180 C   0  0  1  0  0  0  0  0  0  0  0  0
    0.2620    1.8480   -0.5490 C   0  0  0  0  0  0  0  0  0  0  0  0
    0.7310    3.2050   -0.2080 C   0  0  0  0  0  0  0  0  0  0  0  0
    1.9740    3.5210    0.2850 C   0  0  0  0  0  0  0  0  0  0  0  0
    2.3350    4.8400    0.6010 C   0  0  0  0  0  0  0  0  0  0  0  0
    1.4430    5.8720    0.4250 C   0  0  0  0  0  0  0  0  0  0  0  0
    0.1940    5.5660   -0.0700 C   0  0  0  0  0  0  0  0  0  0  0  0
   -0.1610    4.2690   -0.3800 C   0  0  0  0  0  0  0  0  0  0  0  0
   -1.1260   -0.0490    0.1410 C   0  0  0  0  0  0  0  0  0  0  0  0
   -1.8770    0.0390   -0.8650 O   0  0  0  0  0  0  0  0  0  0  0  0
   -0.0330    1.4200    2.6950 H   0  0  0  0  0  0  0  0  0  0  0  0
   -1.2650    2.0000    0.8750 H   0  0  0  0  0  0  0  0  0  0  0  0
    1.0240    1.1850   -0.9340 H   0  0  0  0  0  0  0  0  0  0  0  0
   -0.5090    1.9430   -1.3770 H   0  0  0  0  0  0  0  0  0  0  0  0
    2.6840    2.7150    0.4160 H   0  0  0  0  0  0  0  0  0  0  0  0
    3.3350    5.0340    0.9900 H   0  0  0  0  0  0  0  0  0  0  0  0
    1.7510    6.8790    0.6780 H   0  0  0  0  0  0  0  0  0  0  0  0
   -0.5200    6.3780   -0.2140 H   0  0  0  0  0  0  0  0  0  0  0  0
   -1.1490    4.0240   -0.7730 H   0  0  0  0  0  0  0  0  0  0  0  0
   -5.1000   -3.7600   -3.7120 N   0  0  0  0  0  0  0  0  0  0  0  0
   -3.7210   -4.0330   -3.5380 C   0  0  0  0  0  0  0  0  0  0  0  0
   -2.9480   -4.2150   -4.5410 N   0  0  0  0  0  0  0  0  0  0  0  0
   -3.1390   -4.1170   -2.2180 N   0  0  0  0  0  0  0  0  0  0  0  0
   -1.9150   -4.8010   -2.0840 C   0  0  0  0  0  0  0  0  0  0  0  0
   -1.2080   -4.8210   -0.7930 C   0  0  0  0  0  0  0  0  0  0  0  0
   -0.6700   -3.5800   -0.2070 C   0  0  0  0  0  0  0  0  0  0  0  0
   -1.6480   -2.5350    0.1370 C   0  0  2  0  0  0  0  0  0  0  0  0
   -0.9700   -1.3380    0.6980 N   0  0  0  0  0  0  0  0  0  0  0  0
   -2.5570   -3.0100    1.1960 C   0  0  0  0  0  0  0  0  0  0  0  0
   -3.2480   -4.0450    1.1050 O   0  0  0  0  0  0  0  0  0  0  0  0
   -2.6700   -2.2840    2.3730 O   0  0  0  0  0  0  0  0  0  0  0  0
   -5.7560   -4.3880   -4.2370 H   0  0  0  0  0  0  0  0  0  0  0  0
   -5.5460   -2.8830   -3.3100 H   0  0  0  0  0  0  0  0  0  0  0  0
   -3.3380   -4.1610   -5.5120 H   0  0  0  0  0  0  0  0  0  0  0  0
   -3.6760   -3.6930   -1.4750 H   0  0  0  0  0  0  0  0  0  0  0  0
   -2.1510   -5.8910   -2.3810 H   0  0  0  0  0  0  0  0  0  0  0  0
   -1.1960   -4.5340   -2.9420 H   0  0  0  0  0  0  0  0  0  0  0  0
   -0.2980   -5.5160   -0.9480 H   0  0  0  0  0  0  0  0  0  0  0  0
   -1.7940   -5.4190   -0.0230 H   0  0  0  0  0  0  0  0  0  0  0  0
    0.1350   -3.2140   -0.9080 H   0  0  0  0  0  0  0  0  0  0  0  0
   -0.0570   -3.9020    0.7030 H   0  0  0  0  0  0  0  0  0  0  0  0
   -2.2430   -2.2200   -0.7320 H   0  0  0  0  0  0  0  0  0  0  0  0
   -0.3560   -1.4340    1.5280 H   0  0  0  0  0  0  0  0  0  0  0  0
  1  9  1  0  0  0  0
  1  8  1  0  0  0  0
  2  1  1  0  0  0  0
  2 11  1  0  0  0  0
  3 12  1  0  0  0  0
  3  2  1  0  0  0  0
  4 15  1  6  0  0  0
  4  2  1  0  0  0  0
  4  5  1  0  0  0  0
  5 17  1  0  0  0  0
  5 16  1  0  0  0  0
  6  4  1  0  0  0  0
  7  6  2  0  0  0  0
 10  1  1  0  0  0  0
 13  3  1  0  0  0  0
 14  3  1  0  0  0  0
 18  6  1  0  0  0  0
 18 29  1  0  0  0  0
 19 30  1  1  0  0  0
 19 18  1  0  0  0  0
 20 21  1  0  0  0  0
 20 19  1  0  0  0  0
 21 22  1  0  0  0  0
 22 33  1  0  0  0  0
 22 23  2  0  0  0  0
 23 34  1  0  0  0  0
 24 23  1  0  0  0  0
 24 35  1  0  0  0  0
 25 24  2  0  0  0  0
 26 21  2  0  0  0  0
 26 25  1  0  0  0  0
 27 19  1  0  0  0  0
 27 46  1  0  0  0  0
 28 27  2  0  0  0  0
 31 20  1  0  0  0  0
 32 20  1  0  0  0  0
 36 25  1  0  0  0  0
 37 26  1  0  0  0  0
 38 39  1  0  0  0  0
 38 51  1  0  0  0  0
 39 41  1  0  0  0  0
 40 39  2  0  0  0  0
 41 42  1  0  0  0  0
 41 53  1  0  0  0  0
 42 43  1  0  0  0  0
 43 44  1  0  0  0  0
 43 57  1  0  0  0  0
 44 45  1  0  0  0  0
 44 59  1  0  0  0  0
 45 60  1  6  0  0  0
 45 46  1  0  0  0  0
 45 47  1  0  0  0  0
 46 61  1  0  0  0  0
 47 49  1  0  0  0  0
 48 47  2  0  0  0  0
 50 38  1  0  0  0  0
 52 40  1  0  0  0  0
 54 42  1  0  0  0  0
 55 42  1  0  0  0  0
 56 43  1  0  0  0  0
 58 44  1  0  0  0  0
M  END
$$$$
