VGC.pdb
 OpenBabel07022419253D

 36 35  0  0  1  0  0  0  0  0999 V2000
   -2.4130   -0.9100    0.4480 C   0  0  0  0  0  0  0  0  0  0  0  0
   -1.6620   -1.9280    1.2200 C   0  0  0  0  0  0  0  0  0  0  0  0
   -2.6000   -2.7300    2.0960 C   0  0  0  0  0  0  0  0  0  0  0  0
   -0.7690   -2.8410    0.4230 C   0  0  2  0  0  0  0  0  0  0  0  0
   -0.1230   -3.7750    1.3760 N   0  0  0  0  0  0  0  0  0  0  0  0
    0.2570   -2.1700   -0.3760 C   0  0  0  0  0  0  0  0  0  0  0  0
    1.4750   -2.3500   -0.1060 O   0  0  0  0  0  0  0  0  0  0  0  0
   -2.9910   -1.3210   -0.4070 H   0  0  0  0  0  0  0  0  0  0  0  0
   -3.2230   -0.5020    1.1310 H   0  0  0  0  0  0  0  0  0  0  0  0
   -1.8220   -0.0040    0.1970 H   0  0  0  0  0  0  0  0  0  0  0  0
   -0.9920   -1.3680    1.9370 H   0  0  0  0  0  0  0  0  0  0  0  0
   -2.8730   -3.6520    1.5160 H   0  0  0  0  0  0  0  0  0  0  0  0
   -2.0620   -3.0680    3.0000 H   0  0  0  0  0  0  0  0  0  0  0  0
   -3.4980   -2.1390    2.3570 H   0  0  0  0  0  0  0  0  0  0  0  0
   -1.4110   -3.4850   -0.2090 H   0  0  0  0  0  0  0  0  0  0  0  0
    0.7040   -4.2010    0.9440 H   0  0  0  0  0  0  0  0  0  0  0  0
    0.0750   -3.2880    2.2770 H   0  0  0  0  0  0  0  0  0  0  0  0
   -0.0350   -1.3080   -1.4620 N   0  0  0  0  0  0  0  0  0  0  0  0
    0.9850   -0.6380   -2.2350 C   0  0  0  0  0  0  0  0  0  0  0  0
    1.7150    0.3070   -1.3790 C   0  0  0  0  0  0  0  0  0  0  0  0
    2.6820    0.9270   -1.9190 O   0  0  0  0  0  0  0  0  0  0  0  0
   -1.0320   -1.1410   -1.7360 H   0  0  0  0  0  0  0  0  0  0  0  0
    0.4930   -0.0760   -3.0840 H   0  0  0  0  0  0  0  0  0  0  0  0
    1.6720   -1.3690   -2.7240 H   0  0  0  0  0  0  0  0  0  0  0  0
    1.4270    0.5750   -0.0340 N   0  0  0  0  0  0  0  0  0  0  0  0
    2.1970    1.5280    0.7580 C   0  0  1  0  0  0  0  0  0  0  0  0
    1.3040    2.6890    1.1460 C   0  0  0  0  0  0  0  0  0  0  0  0
    2.1970    3.9090    2.1310 S   0  0  0  0  0  0  0  0  0  0  0  0
    2.7580    0.8340    1.9190 C   0  0  0  0  0  0  0  0  0  0  0  0
    3.4640    1.4620    2.7380 O   0  0  0  0  0  0  0  0  0  0  0  0
    2.5190   -0.5040    2.1230 O   0  0  0  0  0  0  0  0  0  0  0  0
    0.6290    0.1040    0.4390 H   0  0  0  0  0  0  0  0  0  0  0  0
    3.0260    1.9660    0.1650 H   0  0  0  0  0  0  0  0  0  0  0  0
    0.4010    2.3600    1.7070 H   0  0  0  0  0  0  0  0  0  0  0  0
    0.9810    3.1740    0.1870 H   0  0  0  0  0  0  0  0  0  0  0  0
    3.5760    3.9240    1.8280 H   0  0  0  0  0  0  0  0  0  0  0  0
  1  9  1  0  0  0  0
  1  2  1  0  0  0  0
  2 11  1  0  0  0  0
  2  3  1  0  0  0  0
  3 14  1  0  0  0  0
  3 13  1  0  0  0  0
  4 15  1  6  0  0  0
  4  2  1  0  0  0  0
  4  5  1  0  0  0  0
  5 17  1  0  0  0  0
  6  7  2  0  0  0  0
  6  4  1  0  0  0  0
  8  1  1  0  0  0  0
 10  1  1  0  0  0  0
 12  3  1  0  0  0  0
 16  5  1  0  0  0  0
 18  6  1  0  0  0  0
 19 18  1  0  0  0  0
 19 20  1  0  0  0  0
 20 25  1  0  0  0  0
 21 20  2  0  0  0  0
 22 18  1  0  0  0  0
 23 19  1  0  0  0  0
 24 19  1  0  0  0  0
 25 32  1  0  0  0  0
 25 26  1  0  0  0  0
 26 33  1  6  0  0  0
 26 27  1  0  0  0  0
 26 29  1  0  0  0  0
 27 34  1  0  0  0  0
 27 28  1  0  0  0  0
 29 31  2  0  0  0  0
 29 30  1  0  0  0  0
 35 27  1  0  0  0  0
 36 28  1  0  0  0  0
M  END
$$$$
