VGE.pdb
 OpenBabel07022419253D

 41 40  0  0  1  0  0  0  0  0999 V2000
   -1.4030   -4.8630    1.9450 C   0  0  0  0  0  0  0  0  0  0  0  0
   -1.1180   -4.0180    0.7140 C   0  0  0  0  0  0  0  0  0  0  0  0
    0.0160   -4.6920   -0.0230 C   0  0  0  0  0  0  0  0  0  0  0  0
   -0.7260   -2.6420    1.1860 C   0  0  2  0  0  0  0  0  0  0  0  0
   -1.8860   -2.1510    1.9460 N   0  0  0  0  0  0  0  0  0  0  0  0
   -0.3810   -1.7340    0.0780 C   0  0  0  0  0  0  0  0  0  0  0  0
    0.6440   -2.0000   -0.5890 O   0  0  0  0  0  0  0  0  0  0  0  0
   -1.8780   -5.8350    1.6620 H   0  0  0  0  0  0  0  0  0  0  0  0
   -0.4140   -5.1410    2.3810 H   0  0  0  0  0  0  0  0  0  0  0  0
   -2.0200   -4.3500    2.6820 H   0  0  0  0  0  0  0  0  0  0  0  0
   -2.0400   -3.9910    0.1040 H   0  0  0  0  0  0  0  0  0  0  0  0
   -0.2160   -5.7850   -0.1150 H   0  0  0  0  0  0  0  0  0  0  0  0
    0.2070   -4.2460   -1.0310 H   0  0  0  0  0  0  0  0  0  0  0  0
    0.9540   -4.6320    0.5600 H   0  0  0  0  0  0  0  0  0  0  0  0
    0.1620   -2.7440    1.8360 H   0  0  0  0  0  0  0  0  0  0  0  0
   -2.6990   -2.1080    1.2950 H   0  0  0  0  0  0  0  0  0  0  0  0
   -1.6530   -1.1760    2.2110 H   0  0  0  0  0  0  0  0  0  0  0  0
   -1.1470   -0.5840   -0.2670 N   0  0  0  0  0  0  0  0  0  0  0  0
   -0.8150    0.3170   -1.3370 C   0  0  0  0  0  0  0  0  0  0  0  0
    0.4640    1.0400   -1.1520 C   0  0  0  0  0  0  0  0  0  0  0  0
    0.8930    1.8280   -2.0720 O   0  0  0  0  0  0  0  0  0  0  0  0
   -2.0060   -0.4410    0.3460 H   0  0  0  0  0  0  0  0  0  0  0  0
   -1.6090    1.1200   -1.3510 H   0  0  0  0  0  0  0  0  0  0  0  0
   -0.8700   -0.1730   -2.3310 H   0  0  0  0  0  0  0  0  0  0  0  0
    1.2050    0.8590    0.0430 N   0  0  0  0  0  0  0  0  0  0  0  0
    2.4460    1.5450    0.2370 C   0  0  1  0  0  0  0  0  0  0  0  0
    2.6050    2.2810    1.5250 C   0  0  0  0  0  0  0  0  0  0  0  0
    1.6500    3.3650    1.8290 C   0  0  0  0  0  0  0  0  0  0  0  0
    0.2400    3.0350    1.9320 C   0  0  0  0  0  0  0  0  0  0  0  0
   -0.5320    3.1900    0.9600 O   0  0  0  0  0  0  0  0  0  0  0  0
    3.5970    0.5920    0.1810 C   0  0  0  0  0  0  0  0  0  0  0  0
    3.4370   -0.6220   -0.0080 O   0  0  0  0  0  0  0  0  0  0  0  0
   -0.3230    2.5360    3.1000 O   0  0  0  0  0  0  0  0  0  0  0  0
    4.8560    1.1060    0.3480 O   0  0  0  0  0  0  0  0  0  0  0  0
    0.8660    0.2540    0.7900 H   0  0  0  0  0  0  0  0  0  0  0  0
    2.6090    2.2700   -0.6160 H   0  0  0  0  0  0  0  0  0  0  0  0
    2.7500    1.5800    2.3920 H   0  0  0  0  0  0  0  0  0  0  0  0
    3.6260    2.7750    1.4500 H   0  0  0  0  0  0  0  0  0  0  0  0
    1.9670    3.8110    2.8160 H   0  0  0  0  0  0  0  0  0  0  0  0
    1.8120    4.1730    1.0780 H   0  0  0  0  0  0  0  0  0  0  0  0
   -1.1120    1.8950    3.0220 H   0  0  0  0  0  0  0  0  0  0  0  0
  1  9  1  0  0  0  0
  1 10  1  0  0  0  0
  2  4  1  0  0  0  0
  2  1  1  0  0  0  0
  3 14  1  0  0  0  0
  3  2  1  0  0  0  0
  4 15  1  1  0  0  0
  4  5  1  0  0  0  0
  5 17  1  0  0  0  0
  6  4  1  0  0  0  0
  7  6  2  0  0  0  0
  8  1  1  0  0  0  0
 11  2  1  0  0  0  0
 12  3  1  0  0  0  0
 13  3  1  0  0  0  0
 16  5  1  0  0  0  0
 18  6  1  0  0  0  0
 18 22  1  0  0  0  0
 19 20  1  0  0  0  0
 19 18  1  0  0  0  0
 20 25  1  0  0  0  0
 21 20  2  0  0  0  0
 23 19  1  0  0  0  0
 24 19  1  0  0  0  0
 25 26  1  0  0  0  0
 25 35  1  0  0  0  0
 26 36  1  6  0  0  0
 26 27  1  0  0  0  0
 27 28  1  0  0  0  0
 27 37  1  0  0  0  0
 28 29  1  0  0  0  0
 28 39  1  0  0  0  0
 29 33  1  0  0  0  0
 30 29  2  0  0  0  0
 31 26  1  0  0  0  0
 31 34  1  0  0  0  0
 32 31  2  0  0  0  0
 38 27  1  0  0  0  0
 40 28  1  0  0  0  0
 41 33  1  0  0  0  0
M  END
$$$$
