VGF.pdb
 OpenBabel07022419253D

 45 45  0  0  1  0  0  0  0  0999 V2000
    1.2220   -5.1390    0.1710 C   0  0  0  0  0  0  0  0  0  0  0  0
    1.8590   -3.8300    0.6640 C   0  0  0  0  0  0  0  0  0  0  0  0
    0.8320   -3.1320    1.4840 C   0  0  0  0  0  0  0  0  0  0  0  0
    2.3090   -3.0920   -0.5730 C   0  0  2  0  0  0  0  0  0  0  0  0
    3.2720   -4.0180   -1.2110 N   0  0  0  0  0  0  0  0  0  0  0  0
    2.9800   -1.8200   -0.3260 C   0  0  0  0  0  0  0  0  0  0  0  0
    4.2010   -1.6630   -0.5730 O   0  0  0  0  0  0  0  0  0  0  0  0
    0.3000   -5.3740    0.7330 H   0  0  0  0  0  0  0  0  0  0  0  0
    1.9460   -5.9750    0.3040 H   0  0  0  0  0  0  0  0  0  0  0  0
    0.9570   -5.0800   -0.8990 H   0  0  0  0  0  0  0  0  0  0  0  0
    2.7030   -4.0980    1.2980 H   0  0  0  0  0  0  0  0  0  0  0  0
    1.2470   -2.3920    2.2110 H   0  0  0  0  0  0  0  0  0  0  0  0
   -0.0410   -2.7560    0.9160 H   0  0  0  0  0  0  0  0  0  0  0  0
    0.3840   -3.9270    2.1560 H   0  0  0  0  0  0  0  0  0  0  0  0
    1.4500   -3.0430   -1.2650 H   0  0  0  0  0  0  0  0  0  0  0  0
    2.7630   -4.6790   -1.8250 H   0  0  0  0  0  0  0  0  0  0  0  0
    3.9720   -3.4410   -1.7010 H   0  0  0  0  0  0  0  0  0  0  0  0
    2.2850   -0.6810    0.2110 N   0  0  0  0  0  0  0  0  0  0  0  0
    2.9370    0.5640    0.4550 C   0  0  0  0  0  0  0  0  0  0  0  0
    2.0870    1.6320    1.0060 C   0  0  0  0  0  0  0  0  0  0  0  0
    2.5840    2.7820    1.2570 O   0  0  0  0  0  0  0  0  0  0  0  0
    1.2830   -0.8420    0.3980 H   0  0  0  0  0  0  0  0  0  0  0  0
    3.8190    0.4590    1.1480 H   0  0  0  0  0  0  0  0  0  0  0  0
    3.4010    0.9660   -0.4880 H   0  0  0  0  0  0  0  0  0  0  0  0
    0.7070    1.5080    1.3000 N   0  0  0  0  0  0  0  0  0  0  0  0
   -0.0630    2.6060    1.8420 C   0  0  1  0  0  0  0  0  0  0  0  0
   -1.2070    3.0050    0.9700 C   0  0  0  0  0  0  0  0  0  0  0  0
   -2.1830    1.9370    0.7360 C   0  0  0  0  0  0  0  0  0  0  0  0
   -3.2830    1.6830    1.5070 C   0  0  0  0  0  0  0  0  0  0  0  0
   -4.1590    0.6540    1.2200 C   0  0  0  0  0  0  0  0  0  0  0  0
   -3.9520   -0.1660    0.1290 C   0  0  0  0  0  0  0  0  0  0  0  0
   -2.8490    0.0820   -0.6530 C   0  0  0  0  0  0  0  0  0  0  0  0
   -1.9770    1.1120   -0.3610 C   0  0  0  0  0  0  0  0  0  0  0  0
   -0.5800    2.2620    3.1910 C   0  0  0  0  0  0  0  0  0  0  0  0
   -0.3110    1.1410    3.6730 O   0  0  0  0  0  0  0  0  0  0  0  0
   -1.3480    3.1180    3.9480 O   0  0  0  0  0  0  0  0  0  0  0  0
    0.1850    0.6230    1.1410 H   0  0  0  0  0  0  0  0  0  0  0  0
    0.5980    3.4890    1.9670 H   0  0  0  0  0  0  0  0  0  0  0  0
   -1.7360    3.8420    1.4710 H   0  0  0  0  0  0  0  0  0  0  0  0
   -0.8670    3.4110   -0.0110 H   0  0  0  0  0  0  0  0  0  0  0  0
   -3.4520    2.3210    2.3650 H   0  0  0  0  0  0  0  0  0  0  0  0
   -5.0110    0.5040    1.8690 H   0  0  0  0  0  0  0  0  0  0  0  0
   -4.6170   -0.9830   -0.1280 H   0  0  0  0  0  0  0  0  0  0  0  0
   -2.6970   -0.5710   -1.5100 H   0  0  0  0  0  0  0  0  0  0  0  0
   -1.1360    1.2390   -1.0240 H   0  0  0  0  0  0  0  0  0  0  0  0
  1  9  1  0  0  0  0
  1  2  1  0  0  0  0
  1  8  1  0  0  0  0
  2 11  1  0  0  0  0
  2  3  1  0  0  0  0
  3 14  1  0  0  0  0
  3 12  1  0  0  0  0
  4 15  1  6  0  0  0
  4  6  1  0  0  0  0
  4  2  1  0  0  0  0
  5  4  1  0  0  0  0
  6 18  1  0  0  0  0
  7  6  2  0  0  0  0
 10  1  1  0  0  0  0
 13  3  1  0  0  0  0
 16  5  1  0  0  0  0
 17  5  1  0  0  0  0
 18 22  1  0  0  0  0
 18 19  1  0  0  0  0
 19 20  1  0  0  0  0
 19 23  1  0  0  0  0
 20 21  2  0  0  0  0
 20 25  1  0  0  0  0
 24 19  1  0  0  0  0
 25 26  1  0  0  0  0
 26 38  1  1  0  0  0
 26 34  1  0  0  0  0
 27 39  1  0  0  0  0
 27 26  1  0  0  0  0
 28 27  1  0  0  0  0
 28 29  1  0  0  0  0
 29 41  1  0  0  0  0
 30 29  2  0  0  0  0
 30 42  1  0  0  0  0
 31 30  1  0  0  0  0
 32 33  1  0  0  0  0
 32 31  2  0  0  0  0
 33 28  2  0  0  0  0
 34 35  2  0  0  0  0
 34 36  1  0  0  0  0
 37 25  1  0  0  0  0
 40 27  1  0  0  0  0
 43 31  1  0  0  0  0
 44 32  1  0  0  0  0
 45 33  1  0  0  0  0
M  END
$$$$
