VGK.pdb
 OpenBabel07022419253D

 46 45  0  0  1  0  0  0  0  0999 V2000
   -2.2280   -4.3930   -0.8470 C   0  0  0  0  0  0  0  0  0  0  0  0
   -1.9590   -3.7410   -2.1860 C   0  0  0  0  0  0  0  0  0  0  0  0
   -1.1640   -4.6430   -3.0710 C   0  0  0  0  0  0  0  0  0  0  0  0
   -1.3710   -2.3770   -2.0050 C   0  0  2  0  0  0  0  0  0  0  0  0
   -1.1060   -1.7340   -3.2680 N   0  0  0  0  0  0  0  0  0  0  0  0
   -0.1790   -2.3420   -1.1470 C   0  0  0  0  0  0  0  0  0  0  0  0
   -0.1930   -2.8480    0.0020 O   0  0  0  0  0  0  0  0  0  0  0  0
   -2.6680   -3.6180   -0.1870 H   0  0  0  0  0  0  0  0  0  0  0  0
   -3.0450   -5.1500   -1.0070 H   0  0  0  0  0  0  0  0  0  0  0  0
   -1.3270   -4.8490   -0.4140 H   0  0  0  0  0  0  0  0  0  0  0  0
   -2.9610   -3.6020   -2.6720 H   0  0  0  0  0  0  0  0  0  0  0  0
   -1.7890   -5.1810   -3.8230 H   0  0  0  0  0  0  0  0  0  0  0  0
   -0.3220   -4.1390   -3.5820 H   0  0  0  0  0  0  0  0  0  0  0  0
   -0.7150   -5.4350   -2.4300 H   0  0  0  0  0  0  0  0  0  0  0  0
   -2.1550   -1.7520   -1.4950 H   0  0  0  0  0  0  0  0  0  0  0  0
   -1.2550   -0.6960   -3.2270 H   0  0  0  0  0  0  0  0  0  0  0  0
   -1.8240   -2.0950   -3.9450 H   0  0  0  0  0  0  0  0  0  0  0  0
    1.0310   -1.7360   -1.5810 N   0  0  0  0  0  0  0  0  0  0  0  0
    2.2330   -1.6580   -0.7850 C   0  0  0  0  0  0  0  0  0  0  0  0
    2.0870   -0.8690    0.4580 C   0  0  0  0  0  0  0  0  0  0  0  0
    3.0860   -0.7740    1.2540 O   0  0  0  0  0  0  0  0  0  0  0  0
    0.9850   -1.3330   -2.5640 H   0  0  0  0  0  0  0  0  0  0  0  0
    2.9950   -1.1100   -1.3980 H   0  0  0  0  0  0  0  0  0  0  0  0
    2.6170   -2.6710   -0.5380 H   0  0  0  0  0  0  0  0  0  0  0  0
    0.9240   -0.1820    0.8770 N   0  0  0  0  0  0  0  0  0  0  0  0
    0.8750    0.5720    2.1340 C   0  0  1  0  0  0  0  0  0  0  0  0
    0.6010    2.0250    1.8690 C   0  0  0  0  0  0  0  0  0  0  0  0
    0.5290    2.8990    3.0600 C   0  0  0  0  0  0  0  0  0  0  0  0
    1.7860    2.9240    3.8930 C   0  0  0  0  0  0  0  0  0  0  0  0
    1.6010    3.8450    5.0790 C   0  0  0  0  0  0  0  0  0  0  0  0
    0.5150    3.4290    5.9350 N   0  0  0  0  0  0  0  0  0  0  0  0
   -0.1410   -0.0360    3.0060 C   0  0  0  0  0  0  0  0  0  0  0  0
   -0.8010   -1.0130    2.5970 O   0  0  0  0  0  0  0  0  0  0  0  0
   -0.3890    0.4430    4.2730 O   0  0  0  0  0  0  0  0  0  0  0  0
    0.0930   -0.2140    0.2540 H   0  0  0  0  0  0  0  0  0  0  0  0
    1.8450    0.5140    2.6650 H   0  0  0  0  0  0  0  0  0  0  0  0
    1.2670    2.4410    1.0770 H   0  0  0  0  0  0  0  0  0  0  0  0
   -0.4250    2.0550    1.3920 H   0  0  0  0  0  0  0  0  0  0  0  0
   -0.3420    2.6690    3.6980 H   0  0  0  0  0  0  0  0  0  0  0  0
    0.2990    3.9380    2.6660 H   0  0  0  0  0  0  0  0  0  0  0  0
    2.5720    3.4130    3.2500 H   0  0  0  0  0  0  0  0  0  0  0  0
    2.1630    1.9370    4.1460 H   0  0  0  0  0  0  0  0  0  0  0  0
    2.5050    3.9070    5.7090 H   0  0  0  0  0  0  0  0  0  0  0  0
    1.4050    4.8680    4.7090 H   0  0  0  0  0  0  0  0  0  0  0  0
    0.5060    2.3980    5.9880 H   0  0  0  0  0  0  0  0  0  0  0  0
   -0.3730    3.7300    5.4780 H   0  0  0  0  0  0  0  0  0  0  0  0
  1 10  1  0  0  0  0
  1  8  1  0  0  0  0
  2  4  1  0  0  0  0
  2  1  1  0  0  0  0
  3 14  1  0  0  0  0
  3  2  1  0  0  0  0
  4 15  1  1  0  0  0
  4  6  1  0  0  0  0
  5 16  1  0  0  0  0
  5  4  1  0  0  0  0
  6  7  2  0  0  0  0
  9  1  1  0  0  0  0
 11  2  1  0  0  0  0
 12  3  1  0  0  0  0
 13  3  1  0  0  0  0
 17  5  1  0  0  0  0
 18  6  1  0  0  0  0
 18 19  1  0  0  0  0
 19 24  1  0  0  0  0
 19 20  1  0  0  0  0
 20 25  1  0  0  0  0
 20 21  2  0  0  0  0
 22 18  1  0  0  0  0
 23 19  1  0  0  0  0
 25 26  1  0  0  0  0
 26 36  1  1  0  0  0
 26 32  1  0  0  0  0
 27 26  1  0  0  0  0
 27 28  1  0  0  0  0
 28 39  1  0  0  0  0
 28 29  1  0  0  0  0
 29 42  1  0  0  0  0
 29 30  1  0  0  0  0
 30 43  1  0  0  0  0
 30 31  1  0  0  0  0
 31 45  1  0  0  0  0
 32 34  1  0  0  0  0
 33 32  2  0  0  0  0
 35 25  1  0  0  0  0
 37 27  1  0  0  0  0
 38 27  1  0  0  0  0
 40 28  1  0  0  0  0
 41 29  1  0  0  0  0
 44 30  1  0  0  0  0
 46 31  1  0  0  0  0
M  END
$$$$
