VGM.pdb
 OpenBabel07022419253D

 42 41  0  0  1  0  0  0  0  0999 V2000
   -1.8190   -4.9260    1.6110 C   0  0  0  0  0  0  0  0  0  0  0  0
   -0.5240   -5.4860    1.1040 C   0  0  0  0  0  0  0  0  0  0  0  0
   -0.6930   -6.2000   -0.2260 C   0  0  0  0  0  0  0  0  0  0  0  0
    0.5760   -4.4530    1.0450 C   0  0  2  0  0  0  0  0  0  0  0  0
    0.8070   -3.9270    2.3770 N   0  0  0  0  0  0  0  0  0  0  0  0
    0.3250   -3.3830    0.0670 C   0  0  0  0  0  0  0  0  0  0  0  0
    0.1020   -3.6240   -1.1450 O   0  0  0  0  0  0  0  0  0  0  0  0
   -1.7580   -3.8150    1.5520 H   0  0  0  0  0  0  0  0  0  0  0  0
   -1.9770   -5.2240    2.6460 H   0  0  0  0  0  0  0  0  0  0  0  0
   -2.6980   -5.2510    1.0260 H   0  0  0  0  0  0  0  0  0  0  0  0
   -0.2020   -6.2680    1.8220 H   0  0  0  0  0  0  0  0  0  0  0  0
   -1.0280   -7.2660   -0.0860 H   0  0  0  0  0  0  0  0  0  0  0  0
   -1.5260   -5.7330   -0.8290 H   0  0  0  0  0  0  0  0  0  0  0  0
    0.2550   -6.2610   -0.7960 H   0  0  0  0  0  0  0  0  0  0  0  0
    1.5230   -4.9490    0.7440 H   0  0  0  0  0  0  0  0  0  0  0  0
    1.5360   -3.2100    2.4180 H   0  0  0  0  0  0  0  0  0  0  0  0
   -0.0880   -3.6930    2.8380 H   0  0  0  0  0  0  0  0  0  0  0  0
    0.3190   -1.9910    0.4310 N   0  0  0  0  0  0  0  0  0  0  0  0
    0.0750   -0.9530   -0.5240 C   0  0  0  0  0  0  0  0  0  0  0  0
    0.1080    0.4120    0.0350 C   0  0  0  0  0  0  0  0  0  0  0  0
   -0.0990    1.4200   -0.7400 O   0  0  0  0  0  0  0  0  0  0  0  0
    0.4970   -1.7780    1.4080 H   0  0  0  0  0  0  0  0  0  0  0  0
    0.7940   -0.9770   -1.3780 H   0  0  0  0  0  0  0  0  0  0  0  0
   -0.9290   -1.0900   -0.9950 H   0  0  0  0  0  0  0  0  0  0  0  0
    3.3020    5.1160   -0.6810 C   0  0  0  0  0  0  0  0  0  0  0  0
    3.2710    5.0290    1.1120 S   0  0  0  0  0  0  0  0  0  0  0  0
    1.7130    4.3000    1.7340 C   0  0  0  0  0  0  0  0  0  0  0  0
    1.5750    2.8750    1.3600 C   0  0  0  0  0  0  0  0  0  0  0  0
    0.3530    2.1780    1.8200 C   0  0  2  0  0  0  0  0  0  0  0  0
    0.3510    0.7720    1.3760 N   0  0  0  0  0  0  0  0  0  0  0  0
   -0.9270    2.8260    1.5460 C   0  0  0  0  0  0  0  0  0  0  0  0
   -1.8460    2.1690    1.0130 O   0  0  0  0  0  0  0  0  0  0  0  0
   -1.1680    4.1400    1.8530 O   0  0  0  0  0  0  0  0  0  0  0  0
    3.9290    4.3290   -1.1460 H   0  0  0  0  0  0  0  0  0  0  0  0
    3.7590    6.0900   -0.9800 H   0  0  0  0  0  0  0  0  0  0  0  0
    2.2640    5.1370   -1.0470 H   0  0  0  0  0  0  0  0  0  0  0  0
    0.9190    4.9250    1.2670 H   0  0  0  0  0  0  0  0  0  0  0  0
    1.7600    4.3990    2.8360 H   0  0  0  0  0  0  0  0  0  0  0  0
    2.5040    2.3470    1.6980 H   0  0  0  0  0  0  0  0  0  0  0  0
    1.6070    2.7620    0.2340 H   0  0  0  0  0  0  0  0  0  0  0  0
    0.3970    2.1070    2.9540 H   0  0  0  0  0  0  0  0  0  0  0  0
    0.5350    0.0300    2.0760 H   0  0  0  0  0  0  0  0  0  0  0  0
  1  9  1  0  0  0  0
  2  1  1  0  0  0  0
  2 11  1  0  0  0  0
  3 12  1  0  0  0  0
  3  2  1  0  0  0  0
  4 15  1  6  0  0  0
  4  2  1  0  0  0  0
  4  5  1  0  0  0  0
  5 16  1  0  0  0  0
  5 17  1  0  0  0  0
  6 18  1  0  0  0  0
  6  4  1  0  0  0  0
  7  6  2  0  0  0  0
  8  1  1  0  0  0  0
 10  1  1  0  0  0  0
 13  3  1  0  0  0  0
 14  3  1  0  0  0  0
 18 22  1  0  0  0  0
 19 20  1  0  0  0  0
 19 18  1  0  0  0  0
 20 30  1  0  0  0  0
 21 20  2  0  0  0  0
 23 19  1  0  0  0  0
 24 19  1  0  0  0  0
 25 26  1  0  0  0  0
 26 27  1  0  0  0  0
 27 38  1  0  0  0  0
 28 39  1  0  0  0  0
 28 27  1  0  0  0  0
 28 29  1  0  0  0  0
 29 41  1  1  0  0  0
 30 29  1  0  0  0  0
 30 42  1  0  0  0  0
 31 29  1  0  0  0  0
 31 33  1  0  0  0  0
 32 31  2  0  0  0  0
 34 25  1  0  0  0  0
 35 25  1  0  0  0  0
 36 25  1  0  0  0  0
 37 27  1  0  0  0  0
 40 28  1  0  0  0  0
M  END
$$$$
