VGP.pdb
 OpenBabel07022419253D

 39 39  0  0  1  0  0  0  0  0999 V2000
   -0.5700   -2.0390    2.8680 C   0  0  0  0  0  0  0  0  0  0  0  0
   -0.3950   -3.1020    1.8620 C   0  0  0  0  0  0  0  0  0  0  0  0
   -1.5670   -3.1150    0.9220 C   0  0  0  0  0  0  0  0  0  0  0  0
    0.8890   -3.2210    1.1520 C   0  0  2  0  0  0  0  0  0  0  0  0
    2.0050   -3.4670    2.0790 N   0  0  0  0  0  0  0  0  0  0  0  0
    1.3140   -2.1540    0.2460 C   0  0  0  0  0  0  0  0  0  0  0  0
    2.3520   -1.4400    0.5000 O   0  0  0  0  0  0  0  0  0  0  0  0
    0.3430   -1.5130    3.1790 H   0  0  0  0  0  0  0  0  0  0  0  0
   -1.2670   -1.2320    2.4910 H   0  0  0  0  0  0  0  0  0  0  0  0
   -1.0630   -2.4060    3.7930 H   0  0  0  0  0  0  0  0  0  0  0  0
   -0.5050   -4.0890    2.4400 H   0  0  0  0  0  0  0  0  0  0  0  0
   -1.5010   -3.8910    0.1320 H   0  0  0  0  0  0  0  0  0  0  0  0
   -1.7780   -2.1060    0.5450 H   0  0  0  0  0  0  0  0  0  0  0  0
   -2.5100   -3.3730    1.5170 H   0  0  0  0  0  0  0  0  0  0  0  0
    0.8450   -4.1550    0.5460 H   0  0  0  0  0  0  0  0  0  0  0  0
    2.8080   -3.8940    1.6000 H   0  0  0  0  0  0  0  0  0  0  0  0
    2.3010   -2.6180    2.5700 H   0  0  0  0  0  0  0  0  0  0  0  0
    0.6370   -1.8420   -0.9450 N   0  0  0  0  0  0  0  0  0  0  0  0
    0.9710   -0.8410   -1.8910 C   0  0  0  0  0  0  0  0  0  0  0  0
    0.9680    0.5590   -1.6080 C   0  0  0  0  0  0  0  0  0  0  0  0
    1.3780    1.2760   -2.6440 O   0  0  0  0  0  0  0  0  0  0  0  0
   -0.2120   -2.4310   -1.1620 H   0  0  0  0  0  0  0  0  0  0  0  0
    2.0540   -1.0820   -2.2400 H   0  0  0  0  0  0  0  0  0  0  0  0
    0.4350   -1.0680   -2.8980 H   0  0  0  0  0  0  0  0  0  0  0  0
    0.6390    1.3700   -0.5130 N   0  0  0  0  0  0  0  0  0  0  0  0
    0.7860    2.8620   -0.5190 C   0  0  0  0  0  0  0  0  0  0  0  0
    1.4180    3.1640    0.8060 C   0  0  0  0  0  0  0  0  0  0  0  0
    0.8320    2.1290    1.7090 C   0  0  0  0  0  0  0  0  0  0  0  0
    0.0900    1.1390    0.7980 C   0  0  1  0  0  0  0  0  0  0  0  0
   -1.3470    1.5400    0.7770 C   0  0  0  0  0  0  0  0  0  0  0  0
   -1.9300    1.9210   -0.2550 O   0  0  0  0  0  0  0  0  0  0  0  0
   -2.0550    1.4830    1.9620 O   0  0  0  0  0  0  0  0  0  0  0  0
    1.4790    3.1530   -1.3340 H   0  0  0  0  0  0  0  0  0  0  0  0
   -0.1770    3.3450   -0.6140 H   0  0  0  0  0  0  0  0  0  0  0  0
    2.5220    3.0960    0.7330 H   0  0  0  0  0  0  0  0  0  0  0  0
    1.1160    4.1680    1.1670 H   0  0  0  0  0  0  0  0  0  0  0  0
    1.6150    1.6210    2.2890 H   0  0  0  0  0  0  0  0  0  0  0  0
    0.1040    2.5610    2.4190 H   0  0  0  0  0  0  0  0  0  0  0  0
    0.2190    0.1290    1.1940 H   0  0  0  0  0  0  0  0  0  0  0  0
  1  8  1  0  0  0  0
  1 10  1  0  0  0  0
  2 11  1  0  0  0  0
  2  1  1  0  0  0  0
  3 14  1  0  0  0  0
  3  2  1  0  0  0  0
  4 15  1  6  0  0  0
  4  2  1  0  0  0  0
  4  5  1  0  0  0  0
  5 17  1  0  0  0  0
  6  7  2  0  0  0  0
  6  4  1  0  0  0  0
  9  1  1  0  0  0  0
 12  3  1  0  0  0  0
 13  3  1  0  0  0  0
 16  5  1  0  0  0  0
 18  6  1  0  0  0  0
 19 20  1  0  0  0  0
 19 18  1  0  0  0  0
 20 25  1  0  0  0  0
 21 20  2  0  0  0  0
 22 18  1  0  0  0  0
 23 19  1  0  0  0  0
 24 19  1  0  0  0  0
 25 29  1  0  0  0  0
 26 25  1  0  0  0  0
 26 27  1  0  0  0  0
 27 36  1  0  0  0  0
 27 28  1  0  0  0  0
 28 37  1  0  0  0  0
 28 38  1  0  0  0  0
 29 39  1  1  0  0  0
 29 28  1  0  0  0  0
 30 29  1  0  0  0  0
 30 32  1  0  0  0  0
 31 30  2  0  0  0  0
 33 26  1  0  0  0  0
 34 26  1  0  0  0  0
 35 27  1  0  0  0  0
M  END
$$$$
