VGQ.pdb
 OpenBabel07022419253D

 42 41  0  0  1  0  0  0  0  0999 V2000
   -3.5510   -4.0440    1.0640 C   0  0  0  0  0  0  0  0  0  0  0  0
   -2.1480   -4.0110    0.5000 C   0  0  0  0  0  0  0  0  0  0  0  0
   -1.1930   -4.6140    1.4950 C   0  0  0  0  0  0  0  0  0  0  0  0
   -1.8210   -2.5740    0.1680 C   0  0  2  0  0  0  0  0  0  0  0  0
   -2.7520   -2.0880   -0.7900 N   0  0  0  0  0  0  0  0  0  0  0  0
   -0.4110   -2.3800   -0.1940 C   0  0  0  0  0  0  0  0  0  0  0  0
    0.4650   -2.7880    0.6100 O   0  0  0  0  0  0  0  0  0  0  0  0
   -3.4380   -4.0320    2.1850 H   0  0  0  0  0  0  0  0  0  0  0  0
   -4.0870   -4.9790    0.8030 H   0  0  0  0  0  0  0  0  0  0  0  0
   -4.1400   -3.1490    0.7720 H   0  0  0  0  0  0  0  0  0  0  0  0
   -2.1590   -4.5710   -0.4570 H   0  0  0  0  0  0  0  0  0  0  0  0
   -1.7070   -5.5130    1.9330 H   0  0  0  0  0  0  0  0  0  0  0  0
   -0.2760   -5.0010    0.9990 H   0  0  0  0  0  0  0  0  0  0  0  0
   -0.9870   -3.8930    2.2950 H   0  0  0  0  0  0  0  0  0  0  0  0
   -1.9880   -1.9950    1.1240 H   0  0  0  0  0  0  0  0  0  0  0  0
   -3.4600   -2.7540   -1.1130 H   0  0  0  0  0  0  0  0  0  0  0  0
   -3.0520   -1.1140   -0.6810 H   0  0  0  0  0  0  0  0  0  0  0  0
    0.0340   -1.7630   -1.3920 N   0  0  0  0  0  0  0  0  0  0  0  0
    1.4140   -1.5590   -1.7490 C   0  0  0  0  0  0  0  0  0  0  0  0
    2.1550   -0.6670   -0.8270 C   0  0  0  0  0  0  0  0  0  0  0  0
    3.4050   -0.4400   -1.0110 O   0  0  0  0  0  0  0  0  0  0  0  0
   -0.7160   -1.4410   -2.0450 H   0  0  0  0  0  0  0  0  0  0  0  0
    1.4800   -1.0970   -2.7600 H   0  0  0  0  0  0  0  0  0  0  0  0
    1.9490   -2.5380   -1.8580 H   0  0  0  0  0  0  0  0  0  0  0  0
    2.6290    5.6520    2.4850 N   0  0  0  0  0  0  0  0  0  0  0  0
    2.0500    4.5950    1.7330 C   0  0  0  0  0  0  0  0  0  0  0  0
    1.1170    4.7620    0.9250 O   0  0  0  0  0  0  0  0  0  0  0  0
    2.6130    3.2100    1.9440 C   0  0  0  0  0  0  0  0  0  0  0  0
    1.8660    2.2780    1.0660 C   0  0  0  0  0  0  0  0  0  0  0  0
    2.3610    0.8600    1.1760 C   0  0  2  0  0  0  0  0  0  0  0  0
    1.5890   -0.0130    0.2820 N   0  0  0  0  0  0  0  0  0  0  0  0
    2.3940    0.3130    2.5400 C   0  0  0  0  0  0  0  0  0  0  0  0
    1.7520   -0.7570    2.8350 O   0  0  0  0  0  0  0  0  0  0  0  0
    3.0880    0.8670    3.5950 O   0  0  0  0  0  0  0  0  0  0  0  0
    2.8710    5.5090    3.4930 H   0  0  0  0  0  0  0  0  0  0  0  0
    2.8220    6.5810    2.0510 H   0  0  0  0  0  0  0  0  0  0  0  0
    3.6920    3.2550    1.6910 H   0  0  0  0  0  0  0  0  0  0  0  0
    2.5500    2.9820    3.0330 H   0  0  0  0  0  0  0  0  0  0  0  0
    2.0780    2.6040    0.0030 H   0  0  0  0  0  0  0  0  0  0  0  0
    0.7640    2.3510    1.1660 H   0  0  0  0  0  0  0  0  0  0  0  0
    3.3950    0.8550    0.7720 H   0  0  0  0  0  0  0  0  0  0  0  0
    0.5750   -0.1350    0.4810 H   0  0  0  0  0  0  0  0  0  0  0  0
  1  8  1  0  0  0  0
  2  1  1  0  0  0  0
  2  3  1  0  0  0  0
  3 12  1  0  0  0  0
  3 14  1  0  0  0  0
  4  2  1  0  0  0  0
  4 15  1  1  0  0  0
  5 17  1  0  0  0  0
  5  4  1  0  0  0  0
  6  4  1  0  0  0  0
  6  7  2  0  0  0  0
  9  1  1  0  0  0  0
 10  1  1  0  0  0  0
 11  2  1  0  0  0  0
 13  3  1  0  0  0  0
 16  5  1  0  0  0  0
 18  6  1  0  0  0  0
 19 18  1  0  0  0  0
 19 20  1  0  0  0  0
 20 31  1  0  0  0  0
 21 20  2  0  0  0  0
 22 18  1  0  0  0  0
 23 19  1  0  0  0  0
 24 19  1  0  0  0  0
 25 35  1  0  0  0  0
 26 28  1  0  0  0  0
 26 25  1  0  0  0  0
 27 26  2  0  0  0  0
 28 38  1  0  0  0  0
 29 40  1  0  0  0  0
 29 30  1  0  0  0  0
 29 28  1  0  0  0  0
 30 41  1  6  0  0  0
 30 32  1  0  0  0  0
 31 42  1  0  0  0  0
 31 30  1  0  0  0  0
 32 33  2  0  0  0  0
 32 34  1  0  0  0  0
 36 25  1  0  0  0  0
 37 28  1  0  0  0  0
 39 29  1  0  0  0  0
M  END
$$$$
