VGR.pdb
 OpenBabel07022419253D

 48 47  0  0  1  0  0  0  0  0999 V2000
    4.2370   -1.8540    2.9570 C   0  0  0  0  0  0  0  0  0  0  0  0
    3.9840   -1.4610    1.4940 C   0  0  0  0  0  0  0  0  0  0  0  0
    4.8330   -0.2480    1.2440 C   0  0  0  0  0  0  0  0  0  0  0  0
    2.5120   -1.2150    1.3790 C   0  0  2  0  0  0  0  0  0  0  0  0
    1.8560   -2.4730    1.7480 N   0  0  0  0  0  0  0  0  0  0  0  0
    2.0720   -0.8900   -0.0010 C   0  0  0  0  0  0  0  0  0  0  0  0
    2.4650    0.1700   -0.5910 O   0  0  0  0  0  0  0  0  0  0  0  0
    5.2800   -1.5870    3.2620 H   0  0  0  0  0  0  0  0  0  0  0  0
    3.5710   -1.2010    3.5610 H   0  0  0  0  0  0  0  0  0  0  0  0
    4.0140   -2.9210    3.1230 H   0  0  0  0  0  0  0  0  0  0  0  0
    4.3090   -2.3200    0.8890 H   0  0  0  0  0  0  0  0  0  0  0  0
    5.9040   -0.5990    1.2240 H   0  0  0  0  0  0  0  0  0  0  0  0
    4.5920    0.3230    0.3500 H   0  0  0  0  0  0  0  0  0  0  0  0
    4.8010    0.4550    2.1210 H   0  0  0  0  0  0  0  0  0  0  0  0
    2.2000   -0.4660    2.1270 H   0  0  0  0  0  0  0  0  0  0  0  0
    0.8260   -2.3660    1.7810 H   0  0  0  0  0  0  0  0  0  0  0  0
    2.1640   -3.2710    1.1790 H   0  0  0  0  0  0  0  0  0  0  0  0
    1.1980   -1.7320   -0.7370 N   0  0  0  0  0  0  0  0  0  0  0  0
    0.7270   -1.4650   -2.0710 C   0  0  0  0  0  0  0  0  0  0  0  0
   -0.1070   -0.2710   -2.1170 C   0  0  0  0  0  0  0  0  0  0  0  0
   -0.5820    0.2020   -3.2030 O   0  0  0  0  0  0  0  0  0  0  0  0
    0.8610   -2.6280   -0.2750 H   0  0  0  0  0  0  0  0  0  0  0  0
    1.6060   -1.3260   -2.7610 H   0  0  0  0  0  0  0  0  0  0  0  0
    0.2120   -2.3700   -2.5070 H   0  0  0  0  0  0  0  0  0  0  0  0
   -3.7390   -2.7200    3.7580 N   0  0  0  0  0  0  0  0  0  0  0  0
   -3.4740   -2.4660    2.3930 C   0  0  0  0  0  0  0  0  0  0  0  0
   -3.0820   -3.4000    1.5650 N   0  0  0  0  0  0  0  0  0  0  0  0
   -3.6170   -1.1700    1.8330 N   0  0  0  0  0  0  0  0  0  0  0  0
   -2.8650   -0.7720    0.6230 C   0  0  0  0  0  0  0  0  0  0  0  0
   -3.2530    0.6210    0.3260 C   0  0  0  0  0  0  0  0  0  0  0  0
   -2.7020    1.3270   -0.8260 C   0  0  0  0  0  0  0  0  0  0  0  0
   -1.2630    1.6260   -0.9510 C   0  0  2  0  0  0  0  0  0  0  0  0
   -0.4550    0.4490   -0.9550 N   0  0  0  0  0  0  0  0  0  0  0  0
   -0.7690    2.7020   -0.0980 C   0  0  0  0  0  0  0  0  0  0  0  0
    0.2850    2.6520    0.6030 O   0  0  0  0  0  0  0  0  0  0  0  0
   -1.4900    3.8870   -0.0290 O   0  0  0  0  0  0  0  0  0  0  0  0
   -3.2480   -3.4930    4.2440 H   0  0  0  0  0  0  0  0  0  0  0  0
   -4.4190   -2.1510    4.2950 H   0  0  0  0  0  0  0  0  0  0  0  0
   -2.9770   -4.3530    1.9740 H   0  0  0  0  0  0  0  0  0  0  0  0
   -4.2630   -0.5050    2.2940 H   0  0  0  0  0  0  0  0  0  0  0  0
   -3.2630   -1.4490   -0.1960 H   0  0  0  0  0  0  0  0  0  0  0  0
   -1.8220   -1.0270    0.7190 H   0  0  0  0  0  0  0  0  0  0  0  0
   -4.3790    0.6400    0.2360 H   0  0  0  0  0  0  0  0  0  0  0  0
   -3.0870    1.2870    1.2440 H   0  0  0  0  0  0  0  0  0  0  0  0
   -3.3010    2.2930   -0.9450 H   0  0  0  0  0  0  0  0  0  0  0  0
   -3.0370    0.7630   -1.7720 H   0  0  0  0  0  0  0  0  0  0  0  0
   -1.1630    2.0240   -2.0340 H   0  0  0  0  0  0  0  0  0  0  0  0
   -0.1100    0.1420   -0.0220 H   0  0  0  0  0  0  0  0  0  0  0  0
  1 10  1  0  0  0  0
  1  8  1  0  0  0  0
  1  9  1  0  0  0  0
  2  1  1  0  0  0  0
  3  2  1  0  0  0  0
  3 14  1  0  0  0  0
  4  2  1  0  0  0  0
  4  5  1  0  0  0  0
  4 15  1  1  0  0  0
  5 16  1  0  0  0  0
  6  4  1  0  0  0  0
  7  6  2  0  0  0  0
 11  2  1  0  0  0  0
 12  3  1  0  0  0  0
 13  3  1  0  0  0  0
 17  5  1  0  0  0  0
 18 22  1  0  0  0  0
 18  6  1  0  0  0  0
 19 18  1  0  0  0  0
 20 19  1  0  0  0  0
 20 33  1  0  0  0  0
 21 20  2  0  0  0  0
 23 19  1  0  0  0  0
 24 19  1  0  0  0  0
 25 37  1  0  0  0  0
 25 38  1  0  0  0  0
 26 25  1  0  0  0  0
 27 39  1  0  0  0  0
 27 26  2  0  0  0  0
 28 40  1  0  0  0  0
 28 26  1  0  0  0  0
 29 42  1  0  0  0  0
 29 28  1  0  0  0  0
 30 29  1  0  0  0  0
 30 44  1  0  0  0  0
 31 30  1  0  0  0  0
 32 47  1  6  0  0  0
 32 31  1  0  0  0  0
 32 34  1  0  0  0  0
 33 32  1  0  0  0  0
 33 48  1  0  0  0  0
 34 36  2  0  0  0  0
 34 35  1  0  0  0  0
 41 29  1  0  0  0  0
 43 30  1  0  0  0  0
 45 31  1  0  0  0  0
 46 31  1  0  0  0  0
M  END
$$$$
