VGS.pdb
 OpenBabel07022419253D

 36 35  0  0  1  0  0  0  0  0999 V2000
   -0.1870   -3.9670    1.2780 C   0  0  0  0  0  0  0  0  0  0  0  0
   -0.4340   -3.1420    2.5080 C   0  0  0  0  0  0  0  0  0  0  0  0
    0.2960   -3.7560    3.6710 C   0  0  0  0  0  0  0  0  0  0  0  0
    0.0180   -1.7030    2.2900 C   0  0  2  0  0  0  0  0  0  0  0  0
   -0.2200   -0.9060    3.4770 N   0  0  0  0  0  0  0  0  0  0  0  0
   -0.6570   -1.1270    1.0990 C   0  0  0  0  0  0  0  0  0  0  0  0
   -0.5330   -1.7200   -0.0000 O   0  0  0  0  0  0  0  0  0  0  0  0
    0.7570   -3.7140    0.7690 H   0  0  0  0  0  0  0  0  0  0  0  0
   -0.0960   -5.0380    1.6140 H   0  0  0  0  0  0  0  0  0  0  0  0
   -1.0570   -3.9230    0.5890 H   0  0  0  0  0  0  0  0  0  0  0  0
   -1.5310   -3.1050    2.6900 H   0  0  0  0  0  0  0  0  0  0  0  0
    1.0490   -4.4590    3.3120 H   0  0  0  0  0  0  0  0  0  0  0  0
    0.8170   -2.9680    4.2780 H   0  0  0  0  0  0  0  0  0  0  0  0
   -0.4600   -4.2530    4.3090 H   0  0  0  0  0  0  0  0  0  0  0  0
    1.1170   -1.7460    2.1370 H   0  0  0  0  0  0  0  0  0  0  0  0
   -1.0350   -1.2820    4.0330 H   0  0  0  0  0  0  0  0  0  0  0  0
    0.5980   -0.9350    4.1380 H   0  0  0  0  0  0  0  0  0  0  0  0
   -1.4220    0.0630    1.2020 N   0  0  0  0  0  0  0  0  0  0  0  0
   -2.0890    0.6750    0.0850 C   0  0  0  0  0  0  0  0  0  0  0  0
   -1.1900    1.1490   -0.9820 C   0  0  0  0  0  0  0  0  0  0  0  0
   -1.6410    1.6670   -2.0560 O   0  0  0  0  0  0  0  0  0  0  0  0
   -1.5000    0.5170    2.1500 H   0  0  0  0  0  0  0  0  0  0  0  0
   -2.8920   -0.0040   -0.3300 H   0  0  0  0  0  0  0  0  0  0  0  0
   -2.6390    1.5960    0.4440 H   0  0  0  0  0  0  0  0  0  0  0  0
    2.6870    2.2800   -0.2530 O   0  0  0  0  0  0  0  0  0  0  0  0
    1.9320    2.6650   -1.3590 C   0  0  0  0  0  0  0  0  0  0  0  0
    1.1120    1.4990   -1.8820 C   0  0  2  0  0  0  0  0  0  0  0  0
    0.2150    1.0390   -0.8300 N   0  0  0  0  0  0  0  0  0  0  0  0
    1.9620    0.4100   -2.3940 C   0  0  0  0  0  0  0  0  0  0  0  0
    1.8940   -0.7790   -1.9480 O   0  0  0  0  0  0  0  0  0  0  0  0
    2.8920    0.6220   -3.4010 O   0  0  0  0  0  0  0  0  0  0  0  0
    3.1250    3.1070    0.0810 H   0  0  0  0  0  0  0  0  0  0  0  0
    2.5480    3.1160   -2.1510 H   0  0  0  0  0  0  0  0  0  0  0  0
    1.2420    3.4580   -1.0050 H   0  0  0  0  0  0  0  0  0  0  0  0
    0.4830    1.8940   -2.7020 H   0  0  0  0  0  0  0  0  0  0  0  0
    0.6580    0.6480    0.0280 H   0  0  0  0  0  0  0  0  0  0  0  0
  1  9  1  0  0  0  0
  1  2  1  0  0  0  0
  2 11  1  0  0  0  0
  2  3  1  0  0  0  0
  3 13  1  0  0  0  0
  3 14  1  0  0  0  0
  4 15  1  6  0  0  0
  4  2  1  0  0  0  0
  4  5  1  0  0  0  0
  5 16  1  0  0  0  0
  5 17  1  0  0  0  0
  6 18  1  0  0  0  0
  6  4  1  0  0  0  0
  7  6  2  0  0  0  0
  8  1  1  0  0  0  0
 10  1  1  0  0  0  0
 12  3  1  0  0  0  0
 18 22  1  0  0  0  0
 19 24  1  0  0  0  0
 19 18  1  0  0  0  0
 20 28  1  0  0  0  0
 20 19  1  0  0  0  0
 21 20  2  0  0  0  0
 23 19  1  0  0  0  0
 25 32  1  0  0  0  0
 26 34  1  0  0  0  0
 26 25  1  0  0  0  0
 27 35  1  6  0  0  0
 27 26  1  0  0  0  0
 27 28  1  0  0  0  0
 28 36  1  0  0  0  0
 29 30  1  0  0  0  0
 29 27  1  0  0  0  0
 31 29  2  0  0  0  0
 33 26  1  0  0  0  0
M  END
$$$$
