VGV.pdb
 OpenBabel07022419253D

 41 40  0  0  1  0  0  0  0  0999 V2000
   -1.6120   -1.5850    1.0540 C   0  0  0  0  0  0  0  0  0  0  0  0
   -1.4000   -2.8670    0.2780 C   0  0  0  0  0  0  0  0  0  0  0  0
   -2.5530   -3.7960    0.6400 C   0  0  0  0  0  0  0  0  0  0  0  0
   -0.0980   -3.4800    0.7010 C   0  0  2  0  0  0  0  0  0  0  0  0
   -0.0640   -3.7900    2.1140 N   0  0  0  0  0  0  0  0  0  0  0  0
    1.1100   -2.7830    0.2790 C   0  0  0  0  0  0  0  0  0  0  0  0
    1.9980   -2.5550    1.1720 O   0  0  0  0  0  0  0  0  0  0  0  0
   -1.7450   -0.7250    0.3540 H   0  0  0  0  0  0  0  0  0  0  0  0
   -2.5330   -1.6090    1.6730 H   0  0  0  0  0  0  0  0  0  0  0  0
   -0.7720   -1.3710    1.7460 H   0  0  0  0  0  0  0  0  0  0  0  0
   -1.4790   -2.6810   -0.7910 H   0  0  0  0  0  0  0  0  0  0  0  0
   -2.1350   -4.8240    0.7410 H   0  0  0  0  0  0  0  0  0  0  0  0
   -3.0010   -3.5490    1.6150 H   0  0  0  0  0  0  0  0  0  0  0  0
   -3.3510   -3.7870   -0.1240 H   0  0  0  0  0  0  0  0  0  0  0  0
   -0.0600   -4.4950    0.1940 H   0  0  0  0  0  0  0  0  0  0  0  0
    0.5290   -3.1030    2.6150 H   0  0  0  0  0  0  0  0  0  0  0  0
   -1.0240   -3.7370    2.5370 H   0  0  0  0  0  0  0  0  0  0  0  0
    1.3940   -2.3370   -1.0230 N   0  0  0  0  0  0  0  0  0  0  0  0
    2.6120   -1.6510   -1.3450 C   0  0  0  0  0  0  0  0  0  0  0  0
    2.7390   -0.3590   -0.6400 C   0  0  0  0  0  0  0  0  0  0  0  0
    3.8000    0.3570   -0.7820 O   0  0  0  0  0  0  0  0  0  0  0  0
    0.6960   -2.5120   -1.7700 H   0  0  0  0  0  0  0  0  0  0  0  0
    3.4590   -2.3480   -1.0740 H   0  0  0  0  0  0  0  0  0  0  0  0
    2.7240   -1.4630   -2.4360 H   0  0  0  0  0  0  0  0  0  0  0  0
   -0.4610    2.1010    0.7170 C   0  0  0  0  0  0  0  0  0  0  0  0
    0.9620    2.5260    0.4270 C   0  0  0  0  0  0  0  0  0  0  0  0
    1.1830    3.8480    1.1280 C   0  0  0  0  0  0  0  0  0  0  0  0
    1.9720    1.4950    0.8820 C   0  0  2  0  0  0  0  0  0  0  0  0
    1.7690    0.2190    0.2200 N   0  0  0  0  0  0  0  0  0  0  0  0
    1.9580    1.3810    2.3480 C   0  0  0  0  0  0  0  0  0  0  0  0
    2.1220    2.3960    3.0720 O   0  0  0  0  0  0  0  0  0  0  0  0
    1.7670    0.1770    3.0320 O   0  0  0  0  0  0  0  0  0  0  0  0
   -0.8850    1.4730   -0.0940 H   0  0  0  0  0  0  0  0  0  0  0  0
   -0.5290    1.6370    1.7120 H   0  0  0  0  0  0  0  0  0  0  0  0
   -1.0850    3.0270    0.7390 H   0  0  0  0  0  0  0  0  0  0  0  0
    1.0730    2.7360   -0.6660 H   0  0  0  0  0  0  0  0  0  0  0  0
    0.8060    4.6880    0.5100 H   0  0  0  0  0  0  0  0  0  0  0  0
    0.6330    3.9010    2.0900 H   0  0  0  0  0  0  0  0  0  0  0  0
    2.2710    3.9870    1.3710 H   0  0  0  0  0  0  0  0  0  0  0  0
    2.9710    1.8600    0.5760 H   0  0  0  0  0  0  0  0  0  0  0  0
    0.8720   -0.3090    0.3530 H   0  0  0  0  0  0  0  0  0  0  0  0
  1  9  1  0  0  0  0
  1 10  1  0  0  0  0
  2  3  1  0  0  0  0
  2  4  1  0  0  0  0
  2  1  1  0  0  0  0
  3 12  1  0  0  0  0
  3 13  1  0  0  0  0
  4 15  1  6  0  0  0
  4  5  1  0  0  0  0
  5 17  1  0  0  0  0
  5 16  1  0  0  0  0
  6  4  1  0  0  0  0
  6  7  2  0  0  0  0
  8  1  1  0  0  0  0
 11  2  1  0  0  0  0
 14  3  1  0  0  0  0
 18  6  1  0  0  0  0
 19 23  1  0  0  0  0
 19 18  1  0  0  0  0
 19 20  1  0  0  0  0
 20 29  1  0  0  0  0
 21 20  2  0  0  0  0
 22 18  1  0  0  0  0
 24 19  1  0  0  0  0
 25 35  1  0  0  0  0
 25 34  1  0  0  0  0
 26 25  1  0  0  0  0
 26 28  1  0  0  0  0
 26 27  1  0  0  0  0
 27 39  1  0  0  0  0
 27 38  1  0  0  0  0
 28 40  1  6  0  0  0
 28 30  1  0  0  0  0
 29 41  1  0  0  0  0
 29 28  1  0  0  0  0
 30 32  2  0  0  0  0
 30 31  1  0  0  0  0
 33 25  1  0  0  0  0
 36 26  1  0  0  0  0
 37 27  1  0  0  0  0
M  END
$$$$
