VHA.pdb
 OpenBabel07022419253D

 45 45  0  0  1  0  0  0  0  0999 V2000
    0.1100   -5.0640   -1.1740 C   0  0  0  0  0  0  0  0  0  0  0  0
    0.0920   -3.7780   -0.3340 C   0  0  0  0  0  0  0  0  0  0  0  0
   -1.2450   -3.1610   -0.5560 C   0  0  0  0  0  0  0  0  0  0  0  0
    1.2620   -2.9630   -0.8420 C   0  0  2  0  0  0  0  0  0  0  0  0
    2.4340   -3.8620   -0.6160 N   0  0  0  0  0  0  0  0  0  0  0  0
    1.5720   -1.7490   -0.0990 C   0  0  0  0  0  0  0  0  0  0  0  0
    2.6020   -1.7100    0.6830 O   0  0  0  0  0  0  0  0  0  0  0  0
    1.0110   -5.6600   -0.9620 H   0  0  0  0  0  0  0  0  0  0  0  0
   -0.7780   -5.6990   -0.9450 H   0  0  0  0  0  0  0  0  0  0  0  0
    0.0770   -4.8360   -2.2430 H   0  0  0  0  0  0  0  0  0  0  0  0
    0.2100   -4.0740    0.7040 H   0  0  0  0  0  0  0  0  0  0  0  0
   -1.7200   -2.9670    0.4370 H   0  0  0  0  0  0  0  0  0  0  0  0
   -1.2790   -2.3120   -1.2480 H   0  0  0  0  0  0  0  0  0  0  0  0
   -1.9190   -3.9410   -1.0270 H   0  0  0  0  0  0  0  0  0  0  0  0
    1.1710   -2.8730   -1.9220 H   0  0  0  0  0  0  0  0  0  0  0  0
    3.2340   -3.5140   -1.2200 H   0  0  0  0  0  0  0  0  0  0  0  0
    2.7480   -3.7770    0.3650 H   0  0  0  0  0  0  0  0  0  0  0  0
    0.8680   -0.5170   -0.1110 N   0  0  0  0  0  0  0  0  0  0  0  0
    1.2930    0.6440    0.6680 C   0  0  1  0  0  0  0  0  0  0  0  0
    1.5390    1.8240   -0.2110 C   0  0  0  0  0  0  0  0  0  0  0  0
    2.0710    2.9620    0.5620 C   0  0  0  0  0  0  0  0  0  0  0  0
    2.5160    3.0940    1.8510 C   0  0  0  0  0  0  0  0  0  0  0  0
    2.9850    4.3420    2.0760 N   0  0  0  0  0  0  0  0  0  0  0  0
    2.8440    5.0140    0.9320 C   0  0  0  0  0  0  0  0  0  0  0  0
    2.3020    4.2040    0.0240 N   0  0  0  0  0  0  0  0  0  0  0  0
    0.1110    0.9260    1.5670 C   0  0  0  0  0  0  0  0  0  0  0  0
    0.0440    1.9280    2.3210 O   0  0  0  0  0  0  0  0  0  0  0  0
    0.0280   -0.4160   -0.6890 H   0  0  0  0  0  0  0  0  0  0  0  0
    2.1510    0.4200    1.2680 H   0  0  0  0  0  0  0  0  0  0  0  0
    0.5840    2.2060   -0.6800 H   0  0  0  0  0  0  0  0  0  0  0  0
    2.2620    1.5150   -0.9950 H   0  0  0  0  0  0  0  0  0  0  0  0
    2.5350    2.3060    2.6160 H   0  0  0  0  0  0  0  0  0  0  0  0
    3.3870    4.7050    2.9960 H   0  0  0  0  0  0  0  0  0  0  0  0
    3.1140    6.0460    0.7330 H   0  0  0  0  0  0  0  0  0  0  0  0
   -3.4080    0.4460    1.6270 C   0  0  0  0  0  0  0  0  0  0  0  0
   -2.1590    0.2730    2.4380 C   0  0  2  0  0  0  0  0  0  0  0  0
   -0.9930    0.0480    1.5930 N   0  0  0  0  0  0  0  0  0  0  0  0
   -2.2800   -0.7900    3.4470 C   0  0  0  0  0  0  0  0  0  0  0  0
   -1.4350   -1.7070    3.4920 O   0  0  0  0  0  0  0  0  0  0  0  0
   -3.3210   -0.7880    4.3510 O   0  0  0  0  0  0  0  0  0  0  0  0
   -3.9370    1.3410    1.9530 H   0  0  0  0  0  0  0  0  0  0  0  0
   -4.0450   -0.4630    1.7570 H   0  0  0  0  0  0  0  0  0  0  0  0
   -3.0930    0.5580    0.5530 H   0  0  0  0  0  0  0  0  0  0  0  0
   -1.9640    1.2210    2.9850 H   0  0  0  0  0  0  0  0  0  0  0  0
   -0.9990   -0.7960    1.0000 H   0  0  0  0  0  0  0  0  0  0  0  0
  1  8  1  0  0  0  0
  1  9  1  0  0  0  0
  1  2  1  0  0  0  0
  2 11  1  0  0  0  0
  3  2  1  0  0  0  0
  3 12  1  0  0  0  0
  4 15  1  6  0  0  0
  4  5  1  0  0  0  0
  4  2  1  0  0  0  0
  4  6  1  0  0  0  0
  5 17  1  0  0  0  0
  6  7  2  0  0  0  0
 10  1  1  0  0  0  0
 13  3  1  0  0  0  0
 14  3  1  0  0  0  0
 16  5  1  0  0  0  0
 18  6  1  0  0  0  0
 18 19  1  0  0  0  0
 19 29  1  1  0  0  0
 19 26  1  0  0  0  0
 20 21  1  0  0  0  0
 20 19  1  0  0  0  0
 21 22  2  0  0  0  0
 22 23  1  0  0  0  0
 22 32  1  0  0  0  0
 23 33  1  0  0  0  0
 24 23  1  0  0  0  0
 25 21  1  0  0  0  0
 25 24  2  0  0  0  0
 26 37  1  0  0  0  0
 26 27  2  0  0  0  0
 28 18  1  0  0  0  0
 30 20  1  0  0  0  0
 31 20  1  0  0  0  0
 34 24  1  0  0  0  0
 35 42  1  0  0  0  0
 35 41  1  0  0  0  0
 35 36  1  0  0  0  0
 36 44  1  1  0  0  0
 36 38  1  0  0  0  0
 37 36  1  0  0  0  0
 38 39  2  0  0  0  0
 38 40  1  0  0  0  0
 43 35  1  0  0  0  0
 45 37  1  0  0  0  0
M  END
$$$$
