VHD.pdb
 OpenBabel07022419253D

 48 48  0  0  1  0  0  0  0  0999 V2000
    2.3850   -3.7770    0.1000 C   0  0  0  0  0  0  0  0  0  0  0  0
    2.6900   -2.7510   -0.9650 C   0  0  0  0  0  0  0  0  0  0  0  0
    1.5320   -2.4710   -1.8570 C   0  0  0  0  0  0  0  0  0  0  0  0
    3.3920   -1.5340   -0.4140 C   0  0  2  0  0  0  0  0  0  0  0  0
    4.6680   -2.0230    0.1630 N   0  0  0  0  0  0  0  0  0  0  0  0
    2.6800   -0.8720    0.6970 C   0  0  0  0  0  0  0  0  0  0  0  0
    3.1110   -0.9230    1.8980 O   0  0  0  0  0  0  0  0  0  0  0  0
    1.5250   -3.4740    0.7350 H   0  0  0  0  0  0  0  0  0  0  0  0
    3.3200   -3.8630    0.7200 H   0  0  0  0  0  0  0  0  0  0  0  0
    2.1430   -4.7380   -0.3960 H   0  0  0  0  0  0  0  0  0  0  0  0
    3.4830   -3.2650   -1.6150 H   0  0  0  0  0  0  0  0  0  0  0  0
    1.5370   -3.1880   -2.7440 H   0  0  0  0  0  0  0  0  0  0  0  0
    0.5570   -2.7070   -1.3660 H   0  0  0  0  0  0  0  0  0  0  0  0
    1.5090   -1.4720   -2.3100 H   0  0  0  0  0  0  0  0  0  0  0  0
    3.5680   -0.8010   -1.2180 H   0  0  0  0  0  0  0  0  0  0  0  0
    4.9710   -2.8910   -0.3380 H   0  0  0  0  0  0  0  0  0  0  0  0
    5.3620   -1.2450    0.0960 H   0  0  0  0  0  0  0  0  0  0  0  0
    1.5020   -0.1560    0.4890 N   0  0  0  0  0  0  0  0  0  0  0  0
    0.7780    0.5180    1.5720 C   0  0  1  0  0  0  0  0  0  0  0  0
    0.8490    1.9970    1.2170 C   0  0  0  0  0  0  0  0  0  0  0  0
    0.1630    2.8490    2.2100 C   0  0  0  0  0  0  0  0  0  0  0  0
    0.7020    3.4150    3.3260 C   0  0  0  0  0  0  0  0  0  0  0  0
   -0.2610    4.1130    3.9550 N   0  0  0  0  0  0  0  0  0  0  0  0
   -1.3920    3.9850    3.2420 C   0  0  0  0  0  0  0  0  0  0  0  0
   -1.1270    3.2080    2.1710 N   0  0  0  0  0  0  0  0  0  0  0  0
   -0.6410    0.1030    1.6540 C   0  0  0  0  0  0  0  0  0  0  0  0
   -1.4110    0.5780    2.5590 O   0  0  0  0  0  0  0  0  0  0  0  0
    1.0910   -0.0730   -0.4590 H   0  0  0  0  0  0  0  0  0  0  0  0
    1.2590    0.3130    2.5300 H   0  0  0  0  0  0  0  0  0  0  0  0
    0.4340    2.1410    0.1990 H   0  0  0  0  0  0  0  0  0  0  0  0
    1.9040    2.3280    1.1750 H   0  0  0  0  0  0  0  0  0  0  0  0
    1.7220    3.3610    3.7100 H   0  0  0  0  0  0  0  0  0  0  0  0
   -0.1580    4.6620    4.8450 H   0  0  0  0  0  0  0  0  0  0  0  0
   -2.3330    4.4460    3.5170 H   0  0  0  0  0  0  0  0  0  0  0  0
   -1.2450   -0.8220    0.7660 N   0  0  0  0  0  0  0  0  0  0  0  0
   -2.6760   -1.2040    0.8920 C   0  0  1  0  0  0  0  0  0  0  0  0
   -3.3650   -1.0280   -0.4210 C   0  0  0  0  0  0  0  0  0  0  0  0
   -4.7890   -1.3580   -0.3300 C   0  0  0  0  0  0  0  0  0  0  0  0
   -5.3070   -1.6420    0.7630 O   0  0  0  0  0  0  0  0  0  0  0  0
   -2.6040   -2.6520    1.2970 C   0  0  0  0  0  0  0  0  0  0  0  0
   -1.4730   -3.2370    1.4300 O   0  0  0  0  0  0  0  0  0  0  0  0
   -5.5590   -1.3520   -1.4790 O   0  0  0  0  0  0  0  0  0  0  0  0
   -3.6990   -3.4330    1.5480 O   0  0  0  0  0  0  0  0  0  0  0  0
   -0.6590   -1.2310    0.0140 H   0  0  0  0  0  0  0  0  0  0  0  0
   -3.1530   -0.6730    1.7300 H   0  0  0  0  0  0  0  0  0  0  0  0
   -3.2140    0.0430   -0.7160 H   0  0  0  0  0  0  0  0  0  0  0  0
   -2.8510   -1.7070   -1.1430 H   0  0  0  0  0  0  0  0  0  0  0  0
   -6.5580   -1.2110   -1.4210 H   0  0  0  0  0  0  0  0  0  0  0  0
  1  9  1  0  0  0  0
  1  8  1  0  0  0  0
  2  4  1  0  0  0  0
  2  1  1  0  0  0  0
  3 13  1  0  0  0  0
  3  2  1  0  0  0  0
  4 15  1  6  0  0  0
  4  5  1  0  0  0  0
  4  6  1  0  0  0  0
  6  7  2  0  0  0  0
 10  1  1  0  0  0  0
 11  2  1  0  0  0  0
 12  3  1  0  0  0  0
 14  3  1  0  0  0  0
 16  5  1  0  0  0  0
 17  5  1  0  0  0  0
 18  6  1  0  0  0  0
 18 19  1  0  0  0  0
 19 26  1  0  0  0  0
 19 29  1  1  0  0  0
 20 19  1  0  0  0  0
 20 21  1  0  0  0  0
 21 22  2  0  0  0  0
 22 32  1  0  0  0  0
 22 23  1  0  0  0  0
 23 33  1  0  0  0  0
 24 34  1  0  0  0  0
 24 23  1  0  0  0  0
 25 21  1  0  0  0  0
 25 24  2  0  0  0  0
 26 27  2  0  0  0  0
 28 18  1  0  0  0  0
 30 20  1  0  0  0  0
 31 20  1  0  0  0  0
 35 36  1  0  0  0  0
 35 26  1  0  0  0  0
 36 40  1  0  0  0  0
 36 45  1  1  0  0  0
 37 38  1  0  0  0  0
 37 36  1  0  0  0  0
 38 39  2  0  0  0  0
 40 41  2  0  0  0  0
 40 43  1  0  0  0  0
 42 48  1  0  0  0  0
 42 38  1  0  0  0  0
 44 35  1  0  0  0  0
 46 37  1  0  0  0  0
 47 37  1  0  0  0  0
M  END
$$$$
