VHH.pdb
 OpenBabel07022419253D

 52 53  0  0  1  0  0  0  0  0999 V2000
    2.3660   -3.3470    1.4850 C   0  0  0  0  0  0  0  0  0  0  0  0
    2.2500   -2.4920    2.7050 C   0  0  0  0  0  0  0  0  0  0  0  0
    0.8430   -2.5400    3.2780 C   0  0  0  0  0  0  0  0  0  0  0  0
    2.6830   -1.0670    2.4530 C   0  0  2  0  0  0  0  0  0  0  0  0
    2.5190   -0.3640    3.7360 N   0  0  0  0  0  0  0  0  0  0  0  0
    1.8560   -0.3760    1.4250 C   0  0  0  0  0  0  0  0  0  0  0  0
    1.7640   -0.7540    0.2420 O   0  0  0  0  0  0  0  0  0  0  0  0
    2.9870   -4.2390    1.7190 H   0  0  0  0  0  0  0  0  0  0  0  0
    2.8480   -2.7750    0.6710 H   0  0  0  0  0  0  0  0  0  0  0  0
    1.3900   -3.6900    1.1350 H   0  0  0  0  0  0  0  0  0  0  0  0
    2.9120   -2.8860    3.5160 H   0  0  0  0  0  0  0  0  0  0  0  0
    0.3080   -3.4500    2.9470 H   0  0  0  0  0  0  0  0  0  0  0  0
    0.8590   -2.5950    4.3990 H   0  0  0  0  0  0  0  0  0  0  0  0
    0.2750   -1.6450    3.0230 H   0  0  0  0  0  0  0  0  0  0  0  0
    3.7520   -1.0660    2.2070 H   0  0  0  0  0  0  0  0  0  0  0  0
    1.5680   -0.5210    4.1290 H   0  0  0  0  0  0  0  0  0  0  0  0
    3.1840   -0.8130    4.4120 H   0  0  0  0  0  0  0  0  0  0  0  0
    1.1180    0.7800    1.7690 N   0  0  0  0  0  0  0  0  0  0  0  0
    0.3150    1.5360    0.9120 C   0  0  1  0  0  0  0  0  0  0  0  0
    1.2550    2.1170   -0.1660 C   0  0  0  0  0  0  0  0  0  0  0  0
    0.5350    2.9500   -1.1510 C   0  0  0  0  0  0  0  0  0  0  0  0
    0.3160    4.3210   -1.0130 C   0  0  0  0  0  0  0  0  0  0  0  0
   -0.3670    4.7630   -2.0820 N   0  0  0  0  0  0  0  0  0  0  0  0
   -0.5750    3.7050   -2.8740 C   0  0  0  0  0  0  0  0  0  0  0  0
   -0.0270    2.6120   -2.3050 N   0  0  0  0  0  0  0  0  0  0  0  0
   -0.8810    1.0300    0.3260 C   0  0  0  0  0  0  0  0  0  0  0  0
   -1.5850    1.8100   -0.3680 O   0  0  0  0  0  0  0  0  0  0  0  0
    1.1750    1.1160    2.7960 H   0  0  0  0  0  0  0  0  0  0  0  0
    0.0190    2.4990    1.4730 H   0  0  0  0  0  0  0  0  0  0  0  0
    1.7480    1.2830   -0.6910 H   0  0  0  0  0  0  0  0  0  0  0  0
    2.0780    2.6870    0.3240 H   0  0  0  0  0  0  0  0  0  0  0  0
    0.6640    4.8960   -0.1540 H   0  0  0  0  0  0  0  0  0  0  0  0
   -0.6760    5.7370   -2.2640 H   0  0  0  0  0  0  0  0  0  0  0  0
   -1.1010    3.7470   -3.8140 H   0  0  0  0  0  0  0  0  0  0  0  0
   -1.3870   -0.2980    0.4400 N   0  0  0  0  0  0  0  0  0  0  0  0
   -2.6040   -0.7190   -0.1750 C   0  0  1  0  0  0  0  0  0  0  0  0
   -2.5260   -1.7520   -1.2290 C   0  0  0  0  0  0  0  0  0  0  0  0
   -1.9670   -3.0550   -0.8430 C   0  0  0  0  0  0  0  0  0  0  0  0
   -0.6730   -3.4950   -0.8890 C   0  0  0  0  0  0  0  0  0  0  0  0
   -0.6180   -4.7510   -0.4540 N   0  0  0  0  0  0  0  0  0  0  0  0
   -1.8580   -5.1330   -0.1260 C   0  0  0  0  0  0  0  0  0  0  0  0
   -2.6750   -4.0980   -0.3650 N   0  0  0  0  0  0  0  0  0  0  0  0
   -3.6310   -1.1410    0.8150 C   0  0  0  0  0  0  0  0  0  0  0  0
   -3.3660   -1.0980    2.0350 O   0  0  0  0  0  0  0  0  0  0  0  0
   -4.8850   -1.5860    0.4290 O   0  0  0  0  0  0  0  0  0  0  0  0
   -0.8610   -1.0320    1.0000 H   0  0  0  0  0  0  0  0  0  0  0  0
   -3.0480    0.1970   -0.6730 H   0  0  0  0  0  0  0  0  0  0  0  0
   -2.0590   -1.3680   -2.1880 H   0  0  0  0  0  0  0  0  0  0  0  0
   -3.5950   -1.9360   -1.5560 H   0  0  0  0  0  0  0  0  0  0  0  0
    0.1950   -2.9220   -1.2270 H   0  0  0  0  0  0  0  0  0  0  0  0
    0.2610   -5.3680   -0.3730 H   0  0  0  0  0  0  0  0  0  0  0  0
   -2.1330   -6.1260    0.2680 H   0  0  0  0  0  0  0  0  0  0  0  0
  1  8  1  0  0  0  0
  1  2  1  0  0  0  0
  2  3  1  0  0  0  0
  2 11  1  0  0  0  0
  3 13  1  0  0  0  0
  4 15  1  6  0  0  0
  4  2  1  0  0  0  0
  4  5  1  0  0  0  0
  5 16  1  0  0  0  0
  5 17  1  0  0  0  0
  6 18  1  0  0  0  0
  6  4  1  0  0  0  0
  7  6  2  0  0  0  0
  9  1  1  0  0  0  0
 10  1  1  0  0  0  0
 12  3  1  0  0  0  0
 14  3  1  0  0  0  0
 18 28  1  0  0  0  0
 19 29  1  1  0  0  0
 19 18  1  0  0  0  0
 20 31  1  0  0  0  0
 20 19  1  0  0  0  0
 21 22  2  0  0  0  0
 21 20  1  0  0  0  0
 22 32  1  0  0  0  0
 23 22  1  0  0  0  0
 24 25  2  0  0  0  0
 24 23  1  0  0  0  0
 25 21  1  0  0  0  0
 26 35  1  0  0  0  0
 26 19  1  0  0  0  0
 27 26  2  0  0  0  0
 30 20  1  0  0  0  0
 33 23  1  0  0  0  0
 34 24  1  0  0  0  0
 35 46  1  0  0  0  0
 36 47  1  6  0  0  0
 36 35  1  0  0  0  0
 36 43  1  0  0  0  0
 37 38  1  0  0  0  0
 37 36  1  0  0  0  0
 38 42  1  0  0  0  0
 39 38  2  0  0  0  0
 39 40  1  0  0  0  0
 40 51  1  0  0  0  0
 40 41  1  0  0  0  0
 41 52  1  0  0  0  0
 42 41  2  0  0  0  0
 43 44  1  0  0  0  0
 45 43  2  0  0  0  0
 48 37  1  0  0  0  0
 49 37  1  0  0  0  0
 50 39  1  0  0  0  0
M  END
$$$$
