VHI.pdb
 OpenBabel07022419253D

 54 54  0  0  1  0  0  0  0  0999 V2000
    1.7970   -3.9360    1.0120 C   0  0  0  0  0  0  0  0  0  0  0  0
    2.5350   -3.3700   -0.1760 C   0  0  0  0  0  0  0  0  0  0  0  0
    1.6980   -3.1080   -1.3730 C   0  0  0  0  0  0  0  0  0  0  0  0
    3.4280   -2.2430    0.2650 C   0  0  2  0  0  0  0  0  0  0  0  0
    4.3850   -2.8160    1.2300 N   0  0  0  0  0  0  0  0  0  0  0  0
    2.7480   -1.1550    0.9840 C   0  0  0  0  0  0  0  0  0  0  0  0
    2.9540   -0.9380    2.2340 O   0  0  0  0  0  0  0  0  0  0  0  0
    2.5590   -4.4960    1.6250 H   0  0  0  0  0  0  0  0  0  0  0  0
    1.4410   -3.1200    1.6950 H   0  0  0  0  0  0  0  0  0  0  0  0
    1.0180   -4.6420    0.7200 H   0  0  0  0  0  0  0  0  0  0  0  0
    3.2640   -4.1950   -0.4890 H   0  0  0  0  0  0  0  0  0  0  0  0
    1.7780   -3.9470   -2.1370 H   0  0  0  0  0  0  0  0  0  0  0  0
    1.9620   -2.2030   -1.9570 H   0  0  0  0  0  0  0  0  0  0  0  0
    0.6020   -3.1400   -1.1070 H   0  0  0  0  0  0  0  0  0  0  0  0
    4.0310   -1.9220   -0.6050 H   0  0  0  0  0  0  0  0  0  0  0  0
    5.3460   -2.8180    0.8720 H   0  0  0  0  0  0  0  0  0  0  0  0
    4.2600   -2.4580    2.1830 H   0  0  0  0  0  0  0  0  0  0  0  0
    1.8200   -0.2360    0.4330 N   0  0  0  0  0  0  0  0  0  0  0  0
    1.1810    0.8220    1.1780 C   0  0  1  0  0  0  0  0  0  0  0  0
    1.4510    2.1870    0.6690 C   0  0  0  0  0  0  0  0  0  0  0  0
    0.7690    3.2050    1.4930 C   0  0  0  0  0  0  0  0  0  0  0  0
    1.2230    3.8580    2.6230 C   0  0  0  0  0  0  0  0  0  0  0  0
    0.3080    4.7100    3.0790 N   0  0  0  0  0  0  0  0  0  0  0  0
   -0.7420    4.6200    2.2570 C   0  0  0  0  0  0  0  0  0  0  0  0
   -0.4790    3.7300    1.3120 N   0  0  0  0  0  0  0  0  0  0  0  0
   -0.2700    0.5500    1.1810 C   0  0  0  0  0  0  0  0  0  0  0  0
   -1.1270    1.2620    1.7960 O   0  0  0  0  0  0  0  0  0  0  0  0
    1.5800   -0.3190   -0.5770 H   0  0  0  0  0  0  0  0  0  0  0  0
    1.5340    0.7290    2.2390 H   0  0  0  0  0  0  0  0  0  0  0  0
    2.5210    2.4180    0.4990 H   0  0  0  0  0  0  0  0  0  0  0  0
    0.9890    2.2930   -0.3610 H   0  0  0  0  0  0  0  0  0  0  0  0
    2.1890    3.6860    3.0580 H   0  0  0  0  0  0  0  0  0  0  0  0
    0.3960    5.3230    3.9110 H   0  0  0  0  0  0  0  0  0  0  0  0
   -1.6760    5.1720    2.3220 H   0  0  0  0  0  0  0  0  0  0  0  0
   -5.0490   -0.1740   -0.2150 C   0  0  0  0  0  0  0  0  0  0  0  0
   -4.2240   -1.1970   -0.9700 C   0  0  0  0  0  0  0  0  0  0  0  0
   -2.7680   -0.8890   -0.9440 C   0  0  2  0  0  0  0  0  0  0  0  0
   -2.0210   -1.9730   -1.7170 C   0  0  0  0  0  0  0  0  0  0  0  0
   -2.2350   -0.8670    0.4460 C   0  0  2  0  0  0  0  0  0  0  0  0
   -0.8070   -0.5590    0.4730 N   0  0  0  0  0  0  0  0  0  0  0  0
   -2.4040   -2.1520    1.1610 C   0  0  0  0  0  0  0  0  0  0  0  0
   -3.5060   -2.7240    1.3680 O   0  0  0  0  0  0  0  0  0  0  0  0
   -1.2920   -2.8480    1.6780 O   0  0  0  0  0  0  0  0  0  0  0  0
   -4.7790    0.8450   -0.4930 H   0  0  0  0  0  0  0  0  0  0  0  0
   -6.1140   -0.3400   -0.5130 H   0  0  0  0  0  0  0  0  0  0  0  0
   -4.9430   -0.3990    0.8560 H   0  0  0  0  0  0  0  0  0  0  0  0
   -4.5250   -1.1370   -2.0660 H   0  0  0  0  0  0  0  0  0  0  0  0
   -4.4110   -2.2270   -0.6640 H   0  0  0  0  0  0  0  0  0  0  0  0
   -2.5250    0.0590   -1.5050 H   0  0  0  0  0  0  0  0  0  0  0  0
   -2.6290   -2.2180   -2.6240 H   0  0  0  0  0  0  0  0  0  0  0  0
   -1.9280   -2.8810   -1.0850 H   0  0  0  0  0  0  0  0  0  0  0  0
   -1.0210   -1.6110   -1.9900 H   0  0  0  0  0  0  0  0  0  0  0  0
   -2.8160   -0.1090    1.0460 H   0  0  0  0  0  0  0  0  0  0  0  0
   -0.1780   -1.1770   -0.0430 H   0  0  0  0  0  0  0  0  0  0  0  0
  1  8  1  0  0  0  0
  1  9  1  0  0  0  0
  2  4  1  0  0  0  0
  2  1  1  0  0  0  0
  3 14  1  0  0  0  0
  3  2  1  0  0  0  0
  4 15  1  6  0  0  0
  4  6  1  0  0  0  0
  4  5  1  0  0  0  0
  5 17  1  0  0  0  0
  6  7  2  0  0  0  0
 10  1  1  0  0  0  0
 11  2  1  0  0  0  0
 12  3  1  0  0  0  0
 13  3  1  0  0  0  0
 16  5  1  0  0  0  0
 18  6  1  0  0  0  0
 18 19  1  0  0  0  0
 19 26  1  0  0  0  0
 19 29  1  1  0  0  0
 20 19  1  0  0  0  0
 20 21  1  0  0  0  0
 21 22  2  0  0  0  0
 22 32  1  0  0  0  0
 22 23  1  0  0  0  0
 23 33  1  0  0  0  0
 24 34  1  0  0  0  0
 24 23  1  0  0  0  0
 25 21  1  0  0  0  0
 25 24  2  0  0  0  0
 26 27  2  0  0  0  0
 28 18  1  0  0  0  0
 30 20  1  0  0  0  0
 31 20  1  0  0  0  0
 35 46  1  0  0  0  0
 36 37  1  0  0  0  0
 36 48  1  0  0  0  0
 36 35  1  0  0  0  0
 37 49  1  6  0  0  0
 37 39  1  0  0  0  0
 38 51  1  0  0  0  0
 38 37  1  0  0  0  0
 39 40  1  0  0  0  0
 39 53  1  1  0  0  0
 39 41  1  0  0  0  0
 40 26  1  0  0  0  0
 41 42  2  0  0  0  0
 41 43  1  0  0  0  0
 44 35  1  0  0  0  0
 45 35  1  0  0  0  0
 47 36  1  0  0  0  0
 50 38  1  0  0  0  0
 52 38  1  0  0  0  0
 54 40  1  0  0  0  0
M  END
$$$$
