VHN.pdb
 OpenBabel07022419253D

 49 49  0  0  1  0  0  0  0  0999 V2000
    2.3850   -0.0230    4.0590 C   0  0  0  0  0  0  0  0  0  0  0  0
    1.1500   -0.8630    3.9120 C   0  0  0  0  0  0  0  0  0  0  0  0
   -0.1350   -0.1160    4.1740 C   0  0  0  0  0  0  0  0  0  0  0  0
    1.0840   -1.6870    2.6710 C   0  0  2  0  0  0  0  0  0  0  0  0
    2.2340   -2.6270    2.6510 N   0  0  0  0  0  0  0  0  0  0  0  0
    1.1370   -0.9650    1.3970 C   0  0  0  0  0  0  0  0  0  0  0  0
    2.1160   -1.1480    0.5850 O   0  0  0  0  0  0  0  0  0  0  0  0
    2.8610    0.2100    3.0900 H   0  0  0  0  0  0  0  0  0  0  0  0
    3.1310   -0.4810    4.7430 H   0  0  0  0  0  0  0  0  0  0  0  0
    2.0750    0.9320    4.5780 H   0  0  0  0  0  0  0  0  0  0  0  0
    1.1980   -1.6150    4.7790 H   0  0  0  0  0  0  0  0  0  0  0  0
   -0.9600   -0.7330    3.7470 H   0  0  0  0  0  0  0  0  0  0  0  0
   -0.2920    0.0330    5.2740 H   0  0  0  0  0  0  0  0  0  0  0  0
   -0.1560    0.8820    3.7310 H   0  0  0  0  0  0  0  0  0  0  0  0
    0.1980   -2.3550    2.7640 H   0  0  0  0  0  0  0  0  0  0  0  0
    2.1730   -3.0680    1.6950 H   0  0  0  0  0  0  0  0  0  0  0  0
    2.0460   -3.4150    3.3240 H   0  0  0  0  0  0  0  0  0  0  0  0
    0.1880   -0.0340    0.9080 N   0  0  0  0  0  0  0  0  0  0  0  0
    0.1780    0.6990   -0.2860 C   0  0  1  0  0  0  0  0  0  0  0  0
    1.4630    1.0940   -0.9440 C   0  0  0  0  0  0  0  0  0  0  0  0
    2.3150    1.9990   -0.1490 C   0  0  0  0  0  0  0  0  0  0  0  0
    3.3490    1.7950    0.7120 C   0  0  0  0  0  0  0  0  0  0  0  0
    3.8310    2.9780    1.1690 N   0  0  0  0  0  0  0  0  0  0  0  0
    3.1080    3.9450    0.6030 C   0  0  0  0  0  0  0  0  0  0  0  0
    2.1980    3.3720   -0.1880 N   0  0  0  0  0  0  0  0  0  0  0  0
   -0.7580    0.1930   -1.3080 C   0  0  0  0  0  0  0  0  0  0  0  0
   -0.8130    0.8200   -2.4090 O   0  0  0  0  0  0  0  0  0  0  0  0
   -0.6450    0.1030    1.5670 H   0  0  0  0  0  0  0  0  0  0  0  0
   -0.2400    1.7450    0.0130 H   0  0  0  0  0  0  0  0  0  0  0  0
    2.0310    0.2210   -1.3410 H   0  0  0  0  0  0  0  0  0  0  0  0
    1.1680    1.6530   -1.8710 H   0  0  0  0  0  0  0  0  0  0  0  0
    3.7620    0.8590    1.0040 H   0  0  0  0  0  0  0  0  0  0  0  0
    4.6340    3.1100    1.8520 H   0  0  0  0  0  0  0  0  0  0  0  0
    3.2120    5.0130    0.7360 H   0  0  0  0  0  0  0  0  0  0  0  0
   -3.1880   -4.6280   -1.2400 N   0  0  0  0  0  0  0  0  0  0  0  0
   -2.0990   -3.7290   -1.3930 C   0  0  0  0  0  0  0  0  0  0  0  0
   -1.1920   -3.7480   -0.5260 O   0  0  0  0  0  0  0  0  0  0  0  0
   -2.0660   -2.8180   -2.5430 C   0  0  0  0  0  0  0  0  0  0  0  0
   -2.5070   -1.4100   -2.1770 C   0  0  2  0  0  0  0  0  0  0  0  0
   -1.5940   -0.9300   -1.1590 N   0  0  0  0  0  0  0  0  0  0  0  0
   -3.9130   -1.4040   -1.6890 C   0  0  0  0  0  0  0  0  0  0  0  0
   -4.1690   -1.0150   -0.5310 O   0  0  0  0  0  0  0  0  0  0  0  0
   -4.9450   -1.8270   -2.5100 O   0  0  0  0  0  0  0  0  0  0  0  0
   -4.1600   -4.2920   -1.1740 H   0  0  0  0  0  0  0  0  0  0  0  0
   -2.9820   -5.6410   -1.1960 H   0  0  0  0  0  0  0  0  0  0  0  0
   -0.9820   -2.7160   -2.8360 H   0  0  0  0  0  0  0  0  0  0  0  0
   -2.5730   -3.1980   -3.4440 H   0  0  0  0  0  0  0  0  0  0  0  0
   -2.4840   -0.7990   -3.0880 H   0  0  0  0  0  0  0  0  0  0  0  0
   -1.5570   -1.4540   -0.2580 H   0  0  0  0  0  0  0  0  0  0  0  0
  1 10  1  0  0  0  0
  1  9  1  0  0  0  0
  2  1  1  0  0  0  0
  2  3  1  0  0  0  0
  2 11  1  0  0  0  0
  3 13  1  0  0  0  0
  4 15  1  1  0  0  0
  4  2  1  0  0  0  0
  5  4  1  0  0  0  0
  5 17  1  0  0  0  0
  6  4  1  0  0  0  0
  7  6  2  0  0  0  0
  8  1  1  0  0  0  0
 12  3  1  0  0  0  0
 14  3  1  0  0  0  0
 16  5  1  0  0  0  0
 18  6  1  0  0  0  0
 18 28  1  0  0  0  0
 19 29  1  1  0  0  0
 19 18  1  0  0  0  0
 20 19  1  0  0  0  0
 20 21  1  0  0  0  0
 21 22  2  0  0  0  0
 22 32  1  0  0  0  0
 22 23  1  0  0  0  0
 23 33  1  0  0  0  0
 24 34  1  0  0  0  0
 24 23  1  0  0  0  0
 25 21  1  0  0  0  0
 25 24  2  0  0  0  0
 26 40  1  0  0  0  0
 26 19  1  0  0  0  0
 27 26  2  0  0  0  0
 30 20  1  0  0  0  0
 31 20  1  0  0  0  0
 35 45  1  0  0  0  0
 35 44  1  0  0  0  0
 36 35  1  0  0  0  0
 36 37  2  0  0  0  0
 38 39  1  0  0  0  0
 38 36  1  0  0  0  0
 39 48  1  6  0  0  0
 39 41  1  0  0  0  0
 39 40  1  0  0  0  0
 40 49  1  0  0  0  0
 41 42  1  0  0  0  0
 43 41  2  0  0  0  0
 46 38  1  0  0  0  0
 47 38  1  0  0  0  0
M  END
$$$$
