VHS.pdb
 OpenBabel07022419263D

 46 46  0  0  1  0  0  0  0  0999 V2000
    0.6480   -5.6430    0.9090 C   0  0  0  0  0  0  0  0  0  0  0  0
    0.6060   -4.3080    1.6000 C   0  0  0  0  0  0  0  0  0  0  0  0
   -0.1650   -4.4490    2.8940 C   0  0  0  0  0  0  0  0  0  0  0  0
   -0.0850   -3.2650    0.7340 C   0  0  2  0  0  0  0  0  0  0  0  0
    0.5990   -3.0920   -0.5070 N   0  0  0  0  0  0  0  0  0  0  0  0
   -0.1070   -2.0040    1.5220 C   0  0  0  0  0  0  0  0  0  0  0  0
   -0.6610   -1.9360    2.6500 O   0  0  0  0  0  0  0  0  0  0  0  0
    1.6630   -5.8440    0.5430 H   0  0  0  0  0  0  0  0  0  0  0  0
   -0.0890   -5.6710    0.0760 H   0  0  0  0  0  0  0  0  0  0  0  0
    0.4050   -6.4390    1.6400 H   0  0  0  0  0  0  0  0  0  0  0  0
    1.6240   -4.0050    1.8470 H   0  0  0  0  0  0  0  0  0  0  0  0
   -0.0970   -5.5040    3.2320 H   0  0  0  0  0  0  0  0  0  0  0  0
    0.2800   -3.8150    3.6820 H   0  0  0  0  0  0  0  0  0  0  0  0
   -1.2310   -4.2010    2.7540 H   0  0  0  0  0  0  0  0  0  0  0  0
   -1.1080   -3.6530    0.5470 H   0  0  0  0  0  0  0  0  0  0  0  0
   -0.0330   -2.7000   -1.2470 H   0  0  0  0  0  0  0  0  0  0  0  0
    0.9840   -3.9870   -0.8650 H   0  0  0  0  0  0  0  0  0  0  0  0
    0.5130   -0.8650    0.9770 N   0  0  0  0  0  0  0  0  0  0  0  0
    0.5470    0.4470    1.6850 C   0  0  1  0  0  0  0  0  0  0  0  0
    1.9490    0.8660    1.8280 C   0  0  0  0  0  0  0  0  0  0  0  0
    2.2580    2.0860    2.5500 C   0  0  0  0  0  0  0  0  0  0  0  0
    1.4950    2.9670    3.2720 C   0  0  0  0  0  0  0  0  0  0  0  0
    2.3490    3.8960    3.7620 N   0  0  0  0  0  0  0  0  0  0  0  0
    3.6010    3.6220    3.3730 C   0  0  0  0  0  0  0  0  0  0  0  0
    3.5550    2.5250    2.6370 N   0  0  0  0  0  0  0  0  0  0  0  0
   -0.2710    1.3120    0.8020 C   0  0  0  0  0  0  0  0  0  0  0  0
   -0.4330    2.5120    1.0670 O   0  0  0  0  0  0  0  0  0  0  0  0
    0.9820   -0.8720    0.0540 H   0  0  0  0  0  0  0  0  0  0  0  0
    0.0280    0.2980    2.6370 H   0  0  0  0  0  0  0  0  0  0  0  0
    2.3660    1.0060    0.7790 H   0  0  0  0  0  0  0  0  0  0  0  0
    2.5610   -0.0150    2.1980 H   0  0  0  0  0  0  0  0  0  0  0  0
    0.4290    2.9500    3.4580 H   0  0  0  0  0  0  0  0  0  0  0  0
    2.0500    4.7040    4.3580 H   0  0  0  0  0  0  0  0  0  0  0  0
    4.5120    4.1980    3.6150 H   0  0  0  0  0  0  0  0  0  0  0  0
   -1.8770    2.5220   -3.4860 O   0  0  0  0  0  0  0  0  0  0  0  0
   -1.1670    1.7010   -2.6440 C   0  0  0  0  0  0  0  0  0  0  0  0
   -1.7060    1.7290   -1.2220 C   0  0  2  0  0  0  0  0  0  0  0  0
   -0.9050    0.8340   -0.3770 N   0  0  0  0  0  0  0  0  0  0  0  0
   -3.0910    1.2010   -1.2650 C   0  0  0  0  0  0  0  0  0  0  0  0
   -3.9370    1.8340   -1.9440 O   0  0  0  0  0  0  0  0  0  0  0  0
   -3.4990    0.0670   -0.6090 O   0  0  0  0  0  0  0  0  0  0  0  0
   -2.6040    2.0110   -3.9350 H   0  0  0  0  0  0  0  0  0  0  0  0
   -1.2980    0.6550   -3.0020 H   0  0  0  0  0  0  0  0  0  0  0  0
   -0.0800    1.9430   -2.6670 H   0  0  0  0  0  0  0  0  0  0  0  0
   -1.7090    2.7480   -0.7900 H   0  0  0  0  0  0  0  0  0  0  0  0
   -0.7970   -0.1640   -0.6370 H   0  0  0  0  0  0  0  0  0  0  0  0
  1  2  1  0  0  0  0
  1 10  1  0  0  0  0
  2 11  1  0  0  0  0
  2  3  1  0  0  0  0
  3 12  1  0  0  0  0
  3 13  1  0  0  0  0
  4 15  1  6  0  0  0
  4  6  1  0  0  0  0
  4  2  1  0  0  0  0
  5  4  1  0  0  0  0
  6  7  2  0  0  0  0
  8  1  1  0  0  0  0
  9  1  1  0  0  0  0
 14  3  1  0  0  0  0
 16  5  1  0  0  0  0
 17  5  1  0  0  0  0
 18  6  1  0  0  0  0
 18 19  1  0  0  0  0
 19 20  1  0  0  0  0
 19 29  1  1  0  0  0
 20 31  1  0  0  0  0
 20 21  1  0  0  0  0
 21 25  1  0  0  0  0
 21 22  2  0  0  0  0
 22 32  1  0  0  0  0
 22 23  1  0  0  0  0
 23 33  1  0  0  0  0
 24 34  1  0  0  0  0
 24 23  1  0  0  0  0
 25 24  2  0  0  0  0
 26 27  2  0  0  0  0
 26 19  1  0  0  0  0
 28 18  1  0  0  0  0
 30 20  1  0  0  0  0
 35 36  1  0  0  0  0
 36 37  1  0  0  0  0
 37 45  1  1  0  0  0
 37 38  1  0  0  0  0
 38 26  1  0  0  0  0
 39 37  1  0  0  0  0
 39 41  1  0  0  0  0
 40 39  2  0  0  0  0
 42 35  1  0  0  0  0
 43 36  1  0  0  0  0
 44 36  1  0  0  0  0
 46 38  1  0  0  0  0
M  END
$$$$
