VHV.pdb
 OpenBabel07022419263D

 51 51  0  0  1  0  0  0  0  0999 V2000
    0.4280   -3.2150    4.3420 C   0  0  0  0  0  0  0  0  0  0  0  0
    0.2850   -2.0490    3.3600 C   0  0  0  0  0  0  0  0  0  0  0  0
   -1.2070   -1.8030    3.2520 C   0  0  0  0  0  0  0  0  0  0  0  0
    1.0640   -0.8560    3.8190 C   0  0  2  0  0  0  0  0  0  0  0  0
    0.6480   -0.3330    5.1010 N   0  0  0  0  0  0  0  0  0  0  0  0
    1.2460    0.1950    2.8120 C   0  0  0  0  0  0  0  0  0  0  0  0
    1.1750    1.4260    3.1550 O   0  0  0  0  0  0  0  0  0  0  0  0
   -0.1950   -4.0480    3.9120 H   0  0  0  0  0  0  0  0  0  0  0  0
    1.4880   -3.5210    4.3780 H   0  0  0  0  0  0  0  0  0  0  0  0
   -0.0120   -2.9850    5.3150 H   0  0  0  0  0  0  0  0  0  0  0  0
    0.6310   -2.4230    2.3780 H   0  0  0  0  0  0  0  0  0  0  0  0
   -1.6090   -2.5880    2.5740 H   0  0  0  0  0  0  0  0  0  0  0  0
   -1.4550   -0.8270    2.8110 H   0  0  0  0  0  0  0  0  0  0  0  0
   -1.7360   -1.9860    4.2280 H   0  0  0  0  0  0  0  0  0  0  0  0
    2.1100   -1.2750    4.0430 H   0  0  0  0  0  0  0  0  0  0  0  0
    1.3490    0.3150    5.4760 H   0  0  0  0  0  0  0  0  0  0  0  0
    0.2150   -0.9990    5.7380 H   0  0  0  0  0  0  0  0  0  0  0  0
    1.5050   -0.0180    1.4300 N   0  0  0  0  0  0  0  0  0  0  0  0
    1.6810    1.0750    0.4980 C   0  0  1  0  0  0  0  0  0  0  0  0
    2.9390    1.0400   -0.2920 C   0  0  0  0  0  0  0  0  0  0  0  0
    3.1270   -0.1290   -1.1620 C   0  0  0  0  0  0  0  0  0  0  0  0
    2.7420   -0.2680   -2.5050 C   0  0  0  0  0  0  0  0  0  0  0  0
    3.1060   -1.4790   -2.9370 N   0  0  0  0  0  0  0  0  0  0  0  0
    3.7070   -2.1280   -1.9290 C   0  0  0  0  0  0  0  0  0  0  0  0
    3.7150   -1.2890   -0.8440 N   0  0  0  0  0  0  0  0  0  0  0  0
    0.4680    1.1390   -0.3710 C   0  0  0  0  0  0  0  0  0  0  0  0
    0.4760    1.9800   -1.3000 O   0  0  0  0  0  0  0  0  0  0  0  0
    1.5650   -1.0080    1.1010 H   0  0  0  0  0  0  0  0  0  0  0  0
    1.6650    2.0450    1.0650 H   0  0  0  0  0  0  0  0  0  0  0  0
    2.9420    1.9560   -0.9490 H   0  0  0  0  0  0  0  0  0  0  0  0
    3.7840    1.1880    0.4210 H   0  0  0  0  0  0  0  0  0  0  0  0
    2.2370    0.5350   -3.0250 H   0  0  0  0  0  0  0  0  0  0  0  0
    2.9560   -1.8680   -3.8830 H   0  0  0  0  0  0  0  0  0  0  0  0
    4.1210   -3.1430   -1.9660 H   0  0  0  0  0  0  0  0  0  0  0  0
   -2.6180   -1.8870   -0.4940 C   0  0  0  0  0  0  0  0  0  0  0  0
   -2.2380   -0.9340   -1.6060 C   0  0  0  0  0  0  0  0  0  0  0  0
   -3.3090   -0.8570   -2.6520 C   0  0  0  0  0  0  0  0  0  0  0  0
   -1.8280    0.4040   -1.0760 C   0  0  2  0  0  0  0  0  0  0  0  0
   -0.6700    0.3110   -0.1960 N   0  0  0  0  0  0  0  0  0  0  0  0
   -2.9340    1.0980   -0.3450 C   0  0  0  0  0  0  0  0  0  0  0  0
   -2.7920    1.5310    0.8310 O   0  0  0  0  0  0  0  0  0  0  0  0
   -4.1600    1.2770   -0.9730 O   0  0  0  0  0  0  0  0  0  0  0  0
   -1.7180   -2.1800    0.1040 H   0  0  0  0  0  0  0  0  0  0  0  0
   -3.2980   -1.3800    0.2500 H   0  0  0  0  0  0  0  0  0  0  0  0
   -3.1440   -2.7730   -0.8990 H   0  0  0  0  0  0  0  0  0  0  0  0
   -1.3220   -1.3650   -2.1100 H   0  0  0  0  0  0  0  0  0  0  0  0
   -4.3130   -0.6970   -2.2040 H   0  0  0  0  0  0  0  0  0  0  0  0
   -3.1210   -0.0540   -3.3990 H   0  0  0  0  0  0  0  0  0  0  0  0
   -3.3750   -1.8070   -3.2410 H   0  0  0  0  0  0  0  0  0  0  0  0
   -1.5660    1.0680   -1.9110 H   0  0  0  0  0  0  0  0  0  0  0  0
   -0.6180   -0.3650    0.6020 H   0  0  0  0  0  0  0  0  0  0  0  0
  1  9  1  0  0  0  0
  1 10  1  0  0  0  0
  2  4  1  0  0  0  0
  2  1  1  0  0  0  0
  3  2  1  0  0  0  0
  3 14  1  0  0  0  0
  4 15  1  1  0  0  0
  4  5  1  0  0  0  0
  5 16  1  0  0  0  0
  5 17  1  0  0  0  0
  6  7  2  0  0  0  0
  6  4  1  0  0  0  0
  8  1  1  0  0  0  0
 11  2  1  0  0  0  0
 12  3  1  0  0  0  0
 13  3  1  0  0  0  0
 18  6  1  0  0  0  0
 19 29  1  1  0  0  0
 19 18  1  0  0  0  0
 20 31  1  0  0  0  0
 20 19  1  0  0  0  0
 21 25  1  0  0  0  0
 21 20  1  0  0  0  0
 22 21  2  0  0  0  0
 23 22  1  0  0  0  0
 23 24  1  0  0  0  0
 24 25  2  0  0  0  0
 26 39  1  0  0  0  0
 26 19  1  0  0  0  0
 27 26  2  0  0  0  0
 28 18  1  0  0  0  0
 30 20  1  0  0  0  0
 32 22  1  0  0  0  0
 33 23  1  0  0  0  0
 34 24  1  0  0  0  0
 35 43  1  0  0  0  0
 35 44  1  0  0  0  0
 36 38  1  0  0  0  0
 36 35  1  0  0  0  0
 37 47  1  0  0  0  0
 37 36  1  0  0  0  0
 38 50  1  6  0  0  0
 38 40  1  0  0  0  0
 38 39  1  0  0  0  0
 39 51  1  0  0  0  0
 40 41  1  0  0  0  0
 42 40  2  0  0  0  0
 45 35  1  0  0  0  0
 46 36  1  0  0  0  0
 48 37  1  0  0  0  0
 49 37  1  0  0  0  0
M  END
$$$$
