VHW.pdb
 OpenBabel07022419263D

 59 61  0  0  1  0  0  0  0  0999 V2000
    0.9040   -0.7000    5.3710 C   0  0  0  0  0  0  0  0  0  0  0  0
    1.7190   -1.5350    4.4040 C   0  0  0  0  0  0  0  0  0  0  0  0
    0.9110   -2.5270    3.6570 C   0  0  0  0  0  0  0  0  0  0  0  0
    2.4410   -0.5860    3.4770 C   0  0  2  0  0  0  0  0  0  0  0  0
    3.2840    0.2200    4.3820 N   0  0  0  0  0  0  0  0  0  0  0  0
    1.5540    0.2900    2.7060 C   0  0  0  0  0  0  0  0  0  0  0  0
    1.2550    1.4660    3.0890 O   0  0  0  0  0  0  0  0  0  0  0  0
    0.0330   -0.2470    4.8900 H   0  0  0  0  0  0  0  0  0  0  0  0
    0.5720   -1.3900    6.1770 H   0  0  0  0  0  0  0  0  0  0  0  0
    1.5680    0.0270    5.8350 H   0  0  0  0  0  0  0  0  0  0  0  0
    2.4960   -2.0570    5.0170 H   0  0  0  0  0  0  0  0  0  0  0  0
    1.3390   -2.7440    2.6770 H   0  0  0  0  0  0  0  0  0  0  0  0
   -0.1280   -2.1150    3.5370 H   0  0  0  0  0  0  0  0  0  0  0  0
    0.8130   -3.4780    4.2630 H   0  0  0  0  0  0  0  0  0  0  0  0
    3.1220   -1.1540    2.8250 H   0  0  0  0  0  0  0  0  0  0  0  0
    2.8260    1.0930    4.6470 H   0  0  0  0  0  0  0  0  0  0  0  0
    3.5070   -0.3250    5.2370 H   0  0  0  0  0  0  0  0  0  0  0  0
    0.9700   -0.1110    1.4760 N   0  0  0  0  0  0  0  0  0  0  0  0
    0.0890    0.8110    0.7400 C   0  0  1  0  0  0  0  0  0  0  0  0
    0.8410    1.1810   -0.5120 C   0  0  0  0  0  0  0  0  0  0  0  0
    0.0820    2.1520   -1.3170 C   0  0  0  0  0  0  0  0  0  0  0  0
    0.5060    2.6730   -2.5590 C   0  0  0  0  0  0  0  0  0  0  0  0
   -0.4070    3.5290   -3.0350 N   0  0  0  0  0  0  0  0  0  0  0  0
   -1.4100    3.5740   -2.1340 C   0  0  0  0  0  0  0  0  0  0  0  0
   -1.0960    2.7510   -1.1270 N   0  0  0  0  0  0  0  0  0  0  0  0
   -1.1610    0.1220    0.4150 C   0  0  0  0  0  0  0  0  0  0  0  0
   -2.1480    0.6660   -0.1820 O   0  0  0  0  0  0  0  0  0  0  0  0
    1.1800   -1.0440    1.0820 H   0  0  0  0  0  0  0  0  0  0  0  0
   -0.0260    1.7410    1.3230 H   0  0  0  0  0  0  0  0  0  0  0  0
    1.8700    1.5460   -0.2770 H   0  0  0  0  0  0  0  0  0  0  0  0
    1.0060    0.2230   -1.0610 H   0  0  0  0  0  0  0  0  0  0  0  0
    1.4450    2.3870   -3.0140 H   0  0  0  0  0  0  0  0  0  0  0  0
   -0.3420    4.0560   -3.9370 H   0  0  0  0  0  0  0  0  0  0  0  0
   -2.3000    4.1650   -2.2110 H   0  0  0  0  0  0  0  0  0  0  0  0
   -1.3360   -1.2580    0.7720 N   0  0  0  0  0  0  0  0  0  0  0  0
   -2.5630   -1.9500    0.4630 C   0  0  1  0  0  0  0  0  0  0  0  0
   -2.4550   -3.1030   -0.4660 C   0  0  0  0  0  0  0  0  0  0  0  0
   -1.9150   -2.7010   -1.7740 C   0  0  0  0  0  0  0  0  0  0  0  0
   -2.6840   -2.4290   -2.8970 C   0  0  0  0  0  0  0  0  0  0  0  0
   -1.8490   -2.0810   -3.8730 N   0  0  0  0  0  0  0  0  0  0  0  0
   -0.5730   -2.1110   -3.4450 C   0  0  0  0  0  0  0  0  0  0  0  0
    0.6210   -1.8430   -4.0850 C   0  0  0  0  0  0  0  0  0  0  0  0
    1.7910   -1.9650   -3.4060 C   0  0  0  0  0  0  0  0  0  0  0  0
    1.7970   -2.3530   -2.0840 C   0  0  0  0  0  0  0  0  0  0  0  0
    0.6110   -2.6180   -1.4510 C   0  0  0  0  0  0  0  0  0  0  0  0
   -0.6000   -2.4990   -2.1270 C   0  0  0  0  0  0  0  0  0  0  0  0
   -3.3070   -2.3380    1.6800 C   0  0  0  0  0  0  0  0  0  0  0  0
   -4.3950   -2.9310    1.5760 O   0  0  0  0  0  0  0  0  0  0  0  0
   -2.8060   -2.0460    2.9240 O   0  0  0  0  0  0  0  0  0  0  0  0
   -0.5980   -1.7970    1.2640 H   0  0  0  0  0  0  0  0  0  0  0  0
   -3.2370   -1.2060   -0.0620 H   0  0  0  0  0  0  0  0  0  0  0  0
   -1.8210   -3.9330   -0.0890 H   0  0  0  0  0  0  0  0  0  0  0  0
   -3.4800   -3.5200   -0.5980 H   0  0  0  0  0  0  0  0  0  0  0  0
   -3.7790   -2.4890   -2.9710 H   0  0  0  0  0  0  0  0  0  0  0  0
   -2.1360   -1.8120   -4.8610 H   0  0  0  0  0  0  0  0  0  0  0  0
    0.6060   -1.5430   -5.1070 H   0  0  0  0  0  0  0  0  0  0  0  0
    2.7650   -1.7710   -3.8400 H   0  0  0  0  0  0  0  0  0  0  0  0
    2.7010   -2.4670   -1.4930 H   0  0  0  0  0  0  0  0  0  0  0  0
    0.5850   -2.9290   -0.4250 H   0  0  0  0  0  0  0  0  0  0  0  0
  1 10  1  0  0  0  0
  1  9  1  0  0  0  0
  2 11  1  0  0  0  0
  2  1  1  0  0  0  0
  3 14  1  0  0  0  0
  3  2  1  0  0  0  0
  4 15  1  6  0  0  0
  4  5  1  0  0  0  0
  4  2  1  0  0  0  0
  5 16  1  0  0  0  0
  5 17  1  0  0  0  0
  6  7  2  0  0  0  0
  6  4  1  0  0  0  0
  8  1  1  0  0  0  0
 12  3  1  0  0  0  0
 13  3  1  0  0  0  0
 18  6  1  0  0  0  0
 19 29  1  1  0  0  0
 19 18  1  0  0  0  0
 20 30  1  0  0  0  0
 20 19  1  0  0  0  0
 21 25  1  0  0  0  0
 21 20  1  0  0  0  0
 22 21  2  0  0  0  0
 23 22  1  0  0  0  0
 23 24  1  0  0  0  0
 24 25  2  0  0  0  0
 26 19  1  0  0  0  0
 26 35  1  0  0  0  0
 27 26  2  0  0  0  0
 28 18  1  0  0  0  0
 31 20  1  0  0  0  0
 32 22  1  0  0  0  0
 33 23  1  0  0  0  0
 34 24  1  0  0  0  0
 35 50  1  0  0  0  0
 36 51  1  6  0  0  0
 36 35  1  0  0  0  0
 36 47  1  0  0  0  0
 37 52  1  0  0  0  0
 37 36  1  0  0  0  0
 38 37  1  0  0  0  0
 39 38  2  0  0  0  0
 40 41  1  0  0  0  0
 40 39  1  0  0  0  0
 41 46  1  0  0  0  0
 42 41  2  0  0  0  0
 42 43  1  0  0  0  0
 43 44  2  0  0  0  0
 44 58  1  0  0  0  0
 44 45  1  0  0  0  0
 45 59  1  0  0  0  0
 46 38  1  0  0  0  0
 46 45  2  0  0  0  0
 47 49  1  0  0  0  0
 48 47  2  0  0  0  0
 53 37  1  0  0  0  0
 54 39  1  0  0  0  0
 55 40  1  0  0  0  0
 56 42  1  0  0  0  0
 57 43  1  0  0  0  0
M  END
$$$$
