VIK.pdb
 OpenBabel07022419263D

 58 57  0  0  1  0  0  0  0  0999 V2000
    0.5050   -4.5040   -3.1960 C   0  0  0  0  0  0  0  0  0  0  0  0
    0.6630   -4.1150   -1.7330 C   0  0  0  0  0  0  0  0  0  0  0  0
   -0.5990   -4.5280   -1.0460 C   0  0  0  0  0  0  0  0  0  0  0  0
    1.0070   -2.6520   -1.6060 C   0  0  2  0  0  0  0  0  0  0  0  0
    2.2660   -2.3870   -2.3140 N   0  0  0  0  0  0  0  0  0  0  0  0
    1.1350   -2.2040   -0.1830 C   0  0  0  0  0  0  0  0  0  0  0  0
    2.3050   -1.9970    0.2990 O   0  0  0  0  0  0  0  0  0  0  0  0
   -0.5320   -4.2970   -3.5320 H   0  0  0  0  0  0  0  0  0  0  0  0
    1.2130   -3.9710   -3.8420 H   0  0  0  0  0  0  0  0  0  0  0  0
    0.6340   -5.6100   -3.2920 H   0  0  0  0  0  0  0  0  0  0  0  0
    1.5550   -4.6790   -1.3700 H   0  0  0  0  0  0  0  0  0  0  0  0
   -0.8810   -5.5840   -1.2960 H   0  0  0  0  0  0  0  0  0  0  0  0
   -1.4100   -3.8400   -1.3620 H   0  0  0  0  0  0  0  0  0  0  0  0
   -0.5150   -4.4500    0.0570 H   0  0  0  0  0  0  0  0  0  0  0  0
    0.2300   -2.0620   -2.1030 H   0  0  0  0  0  0  0  0  0  0  0  0
    2.2900   -1.4470   -2.7230 H   0  0  0  0  0  0  0  0  0  0  0  0
    3.0900   -2.6670   -1.7740 H   0  0  0  0  0  0  0  0  0  0  0  0
    2.9850   -3.2560    3.6820 C   0  0  0  0  0  0  0  0  0  0  0  0
    1.6890   -3.1410    2.8960 C   0  0  0  0  0  0  0  0  0  0  0  0
    1.2580   -1.7060    2.8020 C   0  0  2  0  0  0  0  0  0  0  0  0
    1.0260   -1.1940    4.2010 C   0  0  0  0  0  0  0  0  0  0  0  0
   -0.0150   -1.6030    2.0170 C   0  0  2  0  0  0  0  0  0  0  0  0
    0.0320   -1.9960    0.6510 N   0  0  0  0  0  0  0  0  0  0  0  0
   -0.8210   -0.4070    2.2710 C   0  0  0  0  0  0  0  0  0  0  0  0
   -0.9780    0.0740    3.4130 O   0  0  0  0  0  0  0  0  0  0  0  0
    2.8120   -3.3920    4.7520 H   0  0  0  0  0  0  0  0  0  0  0  0
    3.6010   -2.3330    3.5710 H   0  0  0  0  0  0  0  0  0  0  0  0
    3.5110   -4.1420    3.2890 H   0  0  0  0  0  0  0  0  0  0  0  0
    0.9190   -3.6450    3.5780 H   0  0  0  0  0  0  0  0  0  0  0  0
    1.6890   -3.7460    2.0140 H   0  0  0  0  0  0  0  0  0  0  0  0
    2.0640   -1.0510    2.3900 H   0  0  0  0  0  0  0  0  0  0  0  0
    0.1080   -1.5520    4.6690 H   0  0  0  0  0  0  0  0  0  0  0  0
    1.1750   -0.0780    4.2760 H   0  0  0  0  0  0  0  0  0  0  0  0
    1.8580   -1.5950    4.8570 H   0  0  0  0  0  0  0  0  0  0  0  0
   -0.6130   -2.4920    2.5040 H   0  0  0  0  0  0  0  0  0  0  0  0
   -0.9260   -2.1410    0.1810 H   0  0  0  0  0  0  0  0  0  0  0  0
   -1.4950    0.3020    1.2080 N   0  0  0  0  0  0  0  0  0  0  0  0
   -2.2830    1.4830    1.5100 C   0  0  1  0  0  0  0  0  0  0  0  0
   -1.6690    2.6620    0.7950 C   0  0  0  0  0  0  0  0  0  0  0  0
   -1.6380    2.4800   -0.6950 C   0  0  0  0  0  0  0  0  0  0  0  0
   -1.0050    3.7150   -1.3090 C   0  0  0  0  0  0  0  0  0  0  0  0
    0.4020    3.9450   -0.8230 C   0  0  0  0  0  0  0  0  0  0  0  0
    1.2850    2.8410   -1.1330 N   0  0  0  0  0  0  0  0  0  0  0  0
   -3.6890    1.2500    1.1010 C   0  0  0  0  0  0  0  0  0  0  0  0
   -4.1120    0.2030    0.5820 O   0  0  0  0  0  0  0  0  0  0  0  0
   -4.6060    2.2810    1.3150 O   0  0  0  0  0  0  0  0  0  0  0  0
   -1.3880   -0.0670    0.2510 H   0  0  0  0  0  0  0  0  0  0  0  0
   -2.2780    1.7200    2.5870 H   0  0  0  0  0  0  0  0  0  0  0  0
   -0.6080    2.7200    1.1510 H   0  0  0  0  0  0  0  0  0  0  0  0
   -2.1730    3.5960    1.0600 H   0  0  0  0  0  0  0  0  0  0  0  0
   -2.6850    2.4520   -1.0880 H   0  0  0  0  0  0  0  0  0  0  0  0
   -1.1570    1.5570   -1.0180 H   0  0  0  0  0  0  0  0  0  0  0  0
   -0.9380    3.6170   -2.4250 H   0  0  0  0  0  0  0  0  0  0  0  0
   -1.5930    4.6170   -1.1190 H   0  0  0  0  0  0  0  0  0  0  0  0
    0.4140    4.2320    0.2420 H   0  0  0  0  0  0  0  0  0  0  0  0
    0.7890    4.8230   -1.3840 H   0  0  0  0  0  0  0  0  0  0  0  0
    0.8490    1.9190   -0.9780 H   0  0  0  0  0  0  0  0  0  0  0  0
    1.5120    2.9150   -2.1500 H   0  0  0  0  0  0  0  0  0  0  0  0
  1  2  1  0  0  0  0
  2  4  1  0  0  0  0
  2 11  1  0  0  0  0
  2  3  1  0  0  0  0
  3 14  1  0  0  0  0
  4 15  1  6  0  0  0
  4  6  1  0  0  0  0
  5 17  1  0  0  0  0
  5  4  1  0  0  0  0
  6  7  2  0  0  0  0
  6 23  1  0  0  0  0
  8  1  1  0  0  0  0
  9  1  1  0  0  0  0
 10  1  1  0  0  0  0
 12  3  1  0  0  0  0
 13  3  1  0  0  0  0
 16  5  1  0  0  0  0
 18 26  1  0  0  0  0
 19 29  1  0  0  0  0
 19 18  1  0  0  0  0
 20 31  1  6  0  0  0
 20 19  1  0  0  0  0
 20 21  1  0  0  0  0
 21 33  1  0  0  0  0
 21 32  1  0  0  0  0
 21 34  1  0  0  0  0
 22 24  1  0  0  0  0
 22 35  1  1  0  0  0
 22 20  1  0  0  0  0
 23 22  1  0  0  0  0
 24 25  2  0  0  0  0
 27 18  1  0  0  0  0
 28 18  1  0  0  0  0
 30 19  1  0  0  0  0
 36 23  1  0  0  0  0
 37 38  1  0  0  0  0
 37 24  1  0  0  0  0
 38 48  1  1  0  0  0
 39 50  1  0  0  0  0
 39 49  1  0  0  0  0
 39 38  1  0  0  0  0
 40 39  1  0  0  0  0
 41 54  1  0  0  0  0
 41 42  1  0  0  0  0
 41 40  1  0  0  0  0
 42 55  1  0  0  0  0
 43 57  1  0  0  0  0
 43 42  1  0  0  0  0
 44 46  1  0  0  0  0
 44 38  1  0  0  0  0
 45 44  2  0  0  0  0
 47 37  1  0  0  0  0
 51 40  1  0  0  0  0
 52 40  1  0  0  0  0
 53 41  1  0  0  0  0
 56 42  1  0  0  0  0
 58 43  1  0  0  0  0
M  END
$$$$
