VIM.pdb
 OpenBabel07022419263D

 54 53  0  0  1  0  0  0  0  0999 V2000
    2.1990   -4.5550    1.2470 C   0  0  0  0  0  0  0  0  0  0  0  0
    0.8330   -4.7970    1.8140 C   0  0  0  0  0  0  0  0  0  0  0  0
    0.3010   -6.1070    1.2400 C   0  0  0  0  0  0  0  0  0  0  0  0
   -0.0940   -3.6730    1.4290 C   0  0  2  0  0  0  0  0  0  0  0  0
   -0.2250   -3.5500   -0.0010 N   0  0  0  0  0  0  0  0  0  0  0  0
    0.4410   -2.3810    1.9470 C   0  0  0  0  0  0  0  0  0  0  0  0
    0.6840   -2.2070    3.1690 O   0  0  0  0  0  0  0  0  0  0  0  0
    2.2670   -4.8500    0.1690 H   0  0  0  0  0  0  0  0  0  0  0  0
    2.4520   -3.4570    1.2990 H   0  0  0  0  0  0  0  0  0  0  0  0
    3.0040   -5.1180    1.7580 H   0  0  0  0  0  0  0  0  0  0  0  0
    0.8810   -4.9110    2.9030 H   0  0  0  0  0  0  0  0  0  0  0  0
    0.9270   -6.4210    0.3940 H   0  0  0  0  0  0  0  0  0  0  0  0
    0.3210   -6.9150    1.9990 H   0  0  0  0  0  0  0  0  0  0  0  0
   -0.7630   -5.9980    0.9330 H   0  0  0  0  0  0  0  0  0  0  0  0
   -1.1130   -3.8380    1.8510 H   0  0  0  0  0  0  0  0  0  0  0  0
   -0.8900   -2.8130   -0.2660 H   0  0  0  0  0  0  0  0  0  0  0  0
    0.6900   -3.3390   -0.4560 H   0  0  0  0  0  0  0  0  0  0  0  0
    4.4170    1.9850    1.0960 C   0  0  0  0  0  0  0  0  0  0  0  0
    2.9670    1.6890    1.5520 C   0  0  0  0  0  0  0  0  0  0  0  0
    2.5180    0.3600    0.9940 C   0  0  2  0  0  0  0  0  0  0  0  0
    2.5660    0.4530   -0.5140 C   0  0  0  0  0  0  0  0  0  0  0  0
    1.2200   -0.0280    1.5620 C   0  0  2  0  0  0  0  0  0  0  0  0
    0.7020   -1.2880    1.0960 N   0  0  0  0  0  0  0  0  0  0  0  0
    0.1630    1.0050    1.4430 C   0  0  0  0  0  0  0  0  0  0  0  0
    0.2680    2.2030    1.7990 O   0  0  0  0  0  0  0  0  0  0  0  0
    4.4150    2.4910    0.1250 H   0  0  0  0  0  0  0  0  0  0  0  0
    4.9160    2.6300    1.8440 H   0  0  0  0  0  0  0  0  0  0  0  0
    4.9310    1.0080    1.1080 H   0  0  0  0  0  0  0  0  0  0  0  0
    3.0170    1.7120    2.6580 H   0  0  0  0  0  0  0  0  0  0  0  0
    2.3810    2.5550    1.1250 H   0  0  0  0  0  0  0  0  0  0  0  0
    3.3050   -0.3590    1.3690 H   0  0  0  0  0  0  0  0  0  0  0  0
    3.4260   -0.1160   -0.9340 H   0  0  0  0  0  0  0  0  0  0  0  0
    2.7370    1.5130   -0.8490 H   0  0  0  0  0  0  0  0  0  0  0  0
    1.6070    0.1550   -0.9860 H   0  0  0  0  0  0  0  0  0  0  0  0
    1.3710   -0.1450    2.6780 H   0  0  0  0  0  0  0  0  0  0  0  0
    0.5180   -1.3810    0.0850 H   0  0  0  0  0  0  0  0  0  0  0  0
   -4.7940    1.6610   -3.2990 C   0  0  0  0  0  0  0  0  0  0  0  0
   -3.3810    0.5830   -3.0440 S   0  0  0  0  0  0  0  0  0  0  0  0
   -2.9830    0.4030   -1.2770 C   0  0  0  0  0  0  0  0  0  0  0  0
   -2.5120    1.7340   -0.7300 C   0  0  0  0  0  0  0  0  0  0  0  0
   -2.1740    1.6230    0.7410 C   0  0  2  0  0  0  0  0  0  0  0  0
   -1.1180    0.6390    0.8720 N   0  0  0  0  0  0  0  0  0  0  0  0
   -3.4160    1.1850    1.4270 C   0  0  0  0  0  0  0  0  0  0  0  0
   -3.4040    0.0740    2.0100 O   0  0  0  0  0  0  0  0  0  0  0  0
   -4.5800    1.9270    1.4600 O   0  0  0  0  0  0  0  0  0  0  0  0
   -5.5060    1.1610   -3.9840 H   0  0  0  0  0  0  0  0  0  0  0  0
   -5.3040    1.8890   -2.3230 H   0  0  0  0  0  0  0  0  0  0  0  0
   -4.4460    2.5920   -3.7970 H   0  0  0  0  0  0  0  0  0  0  0  0
   -3.9190    0.1230   -0.7390 H   0  0  0  0  0  0  0  0  0  0  0  0
   -2.2620   -0.4070   -1.1740 H   0  0  0  0  0  0  0  0  0  0  0  0
   -3.3930    2.4280   -0.8000 H   0  0  0  0  0  0  0  0  0  0  0  0
   -1.6650    2.1340   -1.3330 H   0  0  0  0  0  0  0  0  0  0  0  0
   -1.8660    2.6160    1.1040 H   0  0  0  0  0  0  0  0  0  0  0  0
   -1.2210   -0.3510    0.5740 H   0  0  0  0  0  0  0  0  0  0  0  0
  1  9  1  0  0  0  0
  1 10  1  0  0  0  0
  1  2  1  0  0  0  0
  2 11  1  0  0  0  0
  3  2  1  0  0  0  0
  3 13  1  0  0  0  0
  4  2  1  0  0  0  0
  4 15  1  1  0  0  0
  4  6  1  0  0  0  0
  5  4  1  0  0  0  0
  6  7  2  0  0  0  0
  8  1  1  0  0  0  0
 12  3  1  0  0  0  0
 14  3  1  0  0  0  0
 16  5  1  0  0  0  0
 17  5  1  0  0  0  0
 18 28  1  0  0  0  0
 18 19  1  0  0  0  0
 18 27  1  0  0  0  0
 19 29  1  0  0  0  0
 20 31  1  1  0  0  0
 20 19  1  0  0  0  0
 20 22  1  0  0  0  0
 21 20  1  0  0  0  0
 22 35  1  1  0  0  0
 23 22  1  0  0  0  0
 23  6  1  0  0  0  0
 24 22  1  0  0  0  0
 24 25  2  0  0  0  0
 26 18  1  0  0  0  0
 30 19  1  0  0  0  0
 32 21  1  0  0  0  0
 33 21  1  0  0  0  0
 34 21  1  0  0  0  0
 36 23  1  0  0  0  0
 37 38  1  0  0  0  0
 37 47  1  0  0  0  0
 38 39  1  0  0  0  0
 39 50  1  0  0  0  0
 39 49  1  0  0  0  0
 39 40  1  0  0  0  0
 40 41  1  0  0  0  0
 41 42  1  0  0  0  0
 41 53  1  1  0  0  0
 41 43  1  0  0  0  0
 42 24  1  0  0  0  0
 43 45  2  0  0  0  0
 43 44  1  0  0  0  0
 46 37  1  0  0  0  0
 48 37  1  0  0  0  0
 51 40  1  0  0  0  0
 52 40  1  0  0  0  0
 54 42  1  0  0  0  0
M  END
$$$$
