VIS.pdb
 OpenBabel07022419263D

 48 47  0  0  1  0  0  0  0  0999 V2000
   -1.0710   -3.1580   -0.6380 C   0  0  0  0  0  0  0  0  0  0  0  0
    0.2240   -3.8710   -0.5010 C   0  0  0  0  0  0  0  0  0  0  0  0
    0.2650   -4.7290    0.7480 C   0  0  0  0  0  0  0  0  0  0  0  0
    1.4520   -3.0080   -0.6260 C   0  0  2  0  0  0  0  0  0  0  0  0
    2.6070   -3.9400   -0.4700 N   0  0  0  0  0  0  0  0  0  0  0  0
    1.6100   -1.9870    0.4100 C   0  0  0  0  0  0  0  0  0  0  0  0
    2.4160   -2.1530    1.3940 O   0  0  0  0  0  0  0  0  0  0  0  0
   -1.8400   -3.7880   -1.1970 H   0  0  0  0  0  0  0  0  0  0  0  0
   -1.5870   -3.0020    0.3550 H   0  0  0  0  0  0  0  0  0  0  0  0
   -1.0220   -2.2320   -1.2420 H   0  0  0  0  0  0  0  0  0  0  0  0
    0.2870   -4.5950   -1.3680 H   0  0  0  0  0  0  0  0  0  0  0  0
    0.6480   -5.7480    0.5370 H   0  0  0  0  0  0  0  0  0  0  0  0
    0.9510   -4.3010    1.5150 H   0  0  0  0  0  0  0  0  0  0  0  0
   -0.7700   -4.8510    1.1340 H   0  0  0  0  0  0  0  0  0  0  0  0
    1.4990   -2.6310   -1.6640 H   0  0  0  0  0  0  0  0  0  0  0  0
    2.7690   -4.4380   -1.3770 H   0  0  0  0  0  0  0  0  0  0  0  0
    3.4080   -3.3880   -0.1390 H   0  0  0  0  0  0  0  0  0  0  0  0
    1.4090    3.6920   -0.1530 C   0  0  0  0  0  0  0  0  0  0  0  0
    0.9240    2.2660    0.0210 C   0  0  0  0  0  0  0  0  0  0  0  0
    1.7250    1.5290    1.0780 C   0  0  2  0  0  0  0  0  0  0  0  0
    3.1870    1.4590    0.7270 C   0  0  0  0  0  0  0  0  0  0  0  0
    1.1140    0.2300    1.4720 C   0  0  2  0  0  0  0  0  0  0  0  0
    0.9400   -0.7480    0.4620 N   0  0  0  0  0  0  0  0  0  0  0  0
   -0.1960    0.5390    2.0840 C   0  0  0  0  0  0  0  0  0  0  0  0
   -0.2200    1.3730    3.0610 O   0  0  0  0  0  0  0  0  0  0  0  0
    0.5730    4.3800   -0.3250 H   0  0  0  0  0  0  0  0  0  0  0  0
    1.8970    3.9840    0.8230 H   0  0  0  0  0  0  0  0  0  0  0  0
    2.1400    3.7690   -0.9840 H   0  0  0  0  0  0  0  0  0  0  0  0
   -0.1480    2.3350    0.2930 H   0  0  0  0  0  0  0  0  0  0  0  0
    1.0680    1.7850   -0.9790 H   0  0  0  0  0  0  0  0  0  0  0  0
    1.6510    2.1620    1.9920 H   0  0  0  0  0  0  0  0  0  0  0  0
    3.7580    2.3500    1.1160 H   0  0  0  0  0  0  0  0  0  0  0  0
    3.3500    1.5090   -0.3880 H   0  0  0  0  0  0  0  0  0  0  0  0
    3.6930    0.5810    1.1690 H   0  0  0  0  0  0  0  0  0  0  0  0
    1.7660   -0.1850    2.2660 H   0  0  0  0  0  0  0  0  0  0  0  0
    0.2660   -0.5110   -0.2940 H   0  0  0  0  0  0  0  0  0  0  0  0
   -3.7320    0.1720    0.2260 O   0  0  0  0  0  0  0  0  0  0  0  0
   -3.5140    1.0550    1.2700 C   0  0  0  0  0  0  0  0  0  0  0  0
   -2.6590    0.3280    2.3160 C   0  0  2  0  0  0  0  0  0  0  0  0
   -1.4280   -0.0370    1.6500 N   0  0  0  0  0  0  0  0  0  0  0  0
   -3.3760   -0.8540    2.8320 C   0  0  0  0  0  0  0  0  0  0  0  0
   -4.4650   -0.6690    3.4340 O   0  0  0  0  0  0  0  0  0  0  0  0
   -2.8940   -2.1250    2.6750 O   0  0  0  0  0  0  0  0  0  0  0  0
   -3.3650    0.5610   -0.6120 H   0  0  0  0  0  0  0  0  0  0  0  0
   -4.4370    1.4290    1.7360 H   0  0  0  0  0  0  0  0  0  0  0  0
   -2.9210    1.9220    0.9230 H   0  0  0  0  0  0  0  0  0  0  0  0
   -2.4320    1.0460    3.1120 H   0  0  0  0  0  0  0  0  0  0  0  0
   -1.3960   -0.7070    0.8530 H   0  0  0  0  0  0  0  0  0  0  0  0
  1  2  1  0  0  0  0
  1  9  1  0  0  0  0
  2  3  1  0  0  0  0
  3 14  1  0  0  0  0
  3 13  1  0  0  0  0
  4 15  1  6  0  0  0
  4  2  1  0  0  0  0
  4  5  1  0  0  0  0
  4  6  1  0  0  0  0
  5 17  1  0  0  0  0
  6 23  1  0  0  0  0
  6  7  2  0  0  0  0
  8  1  1  0  0  0  0
 10  1  1  0  0  0  0
 11  2  1  0  0  0  0
 12  3  1  0  0  0  0
 16  5  1  0  0  0  0
 18 19  1  0  0  0  0
 18 27  1  0  0  0  0
 19 29  1  0  0  0  0
 19 20  1  0  0  0  0
 20 22  1  0  0  0  0
 20 31  1  1  0  0  0
 21 20  1  0  0  0  0
 21 32  1  0  0  0  0
 21 34  1  0  0  0  0
 22 24  1  0  0  0  0
 22 35  1  1  0  0  0
 23 22  1  0  0  0  0
 24 25  2  0  0  0  0
 26 18  1  0  0  0  0
 28 18  1  0  0  0  0
 30 19  1  0  0  0  0
 33 21  1  0  0  0  0
 36 23  1  0  0  0  0
 37 38  1  0  0  0  0
 38 45  1  0  0  0  0
 38 39  1  0  0  0  0
 39 41  1  0  0  0  0
 39 47  1  1  0  0  0
 40 24  1  0  0  0  0
 40 39  1  0  0  0  0
 41 42  1  0  0  0  0
 43 41  2  0  0  0  0
 44 37  1  0  0  0  0
 46 38  1  0  0  0  0
 48 40  1  0  0  0  0
M  END
$$$$
