VKK.pdb
 OpenBabel07022419263D

 60 59  0  0  1  0  0  0  0  0999 V2000
    1.2820   -4.0740    2.7400 C   0  0  0  0  0  0  0  0  0  0  0  0
    2.3720   -3.5250    1.8490 C   0  0  0  0  0  0  0  0  0  0  0  0
    2.0720   -3.5930    0.3860 C   0  0  0  0  0  0  0  0  0  0  0  0
    2.9250   -2.2060    2.3360 C   0  0  2  0  0  0  0  0  0  0  0  0
    3.4980   -2.4960    3.6860 N   0  0  0  0  0  0  0  0  0  0  0  0
    1.9390   -1.1540    2.5710 C   0  0  0  0  0  0  0  0  0  0  0  0
    1.5950   -0.8190    3.7690 O   0  0  0  0  0  0  0  0  0  0  0  0
    1.6670   -4.6950    3.5730 H   0  0  0  0  0  0  0  0  0  0  0  0
    0.8090   -3.1810    3.2370 H   0  0  0  0  0  0  0  0  0  0  0  0
    0.5380   -4.6730    2.1960 H   0  0  0  0  0  0  0  0  0  0  0  0
    3.2420   -4.2560    2.0230 H   0  0  0  0  0  0  0  0  0  0  0  0
    0.9850   -3.6790    0.1680 H   0  0  0  0  0  0  0  0  0  0  0  0
    2.5940   -4.5190   -0.0210 H   0  0  0  0  0  0  0  0  0  0  0  0
    2.4380   -2.7040   -0.1680 H   0  0  0  0  0  0  0  0  0  0  0  0
    3.7780   -1.9360    1.7130 H   0  0  0  0  0  0  0  0  0  0  0  0
    4.2330   -3.2080    3.5010 H   0  0  0  0  0  0  0  0  0  0  0  0
    3.9060   -1.6380    4.0810 H   0  0  0  0  0  0  0  0  0  0  0  0
    1.3100   -0.4400    1.5230 N   0  0  0  0  0  0  0  0  0  0  0  0
    0.3070    0.6440    1.8280 C   0  0  1  0  0  0  0  0  0  0  0  0
    0.7640    1.8790    1.1530 C   0  0  0  0  0  0  0  0  0  0  0  0
    0.1010    3.1590    1.2600 C   0  0  0  0  0  0  0  0  0  0  0  0
   -1.2820    3.4140    0.8460 C   0  0  0  0  0  0  0  0  0  0  0  0
   -1.6300    3.1050   -0.5830 C   0  0  0  0  0  0  0  0  0  0  0  0
   -3.0540    3.4480   -0.7360 N   0  0  0  0  0  0  0  0  0  0  0  0
   -0.9700    0.0880    1.3330 C   0  0  0  0  0  0  0  0  0  0  0  0
   -2.0550    0.6990    1.5360 O   0  0  0  0  0  0  0  0  0  0  0  0
    1.5430   -0.6480    0.5380 H   0  0  0  0  0  0  0  0  0  0  0  0
    0.2820    0.7010    2.9220 H   0  0  0  0  0  0  0  0  0  0  0  0
    1.8370    2.0440    1.5510 H   0  0  0  0  0  0  0  0  0  0  0  0
    1.0240    1.6560    0.0500 H   0  0  0  0  0  0  0  0  0  0  0  0
    0.1470    3.4860    2.3670 H   0  0  0  0  0  0  0  0  0  0  0  0
    0.7940    3.9360    0.7930 H   0  0  0  0  0  0  0  0  0  0  0  0
   -2.0720    3.1990    1.5660 H   0  0  0  0  0  0  0  0  0  0  0  0
   -1.3430    4.5980    0.8390 H   0  0  0  0  0  0  0  0  0  0  0  0
   -1.0550    3.7560   -1.2770 H   0  0  0  0  0  0  0  0  0  0  0  0
   -1.5600    2.0500   -0.8410 H   0  0  0  0  0  0  0  0  0  0  0  0
   -3.5640    2.7650   -0.1040 H   0  0  0  0  0  0  0  0  0  0  0  0
   -3.2410    4.3920   -0.3180 H   0  0  0  0  0  0  0  0  0  0  0  0
   -1.0460   -1.1660    0.6020 N   0  0  0  0  0  0  0  0  0  0  0  0
   -2.3310   -1.5950    0.1770 C   0  0  1  0  0  0  0  0  0  0  0  0
   -2.4390   -2.0580   -1.2450 C   0  0  0  0  0  0  0  0  0  0  0  0
   -2.0900   -1.0900   -2.3000 C   0  0  0  0  0  0  0  0  0  0  0  0
   -0.7000   -0.5680   -2.3230 C   0  0  0  0  0  0  0  0  0  0  0  0
    0.3180   -1.6980   -2.5260 C   0  0  0  0  0  0  0  0  0  0  0  0
    0.0720   -2.3720   -3.7920 N   0  0  0  0  0  0  0  0  0  0  0  0
   -2.7120   -2.7840    1.0030 C   0  0  0  0  0  0  0  0  0  0  0  0
   -3.8070   -3.3820    0.8490 O   0  0  0  0  0  0  0  0  0  0  0  0
   -1.8210   -3.2240    1.9590 O   0  0  0  0  0  0  0  0  0  0  0  0
   -0.1570   -1.6470    0.4510 H   0  0  0  0  0  0  0  0  0  0  0  0
   -3.1170   -0.8360    0.4300 H   0  0  0  0  0  0  0  0  0  0  0  0
   -1.8290   -3.0060   -1.3130 H   0  0  0  0  0  0  0  0  0  0  0  0
   -3.4880   -2.4040   -1.3890 H   0  0  0  0  0  0  0  0  0  0  0  0
   -2.2590   -1.6190   -3.2860 H   0  0  0  0  0  0  0  0  0  0  0  0
   -2.8380   -0.2600   -2.3310 H   0  0  0  0  0  0  0  0  0  0  0  0
   -0.6020    0.0590   -3.2560 H   0  0  0  0  0  0  0  0  0  0  0  0
   -0.3990    0.0770   -1.4970 H   0  0  0  0  0  0  0  0  0  0  0  0
    0.2160   -2.4760   -1.7490 H   0  0  0  0  0  0  0  0  0  0  0  0
    1.3410   -1.3270   -2.5350 H   0  0  0  0  0  0  0  0  0  0  0  0
    0.9590   -2.5800   -4.2670 H   0  0  0  0  0  0  0  0  0  0  0  0
   -0.4680   -3.2520   -3.6660 H   0  0  0  0  0  0  0  0  0  0  0  0
  1  9  1  0  0  0  0
  1  8  1  0  0  0  0
  2 11  1  0  0  0  0
  2  4  1  0  0  0  0
  2  1  1  0  0  0  0
  3  2  1  0  0  0  0
  4 15  1  6  0  0  0
  4  6  1  0  0  0  0
  4  5  1  0  0  0  0
  5 17  1  0  0  0  0
  6  7  2  0  0  0  0
 10  1  1  0  0  0  0
 12  3  1  0  0  0  0
 13  3  1  0  0  0  0
 14  3  1  0  0  0  0
 16  5  1  0  0  0  0
 18 19  1  0  0  0  0
 18  6  1  0  0  0  0
 19 28  1  1  0  0  0
 20 21  1  0  0  0  0
 20 29  1  0  0  0  0
 20 19  1  0  0  0  0
 21 31  1  0  0  0  0
 22 21  1  0  0  0  0
 22 33  1  0  0  0  0
 23 22  1  0  0  0  0
 24 23  1  0  0  0  0
 24 38  1  0  0  0  0
 24 37  1  0  0  0  0
 25 26  2  0  0  0  0
 25 19  1  0  0  0  0
 27 18  1  0  0  0  0
 30 20  1  0  0  0  0
 32 21  1  0  0  0  0
 34 22  1  0  0  0  0
 35 23  1  0  0  0  0
 36 23  1  0  0  0  0
 39 25  1  0  0  0  0
 40 50  1  1  0  0  0
 40 39  1  0  0  0  0
 40 46  1  0  0  0  0
 41 40  1  0  0  0  0
 42 41  1  0  0  0  0
 43 42  1  0  0  0  0
 43 56  1  0  0  0  0
 44 43  1  0  0  0  0
 44 57  1  0  0  0  0
 45 60  1  0  0  0  0
 45 44  1  0  0  0  0
 46 48  1  0  0  0  0
 47 46  2  0  0  0  0
 49 39  1  0  0  0  0
 51 41  1  0  0  0  0
 52 41  1  0  0  0  0
 53 42  1  0  0  0  0
 54 42  1  0  0  0  0
 55 43  1  0  0  0  0
 58 44  1  0  0  0  0
 59 45  1  0  0  0  0
M  END
$$$$
