VKL.pdb
 OpenBabel07022419263D

 58 57  0  0  1  0  0  0  0  0999 V2000
    3.2290   -2.0460   -2.3110 C   0  0  0  0  0  0  0  0  0  0  0  0
    3.6230   -0.5820   -2.2160 C   0  0  0  0  0  0  0  0  0  0  0  0
    2.4990    0.3190   -2.5800 C   0  0  0  0  0  0  0  0  0  0  0  0
    4.2390   -0.2880   -0.8600 C   0  0  2  0  0  0  0  0  0  0  0  0
    5.4320   -1.1350   -0.7290 N   0  0  0  0  0  0  0  0  0  0  0  0
    3.2590   -0.6680    0.2150 C   0  0  0  0  0  0  0  0  0  0  0  0
    3.4900   -1.7150    0.9010 O   0  0  0  0  0  0  0  0  0  0  0  0
    2.1430   -2.1770   -2.5190 H   0  0  0  0  0  0  0  0  0  0  0  0
    3.7670   -2.5910   -3.1030 H   0  0  0  0  0  0  0  0  0  0  0  0
    3.5070   -2.5470   -1.3500 H   0  0  0  0  0  0  0  0  0  0  0  0
    4.4200   -0.4470   -3.0020 H   0  0  0  0  0  0  0  0  0  0  0  0
    1.5150   -0.0220   -2.2070 H   0  0  0  0  0  0  0  0  0  0  0  0
    2.7260    1.3610   -2.2830 H   0  0  0  0  0  0  0  0  0  0  0  0
    2.4170    0.3480   -3.7110 H   0  0  0  0  0  0  0  0  0  0  0  0
    4.5570    0.7410   -0.8350 H   0  0  0  0  0  0  0  0  0  0  0  0
    6.2870   -0.5400   -0.5990 H   0  0  0  0  0  0  0  0  0  0  0  0
    5.3140   -1.7530    0.1060 H   0  0  0  0  0  0  0  0  0  0  0  0
    2.1020    0.0910    0.4890 N   0  0  0  0  0  0  0  0  0  0  0  0
    1.1920   -0.3360    1.5410 C   0  0  1  0  0  0  0  0  0  0  0  0
    1.3370    0.5610    2.7430 C   0  0  0  0  0  0  0  0  0  0  0  0
    1.1200    1.9950    2.5380 C   0  0  0  0  0  0  0  0  0  0  0  0
   -0.1660    2.5490    2.1210 C   0  0  0  0  0  0  0  0  0  0  0  0
   -1.3250    2.4320    3.0390 C   0  0  0  0  0  0  0  0  0  0  0  0
   -1.7530    1.1490    3.4370 N   0  0  0  0  0  0  0  0  0  0  0  0
   -0.1230   -0.6300    1.0370 C   0  0  0  0  0  0  0  0  0  0  0  0
   -0.4620   -0.2040   -0.1180 O   0  0  0  0  0  0  0  0  0  0  0  0
    1.9340    0.9520   -0.0780 H   0  0  0  0  0  0  0  0  0  0  0  0
    1.6100   -1.3300    1.9120 H   0  0  0  0  0  0  0  0  0  0  0  0
    0.7920    0.0730    3.5650 H   0  0  0  0  0  0  0  0  0  0  0  0
    2.4260    0.4440    3.0440 H   0  0  0  0  0  0  0  0  0  0  0  0
    1.9080    2.3760    1.8320 H   0  0  0  0  0  0  0  0  0  0  0  0
    1.4040    2.5070    3.5070 H   0  0  0  0  0  0  0  0  0  0  0  0
   -0.0050    3.6760    2.0000 H   0  0  0  0  0  0  0  0  0  0  0  0
   -0.4630    2.2680    1.0630 H   0  0  0  0  0  0  0  0  0  0  0  0
   -1.1140    3.0270    3.9780 H   0  0  0  0  0  0  0  0  0  0  0  0
   -2.1940    2.9440    2.5320 H   0  0  0  0  0  0  0  0  0  0  0  0
   -2.8010    1.0830    3.5870 H   0  0  0  0  0  0  0  0  0  0  0  0
   -1.3290    0.8130    4.3410 H   0  0  0  0  0  0  0  0  0  0  0  0
   -3.3890   -4.5300   -1.2370 C   0  0  0  0  0  0  0  0  0  0  0  0
   -3.6320   -3.2290   -0.4670 C   0  0  0  0  0  0  0  0  0  0  0  0
   -3.9660   -2.1830   -1.5090 C   0  0  0  0  0  0  0  0  0  0  0  0
   -2.3650   -2.9070    0.2380 C   0  0  0  0  0  0  0  0  0  0  0  0
   -2.4460   -1.6220    1.0610 C   0  0  2  0  0  0  0  0  0  0  0  0
   -1.1450   -1.3940    1.7130 N   0  0  0  0  0  0  0  0  0  0  0  0
   -3.5010   -1.6540    2.0460 C   0  0  0  0  0  0  0  0  0  0  0  0
   -4.7230   -1.7430    1.7530 O   0  0  0  0  0  0  0  0  0  0  0  0
   -3.2160   -1.5900    3.4020 O   0  0  0  0  0  0  0  0  0  0  0  0
   -2.6720   -5.1910   -0.7070 H   0  0  0  0  0  0  0  0  0  0  0  0
   -2.9680   -4.2490   -2.2160 H   0  0  0  0  0  0  0  0  0  0  0  0
   -4.3500   -5.0550   -1.4140 H   0  0  0  0  0  0  0  0  0  0  0  0
   -4.4830   -3.4560    0.2030 H   0  0  0  0  0  0  0  0  0  0  0  0
   -3.9660   -1.1620   -1.1290 H   0  0  0  0  0  0  0  0  0  0  0  0
   -3.1380   -2.2410   -2.2760 H   0  0  0  0  0  0  0  0  0  0  0  0
   -4.8860   -2.4690   -2.0600 H   0  0  0  0  0  0  0  0  0  0  0  0
   -1.5450   -2.8500   -0.5020 H   0  0  0  0  0  0  0  0  0  0  0  0
   -2.0920   -3.7080    0.9620 H   0  0  0  0  0  0  0  0  0  0  0  0
   -2.5840   -0.8170    0.3270 H   0  0  0  0  0  0  0  0  0  0  0  0
   -0.9100   -1.7610    2.6600 H   0  0  0  0  0  0  0  0  0  0  0  0
  1  2  1  0  0  0  0
  1 10  1  0  0  0  0
  2  4  1  0  0  0  0
  3 13  1  0  0  0  0
  3  2  1  0  0  0  0
  3 12  1  0  0  0  0
  4 15  1  1  0  0  0
  4  5  1  0  0  0  0
  4  6  1  0  0  0  0
  5 16  1  0  0  0  0
  5 17  1  0  0  0  0
  6 18  1  0  0  0  0
  6  7  2  0  0  0  0
  8  1  1  0  0  0  0
  9  1  1  0  0  0  0
 11  2  1  0  0  0  0
 14  3  1  0  0  0  0
 18 19  1  0  0  0  0
 19 28  1  1  0  0  0
 19 20  1  0  0  0  0
 20 30  1  0  0  0  0
 20 29  1  0  0  0  0
 21 20  1  0  0  0  0
 21 32  1  0  0  0  0
 22 21  1  0  0  0  0
 22 23  1  0  0  0  0
 23 24  1  0  0  0  0
 23 35  1  0  0  0  0
 24 37  1  0  0  0  0
 24 38  1  0  0  0  0
 25 19  1  0  0  0  0
 25 44  1  0  0  0  0
 26 25  2  0  0  0  0
 27 18  1  0  0  0  0
 31 21  1  0  0  0  0
 33 22  1  0  0  0  0
 34 22  1  0  0  0  0
 36 23  1  0  0  0  0
 39 48  1  0  0  0  0
 39 40  1  0  0  0  0
 40 51  1  0  0  0  0
 40 42  1  0  0  0  0
 41 52  1  0  0  0  0
 41 40  1  0  0  0  0
 42 56  1  0  0  0  0
 42 43  1  0  0  0  0
 43 57  1  6  0  0  0
 43 44  1  0  0  0  0
 43 45  1  0  0  0  0
 44 58  1  0  0  0  0
 45 47  1  0  0  0  0
 46 45  2  0  0  0  0
 49 39  1  0  0  0  0
 50 39  1  0  0  0  0
 53 41  1  0  0  0  0
 54 41  1  0  0  0  0
 55 42  1  0  0  0  0
M  END
$$$$
