VKR.pdb
 OpenBabel07022419263D

 62 61  0  0  1  0  0  0  0  0999 V2000
    2.2890   -1.2240    6.7050 C   0  0  0  0  0  0  0  0  0  0  0  0
    1.5680   -0.6400    5.5160 C   0  0  0  0  0  0  0  0  0  0  0  0
    1.7670    0.8390    5.3740 C   0  0  0  0  0  0  0  0  0  0  0  0
    1.8300   -1.4170    4.2560 C   0  0  2  0  0  0  0  0  0  0  0  0
    3.2050   -1.4830    3.8710 N   0  0  0  0  0  0  0  0  0  0  0  0
    0.9670   -0.9050    3.1290 C   0  0  0  0  0  0  0  0  0  0  0  0
   -0.2740   -0.7610    3.3080 O   0  0  0  0  0  0  0  0  0  0  0  0
    2.3700   -0.4980    7.5330 H   0  0  0  0  0  0  0  0  0  0  0  0
    1.7460   -2.1210    7.1200 H   0  0  0  0  0  0  0  0  0  0  0  0
    3.2880   -1.6220    6.4090 H   0  0  0  0  0  0  0  0  0  0  0  0
    0.4690   -0.7910    5.7410 H   0  0  0  0  0  0  0  0  0  0  0  0
    2.7130    1.1190    4.8750 H   0  0  0  0  0  0  0  0  0  0  0  0
    1.6400    1.3150    6.3590 H   0  0  0  0  0  0  0  0  0  0  0  0
    0.9580    1.2770    4.7270 H   0  0  0  0  0  0  0  0  0  0  0  0
    1.4830   -2.4630    4.4510 H   0  0  0  0  0  0  0  0  0  0  0  0
    3.4800   -2.4680    3.5920 H   0  0  0  0  0  0  0  0  0  0  0  0
    3.8730   -1.0460    4.5220 H   0  0  0  0  0  0  0  0  0  0  0  0
    1.5120   -0.5820    1.8770 N   0  0  0  0  0  0  0  0  0  0  0  0
    0.6200   -0.0630    0.7450 C   0  0  1  0  0  0  0  0  0  0  0  0
    1.1050    1.2880    0.4540 C   0  0  0  0  0  0  0  0  0  0  0  0
    0.5900    2.2190   -0.5150 C   0  0  0  0  0  0  0  0  0  0  0  0
    0.5890    1.9830   -1.9640 C   0  0  0  0  0  0  0  0  0  0  0  0
    0.0130    3.2390   -2.6980 C   0  0  0  0  0  0  0  0  0  0  0  0
    0.8850    4.3230   -2.3460 N   0  0  0  0  0  0  0  0  0  0  0  0
    0.5740   -1.1220   -0.2330 C   0  0  0  0  0  0  0  0  0  0  0  0
    1.4800   -2.0540   -0.1300 O   0  0  0  0  0  0  0  0  0  0  0  0
    2.5260   -0.6920    1.7050 H   0  0  0  0  0  0  0  0  0  0  0  0
   -0.3720   -0.0020    1.2360 H   0  0  0  0  0  0  0  0  0  0  0  0
    2.2560    1.3020    0.3730 H   0  0  0  0  0  0  0  0  0  0  0  0
    1.0190    1.8370    1.4800 H   0  0  0  0  0  0  0  0  0  0  0  0
   -0.4530    2.5750   -0.1690 H   0  0  0  0  0  0  0  0  0  0  0  0
    1.1720    3.2050   -0.3690 H   0  0  0  0  0  0  0  0  0  0  0  0
    1.5510    1.8250   -2.4380 H   0  0  0  0  0  0  0  0  0  0  0  0
   -0.1410    1.2060   -2.2310 H   0  0  0  0  0  0  0  0  0  0  0  0
   -1.0310    3.3700   -2.4220 H   0  0  0  0  0  0  0  0  0  0  0  0
    0.0660    3.0210   -3.7840 H   0  0  0  0  0  0  0  0  0  0  0  0
    1.8490    4.0370   -2.1060 H   0  0  0  0  0  0  0  0  0  0  0  0
    0.4600    5.0070   -1.6820 H   0  0  0  0  0  0  0  0  0  0  0  0
   -4.9970   -3.1480    0.8260 N   0  0  0  0  0  0  0  0  0  0  0  0
   -4.6520   -2.7390   -0.4820 C   0  0  0  0  0  0  0  0  0  0  0  0
   -4.7060   -1.4670   -0.7540 N   0  0  0  0  0  0  0  0  0  0  0  0
   -4.2550   -3.6450   -1.5000 N   0  0  0  0  0  0  0  0  0  0  0  0
   -3.8940   -3.1950   -2.8270 C   0  0  0  0  0  0  0  0  0  0  0  0
   -2.6160   -2.4190   -2.7800 C   0  0  0  0  0  0  0  0  0  0  0  0
   -1.4940   -3.2730   -2.2460 C   0  0  0  0  0  0  0  0  0  0  0  0
   -0.1890   -2.5090   -2.1850 C   0  0  2  0  0  0  0  0  0  0  0  0
   -0.3120   -1.3410   -1.3090 N   0  0  0  0  0  0  0  0  0  0  0  0
    0.2280   -2.0800   -3.5320 C   0  0  0  0  0  0  0  0  0  0  0  0
    0.3780   -2.9520   -4.4480 O   0  0  0  0  0  0  0  0  0  0  0  0
    0.4820   -0.7790   -3.9100 O   0  0  0  0  0  0  0  0  0  0  0  0
   -5.7690   -2.7130    1.3970 H   0  0  0  0  0  0  0  0  0  0  0  0
   -4.4510   -3.9370    1.2690 H   0  0  0  0  0  0  0  0  0  0  0  0
   -4.9880   -0.7560   -0.0540 H   0  0  0  0  0  0  0  0  0  0  0  0
   -4.2330   -4.6670   -1.2460 H   0  0  0  0  0  0  0  0  0  0  0  0
   -4.7200   -2.5260   -3.1770 H   0  0  0  0  0  0  0  0  0  0  0  0
   -3.8460   -4.0510   -3.5330 H   0  0  0  0  0  0  0  0  0  0  0  0
   -2.3070   -2.0940   -3.7960 H   0  0  0  0  0  0  0  0  0  0  0  0
   -2.7860   -1.5110   -2.1570 H   0  0  0  0  0  0  0  0  0  0  0  0
   -1.7050   -3.6500   -1.2110 H   0  0  0  0  0  0  0  0  0  0  0  0
   -1.3390   -4.1110   -2.9510 H   0  0  0  0  0  0  0  0  0  0  0  0
    0.6040   -3.1960   -1.7960 H   0  0  0  0  0  0  0  0  0  0  0  0
   -1.0740   -0.6510   -1.4340 H   0  0  0  0  0  0  0  0  0  0  0  0
  1  9  1  0  0  0  0
  1  8  1  0  0  0  0
  2 11  1  0  0  0  0
  2  1  1  0  0  0  0
  3  2  1  0  0  0  0
  3 13  1  0  0  0  0
  4 15  1  1  0  0  0
  4  2  1  0  0  0  0
  5  4  1  0  0  0  0
  5 17  1  0  0  0  0
  6  7  2  0  0  0  0
  6  4  1  0  0  0  0
 10  1  1  0  0  0  0
 12  3  1  0  0  0  0
 14  3  1  0  0  0  0
 16  5  1  0  0  0  0
 18  6  1  0  0  0  0
 19 28  1  1  0  0  0
 19 18  1  0  0  0  0
 20 19  1  0  0  0  0
 20 30  1  0  0  0  0
 21 32  1  0  0  0  0
 21 31  1  0  0  0  0
 21 20  1  0  0  0  0
 22 21  1  0  0  0  0
 23 35  1  0  0  0  0
 23 24  1  0  0  0  0
 23 22  1  0  0  0  0
 24 37  1  0  0  0  0
 24 38  1  0  0  0  0
 25 26  2  0  0  0  0
 25 19  1  0  0  0  0
 27 18  1  0  0  0  0
 29 20  1  0  0  0  0
 33 22  1  0  0  0  0
 34 22  1  0  0  0  0
 36 23  1  0  0  0  0
 39 52  1  0  0  0  0
 39 51  1  0  0  0  0
 40 39  1  0  0  0  0
 41 40  2  0  0  0  0
 41 53  1  0  0  0  0
 42 54  1  0  0  0  0
 42 40  1  0  0  0  0
 43 44  1  0  0  0  0
 43 42  1  0  0  0  0
 44 45  1  0  0  0  0
 44 58  1  0  0  0  0
 45 46  1  0  0  0  0
 45 59  1  0  0  0  0
 46 61  1  1  0  0  0
 46 47  1  0  0  0  0
 47 25  1  0  0  0  0
 48 46  1  0  0  0  0
 49 48  2  0  0  0  0
 50 48  1  0  0  0  0
 55 43  1  0  0  0  0
 56 43  1  0  0  0  0
 57 44  1  0  0  0  0
 60 45  1  0  0  0  0
 62 47  1  0  0  0  0
M  END
$$$$
