VLF.pdb
 OpenBabel07022419263D

 57 57  0  0  1  0  0  0  0  0999 V2000
    1.1810   -0.2120    6.2180 C   0  0  0  0  0  0  0  0  0  0  0  0
    1.7580   -0.1030    4.8220 C   0  0  0  0  0  0  0  0  0  0  0  0
    2.4220   -1.4230    4.5070 C   0  0  0  0  0  0  0  0  0  0  0  0
    0.6170    0.2010    3.8840 C   0  0  2  0  0  0  0  0  0  0  0  0
   -0.3960   -0.8070    3.8840 N   0  0  0  0  0  0  0  0  0  0  0  0
    1.1290    0.4510    2.4940 C   0  0  0  0  0  0  0  0  0  0  0  0
    2.0280    1.3050    2.2740 O   0  0  0  0  0  0  0  0  0  0  0  0
    1.1480    0.7950    6.6800 H   0  0  0  0  0  0  0  0  0  0  0  0
    0.1600   -0.6550    6.1190 H   0  0  0  0  0  0  0  0  0  0  0  0
    1.8430   -0.8890    6.7930 H   0  0  0  0  0  0  0  0  0  0  0  0
    2.4600    0.7370    4.8050 H   0  0  0  0  0  0  0  0  0  0  0  0
    2.3970   -1.6820    3.4380 H   0  0  0  0  0  0  0  0  0  0  0  0
    3.4960   -1.3740    4.7950 H   0  0  0  0  0  0  0  0  0  0  0  0
    1.9060   -2.2210    5.0760 H   0  0  0  0  0  0  0  0  0  0  0  0
    0.1640    1.1550    4.2290 H   0  0  0  0  0  0  0  0  0  0  0  0
    0.0190   -1.6950    3.5260 H   0  0  0  0  0  0  0  0  0  0  0  0
   -1.1910   -0.4840    3.3000 H   0  0  0  0  0  0  0  0  0  0  0  0
    3.3080   -0.2540   -1.9740 C   0  0  0  0  0  0  0  0  0  0  0  0
    2.1410   -1.2200   -1.9020 C   0  0  0  0  0  0  0  0  0  0  0  0
    2.7550   -2.5830   -2.2940 C   0  0  0  0  0  0  0  0  0  0  0  0
    1.5870   -1.3400   -0.5210 C   0  0  0  0  0  0  0  0  0  0  0  0
    1.0770   -0.0490    0.0780 C   0  0  2  0  0  0  0  0  0  0  0  0
    0.5690   -0.3030    1.4320 N   0  0  0  0  0  0  0  0  0  0  0  0
   -0.0700    0.4400   -0.7260 C   0  0  0  0  0  0  0  0  0  0  0  0
    0.1460    0.7730   -1.9170 O   0  0  0  0  0  0  0  0  0  0  0  0
    4.1290   -0.6810   -1.3640 H   0  0  0  0  0  0  0  0  0  0  0  0
    3.6610   -0.0920   -2.9920 H   0  0  0  0  0  0  0  0  0  0  0  0
    3.0590    0.7330   -1.4980 H   0  0  0  0  0  0  0  0  0  0  0  0
    1.3350   -1.0050   -2.6200 H   0  0  0  0  0  0  0  0  0  0  0  0
    3.8240   -2.6190   -1.9970 H   0  0  0  0  0  0  0  0  0  0  0  0
    2.2360   -3.3770   -1.7310 H   0  0  0  0  0  0  0  0  0  0  0  0
    2.7280   -2.7230   -3.3850 H   0  0  0  0  0  0  0  0  0  0  0  0
    2.3720   -1.7360    0.1900 H   0  0  0  0  0  0  0  0  0  0  0  0
    0.7970   -2.1330   -0.4910 H   0  0  0  0  0  0  0  0  0  0  0  0
    1.8660    0.7050    0.1550 H   0  0  0  0  0  0  0  0  0  0  0  0
   -0.1800   -1.0180    1.6140 H   0  0  0  0  0  0  0  0  0  0  0  0
   -1.3780    0.5360   -0.1920 N   0  0  0  0  0  0  0  0  0  0  0  0
   -2.4960    1.0130   -0.9830 C   0  0  1  0  0  0  0  0  0  0  0  0
   -3.5850   -0.0450   -1.1120 C   0  0  0  0  0  0  0  0  0  0  0  0
   -3.0850   -1.2780   -1.7650 C   0  0  0  0  0  0  0  0  0  0  0  0
   -3.1660   -1.3750   -3.1320 C   0  0  0  0  0  0  0  0  0  0  0  0
   -2.7230   -2.4830   -3.7890 C   0  0  0  0  0  0  0  0  0  0  0  0
   -2.1760   -3.5500   -3.1070 C   0  0  0  0  0  0  0  0  0  0  0  0
   -2.1010   -3.4370   -1.7400 C   0  0  0  0  0  0  0  0  0  0  0  0
   -2.5440   -2.3240   -1.0560 C   0  0  0  0  0  0  0  0  0  0  0  0
   -3.1180    2.1770   -0.3070 C   0  0  0  0  0  0  0  0  0  0  0  0
   -4.1080    2.7580   -0.8110 O   0  0  0  0  0  0  0  0  0  0  0  0
   -2.6130    2.6380    0.8930 O   0  0  0  0  0  0  0  0  0  0  0  0
   -1.5260    0.2530    0.7980 H   0  0  0  0  0  0  0  0  0  0  0  0
   -2.1820    1.2730   -2.0100 H   0  0  0  0  0  0  0  0  0  0  0  0
   -4.0430   -0.2670   -0.1220 H   0  0  0  0  0  0  0  0  0  0  0  0
   -4.3680    0.3860   -1.7670 H   0  0  0  0  0  0  0  0  0  0  0  0
   -3.5910   -0.5600   -3.7190 H   0  0  0  0  0  0  0  0  0  0  0  0
   -2.7940   -2.5490   -4.8850 H   0  0  0  0  0  0  0  0  0  0  0  0
   -1.8250   -4.4310   -3.6440 H   0  0  0  0  0  0  0  0  0  0  0  0
   -1.6720   -4.2710   -1.1880 H   0  0  0  0  0  0  0  0  0  0  0  0
   -2.4650   -2.2740    0.0460 H   0  0  0  0  0  0  0  0  0  0  0  0
  1  8  1  0  0  0  0
  1 10  1  0  0  0  0
  2  1  1  0  0  0  0
  3 13  1  0  0  0  0
  3  2  1  0  0  0  0
  3 14  1  0  0  0  0
  4  5  1  0  0  0  0
  4 15  1  1  0  0  0
  4  2  1  0  0  0  0
  6  4  1  0  0  0  0
  7  6  2  0  0  0  0
  9  1  1  0  0  0  0
 11  2  1  0  0  0  0
 12  3  1  0  0  0  0
 16  5  1  0  0  0  0
 17  5  1  0  0  0  0
 18 19  1  0  0  0  0
 18 28  1  0  0  0  0
 18 26  1  0  0  0  0
 19 21  1  0  0  0  0
 20 30  1  0  0  0  0
 20 19  1  0  0  0  0
 20 31  1  0  0  0  0
 21 34  1  0  0  0  0
 21 22  1  0  0  0  0
 21 33  1  0  0  0  0
 22 35  1  1  0  0  0
 22 23  1  0  0  0  0
 23 36  1  0  0  0  0
 23  6  1  0  0  0  0
 24 37  1  0  0  0  0
 24 22  1  0  0  0  0
 25 24  2  0  0  0  0
 27 18  1  0  0  0  0
 29 19  1  0  0  0  0
 32 20  1  0  0  0  0
 37 49  1  0  0  0  0
 38 50  1  6  0  0  0
 38 46  1  0  0  0  0
 38 37  1  0  0  0  0
 39 38  1  0  0  0  0
 39 51  1  0  0  0  0
 40 39  1  0  0  0  0
 40 45  1  0  0  0  0
 41 40  2  0  0  0  0
 42 41  1  0  0  0  0
 42 43  2  0  0  0  0
 43 44  1  0  0  0  0
 44 56  1  0  0  0  0
 44 45  2  0  0  0  0
 45 57  1  0  0  0  0
 46 48  1  0  0  0  0
 47 46  2  0  0  0  0
 52 39  1  0  0  0  0
 53 41  1  0  0  0  0
 54 42  1  0  0  0  0
 55 43  1  0  0  0  0
M  END
$$$$
