VLG.pdb
 OpenBabel07022419263D

 44 43  0  0  1  0  0  0  0  0999 V2000
    0.8550   -2.7580    3.6450 C   0  0  0  0  0  0  0  0  0  0  0  0
    1.8630   -3.2740    2.6460 C   0  0  0  0  0  0  0  0  0  0  0  0
    1.2540   -4.3310    1.7670 C   0  0  0  0  0  0  0  0  0  0  0  0
    2.4760   -2.1420    1.8380 C   0  0  2  0  0  0  0  0  0  0  0  0
    3.1270   -1.2600    2.7880 N   0  0  0  0  0  0  0  0  0  0  0  0
    1.4310   -1.3960    1.0840 C   0  0  0  0  0  0  0  0  0  0  0  0
    0.7860   -2.0350    0.2270 O   0  0  0  0  0  0  0  0  0  0  0  0
    1.2400   -2.8790    4.6990 H   0  0  0  0  0  0  0  0  0  0  0  0
   -0.0490   -3.3980    3.5810 H   0  0  0  0  0  0  0  0  0  0  0  0
    0.6000   -1.6930    3.4830 H   0  0  0  0  0  0  0  0  0  0  0  0
    2.6960   -3.7440    3.2080 H   0  0  0  0  0  0  0  0  0  0  0  0
    1.3300   -5.2980    2.3050 H   0  0  0  0  0  0  0  0  0  0  0  0
    0.1730   -4.1670    1.5790 H   0  0  0  0  0  0  0  0  0  0  0  0
    1.8440   -4.4260    0.8340 H   0  0  0  0  0  0  0  0  0  0  0  0
    3.2140   -2.5760    1.1650 H   0  0  0  0  0  0  0  0  0  0  0  0
    3.7640   -0.5770    2.3400 H   0  0  0  0  0  0  0  0  0  0  0  0
    2.4590   -0.8390    3.4530 H   0  0  0  0  0  0  0  0  0  0  0  0
    1.0320    0.3910   -3.1350 C   0  0  0  0  0  0  0  0  0  0  0  0
    1.2420    0.7300   -1.6590 C   0  0  0  0  0  0  0  0  0  0  0  0
    2.5640    0.2190   -1.2530 C   0  0  0  0  0  0  0  0  0  0  0  0
    0.0340    0.3590   -0.9100 C   0  0  0  0  0  0  0  0  0  0  0  0
    0.1520    0.6530    0.5560 C   0  0  2  0  0  0  0  0  0  0  0  0
    1.1480   -0.0320    1.2920 N   0  0  0  0  0  0  0  0  0  0  0  0
   -1.1220    0.7680    1.2720 C   0  0  0  0  0  0  0  0  0  0  0  0
   -1.1710    0.2410    2.4320 O   0  0  0  0  0  0  0  0  0  0  0  0
    0.5400   -0.6040   -3.1510 H   0  0  0  0  0  0  0  0  0  0  0  0
    2.0020    0.2690   -3.6550 H   0  0  0  0  0  0  0  0  0  0  0  0
    0.4020    1.1620   -3.6050 H   0  0  0  0  0  0  0  0  0  0  0  0
    1.3200    1.8700   -1.6150 H   0  0  0  0  0  0  0  0  0  0  0  0
    3.3150    0.7010   -1.9790 H   0  0  0  0  0  0  0  0  0  0  0  0
    2.6530   -0.8720   -1.4080 H   0  0  0  0  0  0  0  0  0  0  0  0
    2.9190    0.5740   -0.2670 H   0  0  0  0  0  0  0  0  0  0  0  0
   -0.7880    1.0670   -1.2640 H   0  0  0  0  0  0  0  0  0  0  0  0
   -0.3900   -0.6350   -1.1550 H   0  0  0  0  0  0  0  0  0  0  0  0
    0.5550    1.7500    0.5100 H   0  0  0  0  0  0  0  0  0  0  0  0
    1.7310    0.4450    2.0370 H   0  0  0  0  0  0  0  0  0  0  0  0
   -2.2760    1.3980    0.8010 N   0  0  0  0  0  0  0  0  0  0  0  0
   -3.4620    1.4280    1.6300 C   0  0  0  0  0  0  0  0  0  0  0  0
   -4.5630    2.1420    0.9430 C   0  0  0  0  0  0  0  0  0  0  0  0
   -4.3530    2.6040   -0.2000 O   0  0  0  0  0  0  0  0  0  0  0  0
   -5.8090    2.3150    1.5110 O   0  0  0  0  0  0  0  0  0  0  0  0
   -2.2780    1.8360   -0.1270 H   0  0  0  0  0  0  0  0  0  0  0  0
   -3.7730    0.3990    1.9440 H   0  0  0  0  0  0  0  0  0  0  0  0
   -3.1970    1.9430    2.5930 H   0  0  0  0  0  0  0  0  0  0  0  0
  1  8  1  0  0  0  0
  2 11  1  0  0  0  0
  2  1  1  0  0  0  0
  3 12  1  0  0  0  0
  3  2  1  0  0  0  0
  4 15  1  6  0  0  0
  4  2  1  0  0  0  0
  4  5  1  0  0  0  0
  5 17  1  0  0  0  0
  6 23  1  0  0  0  0
  6  4  1  0  0  0  0
  7  6  2  0  0  0  0
  9  1  1  0  0  0  0
 10  1  1  0  0  0  0
 13  3  1  0  0  0  0
 14  3  1  0  0  0  0
 16  5  1  0  0  0  0
 18 19  1  0  0  0  0
 19 29  1  0  0  0  0
 19 20  1  0  0  0  0
 19 21  1  0  0  0  0
 20 32  1  0  0  0  0
 21 22  1  0  0  0  0
 22 35  1  1  0  0  0
 22 24  1  0  0  0  0
 22 23  1  0  0  0  0
 23 36  1  0  0  0  0
 24 25  2  0  0  0  0
 26 18  1  0  0  0  0
 27 18  1  0  0  0  0
 28 18  1  0  0  0  0
 30 20  1  0  0  0  0
 31 20  1  0  0  0  0
 33 21  1  0  0  0  0
 34 21  1  0  0  0  0
 37 24  1  0  0  0  0
 37 38  1  0  0  0  0
 38 43  1  0  0  0  0
 38 44  1  0  0  0  0
 39 41  1  0  0  0  0
 39 38  1  0  0  0  0
 40 39  2  0  0  0  0
 42 37  1  0  0  0  0
M  END
$$$$
