VLH.pdb
 OpenBabel07022419263D

 54 54  0  0  1  0  0  0  0  0999 V2000
    4.0630   -0.5740    1.9370 C   0  0  0  0  0  0  0  0  0  0  0  0
    3.4320   -1.8400    1.4220 C   0  0  0  0  0  0  0  0  0  0  0  0
    2.8610   -2.6920    2.5270 C   0  0  0  0  0  0  0  0  0  0  0  0
    2.5220   -1.5740    0.2990 C   0  0  2  0  0  0  0  0  0  0  0  0
    3.3330   -0.9380   -0.7540 N   0  0  0  0  0  0  0  0  0  0  0  0
    1.3200   -0.8040    0.4980 C   0  0  0  0  0  0  0  0  0  0  0  0
    1.1820    0.2800   -0.1270 O   0  0  0  0  0  0  0  0  0  0  0  0
    5.1830   -0.5760    1.8070 H   0  0  0  0  0  0  0  0  0  0  0  0
    3.7260    0.3260    1.3760 H   0  0  0  0  0  0  0  0  0  0  0  0
    3.9260   -0.4460    3.0420 H   0  0  0  0  0  0  0  0  0  0  0  0
    4.2830   -2.4630    1.0050 H   0  0  0  0  0  0  0  0  0  0  0  0
    2.2470   -3.5150    2.1680 H   0  0  0  0  0  0  0  0  0  0  0  0
    3.6880   -3.1720    3.1310 H   0  0  0  0  0  0  0  0  0  0  0  0
    2.3270   -2.0450    3.2510 H   0  0  0  0  0  0  0  0  0  0  0  0
    2.2470   -2.5800   -0.1660 H   0  0  0  0  0  0  0  0  0  0  0  0
    2.8260   -0.9010   -1.6490 H   0  0  0  0  0  0  0  0  0  0  0  0
    4.2160   -1.5000   -0.7990 H   0  0  0  0  0  0  0  0  0  0  0  0
   -0.7640    1.1060    4.1320 C   0  0  0  0  0  0  0  0  0  0  0  0
   -0.0580    1.5840    2.8730 C   0  0  0  0  0  0  0  0  0  0  0  0
    1.3960    1.2980    2.9220 C   0  0  0  0  0  0  0  0  0  0  0  0
   -0.7980    1.1260    1.6550 C   0  0  0  0  0  0  0  0  0  0  0  0
   -0.9290   -0.3620    1.5030 C   0  0  2  0  0  0  0  0  0  0  0  0
    0.2220   -1.1500    1.3560 N   0  0  0  0  0  0  0  0  0  0  0  0
   -2.0700   -0.6970    0.6260 C   0  0  0  0  0  0  0  0  0  0  0  0
   -3.1640   -0.0730    0.6520 O   0  0  0  0  0  0  0  0  0  0  0  0
   -0.2390    0.2060    4.4710 H   0  0  0  0  0  0  0  0  0  0  0  0
   -1.8340    0.9380    3.8840 H   0  0  0  0  0  0  0  0  0  0  0  0
   -0.7440    1.8910    4.9150 H   0  0  0  0  0  0  0  0  0  0  0  0
   -0.1740    2.7080    2.8930 H   0  0  0  0  0  0  0  0  0  0  0  0
    1.6360    0.2450    3.1720 H   0  0  0  0  0  0  0  0  0  0  0  0
    1.8010    1.8810    3.8090 H   0  0  0  0  0  0  0  0  0  0  0  0
    1.8970    1.7170    2.0540 H   0  0  0  0  0  0  0  0  0  0  0  0
   -1.8620    1.4870    1.8100 H   0  0  0  0  0  0  0  0  0  0  0  0
   -0.4670    1.6600    0.7550 H   0  0  0  0  0  0  0  0  0  0  0  0
   -1.3150   -0.6250    2.5700 H   0  0  0  0  0  0  0  0  0  0  0  0
    0.3600   -2.0720    1.8780 H   0  0  0  0  0  0  0  0  0  0  0  0
   -2.0100   -1.7690   -0.3280 N   0  0  0  0  0  0  0  0  0  0  0  0
   -3.1360   -2.0880   -1.1830 C   0  0  1  0  0  0  0  0  0  0  0  0
   -2.6350   -1.9030   -2.6220 C   0  0  0  0  0  0  0  0  0  0  0  0
   -2.2000   -0.4990   -2.7940 C   0  0  0  0  0  0  0  0  0  0  0  0
   -3.0050    0.5330   -3.2110 C   0  0  0  0  0  0  0  0  0  0  0  0
   -2.2810    1.6640   -3.2530 N   0  0  0  0  0  0  0  0  0  0  0  0
   -1.0350    1.3630   -2.8700 C   0  0  0  0  0  0  0  0  0  0  0  0
   -0.9890    0.0350   -2.5890 N   0  0  0  0  0  0  0  0  0  0  0  0
   -3.4680   -3.5210   -1.0430 C   0  0  0  0  0  0  0  0  0  0  0  0
   -2.8100   -4.2560   -0.2730 O   0  0  0  0  0  0  0  0  0  0  0  0
   -4.5180   -4.0380   -1.7760 O   0  0  0  0  0  0  0  0  0  0  0  0
   -1.1580   -2.3250   -0.4130 H   0  0  0  0  0  0  0  0  0  0  0  0
   -3.9980   -1.4350   -1.0150 H   0  0  0  0  0  0  0  0  0  0  0  0
   -1.8280   -2.6190   -2.8480 H   0  0  0  0  0  0  0  0  0  0  0  0
   -3.4640   -2.1240   -3.3530 H   0  0  0  0  0  0  0  0  0  0  0  0
   -4.0600    0.4970   -3.4760 H   0  0  0  0  0  0  0  0  0  0  0  0
   -2.6400    2.5960   -3.5350 H   0  0  0  0  0  0  0  0  0  0  0  0
   -0.1820    2.0130   -2.7820 H   0  0  0  0  0  0  0  0  0  0  0  0
  1 10  1  0  0  0  0
  2  1  1  0  0  0  0
  2  3  1  0  0  0  0
  3 13  1  0  0  0  0
  3 14  1  0  0  0  0
  4 15  1  6  0  0  0
  4  6  1  0  0  0  0
  4  2  1  0  0  0  0
  5  4  1  0  0  0  0
  6 23  1  0  0  0  0
  7  6  2  0  0  0  0
  8  1  1  0  0  0  0
  9  1  1  0  0  0  0
 11  2  1  0  0  0  0
 12  3  1  0  0  0  0
 16  5  1  0  0  0  0
 17  5  1  0  0  0  0
 18 26  1  0  0  0  0
 18 28  1  0  0  0  0
 19 29  1  0  0  0  0
 19 20  1  0  0  0  0
 19 18  1  0  0  0  0
 20 30  1  0  0  0  0
 20 31  1  0  0  0  0
 21 33  1  0  0  0  0
 21 19  1  0  0  0  0
 22 21  1  0  0  0  0
 22 35  1  1  0  0  0
 23 22  1  0  0  0  0
 23 36  1  0  0  0  0
 24 25  2  0  0  0  0
 24 22  1  0  0  0  0
 27 18  1  0  0  0  0
 32 20  1  0  0  0  0
 34 21  1  0  0  0  0
 37 24  1  0  0  0  0
 38 45  1  0  0  0  0
 38 49  1  1  0  0  0
 38 37  1  0  0  0  0
 39 38  1  0  0  0  0
 40 39  1  0  0  0  0
 40 44  1  0  0  0  0
 41 40  2  0  0  0  0
 42 41  1  0  0  0  0
 42 43  1  0  0  0  0
 43 54  1  0  0  0  0
 43 44  2  0  0  0  0
 45 46  1  0  0  0  0
 47 45  2  0  0  0  0
 48 37  1  0  0  0  0
 50 39  1  0  0  0  0
 51 39  1  0  0  0  0
 52 41  1  0  0  0  0
 53 42  1  0  0  0  0
M  END
$$$$
