VLI.pdb
 OpenBabel07022419263D

 56 55  0  0  1  0  0  0  0  0999 V2000
    3.5390   -3.7300    2.2560 C   0  0  0  0  0  0  0  0  0  0  0  0
    2.3000   -3.8630    3.0940 C   0  0  0  0  0  0  0  0  0  0  0  0
    2.1470   -5.3100    3.4910 C   0  0  0  0  0  0  0  0  0  0  0  0
    1.0540   -3.4080    2.4020 C   0  0  2  0  0  0  0  0  0  0  0  0
    0.8150   -4.1760    1.1970 N   0  0  0  0  0  0  0  0  0  0  0  0
    1.0250   -1.9510    2.1550 C   0  0  0  0  0  0  0  0  0  0  0  0
    1.2230   -1.2060    3.1570 O   0  0  0  0  0  0  0  0  0  0  0  0
    3.3380   -3.9290    1.1920 H   0  0  0  0  0  0  0  0  0  0  0  0
    4.0350   -2.7500    2.3640 H   0  0  0  0  0  0  0  0  0  0  0  0
    4.2620   -4.4950    2.6070 H   0  0  0  0  0  0  0  0  0  0  0  0
    2.3960   -3.2750    4.0470 H   0  0  0  0  0  0  0  0  0  0  0  0
    2.5700   -5.4930    4.5050 H   0  0  0  0  0  0  0  0  0  0  0  0
    1.0620   -5.5500    3.5400 H   0  0  0  0  0  0  0  0  0  0  0  0
    2.5980   -5.9900    2.7200 H   0  0  0  0  0  0  0  0  0  0  0  0
    0.2010   -3.6340    3.0830 H   0  0  0  0  0  0  0  0  0  0  0  0
    0.0500   -3.8140    0.6220 H   0  0  0  0  0  0  0  0  0  0  0  0
    0.5210   -5.1570    1.4860 H   0  0  0  0  0  0  0  0  0  0  0  0
    2.1250    2.8570    0.6610 C   0  0  0  0  0  0  0  0  0  0  0  0
    1.7840    2.0360   -0.5600 C   0  0  0  0  0  0  0  0  0  0  0  0
    2.9780    2.2530   -1.5160 C   0  0  0  0  0  0  0  0  0  0  0  0
    1.7470    0.5690   -0.2980 C   0  0  0  0  0  0  0  0  0  0  0  0
    0.7780    0.0970    0.7170 C   0  0  2  0  0  0  0  0  0  0  0  0
    0.8000   -1.3360    0.9230 N   0  0  0  0  0  0  0  0  0  0  0  0
   -0.6260    0.5030    0.3550 C   0  0  0  0  0  0  0  0  0  0  0  0
   -0.9040    1.7130    0.1600 O   0  0  0  0  0  0  0  0  0  0  0  0
    3.1030    2.5850    1.0970 H   0  0  0  0  0  0  0  0  0  0  0  0
    1.3180    2.8730    1.4150 H   0  0  0  0  0  0  0  0  0  0  0  0
    2.2320    3.9110    0.3060 H   0  0  0  0  0  0  0  0  0  0  0  0
    0.8990    2.4570   -1.0280 H   0  0  0  0  0  0  0  0  0  0  0  0
    3.8700    1.9440   -0.9320 H   0  0  0  0  0  0  0  0  0  0  0  0
    2.8180    1.6720   -2.4250 H   0  0  0  0  0  0  0  0  0  0  0  0
    3.0500    3.3420   -1.6770 H   0  0  0  0  0  0  0  0  0  0  0  0
    2.7810    0.1940   -0.1520 H   0  0  0  0  0  0  0  0  0  0  0  0
    1.4360    0.0960   -1.2810 H   0  0  0  0  0  0  0  0  0  0  0  0
    0.9690    0.5760    1.6980 H   0  0  0  0  0  0  0  0  0  0  0  0
    0.6350   -1.9360    0.0860 H   0  0  0  0  0  0  0  0  0  0  0  0
   -2.5850    1.2640   -2.8560 C   0  0  0  0  0  0  0  0  0  0  0  0
   -2.6110   -0.2240   -2.5910 C   0  0  0  0  0  0  0  0  0  0  0  0
   -3.4820   -0.5860   -1.4290 C   0  0  2  0  0  0  0  0  0  0  0  0
   -4.8990   -0.1370   -1.7050 C   0  0  0  0  0  0  0  0  0  0  0  0
   -2.9990    0.0110   -0.1290 C   0  0  2  0  0  0  0  0  0  0  0  0
   -1.6700   -0.4210    0.2190 N   0  0  0  0  0  0  0  0  0  0  0  0
   -3.9060   -0.3000    0.9950 C   0  0  0  0  0  0  0  0  0  0  0  0
   -5.1290   -0.0320    0.9670 O   0  0  0  0  0  0  0  0  0  0  0  0
   -3.3970   -0.9100    2.1270 O   0  0  0  0  0  0  0  0  0  0  0  0
   -3.4650    1.7090   -2.3610 H   0  0  0  0  0  0  0  0  0  0  0  0
   -2.5890    1.4770   -3.9640 H   0  0  0  0  0  0  0  0  0  0  0  0
   -1.6240    1.6860   -2.4940 H   0  0  0  0  0  0  0  0  0  0  0  0
   -3.0700   -0.6920   -3.4970 H   0  0  0  0  0  0  0  0  0  0  0  0
   -1.5920   -0.6350   -2.5170 H   0  0  0  0  0  0  0  0  0  0  0  0
   -3.5120   -1.6870   -1.3010 H   0  0  0  0  0  0  0  0  0  0  0  0
   -5.5980   -0.8200   -1.1880 H   0  0  0  0  0  0  0  0  0  0  0  0
   -5.0200    0.8580   -1.2190 H   0  0  0  0  0  0  0  0  0  0  0  0
   -5.1540   -0.1450   -2.7670 H   0  0  0  0  0  0  0  0  0  0  0  0
   -3.0410    1.1210   -0.2600 H   0  0  0  0  0  0  0  0  0  0  0  0
   -1.4900   -1.4290    0.3700 H   0  0  0  0  0  0  0  0  0  0  0  0
  1  9  1  0  0  0  0
  1 10  1  0  0  0  0
  1  2  1  0  0  0  0
  2  3  1  0  0  0  0
  2 11  1  0  0  0  0
  3 13  1  0  0  0  0
  3 12  1  0  0  0  0
  4 15  1  1  0  0  0
  4  2  1  0  0  0  0
  5 17  1  0  0  0  0
  5  4  1  0  0  0  0
  6  4  1  0  0  0  0
  6  7  2  0  0  0  0
  8  1  1  0  0  0  0
 14  3  1  0  0  0  0
 16  5  1  0  0  0  0
 18 26  1  0  0  0  0
 18 27  1  0  0  0  0
 19 21  1  0  0  0  0
 19 18  1  0  0  0  0
 20 30  1  0  0  0  0
 20 19  1  0  0  0  0
 21 33  1  0  0  0  0
 21 22  1  0  0  0  0
 22 23  1  0  0  0  0
 22 35  1  1  0  0  0
 23  6  1  0  0  0  0
 24 22  1  0  0  0  0
 25 24  2  0  0  0  0
 28 18  1  0  0  0  0
 29 19  1  0  0  0  0
 31 20  1  0  0  0  0
 32 20  1  0  0  0  0
 34 21  1  0  0  0  0
 36 23  1  0  0  0  0
 37 38  1  0  0  0  0
 37 48  1  0  0  0  0
 37 46  1  0  0  0  0
 38 50  1  0  0  0  0
 38 39  1  0  0  0  0
 39 51  1  1  0  0  0
 39 41  1  0  0  0  0
 40 39  1  0  0  0  0
 40 53  1  0  0  0  0
 40 52  1  0  0  0  0
 41 55  1  6  0  0  0
 41 42  1  0  0  0  0
 41 43  1  0  0  0  0
 42 24  1  0  0  0  0
 42 56  1  0  0  0  0
 43 45  1  0  0  0  0
 44 43  2  0  0  0  0
 47 37  1  0  0  0  0
 49 38  1  0  0  0  0
 54 40  1  0  0  0  0
M  END
$$$$
