VLL.pdb
 OpenBabel07022419263D

 56 55  0  0  1  0  0  0  0  0999 V2000
    4.2500   -3.1090    1.1940 C   0  0  0  0  0  0  0  0  0  0  0  0
    3.2260   -3.7560    2.0670 C   0  0  0  0  0  0  0  0  0  0  0  0
    3.3770   -5.2590    1.9290 C   0  0  0  0  0  0  0  0  0  0  0  0
    1.8100   -3.4120    1.7040 C   0  0  2  0  0  0  0  0  0  0  0  0
    1.5090   -3.8160    0.3640 N   0  0  0  0  0  0  0  0  0  0  0  0
    1.5040   -1.9700    1.9430 C   0  0  0  0  0  0  0  0  0  0  0  0
    1.7130   -1.4560    3.0720 O   0  0  0  0  0  0  0  0  0  0  0  0
    4.0420   -3.3370    0.1190 H   0  0  0  0  0  0  0  0  0  0  0  0
    4.4280   -2.0490    1.3920 H   0  0  0  0  0  0  0  0  0  0  0  0
    5.2290   -3.6290    1.4020 H   0  0  0  0  0  0  0  0  0  0  0  0
    3.4380   -3.5170    3.1260 H   0  0  0  0  0  0  0  0  0  0  0  0
    4.4150   -5.5560    1.6780 H   0  0  0  0  0  0  0  0  0  0  0  0
    3.0070   -5.7490    2.8650 H   0  0  0  0  0  0  0  0  0  0  0  0
    2.6940   -5.5890    1.1190 H   0  0  0  0  0  0  0  0  0  0  0  0
    1.1460   -3.9860    2.3870 H   0  0  0  0  0  0  0  0  0  0  0  0
    1.9200   -3.1630   -0.3090 H   0  0  0  0  0  0  0  0  0  0  0  0
    0.4540   -3.8970    0.2890 H   0  0  0  0  0  0  0  0  0  0  0  0
    0.2080    3.1440   -0.3500 C   0  0  0  0  0  0  0  0  0  0  0  0
    1.4630    2.4460   -0.0050 C   0  0  0  0  0  0  0  0  0  0  0  0
    1.9650    3.0990    1.3090 C   0  0  0  0  0  0  0  0  0  0  0  0
    1.4760    0.9850    0.1250 C   0  0  0  0  0  0  0  0  0  0  0  0
    0.6620    0.2910    1.1330 C   0  0  2  0  0  0  0  0  0  0  0  0
    0.9820   -1.1560    0.9330 N   0  0  0  0  0  0  0  0  0  0  0  0
   -0.8070    0.4260    1.0470 C   0  0  0  0  0  0  0  0  0  0  0  0
   -1.4590    1.4740    1.2690 O   0  0  0  0  0  0  0  0  0  0  0  0
    0.4920    4.0130   -1.0460 H   0  0  0  0  0  0  0  0  0  0  0  0
   -0.2660    3.7160    0.5030 H   0  0  0  0  0  0  0  0  0  0  0  0
   -0.5180    2.5840   -0.9610 H   0  0  0  0  0  0  0  0  0  0  0  0
    2.2630    2.7800   -0.7470 H   0  0  0  0  0  0  0  0  0  0  0  0
    1.3380    2.7270    2.1400 H   0  0  0  0  0  0  0  0  0  0  0  0
    3.0180    2.8300    1.4900 H   0  0  0  0  0  0  0  0  0  0  0  0
    1.8190    4.1880    1.2490 H   0  0  0  0  0  0  0  0  0  0  0  0
    1.1890    0.5590   -0.8980 H   0  0  0  0  0  0  0  0  0  0  0  0
    2.5750    0.6750    0.1820 H   0  0  0  0  0  0  0  0  0  0  0  0
    0.9420    0.5490    2.1780 H   0  0  0  0  0  0  0  0  0  0  0  0
    0.7810   -1.4940   -0.0260 H   0  0  0  0  0  0  0  0  0  0  0  0
   -3.4300    1.2220   -1.8230 C   0  0  0  0  0  0  0  0  0  0  0  0
   -3.0660   -0.2280   -1.9120 C   0  0  0  0  0  0  0  0  0  0  0  0
   -3.7190   -0.7800   -3.1820 C   0  0  0  0  0  0  0  0  0  0  0  0
   -3.5750   -1.0490   -0.7760 C   0  0  0  0  0  0  0  0  0  0  0  0
   -3.0760   -0.6280    0.5810 C   0  0  2  0  0  0  0  0  0  0  0  0
   -1.6370   -0.7010    0.6820 N   0  0  0  0  0  0  0  0  0  0  0  0
   -3.6520   -1.5900    1.5530 C   0  0  0  0  0  0  0  0  0  0  0  0
   -2.8810   -2.2740    2.2660 O   0  0  0  0  0  0  0  0  0  0  0  0
   -5.0200   -1.7660    1.7080 O   0  0  0  0  0  0  0  0  0  0  0  0
   -4.4750    1.3870   -1.4890 H   0  0  0  0  0  0  0  0  0  0  0  0
   -2.7550    1.7430   -1.1360 H   0  0  0  0  0  0  0  0  0  0  0  0
   -3.3260    1.7100   -2.8140 H   0  0  0  0  0  0  0  0  0  0  0  0
   -1.9770   -0.3480   -1.9690 H   0  0  0  0  0  0  0  0  0  0  0  0
   -3.5570   -0.0660   -4.0120 H   0  0  0  0  0  0  0  0  0  0  0  0
   -3.3130   -1.7870   -3.4180 H   0  0  0  0  0  0  0  0  0  0  0  0
   -4.8070   -0.9140   -3.0380 H   0  0  0  0  0  0  0  0  0  0  0  0
   -4.6900   -1.0310   -0.7290 H   0  0  0  0  0  0  0  0  0  0  0  0
   -3.3020   -2.1080   -0.9720 H   0  0  0  0  0  0  0  0  0  0  0  0
   -3.4480    0.4010    0.7920 H   0  0  0  0  0  0  0  0  0  0  0  0
   -1.1780   -1.6100    0.4810 H   0  0  0  0  0  0  0  0  0  0  0  0
  1  9  1  0  0  0  0
  1 10  1  0  0  0  0
  1  2  1  0  0  0  0
  2 11  1  0  0  0  0
  3  2  1  0  0  0  0
  3 13  1  0  0  0  0
  4  6  1  0  0  0  0
  4  2  1  0  0  0  0
  4 15  1  1  0  0  0
  5  4  1  0  0  0  0
  6  7  2  0  0  0  0
  8  1  1  0  0  0  0
 12  3  1  0  0  0  0
 14  3  1  0  0  0  0
 16  5  1  0  0  0  0
 17  5  1  0  0  0  0
 18 19  1  0  0  0  0
 18 27  1  0  0  0  0
 19 21  1  0  0  0  0
 19 20  1  0  0  0  0
 20 31  1  0  0  0  0
 20 30  1  0  0  0  0
 21 34  1  0  0  0  0
 21 22  1  0  0  0  0
 22 35  1  1  0  0  0
 23 22  1  0  0  0  0
 23  6  1  0  0  0  0
 24 22  1  0  0  0  0
 24 25  2  0  0  0  0
 26 18  1  0  0  0  0
 28 18  1  0  0  0  0
 29 19  1  0  0  0  0
 32 20  1  0  0  0  0
 33 21  1  0  0  0  0
 36 23  1  0  0  0  0
 37 46  1  0  0  0  0
 37 47  1  0  0  0  0
 38 37  1  0  0  0  0
 38 40  1  0  0  0  0
 39 52  1  0  0  0  0
 39 38  1  0  0  0  0
 40 53  1  0  0  0  0
 40 41  1  0  0  0  0
 41 42  1  0  0  0  0
 41 55  1  1  0  0  0
 41 43  1  0  0  0  0
 42 24  1  0  0  0  0
 43 45  2  0  0  0  0
 43 44  1  0  0  0  0
 48 37  1  0  0  0  0
 49 38  1  0  0  0  0
 50 39  1  0  0  0  0
 51 39  1  0  0  0  0
 54 40  1  0  0  0  0
 56 42  1  0  0  0  0
M  END
$$$$
