VLP.pdb
 OpenBabel07022419263D

 51 51  0  0  1  0  0  0  0  0999 V2000
    2.1860   -4.4240   -1.3170 C   0  0  0  0  0  0  0  0  0  0  0  0
    1.9810   -3.5050   -0.1070 C   0  0  0  0  0  0  0  0  0  0  0  0
    2.1570   -4.3430    1.1260 C   0  0  0  0  0  0  0  0  0  0  0  0
    0.5940   -2.9110   -0.2060 C   0  0  2  0  0  0  0  0  0  0  0  0
    0.5070   -2.1590   -1.4440 N   0  0  0  0  0  0  0  0  0  0  0  0
    0.4370   -1.9690    0.9300 C   0  0  0  0  0  0  0  0  0  0  0  0
    0.5130   -2.4040    2.1120 O   0  0  0  0  0  0  0  0  0  0  0  0
    2.9950   -5.1280   -1.0450 H   0  0  0  0  0  0  0  0  0  0  0  0
    1.2310   -4.9120   -1.5440 H   0  0  0  0  0  0  0  0  0  0  0  0
    2.5000   -3.7650   -2.1480 H   0  0  0  0  0  0  0  0  0  0  0  0
    2.7620   -2.7320   -0.1020 H   0  0  0  0  0  0  0  0  0  0  0  0
    2.7870   -3.8230    1.9060 H   0  0  0  0  0  0  0  0  0  0  0  0
    1.1830   -4.6740    1.5610 H   0  0  0  0  0  0  0  0  0  0  0  0
    2.7100   -5.2760    0.8900 H   0  0  0  0  0  0  0  0  0  0  0  0
   -0.1790   -3.7080   -0.1570 H   0  0  0  0  0  0  0  0  0  0  0  0
    1.4250   -1.8920   -1.8240 H   0  0  0  0  0  0  0  0  0  0  0  0
   -0.0700   -2.6990   -2.1290 H   0  0  0  0  0  0  0  0  0  0  0  0
    3.1400    2.6190    2.0110 C   0  0  0  0  0  0  0  0  0  0  0  0
    2.3940    1.2680    1.9190 C   0  0  0  0  0  0  0  0  0  0  0  0
    2.7860    0.6250    0.5930 C   0  0  0  0  0  0  0  0  0  0  0  0
    0.9230    1.4910    1.9220 C   0  0  0  0  0  0  0  0  0  0  0  0
    0.0560    0.2720    1.8580 C   0  0  2  0  0  0  0  0  0  0  0  0
    0.1970   -0.5590    0.7240 N   0  0  0  0  0  0  0  0  0  0  0  0
   -1.3470    0.7740    2.0900 C   0  0  0  0  0  0  0  0  0  0  0  0
   -1.4200    1.4910    3.1540 O   0  0  0  0  0  0  0  0  0  0  0  0
    2.7620    3.1990    2.8620 H   0  0  0  0  0  0  0  0  0  0  0  0
    3.1270    3.1490    1.0580 H   0  0  0  0  0  0  0  0  0  0  0  0
    4.2090    2.3600    2.2380 H   0  0  0  0  0  0  0  0  0  0  0  0
    2.7080    0.6930    2.7880 H   0  0  0  0  0  0  0  0  0  0  0  0
    2.1510    0.9930   -0.2350 H   0  0  0  0  0  0  0  0  0  0  0  0
    2.8520   -0.4690    0.6470 H   0  0  0  0  0  0  0  0  0  0  0  0
    3.8110    1.0460    0.3460 H   0  0  0  0  0  0  0  0  0  0  0  0
    0.7020    2.0540    2.8790 H   0  0  0  0  0  0  0  0  0  0  0  0
    0.6040    2.2320    1.1300 H   0  0  0  0  0  0  0  0  0  0  0  0
    0.2710   -0.3070    2.7960 H   0  0  0  0  0  0  0  0  0  0  0  0
    0.1530   -0.2800   -0.2590 H   0  0  0  0  0  0  0  0  0  0  0  0
   -2.4640    0.5390    1.3090 N   0  0  0  0  0  0  0  0  0  0  0  0
   -3.7960    1.0880    1.6880 C   0  0  0  0  0  0  0  0  0  0  0  0
   -4.6580   -0.1500    1.3910 C   0  0  0  0  0  0  0  0  0  0  0  0
   -4.1680   -0.4810    0.0060 C   0  0  0  0  0  0  0  0  0  0  0  0
   -2.6960   -0.1820    0.0790 C   0  0  1  0  0  0  0  0  0  0  0  0
   -2.3940    0.6510   -1.1200 C   0  0  0  0  0  0  0  0  0  0  0  0
   -1.9930    1.8210   -1.0790 O   0  0  0  0  0  0  0  0  0  0  0  0
   -2.5840    0.0520   -2.3580 O   0  0  0  0  0  0  0  0  0  0  0  0
   -3.8390    1.3930    2.7270 H   0  0  0  0  0  0  0  0  0  0  0  0
   -4.0940    1.8490    0.9450 H   0  0  0  0  0  0  0  0  0  0  0  0
   -4.3410   -0.9560    2.0750 H   0  0  0  0  0  0  0  0  0  0  0  0
   -5.7240    0.0860    1.4330 H   0  0  0  0  0  0  0  0  0  0  0  0
   -4.6900    0.2320   -0.6970 H   0  0  0  0  0  0  0  0  0  0  0  0
   -4.3770   -1.5330   -0.2790 H   0  0  0  0  0  0  0  0  0  0  0  0
   -2.1700   -1.1330    0.0780 H   0  0  0  0  0  0  0  0  0  0  0  0
  1  8  1  0  0  0  0
  1  2  1  0  0  0  0
  2 11  1  0  0  0  0
  2  3  1  0  0  0  0
  3 13  1  0  0  0  0
  3 12  1  0  0  0  0
  4 15  1  1  0  0  0
  4  2  1  0  0  0  0
  4  6  1  0  0  0  0
  5  4  1  0  0  0  0
  6  7  2  0  0  0  0
  9  1  1  0  0  0  0
 10  1  1  0  0  0  0
 14  3  1  0  0  0  0
 16  5  1  0  0  0  0
 17  5  1  0  0  0  0
 18 28  1  0  0  0  0
 18 26  1  0  0  0  0
 19 21  1  0  0  0  0
 19 18  1  0  0  0  0
 19 29  1  0  0  0  0
 20 31  1  0  0  0  0
 20 19  1  0  0  0  0
 21 33  1  0  0  0  0
 22 21  1  0  0  0  0
 22 24  1  0  0  0  0
 22 35  1  1  0  0  0
 23  6  1  0  0  0  0
 23 22  1  0  0  0  0
 24 25  2  0  0  0  0
 27 18  1  0  0  0  0
 30 20  1  0  0  0  0
 32 20  1  0  0  0  0
 34 21  1  0  0  0  0
 36 23  1  0  0  0  0
 37 38  1  0  0  0  0
 37 24  1  0  0  0  0
 38 45  1  0  0  0  0
 39 48  1  0  0  0  0
 39 38  1  0  0  0  0
 39 47  1  0  0  0  0
 40 41  1  0  0  0  0
 40 39  1  0  0  0  0
 41 51  1  6  0  0  0
 41 37  1  0  0  0  0
 42 43  1  0  0  0  0
 42 41  1  0  0  0  0
 44 42  2  0  0  0  0
 46 38  1  0  0  0  0
 49 40  1  0  0  0  0
 50 40  1  0  0  0  0
M  END
$$$$
