VLS.pdb
 OpenBabel07022419263D

 48 47  0  0  1  0  0  0  0  0999 V2000
   -1.5210   -2.1930   -2.0010 C   0  0  0  0  0  0  0  0  0  0  0  0
   -0.2620   -2.9740   -2.2130 C   0  0  0  0  0  0  0  0  0  0  0  0
   -0.2450   -4.2750   -1.4370 C   0  0  0  0  0  0  0  0  0  0  0  0
    1.0020   -2.1930   -2.0640 C   0  0  2  0  0  0  0  0  0  0  0  0
    2.1070   -3.1580   -2.3330 N   0  0  0  0  0  0  0  0  0  0  0  0
    1.2850   -1.5960   -0.7730 C   0  0  0  0  0  0  0  0  0  0  0  0
    2.2130   -2.1330   -0.0630 O   0  0  0  0  0  0  0  0  0  0  0  0
   -1.3240   -1.1340   -2.2580 H   0  0  0  0  0  0  0  0  0  0  0  0
   -1.9060   -2.2260   -0.9770 H   0  0  0  0  0  0  0  0  0  0  0  0
   -2.3220   -2.6040   -2.6650 H   0  0  0  0  0  0  0  0  0  0  0  0
   -0.2860   -3.2940   -3.3000 H   0  0  0  0  0  0  0  0  0  0  0  0
    0.0430   -5.1460   -2.0630 H   0  0  0  0  0  0  0  0  0  0  0  0
    0.5070   -4.2500   -0.6070 H   0  0  0  0  0  0  0  0  0  0  0  0
   -1.2630   -4.5170   -1.0430 H   0  0  0  0  0  0  0  0  0  0  0  0
    1.0580   -1.4790   -2.9220 H   0  0  0  0  0  0  0  0  0  0  0  0
    2.2110   -3.2810   -3.3630 H   0  0  0  0  0  0  0  0  0  0  0  0
    2.9900   -2.8150   -1.8820 H   0  0  0  0  0  0  0  0  0  0  0  0
    2.9320    3.2190    2.1910 C   0  0  0  0  0  0  0  0  0  0  0  0
    2.2010    1.8820    2.3540 C   0  0  0  0  0  0  0  0  0  0  0  0
    3.0460    0.9380    3.1560 C   0  0  0  0  0  0  0  0  0  0  0  0
    1.7840    1.3380    1.0190 C   0  0  0  0  0  0  0  0  0  0  0  0
    1.0770    0.0310    1.1700 C   0  0  2  0  0  0  0  0  0  0  0  0
    0.6870   -0.4860   -0.1600 N   0  0  0  0  0  0  0  0  0  0  0  0
   -0.0590    0.0160    2.0930 C   0  0  0  0  0  0  0  0  0  0  0  0
    0.0260    0.3130    3.3160 O   0  0  0  0  0  0  0  0  0  0  0  0
    2.8780    3.7290    3.1850 H   0  0  0  0  0  0  0  0  0  0  0  0
    3.9940    3.0760    1.9410 H   0  0  0  0  0  0  0  0  0  0  0  0
    2.3720    3.8240    1.4740 H   0  0  0  0  0  0  0  0  0  0  0  0
    1.2850    2.1300    2.9370 H   0  0  0  0  0  0  0  0  0  0  0  0
    3.9870    1.4950    3.4390 H   0  0  0  0  0  0  0  0  0  0  0  0
    2.6070    0.6570    4.1440 H   0  0  0  0  0  0  0  0  0  0  0  0
    3.4060    0.0630    2.5790 H   0  0  0  0  0  0  0  0  0  0  0  0
    1.1850    2.1040    0.4870 H   0  0  0  0  0  0  0  0  0  0  0  0
    2.7370    1.1170    0.4620 H   0  0  0  0  0  0  0  0  0  0  0  0
    1.8380   -0.6870    1.5430 H   0  0  0  0  0  0  0  0  0  0  0  0
   -0.0650    0.0260   -0.6380 H   0  0  0  0  0  0  0  0  0  0  0  0
   -3.9690    0.4000    0.8570 O   0  0  0  0  0  0  0  0  0  0  0  0
   -3.5370    0.6700    2.1440 C   0  0  0  0  0  0  0  0  0  0  0  0
   -2.5090   -0.3690    2.5500 C   0  0  2  0  0  0  0  0  0  0  0  0
   -1.3710   -0.3450    1.6570 N   0  0  0  0  0  0  0  0  0  0  0  0
   -3.0960   -1.7070    2.6880 C   0  0  0  0  0  0  0  0  0  0  0  0
   -2.6590   -2.7110    2.0980 O   0  0  0  0  0  0  0  0  0  0  0  0
   -4.1940   -1.8550    3.5210 O   0  0  0  0  0  0  0  0  0  0  0  0
   -4.2830    1.2290    0.4220 H   0  0  0  0  0  0  0  0  0  0  0  0
   -3.1100    1.6920    2.1920 H   0  0  0  0  0  0  0  0  0  0  0  0
   -4.4170    0.6570    2.8070 H   0  0  0  0  0  0  0  0  0  0  0  0
   -2.1370   -0.0660    3.5540 H   0  0  0  0  0  0  0  0  0  0  0  0
   -1.4890   -0.5920    0.6560 H   0  0  0  0  0  0  0  0  0  0  0  0
  1  9  1  0  0  0  0
  2  4  1  0  0  0  0
  2  1  1  0  0  0  0
  2  3  1  0  0  0  0
  3 14  1  0  0  0  0
  3 13  1  0  0  0  0
  4 15  1  6  0  0  0
  4  6  1  0  0  0  0
  5  4  1  0  0  0  0
  5 17  1  0  0  0  0
  6 23  1  0  0  0  0
  6  7  2  0  0  0  0
  8  1  1  0  0  0  0
 10  1  1  0  0  0  0
 11  2  1  0  0  0  0
 12  3  1  0  0  0  0
 16  5  1  0  0  0  0
 18 19  1  0  0  0  0
 18 26  1  0  0  0  0
 19 29  1  0  0  0  0
 19 20  1  0  0  0  0
 20 30  1  0  0  0  0
 20 31  1  0  0  0  0
 21 22  1  0  0  0  0
 21 19  1  0  0  0  0
 22 35  1  1  0  0  0
 22 24  1  0  0  0  0
 23 22  1  0  0  0  0
 24 25  2  0  0  0  0
 27 18  1  0  0  0  0
 28 18  1  0  0  0  0
 32 20  1  0  0  0  0
 33 21  1  0  0  0  0
 34 21  1  0  0  0  0
 36 23  1  0  0  0  0
 37 38  1  0  0  0  0
 38 45  1  0  0  0  0
 38 39  1  0  0  0  0
 38 46  1  0  0  0  0
 39 41  1  0  0  0  0
 39 47  1  1  0  0  0
 40 24  1  0  0  0  0
 40 39  1  0  0  0  0
 41 43  1  0  0  0  0
 42 41  2  0  0  0  0
 44 37  1  0  0  0  0
 48 40  1  0  0  0  0
M  END
$$$$
