VLV.pdb
 OpenBabel07022419263D

 53 52  0  0  1  0  0  0  0  0999 V2000
    3.8380   -4.1960   -2.6110 C   0  0  0  0  0  0  0  0  0  0  0  0
    3.0690   -3.7730   -1.3780 C   0  0  0  0  0  0  0  0  0  0  0  0
    2.5690   -5.0220   -0.7060 C   0  0  0  0  0  0  0  0  0  0  0  0
    1.9400   -2.8270   -1.7350 C   0  0  2  0  0  0  0  0  0  0  0  0
    2.4340   -1.6270   -2.3740 N   0  0  0  0  0  0  0  0  0  0  0  0
    1.1230   -2.4920   -0.5230 C   0  0  0  0  0  0  0  0  0  0  0  0
    0.5930   -3.3690    0.1890 O   0  0  0  0  0  0  0  0  0  0  0  0
    4.4240   -5.1110   -2.3110 H   0  0  0  0  0  0  0  0  0  0  0  0
    3.1390   -4.5360   -3.4180 H   0  0  0  0  0  0  0  0  0  0  0  0
    4.5330   -3.4350   -2.9780 H   0  0  0  0  0  0  0  0  0  0  0  0
    3.7820   -3.2590   -0.7080 H   0  0  0  0  0  0  0  0  0  0  0  0
    2.6010   -4.9640    0.3960 H   0  0  0  0  0  0  0  0  0  0  0  0
    1.5730   -5.3120   -1.1010 H   0  0  0  0  0  0  0  0  0  0  0  0
    3.2480   -5.8810   -0.9760 H   0  0  0  0  0  0  0  0  0  0  0  0
    1.3140   -3.3560   -2.4850 H   0  0  0  0  0  0  0  0  0  0  0  0
    3.1720   -1.9160   -3.0550 H   0  0  0  0  0  0  0  0  0  0  0  0
    1.6570   -1.2240   -2.9800 H   0  0  0  0  0  0  0  0  0  0  0  0
    2.7500    1.0680    1.0170 C   0  0  0  0  0  0  0  0  0  0  0  0
    1.6280    1.0720    2.0190 C   0  0  0  0  0  0  0  0  0  0  0  0
    0.7770    2.3230    1.9070 C   0  0  0  0  0  0  0  0  0  0  0  0
    0.8660   -0.1730    2.1570 C   0  0  0  0  0  0  0  0  0  0  0  0
    0.1310   -0.7660    1.0360 C   0  0  2  0  0  0  0  0  0  0  0  0
    0.9130   -1.1310   -0.1260 N   0  0  0  0  0  0  0  0  0  0  0  0
   -1.0790   -0.0320    0.6120 C   0  0  0  0  0  0  0  0  0  0  0  0
   -1.2450    0.1680   -0.6100 O   0  0  0  0  0  0  0  0  0  0  0  0
    3.6350    1.5940    1.4570 H   0  0  0  0  0  0  0  0  0  0  0  0
    3.1160    0.0450    0.8000 H   0  0  0  0  0  0  0  0  0  0  0  0
    2.4660    1.5190    0.0480 H   0  0  0  0  0  0  0  0  0  0  0  0
    2.1460    1.2010    3.0240 H   0  0  0  0  0  0  0  0  0  0  0  0
    1.3890    3.2140    1.6540 H   0  0  0  0  0  0  0  0  0  0  0  0
    0.2650    2.5660    2.8560 H   0  0  0  0  0  0  0  0  0  0  0  0
    0.0870    2.1840    1.0490 H   0  0  0  0  0  0  0  0  0  0  0  0
    1.5640   -0.9600    2.5650 H   0  0  0  0  0  0  0  0  0  0  0  0
    0.1380   -0.0200    3.0060 H   0  0  0  0  0  0  0  0  0  0  0  0
   -0.2770   -1.7480    1.4610 H   0  0  0  0  0  0  0  0  0  0  0  0
    1.3640   -0.4270   -0.7460 H   0  0  0  0  0  0  0  0  0  0  0  0
   -4.6640    0.0620    2.7850 C   0  0  0  0  0  0  0  0  0  0  0  0
   -4.4840    0.3620    1.3340 C   0  0  0  0  0  0  0  0  0  0  0  0
   -4.5080   -0.8690    0.4560 C   0  0  0  0  0  0  0  0  0  0  0  0
   -3.2540    1.1850    1.0410 C   0  0  2  0  0  0  0  0  0  0  0  0
   -2.0760    0.4690    1.4880 N   0  0  0  0  0  0  0  0  0  0  0  0
   -3.3470    2.5460    1.6080 C   0  0  0  0  0  0  0  0  0  0  0  0
   -4.3250    3.2610    1.2910 O   0  0  0  0  0  0  0  0  0  0  0  0
   -2.4070    3.0740    2.4730 O   0  0  0  0  0  0  0  0  0  0  0  0
   -4.4830   -1.0350    2.9260 H   0  0  0  0  0  0  0  0  0  0  0  0
   -4.0350    0.6800    3.4510 H   0  0  0  0  0  0  0  0  0  0  0  0
   -5.7190    0.2190    3.1410 H   0  0  0  0  0  0  0  0  0  0  0  0
   -5.3640    0.9890    1.0090 H   0  0  0  0  0  0  0  0  0  0  0  0
   -5.5270   -1.3120    0.4180 H   0  0  0  0  0  0  0  0  0  0  0  0
   -4.2070   -0.5470   -0.5690 H   0  0  0  0  0  0  0  0  0  0  0  0
   -3.7980   -1.5940    0.8760 H   0  0  0  0  0  0  0  0  0  0  0  0
   -3.1820    1.2450   -0.0750 H   0  0  0  0  0  0  0  0  0  0  0  0
   -1.9650    0.3180    2.5220 H   0  0  0  0  0  0  0  0  0  0  0  0
  1  8  1  0  0  0  0
  1  2  1  0  0  0  0
  2 11  1  0  0  0  0
  2  3  1  0  0  0  0
  3 12  1  0  0  0  0
  4 15  1  6  0  0  0
  4  2  1  0  0  0  0
  4  6  1  0  0  0  0
  5  4  1  0  0  0  0
  6 23  1  0  0  0  0
  6  7  2  0  0  0  0
  9  1  1  0  0  0  0
 10  1  1  0  0  0  0
 13  3  1  0  0  0  0
 14  3  1  0  0  0  0
 16  5  1  0  0  0  0
 17  5  1  0  0  0  0
 18 26  1  0  0  0  0
 18 19  1  0  0  0  0
 19 21  1  0  0  0  0
 19 29  1  0  0  0  0
 20 19  1  0  0  0  0
 20 31  1  0  0  0  0
 21 33  1  0  0  0  0
 21 34  1  0  0  0  0
 22 35  1  1  0  0  0
 22 21  1  0  0  0  0
 23 22  1  0  0  0  0
 24 22  1  0  0  0  0
 24 41  1  0  0  0  0
 25 24  2  0  0  0  0
 27 18  1  0  0  0  0
 28 18  1  0  0  0  0
 30 20  1  0  0  0  0
 32 20  1  0  0  0  0
 36 23  1  0  0  0  0
 37 45  1  0  0  0  0
 37 47  1  0  0  0  0
 37 46  1  0  0  0  0
 38 37  1  0  0  0  0
 39 51  1  0  0  0  0
 39 38  1  0  0  0  0
 40 52  1  6  0  0  0
 40 38  1  0  0  0  0
 40 41  1  0  0  0  0
 40 42  1  0  0  0  0
 41 53  1  0  0  0  0
 42 44  1  0  0  0  0
 43 42  2  0  0  0  0
 48 38  1  0  0  0  0
 49 39  1  0  0  0  0
 50 39  1  0  0  0  0
M  END
$$$$
