VMA.pdb
 OpenBabel07022419263D

 45 44  0  0  1  0  0  0  0  0999 V2000
    2.9270   -4.7360    1.4270 C   0  0  0  0  0  0  0  0  0  0  0  0
    2.8660   -4.2040    0.0240 C   0  0  0  0  0  0  0  0  0  0  0  0
    3.9680   -3.2250   -0.1970 C   0  0  0  0  0  0  0  0  0  0  0  0
    1.4970   -3.6840   -0.2550 C   0  0  2  0  0  0  0  0  0  0  0  0
    1.3200   -3.1490   -1.5690 N   0  0  0  0  0  0  0  0  0  0  0  0
    1.0640   -2.6780    0.7640 C   0  0  0  0  0  0  0  0  0  0  0  0
    1.1330   -2.9140    1.9980 O   0  0  0  0  0  0  0  0  0  0  0  0
    1.9240   -5.1030    1.6920 H   0  0  0  0  0  0  0  0  0  0  0  0
    3.6540   -5.5990    1.4390 H   0  0  0  0  0  0  0  0  0  0  0  0
    3.3310   -3.9990    2.1520 H   0  0  0  0  0  0  0  0  0  0  0  0
    3.0390   -5.0670   -0.6680 H   0  0  0  0  0  0  0  0  0  0  0  0
    4.9170   -3.7240    0.1580 H   0  0  0  0  0  0  0  0  0  0  0  0
    4.1620   -2.9890   -1.2630 H   0  0  0  0  0  0  0  0  0  0  0  0
    3.8510   -2.3380    0.4400 H   0  0  0  0  0  0  0  0  0  0  0  0
    0.8000   -4.5690   -0.1610 H   0  0  0  0  0  0  0  0  0  0  0  0
    2.1810   -2.9060   -2.0720 H   0  0  0  0  0  0  0  0  0  0  0  0
    0.6120   -3.6500   -2.1130 H   0  0  0  0  0  0  0  0  0  0  0  0
    1.1120    4.2680    0.5450 C   0  0  0  0  0  0  0  0  0  0  0  0
    1.7700    2.9420   -0.4730 S   0  0  0  0  0  0  0  0  0  0  0  0
    0.7910    1.4250   -0.3340 C   0  0  0  0  0  0  0  0  0  0  0  0
    0.9110    0.8750    1.0600 C   0  0  0  0  0  0  0  0  0  0  0  0
    0.1180   -0.3900    1.2490 C   0  0  2  0  0  0  0  0  0  0  0  0
    0.5640   -1.4320    0.3430 N   0  0  0  0  0  0  0  0  0  0  0  0
   -1.3410   -0.1660    1.0790 C   0  0  0  0  0  0  0  0  0  0  0  0
   -1.9770   -0.8600    0.2310 O   0  0  0  0  0  0  0  0  0  0  0  0
    1.0320    5.2060   -0.0770 H   0  0  0  0  0  0  0  0  0  0  0  0
    1.7540    4.4820    1.4370 H   0  0  0  0  0  0  0  0  0  0  0  0
    0.0960    4.0050    0.9430 H   0  0  0  0  0  0  0  0  0  0  0  0
    1.2680    0.6720   -1.0150 H   0  0  0  0  0  0  0  0  0  0  0  0
   -0.2400    1.5770   -0.6560 H   0  0  0  0  0  0  0  0  0  0  0  0
    1.9590    0.6480    1.2980 H   0  0  0  0  0  0  0  0  0  0  0  0
    0.5500    1.6340    1.7770 H   0  0  0  0  0  0  0  0  0  0  0  0
    0.2550   -0.7620    2.2810 H   0  0  0  0  0  0  0  0  0  0  0  0
    0.5170   -1.2610   -0.7050 H   0  0  0  0  0  0  0  0  0  0  0  0
   -4.2810    0.7190    2.8710 C   0  0  0  0  0  0  0  0  0  0  0  0
   -3.4850    0.9800    1.6280 C   0  0  2  0  0  0  0  0  0  0  0  0
   -2.0750    0.7820    1.8100 N   0  0  0  0  0  0  0  0  0  0  0  0
   -3.8140    2.3280    1.1180 C   0  0  0  0  0  0  0  0  0  0  0  0
   -5.0170    2.6250    0.9170 O   0  0  0  0  0  0  0  0  0  0  0  0
   -2.8560    3.2930    0.8450 O   0  0  0  0  0  0  0  0  0  0  0  0
   -5.2750    1.2170    2.8200 H   0  0  0  0  0  0  0  0  0  0  0  0
   -3.7780    1.1180    3.7840 H   0  0  0  0  0  0  0  0  0  0  0  0
   -4.4350   -0.3620    2.9890 H   0  0  0  0  0  0  0  0  0  0  0  0
   -3.8470    0.2580    0.8380 H   0  0  0  0  0  0  0  0  0  0  0  0
   -1.5650    1.3710    2.5210 H   0  0  0  0  0  0  0  0  0  0  0  0
  1  9  1  0  0  0  0
  1  8  1  0  0  0  0
  1 10  1  0  0  0  0
  2  1  1  0  0  0  0
  3  2  1  0  0  0  0
  3 12  1  0  0  0  0
  3 14  1  0  0  0  0
  4 15  1  1  0  0  0
  4  2  1  0  0  0  0
  4  6  1  0  0  0  0
  5  4  1  0  0  0  0
  6  7  2  0  0  0  0
 11  2  1  0  0  0  0
 13  3  1  0  0  0  0
 16  5  1  0  0  0  0
 17  5  1  0  0  0  0
 18 28  1  0  0  0  0
 18 27  1  0  0  0  0
 19 20  1  0  0  0  0
 19 18  1  0  0  0  0
 20 21  1  0  0  0  0
 21 22  1  0  0  0  0
 21 31  1  0  0  0  0
 21 32  1  0  0  0  0
 22 33  1  1  0  0  0
 23  6  1  0  0  0  0
 23 22  1  0  0  0  0
 24 22  1  0  0  0  0
 24 37  1  0  0  0  0
 25 24  2  0  0  0  0
 26 18  1  0  0  0  0
 29 20  1  0  0  0  0
 30 20  1  0  0  0  0
 34 23  1  0  0  0  0
 35 43  1  0  0  0  0
 35 42  1  0  0  0  0
 36 44  1  6  0  0  0
 36 37  1  0  0  0  0
 36 35  1  0  0  0  0
 37 45  1  0  0  0  0
 38 36  1  0  0  0  0
 39 38  1  0  0  0  0
 40 38  2  0  0  0  0
 41 35  1  0  0  0  0
M  END
$$$$
