VME.pdb
 OpenBabel07022419263D

 51 50  0  0  1  0  0  0  0  0999 V2000
    1.1700   -4.4700    2.6150 C   0  0  0  0  0  0  0  0  0  0  0  0
    0.5640   -3.1890    1.9990 C   0  0  0  0  0  0  0  0  0  0  0  0
    0.5150   -3.4570    0.5210 C   0  0  0  0  0  0  0  0  0  0  0  0
    1.4330   -2.0790    2.4390 C   0  0  2  0  0  0  0  0  0  0  0  0
    1.3900   -2.1010    3.9140 N   0  0  0  0  0  0  0  0  0  0  0  0
    1.1260   -0.7290    1.9980 C   0  0  0  0  0  0  0  0  0  0  0  0
    0.9470    0.1770    2.8630 O   0  0  0  0  0  0  0  0  0  0  0  0
    0.3970   -5.2410    2.7590 H   0  0  0  0  0  0  0  0  0  0  0  0
    1.9300   -4.8970    1.9110 H   0  0  0  0  0  0  0  0  0  0  0  0
    1.6490   -4.2500    3.5750 H   0  0  0  0  0  0  0  0  0  0  0  0
   -0.4710   -3.1340    2.3840 H   0  0  0  0  0  0  0  0  0  0  0  0
   -0.2720   -2.9540   -0.0290 H   0  0  0  0  0  0  0  0  0  0  0  0
    1.5400   -3.3620    0.1210 H   0  0  0  0  0  0  0  0  0  0  0  0
    0.2850   -4.5610    0.4010 H   0  0  0  0  0  0  0  0  0  0  0  0
    2.5050   -2.3010    2.2000 H   0  0  0  0  0  0  0  0  0  0  0  0
    0.6570   -1.3820    4.1930 H   0  0  0  0  0  0  0  0  0  0  0  0
    2.3010   -1.8320    4.3230 H   0  0  0  0  0  0  0  0  0  0  0  0
    3.4770    2.0090    2.0680 C   0  0  0  0  0  0  0  0  0  0  0  0
    3.6590    2.6240    0.4030 S   0  0  0  0  0  0  0  0  0  0  0  0
    2.9010    1.6260   -0.8520 C   0  0  0  0  0  0  0  0  0  0  0  0
    1.4050    1.5960   -0.8640 C   0  0  0  0  0  0  0  0  0  0  0  0
    0.7170    1.0490    0.3230 C   0  0  2  0  0  0  0  0  0  0  0  0
    1.0070   -0.3150    0.6470 N   0  0  0  0  0  0  0  0  0  0  0  0
   -0.7940    1.1690    0.1560 C   0  0  0  0  0  0  0  0  0  0  0  0
   -1.3040    2.2790   -0.1400 O   0  0  0  0  0  0  0  0  0  0  0  0
    4.4110    2.2930    2.6400 H   0  0  0  0  0  0  0  0  0  0  0  0
    2.6300    2.4640    2.5980 H   0  0  0  0  0  0  0  0  0  0  0  0
    3.4840    0.8940    2.1010 H   0  0  0  0  0  0  0  0  0  0  0  0
    3.2480    1.9670   -1.8800 H   0  0  0  0  0  0  0  0  0  0  0  0
    3.3440    0.5990   -0.7850 H   0  0  0  0  0  0  0  0  0  0  0  0
    1.0130    1.1930   -1.8310 H   0  0  0  0  0  0  0  0  0  0  0  0
    1.0990    2.6930   -0.9220 H   0  0  0  0  0  0  0  0  0  0  0  0
    0.8960    1.6940    1.2180 H   0  0  0  0  0  0  0  0  0  0  0  0
    1.1350   -1.0220   -0.1380 H   0  0  0  0  0  0  0  0  0  0  0  0
   -1.6290    0.0320    0.3350 N   0  0  0  0  0  0  0  0  0  0  0  0
   -3.0460    0.0520    0.2020 C   0  0  1  0  0  0  0  0  0  0  0  0
   -3.6020   -0.7450   -0.9350 C   0  0  0  0  0  0  0  0  0  0  0  0
   -3.2180   -0.3800   -2.3040 C   0  0  0  0  0  0  0  0  0  0  0  0
   -1.8230   -0.5440   -2.6760 C   0  0  0  0  0  0  0  0  0  0  0  0
   -1.0120   -1.1700   -1.9650 O   0  0  0  0  0  0  0  0  0  0  0  0
   -3.6730   -0.5250    1.4470 C   0  0  0  0  0  0  0  0  0  0  0  0
   -4.9200   -0.6130    1.5650 O   0  0  0  0  0  0  0  0  0  0  0  0
   -1.3290    0.0180   -3.8900 O   0  0  0  0  0  0  0  0  0  0  0  0
   -2.8360   -0.9510    2.4430 O   0  0  0  0  0  0  0  0  0  0  0  0
   -1.1760   -0.8660    0.6110 H   0  0  0  0  0  0  0  0  0  0  0  0
   -3.4200    1.1280    0.1110 H   0  0  0  0  0  0  0  0  0  0  0  0
   -3.3230   -1.8400   -0.7510 H   0  0  0  0  0  0  0  0  0  0  0  0
   -4.7370   -0.7810   -0.8300 H   0  0  0  0  0  0  0  0  0  0  0  0
   -3.8190   -1.0130   -3.0420 H   0  0  0  0  0  0  0  0  0  0  0  0
   -3.5900    0.6690   -2.5040 H   0  0  0  0  0  0  0  0  0  0  0  0
   -0.3330    0.1620   -3.9370 H   0  0  0  0  0  0  0  0  0  0  0  0
  1  8  1  0  0  0  0
  1 10  1  0  0  0  0
  2 11  1  0  0  0  0
  2  4  1  0  0  0  0
  2  1  1  0  0  0  0
  3  2  1  0  0  0  0
  4 15  1  6  0  0  0
  4  5  1  0  0  0  0
  5 16  1  0  0  0  0
  5 17  1  0  0  0  0
  6  4  1  0  0  0  0
  6  7  2  0  0  0  0
  9  1  1  0  0  0  0
 12  3  1  0  0  0  0
 13  3  1  0  0  0  0
 14  3  1  0  0  0  0
 18 28  1  0  0  0  0
 18 27  1  0  0  0  0
 18 26  1  0  0  0  0
 19 18  1  0  0  0  0
 20 30  1  0  0  0  0
 20 19  1  0  0  0  0
 21 20  1  0  0  0  0
 21 22  1  0  0  0  0
 22 23  1  0  0  0  0
 22 33  1  1  0  0  0
 23  6  1  0  0  0  0
 24 22  1  0  0  0  0
 24 35  1  0  0  0  0
 25 24  2  0  0  0  0
 29 20  1  0  0  0  0
 31 21  1  0  0  0  0
 32 21  1  0  0  0  0
 34 23  1  0  0  0  0
 35 45  1  0  0  0  0
 36 46  1  6  0  0  0
 36 35  1  0  0  0  0
 36 41  1  0  0  0  0
 37 48  1  0  0  0  0
 37 47  1  0  0  0  0
 37 36  1  0  0  0  0
 38 37  1  0  0  0  0
 39 38  1  0  0  0  0
 39 40  2  0  0  0  0
 41 42  2  0  0  0  0
 41 44  1  0  0  0  0
 43 39  1  0  0  0  0
 49 38  1  0  0  0  0
 50 38  1  0  0  0  0
 51 43  1  0  0  0  0
M  END
$$$$
