VMF.pdb
 OpenBabel07022419263D

 55 55  0  0  1  0  0  0  0  0999 V2000
   -1.8370    0.8050    4.1400 C   0  0  0  0  0  0  0  0  0  0  0  0
   -1.2750    0.7600    2.7320 C   0  0  0  0  0  0  0  0  0  0  0  0
   -2.1740    1.6350    1.8530 C   0  0  0  0  0  0  0  0  0  0  0  0
    0.0960    1.3600    2.7700 C   0  0  2  0  0  0  0  0  0  0  0  0
    0.0020    2.7210    3.2350 N   0  0  0  0  0  0  0  0  0  0  0  0
    0.8390    1.2670    1.5160 C   0  0  0  0  0  0  0  0  0  0  0  0
    1.2830    2.3260    1.0040 O   0  0  0  0  0  0  0  0  0  0  0  0
   -0.9830    0.5350    4.8190 H   0  0  0  0  0  0  0  0  0  0  0  0
   -2.1270    1.8580    4.3310 H   0  0  0  0  0  0  0  0  0  0  0  0
   -2.6520    0.0950    4.2990 H   0  0  0  0  0  0  0  0  0  0  0  0
   -1.3240   -0.2720    2.3930 H   0  0  0  0  0  0  0  0  0  0  0  0
   -2.7970    1.0260    1.1720 H   0  0  0  0  0  0  0  0  0  0  0  0
   -2.8680    2.2410    2.4730 H   0  0  0  0  0  0  0  0  0  0  0  0
   -1.5380    2.3350    1.2360 H   0  0  0  0  0  0  0  0  0  0  0  0
    0.6760    0.7900    3.5450 H   0  0  0  0  0  0  0  0  0  0  0  0
    0.9520    3.1590    3.0410 H   0  0  0  0  0  0  0  0  0  0  0  0
   -0.0730    2.7160    4.2770 H   0  0  0  0  0  0  0  0  0  0  0  0
    6.4000   -0.7810    0.4830 C   0  0  0  0  0  0  0  0  0  0  0  0
    5.5050   -1.8320   -0.7090 S   0  0  0  0  0  0  0  0  0  0  0  0
    4.0290   -0.9140   -1.3000 C   0  0  0  0  0  0  0  0  0  0  0  0
    3.1150   -0.7480   -0.1400 C   0  0  0  0  0  0  0  0  0  0  0  0
    1.8400   -0.0060   -0.4170 C   0  0  2  0  0  0  0  0  0  0  0  0
    1.0920    0.0480    0.8360 N   0  0  0  0  0  0  0  0  0  0  0  0
    1.0310   -0.5590   -1.5060 C   0  0  0  0  0  0  0  0  0  0  0  0
    1.4870   -0.6670   -2.6700 O   0  0  0  0  0  0  0  0  0  0  0  0
    7.3240   -1.2810    0.7840 H   0  0  0  0  0  0  0  0  0  0  0  0
    5.7870   -0.6490    1.4190 H   0  0  0  0  0  0  0  0  0  0  0  0
    6.6680    0.1910    0.0330 H   0  0  0  0  0  0  0  0  0  0  0  0
    4.3880    0.0340   -1.7040 H   0  0  0  0  0  0  0  0  0  0  0  0
    3.5290   -1.5650   -2.0720 H   0  0  0  0  0  0  0  0  0  0  0  0
    3.6660   -0.1360    0.6310 H   0  0  0  0  0  0  0  0  0  0  0  0
    2.9430   -1.7400    0.3270 H   0  0  0  0  0  0  0  0  0  0  0  0
    2.1220    1.0350   -0.6820 H   0  0  0  0  0  0  0  0  0  0  0  0
    0.7090   -0.8100    1.2900 H   0  0  0  0  0  0  0  0  0  0  0  0
   -0.3180   -1.0110   -1.3280 N   0  0  0  0  0  0  0  0  0  0  0  0
   -1.0880   -1.5520   -2.4260 C   0  0  1  0  0  0  0  0  0  0  0  0
   -1.3730   -3.0150   -2.1200 C   0  0  0  0  0  0  0  0  0  0  0  0
   -2.1390   -3.1390   -0.8600 C   0  0  0  0  0  0  0  0  0  0  0  0
   -3.5270   -3.1240   -0.9140 C   0  0  0  0  0  0  0  0  0  0  0  0
   -4.2110   -3.2420    0.2720 C   0  0  0  0  0  0  0  0  0  0  0  0
   -3.5680   -3.3720    1.4870 C   0  0  0  0  0  0  0  0  0  0  0  0
   -2.1890   -3.3860    1.5300 C   0  0  0  0  0  0  0  0  0  0  0  0
   -1.4990   -3.2690    0.3570 C   0  0  0  0  0  0  0  0  0  0  0  0
   -2.3000   -0.7790   -2.7160 C   0  0  0  0  0  0  0  0  0  0  0  0
   -2.6350    0.2570   -2.0670 O   0  0  0  0  0  0  0  0  0  0  0  0
   -3.1220   -1.1880   -3.7390 O   0  0  0  0  0  0  0  0  0  0  0  0
   -0.7190   -0.9340   -0.3790 H   0  0  0  0  0  0  0  0  0  0  0  0
   -0.4380   -1.5210   -3.3450 H   0  0  0  0  0  0  0  0  0  0  0  0
   -1.9250   -3.5080   -2.9320 H   0  0  0  0  0  0  0  0  0  0  0  0
   -0.3830   -3.5120   -2.0110 H   0  0  0  0  0  0  0  0  0  0  0  0
   -4.0420   -3.0220   -1.8660 H   0  0  0  0  0  0  0  0  0  0  0  0
   -5.2960   -3.2330    0.2560 H   0  0  0  0  0  0  0  0  0  0  0  0
   -4.1820   -3.4590    2.3700 H   0  0  0  0  0  0  0  0  0  0  0  0
   -1.7030   -3.4900    2.5030 H   0  0  0  0  0  0  0  0  0  0  0  0
   -0.4260   -3.2770    0.3620 H   0  0  0  0  0  0  0  0  0  0  0  0
  1 10  1  0  0  0  0
  1  9  1  0  0  0  0
  1  8  1  0  0  0  0
  2  4  1  0  0  0  0
  2  1  1  0  0  0  0
  3 13  1  0  0  0  0
  3  2  1  0  0  0  0
  4  5  1  0  0  0  0
  4 15  1  1  0  0  0
  5 17  1  0  0  0  0
  6  4  1  0  0  0  0
  7  6  2  0  0  0  0
 11  2  1  0  0  0  0
 12  3  1  0  0  0  0
 14  3  1  0  0  0  0
 16  5  1  0  0  0  0
 18 26  1  0  0  0  0
 18 27  1  0  0  0  0
 19 18  1  0  0  0  0
 20 19  1  0  0  0  0
 20 21  1  0  0  0  0
 21 32  1  0  0  0  0
 21 31  1  0  0  0  0
 22 33  1  6  0  0  0
 22 21  1  0  0  0  0
 22 23  1  0  0  0  0
 23 34  1  0  0  0  0
 23  6  1  0  0  0  0
 24 35  1  0  0  0  0
 24 22  1  0  0  0  0
 25 24  2  0  0  0  0
 28 18  1  0  0  0  0
 29 20  1  0  0  0  0
 30 20  1  0  0  0  0
 35 47  1  0  0  0  0
 36 48  1  6  0  0  0
 36 37  1  0  0  0  0
 36 35  1  0  0  0  0
 37 50  1  0  0  0  0
 37 38  1  0  0  0  0
 38 43  1  0  0  0  0
 39 38  2  0  0  0  0
 39 40  1  0  0  0  0
 40 41  2  0  0  0  0
 41 42  1  0  0  0  0
 41 53  1  0  0  0  0
 42 54  1  0  0  0  0
 43 55  1  0  0  0  0
 43 42  2  0  0  0  0
 44 36  1  0  0  0  0
 44 45  1  0  0  0  0
 46 44  2  0  0  0  0
 49 37  1  0  0  0  0
 51 39  1  0  0  0  0
 52 40  1  0  0  0  0
M  END
$$$$
