VMI.pdb
 OpenBabel07022419263D

 54 53  0  0  1  0  0  0  0  0999 V2000
    0.0040   -5.5740    2.0810 C   0  0  0  0  0  0  0  0  0  0  0  0
    0.0060   -4.0250    2.0060 C   0  0  0  0  0  0  0  0  0  0  0  0
   -0.9940   -3.7310    0.9070 C   0  0  0  0  0  0  0  0  0  0  0  0
    1.4220   -3.6820    1.5960 C   0  0  2  0  0  0  0  0  0  0  0  0
    2.3430   -4.2410    2.6270 N   0  0  0  0  0  0  0  0  0  0  0  0
    1.7180   -2.2370    1.5460 C   0  0  0  0  0  0  0  0  0  0  0  0
    2.5490   -1.7200    2.3890 O   0  0  0  0  0  0  0  0  0  0  0  0
    0.5500   -5.8710    2.9950 H   0  0  0  0  0  0  0  0  0  0  0  0
   -1.0630   -5.8610    2.1770 H   0  0  0  0  0  0  0  0  0  0  0  0
    0.3990   -6.0000    1.1640 H   0  0  0  0  0  0  0  0  0  0  0  0
   -0.2760   -3.5750    2.9580 H   0  0  0  0  0  0  0  0  0  0  0  0
   -1.8250   -4.4870    0.9990 H   0  0  0  0  0  0  0  0  0  0  0  0
   -1.4160   -2.7340    0.9590 H   0  0  0  0  0  0  0  0  0  0  0  0
   -0.4710   -3.8730   -0.0590 H   0  0  0  0  0  0  0  0  0  0  0  0
    1.6470   -4.2350    0.6720 H   0  0  0  0  0  0  0  0  0  0  0  0
    2.4320   -5.2800    2.4790 H   0  0  0  0  0  0  0  0  0  0  0  0
    3.3110   -3.8720    2.3840 H   0  0  0  0  0  0  0  0  0  0  0  0
    5.4680    1.2040   -1.8710 C   0  0  0  0  0  0  0  0  0  0  0  0
    3.9100    2.1020   -2.0820 S   0  0  0  0  0  0  0  0  0  0  0  0
    2.8210    1.8340   -0.6380 C   0  0  0  0  0  0  0  0  0  0  0  0
    2.3920    0.3980   -0.5650 C   0  0  0  0  0  0  0  0  0  0  0  0
    1.5180    0.0990    0.6310 C   0  0  2  0  0  0  0  0  0  0  0  0
    1.1510   -1.3280    0.6140 N   0  0  0  0  0  0  0  0  0  0  0  0
    0.3620    0.9900    0.7920 C   0  0  0  0  0  0  0  0  0  0  0  0
    0.6020    2.2360    0.9510 O   0  0  0  0  0  0  0  0  0  0  0  0
    6.0520    1.2820   -2.7950 H   0  0  0  0  0  0  0  0  0  0  0  0
    5.2350    0.1290   -1.6600 H   0  0  0  0  0  0  0  0  0  0  0  0
    6.0770    1.5910   -1.0390 H   0  0  0  0  0  0  0  0  0  0  0  0
    1.9820    2.5540   -0.7640 H   0  0  0  0  0  0  0  0  0  0  0  0
    3.3900    2.1620    0.2540 H   0  0  0  0  0  0  0  0  0  0  0  0
    1.8290    0.1790   -1.5000 H   0  0  0  0  0  0  0  0  0  0  0  0
    3.2930   -0.2200   -0.5310 H   0  0  0  0  0  0  0  0  0  0  0  0
    2.1780    0.2320    1.5120 H   0  0  0  0  0  0  0  0  0  0  0  0
    0.4730   -1.7010   -0.0790 H   0  0  0  0  0  0  0  0  0  0  0  0
   -4.4530   -0.2160    0.1970 C   0  0  0  0  0  0  0  0  0  0  0  0
   -3.5510    0.4680   -0.7870 C   0  0  0  0  0  0  0  0  0  0  0  0
   -2.8910    1.7220   -0.2890 C   0  0  2  0  0  0  0  0  0  0  0  0
   -2.0500    2.2380   -1.4450 C   0  0  0  0  0  0  0  0  0  0  0  0
   -2.0580    1.5310    0.9510 C   0  0  2  0  0  0  0  0  0  0  0  0
   -1.0000    0.5850    0.7850 N   0  0  0  0  0  0  0  0  0  0  0  0
   -2.8210    1.2490    2.1750 C   0  0  0  0  0  0  0  0  0  0  0  0
   -2.4920    0.2780    2.8890 O   0  0  0  0  0  0  0  0  0  0  0  0
   -3.8960    2.0100    2.5820 O   0  0  0  0  0  0  0  0  0  0  0  0
   -3.9340   -0.8790    0.9140 H   0  0  0  0  0  0  0  0  0  0  0  0
   -5.1670   -0.9130   -0.3470 H   0  0  0  0  0  0  0  0  0  0  0  0
   -5.1200    0.5300    0.6780 H   0  0  0  0  0  0  0  0  0  0  0  0
   -2.8150   -0.2980   -1.1160 H   0  0  0  0  0  0  0  0  0  0  0  0
   -4.1670    0.6690   -1.7010 H   0  0  0  0  0  0  0  0  0  0  0  0
   -3.6920    2.4730   -0.1280 H   0  0  0  0  0  0  0  0  0  0  0  0
   -1.9380    3.3370   -1.3660 H   0  0  0  0  0  0  0  0  0  0  0  0
   -1.1060    1.7040   -1.5560 H   0  0  0  0  0  0  0  0  0  0  0  0
   -2.6450    2.0590   -2.3680 H   0  0  0  0  0  0  0  0  0  0  0  0
   -1.5460    2.5530    1.0760 H   0  0  0  0  0  0  0  0  0  0  0  0
   -1.1430   -0.4410    0.6480 H   0  0  0  0  0  0  0  0  0  0  0  0
  1  9  1  0  0  0  0
  1  8  1  0  0  0  0
  2  1  1  0  0  0  0
  2 11  1  0  0  0  0
  3 13  1  0  0  0  0
  3 12  1  0  0  0  0
  3  2  1  0  0  0  0
  4 15  1  6  0  0  0
  4  2  1  0  0  0  0
  4  5  1  0  0  0  0
  6  4  1  0  0  0  0
  6  7  2  0  0  0  0
 10  1  1  0  0  0  0
 14  3  1  0  0  0  0
 16  5  1  0  0  0  0
 17  5  1  0  0  0  0
 18 27  1  0  0  0  0
 18 28  1  0  0  0  0
 19 18  1  0  0  0  0
 19 20  1  0  0  0  0
 20 21  1  0  0  0  0
 20 30  1  0  0  0  0
 21 32  1  0  0  0  0
 21 22  1  0  0  0  0
 22 24  1  0  0  0  0
 22 33  1  1  0  0  0
 23 22  1  0  0  0  0
 23  6  1  0  0  0  0
 24 25  2  0  0  0  0
 26 18  1  0  0  0  0
 29 20  1  0  0  0  0
 31 21  1  0  0  0  0
 34 23  1  0  0  0  0
 35 46  1  0  0  0  0
 35 44  1  0  0  0  0
 36 37  1  0  0  0  0
 36 35  1  0  0  0  0
 37 49  1  1  0  0  0
 37 39  1  0  0  0  0
 38 50  1  0  0  0  0
 38 37  1  0  0  0  0
 39 53  1  1  0  0  0
 39 41  1  0  0  0  0
 40 24  1  0  0  0  0
 40 39  1  0  0  0  0
 41 43  2  0  0  0  0
 41 42  1  0  0  0  0
 45 35  1  0  0  0  0
 47 36  1  0  0  0  0
 48 36  1  0  0  0  0
 51 38  1  0  0  0  0
 52 38  1  0  0  0  0
 54 40  1  0  0  0  0
M  END
$$$$
