VML.pdb
 OpenBabel07022419263D

 54 53  0  0  1  0  0  0  0  0999 V2000
    0.0350   -4.0000    1.1140 C   0  0  0  0  0  0  0  0  0  0  0  0
   -0.0900   -3.8930   -0.4020 C   0  0  0  0  0  0  0  0  0  0  0  0
   -0.6130   -5.2230   -0.8990 C   0  0  0  0  0  0  0  0  0  0  0  0
    1.2630   -3.5850   -1.0200 C   0  0  2  0  0  0  0  0  0  0  0  0
    2.2080   -4.6220   -0.7150 N   0  0  0  0  0  0  0  0  0  0  0  0
    1.7870   -2.2790   -0.5130 C   0  0  0  0  0  0  0  0  0  0  0  0
    2.9000   -2.2400    0.0970 O   0  0  0  0  0  0  0  0  0  0  0  0
   -0.9800   -3.9130    1.5550 H   0  0  0  0  0  0  0  0  0  0  0  0
    0.4210   -5.0030    1.4150 H   0  0  0  0  0  0  0  0  0  0  0  0
    0.6860   -3.1870    1.5130 H   0  0  0  0  0  0  0  0  0  0  0  0
   -0.8320   -3.1200   -0.6130 H   0  0  0  0  0  0  0  0  0  0  0  0
    0.0220   -6.0550   -0.5810 H   0  0  0  0  0  0  0  0  0  0  0  0
   -1.6780   -5.3500   -0.6360 H   0  0  0  0  0  0  0  0  0  0  0  0
   -0.5790   -5.2150   -2.0240 H   0  0  0  0  0  0  0  0  0  0  0  0
    1.1180   -3.5750   -2.1200 H   0  0  0  0  0  0  0  0  0  0  0  0
    1.8760   -5.3480   -0.0770 H   0  0  0  0  0  0  0  0  0  0  0  0
    2.8040   -4.9150   -1.4960 H   0  0  0  0  0  0  0  0  0  0  0  0
    4.2490    1.7040    1.2510 C   0  0  0  0  0  0  0  0  0  0  0  0
    3.9190    2.5370   -0.2760 S   0  0  0  0  0  0  0  0  0  0  0  0
    2.2370    2.5390   -0.8640 C   0  0  0  0  0  0  0  0  0  0  0  0
    1.6840    1.2160   -1.2800 C   0  0  0  0  0  0  0  0  0  0  0  0
    1.6120    0.2360   -0.1790 C   0  0  2  0  0  0  0  0  0  0  0  0
    1.1080   -1.0680   -0.6750 N   0  0  0  0  0  0  0  0  0  0  0  0
    0.6450    0.7140    0.8770 C   0  0  0  0  0  0  0  0  0  0  0  0
    0.7710    1.7960    1.4950 O   0  0  0  0  0  0  0  0  0  0  0  0
    4.7360    0.7090    0.9990 H   0  0  0  0  0  0  0  0  0  0  0  0
    5.0230    2.2600    1.8660 H   0  0  0  0  0  0  0  0  0  0  0  0
    3.3920    1.5830    1.9350 H   0  0  0  0  0  0  0  0  0  0  0  0
    2.2340    3.2570   -1.7640 H   0  0  0  0  0  0  0  0  0  0  0  0
    1.6060    3.0810   -0.1080 H   0  0  0  0  0  0  0  0  0  0  0  0
    0.6690    1.4310   -1.7210 H   0  0  0  0  0  0  0  0  0  0  0  0
    2.3210    0.8450   -2.1240 H   0  0  0  0  0  0  0  0  0  0  0  0
    2.5770    0.0780    0.2900 H   0  0  0  0  0  0  0  0  0  0  0  0
    0.2010   -1.0390   -1.1670 H   0  0  0  0  0  0  0  0  0  0  0  0
   -2.8010    2.6780    0.8380 C   0  0  0  0  0  0  0  0  0  0  0  0
   -3.1330    1.2240    0.5860 C   0  0  0  0  0  0  0  0  0  0  0  0
   -4.6270    1.1040    0.3040 C   0  0  0  0  0  0  0  0  0  0  0  0
   -2.8310    0.3670    1.7520 C   0  0  0  0  0  0  0  0  0  0  0  0
   -1.4130    0.3450    2.2060 C   0  0  2  0  0  0  0  0  0  0  0  0
   -0.4920   -0.1210    1.1960 N   0  0  0  0  0  0  0  0  0  0  0  0
   -1.3550   -0.5570    3.4060 C   0  0  0  0  0  0  0  0  0  0  0  0
   -2.0650   -0.3680    4.4260 O   0  0  0  0  0  0  0  0  0  0  0  0
   -0.5050   -1.6630    3.4590 O   0  0  0  0  0  0  0  0  0  0  0  0
   -3.5100    3.1080    1.5750 H   0  0  0  0  0  0  0  0  0  0  0  0
   -2.8070    3.1970   -0.1350 H   0  0  0  0  0  0  0  0  0  0  0  0
   -1.7860    2.7910    1.2710 H   0  0  0  0  0  0  0  0  0  0  0  0
   -2.6250    0.9360   -0.3510 H   0  0  0  0  0  0  0  0  0  0  0  0
   -4.8350    0.2430   -0.3680 H   0  0  0  0  0  0  0  0  0  0  0  0
   -5.2090    0.9080    1.2320 H   0  0  0  0  0  0  0  0  0  0  0  0
   -4.9750    2.0040   -0.2370 H   0  0  0  0  0  0  0  0  0  0  0  0
   -3.4460    0.7320    2.6090 H   0  0  0  0  0  0  0  0  0  0  0  0
   -3.1830   -0.6660    1.5580 H   0  0  0  0  0  0  0  0  0  0  0  0
   -1.1070    1.3410    2.5860 H   0  0  0  0  0  0  0  0  0  0  0  0
   -0.5920   -1.0130    0.6870 H   0  0  0  0  0  0  0  0  0  0  0  0
  1  9  1  0  0  0  0
  1 10  1  0  0  0  0
  1  8  1  0  0  0  0
  2  1  1  0  0  0  0
  3 13  1  0  0  0  0
  3 12  1  0  0  0  0
  3  2  1  0  0  0  0
  4 15  1  6  0  0  0
  4  5  1  0  0  0  0
  4  6  1  0  0  0  0
  4  2  1  0  0  0  0
  5 16  1  0  0  0  0
  6  7  2  0  0  0  0
 11  2  1  0  0  0  0
 14  3  1  0  0  0  0
 17  5  1  0  0  0  0
 18 27  1  0  0  0  0
 18 28  1  0  0  0  0
 19 18  1  0  0  0  0
 20 19  1  0  0  0  0
 20 30  1  0  0  0  0
 21 20  1  0  0  0  0
 21 22  1  0  0  0  0
 22 33  1  1  0  0  0
 22 24  1  0  0  0  0
 23  6  1  0  0  0  0
 23 22  1  0  0  0  0
 24 40  1  0  0  0  0
 24 25  2  0  0  0  0
 26 18  1  0  0  0  0
 29 20  1  0  0  0  0
 31 21  1  0  0  0  0
 32 21  1  0  0  0  0
 34 23  1  0  0  0  0
 35 46  1  0  0  0  0
 35 44  1  0  0  0  0
 36 35  1  0  0  0  0
 36 38  1  0  0  0  0
 37 36  1  0  0  0  0
 37 49  1  0  0  0  0
 38 39  1  0  0  0  0
 38 51  1  0  0  0  0
 39 53  1  1  0  0  0
 39 41  1  0  0  0  0
 40 39  1  0  0  0  0
 41 43  2  0  0  0  0
 41 42  1  0  0  0  0
 45 35  1  0  0  0  0
 47 36  1  0  0  0  0
 48 37  1  0  0  0  0
 50 37  1  0  0  0  0
 52 38  1  0  0  0  0
 54 40  1  0  0  0  0
M  END
$$$$
