VMN.pdb
 OpenBabel07022419263D

 49 48  0  0  1  0  0  0  0  0999 V2000
    2.1970   -4.6770   -1.5850 C   0  0  0  0  0  0  0  0  0  0  0  0
    1.8090   -3.8580   -0.3730 C   0  0  0  0  0  0  0  0  0  0  0  0
    1.3550   -4.8080    0.6970 C   0  0  0  0  0  0  0  0  0  0  0  0
    0.6830   -2.8820   -0.6960 C   0  0  2  0  0  0  0  0  0  0  0  0
    1.0710   -1.9690   -1.7270 N   0  0  0  0  0  0  0  0  0  0  0  0
    0.3880   -2.1700    0.5940 C   0  0  0  0  0  0  0  0  0  0  0  0
    0.0190   -2.8000    1.6170 O   0  0  0  0  0  0  0  0  0  0  0  0
    1.3100   -4.7790   -2.2210 H   0  0  0  0  0  0  0  0  0  0  0  0
    2.4840   -5.7120   -1.2450 H   0  0  0  0  0  0  0  0  0  0  0  0
    3.0800   -4.2580   -2.1050 H   0  0  0  0  0  0  0  0  0  0  0  0
    2.6850   -3.2570   -0.0480 H   0  0  0  0  0  0  0  0  0  0  0  0
    1.7530   -4.3970    1.6700 H   0  0  0  0  0  0  0  0  0  0  0  0
    0.2750   -4.9670    0.7320 H   0  0  0  0  0  0  0  0  0  0  0  0
    1.8240   -5.8180    0.6050 H   0  0  0  0  0  0  0  0  0  0  0  0
   -0.1700   -3.4840   -1.0480 H   0  0  0  0  0  0  0  0  0  0  0  0
    1.8450   -1.3450   -1.4830 H   0  0  0  0  0  0  0  0  0  0  0  0
    0.2730   -1.5420   -2.2210 H   0  0  0  0  0  0  0  0  0  0  0  0
    3.8450    0.9070    4.8290 C   0  0  0  0  0  0  0  0  0  0  0  0
    2.5720    2.1590    4.4570 S   0  0  0  0  0  0  0  0  0  0  0  0
    1.0980    1.2730    3.8290 C   0  0  0  0  0  0  0  0  0  0  0  0
    1.4000    0.6260    2.5050 C   0  0  0  0  0  0  0  0  0  0  0  0
    0.2120   -0.1130    2.0010 C   0  0  2  0  0  0  0  0  0  0  0  0
    0.5170   -0.7590    0.7040 N   0  0  0  0  0  0  0  0  0  0  0  0
   -0.9840    0.7130    1.7440 C   0  0  0  0  0  0  0  0  0  0  0  0
   -1.5460    1.3790    2.6500 O   0  0  0  0  0  0  0  0  0  0  0  0
    4.7890    1.4480    5.0570 H   0  0  0  0  0  0  0  0  0  0  0  0
    3.9800    0.2950    3.9210 H   0  0  0  0  0  0  0  0  0  0  0  0
    3.5870    0.3220    5.7230 H   0  0  0  0  0  0  0  0  0  0  0  0
    0.2730    1.9930    3.8140 H   0  0  0  0  0  0  0  0  0  0  0  0
    0.8520    0.5250    4.6090 H   0  0  0  0  0  0  0  0  0  0  0  0
    1.7180    1.4090    1.7600 H   0  0  0  0  0  0  0  0  0  0  0  0
    2.2320   -0.0970    2.6300 H   0  0  0  0  0  0  0  0  0  0  0  0
   -0.0700   -0.8970    2.7280 H   0  0  0  0  0  0  0  0  0  0  0  0
    0.8190   -0.1920   -0.1040 H   0  0  0  0  0  0  0  0  0  0  0  0
   -1.8520    1.0750   -2.4980 N   0  0  0  0  0  0  0  0  0  0  0  0
   -2.0440    2.4110   -2.0580 C   0  0  0  0  0  0  0  0  0  0  0  0
   -1.7950    3.3320   -2.8760 O   0  0  0  0  0  0  0  0  0  0  0  0
   -2.5090    2.7800   -0.7250 C   0  0  0  0  0  0  0  0  0  0  0  0
   -2.7650    1.6320    0.1990 C   0  0  2  0  0  0  0  0  0  0  0  0
   -1.5990    0.8230    0.4420 N   0  0  0  0  0  0  0  0  0  0  0  0
   -3.9520    0.8360   -0.1950 C   0  0  0  0  0  0  0  0  0  0  0  0
   -5.0100    1.4780   -0.4250 O   0  0  0  0  0  0  0  0  0  0  0  0
   -3.9810   -0.5230   -0.3260 O   0  0  0  0  0  0  0  0  0  0  0  0
   -2.6900    0.4560   -2.6760 H   0  0  0  0  0  0  0  0  0  0  0  0
   -0.9210    0.6370   -2.6670 H   0  0  0  0  0  0  0  0  0  0  0  0
   -3.4850    3.3190   -0.8480 H   0  0  0  0  0  0  0  0  0  0  0  0
   -1.8180    3.4820   -0.1970 H   0  0  0  0  0  0  0  0  0  0  0  0
   -3.0390    2.1000    1.1930 H   0  0  0  0  0  0  0  0  0  0  0  0
   -1.1380    0.2710   -0.3100 H   0  0  0  0  0  0  0  0  0  0  0  0
  1  9  1  0  0  0  0
  1  2  1  0  0  0  0
  2 11  1  0  0  0  0
  2  3  1  0  0  0  0
  3 13  1  0  0  0  0
  3 12  1  0  0  0  0
  4 15  1  6  0  0  0
  4  2  1  0  0  0  0
  4  6  1  0  0  0  0
  5 16  1  0  0  0  0
  5  4  1  0  0  0  0
  6 23  1  0  0  0  0
  6  7  2  0  0  0  0
  8  1  1  0  0  0  0
 10  1  1  0  0  0  0
 14  3  1  0  0  0  0
 17  5  1  0  0  0  0
 18 26  1  0  0  0  0
 18 28  1  0  0  0  0
 19 18  1  0  0  0  0
 20 19  1  0  0  0  0
 20 30  1  0  0  0  0
 21 32  1  0  0  0  0
 21 20  1  0  0  0  0
 22 21  1  0  0  0  0
 22 33  1  1  0  0  0
 23 22  1  0  0  0  0
 24 22  1  0  0  0  0
 24 25  2  0  0  0  0
 27 18  1  0  0  0  0
 29 20  1  0  0  0  0
 31 21  1  0  0  0  0
 34 23  1  0  0  0  0
 35 36  1  0  0  0  0
 36 38  1  0  0  0  0
 37 36  2  0  0  0  0
 38 47  1  0  0  0  0
 38 39  1  0  0  0  0
 39 40  1  0  0  0  0
 39 48  1  1  0  0  0
 40 24  1  0  0  0  0
 41 39  1  0  0  0  0
 42 41  2  0  0  0  0
 43 41  1  0  0  0  0
 44 35  1  0  0  0  0
 45 35  1  0  0  0  0
 46 38  1  0  0  0  0
 49 40  1  0  0  0  0
M  END
$$$$
