VMR.pdb
 OpenBabel07022419263D

 58 57  0  0  1  0  0  0  0  0999 V2000
    5.1400   -1.4020    2.0750 C   0  0  0  0  0  0  0  0  0  0  0  0
    3.7510   -1.1650    2.5790 C   0  0  0  0  0  0  0  0  0  0  0  0
    3.6800    0.2720    3.0500 C   0  0  0  0  0  0  0  0  0  0  0  0
    2.6960   -1.4420    1.5190 C   0  0  2  0  0  0  0  0  0  0  0  0
    2.8380   -0.6240    0.3610 N   0  0  0  0  0  0  0  0  0  0  0  0
    1.3530   -1.4210    2.1130 C   0  0  0  0  0  0  0  0  0  0  0  0
    1.0860   -2.1210    3.1250 O   0  0  0  0  0  0  0  0  0  0  0  0
    5.1770   -2.1650    1.2630 H   0  0  0  0  0  0  0  0  0  0  0  0
    5.6540   -0.4500    1.7740 H   0  0  0  0  0  0  0  0  0  0  0  0
    5.7520   -1.7770    2.9420 H   0  0  0  0  0  0  0  0  0  0  0  0
    3.5500   -1.8850    3.3970 H   0  0  0  0  0  0  0  0  0  0  0  0
    4.6980    0.6160    3.3970 H   0  0  0  0  0  0  0  0  0  0  0  0
    3.0480    0.2800    3.9640 H   0  0  0  0  0  0  0  0  0  0  0  0
    3.3300    0.9220    2.2500 H   0  0  0  0  0  0  0  0  0  0  0  0
    2.8850   -2.5070    1.2000 H   0  0  0  0  0  0  0  0  0  0  0  0
    2.5350   -1.0810   -0.5240 H   0  0  0  0  0  0  0  0  0  0  0  0
    2.5380    0.3510    0.4610 H   0  0  0  0  0  0  0  0  0  0  0  0
   -2.4920    2.4490    5.6110 C   0  0  0  0  0  0  0  0  0  0  0  0
   -0.8980    2.6260    4.7240 S   0  0  0  0  0  0  0  0  0  0  0  0
   -0.4200    1.0460    3.9740 C   0  0  0  0  0  0  0  0  0  0  0  0
   -1.3980    0.6740    2.8830 C   0  0  0  0  0  0  0  0  0  0  0  0
   -1.0350   -0.6440    2.2280 C   0  0  2  0  0  0  0  0  0  0  0  0
    0.2570   -0.6340    1.6210 N   0  0  0  0  0  0  0  0  0  0  0  0
   -2.1170   -1.0940    1.3240 C   0  0  0  0  0  0  0  0  0  0  0  0
   -3.3150   -1.1720    1.7080 O   0  0  0  0  0  0  0  0  0  0  0  0
   -2.6470    3.2850    6.3020 H   0  0  0  0  0  0  0  0  0  0  0  0
   -2.4190    1.4780    6.1790 H   0  0  0  0  0  0  0  0  0  0  0  0
   -3.3180    2.3890    4.8670 H   0  0  0  0  0  0  0  0  0  0  0  0
   -0.3310    0.2810    4.7510 H   0  0  0  0  0  0  0  0  0  0  0  0
    0.5940    1.1980    3.5340 H   0  0  0  0  0  0  0  0  0  0  0  0
   -2.3970    0.5780    3.3570 H   0  0  0  0  0  0  0  0  0  0  0  0
   -1.4500    1.5150    2.1870 H   0  0  0  0  0  0  0  0  0  0  0  0
   -0.9920   -1.3740    3.0660 H   0  0  0  0  0  0  0  0  0  0  0  0
    0.4620   -0.0430    0.7760 H   0  0  0  0  0  0  0  0  0  0  0  0
    1.4800   -0.0070   -4.7120 N   0  0  0  0  0  0  0  0  0  0  0  0
    0.7170   -1.0030   -4.0300 C   0  0  0  0  0  0  0  0  0  0  0  0
    1.1550   -1.4630   -2.9220 N   0  0  0  0  0  0  0  0  0  0  0  0
   -0.5020   -1.4670   -4.5760 N   0  0  0  0  0  0  0  0  0  0  0  0
   -1.5780   -1.8650   -3.6820 C   0  0  0  0  0  0  0  0  0  0  0  0
   -2.1150   -0.6560   -2.9630 C   0  0  0  0  0  0  0  0  0  0  0  0
   -3.2240   -0.9660   -2.0320 C   0  0  0  0  0  0  0  0  0  0  0  0
   -2.9300   -1.9070   -0.9130 C   0  0  2  0  0  0  0  0  0  0  0  0
   -1.8870   -1.4680   -0.0280 N   0  0  0  0  0  0  0  0  0  0  0  0
   -2.7950   -3.3240   -1.3300 C   0  0  0  0  0  0  0  0  0  0  0  0
   -3.6410   -3.7910   -2.1330 O   0  0  0  0  0  0  0  0  0  0  0  0
   -1.7920   -4.1750   -0.8910 O   0  0  0  0  0  0  0  0  0  0  0  0
    2.3010    0.4450   -4.2630 H   0  0  0  0  0  0  0  0  0  0  0  0
    1.2100    0.2750   -5.6800 H   0  0  0  0  0  0  0  0  0  0  0  0
    0.6850   -2.1830   -2.3470 H   0  0  0  0  0  0  0  0  0  0  0  0
   -0.6230   -1.5210   -5.6000 H   0  0  0  0  0  0  0  0  0  0  0  0
   -2.4070   -2.3220   -4.2730 H   0  0  0  0  0  0  0  0  0  0  0  0
   -1.1730   -2.6450   -3.0430 H   0  0  0  0  0  0  0  0  0  0  0  0
   -2.5470    0.0060   -3.7700 H   0  0  0  0  0  0  0  0  0  0  0  0
   -1.3000   -0.0560   -2.5100 H   0  0  0  0  0  0  0  0  0  0  0  0
   -3.7260   -0.0350   -1.6400 H   0  0  0  0  0  0  0  0  0  0  0  0
   -4.0520   -1.4520   -2.6310 H   0  0  0  0  0  0  0  0  0  0  0  0
   -3.8850   -1.9070   -0.2810 H   0  0  0  0  0  0  0  0  0  0  0  0
   -0.9190   -1.4310   -0.4240 H   0  0  0  0  0  0  0  0  0  0  0  0
  1  2  1  0  0  0  0
  1 10  1  0  0  0  0
  2  3  1  0  0  0  0
  2 11  1  0  0  0  0
  3 12  1  0  0  0  0
  3 13  1  0  0  0  0
  4 15  1  6  0  0  0
  4  6  1  0  0  0  0
  4  2  1  0  0  0  0
  5 17  1  0  0  0  0
  5  4  1  0  0  0  0
  6  7  2  0  0  0  0
  8  1  1  0  0  0  0
  9  1  1  0  0  0  0
 14  3  1  0  0  0  0
 16  5  1  0  0  0  0
 18 27  1  0  0  0  0
 18 26  1  0  0  0  0
 19 18  1  0  0  0  0
 20 19  1  0  0  0  0
 20 29  1  0  0  0  0
 21 31  1  0  0  0  0
 21 20  1  0  0  0  0
 22 21  1  0  0  0  0
 22 33  1  1  0  0  0
 23  6  1  0  0  0  0
 23 22  1  0  0  0  0
 24 25  2  0  0  0  0
 24 22  1  0  0  0  0
 28 18  1  0  0  0  0
 30 20  1  0  0  0  0
 32 21  1  0  0  0  0
 34 23  1  0  0  0  0
 35 47  1  0  0  0  0
 35 36  1  0  0  0  0
 36 37  2  0  0  0  0
 37 49  1  0  0  0  0
 38 36  1  0  0  0  0
 38 39  1  0  0  0  0
 39 52  1  0  0  0  0
 39 40  1  0  0  0  0
 40 54  1  0  0  0  0
 40 41  1  0  0  0  0
 41 55  1  0  0  0  0
 41 42  1  0  0  0  0
 42 57  1  1  0  0  0
 42 43  1  0  0  0  0
 43 24  1  0  0  0  0
 44 42  1  0  0  0  0
 44 46  1  0  0  0  0
 45 44  2  0  0  0  0
 48 35  1  0  0  0  0
 50 38  1  0  0  0  0
 51 39  1  0  0  0  0
 53 40  1  0  0  0  0
 56 41  1  0  0  0  0
 58 43  1  0  0  0  0
M  END
$$$$
