VMT.pdb
 OpenBabel07022419263D

 49 48  0  0  1  0  0  0  0  0999 V2000
    1.6490   -4.0110   -3.1730 C   0  0  0  0  0  0  0  0  0  0  0  0
    1.5810   -3.6890   -1.7040 C   0  0  0  0  0  0  0  0  0  0  0  0
    1.3900   -4.9440   -0.9200 C   0  0  0  0  0  0  0  0  0  0  0  0
    0.4900   -2.6500   -1.4220 C   0  0  2  0  0  0  0  0  0  0  0  0
    0.7750   -1.4490   -2.1400 N   0  0  0  0  0  0  0  0  0  0  0  0
    0.3940   -2.4240    0.0500 C   0  0  0  0  0  0  0  0  0  0  0  0
    0.1520   -3.3800    0.8260 O   0  0  0  0  0  0  0  0  0  0  0  0
    1.5600   -5.0950   -3.3030 H   0  0  0  0  0  0  0  0  0  0  0  0
    0.7640   -3.5570   -3.6870 H   0  0  0  0  0  0  0  0  0  0  0  0
    2.5760   -3.6290   -3.6490 H   0  0  0  0  0  0  0  0  0  0  0  0
    2.5500   -3.2340   -1.4100 H   0  0  0  0  0  0  0  0  0  0  0  0
    1.9590   -4.9060    0.0350 H   0  0  0  0  0  0  0  0  0  0  0  0
    0.3330   -5.1960   -0.7580 H   0  0  0  0  0  0  0  0  0  0  0  0
    1.8420   -5.7950   -1.4950 H   0  0  0  0  0  0  0  0  0  0  0  0
   -0.4540   -3.0660   -1.8010 H   0  0  0  0  0  0  0  0  0  0  0  0
    1.7270   -1.3940   -2.5470 H   0  0  0  0  0  0  0  0  0  0  0  0
    0.0410   -1.1770   -2.8290 H   0  0  0  0  0  0  0  0  0  0  0  0
    3.9120    1.9130    3.9960 C   0  0  0  0  0  0  0  0  0  0  0  0
    3.4550    0.3050    4.6560 S   0  0  0  0  0  0  0  0  0  0  0  0
    1.8100   -0.2180    4.0920 C   0  0  0  0  0  0  0  0  0  0  0  0
    1.7930   -0.4630    2.6090 C   0  0  0  0  0  0  0  0  0  0  0  0
    0.4740   -0.9170    2.0930 C   0  0  2  0  0  0  0  0  0  0  0  0
    0.5700   -1.1380    0.6270 N   0  0  0  0  0  0  0  0  0  0  0  0
   -0.6600    0.0030    2.3300 C   0  0  0  0  0  0  0  0  0  0  0  0
   -0.9840    0.3070    3.4820 O   0  0  0  0  0  0  0  0  0  0  0  0
    3.0270    2.4870    3.6570 H   0  0  0  0  0  0  0  0  0  0  0  0
    4.3760    2.4960    4.8350 H   0  0  0  0  0  0  0  0  0  0  0  0
    4.6570    1.8170    3.1820 H   0  0  0  0  0  0  0  0  0  0  0  0
    1.0520    0.5370    4.3930 H   0  0  0  0  0  0  0  0  0  0  0  0
    1.5680   -1.1740    4.5990 H   0  0  0  0  0  0  0  0  0  0  0  0
    2.2120    0.3940    2.0360 H   0  0  0  0  0  0  0  0  0  0  0  0
    2.5150   -1.3190    2.4450 H   0  0  0  0  0  0  0  0  0  0  0  0
    0.2690   -1.9340    2.5200 H   0  0  0  0  0  0  0  0  0  0  0  0
    0.7710   -0.3550   -0.0260 H   0  0  0  0  0  0  0  0  0  0  0  0
   -2.3280    2.6600   -0.7940 C   0  0  0  0  0  0  0  0  0  0  0  0
   -2.4100    2.7680    0.7150 C   0  0  1  0  0  0  0  0  0  0  0  0
   -3.6040    3.4570    0.9820 O   0  0  0  0  0  0  0  0  0  0  0  0
   -2.5080    1.4530    1.3940 C   0  0  2  0  0  0  0  0  0  0  0  0
   -1.4130    0.5680    1.2690 N   0  0  0  0  0  0  0  0  0  0  0  0
   -3.7220    0.7620    0.8770 C   0  0  0  0  0  0  0  0  0  0  0  0
   -4.8570    1.3090    0.8600 O   0  0  0  0  0  0  0  0  0  0  0  0
   -3.6660   -0.5390    0.3790 O   0  0  0  0  0  0  0  0  0  0  0  0
   -1.2860    2.5500   -1.1480 H   0  0  0  0  0  0  0  0  0  0  0  0
   -3.0010    1.8580   -1.1420 H   0  0  0  0  0  0  0  0  0  0  0  0
   -2.7540    3.6140   -1.2200 H   0  0  0  0  0  0  0  0  0  0  0  0
   -1.6030    3.4260    1.0980 H   0  0  0  0  0  0  0  0  0  0  0  0
   -3.9740    3.2670    1.8570 H   0  0  0  0  0  0  0  0  0  0  0  0
   -2.7030    1.6510    2.4790 H   0  0  0  0  0  0  0  0  0  0  0  0
   -1.1270    0.3010    0.3000 H   0  0  0  0  0  0  0  0  0  0  0  0
  1  2  1  0  0  0  0
  2  4  1  0  0  0  0
  2 11  1  0  0  0  0
  2  3  1  0  0  0  0
  3 13  1  0  0  0  0
  3 12  1  0  0  0  0
  4 15  1  6  0  0  0
  4  6  1  0  0  0  0
  5  4  1  0  0  0  0
  6 23  1  0  0  0  0
  6  7  2  0  0  0  0
  8  1  1  0  0  0  0
  9  1  1  0  0  0  0
 10  1  1  0  0  0  0
 14  3  1  0  0  0  0
 16  5  1  0  0  0  0
 17  5  1  0  0  0  0
 18 19  1  0  0  0  0
 18 27  1  0  0  0  0
 20 29  1  0  0  0  0
 20 30  1  0  0  0  0
 20 19  1  0  0  0  0
 21 20  1  0  0  0  0
 22 24  1  0  0  0  0
 22 33  1  1  0  0  0
 22 21  1  0  0  0  0
 23 22  1  0  0  0  0
 24 25  2  0  0  0  0
 26 18  1  0  0  0  0
 28 18  1  0  0  0  0
 31 21  1  0  0  0  0
 32 21  1  0  0  0  0
 34 23  1  0  0  0  0
 35 36  1  0  0  0  0
 36 37  1  0  0  0  0
 36 46  1  1  0  0  0
 36 38  1  0  0  0  0
 37 47  1  0  0  0  0
 38 48  1  1  0  0  0
 39 38  1  0  0  0  0
 39 24  1  0  0  0  0
 40 38  1  0  0  0  0
 41 40  1  0  0  0  0
 42 40  2  0  0  0  0
 43 35  1  0  0  0  0
 44 35  1  0  0  0  0
 45 35  1  0  0  0  0
 49 39  1  0  0  0  0
M  END
$$$$
