VMY.pdb
 OpenBabel07022419263D

 56 56  0  0  1  0  0  0  0  0999 V2000
    1.4170   -2.4650    0.6840 C   0  0  0  0  0  0  0  0  0  0  0  0
    2.0570   -1.7960    1.8510 C   0  0  0  0  0  0  0  0  0  0  0  0
    1.2450   -2.0920    3.1100 C   0  0  0  0  0  0  0  0  0  0  0  0
    2.3610   -0.3420    1.7220 C   0  0  2  0  0  0  0  0  0  0  0  0
    3.0060    0.0160    3.0140 N   0  0  0  0  0  0  0  0  0  0  0  0
    1.1980    0.5560    1.5690 C   0  0  0  0  0  0  0  0  0  0  0  0
    0.7690    1.1710    2.6090 O   0  0  0  0  0  0  0  0  0  0  0  0
    1.9060   -3.4490    0.4390 H   0  0  0  0  0  0  0  0  0  0  0  0
    1.5200   -1.8530   -0.2230 H   0  0  0  0  0  0  0  0  0  0  0  0
    0.3410   -2.7280    0.9040 H   0  0  0  0  0  0  0  0  0  0  0  0
    3.0320   -2.3420    2.0330 H   0  0  0  0  0  0  0  0  0  0  0  0
    0.3110   -1.5290    3.1310 H   0  0  0  0  0  0  0  0  0  0  0  0
    1.0090   -3.1750    3.1140 H   0  0  0  0  0  0  0  0  0  0  0  0
    1.9050   -1.8910    4.0040 H   0  0  0  0  0  0  0  0  0  0  0  0
    3.0870   -0.1190    0.9270 H   0  0  0  0  0  0  0  0  0  0  0  0
    3.5840   -0.7910    3.3310 H   0  0  0  0  0  0  0  0  0  0  0  0
    2.2280    0.1410    3.6840 H   0  0  0  0  0  0  0  0  0  0  0  0
    1.5280    4.1630    1.7190 C   0  0  0  0  0  0  0  0  0  0  0  0
    0.9080    4.7450    0.1570 S   0  0  0  0  0  0  0  0  0  0  0  0
    0.5370    3.5160   -1.0660 C   0  0  0  0  0  0  0  0  0  0  0  0
   -0.6290    2.6260   -0.8170 C   0  0  0  0  0  0  0  0  0  0  0  0
   -0.5980    1.7400    0.3750 C   0  0  2  0  0  0  0  0  0  0  0  0
    0.5110    0.8060    0.3620 N   0  0  0  0  0  0  0  0  0  0  0  0
   -1.8930    0.9430    0.3110 C   0  0  0  0  0  0  0  0  0  0  0  0
   -2.9800    1.5740    0.3670 O   0  0  0  0  0  0  0  0  0  0  0  0
    0.7150    3.9080    2.4240 H   0  0  0  0  0  0  0  0  0  0  0  0
    2.1860    3.2730    1.6380 H   0  0  0  0  0  0  0  0  0  0  0  0
    2.1530    4.9190    2.2550 H   0  0  0  0  0  0  0  0  0  0  0  0
    1.4540    2.9140   -1.3690 H   0  0  0  0  0  0  0  0  0  0  0  0
    0.3140    4.0770   -2.0330 H   0  0  0  0  0  0  0  0  0  0  0  0
   -1.5790    3.2480   -0.8480 H   0  0  0  0  0  0  0  0  0  0  0  0
   -0.7490    1.9820   -1.7490 H   0  0  0  0  0  0  0  0  0  0  0  0
   -0.6560    2.3450    1.2970 H   0  0  0  0  0  0  0  0  0  0  0  0
    0.7960    0.3380   -0.5210 H   0  0  0  0  0  0  0  0  0  0  0  0
    1.2190   -5.2970   -2.4390 O   0  0  0  0  0  0  0  0  0  0  0  0
    0.1110   -4.5340   -2.1060 C   0  0  0  0  0  0  0  0  0  0  0  0
   -0.9760   -5.0160   -1.4160 C   0  0  0  0  0  0  0  0  0  0  0  0
   -2.0590   -4.2210   -1.1060 C   0  0  0  0  0  0  0  0  0  0  0  0
   -2.0910   -2.9050   -1.4790 C   0  0  0  0  0  0  0  0  0  0  0  0
   -3.2090   -1.9840   -1.1880 C   0  0  0  0  0  0  0  0  0  0  0  0
   -3.0470   -1.2640    0.1260 C   0  0  2  0  0  0  0  0  0  0  0  0
   -1.8590   -0.4660    0.1890 N   0  0  0  0  0  0  0  0  0  0  0  0
   -3.1530   -2.1680    1.2720 C   0  0  0  0  0  0  0  0  0  0  0  0
   -4.1440   -2.9350    1.3610 O   0  0  0  0  0  0  0  0  0  0  0  0
   -1.0130   -2.4030   -2.1700 C   0  0  0  0  0  0  0  0  0  0  0  0
    0.0730   -3.1930   -2.4840 C   0  0  0  0  0  0  0  0  0  0  0  0
   -2.2070   -2.2300    2.2830 O   0  0  0  0  0  0  0  0  0  0  0  0
    1.7170   -5.1260   -3.3260 H   0  0  0  0  0  0  0  0  0  0  0  0
   -0.9370   -6.0750   -1.1230 H   0  0  0  0  0  0  0  0  0  0  0  0
   -2.9010   -4.6120   -0.5660 H   0  0  0  0  0  0  0  0  0  0  0  0
   -3.2790   -1.2510   -1.9930 H   0  0  0  0  0  0  0  0  0  0  0  0
   -4.1600   -2.5440   -1.1420 H   0  0  0  0  0  0  0  0  0  0  0  0
   -3.9240   -0.5570    0.1910 H   0  0  0  0  0  0  0  0  0  0  0  0
   -0.9120   -0.8900    0.1440 H   0  0  0  0  0  0  0  0  0  0  0  0
   -0.9830   -1.3600   -2.4940 H   0  0  0  0  0  0  0  0  0  0  0  0
    0.9350   -2.7920   -3.0360 H   0  0  0  0  0  0  0  0  0  0  0  0
  1 10  1  0  0  0  0
  1  2  1  0  0  0  0
  2 11  1  0  0  0  0
  2  3  1  0  0  0  0
  3 13  1  0  0  0  0
  3 12  1  0  0  0  0
  3 14  1  0  0  0  0
  4 15  1  6  0  0  0
  4  2  1  0  0  0  0
  4  5  1  0  0  0  0
  5 16  1  0  0  0  0
  5 17  1  0  0  0  0
  6  4  1  0  0  0  0
  6  7  2  0  0  0  0
  8  1  1  0  0  0  0
  9  1  1  0  0  0  0
 18 28  1  0  0  0  0
 18 26  1  0  0  0  0
 19 18  1  0  0  0  0
 20 21  1  0  0  0  0
 20 19  1  0  0  0  0
 21 22  1  0  0  0  0
 22 33  1  1  0  0  0
 23 22  1  0  0  0  0
 23  6  1  0  0  0  0
 24 25  2  0  0  0  0
 24 22  1  0  0  0  0
 27 18  1  0  0  0  0
 29 20  1  0  0  0  0
 30 20  1  0  0  0  0
 31 21  1  0  0  0  0
 32 21  1  0  0  0  0
 34 23  1  0  0  0  0
 35 36  1  0  0  0  0
 36 37  1  0  0  0  0
 37 49  1  0  0  0  0
 37 38  2  0  0  0  0
 38 50  1  0  0  0  0
 39 40  1  0  0  0  0
 39 38  1  0  0  0  0
 40 52  1  0  0  0  0
 40 41  1  0  0  0  0
 41 42  1  0  0  0  0
 41 53  1  1  0  0  0
 41 43  1  0  0  0  0
 42 24  1  0  0  0  0
 43 44  2  0  0  0  0
 43 47  1  0  0  0  0
 45 39  2  0  0  0  0
 46 45  1  0  0  0  0
 46 36  2  0  0  0  0
 48 35  1  0  0  0  0
 51 40  1  0  0  0  0
 54 42  1  0  0  0  0
 55 45  1  0  0  0  0
 56 46  1  0  0  0  0
M  END
$$$$
