VNC.pdb
 OpenBabel07022419243D

 43 42  0  0  1  0  0  0  0  0999 V2000
    0.0520   -3.7330   -3.2220 C   0  0  0  0  0  0  0  0  0  0  0  0
    0.5410   -3.5700   -1.7980 C   0  0  0  0  0  0  0  0  0  0  0  0
    0.3820   -4.8590   -1.0770 C   0  0  0  0  0  0  0  0  0  0  0  0
   -0.1740   -2.4080   -1.1590 C   0  0  2  0  0  0  0  0  0  0  0  0
    0.0840   -1.1860   -1.8880 N   0  0  0  0  0  0  0  0  0  0  0  0
    0.2470   -2.2180    0.2430 C   0  0  0  0  0  0  0  0  0  0  0  0
    0.0860   -3.1350    1.1210 O   0  0  0  0  0  0  0  0  0  0  0  0
    0.4580   -2.9700   -3.9000 H   0  0  0  0  0  0  0  0  0  0  0  0
    0.2740   -4.7810   -3.5700 H   0  0  0  0  0  0  0  0  0  0  0  0
   -1.0710   -3.6420   -3.2050 H   0  0  0  0  0  0  0  0  0  0  0  0
    1.6200   -3.2810   -1.8590 H   0  0  0  0  0  0  0  0  0  0  0  0
    0.4410   -5.7090   -1.8150 H   0  0  0  0  0  0  0  0  0  0  0  0
    1.2400   -5.0730   -0.3730 H   0  0  0  0  0  0  0  0  0  0  0  0
   -0.5990   -4.9640   -0.5930 H   0  0  0  0  0  0  0  0  0  0  0  0
   -1.2710   -2.6110   -1.2480 H   0  0  0  0  0  0  0  0  0  0  0  0
   -0.5440   -0.4140   -1.6300 H   0  0  0  0  0  0  0  0  0  0  0  0
    1.0630   -0.8790   -1.8910 H   0  0  0  0  0  0  0  0  0  0  0  0
    3.6830    1.5970    1.9830 N   0  0  0  0  0  0  0  0  0  0  0  0
    3.2480    0.3990    1.3440 C   0  0  0  0  0  0  0  0  0  0  0  0
    3.2770    0.2990    0.0820 O   0  0  0  0  0  0  0  0  0  0  0  0
    2.7490   -0.7670    2.1120 C   0  0  0  0  0  0  0  0  0  0  0  0
    1.2400   -0.8820    2.0790 C   0  0  2  0  0  0  0  0  0  0  0  0
    0.8460   -1.0280    0.7000 N   0  0  0  0  0  0  0  0  0  0  0  0
    0.5830    0.2790    2.7270 C   0  0  0  0  0  0  0  0  0  0  0  0
    0.7810    0.5930    3.9270 O   0  0  0  0  0  0  0  0  0  0  0  0
    3.1780    2.4890    1.8620 H   0  0  0  0  0  0  0  0  0  0  0  0
    4.5430    1.5100    2.5810 H   0  0  0  0  0  0  0  0  0  0  0  0
    3.1530   -0.7200    3.1230 H   0  0  0  0  0  0  0  0  0  0  0  0
    3.1430   -1.7100    1.6460 H   0  0  0  0  0  0  0  0  0  0  0  0
    0.9390   -1.7880    2.6550 H   0  0  0  0  0  0  0  0  0  0  0  0
    1.0090   -0.2440    0.0480 H   0  0  0  0  0  0  0  0  0  0  0  0
   -0.3310    1.1230    2.0120 N   0  0  0  0  0  0  0  0  0  0  0  0
   -0.9950    2.2510    2.5710 C   0  0  1  0  0  0  0  0  0  0  0  0
   -0.6300    3.5620    1.9310 C   0  0  0  0  0  0  0  0  0  0  0  0
   -1.5770    4.8590    2.7780 S   0  0  0  0  0  0  0  0  0  0  0  0
   -2.4560    2.1280    2.5880 C   0  0  0  0  0  0  0  0  0  0  0  0
   -3.0630    1.1230    2.1520 O   0  0  0  0  0  0  0  0  0  0  0  0
   -3.2180    3.1680    3.1090 O   0  0  0  0  0  0  0  0  0  0  0  0
   -0.5060    0.8760    1.0190 H   0  0  0  0  0  0  0  0  0  0  0  0
   -0.6490    2.3350    3.6440 H   0  0  0  0  0  0  0  0  0  0  0  0
   -0.9690    3.5470    0.8850 H   0  0  0  0  0  0  0  0  0  0  0  0
    0.4380    3.8280    2.0490 H   0  0  0  0  0  0  0  0  0  0  0  0
   -1.6200    4.6890    4.1540 H   0  0  0  0  0  0  0  0  0  0  0  0
  1 10  1  0  0  0  0
  1  2  1  0  0  0  0
  2  4  1  0  0  0  0
  2  3  1  0  0  0  0
  3 14  1  0  0  0  0
  3 13  1  0  0  0  0
  4 15  1  6  0  0  0
  4  6  1  0  0  0  0
  5 16  1  0  0  0  0
  5  4  1  0  0  0  0
  6 23  1  0  0  0  0
  6  7  2  0  0  0  0
  8  1  1  0  0  0  0
  9  1  1  0  0  0  0
 11  2  1  0  0  0  0
 12  3  1  0  0  0  0
 17  5  1  0  0  0  0
 18 27  1  0  0  0  0
 19 18  1  0  0  0  0
 19 21  1  0  0  0  0
 20 19  2  0  0  0  0
 21 28  1  0  0  0  0
 22 21  1  0  0  0  0
 22 30  1  1  0  0  0
 22 24  1  0  0  0  0
 23 22  1  0  0  0  0
 24 25  2  0  0  0  0
 26 18  1  0  0  0  0
 29 21  1  0  0  0  0
 31 23  1  0  0  0  0
 32 33  1  0  0  0  0
 32 24  1  0  0  0  0
 33 36  1  0  0  0  0
 33 40  1  1  0  0  0
 34 42  1  0  0  0  0
 34 33  1  0  0  0  0
 34 35  1  0  0  0  0
 35 43  1  0  0  0  0
 36 38  1  0  0  0  0
 37 36  2  0  0  0  0
 39 32  1  0  0  0  0
 41 34  1  0  0  0  0
M  END
$$$$
