VND.pdb
 OpenBabel07022419243D

 45 44  0  0  1  0  0  0  0  0999 V2000
    0.8880   -4.3340   -1.8890 C   0  0  0  0  0  0  0  0  0  0  0  0
    1.0320   -3.2970   -0.7780 C   0  0  0  0  0  0  0  0  0  0  0  0
   -0.3500   -2.9300   -0.3330 C   0  0  0  0  0  0  0  0  0  0  0  0
    1.8200   -2.1340   -1.3660 C   0  0  2  0  0  0  0  0  0  0  0  0
    3.0980   -2.7500   -1.7660 N   0  0  0  0  0  0  0  0  0  0  0  0
    2.0570   -1.0430   -0.4090 C   0  0  0  0  0  0  0  0  0  0  0  0
    3.2150   -0.8990    0.1170 O   0  0  0  0  0  0  0  0  0  0  0  0
   -0.0600   -4.0940   -2.4180 H   0  0  0  0  0  0  0  0  0  0  0  0
    1.7560   -4.3630   -2.5590 H   0  0  0  0  0  0  0  0  0  0  0  0
    0.7070   -5.3270   -1.3800 H   0  0  0  0  0  0  0  0  0  0  0  0
    1.5910   -3.7460    0.0770 H   0  0  0  0  0  0  0  0  0  0  0  0
   -0.3230   -2.6330    0.7480 H   0  0  0  0  0  0  0  0  0  0  0  0
   -0.9840   -3.8720   -0.3620 H   0  0  0  0  0  0  0  0  0  0  0  0
   -0.8410   -2.2160   -0.9930 H   0  0  0  0  0  0  0  0  0  0  0  0
    1.3270   -1.8190   -2.3020 H   0  0  0  0  0  0  0  0  0  0  0  0
    3.1420   -2.8910   -2.8050 H   0  0  0  0  0  0  0  0  0  0  0  0
    3.9020   -2.1340   -1.5070 H   0  0  0  0  0  0  0  0  0  0  0  0
    3.5040    3.1170   -0.7590 N   0  0  0  0  0  0  0  0  0  0  0  0
    2.2910    2.3980   -0.8830 C   0  0  0  0  0  0  0  0  0  0  0  0
    2.0460    1.8390   -1.9780 O   0  0  0  0  0  0  0  0  0  0  0  0
    1.3300    2.2950    0.2250 C   0  0  0  0  0  0  0  0  0  0  0  0
    1.3820    0.9540    0.9430 C   0  0  2  0  0  0  0  0  0  0  0  0
    1.0790   -0.1050   -0.0100 N   0  0  0  0  0  0  0  0  0  0  0  0
    0.4080    1.0430    2.0490 C   0  0  0  0  0  0  0  0  0  0  0  0
    0.5970    1.8890    2.9800 O   0  0  0  0  0  0  0  0  0  0  0  0
    3.5180    3.9710   -0.1800 H   0  0  0  0  0  0  0  0  0  0  0  0
    4.3520    2.7710   -1.2530 H   0  0  0  0  0  0  0  0  0  0  0  0
    0.2840    2.5220   -0.0810 H   0  0  0  0  0  0  0  0  0  0  0  0
    1.6010    3.0760    0.9720 H   0  0  0  0  0  0  0  0  0  0  0  0
    2.3940    0.8520    1.3800 H   0  0  0  0  0  0  0  0  0  0  0  0
    0.1200   -0.1390   -0.3840 H   0  0  0  0  0  0  0  0  0  0  0  0
   -0.7380    0.2460    2.1520 N   0  0  0  0  0  0  0  0  0  0  0  0
   -1.6900    0.3570    3.2700 C   0  0  1  0  0  0  0  0  0  0  0  0
   -2.9900    0.7730    2.6420 C   0  0  0  0  0  0  0  0  0  0  0  0
   -4.1020    0.9570    3.5710 C   0  0  0  0  0  0  0  0  0  0  0  0
   -5.2220    1.2710    3.0460 O   0  0  0  0  0  0  0  0  0  0  0  0
   -1.7260   -0.9350    3.9520 C   0  0  0  0  0  0  0  0  0  0  0  0
   -2.4430   -1.1950    4.9670 O   0  0  0  0  0  0  0  0  0  0  0  0
   -4.0890    0.8330    4.9330 O   0  0  0  0  0  0  0  0  0  0  0  0
   -0.9380   -1.9790    3.4920 O   0  0  0  0  0  0  0  0  0  0  0  0
   -0.9460   -0.4550    1.4170 H   0  0  0  0  0  0  0  0  0  0  0  0
   -1.2780    1.1330    3.9490 H   0  0  0  0  0  0  0  0  0  0  0  0
   -3.1940    0.0770    1.8020 H   0  0  0  0  0  0  0  0  0  0  0  0
   -2.7890    1.7650    2.1470 H   0  0  0  0  0  0  0  0  0  0  0  0
   -4.8720    1.0180    5.5450 H   0  0  0  0  0  0  0  0  0  0  0  0
  1 10  1  0  0  0  0
  1  2  1  0  0  0  0
  2  3  1  0  0  0  0
  2 11  1  0  0  0  0
  3 12  1  0  0  0  0
  4 15  1  6  0  0  0
  4  2  1  0  0  0  0
  4  6  1  0  0  0  0
  5 17  1  0  0  0  0
  5  4  1  0  0  0  0
  6 23  1  0  0  0  0
  6  7  2  0  0  0  0
  8  1  1  0  0  0  0
  9  1  1  0  0  0  0
 13  3  1  0  0  0  0
 14  3  1  0  0  0  0
 16  5  1  0  0  0  0
 18 26  1  0  0  0  0
 19 18  1  0  0  0  0
 19 21  1  0  0  0  0
 20 19  2  0  0  0  0
 21 22  1  0  0  0  0
 21 29  1  0  0  0  0
 22 30  1  1  0  0  0
 22 24  1  0  0  0  0
 23 22  1  0  0  0  0
 24 32  1  0  0  0  0
 24 25  2  0  0  0  0
 27 18  1  0  0  0  0
 28 21  1  0  0  0  0
 31 23  1  0  0  0  0
 32 33  1  0  0  0  0
 33 42  1  1  0  0  0
 33 37  1  0  0  0  0
 34 33  1  0  0  0  0
 34 35  1  0  0  0  0
 35 39  1  0  0  0  0
 36 35  2  0  0  0  0
 37 38  1  0  0  0  0
 39 45  1  0  0  0  0
 40 37  2  0  0  0  0
 41 32  1  0  0  0  0
 43 34  1  0  0  0  0
 44 34  1  0  0  0  0
M  END
$$$$
