VNE.pdb
 OpenBabel07022419243D

 48 47  0  0  1  0  0  0  0  0999 V2000
    1.7740   -5.0990   -0.1700 C   0  0  0  0  0  0  0  0  0  0  0  0
    1.3380   -3.7720    0.4700 C   0  0  0  0  0  0  0  0  0  0  0  0
    0.1570   -3.2870   -0.2940 C   0  0  0  0  0  0  0  0  0  0  0  0
    2.5420   -2.8770    0.4510 C   0  0  2  0  0  0  0  0  0  0  0  0
    3.5540   -3.6040    1.2520 N   0  0  0  0  0  0  0  0  0  0  0  0
    2.3560   -1.5730    1.1000 C   0  0  0  0  0  0  0  0  0  0  0  0
    2.8930   -1.3580    2.2480 O   0  0  0  0  0  0  0  0  0  0  0  0
    0.9410   -5.5450   -0.7590 H   0  0  0  0  0  0  0  0  0  0  0  0
    2.6050   -4.9260   -0.8760 H   0  0  0  0  0  0  0  0  0  0  0  0
    2.0920   -5.8360    0.5740 H   0  0  0  0  0  0  0  0  0  0  0  0
    1.0350   -4.0450    1.5020 H   0  0  0  0  0  0  0  0  0  0  0  0
   -0.4460   -4.1660   -0.6780 H   0  0  0  0  0  0  0  0  0  0  0  0
    0.4200   -2.7070   -1.1820 H   0  0  0  0  0  0  0  0  0  0  0  0
   -0.5800   -2.7630    0.3820 H   0  0  0  0  0  0  0  0  0  0  0  0
    2.9000   -2.7880   -0.6000 H   0  0  0  0  0  0  0  0  0  0  0  0
    3.2730   -3.4040    2.2400 H   0  0  0  0  0  0  0  0  0  0  0  0
    4.4960   -3.2010    1.0340 H   0  0  0  0  0  0  0  0  0  0  0  0
    2.7680    3.1450    2.7430 N   0  0  0  0  0  0  0  0  0  0  0  0
    2.1310    3.1220    1.4540 C   0  0  0  0  0  0  0  0  0  0  0  0
    1.4840    4.1320    1.0680 O   0  0  0  0  0  0  0  0  0  0  0  0
    2.2720    1.8850    0.6460 C   0  0  0  0  0  0  0  0  0  0  0  0
    1.5210    0.7420    1.3050 C   0  0  2  0  0  0  0  0  0  0  0  0
    1.6170   -0.4780    0.5710 N   0  0  0  0  0  0  0  0  0  0  0  0
    0.1500    1.1970    1.5980 C   0  0  0  0  0  0  0  0  0  0  0  0
   -0.0100    2.2640    2.2330 O   0  0  0  0  0  0  0  0  0  0  0  0
    3.4600    2.4190    3.0210 H   0  0  0  0  0  0  0  0  0  0  0  0
    2.5310    3.9090    3.4140 H   0  0  0  0  0  0  0  0  0  0  0  0
    1.8120    2.1250   -0.3580 H   0  0  0  0  0  0  0  0  0  0  0  0
    3.3290    1.6450    0.4230 H   0  0  0  0  0  0  0  0  0  0  0  0
    2.0200    0.6450    2.3280 H   0  0  0  0  0  0  0  0  0  0  0  0
    1.1680   -0.6090   -0.3520 H   0  0  0  0  0  0  0  0  0  0  0  0
   -0.9830    0.4620    1.1870 N   0  0  0  0  0  0  0  0  0  0  0  0
   -2.2960    0.9570    1.5250 C   0  0  1  0  0  0  0  0  0  0  0  0
   -3.0940    1.1470    0.2730 C   0  0  0  0  0  0  0  0  0  0  0  0
   -3.2550   -0.1350   -0.4970 C   0  0  0  0  0  0  0  0  0  0  0  0
   -4.0720    0.1020   -1.7230 C   0  0  0  0  0  0  0  0  0  0  0  0
   -4.4940    1.2580   -1.9590 O   0  0  0  0  0  0  0  0  0  0  0  0
   -2.9670    0.0100    2.4590 C   0  0  0  0  0  0  0  0  0  0  0  0
   -2.3520   -1.0210    2.8010 O   0  0  0  0  0  0  0  0  0  0  0  0
   -4.3690   -0.9430   -2.6060 O   0  0  0  0  0  0  0  0  0  0  0  0
   -4.2290    0.3000    2.9070 O   0  0  0  0  0  0  0  0  0  0  0  0
   -0.8870   -0.4290    0.6480 H   0  0  0  0  0  0  0  0  0  0  0  0
   -2.1820    1.9200    2.0640 H   0  0  0  0  0  0  0  0  0  0  0  0
   -4.0970    1.5620    0.5820 H   0  0  0  0  0  0  0  0  0  0  0  0
   -2.6640    1.9350   -0.3820 H   0  0  0  0  0  0  0  0  0  0  0  0
   -2.2450   -0.4350   -0.8560 H   0  0  0  0  0  0  0  0  0  0  0  0
   -3.7190   -0.9150    0.1070 H   0  0  0  0  0  0  0  0  0  0  0  0
   -4.3490   -0.7440   -3.6040 H   0  0  0  0  0  0  0  0  0  0  0  0
  1  2  1  0  0  0  0
  1 10  1  0  0  0  0
  2 11  1  0  0  0  0
  3 14  1  0  0  0  0
  3  2  1  0  0  0  0
  4 15  1  6  0  0  0
  4  2  1  0  0  0  0
  4  6  1  0  0  0  0
  4  5  1  0  0  0  0
  5 16  1  0  0  0  0
  6  7  2  0  0  0  0
  8  1  1  0  0  0  0
  9  1  1  0  0  0  0
 12  3  1  0  0  0  0
 13  3  1  0  0  0  0
 17  5  1  0  0  0  0
 18 26  1  0  0  0  0
 18 27  1  0  0  0  0
 19 18  1  0  0  0  0
 20 19  2  0  0  0  0
 21 22  1  0  0  0  0
 21 19  1  0  0  0  0
 22 24  1  0  0  0  0
 22 30  1  1  0  0  0
 23  6  1  0  0  0  0
 23 22  1  0  0  0  0
 24 25  2  0  0  0  0
 28 21  1  0  0  0  0
 29 21  1  0  0  0  0
 31 23  1  0  0  0  0
 32 33  1  0  0  0  0
 32 24  1  0  0  0  0
 33 43  1  1  0  0  0
 33 38  1  0  0  0  0
 34 44  1  0  0  0  0
 34 33  1  0  0  0  0
 35 47  1  0  0  0  0
 35 34  1  0  0  0  0
 36 35  1  0  0  0  0
 37 36  2  0  0  0  0
 38 39  2  0  0  0  0
 38 41  1  0  0  0  0
 40 36  1  0  0  0  0
 42 32  1  0  0  0  0
 45 34  1  0  0  0  0
 46 35  1  0  0  0  0
 48 40  1  0  0  0  0
M  END
$$$$
