VNT.pdb
 OpenBabel07022419243D

 46 45  0  0  1  0  0  0  0  0999 V2000
    3.0780    3.2450    2.0220 C   0  0  0  0  0  0  0  0  0  0  0  0
    3.5340    2.1190    2.8960 C   0  0  0  0  0  0  0  0  0  0  0  0
    3.0660    2.3790    4.3100 C   0  0  0  0  0  0  0  0  0  0  0  0
    3.1250    0.7640    2.4060 C   0  0  2  0  0  0  0  0  0  0  0  0
    3.6980    0.5730    1.0940 N   0  0  0  0  0  0  0  0  0  0  0  0
    1.6530    0.5900    2.3740 C   0  0  0  0  0  0  0  0  0  0  0  0
    0.9190    0.6990    3.3720 O   0  0  0  0  0  0  0  0  0  0  0  0
    3.6460    4.1620    2.3280 H   0  0  0  0  0  0  0  0  0  0  0  0
    2.0000    3.4550    2.2040 H   0  0  0  0  0  0  0  0  0  0  0  0
    3.2940    3.0830    0.9530 H   0  0  0  0  0  0  0  0  0  0  0  0
    4.6550    2.1220    2.9330 H   0  0  0  0  0  0  0  0  0  0  0  0
    2.8240    1.4140    4.8000 H   0  0  0  0  0  0  0  0  0  0  0  0
    2.1530    3.0160    4.3030 H   0  0  0  0  0  0  0  0  0  0  0  0
    3.8530    2.8590    4.9060 H   0  0  0  0  0  0  0  0  0  0  0  0
    3.5980    0.0130    3.0760 H   0  0  0  0  0  0  0  0  0  0  0  0
    3.7790   -0.4470    0.8540 H   0  0  0  0  0  0  0  0  0  0  0  0
    4.6010    1.0510    0.9800 H   0  0  0  0  0  0  0  0  0  0  0  0
    0.4730    0.3780   -1.7920 N   0  0  0  0  0  0  0  0  0  0  0  0
   -0.4270    1.2640   -1.1690 C   0  0  0  0  0  0  0  0  0  0  0  0
   -0.8220    2.2360   -1.8940 O   0  0  0  0  0  0  0  0  0  0  0  0
   -0.9590    1.2120    0.1840 C   0  0  0  0  0  0  0  0  0  0  0  0
   -0.4090    0.0920    1.0180 C   0  0  2  0  0  0  0  0  0  0  0  0
    1.0380    0.2760    1.1130 N   0  0  0  0  0  0  0  0  0  0  0  0
   -0.6670   -1.2550    0.4840 C   0  0  0  0  0  0  0  0  0  0  0  0
    0.2710   -2.0790    0.2150 O   0  0  0  0  0  0  0  0  0  0  0  0
    1.4330    0.6840   -2.0100 H   0  0  0  0  0  0  0  0  0  0  0  0
    0.1700   -0.5750   -2.0380 H   0  0  0  0  0  0  0  0  0  0  0  0
   -0.7090    2.1970    0.6840 H   0  0  0  0  0  0  0  0  0  0  0  0
   -2.0650    1.0990    0.1270 H   0  0  0  0  0  0  0  0  0  0  0  0
   -0.8620    0.2070    2.0490 H   0  0  0  0  0  0  0  0  0  0  0  0
    1.6560    0.1850    0.2870 H   0  0  0  0  0  0  0  0  0  0  0  0
   -3.3460   -5.2120   -0.0250 C   0  0  0  0  0  0  0  0  0  0  0  0
   -3.2160   -3.8360    0.5920 C   0  0  1  0  0  0  0  0  0  0  0  0
   -2.5820   -3.9990    1.8250 O   0  0  0  0  0  0  0  0  0  0  0  0
   -2.2950   -3.0320   -0.2870 C   0  0  2  0  0  0  0  0  0  0  0  0
   -1.9810   -1.7370    0.2300 N   0  0  0  0  0  0  0  0  0  0  0  0
   -2.9200   -2.8450   -1.6250 C   0  0  0  0  0  0  0  0  0  0  0  0
   -3.1030   -1.7120   -2.1360 O   0  0  0  0  0  0  0  0  0  0  0  0
   -3.3240   -3.9690   -2.3550 O   0  0  0  0  0  0  0  0  0  0  0  0
   -2.4870   -5.4590   -0.6800 H   0  0  0  0  0  0  0  0  0  0  0  0
   -3.4760   -5.9340    0.8000 H   0  0  0  0  0  0  0  0  0  0  0  0
   -4.2750   -5.2220   -0.6260 H   0  0  0  0  0  0  0  0  0  0  0  0
   -4.2090   -3.4120    0.7020 H   0  0  0  0  0  0  0  0  0  0  0  0
   -1.6090   -4.0080    1.6930 H   0  0  0  0  0  0  0  0  0  0  0  0
   -1.3550   -3.5970   -0.4580 H   0  0  0  0  0  0  0  0  0  0  0  0
   -2.7690   -1.0890    0.4400 H   0  0  0  0  0  0  0  0  0  0  0  0
  1  9  1  0  0  0  0
  1  8  1  0  0  0  0
  1  2  1  0  0  0  0
  2 11  1  0  0  0  0
  2  3  1  0  0  0  0
  3 12  1  0  0  0  0
  3 14  1  0  0  0  0
  4  2  1  0  0  0  0
  4 15  1  1  0  0  0
  5  4  1  0  0  0  0
  6  4  1  0  0  0  0
  6  7  2  0  0  0  0
 10  1  1  0  0  0  0
 13  3  1  0  0  0  0
 16  5  1  0  0  0  0
 17  5  1  0  0  0  0
 18 19  1  0  0  0  0
 19 21  1  0  0  0  0
 20 19  2  0  0  0  0
 21 28  1  0  0  0  0
 21 22  1  0  0  0  0
 22 23  1  0  0  0  0
 22 30  1  1  0  0  0
 23  6  1  0  0  0  0
 24 22  1  0  0  0  0
 25 24  2  0  0  0  0
 26 18  1  0  0  0  0
 27 18  1  0  0  0  0
 29 21  1  0  0  0  0
 31 23  1  0  0  0  0
 32 33  1  0  0  0  0
 32 41  1  0  0  0  0
 33 43  1  1  0  0  0
 33 34  1  0  0  0  0
 35 45  1  6  0  0  0
 35 36  1  0  0  0  0
 35 33  1  0  0  0  0
 36 46  1  0  0  0  0
 36 24  1  0  0  0  0
 37 35  1  0  0  0  0
 38 37  1  0  0  0  0
 39 37  2  0  0  0  0
 40 32  1  0  0  0  0
 42 32  1  0  0  0  0
 44 34  1  0  0  0  0
M  END
$$$$
