VPC.pdb
 OpenBabel07022419273D

 43 43  0  0  1  0  0  0  0  0999 V2000
    1.6130   -4.8730    2.1580 C   0  0  0  0  0  0  0  0  0  0  0  0
    0.3540   -4.0870    2.0750 C   0  0  0  0  0  0  0  0  0  0  0  0
   -0.1720   -4.1130    0.6800 C   0  0  0  0  0  0  0  0  0  0  0  0
    0.5580   -2.6750    2.5980 C   0  0  2  0  0  0  0  0  0  0  0  0
   -0.6230   -1.9020    2.5330 N   0  0  0  0  0  0  0  0  0  0  0  0
    1.7080   -2.0100    2.0340 C   0  0  0  0  0  0  0  0  0  0  0  0
    2.8140   -2.6560    1.9560 O   0  0  0  0  0  0  0  0  0  0  0  0
    2.2250   -4.7910    1.2220 H   0  0  0  0  0  0  0  0  0  0  0  0
    1.4170   -5.9820    2.2480 H   0  0  0  0  0  0  0  0  0  0  0  0
    2.2430   -4.6400    3.0470 H   0  0  0  0  0  0  0  0  0  0  0  0
   -0.3960   -4.5610    2.7480 H   0  0  0  0  0  0  0  0  0  0  0  0
   -1.2430   -4.4440    0.6610 H   0  0  0  0  0  0  0  0  0  0  0  0
   -0.1430   -3.1490    0.1590 H   0  0  0  0  0  0  0  0  0  0  0  0
    0.3610   -4.8690    0.0340 H   0  0  0  0  0  0  0  0  0  0  0  0
    0.7830   -2.8210    3.7010 H   0  0  0  0  0  0  0  0  0  0  0  0
   -1.2510   -2.0170    3.3540 H   0  0  0  0  0  0  0  0  0  0  0  0
   -1.1350   -1.9530    1.6240 H   0  0  0  0  0  0  0  0  0  0  0  0
    1.6930   -0.6880    1.5590 N   0  0  0  0  0  0  0  0  0  0  0  0
    2.9160   -0.0780    0.9650 C   0  0  0  0  0  0  0  0  0  0  0  0
    2.8420    1.3480    1.3740 C   0  0  0  0  0  0  0  0  0  0  0  0
    1.4950    1.5680    2.0040 C   0  0  0  0  0  0  0  0  0  0  0  0
    0.7250    0.3550    1.4800 C   0  0  1  0  0  0  0  0  0  0  0  0
    0.3580    0.6590    0.0520 C   0  0  0  0  0  0  0  0  0  0  0  0
    0.8250    0.0290   -0.9250 O   0  0  0  0  0  0  0  0  0  0  0  0
    2.9670   -0.2590   -0.1210 H   0  0  0  0  0  0  0  0  0  0  0  0
    3.8290   -0.5810    1.3860 H   0  0  0  0  0  0  0  0  0  0  0  0
    3.0070    2.0570    0.5180 H   0  0  0  0  0  0  0  0  0  0  0  0
    3.6800    1.5570    2.0950 H   0  0  0  0  0  0  0  0  0  0  0  0
    1.0120    2.4990    1.6650 H   0  0  0  0  0  0  0  0  0  0  0  0
    1.5640    1.4700    3.0880 H   0  0  0  0  0  0  0  0  0  0  0  0
   -0.2040    0.2190    2.0560 H   0  0  0  0  0  0  0  0  0  0  0  0
   -0.5630    1.7040   -0.2580 N   0  0  0  0  0  0  0  0  0  0  0  0
   -0.9390    2.0230   -1.6220 C   0  0  1  0  0  0  0  0  0  0  0  0
   -2.4230    1.6700   -1.7420 C   0  0  0  0  0  0  0  0  0  0  0  0
   -3.3050    2.6980   -0.5150 S   0  0  0  0  0  0  0  0  0  0  0  0
   -0.7440    3.4390   -1.9470 C   0  0  0  0  0  0  0  0  0  0  0  0
   -0.2980    4.2770   -1.1230 O   0  0  0  0  0  0  0  0  0  0  0  0
   -1.0650    3.8810   -3.2220 O   0  0  0  0  0  0  0  0  0  0  0  0
   -0.9800    2.2560    0.5050 H   0  0  0  0  0  0  0  0  0  0  0  0
   -0.4080    1.3410   -2.3440 H   0  0  0  0  0  0  0  0  0  0  0  0
   -2.8070    1.8290   -2.7590 H   0  0  0  0  0  0  0  0  0  0  0  0
   -2.5230    0.5940   -1.4700 H   0  0  0  0  0  0  0  0  0  0  0  0
   -3.0620    2.1540    0.7740 H   0  0  0  0  0  0  0  0  0  0  0  0
  1  9  1  0  0  0  0
  1 10  1  0  0  0  0
  2  1  1  0  0  0  0
  2  4  1  0  0  0  0
  2 11  1  0  0  0  0
  3  2  1  0  0  0  0
  4 15  1  1  0  0  0
  5  4  1  0  0  0  0
  5 16  1  0  0  0  0
  6  4  1  0  0  0  0
  7  6  2  0  0  0  0
  8  1  1  0  0  0  0
 12  3  1  0  0  0  0
 13  3  1  0  0  0  0
 14  3  1  0  0  0  0
 17  5  1  0  0  0  0
 18  6  1  0  0  0  0
 19 20  1  0  0  0  0
 19 26  1  0  0  0  0
 19 18  1  0  0  0  0
 20 21  1  0  0  0  0
 20 28  1  0  0  0  0
 21 30  1  0  0  0  0
 22 18  1  0  0  0  0
 22 21  1  0  0  0  0
 22 31  1  1  0  0  0
 23 22  1  0  0  0  0
 24 23  2  0  0  0  0
 25 19  1  0  0  0  0
 27 20  1  0  0  0  0
 29 21  1  0  0  0  0
 32 23  1  0  0  0  0
 32 39  1  0  0  0  0
 33 40  1  6  0  0  0
 33 32  1  0  0  0  0
 34 33  1  0  0  0  0
 34 42  1  0  0  0  0
 34 35  1  0  0  0  0
 35 43  1  0  0  0  0
 36 33  1  0  0  0  0
 36 37  1  0  0  0  0
 38 36  2  0  0  0  0
 41 34  1  0  0  0  0
M  END
$$$$
