VPD.pdb
 OpenBabel07022419273D

 45 45  0  0  1  0  0  0  0  0999 V2000
   -0.4660   -3.9360    0.9420 C   0  0  0  0  0  0  0  0  0  0  0  0
    0.7800   -3.1320    0.7610 C   0  0  0  0  0  0  0  0  0  0  0  0
    1.4270   -2.6190    1.9830 C   0  0  0  0  0  0  0  0  0  0  0  0
    0.6480   -2.1010   -0.3830 C   0  0  2  0  0  0  0  0  0  0  0  0
    0.4070   -2.9760   -1.5530 N   0  0  0  0  0  0  0  0  0  0  0  0
    1.9140   -1.3910   -0.4610 C   0  0  0  0  0  0  0  0  0  0  0  0
    2.8710   -2.1670   -0.9080 O   0  0  0  0  0  0  0  0  0  0  0  0
   -0.3160   -4.5670    1.8380 H   0  0  0  0  0  0  0  0  0  0  0  0
   -1.3580   -3.3060    1.1250 H   0  0  0  0  0  0  0  0  0  0  0  0
   -0.6730   -4.5120    0.0310 H   0  0  0  0  0  0  0  0  0  0  0  0
    1.5290   -3.8740    0.3040 H   0  0  0  0  0  0  0  0  0  0  0  0
    2.0920   -1.7620    1.7460 H   0  0  0  0  0  0  0  0  0  0  0  0
    0.6850   -2.3240    2.7520 H   0  0  0  0  0  0  0  0  0  0  0  0
    2.1020   -3.4120    2.4170 H   0  0  0  0  0  0  0  0  0  0  0  0
   -0.2630   -1.5640   -0.2270 H   0  0  0  0  0  0  0  0  0  0  0  0
    1.1370   -2.8730   -2.2720 H   0  0  0  0  0  0  0  0  0  0  0  0
   -0.5480   -2.8230   -1.9330 H   0  0  0  0  0  0  0  0  0  0  0  0
    2.2570   -0.0730   -0.1540 N   0  0  0  0  0  0  0  0  0  0  0  0
    3.7040    0.3460   -0.3160 C   0  0  0  0  0  0  0  0  0  0  0  0
    3.4640    1.4550   -1.3450 C   0  0  0  0  0  0  0  0  0  0  0  0
    2.0820    2.0140   -1.0120 C   0  0  0  0  0  0  0  0  0  0  0  0
    1.7250    1.1600    0.2400 C   0  0  1  0  0  0  0  0  0  0  0  0
    0.4150    1.4220    0.6990 C   0  0  0  0  0  0  0  0  0  0  0  0
   -0.0570    2.5980    0.3880 O   0  0  0  0  0  0  0  0  0  0  0  0
    3.9770    0.7530    0.6740 H   0  0  0  0  0  0  0  0  0  0  0  0
    4.3130   -0.4590   -0.7000 H   0  0  0  0  0  0  0  0  0  0  0  0
    4.2350    2.2230   -1.3200 H   0  0  0  0  0  0  0  0  0  0  0  0
    3.4430    0.9430   -2.3380 H   0  0  0  0  0  0  0  0  0  0  0  0
    1.3350    1.7670   -1.7780 H   0  0  0  0  0  0  0  0  0  0  0  0
    2.0970    3.0760   -0.7660 H   0  0  0  0  0  0  0  0  0  0  0  0
    2.4660    1.5960    1.0230 H   0  0  0  0  0  0  0  0  0  0  0  0
   -0.4280    0.6100    1.4320 N   0  0  0  0  0  0  0  0  0  0  0  0
   -1.7910    1.0260    1.8320 C   0  0  1  0  0  0  0  0  0  0  0  0
   -2.7880   -0.0020    1.3300 C   0  0  0  0  0  0  0  0  0  0  0  0
   -4.1810    0.3420    1.6850 C   0  0  0  0  0  0  0  0  0  0  0  0
   -4.6120    1.4890    1.3770 O   0  0  0  0  0  0  0  0  0  0  0  0
   -1.8380    1.1290    3.3100 C   0  0  0  0  0  0  0  0  0  0  0  0
   -2.8910    1.4720    3.9170 O   0  0  0  0  0  0  0  0  0  0  0  0
   -5.0600   -0.5140    2.3420 O   0  0  0  0  0  0  0  0  0  0  0  0
   -0.7300    0.8550    4.1200 O   0  0  0  0  0  0  0  0  0  0  0  0
   -0.1260   -0.3260    1.7440 H   0  0  0  0  0  0  0  0  0  0  0  0
   -2.0500    2.0110    1.4180 H   0  0  0  0  0  0  0  0  0  0  0  0
   -2.5850   -1.0100    1.7630 H   0  0  0  0  0  0  0  0  0  0  0  0
   -2.7410   -0.0800    0.2150 H   0  0  0  0  0  0  0  0  0  0  0  0
   -5.8580   -0.1100    2.8540 H   0  0  0  0  0  0  0  0  0  0  0  0
  1  9  1  0  0  0  0
  1  8  1  0  0  0  0
  2  1  1  0  0  0  0
  2  3  1  0  0  0  0
  3 14  1  0  0  0  0
  3 13  1  0  0  0  0
  4 15  1  1  0  0  0
  4  2  1  0  0  0  0
  5  4  1  0  0  0  0
  6  4  1  0  0  0  0
  6 18  1  0  0  0  0
  7  6  2  0  0  0  0
 10  1  1  0  0  0  0
 11  2  1  0  0  0  0
 12  3  1  0  0  0  0
 16  5  1  0  0  0  0
 17  5  1  0  0  0  0
 18 22  1  0  0  0  0
 19 18  1  0  0  0  0
 19 25  1  0  0  0  0
 20 27  1  0  0  0  0
 20 21  1  0  0  0  0
 20 19  1  0  0  0  0
 21 30  1  0  0  0  0
 21 22  1  0  0  0  0
 22 23  1  0  0  0  0
 22 31  1  1  0  0  0
 23 32  1  0  0  0  0
 24 23  2  0  0  0  0
 26 19  1  0  0  0  0
 28 20  1  0  0  0  0
 29 21  1  0  0  0  0
 32 41  1  0  0  0  0
 32 33  1  0  0  0  0
 33 42  1  6  0  0  0
 33 37  1  0  0  0  0
 34 35  1  0  0  0  0
 34 43  1  0  0  0  0
 34 33  1  0  0  0  0
 35 39  1  0  0  0  0
 36 35  2  0  0  0  0
 37 38  2  0  0  0  0
 37 40  1  0  0  0  0
 39 45  1  0  0  0  0
 44 34  1  0  0  0  0
M  END
$$$$
