VPF.pdb
 OpenBabel07022419273D

 52 53  0  0  1  0  0  0  0  0999 V2000
    4.6600   -1.7850    3.7030 C   0  0  0  0  0  0  0  0  0  0  0  0
    4.8620   -2.4740    2.3630 C   0  0  0  0  0  0  0  0  0  0  0  0
    4.4050   -3.9060    2.4970 C   0  0  0  0  0  0  0  0  0  0  0  0
    4.0860   -1.7310    1.2860 C   0  0  2  0  0  0  0  0  0  0  0  0
    4.5900   -0.3910    1.2400 N   0  0  0  0  0  0  0  0  0  0  0  0
    2.6310   -1.8220    1.5070 C   0  0  0  0  0  0  0  0  0  0  0  0
    2.1700   -3.0280    1.3770 O   0  0  0  0  0  0  0  0  0  0  0  0
    5.4280   -2.1370    4.4190 H   0  0  0  0  0  0  0  0  0  0  0  0
    4.6860   -0.6840    3.5650 H   0  0  0  0  0  0  0  0  0  0  0  0
    3.6490   -2.0620    4.0460 H   0  0  0  0  0  0  0  0  0  0  0  0
    5.9460   -2.4370    2.1440 H   0  0  0  0  0  0  0  0  0  0  0  0
    4.2090   -4.3470    1.4810 H   0  0  0  0  0  0  0  0  0  0  0  0
    5.1590   -4.5530    2.9580 H   0  0  0  0  0  0  0  0  0  0  0  0
    3.4760   -3.9790    3.1190 H   0  0  0  0  0  0  0  0  0  0  0  0
    4.3310   -2.2070    0.3060 H   0  0  0  0  0  0  0  0  0  0  0  0
    4.5940   -0.0520    0.2550 H   0  0  0  0  0  0  0  0  0  0  0  0
    5.5250   -0.2700    1.6400 H   0  0  0  0  0  0  0  0  0  0  0  0
    1.7520   -0.7700    1.8280 N   0  0  0  0  0  0  0  0  0  0  0  0
    2.0570    0.5980    2.0480 C   0  0  0  0  0  0  0  0  0  0  0  0
    1.0030    1.0760    3.0210 C   0  0  0  0  0  0  0  0  0  0  0  0
    0.0390   -0.0780    3.1860 C   0  0  0  0  0  0  0  0  0  0  0  0
    0.3270   -0.9450    1.9660 C   0  0  1  0  0  0  0  0  0  0  0  0
   -0.4490   -0.3780    0.8490 C   0  0  0  0  0  0  0  0  0  0  0  0
    0.1500    0.2010   -0.0970 O   0  0  0  0  0  0  0  0  0  0  0  0
    1.9030    1.1420    1.0920 H   0  0  0  0  0  0  0  0  0  0  0  0
    3.0800    0.7980    2.4550 H   0  0  0  0  0  0  0  0  0  0  0  0
    1.4510    1.3700    3.9950 H   0  0  0  0  0  0  0  0  0  0  0  0
    0.5000    1.9660    2.6020 H   0  0  0  0  0  0  0  0  0  0  0  0
    0.2910   -0.5970    4.1230 H   0  0  0  0  0  0  0  0  0  0  0  0
   -1.0070    0.2590    3.1310 H   0  0  0  0  0  0  0  0  0  0  0  0
    0.0520   -1.9990    2.1820 H   0  0  0  0  0  0  0  0  0  0  0  0
   -1.8580   -0.4420    0.7630 N   0  0  0  0  0  0  0  0  0  0  0  0
   -2.5470    0.1520   -0.3840 C   0  0  1  0  0  0  0  0  0  0  0  0
   -3.3110   -0.9610   -1.0320 C   0  0  0  0  0  0  0  0  0  0  0  0
   -4.0920   -0.5950   -2.2170 C   0  0  0  0  0  0  0  0  0  0  0  0
   -5.4120   -0.2020   -2.1160 C   0  0  0  0  0  0  0  0  0  0  0  0
   -6.1720    0.1530   -3.2120 C   0  0  0  0  0  0  0  0  0  0  0  0
   -5.6310    0.1290   -4.4810 C   0  0  0  0  0  0  0  0  0  0  0  0
   -4.3150   -0.2610   -4.5990 C   0  0  0  0  0  0  0  0  0  0  0  0
   -3.5650   -0.6140   -3.4960 C   0  0  0  0  0  0  0  0  0  0  0  0
   -3.4460    1.1880    0.1370 C   0  0  0  0  0  0  0  0  0  0  0  0
   -3.5530    1.4380    1.3870 O   0  0  0  0  0  0  0  0  0  0  0  0
   -4.2610    1.9930   -0.6680 O   0  0  0  0  0  0  0  0  0  0  0  0
   -2.4080   -0.9090    1.5090 H   0  0  0  0  0  0  0  0  0  0  0  0
   -1.8140    0.6300   -1.0650 H   0  0  0  0  0  0  0  0  0  0  0  0
   -3.9970   -1.3790   -0.2510 H   0  0  0  0  0  0  0  0  0  0  0  0
   -2.6460   -1.7990   -1.3140 H   0  0  0  0  0  0  0  0  0  0  0  0
   -5.8550   -0.1790   -1.1320 H   0  0  0  0  0  0  0  0  0  0  0  0
   -7.2150    0.4640   -3.1210 H   0  0  0  0  0  0  0  0  0  0  0  0
   -6.2330    0.4100   -5.3500 H   0  0  0  0  0  0  0  0  0  0  0  0
   -3.9010   -0.2760   -5.6030 H   0  0  0  0  0  0  0  0  0  0  0  0
   -2.5160   -0.9220   -3.6230 H   0  0  0  0  0  0  0  0  0  0  0  0
  1 10  1  0  0  0  0
  1  8  1  0  0  0  0
  2  3  1  0  0  0  0
  2  1  1  0  0  0  0
  3 13  1  0  0  0  0
  3 14  1  0  0  0  0
  4 15  1  6  0  0  0
  4  6  1  0  0  0  0
  4  2  1  0  0  0  0
  5  4  1  0  0  0  0
  5 17  1  0  0  0  0
  6 18  1  0  0  0  0
  7  6  2  0  0  0  0
  9  1  1  0  0  0  0
 11  2  1  0  0  0  0
 12  3  1  0  0  0  0
 16  5  1  0  0  0  0
 18 22  1  0  0  0  0
 18 19  1  0  0  0  0
 19 26  1  0  0  0  0
 19 20  1  0  0  0  0
 20 21  1  0  0  0  0
 20 27  1  0  0  0  0
 21 29  1  0  0  0  0
 22 31  1  1  0  0  0
 22 21  1  0  0  0  0
 23 22  1  0  0  0  0
 24 23  2  0  0  0  0
 25 19  1  0  0  0  0
 28 20  1  0  0  0  0
 30 21  1  0  0  0  0
 32 23  1  0  0  0  0
 32 44  1  0  0  0  0
 33 45  1  6  0  0  0
 33 41  1  0  0  0  0
 33 32  1  0  0  0  0
 34 33  1  0  0  0  0
 34 46  1  0  0  0  0
 35 36  1  0  0  0  0
 35 34  1  0  0  0  0
 36 48  1  0  0  0  0
 37 49  1  0  0  0  0
 37 36  2  0  0  0  0
 38 37  1  0  0  0  0
 39 38  2  0  0  0  0
 39 40  1  0  0  0  0
 40 35  2  0  0  0  0
 41 42  1  0  0  0  0
 43 41  2  0  0  0  0
 47 34  1  0  0  0  0
 50 38  1  0  0  0  0
 51 39  1  0  0  0  0
 52 40  1  0  0  0  0
M  END
$$$$
