VPL.pdb
 OpenBabel07022419273D

 51 51  0  0  1  0  0  0  0  0999 V2000
    0.0360   -4.5230    1.6240 C   0  0  0  0  0  0  0  0  0  0  0  0
    1.3380   -3.7490    1.3560 C   0  0  0  0  0  0  0  0  0  0  0  0
    1.5290   -2.8420    2.5240 C   0  0  0  0  0  0  0  0  0  0  0  0
    0.9800   -2.8670    0.1350 C   0  0  2  0  0  0  0  0  0  0  0  0
    0.6060   -3.8650   -0.9100 N   0  0  0  0  0  0  0  0  0  0  0  0
    2.1410   -2.1300   -0.3740 C   0  0  0  0  0  0  0  0  0  0  0  0
    2.8960   -2.7990   -1.1740 O   0  0  0  0  0  0  0  0  0  0  0  0
    0.1210   -5.0920    2.5740 H   0  0  0  0  0  0  0  0  0  0  0  0
   -0.7790   -3.7740    1.7190 H   0  0  0  0  0  0  0  0  0  0  0  0
   -0.2020   -5.1570    0.7660 H   0  0  0  0  0  0  0  0  0  0  0  0
    2.1720   -4.4120    1.1320 H   0  0  0  0  0  0  0  0  0  0  0  0
    2.5070   -2.2950    2.4800 H   0  0  0  0  0  0  0  0  0  0  0  0
    0.6590   -2.1550    2.5670 H   0  0  0  0  0  0  0  0  0  0  0  0
    1.5390   -3.4670    3.4500 H   0  0  0  0  0  0  0  0  0  0  0  0
    0.1180   -2.2690    0.4510 H   0  0  0  0  0  0  0  0  0  0  0  0
    1.3350   -3.9180   -1.6370 H   0  0  0  0  0  0  0  0  0  0  0  0
   -0.3260   -3.6010   -1.3020 H   0  0  0  0  0  0  0  0  0  0  0  0
    2.5000   -0.8040   -0.0860 N   0  0  0  0  0  0  0  0  0  0  0  0
    3.7190   -0.1530   -0.6100 C   0  0  0  0  0  0  0  0  0  0  0  0
    4.0430    0.7960    0.5540 C   0  0  0  0  0  0  0  0  0  0  0  0
    2.6770    1.4210    0.7330 C   0  0  0  0  0  0  0  0  0  0  0  0
    1.7970    0.1540    0.6930 C   0  0  1  0  0  0  0  0  0  0  0  0
    0.5030    0.4760    0.0230 C   0  0  0  0  0  0  0  0  0  0  0  0
    0.1820   -0.0230   -1.0860 O   0  0  0  0  0  0  0  0  0  0  0  0
    3.4600    0.4880   -1.4730 H   0  0  0  0  0  0  0  0  0  0  0  0
    4.5180   -0.8700   -0.7950 H   0  0  0  0  0  0  0  0  0  0  0  0
    4.2820    0.1300    1.4160 H   0  0  0  0  0  0  0  0  0  0  0  0
    4.8280    1.5060    0.3040 H   0  0  0  0  0  0  0  0  0  0  0  0
    2.5780    1.9270    1.7070 H   0  0  0  0  0  0  0  0  0  0  0  0
    2.4870    2.0590   -0.1350 H   0  0  0  0  0  0  0  0  0  0  0  0
    1.7010   -0.1690    1.7200 H   0  0  0  0  0  0  0  0  0  0  0  0
   -2.9850   -1.1030   -0.0030 C   0  0  0  0  0  0  0  0  0  0  0  0
   -2.9000   -0.1720    1.1590 C   0  0  0  0  0  0  0  0  0  0  0  0
   -4.1360   -0.3930    2.0190 C   0  0  0  0  0  0  0  0  0  0  0  0
   -2.8550    1.2760    0.8060 C   0  0  0  0  0  0  0  0  0  0  0  0
   -1.6810    1.6640   -0.0560 C   0  0  2  0  0  0  0  0  0  0  0  0
   -0.4240    1.3670    0.6190 N   0  0  0  0  0  0  0  0  0  0  0  0
   -1.8130    3.0970   -0.3700 C   0  0  0  0  0  0  0  0  0  0  0  0
   -0.9120    3.8990   -0.0620 O   0  0  0  0  0  0  0  0  0  0  0  0
   -2.9430    3.5490   -1.0090 O   0  0  0  0  0  0  0  0  0  0  0  0
   -2.4490   -0.7990   -0.9000 H   0  0  0  0  0  0  0  0  0  0  0  0
   -4.0350   -1.3190   -0.3030 H   0  0  0  0  0  0  0  0  0  0  0  0
   -2.5640   -2.1050    0.3000 H   0  0  0  0  0  0  0  0  0  0  0  0
   -2.0020   -0.4140    1.7810 H   0  0  0  0  0  0  0  0  0  0  0  0
   -4.9530   -0.7100    1.3490 H   0  0  0  0  0  0  0  0  0  0  0  0
   -3.9630   -1.1680    2.7850 H   0  0  0  0  0  0  0  0  0  0  0  0
   -4.4490    0.5740    2.4870 H   0  0  0  0  0  0  0  0  0  0  0  0
   -2.7690    1.8560    1.7470 H   0  0  0  0  0  0  0  0  0  0  0  0
   -3.7660    1.6210    0.2930 H   0  0  0  0  0  0  0  0  0  0  0  0
   -1.7600    1.1150   -1.0180 H   0  0  0  0  0  0  0  0  0  0  0  0
   -0.2320    1.8210    1.5380 H   0  0  0  0  0  0  0  0  0  0  0  0
  1  9  1  0  0  0  0
  1  8  1  0  0  0  0
  2  1  1  0  0  0  0
  2  3  1  0  0  0  0
  3 13  1  0  0  0  0
  3 14  1  0  0  0  0
  4 15  1  1  0  0  0
  4  2  1  0  0  0  0
  5  4  1  0  0  0  0
  6 18  1  0  0  0  0
  6  4  1  0  0  0  0
  7  6  2  0  0  0  0
 10  1  1  0  0  0  0
 11  2  1  0  0  0  0
 12  3  1  0  0  0  0
 16  5  1  0  0  0  0
 17  5  1  0  0  0  0
 18 22  1  0  0  0  0
 19 18  1  0  0  0  0
 19 20  1  0  0  0  0
 20 21  1  0  0  0  0
 20 27  1  0  0  0  0
 21 29  1  0  0  0  0
 22 21  1  0  0  0  0
 22 31  1  1  0  0  0
 23 37  1  0  0  0  0
 23 22  1  0  0  0  0
 24 23  2  0  0  0  0
 25 19  1  0  0  0  0
 26 19  1  0  0  0  0
 28 20  1  0  0  0  0
 30 21  1  0  0  0  0
 32 43  1  0  0  0  0
 32 33  1  0  0  0  0
 33 44  1  0  0  0  0
 33 34  1  0  0  0  0
 34 47  1  0  0  0  0
 34 46  1  0  0  0  0
 35 33  1  0  0  0  0
 35 48  1  0  0  0  0
 36 50  1  6  0  0  0
 36 37  1  0  0  0  0
 36 35  1  0  0  0  0
 37 51  1  0  0  0  0
 38 39  1  0  0  0  0
 38 36  1  0  0  0  0
 40 38  2  0  0  0  0
 41 32  1  0  0  0  0
 42 32  1  0  0  0  0
 45 34  1  0  0  0  0
 49 35  1  0  0  0  0
M  END
$$$$
