VPP.pdb
 OpenBabel07022419273D

 46 47  0  0  1  0  0  0  0  0999 V2000
    0.2120   -4.5650   -0.9530 C   0  0  0  0  0  0  0  0  0  0  0  0
    1.1310   -3.7280   -1.8410 C   0  0  0  0  0  0  0  0  0  0  0  0
    2.5380   -3.8740   -1.3500 C   0  0  0  0  0  0  0  0  0  0  0  0
    0.6540   -2.2980   -1.8870 C   0  0  2  0  0  0  0  0  0  0  0  0
    1.5650   -1.5780   -2.7340 N   0  0  0  0  0  0  0  0  0  0  0  0
    0.3930   -1.7200   -0.5800 C   0  0  0  0  0  0  0  0  0  0  0  0
   -0.4800   -2.2990    0.1600 O   0  0  0  0  0  0  0  0  0  0  0  0
   -0.8310   -4.2280   -1.1110 H   0  0  0  0  0  0  0  0  0  0  0  0
    0.3130   -5.6570   -1.2160 H   0  0  0  0  0  0  0  0  0  0  0  0
    0.5640   -4.4670    0.0830 H   0  0  0  0  0  0  0  0  0  0  0  0
    1.0760   -4.1940   -2.8460 H   0  0  0  0  0  0  0  0  0  0  0  0
    3.2330   -3.1730   -1.8540 H   0  0  0  0  0  0  0  0  0  0  0  0
    2.8840   -4.9030   -1.6600 H   0  0  0  0  0  0  0  0  0  0  0  0
    2.6250   -3.8540   -0.2460 H   0  0  0  0  0  0  0  0  0  0  0  0
   -0.3390   -2.3290   -2.4290 H   0  0  0  0  0  0  0  0  0  0  0  0
    1.0590   -0.9620   -3.4370 H   0  0  0  0  0  0  0  0  0  0  0  0
    2.1600   -2.2090   -3.3340 H   0  0  0  0  0  0  0  0  0  0  0  0
    1.0290   -0.5680   -0.0700 N   0  0  0  0  0  0  0  0  0  0  0  0
    2.0410    0.2160   -0.7150 C   0  0  0  0  0  0  0  0  0  0  0  0
    2.7430    0.9110    0.4300 C   0  0  0  0  0  0  0  0  0  0  0  0
    1.5670    1.2820    1.3060 C   0  0  0  0  0  0  0  0  0  0  0  0
    0.7400    0.0290    1.2150 C   0  0  1  0  0  0  0  0  0  0  0  0
   -0.6750    0.4330    1.3370 C   0  0  0  0  0  0  0  0  0  0  0  0
   -1.4110    0.2870    0.3320 O   0  0  0  0  0  0  0  0  0  0  0  0
    1.6260    0.9960   -1.3860 H   0  0  0  0  0  0  0  0  0  0  0  0
    2.8360   -0.3690   -1.2240 H   0  0  0  0  0  0  0  0  0  0  0  0
    3.4200    0.2160    0.9740 H   0  0  0  0  0  0  0  0  0  0  0  0
    3.3410    1.7750    0.1260 H   0  0  0  0  0  0  0  0  0  0  0  0
    1.9180    1.5270    2.3060 H   0  0  0  0  0  0  0  0  0  0  0  0
    1.0530    2.1260    0.7960 H   0  0  0  0  0  0  0  0  0  0  0  0
    1.0450   -0.6390    2.0440 H   0  0  0  0  0  0  0  0  0  0  0  0
   -1.2630    0.9750    2.5110 N   0  0  0  0  0  0  0  0  0  0  0  0
   -0.6220    1.2230    3.7890 C   0  0  0  0  0  0  0  0  0  0  0  0
   -1.6580    0.6550    4.7520 C   0  0  0  0  0  0  0  0  0  0  0  0
   -2.9770    0.8760    4.0480 C   0  0  0  0  0  0  0  0  0  0  0  0
   -2.6350    1.4020    2.6780 C   0  0  1  0  0  0  0  0  0  0  0  0
   -2.7640    2.8890    2.7100 C   0  0  0  0  0  0  0  0  0  0  0  0
   -1.7780    3.6560    2.5650 O   0  0  0  0  0  0  0  0  0  0  0  0
   -3.9890    3.5090    2.9030 O   0  0  0  0  0  0  0  0  0  0  0  0
   -0.5320    2.2950    3.9590 H   0  0  0  0  0  0  0  0  0  0  0  0
    0.3420    0.6770    3.8780 H   0  0  0  0  0  0  0  0  0  0  0  0
   -1.6100    1.1450    5.7440 H   0  0  0  0  0  0  0  0  0  0  0  0
   -1.4550   -0.4380    4.8020 H   0  0  0  0  0  0  0  0  0  0  0  0
   -3.6120    1.6040    4.6280 H   0  0  0  0  0  0  0  0  0  0  0  0
   -3.5200   -0.0800    3.8880 H   0  0  0  0  0  0  0  0  0  0  0  0
   -3.2980    0.9740    1.8910 H   0  0  0  0  0  0  0  0  0  0  0  0
  1 10  1  0  0  0  0
  2  3  1  0  0  0  0
  2  1  1  0  0  0  0
  3 14  1  0  0  0  0
  4 15  1  6  0  0  0
  4  2  1  0  0  0  0
  4  6  1  0  0  0  0
  5  4  1  0  0  0  0
  6 18  1  0  0  0  0
  6  7  2  0  0  0  0
  8  1  1  0  0  0  0
  9  1  1  0  0  0  0
 11  2  1  0  0  0  0
 12  3  1  0  0  0  0
 13  3  1  0  0  0  0
 16  5  1  0  0  0  0
 17  5  1  0  0  0  0
 18 22  1  0  0  0  0
 19 18  1  0  0  0  0
 19 20  1  0  0  0  0
 20 27  1  0  0  0  0
 20 21  1  0  0  0  0
 21 29  1  0  0  0  0
 22 21  1  0  0  0  0
 22 23  1  0  0  0  0
 22 31  1  1  0  0  0
 23 32  1  0  0  0  0
 24 23  2  0  0  0  0
 25 19  1  0  0  0  0
 26 19  1  0  0  0  0
 28 20  1  0  0  0  0
 30 21  1  0  0  0  0
 32 36  1  0  0  0  0
 32 33  1  0  0  0  0
 33 41  1  0  0  0  0
 33 40  1  0  0  0  0
 33 34  1  0  0  0  0
 34 43  1  0  0  0  0
 34 42  1  0  0  0  0
 35 44  1  0  0  0  0
 35 34  1  0  0  0  0
 36 46  1  6  0  0  0
 36 37  1  0  0  0  0
 36 35  1  0  0  0  0
 37 39  1  0  0  0  0
 38 37  2  0  0  0  0
 45 35  1  0  0  0  0
M  END
$$$$
