VPR.pdb
 OpenBabel07022419273D

 55 55  0  0  1  0  0  0  0  0999 V2000
    0.7920   -2.4040    5.8760 C   0  0  0  0  0  0  0  0  0  0  0  0
    0.4380   -1.6090    4.6470 C   0  0  0  0  0  0  0  0  0  0  0  0
    0.1080   -0.2010    5.0090 C   0  0  0  0  0  0  0  0  0  0  0  0
    1.5380   -1.6720    3.5960 C   0  0  2  0  0  0  0  0  0  0  0  0
    2.7780   -1.1580    4.0830 N   0  0  0  0  0  0  0  0  0  0  0  0
    1.0640   -1.1170    2.3240 C   0  0  0  0  0  0  0  0  0  0  0  0
   -0.0570   -1.4720    1.9330 O   0  0  0  0  0  0  0  0  0  0  0  0
   -0.0480   -3.0830    6.1270 H   0  0  0  0  0  0  0  0  0  0  0  0
    1.7500   -2.9770    5.6990 H   0  0  0  0  0  0  0  0  0  0  0  0
    0.9470   -1.6870    6.7110 H   0  0  0  0  0  0  0  0  0  0  0  0
   -0.4540   -2.1020    4.1600 H   0  0  0  0  0  0  0  0  0  0  0  0
   -0.9730   -0.1900    5.3330 H   0  0  0  0  0  0  0  0  0  0  0  0
    0.2550    0.4360    4.1030 H   0  0  0  0  0  0  0  0  0  0  0  0
    0.7150    0.2040    5.8200 H   0  0  0  0  0  0  0  0  0  0  0  0
    1.6990   -2.7810    3.4290 H   0  0  0  0  0  0  0  0  0  0  0  0
    2.6210   -0.7450    5.0280 H   0  0  0  0  0  0  0  0  0  0  0  0
    3.5110   -1.8750    4.1860 H   0  0  0  0  0  0  0  0  0  0  0  0
    1.8360   -0.2130    1.5610 N   0  0  0  0  0  0  0  0  0  0  0  0
    3.1360    0.2560    1.9980 C   0  0  0  0  0  0  0  0  0  0  0  0
    3.6450    1.1980    0.8990 C   0  0  0  0  0  0  0  0  0  0  0  0
    2.8860    0.7060   -0.3090 C   0  0  0  0  0  0  0  0  0  0  0  0
    1.5390    0.4100    0.3120 C   0  0  1  0  0  0  0  0  0  0  0  0
    0.6960   -0.3620   -0.6300 C   0  0  0  0  0  0  0  0  0  0  0  0
    0.4930   -1.5910   -0.4760 O   0  0  0  0  0  0  0  0  0  0  0  0
    3.8910   -0.5080    2.1440 H   0  0  0  0  0  0  0  0  0  0  0  0
    2.9790    0.8310    2.9390 H   0  0  0  0  0  0  0  0  0  0  0  0
    4.7330    1.1330    0.7780 H   0  0  0  0  0  0  0  0  0  0  0  0
    3.2820    2.2050    1.1820 H   0  0  0  0  0  0  0  0  0  0  0  0
    3.3440   -0.2550   -0.6700 H   0  0  0  0  0  0  0  0  0  0  0  0
    2.8300    1.4650   -1.1170 H   0  0  0  0  0  0  0  0  0  0  0  0
    1.0370    1.3830    0.4810 H   0  0  0  0  0  0  0  0  0  0  0  0
   -4.4980   -0.4850   -0.1750 N   0  0  0  0  0  0  0  0  0  0  0  0
   -3.7960   -1.4530   -0.9410 C   0  0  0  0  0  0  0  0  0  0  0  0
   -2.7190   -1.9550   -0.4340 N   0  0  0  0  0  0  0  0  0  0  0  0
   -4.2300   -1.8730   -2.2050 N   0  0  0  0  0  0  0  0  0  0  0  0
   -3.3850   -1.9730   -3.3510 C   0  0  0  0  0  0  0  0  0  0  0  0
   -2.9020   -0.6490   -3.8960 C   0  0  0  0  0  0  0  0  0  0  0  0
   -2.0330    0.1410   -2.9870 C   0  0  0  0  0  0  0  0  0  0  0  0
   -0.7600   -0.5510   -2.6680 C   0  0  2  0  0  0  0  0  0  0  0  0
    0.0680    0.2240   -1.7510 N   0  0  0  0  0  0  0  0  0  0  0  0
    0.0410   -0.6180   -3.9530 C   0  0  0  0  0  0  0  0  0  0  0  0
    1.1310    0.0140   -4.0870 O   0  0  0  0  0  0  0  0  0  0  0  0
   -0.3840   -1.3710   -5.0260 O   0  0  0  0  0  0  0  0  0  0  0  0
   -5.2370   -0.7130    0.5200 H   0  0  0  0  0  0  0  0  0  0  0  0
   -4.2630    0.5240   -0.3110 H   0  0  0  0  0  0  0  0  0  0  0  0
   -2.3490   -1.6980    0.4750 H   0  0  0  0  0  0  0  0  0  0  0  0
   -5.2690   -2.1200   -2.2740 H   0  0  0  0  0  0  0  0  0  0  0  0
   -3.9580   -2.4570   -4.1740 H   0  0  0  0  0  0  0  0  0  0  0  0
   -2.5490   -2.6620   -3.1210 H   0  0  0  0  0  0  0  0  0  0  0  0
   -3.8830   -0.0440   -4.0010 H   0  0  0  0  0  0  0  0  0  0  0  0
   -2.5230   -0.8190   -4.9150 H   0  0  0  0  0  0  0  0  0  0  0  0
   -1.7580    1.0780   -3.5420 H   0  0  0  0  0  0  0  0  0  0  0  0
   -2.6480    0.3870   -2.0950 H   0  0  0  0  0  0  0  0  0  0  0  0
   -0.8230   -1.5960   -2.3460 H   0  0  0  0  0  0  0  0  0  0  0  0
    0.1950    1.2270   -1.9320 H   0  0  0  0  0  0  0  0  0  0  0  0
  1  8  1  0  0  0  0
  1 10  1  0  0  0  0
  2  3  1  0  0  0  0
  2  1  1  0  0  0  0
  3 12  1  0  0  0  0
  3 14  1  0  0  0  0
  4 15  1  6  0  0  0
  4  5  1  0  0  0  0
  4  2  1  0  0  0  0
  5 17  1  0  0  0  0
  5 16  1  0  0  0  0
  6  4  1  0  0  0  0
  7  6  2  0  0  0  0
  9  1  1  0  0  0  0
 11  2  1  0  0  0  0
 13  3  1  0  0  0  0
 18 19  1  0  0  0  0
 18  6  1  0  0  0  0
 19 25  1  0  0  0  0
 19 26  1  0  0  0  0
 20 28  1  0  0  0  0
 20 19  1  0  0  0  0
 21 22  1  0  0  0  0
 21 20  1  0  0  0  0
 22 31  1  1  0  0  0
 22 18  1  0  0  0  0
 23 24  2  0  0  0  0
 23 22  1  0  0  0  0
 27 20  1  0  0  0  0
 29 21  1  0  0  0  0
 30 21  1  0  0  0  0
 32 44  1  0  0  0  0
 33 34  2  0  0  0  0
 33 32  1  0  0  0  0
 34 46  1  0  0  0  0
 35 33  1  0  0  0  0
 36 49  1  0  0  0  0
 36 35  1  0  0  0  0
 37 36  1  0  0  0  0
 37 38  1  0  0  0  0
 38 39  1  0  0  0  0
 38 53  1  0  0  0  0
 39 54  1  1  0  0  0
 39 40  1  0  0  0  0
 40 23  1  0  0  0  0
 41 39  1  0  0  0  0
 42 41  1  0  0  0  0
 43 41  2  0  0  0  0
 45 32  1  0  0  0  0
 47 35  1  0  0  0  0
 48 36  1  0  0  0  0
 50 37  1  0  0  0  0
 51 37  1  0  0  0  0
 52 38  1  0  0  0  0
 55 40  1  0  0  0  0
M  END
$$$$
