VPS.pdb
 OpenBabel07022419273D

 43 43  0  0  1  0  0  0  0  0999 V2000
    0.3150   -4.6700    1.7520 C   0  0  0  0  0  0  0  0  0  0  0  0
    0.7650   -3.9230    0.5190 C   0  0  0  0  0  0  0  0  0  0  0  0
    2.1050   -3.3500    0.7210 C   0  0  0  0  0  0  0  0  0  0  0  0
   -0.3390   -2.9840    0.1040 C   0  0  2  0  0  0  0  0  0  0  0  0
   -1.4670   -3.8380   -0.1710 N   0  0  0  0  0  0  0  0  0  0  0  0
   -0.0050   -2.1600   -1.0590 C   0  0  0  0  0  0  0  0  0  0  0  0
   -0.2690   -2.5250   -2.2270 O   0  0  0  0  0  0  0  0  0  0  0  0
   -0.4020   -4.0360    2.3430 H   0  0  0  0  0  0  0  0  0  0  0  0
   -0.1040   -5.6570    1.5320 H   0  0  0  0  0  0  0  0  0  0  0  0
    1.1970   -4.7980    2.4440 H   0  0  0  0  0  0  0  0  0  0  0  0
    0.8630   -4.7170   -0.2780 H   0  0  0  0  0  0  0  0  0  0  0  0
    2.8400   -4.2010    0.6970 H   0  0  0  0  0  0  0  0  0  0  0  0
    2.4370   -2.6710   -0.0920 H   0  0  0  0  0  0  0  0  0  0  0  0
    2.2560   -2.8850    1.7300 H   0  0  0  0  0  0  0  0  0  0  0  0
   -0.6070   -2.3310    0.9440 H   0  0  0  0  0  0  0  0  0  0  0  0
   -1.6060   -4.0750   -1.1540 H   0  0  0  0  0  0  0  0  0  0  0  0
   -2.2890   -3.6800    0.4030 H   0  0  0  0  0  0  0  0  0  0  0  0
    0.6300   -0.9170   -0.8840 N   0  0  0  0  0  0  0  0  0  0  0  0
    1.0750   -0.0190   -1.9520 C   0  0  0  0  0  0  0  0  0  0  0  0
    2.2420    0.7490   -1.3740 C   0  0  0  0  0  0  0  0  0  0  0  0
    2.3220    0.3970    0.1020 C   0  0  0  0  0  0  0  0  0  0  0  0
    0.9570   -0.2180    0.3530 C   0  0  1  0  0  0  0  0  0  0  0  0
   -0.0740    0.8720    0.5020 C   0  0  0  0  0  0  0  0  0  0  0  0
   -0.9690    1.0120   -0.3430 O   0  0  0  0  0  0  0  0  0  0  0  0
    0.3130    0.6990   -2.2650 H   0  0  0  0  0  0  0  0  0  0  0  0
    1.3570   -0.6410   -2.8070 H   0  0  0  0  0  0  0  0  0  0  0  0
    2.0570    1.8580   -1.4220 H   0  0  0  0  0  0  0  0  0  0  0  0
    3.1770    0.5090   -1.9110 H   0  0  0  0  0  0  0  0  0  0  0  0
    3.0930   -0.3860    0.2150 H   0  0  0  0  0  0  0  0  0  0  0  0
    2.5230    1.2730    0.7320 H   0  0  0  0  0  0  0  0  0  0  0  0
    0.9990   -0.8310    1.2400 H   0  0  0  0  0  0  0  0  0  0  0  0
   -0.9470    2.4410    4.1870 O   0  0  0  0  0  0  0  0  0  0  0  0
   -1.7890    2.5080    3.0880 C   0  0  0  0  0  0  0  0  0  0  0  0
   -1.0120    2.8260    1.8030 C   0  0  2  0  0  0  0  0  0  0  0  0
   -0.0450    1.7620    1.6110 N   0  0  0  0  0  0  0  0  0  0  0  0
   -0.3660    4.1530    1.8940 C   0  0  0  0  0  0  0  0  0  0  0  0
   -1.0730    5.1700    2.0600 O   0  0  0  0  0  0  0  0  0  0  0  0
    1.0020    4.3060    1.8010 O   0  0  0  0  0  0  0  0  0  0  0  0
   -1.3160    1.7710    4.8070 H   0  0  0  0  0  0  0  0  0  0  0  0
   -2.3230    1.5620    2.9790 H   0  0  0  0  0  0  0  0  0  0  0  0
   -2.5470    3.2940    3.2900 H   0  0  0  0  0  0  0  0  0  0  0  0
   -1.7600    2.8650    1.0030 H   0  0  0  0  0  0  0  0  0  0  0  0
    0.7190    1.6200    2.3070 H   0  0  0  0  0  0  0  0  0  0  0  0
  1  8  1  0  0  0  0
  1 10  1  0  0  0  0
  2  3  1  0  0  0  0
  2  1  1  0  0  0  0
  3 14  1  0  0  0  0
  4  2  1  0  0  0  0
  4 15  1  1  0  0  0
  5  4  1  0  0  0  0
  5 17  1  0  0  0  0
  6 18  1  0  0  0  0
  6  4  1  0  0  0  0
  7  6  2  0  0  0  0
  9  1  1  0  0  0  0
 11  2  1  0  0  0  0
 12  3  1  0  0  0  0
 13  3  1  0  0  0  0
 16  5  1  0  0  0  0
 18 22  1  0  0  0  0
 19 20  1  0  0  0  0
 19 18  1  0  0  0  0
 20 21  1  0  0  0  0
 21 29  1  0  0  0  0
 21 22  1  0  0  0  0
 21 30  1  0  0  0  0
 22 23  1  0  0  0  0
 22 31  1  1  0  0  0
 23 35  1  0  0  0  0
 24 23  2  0  0  0  0
 25 19  1  0  0  0  0
 26 19  1  0  0  0  0
 27 20  1  0  0  0  0
 28 20  1  0  0  0  0
 32 39  1  0  0  0  0
 33 41  1  0  0  0  0
 33 32  1  0  0  0  0
 34 42  1  6  0  0  0
 34 36  1  0  0  0  0
 34 33  1  0  0  0  0
 35 34  1  0  0  0  0
 35 43  1  0  0  0  0
 36 37  1  0  0  0  0
 38 36  2  0  0  0  0
 40 33  1  0  0  0  0
M  END
$$$$
