VPT.pdb
 OpenBabel07022419273D

 46 46  0  0  1  0  0  0  0  0999 V2000
   -1.7710   -3.0110   -3.0240 C   0  0  0  0  0  0  0  0  0  0  0  0
   -0.7090   -2.9920   -1.9440 C   0  0  0  0  0  0  0  0  0  0  0  0
   -1.0560   -4.0860   -0.9630 C   0  0  0  0  0  0  0  0  0  0  0  0
   -0.6560   -1.6330   -1.2600 C   0  0  2  0  0  0  0  0  0  0  0  0
   -0.3470   -0.5850   -2.2060 N   0  0  0  0  0  0  0  0  0  0  0  0
    0.2960   -1.6720   -0.1340 C   0  0  0  0  0  0  0  0  0  0  0  0
    0.1320   -2.5620    0.7360 O   0  0  0  0  0  0  0  0  0  0  0  0
   -1.4140   -2.5440   -3.9630 H   0  0  0  0  0  0  0  0  0  0  0  0
   -2.6630   -2.4410   -2.6960 H   0  0  0  0  0  0  0  0  0  0  0  0
   -2.0900   -4.0550   -3.1690 H   0  0  0  0  0  0  0  0  0  0  0  0
    0.2570   -3.2250   -2.4170 H   0  0  0  0  0  0  0  0  0  0  0  0
   -1.6740   -4.8760   -1.4760 H   0  0  0  0  0  0  0  0  0  0  0  0
   -0.1610   -4.6020   -0.5920 H   0  0  0  0  0  0  0  0  0  0  0  0
   -1.7080   -3.7070   -0.1400 H   0  0  0  0  0  0  0  0  0  0  0  0
   -1.7110   -1.4680   -0.9010 H   0  0  0  0  0  0  0  0  0  0  0  0
   -1.2150   -0.0580   -2.4450 H   0  0  0  0  0  0  0  0  0  0  0  0
    0.0800   -1.0140   -3.0810 H   0  0  0  0  0  0  0  0  0  0  0  0
    1.3760   -0.7720    0.0230 N   0  0  0  0  0  0  0  0  0  0  0  0
    1.6930    0.2950   -0.8740 C   0  0  0  0  0  0  0  0  0  0  0  0
    2.8300    1.0760   -0.2760 C   0  0  0  0  0  0  0  0  0  0  0  0
    3.4960    0.0650    0.6270 C   0  0  0  0  0  0  0  0  0  0  0  0
    2.3380   -0.7820    1.1050 C   0  0  1  0  0  0  0  0  0  0  0  0
    1.7450   -0.2780    2.3560 C   0  0  0  0  0  0  0  0  0  0  0  0
    2.4190   -0.2130    3.4060 O   0  0  0  0  0  0  0  0  0  0  0  0
    1.9470   -0.0770   -1.9040 H   0  0  0  0  0  0  0  0  0  0  0  0
    0.8290    1.0030   -0.9290 H   0  0  0  0  0  0  0  0  0  0  0  0
    2.4560    1.9590    0.3090 H   0  0  0  0  0  0  0  0  0  0  0  0
    3.5440    1.4490   -1.0580 H   0  0  0  0  0  0  0  0  0  0  0  0
    4.1780   -0.5360    0.0020 H   0  0  0  0  0  0  0  0  0  0  0  0
    4.0560    0.5290    1.4390 H   0  0  0  0  0  0  0  0  0  0  0  0
    2.6990   -1.8120    1.2860 H   0  0  0  0  0  0  0  0  0  0  0  0
   -1.3300    2.5380    4.7010 C   0  0  0  0  0  0  0  0  0  0  0  0
   -0.7100    2.0770    3.4010 C   0  0  1  0  0  0  0  0  0  0  0  0
    0.3590    2.9300    3.1420 O   0  0  0  0  0  0  0  0  0  0  0  0
   -0.2590    0.6460    3.5740 C   0  0  2  0  0  0  0  0  0  0  0  0
    0.4070    0.1390    2.3930 N   0  0  0  0  0  0  0  0  0  0  0  0
   -1.3860   -0.2150    3.9860 C   0  0  0  0  0  0  0  0  0  0  0  0
   -1.6880   -1.2620    3.3380 O   0  0  0  0  0  0  0  0  0  0  0  0
   -2.1750    0.0600    5.0910 O   0  0  0  0  0  0  0  0  0  0  0  0
   -0.8670    1.9450    5.5170 H   0  0  0  0  0  0  0  0  0  0  0  0
   -2.4360    2.3430    4.6950 H   0  0  0  0  0  0  0  0  0  0  0  0
   -1.1190    3.6070    4.9070 H   0  0  0  0  0  0  0  0  0  0  0  0
   -1.4280    2.1530    2.5780 H   0  0  0  0  0  0  0  0  0  0  0  0
    0.8790    3.1650    3.9370 H   0  0  0  0  0  0  0  0  0  0  0  0
    0.4910    0.6280    4.3900 H   0  0  0  0  0  0  0  0  0  0  0  0
   -0.1660    0.0900    1.5230 H   0  0  0  0  0  0  0  0  0  0  0  0
  1  9  1  0  0  0  0
  1  2  1  0  0  0  0
  2  4  1  0  0  0  0
  2  3  1  0  0  0  0
  3 13  1  0  0  0  0
  3 14  1  0  0  0  0
  4 15  1  1  0  0  0
  4  6  1  0  0  0  0
  5  4  1  0  0  0  0
  6 18  1  0  0  0  0
  6  7  2  0  0  0  0
  8  1  1  0  0  0  0
 10  1  1  0  0  0  0
 11  2  1  0  0  0  0
 12  3  1  0  0  0  0
 16  5  1  0  0  0  0
 17  5  1  0  0  0  0
 18 22  1  0  0  0  0
 19 20  1  0  0  0  0
 19 18  1  0  0  0  0
 20 27  1  0  0  0  0
 20 21  1  0  0  0  0
 21 22  1  0  0  0  0
 21 30  1  0  0  0  0
 22 31  1  1  0  0  0
 22 23  1  0  0  0  0
 23 36  1  0  0  0  0
 23 24  2  0  0  0  0
 25 19  1  0  0  0  0
 26 19  1  0  0  0  0
 28 20  1  0  0  0  0
 29 21  1  0  0  0  0
 32 42  1  0  0  0  0
 32 40  1  0  0  0  0
 33 43  1  6  0  0  0
 33 35  1  0  0  0  0
 33 32  1  0  0  0  0
 34 33  1  0  0  0  0
 34 44  1  0  0  0  0
 35 37  1  0  0  0  0
 35 45  1  1  0  0  0
 36 35  1  0  0  0  0
 37 39  1  0  0  0  0
 38 37  2  0  0  0  0
 41 32  1  0  0  0  0
 46 36  1  0  0  0  0
M  END
$$$$
