VPV.pdb
 OpenBabel07022419273D

 48 48  0  0  1  0  0  0  0  0999 V2000
   -0.5640   -3.9480   -2.8520 C   0  0  0  0  0  0  0  0  0  0  0  0
    0.3540   -3.5470   -1.7220 C   0  0  0  0  0  0  0  0  0  0  0  0
    0.2640   -4.5850   -0.6500 C   0  0  0  0  0  0  0  0  0  0  0  0
    0.0030   -2.1600   -1.1970 C   0  0  2  0  0  0  0  0  0  0  0  0
    0.1260   -1.1760   -2.2480 N   0  0  0  0  0  0  0  0  0  0  0  0
    0.7950   -1.8270    0.0040 C   0  0  0  0  0  0  0  0  0  0  0  0
    0.7610   -2.6400    0.9620 O   0  0  0  0  0  0  0  0  0  0  0  0
   -0.2250   -3.5220   -3.8280 H   0  0  0  0  0  0  0  0  0  0  0  0
   -1.6000   -3.5930   -2.6810 H   0  0  0  0  0  0  0  0  0  0  0  0
   -0.5800   -5.0650   -2.8870 H   0  0  0  0  0  0  0  0  0  0  0  0
    1.3860   -3.4960   -2.0850 H   0  0  0  0  0  0  0  0  0  0  0  0
    0.0350   -5.5580   -1.1350 H   0  0  0  0  0  0  0  0  0  0  0  0
    1.2420   -4.7040   -0.1210 H   0  0  0  0  0  0  0  0  0  0  0  0
   -0.5590   -4.3930    0.0660 H   0  0  0  0  0  0  0  0  0  0  0  0
   -1.0930   -2.2240   -0.9560 H   0  0  0  0  0  0  0  0  0  0  0  0
   -0.8010   -0.8490   -2.6000 H   0  0  0  0  0  0  0  0  0  0  0  0
    0.5760   -1.6500   -3.0820 H   0  0  0  0  0  0  0  0  0  0  0  0
    1.5740   -0.6510    0.1140 N   0  0  0  0  0  0  0  0  0  0  0  0
    1.6920    0.3590   -0.9050 C   0  0  0  0  0  0  0  0  0  0  0  0
    2.5410    1.4810   -0.3610 C   0  0  0  0  0  0  0  0  0  0  0  0
    3.3140    0.8210    0.7430 C   0  0  0  0  0  0  0  0  0  0  0  0
    2.3850   -0.2610    1.2540 C   0  0  1  0  0  0  0  0  0  0  0  0
    1.5070    0.2180    2.3530 C   0  0  0  0  0  0  0  0  0  0  0  0
    1.9810    0.6160    3.4440 O   0  0  0  0  0  0  0  0  0  0  0  0
    2.1540   -0.0220   -1.8390 H   0  0  0  0  0  0  0  0  0  0  0  0
    0.6780    0.7860   -1.0660 H   0  0  0  0  0  0  0  0  0  0  0  0
    1.9140    2.3200    0.0310 H   0  0  0  0  0  0  0  0  0  0  0  0
    3.1990    1.8610   -1.1730 H   0  0  0  0  0  0  0  0  0  0  0  0
    4.2170    0.3610    0.3020 H   0  0  0  0  0  0  0  0  0  0  0  0
    3.5420    1.5260    1.5660 H   0  0  0  0  0  0  0  0  0  0  0  0
    2.9470   -1.1430    1.5720 H   0  0  0  0  0  0  0  0  0  0  0  0
   -2.5220    2.2760    4.0040 C   0  0  0  0  0  0  0  0  0  0  0  0
   -1.6200    1.8860    2.8510 C   0  0  0  0  0  0  0  0  0  0  0  0
   -2.5420    1.4270    1.7190 C   0  0  0  0  0  0  0  0  0  0  0  0
   -0.7960    0.6990    3.2480 C   0  0  2  0  0  0  0  0  0  0  0  0
    0.1020    0.2460    2.2180 N   0  0  0  0  0  0  0  0  0  0  0  0
   -1.6320   -0.4140    3.7270 C   0  0  0  0  0  0  0  0  0  0  0  0
   -2.4780   -0.2350    4.6240 O   0  0  0  0  0  0  0  0  0  0  0  0
   -1.4780   -1.6660    3.1750 O   0  0  0  0  0  0  0  0  0  0  0  0
   -2.0660    2.0320    4.9900 H   0  0  0  0  0  0  0  0  0  0  0  0
   -3.5130    1.7440    3.9560 H   0  0  0  0  0  0  0  0  0  0  0  0
   -2.7010    3.3890    3.9610 H   0  0  0  0  0  0  0  0  0  0  0  0
   -1.0400    2.7640    2.5780 H   0  0  0  0  0  0  0  0  0  0  0  0
   -2.2450    1.9010    0.7490 H   0  0  0  0  0  0  0  0  0  0  0  0
   -3.5880    1.7450    1.8970 H   0  0  0  0  0  0  0  0  0  0  0  0
   -2.5600    0.3170    1.6360 H   0  0  0  0  0  0  0  0  0  0  0  0
   -0.1530    1.0070    4.1170 H   0  0  0  0  0  0  0  0  0  0  0  0
   -0.3310   -0.0780    1.3240 H   0  0  0  0  0  0  0  0  0  0  0  0
  1  9  1  0  0  0  0
  1  2  1  0  0  0  0
  2  4  1  0  0  0  0
  2  3  1  0  0  0  0
  3 13  1  0  0  0  0
  3 14  1  0  0  0  0
  4 15  1  1  0  0  0
  4  6  1  0  0  0  0
  5  4  1  0  0  0  0
  6 18  1  0  0  0  0
  6  7  2  0  0  0  0
  8  1  1  0  0  0  0
 10  1  1  0  0  0  0
 11  2  1  0  0  0  0
 12  3  1  0  0  0  0
 16  5  1  0  0  0  0
 17  5  1  0  0  0  0
 18 22  1  0  0  0  0
 19 20  1  0  0  0  0
 19 18  1  0  0  0  0
 20 27  1  0  0  0  0
 20 21  1  0  0  0  0
 21 22  1  0  0  0  0
 21 30  1  0  0  0  0
 22 31  1  1  0  0  0
 22 23  1  0  0  0  0
 23 24  2  0  0  0  0
 25 19  1  0  0  0  0
 26 19  1  0  0  0  0
 28 20  1  0  0  0  0
 29 21  1  0  0  0  0
 32 40  1  0  0  0  0
 33 35  1  0  0  0  0
 33 32  1  0  0  0  0
 34 45  1  0  0  0  0
 34 33  1  0  0  0  0
 35 37  1  0  0  0  0
 35 47  1  1  0  0  0
 36 23  1  0  0  0  0
 36 35  1  0  0  0  0
 37 38  1  0  0  0  0
 39 37  2  0  0  0  0
 41 32  1  0  0  0  0
 42 32  1  0  0  0  0
 43 33  1  0  0  0  0
 44 34  1  0  0  0  0
 46 34  1  0  0  0  0
 48 36  1  0  0  0  0
M  END
$$$$
