VPW.pdb
 OpenBabel07022419273D

 56 58  0  0  1  0  0  0  0  0999 V2000
   -1.4610    0.4010    3.7540 C   0  0  0  0  0  0  0  0  0  0  0  0
   -0.0240   -0.0360    3.4730 C   0  0  0  0  0  0  0  0  0  0  0  0
    0.7560    0.2450    4.7290 C   0  0  0  0  0  0  0  0  0  0  0  0
    0.4780    0.7910    2.2990 C   0  0  2  0  0  0  0  0  0  0  0  0
   -0.3380    0.5710    1.1490 N   0  0  0  0  0  0  0  0  0  0  0  0
    1.9280    0.6190    2.0730 C   0  0  0  0  0  0  0  0  0  0  0  0
    2.6430    0.7930    3.1280 O   0  0  0  0  0  0  0  0  0  0  0  0
   -1.6530    0.2800    4.8190 H   0  0  0  0  0  0  0  0  0  0  0  0
   -2.1380   -0.2820    3.1690 H   0  0  0  0  0  0  0  0  0  0  0  0
   -1.6170    1.4360    3.4100 H   0  0  0  0  0  0  0  0  0  0  0  0
   -0.0100   -1.1200    3.2740 H   0  0  0  0  0  0  0  0  0  0  0  0
    1.0870    1.3010    4.7880 H   0  0  0  0  0  0  0  0  0  0  0  0
    0.1190    0.0590    5.6440 H   0  0  0  0  0  0  0  0  0  0  0  0
    1.6150   -0.4200    4.8380 H   0  0  0  0  0  0  0  0  0  0  0  0
    0.3560    1.8650    2.6290 H   0  0  0  0  0  0  0  0  0  0  0  0
   -0.8560   -0.3460    1.3030 H   0  0  0  0  0  0  0  0  0  0  0  0
   -1.0980    1.2980    1.1370 H   0  0  0  0  0  0  0  0  0  0  0  0
    2.5210    0.2950    0.8370 N   0  0  0  0  0  0  0  0  0  0  0  0
    3.9460    0.1250    0.6370 C   0  0  0  0  0  0  0  0  0  0  0  0
    4.0930   -0.4650   -0.7560 C   0  0  0  0  0  0  0  0  0  0  0  0
    2.9420    0.1840   -1.4700 C   0  0  0  0  0  0  0  0  0  0  0  0
    1.8340    0.0840   -0.4060 C   0  0  1  0  0  0  0  0  0  0  0  0
    1.2420   -1.2700   -0.4690 C   0  0  0  0  0  0  0  0  0  0  0  0
    1.3410   -2.0120    0.5340 O   0  0  0  0  0  0  0  0  0  0  0  0
    4.5080    1.0610    0.7010 H   0  0  0  0  0  0  0  0  0  0  0  0
    4.3690   -0.6490    1.3320 H   0  0  0  0  0  0  0  0  0  0  0  0
    5.0760   -0.2450   -1.2080 H   0  0  0  0  0  0  0  0  0  0  0  0
    3.9670   -1.5650   -0.7530 H   0  0  0  0  0  0  0  0  0  0  0  0
    3.1850    1.2430   -1.6380 H   0  0  0  0  0  0  0  0  0  0  0  0
    2.6490   -0.3550   -2.3890 H   0  0  0  0  0  0  0  0  0  0  0  0
    1.1120    0.8820   -0.6750 H   0  0  0  0  0  0  0  0  0  0  0  0
    0.5680   -1.7700   -1.6150 N   0  0  0  0  0  0  0  0  0  0  0  0
   -0.0140   -3.0720   -1.7080 C   0  0  1  0  0  0  0  0  0  0  0  0
   -1.4760   -3.1390   -1.9660 C   0  0  0  0  0  0  0  0  0  0  0  0
   -2.3640   -2.5240   -1.0000 C   0  0  0  0  0  0  0  0  0  0  0  0
   -3.0560   -3.1600    0.0110 C   0  0  0  0  0  0  0  0  0  0  0  0
   -3.7520   -2.2410    0.7000 N   0  0  0  0  0  0  0  0  0  0  0  0
   -3.5390   -1.0170    0.1720 C   0  0  0  0  0  0  0  0  0  0  0  0
   -3.9960    0.2520    0.4720 C   0  0  0  0  0  0  0  0  0  0  0  0
   -3.6420    1.3840   -0.2290 C   0  0  0  0  0  0  0  0  0  0  0  0
   -2.7780    1.1930   -1.2860 C   0  0  0  0  0  0  0  0  0  0  0  0
   -2.3080   -0.0610   -1.6050 C   0  0  0  0  0  0  0  0  0  0  0  0
   -2.6800   -1.1930   -0.8800 C   0  0  0  0  0  0  0  0  0  0  0  0
    0.6430   -3.8650   -2.8010 C   0  0  0  0  0  0  0  0  0  0  0  0
    1.5690   -3.3860   -3.4970 O   0  0  0  0  0  0  0  0  0  0  0  0
    0.2420   -5.1610   -3.0780 O   0  0  0  0  0  0  0  0  0  0  0  0
    0.5160   -1.1330   -2.4310 H   0  0  0  0  0  0  0  0  0  0  0  0
    0.2170   -3.5630   -0.7080 H   0  0  0  0  0  0  0  0  0  0  0  0
   -1.7190   -4.2200   -2.1420 H   0  0  0  0  0  0  0  0  0  0  0  0
   -1.6410   -2.6790   -2.9880 H   0  0  0  0  0  0  0  0  0  0  0  0
   -3.0830   -4.2130    0.2660 H   0  0  0  0  0  0  0  0  0  0  0  0
   -4.3800   -2.3740    1.5250 H   0  0  0  0  0  0  0  0  0  0  0  0
   -4.6690    0.3540    1.3040 H   0  0  0  0  0  0  0  0  0  0  0  0
   -4.0120    2.3740    0.0210 H   0  0  0  0  0  0  0  0  0  0  0  0
   -2.4300    2.0210   -1.9120 H   0  0  0  0  0  0  0  0  0  0  0  0
   -1.6300   -0.2080   -2.4490 H   0  0  0  0  0  0  0  0  0  0  0  0
  1  8  1  0  0  0  0
  2  1  1  0  0  0  0
  2  3  1  0  0  0  0
  3 12  1  0  0  0  0
  3 14  1  0  0  0  0
  3 13  1  0  0  0  0
  4 15  1  1  0  0  0
  4  2  1  0  0  0  0
  5 16  1  0  0  0  0
  5  4  1  0  0  0  0
  6  4  1  0  0  0  0
  6  7  2  0  0  0  0
  9  1  1  0  0  0  0
 10  1  1  0  0  0  0
 11  2  1  0  0  0  0
 17  5  1  0  0  0  0
 18  6  1  0  0  0  0
 19 25  1  0  0  0  0
 19 18  1  0  0  0  0
 19 26  1  0  0  0  0
 20 28  1  0  0  0  0
 20 19  1  0  0  0  0
 21 20  1  0  0  0  0
 21 22  1  0  0  0  0
 22 31  1  6  0  0  0
 22 18  1  0  0  0  0
 23 22  1  0  0  0  0
 23 24  2  0  0  0  0
 27 20  1  0  0  0  0
 29 21  1  0  0  0  0
 30 21  1  0  0  0  0
 32 23  1  0  0  0  0
 33 32  1  0  0  0  0
 33 48  1  1  0  0  0
 34 33  1  0  0  0  0
 34 35  1  0  0  0  0
 35 43  1  0  0  0  0
 35 36  2  0  0  0  0
 36 51  1  0  0  0  0
 36 37  1  0  0  0  0
 37 52  1  0  0  0  0
 38 39  1  0  0  0  0
 38 37  1  0  0  0  0
 39 53  1  0  0  0  0
 40 54  1  0  0  0  0
 40 39  2  0  0  0  0
 41 40  1  0  0  0  0
 42 41  2  0  0  0  0
 42 43  1  0  0  0  0
 43 38  2  0  0  0  0
 44 33  1  0  0  0  0
 45 44  2  0  0  0  0
 46 44  1  0  0  0  0
 47 32  1  0  0  0  0
 49 34  1  0  0  0  0
 50 34  1  0  0  0  0
 55 41  1  0  0  0  0
 56 42  1  0  0  0  0
M  END
$$$$
