VQC.pdb
 OpenBabel07022419253D

 46 45  0  0  1  0  0  0  0  0999 V2000
    1.7670   -4.9360    0.7680 C   0  0  0  0  0  0  0  0  0  0  0  0
    2.6820   -3.9300    0.1170 C   0  0  0  0  0  0  0  0  0  0  0  0
    3.5570   -3.3180    1.1560 C   0  0  0  0  0  0  0  0  0  0  0  0
    1.9130   -2.9310   -0.7110 C   0  0  2  0  0  0  0  0  0  0  0  0
    2.7870   -1.9610   -1.3380 N   0  0  0  0  0  0  0  0  0  0  0  0
    0.8500   -2.2390    0.0190 C   0  0  0  0  0  0  0  0  0  0  0  0
   -0.0200   -2.8950    0.6440 O   0  0  0  0  0  0  0  0  0  0  0  0
    2.3060   -5.9020    0.8460 H   0  0  0  0  0  0  0  0  0  0  0  0
    1.5010   -4.6510    1.8070 H   0  0  0  0  0  0  0  0  0  0  0  0
    0.8450   -5.1300    0.1810 H   0  0  0  0  0  0  0  0  0  0  0  0
    3.3410   -4.5010   -0.5830 H   0  0  0  0  0  0  0  0  0  0  0  0
    4.5370   -3.0750    0.6980 H   0  0  0  0  0  0  0  0  0  0  0  0
    3.1170   -2.4980    1.7240 H   0  0  0  0  0  0  0  0  0  0  0  0
    3.7870   -4.1280    1.9090 H   0  0  0  0  0  0  0  0  0  0  0  0
    1.4700   -3.5260   -1.5640 H   0  0  0  0  0  0  0  0  0  0  0  0
    3.4550   -2.4960   -1.9630 H   0  0  0  0  0  0  0  0  0  0  0  0
    2.1820   -1.4090   -2.0030 H   0  0  0  0  0  0  0  0  0  0  0  0
    2.2030    0.3520    5.0810 N   0  0  0  0  0  0  0  0  0  0  0  0
    1.4170    0.8560    3.9910 C   0  0  0  0  0  0  0  0  0  0  0  0
    1.1160    2.0580    3.9590 O   0  0  0  0  0  0  0  0  0  0  0  0
    0.9910   -0.1000    2.9350 C   0  0  0  0  0  0  0  0  0  0  0  0
    0.1880    0.6690    1.9180 C   0  0  0  0  0  0  0  0  0  0  0  0
   -0.3050   -0.2010    0.7830 C   0  0  2  0  0  0  0  0  0  0  0  0
    0.7570   -0.8230    0.0530 N   0  0  0  0  0  0  0  0  0  0  0  0
   -1.0970    0.6650   -0.1110 C   0  0  0  0  0  0  0  0  0  0  0  0
   -0.7850    0.7580   -1.3130 O   0  0  0  0  0  0  0  0  0  0  0  0
    1.9340   -0.4780    5.6260 H   0  0  0  0  0  0  0  0  0  0  0  0
    3.0800    0.8650    5.3120 H   0  0  0  0  0  0  0  0  0  0  0  0
    1.8630   -0.6100    2.5040 H   0  0  0  0  0  0  0  0  0  0  0  0
    0.3720   -0.8680    3.4410 H   0  0  0  0  0  0  0  0  0  0  0  0
   -0.7160    1.0610    2.4380 H   0  0  0  0  0  0  0  0  0  0  0  0
    0.7390    1.5100    1.4820 H   0  0  0  0  0  0  0  0  0  0  0  0
   -0.9680   -0.9750    1.2730 H   0  0  0  0  0  0  0  0  0  0  0  0
    1.4480   -0.2310   -0.4450 H   0  0  0  0  0  0  0  0  0  0  0  0
   -2.2060    1.3930    0.3740 N   0  0  0  0  0  0  0  0  0  0  0  0
   -2.9410    2.2270   -0.5670 C   0  0  1  0  0  0  0  0  0  0  0  0
   -4.3700    1.6750   -0.5990 C   0  0  0  0  0  0  0  0  0  0  0  0
   -5.4030    2.6280   -1.7410 S   0  0  0  0  0  0  0  0  0  0  0  0
   -3.0320    3.6260   -0.0620 C   0  0  0  0  0  0  0  0  0  0  0  0
   -3.6240    4.4970   -0.7260 O   0  0  0  0  0  0  0  0  0  0  0  0
   -2.4450    3.9290    1.1590 O   0  0  0  0  0  0  0  0  0  0  0  0
   -2.5090    1.3440    1.3930 H   0  0  0  0  0  0  0  0  0  0  0  0
   -2.5030    2.1670   -1.5710 H   0  0  0  0  0  0  0  0  0  0  0  0
   -4.2520    0.6110   -0.9440 H   0  0  0  0  0  0  0  0  0  0  0  0
   -4.8120    1.7480    0.4020 H   0  0  0  0  0  0  0  0  0  0  0  0
   -6.7580    2.5790   -1.3810 H   0  0  0  0  0  0  0  0  0  0  0  0
  1  8  1  0  0  0  0
  1  9  1  0  0  0  0
  2  1  1  0  0  0  0
  2  3  1  0  0  0  0
  3 13  1  0  0  0  0
  3 14  1  0  0  0  0
  4 15  1  6  0  0  0
  4  6  1  0  0  0  0
  4  2  1  0  0  0  0
  5  4  1  0  0  0  0
  6 24  1  0  0  0  0
  6  7  2  0  0  0  0
 10  1  1  0  0  0  0
 11  2  1  0  0  0  0
 12  3  1  0  0  0  0
 16  5  1  0  0  0  0
 17  5  1  0  0  0  0
 18 28  1  0  0  0  0
 18 27  1  0  0  0  0
 19 18  1  0  0  0  0
 20 19  2  0  0  0  0
 21 30  1  0  0  0  0
 21 19  1  0  0  0  0
 22 31  1  0  0  0  0
 22 21  1  0  0  0  0
 23 33  1  1  0  0  0
 23 22  1  0  0  0  0
 24 23  1  0  0  0  0
 25 35  1  0  0  0  0
 25 23  1  0  0  0  0
 26 25  2  0  0  0  0
 29 21  1  0  0  0  0
 32 22  1  0  0  0  0
 34 24  1  0  0  0  0
 35 42  1  0  0  0  0
 36 43  1  6  0  0  0
 36 39  1  0  0  0  0
 36 35  1  0  0  0  0
 37 36  1  0  0  0  0
 37 45  1  0  0  0  0
 38 46  1  0  0  0  0
 38 37  1  0  0  0  0
 39 41  1  0  0  0  0
 40 39  2  0  0  0  0
 44 37  1  0  0  0  0
M  END
$$$$
