VQE.pdb
 OpenBabel07022419253D

 51 50  0  0  1  0  0  0  0  0999 V2000
    3.4700   -0.9240    3.8770 C   0  0  0  0  0  0  0  0  0  0  0  0
    2.7910   -2.2520    3.6650 C   0  0  0  0  0  0  0  0  0  0  0  0
    1.6700   -2.5150    4.6180 C   0  0  0  0  0  0  0  0  0  0  0  0
    2.3560   -2.4840    2.2510 C   0  0  2  0  0  0  0  0  0  0  0  0
    3.4760   -2.4560    1.3420 N   0  0  0  0  0  0  0  0  0  0  0  0
    1.2530   -1.6080    1.8150 C   0  0  0  0  0  0  0  0  0  0  0  0
    0.2270   -1.5070    2.5330 O   0  0  0  0  0  0  0  0  0  0  0  0
    3.7100   -0.8530    4.9560 H   0  0  0  0  0  0  0  0  0  0  0  0
    4.4400   -0.9620    3.3350 H   0  0  0  0  0  0  0  0  0  0  0  0
    2.8610   -0.0570    3.6110 H   0  0  0  0  0  0  0  0  0  0  0  0
    3.5870   -3.0310    3.8630 H   0  0  0  0  0  0  0  0  0  0  0  0
    1.3140   -1.5550    5.0590 H   0  0  0  0  0  0  0  0  0  0  0  0
    0.8330   -3.0840    4.1560 H   0  0  0  0  0  0  0  0  0  0  0  0
    2.0240   -3.1300    5.4710 H   0  0  0  0  0  0  0  0  0  0  0  0
    1.9900   -3.5550    2.2200 H   0  0  0  0  0  0  0  0  0  0  0  0
    4.0370   -3.3180    1.5340 H   0  0  0  0  0  0  0  0  0  0  0  0
    4.0440   -1.5840    1.4180 H   0  0  0  0  0  0  0  0  0  0  0  0
    0.8590    2.8600    3.5470 N   0  0  0  0  0  0  0  0  0  0  0  0
    0.3490    2.2060    2.3710 C   0  0  0  0  0  0  0  0  0  0  0  0
   -0.8040    1.7420    2.4550 O   0  0  0  0  0  0  0  0  0  0  0  0
    1.1610    2.1080    1.1600 C   0  0  0  0  0  0  0  0  0  0  0  0
    0.5330    1.3930    0.0090 C   0  0  0  0  0  0  0  0  0  0  0  0
    0.1650   -0.0240    0.2500 C   0  0  2  0  0  0  0  0  0  0  0  0
    1.2900   -0.8620    0.6060 N   0  0  0  0  0  0  0  0  0  0  0  0
   -0.5220   -0.5650   -0.9830 C   0  0  0  0  0  0  0  0  0  0  0  0
   -0.0350   -1.5980   -1.5130 O   0  0  0  0  0  0  0  0  0  0  0  0
    1.3200    2.3330    4.3070 H   0  0  0  0  0  0  0  0  0  0  0  0
    0.7780    3.9030    3.6710 H   0  0  0  0  0  0  0  0  0  0  0  0
    2.1370    1.6170    1.4510 H   0  0  0  0  0  0  0  0  0  0  0  0
    1.4630    3.1490    0.8800 H   0  0  0  0  0  0  0  0  0  0  0  0
    1.1870    1.5500   -0.8730 H   0  0  0  0  0  0  0  0  0  0  0  0
   -0.4050    1.9700   -0.2420 H   0  0  0  0  0  0  0  0  0  0  0  0
   -0.6130   -0.0750    1.0340 H   0  0  0  0  0  0  0  0  0  0  0  0
    2.1200   -0.9150   -0.0250 H   0  0  0  0  0  0  0  0  0  0  0  0
   -1.6690    0.1100   -1.4760 N   0  0  0  0  0  0  0  0  0  0  0  0
   -2.3130   -0.4110   -2.6480 C   0  0  1  0  0  0  0  0  0  0  0  0
   -3.7550   -0.7590   -2.4430 C   0  0  0  0  0  0  0  0  0  0  0  0
   -4.0740   -1.7720   -1.4220 C   0  0  0  0  0  0  0  0  0  0  0  0
   -3.4760   -3.0810   -1.6990 C   0  0  0  0  0  0  0  0  0  0  0  0
   -2.8040   -3.2860   -2.7260 O   0  0  0  0  0  0  0  0  0  0  0  0
   -2.2780    0.5730   -3.7620 C   0  0  0  0  0  0  0  0  0  0  0  0
   -1.7230    1.6740   -3.5770 O   0  0  0  0  0  0  0  0  0  0  0  0
   -3.6600   -4.1150   -0.8020 O   0  0  0  0  0  0  0  0  0  0  0  0
   -2.8380    0.3080   -4.9900 O   0  0  0  0  0  0  0  0  0  0  0  0
   -2.0200    0.9770   -0.9690 H   0  0  0  0  0  0  0  0  0  0  0  0
   -1.7390   -1.2830   -3.0090 H   0  0  0  0  0  0  0  0  0  0  0  0
   -4.1410   -1.1260   -3.4290 H   0  0  0  0  0  0  0  0  0  0  0  0
   -4.3580    0.1600   -2.2300 H   0  0  0  0  0  0  0  0  0  0  0  0
   -5.1940   -1.9380   -1.4790 H   0  0  0  0  0  0  0  0  0  0  0  0
   -3.9250   -1.4360   -0.3730 H   0  0  0  0  0  0  0  0  0  0  0  0
   -3.3370   -5.0610   -0.9530 H   0  0  0  0  0  0  0  0  0  0  0  0
  1  8  1  0  0  0  0
  2 11  1  0  0  0  0
  2  1  1  0  0  0  0
  2  3  1  0  0  0  0
  3 12  1  0  0  0  0
  3 14  1  0  0  0  0
  4 15  1  6  0  0  0
  4  2  1  0  0  0  0
  5 17  1  0  0  0  0
  5 16  1  0  0  0  0
  5  4  1  0  0  0  0
  6  4  1  0  0  0  0
  6  7  2  0  0  0  0
  9  1  1  0  0  0  0
 10  1  1  0  0  0  0
 13  3  1  0  0  0  0
 18 28  1  0  0  0  0
 18 27  1  0  0  0  0
 19 20  2  0  0  0  0
 19 18  1  0  0  0  0
 21 29  1  0  0  0  0
 21 19  1  0  0  0  0
 22 23  1  0  0  0  0
 22 21  1  0  0  0  0
 23 24  1  0  0  0  0
 23 33  1  1  0  0  0
 24  6  1  0  0  0  0
 25 23  1  0  0  0  0
 26 25  2  0  0  0  0
 30 21  1  0  0  0  0
 31 22  1  0  0  0  0
 32 22  1  0  0  0  0
 34 24  1  0  0  0  0
 35 25  1  0  0  0  0
 35 45  1  0  0  0  0
 36 46  1  6  0  0  0
 36 37  1  0  0  0  0
 36 35  1  0  0  0  0
 37 48  1  0  0  0  0
 37 38  1  0  0  0  0
 38 50  1  0  0  0  0
 39 38  1  0  0  0  0
 39 43  1  0  0  0  0
 40 39  2  0  0  0  0
 41 42  1  0  0  0  0
 41 36  1  0  0  0  0
 44 41  2  0  0  0  0
 47 37  1  0  0  0  0
 49 38  1  0  0  0  0
 51 43  1  0  0  0  0
M  END
$$$$
