VQG.pdb
 OpenBabel07022419253D

 42 41  0  0  1  0  0  0  0  0999 V2000
   -0.9920   -2.9630    2.5230 C   0  0  0  0  0  0  0  0  0  0  0  0
    0.0160   -3.8860    1.9370 C   0  0  0  0  0  0  0  0  0  0  0  0
    1.2400   -4.0370    2.8030 C   0  0  0  0  0  0  0  0  0  0  0  0
    0.3380   -3.5620    0.5100 C   0  0  2  0  0  0  0  0  0  0  0  0
    1.3400   -4.6000    0.1270 N   0  0  0  0  0  0  0  0  0  0  0  0
    0.9560   -2.2660    0.2620 C   0  0  0  0  0  0  0  0  0  0  0  0
    2.2100   -2.2140    0.0510 O   0  0  0  0  0  0  0  0  0  0  0  0
   -1.6980   -2.5410    1.8030 H   0  0  0  0  0  0  0  0  0  0  0  0
   -1.6190   -3.5230    3.2860 H   0  0  0  0  0  0  0  0  0  0  0  0
   -0.4750   -2.1690    3.1260 H   0  0  0  0  0  0  0  0  0  0  0  0
   -0.4610   -4.9110    1.9110 H   0  0  0  0  0  0  0  0  0  0  0  0
    1.6370   -5.0840    2.8060 H   0  0  0  0  0  0  0  0  0  0  0  0
    2.0780   -3.3970    2.4800 H   0  0  0  0  0  0  0  0  0  0  0  0
    0.9630   -3.7070    3.8290 H   0  0  0  0  0  0  0  0  0  0  0  0
   -0.5690   -3.7700   -0.0920 H   0  0  0  0  0  0  0  0  0  0  0  0
    2.0950   -4.1760   -0.4450 H   0  0  0  0  0  0  0  0  0  0  0  0
    0.8870   -5.3410   -0.4430 H   0  0  0  0  0  0  0  0  0  0  0  0
    1.5160    3.7310   -3.6520 N   0  0  0  0  0  0  0  0  0  0  0  0
    0.9920    2.5430   -3.0950 C   0  0  0  0  0  0  0  0  0  0  0  0
    0.1810    1.8690   -3.7670 O   0  0  0  0  0  0  0  0  0  0  0  0
    1.3670    2.0500   -1.7240 C   0  0  0  0  0  0  0  0  0  0  0  0
    0.6690    0.7830   -1.3990 C   0  0  0  0  0  0  0  0  0  0  0  0
    1.0200    0.2340   -0.0410 C   0  0  2  0  0  0  0  0  0  0  0  0
    0.3160   -1.0050    0.2190 N   0  0  0  0  0  0  0  0  0  0  0  0
    0.7420    1.1660    1.0740 C   0  0  0  0  0  0  0  0  0  0  0  0
    1.2900    2.3140    1.1760 O   0  0  0  0  0  0  0  0  0  0  0  0
    2.4870    4.0280   -3.3860 H   0  0  0  0  0  0  0  0  0  0  0  0
    0.9410    4.3060   -4.3220 H   0  0  0  0  0  0  0  0  0  0  0  0
    1.1860    2.8910   -1.0180 H   0  0  0  0  0  0  0  0  0  0  0  0
    2.4780    1.9290   -1.7580 H   0  0  0  0  0  0  0  0  0  0  0  0
   -0.4230    0.9780   -1.3930 H   0  0  0  0  0  0  0  0  0  0  0  0
    0.9680    0.0250   -2.1400 H   0  0  0  0  0  0  0  0  0  0  0  0
    2.1000   -0.0170   -0.0910 H   0  0  0  0  0  0  0  0  0  0  0  0
   -0.7000   -0.9610    0.3720 H   0  0  0  0  0  0  0  0  0  0  0  0
   -0.1620    0.8710    2.1350 N   0  0  0  0  0  0  0  0  0  0  0  0
   -0.4010    1.8170    3.2070 C   0  0  0  0  0  0  0  0  0  0  0  0
   -1.3750    1.2870    4.1870 C   0  0  0  0  0  0  0  0  0  0  0  0
   -1.9210    0.1570    4.0910 O   0  0  0  0  0  0  0  0  0  0  0  0
   -1.7210    2.0650    5.2810 O   0  0  0  0  0  0  0  0  0  0  0  0
   -0.6750   -0.0280    2.1640 H   0  0  0  0  0  0  0  0  0  0  0  0
    0.5560    2.1150    3.6960 H   0  0  0  0  0  0  0  0  0  0  0  0
   -0.8850    2.7140    2.7270 H   0  0  0  0  0  0  0  0  0  0  0  0
  1 10  1  0  0  0  0
  1  9  1  0  0  0  0
  2  1  1  0  0  0  0
  2  3  1  0  0  0  0
  3 12  1  0  0  0  0
  3 14  1  0  0  0  0
  4 15  1  6  0  0  0
  4  2  1  0  0  0  0
  5  4  1  0  0  0  0
  6  4  1  0  0  0  0
  7  6  2  0  0  0  0
  8  1  1  0  0  0  0
 11  2  1  0  0  0  0
 13  3  1  0  0  0  0
 16  5  1  0  0  0  0
 17  5  1  0  0  0  0
 18 27  1  0  0  0  0
 18 19  1  0  0  0  0
 19 21  1  0  0  0  0
 20 19  2  0  0  0  0
 21 22  1  0  0  0  0
 21 29  1  0  0  0  0
 22 31  1  0  0  0  0
 22 23  1  0  0  0  0
 23 33  1  1  0  0  0
 23 24  1  0  0  0  0
 23 25  1  0  0  0  0
 24  6  1  0  0  0  0
 24 34  1  0  0  0  0
 25 26  2  0  0  0  0
 25 35  1  0  0  0  0
 28 18  1  0  0  0  0
 30 21  1  0  0  0  0
 32 22  1  0  0  0  0
 35 40  1  0  0  0  0
 35 36  1  0  0  0  0
 36 41  1  0  0  0  0
 36 37  1  0  0  0  0
 37 39  1  0  0  0  0
 38 37  2  0  0  0  0
 42 36  1  0  0  0  0
M  END
$$$$
