VQH.pdb
 OpenBabel07022419253D

 52 52  0  0  1  0  0  0  0  0999 V2000
    0.5740   -3.1270    3.1260 C   0  0  0  0  0  0  0  0  0  0  0  0
    1.6010   -3.0350    2.0060 C   0  0  0  0  0  0  0  0  0  0  0  0
    0.9420   -3.5460    0.7900 C   0  0  0  0  0  0  0  0  0  0  0  0
    2.3080   -1.7740    2.0250 C   0  0  2  0  0  0  0  0  0  0  0  0
    2.9950   -1.6670    3.3110 N   0  0  0  0  0  0  0  0  0  0  0  0
    1.7470   -0.5070    1.7210 C   0  0  0  0  0  0  0  0  0  0  0  0
    1.9460    0.4520    2.5360 O   0  0  0  0  0  0  0  0  0  0  0  0
    1.0390   -3.3820    4.0970 H   0  0  0  0  0  0  0  0  0  0  0  0
    0.0570   -2.1470    3.2340 H   0  0  0  0  0  0  0  0  0  0  0  0
   -0.2020   -3.8750    2.9280 H   0  0  0  0  0  0  0  0  0  0  0  0
    2.3420   -3.8520    2.2900 H   0  0  0  0  0  0  0  0  0  0  0  0
    0.6550   -4.6220    1.0240 H   0  0  0  0  0  0  0  0  0  0  0  0
    1.6090   -3.6650   -0.0890 H   0  0  0  0  0  0  0  0  0  0  0  0
   -0.0370   -3.0970    0.5370 H   0  0  0  0  0  0  0  0  0  0  0  0
    3.1910   -1.8820    1.3060 H   0  0  0  0  0  0  0  0  0  0  0  0
    3.7220   -0.9110    3.1860 H   0  0  0  0  0  0  0  0  0  0  0  0
    3.5100   -2.5320    3.5550 H   0  0  0  0  0  0  0  0  0  0  0  0
    4.1120    3.1280   -0.3080 N   0  0  0  0  0  0  0  0  0  0  0  0
    2.7020    2.9030   -0.3630 C   0  0  0  0  0  0  0  0  0  0  0  0
    1.9940    3.5430    0.4360 O   0  0  0  0  0  0  0  0  0  0  0  0
    2.1110    1.9530   -1.3300 C   0  0  0  0  0  0  0  0  0  0  0  0
    0.6620    1.7320   -0.9960 C   0  0  0  0  0  0  0  0  0  0  0  0
    0.4190    1.1370    0.3170 C   0  0  2  0  0  0  0  0  0  0  0  0
    0.9680   -0.1340    0.6050 N   0  0  0  0  0  0  0  0  0  0  0  0
   -1.0790    1.0280    0.4880 C   0  0  0  0  0  0  0  0  0  0  0  0
   -1.8090    2.0350    0.2790 O   0  0  0  0  0  0  0  0  0  0  0  0
    4.4980    4.0540   -0.1420 H   0  0  0  0  0  0  0  0  0  0  0  0
    4.7340    2.3140   -0.4450 H   0  0  0  0  0  0  0  0  0  0  0  0
    2.1570    2.4860   -2.3270 H   0  0  0  0  0  0  0  0  0  0  0  0
    2.6870    1.0080   -1.3960 H   0  0  0  0  0  0  0  0  0  0  0  0
    0.0950    1.2800   -1.8400 H   0  0  0  0  0  0  0  0  0  0  0  0
    0.2240    2.7820   -0.9530 H   0  0  0  0  0  0  0  0  0  0  0  0
    0.7220    1.8270    1.1250 H   0  0  0  0  0  0  0  0  0  0  0  0
    0.8000   -0.9050   -0.0580 H   0  0  0  0  0  0  0  0  0  0  0  0
   -1.6720   -0.1750    0.8750 N   0  0  0  0  0  0  0  0  0  0  0  0
   -3.0840   -0.3870    1.0650 C   0  0  1  0  0  0  0  0  0  0  0  0
   -3.5610   -1.6660    0.4850 C   0  0  0  0  0  0  0  0  0  0  0  0
   -3.3840   -1.8240   -0.9630 C   0  0  0  0  0  0  0  0  0  0  0  0
   -2.8730   -0.9960   -1.9260 C   0  0  0  0  0  0  0  0  0  0  0  0
   -2.9690   -1.6560   -3.0930 N   0  0  0  0  0  0  0  0  0  0  0  0
   -3.5190   -2.8630   -2.9010 C   0  0  0  0  0  0  0  0  0  0  0  0
   -3.7740   -2.9650   -1.5930 N   0  0  0  0  0  0  0  0  0  0  0  0
   -3.3220   -0.4820    2.5490 C   0  0  0  0  0  0  0  0  0  0  0  0
   -4.4770   -0.6670    2.9850 O   0  0  0  0  0  0  0  0  0  0  0  0
   -2.2730   -0.3660    3.4190 O   0  0  0  0  0  0  0  0  0  0  0  0
   -1.0500   -0.9950    1.0440 H   0  0  0  0  0  0  0  0  0  0  0  0
   -3.6640    0.5020    0.7260 H   0  0  0  0  0  0  0  0  0  0  0  0
   -4.6240   -1.8870    0.7840 H   0  0  0  0  0  0  0  0  0  0  0  0
   -2.9690   -2.4990    0.9670 H   0  0  0  0  0  0  0  0  0  0  0  0
   -2.4800   -0.0050   -1.7460 H   0  0  0  0  0  0  0  0  0  0  0  0
   -2.6420   -1.2420   -4.0140 H   0  0  0  0  0  0  0  0  0  0  0  0
   -3.7020   -3.5860   -3.6940 H   0  0  0  0  0  0  0  0  0  0  0  0
  1  9  1  0  0  0  0
  1  8  1  0  0  0  0
  2  4  1  0  0  0  0
  2 11  1  0  0  0  0
  2  1  1  0  0  0  0
  3 12  1  0  0  0  0
  3  2  1  0  0  0  0
  4 15  1  6  0  0  0
  4  5  1  0  0  0  0
  5 17  1  0  0  0  0
  6  4  1  0  0  0  0
  6  7  2  0  0  0  0
 10  1  1  0  0  0  0
 13  3  1  0  0  0  0
 14  3  1  0  0  0  0
 16  5  1  0  0  0  0
 18 27  1  0  0  0  0
 19 18  1  0  0  0  0
 19 20  2  0  0  0  0
 21 22  1  0  0  0  0
 21 19  1  0  0  0  0
 22 32  1  0  0  0  0
 22 23  1  0  0  0  0
 23 25  1  0  0  0  0
 23 24  1  0  0  0  0
 23 33  1  1  0  0  0
 24  6  1  0  0  0  0
 25 35  1  0  0  0  0
 26 25  2  0  0  0  0
 28 18  1  0  0  0  0
 29 21  1  0  0  0  0
 30 21  1  0  0  0  0
 31 22  1  0  0  0  0
 34 24  1  0  0  0  0
 35 46  1  0  0  0  0
 35 36  1  0  0  0  0
 36 47  1  6  0  0  0
 36 43  1  0  0  0  0
 37 48  1  0  0  0  0
 37 49  1  0  0  0  0
 37 36  1  0  0  0  0
 38 37  1  0  0  0  0
 39 50  1  0  0  0  0
 39 38  2  0  0  0  0
 40 41  1  0  0  0  0
 40 39  1  0  0  0  0
 41 42  2  0  0  0  0
 42 38  1  0  0  0  0
 43 44  2  0  0  0  0
 43 45  1  0  0  0  0
 51 40  1  0  0  0  0
 52 41  1  0  0  0  0
M  END
$$$$
