VQI.pdb
 OpenBabel07022419253D

 54 53  0  0  1  0  0  0  0  0999 V2000
   -0.5790   -3.6120    4.4630 C   0  0  0  0  0  0  0  0  0  0  0  0
   -0.3810   -2.2490    3.7820 C   0  0  0  0  0  0  0  0  0  0  0  0
   -1.1850   -2.3390    2.5070 C   0  0  0  0  0  0  0  0  0  0  0  0
    1.0950   -2.1890    3.4130 C   0  0  2  0  0  0  0  0  0  0  0  0
    1.8680   -2.3330    4.6910 N   0  0  0  0  0  0  0  0  0  0  0  0
    1.5250   -0.9470    2.7830 C   0  0  0  0  0  0  0  0  0  0  0  0
    2.1590   -0.0460    3.4600 O   0  0  0  0  0  0  0  0  0  0  0  0
   -1.4950   -3.5810    5.1210 H   0  0  0  0  0  0  0  0  0  0  0  0
   -0.7550   -4.4080    3.7270 H   0  0  0  0  0  0  0  0  0  0  0  0
    0.2820   -3.8580    5.0850 H   0  0  0  0  0  0  0  0  0  0  0  0
   -0.6940   -1.4230    4.4290 H   0  0  0  0  0  0  0  0  0  0  0  0
   -2.0660   -3.0390    2.6780 H   0  0  0  0  0  0  0  0  0  0  0  0
   -0.5820   -2.8570    1.7550 H   0  0  0  0  0  0  0  0  0  0  0  0
   -1.5320   -1.3330    2.2620 H   0  0  0  0  0  0  0  0  0  0  0  0
    1.3280   -3.0850    2.8360 H   0  0  0  0  0  0  0  0  0  0  0  0
    1.2570   -2.0450    5.4850 H   0  0  0  0  0  0  0  0  0  0  0  0
    2.2230   -3.3100    4.7880 H   0  0  0  0  0  0  0  0  0  0  0  0
    3.6760   -1.4060   -3.3350 N   0  0  0  0  0  0  0  0  0  0  0  0
    3.7140   -0.6200   -2.1450 C   0  0  0  0  0  0  0  0  0  0  0  0
    4.7870   -0.0590   -1.8650 O   0  0  0  0  0  0  0  0  0  0  0  0
    2.5360   -0.4610   -1.2590 C   0  0  0  0  0  0  0  0  0  0  0  0
    2.9200    0.4220   -0.1090 C   0  0  0  0  0  0  0  0  0  0  0  0
    1.7810    0.6480    0.8670 C   0  0  2  0  0  0  0  0  0  0  0  0
    1.3170   -0.6040    1.4370 N   0  0  0  0  0  0  0  0  0  0  0  0
    0.6720    1.3110    0.1640 C   0  0  0  0  0  0  0  0  0  0  0  0
    0.8380    2.4720   -0.3710 O   0  0  0  0  0  0  0  0  0  0  0  0
    3.0310   -2.2300   -3.3800 H   0  0  0  0  0  0  0  0  0  0  0  0
    4.2540   -1.2100   -4.1670 H   0  0  0  0  0  0  0  0  0  0  0  0
    1.7330   -0.0380   -1.8860 H   0  0  0  0  0  0  0  0  0  0  0  0
    2.2700   -1.4570   -0.8480 H   0  0  0  0  0  0  0  0  0  0  0  0
    3.1500    1.4330   -0.5430 H   0  0  0  0  0  0  0  0  0  0  0  0
    3.8030   -0.0310    0.3830 H   0  0  0  0  0  0  0  0  0  0  0  0
    2.1040    1.2870    1.7110 H   0  0  0  0  0  0  0  0  0  0  0  0
    0.8210   -1.2450    0.7890 H   0  0  0  0  0  0  0  0  0  0  0  0
   -3.8060   -0.8450   -0.6390 C   0  0  0  0  0  0  0  0  0  0  0  0
   -2.6250   -0.7440   -1.5520 C   0  0  0  0  0  0  0  0  0  0  0  0
   -2.1410    0.6290   -1.8500 C   0  0  2  0  0  0  0  0  0  0  0  0
   -0.9480    0.5060   -2.7940 C   0  0  0  0  0  0  0  0  0  0  0  0
   -1.7190    1.4570   -0.6920 C   0  0  2  0  0  0  0  0  0  0  0  0
   -0.6340    0.7740    0.0050 N   0  0  0  0  0  0  0  0  0  0  0  0
   -2.7660    1.7980    0.2760 C   0  0  0  0  0  0  0  0  0  0  0  0
   -2.6520    1.4990    1.4800 O   0  0  0  0  0  0  0  0  0  0  0  0
   -3.8970    2.4630   -0.1460 O   0  0  0  0  0  0  0  0  0  0  0  0
   -4.5700   -0.0880   -0.8070 H   0  0  0  0  0  0  0  0  0  0  0  0
   -4.2610   -1.8760   -0.7850 H   0  0  0  0  0  0  0  0  0  0  0  0
   -3.4510   -0.8830    0.4220 H   0  0  0  0  0  0  0  0  0  0  0  0
   -1.8070   -1.4300   -1.2140 H   0  0  0  0  0  0  0  0  0  0  0  0
   -2.9540   -1.1990   -2.5330 H   0  0  0  0  0  0  0  0  0  0  0  0
   -2.9680    1.1790   -2.3610 H   0  0  0  0  0  0  0  0  0  0  0  0
   -0.1730    1.2680   -2.6120 H   0  0  0  0  0  0  0  0  0  0  0  0
   -0.4710   -0.4860   -2.7020 H   0  0  0  0  0  0  0  0  0  0  0  0
   -1.3420    0.5570   -3.8370 H   0  0  0  0  0  0  0  0  0  0  0  0
   -1.2390    2.3810   -1.1170 H   0  0  0  0  0  0  0  0  0  0  0  0
   -0.8430   -0.1510    0.3900 H   0  0  0  0  0  0  0  0  0  0  0  0
  1 10  1  0  0  0  0
  1  8  1  0  0  0  0
  2 11  1  0  0  0  0
  2  1  1  0  0  0  0
  3 12  1  0  0  0  0
  3  2  1  0  0  0  0
  4 15  1  6  0  0  0
  4  2  1  0  0  0  0
  4  5  1  0  0  0  0
  5 17  1  0  0  0  0
  5 16  1  0  0  0  0
  6  4  1  0  0  0  0
  6  7  2  0  0  0  0
  9  1  1  0  0  0  0
 13  3  1  0  0  0  0
 14  3  1  0  0  0  0
 18 19  1  0  0  0  0
 19 20  2  0  0  0  0
 19 21  1  0  0  0  0
 21 30  1  0  0  0  0
 21 22  1  0  0  0  0
 22 32  1  0  0  0  0
 22 23  1  0  0  0  0
 23 24  1  0  0  0  0
 23 33  1  1  0  0  0
 24  6  1  0  0  0  0
 25 23  1  0  0  0  0
 26 25  2  0  0  0  0
 27 18  1  0  0  0  0
 28 18  1  0  0  0  0
 29 21  1  0  0  0  0
 31 22  1  0  0  0  0
 34 24  1  0  0  0  0
 35 46  1  0  0  0  0
 36 47  1  0  0  0  0
 36 35  1  0  0  0  0
 37 49  1  6  0  0  0
 37 36  1  0  0  0  0
 37 39  1  0  0  0  0
 38 51  1  0  0  0  0
 38 50  1  0  0  0  0
 38 37  1  0  0  0  0
 39 53  1  6  0  0  0
 39 40  1  0  0  0  0
 39 41  1  0  0  0  0
 40 25  1  0  0  0  0
 40 54  1  0  0  0  0
 41 42  1  0  0  0  0
 43 41  2  0  0  0  0
 44 35  1  0  0  0  0
 45 35  1  0  0  0  0
 48 36  1  0  0  0  0
 52 38  1  0  0  0  0
M  END
$$$$
