VQR.pdb
 OpenBabel07022419253D

 58 57  0  0  1  0  0  0  0  0999 V2000
    1.5140   -3.1940    2.9790 C   0  0  0  0  0  0  0  0  0  0  0  0
    0.7940   -2.0880    3.6820 C   0  0  0  0  0  0  0  0  0  0  0  0
   -0.6930   -2.1310    3.4650 C   0  0  0  0  0  0  0  0  0  0  0  0
    1.3760   -0.7210    3.4100 C   0  0  2  0  0  0  0  0  0  0  0  0
    0.5710    0.2280    4.1580 N   0  0  0  0  0  0  0  0  0  0  0  0
    1.4600   -0.3950    1.9840 C   0  0  0  0  0  0  0  0  0  0  0  0
    2.1420   -1.1310    1.2390 O   0  0  0  0  0  0  0  0  0  0  0  0
    1.5040   -4.1540    3.5470 H   0  0  0  0  0  0  0  0  0  0  0  0
    2.5790   -2.8970    2.8740 H   0  0  0  0  0  0  0  0  0  0  0  0
    1.0670   -3.3980    1.9650 H   0  0  0  0  0  0  0  0  0  0  0  0
    0.9520   -2.2600    4.7890 H   0  0  0  0  0  0  0  0  0  0  0  0
   -1.1370   -1.1310    3.3030 H   0  0  0  0  0  0  0  0  0  0  0  0
   -0.8930   -2.8230    2.6150 H   0  0  0  0  0  0  0  0  0  0  0  0
   -1.2400   -2.5640    4.3440 H   0  0  0  0  0  0  0  0  0  0  0  0
    2.3900   -0.7070    3.8590 H   0  0  0  0  0  0  0  0  0  0  0  0
    1.1020    1.0910    4.4070 H   0  0  0  0  0  0  0  0  0  0  0  0
    0.1840   -0.1660    5.0300 H   0  0  0  0  0  0  0  0  0  0  0  0
    5.8050    1.5940   -0.7280 N   0  0  0  0  0  0  0  0  0  0  0  0
    4.4570    2.0300   -0.8230 C   0  0  0  0  0  0  0  0  0  0  0  0
    4.1760    3.1300   -1.3630 O   0  0  0  0  0  0  0  0  0  0  0  0
    3.3900    1.1210   -0.2530 C   0  0  0  0  0  0  0  0  0  0  0  0
    2.0660    1.7680   -0.4520 C   0  0  0  0  0  0  0  0  0  0  0  0
    0.8690    1.0400    0.0190 C   0  0  2  0  0  0  0  0  0  0  0  0
    0.8000    0.7190    1.4140 N   0  0  0  0  0  0  0  0  0  0  0  0
    0.4900   -0.0880   -0.8860 C   0  0  0  0  0  0  0  0  0  0  0  0
    0.7360   -0.0190   -2.1350 O   0  0  0  0  0  0  0  0  0  0  0  0
    6.1630    0.9200   -1.4330 H   0  0  0  0  0  0  0  0  0  0  0  0
    6.3930    1.9650    0.0440 H   0  0  0  0  0  0  0  0  0  0  0  0
    3.6690    1.0380    0.8250 H   0  0  0  0  0  0  0  0  0  0  0  0
    3.5270    0.1480   -0.7430 H   0  0  0  0  0  0  0  0  0  0  0  0
    2.1090    2.8170   -0.0230 H   0  0  0  0  0  0  0  0  0  0  0  0
    1.9390    1.9730   -1.5580 H   0  0  0  0  0  0  0  0  0  0  0  0
    0.0030    1.8220   -0.1240 H   0  0  0  0  0  0  0  0  0  0  0  0
    0.2340    1.3250    2.0850 H   0  0  0  0  0  0  0  0  0  0  0  0
   -6.4540   -0.8980    0.2240 N   0  0  0  0  0  0  0  0  0  0  0  0
   -5.0450   -0.7860    0.2710 C   0  0  0  0  0  0  0  0  0  0  0  0
   -4.3520   -1.3650    1.2210 N   0  0  0  0  0  0  0  0  0  0  0  0
   -4.3060   -0.0540   -0.6910 N   0  0  0  0  0  0  0  0  0  0  0  0
   -2.9410   -0.3850   -1.0860 C   0  0  0  0  0  0  0  0  0  0  0  0
   -2.9050   -1.6750   -1.8350 C   0  0  0  0  0  0  0  0  0  0  0  0
   -1.5590   -2.0820   -2.2960 C   0  0  0  0  0  0  0  0  0  0  0  0
   -0.5070   -2.3510   -1.2990 C   0  0  2  0  0  0  0  0  0  0  0  0
   -0.1440   -1.2520   -0.4370 N   0  0  0  0  0  0  0  0  0  0  0  0
    0.7410   -2.8930   -1.9400 C   0  0  0  0  0  0  0  0  0  0  0  0
    0.7370   -3.8440   -2.7310 O   0  0  0  0  0  0  0  0  0  0  0  0
    1.9520   -2.3000   -1.6300 O   0  0  0  0  0  0  0  0  0  0  0  0
   -6.8870   -1.7330   -0.1950 H   0  0  0  0  0  0  0  0  0  0  0  0
   -7.0390   -0.1440    0.6120 H   0  0  0  0  0  0  0  0  0  0  0  0
   -3.3180   -1.3050    1.2880 H   0  0  0  0  0  0  0  0  0  0  0  0
   -4.7590    0.7620   -1.1430 H   0  0  0  0  0  0  0  0  0  0  0  0
   -2.3060   -0.4010   -0.2110 H   0  0  0  0  0  0  0  0  0  0  0  0
   -2.5360    0.4100   -1.7590 H   0  0  0  0  0  0  0  0  0  0  0  0
   -3.3980   -2.4840   -1.2060 H   0  0  0  0  0  0  0  0  0  0  0  0
   -3.5370   -1.5170   -2.7540 H   0  0  0  0  0  0  0  0  0  0  0  0
   -1.2290   -1.2930   -3.0560 H   0  0  0  0  0  0  0  0  0  0  0  0
   -1.6630   -3.0360   -2.9140 H   0  0  0  0  0  0  0  0  0  0  0  0
   -0.8510   -3.2190   -0.6560 H   0  0  0  0  0  0  0  0  0  0  0  0
   -0.3700   -1.3230    0.5920 H   0  0  0  0  0  0  0  0  0  0  0  0
  1  8  1  0  0  0  0
  1  2  1  0  0  0  0
  2 11  1  0  0  0  0
  3  2  1  0  0  0  0
  3 14  1  0  0  0  0
  4  2  1  0  0  0  0
  4 15  1  1  0  0  0
  4  5  1  0  0  0  0
  5 16  1  0  0  0  0
  5 17  1  0  0  0  0
  6  4  1  0  0  0  0
  7  6  2  0  0  0  0
  9  1  1  0  0  0  0
 10  1  1  0  0  0  0
 12  3  1  0  0  0  0
 13  3  1  0  0  0  0
 18 28  1  0  0  0  0
 19 18  1  0  0  0  0
 19 21  1  0  0  0  0
 20 19  2  0  0  0  0
 21 29  1  0  0  0  0
 22 21  1  0  0  0  0
 22 31  1  0  0  0  0
 22 23  1  0  0  0  0
 23 33  1  6  0  0  0
 23 24  1  0  0  0  0
 24  6  1  0  0  0  0
 24 34  1  0  0  0  0
 25 43  1  0  0  0  0
 25 23  1  0  0  0  0
 26 25  2  0  0  0  0
 27 18  1  0  0  0  0
 30 21  1  0  0  0  0
 32 22  1  0  0  0  0
 35 36  1  0  0  0  0
 35 48  1  0  0  0  0
 36 37  2  0  0  0  0
 37 49  1  0  0  0  0
 38 36  1  0  0  0  0
 39 38  1  0  0  0  0
 39 51  1  0  0  0  0
 40 53  1  0  0  0  0
 40 39  1  0  0  0  0
 41 40  1  0  0  0  0
 41 42  1  0  0  0  0
 42 57  1  1  0  0  0
 42 43  1  0  0  0  0
 43 58  1  0  0  0  0
 44 46  1  0  0  0  0
 44 42  1  0  0  0  0
 45 44  2  0  0  0  0
 47 35  1  0  0  0  0
 50 38  1  0  0  0  0
 52 39  1  0  0  0  0
 54 40  1  0  0  0  0
 55 41  1  0  0  0  0
 56 41  1  0  0  0  0
M  END
$$$$
