VQT.pdb
 OpenBabel07022419253D

 49 48  0  0  1  0  0  0  0  0999 V2000
    0.8800   -3.7520    3.4760 C   0  0  0  0  0  0  0  0  0  0  0  0
   -0.2980   -2.9710    3.9580 C   0  0  0  0  0  0  0  0  0  0  0  0
    0.0160   -2.2350    5.2280 C   0  0  0  0  0  0  0  0  0  0  0  0
   -0.9120   -2.0760    2.9370 C   0  0  2  0  0  0  0  0  0  0  0  0
   -1.3600   -2.9120    1.8220 N   0  0  0  0  0  0  0  0  0  0  0  0
    0.0270   -1.0220    2.4340 C   0  0  0  0  0  0  0  0  0  0  0  0
    0.5300   -0.2360    3.2760 O   0  0  0  0  0  0  0  0  0  0  0  0
    1.8490   -3.2540    3.6870 H   0  0  0  0  0  0  0  0  0  0  0  0
    0.9110   -4.7150    4.0270 H   0  0  0  0  0  0  0  0  0  0  0  0
    0.8010   -4.0200    2.3870 H   0  0  0  0  0  0  0  0  0  0  0  0
   -1.0880   -3.7310    4.2450 H   0  0  0  0  0  0  0  0  0  0  0  0
    0.8850   -1.5690    5.1580 H   0  0  0  0  0  0  0  0  0  0  0  0
    0.1960   -2.9420    6.0710 H   0  0  0  0  0  0  0  0  0  0  0  0
   -0.8740   -1.6340    5.5450 H   0  0  0  0  0  0  0  0  0  0  0  0
   -1.8280   -1.6160    3.3590 H   0  0  0  0  0  0  0  0  0  0  0  0
   -2.1080   -3.5410    2.2310 H   0  0  0  0  0  0  0  0  0  0  0  0
   -1.8530   -2.3350    1.1050 H   0  0  0  0  0  0  0  0  0  0  0  0
    5.6660    0.0940   -1.9270 N   0  0  0  0  0  0  0  0  0  0  0  0
    4.5540   -0.5560   -1.3380 C   0  0  0  0  0  0  0  0  0  0  0  0
    4.5090   -1.8040   -1.3480 O   0  0  0  0  0  0  0  0  0  0  0  0
    3.4630    0.2770   -0.7180 C   0  0  0  0  0  0  0  0  0  0  0  0
    2.4100   -0.5920   -0.1100 C   0  0  0  0  0  0  0  0  0  0  0  0
    1.2780    0.1400    0.5490 C   0  0  2  0  0  0  0  0  0  0  0  0
    0.3620   -0.8800    1.0870 N   0  0  0  0  0  0  0  0  0  0  0  0
    0.5240    1.0300   -0.3550 C   0  0  0  0  0  0  0  0  0  0  0  0
    1.0940    1.9680   -0.9430 O   0  0  0  0  0  0  0  0  0  0  0  0
    6.6220   -0.2580   -1.6680 H   0  0  0  0  0  0  0  0  0  0  0  0
    5.5990    0.8840   -2.5860 H   0  0  0  0  0  0  0  0  0  0  0  0
    3.0520    0.9270   -1.5220 H   0  0  0  0  0  0  0  0  0  0  0  0
    3.9590    0.9250    0.0290 H   0  0  0  0  0  0  0  0  0  0  0  0
    2.9020   -1.2490    0.6500 H   0  0  0  0  0  0  0  0  0  0  0  0
    2.0150   -1.2980   -0.8750 H   0  0  0  0  0  0  0  0  0  0  0  0
    1.6750    0.7220    1.4340 H   0  0  0  0  0  0  0  0  0  0  0  0
   -0.0490   -1.5280    0.3820 H   0  0  0  0  0  0  0  0  0  0  0  0
   -3.0420   -0.4420   -1.8630 C   0  0  0  0  0  0  0  0  0  0  0  0
   -2.3110    0.7410   -2.4890 C   0  0  1  0  0  0  0  0  0  0  0  0
   -3.1330    1.4810   -3.3190 O   0  0  0  0  0  0  0  0  0  0  0  0
   -1.7130    1.6070   -1.4070 C   0  0  2  0  0  0  0  0  0  0  0  0
   -0.8580    0.8110   -0.5490 N   0  0  0  0  0  0  0  0  0  0  0  0
   -2.6930    2.3850   -0.6430 C   0  0  0  0  0  0  0  0  0  0  0  0
   -3.5160    3.1160   -1.2350 O   0  0  0  0  0  0  0  0  0  0  0  0
   -2.7210    2.3210    0.7390 O   0  0  0  0  0  0  0  0  0  0  0  0
   -2.3490   -1.3060   -1.8130 H   0  0  0  0  0  0  0  0  0  0  0  0
   -3.3570   -0.1990   -0.8180 H   0  0  0  0  0  0  0  0  0  0  0  0
   -3.9090   -0.6790   -2.4940 H   0  0  0  0  0  0  0  0  0  0  0  0
   -1.4730    0.3290   -3.0860 H   0  0  0  0  0  0  0  0  0  0  0  0
   -4.0520    1.5100   -2.8970 H   0  0  0  0  0  0  0  0  0  0  0  0
   -1.0270    2.3400   -1.9240 H   0  0  0  0  0  0  0  0  0  0  0  0
   -1.3130    0.0160   -0.0410 H   0  0  0  0  0  0  0  0  0  0  0  0
  1  8  1  0  0  0  0
  1  2  1  0  0  0  0
  1  9  1  0  0  0  0
  2 11  1  0  0  0  0
  2  3  1  0  0  0  0
  3 14  1  0  0  0  0
  3 13  1  0  0  0  0
  4 15  1  1  0  0  0
  4  2  1  0  0  0  0
  5 16  1  0  0  0  0
  5  4  1  0  0  0  0
  6  4  1  0  0  0  0
  6  7  2  0  0  0  0
 10  1  1  0  0  0  0
 12  3  1  0  0  0  0
 17  5  1  0  0  0  0
 18 27  1  0  0  0  0
 18 19  1  0  0  0  0
 19 21  1  0  0  0  0
 20 19  2  0  0  0  0
 21 22  1  0  0  0  0
 21 30  1  0  0  0  0
 22 23  1  0  0  0  0
 22 31  1  0  0  0  0
 23 24  1  0  0  0  0
 23 33  1  1  0  0  0
 24  6  1  0  0  0  0
 25 23  1  0  0  0  0
 26 25  2  0  0  0  0
 28 18  1  0  0  0  0
 29 21  1  0  0  0  0
 32 22  1  0  0  0  0
 34 24  1  0  0  0  0
 35 43  1  0  0  0  0
 35 44  1  0  0  0  0
 36 46  1  6  0  0  0
 36 35  1  0  0  0  0
 36 38  1  0  0  0  0
 37 47  1  0  0  0  0
 37 36  1  0  0  0  0
 38 48  1  6  0  0  0
 38 40  1  0  0  0  0
 38 39  1  0  0  0  0
 39 25  1  0  0  0  0
 39 49  1  0  0  0  0
 40 42  1  0  0  0  0
 41 40  2  0  0  0  0
 45 35  1  0  0  0  0
M  END
$$$$
