VQV.pdb
 OpenBabel07022419253D

 51 50  0  0  1  0  0  0  0  0999 V2000
    0.5060   -4.0860    4.6720 C   0  0  0  0  0  0  0  0  0  0  0  0
    0.9600   -2.6770    4.2660 C   0  0  0  0  0  0  0  0  0  0  0  0
    0.9430   -1.8360    5.5070 C   0  0  0  0  0  0  0  0  0  0  0  0
    0.0270   -2.2120    3.2000 C   0  0  2  0  0  0  0  0  0  0  0  0
    0.0990   -3.1150    2.0870 N   0  0  0  0  0  0  0  0  0  0  0  0
    0.3220   -0.8050    2.8000 C   0  0  0  0  0  0  0  0  0  0  0  0
    0.3110    0.1410    3.6280 O   0  0  0  0  0  0  0  0  0  0  0  0
   -0.6180   -4.1020    4.6210 H   0  0  0  0  0  0  0  0  0  0  0  0
    0.8610   -4.8210    3.9190 H   0  0  0  0  0  0  0  0  0  0  0  0
    0.7920   -4.3240    5.7010 H   0  0  0  0  0  0  0  0  0  0  0  0
    1.9900   -2.7420    3.8540 H   0  0  0  0  0  0  0  0  0  0  0  0
    0.0860   -1.1410    5.5680 H   0  0  0  0  0  0  0  0  0  0  0  0
    1.9080   -1.2680    5.5970 H   0  0  0  0  0  0  0  0  0  0  0  0
    0.8950   -2.4640    6.4230 H   0  0  0  0  0  0  0  0  0  0  0  0
   -1.0180   -2.2990    3.6160 H   0  0  0  0  0  0  0  0  0  0  0  0
   -0.6250   -2.9340    1.3580 H   0  0  0  0  0  0  0  0  0  0  0  0
    1.0380   -3.2600    1.7010 H   0  0  0  0  0  0  0  0  0  0  0  0
    4.3630   -0.2250   -2.3660 N   0  0  0  0  0  0  0  0  0  0  0  0
    3.8950    0.4520   -1.1970 C   0  0  0  0  0  0  0  0  0  0  0  0
    4.7080    1.2200   -0.6240 O   0  0  0  0  0  0  0  0  0  0  0  0
    2.5060    0.2240   -0.7260 C   0  0  0  0  0  0  0  0  0  0  0  0
    2.3040    1.0650    0.5150 C   0  0  0  0  0  0  0  0  0  0  0  0
    0.9150    0.9070    1.0820 C   0  0  2  0  0  0  0  0  0  0  0  0
    0.6310   -0.4630    1.4550 N   0  0  0  0  0  0  0  0  0  0  0  0
   -0.1300    1.3620    0.1410 C   0  0  0  0  0  0  0  0  0  0  0  0
   -0.1360    2.5280   -0.3520 O   0  0  0  0  0  0  0  0  0  0  0  0
    4.9650    0.2520   -3.0690 H   0  0  0  0  0  0  0  0  0  0  0  0
    4.1210   -1.2220   -2.5650 H   0  0  0  0  0  0  0  0  0  0  0  0
    2.2630   -0.8300   -0.5690 H   0  0  0  0  0  0  0  0  0  0  0  0
    1.8380    0.6840   -1.5110 H   0  0  0  0  0  0  0  0  0  0  0  0
    2.4400    2.1440    0.3000 H   0  0  0  0  0  0  0  0  0  0  0  0
    3.0160    0.8110    1.3260 H   0  0  0  0  0  0  0  0  0  0  0  0
    0.8520    1.5720    1.9730 H   0  0  0  0  0  0  0  0  0  0  0  0
    0.6570   -1.1990    0.7190 H   0  0  0  0  0  0  0  0  0  0  0  0
   -2.0320   -1.4670   -2.1580 C   0  0  0  0  0  0  0  0  0  0  0  0
   -2.0240   -0.0010   -2.4130 C   0  0  0  0  0  0  0  0  0  0  0  0
   -3.0710    0.4320   -3.4190 C   0  0  0  0  0  0  0  0  0  0  0  0
   -2.2330    0.8180   -1.1410 C   0  0  2  0  0  0  0  0  0  0  0  0
   -1.1680    0.4990   -0.2420 N   0  0  0  0  0  0  0  0  0  0  0  0
   -3.5690    0.5920   -0.5900 C   0  0  0  0  0  0  0  0  0  0  0  0
   -3.6750    0.1540    0.5820 O   0  0  0  0  0  0  0  0  0  0  0  0
   -4.7320    0.8380   -1.2970 O   0  0  0  0  0  0  0  0  0  0  0  0
   -1.0370   -1.7450   -1.7300 H   0  0  0  0  0  0  0  0  0  0  0  0
   -2.8230   -1.8230   -1.5000 H   0  0  0  0  0  0  0  0  0  0  0  0
   -2.1810   -1.9780   -3.1450 H   0  0  0  0  0  0  0  0  0  0  0  0
   -1.0400    0.3000   -2.8250 H   0  0  0  0  0  0  0  0  0  0  0  0
   -3.9640   -0.2200   -3.2930 H   0  0  0  0  0  0  0  0  0  0  0  0
   -3.3140    1.5040   -3.3230 H   0  0  0  0  0  0  0  0  0  0  0  0
   -2.6270    0.2890   -4.4260 H   0  0  0  0  0  0  0  0  0  0  0  0
   -2.0710    1.8880   -1.4670 H   0  0  0  0  0  0  0  0  0  0  0  0
   -1.1650   -0.4700    0.1650 H   0  0  0  0  0  0  0  0  0  0  0  0
  1 10  1  0  0  0  0
  2  1  1  0  0  0  0
  2  3  1  0  0  0  0
  3 12  1  0  0  0  0
  3 13  1  0  0  0  0
  3 14  1  0  0  0  0
  4 15  1  1  0  0  0
  4  2  1  0  0  0  0
  5  4  1  0  0  0  0
  6  4  1  0  0  0  0
  6  7  2  0  0  0  0
  8  1  1  0  0  0  0
  9  1  1  0  0  0  0
 11  2  1  0  0  0  0
 16  5  1  0  0  0  0
 17  5  1  0  0  0  0
 18 19  1  0  0  0  0
 19 21  1  0  0  0  0
 19 20  2  0  0  0  0
 21 29  1  0  0  0  0
 21 22  1  0  0  0  0
 22 23  1  0  0  0  0
 22 32  1  0  0  0  0
 23 24  1  0  0  0  0
 23 33  1  1  0  0  0
 24  6  1  0  0  0  0
 25 23  1  0  0  0  0
 26 25  2  0  0  0  0
 27 18  1  0  0  0  0
 28 18  1  0  0  0  0
 30 21  1  0  0  0  0
 31 22  1  0  0  0  0
 34 24  1  0  0  0  0
 35 43  1  0  0  0  0
 35 44  1  0  0  0  0
 36 35  1  0  0  0  0
 36 38  1  0  0  0  0
 37 48  1  0  0  0  0
 37 47  1  0  0  0  0
 37 36  1  0  0  0  0
 38 50  1  6  0  0  0
 38 40  1  0  0  0  0
 38 39  1  0  0  0  0
 39 25  1  0  0  0  0
 39 51  1  0  0  0  0
 40 41  1  0  0  0  0
 42 40  2  0  0  0  0
 45 35  1  0  0  0  0
 46 36  1  0  0  0  0
 49 37  1  0  0  0  0
M  END
$$$$
