VQY.pdb
 OpenBabel07022419253D

 56 56  0  0  1  0  0  0  0  0999 V2000
   -0.6680   -2.0760    3.1410 C   0  0  0  0  0  0  0  0  0  0  0  0
    0.8230   -2.1500    2.9010 C   0  0  0  0  0  0  0  0  0  0  0  0
    1.1240   -3.0830    1.7820 C   0  0  0  0  0  0  0  0  0  0  0  0
    1.4540   -0.7930    2.7950 C   0  0  2  0  0  0  0  0  0  0  0  0
    1.1780   -0.1370    4.0850 N   0  0  0  0  0  0  0  0  0  0  0  0
    0.8780    0.0630    1.7230 C   0  0  0  0  0  0  0  0  0  0  0  0
    1.0850   -0.2130    0.5310 O   0  0  0  0  0  0  0  0  0  0  0  0
   -1.1640   -2.9540    2.6420 H   0  0  0  0  0  0  0  0  0  0  0  0
   -0.9030   -2.0990    4.2260 H   0  0  0  0  0  0  0  0  0  0  0  0
   -1.0770   -1.1780    2.6390 H   0  0  0  0  0  0  0  0  0  0  0  0
    1.2530   -2.5970    3.8470 H   0  0  0  0  0  0  0  0  0  0  0  0
    0.1640   -3.4420    1.3570 H   0  0  0  0  0  0  0  0  0  0  0  0
    1.7730   -2.6400    0.9980 H   0  0  0  0  0  0  0  0  0  0  0  0
    1.6170   -3.9910    2.1830 H   0  0  0  0  0  0  0  0  0  0  0  0
    2.5470   -0.9250    2.7220 H   0  0  0  0  0  0  0  0  0  0  0  0
    0.1790   -0.2140    4.3090 H   0  0  0  0  0  0  0  0  0  0  0  0
    1.5710    0.8130    4.1290 H   0  0  0  0  0  0  0  0  0  0  0  0
    3.8380    2.0490    0.4880 N   0  0  0  0  0  0  0  0  0  0  0  0
    2.6630    2.6110    1.0310 C   0  0  0  0  0  0  0  0  0  0  0  0
    2.5200    2.6430    2.2690 O   0  0  0  0  0  0  0  0  0  0  0  0
    1.6270    3.1550    0.1510 C   0  0  0  0  0  0  0  0  0  0  0  0
    0.2620    3.2630    0.6880 C   0  0  0  0  0  0  0  0  0  0  0  0
   -0.4900    2.0350    1.0470 C   0  0  2  0  0  0  0  0  0  0  0  0
    0.0900    1.2020    2.0150 N   0  0  0  0  0  0  0  0  0  0  0  0
   -1.2010    1.4500   -0.0980 C   0  0  0  0  0  0  0  0  0  0  0  0
   -1.5050    2.2940   -1.0130 O   0  0  0  0  0  0  0  0  0  0  0  0
    4.5130    2.5430   -0.1320 H   0  0  0  0  0  0  0  0  0  0  0  0
    4.1000    1.0400    0.7000 H   0  0  0  0  0  0  0  0  0  0  0  0
    1.6670    2.6930   -0.8820 H   0  0  0  0  0  0  0  0  0  0  0  0
    1.9680    4.2160   -0.0730 H   0  0  0  0  0  0  0  0  0  0  0  0
   -0.3370    3.9090    0.0060 H   0  0  0  0  0  0  0  0  0  0  0  0
    0.3340    3.8920    1.6330 H   0  0  0  0  0  0  0  0  0  0  0  0
   -1.3930    2.5230    1.6870 H   0  0  0  0  0  0  0  0  0  0  0  0
   -0.0590    1.4300    3.0580 H   0  0  0  0  0  0  0  0  0  0  0  0
    0.1580   -6.2920   -1.2560 O   0  0  0  0  0  0  0  0  0  0  0  0
   -0.2530   -4.9890   -1.5640 C   0  0  0  0  0  0  0  0  0  0  0  0
   -1.5380   -4.7550   -1.9970 C   0  0  0  0  0  0  0  0  0  0  0  0
   -1.9490   -3.4810   -2.3000 C   0  0  0  0  0  0  0  0  0  0  0  0
   -1.1170   -2.3840   -2.1920 C   0  0  0  0  0  0  0  0  0  0  0  0
   -1.6370   -1.0710   -2.5590 C   0  0  0  0  0  0  0  0  0  0  0  0
   -2.3190   -0.2520   -1.5610 C   0  0  2  0  0  0  0  0  0  0  0  0
   -1.6110    0.1440   -0.3660 N   0  0  0  0  0  0  0  0  0  0  0  0
   -3.6340   -0.8150   -1.2120 C   0  0  0  0  0  0  0  0  0  0  0  0
   -3.9400   -0.9100    0.0250 O   0  0  0  0  0  0  0  0  0  0  0  0
    0.1670   -2.6160   -1.7590 C   0  0  0  0  0  0  0  0  0  0  0  0
    0.5670   -3.8910   -1.4590 C   0  0  0  0  0  0  0  0  0  0  0  0
   -4.5740   -1.2510   -2.1070 O   0  0  0  0  0  0  0  0  0  0  0  0
    0.5850   -6.8030   -2.0110 H   0  0  0  0  0  0  0  0  0  0  0  0
   -2.2090   -5.6030   -2.0890 H   0  0  0  0  0  0  0  0  0  0  0  0
   -2.9850   -3.3830   -2.6410 H   0  0  0  0  0  0  0  0  0  0  0  0
   -2.4010   -1.2480   -3.3810 H   0  0  0  0  0  0  0  0  0  0  0  0
   -0.8200   -0.5580   -3.1230 H   0  0  0  0  0  0  0  0  0  0  0  0
   -2.5860    0.7220   -2.1090 H   0  0  0  0  0  0  0  0  0  0  0  0
   -1.4250   -0.5850    0.3450 H   0  0  0  0  0  0  0  0  0  0  0  0
    0.8320   -1.8020   -1.6680 H   0  0  0  0  0  0  0  0  0  0  0  0
    1.5870   -4.0990   -1.1120 H   0  0  0  0  0  0  0  0  0  0  0  0
  1  9  1  0  0  0  0
  2  1  1  0  0  0  0
  2 11  1  0  0  0  0
  3 14  1  0  0  0  0
  3  2  1  0  0  0  0
  4 15  1  6  0  0  0
  4  2  1  0  0  0  0
  4  5  1  0  0  0  0
  5 17  1  0  0  0  0
  5 16  1  0  0  0  0
  6 24  1  0  0  0  0
  6  4  1  0  0  0  0
  7  6  2  0  0  0  0
  8  1  1  0  0  0  0
 10  1  1  0  0  0  0
 12  3  1  0  0  0  0
 13  3  1  0  0  0  0
 18 28  1  0  0  0  0
 18 19  1  0  0  0  0
 19 20  2  0  0  0  0
 21 22  1  0  0  0  0
 21 19  1  0  0  0  0
 22 23  1  0  0  0  0
 22 32  1  0  0  0  0
 23 33  1  1  0  0  0
 23 24  1  0  0  0  0
 24 34  1  0  0  0  0
 25 23  1  0  0  0  0
 26 25  2  0  0  0  0
 27 18  1  0  0  0  0
 29 21  1  0  0  0  0
 30 21  1  0  0  0  0
 31 22  1  0  0  0  0
 36 46  1  0  0  0  0
 36 35  1  0  0  0  0
 37 36  2  0  0  0  0
 38 39  2  0  0  0  0
 38 37  1  0  0  0  0
 39 45  1  0  0  0  0
 40 39  1  0  0  0  0
 40 41  1  0  0  0  0
 41 53  1  6  0  0  0
 41 43  1  0  0  0  0
 41 42  1  0  0  0  0
 42 25  1  0  0  0  0
 42 54  1  0  0  0  0
 43 44  1  0  0  0  0
 45 55  1  0  0  0  0
 45 46  2  0  0  0  0
 46 56  1  0  0  0  0
 47 43  2  0  0  0  0
 48 35  1  0  0  0  0
 49 37  1  0  0  0  0
 50 38  1  0  0  0  0
 51 40  1  0  0  0  0
 52 40  1  0  0  0  0
M  END
$$$$
