VRG.pdb
 OpenBabel07022419243D

 48 47  0  0  1  0  0  0  0  0999 V2000
   -5.1590   -0.7270   -1.0320 C   0  0  0  0  0  0  0  0  0  0  0  0
   -3.6410   -0.8220   -0.8080 C   0  0  0  0  0  0  0  0  0  0  0  0
   -3.3600   -2.3170   -0.8360 C   0  0  0  0  0  0  0  0  0  0  0  0
   -3.3630   -0.1940    0.5320 C   0  0  2  0  0  0  0  0  0  0  0  0
   -3.8900    1.1910    0.4060 N   0  0  0  0  0  0  0  0  0  0  0  0
   -1.9250   -0.0810    0.8710 C   0  0  0  0  0  0  0  0  0  0  0  0
   -1.4110    1.0700    1.1350 O   0  0  0  0  0  0  0  0  0  0  0  0
   -5.3970   -1.4520   -1.8240 H   0  0  0  0  0  0  0  0  0  0  0  0
   -5.6750   -1.0580   -0.1100 H   0  0  0  0  0  0  0  0  0  0  0  0
   -5.4320    0.2830   -1.3630 H   0  0  0  0  0  0  0  0  0  0  0  0
   -3.1350   -0.3520   -1.6470 H   0  0  0  0  0  0  0  0  0  0  0  0
   -2.4120   -2.5650   -1.2950 H   0  0  0  0  0  0  0  0  0  0  0  0
   -3.4680   -2.7820    0.1650 H   0  0  0  0  0  0  0  0  0  0  0  0
   -4.1440   -2.8400   -1.4580 H   0  0  0  0  0  0  0  0  0  0  0  0
   -3.9360   -0.6910    1.3110 H   0  0  0  0  0  0  0  0  0  0  0  0
   -3.4060    1.7290    1.1560 H   0  0  0  0  0  0  0  0  0  0  0  0
   -3.7220    1.5480   -0.5430 H   0  0  0  0  0  0  0  0  0  0  0  0
    5.5060    1.3520    5.0740 N   0  0  0  0  0  0  0  0  0  0  0  0
    4.4050    1.2280    4.1840 C   0  0  0  0  0  0  0  0  0  0  0  0
    3.7480    2.2910    3.8320 N   0  0  0  0  0  0  0  0  0  0  0  0
    3.9880   -0.0190    3.6590 N   0  0  0  0  0  0  0  0  0  0  0  0
    2.6250   -0.2110    3.2750 C   0  0  0  0  0  0  0  0  0  0  0  0
    2.3550   -1.5970    2.7360 C   0  0  0  0  0  0  0  0  0  0  0  0
    0.9280   -1.7990    2.3340 C   0  0  0  0  0  0  0  0  0  0  0  0
    0.3820   -0.9090    1.3070 C   0  0  2  0  0  0  0  0  0  0  0  0
   -0.9920   -1.1210    0.9490 N   0  0  0  0  0  0  0  0  0  0  0  0
    1.1830   -0.9840    0.0600 C   0  0  0  0  0  0  0  0  0  0  0  0
    2.4460   -0.8590    0.0270 O   0  0  0  0  0  0  0  0  0  0  0  0
    5.3360    1.4310    6.0930 H   0  0  0  0  0  0  0  0  0  0  0  0
    6.4740    1.3650    4.7260 H   0  0  0  0  0  0  0  0  0  0  0  0
    4.0470    3.2030    4.2120 H   0  0  0  0  0  0  0  0  0  0  0  0
    4.6850   -0.7760    3.5610 H   0  0  0  0  0  0  0  0  0  0  0  0
    2.2750    0.5840    2.6240 H   0  0  0  0  0  0  0  0  0  0  0  0
    2.0120   -0.1330    4.2210 H   0  0  0  0  0  0  0  0  0  0  0  0
    3.1100   -1.8080    1.9660 H   0  0  0  0  0  0  0  0  0  0  0  0
    2.5970   -2.3540    3.5540 H   0  0  0  0  0  0  0  0  0  0  0  0
    0.9010   -2.8480    1.8930 H   0  0  0  0  0  0  0  0  0  0  0  0
    0.2580   -1.9320    3.2330 H   0  0  0  0  0  0  0  0  0  0  0  0
    0.5300    0.1640    1.6510 H   0  0  0  0  0  0  0  0  0  0  0  0
   -1.2870   -2.0940    0.7470 H   0  0  0  0  0  0  0  0  0  0  0  0
    0.5760   -1.2040   -1.2150 N   0  0  0  0  0  0  0  0  0  0  0  0
    1.3600   -1.2780   -2.4190 C   0  0  0  0  0  0  0  0  0  0  0  0
    0.4890   -1.5090   -3.5810 C   0  0  0  0  0  0  0  0  0  0  0  0
   -0.7680   -1.6130   -3.4180 O   0  0  0  0  0  0  0  0  0  0  0  0
    0.9550   -1.6250   -4.8760 O   0  0  0  0  0  0  0  0  0  0  0  0
   -0.4540   -1.3060   -1.2600 H   0  0  0  0  0  0  0  0  0  0  0  0
    1.8770   -0.2950   -2.5680 H   0  0  0  0  0  0  0  0  0  0  0  0
    2.1580   -2.0630   -2.3470 H   0  0  0  0  0  0  0  0  0  0  0  0
  1  2  1  0  0  0  0
  1  9  1  0  0  0  0
  2  4  1  0  0  0  0
  3  2  1  0  0  0  0
  3 13  1  0  0  0  0
  4  6  1  0  0  0  0
  4 15  1  1  0  0  0
  5  4  1  0  0  0  0
  5 16  1  0  0  0  0
  6 26  1  0  0  0  0
  6  7  2  0  0  0  0
  8  1  1  0  0  0  0
 10  1  1  0  0  0  0
 11  2  1  0  0  0  0
 12  3  1  0  0  0  0
 14  3  1  0  0  0  0
 17  5  1  0  0  0  0
 18 29  1  0  0  0  0
 19 18  1  0  0  0  0
 20 19  2  0  0  0  0
 20 31  1  0  0  0  0
 21 19  1  0  0  0  0
 22 21  1  0  0  0  0
 22 34  1  0  0  0  0
 23 22  1  0  0  0  0
 23 36  1  0  0  0  0
 24 23  1  0  0  0  0
 24 38  1  0  0  0  0
 25 39  1  1  0  0  0
 25 24  1  0  0  0  0
 26 25  1  0  0  0  0
 27 25  1  0  0  0  0
 28 27  2  0  0  0  0
 30 18  1  0  0  0  0
 32 21  1  0  0  0  0
 33 22  1  0  0  0  0
 35 23  1  0  0  0  0
 37 24  1  0  0  0  0
 40 26  1  0  0  0  0
 41 27  1  0  0  0  0
 42 48  1  0  0  0  0
 42 41  1  0  0  0  0
 43 44  1  0  0  0  0
 43 42  1  0  0  0  0
 45 43  2  0  0  0  0
 46 41  1  0  0  0  0
 47 42  1  0  0  0  0
M  END
$$$$
