VRI.pdb
 OpenBabel07022419243D

 60 59  0  0  1  0  0  0  0  0999 V2000
    3.1480   -2.7800    5.3300 C   0  0  0  0  0  0  0  0  0  0  0  0
    1.8320   -2.4050    4.6900 C   0  0  0  0  0  0  0  0  0  0  0  0
    1.4180   -1.0690    5.1950 C   0  0  0  0  0  0  0  0  0  0  0  0
    2.0000   -2.4850    3.1970 C   0  0  2  0  0  0  0  0  0  0  0  0
    3.0250   -1.5870    2.7220 N   0  0  0  0  0  0  0  0  0  0  0  0
    0.7240   -2.3260    2.4590 C   0  0  0  0  0  0  0  0  0  0  0  0
   -0.2750   -3.0380    2.7580 O   0  0  0  0  0  0  0  0  0  0  0  0
    3.9120   -2.9950    4.5530 H   0  0  0  0  0  0  0  0  0  0  0  0
    3.5150   -1.9560    5.9660 H   0  0  0  0  0  0  0  0  0  0  0  0
    3.0590   -3.6830    5.9830 H   0  0  0  0  0  0  0  0  0  0  0  0
    1.0810   -3.1510    5.0550 H   0  0  0  0  0  0  0  0  0  0  0  0
    1.5180   -1.1030    6.3200 H   0  0  0  0  0  0  0  0  0  0  0  0
    0.3540   -0.8260    5.0070 H   0  0  0  0  0  0  0  0  0  0  0  0
    2.1160   -0.2800    4.8680 H   0  0  0  0  0  0  0  0  0  0  0  0
    2.3520   -3.5170    2.9840 H   0  0  0  0  0  0  0  0  0  0  0  0
    3.6080   -1.2660    3.5260 H   0  0  0  0  0  0  0  0  0  0  0  0
    3.6580   -2.0900    2.0680 H   0  0  0  0  0  0  0  0  0  0  0  0
   -0.8610    2.9010    4.2500 N   0  0  0  0  0  0  0  0  0  0  0  0
   -0.5380    3.0520    2.8580 C   0  0  0  0  0  0  0  0  0  0  0  0
    0.6230    3.4130    2.4640 N   0  0  0  0  0  0  0  0  0  0  0  0
   -1.5860    2.7760    1.9420 N   0  0  0  0  0  0  0  0  0  0  0  0
   -1.2890    2.5190    0.5700 C   0  0  0  0  0  0  0  0  0  0  0  0
   -0.5450    1.1960    0.3630 C   0  0  0  0  0  0  0  0  0  0  0  0
   -1.3850    0.0480    0.8710 C   0  0  0  0  0  0  0  0  0  0  0  0
   -0.7340   -1.2800    0.7080 C   0  0  2  0  0  0  0  0  0  0  0  0
    0.5250   -1.4020    1.4000 N   0  0  0  0  0  0  0  0  0  0  0  0
   -0.6570   -1.7470   -0.7150 C   0  0  0  0  0  0  0  0  0  0  0  0
    0.4620   -2.1540   -1.0760 O   0  0  0  0  0  0  0  0  0  0  0  0
   -1.7340    3.2930    4.6310 H   0  0  0  0  0  0  0  0  0  0  0  0
   -0.2280    2.4020    4.8790 H   0  0  0  0  0  0  0  0  0  0  0  0
    0.8070    3.5070    1.4540 H   0  0  0  0  0  0  0  0  0  0  0  0
   -2.5700    2.7620    2.2800 H   0  0  0  0  0  0  0  0  0  0  0  0
   -0.6700    3.2910    0.0760 H   0  0  0  0  0  0  0  0  0  0  0  0
   -2.2450    2.5010   -0.0240 H   0  0  0  0  0  0  0  0  0  0  0  0
    0.4520    1.2170    0.7930 H   0  0  0  0  0  0  0  0  0  0  0  0
   -0.4550    1.0900   -0.7380 H   0  0  0  0  0  0  0  0  0  0  0  0
   -1.6300    0.1670    1.9520 H   0  0  0  0  0  0  0  0  0  0  0  0
   -2.3610    0.0160    0.3480 H   0  0  0  0  0  0  0  0  0  0  0  0
   -1.4330   -2.0270    1.1890 H   0  0  0  0  0  0  0  0  0  0  0  0
    1.3320   -0.7810    1.1120 H   0  0  0  0  0  0  0  0  0  0  0  0
   -1.0400    0.2740   -4.4300 C   0  0  0  0  0  0  0  0  0  0  0  0
   -0.0240   -0.5740   -3.6690 C   0  0  0  0  0  0  0  0  0  0  0  0
   -0.4800   -1.9910   -3.6520 C   0  0  2  0  0  0  0  0  0  0  0  0
   -0.6120   -2.5060   -5.0910 C   0  0  0  0  0  0  0  0  0  0  0  0
   -1.8010   -2.1320   -2.9430 C   0  0  2  0  0  0  0  0  0  0  0  0
   -1.7450   -1.7320   -1.5770 N   0  0  0  0  0  0  0  0  0  0  0  0
   -2.3520   -3.4930   -3.0690 C   0  0  0  0  0  0  0  0  0  0  0  0
   -2.6830   -4.0990   -2.0090 O   0  0  0  0  0  0  0  0  0  0  0  0
   -2.5110   -4.1110   -4.3100 O   0  0  0  0  0  0  0  0  0  0  0  0
   -1.3550   -0.2860   -5.3100 H   0  0  0  0  0  0  0  0  0  0  0  0
   -0.5440    1.2190   -4.7360 H   0  0  0  0  0  0  0  0  0  0  0  0
   -1.8870    0.5560   -3.7830 H   0  0  0  0  0  0  0  0  0  0  0  0
    0.1500   -0.1500   -2.6920 H   0  0  0  0  0  0  0  0  0  0  0  0
    0.9350   -0.4520   -4.2460 H   0  0  0  0  0  0  0  0  0  0  0  0
    0.2540   -2.6470   -3.1930 H   0  0  0  0  0  0  0  0  0  0  0  0
    0.1940   -2.0040   -5.6620 H   0  0  0  0  0  0  0  0  0  0  0  0
   -1.6190   -2.2930   -5.4520 H   0  0  0  0  0  0  0  0  0  0  0  0
   -0.3930   -3.5920   -5.1420 H   0  0  0  0  0  0  0  0  0  0  0  0
   -2.5100   -1.3590   -3.4610 H   0  0  0  0  0  0  0  0  0  0  0  0
   -2.6500   -1.3690   -1.1320 H   0  0  0  0  0  0  0  0  0  0  0  0
  1  9  1  0  0  0  0
  1 10  1  0  0  0  0
  2 11  1  0  0  0  0
  2  3  1  0  0  0  0
  2  1  1  0  0  0  0
  3 12  1  0  0  0  0
  4 15  1  6  0  0  0
  4  2  1  0  0  0  0
  5  4  1  0  0  0  0
  5 16  1  0  0  0  0
  6  7  2  0  0  0  0
  6  4  1  0  0  0  0
  8  1  1  0  0  0  0
 13  3  1  0  0  0  0
 14  3  1  0  0  0  0
 17  5  1  0  0  0  0
 18 29  1  0  0  0  0
 18 30  1  0  0  0  0
 19 18  1  0  0  0  0
 20 19  2  0  0  0  0
 21 32  1  0  0  0  0
 21 19  1  0  0  0  0
 22 21  1  0  0  0  0
 23 22  1  0  0  0  0
 23 35  1  0  0  0  0
 23 24  1  0  0  0  0
 24 37  1  0  0  0  0
 25 24  1  0  0  0  0
 25 39  1  1  0  0  0
 25 26  1  0  0  0  0
 26  6  1  0  0  0  0
 27 25  1  0  0  0  0
 28 27  2  0  0  0  0
 31 20  1  0  0  0  0
 33 22  1  0  0  0  0
 34 22  1  0  0  0  0
 36 23  1  0  0  0  0
 38 24  1  0  0  0  0
 40 26  1  0  0  0  0
 41 52  1  0  0  0  0
 41 42  1  0  0  0  0
 42 43  1  0  0  0  0
 42 53  1  0  0  0  0
 43 55  1  1  0  0  0
 43 45  1  0  0  0  0
 44 43  1  0  0  0  0
 45 59  1  6  0  0  0
 45 46  1  0  0  0  0
 46 60  1  0  0  0  0
 46 27  1  0  0  0  0
 47 45  1  0  0  0  0
 47 48  1  0  0  0  0
 49 47  2  0  0  0  0
 50 41  1  0  0  0  0
 51 41  1  0  0  0  0
 54 42  1  0  0  0  0
 56 44  1  0  0  0  0
 57 44  1  0  0  0  0
 58 44  1  0  0  0  0
M  END
$$$$
