VRM.pdb
 OpenBabel07022419243D

 58 57  0  0  1  0  0  0  0  0999 V2000
    2.9460   -1.3840    4.1790 C   0  0  0  0  0  0  0  0  0  0  0  0
    3.2740   -2.6780    3.4910 C   0  0  0  0  0  0  0  0  0  0  0  0
    2.3780   -3.7720    4.0260 C   0  0  0  0  0  0  0  0  0  0  0  0
    3.0240   -2.5260    2.0220 C   0  0  2  0  0  0  0  0  0  0  0  0
    3.8090   -1.4900    1.3940 N   0  0  0  0  0  0  0  0  0  0  0  0
    1.5890   -2.3660    1.7200 C   0  0  0  0  0  0  0  0  0  0  0  0
    0.7090   -3.1200    2.1900 O   0  0  0  0  0  0  0  0  0  0  0  0
    3.1040   -1.4890    5.2820 H   0  0  0  0  0  0  0  0  0  0  0  0
    3.6380   -0.5860    3.7870 H   0  0  0  0  0  0  0  0  0  0  0  0
    1.8870   -1.1470    3.9960 H   0  0  0  0  0  0  0  0  0  0  0  0
    4.3410   -2.9830    3.6750 H   0  0  0  0  0  0  0  0  0  0  0  0
    2.8610   -4.2280    4.9250 H   0  0  0  0  0  0  0  0  0  0  0  0
    2.2020   -4.5850    3.3060 H   0  0  0  0  0  0  0  0  0  0  0  0
    1.4380   -3.3070    4.4020 H   0  0  0  0  0  0  0  0  0  0  0  0
    3.3660   -3.4830    1.5510 H   0  0  0  0  0  0  0  0  0  0  0  0
    4.0360   -1.7720    0.3950 H   0  0  0  0  0  0  0  0  0  0  0  0
    4.6940   -1.3720    1.9390 H   0  0  0  0  0  0  0  0  0  0  0  0
    2.3090    1.9000    4.8740 N   0  0  0  0  0  0  0  0  0  0  0  0
    2.2370    1.9090    3.4640 C   0  0  0  0  0  0  0  0  0  0  0  0
    3.2520    2.2220    2.7670 N   0  0  0  0  0  0  0  0  0  0  0  0
    1.0230    1.5670    2.8090 N   0  0  0  0  0  0  0  0  0  0  0  0
    0.8310    1.8030    1.3840 C   0  0  0  0  0  0  0  0  0  0  0  0
   -0.5430    1.3680    0.9820 C   0  0  0  0  0  0  0  0  0  0  0  0
   -0.9350   -0.0210    1.1990 C   0  0  0  0  0  0  0  0  0  0  0  0
   -0.2630   -1.1520    0.5470 C   0  0  2  0  0  0  0  0  0  0  0  0
    1.1220   -1.3100    0.8480 N   0  0  0  0  0  0  0  0  0  0  0  0
   -0.4250   -1.1660   -0.9390 C   0  0  0  0  0  0  0  0  0  0  0  0
    0.5970   -1.3130   -1.6460 O   0  0  0  0  0  0  0  0  0  0  0  0
    1.7090    2.5310    5.4510 H   0  0  0  0  0  0  0  0  0  0  0  0
    2.9620    1.2630    5.3650 H   0  0  0  0  0  0  0  0  0  0  0  0
    3.2650    2.2490    1.7350 H   0  0  0  0  0  0  0  0  0  0  0  0
    0.2620    1.1430    3.3580 H   0  0  0  0  0  0  0  0  0  0  0  0
    1.6530    1.4590    0.7710 H   0  0  0  0  0  0  0  0  0  0  0  0
    0.8290    2.9610    1.3360 H   0  0  0  0  0  0  0  0  0  0  0  0
   -1.2400    2.0090    1.6300 H   0  0  0  0  0  0  0  0  0  0  0  0
   -0.8010    1.7550   -0.0480 H   0  0  0  0  0  0  0  0  0  0  0  0
   -0.8630   -0.1960    2.3350 H   0  0  0  0  0  0  0  0  0  0  0  0
   -2.0770   -0.1310    1.0770 H   0  0  0  0  0  0  0  0  0  0  0  0
   -0.8000   -2.0850    0.9730 H   0  0  0  0  0  0  0  0  0  0  0  0
    1.8790   -0.7220    0.4630 H   0  0  0  0  0  0  0  0  0  0  0  0
   -5.5640   -0.7030   -4.9920 C   0  0  0  0  0  0  0  0  0  0  0  0
   -5.0880   -0.8660   -3.2780 S   0  0  0  0  0  0  0  0  0  0  0  0
   -4.0280   -2.2500   -2.9230 C   0  0  0  0  0  0  0  0  0  0  0  0
   -2.6550   -2.2000   -3.4980 C   0  0  0  0  0  0  0  0  0  0  0  0
   -1.8460   -1.0350   -3.0300 C   0  0  2  0  0  0  0  0  0  0  0  0
   -1.6690   -1.0230   -1.5910 N   0  0  0  0  0  0  0  0  0  0  0  0
   -2.3420    0.2150   -3.5810 C   0  0  0  0  0  0  0  0  0  0  0  0
   -2.5180    0.3370   -4.8150 O   0  0  0  0  0  0  0  0  0  0  0  0
   -2.6320    1.2990   -2.7740 O   0  0  0  0  0  0  0  0  0  0  0  0
   -5.2340    0.3230   -5.3310 H   0  0  0  0  0  0  0  0  0  0  0  0
   -5.0770   -1.4110   -5.6800 H   0  0  0  0  0  0  0  0  0  0  0  0
   -6.6730   -0.6880   -5.1470 H   0  0  0  0  0  0  0  0  0  0  0  0
   -4.5420   -3.2110   -3.1850 H   0  0  0  0  0  0  0  0  0  0  0  0
   -3.9060   -2.2940   -1.8000 H   0  0  0  0  0  0  0  0  0  0  0  0
   -2.1340   -3.1350   -3.1570 H   0  0  0  0  0  0  0  0  0  0  0  0
   -2.6300   -2.2480   -4.6030 H   0  0  0  0  0  0  0  0  0  0  0  0
   -0.8020   -1.2010   -3.4400 H   0  0  0  0  0  0  0  0  0  0  0  0
   -2.5140   -0.9010   -1.0100 H   0  0  0  0  0  0  0  0  0  0  0  0
  1  8  1  0  0  0  0
  2 11  1  0  0  0  0
  2  3  1  0  0  0  0
  2  1  1  0  0  0  0
  3 14  1  0  0  0  0
  3 12  1  0  0  0  0
  4 15  1  6  0  0  0
  4  2  1  0  0  0  0
  5 17  1  0  0  0  0
  5  4  1  0  0  0  0
  6  4  1  0  0  0  0
  6  7  2  0  0  0  0
  9  1  1  0  0  0  0
 10  1  1  0  0  0  0
 13  3  1  0  0  0  0
 16  5  1  0  0  0  0
 18 30  1  0  0  0  0
 18 29  1  0  0  0  0
 19 18  1  0  0  0  0
 20 19  2  0  0  0  0
 21 32  1  0  0  0  0
 21 19  1  0  0  0  0
 22 21  1  0  0  0  0
 23 24  1  0  0  0  0
 23 22  1  0  0  0  0
 23 35  1  0  0  0  0
 24 37  1  0  0  0  0
 25 26  1  0  0  0  0
 25 39  1  1  0  0  0
 25 24  1  0  0  0  0
 26  6  1  0  0  0  0
 27 25  1  0  0  0  0
 28 27  2  0  0  0  0
 31 20  1  0  0  0  0
 33 22  1  0  0  0  0
 34 22  1  0  0  0  0
 36 23  1  0  0  0  0
 38 24  1  0  0  0  0
 40 26  1  0  0  0  0
 41 42  1  0  0  0  0
 42 43  1  0  0  0  0
 43 54  1  0  0  0  0
 44 55  1  0  0  0  0
 44 45  1  0  0  0  0
 44 43  1  0  0  0  0
 45 57  1  6  0  0  0
 45 46  1  0  0  0  0
 46 58  1  0  0  0  0
 46 27  1  0  0  0  0
 47 45  1  0  0  0  0
 47 49  1  0  0  0  0
 48 47  2  0  0  0  0
 50 41  1  0  0  0  0
 51 41  1  0  0  0  0
 52 41  1  0  0  0  0
 53 43  1  0  0  0  0
 56 44  1  0  0  0  0
M  END
$$$$
