VRQ.pdb
 OpenBabel07022419243D

 58 57  0  0  1  0  0  0  0  0999 V2000
    2.3280   -2.6180    2.5690 C   0  0  0  0  0  0  0  0  0  0  0  0
    2.8760   -1.3200    3.1160 C   0  0  0  0  0  0  0  0  0  0  0  0
    2.4360   -1.0730    4.5360 C   0  0  0  0  0  0  0  0  0  0  0  0
    2.6900   -0.1520    2.2030 C   0  0  2  0  0  0  0  0  0  0  0  0
    3.2900    1.0090    2.9100 N   0  0  0  0  0  0  0  0  0  0  0  0
    1.3240    0.2020    1.8420 C   0  0  0  0  0  0  0  0  0  0  0  0
    0.8030    1.2150    2.3850 O   0  0  0  0  0  0  0  0  0  0  0  0
    2.7840   -3.4970    3.1300 H   0  0  0  0  0  0  0  0  0  0  0  0
    2.6840   -2.7590    1.5300 H   0  0  0  0  0  0  0  0  0  0  0  0
    1.2480   -2.7250    2.7250 H   0  0  0  0  0  0  0  0  0  0  0  0
    3.9940   -1.4930    3.1700 H   0  0  0  0  0  0  0  0  0  0  0  0
    1.7990   -0.1870    4.6670 H   0  0  0  0  0  0  0  0  0  0  0  0
    1.9160   -1.9970    4.9210 H   0  0  0  0  0  0  0  0  0  0  0  0
    3.3030   -0.9310    5.2310 H   0  0  0  0  0  0  0  0  0  0  0  0
    3.3390   -0.2900    1.3170 H   0  0  0  0  0  0  0  0  0  0  0  0
    4.1300    0.6490    3.4030 H   0  0  0  0  0  0  0  0  0  0  0  0
    2.6080    1.3470    3.6220 H   0  0  0  0  0  0  0  0  0  0  0  0
    2.3930    4.9870   -1.5490 N   0  0  0  0  0  0  0  0  0  0  0  0
    1.6720    3.8900   -2.1150 C   0  0  0  0  0  0  0  0  0  0  0  0
    2.3150    2.8940   -2.6660 N   0  0  0  0  0  0  0  0  0  0  0  0
    0.2610    3.8290   -2.1120 N   0  0  0  0  0  0  0  0  0  0  0  0
   -0.4850    2.5910   -2.1160 C   0  0  0  0  0  0  0  0  0  0  0  0
   -0.2510    1.9180   -0.7650 C   0  0  0  0  0  0  0  0  0  0  0  0
   -1.0250    0.6120   -0.7240 C   0  0  0  0  0  0  0  0  0  0  0  0
   -0.8390   -0.1070    0.5850 C   0  0  2  0  0  0  0  0  0  0  0  0
    0.4750   -0.4710    0.9190 N   0  0  0  0  0  0  0  0  0  0  0  0
   -1.7800   -1.2150    0.6440 C   0  0  0  0  0  0  0  0  0  0  0  0
   -3.0150   -0.9600    0.4500 O   0  0  0  0  0  0  0  0  0  0  0  0
    3.1680    4.7460   -0.8960 H   0  0  0  0  0  0  0  0  0  0  0  0
    2.1230    5.9440   -1.8050 H   0  0  0  0  0  0  0  0  0  0  0  0
    3.3360    2.8850   -2.6990 H   0  0  0  0  0  0  0  0  0  0  0  0
   -0.2830    4.7290   -2.1060 H   0  0  0  0  0  0  0  0  0  0  0  0
   -0.1350    1.9090   -2.9240 H   0  0  0  0  0  0  0  0  0  0  0  0
   -1.5480    2.7700   -2.3030 H   0  0  0  0  0  0  0  0  0  0  0  0
    0.8150    1.8070   -0.5490 H   0  0  0  0  0  0  0  0  0  0  0  0
   -0.6560    2.6480   -0.0170 H   0  0  0  0  0  0  0  0  0  0  0  0
   -0.8670    0.0040   -1.6200 H   0  0  0  0  0  0  0  0  0  0  0  0
   -2.1020    0.8950   -0.7510 H   0  0  0  0  0  0  0  0  0  0  0  0
   -1.1640    0.6670    1.3480 H   0  0  0  0  0  0  0  0  0  0  0  0
    0.8770   -1.3040    0.4540 H   0  0  0  0  0  0  0  0  0  0  0  0
   -3.3800   -2.8760   -3.2390 N   0  0  0  0  0  0  0  0  0  0  0  0
   -3.3360   -3.5070   -1.9420 C   0  0  0  0  0  0  0  0  0  0  0  0
   -4.3720   -3.5420   -1.2340 O   0  0  0  0  0  0  0  0  0  0  0  0
   -2.0580   -4.0980   -1.4890 C   0  0  0  0  0  0  0  0  0  0  0  0
   -2.0640   -4.6410   -0.1070 C   0  0  0  0  0  0  0  0  0  0  0  0
   -2.3670   -3.6080    0.9470 C   0  0  2  0  0  0  0  0  0  0  0  0
   -1.3660   -2.5320    0.9020 N   0  0  0  0  0  0  0  0  0  0  0  0
   -2.2920   -4.2030    2.3040 C   0  0  0  0  0  0  0  0  0  0  0  0
   -1.5060   -3.8110    3.1880 O   0  0  0  0  0  0  0  0  0  0  0  0
   -3.1350   -5.2670    2.6520 O   0  0  0  0  0  0  0  0  0  0  0  0
   -3.9130   -1.9880   -3.3300 H   0  0  0  0  0  0  0  0  0  0  0  0
   -2.8900   -3.3000   -4.0590 H   0  0  0  0  0  0  0  0  0  0  0  0
   -1.7500   -4.9270   -2.1770 H   0  0  0  0  0  0  0  0  0  0  0  0
   -1.2780   -3.3000   -1.5720 H   0  0  0  0  0  0  0  0  0  0  0  0
   -1.0680   -5.1090    0.0960 H   0  0  0  0  0  0  0  0  0  0  0  0
   -2.8730   -5.4230   -0.0300 H   0  0  0  0  0  0  0  0  0  0  0  0
   -3.3630   -3.1670    0.8030 H   0  0  0  0  0  0  0  0  0  0  0  0
   -0.3740   -2.7590    1.0510 H   0  0  0  0  0  0  0  0  0  0  0  0
  1 10  1  0  0  0  0
  1  2  1  0  0  0  0
  1  8  1  0  0  0  0
  2 11  1  0  0  0  0
  2  3  1  0  0  0  0
  3 12  1  0  0  0  0
  3 13  1  0  0  0  0
  3 14  1  0  0  0  0
  4 15  1  6  0  0  0
  4  5  1  0  0  0  0
  4  2  1  0  0  0  0
  5 16  1  0  0  0  0
  5 17  1  0  0  0  0
  6  4  1  0  0  0  0
  6  7  2  0  0  0  0
  9  1  1  0  0  0  0
 18 29  1  0  0  0  0
 19 21  1  0  0  0  0
 19 18  1  0  0  0  0
 20 19  2  0  0  0  0
 21 32  1  0  0  0  0
 22 21  1  0  0  0  0
 22 23  1  0  0  0  0
 23 24  1  0  0  0  0
 23 35  1  0  0  0  0
 23 36  1  0  0  0  0
 24 25  1  0  0  0  0
 25 27  1  0  0  0  0
 25 26  1  0  0  0  0
 25 39  1  1  0  0  0
 26  6  1  0  0  0  0
 27 47  1  0  0  0  0
 28 27  2  0  0  0  0
 30 18  1  0  0  0  0
 31 20  1  0  0  0  0
 33 22  1  0  0  0  0
 34 22  1  0  0  0  0
 37 24  1  0  0  0  0
 38 24  1  0  0  0  0
 40 26  1  0  0  0  0
 41 42  1  0  0  0  0
 42 44  1  0  0  0  0
 42 43  2  0  0  0  0
 44 45  1  0  0  0  0
 45 56  1  0  0  0  0
 45 55  1  0  0  0  0
 45 46  1  0  0  0  0
 46 57  1  6  0  0  0
 46 48  1  0  0  0  0
 47 46  1  0  0  0  0
 47 58  1  0  0  0  0
 48 50  2  0  0  0  0
 48 49  1  0  0  0  0
 51 41  1  0  0  0  0
 52 41  1  0  0  0  0
 53 44  1  0  0  0  0
 54 44  1  0  0  0  0
M  END
$$$$
