VRT.pdb
 OpenBabel07022419243D

 55 54  0  0  1  0  0  0  0  0999 V2000
    3.3990   -3.1070    3.6010 C   0  0  0  0  0  0  0  0  0  0  0  0
    2.0680   -2.4410    3.4100 C   0  0  0  0  0  0  0  0  0  0  0  0
    2.1140   -0.9490    3.5500 C   0  0  0  0  0  0  0  0  0  0  0  0
    1.4270   -2.7850    2.0750 C   0  0  2  0  0  0  0  0  0  0  0  0
    2.2480   -2.3810    0.9750 N   0  0  0  0  0  0  0  0  0  0  0  0
    0.1050   -2.0850    2.0600 C   0  0  0  0  0  0  0  0  0  0  0  0
   -0.7180   -2.3280    2.9800 O   0  0  0  0  0  0  0  0  0  0  0  0
    3.3710   -4.0890    3.1230 H   0  0  0  0  0  0  0  0  0  0  0  0
    4.2580   -2.4920    3.2610 H   0  0  0  0  0  0  0  0  0  0  0  0
    3.5360   -3.2530    4.7040 H   0  0  0  0  0  0  0  0  0  0  0  0
    1.3750   -2.8700    4.1930 H   0  0  0  0  0  0  0  0  0  0  0  0
    1.1140   -0.5870    3.9280 H   0  0  0  0  0  0  0  0  0  0  0  0
    2.3060   -0.4070    2.6130 H   0  0  0  0  0  0  0  0  0  0  0  0
    2.8530   -0.6410    4.3250 H   0  0  0  0  0  0  0  0  0  0  0  0
    1.2580   -3.9000    2.0150 H   0  0  0  0  0  0  0  0  0  0  0  0
    2.4130   -3.1030    0.2660 H   0  0  0  0  0  0  0  0  0  0  0  0
    3.0700   -1.8180    1.2320 H   0  0  0  0  0  0  0  0  0  0  0  0
    2.2770    3.1370    2.8910 N   0  0  0  0  0  0  0  0  0  0  0  0
    1.6200    3.0080    1.6450 C   0  0  0  0  0  0  0  0  0  0  0  0
    2.2800    2.5950    0.6300 N   0  0  0  0  0  0  0  0  0  0  0  0
    0.2290    3.3280    1.4900 N   0  0  0  0  0  0  0  0  0  0  0  0
   -0.4560    3.0740    0.2240 C   0  0  0  0  0  0  0  0  0  0  0  0
   -0.5730    1.5620   -0.0050 C   0  0  0  0  0  0  0  0  0  0  0  0
   -1.3730    1.0130    1.1530 C   0  0  0  0  0  0  0  0  0  0  0  0
   -1.5590   -0.4820    1.0540 C   0  0  2  0  0  0  0  0  0  0  0  0
   -0.2650   -1.1560    1.0530 N   0  0  0  0  0  0  0  0  0  0  0  0
   -2.3450   -0.8580   -0.1520 C   0  0  0  0  0  0  0  0  0  0  0  0
   -3.4880   -0.3550   -0.2800 O   0  0  0  0  0  0  0  0  0  0  0  0
    2.8840    2.3660    3.2270 H   0  0  0  0  0  0  0  0  0  0  0  0
    2.1740    3.9780    3.4870 H   0  0  0  0  0  0  0  0  0  0  0  0
    3.2710    2.3580    0.7080 H   0  0  0  0  0  0  0  0  0  0  0  0
   -0.2650    3.7390    2.2890 H   0  0  0  0  0  0  0  0  0  0  0  0
    0.1130    3.5650   -0.6010 H   0  0  0  0  0  0  0  0  0  0  0  0
   -1.4820    3.4920    0.2590 H   0  0  0  0  0  0  0  0  0  0  0  0
    0.4320    1.1530   -0.0750 H   0  0  0  0  0  0  0  0  0  0  0  0
   -1.1260    1.3960   -0.9390 H   0  0  0  0  0  0  0  0  0  0  0  0
   -2.3790    1.4790    1.1010 H   0  0  0  0  0  0  0  0  0  0  0  0
   -0.9000    1.2270    2.1250 H   0  0  0  0  0  0  0  0  0  0  0  0
   -2.1680   -0.7900    1.9290 H   0  0  0  0  0  0  0  0  0  0  0  0
    0.4200   -0.9640    0.2980 H   0  0  0  0  0  0  0  0  0  0  0  0
   -2.8000   -2.0450   -4.7680 C   0  0  0  0  0  0  0  0  0  0  0  0
   -1.9120   -1.6870   -3.5920 C   0  0  1  0  0  0  0  0  0  0  0  0
   -1.7540   -0.3040   -3.5990 O   0  0  0  0  0  0  0  0  0  0  0  0
   -2.6280   -2.1200   -2.3310 C   0  0  2  0  0  0  0  0  0  0  0  0
   -1.8750   -1.7380   -1.1420 N   0  0  0  0  0  0  0  0  0  0  0  0
   -2.8440   -3.5830   -2.3220 C   0  0  0  0  0  0  0  0  0  0  0  0
   -3.4760   -4.1320   -3.2640 O   0  0  0  0  0  0  0  0  0  0  0  0
   -2.3740   -4.3970   -1.3010 O   0  0  0  0  0  0  0  0  0  0  0  0
   -2.4430   -2.9620   -5.3000 H   0  0  0  0  0  0  0  0  0  0  0  0
   -2.7460   -1.2250   -5.5410 H   0  0  0  0  0  0  0  0  0  0  0  0
   -3.8480   -2.1390   -4.4290 H   0  0  0  0  0  0  0  0  0  0  0  0
   -0.9090   -2.1310   -3.7000 H   0  0  0  0  0  0  0  0  0  0  0  0
   -2.6450    0.1670   -3.6110 H   0  0  0  0  0  0  0  0  0  0  0  0
   -3.6250   -1.6380   -2.3540 H   0  0  0  0  0  0  0  0  0  0  0  0
   -0.9150   -2.1390   -1.0010 H   0  0  0  0  0  0  0  0  0  0  0  0
  1 10  1  0  0  0  0
  2  3  1  0  0  0  0
  2  1  1  0  0  0  0
  2 11  1  0  0  0  0
  3 12  1  0  0  0  0
  3 14  1  0  0  0  0
  4 15  1  6  0  0  0
  4  2  1  0  0  0  0
  5 17  1  0  0  0  0
  5  4  1  0  0  0  0
  6  4  1  0  0  0  0
  6  7  2  0  0  0  0
  8  1  1  0  0  0  0
  9  1  1  0  0  0  0
 13  3  1  0  0  0  0
 16  5  1  0  0  0  0
 18 29  1  0  0  0  0
 18 30  1  0  0  0  0
 19 18  1  0  0  0  0
 20 31  1  0  0  0  0
 20 19  2  0  0  0  0
 21 19  1  0  0  0  0
 21 32  1  0  0  0  0
 22 34  1  0  0  0  0
 22 21  1  0  0  0  0
 23 22  1  0  0  0  0
 23 24  1  0  0  0  0
 24 38  1  0  0  0  0
 25 24  1  0  0  0  0
 25 39  1  1  0  0  0
 26 25  1  0  0  0  0
 26  6  1  0  0  0  0
 27 25  1  0  0  0  0
 28 27  2  0  0  0  0
 33 22  1  0  0  0  0
 35 23  1  0  0  0  0
 36 23  1  0  0  0  0
 37 24  1  0  0  0  0
 40 26  1  0  0  0  0
 41 51  1  0  0  0  0
 41 42  1  0  0  0  0
 42 52  1  6  0  0  0
 42 44  1  0  0  0  0
 43 42  1  0  0  0  0
 44 54  1  1  0  0  0
 44 46  1  0  0  0  0
 44 45  1  0  0  0  0
 45 55  1  0  0  0  0
 45 27  1  0  0  0  0
 46 48  1  0  0  0  0
 47 46  2  0  0  0  0
 49 41  1  0  0  0  0
 50 41  1  0  0  0  0
 53 43  1  0  0  0  0
M  END
$$$$
