VRV.pdb
 OpenBabel07022419243D

 57 56  0  0  1  0  0  0  0  0999 V2000
    3.2000   -2.2550    4.0340 C   0  0  0  0  0  0  0  0  0  0  0  0
    1.8230   -1.7420    3.7280 C   0  0  0  0  0  0  0  0  0  0  0  0
    1.7510   -0.2450    3.7620 C   0  0  0  0  0  0  0  0  0  0  0  0
    1.2930   -2.2560    2.4050 C   0  0  2  0  0  0  0  0  0  0  0  0
    2.1170   -1.8780    1.2760 N   0  0  0  0  0  0  0  0  0  0  0  0
   -0.0580   -1.6870    2.2380 C   0  0  0  0  0  0  0  0  0  0  0  0
   -0.8860   -1.8270    3.1610 O   0  0  0  0  0  0  0  0  0  0  0  0
    3.1450   -2.8680    4.9560 H   0  0  0  0  0  0  0  0  0  0  0  0
    3.6300   -2.8850    3.2310 H   0  0  0  0  0  0  0  0  0  0  0  0
    3.8490   -1.3790    4.2520 H   0  0  0  0  0  0  0  0  0  0  0  0
    1.0850   -2.1050    4.5030 H   0  0  0  0  0  0  0  0  0  0  0  0
    2.7080    0.2280    3.4340 H   0  0  0  0  0  0  0  0  0  0  0  0
    0.9470    0.1640    3.1370 H   0  0  0  0  0  0  0  0  0  0  0  0
    1.5760    0.0700    4.8170 H   0  0  0  0  0  0  0  0  0  0  0  0
    1.1890   -3.3690    2.4190 H   0  0  0  0  0  0  0  0  0  0  0  0
    3.1170   -2.0380    1.4380 H   0  0  0  0  0  0  0  0  0  0  0  0
    1.8140   -2.5020    0.4780 H   0  0  0  0  0  0  0  0  0  0  0  0
    2.5520    3.0970    2.7450 N   0  0  0  0  0  0  0  0  0  0  0  0
    2.0610    2.3770    1.6130 C   0  0  0  0  0  0  0  0  0  0  0  0
    2.8760    1.8020    0.8160 N   0  0  0  0  0  0  0  0  0  0  0  0
    0.6580    2.2890    1.3580 N   0  0  0  0  0  0  0  0  0  0  0  0
    0.1460    1.9590    0.0330 C   0  0  0  0  0  0  0  0  0  0  0  0
   -1.3420    1.9480    0.0490 C   0  0  0  0  0  0  0  0  0  0  0  0
   -1.9670    1.0290    0.9980 C   0  0  0  0  0  0  0  0  0  0  0  0
   -1.7930   -0.4380    0.9210 C   0  0  2  0  0  0  0  0  0  0  0  0
   -0.4930   -0.9720    1.0620 N   0  0  0  0  0  0  0  0  0  0  0  0
   -2.5070   -0.9720   -0.2880 C   0  0  0  0  0  0  0  0  0  0  0  0
   -3.6610   -0.5640   -0.5050 O   0  0  0  0  0  0  0  0  0  0  0  0
    3.3430    2.7020    3.2960 H   0  0  0  0  0  0  0  0  0  0  0  0
    2.1450    4.0200    3.0490 H   0  0  0  0  0  0  0  0  0  0  0  0
    3.9040    1.8250    0.9400 H   0  0  0  0  0  0  0  0  0  0  0  0
   -0.0110    2.4640    2.1390 H   0  0  0  0  0  0  0  0  0  0  0  0
    0.5840    1.0750   -0.3930 H   0  0  0  0  0  0  0  0  0  0  0  0
    0.4730    2.8680   -0.6040 H   0  0  0  0  0  0  0  0  0  0  0  0
   -1.7400    1.8230   -1.0040 H   0  0  0  0  0  0  0  0  0  0  0  0
   -1.6800    3.0100    0.3260 H   0  0  0  0  0  0  0  0  0  0  0  0
   -3.1060    1.1890    1.0230 H   0  0  0  0  0  0  0  0  0  0  0  0
   -1.7080    1.3040    2.0780 H   0  0  0  0  0  0  0  0  0  0  0  0
   -2.4760   -0.8310    1.7750 H   0  0  0  0  0  0  0  0  0  0  0  0
    0.2450   -0.9300    0.3370 H   0  0  0  0  0  0  0  0  0  0  0  0
   -0.2750   -2.5620   -3.4770 C   0  0  0  0  0  0  0  0  0  0  0  0
   -1.6900   -2.0670   -3.5060 C   0  0  0  0  0  0  0  0  0  0  0  0
   -1.6830   -0.5510   -3.5820 C   0  0  0  0  0  0  0  0  0  0  0  0
   -2.4760   -2.4570   -2.2940 C   0  0  2  0  0  0  0  0  0  0  0  0
   -1.8340   -1.9010   -1.1040 N   0  0  0  0  0  0  0  0  0  0  0  0
   -2.6410   -3.9280   -2.1680 C   0  0  0  0  0  0  0  0  0  0  0  0
   -2.2330   -4.4880   -1.1100 O   0  0  0  0  0  0  0  0  0  0  0  0
   -3.2130   -4.7110   -3.1350 O   0  0  0  0  0  0  0  0  0  0  0  0
   -0.1440   -3.2810   -4.3150 H   0  0  0  0  0  0  0  0  0  0  0  0
    0.4680   -1.7550   -3.6420 H   0  0  0  0  0  0  0  0  0  0  0  0
    0.0050   -3.0810   -2.5600 H   0  0  0  0  0  0  0  0  0  0  0  0
   -2.2430   -2.4180   -4.4030 H   0  0  0  0  0  0  0  0  0  0  0  0
   -2.6730   -0.1550   -3.2220 H   0  0  0  0  0  0  0  0  0  0  0  0
   -0.9170   -0.1920   -2.8650 H   0  0  0  0  0  0  0  0  0  0  0  0
   -1.4660   -0.2080   -4.6040 H   0  0  0  0  0  0  0  0  0  0  0  0
   -3.4910   -2.0190   -2.3800 H   0  0  0  0  0  0  0  0  0  0  0  0
   -0.8680   -2.1770   -0.8320 H   0  0  0  0  0  0  0  0  0  0  0  0
  1 10  1  0  0  0  0
  1  8  1  0  0  0  0
  2  3  1  0  0  0  0
  2  1  1  0  0  0  0
  2 11  1  0  0  0  0
  3 14  1  0  0  0  0
  4 15  1  1  0  0  0
  4  2  1  0  0  0  0
  5 16  1  0  0  0  0
  5  4  1  0  0  0  0
  6  4  1  0  0  0  0
  6  7  2  0  0  0  0
  9  1  1  0  0  0  0
 12  3  1  0  0  0  0
 13  3  1  0  0  0  0
 17  5  1  0  0  0  0
 18 30  1  0  0  0  0
 18 29  1  0  0  0  0
 19 18  1  0  0  0  0
 20 31  1  0  0  0  0
 20 19  2  0  0  0  0
 21 19  1  0  0  0  0
 21 32  1  0  0  0  0
 22 23  1  0  0  0  0
 22 21  1  0  0  0  0
 23 36  1  0  0  0  0
 23 24  1  0  0  0  0
 24 37  1  0  0  0  0
 24 38  1  0  0  0  0
 25 24  1  0  0  0  0
 25 26  1  0  0  0  0
 25 39  1  1  0  0  0
 26  6  1  0  0  0  0
 27 25  1  0  0  0  0
 28 27  2  0  0  0  0
 33 22  1  0  0  0  0
 34 22  1  0  0  0  0
 35 23  1  0  0  0  0
 40 26  1  0  0  0  0
 41 51  1  0  0  0  0
 42 41  1  0  0  0  0
 42 44  1  0  0  0  0
 43 42  1  0  0  0  0
 43 53  1  0  0  0  0
 43 54  1  0  0  0  0
 44 56  1  6  0  0  0
 44 46  1  0  0  0  0
 44 45  1  0  0  0  0
 45 57  1  0  0  0  0
 45 27  1  0  0  0  0
 46 47  1  0  0  0  0
 48 46  2  0  0  0  0
 49 41  1  0  0  0  0
 50 41  1  0  0  0  0
 52 42  1  0  0  0  0
 55 43  1  0  0  0  0
M  END
$$$$
