VSA.pdb
 OpenBabel07022419273D

 39 38  0  0  1  0  0  0  0  0999 V2000
   -1.5660   -3.7450    1.3220 C   0  0  0  0  0  0  0  0  0  0  0  0
   -0.3060   -3.9910    0.5590 C   0  0  0  0  0  0  0  0  0  0  0  0
    0.5100   -5.1050    1.1750 C   0  0  0  0  0  0  0  0  0  0  0  0
    0.5900   -2.7660    0.5130 C   0  0  2  0  0  0  0  0  0  0  0  0
    0.9850   -2.3340    1.8230 N   0  0  0  0  0  0  0  0  0  0  0  0
   -0.2030   -1.6880   -0.1370 C   0  0  0  0  0  0  0  0  0  0  0  0
   -0.6760   -1.8140   -1.3070 O   0  0  0  0  0  0  0  0  0  0  0  0
   -2.1250   -2.9080    0.8800 H   0  0  0  0  0  0  0  0  0  0  0  0
   -2.2040   -4.6440    1.2240 H   0  0  0  0  0  0  0  0  0  0  0  0
   -1.3940   -3.6090    2.4120 H   0  0  0  0  0  0  0  0  0  0  0  0
   -0.5860   -4.3290   -0.4580 H   0  0  0  0  0  0  0  0  0  0  0  0
   -0.1600   -5.8910    1.5860 H   0  0  0  0  0  0  0  0  0  0  0  0
    1.1460   -4.6770    1.9710 H   0  0  0  0  0  0  0  0  0  0  0  0
    1.1120   -5.5920    0.3620 H   0  0  0  0  0  0  0  0  0  0  0  0
    1.5140   -2.9600   -0.0640 H   0  0  0  0  0  0  0  0  0  0  0  0
    1.6010   -1.5120    1.7220 H   0  0  0  0  0  0  0  0  0  0  0  0
    0.2180   -2.1350    2.4720 H   0  0  0  0  0  0  0  0  0  0  0  0
   -2.0770    1.3790    2.0880 O   0  0  0  0  0  0  0  0  0  0  0  0
   -2.4100    0.9860    0.8090 C   0  0  0  0  0  0  0  0  0  0  0  0
   -1.2180    0.6150   -0.0270 C   0  0  2  0  0  0  0  0  0  0  0  0
   -0.4580   -0.4810    0.5310 N   0  0  0  0  0  0  0  0  0  0  0  0
   -0.3280    1.8040   -0.1040 C   0  0  0  0  0  0  0  0  0  0  0  0
   -0.7560    2.9100   -0.5630 O   0  0  0  0  0  0  0  0  0  0  0  0
   -2.9080    1.3420    2.6380 H   0  0  0  0  0  0  0  0  0  0  0  0
   -2.9050    1.8440    0.3090 H   0  0  0  0  0  0  0  0  0  0  0  0
   -3.1650    0.1860    0.8890 H   0  0  0  0  0  0  0  0  0  0  0  0
   -1.5750    0.3810   -1.0500 H   0  0  0  0  0  0  0  0  0  0  0  0
   -0.0730   -0.3680    1.4950 H   0  0  0  0  0  0  0  0  0  0  0  0
    2.3250    3.2780    1.6510 C   0  0  0  0  0  0  0  0  0  0  0  0
    1.8880    2.9730    0.2330 C   0  0  2  0  0  0  0  0  0  0  0  0
    1.0260    1.7850    0.3180 N   0  0  0  0  0  0  0  0  0  0  0  0
    3.1080    2.6200   -0.5730 C   0  0  0  0  0  0  0  0  0  0  0  0
    3.9920    3.4840   -0.7800 O   0  0  0  0  0  0  0  0  0  0  0  0
    3.2610    1.3570   -1.0840 O   0  0  0  0  0  0  0  0  0  0  0  0
    3.0820    2.5320    1.9750 H   0  0  0  0  0  0  0  0  0  0  0  0
    2.6930    4.3130    1.7590 H   0  0  0  0  0  0  0  0  0  0  0  0
    1.4250    3.0850    2.2970 H   0  0  0  0  0  0  0  0  0  0  0  0
    1.3510    3.8260   -0.1850 H   0  0  0  0  0  0  0  0  0  0  0  0
    1.4110    0.8960    0.7000 H   0  0  0  0  0  0  0  0  0  0  0  0
  1 10  1  0  0  0  0
  2  3  1  0  0  0  0
  2  1  1  0  0  0  0
  3 12  1  0  0  0  0
  3 13  1  0  0  0  0
  4 15  1  6  0  0  0
  4  2  1  0  0  0  0
  4  5  1  0  0  0  0
  5 17  1  0  0  0  0
  6  4  1  0  0  0  0
  6 21  1  0  0  0  0
  7  6  2  0  0  0  0
  8  1  1  0  0  0  0
  9  1  1  0  0  0  0
 11  2  1  0  0  0  0
 14  3  1  0  0  0  0
 16  5  1  0  0  0  0
 18 24  1  0  0  0  0
 19 26  1  0  0  0  0
 19 18  1  0  0  0  0
 20 27  1  6  0  0  0
 20 21  1  0  0  0  0
 20 19  1  0  0  0  0
 21 28  1  0  0  0  0
 22 20  1  0  0  0  0
 22 31  1  0  0  0  0
 23 22  2  0  0  0  0
 25 19  1  0  0  0  0
 29 36  1  0  0  0  0
 29 35  1  0  0  0  0
 29 37  1  0  0  0  0
 30 38  1  6  0  0  0
 30 31  1  0  0  0  0
 30 29  1  0  0  0  0
 31 39  1  0  0  0  0
 32 30  1  0  0  0  0
 33 32  1  0  0  0  0
 34 32  2  0  0  0  0
M  END
$$$$
