VSF.pdb
 OpenBabel07022419273D

 49 49  0  0  1  0  0  0  0  0999 V2000
    2.6990   -4.9810   -0.2480 C   0  0  0  0  0  0  0  0  0  0  0  0
    2.7630   -3.8130    0.6930 C   0  0  0  0  0  0  0  0  0  0  0  0
    3.2180   -4.2190    2.0780 C   0  0  0  0  0  0  0  0  0  0  0  0
    1.4120   -3.0930    0.7570 C   0  0  2  0  0  0  0  0  0  0  0  0
    1.1240   -2.6420   -0.5890 N   0  0  0  0  0  0  0  0  0  0  0  0
    1.5890   -1.9370    1.6860 C   0  0  0  0  0  0  0  0  0  0  0  0
    1.8490   -2.1200    2.9000 O   0  0  0  0  0  0  0  0  0  0  0  0
    1.6780   -5.4130   -0.3000 H   0  0  0  0  0  0  0  0  0  0  0  0
    3.0530   -4.6450   -1.2430 H   0  0  0  0  0  0  0  0  0  0  0  0
    3.3830   -5.7750    0.1710 H   0  0  0  0  0  0  0  0  0  0  0  0
    3.4870   -3.0800    0.2840 H   0  0  0  0  0  0  0  0  0  0  0  0
    3.8150   -5.1550    2.0630 H   0  0  0  0  0  0  0  0  0  0  0  0
    2.3280   -4.4130    2.6950 H   0  0  0  0  0  0  0  0  0  0  0  0
    3.7800   -3.3890    2.5530 H   0  0  0  0  0  0  0  0  0  0  0  0
    0.6070   -3.7730    1.1030 H   0  0  0  0  0  0  0  0  0  0  0  0
    1.9470   -2.0720   -0.8930 H   0  0  0  0  0  0  0  0  0  0  0  0
    0.2920   -2.0120   -0.5950 H   0  0  0  0  0  0  0  0  0  0  0  0
    3.9420    0.6640    1.7000 O   0  0  0  0  0  0  0  0  0  0  0  0
    2.7830    1.4450    1.6500 C   0  0  0  0  0  0  0  0  0  0  0  0
    1.6330    0.5590    2.0990 C   0  0  2  0  0  0  0  0  0  0  0  0
    1.4740   -0.5880    1.2530 N   0  0  0  0  0  0  0  0  0  0  0  0
    0.4010    1.3830    2.1800 C   0  0  0  0  0  0  0  0  0  0  0  0
    0.4360    2.4130    2.8980 O   0  0  0  0  0  0  0  0  0  0  0  0
    4.7460    1.2620    1.7680 H   0  0  0  0  0  0  0  0  0  0  0  0
    2.8710    2.2710    2.3870 H   0  0  0  0  0  0  0  0  0  0  0  0
    2.6160    1.8780    0.6590 H   0  0  0  0  0  0  0  0  0  0  0  0
    1.8660    0.2640    3.1640 H   0  0  0  0  0  0  0  0  0  0  0  0
    1.2590   -0.4230    0.2480 H   0  0  0  0  0  0  0  0  0  0  0  0
   -0.8110    1.0860    1.5030 N   0  0  0  0  0  0  0  0  0  0  0  0
   -1.9920    1.9200    1.6110 C   0  0  1  0  0  0  0  0  0  0  0  0
   -2.3510    2.5480    0.2850 C   0  0  0  0  0  0  0  0  0  0  0  0
   -2.6350    1.5870   -0.7670 C   0  0  0  0  0  0  0  0  0  0  0  0
   -3.9030    1.1090   -0.9860 C   0  0  0  0  0  0  0  0  0  0  0  0
   -4.1470    0.1950   -1.9920 C   0  0  0  0  0  0  0  0  0  0  0  0
   -3.1030   -0.2470   -2.7920 C   0  0  0  0  0  0  0  0  0  0  0  0
   -1.8230    0.2160   -2.5940 C   0  0  0  0  0  0  0  0  0  0  0  0
   -1.6160    1.1370   -1.5690 C   0  0  0  0  0  0  0  0  0  0  0  0
   -3.0950    1.1570    2.2050 C   0  0  0  0  0  0  0  0  0  0  0  0
   -4.2250    1.6800    2.3950 O   0  0  0  0  0  0  0  0  0  0  0  0
   -2.9670   -0.1770    2.5910 O   0  0  0  0  0  0  0  0  0  0  0  0
   -0.8110    0.2230    0.9130 H   0  0  0  0  0  0  0  0  0  0  0  0
   -1.7440    2.7720    2.2930 H   0  0  0  0  0  0  0  0  0  0  0  0
   -3.1980    3.2520    0.3820 H   0  0  0  0  0  0  0  0  0  0  0  0
   -1.4670    3.1830   -0.0050 H   0  0  0  0  0  0  0  0  0  0  0  0
   -4.7640    1.4130   -0.3970 H   0  0  0  0  0  0  0  0  0  0  0  0
   -5.1480   -0.1980   -2.1840 H   0  0  0  0  0  0  0  0  0  0  0  0
   -3.2740   -0.9700   -3.5940 H   0  0  0  0  0  0  0  0  0  0  0  0
   -1.0040   -0.1260   -3.2150 H   0  0  0  0  0  0  0  0  0  0  0  0
   -0.5750    1.4760   -1.4530 H   0  0  0  0  0  0  0  0  0  0  0  0
  1 10  1  0  0  0  0
  1  2  1  0  0  0  0
  2  4  1  0  0  0  0
  2  3  1  0  0  0  0
  3 14  1  0  0  0  0
  3 13  1  0  0  0  0
  4 15  1  1  0  0  0
  4  6  1  0  0  0  0
  5  4  1  0  0  0  0
  6  7  2  0  0  0  0
  8  1  1  0  0  0  0
  9  1  1  0  0  0  0
 11  2  1  0  0  0  0
 12  3  1  0  0  0  0
 16  5  1  0  0  0  0
 17  5  1  0  0  0  0
 18 24  1  0  0  0  0
 19 18  1  0  0  0  0
 19 20  1  0  0  0  0
 19 25  1  0  0  0  0
 20 22  1  0  0  0  0
 20 27  1  1  0  0  0
 21  6  1  0  0  0  0
 21 20  1  0  0  0  0
 22 23  2  0  0  0  0
 26 19  1  0  0  0  0
 28 21  1  0  0  0  0
 29 30  1  0  0  0  0
 29 22  1  0  0  0  0
 30 38  1  0  0  0  0
 30 42  1  1  0  0  0
 31 43  1  0  0  0  0
 31 30  1  0  0  0  0
 32 31  1  0  0  0  0
 33 32  1  0  0  0  0
 33 45  1  0  0  0  0
 34 33  2  0  0  0  0
 35 36  2  0  0  0  0
 35 34  1  0  0  0  0
 36 37  1  0  0  0  0
 37 49  1  0  0  0  0
 37 32  2  0  0  0  0
 38 39  2  0  0  0  0
 38 40  1  0  0  0  0
 41 29  1  0  0  0  0
 44 31  1  0  0  0  0
 46 34  1  0  0  0  0
 47 35  1  0  0  0  0
 48 36  1  0  0  0  0
M  END
$$$$
