VSH.pdb
 OpenBabel07022419273D

 46 46  0  0  1  0  0  0  0  0999 V2000
    0.7300   -4.6260    0.1790 C   0  0  0  0  0  0  0  0  0  0  0  0
   -0.3450   -4.3330    1.1980 C   0  0  0  0  0  0  0  0  0  0  0  0
   -1.5710   -5.1330    0.8130 C   0  0  0  0  0  0  0  0  0  0  0  0
   -0.6510   -2.8560    1.3000 C   0  0  2  0  0  0  0  0  0  0  0  0
   -1.1100   -2.3080    0.0500 N   0  0  0  0  0  0  0  0  0  0  0  0
    0.5920   -2.1670    1.7370 C   0  0  0  0  0  0  0  0  0  0  0  0
    1.1590   -2.5000    2.8110 O   0  0  0  0  0  0  0  0  0  0  0  0
    1.0520   -5.6810    0.3590 H   0  0  0  0  0  0  0  0  0  0  0  0
    0.3320   -4.6140   -0.8660 H   0  0  0  0  0  0  0  0  0  0  0  0
    1.6210   -4.0010    0.2960 H   0  0  0  0  0  0  0  0  0  0  0  0
    0.0100   -4.7270    2.1720 H   0  0  0  0  0  0  0  0  0  0  0  0
   -1.8200   -5.9050    1.5730 H   0  0  0  0  0  0  0  0  0  0  0  0
   -2.4350   -4.4190    0.8030 H   0  0  0  0  0  0  0  0  0  0  0  0
   -1.4900   -5.5820   -0.2000 H   0  0  0  0  0  0  0  0  0  0  0  0
   -1.4790   -2.7510    2.0310 H   0  0  0  0  0  0  0  0  0  0  0  0
   -0.4770   -2.4380   -0.7430 H   0  0  0  0  0  0  0  0  0  0  0  0
   -1.4960   -1.3470    0.1680 H   0  0  0  0  0  0  0  0  0  0  0  0
    4.6270    0.0890    0.8910 O   0  0  0  0  0  0  0  0  0  0  0  0
    3.5210   -0.5960    0.4000 C   0  0  0  0  0  0  0  0  0  0  0  0
    2.4110   -0.4420    1.4090 C   0  0  2  0  0  0  0  0  0  0  0  0
    1.1990   -1.1220    0.9950 N   0  0  0  0  0  0  0  0  0  0  0  0
    2.0690    0.9770    1.6510 C   0  0  0  0  0  0  0  0  0  0  0  0
    2.9630    1.7730    2.0210 O   0  0  0  0  0  0  0  0  0  0  0  0
    4.6050    0.1100    1.8820 H   0  0  0  0  0  0  0  0  0  0  0  0
    3.2710   -0.2060   -0.5870 H   0  0  0  0  0  0  0  0  0  0  0  0
    3.8010   -1.6850    0.3970 H   0  0  0  0  0  0  0  0  0  0  0  0
    2.7980   -0.8420    2.3710 H   0  0  0  0  0  0  0  0  0  0  0  0
    0.7450   -0.8330    0.1060 H   0  0  0  0  0  0  0  0  0  0  0  0
    0.7530    1.4660    1.4760 N   0  0  0  0  0  0  0  0  0  0  0  0
    0.3970    2.8470    1.7070 C   0  0  1  0  0  0  0  0  0  0  0  0
   -0.0660    3.5250    0.4260 C   0  0  0  0  0  0  0  0  0  0  0  0
   -1.2640    2.8360   -0.1390 C   0  0  0  0  0  0  0  0  0  0  0  0
   -1.1580    1.7990   -1.0370 C   0  0  0  0  0  0  0  0  0  0  0  0
   -2.3920    1.4150   -1.3370 N   0  0  0  0  0  0  0  0  0  0  0  0
   -3.2600    2.1790   -0.6550 C   0  0  0  0  0  0  0  0  0  0  0  0
   -2.5660    3.0570    0.0840 N   0  0  0  0  0  0  0  0  0  0  0  0
   -0.7020    2.9610    2.6820 C   0  0  0  0  0  0  0  0  0  0  0  0
   -1.1360    4.0780    3.0000 O   0  0  0  0  0  0  0  0  0  0  0  0
   -1.2390    1.8210    3.2340 O   0  0  0  0  0  0  0  0  0  0  0  0
    0.0290    0.7800    1.1680 H   0  0  0  0  0  0  0  0  0  0  0  0
    1.3100    3.4070    2.0290 H   0  0  0  0  0  0  0  0  0  0  0  0
    0.7410    3.6170   -0.3080 H   0  0  0  0  0  0  0  0  0  0  0  0
   -0.3990    4.5450    0.7130 H   0  0  0  0  0  0  0  0  0  0  0  0
   -0.2270    1.3650   -1.4350 H   0  0  0  0  0  0  0  0  0  0  0  0
   -2.6530    0.6350   -2.0030 H   0  0  0  0  0  0  0  0  0  0  0  0
   -4.3280    2.0740   -0.7190 H   0  0  0  0  0  0  0  0  0  0  0  0
  1 10  1  0  0  0  0
  1  8  1  0  0  0  0
  1  2  1  0  0  0  0
  2  4  1  0  0  0  0
  2 11  1  0  0  0  0
  3  2  1  0  0  0  0
  3 12  1  0  0  0  0
  4  6  1  0  0  0  0
  4 15  1  1  0  0  0
  5 17  1  0  0  0  0
  5  4  1  0  0  0  0
  6  7  2  0  0  0  0
  9  1  1  0  0  0  0
 13  3  1  0  0  0  0
 14  3  1  0  0  0  0
 16  5  1  0  0  0  0
 18 24  1  0  0  0  0
 19 18  1  0  0  0  0
 19 20  1  0  0  0  0
 20 22  1  0  0  0  0
 20 27  1  1  0  0  0
 21 20  1  0  0  0  0
 21  6  1  0  0  0  0
 22 23  2  0  0  0  0
 25 19  1  0  0  0  0
 26 19  1  0  0  0  0
 28 21  1  0  0  0  0
 29 22  1  0  0  0  0
 29 30  1  0  0  0  0
 30 41  1  1  0  0  0
 30 37  1  0  0  0  0
 31 43  1  0  0  0  0
 31 30  1  0  0  0  0
 32 36  1  0  0  0  0
 32 31  1  0  0  0  0
 33 32  2  0  0  0  0
 34 33  1  0  0  0  0
 34 35  1  0  0  0  0
 35 36  2  0  0  0  0
 37 38  2  0  0  0  0
 37 39  1  0  0  0  0
 40 29  1  0  0  0  0
 42 31  1  0  0  0  0
 44 33  1  0  0  0  0
 45 34  1  0  0  0  0
 46 35  1  0  0  0  0
M  END
$$$$
