VSK.pdb
 OpenBabel07022419273D

 50 49  0  0  1  0  0  0  0  0999 V2000
    2.6700   -5.5280    0.9800 C   0  0  0  0  0  0  0  0  0  0  0  0
    2.9890   -4.0590    1.0760 C   0  0  0  0  0  0  0  0  0  0  0  0
    4.1650   -3.8650    1.9730 C   0  0  0  0  0  0  0  0  0  0  0  0
    1.7820   -3.2530    1.5090 C   0  0  2  0  0  0  0  0  0  0  0  0
    0.7440   -3.4430    0.5400 N   0  0  0  0  0  0  0  0  0  0  0  0
    2.0910   -1.8210    1.6230 C   0  0  0  0  0  0  0  0  0  0  0  0
    2.9730   -1.3680    2.4090 O   0  0  0  0  0  0  0  0  0  0  0  0
    3.5510   -6.1080    1.3050 H   0  0  0  0  0  0  0  0  0  0  0  0
    1.8480   -5.7500    1.6880 H   0  0  0  0  0  0  0  0  0  0  0  0
    2.4000   -5.8320   -0.0540 H   0  0  0  0  0  0  0  0  0  0  0  0
    3.2930   -3.7310    0.0480 H   0  0  0  0  0  0  0  0  0  0  0  0
    4.9540   -3.2000    1.5350 H   0  0  0  0  0  0  0  0  0  0  0  0
    3.8280   -3.4860    2.9720 H   0  0  0  0  0  0  0  0  0  0  0  0
    4.6760   -4.8430    2.1960 H   0  0  0  0  0  0  0  0  0  0  0  0
    1.4720   -3.6360    2.5000 H   0  0  0  0  0  0  0  0  0  0  0  0
    1.0630   -3.9500   -0.3130 H   0  0  0  0  0  0  0  0  0  0  0  0
   -0.1370   -3.8270    0.9380 H   0  0  0  0  0  0  0  0  0  0  0  0
    2.4230    2.4480   -0.2470 O   0  0  0  0  0  0  0  0  0  0  0  0
    2.1340    1.0960   -0.4060 C   0  0  0  0  0  0  0  0  0  0  0  0
    1.7100    0.5710    0.9560 C   0  0  2  0  0  0  0  0  0  0  0  0
    1.3950   -0.8550    0.8350 N   0  0  0  0  0  0  0  0  0  0  0  0
    0.4600    1.2460    1.4250 C   0  0  0  0  0  0  0  0  0  0  0  0
    0.4360    2.4870    1.6180 O   0  0  0  0  0  0  0  0  0  0  0  0
    2.7150    2.6640    0.6810 H   0  0  0  0  0  0  0  0  0  0  0  0
    1.3120    0.9390   -1.1150 H   0  0  0  0  0  0  0  0  0  0  0  0
    3.0550    0.5490   -0.6810 H   0  0  0  0  0  0  0  0  0  0  0  0
    2.5110    0.6900    1.7060 H   0  0  0  0  0  0  0  0  0  0  0  0
    0.6600   -1.1780    0.1740 H   0  0  0  0  0  0  0  0  0  0  0  0
   -0.7450    0.5340    1.6720 N   0  0  0  0  0  0  0  0  0  0  0  0
   -1.9490    1.1990    2.1250 C   0  0  1  0  0  0  0  0  0  0  0  0
   -3.0430    0.9480    1.0940 C   0  0  0  0  0  0  0  0  0  0  0  0
   -2.5480    1.5280   -0.2180 C   0  0  0  0  0  0  0  0  0  0  0  0
   -3.6000    1.3020   -1.2740 C   0  0  0  0  0  0  0  0  0  0  0  0
   -3.0910    1.8870   -2.5760 C   0  0  0  0  0  0  0  0  0  0  0  0
   -1.8510    1.1910   -2.9100 N   0  0  0  0  0  0  0  0  0  0  0  0
   -2.4300    0.6620    3.4180 C   0  0  0  0  0  0  0  0  0  0  0  0
   -1.8630   -0.2560    4.0420 O   0  0  0  0  0  0  0  0  0  0  0  0
   -3.5810    1.2290    3.9470 O   0  0  0  0  0  0  0  0  0  0  0  0
   -0.7330   -0.5100    1.5110 H   0  0  0  0  0  0  0  0  0  0  0  0
   -1.7210    2.2720    2.2190 H   0  0  0  0  0  0  0  0  0  0  0  0
   -4.0130    1.3550    1.3910 H   0  0  0  0  0  0  0  0  0  0  0  0
   -3.1560   -0.1420    0.9280 H   0  0  0  0  0  0  0  0  0  0  0  0
   -2.4050    2.6220   -0.0550 H   0  0  0  0  0  0  0  0  0  0  0  0
   -1.6080    1.0390   -0.5000 H   0  0  0  0  0  0  0  0  0  0  0  0
   -4.5430    1.7720   -0.9480 H   0  0  0  0  0  0  0  0  0  0  0  0
   -3.7620    0.2130   -1.3790 H   0  0  0  0  0  0  0  0  0  0  0  0
   -3.8230    1.6770   -3.3720 H   0  0  0  0  0  0  0  0  0  0  0  0
   -2.8300    2.9510   -2.4710 H   0  0  0  0  0  0  0  0  0  0  0  0
   -1.9520    0.2030   -2.6410 H   0  0  0  0  0  0  0  0  0  0  0  0
   -1.6370    1.3280   -3.9280 H   0  0  0  0  0  0  0  0  0  0  0  0
  1  2  1  0  0  0  0
  1  8  1  0  0  0  0
  1  9  1  0  0  0  0
  2  4  1  0  0  0  0
  2  3  1  0  0  0  0
  3 14  1  0  0  0  0
  3 13  1  0  0  0  0
  4  6  1  0  0  0  0
  4 15  1  1  0  0  0
  5 17  1  0  0  0  0
  5  4  1  0  0  0  0
  6  7  2  0  0  0  0
 10  1  1  0  0  0  0
 11  2  1  0  0  0  0
 12  3  1  0  0  0  0
 16  5  1  0  0  0  0
 18 24  1  0  0  0  0
 19 18  1  0  0  0  0
 19 20  1  0  0  0  0
 20 22  1  0  0  0  0
 20 27  1  1  0  0  0
 21 20  1  0  0  0  0
 21  6  1  0  0  0  0
 22 23  2  0  0  0  0
 22 29  1  0  0  0  0
 25 19  1  0  0  0  0
 26 19  1  0  0  0  0
 28 21  1  0  0  0  0
 29 30  1  0  0  0  0
 30 40  1  1  0  0  0
 30 36  1  0  0  0  0
 31 41  1  0  0  0  0
 31 30  1  0  0  0  0
 32 43  1  0  0  0  0
 32 31  1  0  0  0  0
 33 45  1  0  0  0  0
 33 32  1  0  0  0  0
 34 48  1  0  0  0  0
 34 33  1  0  0  0  0
 35 49  1  0  0  0  0
 35 34  1  0  0  0  0
 36 38  2  0  0  0  0
 36 37  1  0  0  0  0
 39 29  1  0  0  0  0
 42 31  1  0  0  0  0
 44 32  1  0  0  0  0
 46 33  1  0  0  0  0
 47 34  1  0  0  0  0
 50 35  1  0  0  0  0
M  END
$$$$
