VSN.pdb
 OpenBabel07022419273D

 43 42  0  0  1  0  0  0  0  0999 V2000
   -0.3660   -4.3460   -0.4170 C   0  0  0  0  0  0  0  0  0  0  0  0
   -1.6210   -3.6790   -0.8870 C   0  0  0  0  0  0  0  0  0  0  0  0
   -2.4470   -3.2160    0.2560 C   0  0  0  0  0  0  0  0  0  0  0  0
   -1.3940   -2.6610   -1.9780 C   0  0  2  0  0  0  0  0  0  0  0  0
   -0.7910   -3.4290   -3.0830 N   0  0  0  0  0  0  0  0  0  0  0  0
   -0.4920   -1.5710   -1.6050 C   0  0  0  0  0  0  0  0  0  0  0  0
    0.6100   -1.4560   -2.2010 O   0  0  0  0  0  0  0  0  0  0  0  0
    0.4940   -4.1810   -1.1130 H   0  0  0  0  0  0  0  0  0  0  0  0
   -0.0260   -3.9300    0.5660 H   0  0  0  0  0  0  0  0  0  0  0  0
   -0.4500   -5.4320   -0.2750 H   0  0  0  0  0  0  0  0  0  0  0  0
   -2.2240   -4.4960   -1.3930 H   0  0  0  0  0  0  0  0  0  0  0  0
   -2.9910   -4.0750    0.7460 H   0  0  0  0  0  0  0  0  0  0  0  0
   -1.8300   -2.7780    1.0580 H   0  0  0  0  0  0  0  0  0  0  0  0
   -3.2350   -2.4910   -0.0050 H   0  0  0  0  0  0  0  0  0  0  0  0
   -2.3830   -2.3390   -2.3440 H   0  0  0  0  0  0  0  0  0  0  0  0
   -0.4330   -2.7490   -3.8150 H   0  0  0  0  0  0  0  0  0  0  0  0
   -1.5090   -4.0080   -3.5610 H   0  0  0  0  0  0  0  0  0  0  0  0
   -1.6500    1.9470    0.3370 O   0  0  0  0  0  0  0  0  0  0  0  0
   -0.4790    1.8370   -0.4050 C   0  0  0  0  0  0  0  0  0  0  0  0
    0.0870    0.4700   -0.2040 C   0  0  2  0  0  0  0  0  0  0  0  0
   -0.7560   -0.6030   -0.6000 N   0  0  0  0  0  0  0  0  0  0  0  0
    0.5150    0.2660    1.1900 C   0  0  0  0  0  0  0  0  0  0  0  0
    0.1100   -0.7400    1.8160 O   0  0  0  0  0  0  0  0  0  0  0  0
   -2.4680    1.9140   -0.2330 H   0  0  0  0  0  0  0  0  0  0  0  0
   -0.6180    2.1020   -1.4650 H   0  0  0  0  0  0  0  0  0  0  0  0
    0.2380    2.5750    0.0110 H   0  0  0  0  0  0  0  0  0  0  0  0
    1.0200    0.4080   -0.8380 H   0  0  0  0  0  0  0  0  0  0  0  0
   -1.6670   -0.6900   -0.1030 H   0  0  0  0  0  0  0  0  0  0  0  0
    3.7270    3.0030    2.2210 N   0  0  0  0  0  0  0  0  0  0  0  0
    4.1310    1.7870    2.7860 C   0  0  0  0  0  0  0  0  0  0  0  0
    5.3940    1.5910    2.8390 O   0  0  0  0  0  0  0  0  0  0  0  0
    3.2850    0.7200    3.3180 C   0  0  0  0  0  0  0  0  0  0  0  0
    1.8060    0.9810    3.2410 C   0  0  2  0  0  0  0  0  0  0  0  0
    1.3770    1.1710    1.8660 N   0  0  0  0  0  0  0  0  0  0  0  0
    1.4320    2.1330    4.0680 C   0  0  0  0  0  0  0  0  0  0  0  0
    0.8180    3.0940    3.5460 O   0  0  0  0  0  0  0  0  0  0  0  0
    1.7370    2.1930    5.4150 O   0  0  0  0  0  0  0  0  0  0  0  0
    3.8230    3.0920    1.1660 H   0  0  0  0  0  0  0  0  0  0  0  0
    3.3500    3.8010    2.7630 H   0  0  0  0  0  0  0  0  0  0  0  0
    3.5540   -0.2370    2.8240 H   0  0  0  0  0  0  0  0  0  0  0  0
    3.5190    0.5570    4.4060 H   0  0  0  0  0  0  0  0  0  0  0  0
    1.3100    0.0390    3.5810 H   0  0  0  0  0  0  0  0  0  0  0  0
    1.6950    2.0020    1.3060 H   0  0  0  0  0  0  0  0  0  0  0  0
  1 10  1  0  0  0  0
  1  9  1  0  0  0  0
  2  1  1  0  0  0  0
  2  3  1  0  0  0  0
  3 12  1  0  0  0  0
  3 13  1  0  0  0  0
  4 15  1  6  0  0  0
  4  6  1  0  0  0  0
  4  2  1  0  0  0  0
  5  4  1  0  0  0  0
  6 21  1  0  0  0  0
  7  6  2  0  0  0  0
  8  1  1  0  0  0  0
 11  2  1  0  0  0  0
 14  3  1  0  0  0  0
 16  5  1  0  0  0  0
 17  5  1  0  0  0  0
 19 20  1  0  0  0  0
 19 26  1  0  0  0  0
 19 18  1  0  0  0  0
 20 27  1  6  0  0  0
 20 22  1  0  0  0  0
 21 20  1  0  0  0  0
 21 28  1  0  0  0  0
 22 23  2  0  0  0  0
 22 34  1  0  0  0  0
 24 18  1  0  0  0  0
 25 19  1  0  0  0  0
 29 39  1  0  0  0  0
 29 30  1  0  0  0  0
 30 31  2  0  0  0  0
 30 32  1  0  0  0  0
 32 41  1  0  0  0  0
 33 32  1  0  0  0  0
 33 42  1  1  0  0  0
 33 35  1  0  0  0  0
 34 33  1  0  0  0  0
 35 37  1  0  0  0  0
 36 35  2  0  0  0  0
 38 29  1  0  0  0  0
 40 32  1  0  0  0  0
 43 34  1  0  0  0  0
M  END
$$$$
