VSR.pdb
 OpenBabel07022419273D

 52 51  0  0  1  0  0  0  0  0999 V2000
    2.4320   -3.0330   -1.1350 C   0  0  0  0  0  0  0  0  0  0  0  0
    3.8700   -2.9380   -0.7190 C   0  0  0  0  0  0  0  0  0  0  0  0
    4.0540   -3.4050    0.7130 C   0  0  0  0  0  0  0  0  0  0  0  0
    4.4200   -1.5180   -0.8860 C   0  0  2  0  0  0  0  0  0  0  0  0
    5.8050   -1.6100   -0.4500 N   0  0  0  0  0  0  0  0  0  0  0  0
    3.6390   -0.6220    0.0010 C   0  0  0  0  0  0  0  0  0  0  0  0
    4.1310   -0.2280    1.1060 O   0  0  0  0  0  0  0  0  0  0  0  0
    2.1630   -4.1110   -1.2320 H   0  0  0  0  0  0  0  0  0  0  0  0
    2.2350   -2.5880   -2.1190 H   0  0  0  0  0  0  0  0  0  0  0  0
    1.7870   -2.6540   -0.3170 H   0  0  0  0  0  0  0  0  0  0  0  0
    4.4750   -3.6010   -1.3660 H   0  0  0  0  0  0  0  0  0  0  0  0
    4.9340   -4.0780    0.8020 H   0  0  0  0  0  0  0  0  0  0  0  0
    4.1880   -2.5860    1.4280 H   0  0  0  0  0  0  0  0  0  0  0  0
    3.1400   -3.9670    0.9920 H   0  0  0  0  0  0  0  0  0  0  0  0
    4.2970   -1.2020   -1.9130 H   0  0  0  0  0  0  0  0  0  0  0  0
    5.8660   -2.3030    0.3030 H   0  0  0  0  0  0  0  0  0  0  0  0
    6.1240   -0.6790   -0.0770 H   0  0  0  0  0  0  0  0  0  0  0  0
    1.1420    3.0090    0.9200 O   0  0  0  0  0  0  0  0  0  0  0  0
    1.7980    2.1330    0.0570 C   0  0  0  0  0  0  0  0  0  0  0  0
    1.6390    0.7190    0.6270 C   0  0  2  0  0  0  0  0  0  0  0  0
    2.3260   -0.1440   -0.2940 N   0  0  0  0  0  0  0  0  0  0  0  0
    0.2380    0.4010    0.8790 C   0  0  0  0  0  0  0  0  0  0  0  0
   -0.3800    1.0660    1.7500 O   0  0  0  0  0  0  0  0  0  0  0  0
    1.7080    3.2570    1.7080 H   0  0  0  0  0  0  0  0  0  0  0  0
    1.4310    2.2080   -0.9660 H   0  0  0  0  0  0  0  0  0  0  0  0
    2.8980    2.3550    0.1400 H   0  0  0  0  0  0  0  0  0  0  0  0
    2.2200    0.7480    1.5710 H   0  0  0  0  0  0  0  0  0  0  0  0
    1.8790   -0.4220   -1.1740 H   0  0  0  0  0  0  0  0  0  0  0  0
   -4.4110    1.0550    4.2750 N   0  0  0  0  0  0  0  0  0  0  0  0
   -4.9960    1.0120    2.9880 C   0  0  0  0  0  0  0  0  0  0  0  0
   -5.9500    1.8000    2.6590 N   0  0  0  0  0  0  0  0  0  0  0  0
   -4.5330    0.0740    1.9860 N   0  0  0  0  0  0  0  0  0  0  0  0
   -4.8330    0.2560    0.6130 C   0  0  0  0  0  0  0  0  0  0  0  0
   -4.1910   -0.5940   -0.4130 C   0  0  0  0  0  0  0  0  0  0  0  0
   -2.7330   -0.4730   -0.6050 C   0  0  0  0  0  0  0  0  0  0  0  0
   -1.8860   -0.8360    0.5500 C   0  0  2  0  0  0  0  0  0  0  0  0
   -0.4510   -0.6120    0.1910 N   0  0  0  0  0  0  0  0  0  0  0  0
   -2.0370   -2.2800    0.8510 C   0  0  0  0  0  0  0  0  0  0  0  0
   -1.0010   -3.0450    0.7680 O   0  0  0  0  0  0  0  0  0  0  0  0
   -3.1840   -2.9240    1.2210 O   0  0  0  0  0  0  0  0  0  0  0  0
   -3.8450    1.8990    4.5830 H   0  0  0  0  0  0  0  0  0  0  0  0
   -4.5160    0.2700    4.9500 H   0  0  0  0  0  0  0  0  0  0  0  0
   -6.2870    2.4860    3.3790 H   0  0  0  0  0  0  0  0  0  0  0  0
   -4.0150   -0.7230    2.3540 H   0  0  0  0  0  0  0  0  0  0  0  0
   -4.6390    1.3320    0.2930 H   0  0  0  0  0  0  0  0  0  0  0  0
   -5.9500    0.1490    0.4650 H   0  0  0  0  0  0  0  0  0  0  0  0
   -4.7420   -0.4850   -1.4110 H   0  0  0  0  0  0  0  0  0  0  0  0
   -4.4160   -1.6880   -0.1820 H   0  0  0  0  0  0  0  0  0  0  0  0
   -2.4550    0.5440   -1.0260 H   0  0  0  0  0  0  0  0  0  0  0  0
   -2.4690   -1.2340   -1.4300 H   0  0  0  0  0  0  0  0  0  0  0  0
   -2.1230   -0.2180    1.4200 H   0  0  0  0  0  0  0  0  0  0  0  0
   -0.0710   -1.2100   -0.5360 H   0  0  0  0  0  0  0  0  0  0  0  0
  1  2  1  0  0  0  0
  1 10  1  0  0  0  0
  2  3  1  0  0  0  0
  3 12  1  0  0  0  0
  3 14  1  0  0  0  0
  3 13  1  0  0  0  0
  4 15  1  6  0  0  0
  4  2  1  0  0  0  0
  4  5  1  0  0  0  0
  4  6  1  0  0  0  0
  5 17  1  0  0  0  0
  5 16  1  0  0  0  0
  6  7  2  0  0  0  0
  8  1  1  0  0  0  0
  9  1  1  0  0  0  0
 11  2  1  0  0  0  0
 18 24  1  0  0  0  0
 19 26  1  0  0  0  0
 19 20  1  0  0  0  0
 19 18  1  0  0  0  0
 20 22  1  0  0  0  0
 20 27  1  1  0  0  0
 21  6  1  0  0  0  0
 21 20  1  0  0  0  0
 22 23  2  0  0  0  0
 25 19  1  0  0  0  0
 28 21  1  0  0  0  0
 29 41  1  0  0  0  0
 29 42  1  0  0  0  0
 30 29  1  0  0  0  0
 31 30  2  0  0  0  0
 31 43  1  0  0  0  0
 32 44  1  0  0  0  0
 32 30  1  0  0  0  0
 33 32  1  0  0  0  0
 34 48  1  0  0  0  0
 34 33  1  0  0  0  0
 35 34  1  0  0  0  0
 35 36  1  0  0  0  0
 36 38  1  0  0  0  0
 36 51  1  1  0  0  0
 37 36  1  0  0  0  0
 37 22  1  0  0  0  0
 38 40  1  0  0  0  0
 39 38  2  0  0  0  0
 45 33  1  0  0  0  0
 46 33  1  0  0  0  0
 47 34  1  0  0  0  0
 49 35  1  0  0  0  0
 50 35  1  0  0  0  0
 52 37  1  0  0  0  0
M  END
$$$$
