VSS.pdb
 OpenBabel07022419273D

 40 39  0  0  1  0  0  0  0  0999 V2000
   -2.6150   -3.2080    0.0760 C   0  0  0  0  0  0  0  0  0  0  0  0
   -1.3610   -3.8540    0.5720 C   0  0  0  0  0  0  0  0  0  0  0  0
   -0.8130   -4.7390   -0.4950 C   0  0  0  0  0  0  0  0  0  0  0  0
   -0.3760   -2.8380    1.0850 C   0  0  2  0  0  0  0  0  0  0  0  0
   -1.0430   -2.1330    2.1830 N   0  0  0  0  0  0  0  0  0  0  0  0
    0.0680   -1.8830    0.0800 C   0  0  0  0  0  0  0  0  0  0  0  0
    0.6670   -2.2230   -0.9630 O   0  0  0  0  0  0  0  0  0  0  0  0
   -3.2660   -2.8640    0.9180 H   0  0  0  0  0  0  0  0  0  0  0  0
   -3.1620   -3.9560   -0.5360 H   0  0  0  0  0  0  0  0  0  0  0  0
   -2.3940   -2.3360   -0.5630 H   0  0  0  0  0  0  0  0  0  0  0  0
   -1.6350   -4.4980    1.4460 H   0  0  0  0  0  0  0  0  0  0  0  0
   -1.0490   -4.3660   -1.5260 H   0  0  0  0  0  0  0  0  0  0  0  0
   -1.3210   -5.7230   -0.4200 H   0  0  0  0  0  0  0  0  0  0  0  0
    0.2780   -4.9430   -0.3880 H   0  0  0  0  0  0  0  0  0  0  0  0
    0.5220   -3.3190    1.5300 H   0  0  0  0  0  0  0  0  0  0  0  0
   -1.8640   -1.6430    1.7640 H   0  0  0  0  0  0  0  0  0  0  0  0
   -0.4010   -1.5250    2.7040 H   0  0  0  0  0  0  0  0  0  0  0  0
   -1.6800    1.9180   -0.4850 O   0  0  0  0  0  0  0  0  0  0  0  0
   -0.8780    1.2190   -1.3620 C   0  0  0  0  0  0  0  0  0  0  0  0
    0.2440    0.4770   -0.7010 C   0  0  2  0  0  0  0  0  0  0  0  0
   -0.1690   -0.5000    0.2510 N   0  0  0  0  0  0  0  0  0  0  0  0
    1.2310    1.3650   -0.0600 C   0  0  0  0  0  0  0  0  0  0  0  0
    1.7140    2.2930   -0.7410 O   0  0  0  0  0  0  0  0  0  0  0  0
   -1.9740    2.7910   -0.8170 H   0  0  0  0  0  0  0  0  0  0  0  0
   -1.4150    0.5250   -2.0110 H   0  0  0  0  0  0  0  0  0  0  0  0
   -0.4030    1.9800   -2.0340 H   0  0  0  0  0  0  0  0  0  0  0  0
    0.7560   -0.0850   -1.5410 H   0  0  0  0  0  0  0  0  0  0  0  0
   -0.6730   -0.1210    1.1110 H   0  0  0  0  0  0  0  0  0  0  0  0
    3.0930    3.3740    3.7880 O   0  0  0  0  0  0  0  0  0  0  0  0
    2.0520    2.5920    3.2460 C   0  0  0  0  0  0  0  0  0  0  0  0
    2.5820    2.0120    1.9670 C   0  0  2  0  0  0  0  0  0  0  0  0
    1.6190    1.1740    1.2820 N   0  0  0  0  0  0  0  0  0  0  0  0
    3.7470    1.1510    2.3030 C   0  0  0  0  0  0  0  0  0  0  0  0
    4.7640    1.6200    2.9170 O   0  0  0  0  0  0  0  0  0  0  0  0
    3.8100   -0.1980    1.9800 O   0  0  0  0  0  0  0  0  0  0  0  0
    3.4000    4.0580    3.1650 H   0  0  0  0  0  0  0  0  0  0  0  0
    1.8560    1.8050    4.0020 H   0  0  0  0  0  0  0  0  0  0  0  0
    1.1540    3.1940    3.1430 H   0  0  0  0  0  0  0  0  0  0  0  0
    2.9330    2.7850    1.2700 H   0  0  0  0  0  0  0  0  0  0  0  0
    1.2200    0.3950    1.8720 H   0  0  0  0  0  0  0  0  0  0  0  0
  1  2  1  0  0  0  0
  1  8  1  0  0  0  0
  2  4  1  0  0  0  0
  2 11  1  0  0  0  0
  3 13  1  0  0  0  0
  3 14  1  0  0  0  0
  3  2  1  0  0  0  0
  4 15  1  1  0  0  0
  4  5  1  0  0  0  0
  5 17  1  0  0  0  0
  6 21  1  0  0  0  0
  6  4  1  0  0  0  0
  7  6  2  0  0  0  0
  9  1  1  0  0  0  0
 10  1  1  0  0  0  0
 12  3  1  0  0  0  0
 16  5  1  0  0  0  0
 19 20  1  0  0  0  0
 19 18  1  0  0  0  0
 20 27  1  6  0  0  0
 20 22  1  0  0  0  0
 20 21  1  0  0  0  0
 21 28  1  0  0  0  0
 22 32  1  0  0  0  0
 23 22  2  0  0  0  0
 24 18  1  0  0  0  0
 25 19  1  0  0  0  0
 26 19  1  0  0  0  0
 30 29  1  0  0  0  0
 30 37  1  0  0  0  0
 31 39  1  6  0  0  0
 31 33  1  0  0  0  0
 31 30  1  0  0  0  0
 32 40  1  0  0  0  0
 32 31  1  0  0  0  0
 33 34  1  0  0  0  0
 35 33  2  0  0  0  0
 36 29  1  0  0  0  0
 38 30  1  0  0  0  0
M  END
$$$$
