VSW.pdb
 OpenBabel07022419273D

 53 54  0  0  1  0  0  0  0  0999 V2000
   -3.8800   -0.6180    1.0200 C   0  0  0  0  0  0  0  0  0  0  0  0
   -4.5270    0.7150    1.0500 C   0  0  0  0  0  0  0  0  0  0  0  0
   -5.9780    0.4960    1.4990 C   0  0  0  0  0  0  0  0  0  0  0  0
   -3.9360    1.7450    1.9440 C   0  0  2  0  0  0  0  0  0  0  0  0
   -4.7870    2.9470    1.7690 N   0  0  0  0  0  0  0  0  0  0  0  0
   -2.5300    2.0930    1.6920 C   0  0  0  0  0  0  0  0  0  0  0  0
   -2.2490    3.2630    1.2360 O   0  0  0  0  0  0  0  0  0  0  0  0
   -3.5320   -0.9940    1.9800 H   0  0  0  0  0  0  0  0  0  0  0  0
   -4.6230   -1.3760    0.6560 H   0  0  0  0  0  0  0  0  0  0  0  0
   -3.0400   -0.5970    0.3020 H   0  0  0  0  0  0  0  0  0  0  0  0
   -4.6310    1.1000   -0.0080 H   0  0  0  0  0  0  0  0  0  0  0  0
   -6.6810    1.1460    0.9640 H   0  0  0  0  0  0  0  0  0  0  0  0
   -6.0680    0.7810    2.5850 H   0  0  0  0  0  0  0  0  0  0  0  0
   -6.2680   -0.5570    1.4230 H   0  0  0  0  0  0  0  0  0  0  0  0
   -4.0680    1.4450    2.9990 H   0  0  0  0  0  0  0  0  0  0  0  0
   -5.0790    3.0140    0.7510 H   0  0  0  0  0  0  0  0  0  0  0  0
   -5.6800    2.7730    2.2820 H   0  0  0  0  0  0  0  0  0  0  0  0
   -0.1140    2.8380    3.7550 O   0  0  0  0  0  0  0  0  0  0  0  0
    0.5710    1.9140    2.9920 C   0  0  0  0  0  0  0  0  0  0  0  0
   -0.0700    1.7200    1.6240 C   0  0  2  0  0  0  0  0  0  0  0  0
   -1.4220    1.2530    1.9080 N   0  0  0  0  0  0  0  0  0  0  0  0
    0.7360    0.7650    0.8400 C   0  0  0  0  0  0  0  0  0  0  0  0
    1.9020    1.1140    0.5250 O   0  0  0  0  0  0  0  0  0  0  0  0
   -0.0040    3.7580    3.3950 H   0  0  0  0  0  0  0  0  0  0  0  0
    1.6550    2.1180    2.8990 H   0  0  0  0  0  0  0  0  0  0  0  0
    0.4830    0.9260    3.5040 H   0  0  0  0  0  0  0  0  0  0  0  0
   -0.1110    2.7240    1.1620 H   0  0  0  0  0  0  0  0  0  0  0  0
   -1.5760    0.2930    2.2760 H   0  0  0  0  0  0  0  0  0  0  0  0
    0.2640   -0.5080    0.4330 N   0  0  0  0  0  0  0  0  0  0  0  0
    1.1220   -1.3910   -0.3370 C   0  0  1  0  0  0  0  0  0  0  0  0
    1.3940   -2.6850    0.3930 C   0  0  0  0  0  0  0  0  0  0  0  0
    2.2750   -3.5220   -0.4600 C   0  0  0  0  0  0  0  0  0  0  0  0
    1.9230   -4.6310   -1.2240 C   0  0  0  0  0  0  0  0  0  0  0  0
    3.0180   -5.1010   -1.8470 N   0  0  0  0  0  0  0  0  0  0  0  0
    4.0770   -4.3370   -1.5170 C   0  0  0  0  0  0  0  0  0  0  0  0
    5.4150   -4.3530   -1.8490 C   0  0  0  0  0  0  0  0  0  0  0  0
    6.2720   -3.4080   -1.3310 C   0  0  0  0  0  0  0  0  0  0  0  0
    5.8400   -2.4160   -0.4680 C   0  0  0  0  0  0  0  0  0  0  0  0
    4.5060   -2.3960   -0.1330 C   0  0  0  0  0  0  0  0  0  0  0  0
    3.6430   -3.3520   -0.6590 C   0  0  0  0  0  0  0  0  0  0  0  0
    0.5540   -1.6370   -1.6910 C   0  0  0  0  0  0  0  0  0  0  0  0
    1.1090   -2.3540   -2.5440 O   0  0  0  0  0  0  0  0  0  0  0  0
   -0.6670   -1.0340   -2.0270 O   0  0  0  0  0  0  0  0  0  0  0  0
   -0.7180   -0.8240    0.6940 H   0  0  0  0  0  0  0  0  0  0  0  0
    2.0860   -0.8660   -0.4770 H   0  0  0  0  0  0  0  0  0  0  0  0
    0.4760   -3.2690    0.5760 H   0  0  0  0  0  0  0  0  0  0  0  0
    1.9080   -2.4950    1.3470 H   0  0  0  0  0  0  0  0  0  0  0  0
    0.9100   -5.0310   -1.2880 H   0  0  0  0  0  0  0  0  0  0  0  0
    3.0710   -5.9210   -2.4880 H   0  0  0  0  0  0  0  0  0  0  0  0
    5.7300   -5.1440   -2.5300 H   0  0  0  0  0  0  0  0  0  0  0  0
    7.3270   -3.4420   -1.6090 H   0  0  0  0  0  0  0  0  0  0  0  0
    6.5570   -1.6900   -0.0830 H   0  0  0  0  0  0  0  0  0  0  0  0
    4.1140   -1.6450    0.5360 H   0  0  0  0  0  0  0  0  0  0  0  0
  1  2  1  0  0  0  0
  1  8  1  0  0  0  0
  2  3  1  0  0  0  0
  2  4  1  0  0  0  0
  3 13  1  0  0  0  0
  4 15  1  1  0  0  0
  5  4  1  0  0  0  0
  5 17  1  0  0  0  0
  6 21  1  0  0  0  0
  6  4  1  0  0  0  0
  7  6  2  0  0  0  0
  9  1  1  0  0  0  0
 10  1  1  0  0  0  0
 11  2  1  0  0  0  0
 12  3  1  0  0  0  0
 14  3  1  0  0  0  0
 16  5  1  0  0  0  0
 19 26  1  0  0  0  0
 19 18  1  0  0  0  0
 20 27  1  6  0  0  0
 20 21  1  0  0  0  0
 20 19  1  0  0  0  0
 21 28  1  0  0  0  0
 22 20  1  0  0  0  0
 23 22  2  0  0  0  0
 24 18  1  0  0  0  0
 25 19  1  0  0  0  0
 29 44  1  0  0  0  0
 29 22  1  0  0  0  0
 30 45  1  6  0  0  0
 30 31  1  0  0  0  0
 30 29  1  0  0  0  0
 31 46  1  0  0  0  0
 31 47  1  0  0  0  0
 32 31  1  0  0  0  0
 33 32  2  0  0  0  0
 34 35  1  0  0  0  0
 34 33  1  0  0  0  0
 35 40  1  0  0  0  0
 36 35  2  0  0  0  0
 36 37  1  0  0  0  0
 37 38  2  0  0  0  0
 38 39  1  0  0  0  0
 38 52  1  0  0  0  0
 39 53  1  0  0  0  0
 40 32  1  0  0  0  0
 40 39  2  0  0  0  0
 41 30  1  0  0  0  0
 42 41  2  0  0  0  0
 43 41  1  0  0  0  0
 48 33  1  0  0  0  0
 49 34  1  0  0  0  0
 50 36  1  0  0  0  0
 51 37  1  0  0  0  0
M  END
$$$$
