VTA.pdb
 OpenBabel07022419273D

 42 41  0  0  1  0  0  0  0  0999 V2000
   -0.7850   -4.3530   -0.3920 C   0  0  0  0  0  0  0  0  0  0  0  0
    0.3760   -4.3680    0.5640 C   0  0  0  0  0  0  0  0  0  0  0  0
    1.6420   -4.6100   -0.2260 C   0  0  0  0  0  0  0  0  0  0  0  0
    0.4670   -3.0880    1.3720 C   0  0  2  0  0  0  0  0  0  0  0  0
   -0.7010   -2.8510    2.1580 N   0  0  0  0  0  0  0  0  0  0  0  0
    0.7860   -1.9250    0.5170 C   0  0  0  0  0  0  0  0  0  0  0  0
    1.7800   -1.9360   -0.2510 O   0  0  0  0  0  0  0  0  0  0  0  0
   -1.5530   -3.6020   -0.1280 H   0  0  0  0  0  0  0  0  0  0  0  0
   -1.2950   -5.3390   -0.4110 H   0  0  0  0  0  0  0  0  0  0  0  0
   -0.4100   -4.2030   -1.4430 H   0  0  0  0  0  0  0  0  0  0  0  0
    0.2510   -5.2460    1.2300 H   0  0  0  0  0  0  0  0  0  0  0  0
    1.6540   -5.7070   -0.4770 H   0  0  0  0  0  0  0  0  0  0  0  0
    1.6680   -4.0800   -1.1840 H   0  0  0  0  0  0  0  0  0  0  0  0
    2.5450   -4.4380    0.3970 H   0  0  0  0  0  0  0  0  0  0  0  0
    1.3280   -3.2190    2.0650 H   0  0  0  0  0  0  0  0  0  0  0  0
   -1.5080   -3.4290    1.9090 H   0  0  0  0  0  0  0  0  0  0  0  0
   -0.5240   -2.7870    3.1830 H   0  0  0  0  0  0  0  0  0  0  0  0
   -0.2130    1.8670   -2.1800 C   0  0  0  0  0  0  0  0  0  0  0  0
   -0.7230    0.7380   -1.3100 C   0  0  1  0  0  0  0  0  0  0  0  0
   -0.9970   -0.3340   -2.1550 O   0  0  0  0  0  0  0  0  0  0  0  0
    0.3390    0.3500   -0.3220 C   0  0  2  0  0  0  0  0  0  0  0  0
    0.0040   -0.7410    0.5100 N   0  0  0  0  0  0  0  0  0  0  0  0
    0.7080    1.5200    0.5320 C   0  0  0  0  0  0  0  0  0  0  0  0
    1.0500    2.6350    0.0370 O   0  0  0  0  0  0  0  0  0  0  0  0
   -0.7090    1.7810   -3.1700 H   0  0  0  0  0  0  0  0  0  0  0  0
    0.8750    1.8090   -2.3600 H   0  0  0  0  0  0  0  0  0  0  0  0
   -0.5290    2.8590   -1.7760 H   0  0  0  0  0  0  0  0  0  0  0  0
   -1.6350    1.1350   -0.8180 H   0  0  0  0  0  0  0  0  0  0  0  0
   -1.5840    0.0100   -2.8800 H   0  0  0  0  0  0  0  0  0  0  0  0
    1.2500    0.1080   -0.9050 H   0  0  0  0  0  0  0  0  0  0  0  0
   -0.8360   -0.6680    1.1270 H   0  0  0  0  0  0  0  0  0  0  0  0
   -0.1190    3.0050    3.6600 C   0  0  0  0  0  0  0  0  0  0  0  0
    1.0420    2.5500    2.8120 C   0  0  2  0  0  0  0  0  0  0  0  0
    0.6940    1.4450    1.9560 N   0  0  0  0  0  0  0  0  0  0  0  0
    2.2520    2.2860    3.6130 C   0  0  0  0  0  0  0  0  0  0  0  0
    2.8330    1.1810    3.4780 O   0  0  0  0  0  0  0  0  0  0  0  0
    2.7910    3.1900    4.5110 O   0  0  0  0  0  0  0  0  0  0  0  0
    0.0260    2.5370    4.6650 H   0  0  0  0  0  0  0  0  0  0  0  0
   -0.0370    4.0860    3.8080 H   0  0  0  0  0  0  0  0  0  0  0  0
   -1.0950    2.6690    3.2990 H   0  0  0  0  0  0  0  0  0  0  0  0
    1.2980    3.4040    2.1270 H   0  0  0  0  0  0  0  0  0  0  0  0
    0.4030    0.4990    2.3450 H   0  0  0  0  0  0  0  0  0  0  0  0
  1  8  1  0  0  0  0
  1  2  1  0  0  0  0
  2 11  1  0  0  0  0
  2  4  1  0  0  0  0
  3 14  1  0  0  0  0
  3  2  1  0  0  0  0
  4 15  1  1  0  0  0
  4  5  1  0  0  0  0
  5 17  1  0  0  0  0
  6  4  1  0  0  0  0
  7  6  2  0  0  0  0
  9  1  1  0  0  0  0
 10  1  1  0  0  0  0
 12  3  1  0  0  0  0
 13  3  1  0  0  0  0
 16  5  1  0  0  0  0
 18 27  1  0  0  0  0
 18 19  1  0  0  0  0
 19 28  1  1  0  0  0
 19 21  1  0  0  0  0
 20 19  1  0  0  0  0
 21 30  1  6  0  0  0
 21 22  1  0  0  0  0
 21 23  1  0  0  0  0
 22  6  1  0  0  0  0
 22 31  1  0  0  0  0
 23 34  1  0  0  0  0
 24 23  2  0  0  0  0
 25 18  1  0  0  0  0
 26 18  1  0  0  0  0
 29 20  1  0  0  0  0
 32 39  1  0  0  0  0
 32 38  1  0  0  0  0
 33 41  1  6  0  0  0
 33 35  1  0  0  0  0
 33 32  1  0  0  0  0
 34 42  1  0  0  0  0
 34 33  1  0  0  0  0
 35 37  1  0  0  0  0
 36 35  2  0  0  0  0
 40 32  1  0  0  0  0
M  END
$$$$
