VTC.pdb
 OpenBabel07022419273D

 43 42  0  0  1  0  0  0  0  0999 V2000
    2.7050   -4.2220    1.1190 C   0  0  0  0  0  0  0  0  0  0  0  0
    1.9560   -2.8800    0.9390 C   0  0  0  0  0  0  0  0  0  0  0  0
    0.9650   -2.8310    2.0640 C   0  0  0  0  0  0  0  0  0  0  0  0
    1.3440   -2.8440   -0.4280 C   0  0  2  0  0  0  0  0  0  0  0  0
    2.4470   -3.0030   -1.4070 N   0  0  0  0  0  0  0  0  0  0  0  0
    0.6410   -1.6380   -0.8140 C   0  0  0  0  0  0  0  0  0  0  0  0
    0.9650   -1.0210   -1.9020 O   0  0  0  0  0  0  0  0  0  0  0  0
    1.9220   -4.9520    1.4000 H   0  0  0  0  0  0  0  0  0  0  0  0
    3.1390   -4.5410    0.1710 H   0  0  0  0  0  0  0  0  0  0  0  0
    3.4070   -4.1540    1.9590 H   0  0  0  0  0  0  0  0  0  0  0  0
    2.7140   -2.0940    1.0760 H   0  0  0  0  0  0  0  0  0  0  0  0
    1.3680   -3.4890    2.8940 H   0  0  0  0  0  0  0  0  0  0  0  0
    0.7860   -1.8480    2.4960 H   0  0  0  0  0  0  0  0  0  0  0  0
    0.0450   -3.3820    1.7390 H   0  0  0  0  0  0  0  0  0  0  0  0
    0.7510   -3.7850   -0.5370 H   0  0  0  0  0  0  0  0  0  0  0  0
    2.1410   -3.5860   -2.2040 H   0  0  0  0  0  0  0  0  0  0  0  0
    2.8450   -2.0900   -1.6490 H   0  0  0  0  0  0  0  0  0  0  0  0
   -3.0110    1.4090   -1.4600 C   0  0  0  0  0  0  0  0  0  0  0  0
   -2.5380    0.1310   -0.7690 C   0  0  1  0  0  0  0  0  0  0  0  0
   -2.8430   -0.9050   -1.6790 O   0  0  0  0  0  0  0  0  0  0  0  0
   -1.0610    0.2190   -0.6320 C   0  0  2  0  0  0  0  0  0  0  0  0
   -0.4200   -0.9730   -0.1530 N   0  0  0  0  0  0  0  0  0  0  0  0
   -0.7070    1.3340    0.2840 C   0  0  0  0  0  0  0  0  0  0  0  0
   -1.1990    2.4590    0.0750 O   0  0  0  0  0  0  0  0  0  0  0  0
   -3.7210    1.1910   -2.2980 H   0  0  0  0  0  0  0  0  0  0  0  0
   -3.4650    2.1260   -0.7700 H   0  0  0  0  0  0  0  0  0  0  0  0
   -2.1510    1.9190   -1.9740 H   0  0  0  0  0  0  0  0  0  0  0  0
   -3.0960    0.0570    0.1620 H   0  0  0  0  0  0  0  0  0  0  0  0
   -3.2970   -0.6010   -2.4800 H   0  0  0  0  0  0  0  0  0  0  0  0
   -0.6600    0.4890   -1.6610 H   0  0  0  0  0  0  0  0  0  0  0  0
   -0.7600   -1.3770    0.7420 H   0  0  0  0  0  0  0  0  0  0  0  0
    0.1620    1.2280    1.4010 N   0  0  0  0  0  0  0  0  0  0  0  0
    0.5180    2.2800    2.2950 C   0  0  1  0  0  0  0  0  0  0  0  0
    0.0410    2.1080    3.7000 C   0  0  0  0  0  0  0  0  0  0  0  0
    0.6800    0.6040    4.4860 S   0  0  0  0  0  0  0  0  0  0  0  0
    1.9440    2.6130    2.2940 C   0  0  0  0  0  0  0  0  0  0  0  0
    2.3530    3.5170    3.0620 O   0  0  0  0  0  0  0  0  0  0  0  0
    2.8470    1.9730    1.4850 O   0  0  0  0  0  0  0  0  0  0  0  0
    0.5780    0.2900    1.5750 H   0  0  0  0  0  0  0  0  0  0  0  0
   -0.0160    3.2000    1.9110 H   0  0  0  0  0  0  0  0  0  0  0  0
    0.4890    2.9660    4.2890 H   0  0  0  0  0  0  0  0  0  0  0  0
   -1.0470    2.2150    3.8200 H   0  0  0  0  0  0  0  0  0  0  0  0
    1.9110    0.8250    5.0830 H   0  0  0  0  0  0  0  0  0  0  0  0
  1  8  1  0  0  0  0
  1 10  1  0  0  0  0
  2 11  1  0  0  0  0
  2  1  1  0  0  0  0
  2  3  1  0  0  0  0
  3 13  1  0  0  0  0
  3 12  1  0  0  0  0
  4 15  1  6  0  0  0
  4  2  1  0  0  0  0
  5  4  1  0  0  0  0
  6  4  1  0  0  0  0
  6 22  1  0  0  0  0
  7  6  2  0  0  0  0
  9  1  1  0  0  0  0
 14  3  1  0  0  0  0
 16  5  1  0  0  0  0
 17  5  1  0  0  0  0
 18 26  1  0  0  0  0
 18 19  1  0  0  0  0
 19 21  1  0  0  0  0
 19 28  1  1  0  0  0
 20 19  1  0  0  0  0
 21 30  1  6  0  0  0
 21 22  1  0  0  0  0
 21 23  1  0  0  0  0
 22 31  1  0  0  0  0
 23 32  1  0  0  0  0
 24 23  2  0  0  0  0
 25 18  1  0  0  0  0
 27 18  1  0  0  0  0
 29 20  1  0  0  0  0
 32 39  1  0  0  0  0
 32 33  1  0  0  0  0
 33 40  1  6  0  0  0
 33 34  1  0  0  0  0
 34 42  1  0  0  0  0
 34 41  1  0  0  0  0
 34 35  1  0  0  0  0
 35 43  1  0  0  0  0
 36 33  1  0  0  0  0
 36 37  1  0  0  0  0
 38 36  2  0  0  0  0
M  END
$$$$
