VTG.pdb
 OpenBabel07022419273D

 39 38  0  0  1  0  0  0  0  0999 V2000
    0.0030   -3.0230    2.7830 C   0  0  0  0  0  0  0  0  0  0  0  0
   -0.1030   -3.3130    1.3080 C   0  0  0  0  0  0  0  0  0  0  0  0
   -0.5470   -4.7560    1.1660 C   0  0  0  0  0  0  0  0  0  0  0  0
    1.1970   -3.1130    0.5840 C   0  0  2  0  0  0  0  0  0  0  0  0
    2.2500   -3.9710    1.0910 N   0  0  0  0  0  0  0  0  0  0  0  0
    1.6500   -1.7360    0.4870 C   0  0  0  0  0  0  0  0  0  0  0  0
    2.8370   -1.4690    0.8350 O   0  0  0  0  0  0  0  0  0  0  0  0
   -1.0100   -2.7780    3.1590 H   0  0  0  0  0  0  0  0  0  0  0  0
    0.7490   -2.2460    3.0270 H   0  0  0  0  0  0  0  0  0  0  0  0
    0.3160   -3.9640    3.3220 H   0  0  0  0  0  0  0  0  0  0  0  0
   -0.9060   -2.6890    0.9030 H   0  0  0  0  0  0  0  0  0  0  0  0
    0.3170   -5.4050    0.9030 H   0  0  0  0  0  0  0  0  0  0  0  0
   -0.9660   -5.1630    2.1150 H   0  0  0  0  0  0  0  0  0  0  0  0
   -1.3460   -4.8700    0.4040 H   0  0  0  0  0  0  0  0  0  0  0  0
    1.0140   -3.4720   -0.4740 H   0  0  0  0  0  0  0  0  0  0  0  0
    2.9790   -3.3550    1.5130 H   0  0  0  0  0  0  0  0  0  0  0  0
    1.9220   -4.5930    1.8660 H   0  0  0  0  0  0  0  0  0  0  0  0
    0.0900    1.3860   -2.0170 C   0  0  0  0  0  0  0  0  0  0  0  0
    1.4650    1.2450   -1.4320 C   0  0  1  0  0  0  0  0  0  0  0  0
    2.0270    2.5230   -1.3620 O   0  0  0  0  0  0  0  0  0  0  0  0
    1.4480    0.7000   -0.0210 C   0  0  2  0  0  0  0  0  0  0  0  0
    0.8790   -0.6390    0.0300 N   0  0  0  0  0  0  0  0  0  0  0  0
    0.6680    1.6540    0.8110 C   0  0  0  0  0  0  0  0  0  0  0  0
    1.0650    2.8470    0.8470 O   0  0  0  0  0  0  0  0  0  0  0  0
    0.1160    0.9290   -3.0390 H   0  0  0  0  0  0  0  0  0  0  0  0
   -0.6860    0.8800   -1.4070 H   0  0  0  0  0  0  0  0  0  0  0  0
   -0.2030    2.4420   -2.1510 H   0  0  0  0  0  0  0  0  0  0  0  0
    2.1310    0.6160   -2.0570 H   0  0  0  0  0  0  0  0  0  0  0  0
    2.0810    2.9450   -2.2720 H   0  0  0  0  0  0  0  0  0  0  0  0
    2.5000    0.6960    0.3310 H   0  0  0  0  0  0  0  0  0  0  0  0
   -0.0890   -0.8240   -0.2610 H   0  0  0  0  0  0  0  0  0  0  0  0
   -0.4670    1.3090    1.5490 N   0  0  0  0  0  0  0  0  0  0  0  0
   -1.1700    2.2950    2.3340 C   0  0  0  0  0  0  0  0  0  0  0  0
   -1.6760    3.4100    1.4940 C   0  0  0  0  0  0  0  0  0  0  0  0
   -1.4620    3.3980    0.2560 O   0  0  0  0  0  0  0  0  0  0  0  0
   -2.3840    4.4790    2.0160 O   0  0  0  0  0  0  0  0  0  0  0  0
   -0.8190    0.3360    1.5400 H   0  0  0  0  0  0  0  0  0  0  0  0
   -0.4800    2.7670    3.0840 H   0  0  0  0  0  0  0  0  0  0  0  0
   -1.9990    1.8290    2.9130 H   0  0  0  0  0  0  0  0  0  0  0  0
  1  9  1  0  0  0  0
  1  8  1  0  0  0  0
  1 10  1  0  0  0  0
  2  1  1  0  0  0  0
  3  2  1  0  0  0  0
  3 13  1  0  0  0  0
  4 15  1  6  0  0  0
  4  5  1  0  0  0  0
  4  2  1  0  0  0  0
  5 16  1  0  0  0  0
  5 17  1  0  0  0  0
  6  4  1  0  0  0  0
  6  7  2  0  0  0  0
 11  2  1  0  0  0  0
 12  3  1  0  0  0  0
 14  3  1  0  0  0  0
 18 19  1  0  0  0  0
 18 26  1  0  0  0  0
 19 28  1  6  0  0  0
 19 20  1  0  0  0  0
 19 21  1  0  0  0  0
 21 22  1  0  0  0  0
 21 30  1  1  0  0  0
 21 23  1  0  0  0  0
 22  6  1  0  0  0  0
 23 24  2  0  0  0  0
 23 32  1  0  0  0  0
 25 18  1  0  0  0  0
 27 18  1  0  0  0  0
 29 20  1  0  0  0  0
 31 22  1  0  0  0  0
 32 33  1  0  0  0  0
 33 39  1  0  0  0  0
 33 38  1  0  0  0  0
 34 36  1  0  0  0  0
 34 33  1  0  0  0  0
 35 34  2  0  0  0  0
 37 32  1  0  0  0  0
M  END
$$$$
