VTI.pdb
 OpenBabel07022419273D

 51 50  0  0  1  0  0  0  0  0999 V2000
   -0.6190   -2.2480    3.4660 C   0  0  0  0  0  0  0  0  0  0  0  0
    0.6460   -2.7790    2.8020 C   0  0  0  0  0  0  0  0  0  0  0  0
    0.8400   -4.1840    3.3400 C   0  0  0  0  0  0  0  0  0  0  0  0
    1.8390   -1.9350    3.1240 C   0  0  2  0  0  0  0  0  0  0  0  0
    2.1170   -1.8700    4.5380 N   0  0  0  0  0  0  0  0  0  0  0  0
    1.8410   -0.5980    2.5700 C   0  0  0  0  0  0  0  0  0  0  0  0
    2.0670    0.3780    3.3350 O   0  0  0  0  0  0  0  0  0  0  0  0
   -1.1840   -3.0360    3.9910 H   0  0  0  0  0  0  0  0  0  0  0  0
   -0.3880   -1.4410    4.1870 H   0  0  0  0  0  0  0  0  0  0  0  0
   -1.3160   -1.8060    2.7240 H   0  0  0  0  0  0  0  0  0  0  0  0
    0.4280   -2.8770    1.7420 H   0  0  0  0  0  0  0  0  0  0  0  0
    0.1630   -4.8490    2.7720 H   0  0  0  0  0  0  0  0  0  0  0  0
    0.6560   -4.2350    4.4320 H   0  0  0  0  0  0  0  0  0  0  0  0
    1.9080   -4.4510    3.1020 H   0  0  0  0  0  0  0  0  0  0  0  0
    2.7250   -2.4780    2.6740 H   0  0  0  0  0  0  0  0  0  0  0  0
    1.6410   -1.0760    5.0120 H   0  0  0  0  0  0  0  0  0  0  0  0
    2.0080   -2.7770    5.0280 H   0  0  0  0  0  0  0  0  0  0  0  0
    2.9230    2.5980   -0.8180 C   0  0  0  0  0  0  0  0  0  0  0  0
    2.7430    1.1840   -0.3060 C   0  0  1  0  0  0  0  0  0  0  0  0
    3.9220    0.8690    0.3960 O   0  0  0  0  0  0  0  0  0  0  0  0
    1.6200    1.0980    0.7030 C   0  0  2  0  0  0  0  0  0  0  0  0
    1.6070   -0.2590    1.2130 N   0  0  0  0  0  0  0  0  0  0  0  0
    0.2990    1.3940    0.0710 C   0  0  0  0  0  0  0  0  0  0  0  0
    0.1070    2.5270   -0.4370 O   0  0  0  0  0  0  0  0  0  0  0  0
    2.8000    3.3460   -0.0160 H   0  0  0  0  0  0  0  0  0  0  0  0
    2.1920    2.7800   -1.6190 H   0  0  0  0  0  0  0  0  0  0  0  0
    3.9250    2.7580   -1.2530 H   0  0  0  0  0  0  0  0  0  0  0  0
    2.6280    0.4790   -1.1290 H   0  0  0  0  0  0  0  0  0  0  0  0
    3.8960   -0.0490    0.7430 H   0  0  0  0  0  0  0  0  0  0  0  0
    1.8370    1.8340    1.5060 H   0  0  0  0  0  0  0  0  0  0  0  0
    1.4180   -1.0350    0.5580 H   0  0  0  0  0  0  0  0  0  0  0  0
   -2.5290   -2.5580   -2.5200 C   0  0  0  0  0  0  0  0  0  0  0  0
   -2.2140   -1.6720   -1.3610 C   0  0  0  0  0  0  0  0  0  0  0  0
   -2.2850   -0.2330   -1.7670 C   0  0  2  0  0  0  0  0  0  0  0  0
   -1.3100    0.0960   -2.8680 C   0  0  0  0  0  0  0  0  0  0  0  0
   -2.0260    0.6660   -0.5650 C   0  0  2  0  0  0  0  0  0  0  0  0
   -0.7440    0.4520    0.0210 N   0  0  0  0  0  0  0  0  0  0  0  0
   -3.1370    0.5680    0.3960 C   0  0  0  0  0  0  0  0  0  0  0  0
   -2.8770    0.3160    1.5970 O   0  0  0  0  0  0  0  0  0  0  0  0
   -4.4650    0.7400    0.0480 O   0  0  0  0  0  0  0  0  0  0  0  0
   -1.6040   -3.0210   -2.9420 H   0  0  0  0  0  0  0  0  0  0  0  0
   -3.1160   -2.0500   -3.3230 H   0  0  0  0  0  0  0  0  0  0  0  0
   -3.1570   -3.4000   -2.1660 H   0  0  0  0  0  0  0  0  0  0  0  0
   -2.9630   -1.8310   -0.5600 H   0  0  0  0  0  0  0  0  0  0  0  0
   -1.1790   -1.8780   -1.0260 H   0  0  0  0  0  0  0  0  0  0  0  0
   -3.3230    0.0390   -2.1120 H   0  0  0  0  0  0  0  0  0  0  0  0
   -0.6440   -0.7250   -3.1360 H   0  0  0  0  0  0  0  0  0  0  0  0
   -1.8530    0.3930   -3.7930 H   0  0  0  0  0  0  0  0  0  0  0  0
   -0.6870    0.9870   -2.5770 H   0  0  0  0  0  0  0  0  0  0  0  0
   -2.0250    1.7190   -0.9760 H   0  0  0  0  0  0  0  0  0  0  0  0
   -0.5520   -0.4960    0.4590 H   0  0  0  0  0  0  0  0  0  0  0  0
  1  8  1  0  0  0  0
  1  9  1  0  0  0  0
  2  4  1  0  0  0  0
  2  3  1  0  0  0  0
  2  1  1  0  0  0  0
  3 13  1  0  0  0  0
  4 15  1  6  0  0  0
  4  5  1  0  0  0  0
  5 16  1  0  0  0  0
  5 17  1  0  0  0  0
  6  4  1  0  0  0  0
  6  7  2  0  0  0  0
 10  1  1  0  0  0  0
 11  2  1  0  0  0  0
 12  3  1  0  0  0  0
 14  3  1  0  0  0  0
 18 19  1  0  0  0  0
 18 25  1  0  0  0  0
 19 28  1  6  0  0  0
 19 20  1  0  0  0  0
 19 21  1  0  0  0  0
 20 29  1  0  0  0  0
 21 22  1  0  0  0  0
 21 30  1  1  0  0  0
 22  6  1  0  0  0  0
 23 21  1  0  0  0  0
 24 23  2  0  0  0  0
 26 18  1  0  0  0  0
 27 18  1  0  0  0  0
 31 22  1  0  0  0  0
 32 43  1  0  0  0  0
 32 33  1  0  0  0  0
 33 45  1  0  0  0  0
 33 44  1  0  0  0  0
 34 46  1  6  0  0  0
 34 33  1  0  0  0  0
 34 36  1  0  0  0  0
 35 49  1  0  0  0  0
 35 34  1  0  0  0  0
 36 50  1  6  0  0  0
 36 37  1  0  0  0  0
 36 38  1  0  0  0  0
 37 23  1  0  0  0  0
 37 51  1  0  0  0  0
 38 39  1  0  0  0  0
 40 38  2  0  0  0  0
 41 32  1  0  0  0  0
 42 32  1  0  0  0  0
 47 35  1  0  0  0  0
 48 35  1  0  0  0  0
M  END
$$$$
