VTP.pdb
 OpenBabel07022419273D

 46 46  0  0  1  0  0  0  0  0999 V2000
    1.5240   -5.3770    0.4050 C   0  0  0  0  0  0  0  0  0  0  0  0
    1.9210   -3.9620    0.7320 C   0  0  0  0  0  0  0  0  0  0  0  0
    2.5530   -3.9250    2.0870 C   0  0  0  0  0  0  0  0  0  0  0  0
    0.7320   -3.0240    0.6350 C   0  0  2  0  0  0  0  0  0  0  0  0
    0.1630   -3.0160   -0.6890 N   0  0  0  0  0  0  0  0  0  0  0  0
    1.1020   -1.6460    1.0420 C   0  0  0  0  0  0  0  0  0  0  0  0
    1.6170   -1.4150    2.1620 O   0  0  0  0  0  0  0  0  0  0  0  0
    2.1460   -5.7510   -0.4400 H   0  0  0  0  0  0  0  0  0  0  0  0
    1.6250   -6.0480    1.3000 H   0  0  0  0  0  0  0  0  0  0  0  0
    0.4550   -5.4380    0.1060 H   0  0  0  0  0  0  0  0  0  0  0  0
    2.6710   -3.6020    0.0000 H   0  0  0  0  0  0  0  0  0  0  0  0
    2.9410   -4.9390    2.3170 H   0  0  0  0  0  0  0  0  0  0  0  0
    3.3900   -3.1940    2.1410 H   0  0  0  0  0  0  0  0  0  0  0  0
    1.8150   -3.6710    2.8680 H   0  0  0  0  0  0  0  0  0  0  0  0
   -0.0470   -3.4350    1.3210 H   0  0  0  0  0  0  0  0  0  0  0  0
   -0.8670   -2.8570   -0.6990 H   0  0  0  0  0  0  0  0  0  0  0  0
    0.3450   -3.8830   -1.2260 H   0  0  0  0  0  0  0  0  0  0  0  0
    2.4570    2.8750   -0.2320 C   0  0  0  0  0  0  0  0  0  0  0  0
    2.0900    1.4620   -0.5590 C   0  0  1  0  0  0  0  0  0  0  0  0
    3.2940    0.7400   -0.6820 O   0  0  0  0  0  0  0  0  0  0  0  0
    1.2170    0.8250    0.5010 C   0  0  2  0  0  0  0  0  0  0  0  0
    0.8890   -0.5330    0.1840 N   0  0  0  0  0  0  0  0  0  0  0  0
    0.0920    1.6510    0.9010 C   0  0  0  0  0  0  0  0  0  0  0  0
    0.3450    2.9050    1.0810 O   0  0  0  0  0  0  0  0  0  0  0  0
    3.4300    3.0960   -0.7610 H   0  0  0  0  0  0  0  0  0  0  0  0
    2.6670    2.9980    0.8420 H   0  0  0  0  0  0  0  0  0  0  0  0
    1.7480    3.6290   -0.6390 H   0  0  0  0  0  0  0  0  0  0  0  0
    1.5800    1.4060   -1.5320 H   0  0  0  0  0  0  0  0  0  0  0  0
    4.0130    1.3580   -0.9340 H   0  0  0  0  0  0  0  0  0  0  0  0
    1.8820    0.7680    1.4360 H   0  0  0  0  0  0  0  0  0  0  0  0
    0.4760   -0.7560   -0.7680 H   0  0  0  0  0  0  0  0  0  0  0  0
   -1.2630    1.2750    1.1270 N   0  0  0  0  0  0  0  0  0  0  0  0
   -1.9270   -0.0020    1.0460 C   0  0  0  0  0  0  0  0  0  0  0  0
   -3.4010    0.3120    0.7580 C   0  0  0  0  0  0  0  0  0  0  0  0
   -3.4450    1.8180    0.6100 C   0  0  0  0  0  0  0  0  0  0  0  0
   -2.3250    2.2190    1.5330 C   0  0  1  0  0  0  0  0  0  0  0  0
   -2.7420    2.0030    2.9300 C   0  0  0  0  0  0  0  0  0  0  0  0
   -2.2300    1.1540    3.7060 O   0  0  0  0  0  0  0  0  0  0  0  0
   -3.7790    2.7590    3.5110 O   0  0  0  0  0  0  0  0  0  0  0  0
   -1.9270   -0.4390    2.0730 H   0  0  0  0  0  0  0  0  0  0  0  0
   -1.5300   -0.6960    0.3000 H   0  0  0  0  0  0  0  0  0  0  0  0
   -4.0770   -0.0760    1.5230 H   0  0  0  0  0  0  0  0  0  0  0  0
   -3.6660   -0.1740   -0.2130 H   0  0  0  0  0  0  0  0  0  0  0  0
   -3.1970    2.1330   -0.4270 H   0  0  0  0  0  0  0  0  0  0  0  0
   -4.4170    2.2490    0.9000 H   0  0  0  0  0  0  0  0  0  0  0  0
   -1.9830    3.2620    1.3510 H   0  0  0  0  0  0  0  0  0  0  0  0
  1  2  1  0  0  0  0
  1  9  1  0  0  0  0
  2  3  1  0  0  0  0
  3 13  1  0  0  0  0
  3 12  1  0  0  0  0
  3 14  1  0  0  0  0
  4  2  1  0  0  0  0
  4  6  1  0  0  0  0
  4 15  1  1  0  0  0
  5  4  1  0  0  0  0
  6  7  2  0  0  0  0
  8  1  1  0  0  0  0
 10  1  1  0  0  0  0
 11  2  1  0  0  0  0
 16  5  1  0  0  0  0
 17  5  1  0  0  0  0
 18 26  1  0  0  0  0
 19 28  1  6  0  0  0
 19 18  1  0  0  0  0
 19 21  1  0  0  0  0
 20 19  1  0  0  0  0
 21 23  1  0  0  0  0
 21 30  1  1  0  0  0
 22 21  1  0  0  0  0
 22  6  1  0  0  0  0
 23 24  2  0  0  0  0
 23 32  1  0  0  0  0
 25 18  1  0  0  0  0
 27 18  1  0  0  0  0
 29 20  1  0  0  0  0
 31 22  1  0  0  0  0
 32 36  1  0  0  0  0
 33 32  1  0  0  0  0
 33 40  1  0  0  0  0
 34 33  1  0  0  0  0
 34 42  1  0  0  0  0
 35 34  1  0  0  0  0
 35 45  1  0  0  0  0
 35 36  1  0  0  0  0
 36 46  1  6  0  0  0
 36 37  1  0  0  0  0
 37 39  2  0  0  0  0
 37 38  1  0  0  0  0
 41 33  1  0  0  0  0
 43 34  1  0  0  0  0
 44 35  1  0  0  0  0
M  END
$$$$
