VTR.pdb
 OpenBabel07022419273D

 55 54  0  0  1  0  0  0  0  0999 V2000
    3.0380   -3.5430    1.6710 C   0  0  0  0  0  0  0  0  0  0  0  0
    1.9870   -4.1750    2.5450 C   0  0  0  0  0  0  0  0  0  0  0  0
    2.5960   -5.2780    3.3690 C   0  0  0  0  0  0  0  0  0  0  0  0
    1.3270   -3.1240    3.4310 C   0  0  2  0  0  0  0  0  0  0  0  0
    0.3420   -3.8920    4.2200 N   0  0  0  0  0  0  0  0  0  0  0  0
    0.5570   -2.1290    2.6560 C   0  0  0  0  0  0  0  0  0  0  0  0
   -0.6990   -2.1900    2.6860 O   0  0  0  0  0  0  0  0  0  0  0  0
    3.7780   -4.3220    1.3270 H   0  0  0  0  0  0  0  0  0  0  0  0
    2.5900   -3.0790    0.7550 H   0  0  0  0  0  0  0  0  0  0  0  0
    3.6230   -2.8080    2.2400 H   0  0  0  0  0  0  0  0  0  0  0  0
    1.2150   -4.5970    1.8720 H   0  0  0  0  0  0  0  0  0  0  0  0
    2.6590   -6.2370    2.8190 H   0  0  0  0  0  0  0  0  0  0  0  0
    2.0000   -5.4100    4.3180 H   0  0  0  0  0  0  0  0  0  0  0  0
    3.6340   -5.0300    3.7020 H   0  0  0  0  0  0  0  0  0  0  0  0
    2.0390   -2.6790    4.1310 H   0  0  0  0  0  0  0  0  0  0  0  0
   -0.2520   -4.4170    3.5390 H   0  0  0  0  0  0  0  0  0  0  0  0
   -0.2810   -3.1640    4.6400 H   0  0  0  0  0  0  0  0  0  0  0  0
    0.0590    1.3160    3.1340 C   0  0  0  0  0  0  0  0  0  0  0  0
    0.5020    1.2700    1.7000 C   0  0  1  0  0  0  0  0  0  0  0  0
    1.8460    1.6460    1.6390 O   0  0  0  0  0  0  0  0  0  0  0  0
    0.3210   -0.1400    1.1210 C   0  0  2  0  0  0  0  0  0  0  0  0
    1.1030   -1.0940    1.8670 N   0  0  0  0  0  0  0  0  0  0  0  0
    0.6030   -0.1660   -0.3190 C   0  0  0  0  0  0  0  0  0  0  0  0
    1.4470   -0.9550   -0.8030 O   0  0  0  0  0  0  0  0  0  0  0  0
   -0.6250    0.4650    3.3970 H   0  0  0  0  0  0  0  0  0  0  0  0
   -0.5230    2.2390    3.3430 H   0  0  0  0  0  0  0  0  0  0  0  0
    0.8940    1.2510    3.8600 H   0  0  0  0  0  0  0  0  0  0  0  0
   -0.0530    2.0120    1.0940 H   0  0  0  0  0  0  0  0  0  0  0  0
    2.3030    1.5550    2.5200 H   0  0  0  0  0  0  0  0  0  0  0  0
   -0.7550   -0.4010    1.3050 H   0  0  0  0  0  0  0  0  0  0  0  0
    2.1370   -1.0020    1.8200 H   0  0  0  0  0  0  0  0  0  0  0  0
   -4.9060    1.9950   -0.3230 N   0  0  0  0  0  0  0  0  0  0  0  0
   -4.0580    0.8800   -0.5170 C   0  0  0  0  0  0  0  0  0  0  0  0
   -3.9530    0.0020    0.4430 N   0  0  0  0  0  0  0  0  0  0  0  0
   -3.3350    0.7110   -1.7230 N   0  0  0  0  0  0  0  0  0  0  0  0
   -2.6280   -0.5060   -2.0270 C   0  0  0  0  0  0  0  0  0  0  0  0
   -1.9370   -0.4530   -3.3580 C   0  0  0  0  0  0  0  0  0  0  0  0
   -0.9290    0.6220   -3.5150 C   0  0  0  0  0  0  0  0  0  0  0  0
    0.2680    0.6110   -2.6290 C   0  0  2  0  0  0  0  0  0  0  0  0
   -0.0680    0.7040   -1.2490 N   0  0  0  0  0  0  0  0  0  0  0  0
    1.1950    1.7270   -3.0420 C   0  0  0  0  0  0  0  0  0  0  0  0
    1.5380    2.5490   -2.1830 O   0  0  0  0  0  0  0  0  0  0  0  0
    1.6500    1.8390   -4.3250 O   0  0  0  0  0  0  0  0  0  0  0  0
   -4.6570    2.8930   -0.7820 H   0  0  0  0  0  0  0  0  0  0  0  0
   -5.7700    1.9670    0.2550 H   0  0  0  0  0  0  0  0  0  0  0  0
   -4.4780    0.1190    1.3260 H   0  0  0  0  0  0  0  0  0  0  0  0
   -3.3160    1.4900   -2.4050 H   0  0  0  0  0  0  0  0  0  0  0  0
   -3.3670   -1.3560   -2.0930 H   0  0  0  0  0  0  0  0  0  0  0  0
   -1.9370   -0.7860   -1.2460 H   0  0  0  0  0  0  0  0  0  0  0  0
   -2.7380   -0.2610   -4.1330 H   0  0  0  0  0  0  0  0  0  0  0  0
   -1.5140   -1.4770   -3.5430 H   0  0  0  0  0  0  0  0  0  0  0  0
   -0.5820    0.7060   -4.6000 H   0  0  0  0  0  0  0  0  0  0  0  0
   -1.5090    1.5990   -3.4040 H   0  0  0  0  0  0  0  0  0  0  0  0
    0.8550   -0.3330   -2.8550 H   0  0  0  0  0  0  0  0  0  0  0  0
   -0.7750    1.3730   -0.8680 H   0  0  0  0  0  0  0  0  0  0  0  0
  1 10  1  0  0  0  0
  1  2  1  0  0  0  0
  2  3  1  0  0  0  0
  2  4  1  0  0  0  0
  3 14  1  0  0  0  0
  3 13  1  0  0  0  0
  4 15  1  1  0  0  0
  4  5  1  0  0  0  0
  5 17  1  0  0  0  0
  6  7  2  0  0  0  0
  6  4  1  0  0  0  0
  8  1  1  0  0  0  0
  9  1  1  0  0  0  0
 11  2  1  0  0  0  0
 12  3  1  0  0  0  0
 16  5  1  0  0  0  0
 18 26  1  0  0  0  0
 18 25  1  0  0  0  0
 18 27  1  0  0  0  0
 19 28  1  6  0  0  0
 19 18  1  0  0  0  0
 20 19  1  0  0  0  0
 20 29  1  0  0  0  0
 21 30  1  1  0  0  0
 21 19  1  0  0  0  0
 21 22  1  0  0  0  0
 22  6  1  0  0  0  0
 23 21  1  0  0  0  0
 24 23  2  0  0  0  0
 31 22  1  0  0  0  0
 32 45  1  0  0  0  0
 33 32  1  0  0  0  0
 33 34  2  0  0  0  0
 34 46  1  0  0  0  0
 35 33  1  0  0  0  0
 36 35  1  0  0  0  0
 36 49  1  0  0  0  0
 37 36  1  0  0  0  0
 38 53  1  0  0  0  0
 38 37  1  0  0  0  0
 38 39  1  0  0  0  0
 39 54  1  6  0  0  0
 39 40  1  0  0  0  0
 40 55  1  0  0  0  0
 40 23  1  0  0  0  0
 41 39  1  0  0  0  0
 41 42  1  0  0  0  0
 43 41  2  0  0  0  0
 44 32  1  0  0  0  0
 47 35  1  0  0  0  0
 48 36  1  0  0  0  0
 50 37  1  0  0  0  0
 51 37  1  0  0  0  0
 52 38  1  0  0  0  0
M  END
$$$$
