VTW.pdb
 OpenBabel07022419273D

 56 57  0  0  1  0  0  0  0  0999 V2000
   -1.1640   -1.5360    2.4510 C   0  0  0  0  0  0  0  0  0  0  0  0
   -0.0890   -1.1040    3.4020 C   0  0  0  0  0  0  0  0  0  0  0  0
   -0.6580   -0.9730    4.7970 C   0  0  0  0  0  0  0  0  0  0  0  0
    0.5300    0.2200    3.0070 C   0  0  2  0  0  0  0  0  0  0  0  0
   -0.4920    1.2180    2.9950 N   0  0  0  0  0  0  0  0  0  0  0  0
    1.2850    0.1500    1.7340 C   0  0  0  0  0  0  0  0  0  0  0  0
    2.2180   -0.6670    1.5410 O   0  0  0  0  0  0  0  0  0  0  0  0
   -0.7940   -2.3490    1.7620 H   0  0  0  0  0  0  0  0  0  0  0  0
   -1.5780   -0.6900    1.8570 H   0  0  0  0  0  0  0  0  0  0  0  0
   -1.9710   -2.0200    3.0470 H   0  0  0  0  0  0  0  0  0  0  0  0
    0.6690   -1.9180    3.4230 H   0  0  0  0  0  0  0  0  0  0  0  0
   -0.3110   -0.0270    5.2560 H   0  0  0  0  0  0  0  0  0  0  0  0
   -1.7500   -0.9980    4.7320 H   0  0  0  0  0  0  0  0  0  0  0  0
   -0.2800   -1.8010    5.4630 H   0  0  0  0  0  0  0  0  0  0  0  0
    1.2770    0.5020    3.7960 H   0  0  0  0  0  0  0  0  0  0  0  0
   -0.1680    2.1870    2.9150 H   0  0  0  0  0  0  0  0  0  0  0  0
   -1.2810    1.0420    3.6260 H   0  0  0  0  0  0  0  0  0  0  0  0
    3.9460    1.2980    0.1920 C   0  0  0  0  0  0  0  0  0  0  0  0
    2.8630    1.7840   -0.7100 C   0  0  1  0  0  0  0  0  0  0  0  0
    3.3480    1.7780   -2.0200 O   0  0  0  0  0  0  0  0  0  0  0  0
    1.5480    1.1160   -0.5990 C   0  0  2  0  0  0  0  0  0  0  0  0
    0.9400    1.0500    0.6750 N   0  0  0  0  0  0  0  0  0  0  0  0
    1.5200   -0.1780   -1.3760 C   0  0  0  0  0  0  0  0  0  0  0  0
    2.2020   -0.2550   -2.4280 O   0  0  0  0  0  0  0  0  0  0  0  0
    3.7580    1.5600    1.2560 H   0  0  0  0  0  0  0  0  0  0  0  0
    4.8580    1.9240   -0.0690 H   0  0  0  0  0  0  0  0  0  0  0  0
    4.2750    0.2670    0.0220 H   0  0  0  0  0  0  0  0  0  0  0  0
    2.7360    2.8840   -0.4720 H   0  0  0  0  0  0  0  0  0  0  0  0
    4.0940    2.4460   -2.0400 H   0  0  0  0  0  0  0  0  0  0  0  0
    0.8360    1.7710   -1.2340 H   0  0  0  0  0  0  0  0  0  0  0  0
    0.1410    1.7220    0.9130 H   0  0  0  0  0  0  0  0  0  0  0  0
    0.7640   -1.2910   -0.9750 N   0  0  0  0  0  0  0  0  0  0  0  0
    0.6430   -2.5720   -1.5650 C   0  0  1  0  0  0  0  0  0  0  0  0
   -0.6060   -2.8480   -2.3370 C   0  0  0  0  0  0  0  0  0  0  0  0
   -1.7760   -2.7060   -1.4640 C   0  0  0  0  0  0  0  0  0  0  0  0
   -2.4340   -3.7810   -0.8710 C   0  0  0  0  0  0  0  0  0  0  0  0
   -3.4460   -3.3240   -0.1230 N   0  0  0  0  0  0  0  0  0  0  0  0
   -3.4690   -1.9930   -0.2090 C   0  0  0  0  0  0  0  0  0  0  0  0
   -4.2910   -1.0380    0.3470 C   0  0  0  0  0  0  0  0  0  0  0  0
   -4.1310    0.3120    0.1100 C   0  0  0  0  0  0  0  0  0  0  0  0
   -3.0980    0.6930   -0.7210 C   0  0  0  0  0  0  0  0  0  0  0  0
   -2.2700   -0.2580   -1.2810 C   0  0  0  0  0  0  0  0  0  0  0  0
   -2.4450   -1.5860   -1.0340 C   0  0  0  0  0  0  0  0  0  0  0  0
    1.8550   -3.1150   -2.2370 C   0  0  0  0  0  0  0  0  0  0  0  0
    2.9460   -2.5500   -2.1770 O   0  0  0  0  0  0  0  0  0  0  0  0
    1.7930   -4.3020   -2.9680 O   0  0  0  0  0  0  0  0  0  0  0  0
    0.1810   -1.1070   -0.0770 H   0  0  0  0  0  0  0  0  0  0  0  0
    0.5920   -3.2900   -0.6440 H   0  0  0  0  0  0  0  0  0  0  0  0
   -0.5480   -3.9170   -2.6920 H   0  0  0  0  0  0  0  0  0  0  0  0
   -0.6850   -2.2330   -3.2620 H   0  0  0  0  0  0  0  0  0  0  0  0
   -2.1800   -4.8370   -0.9860 H   0  0  0  0  0  0  0  0  0  0  0  0
   -4.1300   -3.8720    0.4500 H   0  0  0  0  0  0  0  0  0  0  0  0
   -5.1000   -1.3430    0.9970 H   0  0  0  0  0  0  0  0  0  0  0  0
   -4.7970    1.0380    0.5650 H   0  0  0  0  0  0  0  0  0  0  0  0
   -2.9630    1.7620   -0.9150 H   0  0  0  0  0  0  0  0  0  0  0  0
   -1.4710    0.0600   -1.9290 H   0  0  0  0  0  0  0  0  0  0  0  0
  1 10  1  0  0  0  0
  1  2  1  0  0  0  0
  2 11  1  0  0  0  0
  2  3  1  0  0  0  0
  3 12  1  0  0  0  0
  3 14  1  0  0  0  0
  4  2  1  0  0  0  0
  4 15  1  1  0  0  0
  5  4  1  0  0  0  0
  5 17  1  0  0  0  0
  6  4  1  0  0  0  0
  7  6  2  0  0  0  0
  8  1  1  0  0  0  0
  9  1  1  0  0  0  0
 13  3  1  0  0  0  0
 16  5  1  0  0  0  0
 18 25  1  0  0  0  0
 19 21  1  0  0  0  0
 19 28  1  1  0  0  0
 19 18  1  0  0  0  0
 20 19  1  0  0  0  0
 21 30  1  6  0  0  0
 21 22  1  0  0  0  0
 22 31  1  0  0  0  0
 22  6  1  0  0  0  0
 23 32  1  0  0  0  0
 23 21  1  0  0  0  0
 24 23  2  0  0  0  0
 26 18  1  0  0  0  0
 27 18  1  0  0  0  0
 29 20  1  0  0  0  0
 32 47  1  0  0  0  0
 33 32  1  0  0  0  0
 33 48  1  1  0  0  0
 34 33  1  0  0  0  0
 34 35  1  0  0  0  0
 35 43  1  0  0  0  0
 35 36  2  0  0  0  0
 36 37  1  0  0  0  0
 37 52  1  0  0  0  0
 38 37  1  0  0  0  0
 38 39  1  0  0  0  0
 39 53  1  0  0  0  0
 40 39  2  0  0  0  0
 40 54  1  0  0  0  0
 41 40  1  0  0  0  0
 42 43  1  0  0  0  0
 42 41  2  0  0  0  0
 43 38  2  0  0  0  0
 44 45  1  0  0  0  0
 44 33  1  0  0  0  0
 46 44  2  0  0  0  0
 49 34  1  0  0  0  0
 50 34  1  0  0  0  0
 51 36  1  0  0  0  0
 55 41  1  0  0  0  0
 56 42  1  0  0  0  0
M  END
$$$$
