VTY.pdb
 OpenBabel07022419273D

 53 53  0  0  1  0  0  0  0  0999 V2000
    2.4080   -3.3660    4.3440 C   0  0  0  0  0  0  0  0  0  0  0  0
    1.6800   -2.5810    3.2700 C   0  0  0  0  0  0  0  0  0  0  0  0
    0.2300   -2.4880    3.6090 C   0  0  0  0  0  0  0  0  0  0  0  0
    2.3680   -1.2580    3.1040 C   0  0  2  0  0  0  0  0  0  0  0  0
    2.3970   -0.4530    4.2800 N   0  0  0  0  0  0  0  0  0  0  0  0
    1.8390   -0.4820    1.9500 C   0  0  0  0  0  0  0  0  0  0  0  0
    1.4820    0.7300    2.1490 O   0  0  0  0  0  0  0  0  0  0  0  0
    3.1520   -2.7140    4.8660 H   0  0  0  0  0  0  0  0  0  0  0  0
    1.7120   -3.7590    5.1140 H   0  0  0  0  0  0  0  0  0  0  0  0
    3.0070   -4.1960    3.9080 H   0  0  0  0  0  0  0  0  0  0  0  0
    1.7910   -3.1450    2.3220 H   0  0  0  0  0  0  0  0  0  0  0  0
   -0.0990   -1.5020    3.9550 H   0  0  0  0  0  0  0  0  0  0  0  0
   -0.0430   -3.2250    4.4020 H   0  0  0  0  0  0  0  0  0  0  0  0
   -0.4190   -2.7580    2.7350 H   0  0  0  0  0  0  0  0  0  0  0  0
    3.4280   -1.4970    2.8510 H   0  0  0  0  0  0  0  0  0  0  0  0
    3.2540   -0.4650    4.8270 H   0  0  0  0  0  0  0  0  0  0  0  0
    1.8930    0.4440    4.2250 H   0  0  0  0  0  0  0  0  0  0  0  0
    3.3260    0.8570   -0.8860 C   0  0  0  0  0  0  0  0  0  0  0  0
    2.2030    0.0510   -1.5260 C   0  0  1  0  0  0  0  0  0  0  0  0
    2.6410   -1.1150   -2.1020 O   0  0  0  0  0  0  0  0  0  0  0  0
    1.1680   -0.1570   -0.4390 C   0  0  2  0  0  0  0  0  0  0  0  0
    1.6930   -0.9720    0.6410 N   0  0  0  0  0  0  0  0  0  0  0  0
   -0.0360   -0.7940   -1.0240 C   0  0  0  0  0  0  0  0  0  0  0  0
   -0.4780   -1.9120   -0.5910 O   0  0  0  0  0  0  0  0  0  0  0  0
    3.9750    1.3350   -1.6290 H   0  0  0  0  0  0  0  0  0  0  0  0
    3.8570    0.1690   -0.1990 H   0  0  0  0  0  0  0  0  0  0  0  0
    2.8160    1.6770   -0.3110 H   0  0  0  0  0  0  0  0  0  0  0  0
    1.7240    0.6650   -2.3150 H   0  0  0  0  0  0  0  0  0  0  0  0
    3.6180   -1.0570   -2.2760 H   0  0  0  0  0  0  0  0  0  0  0  0
    0.8820    0.8400   -0.0610 H   0  0  0  0  0  0  0  0  0  0  0  0
    1.9780   -1.9600    0.4610 H   0  0  0  0  0  0  0  0  0  0  0  0
   -3.3420    0.6060    3.2680 O   0  0  0  0  0  0  0  0  0  0  0  0
   -3.3100    0.4380    1.8720 C   0  0  0  0  0  0  0  0  0  0  0  0
   -3.9970   -0.5970    1.2710 C   0  0  0  0  0  0  0  0  0  0  0  0
   -3.9490   -0.7380   -0.0900 C   0  0  0  0  0  0  0  0  0  0  0  0
   -3.2220    0.1490   -0.8360 C   0  0  0  0  0  0  0  0  0  0  0  0
   -3.1320    0.0420   -2.3190 C   0  0  0  0  0  0  0  0  0  0  0  0
   -1.9250   -0.8350   -2.6460 C   0  0  2  0  0  0  0  0  0  0  0  0
   -0.7470   -0.1820   -2.0910 N   0  0  0  0  0  0  0  0  0  0  0  0
   -1.7810   -1.0540   -4.0980 C   0  0  0  0  0  0  0  0  0  0  0  0
   -0.7310   -0.6900   -4.7020 O   0  0  0  0  0  0  0  0  0  0  0  0
   -2.5330    1.1880   -0.2360 C   0  0  0  0  0  0  0  0  0  0  0  0
   -2.5780    1.3350    1.1410 C   0  0  0  0  0  0  0  0  0  0  0  0
   -2.7830   -1.6590   -4.8390 O   0  0  0  0  0  0  0  0  0  0  0  0
   -4.2330    0.6060    3.7570 H   0  0  0  0  0  0  0  0  0  0  0  0
   -4.5570   -1.2700    1.9110 H   0  0  0  0  0  0  0  0  0  0  0  0
   -4.4890   -1.5480   -0.5470 H   0  0  0  0  0  0  0  0  0  0  0  0
   -4.0720   -0.4660   -2.6580 H   0  0  0  0  0  0  0  0  0  0  0  0
   -2.9810    1.0020   -2.8140 H   0  0  0  0  0  0  0  0  0  0  0  0
   -2.1190   -1.7990   -2.1400 H   0  0  0  0  0  0  0  0  0  0  0  0
   -0.4060    0.7410   -2.4660 H   0  0  0  0  0  0  0  0  0  0  0  0
   -1.9460    1.9120   -0.7810 H   0  0  0  0  0  0  0  0  0  0  0  0
   -2.0530    2.1370    1.6610 H   0  0  0  0  0  0  0  0  0  0  0  0
  1  8  1  0  0  0  0
  1  9  1  0  0  0  0
  2  3  1  0  0  0  0
  2  1  1  0  0  0  0
  3 12  1  0  0  0  0
  3 13  1  0  0  0  0
  4 15  1  6  0  0  0
  4  2  1  0  0  0  0
  4  5  1  0  0  0  0
  5 16  1  0  0  0  0
  6  7  2  0  0  0  0
  6  4  1  0  0  0  0
 10  1  1  0  0  0  0
 11  2  1  0  0  0  0
 14  3  1  0  0  0  0
 17  5  1  0  0  0  0
 18 27  1  0  0  0  0
 18 26  1  0  0  0  0
 19 28  1  6  0  0  0
 19 18  1  0  0  0  0
 19 21  1  0  0  0  0
 20 19  1  0  0  0  0
 21 30  1  1  0  0  0
 21 22  1  0  0  0  0
 22  6  1  0  0  0  0
 23 24  2  0  0  0  0
 23 21  1  0  0  0  0
 25 18  1  0  0  0  0
 29 20  1  0  0  0  0
 31 22  1  0  0  0  0
 32 45  1  0  0  0  0
 33 32  1  0  0  0  0
 34 33  1  0  0  0  0
 34 46  1  0  0  0  0
 35 34  2  0  0  0  0
 36 42  2  0  0  0  0
 36 35  1  0  0  0  0
 37 36  1  0  0  0  0
 38 37  1  0  0  0  0
 38 50  1  1  0  0  0
 38 39  1  0  0  0  0
 39 23  1  0  0  0  0
 40 38  1  0  0  0  0
 41 40  1  0  0  0  0
 42 43  1  0  0  0  0
 43 53  1  0  0  0  0
 43 33  2  0  0  0  0
 44 40  2  0  0  0  0
 47 35  1  0  0  0  0
 48 37  1  0  0  0  0
 49 37  1  0  0  0  0
 51 39  1  0  0  0  0
 52 42  1  0  0  0  0
M  END
$$$$
