VVF.pdb
 OpenBabel07022419283D

 54 54  0  0  1  0  0  0  0  0999 V2000
    3.5790   -2.8220    3.7470 C   0  0  0  0  0  0  0  0  0  0  0  0
    2.7350   -3.9340    3.1840 C   0  0  0  0  0  0  0  0  0  0  0  0
    1.9010   -4.4820    4.3300 C   0  0  0  0  0  0  0  0  0  0  0  0
    1.8530   -3.4720    2.0430 C   0  0  2  0  0  0  0  0  0  0  0  0
    2.6660   -2.9590    0.9830 N   0  0  0  0  0  0  0  0  0  0  0  0
    0.8160   -2.5240    2.4960 C   0  0  0  0  0  0  0  0  0  0  0  0
    0.0080   -2.8000    3.4180 O   0  0  0  0  0  0  0  0  0  0  0  0
    3.9120   -3.1680    4.7660 H   0  0  0  0  0  0  0  0  0  0  0  0
    4.4890   -2.6370    3.1260 H   0  0  0  0  0  0  0  0  0  0  0  0
    2.9900   -1.9160    3.9000 H   0  0  0  0  0  0  0  0  0  0  0  0
    3.4180   -4.7480    2.8680 H   0  0  0  0  0  0  0  0  0  0  0  0
    1.0330   -5.0550    3.9650 H   0  0  0  0  0  0  0  0  0  0  0  0
    1.5910   -3.6340    4.9950 H   0  0  0  0  0  0  0  0  0  0  0  0
    2.5480   -5.1670    4.9040 H   0  0  0  0  0  0  0  0  0  0  0  0
    1.3480   -4.4010    1.6580 H   0  0  0  0  0  0  0  0  0  0  0  0
    2.0920   -2.6500    0.1730 H   0  0  0  0  0  0  0  0  0  0  0  0
    3.3800   -2.2690    1.2870 H   0  0  0  0  0  0  0  0  0  0  0  0
    1.1840    0.6170    4.1190 C   0  0  0  0  0  0  0  0  0  0  0  0
    0.3510    0.9350    2.9150 C   0  0  0  0  0  0  0  0  0  0  0  0
    1.2340    1.6340    1.9020 C   0  0  0  0  0  0  0  0  0  0  0  0
   -0.3070   -0.2890    2.3100 C   0  0  2  0  0  0  0  0  0  0  0  0
    0.6840   -1.2360    1.9000 N   0  0  0  0  0  0  0  0  0  0  0  0
   -1.1830    0.1520    1.2010 C   0  0  0  0  0  0  0  0  0  0  0  0
   -2.1000    0.9860    1.4230 O   0  0  0  0  0  0  0  0  0  0  0  0
    1.1310   -0.4580    4.3210 H   0  0  0  0  0  0  0  0  0  0  0  0
    0.8480    1.1870    5.0340 H   0  0  0  0  0  0  0  0  0  0  0  0
    2.2610    0.9120    3.9970 H   0  0  0  0  0  0  0  0  0  0  0  0
   -0.4130    1.6780    3.2270 H   0  0  0  0  0  0  0  0  0  0  0  0
    2.1990    1.1260    1.7580 H   0  0  0  0  0  0  0  0  0  0  0  0
    1.4540    2.6390    2.3240 H   0  0  0  0  0  0  0  0  0  0  0  0
    0.7070    1.7810    0.9460 H   0  0  0  0  0  0  0  0  0  0  0  0
   -0.8960   -0.7660    3.1400 H   0  0  0  0  0  0  0  0  0  0  0  0
    1.3320   -0.9380    1.1180 H   0  0  0  0  0  0  0  0  0  0  0  0
   -1.0590   -0.3120   -0.1360 N   0  0  0  0  0  0  0  0  0  0  0  0
   -1.9290    0.1290   -1.2240 C   0  0  1  0  0  0  0  0  0  0  0  0
   -1.1660    0.7820   -2.3160 C   0  0  0  0  0  0  0  0  0  0  0  0
   -2.0590    1.2170   -3.4010 C   0  0  0  0  0  0  0  0  0  0  0  0
   -2.6930    2.4400   -3.3490 C   0  0  0  0  0  0  0  0  0  0  0  0
   -3.5140    2.8780   -4.3690 C   0  0  0  0  0  0  0  0  0  0  0  0
   -3.7160    2.0870   -5.4730 C   0  0  0  0  0  0  0  0  0  0  0  0
   -3.1020    0.8670   -5.5570 C   0  0  0  0  0  0  0  0  0  0  0  0
   -2.2730    0.4380   -4.5160 C   0  0  0  0  0  0  0  0  0  0  0  0
   -2.6690   -1.0420   -1.6960 C   0  0  0  0  0  0  0  0  0  0  0  0
   -3.5410   -0.9440   -2.5780 O   0  0  0  0  0  0  0  0  0  0  0  0
   -2.4030   -2.2860   -1.1600 O   0  0  0  0  0  0  0  0  0  0  0  0
   -0.3060   -1.0020   -0.3360 H   0  0  0  0  0  0  0  0  0  0  0  0
   -2.6830    0.8610   -0.8600 H   0  0  0  0  0  0  0  0  0  0  0  0
   -0.4440    0.0470   -2.7580 H   0  0  0  0  0  0  0  0  0  0  0  0
   -0.5440    1.6410   -1.9680 H   0  0  0  0  0  0  0  0  0  0  0  0
   -2.5430    3.0630   -2.4950 H   0  0  0  0  0  0  0  0  0  0  0  0
   -4.0050    3.8370   -4.3150 H   0  0  0  0  0  0  0  0  0  0  0  0
   -4.3660    2.4590   -6.2540 H   0  0  0  0  0  0  0  0  0  0  0  0
   -3.2730    0.2540   -6.4390 H   0  0  0  0  0  0  0  0  0  0  0  0
   -1.8170   -0.5320   -4.6500 H   0  0  0  0  0  0  0  0  0  0  0  0
  1 10  1  0  0  0  0
  1  8  1  0  0  0  0
  2  1  1  0  0  0  0
  2  3  1  0  0  0  0
  3 14  1  0  0  0  0
  3 13  1  0  0  0  0
  4 15  1  6  0  0  0
  4  6  1  0  0  0  0
  4  2  1  0  0  0  0
  5 17  1  0  0  0  0
  5  4  1  0  0  0  0
  6  7  2  0  0  0  0
  9  1  1  0  0  0  0
 11  2  1  0  0  0  0
 12  3  1  0  0  0  0
 16  5  1  0  0  0  0
 18 25  1  0  0  0  0
 18 26  1  0  0  0  0
 19 28  1  0  0  0  0
 19 18  1  0  0  0  0
 20 30  1  0  0  0  0
 20 19  1  0  0  0  0
 21 19  1  0  0  0  0
 21 32  1  1  0  0  0
 22 21  1  0  0  0  0
 22  6  1  0  0  0  0
 23 24  2  0  0  0  0
 23 21  1  0  0  0  0
 27 18  1  0  0  0  0
 29 20  1  0  0  0  0
 31 20  1  0  0  0  0
 33 22  1  0  0  0  0
 34 23  1  0  0  0  0
 35 47  1  1  0  0  0
 35 34  1  0  0  0  0
 36 49  1  0  0  0  0
 36 35  1  0  0  0  0
 37 38  1  0  0  0  0
 37 36  1  0  0  0  0
 38 50  1  0  0  0  0
 39 51  1  0  0  0  0
 39 38  2  0  0  0  0
 40 39  1  0  0  0  0
 41 40  2  0  0  0  0
 41 42  1  0  0  0  0
 42 37  2  0  0  0  0
 43 35  1  0  0  0  0
 43 45  1  0  0  0  0
 44 43  2  0  0  0  0
 46 34  1  0  0  0  0
 48 36  1  0  0  0  0
 52 40  1  0  0  0  0
 53 41  1  0  0  0  0
 54 42  1  0  0  0  0
M  END
$$$$
