VVG.pdb
 OpenBabel07022419283D

 41 40  0  0  1  0  0  0  0  0999 V2000
   -2.9990   -1.5480    2.3600 C   0  0  0  0  0  0  0  0  0  0  0  0
   -1.9140   -2.4750    2.8410 C   0  0  0  0  0  0  0  0  0  0  0  0
   -1.9910   -3.7430    2.0480 C   0  0  0  0  0  0  0  0  0  0  0  0
   -0.5470   -1.8460    2.7660 C   0  0  2  0  0  0  0  0  0  0  0  0
   -0.4740   -0.6660    3.5670 N   0  0  0  0  0  0  0  0  0  0  0  0
   -0.0970   -1.5890    1.3950 C   0  0  0  0  0  0  0  0  0  0  0  0
   -0.1000   -2.5440    0.5480 O   0  0  0  0  0  0  0  0  0  0  0  0
   -2.8480   -1.2140    1.3190 H   0  0  0  0  0  0  0  0  0  0  0  0
   -3.1830   -0.7130    3.0620 H   0  0  0  0  0  0  0  0  0  0  0  0
   -3.9450   -2.1590    2.3400 H   0  0  0  0  0  0  0  0  0  0  0  0
   -2.1140   -2.7080    3.9040 H   0  0  0  0  0  0  0  0  0  0  0  0
   -1.0000   -4.2320    1.9030 H   0  0  0  0  0  0  0  0  0  0  0  0
   -2.6120   -4.4790    2.6000 H   0  0  0  0  0  0  0  0  0  0  0  0
   -2.5160   -3.6000    1.0640 H   0  0  0  0  0  0  0  0  0  0  0  0
    0.1650   -2.5920    3.2100 H   0  0  0  0  0  0  0  0  0  0  0  0
    0.0270   -0.7790    4.4620 H   0  0  0  0  0  0  0  0  0  0  0  0
   -1.3150   -0.0830    3.5890 H   0  0  0  0  0  0  0  0  0  0  0  0
    0.5530    1.1460   -2.5320 C   0  0  0  0  0  0  0  0  0  0  0  0
    0.0180    0.9940   -1.1300 C   0  0  0  0  0  0  0  0  0  0  0  0
   -1.4490    0.6970   -1.2140 C   0  0  0  0  0  0  0  0  0  0  0  0
    0.7920   -0.1090   -0.4470 C   0  0  2  0  0  0  0  0  0  0  0  0
    0.3550   -0.3360    0.9070 N   0  0  0  0  0  0  0  0  0  0  0  0
    2.2230    0.3390   -0.3720 C   0  0  0  0  0  0  0  0  0  0  0  0
    2.8730    0.6130   -1.4210 O   0  0  0  0  0  0  0  0  0  0  0  0
    1.0270    0.2120   -2.9050 H   0  0  0  0  0  0  0  0  0  0  0  0
    1.2630    1.9950   -2.6260 H   0  0  0  0  0  0  0  0  0  0  0  0
   -0.2750    1.3600   -3.2660 H   0  0  0  0  0  0  0  0  0  0  0  0
    0.1740    1.9530   -0.5720 H   0  0  0  0  0  0  0  0  0  0  0  0
   -1.9160    0.9270   -0.2430 H   0  0  0  0  0  0  0  0  0  0  0  0
   -1.9050    1.3710   -1.9780 H   0  0  0  0  0  0  0  0  0  0  0  0
   -1.5730   -0.3600   -1.5020 H   0  0  0  0  0  0  0  0  0  0  0  0
    0.7490   -0.9920   -1.0820 H   0  0  0  0  0  0  0  0  0  0  0  0
    0.3690    0.4660    1.5750 H   0  0  0  0  0  0  0  0  0  0  0  0
    2.9100    0.4770    0.8640 N   0  0  0  0  0  0  0  0  0  0  0  0
    4.2910    0.9100    0.9220 C   0  0  0  0  0  0  0  0  0  0  0  0
    5.1390   -0.0430    0.1780 C   0  0  0  0  0  0  0  0  0  0  0  0
    4.6230   -1.0430   -0.3740 O   0  0  0  0  0  0  0  0  0  0  0  0
    6.5220    0.1440    0.0700 O   0  0  0  0  0  0  0  0  0  0  0  0
    2.4030    0.2590    1.7480 H   0  0  0  0  0  0  0  0  0  0  0  0
    4.4040    1.9000    0.3910 H   0  0  0  0  0  0  0  0  0  0  0  0
    4.6430    0.9970    1.9570 H   0  0  0  0  0  0  0  0  0  0  0  0
  1  2  1  0  0  0  0
  1  9  1  0  0  0  0
  2 11  1  0  0  0  0
  3 13  1  0  0  0  0
  3  2  1  0  0  0  0
  4  2  1  0  0  0  0
  4 15  1  1  0  0  0
  4  5  1  0  0  0  0
  5 17  1  0  0  0  0
  5 16  1  0  0  0  0
  6  4  1  0  0  0  0
  7  6  2  0  0  0  0
  8  1  1  0  0  0  0
 10  1  1  0  0  0  0
 12  3  1  0  0  0  0
 14  3  1  0  0  0  0
 18 19  1  0  0  0  0
 19 28  1  0  0  0  0
 19 21  1  0  0  0  0
 20 19  1  0  0  0  0
 20 29  1  0  0  0  0
 21 32  1  6  0  0  0
 21 23  1  0  0  0  0
 21 22  1  0  0  0  0
 22  6  1  0  0  0  0
 22 33  1  0  0  0  0
 23 34  1  0  0  0  0
 24 23  2  0  0  0  0
 25 18  1  0  0  0  0
 26 18  1  0  0  0  0
 27 18  1  0  0  0  0
 30 20  1  0  0  0  0
 31 20  1  0  0  0  0
 34 35  1  0  0  0  0
 34 39  1  0  0  0  0
 35 41  1  0  0  0  0
 36 35  1  0  0  0  0
 37 36  2  0  0  0  0
 38 36  1  0  0  0  0
 40 35  1  0  0  0  0
M  END
$$$$
