VVI.pdb
 OpenBabel07022419283D

 53 52  0  0  1  0  0  0  0  0999 V2000
    0.9590   -3.1660    5.0780 C   0  0  0  0  0  0  0  0  0  0  0  0
    1.5450   -2.6520    3.7510 C   0  0  0  0  0  0  0  0  0  0  0  0
    1.9070   -1.2230    4.0070 C   0  0  0  0  0  0  0  0  0  0  0  0
    0.4470   -2.8540    2.7390 C   0  0  2  0  0  0  0  0  0  0  0  0
    0.1730   -4.2940    2.7420 N   0  0  0  0  0  0  0  0  0  0  0  0
    0.8510   -2.5060    1.3440 C   0  0  0  0  0  0  0  0  0  0  0  0
    1.0260   -3.4530    0.5440 O   0  0  0  0  0  0  0  0  0  0  0  0
    1.3410   -2.5720    5.9330 H   0  0  0  0  0  0  0  0  0  0  0  0
   -0.1400   -3.0280    5.0740 H   0  0  0  0  0  0  0  0  0  0  0  0
    1.1770   -4.2190    5.2460 H   0  0  0  0  0  0  0  0  0  0  0  0
    2.3990   -3.2910    3.5200 H   0  0  0  0  0  0  0  0  0  0  0  0
    2.3810   -1.1980    5.0250 H   0  0  0  0  0  0  0  0  0  0  0  0
    2.5840   -0.8570    3.2290 H   0  0  0  0  0  0  0  0  0  0  0  0
    1.0030   -0.5810    4.0430 H   0  0  0  0  0  0  0  0  0  0  0  0
   -0.4530   -2.3520    3.0880 H   0  0  0  0  0  0  0  0  0  0  0  0
   -0.1830   -4.6210    3.6410 H   0  0  0  0  0  0  0  0  0  0  0  0
    1.0560   -4.8140    2.5250 H   0  0  0  0  0  0  0  0  0  0  0  0
    3.0930   -2.4470   -0.8940 C   0  0  0  0  0  0  0  0  0  0  0  0
    1.8630   -1.7170   -1.3850 C   0  0  0  0  0  0  0  0  0  0  0  0
    2.2550   -1.0260   -2.6680 C   0  0  0  0  0  0  0  0  0  0  0  0
    1.4460   -0.6920   -0.3840 C   0  0  2  0  0  0  0  0  0  0  0  0
    1.0360   -1.1860    0.9080 N   0  0  0  0  0  0  0  0  0  0  0  0
    0.5890    0.3950   -0.8670 C   0  0  0  0  0  0  0  0  0  0  0  0
    0.8200    0.9780   -1.9430 O   0  0  0  0  0  0  0  0  0  0  0  0
    3.2920   -2.1840    0.1570 H   0  0  0  0  0  0  0  0  0  0  0  0
    4.0170   -2.0300   -1.4310 H   0  0  0  0  0  0  0  0  0  0  0  0
    3.1080   -3.5160   -1.0530 H   0  0  0  0  0  0  0  0  0  0  0  0
    1.0620   -2.4370   -1.6460 H   0  0  0  0  0  0  0  0  0  0  0  0
    2.9570   -1.6680   -3.2700 H   0  0  0  0  0  0  0  0  0  0  0  0
    2.7670   -0.0730   -2.4240 H   0  0  0  0  0  0  0  0  0  0  0  0
    1.3610   -0.7800   -3.2720 H   0  0  0  0  0  0  0  0  0  0  0  0
    2.4990   -0.2270   -0.1360 H   0  0  0  0  0  0  0  0  0  0  0  0
    0.8280   -0.4610    1.6800 H   0  0  0  0  0  0  0  0  0  0  0  0
   -4.0180   -0.4950   -2.0170 C   0  0  0  0  0  0  0  0  0  0  0  0
   -2.6930    0.2190   -1.9090 C   0  0  0  0  0  0  0  0  0  0  0  0
   -2.8020    1.2890   -0.8370 C   0  0  2  0  0  0  0  0  0  0  0  0
   -3.8520    2.3090   -1.1280 C   0  0  0  0  0  0  0  0  0  0  0  0
   -1.4280    1.9200   -0.5820 C   0  0  2  0  0  0  0  0  0  0  0  0
   -0.5620    0.8630   -0.1510 N   0  0  0  0  0  0  0  0  0  0  0  0
   -1.5190    3.0340    0.3730 C   0  0  0  0  0  0  0  0  0  0  0  0
   -2.2340    4.0160    0.1250 O   0  0  0  0  0  0  0  0  0  0  0  0
   -0.8120    2.9900    1.5480 O   0  0  0  0  0  0  0  0  0  0  0  0
   -3.8350   -1.5820   -2.0160 H   0  0  0  0  0  0  0  0  0  0  0  0
   -4.6120   -0.2710   -1.1150 H   0  0  0  0  0  0  0  0  0  0  0  0
   -4.5560   -0.2470   -2.9560 H   0  0  0  0  0  0  0  0  0  0  0  0
   -1.9500   -0.5090   -1.5270 H   0  0  0  0  0  0  0  0  0  0  0  0
   -2.3750    0.6510   -2.8820 H   0  0  0  0  0  0  0  0  0  0  0  0
   -3.1190    0.7430    0.0940 H   0  0  0  0  0  0  0  0  0  0  0  0
   -3.4690    3.2020   -1.6830 H   0  0  0  0  0  0  0  0  0  0  0  0
   -4.3930    2.6220   -0.1890 H   0  0  0  0  0  0  0  0  0  0  0  0
   -4.6520    1.8890   -1.7860 H   0  0  0  0  0  0  0  0  0  0  0  0
   -1.1250    2.3610   -1.5610 H   0  0  0  0  0  0  0  0  0  0  0  0
   -0.7560    0.3740    0.7460 H   0  0  0  0  0  0  0  0  0  0  0  0
  1 10  1  0  0  0  0
  1  8  1  0  0  0  0
  2  3  1  0  0  0  0
  2  1  1  0  0  0  0
  3 14  1  0  0  0  0
  3 12  1  0  0  0  0
  4  5  1  0  0  0  0
  4 15  1  1  0  0  0
  4  2  1  0  0  0  0
  5 16  1  0  0  0  0
  6  4  1  0  0  0  0
  7  6  2  0  0  0  0
  9  1  1  0  0  0  0
 11  2  1  0  0  0  0
 13  3  1  0  0  0  0
 17  5  1  0  0  0  0
 18 25  1  0  0  0  0
 19 18  1  0  0  0  0
 19 21  1  0  0  0  0
 20 30  1  0  0  0  0
 20 19  1  0  0  0  0
 21 32  1  1  0  0  0
 21 22  1  0  0  0  0
 22  6  1  0  0  0  0
 22 33  1  0  0  0  0
 23 21  1  0  0  0  0
 23 39  1  0  0  0  0
 24 23  2  0  0  0  0
 26 18  1  0  0  0  0
 27 18  1  0  0  0  0
 28 19  1  0  0  0  0
 29 20  1  0  0  0  0
 31 20  1  0  0  0  0
 34 43  1  0  0  0  0
 34 35  1  0  0  0  0
 34 44  1  0  0  0  0
 35 46  1  0  0  0  0
 35 36  1  0  0  0  0
 36 38  1  0  0  0  0
 36 48  1  1  0  0  0
 37 36  1  0  0  0  0
 37 50  1  0  0  0  0
 38 52  1  6  0  0  0
 38 39  1  0  0  0  0
 38 40  1  0  0  0  0
 39 53  1  0  0  0  0
 40 42  1  0  0  0  0
 41 40  2  0  0  0  0
 45 34  1  0  0  0  0
 47 35  1  0  0  0  0
 49 37  1  0  0  0  0
 51 37  1  0  0  0  0
M  END
$$$$
