VVM.pdb
 OpenBabel07022419283D

 51 50  0  0  1  0  0  0  0  0999 V2000
   -1.9140   -5.8640   -1.0350 C   0  0  0  0  0  0  0  0  0  0  0  0
   -0.9670   -5.1770   -0.0420 C   0  0  0  0  0  0  0  0  0  0  0  0
   -1.3010   -5.7800    1.3150 C   0  0  0  0  0  0  0  0  0  0  0  0
   -1.3100   -3.7070   -0.0890 C   0  0  2  0  0  0  0  0  0  0  0  0
   -1.1140   -3.2080   -1.4170 N   0  0  0  0  0  0  0  0  0  0  0  0
   -0.5020   -2.9570    0.9140 C   0  0  0  0  0  0  0  0  0  0  0  0
   -0.5780   -3.2930    2.1200 O   0  0  0  0  0  0  0  0  0  0  0  0
   -1.9790   -6.9320   -0.7840 H   0  0  0  0  0  0  0  0  0  0  0  0
   -2.9110   -5.3980   -0.8440 H   0  0  0  0  0  0  0  0  0  0  0  0
   -1.5350   -5.6580   -2.0550 H   0  0  0  0  0  0  0  0  0  0  0  0
    0.0770   -5.3930   -0.3160 H   0  0  0  0  0  0  0  0  0  0  0  0
   -0.4110   -5.7710    1.9870 H   0  0  0  0  0  0  0  0  0  0  0  0
   -2.1730   -5.2720    1.7790 H   0  0  0  0  0  0  0  0  0  0  0  0
   -1.5980   -6.8540    1.2260 H   0  0  0  0  0  0  0  0  0  0  0  0
   -2.3800   -3.6080    0.1830 H   0  0  0  0  0  0  0  0  0  0  0  0
   -0.1640   -3.4920   -1.7730 H   0  0  0  0  0  0  0  0  0  0  0  0
   -1.8820   -3.5270   -2.0470 H   0  0  0  0  0  0  0  0  0  0  0  0
    3.4610   -0.5680    2.2040 C   0  0  0  0  0  0  0  0  0  0  0  0
    2.5990   -1.3500    1.2370 C   0  0  0  0  0  0  0  0  0  0  0  0
    3.0290   -1.0250   -0.1530 C   0  0  0  0  0  0  0  0  0  0  0  0
    1.1460   -1.1280    1.5080 C   0  0  2  0  0  0  0  0  0  0  0  0
    0.3450   -1.8850    0.5730 N   0  0  0  0  0  0  0  0  0  0  0  0
    0.7640    0.3070    1.5230 C   0  0  0  0  0  0  0  0  0  0  0  0
    1.3580    1.1180    2.2780 O   0  0  0  0  0  0  0  0  0  0  0  0
    2.9090   -0.3950    3.1510 H   0  0  0  0  0  0  0  0  0  0  0  0
    3.7920    0.4000    1.8000 H   0  0  0  0  0  0  0  0  0  0  0  0
    4.3710   -1.1610    2.5070 H   0  0  0  0  0  0  0  0  0  0  0  0
    2.8130   -2.4270    1.4310 H   0  0  0  0  0  0  0  0  0  0  0  0
    3.2350    0.0740   -0.2950 H   0  0  0  0  0  0  0  0  0  0  0  0
    4.0290   -1.5100   -0.3180 H   0  0  0  0  0  0  0  0  0  0  0  0
    2.3670   -1.4260   -0.9210 H   0  0  0  0  0  0  0  0  0  0  0  0
    0.9410   -1.5840    2.5200 H   0  0  0  0  0  0  0  0  0  0  0  0
    0.3960   -1.6180   -0.4370 H   0  0  0  0  0  0  0  0  0  0  0  0
    0.1270    5.2740    2.0810 C   0  0  0  0  0  0  0  0  0  0  0  0
    0.3400    5.4190    0.3190 S   0  0  0  0  0  0  0  0  0  0  0  0
   -0.6540    4.3570   -0.7020 C   0  0  0  0  0  0  0  0  0  0  0  0
   -0.3730    2.8960   -0.6080 C   0  0  0  0  0  0  0  0  0  0  0  0
   -0.6240    2.2810    0.7470 C   0  0  2  0  0  0  0  0  0  0  0  0
   -0.2680    0.8430    0.7070 N   0  0  0  0  0  0  0  0  0  0  0  0
   -2.0590    2.2970    1.0960 C   0  0  0  0  0  0  0  0  0  0  0  0
   -2.6760    3.3750    1.1790 O   0  0  0  0  0  0  0  0  0  0  0  0
   -2.7370    1.1250    1.3340 O   0  0  0  0  0  0  0  0  0  0  0  0
    0.9610    4.6920    2.5760 H   0  0  0  0  0  0  0  0  0  0  0  0
   -0.8120    4.8290    2.4280 H   0  0  0  0  0  0  0  0  0  0  0  0
    0.1830    6.2690    2.6100 H   0  0  0  0  0  0  0  0  0  0  0  0
   -1.7370    4.5850   -0.5480 H   0  0  0  0  0  0  0  0  0  0  0  0
   -0.4820    4.6880   -1.7750 H   0  0  0  0  0  0  0  0  0  0  0  0
    0.6970    2.7470   -0.9190 H   0  0  0  0  0  0  0  0  0  0  0  0
   -0.9540    2.3530   -1.4010 H   0  0  0  0  0  0  0  0  0  0  0  0
    0.0260    2.8030    1.4730 H   0  0  0  0  0  0  0  0  0  0  0  0
   -0.7900    0.2130    0.0650 H   0  0  0  0  0  0  0  0  0  0  0  0
  1  9  1  0  0  0  0
  1  8  1  0  0  0  0
  1  2  1  0  0  0  0
  2  3  1  0  0  0  0
  3 13  1  0  0  0  0
  3 12  1  0  0  0  0
  4  2  1  0  0  0  0
  4 15  1  1  0  0  0
  4  6  1  0  0  0  0
  5  4  1  0  0  0  0
  6  7  2  0  0  0  0
 10  1  1  0  0  0  0
 11  2  1  0  0  0  0
 14  3  1  0  0  0  0
 16  5  1  0  0  0  0
 17  5  1  0  0  0  0
 18 27  1  0  0  0  0
 18 25  1  0  0  0  0
 19 28  1  0  0  0  0
 19 21  1  0  0  0  0
 19 18  1  0  0  0  0
 20 19  1  0  0  0  0
 21 23  1  0  0  0  0
 21 32  1  1  0  0  0
 22  6  1  0  0  0  0
 22 21  1  0  0  0  0
 23 24  2  0  0  0  0
 26 18  1  0  0  0  0
 29 20  1  0  0  0  0
 30 20  1  0  0  0  0
 31 20  1  0  0  0  0
 33 22  1  0  0  0  0
 34 44  1  0  0  0  0
 34 43  1  0  0  0  0
 34 45  1  0  0  0  0
 35 34  1  0  0  0  0
 36 37  1  0  0  0  0
 36 46  1  0  0  0  0
 36 35  1  0  0  0  0
 37 38  1  0  0  0  0
 38 40  1  0  0  0  0
 38 50  1  1  0  0  0
 39 38  1  0  0  0  0
 39 23  1  0  0  0  0
 40 41  2  0  0  0  0
 40 42  1  0  0  0  0
 47 36  1  0  0  0  0
 48 37  1  0  0  0  0
 49 37  1  0  0  0  0
 51 39  1  0  0  0  0
M  END
$$$$
