VVR.pdb
 OpenBabel07022419283D

 57 56  0  0  1  0  0  0  0  0999 V2000
   -0.2100   -2.1890    3.4190 C   0  0  0  0  0  0  0  0  0  0  0  0
    0.7920   -3.1980    2.9380 C   0  0  0  0  0  0  0  0  0  0  0  0
    0.4080   -3.9080    1.6810 C   0  0  0  0  0  0  0  0  0  0  0  0
    2.2050   -2.6650    2.9500 C   0  0  2  0  0  0  0  0  0  0  0  0
    2.4770   -2.3230    4.3580 N   0  0  0  0  0  0  0  0  0  0  0  0
    2.4110   -1.4570    2.1440 C   0  0  0  0  0  0  0  0  0  0  0  0
    2.7390   -0.3660    2.7090 O   0  0  0  0  0  0  0  0  0  0  0  0
   -0.0570   -1.8900    4.4710 H   0  0  0  0  0  0  0  0  0  0  0  0
   -0.2230   -1.2580    2.8210 H   0  0  0  0  0  0  0  0  0  0  0  0
   -1.2070   -2.7070    3.4030 H   0  0  0  0  0  0  0  0  0  0  0  0
    0.7990   -4.0020    3.7420 H   0  0  0  0  0  0  0  0  0  0  0  0
    1.3120   -4.3520    1.2130 H   0  0  0  0  0  0  0  0  0  0  0  0
   -0.2040   -3.3060    1.0010 H   0  0  0  0  0  0  0  0  0  0  0  0
   -0.2330   -4.8050    1.9340 H   0  0  0  0  0  0  0  0  0  0  0  0
    2.8730   -3.5120    2.7180 H   0  0  0  0  0  0  0  0  0  0  0  0
    3.2460   -1.6510    4.4490 H   0  0  0  0  0  0  0  0  0  0  0  0
    2.5190   -3.1560    4.9560 H   0  0  0  0  0  0  0  0  0  0  0  0
    4.9310   -0.3800   -0.1010 C   0  0  0  0  0  0  0  0  0  0  0  0
    3.6870   -0.1520   -0.9220 C   0  0  0  0  0  0  0  0  0  0  0  0
    3.5810   -1.0510   -2.1010 C   0  0  0  0  0  0  0  0  0  0  0  0
    2.4970   -0.1540   -0.0060 C   0  0  2  0  0  0  0  0  0  0  0  0
    2.2840   -1.3520    0.7320 N   0  0  0  0  0  0  0  0  0  0  0  0
    1.2650    0.3560   -0.6880 C   0  0  0  0  0  0  0  0  0  0  0  0
    1.2870    1.4250   -1.3530 O   0  0  0  0  0  0  0  0  0  0  0  0
    5.0940    0.3430    0.6850 H   0  0  0  0  0  0  0  0  0  0  0  0
    5.8010   -0.3540   -0.7900 H   0  0  0  0  0  0  0  0  0  0  0  0
    4.8130   -1.4070    0.3510 H   0  0  0  0  0  0  0  0  0  0  0  0
    3.7950    0.8810   -1.3180 H   0  0  0  0  0  0  0  0  0  0  0  0
    3.0480   -2.0010   -1.9030 H   0  0  0  0  0  0  0  0  0  0  0  0
    4.5990   -1.2210   -2.5230 H   0  0  0  0  0  0  0  0  0  0  0  0
    3.0110   -0.5880   -2.9560 H   0  0  0  0  0  0  0  0  0  0  0  0
    2.7230    0.6300    0.7500 H   0  0  0  0  0  0  0  0  0  0  0  0
    2.0050   -2.2730    0.2650 H   0  0  0  0  0  0  0  0  0  0  0  0
   -5.5450    0.1260    2.1850 N   0  0  0  0  0  0  0  0  0  0  0  0
   -5.3190    0.6340    0.8880 C   0  0  0  0  0  0  0  0  0  0  0  0
   -5.7900    1.7690    0.5310 N   0  0  0  0  0  0  0  0  0  0  0  0
   -4.5630   -0.1130   -0.0440 N   0  0  0  0  0  0  0  0  0  0  0  0
   -4.1880    0.4530   -1.3040 C   0  0  0  0  0  0  0  0  0  0  0  0
   -3.1850    1.5710   -1.1790 C   0  0  0  0  0  0  0  0  0  0  0  0
   -1.9070    1.1630   -0.5450 C   0  0  0  0  0  0  0  0  0  0  0  0
   -1.2110    0.0940   -1.2700 C   0  0  2  0  0  0  0  0  0  0  0  0
    0.0310   -0.3190   -0.6300 N   0  0  0  0  0  0  0  0  0  0  0  0
   -0.9980    0.3200   -2.7170 C   0  0  0  0  0  0  0  0  0  0  0  0
   -1.8360    0.7130   -3.5480 O   0  0  0  0  0  0  0  0  0  0  0  0
    0.2900    0.0670   -3.2410 O   0  0  0  0  0  0  0  0  0  0  0  0
   -5.6710   -0.9210    2.3070 H   0  0  0  0  0  0  0  0  0  0  0  0
   -5.6030    0.6780    3.0470 H   0  0  0  0  0  0  0  0  0  0  0  0
   -6.3470    2.3190    1.2180 H   0  0  0  0  0  0  0  0  0  0  0  0
   -4.2630   -1.0930    0.1670 H   0  0  0  0  0  0  0  0  0  0  0  0
   -3.8520   -0.2910   -2.0350 H   0  0  0  0  0  0  0  0  0  0  0  0
   -5.1130    0.9180   -1.7380 H   0  0  0  0  0  0  0  0  0  0  0  0
   -3.0060    1.9980   -2.1730 H   0  0  0  0  0  0  0  0  0  0  0  0
   -3.6500    2.4380   -0.6030 H   0  0  0  0  0  0  0  0  0  0  0  0
   -1.2400    2.0770   -0.5700 H   0  0  0  0  0  0  0  0  0  0  0  0
   -2.0770    0.8440    0.5080 H   0  0  0  0  0  0  0  0  0  0  0  0
   -1.8620   -0.8410   -1.2520 H   0  0  0  0  0  0  0  0  0  0  0  0
    0.0030   -1.1890   -0.0780 H   0  0  0  0  0  0  0  0  0  0  0  0
  1  8  1  0  0  0  0
  2  4  1  0  0  0  0
  2  1  1  0  0  0  0
  2 11  1  0  0  0  0
  3 14  1  0  0  0  0
  3  2  1  0  0  0  0
  4 15  1  6  0  0  0
  4  5  1  0  0  0  0
  5 16  1  0  0  0  0
  5 17  1  0  0  0  0
  6  7  2  0  0  0  0
  6  4  1  0  0  0  0
  9  1  1  0  0  0  0
 10  1  1  0  0  0  0
 12  3  1  0  0  0  0
 13  3  1  0  0  0  0
 18 27  1  0  0  0  0
 18 25  1  0  0  0  0
 19 18  1  0  0  0  0
 19 21  1  0  0  0  0
 20 29  1  0  0  0  0
 20 19  1  0  0  0  0
 21 22  1  0  0  0  0
 21 32  1  1  0  0  0
 22  6  1  0  0  0  0
 23 42  1  0  0  0  0
 23 21  1  0  0  0  0
 24 23  2  0  0  0  0
 26 18  1  0  0  0  0
 28 19  1  0  0  0  0
 30 20  1  0  0  0  0
 31 20  1  0  0  0  0
 33 22  1  0  0  0  0
 34 46  1  0  0  0  0
 34 47  1  0  0  0  0
 35 34  1  0  0  0  0
 36 35  2  0  0  0  0
 36 48  1  0  0  0  0
 37 49  1  0  0  0  0
 37 35  1  0  0  0  0
 38 39  1  0  0  0  0
 38 37  1  0  0  0  0
 39 53  1  0  0  0  0
 39 40  1  0  0  0  0
 40 55  1  0  0  0  0
 41 56  1  1  0  0  0
 41 42  1  0  0  0  0
 41 40  1  0  0  0  0
 42 57  1  0  0  0  0
 43 41  1  0  0  0  0
 44 43  2  0  0  0  0
 45 43  1  0  0  0  0
 50 38  1  0  0  0  0
 51 38  1  0  0  0  0
 52 39  1  0  0  0  0
 54 40  1  0  0  0  0
M  END
$$$$
