VWA.pdb
 OpenBabel07022419273D

 52 53  0  0  1  0  0  0  0  0999 V2000
    1.9190   -4.9070    3.3350 C   0  0  0  0  0  0  0  0  0  0  0  0
    1.2240   -3.7050    2.7380 C   0  0  0  0  0  0  0  0  0  0  0  0
   -0.0650   -3.5160    3.5100 C   0  0  0  0  0  0  0  0  0  0  0  0
    2.1020   -2.4710    2.8290 C   0  0  2  0  0  0  0  0  0  0  0  0
    2.3570   -2.2500    4.2340 N   0  0  0  0  0  0  0  0  0  0  0  0
    1.4290   -1.2870    2.2360 C   0  0  0  0  0  0  0  0  0  0  0  0
    1.1460   -0.2980    2.9570 O   0  0  0  0  0  0  0  0  0  0  0  0
    1.5290   -5.8620    2.9300 H   0  0  0  0  0  0  0  0  0  0  0  0
    3.0240   -4.8280    3.2260 H   0  0  0  0  0  0  0  0  0  0  0  0
    1.7070   -4.9240    4.4210 H   0  0  0  0  0  0  0  0  0  0  0  0
    1.0070   -3.8830    1.6710 H   0  0  0  0  0  0  0  0  0  0  0  0
   -0.9410   -3.3760    2.8450 H   0  0  0  0  0  0  0  0  0  0  0  0
   -0.2930   -4.3940    4.1490 H   0  0  0  0  0  0  0  0  0  0  0  0
   -0.0110   -2.6100    4.1620 H   0  0  0  0  0  0  0  0  0  0  0  0
    3.0800   -2.6280    2.3440 H   0  0  0  0  0  0  0  0  0  0  0  0
    3.1960   -2.8290    4.5300 H   0  0  0  0  0  0  0  0  0  0  0  0
    2.6070   -1.2480    4.4110 H   0  0  0  0  0  0  0  0  0  0  0  0
    1.0940   -1.2490    0.8550 N   0  0  0  0  0  0  0  0  0  0  0  0
    0.4470   -0.1460    0.1970 C   0  0  1  0  0  0  0  0  0  0  0  0
    1.3460    0.5390   -0.8030 C   0  0  0  0  0  0  0  0  0  0  0  0
    0.5960    1.6560   -1.4230 C   0  0  0  0  0  0  0  0  0  0  0  0
    0.0310    1.7160   -2.7050 C   0  0  0  0  0  0  0  0  0  0  0  0
   -0.5610    2.9100   -2.8890 N   0  0  0  0  0  0  0  0  0  0  0  0
   -0.4180    3.6580   -1.7850 C   0  0  0  0  0  0  0  0  0  0  0  0
   -0.8490    4.9390   -1.5010 C   0  0  0  0  0  0  0  0  0  0  0  0
   -0.5430    5.4480   -0.2560 C   0  0  0  0  0  0  0  0  0  0  0  0
    0.1660    4.6970    0.6590 C   0  0  0  0  0  0  0  0  0  0  0  0
    0.5980    3.4160    0.3780 C   0  0  0  0  0  0  0  0  0  0  0  0
    0.2970    2.8950   -0.8680 C   0  0  0  0  0  0  0  0  0  0  0  0
   -0.8480   -0.5580   -0.3840 C   0  0  0  0  0  0  0  0  0  0  0  0
   -1.5470    0.2920   -0.9770 O   0  0  0  0  0  0  0  0  0  0  0  0
    1.3410   -2.0840    0.2900 H   0  0  0  0  0  0  0  0  0  0  0  0
    0.2300    0.6220    0.9730 H   0  0  0  0  0  0  0  0  0  0  0  0
    2.2230    0.9110   -0.2500 H   0  0  0  0  0  0  0  0  0  0  0  0
    1.6840   -0.1200   -1.6120 H   0  0  0  0  0  0  0  0  0  0  0  0
    0.0840    0.9000   -3.4140 H   0  0  0  0  0  0  0  0  0  0  0  0
   -1.0660    3.2380   -3.7520 H   0  0  0  0  0  0  0  0  0  0  0  0
   -1.4050    5.5090   -2.2380 H   0  0  0  0  0  0  0  0  0  0  0  0
   -0.8710    6.4620   -0.0020 H   0  0  0  0  0  0  0  0  0  0  0  0
    0.4140    5.0880    1.6460 H   0  0  0  0  0  0  0  0  0  0  0  0
    1.1580    2.8280    1.1060 H   0  0  0  0  0  0  0  0  0  0  0  0
   -2.4790   -3.2700   -2.0070 C   0  0  0  0  0  0  0  0  0  0  0  0
   -2.6400   -2.2450   -0.9040 C   0  0  2  0  0  0  0  0  0  0  0  0
   -1.3720   -1.8800   -0.3200 N   0  0  0  0  0  0  0  0  0  0  0  0
   -3.5820   -2.6800    0.1380 C   0  0  0  0  0  0  0  0  0  0  0  0
   -4.7340   -3.0310   -0.1830 O   0  0  0  0  0  0  0  0  0  0  0  0
   -3.2070   -2.7040    1.4590 O   0  0  0  0  0  0  0  0  0  0  0  0
   -3.4980   -3.6730   -2.2120 H   0  0  0  0  0  0  0  0  0  0  0  0
   -1.7740   -4.0750   -1.6830 H   0  0  0  0  0  0  0  0  0  0  0  0
   -2.1460   -2.7790   -2.9390 H   0  0  0  0  0  0  0  0  0  0  0  0
   -3.1170   -1.3470   -1.3960 H   0  0  0  0  0  0  0  0  0  0  0  0
   -0.8010   -2.5960    0.1730 H   0  0  0  0  0  0  0  0  0  0  0  0
  1 10  1  0  0  0  0
  2  4  1  0  0  0  0
  2  1  1  0  0  0  0
  2  3  1  0  0  0  0
  3 13  1  0  0  0  0
  3 14  1  0  0  0  0
  4 15  1  6  0  0  0
  4  5  1  0  0  0  0
  5 17  1  0  0  0  0
  5 16  1  0  0  0  0
  6  4  1  0  0  0  0
  6  7  2  0  0  0  0
  8  1  1  0  0  0  0
  9  1  1  0  0  0  0
 11  2  1  0  0  0  0
 12  3  1  0  0  0  0
 18  6  1  0  0  0  0
 19 18  1  0  0  0  0
 19 33  1  1  0  0  0
 20 34  1  0  0  0  0
 20 19  1  0  0  0  0
 21 29  1  0  0  0  0
 21 20  1  0  0  0  0
 22 21  2  0  0  0  0
 23 22  1  0  0  0  0
 23 24  1  0  0  0  0
 24 25  2  0  0  0  0
 24 29  1  0  0  0  0
 25 26  1  0  0  0  0
 26 39  1  0  0  0  0
 26 27  2  0  0  0  0
 27 40  1  0  0  0  0
 28 27  1  0  0  0  0
 28 41  1  0  0  0  0
 29 28  2  0  0  0  0
 30 44  1  0  0  0  0
 30 19  1  0  0  0  0
 31 30  2  0  0  0  0
 32 18  1  0  0  0  0
 35 20  1  0  0  0  0
 36 22  1  0  0  0  0
 37 23  1  0  0  0  0
 38 25  1  0  0  0  0
 42 49  1  0  0  0  0
 42 43  1  0  0  0  0
 43 51  1  6  0  0  0
 43 44  1  0  0  0  0
 43 45  1  0  0  0  0
 44 52  1  0  0  0  0
 45 47  1  0  0  0  0
 46 45  2  0  0  0  0
 48 42  1  0  0  0  0
 50 42  1  0  0  0  0
M  END
$$$$
