VWE.pdb
 OpenBabel07022419273D

 58 59  0  0  1  0  0  0  0  0999 V2000
    1.8220   -1.7970    3.4290 C   0  0  0  0  0  0  0  0  0  0  0  0
    2.7100   -1.5590    2.2560 C   0  0  0  0  0  0  0  0  0  0  0  0
    2.8670   -2.8520    1.4860 C   0  0  0  0  0  0  0  0  0  0  0  0
    2.3410   -0.4040    1.3910 C   0  0  2  0  0  0  0  0  0  0  0  0
    2.3780    0.8000    2.2140 N   0  0  0  0  0  0  0  0  0  0  0  0
    1.0890   -0.5320    0.6520 C   0  0  0  0  0  0  0  0  0  0  0  0
    0.9230   -1.5280   -0.0940 O   0  0  0  0  0  0  0  0  0  0  0  0
    2.3950   -2.4710    4.1340 H   0  0  0  0  0  0  0  0  0  0  0  0
    0.8920   -2.3390    3.2130 H   0  0  0  0  0  0  0  0  0  0  0  0
    1.6660   -0.8630    4.0190 H   0  0  0  0  0  0  0  0  0  0  0  0
    3.7390   -1.3310    2.6640 H   0  0  0  0  0  0  0  0  0  0  0  0
    3.3880   -2.6650    0.5460 H   0  0  0  0  0  0  0  0  0  0  0  0
    1.8920   -3.3570    1.3920 H   0  0  0  0  0  0  0  0  0  0  0  0
    3.5070   -3.5370    2.1120 H   0  0  0  0  0  0  0  0  0  0  0  0
    3.2110   -0.2680    0.6780 H   0  0  0  0  0  0  0  0  0  0  0  0
    2.4930    1.6030    1.5370 H   0  0  0  0  0  0  0  0  0  0  0  0
    3.2810    0.7600    2.7370 H   0  0  0  0  0  0  0  0  0  0  0  0
    0.0470    0.4340    0.7470 N   0  0  0  0  0  0  0  0  0  0  0  0
   -1.1940    0.3880    0.0830 C   0  0  1  0  0  0  0  0  0  0  0  0
   -1.2860    0.8750   -1.3190 C   0  0  0  0  0  0  0  0  0  0  0  0
   -0.9460    2.2710   -1.5530 C   0  0  0  0  0  0  0  0  0  0  0  0
   -1.8380    3.3160   -1.6830 C   0  0  0  0  0  0  0  0  0  0  0  0
   -1.1790    4.4690   -1.8640 N   0  0  0  0  0  0  0  0  0  0  0  0
    0.1520    4.1840   -1.8550 C   0  0  0  0  0  0  0  0  0  0  0  0
    1.2640    4.9890   -2.0020 C   0  0  0  0  0  0  0  0  0  0  0  0
    2.5280    4.4470   -1.9600 C   0  0  0  0  0  0  0  0  0  0  0  0
    2.6880    3.0910   -1.7700 C   0  0  0  0  0  0  0  0  0  0  0  0
    1.5930    2.2770   -1.6220 C   0  0  0  0  0  0  0  0  0  0  0  0
    0.3070    2.8240   -1.6630 C   0  0  0  0  0  0  0  0  0  0  0  0
   -1.9890   -0.8540    0.2190 C   0  0  0  0  0  0  0  0  0  0  0  0
   -3.0060   -0.9700   -0.5370 O   0  0  0  0  0  0  0  0  0  0  0  0
    0.2900    1.2490    1.3980 H   0  0  0  0  0  0  0  0  0  0  0  0
   -1.8820    1.1390    0.6590 H   0  0  0  0  0  0  0  0  0  0  0  0
   -0.7660    0.1770   -2.0470 H   0  0  0  0  0  0  0  0  0  0  0  0
   -2.3720    0.7230   -1.6120 H   0  0  0  0  0  0  0  0  0  0  0  0
   -2.9380    3.2860   -1.6530 H   0  0  0  0  0  0  0  0  0  0  0  0
   -1.5650    5.4340   -1.9940 H   0  0  0  0  0  0  0  0  0  0  0  0
    1.1320    6.0700   -2.1530 H   0  0  0  0  0  0  0  0  0  0  0  0
    3.3930    5.1070   -2.0780 H   0  0  0  0  0  0  0  0  0  0  0  0
    3.7060    2.6740   -1.7400 H   0  0  0  0  0  0  0  0  0  0  0  0
    1.6990    1.2220   -1.4830 H   0  0  0  0  0  0  0  0  0  0  0  0
   -1.7380   -1.9210    1.1040 N   0  0  0  0  0  0  0  0  0  0  0  0
   -2.6060   -3.1160    1.1400 C   0  0  1  0  0  0  0  0  0  0  0  0
   -1.7860   -4.2970    0.7170 C   0  0  0  0  0  0  0  0  0  0  0  0
   -2.5060   -5.5990    0.6930 C   0  0  0  0  0  0  0  0  0  0  0  0
   -1.5060   -6.6340    0.2420 C   0  0  0  0  0  0  0  0  0  0  0  0
   -1.8630   -7.8450    0.1310 O   0  0  0  0  0  0  0  0  0  0  0  0
   -3.2090   -3.2460    2.4730 C   0  0  0  0  0  0  0  0  0  0  0  0
   -3.9880   -4.1740    2.7590 O   0  0  0  0  0  0  0  0  0  0  0  0
   -0.2050   -6.3310   -0.0600 O   0  0  0  0  0  0  0  0  0  0  0  0
   -2.9020   -2.2920    3.4660 O   0  0  0  0  0  0  0  0  0  0  0  0
   -0.9310   -1.8340    1.7480 H   0  0  0  0  0  0  0  0  0  0  0  0
   -3.3830   -2.9490    0.3700 H   0  0  0  0  0  0  0  0  0  0  0  0
   -1.3620   -4.0810   -0.2860 H   0  0  0  0  0  0  0  0  0  0  0  0
   -0.8850   -4.3340    1.3960 H   0  0  0  0  0  0  0  0  0  0  0  0
   -2.9250   -5.9140    1.6460 H   0  0  0  0  0  0  0  0  0  0  0  0
   -3.2760   -5.5780   -0.1070 H   0  0  0  0  0  0  0  0  0  0  0  0
    0.3300   -6.8640   -0.7440 H   0  0  0  0  0  0  0  0  0  0  0  0
  1 10  1  0  0  0  0
  1  8  1  0  0  0  0
  2 11  1  0  0  0  0
  2  1  1  0  0  0  0
  3 14  1  0  0  0  0
  3  2  1  0  0  0  0
  4 15  1  6  0  0  0
  4  5  1  0  0  0  0
  4  2  1  0  0  0  0
  5 17  1  0  0  0  0
  6 18  1  0  0  0  0
  6  4  1  0  0  0  0
  7  6  2  0  0  0  0
  9  1  1  0  0  0  0
 12  3  1  0  0  0  0
 13  3  1  0  0  0  0
 16  5  1  0  0  0  0
 18 32  1  0  0  0  0
 19 30  1  0  0  0  0
 19 33  1  1  0  0  0
 19 18  1  0  0  0  0
 20 19  1  0  0  0  0
 21 20  1  0  0  0  0
 22 36  1  0  0  0  0
 22 21  2  0  0  0  0
 23 24  1  0  0  0  0
 23 22  1  0  0  0  0
 24 29  1  0  0  0  0
 25 26  1  0  0  0  0
 25 24  2  0  0  0  0
 26 27  2  0  0  0  0
 27 40  1  0  0  0  0
 27 28  1  0  0  0  0
 28 41  1  0  0  0  0
 29 28  2  0  0  0  0
 29 21  1  0  0  0  0
 30 42  1  0  0  0  0
 31 30  2  0  0  0  0
 34 20  1  0  0  0  0
 35 20  1  0  0  0  0
 37 23  1  0  0  0  0
 38 25  1  0  0  0  0
 39 26  1  0  0  0  0
 42 43  1  0  0  0  0
 42 52  1  0  0  0  0
 43 53  1  6  0  0  0
 43 48  1  0  0  0  0
 44 43  1  0  0  0  0
 44 55  1  0  0  0  0
 45 44  1  0  0  0  0
 45 56  1  0  0  0  0
 46 45  1  0  0  0  0
 47 46  2  0  0  0  0
 48 49  2  0  0  0  0
 48 51  1  0  0  0  0
 50 46  1  0  0  0  0
 54 44  1  0  0  0  0
 57 45  1  0  0  0  0
 58 50  1  0  0  0  0
M  END
$$$$
