VWH.pdb
 OpenBabel07022419273D

 59 61  0  0  1  0  0  0  0  0999 V2000
    4.7660   -1.8010    3.7050 C   0  0  0  0  0  0  0  0  0  0  0  0
    3.3140   -1.4080    3.5280 C   0  0  0  0  0  0  0  0  0  0  0  0
    2.4510   -1.9950    4.6360 C   0  0  0  0  0  0  0  0  0  0  0  0
    2.7550   -1.8980    2.2170 C   0  0  2  0  0  0  0  0  0  0  0  0
    3.5010   -1.3400    1.1140 N   0  0  0  0  0  0  0  0  0  0  0  0
    1.3390   -1.3910    2.1420 C   0  0  0  0  0  0  0  0  0  0  0  0
    0.4780   -1.7100    2.9930 O   0  0  0  0  0  0  0  0  0  0  0  0
    5.3810   -1.0630    3.1920 H   0  0  0  0  0  0  0  0  0  0  0  0
    4.9830   -1.7530    4.7890 H   0  0  0  0  0  0  0  0  0  0  0  0
    4.9550   -2.8470    3.3860 H   0  0  0  0  0  0  0  0  0  0  0  0
    3.2620   -0.3060    3.6210 H   0  0  0  0  0  0  0  0  0  0  0  0
    1.6950   -1.2710    4.9470 H   0  0  0  0  0  0  0  0  0  0  0  0
    3.1670   -2.2410    5.4690 H   0  0  0  0  0  0  0  0  0  0  0  0
    2.0020   -2.9420    4.2650 H   0  0  0  0  0  0  0  0  0  0  0  0
    2.7920   -2.9900    2.1220 H   0  0  0  0  0  0  0  0  0  0  0  0
    3.5760   -0.3200    1.1380 H   0  0  0  0  0  0  0  0  0  0  0  0
    3.1980   -1.7430    0.2110 H   0  0  0  0  0  0  0  0  0  0  0  0
    0.9430   -0.5300    1.0940 N   0  0  0  0  0  0  0  0  0  0  0  0
   -0.4130    0.0150    0.9410 C   0  0  1  0  0  0  0  0  0  0  0  0
   -0.2830    1.4840    1.0280 C   0  0  0  0  0  0  0  0  0  0  0  0
   -1.5060    2.2910    0.8950 C   0  0  0  0  0  0  0  0  0  0  0  0
   -2.3190    2.7200    1.9600 C   0  0  0  0  0  0  0  0  0  0  0  0
   -3.3660    3.3940    1.4590 N   0  0  0  0  0  0  0  0  0  0  0  0
   -3.2980    3.4380    0.1240 C   0  0  0  0  0  0  0  0  0  0  0  0
   -4.0870    4.0000   -0.8510 C   0  0  0  0  0  0  0  0  0  0  0  0
   -3.7110    3.8720   -2.1570 C   0  0  0  0  0  0  0  0  0  0  0  0
   -2.5760    3.2040   -2.5270 C   0  0  0  0  0  0  0  0  0  0  0  0
   -1.7960    2.6470   -1.5510 C   0  0  0  0  0  0  0  0  0  0  0  0
   -2.1360    2.7500   -0.2290 C   0  0  0  0  0  0  0  0  0  0  0  0
   -1.0300   -0.6000   -0.2170 C   0  0  0  0  0  0  0  0  0  0  0  0
   -2.1990   -0.3390   -0.6190 O   0  0  0  0  0  0  0  0  0  0  0  0
    1.6580   -0.2680    0.3900 H   0  0  0  0  0  0  0  0  0  0  0  0
   -1.0280   -0.3800    1.8380 H   0  0  0  0  0  0  0  0  0  0  0  0
    0.1980    1.6920    2.0390 H   0  0  0  0  0  0  0  0  0  0  0  0
    0.5280    1.8690    0.3270 H   0  0  0  0  0  0  0  0  0  0  0  0
   -2.1670    2.5600    3.0180 H   0  0  0  0  0  0  0  0  0  0  0  0
   -4.1580    3.8430    2.0020 H   0  0  0  0  0  0  0  0  0  0  0  0
   -5.0080    4.5470   -0.6080 H   0  0  0  0  0  0  0  0  0  0  0  0
   -4.3240    4.3090   -2.9270 H   0  0  0  0  0  0  0  0  0  0  0  0
   -2.2630    3.0920   -3.5570 H   0  0  0  0  0  0  0  0  0  0  0  0
   -0.9100    2.1310   -1.8150 H   0  0  0  0  0  0  0  0  0  0  0  0
   -0.3000   -1.5710   -0.9720 N   0  0  0  0  0  0  0  0  0  0  0  0
   -0.7530   -2.2700   -2.1220 C   0  0  1  0  0  0  0  0  0  0  0  0
   -1.5910   -3.4860   -1.7930 C   0  0  0  0  0  0  0  0  0  0  0  0
   -0.7700   -4.4150   -0.9750 C   0  0  0  0  0  0  0  0  0  0  0  0
    0.0370   -5.4240   -1.4080 C   0  0  0  0  0  0  0  0  0  0  0  0
    0.6050   -6.0360   -0.3610 N   0  0  0  0  0  0  0  0  0  0  0  0
    0.1540   -5.4090    0.7440 C   0  0  0  0  0  0  0  0  0  0  0  0
   -0.6820   -4.4230    0.3800 N   0  0  0  0  0  0  0  0  0  0  0  0
   -1.4050   -1.4210   -3.1480 C   0  0  0  0  0  0  0  0  0  0  0  0
   -1.5260   -0.1880   -3.0820 O   0  0  0  0  0  0  0  0  0  0  0  0
   -1.9300   -2.0450   -4.2870 O   0  0  0  0  0  0  0  0  0  0  0  0
    0.6910   -1.8040   -0.6420 H   0  0  0  0  0  0  0  0  0  0  0  0
    0.1680   -2.6730   -2.6670 H   0  0  0  0  0  0  0  0  0  0  0  0
   -2.5310   -3.2200   -1.2770 H   0  0  0  0  0  0  0  0  0  0  0  0
   -1.8410   -3.9750   -2.7740 H   0  0  0  0  0  0  0  0  0  0  0  0
    0.2040   -5.7030   -2.4470 H   0  0  0  0  0  0  0  0  0  0  0  0
    1.2790   -6.8520   -0.3500 H   0  0  0  0  0  0  0  0  0  0  0  0
    0.3860   -5.6150    1.7890 H   0  0  0  0  0  0  0  0  0  0  0  0
  1  9  1  0  0  0  0
  2 11  1  0  0  0  0
  2  1  1  0  0  0  0
  2  3  1  0  0  0  0
  3 12  1  0  0  0  0
  3 13  1  0  0  0  0
  4 15  1  6  0  0  0
  4  2  1  0  0  0  0
  5 16  1  0  0  0  0
  5  4  1  0  0  0  0
  6  4  1  0  0  0  0
  6  7  2  0  0  0  0
  8  1  1  0  0  0  0
 10  1  1  0  0  0  0
 14  3  1  0  0  0  0
 17  5  1  0  0  0  0
 18  6  1  0  0  0  0
 19 20  1  0  0  0  0
 19 18  1  0  0  0  0
 19 33  1  1  0  0  0
 20 34  1  0  0  0  0
 21 20  1  0  0  0  0
 21 22  2  0  0  0  0
 22 36  1  0  0  0  0
 23 22  1  0  0  0  0
 23 37  1  0  0  0  0
 24 23  1  0  0  0  0
 25 38  1  0  0  0  0
 25 24  2  0  0  0  0
 26 25  1  0  0  0  0
 27 26  2  0  0  0  0
 27 28  1  0  0  0  0
 28 29  2  0  0  0  0
 29 24  1  0  0  0  0
 29 21  1  0  0  0  0
 30 19  1  0  0  0  0
 31 30  2  0  0  0  0
 32 18  1  0  0  0  0
 35 20  1  0  0  0  0
 39 26  1  0  0  0  0
 40 27  1  0  0  0  0
 41 28  1  0  0  0  0
 42 53  1  0  0  0  0
 42 30  1  0  0  0  0
 43 54  1  6  0  0  0
 43 44  1  0  0  0  0
 43 42  1  0  0  0  0
 44 55  1  0  0  0  0
 44 45  1  0  0  0  0
 45 49  1  0  0  0  0
 46 45  2  0  0  0  0
 46 47  1  0  0  0  0
 47 58  1  0  0  0  0
 47 48  1  0  0  0  0
 48 59  1  0  0  0  0
 49 48  2  0  0  0  0
 50 51  1  0  0  0  0
 50 43  1  0  0  0  0
 52 50  2  0  0  0  0
 56 44  1  0  0  0  0
 57 46  1  0  0  0  0
M  END
$$$$
