VWK.pdb
 OpenBabel07022419273D

 63 64  0  0  1  0  0  0  0  0999 V2000
    3.0760    2.0810    2.9190 C   0  0  0  0  0  0  0  0  0  0  0  0
    3.8030    0.8070    2.6710 C   0  0  0  0  0  0  0  0  0  0  0  0
    5.2850    0.9110    2.9800 C   0  0  0  0  0  0  0  0  0  0  0  0
    3.5650    0.2010    1.3090 C   0  0  2  0  0  0  0  0  0  0  0  0
    3.9520    1.0410    0.2120 N   0  0  0  0  0  0  0  0  0  0  0  0
    2.1770   -0.2840    1.1870 C   0  0  0  0  0  0  0  0  0  0  0  0
    1.6420   -0.8800    2.1520 O   0  0  0  0  0  0  0  0  0  0  0  0
    2.6710    2.0690    3.9710 H   0  0  0  0  0  0  0  0  0  0  0  0
    2.1790    2.1030    2.2720 H   0  0  0  0  0  0  0  0  0  0  0  0
    3.7090    2.9870    2.7710 H   0  0  0  0  0  0  0  0  0  0  0  0
    3.4140    0.0380    3.4030 H   0  0  0  0  0  0  0  0  0  0  0  0
    5.4170    1.3480    3.9840 H   0  0  0  0  0  0  0  0  0  0  0  0
    5.8380    1.4880    2.2110 H   0  0  0  0  0  0  0  0  0  0  0  0
    5.7580   -0.0920    3.0120 H   0  0  0  0  0  0  0  0  0  0  0  0
    4.2160   -0.7440    1.2620 H   0  0  0  0  0  0  0  0  0  0  0  0
    3.8680    0.5530   -0.6830 H   0  0  0  0  0  0  0  0  0  0  0  0
    3.5450    1.9780    0.2280 H   0  0  0  0  0  0  0  0  0  0  0  0
    1.3850   -0.1210    0.0130 N   0  0  0  0  0  0  0  0  0  0  0  0
    0.0550   -0.5910   -0.1130 C   0  0  1  0  0  0  0  0  0  0  0  0
   -0.8980    0.5010   -0.4640 C   0  0  0  0  0  0  0  0  0  0  0  0
   -0.9520    1.6020    0.5270 C   0  0  0  0  0  0  0  0  0  0  0  0
   -1.8720    1.7030    1.5910 C   0  0  0  0  0  0  0  0  0  0  0  0
   -1.5960    2.8090    2.3020 N   0  0  0  0  0  0  0  0  0  0  0  0
   -0.5470    3.4530    1.7750 C   0  0  0  0  0  0  0  0  0  0  0  0
    0.1390    4.6060    2.0750 C   0  0  0  0  0  0  0  0  0  0  0  0
    1.2000    5.0250    1.3090 C   0  0  0  0  0  0  0  0  0  0  0  0
    1.6120    4.3050    0.2160 C   0  0  0  0  0  0  0  0  0  0  0  0
    0.9140    3.1360   -0.0830 C   0  0  0  0  0  0  0  0  0  0  0  0
   -0.1560    2.7160    0.6940 C   0  0  0  0  0  0  0  0  0  0  0  0
   -0.0720   -1.7620   -1.0220 C   0  0  0  0  0  0  0  0  0  0  0  0
    0.9140   -2.2580   -1.5950 O   0  0  0  0  0  0  0  0  0  0  0  0
    1.8450    0.3640   -0.7810 H   0  0  0  0  0  0  0  0  0  0  0  0
   -0.2640   -0.9950    0.8960 H   0  0  0  0  0  0  0  0  0  0  0  0
   -0.5700    1.0090   -1.4230 H   0  0  0  0  0  0  0  0  0  0  0  0
   -1.9460    0.1330   -0.5740 H   0  0  0  0  0  0  0  0  0  0  0  0
   -2.6510    1.0020    1.7790 H   0  0  0  0  0  0  0  0  0  0  0  0
   -2.1210    3.1290    3.1490 H   0  0  0  0  0  0  0  0  0  0  0  0
   -0.1330    5.2280    2.9270 H   0  0  0  0  0  0  0  0  0  0  0  0
    1.7580    5.9390    1.5310 H   0  0  0  0  0  0  0  0  0  0  0  0
    2.4430    4.6190   -0.3980 H   0  0  0  0  0  0  0  0  0  0  0  0
    1.2560    2.6080   -0.9470 H   0  0  0  0  0  0  0  0  0  0  0  0
   -1.3080   -2.3810   -1.2900 N   0  0  0  0  0  0  0  0  0  0  0  0
   -1.4300   -3.4940   -2.1520 C   0  0  1  0  0  0  0  0  0  0  0  0
   -1.9330   -4.7550   -1.5370 C   0  0  0  0  0  0  0  0  0  0  0  0
   -3.3030   -4.6490   -0.9260 C   0  0  0  0  0  0  0  0  0  0  0  0
   -3.6410   -6.0220   -0.3520 C   0  0  0  0  0  0  0  0  0  0  0  0
   -5.0100   -6.0180    0.2910 C   0  0  0  0  0  0  0  0  0  0  0  0
   -5.0690   -5.0510    1.3750 N   0  0  0  0  0  0  0  0  0  0  0  0
   -2.1580   -3.1000   -3.3720 C   0  0  0  0  0  0  0  0  0  0  0  0
   -2.4220   -3.8710   -4.3220 O   0  0  0  0  0  0  0  0  0  0  0  0
   -2.5920   -1.7890   -3.4990 O   0  0  0  0  0  0  0  0  0  0  0  0
   -2.2170   -2.0340   -0.8480 H   0  0  0  0  0  0  0  0  0  0  0  0
   -0.3950   -3.7420   -2.5170 H   0  0  0  0  0  0  0  0  0  0  0  0
   -2.0220   -5.5120   -2.3480 H   0  0  0  0  0  0  0  0  0  0  0  0
   -1.1710   -5.1420   -0.8470 H   0  0  0  0  0  0  0  0  0  0  0  0
   -4.0440   -4.4750   -1.7330 H   0  0  0  0  0  0  0  0  0  0  0  0
   -3.4140   -3.8530   -0.1990 H   0  0  0  0  0  0  0  0  0  0  0  0
   -2.9250   -6.3280    0.4380 H   0  0  0  0  0  0  0  0  0  0  0  0
   -3.6330   -6.8020   -1.1230 H   0  0  0  0  0  0  0  0  0  0  0  0
   -5.7300   -5.7320   -0.5030 H   0  0  0  0  0  0  0  0  0  0  0  0
   -5.2420   -7.0070    0.7240 H   0  0  0  0  0  0  0  0  0  0  0  0
   -5.5040   -5.4510    2.2130 H   0  0  0  0  0  0  0  0  0  0  0  0
   -4.1530   -4.6210    1.5750 H   0  0  0  0  0  0  0  0  0  0  0  0
  1  8  1  0  0  0  0
  2  1  1  0  0  0  0
  2  3  1  0  0  0  0
  2 11  1  0  0  0  0
  3 14  1  0  0  0  0
  3 12  1  0  0  0  0
  4 15  1  6  0  0  0
  4  2  1  0  0  0  0
  5 17  1  0  0  0  0
  5  4  1  0  0  0  0
  6  4  1  0  0  0  0
  6  7  2  0  0  0  0
  9  1  1  0  0  0  0
 10  1  1  0  0  0  0
 13  3  1  0  0  0  0
 16  5  1  0  0  0  0
 18  6  1  0  0  0  0
 19 18  1  0  0  0  0
 19 33  1  1  0  0  0
 20 19  1  0  0  0  0
 20 21  1  0  0  0  0
 21 29  1  0  0  0  0
 21 22  2  0  0  0  0
 22 36  1  0  0  0  0
 22 23  1  0  0  0  0
 23 37  1  0  0  0  0
 24 25  1  0  0  0  0
 24 23  1  0  0  0  0
 25 38  1  0  0  0  0
 26 39  1  0  0  0  0
 26 25  2  0  0  0  0
 27 26  1  0  0  0  0
 28 27  2  0  0  0  0
 28 29  1  0  0  0  0
 29 24  2  0  0  0  0
 30 19  1  0  0  0  0
 31 30  2  0  0  0  0
 32 18  1  0  0  0  0
 34 20  1  0  0  0  0
 35 20  1  0  0  0  0
 40 27  1  0  0  0  0
 41 28  1  0  0  0  0
 42 30  1  0  0  0  0
 42 52  1  0  0  0  0
 43 53  1  6  0  0  0
 43 44  1  0  0  0  0
 43 42  1  0  0  0  0
 44 45  1  0  0  0  0
 44 55  1  0  0  0  0
 45 46  1  0  0  0  0
 45 57  1  0  0  0  0
 46 47  1  0  0  0  0
 46 58  1  0  0  0  0
 47 61  1  0  0  0  0
 47 48  1  0  0  0  0
 48 63  1  0  0  0  0
 48 62  1  0  0  0  0
 49 43  1  0  0  0  0
 50 49  2  0  0  0  0
 51 49  1  0  0  0  0
 54 44  1  0  0  0  0
 56 45  1  0  0  0  0
 59 46  1  0  0  0  0
 60 47  1  0  0  0  0
M  END
$$$$
