VWM.pdb
 OpenBabel07022419273D

 59 60  0  0  1  0  0  0  0  0999 V2000
    0.8560    2.4770    3.5790 C   0  0  0  0  0  0  0  0  0  0  0  0
    1.2980    1.2500    4.2970 C   0  0  0  0  0  0  0  0  0  0  0  0
    0.1190    0.6470    5.0290 C   0  0  0  0  0  0  0  0  0  0  0  0
    2.0340    0.2450    3.4670 C   0  0  2  0  0  0  0  0  0  0  0  0
    3.2180    0.8400    2.9300 N   0  0  0  0  0  0  0  0  0  0  0  0
    1.2090   -0.3010    2.3490 C   0  0  0  0  0  0  0  0  0  0  0  0
    0.0890   -0.8640    2.6030 O   0  0  0  0  0  0  0  0  0  0  0  0
    1.0180    3.4130    4.1860 H   0  0  0  0  0  0  0  0  0  0  0  0
    1.3230    2.6680    2.6100 H   0  0  0  0  0  0  0  0  0  0  0  0
   -0.2530    2.4640    3.4010 H   0  0  0  0  0  0  0  0  0  0  0  0
    2.0260    1.5850    5.0860 H   0  0  0  0  0  0  0  0  0  0  0  0
    0.1300    0.9190    6.0870 H   0  0  0  0  0  0  0  0  0  0  0  0
    0.1090   -0.4630    4.9530 H   0  0  0  0  0  0  0  0  0  0  0  0
   -0.8000    0.9900    4.5130 H   0  0  0  0  0  0  0  0  0  0  0  0
    2.3460   -0.5720    4.1620 H   0  0  0  0  0  0  0  0  0  0  0  0
    3.8460    0.1920    2.4200 H   0  0  0  0  0  0  0  0  0  0  0  0
    3.1360    1.7830    2.5490 H   0  0  0  0  0  0  0  0  0  0  0  0
    1.5720   -0.2470    0.9840 N   0  0  0  0  0  0  0  0  0  0  0  0
    0.7620   -0.7820   -0.0760 C   0  0  1  0  0  0  0  0  0  0  0  0
    0.2890    0.3240   -0.9920 C   0  0  0  0  0  0  0  0  0  0  0  0
   -0.5250    1.3330   -0.2740 C   0  0  0  0  0  0  0  0  0  0  0  0
   -0.1090    2.5840    0.1030 C   0  0  0  0  0  0  0  0  0  0  0  0
   -1.1270    3.2000    0.7260 N   0  0  0  0  0  0  0  0  0  0  0  0
   -2.2130    2.4100    0.7830 C   0  0  0  0  0  0  0  0  0  0  0  0
   -3.4880    2.5280    1.2890 C   0  0  0  0  0  0  0  0  0  0  0  0
   -4.4190    1.5180    1.1970 C   0  0  0  0  0  0  0  0  0  0  0  0
   -4.0500    0.3460    0.5730 C   0  0  0  0  0  0  0  0  0  0  0  0
   -2.7730    0.2260    0.0660 C   0  0  0  0  0  0  0  0  0  0  0  0
   -1.8320    1.2230    0.1480 C   0  0  0  0  0  0  0  0  0  0  0  0
    1.4600   -1.8520   -0.8350 C   0  0  0  0  0  0  0  0  0  0  0  0
    2.6230   -2.2040   -0.5480 O   0  0  0  0  0  0  0  0  0  0  0  0
    2.4760    0.2070    0.7400 H   0  0  0  0  0  0  0  0  0  0  0  0
   -0.1710   -1.1900    0.4150 H   0  0  0  0  0  0  0  0  0  0  0  0
    1.1620    0.8060   -1.4820 H   0  0  0  0  0  0  0  0  0  0  0  0
   -0.2990   -0.1400   -1.8300 H   0  0  0  0  0  0  0  0  0  0  0  0
    0.8770    3.0000   -0.0760 H   0  0  0  0  0  0  0  0  0  0  0  0
   -1.0580    4.1780    1.1120 H   0  0  0  0  0  0  0  0  0  0  0  0
   -3.7830    3.4420    1.7790 H   0  0  0  0  0  0  0  0  0  0  0  0
   -5.4300    1.6200    1.6020 H   0  0  0  0  0  0  0  0  0  0  0  0
   -4.7840   -0.4430    0.5040 H   0  0  0  0  0  0  0  0  0  0  0  0
   -2.4550   -0.6910   -0.4340 H   0  0  0  0  0  0  0  0  0  0  0  0
   -1.4800   -6.5120   -0.4500 C   0  0  0  0  0  0  0  0  0  0  0  0
   -1.6140   -6.3020   -2.2490 S   0  0  0  0  0  0  0  0  0  0  0  0
   -0.8680   -4.6870   -2.6960 C   0  0  0  0  0  0  0  0  0  0  0  0
    0.5910   -4.7910   -2.4000 C   0  0  0  0  0  0  0  0  0  0  0  0
    1.3670   -3.5330   -2.7120 C   0  0  2  0  0  0  0  0  0  0  0  0
    0.7970   -2.4780   -1.8960 N   0  0  0  0  0  0  0  0  0  0  0  0
    1.4060   -3.2180   -4.1390 C   0  0  0  0  0  0  0  0  0  0  0  0
    1.8850   -4.0790   -4.9260 O   0  0  0  0  0  0  0  0  0  0  0  0
    0.9550   -2.0390   -4.7110 O   0  0  0  0  0  0  0  0  0  0  0  0
   -0.5680   -7.0990   -0.1850 H   0  0  0  0  0  0  0  0  0  0  0  0
   -2.3350   -7.1040   -0.0590 H   0  0  0  0  0  0  0  0  0  0  0  0
   -1.4640   -5.5110    0.0540 H   0  0  0  0  0  0  0  0  0  0  0  0
   -1.1180   -4.4550   -3.7350 H   0  0  0  0  0  0  0  0  0  0  0  0
   -1.3620   -3.9280   -2.0420 H   0  0  0  0  0  0  0  0  0  0  0  0
    0.9850   -5.6590   -2.9830 H   0  0  0  0  0  0  0  0  0  0  0  0
    0.7030   -5.0690   -1.3330 H   0  0  0  0  0  0  0  0  0  0  0  0
    2.4020   -3.7010   -2.3170 H   0  0  0  0  0  0  0  0  0  0  0  0
   -0.1930   -2.1550   -2.1160 H   0  0  0  0  0  0  0  0  0  0  0  0
  1  8  1  0  0  0  0
  1  2  1  0  0  0  0
  2  3  1  0  0  0  0
  2 11  1  0  0  0  0
  3 12  1  0  0  0  0
  4 15  1  1  0  0  0
  4  2  1  0  0  0  0
  5  4  1  0  0  0  0
  6  7  2  0  0  0  0
  6  4  1  0  0  0  0
  9  1  1  0  0  0  0
 10  1  1  0  0  0  0
 13  3  1  0  0  0  0
 14  3  1  0  0  0  0
 16  5  1  0  0  0  0
 17  5  1  0  0  0  0
 18  6  1  0  0  0  0
 19 33  1  1  0  0  0
 19 18  1  0  0  0  0
 20 21  1  0  0  0  0
 20 19  1  0  0  0  0
 21 22  2  0  0  0  0
 21 29  1  0  0  0  0
 22 23  1  0  0  0  0
 23 24  1  0  0  0  0
 23 37  1  0  0  0  0
 24 25  1  0  0  0  0
 25 38  1  0  0  0  0
 26 25  2  0  0  0  0
 26 39  1  0  0  0  0
 27 26  1  0  0  0  0
 28 29  1  0  0  0  0
 28 27  2  0  0  0  0
 29 24  2  0  0  0  0
 30 31  2  0  0  0  0
 30 19  1  0  0  0  0
 32 18  1  0  0  0  0
 34 20  1  0  0  0  0
 35 20  1  0  0  0  0
 36 22  1  0  0  0  0
 40 27  1  0  0  0  0
 41 28  1  0  0  0  0
 42 51  1  0  0  0  0
 42 52  1  0  0  0  0
 42 53  1  0  0  0  0
 43 42  1  0  0  0  0
 44 45  1  0  0  0  0
 44 43  1  0  0  0  0
 44 55  1  0  0  0  0
 45 57  1  0  0  0  0
 46 45  1  0  0  0  0
 46 58  1  1  0  0  0
 46 47  1  0  0  0  0
 47 30  1  0  0  0  0
 48 46  1  0  0  0  0
 49 48  2  0  0  0  0
 50 48  1  0  0  0  0
 54 44  1  0  0  0  0
 56 45  1  0  0  0  0
 59 47  1  0  0  0  0
M  END
$$$$
