VWP.pdb
 OpenBabel07022419273D

 56 58  0  0  1  0  0  0  0  0999 V2000
    1.8450    0.1940    3.6460 C   0  0  0  0  0  0  0  0  0  0  0  0
    3.0090    0.1150    2.7150 C   0  0  0  0  0  0  0  0  0  0  0  0
    4.2830    0.0340    3.5450 C   0  0  0  0  0  0  0  0  0  0  0  0
    3.0060   -1.0590    1.7790 C   0  0  2  0  0  0  0  0  0  0  0  0
    4.2500   -0.9110    0.9910 N   0  0  0  0  0  0  0  0  0  0  0  0
    1.8860   -1.1040    0.8320 C   0  0  0  0  0  0  0  0  0  0  0  0
    2.1600   -0.9510   -0.4100 O   0  0  0  0  0  0  0  0  0  0  0  0
    1.6300   -0.7970    4.1430 H   0  0  0  0  0  0  0  0  0  0  0  0
    2.1120    0.8570    4.5060 H   0  0  0  0  0  0  0  0  0  0  0  0
    0.9480    0.6490    3.2020 H   0  0  0  0  0  0  0  0  0  0  0  0
    3.0180    1.0910    2.1500 H   0  0  0  0  0  0  0  0  0  0  0  0
    4.7500    1.0230    3.5640 H   0  0  0  0  0  0  0  0  0  0  0  0
    4.9730   -0.7110    3.1110 H   0  0  0  0  0  0  0  0  0  0  0  0
    4.0230   -0.2650    4.5900 H   0  0  0  0  0  0  0  0  0  0  0  0
    3.1030   -2.0140    2.2930 H   0  0  0  0  0  0  0  0  0  0  0  0
    4.4260   -1.7820    0.4270 H   0  0  0  0  0  0  0  0  0  0  0  0
    4.1500   -0.1400    0.3150 H   0  0  0  0  0  0  0  0  0  0  0  0
    0.5290   -1.3130    1.2550 N   0  0  0  0  0  0  0  0  0  0  0  0
   -0.4710   -1.3410    0.2190 C   0  0  1  0  0  0  0  0  0  0  0  0
   -0.6400   -0.0140   -0.4000 C   0  0  0  0  0  0  0  0  0  0  0  0
   -1.0630    1.0660    0.5240 C   0  0  0  0  0  0  0  0  0  0  0  0
   -0.2980    2.0960    1.0500 C   0  0  0  0  0  0  0  0  0  0  0  0
   -1.0350    2.8860    1.8480 N   0  0  0  0  0  0  0  0  0  0  0  0
   -2.2790    2.4170    1.8770 C   0  0  0  0  0  0  0  0  0  0  0  0
   -3.4390    2.8360    2.5300 C   0  0  0  0  0  0  0  0  0  0  0  0
   -4.6300    2.1610    2.3910 C   0  0  0  0  0  0  0  0  0  0  0  0
   -4.6550    1.0490    1.5850 C   0  0  0  0  0  0  0  0  0  0  0  0
   -3.5000    0.6430    0.9430 C   0  0  0  0  0  0  0  0  0  0  0  0
   -2.3180    1.2950    1.0670 C   0  0  0  0  0  0  0  0  0  0  0  0
   -0.1760   -2.4620   -0.6670 C   0  0  0  0  0  0  0  0  0  0  0  0
    0.8140   -3.1610   -0.3370 O   0  0  0  0  0  0  0  0  0  0  0  0
    0.3180   -1.4400    2.2710 H   0  0  0  0  0  0  0  0  0  0  0  0
   -1.4490   -1.5460    0.7870 H   0  0  0  0  0  0  0  0  0  0  0  0
   -1.3020   -0.0340   -1.3210 H   0  0  0  0  0  0  0  0  0  0  0  0
    0.3250    0.3320   -0.8260 H   0  0  0  0  0  0  0  0  0  0  0  0
    0.7500    2.2620    0.8580 H   0  0  0  0  0  0  0  0  0  0  0  0
   -0.7290    3.7390    2.3810 H   0  0  0  0  0  0  0  0  0  0  0  0
   -3.4330    3.7110    3.1690 H   0  0  0  0  0  0  0  0  0  0  0  0
   -5.5310    2.5120    2.9180 H   0  0  0  0  0  0  0  0  0  0  0  0
   -5.5830    0.5090    1.4670 H   0  0  0  0  0  0  0  0  0  0  0  0
   -3.5700   -0.2280    0.3260 H   0  0  0  0  0  0  0  0  0  0  0  0
   -0.8990   -2.8100   -1.8350 N   0  0  0  0  0  0  0  0  0  0  0  0
   -2.0650   -2.1860   -2.4290 C   0  0  0  0  0  0  0  0  0  0  0  0
   -2.7470   -3.3250   -3.2090 C   0  0  0  0  0  0  0  0  0  0  0  0
   -1.5250   -3.9520   -3.8410 C   0  0  0  0  0  0  0  0  0  0  0  0
   -0.5800   -3.9260   -2.6950 C   0  0  1  0  0  0  0  0  0  0  0  0
    0.8420   -3.9380   -3.1060 C   0  0  0  0  0  0  0  0  0  0  0  0
    1.1990   -4.9020   -3.8500 O   0  0  0  0  0  0  0  0  0  0  0  0
    1.7950   -3.0210   -2.7660 O   0  0  0  0  0  0  0  0  0  0  0  0
   -1.8060   -1.4490   -3.2150 H   0  0  0  0  0  0  0  0  0  0  0  0
   -2.8110   -1.8570   -1.7100 H   0  0  0  0  0  0  0  0  0  0  0  0
   -3.1890   -3.9790   -2.4380 H   0  0  0  0  0  0  0  0  0  0  0  0
   -3.4630   -2.9280   -3.9260 H   0  0  0  0  0  0  0  0  0  0  0  0
   -1.2230   -3.3250   -4.7020 H   0  0  0  0  0  0  0  0  0  0  0  0
   -1.7040   -5.0070   -4.1230 H   0  0  0  0  0  0  0  0  0  0  0  0
   -0.7440   -4.8570   -2.0870 H   0  0  0  0  0  0  0  0  0  0  0  0
  1  8  1  0  0  0  0
  1  9  1  0  0  0  0
  2  3  1  0  0  0  0
  2  1  1  0  0  0  0
  3 12  1  0  0  0  0
  3 14  1  0  0  0  0
  4 15  1  1  0  0  0
  4  2  1  0  0  0  0
  5  4  1  0  0  0  0
  6 18  1  0  0  0  0
  6  4  1  0  0  0  0
  7  6  2  0  0  0  0
 10  1  1  0  0  0  0
 11  2  1  0  0  0  0
 13  3  1  0  0  0  0
 16  5  1  0  0  0  0
 17  5  1  0  0  0  0
 18 32  1  0  0  0  0
 19 33  1  1  0  0  0
 19 18  1  0  0  0  0
 20 19  1  0  0  0  0
 20 21  1  0  0  0  0
 21 22  2  0  0  0  0
 21 29  1  0  0  0  0
 22 23  1  0  0  0  0
 23 24  1  0  0  0  0
 23 37  1  0  0  0  0
 24 25  1  0  0  0  0
 25 38  1  0  0  0  0
 26 25  2  0  0  0  0
 26 39  1  0  0  0  0
 27 26  1  0  0  0  0
 28 29  1  0  0  0  0
 28 27  2  0  0  0  0
 29 24  2  0  0  0  0
 30 31  2  0  0  0  0
 30 19  1  0  0  0  0
 34 20  1  0  0  0  0
 35 20  1  0  0  0  0
 36 22  1  0  0  0  0
 40 27  1  0  0  0  0
 41 28  1  0  0  0  0
 42 30  1  0  0  0  0
 43 42  1  0  0  0  0
 43 51  1  0  0  0  0
 44 52  1  0  0  0  0
 44 43  1  0  0  0  0
 45 44  1  0  0  0  0
 45 46  1  0  0  0  0
 46 56  1  1  0  0  0
 46 42  1  0  0  0  0
 47 49  1  0  0  0  0
 47 46  1  0  0  0  0
 48 47  2  0  0  0  0
 50 43  1  0  0  0  0
 53 44  1  0  0  0  0
 54 45  1  0  0  0  0
 55 45  1  0  0  0  0
M  END
$$$$
