VWT.pdb
 OpenBabel07022419283D

 56 57  0  0  1  0  0  0  0  0999 V2000
    2.7970    0.7760    3.7700 C   0  0  0  0  0  0  0  0  0  0  0  0
    3.6620    1.2900    2.6430 C   0  0  0  0  0  0  0  0  0  0  0  0
    4.4990    2.4580    3.1160 C   0  0  0  0  0  0  0  0  0  0  0  0
    2.8350    1.6680    1.4300 C   0  0  2  0  0  0  0  0  0  0  0  0
    1.8790    2.6800    1.6900 N   0  0  0  0  0  0  0  0  0  0  0  0
    2.3120    0.4270    0.8380 C   0  0  0  0  0  0  0  0  0  0  0  0
    3.1250   -0.4840    0.5480 O   0  0  0  0  0  0  0  0  0  0  0  0
    1.7160    0.9200    3.5660 H   0  0  0  0  0  0  0  0  0  0  0  0
    2.9310   -0.3080    3.9670 H   0  0  0  0  0  0  0  0  0  0  0  0
    3.0540    1.2990    4.7130 H   0  0  0  0  0  0  0  0  0  0  0  0
    4.3690    0.4730    2.3890 H   0  0  0  0  0  0  0  0  0  0  0  0
    4.3710    2.5490    4.2130 H   0  0  0  0  0  0  0  0  0  0  0  0
    4.1540    3.4200    2.6880 H   0  0  0  0  0  0  0  0  0  0  0  0
    5.5850    2.2900    2.9390 H   0  0  0  0  0  0  0  0  0  0  0  0
    3.5860    2.0660    0.6830 H   0  0  0  0  0  0  0  0  0  0  0  0
    1.5450    2.7610    2.6520 H   0  0  0  0  0  0  0  0  0  0  0  0
    2.2500    3.6070    1.3940 H   0  0  0  0  0  0  0  0  0  0  0  0
    0.9160    0.1930    0.5710 N   0  0  0  0  0  0  0  0  0  0  0  0
    0.4490   -1.0410   -0.0150 C   0  0  1  0  0  0  0  0  0  0  0  0
   -0.4540   -1.8500    0.8400 C   0  0  0  0  0  0  0  0  0  0  0  0
   -1.7070   -1.2320    1.2530 C   0  0  0  0  0  0  0  0  0  0  0  0
   -2.2840   -0.0580    0.8350 C   0  0  0  0  0  0  0  0  0  0  0  0
   -3.4390    0.0700    1.5060 N   0  0  0  0  0  0  0  0  0  0  0  0
   -3.6340   -0.9840    2.3490 C   0  0  0  0  0  0  0  0  0  0  0  0
   -4.6420   -1.3090    3.2280 C   0  0  0  0  0  0  0  0  0  0  0  0
   -4.6020   -2.4580    3.9790 C   0  0  0  0  0  0  0  0  0  0  0  0
   -3.5170   -3.2920    3.8330 C   0  0  0  0  0  0  0  0  0  0  0  0
   -2.5020   -2.9810    2.9580 C   0  0  0  0  0  0  0  0  0  0  0  0
   -2.5440   -1.8100    2.1940 C   0  0  0  0  0  0  0  0  0  0  0  0
   -0.0770   -0.8330   -1.3890 C   0  0  0  0  0  0  0  0  0  0  0  0
   -0.1370    0.2800   -1.9590 O   0  0  0  0  0  0  0  0  0  0  0  0
    0.3000    0.9830    0.8390 H   0  0  0  0  0  0  0  0  0  0  0  0
    1.3740   -1.6800   -0.1700 H   0  0  0  0  0  0  0  0  0  0  0  0
    0.1010   -2.1530    1.7610 H   0  0  0  0  0  0  0  0  0  0  0  0
   -0.6410   -2.8140    0.3070 H   0  0  0  0  0  0  0  0  0  0  0  0
   -1.9160    0.6610    0.1000 H   0  0  0  0  0  0  0  0  0  0  0  0
   -4.1080    0.8750    1.3990 H   0  0  0  0  0  0  0  0  0  0  0  0
   -5.4830   -0.6500    3.3340 H   0  0  0  0  0  0  0  0  0  0  0  0
   -5.4110   -2.7130    4.6820 H   0  0  0  0  0  0  0  0  0  0  0  0
   -3.4730   -4.1960    4.4150 H   0  0  0  0  0  0  0  0  0  0  0  0
   -1.6420   -3.6170    2.8250 H   0  0  0  0  0  0  0  0  0  0  0  0
    1.0570   -1.9430   -4.7390 C   0  0  0  0  0  0  0  0  0  0  0  0
   -0.3020   -2.5980   -4.5070 C   0  0  1  0  0  0  0  0  0  0  0  0
   -0.1800   -3.9590   -4.2990 O   0  0  0  0  0  0  0  0  0  0  0  0
   -1.0730   -1.8690   -3.4590 C   0  0  2  0  0  0  0  0  0  0  0  0
   -0.5490   -1.9380   -2.1350 N   0  0  0  0  0  0  0  0  0  0  0  0
   -2.4800   -2.3370   -3.4890 C   0  0  0  0  0  0  0  0  0  0  0  0
   -3.0190   -2.7190   -2.4150 O   0  0  0  0  0  0  0  0  0  0  0  0
   -3.2310   -2.3720   -4.6550 O   0  0  0  0  0  0  0  0  0  0  0  0
    1.7810   -2.2610   -3.9390 H   0  0  0  0  0  0  0  0  0  0  0  0
    0.9490   -0.8430   -4.8070 H   0  0  0  0  0  0  0  0  0  0  0  0
    1.5240   -2.2700   -5.6890 H   0  0  0  0  0  0  0  0  0  0  0  0
   -0.8640   -2.4730   -5.4570 H   0  0  0  0  0  0  0  0  0  0  0  0
    0.6920   -4.3260   -4.5800 H   0  0  0  0  0  0  0  0  0  0  0  0
   -1.0790   -0.8000   -3.7620 H   0  0  0  0  0  0  0  0  0  0  0  0
   -0.5290   -2.9150   -1.7160 H   0  0  0  0  0  0  0  0  0  0  0  0
  1  9  1  0  0  0  0
  1 10  1  0  0  0  0
  2  3  1  0  0  0  0
  2  1  1  0  0  0  0
  3 12  1  0  0  0  0
  4 15  1  6  0  0  0
  4  5  1  0  0  0  0
  4  2  1  0  0  0  0
  5 16  1  0  0  0  0
  6  4  1  0  0  0  0
  7  6  2  0  0  0  0
  8  1  1  0  0  0  0
 11  2  1  0  0  0  0
 13  3  1  0  0  0  0
 14  3  1  0  0  0  0
 17  5  1  0  0  0  0
 18  6  1  0  0  0  0
 18 32  1  0  0  0  0
 19 33  1  6  0  0  0
 19 18  1  0  0  0  0
 19 20  1  0  0  0  0
 20 21  1  0  0  0  0
 20 34  1  0  0  0  0
 21 29  1  0  0  0  0
 22 21  2  0  0  0  0
 22 23  1  0  0  0  0
 23 24  1  0  0  0  0
 24 25  1  0  0  0  0
 25 38  1  0  0  0  0
 25 26  2  0  0  0  0
 26 39  1  0  0  0  0
 27 26  1  0  0  0  0
 27 40  1  0  0  0  0
 28 27  2  0  0  0  0
 29 24  2  0  0  0  0
 29 28  1  0  0  0  0
 30 19  1  0  0  0  0
 31 30  2  0  0  0  0
 35 20  1  0  0  0  0
 36 22  1  0  0  0  0
 37 23  1  0  0  0  0
 41 28  1  0  0  0  0
 42 43  1  0  0  0  0
 42 50  1  0  0  0  0
 43 53  1  6  0  0  0
 43 44  1  0  0  0  0
 43 45  1  0  0  0  0
 45 55  1  6  0  0  0
 45 46  1  0  0  0  0
 46 56  1  0  0  0  0
 46 30  1  0  0  0  0
 47 45  1  0  0  0  0
 47 48  1  0  0  0  0
 49 47  2  0  0  0  0
 51 42  1  0  0  0  0
 52 42  1  0  0  0  0
 54 44  1  0  0  0  0
M  END
$$$$
