VYL.pdb
 OpenBabel07022419283D

 58 58  0  0  1  0  0  0  0  0999 V2000
    2.2850   -1.0440    5.4600 C   0  0  0  0  0  0  0  0  0  0  0  0
    3.2380   -1.0580    4.2850 C   0  0  0  0  0  0  0  0  0  0  0  0
    3.5720    0.3660    3.9390 C   0  0  0  0  0  0  0  0  0  0  0  0
    2.6050   -1.8010    3.1320 C   0  0  2  0  0  0  0  0  0  0  0  0
    3.4450   -1.8610    1.9780 N   0  0  0  0  0  0  0  0  0  0  0  0
    1.2670   -1.2050    2.8210 C   0  0  0  0  0  0  0  0  0  0  0  0
    0.3850   -1.0660    3.7110 O   0  0  0  0  0  0  0  0  0  0  0  0
    1.6220   -0.1560    5.4670 H   0  0  0  0  0  0  0  0  0  0  0  0
    2.8810   -1.0700    6.4160 H   0  0  0  0  0  0  0  0  0  0  0  0
    1.6570   -1.9530    5.4530 H   0  0  0  0  0  0  0  0  0  0  0  0
    4.1740   -1.5860    4.5340 H   0  0  0  0  0  0  0  0  0  0  0  0
    4.0800    0.7950    4.8480 H   0  0  0  0  0  0  0  0  0  0  0  0
    4.3160    0.4570    3.1250 H   0  0  0  0  0  0  0  0  0  0  0  0
    2.6720    0.9880    3.7740 H   0  0  0  0  0  0  0  0  0  0  0  0
    2.4170   -2.8320    3.4900 H   0  0  0  0  0  0  0  0  0  0  0  0
    4.4020   -1.5200    2.1110 H   0  0  0  0  0  0  0  0  0  0  0  0
    3.4720   -2.8250    1.6200 H   0  0  0  0  0  0  0  0  0  0  0  0
   -4.9670    3.8970   -0.6770 O   0  0  0  0  0  0  0  0  0  0  0  0
   -3.7830    3.2350   -0.3360 C   0  0  0  0  0  0  0  0  0  0  0  0
   -3.2920    3.3080    0.9500 C   0  0  0  0  0  0  0  0  0  0  0  0
   -2.1150    2.6460    1.2770 C   0  0  0  0  0  0  0  0  0  0  0  0
   -1.4270    1.9080    0.3080 C   0  0  0  0  0  0  0  0  0  0  0  0
   -0.1770    1.2180    0.6730 C   0  0  0  0  0  0  0  0  0  0  0  0
   -0.3810   -0.1820    1.1950 C   0  0  2  0  0  0  0  0  0  0  0  0
    0.9060   -0.7610    1.5190 N   0  0  0  0  0  0  0  0  0  0  0  0
   -1.0470   -1.0840    0.2220 C   0  0  0  0  0  0  0  0  0  0  0  0
   -2.2010   -0.8610   -0.2520 O   0  0  0  0  0  0  0  0  0  0  0  0
   -1.9180    1.8350   -0.9760 C   0  0  0  0  0  0  0  0  0  0  0  0
   -3.0880    2.5040   -1.2640 C   0  0  0  0  0  0  0  0  0  0  0  0
   -5.7220    3.4030   -1.0980 H   0  0  0  0  0  0  0  0  0  0  0  0
   -3.8130    3.8770    1.7140 H   0  0  0  0  0  0  0  0  0  0  0  0
   -1.7650    2.7290    2.2940 H   0  0  0  0  0  0  0  0  0  0  0  0
    0.2780    1.7950    1.5140 H   0  0  0  0  0  0  0  0  0  0  0  0
    0.5810    1.2530   -0.1420 H   0  0  0  0  0  0  0  0  0  0  0  0
   -1.0470   -0.1190    2.0810 H   0  0  0  0  0  0  0  0  0  0  0  0
    1.6020   -0.8550    0.7480 H   0  0  0  0  0  0  0  0  0  0  0  0
   -1.4330    1.2830   -1.7720 H   0  0  0  0  0  0  0  0  0  0  0  0
   -3.4970    2.4590   -2.2820 H   0  0  0  0  0  0  0  0  0  0  0  0
    1.0360   -1.3600   -2.6110 C   0  0  0  0  0  0  0  0  0  0  0  0
    0.1600   -2.3920   -3.2780 C   0  0  0  0  0  0  0  0  0  0  0  0
   -0.9650   -1.6870   -3.9900 C   0  0  0  0  0  0  0  0  0  0  0  0
   -0.2760   -3.5090   -2.4100 C   0  0  0  0  0  0  0  0  0  0  0  0
   -1.0780   -3.1650   -1.2080 C   0  0  2  0  0  0  0  0  0  0  0  0
   -0.4220   -2.2930   -0.2610 N   0  0  0  0  0  0  0  0  0  0  0  0
   -1.4010   -4.4570   -0.5230 C   0  0  0  0  0  0  0  0  0  0  0  0
   -1.0900   -4.6140    0.6830 O   0  0  0  0  0  0  0  0  0  0  0  0
   -2.0360   -5.5140   -1.1550 O   0  0  0  0  0  0  0  0  0  0  0  0
    1.6860   -1.8050   -1.8480 H   0  0  0  0  0  0  0  0  0  0  0  0
    1.7500   -0.9090   -3.3660 H   0  0  0  0  0  0  0  0  0  0  0  0
    0.4290   -0.5140   -2.1940 H   0  0  0  0  0  0  0  0  0  0  0  0
    0.7970   -2.8490   -4.0920 H   0  0  0  0  0  0  0  0  0  0  0  0
   -0.5330   -0.9800   -4.7310 H   0  0  0  0  0  0  0  0  0  0  0  0
   -1.6160   -2.3770   -4.5540 H   0  0  0  0  0  0  0  0  0  0  0  0
   -1.5110   -1.0790   -3.2500 H   0  0  0  0  0  0  0  0  0  0  0  0
    0.6320   -4.0570   -2.0610 H   0  0  0  0  0  0  0  0  0  0  0  0
   -0.8600   -4.2430   -3.0000 H   0  0  0  0  0  0  0  0  0  0  0  0
   -2.0680   -2.7160   -1.4450 H   0  0  0  0  0  0  0  0  0  0  0  0
    0.5280   -2.4750    0.1320 H   0  0  0  0  0  0  0  0  0  0  0  0
  1  8  1  0  0  0  0
  1  9  1  0  0  0  0
  2 11  1  0  0  0  0
  2  1  1  0  0  0  0
  3  2  1  0  0  0  0
  3 12  1  0  0  0  0
  4 15  1  1  0  0  0
  4  2  1  0  0  0  0
  5 16  1  0  0  0  0
  5  4  1  0  0  0  0
  6  4  1  0  0  0  0
  6  7  2  0  0  0  0
 10  1  1  0  0  0  0
 13  3  1  0  0  0  0
 14  3  1  0  0  0  0
 17  5  1  0  0  0  0
 18 19  1  0  0  0  0
 19 20  1  0  0  0  0
 20 21  2  0  0  0  0
 20 31  1  0  0  0  0
 21 32  1  0  0  0  0
 22 23  1  0  0  0  0
 22 21  1  0  0  0  0
 23 24  1  0  0  0  0
 23 33  1  0  0  0  0
 24 25  1  0  0  0  0
 24 35  1  1  0  0  0
 25  6  1  0  0  0  0
 26 24  1  0  0  0  0
 27 26  2  0  0  0  0
 28 22  2  0  0  0  0
 29 28  1  0  0  0  0
 29 19  2  0  0  0  0
 30 18  1  0  0  0  0
 34 23  1  0  0  0  0
 36 25  1  0  0  0  0
 37 28  1  0  0  0  0
 38 29  1  0  0  0  0
 39 50  1  0  0  0  0
 39 48  1  0  0  0  0
 40 39  1  0  0  0  0
 40 42  1  0  0  0  0
 41 40  1  0  0  0  0
 41 54  1  0  0  0  0
 42 55  1  0  0  0  0
 42 43  1  0  0  0  0
 43 57  1  6  0  0  0
 43 45  1  0  0  0  0
 43 44  1  0  0  0  0
 44 58  1  0  0  0  0
 44 26  1  0  0  0  0
 45 46  1  0  0  0  0
 47 45  2  0  0  0  0
 49 39  1  0  0  0  0
 51 40  1  0  0  0  0
 52 41  1  0  0  0  0
 53 41  1  0  0  0  0
 56 42  1  0  0  0  0
M  END
$$$$
