VYM.pdb
 OpenBabel07022419283D

 56 56  0  0  1  0  0  0  0  0999 V2000
    0.1610   -0.2440    4.4520 C   0  0  0  0  0  0  0  0  0  0  0  0
    1.6110   -0.6020    4.4090 C   0  0  0  0  0  0  0  0  0  0  0  0
    2.5150    0.6110    4.3930 C   0  0  0  0  0  0  0  0  0  0  0  0
    1.9630   -1.6070    3.3710 C   0  0  2  0  0  0  0  0  0  0  0  0
    3.4270   -1.8440    3.4740 N   0  0  0  0  0  0  0  0  0  0  0  0
    1.6060   -1.2670    1.9850 C   0  0  0  0  0  0  0  0  0  0  0  0
    2.5610   -1.0060    1.1760 O   0  0  0  0  0  0  0  0  0  0  0  0
   -0.1690    0.4090    3.6400 H   0  0  0  0  0  0  0  0  0  0  0  0
   -0.0840    0.3470    5.3930 H   0  0  0  0  0  0  0  0  0  0  0  0
   -0.4270   -1.1750    4.5900 H   0  0  0  0  0  0  0  0  0  0  0  0
    1.8220   -1.1130    5.3990 H   0  0  0  0  0  0  0  0  0  0  0  0
    3.1660    0.6520    3.4910 H   0  0  0  0  0  0  0  0  0  0  0  0
    1.9120    1.5630    4.4720 H   0  0  0  0  0  0  0  0  0  0  0  0
    3.2080    0.6490    5.2600 H   0  0  0  0  0  0  0  0  0  0  0  0
    1.5010   -2.5750    3.6360 H   0  0  0  0  0  0  0  0  0  0  0  0
    3.9620   -1.1460    2.9530 H   0  0  0  0  0  0  0  0  0  0  0  0
    3.6530   -1.9620    4.4660 H   0  0  0  0  0  0  0  0  0  0  0  0
   -1.0110    4.9950    2.5790 O   0  0  0  0  0  0  0  0  0  0  0  0
   -0.6180    3.8480    1.8640 C   0  0  0  0  0  0  0  0  0  0  0  0
    0.5590    3.1990    2.1520 C   0  0  0  0  0  0  0  0  0  0  0  0
    0.9400    2.0690    1.4440 C   0  0  0  0  0  0  0  0  0  0  0  0
    0.1820    1.5380    0.4330 C   0  0  0  0  0  0  0  0  0  0  0  0
    0.5120    0.3320   -0.3620 C   0  0  0  0  0  0  0  0  0  0  0  0
   -0.1200   -0.9000    0.2390 C   0  0  2  0  0  0  0  0  0  0  0  0
    0.2780   -1.2300    1.5580 N   0  0  0  0  0  0  0  0  0  0  0  0
   -0.0750   -2.0770   -0.6290 C   0  0  0  0  0  0  0  0  0  0  0  0
    0.2870   -3.1710   -0.1300 O   0  0  0  0  0  0  0  0  0  0  0  0
   -1.0150    2.2200    0.1600 C   0  0  0  0  0  0  0  0  0  0  0  0
   -1.4050    3.3410    0.8530 C   0  0  0  0  0  0  0  0  0  0  0  0
   -1.9580    5.0740    2.9340 H   0  0  0  0  0  0  0  0  0  0  0  0
    1.2040    3.5590    2.9320 H   0  0  0  0  0  0  0  0  0  0  0  0
    1.8900    1.5660    1.6800 H   0  0  0  0  0  0  0  0  0  0  0  0
    0.1300    0.5320   -1.3870 H   0  0  0  0  0  0  0  0  0  0  0  0
    1.6070    0.2640   -0.4710 H   0  0  0  0  0  0  0  0  0  0  0  0
   -1.2310   -0.6010    0.3190 H   0  0  0  0  0  0  0  0  0  0  0  0
   -0.4860   -1.4740    2.2490 H   0  0  0  0  0  0  0  0  0  0  0  0
   -1.6520    1.8290   -0.6420 H   0  0  0  0  0  0  0  0  0  0  0  0
   -2.3350    3.8590    0.6300 H   0  0  0  0  0  0  0  0  0  0  0  0
   -4.7710   -2.7710   -4.2390 C   0  0  0  0  0  0  0  0  0  0  0  0
   -4.2810   -4.2670   -3.3380 S   0  0  0  0  0  0  0  0  0  0  0  0
   -2.7530   -3.8700   -2.4270 C   0  0  0  0  0  0  0  0  0  0  0  0
   -1.6740   -3.6180   -3.4580 C   0  0  0  0  0  0  0  0  0  0  0  0
   -0.3530   -3.2770   -2.8290 C   0  0  2  0  0  0  0  0  0  0  0  0
   -0.4120   -2.0910   -2.0110 N   0  0  0  0  0  0  0  0  0  0  0  0
    0.6410   -3.1270   -3.9310 C   0  0  0  0  0  0  0  0  0  0  0  0
    1.2800   -2.0280   -4.0080 O   0  0  0  0  0  0  0  0  0  0  0  0
    0.8980   -4.1000   -4.8520 O   0  0  0  0  0  0  0  0  0  0  0  0
   -4.2090   -1.8670   -3.8760 H   0  0  0  0  0  0  0  0  0  0  0  0
   -4.5110   -2.9270   -5.3060 H   0  0  0  0  0  0  0  0  0  0  0  0
   -5.8380   -2.6060   -4.0650 H   0  0  0  0  0  0  0  0  0  0  0  0
   -2.9770   -2.9790   -1.8160 H   0  0  0  0  0  0  0  0  0  0  0  0
   -2.4750   -4.6760   -1.7240 H   0  0  0  0  0  0  0  0  0  0  0  0
   -1.9780   -2.8580   -4.1900 H   0  0  0  0  0  0  0  0  0  0  0  0
   -1.5380   -4.5730   -4.0120 H   0  0  0  0  0  0  0  0  0  0  0  0
   -0.0190   -4.1710   -2.2410 H   0  0  0  0  0  0  0  0  0  0  0  0
   -0.7170   -1.1980   -2.4560 H   0  0  0  0  0  0  0  0  0  0  0  0
  1 10  1  0  0  0  0
  1  9  1  0  0  0  0
  2  1  1  0  0  0  0
  2 11  1  0  0  0  0
  3  2  1  0  0  0  0
  3 13  1  0  0  0  0
  3 14  1  0  0  0  0
  4  5  1  0  0  0  0
  4 15  1  1  0  0  0
  4  2  1  0  0  0  0
  5 17  1  0  0  0  0
  6  4  1  0  0  0  0
  7  6  2  0  0  0  0
  8  1  1  0  0  0  0
 12  3  1  0  0  0  0
 16  5  1  0  0  0  0
 18 30  1  0  0  0  0
 19 20  1  0  0  0  0
 19 18  1  0  0  0  0
 20 31  1  0  0  0  0
 21 32  1  0  0  0  0
 21 20  2  0  0  0  0
 22 21  1  0  0  0  0
 23 24  1  0  0  0  0
 23 22  1  0  0  0  0
 24 35  1  1  0  0  0
 24 25  1  0  0  0  0
 25  6  1  0  0  0  0
 25 36  1  0  0  0  0
 26 27  2  0  0  0  0
 26 24  1  0  0  0  0
 28 22  2  0  0  0  0
 28 29  1  0  0  0  0
 29 19  2  0  0  0  0
 33 23  1  0  0  0  0
 34 23  1  0  0  0  0
 37 28  1  0  0  0  0
 38 29  1  0  0  0  0
 39 50  1  0  0  0  0
 39 48  1  0  0  0  0
 39 40  1  0  0  0  0
 40 41  1  0  0  0  0
 41 51  1  0  0  0  0
 41 52  1  0  0  0  0
 42 43  1  0  0  0  0
 42 41  1  0  0  0  0
 43 55  1  1  0  0  0
 43 44  1  0  0  0  0
 44 26  1  0  0  0  0
 45 43  1  0  0  0  0
 46 45  1  0  0  0  0
 47 45  2  0  0  0  0
 49 39  1  0  0  0  0
 53 42  1  0  0  0  0
 54 42  1  0  0  0  0
 56 44  1  0  0  0  0
M  END
$$$$
