VYR.pdb
 OpenBabel07022419283D

 62 62  0  0  1  0  0  0  0  0999 V2000
    2.1940   -0.7280    4.3750 C   0  0  0  0  0  0  0  0  0  0  0  0
    3.1470   -0.0160    3.4770 C   0  0  0  0  0  0  0  0  0  0  0  0
    3.7910   -1.0360    2.5710 C   0  0  0  0  0  0  0  0  0  0  0  0
    2.5780    1.1480    2.7310 C   0  0  2  0  0  0  0  0  0  0  0  0
    2.0910    2.1250    3.6630 N   0  0  0  0  0  0  0  0  0  0  0  0
    1.6280    0.8190    1.6710 C   0  0  0  0  0  0  0  0  0  0  0  0
    1.8510   -0.0190    0.7690 O   0  0  0  0  0  0  0  0  0  0  0  0
    1.5140   -1.4110    3.8440 H   0  0  0  0  0  0  0  0  0  0  0  0
    2.8180   -1.3940    5.0400 H   0  0  0  0  0  0  0  0  0  0  0  0
    1.6630   -0.0580    5.0900 H   0  0  0  0  0  0  0  0  0  0  0  0
    3.9680    0.3890    4.1250 H   0  0  0  0  0  0  0  0  0  0  0  0
    2.9690   -1.7370    2.2600 H   0  0  0  0  0  0  0  0  0  0  0  0
    4.4910   -1.6520    3.1750 H   0  0  0  0  0  0  0  0  0  0  0  0
    4.3210   -0.5870    1.7290 H   0  0  0  0  0  0  0  0  0  0  0  0
    3.4670    1.6340    2.2230 H   0  0  0  0  0  0  0  0  0  0  0  0
    1.3640    1.8010    4.3080 H   0  0  0  0  0  0  0  0  0  0  0  0
    2.9150    2.5580    4.1210 H   0  0  0  0  0  0  0  0  0  0  0  0
    4.1440    1.4440   -3.5770 O   0  0  0  0  0  0  0  0  0  0  0  0
    2.9590    1.5580   -2.8500 C   0  0  0  0  0  0  0  0  0  0  0  0
    2.8750    2.4920   -1.8460 C   0  0  0  0  0  0  0  0  0  0  0  0
    1.7070    2.6020   -1.1330 C   0  0  0  0  0  0  0  0  0  0  0  0
    0.6080    1.7990   -1.3950 C   0  0  0  0  0  0  0  0  0  0  0  0
   -0.5940    2.0250   -0.5750 C   0  0  0  0  0  0  0  0  0  0  0  0
   -0.6650    1.2820    0.7050 C   0  0  2  0  0  0  0  0  0  0  0  0
    0.3570    1.4940    1.6550 N   0  0  0  0  0  0  0  0  0  0  0  0
   -1.0920   -0.1220    0.4820 C   0  0  0  0  0  0  0  0  0  0  0  0
   -1.8090   -0.3160   -0.5270 O   0  0  0  0  0  0  0  0  0  0  0  0
    0.7130    0.8750   -2.4010 C   0  0  0  0  0  0  0  0  0  0  0  0
    1.8690    0.7520   -3.1210 C   0  0  0  0  0  0  0  0  0  0  0  0
    5.0140    1.5940   -3.0870 H   0  0  0  0  0  0  0  0  0  0  0  0
    3.7240    3.1480   -1.6060 H   0  0  0  0  0  0  0  0  0  0  0  0
    1.6600    3.3520   -0.3370 H   0  0  0  0  0  0  0  0  0  0  0  0
   -0.7160    3.1220   -0.3240 H   0  0  0  0  0  0  0  0  0  0  0  0
   -1.5100    1.7170   -1.1710 H   0  0  0  0  0  0  0  0  0  0  0  0
   -1.6240    1.7180    1.2250 H   0  0  0  0  0  0  0  0  0  0  0  0
    0.1820    2.2150    2.4220 H   0  0  0  0  0  0  0  0  0  0  0  0
   -0.1250    0.2420   -2.6280 H   0  0  0  0  0  0  0  0  0  0  0  0
    1.9440    0.0040   -3.9300 H   0  0  0  0  0  0  0  0  0  0  0  0
   -5.6160   -2.5100   -2.8670 N   0  0  0  0  0  0  0  0  0  0  0  0
   -5.3070   -3.1510   -1.6300 C   0  0  0  0  0  0  0  0  0  0  0  0
   -6.1480   -3.2460   -0.6690 N   0  0  0  0  0  0  0  0  0  0  0  0
   -4.0240   -3.7050   -1.4530 N   0  0  0  0  0  0  0  0  0  0  0  0
   -3.6250   -4.4870   -0.3080 C   0  0  0  0  0  0  0  0  0  0  0  0
   -3.5320   -3.7680    0.9690 C   0  0  0  0  0  0  0  0  0  0  0  0
   -2.7030   -2.5740    1.1540 C   0  0  0  0  0  0  0  0  0  0  0  0
   -1.2510   -2.5500    0.9840 C   0  0  2  0  0  0  0  0  0  0  0  0
   -0.7430   -1.1870    1.3240 N   0  0  0  0  0  0  0  0  0  0  0  0
   -0.6600   -2.8980   -0.3050 C   0  0  0  0  0  0  0  0  0  0  0  0
   -0.7700   -3.9890   -0.8980 O   0  0  0  0  0  0  0  0  0  0  0  0
    0.1370   -1.9650   -1.0280 O   0  0  0  0  0  0  0  0  0  0  0  0
   -5.9770   -3.0710   -3.6730 H   0  0  0  0  0  0  0  0  0  0  0  0
   -5.4990   -1.4900   -3.0190 H   0  0  0  0  0  0  0  0  0  0  0  0
   -7.1050   -2.8400   -0.7850 H   0  0  0  0  0  0  0  0  0  0  0  0
   -3.2990   -3.5380   -2.2080 H   0  0  0  0  0  0  0  0  0  0  0  0
   -2.8330   -5.1940   -0.5270 H   0  0  0  0  0  0  0  0  0  0  0  0
   -4.5250   -5.2290   -0.1250 H   0  0  0  0  0  0  0  0  0  0  0  0
   -4.5760   -3.5790    1.4020 H   0  0  0  0  0  0  0  0  0  0  0  0
   -3.1330   -4.5440    1.7320 H   0  0  0  0  0  0  0  0  0  0  0  0
   -2.8720   -2.2690    2.2680 H   0  0  0  0  0  0  0  0  0  0  0  0
   -3.1990   -1.6680    0.6460 H   0  0  0  0  0  0  0  0  0  0  0  0
   -0.7720   -3.2180    1.7440 H   0  0  0  0  0  0  0  0  0  0  0  0
   -0.1580   -1.0370    2.1740 H   0  0  0  0  0  0  0  0  0  0  0  0
  1  9  1  0  0  0  0
  1 10  1  0  0  0  0
  2 11  1  0  0  0  0
  2  1  1  0  0  0  0
  3 13  1  0  0  0  0
  3  2  1  0  0  0  0
  4 15  1  6  0  0  0
  4  2  1  0  0  0  0
  4  5  1  0  0  0  0
  5 17  1  0  0  0  0
  5 16  1  0  0  0  0
  6  4  1  0  0  0  0
  7  6  2  0  0  0  0
  8  1  1  0  0  0  0
 12  3  1  0  0  0  0
 14  3  1  0  0  0  0
 18 30  1  0  0  0  0
 18 19  1  0  0  0  0
 19 20  1  0  0  0  0
 20 31  1  0  0  0  0
 20 21  2  0  0  0  0
 21 32  1  0  0  0  0
 22 21  1  0  0  0  0
 22 23  1  0  0  0  0
 23 33  1  0  0  0  0
 23 24  1  0  0  0  0
 24 35  1  1  0  0  0
 24 25  1  0  0  0  0
 25  6  1  0  0  0  0
 25 36  1  0  0  0  0
 26 24  1  0  0  0  0
 26 47  1  0  0  0  0
 27 26  2  0  0  0  0
 28 22  2  0  0  0  0
 29 19  2  0  0  0  0
 29 28  1  0  0  0  0
 34 23  1  0  0  0  0
 37 28  1  0  0  0  0
 38 29  1  0  0  0  0
 39 40  1  0  0  0  0
 40 42  1  0  0  0  0
 40 41  2  0  0  0  0
 42 43  1  0  0  0  0
 43 56  1  0  0  0  0
 43 44  1  0  0  0  0
 44 45  1  0  0  0  0
 44 57  1  0  0  0  0
 44 58  1  0  0  0  0
 45 59  1  0  0  0  0
 46 45  1  0  0  0  0
 46 47  1  0  0  0  0
 46 61  1  1  0  0  0
 47 62  1  0  0  0  0
 48 46  1  0  0  0  0
 49 48  1  0  0  0  0
 50 48  2  0  0  0  0
 51 39  1  0  0  0  0
 52 39  1  0  0  0  0
 53 41  1  0  0  0  0
 54 42  1  0  0  0  0
 55 43  1  0  0  0  0
 60 45  1  0  0  0  0
M  END
$$$$
