VYV.pdb
 OpenBabel07022419283D

 55 55  0  0  1  0  0  0  0  0999 V2000
    4.2920   -2.6040    1.6280 C   0  0  0  0  0  0  0  0  0  0  0  0
    2.9830   -2.2160    0.9710 C   0  0  0  0  0  0  0  0  0  0  0  0
    1.8840   -2.7940    1.8780 C   0  0  0  0  0  0  0  0  0  0  0  0
    2.8210   -0.7280    0.8430 C   0  0  2  0  0  0  0  0  0  0  0  0
    2.8620   -0.2050    2.2300 N   0  0  0  0  0  0  0  0  0  0  0  0
    1.4770   -0.3850    0.2610 C   0  0  0  0  0  0  0  0  0  0  0  0
    1.2600   -0.3810   -0.9750 O   0  0  0  0  0  0  0  0  0  0  0  0
    5.0130   -1.7780    1.6890 H   0  0  0  0  0  0  0  0  0  0  0  0
    4.1500   -2.9820    2.6750 H   0  0  0  0  0  0  0  0  0  0  0  0
    4.7660   -3.4830    1.0750 H   0  0  0  0  0  0  0  0  0  0  0  0
    2.9660   -2.7510   -0.0260 H   0  0  0  0  0  0  0  0  0  0  0  0
    2.1660   -2.5590    2.9410 H   0  0  0  0  0  0  0  0  0  0  0  0
    1.8350   -3.9000    1.8110 H   0  0  0  0  0  0  0  0  0  0  0  0
    0.9020   -2.3360    1.7080 H   0  0  0  0  0  0  0  0  0  0  0  0
    3.6700   -0.2940    0.2580 H   0  0  0  0  0  0  0  0  0  0  0  0
    2.7940    0.8440    2.2300 H   0  0  0  0  0  0  0  0  0  0  0  0
    3.8300   -0.4080    2.6140 H   0  0  0  0  0  0  0  0  0  0  0  0
    1.1760    5.9090    2.5940 O   0  0  0  0  0  0  0  0  0  0  0  0
    0.6130    4.8350    1.9470 C   0  0  0  0  0  0  0  0  0  0  0  0
    1.4360    4.0710    1.1690 C   0  0  0  0  0  0  0  0  0  0  0  0
    0.9660    2.9770    0.4810 C   0  0  0  0  0  0  0  0  0  0  0  0
   -0.3530    2.6230    0.5660 C   0  0  0  0  0  0  0  0  0  0  0  0
   -0.9730    1.4630   -0.1270 C   0  0  0  0  0  0  0  0  0  0  0  0
   -0.9100    0.2620    0.8300 C   0  0  2  0  0  0  0  0  0  0  0  0
    0.4080   -0.0630    1.1370 N   0  0  0  0  0  0  0  0  0  0  0  0
   -1.8570   -0.7850    0.3780 C   0  0  0  0  0  0  0  0  0  0  0  0
   -3.0900   -0.5390    0.4990 O   0  0  0  0  0  0  0  0  0  0  0  0
   -1.1770    3.4060    1.3600 C   0  0  0  0  0  0  0  0  0  0  0  0
   -0.7200    4.5010    2.0490 C   0  0  0  0  0  0  0  0  0  0  0  0
    0.7030    6.7730    2.7070 H   0  0  0  0  0  0  0  0  0  0  0  0
    2.5150    4.2860    1.0290 H   0  0  0  0  0  0  0  0  0  0  0  0
    1.6290    2.3980   -0.1420 H   0  0  0  0  0  0  0  0  0  0  0  0
   -2.0050    1.7090   -0.4540 H   0  0  0  0  0  0  0  0  0  0  0  0
   -0.3410    1.2310   -1.0510 H   0  0  0  0  0  0  0  0  0  0  0  0
   -1.3660    0.7540    1.7880 H   0  0  0  0  0  0  0  0  0  0  0  0
    0.6510   -0.0500    2.2050 H   0  0  0  0  0  0  0  0  0  0  0  0
   -2.2540    3.1470    1.4510 H   0  0  0  0  0  0  0  0  0  0  0  0
   -1.3770    5.0920    2.6610 H   0  0  0  0  0  0  0  0  0  0  0  0
   -3.4320   -4.4550   -2.3510 C   0  0  0  0  0  0  0  0  0  0  0  0
   -2.7270   -3.1210   -2.0260 C   0  0  0  0  0  0  0  0  0  0  0  0
   -3.8990   -2.0570   -2.0450 C   0  0  0  0  0  0  0  0  0  0  0  0
   -2.2470   -3.1500   -0.6010 C   0  0  2  0  0  0  0  0  0  0  0  0
   -1.4820   -2.0300   -0.1590 N   0  0  0  0  0  0  0  0  0  0  0  0
   -1.6130   -4.4440   -0.1800 C   0  0  0  0  0  0  0  0  0  0  0  0
   -0.4960   -4.4880    0.4060 O   0  0  0  0  0  0  0  0  0  0  0  0
   -2.2070   -5.6810   -0.4080 O   0  0  0  0  0  0  0  0  0  0  0  0
   -4.0010   -4.2380   -3.2920 H   0  0  0  0  0  0  0  0  0  0  0  0
   -4.0450   -4.8400   -1.5380 H   0  0  0  0  0  0  0  0  0  0  0  0
   -2.6130   -5.1540   -2.6340 H   0  0  0  0  0  0  0  0  0  0  0  0
   -2.0470   -2.8210   -2.8050 H   0  0  0  0  0  0  0  0  0  0  0  0
   -4.3900   -2.1980   -1.0450 H   0  0  0  0  0  0  0  0  0  0  0  0
   -4.6730   -2.4080   -2.7990 H   0  0  0  0  0  0  0  0  0  0  0  0
   -3.5580   -1.0650   -2.1950 H   0  0  0  0  0  0  0  0  0  0  0  0
   -3.2360   -3.1120   -0.0030 H   0  0  0  0  0  0  0  0  0  0  0  0
   -0.3930   -2.1470   -0.2510 H   0  0  0  0  0  0  0  0  0  0  0  0
  1  8  1  0  0  0  0
  1  9  1  0  0  0  0
  2  1  1  0  0  0  0
  2  3  1  0  0  0  0
  3 12  1  0  0  0  0
  4 15  1  6  0  0  0
  4  2  1  0  0  0  0
  4  5  1  0  0  0  0
  5 16  1  0  0  0  0
  5 17  1  0  0  0  0
  6  4  1  0  0  0  0
  6 25  1  0  0  0  0
  7  6  2  0  0  0  0
 10  1  1  0  0  0  0
 11  2  1  0  0  0  0
 13  3  1  0  0  0  0
 14  3  1  0  0  0  0
 18 30  1  0  0  0  0
 19 29  1  0  0  0  0
 19 18  1  0  0  0  0
 20 19  2  0  0  0  0
 21 22  2  0  0  0  0
 21 20  1  0  0  0  0
 22 28  1  0  0  0  0
 23 22  1  0  0  0  0
 23 24  1  0  0  0  0
 24 25  1  0  0  0  0
 24 35  1  1  0  0  0
 25 36  1  0  0  0  0
 26 27  2  0  0  0  0
 26 24  1  0  0  0  0
 28 37  1  0  0  0  0
 28 29  2  0  0  0  0
 29 38  1  0  0  0  0
 31 20  1  0  0  0  0
 32 21  1  0  0  0  0
 33 23  1  0  0  0  0
 34 23  1  0  0  0  0
 39 40  1  0  0  0  0
 39 48  1  0  0  0  0
 40 42  1  0  0  0  0
 41 40  1  0  0  0  0
 41 51  1  0  0  0  0
 42 44  1  0  0  0  0
 42 43  1  0  0  0  0
 42 54  1  1  0  0  0
 43 26  1  0  0  0  0
 44 45  1  0  0  0  0
 46 44  2  0  0  0  0
 47 39  1  0  0  0  0
 49 39  1  0  0  0  0
 50 40  1  0  0  0  0
 52 41  1  0  0  0  0
 53 41  1  0  0  0  0
 55 43  1  0  0  0  0
M  END
$$$$
