VYY.pdb
 OpenBabel07022419283D

 60 61  0  0  1  0  0  0  0  0999 V2000
    5.0510   -1.1450    2.9150 C   0  0  0  0  0  0  0  0  0  0  0  0
    4.4020   -2.4670    3.2190 C   0  0  0  0  0  0  0  0  0  0  0  0
    4.0910   -2.5020    4.7020 C   0  0  0  0  0  0  0  0  0  0  0  0
    3.1260   -2.6740    2.4610 C   0  0  2  0  0  0  0  0  0  0  0  0
    3.3470   -2.6400    1.0240 N   0  0  0  0  0  0  0  0  0  0  0  0
    2.1160   -1.6870    2.8520 C   0  0  0  0  0  0  0  0  0  0  0  0
    1.7700   -1.5510    4.0470 O   0  0  0  0  0  0  0  0  0  0  0  0
    4.4850   -0.3010    3.3500 H   0  0  0  0  0  0  0  0  0  0  0  0
    6.0610   -1.1240    3.3790 H   0  0  0  0  0  0  0  0  0  0  0  0
    5.1450   -0.9820    1.8290 H   0  0  0  0  0  0  0  0  0  0  0  0
    5.1560   -3.2600    2.9560 H   0  0  0  0  0  0  0  0  0  0  0  0
    3.2380   -3.1840    4.8460 H   0  0  0  0  0  0  0  0  0  0  0  0
    4.9850   -2.8990    5.2320 H   0  0  0  0  0  0  0  0  0  0  0  0
    3.8870   -1.4590    5.0330 H   0  0  0  0  0  0  0  0  0  0  0  0
    2.7540   -3.6970    2.6960 H   0  0  0  0  0  0  0  0  0  0  0  0
    4.0020   -3.3880    0.7180 H   0  0  0  0  0  0  0  0  0  0  0  0
    3.6450   -1.7270    0.6660 H   0  0  0  0  0  0  0  0  0  0  0  0
    1.9350    2.7920   -3.4430 O   0  0  0  0  0  0  0  0  0  0  0  0
    1.6670    2.4900   -2.1120 C   0  0  0  0  0  0  0  0  0  0  0  0
    0.3930    2.6190   -1.6060 C   0  0  0  0  0  0  0  0  0  0  0  0
    0.1590    2.3070   -0.2620 C   0  0  0  0  0  0  0  0  0  0  0  0
    1.1510    1.8760    0.5770 C   0  0  0  0  0  0  0  0  0  0  0  0
    0.8530    1.5590    1.9740 C   0  0  0  0  0  0  0  0  0  0  0  0
    0.4850    0.1440    2.2560 C   0  0  2  0  0  0  0  0  0  0  0  0
    1.4680   -0.8250    1.9170 N   0  0  0  0  0  0  0  0  0  0  0  0
   -0.8550   -0.1290    1.6840 C   0  0  0  0  0  0  0  0  0  0  0  0
   -1.8210    0.6440    1.9330 O   0  0  0  0  0  0  0  0  0  0  0  0
    2.4410    1.7460    0.0610 C   0  0  0  0  0  0  0  0  0  0  0  0
    2.6560    2.0540   -1.2520 C   0  0  0  0  0  0  0  0  0  0  0  0
    1.2560    2.6840   -4.1850 H   0  0  0  0  0  0  0  0  0  0  0  0
   -0.4060    2.9540   -2.2340 H   0  0  0  0  0  0  0  0  0  0  0  0
   -0.8610    2.4230    0.1100 H   0  0  0  0  0  0  0  0  0  0  0  0
    1.6510    1.9420    2.6790 H   0  0  0  0  0  0  0  0  0  0  0  0
   -0.0450    2.1830    2.2610 H   0  0  0  0  0  0  0  0  0  0  0  0
    0.3430    0.0790    3.3760 H   0  0  0  0  0  0  0  0  0  0  0  0
    1.7420   -0.9210    0.9110 H   0  0  0  0  0  0  0  0  0  0  0  0
    3.1890    1.4030    0.7610 H   0  0  0  0  0  0  0  0  0  0  0  0
    3.6690    1.9490   -1.6440 H   0  0  0  0  0  0  0  0  0  0  0  0
   -7.4890   -2.0910   -3.7220 O   0  0  0  0  0  0  0  0  0  0  0  0
   -6.2610   -1.8960   -3.1060 C   0  0  0  0  0  0  0  0  0  0  0  0
   -5.4020   -2.9580   -2.9080 C   0  0  0  0  0  0  0  0  0  0  0  0
   -4.1790   -2.7760   -2.2960 C   0  0  0  0  0  0  0  0  0  0  0  0
   -3.7350   -1.5480   -1.8480 C   0  0  0  0  0  0  0  0  0  0  0  0
   -2.4230   -1.3410   -1.1900 C   0  0  0  0  0  0  0  0  0  0  0  0
   -2.4730   -1.4530    0.3180 C   0  0  2  0  0  0  0  0  0  0  0  0
   -1.1400   -1.2330    0.8510 N   0  0  0  0  0  0  0  0  0  0  0  0
   -3.0540   -2.7170    0.7850 C   0  0  0  0  0  0  0  0  0  0  0  0
   -2.4470   -3.5370    1.5260 O   0  0  0  0  0  0  0  0  0  0  0  0
   -4.6120   -0.4850   -2.0530 C   0  0  0  0  0  0  0  0  0  0  0  0
   -5.8360   -0.6600   -2.6650 C   0  0  0  0  0  0  0  0  0  0  0  0
   -4.3420   -3.0470    0.4020 O   0  0  0  0  0  0  0  0  0  0  0  0
   -7.7440   -1.5130   -4.5150 H   0  0  0  0  0  0  0  0  0  0  0  0
   -5.7480   -3.9320   -3.2610 H   0  0  0  0  0  0  0  0  0  0  0  0
   -3.5160   -3.6340   -2.1520 H   0  0  0  0  0  0  0  0  0  0  0  0
   -1.7530   -2.1610   -1.5370 H   0  0  0  0  0  0  0  0  0  0  0  0
   -1.9310   -0.4040   -1.5140 H   0  0  0  0  0  0  0  0  0  0  0  0
   -3.1540   -0.6330    0.6760 H   0  0  0  0  0  0  0  0  0  0  0  0
   -0.3810   -1.9010    0.6150 H   0  0  0  0  0  0  0  0  0  0  0  0
   -4.2920    0.5010   -1.7100 H   0  0  0  0  0  0  0  0  0  0  0  0
   -6.5230    0.1750   -2.8250 H   0  0  0  0  0  0  0  0  0  0  0  0
  1  2  1  0  0  0  0
  1  8  1  0  0  0  0
  1  9  1  0  0  0  0
  2  3  1  0  0  0  0
  3 12  1  0  0  0  0
  3 14  1  0  0  0  0
  3 13  1  0  0  0  0
  4 15  1  1  0  0  0
  4  6  1  0  0  0  0
  4  2  1  0  0  0  0
  5  4  1  0  0  0  0
  6  7  2  0  0  0  0
 10  1  1  0  0  0  0
 11  2  1  0  0  0  0
 16  5  1  0  0  0  0
 17  5  1  0  0  0  0
 18 19  1  0  0  0  0
 19 20  2  0  0  0  0
 19 29  1  0  0  0  0
 20 21  1  0  0  0  0
 21 32  1  0  0  0  0
 21 22  2  0  0  0  0
 22 23  1  0  0  0  0
 23 24  1  0  0  0  0
 23 34  1  0  0  0  0
 23 33  1  0  0  0  0
 24 35  1  1  0  0  0
 25 24  1  0  0  0  0
 25  6  1  0  0  0  0
 26 27  2  0  0  0  0
 26 24  1  0  0  0  0
 28 22  1  0  0  0  0
 28 37  1  0  0  0  0
 29 28  2  0  0  0  0
 30 18  1  0  0  0  0
 31 20  1  0  0  0  0
 36 25  1  0  0  0  0
 38 29  1  0  0  0  0
 39 40  1  0  0  0  0
 40 41  2  0  0  0  0
 40 50  1  0  0  0  0
 41 42  1  0  0  0  0
 42 54  1  0  0  0  0
 42 43  2  0  0  0  0
 43 44  1  0  0  0  0
 44 45  1  0  0  0  0
 45 57  1  1  0  0  0
 45 47  1  0  0  0  0
 45 46  1  0  0  0  0
 46 26  1  0  0  0  0
 47 48  1  0  0  0  0
 49 43  1  0  0  0  0
 49 59  1  0  0  0  0
 50 49  2  0  0  0  0
 51 47  2  0  0  0  0
 52 39  1  0  0  0  0
 53 41  1  0  0  0  0
 55 44  1  0  0  0  0
 56 44  1  0  0  0  0
 58 46  1  0  0  0  0
 60 50  1  0  0  0  0
M  END
$$$$
