WAF.pdb
 OpenBabel07022419153D

 56 58  0  0  1  0  0  0  0  0999 V2000
    3.4260    1.2840   -1.0980 N   0  0  0  0  0  0  0  0  0  0  0  0
    2.2230    0.5480   -1.3460 C   0  0  1  0  0  0  0  0  0  0  0  0
    2.2840   -0.7800   -0.6390 C   0  0  0  0  0  0  0  0  0  0  0  0
    2.4360   -0.5770    0.8190 C   0  0  0  0  0  0  0  0  0  0  0  0
    1.3680   -0.5980    1.7140 C   0  0  0  0  0  0  0  0  0  0  0  0
    1.8330   -0.3530    2.9290 N   0  0  0  0  0  0  0  0  0  0  0  0
    3.1670   -0.1670    2.9080 C   0  0  0  0  0  0  0  0  0  0  0  0
    4.0750    0.1020    3.9080 C   0  0  0  0  0  0  0  0  0  0  0  0
    5.4140    0.2390    3.6070 C   0  0  0  0  0  0  0  0  0  0  0  0
    5.7750    0.0960    2.2890 C   0  0  0  0  0  0  0  0  0  0  0  0
    4.8660   -0.1740    1.2810 C   0  0  0  0  0  0  0  0  0  0  0  0
    3.5310   -0.3110    1.5740 C   0  0  0  0  0  0  0  0  0  0  0  0
    1.0590    1.3620   -0.8490 C   0  0  0  0  0  0  0  0  0  0  0  0
    1.2580    2.4690   -0.2530 O   0  0  0  0  0  0  0  0  0  0  0  0
    4.2420    1.0010   -1.6660 H   0  0  0  0  0  0  0  0  0  0  0  0
    3.2350    2.2910   -1.0660 H   0  0  0  0  0  0  0  0  0  0  0  0
    2.1140    0.3640   -2.4470 H   0  0  0  0  0  0  0  0  0  0  0  0
    1.3710   -1.3910   -0.8240 H   0  0  0  0  0  0  0  0  0  0  0  0
    3.1550   -1.3250   -1.0770 H   0  0  0  0  0  0  0  0  0  0  0  0
    0.3430   -0.7890    1.4030 H   0  0  0  0  0  0  0  0  0  0  0  0
    1.2590   -0.3080    3.7900 H   0  0  0  0  0  0  0  0  0  0  0  0
    3.7690    0.2080    4.9250 H   0  0  0  0  0  0  0  0  0  0  0  0
    6.1490    0.4510    4.3770 H   0  0  0  0  0  0  0  0  0  0  0  0
    6.8130    0.1940    2.0000 H   0  0  0  0  0  0  0  0  0  0  0  0
    5.1860   -0.2950    0.2440 H   0  0  0  0  0  0  0  0  0  0  0  0
   -2.0760    2.4450   -1.7240 C   0  0  0  0  0  0  0  0  0  0  0  0
   -1.3690    1.7580   -0.5270 C   0  0  2  0  0  0  0  0  0  0  0  0
   -0.2810    0.9500   -1.0140 N   0  0  0  0  0  0  0  0  0  0  0  0
   -2.4150    0.9970    0.1850 C   0  0  0  0  0  0  0  0  0  0  0  0
   -3.3820    1.6770    0.6440 O   0  0  0  0  0  0  0  0  0  0  0  0
   -1.5860    3.3740   -2.0100 H   0  0  0  0  0  0  0  0  0  0  0  0
   -2.0830    1.7080   -2.5750 H   0  0  0  0  0  0  0  0  0  0  0  0
   -3.1370    2.6140   -1.4610 H   0  0  0  0  0  0  0  0  0  0  0  0
   -0.9810    2.6200    0.0660 H   0  0  0  0  0  0  0  0  0  0  0  0
   -0.5090    0.0550   -1.4920 H   0  0  0  0  0  0  0  0  0  0  0  0
   -2.3930   -0.4060    0.3720 N   0  0  0  0  0  0  0  0  0  0  0  0
   -3.4650   -1.0480    1.0700 C   0  0  1  0  0  0  0  0  0  0  0  0
   -4.2980   -1.9320    0.1660 C   0  0  0  0  0  0  0  0  0  0  0  0
   -3.5590   -3.0150   -0.4750 C   0  0  0  0  0  0  0  0  0  0  0  0
   -3.4600   -4.2370    0.1530 C   0  0  0  0  0  0  0  0  0  0  0  0
   -2.7690   -5.2980   -0.4150 C   0  0  0  0  0  0  0  0  0  0  0  0
   -2.1550   -5.1690   -1.6300 C   0  0  0  0  0  0  0  0  0  0  0  0
   -2.2420   -3.9470   -2.2780 C   0  0  0  0  0  0  0  0  0  0  0  0
   -2.9400   -2.8850   -1.6980 C   0  0  0  0  0  0  0  0  0  0  0  0
   -3.0230   -1.7350    2.2830 C   0  0  0  0  0  0  0  0  0  0  0  0
   -1.8400   -1.7750    2.7070 O   0  0  0  0  0  0  0  0  0  0  0  0
   -3.9720   -2.4210    3.0690 O   0  0  0  0  0  0  0  0  0  0  0  0
   -1.5770   -0.9270   -0.0170 H   0  0  0  0  0  0  0  0  0  0  0  0
   -4.1840   -0.2450    1.4050 H   0  0  0  0  0  0  0  0  0  0  0  0
   -4.7260   -1.2400   -0.6150 H   0  0  0  0  0  0  0  0  0  0  0  0
   -5.1790   -2.2540    0.7590 H   0  0  0  0  0  0  0  0  0  0  0  0
   -3.9180   -4.3950    1.0990 H   0  0  0  0  0  0  0  0  0  0  0  0
   -2.7230   -6.2400    0.1230 H   0  0  0  0  0  0  0  0  0  0  0  0
   -1.6090   -6.0010   -2.0820 H   0  0  0  0  0  0  0  0  0  0  0  0
   -1.7480   -3.8720   -3.2360 H   0  0  0  0  0  0  0  0  0  0  0  0
   -2.9810   -1.9510   -2.2400 H   0  0  0  0  0  0  0  0  0  0  0  0
  1 16  1  0  0  0  0
  2 17  1  6  0  0  0
  2  1  1  0  0  0  0
  2 13  1  0  0  0  0
  2  3  1  0  0  0  0
  3  4  1  0  0  0  0
  4 12  1  0  0  0  0
  4  5  2  0  0  0  0
  5  6  1  0  0  0  0
  6 21  1  0  0  0  0
  7  6  1  0  0  0  0
  7  8  1  0  0  0  0
  8 22  1  0  0  0  0
  9  8  2  0  0  0  0
  9 23  1  0  0  0  0
 10  9  1  0  0  0  0
 11 12  1  0  0  0  0
 11 10  2  0  0  0  0
 12  7  2  0  0  0  0
 13 14  2  0  0  0  0
 15  1  1  0  0  0  0
 18  3  1  0  0  0  0
 19  3  1  0  0  0  0
 20  5  1  0  0  0  0
 24 10  1  0  0  0  0
 25 11  1  0  0  0  0
 26 33  1  0  0  0  0
 26 27  1  0  0  0  0
 27 34  1  1  0  0  0
 27 29  1  0  0  0  0
 28 13  1  0  0  0  0
 28 27  1  0  0  0  0
 29 36  1  0  0  0  0
 29 30  2  0  0  0  0
 31 26  1  0  0  0  0
 32 26  1  0  0  0  0
 35 28  1  0  0  0  0
 36 37  1  0  0  0  0
 37 49  1  1  0  0  0
 37 45  1  0  0  0  0
 38 51  1  0  0  0  0
 38 37  1  0  0  0  0
 39 40  1  0  0  0  0
 39 38  1  0  0  0  0
 40 52  1  0  0  0  0
 41 53  1  0  0  0  0
 41 40  2  0  0  0  0
 42 41  1  0  0  0  0
 43 44  1  0  0  0  0
 43 42  2  0  0  0  0
 44 39  2  0  0  0  0
 45 46  2  0  0  0  0
 45 47  1  0  0  0  0
 48 36  1  0  0  0  0
 50 38  1  0  0  0  0
 54 42  1  0  0  0  0
 55 43  1  0  0  0  0
 56 44  1  0  0  0  0
M  END
$$$$
