WAG.pdb
 OpenBabel07022419153D

 43 44  0  0  1  0  0  0  0  0999 V2000
   -0.7820   -2.4490    0.1850 N   0  0  0  0  0  0  0  0  0  0  0  0
    0.5410   -2.6530    0.7680 C   0  0  1  0  0  0  0  0  0  0  0  0
    1.4810   -3.0070   -0.3230 C   0  0  0  0  0  0  0  0  0  0  0  0
    1.6320   -2.0370   -1.4000 C   0  0  0  0  0  0  0  0  0  0  0  0
    1.0060   -2.0520   -2.6490 C   0  0  0  0  0  0  0  0  0  0  0  0
    1.3660   -0.9900   -3.3560 N   0  0  0  0  0  0  0  0  0  0  0  0
    2.2060   -0.2770   -2.6140 C   0  0  0  0  0  0  0  0  0  0  0  0
    2.8540    0.9030   -2.9120 C   0  0  0  0  0  0  0  0  0  0  0  0
    3.7000    1.5110   -2.0330 C   0  0  0  0  0  0  0  0  0  0  0  0
    3.9040    0.9170   -0.8210 C   0  0  0  0  0  0  0  0  0  0  0  0
    3.2490   -0.2800   -0.5150 C   0  0  0  0  0  0  0  0  0  0  0  0
    2.3920   -0.9040   -1.3910 C   0  0  0  0  0  0  0  0  0  0  0  0
    0.8910   -1.5510    1.6450 C   0  0  0  0  0  0  0  0  0  0  0  0
    1.8710   -1.5350    2.4310 O   0  0  0  0  0  0  0  0  0  0  0  0
   -1.5150   -2.4240    0.9260 H   0  0  0  0  0  0  0  0  0  0  0  0
   -0.9970   -3.2860   -0.4310 H   0  0  0  0  0  0  0  0  0  0  0  0
    0.4200   -3.5950    1.3930 H   0  0  0  0  0  0  0  0  0  0  0  0
    2.4630   -3.2590    0.1340 H   0  0  0  0  0  0  0  0  0  0  0  0
    1.1000   -3.9720   -0.7710 H   0  0  0  0  0  0  0  0  0  0  0  0
    0.3350   -2.8140   -2.9820 H   0  0  0  0  0  0  0  0  0  0  0  0
    1.0290   -0.7730   -4.3330 H   0  0  0  0  0  0  0  0  0  0  0  0
    2.6840    1.3710   -3.8830 H   0  0  0  0  0  0  0  0  0  0  0  0
    4.1800    2.4380   -2.3210 H   0  0  0  0  0  0  0  0  0  0  0  0
    4.5720    1.3810   -0.1080 H   0  0  0  0  0  0  0  0  0  0  0  0
    3.4290   -0.7310    0.4280 H   0  0  0  0  0  0  0  0  0  0  0  0
    0.6990    2.0030    1.6980 C   0  0  0  0  0  0  0  0  0  0  0  0
    0.3800    0.7540    2.4940 C   0  0  2  0  0  0  0  0  0  0  0  0
    0.0770   -0.3670    1.6440 N   0  0  0  0  0  0  0  0  0  0  0  0
   -0.7550    1.0980    3.3880 C   0  0  0  0  0  0  0  0  0  0  0  0
   -0.6360    2.0580    4.1880 O   0  0  0  0  0  0  0  0  0  0  0  0
    1.7080    2.0010    1.2690 H   0  0  0  0  0  0  0  0  0  0  0  0
   -0.1050    2.1910    0.9410 H   0  0  0  0  0  0  0  0  0  0  0  0
    0.6390    2.8580    2.4030 H   0  0  0  0  0  0  0  0  0  0  0  0
    1.2860    0.5280    3.1010 H   0  0  0  0  0  0  0  0  0  0  0  0
   -0.7600   -0.2810    1.0250 H   0  0  0  0  0  0  0  0  0  0  0  0
   -1.9520    0.3430    3.3280 N   0  0  0  0  0  0  0  0  0  0  0  0
   -3.1000    0.6500    4.1930 C   0  0  0  0  0  0  0  0  0  0  0  0
   -4.1730   -0.3320    3.8640 C   0  0  0  0  0  0  0  0  0  0  0  0
   -5.2860   -0.2910    4.4700 O   0  0  0  0  0  0  0  0  0  0  0  0
   -4.0090   -1.3100    2.9060 O   0  0  0  0  0  0  0  0  0  0  0  0
   -1.9830   -0.4420    2.6410 H   0  0  0  0  0  0  0  0  0  0  0  0
   -3.4550    1.6740    4.0690 H   0  0  0  0  0  0  0  0  0  0  0  0
   -2.7180    0.4790    5.2390 H   0  0  0  0  0  0  0  0  0  0  0  0
  1  2  1  0  0  0  0
  1 15  1  0  0  0  0
  2 17  1  1  0  0  0
  2 13  1  0  0  0  0
  3 18  1  0  0  0  0
  3  2  1  0  0  0  0
  4 12  1  0  0  0  0
  4  3  1  0  0  0  0
  5  4  2  0  0  0  0
  6  5  1  0  0  0  0
  6  7  1  0  0  0  0
  7 12  1  0  0  0  0
  8  7  2  0  0  0  0
  8  9  1  0  0  0  0
  9 10  2  0  0  0  0
 10 11  1  0  0  0  0
 10 24  1  0  0  0  0
 11 25  1  0  0  0  0
 12 11  2  0  0  0  0
 13 14  2  0  0  0  0
 16  1  1  0  0  0  0
 19  3  1  0  0  0  0
 20  5  1  0  0  0  0
 21  6  1  0  0  0  0
 22  8  1  0  0  0  0
 23  9  1  0  0  0  0
 26 33  1  0  0  0  0
 26 27  1  0  0  0  0
 27 34  1  1  0  0  0
 27 29  1  0  0  0  0
 28 13  1  0  0  0  0
 28 27  1  0  0  0  0
 29 30  2  0  0  0  0
 31 26  1  0  0  0  0
 32 26  1  0  0  0  0
 35 28  1  0  0  0  0
 36 29  1  0  0  0  0
 36 37  1  0  0  0  0
 37 43  1  0  0  0  0
 38 37  1  0  0  0  0
 38 39  1  0  0  0  0
 40 38  2  0  0  0  0
 41 36  1  0  0  0  0
 42 37  1  0  0  0  0
M  END
$$$$
