WAN.pdb
 OpenBabel07022419153D

 50 51  0  0  1  0  0  0  0  0999 V2000
   -1.0390    0.8890    2.3730 N   0  0  0  0  0  0  0  0  0  0  0  0
   -1.0160    1.3360    0.9630 C   0  0  1  0  0  0  0  0  0  0  0  0
   -0.3070    2.6590    0.8710 C   0  0  0  0  0  0  0  0  0  0  0  0
    1.0830    2.6030    1.3360 C   0  0  0  0  0  0  0  0  0  0  0  0
    1.5330    2.8510    2.6420 C   0  0  0  0  0  0  0  0  0  0  0  0
    2.8440    2.6520    2.7080 N   0  0  0  0  0  0  0  0  0  0  0  0
    3.2860    2.2780    1.4800 C   0  0  0  0  0  0  0  0  0  0  0  0
    4.5620    1.9750    1.0480 C   0  0  0  0  0  0  0  0  0  0  0  0
    4.7620    1.6340   -0.2560 C   0  0  0  0  0  0  0  0  0  0  0  0
    3.7030    1.6020   -1.1070 C   0  0  0  0  0  0  0  0  0  0  0  0
    2.4210    1.9010   -0.6950 C   0  0  0  0  0  0  0  0  0  0  0  0
    2.2040    2.2460    0.6280 C   0  0  0  0  0  0  0  0  0  0  0  0
   -0.4330    0.2830    0.1180 C   0  0  0  0  0  0  0  0  0  0  0  0
   -0.4930    0.3390   -1.1330 O   0  0  0  0  0  0  0  0  0  0  0  0
   -1.0710    1.7650    2.9680 H   0  0  0  0  0  0  0  0  0  0  0  0
   -1.9560    0.3820    2.5240 H   0  0  0  0  0  0  0  0  0  0  0  0
   -2.0800    1.5120    0.6570 H   0  0  0  0  0  0  0  0  0  0  0  0
   -0.8690    3.3580    1.5550 H   0  0  0  0  0  0  0  0  0  0  0  0
   -0.3900    3.0330   -0.1780 H   0  0  0  0  0  0  0  0  0  0  0  0
    0.8500    3.1540    3.4180 H   0  0  0  0  0  0  0  0  0  0  0  0
    3.4530    2.7580    3.5490 H   0  0  0  0  0  0  0  0  0  0  0  0
    5.3750    2.0150    1.7530 H   0  0  0  0  0  0  0  0  0  0  0  0
    5.7590    1.3920   -0.5970 H   0  0  0  0  0  0  0  0  0  0  0  0
    3.8420    1.3350   -2.1600 H   0  0  0  0  0  0  0  0  0  0  0  0
    1.6120    1.8790   -1.4030 H   0  0  0  0  0  0  0  0  0  0  0  0
    2.0910   -2.3160    0.5560 C   0  0  0  0  0  0  0  0  0  0  0  0
    0.7850   -1.8680   -0.0180 C   0  0  2  0  0  0  0  0  0  0  0  0
    0.2050   -0.8140    0.7740 N   0  0  0  0  0  0  0  0  0  0  0  0
   -0.1750   -3.0550    0.0400 C   0  0  0  0  0  0  0  0  0  0  0  0
    0.1550   -4.0670   -0.5830 O   0  0  0  0  0  0  0  0  0  0  0  0
    1.8810   -2.9390    1.4570 H   0  0  0  0  0  0  0  0  0  0  0  0
    2.6840   -1.4450    0.9470 H   0  0  0  0  0  0  0  0  0  0  0  0
    2.7280   -2.8560   -0.1610 H   0  0  0  0  0  0  0  0  0  0  0  0
    0.8420   -1.5320   -1.0860 H   0  0  0  0  0  0  0  0  0  0  0  0
    0.2540   -0.8470    1.8050 H   0  0  0  0  0  0  0  0  0  0  0  0
   -4.3930   -1.4890   -0.9310 N   0  0  0  0  0  0  0  0  0  0  0  0
   -4.1100   -2.4000    0.0990 C   0  0  0  0  0  0  0  0  0  0  0  0
   -4.3870   -2.0740    1.2900 O   0  0  0  0  0  0  0  0  0  0  0  0
   -3.4980   -3.7420   -0.1030 C   0  0  0  0  0  0  0  0  0  0  0  0
   -2.3790   -3.9570    0.9290 C   0  0  2  0  0  0  0  0  0  0  0  0
   -1.3760   -2.9520    0.7790 N   0  0  0  0  0  0  0  0  0  0  0  0
   -1.9350   -5.3450    1.0090 C   0  0  0  0  0  0  0  0  0  0  0  0
   -2.8430   -6.2360    1.0770 O   0  0  0  0  0  0  0  0  0  0  0  0
   -0.6460   -5.7920    1.0220 O   0  0  0  0  0  0  0  0  0  0  0  0
   -4.0520   -0.5130   -0.8500 H   0  0  0  0  0  0  0  0  0  0  0  0
   -4.9260   -1.7760   -1.7610 H   0  0  0  0  0  0  0  0  0  0  0  0
   -4.2960   -4.4690    0.2120 H   0  0  0  0  0  0  0  0  0  0  0  0
   -3.1910   -3.9310   -1.1230 H   0  0  0  0  0  0  0  0  0  0  0  0
   -2.8790   -3.7430    1.9420 H   0  0  0  0  0  0  0  0  0  0  0  0
   -1.5110   -2.0030    1.2690 H   0  0  0  0  0  0  0  0  0  0  0  0
  1 16  1  0  0  0  0
  1 15  1  0  0  0  0
  2 17  1  6  0  0  0
  2  1  1  0  0  0  0
  3  2  1  0  0  0  0
  3  4  1  0  0  0  0
  3 18  1  0  0  0  0
  4  5  2  0  0  0  0
  5  6  1  0  0  0  0
  5 20  1  0  0  0  0
  6 21  1  0  0  0  0
  7  6  1  0  0  0  0
  8  7  1  0  0  0  0
  8 22  1  0  0  0  0
  9  8  2  0  0  0  0
 10 11  2  0  0  0  0
 10  9  1  0  0  0  0
 11 12  1  0  0  0  0
 12  4  1  0  0  0  0
 12  7  2  0  0  0  0
 13 28  1  0  0  0  0
 13  2  1  0  0  0  0
 14 13  2  0  0  0  0
 19  3  1  0  0  0  0
 23  9  1  0  0  0  0
 24 10  1  0  0  0  0
 25 11  1  0  0  0  0
 26 32  1  0  0  0  0
 26 31  1  0  0  0  0
 27 34  1  6  0  0  0
 27 29  1  0  0  0  0
 27 26  1  0  0  0  0
 27 28  1  0  0  0  0
 28 35  1  0  0  0  0
 29 41  1  0  0  0  0
 30 29  2  0  0  0  0
 33 26  1  0  0  0  0
 36 45  1  0  0  0  0
 36 37  1  0  0  0  0
 37 38  2  0  0  0  0
 39 37  1  0  0  0  0
 39 47  1  0  0  0  0
 39 40  1  0  0  0  0
 40 42  1  0  0  0  0
 40 49  1  1  0  0  0
 41 40  1  0  0  0  0
 41 50  1  0  0  0  0
 42 44  2  0  0  0  0
 42 43  1  0  0  0  0
 46 36  1  0  0  0  0
 48 39  1  0  0  0  0
M  END
$$$$
