WAP.pdb
 OpenBabel07022419153D

 50 52  0  0  1  0  0  0  0  0999 V2000
    1.0260    1.9940    4.0040 N   0  0  0  0  0  0  0  0  0  0  0  0
    0.1380    1.1250    3.2420 C   0  0  1  0  0  0  0  0  0  0  0  0
   -0.4090    1.8920    2.0540 C   0  0  0  0  0  0  0  0  0  0  0  0
    0.6390    2.4080    1.1540 C   0  0  0  0  0  0  0  0  0  0  0  0
    1.1460    3.7000    1.1650 C   0  0  0  0  0  0  0  0  0  0  0  0
    2.0960    3.7890    0.2400 N   0  0  0  0  0  0  0  0  0  0  0  0
    2.2530    2.6080   -0.3990 C   0  0  0  0  0  0  0  0  0  0  0  0
    3.1190    2.2540   -1.4250 C   0  0  0  0  0  0  0  0  0  0  0  0
    3.0730    0.9640   -1.9100 C   0  0  0  0  0  0  0  0  0  0  0  0
    2.1580    0.0790   -1.3460 C   0  0  0  0  0  0  0  0  0  0  0  0
    1.3160    0.4690   -0.3310 C   0  0  0  0  0  0  0  0  0  0  0  0
    1.3450    1.7430    0.1670 C   0  0  0  0  0  0  0  0  0  0  0  0
    0.7390   -0.1470    2.8490 C   0  0  0  0  0  0  0  0  0  0  0  0
    1.9760   -0.2680    2.7550 O   0  0  0  0  0  0  0  0  0  0  0  0
    1.3980    1.4190    4.7880 H   0  0  0  0  0  0  0  0  0  0  0  0
    0.4160    2.7300    4.4360 H   0  0  0  0  0  0  0  0  0  0  0  0
   -0.7750    0.8770    3.8620 H   0  0  0  0  0  0  0  0  0  0  0  0
   -1.1660    1.3360    1.4960 H   0  0  0  0  0  0  0  0  0  0  0  0
   -0.9350    2.7780    2.4990 H   0  0  0  0  0  0  0  0  0  0  0  0
    0.7750    4.4610    1.8500 H   0  0  0  0  0  0  0  0  0  0  0  0
    2.6570    4.6640    0.0290 H   0  0  0  0  0  0  0  0  0  0  0  0
    3.8140    2.9940   -1.8260 H   0  0  0  0  0  0  0  0  0  0  0  0
    3.7450    0.6950   -2.7030 H   0  0  0  0  0  0  0  0  0  0  0  0
    2.1830   -0.9160   -1.7770 H   0  0  0  0  0  0  0  0  0  0  0  0
    0.6220   -0.2420    0.0600 H   0  0  0  0  0  0  0  0  0  0  0  0
    0.4590   -3.5320    3.3690 C   0  0  0  0  0  0  0  0  0  0  0  0
    0.4190   -2.5520    2.1850 C   0  0  2  0  0  0  0  0  0  0  0  0
   -0.0730   -1.2890    2.5680 N   0  0  0  0  0  0  0  0  0  0  0  0
   -0.1800   -3.1750    1.0110 C   0  0  0  0  0  0  0  0  0  0  0  0
    0.3020   -4.3730    0.7610 O   0  0  0  0  0  0  0  0  0  0  0  0
   -0.5360   -3.8570    3.6680 H   0  0  0  0  0  0  0  0  0  0  0  0
    1.0760   -3.0710    4.1370 H   0  0  0  0  0  0  0  0  0  0  0  0
    1.0100   -4.4200    2.9890 H   0  0  0  0  0  0  0  0  0  0  0  0
    1.5250   -2.4080    1.9620 H   0  0  0  0  0  0  0  0  0  0  0  0
   -1.0990   -1.1540    2.6870 H   0  0  0  0  0  0  0  0  0  0  0  0
   -1.1500   -2.7510    0.1220 N   0  0  0  0  0  0  0  0  0  0  0  0
   -1.9470   -1.5630   -0.0900 C   0  0  0  0  0  0  0  0  0  0  0  0
   -3.3390   -2.2200   -0.0120 C   0  0  0  0  0  0  0  0  0  0  0  0
   -3.1360   -3.3370   -1.0360 C   0  0  0  0  0  0  0  0  0  0  0  0
   -1.6740   -3.6300   -0.9690 C   0  0  1  0  0  0  0  0  0  0  0  0
   -0.9590   -3.2180   -2.1940 C   0  0  0  0  0  0  0  0  0  0  0  0
   -0.0970   -2.3260   -2.2230 O   0  0  0  0  0  0  0  0  0  0  0  0
   -1.2270   -3.8360   -3.4300 O   0  0  0  0  0  0  0  0  0  0  0  0
   -1.8090   -0.7400    0.5770 H   0  0  0  0  0  0  0  0  0  0  0  0
   -1.8780   -1.2600   -1.1810 H   0  0  0  0  0  0  0  0  0  0  0  0
   -4.1300   -1.5320   -0.2940 H   0  0  0  0  0  0  0  0  0  0  0  0
   -3.4620   -2.7090    0.9740 H   0  0  0  0  0  0  0  0  0  0  0  0
   -3.3440   -2.8650   -2.0410 H   0  0  0  0  0  0  0  0  0  0  0  0
   -3.7890   -4.1940   -0.8370 H   0  0  0  0  0  0  0  0  0  0  0  0
   -1.5100   -4.6820   -0.7270 H   0  0  0  0  0  0  0  0  0  0  0  0
  1 16  1  0  0  0  0
  1 15  1  0  0  0  0
  2 17  1  1  0  0  0
  2  1  1  0  0  0  0
  3 19  1  0  0  0  0
  3  2  1  0  0  0  0
  4  5  2  0  0  0  0
  4  3  1  0  0  0  0
  5 20  1  0  0  0  0
  6  5  1  0  0  0  0
  7 12  1  0  0  0  0
  7  6  1  0  0  0  0
  8  7  2  0  0  0  0
  9  8  1  0  0  0  0
  9 10  2  0  0  0  0
 10 11  1  0  0  0  0
 11 25  1  0  0  0  0
 11 12  2  0  0  0  0
 12  4  1  0  0  0  0
 13  2  1  0  0  0  0
 14 13  2  0  0  0  0
 18  3  1  0  0  0  0
 21  6  1  0  0  0  0
 22  8  1  0  0  0  0
 23  9  1  0  0  0  0
 24 10  1  0  0  0  0
 26 31  1  0  0  0  0
 26 32  1  0  0  0  0
 27 34  1  6  0  0  0
 27 28  1  0  0  0  0
 27 26  1  0  0  0  0
 28 35  1  0  0  0  0
 28 13  1  0  0  0  0
 29 27  1  0  0  0  0
 30 29  2  0  0  0  0
 33 26  1  0  0  0  0
 36 29  1  0  0  0  0
 37 38  1  0  0  0  0
 37 36  1  0  0  0  0
 37 44  1  0  0  0  0
 38 47  1  0  0  0  0
 39 40  1  0  0  0  0
 39 49  1  0  0  0  0
 39 38  1  0  0  0  0
 40 50  1  1  0  0  0
 40 36  1  0  0  0  0
 41 40  1  0  0  0  0
 42 41  1  0  0  0  0
 43 41  2  0  0  0  0
 45 37  1  0  0  0  0
 46 38  1  0  0  0  0
 48 39  1  0  0  0  0
M  END
$$$$
