WAR.pdb
 OpenBabel07022419153D

 59 60  0  0  1  0  0  0  0  0999 V2000
    1.9910    2.9840    0.4360 N   0  0  0  0  0  0  0  0  0  0  0  0
    1.8140    1.5600    0.2290 C   0  0  1  0  0  0  0  0  0  0  0  0
    3.1830    0.9560    0.1940 C   0  0  0  0  0  0  0  0  0  0  0  0
    3.9350    1.2400    1.4450 C   0  0  0  0  0  0  0  0  0  0  0  0
    4.0190    0.4250    2.5510 C   0  0  0  0  0  0  0  0  0  0  0  0
    4.7410    1.0320    3.5040 N   0  0  0  0  0  0  0  0  0  0  0  0
    5.1610    2.2410    3.0920 C   0  0  0  0  0  0  0  0  0  0  0  0
    5.9250    3.2380    3.6640 C   0  0  0  0  0  0  0  0  0  0  0  0
    6.2140    4.3840    2.9870 C   0  0  0  0  0  0  0  0  0  0  0  0
    5.7210    4.5170    1.7090 C   0  0  0  0  0  0  0  0  0  0  0  0
    4.9450    3.5310    1.1010 C   0  0  0  0  0  0  0  0  0  0  0  0
    4.6590    2.3830    1.7960 C   0  0  0  0  0  0  0  0  0  0  0  0
    0.9070    1.0670    1.2620 C   0  0  0  0  0  0  0  0  0  0  0  0
    1.2460    1.2730    2.4610 O   0  0  0  0  0  0  0  0  0  0  0  0
    2.2530    3.5170   -0.3990 H   0  0  0  0  0  0  0  0  0  0  0  0
    1.2280    3.4000    1.0110 H   0  0  0  0  0  0  0  0  0  0  0  0
    1.3320    1.4270   -0.7560 H   0  0  0  0  0  0  0  0  0  0  0  0
    3.2740   -0.0840   -0.0450 H   0  0  0  0  0  0  0  0  0  0  0  0
    3.7640    1.5160   -0.6060 H   0  0  0  0  0  0  0  0  0  0  0  0
    3.5520   -0.5640    2.6010 H   0  0  0  0  0  0  0  0  0  0  0  0
    4.9530    0.6360    4.4380 H   0  0  0  0  0  0  0  0  0  0  0  0
    6.3050    3.1220    4.6640 H   0  0  0  0  0  0  0  0  0  0  0  0
    6.8270    5.1910    3.4300 H   0  0  0  0  0  0  0  0  0  0  0  0
    5.9220    5.4180    1.1300 H   0  0  0  0  0  0  0  0  0  0  0  0
    4.5800    3.6480    0.0970 H   0  0  0  0  0  0  0  0  0  0  0  0
   -2.3840    0.8470    2.2590 C   0  0  0  0  0  0  0  0  0  0  0  0
   -1.1810   -0.0930    2.1060 C   0  0  2  0  0  0  0  0  0  0  0  0
   -0.3070    0.3910    1.0600 N   0  0  0  0  0  0  0  0  0  0  0  0
   -1.7080   -1.4530    1.8240 C   0  0  0  0  0  0  0  0  0  0  0  0
   -2.4080   -2.0530    2.7150 O   0  0  0  0  0  0  0  0  0  0  0  0
   -2.1370    1.6360    2.9630 H   0  0  0  0  0  0  0  0  0  0  0  0
   -3.2040    0.2340    2.6710 H   0  0  0  0  0  0  0  0  0  0  0  0
   -2.7200    1.2210    1.2740 H   0  0  0  0  0  0  0  0  0  0  0  0
   -0.6660   -0.0250    3.0910 H   0  0  0  0  0  0  0  0  0  0  0  0
   -0.5990    0.2320    0.0780 H   0  0  0  0  0  0  0  0  0  0  0  0
   -4.2850   -3.9780   -4.8740 N   0  0  0  0  0  0  0  0  0  0  0  0
   -4.5690   -4.5840   -3.6200 C   0  0  0  0  0  0  0  0  0  0  0  0
   -4.2420   -5.8140   -3.4580 N   0  0  0  0  0  0  0  0  0  0  0  0
   -5.2080   -3.8560   -2.5520 N   0  0  0  0  0  0  0  0  0  0  0  0
   -5.3460   -4.5110   -1.2940 C   0  0  0  0  0  0  0  0  0  0  0  0
   -4.0030   -4.7340   -0.5880 C   0  0  0  0  0  0  0  0  0  0  0  0
   -3.3540   -3.4080   -0.3340 C   0  0  0  0  0  0  0  0  0  0  0  0
   -2.0410   -3.5070    0.4030 C   0  0  2  0  0  0  0  0  0  0  0  0
   -1.4900   -2.1520    0.6120 N   0  0  0  0  0  0  0  0  0  0  0  0
   -1.0310   -4.3570   -0.2330 C   0  0  0  0  0  0  0  0  0  0  0  0
    0.1570   -3.8990   -0.4650 O   0  0  0  0  0  0  0  0  0  0  0  0
   -1.1910   -5.6690   -0.6430 O   0  0  0  0  0  0  0  0  0  0  0  0
   -3.9090   -2.9980   -4.9320 H   0  0  0  0  0  0  0  0  0  0  0  0
   -4.4310   -4.4620   -5.7800 H   0  0  0  0  0  0  0  0  0  0  0  0
   -3.7900   -6.3960   -4.1690 H   0  0  0  0  0  0  0  0  0  0  0  0
   -5.5390   -2.8880   -2.7480 H   0  0  0  0  0  0  0  0  0  0  0  0
   -5.9350   -5.4610   -1.3410 H   0  0  0  0  0  0  0  0  0  0  0  0
   -5.9380   -3.8510   -0.6010 H   0  0  0  0  0  0  0  0  0  0  0  0
   -4.1590   -5.3120    0.3380 H   0  0  0  0  0  0  0  0  0  0  0  0
   -3.3510   -5.3320   -1.2540 H   0  0  0  0  0  0  0  0  0  0  0  0
   -4.0460   -2.8240    0.3400 H   0  0  0  0  0  0  0  0  0  0  0  0
   -3.2410   -2.8100   -1.2420 H   0  0  0  0  0  0  0  0  0  0  0  0
   -2.2690   -3.8960    1.4250 H   0  0  0  0  0  0  0  0  0  0  0  0
   -0.9340   -1.6970   -0.1380 H   0  0  0  0  0  0  0  0  0  0  0  0
  1 16  1  0  0  0  0
  2 17  1  6  0  0  0
  2  1  1  0  0  0  0
  2 13  1  0  0  0  0
  3  2  1  0  0  0  0
  3  4  1  0  0  0  0
  4 12  1  0  0  0  0
  4  5  2  0  0  0  0
  5 20  1  0  0  0  0
  5  6  1  0  0  0  0
  6 21  1  0  0  0  0
  7  6  1  0  0  0  0
  7  8  1  0  0  0  0
  8 22  1  0  0  0  0
  9 23  1  0  0  0  0
  9  8  2  0  0  0  0
 10  9  1  0  0  0  0
 11 10  2  0  0  0  0
 11 12  1  0  0  0  0
 12  7  2  0  0  0  0
 13 14  2  0  0  0  0
 15  1  1  0  0  0  0
 18  3  1  0  0  0  0
 19  3  1  0  0  0  0
 24 10  1  0  0  0  0
 25 11  1  0  0  0  0
 26 32  1  0  0  0  0
 26 31  1  0  0  0  0
 27 26  1  0  0  0  0
 27 34  1  1  0  0  0
 28 13  1  0  0  0  0
 28 27  1  0  0  0  0
 29 27  1  0  0  0  0
 29 30  2  0  0  0  0
 33 26  1  0  0  0  0
 35 28  1  0  0  0  0
 36 37  1  0  0  0  0
 37 38  2  0  0  0  0
 37 39  1  0  0  0  0
 39 40  1  0  0  0  0
 40 53  1  0  0  0  0
 40 41  1  0  0  0  0
 41 42  1  0  0  0  0
 41 54  1  0  0  0  0
 42 56  1  0  0  0  0
 42 43  1  0  0  0  0
 43 44  1  0  0  0  0
 43 58  1  1  0  0  0
 44 29  1  0  0  0  0
 45 43  1  0  0  0  0
 46 45  1  0  0  0  0
 47 45  2  0  0  0  0
 48 36  1  0  0  0  0
 49 36  1  0  0  0  0
 50 38  1  0  0  0  0
 51 39  1  0  0  0  0
 52 40  1  0  0  0  0
 55 41  1  0  0  0  0
 57 42  1  0  0  0  0
 59 44  1  0  0  0  0
M  END
$$$$
