WAT.pdb
 OpenBabel07022419153D

 50 51  0  0  1  0  0  0  0  0999 V2000
    0.4210   -0.5700    3.9190 N   0  0  0  0  0  0  0  0  0  0  0  0
    1.0750    0.4630    3.1040 C   0  0  1  0  0  0  0  0  0  0  0  0
    2.5460    0.2470    3.3060 C   0  0  0  0  0  0  0  0  0  0  0  0
    3.4460    1.1300    2.5830 C   0  0  0  0  0  0  0  0  0  0  0  0
    4.0390    2.3000    3.0350 C   0  0  0  0  0  0  0  0  0  0  0  0
    4.7820    2.8360    2.0490 N   0  0  0  0  0  0  0  0  0  0  0  0
    4.6980    2.0500    0.9490 C   0  0  0  0  0  0  0  0  0  0  0  0
    5.2550    2.1120   -0.3160 C   0  0  0  0  0  0  0  0  0  0  0  0
    4.9870    1.1260   -1.2430 C   0  0  0  0  0  0  0  0  0  0  0  0
    4.1670    0.0660   -0.9340 C   0  0  0  0  0  0  0  0  0  0  0  0
    3.6180    0.0130    0.3260 C   0  0  0  0  0  0  0  0  0  0  0  0
    3.8640    0.9810    1.2770 C   0  0  0  0  0  0  0  0  0  0  0  0
    0.5920    0.3820    1.7260 C   0  0  0  0  0  0  0  0  0  0  0  0
    0.7750    1.2920    0.8610 O   0  0  0  0  0  0  0  0  0  0  0  0
    1.0220   -0.9000    4.6780 H   0  0  0  0  0  0  0  0  0  0  0  0
   -0.5310   -0.2610    4.2120 H   0  0  0  0  0  0  0  0  0  0  0  0
    0.7380    1.4310    3.5810 H   0  0  0  0  0  0  0  0  0  0  0  0
    2.7140    0.3730    4.4160 H   0  0  0  0  0  0  0  0  0  0  0  0
    2.7310   -0.8350    3.1090 H   0  0  0  0  0  0  0  0  0  0  0  0
    3.8900    2.6730    4.0370 H   0  0  0  0  0  0  0  0  0  0  0  0
    5.3520    3.7100    2.0650 H   0  0  0  0  0  0  0  0  0  0  0  0
    5.8940    2.9260   -0.5770 H   0  0  0  0  0  0  0  0  0  0  0  0
    5.4270    1.1690   -2.2530 H   0  0  0  0  0  0  0  0  0  0  0  0
    3.9350   -0.7290   -1.6390 H   0  0  0  0  0  0  0  0  0  0  0  0
    2.9780   -0.7940    0.6050 H   0  0  0  0  0  0  0  0  0  0  0  0
    0.1290   -2.0400   -0.7120 C   0  0  0  0  0  0  0  0  0  0  0  0
   -0.6190   -0.8350   -0.1050 C   0  0  2  0  0  0  0  0  0  0  0  0
   -0.1340   -0.7500    1.2530 N   0  0  0  0  0  0  0  0  0  0  0  0
   -2.0460   -1.2830   -0.0520 C   0  0  0  0  0  0  0  0  0  0  0  0
   -2.5210   -1.5140    1.0890 O   0  0  0  0  0  0  0  0  0  0  0  0
   -0.2910   -2.9320   -0.1940 H   0  0  0  0  0  0  0  0  0  0  0  0
    1.2040   -2.0080   -0.4620 H   0  0  0  0  0  0  0  0  0  0  0  0
   -0.0830   -2.1320   -1.7900 H   0  0  0  0  0  0  0  0  0  0  0  0
   -0.4490    0.0660   -0.6840 H   0  0  0  0  0  0  0  0  0  0  0  0
   -0.3120   -1.5310    1.9180 H   0  0  0  0  0  0  0  0  0  0  0  0
   -5.4960   -3.9440   -0.5110 C   0  0  0  0  0  0  0  0  0  0  0  0
   -4.1510   -3.2790   -0.5990 C   0  0  1  0  0  0  0  0  0  0  0  0
   -3.4120   -4.0780   -1.5190 O   0  0  0  0  0  0  0  0  0  0  0  0
   -4.1840   -1.8700   -1.1200 C   0  0  2  0  0  0  0  0  0  0  0  0
   -2.8120   -1.4340   -1.2410 N   0  0  0  0  0  0  0  0  0  0  0  0
   -4.9010   -0.9110   -0.2510 C   0  0  0  0  0  0  0  0  0  0  0  0
   -6.1120   -1.0500    0.0870 O   0  0  0  0  0  0  0  0  0  0  0  0
   -4.2090    0.2020    0.2190 O   0  0  0  0  0  0  0  0  0  0  0  0
   -5.7290   -4.5080   -1.4630 H   0  0  0  0  0  0  0  0  0  0  0  0
   -6.3390   -3.2910   -0.2950 H   0  0  0  0  0  0  0  0  0  0  0  0
   -5.4400   -4.7710    0.2590 H   0  0  0  0  0  0  0  0  0  0  0  0
   -3.6840   -3.3780    0.3980 H   0  0  0  0  0  0  0  0  0  0  0  0
   -2.9480   -4.8130   -1.0730 H   0  0  0  0  0  0  0  0  0  0  0  0
   -4.7140   -1.8090   -2.1060 H   0  0  0  0  0  0  0  0  0  0  0  0
   -2.3530   -1.2240   -2.1540 H   0  0  0  0  0  0  0  0  0  0  0  0
  1 16  1  0  0  0  0
  1 15  1  0  0  0  0
  2  3  1  0  0  0  0
  2 17  1  1  0  0  0
  2  1  1  0  0  0  0
  3 18  1  0  0  0  0
  4  5  2  0  0  0  0
  4  3  1  0  0  0  0
  5 20  1  0  0  0  0
  6 21  1  0  0  0  0
  6  5  1  0  0  0  0
  7 12  1  0  0  0  0
  7  6  1  0  0  0  0
  8  7  2  0  0  0  0
  9 10  2  0  0  0  0
  9  8  1  0  0  0  0
 10 11  1  0  0  0  0
 11 25  1  0  0  0  0
 11 12  2  0  0  0  0
 12  4  1  0  0  0  0
 13  2  1  0  0  0  0
 14 13  2  0  0  0  0
 19  3  1  0  0  0  0
 22  8  1  0  0  0  0
 23  9  1  0  0  0  0
 24 10  1  0  0  0  0
 26 32  1  0  0  0  0
 26 31  1  0  0  0  0
 26 27  1  0  0  0  0
 27 34  1  6  0  0  0
 27 29  1  0  0  0  0
 27 28  1  0  0  0  0
 28 13  1  0  0  0  0
 28 35  1  0  0  0  0
 29 30  2  0  0  0  0
 33 26  1  0  0  0  0
 36 45  1  0  0  0  0
 36 46  1  0  0  0  0
 37 36  1  0  0  0  0
 37 47  1  1  0  0  0
 38 48  1  0  0  0  0
 38 37  1  0  0  0  0
 39 49  1  6  0  0  0
 39 37  1  0  0  0  0
 39 41  1  0  0  0  0
 40 39  1  0  0  0  0
 40 29  1  0  0  0  0
 41 42  2  0  0  0  0
 41 43  1  0  0  0  0
 44 36  1  0  0  0  0
 50 40  1  0  0  0  0
M  END
$$$$
