WAV.pdb
 OpenBabel07022419153D

 52 53  0  0  1  0  0  0  0  0999 V2000
    1.6210    2.8700    2.9400 N   0  0  0  0  0  0  0  0  0  0  0  0
    0.5400    2.1440    2.2810 C   0  0  1  0  0  0  0  0  0  0  0  0
    0.6840    2.4040    0.8250 C   0  0  0  0  0  0  0  0  0  0  0  0
    1.9810    1.9910    0.2330 C   0  0  0  0  0  0  0  0  0  0  0  0
    3.0340    2.8750   -0.0300 C   0  0  0  0  0  0  0  0  0  0  0  0
    4.0450    2.1630   -0.5370 N   0  0  0  0  0  0  0  0  0  0  0  0
    3.7100    0.8620   -0.6190 C   0  0  0  0  0  0  0  0  0  0  0  0
    4.4190   -0.2590   -1.0800 C   0  0  0  0  0  0  0  0  0  0  0  0
    3.8400   -1.5080   -1.0640 C   0  0  0  0  0  0  0  0  0  0  0  0
    2.5510   -1.6170   -0.5850 C   0  0  0  0  0  0  0  0  0  0  0  0
    1.8710   -0.5060   -0.1370 C   0  0  0  0  0  0  0  0  0  0  0  0
    2.4290    0.7560   -0.1420 C   0  0  0  0  0  0  0  0  0  0  0  0
    0.5120    0.7640    2.7270 C   0  0  0  0  0  0  0  0  0  0  0  0
    1.5160    0.2990    3.3540 O   0  0  0  0  0  0  0  0  0  0  0  0
    1.6770    2.4740    3.9160 H   0  0  0  0  0  0  0  0  0  0  0  0
    1.4550    3.8890    2.9600 H   0  0  0  0  0  0  0  0  0  0  0  0
   -0.3870    2.7190    2.6020 H   0  0  0  0  0  0  0  0  0  0  0  0
    0.5050    3.4690    0.5980 H   0  0  0  0  0  0  0  0  0  0  0  0
   -0.1050    1.8410    0.2580 H   0  0  0  0  0  0  0  0  0  0  0  0
    3.0060    3.9570    0.1570 H   0  0  0  0  0  0  0  0  0  0  0  0
    4.9760    2.5680   -0.8300 H   0  0  0  0  0  0  0  0  0  0  0  0
    5.4260   -0.1000   -1.4420 H   0  0  0  0  0  0  0  0  0  0  0  0
    4.3800   -2.3920   -1.4200 H   0  0  0  0  0  0  0  0  0  0  0  0
    2.1070   -2.6180   -0.5800 H   0  0  0  0  0  0  0  0  0  0  0  0
    0.8620   -0.6100    0.2250 H   0  0  0  0  0  0  0  0  0  0  0  0
   -1.4980   -1.6650    4.1920 C   0  0  0  0  0  0  0  0  0  0  0  0
   -0.5780   -1.5190    2.9790 C   0  0  2  0  0  0  0  0  0  0  0  0
   -0.5640   -0.1410    2.5270 N   0  0  0  0  0  0  0  0  0  0  0  0
   -1.0670   -2.4600    1.9420 C   0  0  0  0  0  0  0  0  0  0  0  0
   -1.0880   -3.6900    2.2250 O   0  0  0  0  0  0  0  0  0  0  0  0
   -2.3300   -0.9260    4.1210 H   0  0  0  0  0  0  0  0  0  0  0  0
   -0.9160   -1.5320    5.1230 H   0  0  0  0  0  0  0  0  0  0  0  0
   -1.9450   -2.6780    4.2310 H   0  0  0  0  0  0  0  0  0  0  0  0
    0.4200   -1.7800    3.3400 H   0  0  0  0  0  0  0  0  0  0  0  0
   -1.4090    0.1900    2.0220 H   0  0  0  0  0  0  0  0  0  0  0  0
   -4.1220   -3.7710   -1.4200 C   0  0  0  0  0  0  0  0  0  0  0  0
   -3.5060   -2.8130   -0.4170 C   0  0  0  0  0  0  0  0  0  0  0  0
   -3.8280   -1.3870   -0.7180 C   0  0  0  0  0  0  0  0  0  0  0  0
   -1.9920   -3.0630   -0.3210 C   0  0  2  0  0  0  0  0  0  0  0  0
   -1.5170   -2.1020    0.6540 N   0  0  0  0  0  0  0  0  0  0  0  0
   -1.3580   -2.9790   -1.6290 C   0  0  0  0  0  0  0  0  0  0  0  0
   -1.6830   -3.7670   -2.5440 O   0  0  0  0  0  0  0  0  0  0  0  0
   -0.3930   -2.0320   -1.8770 O   0  0  0  0  0  0  0  0  0  0  0  0
   -3.6440   -4.7630   -1.3650 H   0  0  0  0  0  0  0  0  0  0  0  0
   -4.0240   -3.2990   -2.4300 H   0  0  0  0  0  0  0  0  0  0  0  0
   -5.2120   -3.8920   -1.2510 H   0  0  0  0  0  0  0  0  0  0  0  0
   -3.9310   -3.0820    0.5700 H   0  0  0  0  0  0  0  0  0  0  0  0
   -4.6590   -1.2740   -1.4480 H   0  0  0  0  0  0  0  0  0  0  0  0
   -4.1460   -0.8830    0.2160 H   0  0  0  0  0  0  0  0  0  0  0  0
   -2.9370   -0.8160   -1.0740 H   0  0  0  0  0  0  0  0  0  0  0  0
   -1.9190   -4.1060    0.0570 H   0  0  0  0  0  0  0  0  0  0  0  0
   -1.5060   -1.0920    0.3940 H   0  0  0  0  0  0  0  0  0  0  0  0
  1 16  1  0  0  0  0
  1 15  1  0  0  0  0
  2 17  1  1  0  0  0
  2 13  1  0  0  0  0
  2  1  1  0  0  0  0
  3  2  1  0  0  0  0
  4  3  1  0  0  0  0
  5 20  1  0  0  0  0
  5  4  2  0  0  0  0
  6  5  1  0  0  0  0
  7  6  1  0  0  0  0
  7 12  1  0  0  0  0
  8  9  1  0  0  0  0
  8  7  2  0  0  0  0
  9 10  2  0  0  0  0
 10 24  1  0  0  0  0
 10 11  1  0  0  0  0
 11 25  1  0  0  0  0
 12 11  2  0  0  0  0
 12  4  1  0  0  0  0
 13 14  2  0  0  0  0
 18  3  1  0  0  0  0
 19  3  1  0  0  0  0
 21  6  1  0  0  0  0
 22  8  1  0  0  0  0
 23  9  1  0  0  0  0
 26 33  1  0  0  0  0
 26 32  1  0  0  0  0
 27 34  1  1  0  0  0
 27 26  1  0  0  0  0
 28 13  1  0  0  0  0
 28 27  1  0  0  0  0
 29 30  2  0  0  0  0
 29 27  1  0  0  0  0
 31 26  1  0  0  0  0
 35 28  1  0  0  0  0
 36 44  1  0  0  0  0
 36 46  1  0  0  0  0
 36 37  1  0  0  0  0
 37 39  1  0  0  0  0
 37 47  1  0  0  0  0
 38 37  1  0  0  0  0
 38 49  1  0  0  0  0
 39 51  1  1  0  0  0
 39 40  1  0  0  0  0
 40 29  1  0  0  0  0
 41 39  1  0  0  0  0
 42 41  2  0  0  0  0
 43 41  1  0  0  0  0
 45 36  1  0  0  0  0
 48 38  1  0  0  0  0
 50 38  1  0  0  0  0
 52 40  1  0  0  0  0
M  END
$$$$
