WAW.pdb
 OpenBabel07022419153D

 60 63  0  0  1  0  0  0  0  0999 V2000
    4.3400    0.5580    1.5920 N   0  0  0  0  0  0  0  0  0  0  0  0
    3.4260    0.0150    2.5880 C   0  0  1  0  0  0  0  0  0  0  0  0
    3.3360    0.9250    3.7820 C   0  0  0  0  0  0  0  0  0  0  0  0
    2.8930    2.2840    3.5140 C   0  0  0  0  0  0  0  0  0  0  0  0
    3.7520    3.3870    3.3710 C   0  0  0  0  0  0  0  0  0  0  0  0
    3.0280    4.4810    3.1060 N   0  0  0  0  0  0  0  0  0  0  0  0
    1.7270    4.1410    3.0690 C   0  0  0  0  0  0  0  0  0  0  0  0
    0.6000    4.8700    2.8470 C   0  0  0  0  0  0  0  0  0  0  0  0
   -0.6300    4.2980    2.8660 C   0  0  0  0  0  0  0  0  0  0  0  0
   -0.7350    2.9610    3.1150 C   0  0  0  0  0  0  0  0  0  0  0  0
    0.3810    2.2020    3.3420 C   0  0  0  0  0  0  0  0  0  0  0  0
    1.6450    2.7730    3.3240 C   0  0  0  0  0  0  0  0  0  0  0  0
    2.1430   -0.4370    2.0480 C   0  0  0  0  0  0  0  0  0  0  0  0
    1.4160   -1.1340    2.8250 O   0  0  0  0  0  0  0  0  0  0  0  0
    3.8450    1.3400    1.1080 H   0  0  0  0  0  0  0  0  0  0  0  0
    4.6190   -0.1400    0.8930 H   0  0  0  0  0  0  0  0  0  0  0  0
    3.9630   -0.9180    2.9580 H   0  0  0  0  0  0  0  0  0  0  0  0
    2.6370    0.4240    4.5110 H   0  0  0  0  0  0  0  0  0  0  0  0
    4.3160    0.9490    4.3420 H   0  0  0  0  0  0  0  0  0  0  0  0
    4.8290    3.4000    3.4530 H   0  0  0  0  0  0  0  0  0  0  0  0
    3.3800    5.4630    2.9450 H   0  0  0  0  0  0  0  0  0  0  0  0
    0.6960    5.9350    2.6500 H   0  0  0  0  0  0  0  0  0  0  0  0
   -1.5050    4.9360    2.6800 H   0  0  0  0  0  0  0  0  0  0  0  0
   -1.7290    2.5090    3.1290 H   0  0  0  0  0  0  0  0  0  0  0  0
    0.2490    1.1440    3.5450 H   0  0  0  0  0  0  0  0  0  0  0  0
   -0.5970    0.4900    0.0360 C   0  0  0  0  0  0  0  0  0  0  0  0
    0.3660   -0.6520    0.2790 C   0  0  2  0  0  0  0  0  0  0  0  0
    1.6510   -0.1710    0.7590 N   0  0  0  0  0  0  0  0  0  0  0  0
    0.6020   -1.4410   -0.9470 C   0  0  0  0  0  0  0  0  0  0  0  0
    1.7640   -1.5960   -1.4100 O   0  0  0  0  0  0  0  0  0  0  0  0
   -1.3780    0.1290   -0.6650 H   0  0  0  0  0  0  0  0  0  0  0  0
   -1.0960    0.7710    0.9720 H   0  0  0  0  0  0  0  0  0  0  0  0
   -0.0800    1.3380   -0.4560 H   0  0  0  0  0  0  0  0  0  0  0  0
   -0.0760   -1.2450    1.1120 H   0  0  0  0  0  0  0  0  0  0  0  0
    2.2380    0.4000    0.1120 H   0  0  0  0  0  0  0  0  0  0  0  0
   -0.4450   -2.0730   -1.6820 N   0  0  0  0  0  0  0  0  0  0  0  0
   -0.2250   -2.8390   -2.8730 C   0  0  1  0  0  0  0  0  0  0  0  0
   -0.5750   -4.2910   -2.7850 C   0  0  0  0  0  0  0  0  0  0  0  0
   -1.9680   -4.5950   -2.4640 C   0  0  0  0  0  0  0  0  0  0  0  0
   -2.9260   -4.9570   -3.4010 C   0  0  0  0  0  0  0  0  0  0  0  0
   -4.0990   -5.1510   -2.7720 N   0  0  0  0  0  0  0  0  0  0  0  0
   -3.9580   -4.9300   -1.4380 C   0  0  0  0  0  0  0  0  0  0  0  0
   -4.8470   -5.0010   -0.3770 C   0  0  0  0  0  0  0  0  0  0  0  0
   -4.4290   -4.7270    0.9060 C   0  0  0  0  0  0  0  0  0  0  0  0
   -3.1050   -4.3860    1.0700 C   0  0  0  0  0  0  0  0  0  0  0  0
   -2.2150   -4.3120    0.0260 C   0  0  0  0  0  0  0  0  0  0  0  0
   -2.6320   -4.5860   -1.2600 C   0  0  0  0  0  0  0  0  0  0  0  0
   -1.0050   -2.2750   -4.0080 C   0  0  0  0  0  0  0  0  0  0  0  0
   -0.8960   -2.8490   -5.1210 O   0  0  0  0  0  0  0  0  0  0  0  0
   -1.8200   -1.1690   -3.8670 O   0  0  0  0  0  0  0  0  0  0  0  0
   -1.4030   -1.9230   -1.2840 H   0  0  0  0  0  0  0  0  0  0  0  0
    0.8760   -2.7090   -3.1130 H   0  0  0  0  0  0  0  0  0  0  0  0
    0.1470   -4.7420   -2.0450 H   0  0  0  0  0  0  0  0  0  0  0  0
   -0.2620   -4.7510   -3.7600 H   0  0  0  0  0  0  0  0  0  0  0  0
   -2.7280   -5.0570   -4.4530 H   0  0  0  0  0  0  0  0  0  0  0  0
   -4.9700   -5.4310   -3.2690 H   0  0  0  0  0  0  0  0  0  0  0  0
   -5.8790   -5.2690   -0.5230 H   0  0  0  0  0  0  0  0  0  0  0  0
   -5.1100   -4.7760    1.7500 H   0  0  0  0  0  0  0  0  0  0  0  0
   -2.7270   -4.1600    2.0700 H   0  0  0  0  0  0  0  0  0  0  0  0
   -1.1960   -4.0470    0.1800 H   0  0  0  0  0  0  0  0  0  0  0  0
  1  2  1  0  0  0  0
  2 17  1  1  0  0  0
  2  3  1  0  0  0  0
  3 19  1  0  0  0  0
  3 18  1  0  0  0  0
  4  3  1  0  0  0  0
  5 20  1  0  0  0  0
  5  4  2  0  0  0  0
  6  5  1  0  0  0  0
  7  6  1  0  0  0  0
  7 12  1  0  0  0  0
  8  9  1  0  0  0  0
  8  7  2  0  0  0  0
  9 10  2  0  0  0  0
 10 24  1  0  0  0  0
 10 11  1  0  0  0  0
 11 25  1  0  0  0  0
 12 11  2  0  0  0  0
 12  4  1  0  0  0  0
 13  2  1  0  0  0  0
 13 14  2  0  0  0  0
 15  1  1  0  0  0  0
 16  1  1  0  0  0  0
 21  6  1  0  0  0  0
 22  8  1  0  0  0  0
 23  9  1  0  0  0  0
 26 27  1  0  0  0  0
 26 32  1  0  0  0  0
 27 28  1  0  0  0  0
 27 34  1  1  0  0  0
 28 13  1  0  0  0  0
 29 27  1  0  0  0  0
 30 29  2  0  0  0  0
 31 26  1  0  0  0  0
 33 26  1  0  0  0  0
 35 28  1  0  0  0  0
 36 51  1  0  0  0  0
 36 29  1  0  0  0  0
 37 52  1  6  0  0  0
 37 38  1  0  0  0  0
 37 36  1  0  0  0  0
 38 39  1  0  0  0  0
 38 53  1  0  0  0  0
 39 47  1  0  0  0  0
 40 41  1  0  0  0  0
 40 39  2  0  0  0  0
 41 42  1  0  0  0  0
 42 47  2  0  0  0  0
 42 43  1  0  0  0  0
 43 44  2  0  0  0  0
 44 45  1  0  0  0  0
 44 58  1  0  0  0  0
 45 59  1  0  0  0  0
 46 60  1  0  0  0  0
 46 45  2  0  0  0  0
 47 46  1  0  0  0  0
 48 50  1  0  0  0  0
 48 37  1  0  0  0  0
 49 48  2  0  0  0  0
 54 38  1  0  0  0  0
 55 40  1  0  0  0  0
 56 41  1  0  0  0  0
 57 43  1  0  0  0  0
M  END
$$$$
