WAY.pdb
 OpenBabel07022419153D

 57 59  0  0  1  0  0  0  0  0999 V2000
    2.1460   -1.7350    1.3440 N   0  0  0  0  0  0  0  0  0  0  0  0
    1.9530   -1.2840    2.6970 C   0  0  1  0  0  0  0  0  0  0  0  0
    3.0830   -0.4510    3.2350 C   0  0  0  0  0  0  0  0  0  0  0  0
    3.3450    0.7830    2.4660 C   0  0  0  0  0  0  0  0  0  0  0  0
    2.9080    2.0700    2.7570 C   0  0  0  0  0  0  0  0  0  0  0  0
    3.3260    2.9120    1.8190 N   0  0  0  0  0  0  0  0  0  0  0  0
    4.0410    2.2440    0.8850 C   0  0  0  0  0  0  0  0  0  0  0  0
    4.6810    2.6640   -0.2630 C   0  0  0  0  0  0  0  0  0  0  0  0
    5.3510    1.7300   -1.0250 C   0  0  0  0  0  0  0  0  0  0  0  0
    5.3990    0.4000   -0.6750 C   0  0  0  0  0  0  0  0  0  0  0  0
    4.7460    0.0220    0.4790 C   0  0  0  0  0  0  0  0  0  0  0  0
    4.0590    0.9040    1.2830 C   0  0  0  0  0  0  0  0  0  0  0  0
    0.6570   -0.5750    2.7830 C   0  0  0  0  0  0  0  0  0  0  0  0
    0.3290   -0.0490    3.8740 O   0  0  0  0  0  0  0  0  0  0  0  0
    2.0710   -0.9650    0.6520 H   0  0  0  0  0  0  0  0  0  0  0  0
    1.4170   -2.4390    1.1080 H   0  0  0  0  0  0  0  0  0  0  0  0
    1.9300   -2.2080    3.3440 H   0  0  0  0  0  0  0  0  0  0  0  0
    2.8510   -0.1660    4.2660 H   0  0  0  0  0  0  0  0  0  0  0  0
    4.0000   -1.0740    3.1790 H   0  0  0  0  0  0  0  0  0  0  0  0
    2.3090    2.2750    3.6540 H   0  0  0  0  0  0  0  0  0  0  0  0
    3.1110    3.9370    1.8370 H   0  0  0  0  0  0  0  0  0  0  0  0
    4.6450    3.7090   -0.5420 H   0  0  0  0  0  0  0  0  0  0  0  0
    5.8440    2.1080   -1.9260 H   0  0  0  0  0  0  0  0  0  0  0  0
    5.9320   -0.3100   -1.2910 H   0  0  0  0  0  0  0  0  0  0  0  0
    4.7600   -1.0260    0.8060 H   0  0  0  0  0  0  0  0  0  0  0  0
   -1.4520    1.3950    0.7690 C   0  0  0  0  0  0  0  0  0  0  0  0
   -1.4730    0.1860    1.6770 C   0  0  2  0  0  0  0  0  0  0  0  0
   -0.1820   -0.4990    1.6610 N   0  0  0  0  0  0  0  0  0  0  0  0
   -2.5570   -0.7600    1.3450 C   0  0  0  0  0  0  0  0  0  0  0  0
   -3.7550   -0.3530    1.2940 O   0  0  0  0  0  0  0  0  0  0  0  0
   -0.7830    1.2600   -0.0980 H   0  0  0  0  0  0  0  0  0  0  0  0
   -1.0790    2.2910    1.3270 H   0  0  0  0  0  0  0  0  0  0  0  0
   -2.4660    1.5810    0.3940 H   0  0  0  0  0  0  0  0  0  0  0  0
   -1.6120    0.5560    2.7080 H   0  0  0  0  0  0  0  0  0  0  0  0
    0.0940   -0.9350    0.7840 H   0  0  0  0  0  0  0  0  0  0  0  0
   -2.8720   -0.0740   -4.8470 O   0  0  0  0  0  0  0  0  0  0  0  0
   -2.9850   -0.9690   -3.7900 C   0  0  0  0  0  0  0  0  0  0  0  0
   -4.2180   -1.4290   -3.4090 C   0  0  0  0  0  0  0  0  0  0  0  0
   -4.3150   -2.3140   -2.3630 C   0  0  0  0  0  0  0  0  0  0  0  0
   -3.1750   -2.7310   -1.7080 C   0  0  0  0  0  0  0  0  0  0  0  0
   -3.2650   -3.6740   -0.5890 C   0  0  0  0  0  0  0  0  0  0  0  0
   -3.4110   -3.0020    0.7550 C   0  0  2  0  0  0  0  0  0  0  0  0
   -2.3200   -2.1370    1.0730 N   0  0  0  0  0  0  0  0  0  0  0  0
   -3.5010   -4.0570    1.7960 C   0  0  0  0  0  0  0  0  0  0  0  0
   -4.4040   -4.9190    1.6840 O   0  0  0  0  0  0  0  0  0  0  0  0
   -1.9150   -2.2720   -2.0850 C   0  0  0  0  0  0  0  0  0  0  0  0
   -1.8390   -1.3850   -3.1360 C   0  0  0  0  0  0  0  0  0  0  0  0
   -2.6380   -4.1180    2.8630 O   0  0  0  0  0  0  0  0  0  0  0  0
   -3.6060    0.5030   -5.1830 H   0  0  0  0  0  0  0  0  0  0  0  0
   -5.1350   -1.1290   -3.8940 H   0  0  0  0  0  0  0  0  0  0  0  0
   -5.2780   -2.6740   -2.0640 H   0  0  0  0  0  0  0  0  0  0  0  0
   -2.4160   -4.3760   -0.5870 H   0  0  0  0  0  0  0  0  0  0  0  0
   -4.1940   -4.2850   -0.7320 H   0  0  0  0  0  0  0  0  0  0  0  0
   -4.3480   -2.4120    0.7460 H   0  0  0  0  0  0  0  0  0  0  0  0
   -1.3190   -2.4780    1.1180 H   0  0  0  0  0  0  0  0  0  0  0  0
   -1.0500   -2.6130   -1.5580 H   0  0  0  0  0  0  0  0  0  0  0  0
   -0.8860   -0.9940   -3.4740 H   0  0  0  0  0  0  0  0  0  0  0  0
  1  2  1  0  0  0  0
  2 13  1  0  0  0  0
  2  3  1  0  0  0  0
  2 17  1  1  0  0  0
  3 18  1  0  0  0  0
  4  5  2  0  0  0  0
  4  3  1  0  0  0  0
  5 20  1  0  0  0  0
  6 21  1  0  0  0  0
  6  5  1  0  0  0  0
  7 12  1  0  0  0  0
  7  6  1  0  0  0  0
  8  7  2  0  0  0  0
  9 10  2  0  0  0  0
  9  8  1  0  0  0  0
 10 11  1  0  0  0  0
 11 25  1  0  0  0  0
 11 12  2  0  0  0  0
 12  4  1  0  0  0  0
 13 14  2  0  0  0  0
 15  1  1  0  0  0  0
 16  1  1  0  0  0  0
 19  3  1  0  0  0  0
 22  8  1  0  0  0  0
 23  9  1  0  0  0  0
 24 10  1  0  0  0  0
 26 32  1  0  0  0  0
 26 27  1  0  0  0  0
 27 34  1  1  0  0  0
 28 27  1  0  0  0  0
 28 13  1  0  0  0  0
 29 27  1  0  0  0  0
 30 29  2  0  0  0  0
 31 26  1  0  0  0  0
 33 26  1  0  0  0  0
 35 28  1  0  0  0  0
 36 37  1  0  0  0  0
 37 38  2  0  0  0  0
 37 47  1  0  0  0  0
 38 39  1  0  0  0  0
 39 51  1  0  0  0  0
 39 40  2  0  0  0  0
 40 41  1  0  0  0  0
 41 52  1  0  0  0  0
 41 42  1  0  0  0  0
 42 54  1  1  0  0  0
 42 43  1  0  0  0  0
 42 44  1  0  0  0  0
 43 55  1  0  0  0  0
 43 29  1  0  0  0  0
 44 48  1  0  0  0  0
 45 44  2  0  0  0  0
 46 40  1  0  0  0  0
 46 56  1  0  0  0  0
 47 46  2  0  0  0  0
 49 36  1  0  0  0  0
 50 38  1  0  0  0  0
 53 41  1  0  0  0  0
 57 47  1  0  0  0  0
M  END
$$$$
