WCC.pdb
 OpenBabel07022419163D

 48 49  0  0  1  0  0  0  0  0999 V2000
    0.6990   -3.0270    2.0510 N   0  0  0  0  0  0  0  0  0  0  0  0
    1.0850   -1.6260    2.2280 C   0  0  1  0  0  0  0  0  0  0  0  0
    2.5740   -1.5090    2.1420 C   0  0  0  0  0  0  0  0  0  0  0  0
    3.0760   -0.1360    2.2780 C   0  0  0  0  0  0  0  0  0  0  0  0
    3.4600    0.4650    3.4550 C   0  0  0  0  0  0  0  0  0  0  0  0
    3.8160    1.7190    3.1580 N   0  0  0  0  0  0  0  0  0  0  0  0
    3.6870    1.9650    1.8640 C   0  0  0  0  0  0  0  0  0  0  0  0
    3.9610    3.1220    1.1440 C   0  0  0  0  0  0  0  0  0  0  0  0
    3.7630    3.1250   -0.2130 C   0  0  0  0  0  0  0  0  0  0  0  0
    3.2940    1.9610   -0.8090 C   0  0  0  0  0  0  0  0  0  0  0  0
    3.0320    0.8370   -0.0780 C   0  0  0  0  0  0  0  0  0  0  0  0
    3.2200    0.8050    1.2830 C   0  0  0  0  0  0  0  0  0  0  0  0
    0.4010   -0.7110    1.3320 C   0  0  0  0  0  0  0  0  0  0  0  0
    0.4390    0.5200    1.5850 O   0  0  0  0  0  0  0  0  0  0  0  0
    1.4770   -3.6560    2.4000 H   0  0  0  0  0  0  0  0  0  0  0  0
   -0.0940   -3.2070    2.7270 H   0  0  0  0  0  0  0  0  0  0  0  0
    0.8130   -1.3200    3.2820 H   0  0  0  0  0  0  0  0  0  0  0  0
    2.9790   -2.1110    2.9960 H   0  0  0  0  0  0  0  0  0  0  0  0
    2.9470   -1.9990    1.2050 H   0  0  0  0  0  0  0  0  0  0  0  0
    3.4700   -0.0030    4.4500 H   0  0  0  0  0  0  0  0  0  0  0  0
    4.1550    2.4040    3.8930 H   0  0  0  0  0  0  0  0  0  0  0  0
    4.3190    3.9840    1.6610 H   0  0  0  0  0  0  0  0  0  0  0  0
    3.9650    4.0000   -0.7940 H   0  0  0  0  0  0  0  0  0  0  0  0
    3.1510    2.0120   -1.9000 H   0  0  0  0  0  0  0  0  0  0  0  0
    2.6740   -0.0540   -0.5570 H   0  0  0  0  0  0  0  0  0  0  0  0
   -0.3220   -1.1280    0.1690 N   0  0  0  0  0  0  0  0  0  0  0  0
   -0.9640   -0.1500   -0.6450 C   0  0  1  0  0  0  0  0  0  0  0  0
   -0.3420   -0.1910   -2.0440 C   0  0  0  0  0  0  0  0  0  0  0  0
   -0.5880   -1.8460   -2.7370 S   0  0  0  0  0  0  0  0  0  0  0  0
   -2.4360   -0.3490   -0.7330 C   0  0  0  0  0  0  0  0  0  0  0  0
   -3.1180    0.4480   -1.4080 O   0  0  0  0  0  0  0  0  0  0  0  0
   -0.3300   -2.1570   -0.0090 H   0  0  0  0  0  0  0  0  0  0  0  0
   -0.7550    0.8630   -0.2460 H   0  0  0  0  0  0  0  0  0  0  0  0
   -0.7890    0.5900   -2.6840 H   0  0  0  0  0  0  0  0  0  0  0  0
    0.7260    0.0660   -1.9160 H   0  0  0  0  0  0  0  0  0  0  0  0
    0.0390   -2.7970   -1.9130 H   0  0  0  0  0  0  0  0  0  0  0  0
   -3.0440   -1.4280   -0.0570 N   0  0  0  0  0  0  0  0  0  0  0  0
   -4.4570   -1.6990   -0.0820 C   0  0  1  0  0  0  0  0  0  0  0  0
   -4.7800   -3.0490   -0.6820 C   0  0  0  0  0  0  0  0  0  0  0  0
   -4.0250   -4.4100    0.2230 S   0  0  0  0  0  0  0  0  0  0  0  0
   -4.9580   -1.7230    1.3140 C   0  0  0  0  0  0  0  0  0  0  0  0
   -6.1920   -1.9460    1.5540 O   0  0  0  0  0  0  0  0  0  0  0  0
   -4.1550   -1.5140    2.4340 O   0  0  0  0  0  0  0  0  0  0  0  0
   -2.4340   -2.0690    0.4930 H   0  0  0  0  0  0  0  0  0  0  0  0
   -5.0300   -0.9610   -0.6550 H   0  0  0  0  0  0  0  0  0  0  0  0
   -5.8810   -3.1750   -0.6210 H   0  0  0  0  0  0  0  0  0  0  0  0
   -4.5200   -3.0930   -1.7640 H   0  0  0  0  0  0  0  0  0  0  0  0
   -3.0930   -3.9410    1.1460 H   0  0  0  0  0  0  0  0  0  0  0  0
  1  2  1  0  0  0  0
  1 15  1  0  0  0  0
  1 16  1  0  0  0  0
  2 17  1  1  0  0  0
  3  2  1  0  0  0  0
  3  4  1  0  0  0  0
  3 18  1  0  0  0  0
  4  5  2  0  0  0  0
  5 20  1  0  0  0  0
  6  5  1  0  0  0  0
  6 21  1  0  0  0  0
  7  6  1  0  0  0  0
  8 22  1  0  0  0  0
  8  7  2  0  0  0  0
  9  8  1  0  0  0  0
 10  9  2  0  0  0  0
 10 11  1  0  0  0  0
 11 12  2  0  0  0  0
 12  7  1  0  0  0  0
 12  4  1  0  0  0  0
 13 14  2  0  0  0  0
 13  2  1  0  0  0  0
 19  3  1  0  0  0  0
 23  9  1  0  0  0  0
 24 10  1  0  0  0  0
 25 11  1  0  0  0  0
 26 13  1  0  0  0  0
 27 33  1  1  0  0  0
 27 26  1  0  0  0  0
 28 35  1  0  0  0  0
 28 27  1  0  0  0  0
 29 28  1  0  0  0  0
 29 36  1  0  0  0  0
 30 27  1  0  0  0  0
 30 37  1  0  0  0  0
 31 30  2  0  0  0  0
 32 26  1  0  0  0  0
 34 28  1  0  0  0  0
 37 44  1  0  0  0  0
 38 45  1  6  0  0  0
 38 37  1  0  0  0  0
 38 41  1  0  0  0  0
 39 46  1  0  0  0  0
 39 38  1  0  0  0  0
 39 40  1  0  0  0  0
 40 48  1  0  0  0  0
 41 42  2  0  0  0  0
 41 43  1  0  0  0  0
 47 39  1  0  0  0  0
M  END
$$$$
