WCD.pdb
 OpenBabel07022419163D

 50 51  0  0  1  0  0  0  0  0999 V2000
   -0.0590    4.5110    1.8440 N   0  0  0  0  0  0  0  0  0  0  0  0
   -0.2100    3.3530    0.9280 C   0  0  1  0  0  0  0  0  0  0  0  0
    0.9520    3.4420    0.0090 C   0  0  0  0  0  0  0  0  0  0  0  0
    1.1160    2.4180   -1.0040 C   0  0  0  0  0  0  0  0  0  0  0  0
    0.7480    2.4580   -2.3290 C   0  0  0  0  0  0  0  0  0  0  0  0
    1.0800    1.2890   -2.8960 N   0  0  0  0  0  0  0  0  0  0  0  0
    1.6550    0.4890   -1.9720 C   0  0  0  0  0  0  0  0  0  0  0  0
    2.1680   -0.7960   -2.0950 C   0  0  0  0  0  0  0  0  0  0  0  0
    2.7200   -1.3870   -0.9920 C   0  0  0  0  0  0  0  0  0  0  0  0
    2.7590   -0.7130    0.2020 C   0  0  0  0  0  0  0  0  0  0  0  0
    2.2490    0.5590    0.3160 C   0  0  0  0  0  0  0  0  0  0  0  0
    1.6880    1.1680   -0.7900 C   0  0  0  0  0  0  0  0  0  0  0  0
   -0.3920    2.1360    1.6930 C   0  0  0  0  0  0  0  0  0  0  0  0
   -0.0390    2.0980    2.9030 O   0  0  0  0  0  0  0  0  0  0  0  0
   -0.7160    4.4450    2.6320 H   0  0  0  0  0  0  0  0  0  0  0  0
   -0.0690    5.3940    1.3220 H   0  0  0  0  0  0  0  0  0  0  0  0
   -1.1820    3.5730    0.3930 H   0  0  0  0  0  0  0  0  0  0  0  0
    1.9220    3.4720    0.5960 H   0  0  0  0  0  0  0  0  0  0  0  0
    0.9090    4.4730   -0.4630 H   0  0  0  0  0  0  0  0  0  0  0  0
    0.2650    3.3080   -2.8250 H   0  0  0  0  0  0  0  0  0  0  0  0
    0.9040    1.0650   -3.9080 H   0  0  0  0  0  0  0  0  0  0  0  0
    2.1010   -1.2590   -3.0610 H   0  0  0  0  0  0  0  0  0  0  0  0
    3.1200   -2.3950   -1.1020 H   0  0  0  0  0  0  0  0  0  0  0  0
    3.2020   -1.1970    1.0730 H   0  0  0  0  0  0  0  0  0  0  0  0
    2.2710    1.1130    1.2530 H   0  0  0  0  0  0  0  0  0  0  0  0
   -0.9730    0.9570    1.1250 N   0  0  0  0  0  0  0  0  0  0  0  0
   -1.1600   -0.2610    1.9000 C   0  0  1  0  0  0  0  0  0  0  0  0
   -2.6150   -0.4000    2.3330 C   0  0  0  0  0  0  0  0  0  0  0  0
   -3.6350   -0.4620    0.8430 S   0  0  0  0  0  0  0  0  0  0  0  0
   -0.7580   -1.4030    1.0480 C   0  0  0  0  0  0  0  0  0  0  0  0
   -0.3950   -1.2630   -0.1490 O   0  0  0  0  0  0  0  0  0  0  0  0
   -1.2860    0.9220    0.1320 H   0  0  0  0  0  0  0  0  0  0  0  0
   -0.5840   -0.1520    2.8350 H   0  0  0  0  0  0  0  0  0  0  0  0
   -2.9370    0.4060    2.9830 H   0  0  0  0  0  0  0  0  0  0  0  0
   -2.7390   -1.3590    2.8720 H   0  0  0  0  0  0  0  0  0  0  0  0
   -4.4680   -1.5830    0.8010 H   0  0  0  0  0  0  0  0  0  0  0  0
   -0.7720   -2.7490    1.5800 N   0  0  0  0  0  0  0  0  0  0  0  0
   -0.3760   -3.8530    0.7270 C   0  0  1  0  0  0  0  0  0  0  0  0
    0.8060   -4.6230    1.2430 C   0  0  0  0  0  0  0  0  0  0  0  0
    0.4910   -5.1960    2.5590 C   0  0  0  0  0  0  0  0  0  0  0  0
   -0.6390   -5.0320    3.0590 O   0  0  0  0  0  0  0  0  0  0  0  0
   -1.5320   -4.7920    0.6580 C   0  0  0  0  0  0  0  0  0  0  0  0
   -1.4800   -5.8570   -0.0200 O   0  0  0  0  0  0  0  0  0  0  0  0
    1.4390   -5.9240    3.2600 O   0  0  0  0  0  0  0  0  0  0  0  0
   -2.7300   -4.5470    1.3380 O   0  0  0  0  0  0  0  0  0  0  0  0
   -1.0750   -2.8330    2.5680 H   0  0  0  0  0  0  0  0  0  0  0  0
   -0.1560   -3.4950   -0.3080 H   0  0  0  0  0  0  0  0  0  0  0  0
    1.7150   -3.9870    1.3220 H   0  0  0  0  0  0  0  0  0  0  0  0
    0.9740   -5.4890    0.5580 H   0  0  0  0  0  0  0  0  0  0  0  0
    1.4110   -5.8860    4.2890 H   0  0  0  0  0  0  0  0  0  0  0  0
  1 15  1  0  0  0  0
  2 17  1  6  0  0  0
  2 13  1  0  0  0  0
  2  1  1  0  0  0  0
  3 18  1  0  0  0  0
  3  2  1  0  0  0  0
  4 12  1  0  0  0  0
  4  3  1  0  0  0  0
  5  4  2  0  0  0  0
  6  5  1  0  0  0  0
  6  7  1  0  0  0  0
  7 12  1  0  0  0  0
  8  7  2  0  0  0  0
  8  9  1  0  0  0  0
  9 10  2  0  0  0  0
 10 11  1  0  0  0  0
 10 24  1  0  0  0  0
 11 25  1  0  0  0  0
 12 11  2  0  0  0  0
 13 14  2  0  0  0  0
 16  1  1  0  0  0  0
 19  3  1  0  0  0  0
 20  5  1  0  0  0  0
 21  6  1  0  0  0  0
 22  8  1  0  0  0  0
 23  9  1  0  0  0  0
 26 13  1  0  0  0  0
 26 27  1  0  0  0  0
 27 28  1  0  0  0  0
 27 33  1  1  0  0  0
 28 35  1  0  0  0  0
 28 34  1  0  0  0  0
 29 28  1  0  0  0  0
 30 37  1  0  0  0  0
 30 27  1  0  0  0  0
 31 30  2  0  0  0  0
 32 26  1  0  0  0  0
 36 29  1  0  0  0  0
 37 46  1  0  0  0  0
 38 47  1  6  0  0  0
 38 39  1  0  0  0  0
 38 37  1  0  0  0  0
 39 48  1  0  0  0  0
 39 40  1  0  0  0  0
 40 41  2  0  0  0  0
 40 44  1  0  0  0  0
 42 38  1  0  0  0  0
 42 45  1  0  0  0  0
 43 42  2  0  0  0  0
 44 50  1  0  0  0  0
 49 39  1  0  0  0  0
M  END
$$$$
