WCG.pdb
 OpenBabel07022419163D

 44 45  0  0  1  0  0  0  0  0999 V2000
    0.3470   -3.4290    1.5490 N   0  0  0  0  0  0  0  0  0  0  0  0
    1.4960   -2.6580    2.0520 C   0  0  1  0  0  0  0  0  0  0  0  0
    2.5460   -2.7140    0.9850 C   0  0  0  0  0  0  0  0  0  0  0  0
    2.0550   -2.1590   -0.3000 C   0  0  0  0  0  0  0  0  0  0  0  0
    1.3440   -2.8430   -1.2830 C   0  0  0  0  0  0  0  0  0  0  0  0
    0.9750   -2.0320   -2.2810 N   0  0  0  0  0  0  0  0  0  0  0  0
    1.4310   -0.8020   -1.9840 C   0  0  0  0  0  0  0  0  0  0  0  0
    1.3190    0.3670   -2.7020 C   0  0  0  0  0  0  0  0  0  0  0  0
    1.9000    1.5110   -2.1840 C   0  0  0  0  0  0  0  0  0  0  0  0
    2.5720    1.4660   -0.9760 C   0  0  0  0  0  0  0  0  0  0  0  0
    2.6700    0.2900   -0.2780 C   0  0  0  0  0  0  0  0  0  0  0  0
    2.1040   -0.8700   -0.7580 C   0  0  0  0  0  0  0  0  0  0  0  0
    1.1490   -1.3420    2.5020 C   0  0  0  0  0  0  0  0  0  0  0  0
    1.6970   -0.9130    3.5810 O   0  0  0  0  0  0  0  0  0  0  0  0
   -0.4220   -3.4790    2.2470 H   0  0  0  0  0  0  0  0  0  0  0  0
    0.6550   -4.3650    1.2090 H   0  0  0  0  0  0  0  0  0  0  0  0
    1.8400   -3.2780    2.9410 H   0  0  0  0  0  0  0  0  0  0  0  0
    3.3630   -2.0050    1.3100 H   0  0  0  0  0  0  0  0  0  0  0  0
    2.9580   -3.7360    0.8670 H   0  0  0  0  0  0  0  0  0  0  0  0
    1.1120   -3.8890   -1.2600 H   0  0  0  0  0  0  0  0  0  0  0  0
    0.4270   -2.3040   -3.1400 H   0  0  0  0  0  0  0  0  0  0  0  0
    0.7950    0.4180   -3.6490 H   0  0  0  0  0  0  0  0  0  0  0  0
    1.7960    2.4210   -2.7680 H   0  0  0  0  0  0  0  0  0  0  0  0
    3.0130    2.3880   -0.6090 H   0  0  0  0  0  0  0  0  0  0  0  0
    3.2180    0.2230    0.6620 H   0  0  0  0  0  0  0  0  0  0  0  0
    0.2580   -0.4310    1.9130 N   0  0  0  0  0  0  0  0  0  0  0  0
   -0.0860    0.8240    2.4520 C   0  0  1  0  0  0  0  0  0  0  0  0
    0.8120    1.9990    2.1940 C   0  0  0  0  0  0  0  0  0  0  0  0
    2.4270    1.7320    2.9060 S   0  0  0  0  0  0  0  0  0  0  0  0
   -1.5130    1.1690    2.3440 C   0  0  0  0  0  0  0  0  0  0  0  0
   -1.9250    2.2680    2.7770 O   0  0  0  0  0  0  0  0  0  0  0  0
   -0.1830   -0.7190    0.9840 H   0  0  0  0  0  0  0  0  0  0  0  0
    0.0590    0.6880    3.6090 H   0  0  0  0  0  0  0  0  0  0  0  0
    0.3330    2.8630    2.7460 H   0  0  0  0  0  0  0  0  0  0  0  0
    0.8170    2.3210    1.1390 H   0  0  0  0  0  0  0  0  0  0  0  0
    2.4900    2.2680    4.2110 H   0  0  0  0  0  0  0  0  0  0  0  0
   -2.4200    0.2640    1.7500 N   0  0  0  0  0  0  0  0  0  0  0  0
   -3.8450    0.5790    1.6270 C   0  0  0  0  0  0  0  0  0  0  0  0
   -4.5540   -0.5260    0.9600 C   0  0  0  0  0  0  0  0  0  0  0  0
   -5.7820   -0.4490    0.7660 O   0  0  0  0  0  0  0  0  0  0  0  0
   -3.8520   -1.6410    0.5530 O   0  0  0  0  0  0  0  0  0  0  0  0
   -2.1250   -0.6630    1.3800 H   0  0  0  0  0  0  0  0  0  0  0  0
   -4.2200    0.6040    2.6900 H   0  0  0  0  0  0  0  0  0  0  0  0
   -3.9990    1.5390    1.1110 H   0  0  0  0  0  0  0  0  0  0  0  0
  1  2  1  0  0  0  0
  1 15  1  0  0  0  0
  2 13  1  0  0  0  0
  2 17  1  1  0  0  0
  3 18  1  0  0  0  0
  3  2  1  0  0  0  0
  4  3  1  0  0  0  0
  5 20  1  0  0  0  0
  5  4  2  0  0  0  0
  6  7  1  0  0  0  0
  6  5  1  0  0  0  0
  7 12  1  0  0  0  0
  8  9  1  0  0  0  0
  8  7  2  0  0  0  0
  9 10  2  0  0  0  0
 10 24  1  0  0  0  0
 10 11  1  0  0  0  0
 11 25  1  0  0  0  0
 12  4  1  0  0  0  0
 12 11  2  0  0  0  0
 13 14  2  0  0  0  0
 16  1  1  0  0  0  0
 19  3  1  0  0  0  0
 21  6  1  0  0  0  0
 22  8  1  0  0  0  0
 23  9  1  0  0  0  0
 26 27  1  0  0  0  0
 26 13  1  0  0  0  0
 27 33  1  1  0  0  0
 28 27  1  0  0  0  0
 28 34  1  0  0  0  0
 28 29  1  0  0  0  0
 29 36  1  0  0  0  0
 30 27  1  0  0  0  0
 30 31  2  0  0  0  0
 32 26  1  0  0  0  0
 35 28  1  0  0  0  0
 37 30  1  0  0  0  0
 38 37  1  0  0  0  0
 38 43  1  0  0  0  0
 39 38  1  0  0  0  0
 40 39  1  0  0  0  0
 41 39  2  0  0  0  0
 42 37  1  0  0  0  0
 44 38  1  0  0  0  0
M  END
$$$$
