WCH.pdb
 OpenBabel07022419163D

 54 56  0  0  1  0  0  0  0  0999 V2000
    0.9210    2.3070    1.1600 N   0  0  0  0  0  0  0  0  0  0  0  0
    0.7910    0.9220    1.4940 C   0  0  1  0  0  0  0  0  0  0  0  0
    1.2920    0.5880    2.8780 C   0  0  0  0  0  0  0  0  0  0  0  0
    2.7130    0.9140    3.0320 C   0  0  0  0  0  0  0  0  0  0  0  0
    3.2110    2.0030    3.7090 C   0  0  0  0  0  0  0  0  0  0  0  0
    4.5630    1.9400    3.6170 N   0  0  0  0  0  0  0  0  0  0  0  0
    4.9110    0.8530    2.9080 C   0  0  0  0  0  0  0  0  0  0  0  0
    6.1450    0.3610    2.5470 C   0  0  0  0  0  0  0  0  0  0  0  0
    6.2760   -0.7790    1.8140 C   0  0  0  0  0  0  0  0  0  0  0  0
    5.1330   -1.4670    1.4180 C   0  0  0  0  0  0  0  0  0  0  0  0
    3.9120   -0.9560    1.7920 C   0  0  0  0  0  0  0  0  0  0  0  0
    3.7650    0.1970    2.5340 C   0  0  0  0  0  0  0  0  0  0  0  0
   -0.6500    0.5090    1.3370 C   0  0  0  0  0  0  0  0  0  0  0  0
   -1.5220    1.3330    0.9680 O   0  0  0  0  0  0  0  0  0  0  0  0
    1.9490    2.5350    1.1460 H   0  0  0  0  0  0  0  0  0  0  0  0
    0.5910    2.4260    0.1780 H   0  0  0  0  0  0  0  0  0  0  0  0
    1.3740    0.3330    0.7520 H   0  0  0  0  0  0  0  0  0  0  0  0
    0.6460    1.1650    3.5930 H   0  0  0  0  0  0  0  0  0  0  0  0
    1.1260   -0.4840    3.0480 H   0  0  0  0  0  0  0  0  0  0  0  0
    2.6600    2.7710    4.2210 H   0  0  0  0  0  0  0  0  0  0  0  0
    5.2000    2.6520    4.0470 H   0  0  0  0  0  0  0  0  0  0  0  0
    7.0190    0.8940    2.8540 H   0  0  0  0  0  0  0  0  0  0  0  0
    7.2470   -1.1940    1.5120 H   0  0  0  0  0  0  0  0  0  0  0  0
    5.1960   -2.3800    0.8330 H   0  0  0  0  0  0  0  0  0  0  0  0
    3.0330   -1.4880    1.4850 H   0  0  0  0  0  0  0  0  0  0  0  0
   -1.0720   -0.8290    1.6030 N   0  0  0  0  0  0  0  0  0  0  0  0
   -2.3930   -1.3340    1.4850 C   0  0  1  0  0  0  0  0  0  0  0  0
   -3.3700   -0.9370    2.5280 C   0  0  0  0  0  0  0  0  0  0  0  0
   -3.6760    0.8140    2.6830 S   0  0  0  0  0  0  0  0  0  0  0  0
   -2.9520   -1.2580    0.0790 C   0  0  0  0  0  0  0  0  0  0  0  0
   -4.1530   -1.5550   -0.1290 O   0  0  0  0  0  0  0  0  0  0  0  0
   -0.2630   -1.4570    1.9170 H   0  0  0  0  0  0  0  0  0  0  0  0
   -2.2890   -2.4740    1.6020 H   0  0  0  0  0  0  0  0  0  0  0  0
   -2.9880   -1.3170    3.5030 H   0  0  0  0  0  0  0  0  0  0  0  0
   -4.3250   -1.5190    2.3660 H   0  0  0  0  0  0  0  0  0  0  0  0
   -4.9800    1.0210    3.1880 H   0  0  0  0  0  0  0  0  0  0  0  0
   -2.1710   -0.8630   -1.0340 N   0  0  0  0  0  0  0  0  0  0  0  0
   -2.5570   -0.7560   -2.3930 C   0  0  1  0  0  0  0  0  0  0  0  0
   -3.4870   -1.8510   -2.9120 C   0  0  0  0  0  0  0  0  0  0  0  0
   -2.7650   -3.1390   -2.7810 C   0  0  0  0  0  0  0  0  0  0  0  0
   -2.7380   -4.0530   -1.7700 C   0  0  0  0  0  0  0  0  0  0  0  0
   -1.9330   -5.1040   -2.1100 N   0  0  0  0  0  0  0  0  0  0  0  0
   -1.4730   -4.8190   -3.3350 C   0  0  0  0  0  0  0  0  0  0  0  0
   -1.9520   -3.6520   -3.7630 N   0  0  0  0  0  0  0  0  0  0  0  0
   -3.1170    0.5510   -2.7760 C   0  0  0  0  0  0  0  0  0  0  0  0
   -3.2150    1.4510   -1.9100 O   0  0  0  0  0  0  0  0  0  0  0  0
   -3.5440    0.8280   -4.0580 O   0  0  0  0  0  0  0  0  0  0  0  0
   -1.1580   -0.6250   -0.8070 H   0  0  0  0  0  0  0  0  0  0  0  0
   -1.5800   -0.9710   -2.9840 H   0  0  0  0  0  0  0  0  0  0  0  0
   -3.6450   -1.5820   -3.9880 H   0  0  0  0  0  0  0  0  0  0  0  0
   -4.4130   -1.8170   -2.3350 H   0  0  0  0  0  0  0  0  0  0  0  0
   -3.2810   -3.9750   -0.8220 H   0  0  0  0  0  0  0  0  0  0  0  0
   -1.7360   -5.9460   -1.5110 H   0  0  0  0  0  0  0  0  0  0  0  0
   -0.7910   -5.5080   -3.8550 H   0  0  0  0  0  0  0  0  0  0  0  0
  1  2  1  0  0  0  0
  2 17  1  6  0  0  0
  2  3  1  0  0  0  0
  3  4  1  0  0  0  0
  3 19  1  0  0  0  0
  3 18  1  0  0  0  0
  4  5  2  0  0  0  0
  5 20  1  0  0  0  0
  6  5  1  0  0  0  0
  6 21  1  0  0  0  0
  7  6  1  0  0  0  0
  8 22  1  0  0  0  0
  8  7  1  0  0  0  0
  9  8  2  0  0  0  0
 10 11  2  0  0  0  0
 10  9  1  0  0  0  0
 11 12  1  0  0  0  0
 12  7  2  0  0  0  0
 12  4  1  0  0  0  0
 13  2  1  0  0  0  0
 13 26  1  0  0  0  0
 14 13  2  0  0  0  0
 15  1  1  0  0  0  0
 16  1  1  0  0  0  0
 23  9  1  0  0  0  0
 24 10  1  0  0  0  0
 25 11  1  0  0  0  0
 26 32  1  0  0  0  0
 27 33  1  1  0  0  0
 27 26  1  0  0  0  0
 27 28  1  0  0  0  0
 28 29  1  0  0  0  0
 28 34  1  0  0  0  0
 29 36  1  0  0  0  0
 30 27  1  0  0  0  0
 31 30  2  0  0  0  0
 35 28  1  0  0  0  0
 37 48  1  0  0  0  0
 37 30  1  0  0  0  0
 38 49  1  6  0  0  0
 38 37  1  0  0  0  0
 39 40  1  0  0  0  0
 39 38  1  0  0  0  0
 39 51  1  0  0  0  0
 40 41  2  0  0  0  0
 41 52  1  0  0  0  0
 42 41  1  0  0  0  0
 42 53  1  0  0  0  0
 43 42  1  0  0  0  0
 44 43  2  0  0  0  0
 44 40  1  0  0  0  0
 45 38  1  0  0  0  0
 45 46  1  0  0  0  0
 47 45  2  0  0  0  0
 50 39  1  0  0  0  0
 54 43  1  0  0  0  0
M  END
$$$$
