WCI.pdb
 OpenBabel07022419163D

 56 57  0  0  1  0  0  0  0  0999 V2000
    1.2170    4.0170    0.5040 N   0  0  0  0  0  0  0  0  0  0  0  0
    0.5650    2.7950    0.0480 C   0  0  1  0  0  0  0  0  0  0  0  0
    1.4360    2.0700   -0.9470 C   0  0  0  0  0  0  0  0  0  0  0  0
    2.7580    1.6940   -0.4570 C   0  0  0  0  0  0  0  0  0  0  0  0
    3.9070    2.4520   -0.7230 C   0  0  0  0  0  0  0  0  0  0  0  0
    4.9450    1.8660   -0.1170 N   0  0  0  0  0  0  0  0  0  0  0  0
    4.5250    0.7620    0.5310 C   0  0  0  0  0  0  0  0  0  0  0  0
    5.1930   -0.1720    1.2850 C   0  0  0  0  0  0  0  0  0  0  0  0
    4.4850   -1.2140    1.8230 C   0  0  0  0  0  0  0  0  0  0  0  0
    3.1310   -1.3510    1.6300 C   0  0  0  0  0  0  0  0  0  0  0  0
    2.4640   -0.4210    0.8800 C   0  0  0  0  0  0  0  0  0  0  0  0
    3.1480    0.6450    0.3220 C   0  0  0  0  0  0  0  0  0  0  0  0
    0.0500    1.9700    1.1380 C   0  0  0  0  0  0  0  0  0  0  0  0
    0.3930    2.0820    2.3430 O   0  0  0  0  0  0  0  0  0  0  0  0
    0.4510    4.6530    0.8260 H   0  0  0  0  0  0  0  0  0  0  0  0
    1.8850    3.8270    1.2850 H   0  0  0  0  0  0  0  0  0  0  0  0
   -0.3150    3.1680   -0.5680 H   0  0  0  0  0  0  0  0  0  0  0  0
    0.8380    1.1720   -1.2680 H   0  0  0  0  0  0  0  0  0  0  0  0
    1.4880    2.7340   -1.8460 H   0  0  0  0  0  0  0  0  0  0  0  0
    3.9880    3.3580   -1.3090 H   0  0  0  0  0  0  0  0  0  0  0  0
    5.9610    2.1730   -0.1090 H   0  0  0  0  0  0  0  0  0  0  0  0
    6.2690   -0.1130    1.4700 H   0  0  0  0  0  0  0  0  0  0  0  0
    4.9640   -1.9780    2.4260 H   0  0  0  0  0  0  0  0  0  0  0  0
    2.5800   -2.1950    2.0700 H   0  0  0  0  0  0  0  0  0  0  0  0
    1.3890   -0.5070    0.6950 H   0  0  0  0  0  0  0  0  0  0  0  0
   -0.9280    0.9430    0.8570 N   0  0  0  0  0  0  0  0  0  0  0  0
   -1.4420    0.1250    1.9410 C   0  0  1  0  0  0  0  0  0  0  0  0
   -2.8550    0.6430    2.3270 C   0  0  0  0  0  0  0  0  0  0  0  0
   -3.4530   -0.3920    3.6660 S   0  0  0  0  0  0  0  0  0  0  0  0
   -1.5460   -1.2950    1.6050 C   0  0  0  0  0  0  0  0  0  0  0  0
   -1.9440   -2.1200    2.4840 O   0  0  0  0  0  0  0  0  0  0  0  0
   -1.2790    0.7700   -0.1060 H   0  0  0  0  0  0  0  0  0  0  0  0
   -0.8490    0.3260    2.8550 H   0  0  0  0  0  0  0  0  0  0  0  0
   -3.5150    0.6530    1.4490 H   0  0  0  0  0  0  0  0  0  0  0  0
   -2.6830    1.6610    2.7110 H   0  0  0  0  0  0  0  0  0  0  0  0
   -4.8320   -0.5340    3.7000 H   0  0  0  0  0  0  0  0  0  0  0  0
   -4.7420   -3.5290   -1.6880 C   0  0  0  0  0  0  0  0  0  0  0  0
   -3.7770   -3.1090   -0.6040 C   0  0  0  0  0  0  0  0  0  0  0  0
   -2.3800   -3.6150   -0.9800 C   0  0  2  0  0  0  0  0  0  0  0  0
   -2.5040   -5.1230   -1.0740 C   0  0  0  0  0  0  0  0  0  0  0  0
   -1.3740   -3.2790    0.0990 C   0  0  2  0  0  0  0  0  0  0  0  0
   -1.2410   -1.8850    0.3480 N   0  0  0  0  0  0  0  0  0  0  0  0
   -0.0750   -3.8310   -0.3270 C   0  0  0  0  0  0  0  0  0  0  0  0
    0.1070   -5.0450   -0.6040 O   0  0  0  0  0  0  0  0  0  0  0  0
    1.0120   -2.9860   -0.4320 O   0  0  0  0  0  0  0  0  0  0  0  0
   -5.3380   -4.4210   -1.4170 H   0  0  0  0  0  0  0  0  0  0  0  0
   -4.2270   -3.6470   -2.6780 H   0  0  0  0  0  0  0  0  0  0  0  0
   -5.4750   -2.7000   -1.8290 H   0  0  0  0  0  0  0  0  0  0  0  0
   -3.7890   -2.0280   -0.4110 H   0  0  0  0  0  0  0  0  0  0  0  0
   -4.1190   -3.6060    0.3360 H   0  0  0  0  0  0  0  0  0  0  0  0
   -2.0850   -3.2410   -1.9590 H   0  0  0  0  0  0  0  0  0  0  0  0
   -3.5560   -5.4390   -1.2170 H   0  0  0  0  0  0  0  0  0  0  0  0
   -2.1920   -5.5410   -0.0950 H   0  0  0  0  0  0  0  0  0  0  0  0
   -1.8220   -5.5510   -1.8300 H   0  0  0  0  0  0  0  0  0  0  0  0
   -1.6660   -3.7710    1.0540 H   0  0  0  0  0  0  0  0  0  0  0  0
   -0.9070   -1.2460   -0.4080 H   0  0  0  0  0  0  0  0  0  0  0  0
  1 15  1  0  0  0  0
  1 16  1  0  0  0  0
  2 17  1  6  0  0  0
  2  1  1  0  0  0  0
  2 13  1  0  0  0  0
  3  4  1  0  0  0  0
  3  2  1  0  0  0  0
  4 12  1  0  0  0  0
  5  4  2  0  0  0  0
  5  6  1  0  0  0  0
  6 21  1  0  0  0  0
  6  7  1  0  0  0  0
  7  8  1  0  0  0  0
  8 22  1  0  0  0  0
  8  9  2  0  0  0  0
  9 23  1  0  0  0  0
 10  9  1  0  0  0  0
 10 24  1  0  0  0  0
 11 10  2  0  0  0  0
 12  7  2  0  0  0  0
 12 11  1  0  0  0  0
 13 14  2  0  0  0  0
 18  3  1  0  0  0  0
 19  3  1  0  0  0  0
 20  5  1  0  0  0  0
 25 11  1  0  0  0  0
 26 13  1  0  0  0  0
 26 27  1  0  0  0  0
 27 28  1  0  0  0  0
 27 33  1  1  0  0  0
 28 35  1  0  0  0  0
 28 29  1  0  0  0  0
 29 36  1  0  0  0  0
 30 27  1  0  0  0  0
 30 31  2  0  0  0  0
 32 26  1  0  0  0  0
 34 28  1  0  0  0  0
 37 46  1  0  0  0  0
 37 38  1  0  0  0  0
 38 49  1  0  0  0  0
 38 50  1  0  0  0  0
 39 51  1  6  0  0  0
 39 38  1  0  0  0  0
 39 41  1  0  0  0  0
 40 39  1  0  0  0  0
 40 53  1  0  0  0  0
 41 42  1  0  0  0  0
 41 55  1  1  0  0  0
 42 30  1  0  0  0  0
 43 41  1  0  0  0  0
 44 43  2  0  0  0  0
 45 43  1  0  0  0  0
 47 37  1  0  0  0  0
 48 37  1  0  0  0  0
 52 40  1  0  0  0  0
 54 40  1  0  0  0  0
 56 42  1  0  0  0  0
M  END
$$$$
