WCK.pdb
 OpenBabel07022419163D

 58 59  0  0  1  0  0  0  0  0999 V2000
    1.7010    1.8620   -1.5080 N   0  0  0  0  0  0  0  0  0  0  0  0
    2.1190    1.6910   -0.1520 C   0  0  1  0  0  0  0  0  0  0  0  0
    2.2480    3.0050    0.5600 C   0  0  0  0  0  0  0  0  0  0  0  0
    2.6850    2.8460    1.9700 C   0  0  0  0  0  0  0  0  0  0  0  0
    1.9260    2.9360    3.1380 C   0  0  0  0  0  0  0  0  0  0  0  0
    2.7240    2.7190    4.1980 N   0  0  0  0  0  0  0  0  0  0  0  0
    3.9920    2.4870    3.7890 C   0  0  0  0  0  0  0  0  0  0  0  0
    5.1310    2.2200    4.5210 C   0  0  0  0  0  0  0  0  0  0  0  0
    6.3040    2.0230    3.8280 C   0  0  0  0  0  0  0  0  0  0  0  0
    6.3280    2.0920    2.4450 C   0  0  0  0  0  0  0  0  0  0  0  0
    5.1690    2.3600    1.7480 C   0  0  0  0  0  0  0  0  0  0  0  0
    3.9670    2.5640    2.4140 C   0  0  0  0  0  0  0  0  0  0  0  0
    1.1870    0.8040    0.6160 C   0  0  0  0  0  0  0  0  0  0  0  0
    1.4010    0.5710    1.8250 O   0  0  0  0  0  0  0  0  0  0  0  0
    0.7800    2.3680   -1.5210 H   0  0  0  0  0  0  0  0  0  0  0  0
    1.6040    0.8980   -1.9240 H   0  0  0  0  0  0  0  0  0  0  0  0
    3.1530    1.2370   -0.1910 H   0  0  0  0  0  0  0  0  0  0  0  0
    3.0100    3.6240    0.0030 H   0  0  0  0  0  0  0  0  0  0  0  0
    1.2940    3.5710    0.5420 H   0  0  0  0  0  0  0  0  0  0  0  0
    0.8740    3.1470    3.1200 H   0  0  0  0  0  0  0  0  0  0  0  0
    2.3840    2.7350    5.1790 H   0  0  0  0  0  0  0  0  0  0  0  0
    5.1700    2.1540    5.5970 H   0  0  0  0  0  0  0  0  0  0  0  0
    7.2490    1.8050    4.3480 H   0  0  0  0  0  0  0  0  0  0  0  0
    7.2530    1.9360    1.9180 H   0  0  0  0  0  0  0  0  0  0  0  0
    5.1400    2.4230    0.6670 H   0  0  0  0  0  0  0  0  0  0  0  0
    0.0530    0.2040    0.0250 N   0  0  0  0  0  0  0  0  0  0  0  0
   -0.8860   -0.6590    0.7090 C   0  0  1  0  0  0  0  0  0  0  0  0
   -2.2460   -0.0320    0.5830 C   0  0  0  0  0  0  0  0  0  0  0  0
   -2.7310    0.1770   -1.1340 S   0  0  0  0  0  0  0  0  0  0  0  0
   -0.8820   -1.9810    0.0470 C   0  0  0  0  0  0  0  0  0  0  0  0
   -0.1910   -2.1500   -0.9580 O   0  0  0  0  0  0  0  0  0  0  0  0
   -0.1290    0.3940   -0.9840 H   0  0  0  0  0  0  0  0  0  0  0  0
   -0.6190   -0.7440    1.7890 H   0  0  0  0  0  0  0  0  0  0  0  0
   -2.3210    0.9360    1.1130 H   0  0  0  0  0  0  0  0  0  0  0  0
   -3.0200   -0.7120    1.0470 H   0  0  0  0  0  0  0  0  0  0  0  0
   -2.2170    1.3400   -1.7170 H   0  0  0  0  0  0  0  0  0  0  0  0
   -1.6250   -3.0910    0.4990 N   0  0  0  0  0  0  0  0  0  0  0  0
   -1.6800   -4.3680    0.0020 C   0  0  1  0  0  0  0  0  0  0  0  0
   -2.5500   -4.9220   -1.0010 C   0  0  0  0  0  0  0  0  0  0  0  0
   -4.0260   -4.8870   -0.7290 C   0  0  0  0  0  0  0  0  0  0  0  0
   -4.6360   -3.5390   -0.5970 C   0  0  0  0  0  0  0  0  0  0  0  0
   -4.4980   -2.7070   -1.8520 C   0  0  0  0  0  0  0  0  0  0  0  0
   -5.1530   -3.3570   -2.9710 N   0  0  0  0  0  0  0  0  0  0  0  0
   -0.2580   -4.8510   -0.2740 C   0  0  0  0  0  0  0  0  0  0  0  0
    0.6930   -4.1710    0.0840 O   0  0  0  0  0  0  0  0  0  0  0  0
   -0.0450   -6.0530   -0.9250 O   0  0  0  0  0  0  0  0  0  0  0  0
   -2.2280   -2.8630    1.3670 H   0  0  0  0  0  0  0  0  0  0  0  0
   -1.8710   -5.0430    0.9580 H   0  0  0  0  0  0  0  0  0  0  0  0
   -2.3110   -6.0360   -1.0570 H   0  0  0  0  0  0  0  0  0  0  0  0
   -2.3640   -4.6300   -2.0620 H   0  0  0  0  0  0  0  0  0  0  0  0
   -4.2880   -5.4540    0.2120 H   0  0  0  0  0  0  0  0  0  0  0  0
   -4.6140   -5.4250   -1.5160 H   0  0  0  0  0  0  0  0  0  0  0  0
   -4.3230   -2.9750    0.2750 H   0  0  0  0  0  0  0  0  0  0  0  0
   -5.7480   -3.7120   -0.4800 H   0  0  0  0  0  0  0  0  0  0  0  0
   -3.4540   -2.5230   -2.1270 H   0  0  0  0  0  0  0  0  0  0  0  0
   -5.0130   -1.7490   -1.6760 H   0  0  0  0  0  0  0  0  0  0  0  0
   -4.6740   -4.2490   -3.1920 H   0  0  0  0  0  0  0  0  0  0  0  0
   -5.0690   -2.7000   -3.7980 H   0  0  0  0  0  0  0  0  0  0  0  0
  1  2  1  0  0  0  0
  2 17  1  6  0  0  0
  2  3  1  0  0  0  0
  2 13  1  0  0  0  0
  3  4  1  0  0  0  0
  4 12  1  0  0  0  0
  4  5  2  0  0  0  0
  5  6  1  0  0  0  0
  6 21  1  0  0  0  0
  7  6  1  0  0  0  0
  7  8  1  0  0  0  0
  8 22  1  0  0  0  0
  9 23  1  0  0  0  0
  9  8  2  0  0  0  0
 10  9  1  0  0  0  0
 11 12  1  0  0  0  0
 11 10  2  0  0  0  0
 12  7  2  0  0  0  0
 13 14  2  0  0  0  0
 15  1  1  0  0  0  0
 16  1  1  0  0  0  0
 18  3  1  0  0  0  0
 19  3  1  0  0  0  0
 20  5  1  0  0  0  0
 24 10  1  0  0  0  0
 25 11  1  0  0  0  0
 26 13  1  0  0  0  0
 26 27  1  0  0  0  0
 27 33  1  1  0  0  0
 28 27  1  0  0  0  0
 28 35  1  0  0  0  0
 28 34  1  0  0  0  0
 29 28  1  0  0  0  0
 30 37  1  0  0  0  0
 30 27  1  0  0  0  0
 31 30  2  0  0  0  0
 32 26  1  0  0  0  0
 36 29  1  0  0  0  0
 37 47  1  0  0  0  0
 38 37  1  0  0  0  0
 38 48  1  1  0  0  0
 39 40  1  0  0  0  0
 39 38  1  0  0  0  0
 40 41  1  0  0  0  0
 40 51  1  0  0  0  0
 41 54  1  0  0  0  0
 41 53  1  0  0  0  0
 42 56  1  0  0  0  0
 42 41  1  0  0  0  0
 43 42  1  0  0  0  0
 44 38  1  0  0  0  0
 44 45  1  0  0  0  0
 46 44  2  0  0  0  0
 49 39  1  0  0  0  0
 50 39  1  0  0  0  0
 52 40  1  0  0  0  0
 55 42  1  0  0  0  0
 57 43  1  0  0  0  0
 58 43  1  0  0  0  0
M  END
$$$$
