WCL.pdb
 OpenBabel07022419163D

 56 57  0  0  1  0  0  0  0  0999 V2000
    0.5660    0.8710   -1.4960 N   0  0  0  0  0  0  0  0  0  0  0  0
    1.5590    0.5300   -0.4950 C   0  0  1  0  0  0  0  0  0  0  0  0
    2.4790    1.7000   -0.3370 C   0  0  0  0  0  0  0  0  0  0  0  0
    3.5410    1.5000    0.6480 C   0  0  0  0  0  0  0  0  0  0  0  0
    3.6120    2.0200    1.9200 C   0  0  0  0  0  0  0  0  0  0  0  0
    4.7470    1.5970    2.5000 N   0  0  0  0  0  0  0  0  0  0  0  0
    5.3980    0.8140    1.6120 C   0  0  0  0  0  0  0  0  0  0  0  0
    6.6100    0.1150    1.6750 C   0  0  0  0  0  0  0  0  0  0  0  0
    7.0360   -0.6200    0.5900 C   0  0  0  0  0  0  0  0  0  0  0  0
    6.3060   -0.6970   -0.5720 C   0  0  0  0  0  0  0  0  0  0  0  0
    5.1090   -0.0110   -0.6440 C   0  0  0  0  0  0  0  0  0  0  0  0
    4.6710    0.7320    0.4440 C   0  0  0  0  0  0  0  0  0  0  0  0
    0.8980    0.1610    0.7920 C   0  0  0  0  0  0  0  0  0  0  0  0
    1.5590   -0.1630    1.8110 O   0  0  0  0  0  0  0  0  0  0  0  0
    0.0620    0.0460   -1.8710 H   0  0  0  0  0  0  0  0  0  0  0  0
   -0.0400    1.6640   -1.2340 H   0  0  0  0  0  0  0  0  0  0  0  0
    2.1130   -0.3550   -0.9200 H   0  0  0  0  0  0  0  0  0  0  0  0
    2.8630    1.9750   -1.3440 H   0  0  0  0  0  0  0  0  0  0  0  0
    1.8690    2.5710   -0.0100 H   0  0  0  0  0  0  0  0  0  0  0  0
    2.8970    2.6730    2.4280 H   0  0  0  0  0  0  0  0  0  0  0  0
    5.1160    1.7990    3.4560 H   0  0  0  0  0  0  0  0  0  0  0  0
    7.1950    0.1560    2.5610 H   0  0  0  0  0  0  0  0  0  0  0  0
    7.9780   -1.1650    0.6330 H   0  0  0  0  0  0  0  0  0  0  0  0
    6.5960   -1.2560   -1.4420 H   0  0  0  0  0  0  0  0  0  0  0  0
    4.4780   -0.0170   -1.5110 H   0  0  0  0  0  0  0  0  0  0  0  0
   -0.5110    0.1660    0.8990 N   0  0  0  0  0  0  0  0  0  0  0  0
   -1.2470   -0.1710    2.0870 C   0  0  1  0  0  0  0  0  0  0  0  0
   -2.1370    0.9480    2.5590 C   0  0  0  0  0  0  0  0  0  0  0  0
   -3.3630    1.4180    1.3250 S   0  0  0  0  0  0  0  0  0  0  0  0
   -2.0210   -1.4100    1.8200 C   0  0  0  0  0  0  0  0  0  0  0  0
   -2.7620   -1.9250    2.7040 O   0  0  0  0  0  0  0  0  0  0  0  0
   -1.0570    0.4390    0.0400 H   0  0  0  0  0  0  0  0  0  0  0  0
   -0.5660   -0.4340    2.9400 H   0  0  0  0  0  0  0  0  0  0  0  0
   -1.4940    1.7960    2.8500 H   0  0  0  0  0  0  0  0  0  0  0  0
   -2.6900    0.6190    3.4630 H   0  0  0  0  0  0  0  0  0  0  0  0
   -4.6610    1.0290    1.6570 H   0  0  0  0  0  0  0  0  0  0  0  0
   -5.4570   -2.4060    0.2960 C   0  0  0  0  0  0  0  0  0  0  0  0
   -4.5660   -2.0190   -0.8640 C   0  0  0  0  0  0  0  0  0  0  0  0
   -5.3670   -1.8930   -2.1390 C   0  0  0  0  0  0  0  0  0  0  0  0
   -3.5140   -3.0980   -1.0290 C   0  0  0  0  0  0  0  0  0  0  0  0
   -2.6620   -3.2560    0.2060 C   0  0  2  0  0  0  0  0  0  0  0  0
   -1.9480   -2.0510    0.5580 N   0  0  0  0  0  0  0  0  0  0  0  0
   -1.6750   -4.3400   -0.1040 C   0  0  0  0  0  0  0  0  0  0  0  0
   -0.4360   -4.1420   -0.0390 O   0  0  0  0  0  0  0  0  0  0  0  0
   -2.1170   -5.5990   -0.4730 O   0  0  0  0  0  0  0  0  0  0  0  0
   -6.5290   -2.3650   -0.0190 H   0  0  0  0  0  0  0  0  0  0  0  0
   -5.2470   -3.4580    0.6230 H   0  0  0  0  0  0  0  0  0  0  0  0
   -5.3070   -1.7430    1.1780 H   0  0  0  0  0  0  0  0  0  0  0  0
   -4.0620   -1.0490   -0.6790 H   0  0  0  0  0  0  0  0  0  0  0  0
   -4.7110   -1.8410   -3.0170 H   0  0  0  0  0  0  0  0  0  0  0  0
   -6.0220   -1.0080   -2.1170 H   0  0  0  0  0  0  0  0  0  0  0  0
   -6.0080   -2.7940   -2.2400 H   0  0  0  0  0  0  0  0  0  0  0  0
   -4.0020   -4.0890   -1.1960 H   0  0  0  0  0  0  0  0  0  0  0  0
   -2.9110   -2.9050   -1.9300 H   0  0  0  0  0  0  0  0  0  0  0  0
   -3.2650   -3.5800    1.0690 H   0  0  0  0  0  0  0  0  0  0  0  0
   -1.3360   -1.6380   -0.1970 H   0  0  0  0  0  0  0  0  0  0  0  0
  1 16  1  0  0  0  0
  1  2  1  0  0  0  0
  2 17  1  6  0  0  0
  2  3  1  0  0  0  0
  2 13  1  0  0  0  0
  3 19  1  0  0  0  0
  3  4  1  0  0  0  0
  4  5  2  0  0  0  0
  5 20  1  0  0  0  0
  5  6  1  0  0  0  0
  6 21  1  0  0  0  0
  7  8  1  0  0  0  0
  7  6  1  0  0  0  0
  8 22  1  0  0  0  0
  9 23  1  0  0  0  0
  9  8  2  0  0  0  0
 10  9  1  0  0  0  0
 11 10  2  0  0  0  0
 11 12  1  0  0  0  0
 12  4  1  0  0  0  0
 12  7  2  0  0  0  0
 13 26  1  0  0  0  0
 13 14  2  0  0  0  0
 15  1  1  0  0  0  0
 18  3  1  0  0  0  0
 24 10  1  0  0  0  0
 25 11  1  0  0  0  0
 26 27  1  0  0  0  0
 27 28  1  0  0  0  0
 27 33  1  1  0  0  0
 28 34  1  0  0  0  0
 28 35  1  0  0  0  0
 29 36  1  0  0  0  0
 29 28  1  0  0  0  0
 30 27  1  0  0  0  0
 30 31  2  0  0  0  0
 32 26  1  0  0  0  0
 37 47  1  0  0  0  0
 37 48  1  0  0  0  0
 38 49  1  0  0  0  0
 38 37  1  0  0  0  0
 39 51  1  0  0  0  0
 39 38  1  0  0  0  0
 40 38  1  0  0  0  0
 40 41  1  0  0  0  0
 41 42  1  0  0  0  0
 41 55  1  1  0  0  0
 42 30  1  0  0  0  0
 43 44  1  0  0  0  0
 43 41  1  0  0  0  0
 45 43  2  0  0  0  0
 46 37  1  0  0  0  0
 50 39  1  0  0  0  0
 52 39  1  0  0  0  0
 53 40  1  0  0  0  0
 54 40  1  0  0  0  0
 56 42  1  0  0  0  0
M  END
$$$$
