WCM.pdb
 OpenBabel07022419163D

 54 55  0  0  1  0  0  0  0  0999 V2000
    0.2910    4.2570    0.2010 N   0  0  0  0  0  0  0  0  0  0  0  0
    0.6610    2.8210   -0.0260 C   0  0  1  0  0  0  0  0  0  0  0  0
    2.1260    2.6910    0.0860 C   0  0  0  0  0  0  0  0  0  0  0  0
    2.7520    1.3890   -0.0750 C   0  0  0  0  0  0  0  0  0  0  0  0
    3.3150    0.8650   -1.2520 C   0  0  0  0  0  0  0  0  0  0  0  0
    3.7770   -0.3440   -0.9880 N   0  0  0  0  0  0  0  0  0  0  0  0
    3.5720   -0.6890    0.2900 C   0  0  0  0  0  0  0  0  0  0  0  0
    3.8610   -1.7850    1.0680 C   0  0  0  0  0  0  0  0  0  0  0  0
    3.5290   -1.8320    2.4040 C   0  0  0  0  0  0  0  0  0  0  0  0
    2.8880   -0.7560    2.9870 C   0  0  0  0  0  0  0  0  0  0  0  0
    2.6090    0.3300    2.1880 C   0  0  0  0  0  0  0  0  0  0  0  0
    2.9210    0.4130    0.8660 C   0  0  0  0  0  0  0  0  0  0  0  0
   -0.0700    2.0790    1.0020 C   0  0  0  0  0  0  0  0  0  0  0  0
   -0.1750    2.4980    2.1940 O   0  0  0  0  0  0  0  0  0  0  0  0
    0.6210    4.7670   -0.6550 H   0  0  0  0  0  0  0  0  0  0  0  0
   -0.7550    4.2720    0.1510 H   0  0  0  0  0  0  0  0  0  0  0  0
    0.3120    2.6280   -1.0560 H   0  0  0  0  0  0  0  0  0  0  0  0
    2.5240    3.2280    1.0190 H   0  0  0  0  0  0  0  0  0  0  0  0
    2.5600    3.3650   -0.7320 H   0  0  0  0  0  0  0  0  0  0  0  0
    3.3280    1.4170   -2.1740 H   0  0  0  0  0  0  0  0  0  0  0  0
    4.2600   -1.0080   -1.6640 H   0  0  0  0  0  0  0  0  0  0  0  0
    4.3610   -2.6400    0.6410 H   0  0  0  0  0  0  0  0  0  0  0  0
    3.7730   -2.7230    3.0040 H   0  0  0  0  0  0  0  0  0  0  0  0
    2.6120   -0.7560    4.0310 H   0  0  0  0  0  0  0  0  0  0  0  0
    2.1170    1.1610    2.6600 H   0  0  0  0  0  0  0  0  0  0  0  0
   -0.7430    0.8100    0.7350 N   0  0  0  0  0  0  0  0  0  0  0  0
   -1.4540    0.1240    1.7620 C   0  0  1  0  0  0  0  0  0  0  0  0
   -2.8400    0.8000    1.9650 C   0  0  0  0  0  0  0  0  0  0  0  0
   -3.7670    0.7340    0.4170 S   0  0  0  0  0  0  0  0  0  0  0  0
   -1.6080   -1.2960    1.5250 C   0  0  0  0  0  0  0  0  0  0  0  0
   -2.2080   -2.0470    2.3690 O   0  0  0  0  0  0  0  0  0  0  0  0
   -0.6320    0.5160   -0.2570 H   0  0  0  0  0  0  0  0  0  0  0  0
   -0.9960    0.2870    2.7830 H   0  0  0  0  0  0  0  0  0  0  0  0
   -2.7030    1.8310    2.3480 H   0  0  0  0  0  0  0  0  0  0  0  0
   -3.4110    0.2440    2.7370 H   0  0  0  0  0  0  0  0  0  0  0  0
   -5.1380    0.9020    0.6670 H   0  0  0  0  0  0  0  0  0  0  0  0
   -4.5690   -3.1610    0.1750 C   0  0  0  0  0  0  0  0  0  0  0  0
   -4.1610   -3.7070   -1.4690 S   0  0  0  0  0  0  0  0  0  0  0  0
   -2.5950   -3.0930   -2.0810 C   0  0  0  0  0  0  0  0  0  0  0  0
   -1.4360   -3.6660   -1.3610 C   0  0  0  0  0  0  0  0  0  0  0  0
   -1.2790   -3.3530    0.0910 C   0  0  2  0  0  0  0  0  0  0  0  0
   -1.1120   -1.9210    0.3580 N   0  0  0  0  0  0  0  0  0  0  0  0
   -0.0060   -4.0710    0.5130 C   0  0  0  0  0  0  0  0  0  0  0  0
    0.0860   -5.3150    0.3630 O   0  0  0  0  0  0  0  0  0  0  0  0
    1.0590   -3.3950    1.0620 O   0  0  0  0  0  0  0  0  0  0  0  0
   -5.6740   -2.9710    0.2410 H   0  0  0  0  0  0  0  0  0  0  0  0
   -4.3960   -3.9340    0.9680 H   0  0  0  0  0  0  0  0  0  0  0  0
   -4.0900   -2.2120    0.4330 H   0  0  0  0  0  0  0  0  0  0  0  0
   -2.5890   -1.9670   -2.0900 H   0  0  0  0  0  0  0  0  0  0  0  0
   -2.5120   -3.4230   -3.1470 H   0  0  0  0  0  0  0  0  0  0  0  0
   -1.5610   -4.8000   -1.4020 H   0  0  0  0  0  0  0  0  0  0  0  0
   -0.4680   -3.4240   -1.8750 H   0  0  0  0  0  0  0  0  0  0  0  0
   -2.0650   -3.7600    0.7480 H   0  0  0  0  0  0  0  0  0  0  0  0
   -0.5870   -1.4210   -0.4040 H   0  0  0  0  0  0  0  0  0  0  0  0
  2 17  1  6  0  0  0
  2  3  1  0  0  0  0
  2  1  1  0  0  0  0
  2 13  1  0  0  0  0
  3 18  1  0  0  0  0
  4  3  1  0  0  0  0
  4 12  1  0  0  0  0
  5  6  1  0  0  0  0
  5  4  2  0  0  0  0
  6  7  1  0  0  0  0
  7 12  2  0  0  0  0
  7  8  1  0  0  0  0
  8  9  2  0  0  0  0
  9 10  1  0  0  0  0
  9 23  1  0  0  0  0
 10 24  1  0  0  0  0
 11 25  1  0  0  0  0
 11 10  2  0  0  0  0
 12 11  1  0  0  0  0
 13 14  2  0  0  0  0
 15  1  1  0  0  0  0
 16  1  1  0  0  0  0
 19  3  1  0  0  0  0
 20  5  1  0  0  0  0
 21  6  1  0  0  0  0
 22  8  1  0  0  0  0
 26 13  1  0  0  0  0
 26 27  1  0  0  0  0
 27 28  1  0  0  0  0
 27 33  1  1  0  0  0
 28 34  1  0  0  0  0
 28 35  1  0  0  0  0
 29 36  1  0  0  0  0
 29 28  1  0  0  0  0
 30 27  1  0  0  0  0
 30 31  2  0  0  0  0
 32 26  1  0  0  0  0
 37 46  1  0  0  0  0
 37 48  1  0  0  0  0
 37 47  1  0  0  0  0
 38 37  1  0  0  0  0
 39 38  1  0  0  0  0
 39 40  1  0  0  0  0
 40 41  1  0  0  0  0
 41 42  1  0  0  0  0
 41 43  1  0  0  0  0
 41 53  1  1  0  0  0
 42 30  1  0  0  0  0
 43 45  1  0  0  0  0
 44 43  2  0  0  0  0
 49 39  1  0  0  0  0
 50 39  1  0  0  0  0
 51 40  1  0  0  0  0
 52 40  1  0  0  0  0
 54 42  1  0  0  0  0
M  END
$$$$
