WCN.pdb
 OpenBabel07022419163D

 51 52  0  0  1  0  0  0  0  0999 V2000
    1.4120    3.8610    0.2560 N   0  0  0  0  0  0  0  0  0  0  0  0
    0.9530    2.7160   -0.4720 C   0  0  1  0  0  0  0  0  0  0  0  0
    2.0430    1.9640   -1.1550 C   0  0  0  0  0  0  0  0  0  0  0  0
    3.1300    1.4560   -0.3480 C   0  0  0  0  0  0  0  0  0  0  0  0
    4.4060    2.0460   -0.3260 C   0  0  0  0  0  0  0  0  0  0  0  0
    5.1720    1.3370    0.4970 N   0  0  0  0  0  0  0  0  0  0  0  0
    4.4750    0.3010    1.0290 C   0  0  0  0  0  0  0  0  0  0  0  0
    4.8600   -0.6770    1.9140 C   0  0  0  0  0  0  0  0  0  0  0  0
    3.9280   -1.6210    2.2860 C   0  0  0  0  0  0  0  0  0  0  0  0
    2.6500   -1.5740    1.7780 C   0  0  0  0  0  0  0  0  0  0  0  0
    2.3010   -0.5870    0.8990 C   0  0  0  0  0  0  0  0  0  0  0  0
    3.2130    0.3820    0.5010 C   0  0  0  0  0  0  0  0  0  0  0  0
   -0.0330    1.9610    0.2820 C   0  0  0  0  0  0  0  0  0  0  0  0
   -0.2810    2.0740    1.5050 O   0  0  0  0  0  0  0  0  0  0  0  0
    0.5580    4.4410    0.5020 H   0  0  0  0  0  0  0  0  0  0  0  0
    2.0560    4.4340   -0.3120 H   0  0  0  0  0  0  0  0  0  0  0  0
    0.3460    3.1900   -1.3470 H   0  0  0  0  0  0  0  0  0  0  0  0
    1.6240    1.0770   -1.7260 H   0  0  0  0  0  0  0  0  0  0  0  0
    2.4140    2.6360   -1.9900 H   0  0  0  0  0  0  0  0  0  0  0  0
    4.7190    2.9210   -0.8750 H   0  0  0  0  0  0  0  0  0  0  0  0
    6.1930    1.5320    0.7250 H   0  0  0  0  0  0  0  0  0  0  0  0
    5.8880   -0.7050    2.3140 H   0  0  0  0  0  0  0  0  0  0  0  0
    4.2280   -2.4100    2.9920 H   0  0  0  0  0  0  0  0  0  0  0  0
    1.9370   -2.3460    2.1000 H   0  0  0  0  0  0  0  0  0  0  0  0
    1.3090   -0.5410    0.4980 H   0  0  0  0  0  0  0  0  0  0  0  0
   -0.8300    0.9760   -0.4240 N   0  0  0  0  0  0  0  0  0  0  0  0
   -1.8520    0.1840    0.2590 C   0  0  1  0  0  0  0  0  0  0  0  0
   -3.1910    0.7290   -0.1370 C   0  0  0  0  0  0  0  0  0  0  0  0
   -4.5490   -0.1690    0.6440 S   0  0  0  0  0  0  0  0  0  0  0  0
   -1.6360   -1.2160   -0.0030 C   0  0  0  0  0  0  0  0  0  0  0  0
   -0.7310   -1.5500   -0.8290 O   0  0  0  0  0  0  0  0  0  0  0  0
   -0.6840    0.8170   -1.4310 H   0  0  0  0  0  0  0  0  0  0  0  0
   -1.7520    0.3840    1.3450 H   0  0  0  0  0  0  0  0  0  0  0  0
   -3.2530    1.7750    0.2840 H   0  0  0  0  0  0  0  0  0  0  0  0
   -3.3510    0.8230   -1.2060 H   0  0  0  0  0  0  0  0  0  0  0  0
   -4.4010   -0.2150    2.0260 H   0  0  0  0  0  0  0  0  0  0  0  0
   -3.0600   -4.0840    3.6710 N   0  0  0  0  0  0  0  0  0  0  0  0
   -3.0370   -4.4590    2.3030 C   0  0  0  0  0  0  0  0  0  0  0  0
   -4.0840   -4.8040    1.6930 O   0  0  0  0  0  0  0  0  0  0  0  0
   -1.7790   -4.4710    1.4860 C   0  0  0  0  0  0  0  0  0  0  0  0
   -2.0000   -3.6640    0.2190 C   0  0  2  0  0  0  0  0  0  0  0  0
   -2.3390   -2.2970    0.5740 N   0  0  0  0  0  0  0  0  0  0  0  0
   -3.0580   -4.3210   -0.6010 C   0  0  0  0  0  0  0  0  0  0  0  0
   -2.8780   -5.5070   -0.9630 O   0  0  0  0  0  0  0  0  0  0  0  0
   -4.2250   -3.6850   -0.9800 O   0  0  0  0  0  0  0  0  0  0  0  0
   -3.5910   -3.2290    3.9490 H   0  0  0  0  0  0  0  0  0  0  0  0
   -2.5720   -4.6230    4.3990 H   0  0  0  0  0  0  0  0  0  0  0  0
   -1.5340   -5.5160    1.1590 H   0  0  0  0  0  0  0  0  0  0  0  0
   -0.9630   -4.0100    2.0680 H   0  0  0  0  0  0  0  0  0  0  0  0
   -1.0690   -3.6820   -0.3750 H   0  0  0  0  0  0  0  0  0  0  0  0
   -3.0800   -2.1080    1.2450 H   0  0  0  0  0  0  0  0  0  0  0  0
  1 15  1  0  0  0  0
  2 17  1  6  0  0  0
  2  1  1  0  0  0  0
  2 13  1  0  0  0  0
  3  2  1  0  0  0  0
  3  4  1  0  0  0  0
  4  5  2  0  0  0  0
  4 12  1  0  0  0  0
  5  6  1  0  0  0  0
  6 21  1  0  0  0  0
  6  7  1  0  0  0  0
  7  8  1  0  0  0  0
  8  9  2  0  0  0  0
  8 22  1  0  0  0  0
  9 23  1  0  0  0  0
 10 24  1  0  0  0  0
 10  9  1  0  0  0  0
 11 10  2  0  0  0  0
 12 11  1  0  0  0  0
 12  7  2  0  0  0  0
 13 14  2  0  0  0  0
 16  1  1  0  0  0  0
 18  3  1  0  0  0  0
 19  3  1  0  0  0  0
 20  5  1  0  0  0  0
 25 11  1  0  0  0  0
 26 27  1  0  0  0  0
 26 13  1  0  0  0  0
 27 33  1  1  0  0  0
 28 27  1  0  0  0  0
 28 34  1  0  0  0  0
 28 29  1  0  0  0  0
 29 36  1  0  0  0  0
 30 27  1  0  0  0  0
 30 42  1  0  0  0  0
 31 30  2  0  0  0  0
 32 26  1  0  0  0  0
 35 28  1  0  0  0  0
 37 46  1  0  0  0  0
 37 47  1  0  0  0  0
 38 37  1  0  0  0  0
 39 38  2  0  0  0  0
 40 49  1  0  0  0  0
 40 38  1  0  0  0  0
 41 50  1  6  0  0  0
 41 42  1  0  0  0  0
 41 40  1  0  0  0  0
 42 51  1  0  0  0  0
 43 41  1  0  0  0  0
 44 43  1  0  0  0  0
 45 43  2  0  0  0  0
 48 40  1  0  0  0  0
M  END
$$$$
