WCT.pdb
 OpenBabel07022419163D

 51 52  0  0  1  0  0  0  0  0999 V2000
    2.3140   -0.5290    1.0310 N   0  0  0  0  0  0  0  0  0  0  0  0
    1.5140    0.5020    1.6050 C   0  0  1  0  0  0  0  0  0  0  0  0
    1.9930    1.9000    1.3790 C   0  0  0  0  0  0  0  0  0  0  0  0
    3.3340    2.1980    1.9080 C   0  0  0  0  0  0  0  0  0  0  0  0
    3.5630    2.8820    3.1070 C   0  0  0  0  0  0  0  0  0  0  0  0
    4.8970    2.9300    3.2300 N   0  0  0  0  0  0  0  0  0  0  0  0
    5.5100    2.3240    2.1900 C   0  0  0  0  0  0  0  0  0  0  0  0
    6.8290    2.1170    1.8620 C   0  0  0  0  0  0  0  0  0  0  0  0
    7.2250    1.4620    0.7230 C   0  0  0  0  0  0  0  0  0  0  0  0
    6.2430    0.9850   -0.1390 C   0  0  0  0  0  0  0  0  0  0  0  0
    4.9200    1.1880    0.1820 C   0  0  0  0  0  0  0  0  0  0  0  0
    4.5240    1.8450    1.3260 C   0  0  0  0  0  0  0  0  0  0  0  0
    0.1230    0.3700    1.0930 C   0  0  0  0  0  0  0  0  0  0  0  0
   -0.7390    1.2070    1.5130 O   0  0  0  0  0  0  0  0  0  0  0  0
    2.0270   -1.4370    1.4830 H   0  0  0  0  0  0  0  0  0  0  0  0
    2.2590   -0.5410    0.0040 H   0  0  0  0  0  0  0  0  0  0  0  0
    1.4380    0.3740    2.7170 H   0  0  0  0  0  0  0  0  0  0  0  0
    1.2890    2.6560    1.7450 H   0  0  0  0  0  0  0  0  0  0  0  0
    2.0550    2.0790    0.2640 H   0  0  0  0  0  0  0  0  0  0  0  0
    2.8130    3.2800    3.7800 H   0  0  0  0  0  0  0  0  0  0  0  0
    5.4010    3.3790    4.0290 H   0  0  0  0  0  0  0  0  0  0  0  0
    7.6020    2.4840    2.5270 H   0  0  0  0  0  0  0  0  0  0  0  0
    8.2860    1.3120    0.4870 H   0  0  0  0  0  0  0  0  0  0  0  0
    6.5940    0.4760   -1.0260 H   0  0  0  0  0  0  0  0  0  0  0  0
    4.1750    0.8170   -0.4990 H   0  0  0  0  0  0  0  0  0  0  0  0
   -0.3140   -0.6080    0.1780 N   0  0  0  0  0  0  0  0  0  0  0  0
   -1.6890   -0.6640   -0.2670 C   0  0  1  0  0  0  0  0  0  0  0  0
   -1.7950   -0.4210   -1.7650 C   0  0  0  0  0  0  0  0  0  0  0  0
   -0.8210   -1.7360   -2.5770 S   0  0  0  0  0  0  0  0  0  0  0  0
   -2.2200   -2.0040    0.0910 C   0  0  0  0  0  0  0  0  0  0  0  0
   -1.4990   -2.8580    0.6630 O   0  0  0  0  0  0  0  0  0  0  0  0
    0.3750   -1.2990   -0.1780 H   0  0  0  0  0  0  0  0  0  0  0  0
   -2.2540    0.1540    0.2180 H   0  0  0  0  0  0  0  0  0  0  0  0
   -1.4610    0.5750   -2.0520 H   0  0  0  0  0  0  0  0  0  0  0  0
   -2.8380   -0.5560   -2.1120 H   0  0  0  0  0  0  0  0  0  0  0  0
   -0.3300   -1.3260   -3.8210 H   0  0  0  0  0  0  0  0  0  0  0  0
   -6.3090   -2.7300    0.9170 C   0  0  0  0  0  0  0  0  0  0  0  0
   -5.1510   -3.6160    1.2250 C   0  0  1  0  0  0  0  0  0  0  0  0
   -5.5960   -4.9070    1.4850 O   0  0  0  0  0  0  0  0  0  0  0  0
   -4.1010   -3.6740    0.1380 C   0  0  2  0  0  0  0  0  0  0  0  0
   -3.5800   -2.3850   -0.2010 N   0  0  0  0  0  0  0  0  0  0  0  0
   -4.5550   -4.4640   -1.0170 C   0  0  0  0  0  0  0  0  0  0  0  0
   -4.4640   -3.9920   -2.1640 O   0  0  0  0  0  0  0  0  0  0  0  0
   -5.0800   -5.7200   -0.8210 O   0  0  0  0  0  0  0  0  0  0  0  0
   -6.5440   -2.0370    1.7750 H   0  0  0  0  0  0  0  0  0  0  0  0
   -7.2640   -3.2980    0.7640 H   0  0  0  0  0  0  0  0  0  0  0  0
   -6.1900   -2.0880    0.0410 H   0  0  0  0  0  0  0  0  0  0  0  0
   -4.6920   -3.2600    2.1910 H   0  0  0  0  0  0  0  0  0  0  0  0
   -5.9760   -4.9120    2.3890 H   0  0  0  0  0  0  0  0  0  0  0  0
   -3.2470   -4.2570    0.5980 H   0  0  0  0  0  0  0  0  0  0  0  0
   -4.1390   -1.6340   -0.6790 H   0  0  0  0  0  0  0  0  0  0  0  0
  1 15  1  0  0  0  0
  1  2  1  0  0  0  0
  2 17  1  1  0  0  0
  3  2  1  0  0  0  0
  3 18  1  0  0  0  0
  3  4  1  0  0  0  0
  4  5  2  0  0  0  0
  5  6  1  0  0  0  0
  5 20  1  0  0  0  0
  6 21  1  0  0  0  0
  7  6  1  0  0  0  0
  8  7  1  0  0  0  0
  8 22  1  0  0  0  0
  9  8  2  0  0  0  0
 10 11  2  0  0  0  0
 10  9  1  0  0  0  0
 11 12  1  0  0  0  0
 12  4  1  0  0  0  0
 12  7  2  0  0  0  0
 13 14  2  0  0  0  0
 13  2  1  0  0  0  0
 16  1  1  0  0  0  0
 19  3  1  0  0  0  0
 23  9  1  0  0  0  0
 24 10  1  0  0  0  0
 25 11  1  0  0  0  0
 26 13  1  0  0  0  0
 27 30  1  0  0  0  0
 27 26  1  0  0  0  0
 27 33  1  1  0  0  0
 28 27  1  0  0  0  0
 29 28  1  0  0  0  0
 30 31  2  0  0  0  0
 32 26  1  0  0  0  0
 34 28  1  0  0  0  0
 35 28  1  0  0  0  0
 36 29  1  0  0  0  0
 37 38  1  0  0  0  0
 37 45  1  0  0  0  0
 38 39  1  0  0  0  0
 38 48  1  1  0  0  0
 39 49  1  0  0  0  0
 40 50  1  1  0  0  0
 40 38  1  0  0  0  0
 41 30  1  0  0  0  0
 41 40  1  0  0  0  0
 42 44  1  0  0  0  0
 42 40  1  0  0  0  0
 43 42  2  0  0  0  0
 46 37  1  0  0  0  0
 47 37  1  0  0  0  0
 51 41  1  0  0  0  0
M  END
$$$$
