WDG.pdb
 OpenBabel07022419163D

 46 47  0  0  1  0  0  0  0  0999 V2000
   -0.5250    0.6030    3.8330 N   0  0  0  0  0  0  0  0  0  0  0  0
    0.4400    1.1420    2.8430 C   0  0  1  0  0  0  0  0  0  0  0  0
    1.7780    0.7300    3.3520 C   0  0  0  0  0  0  0  0  0  0  0  0
    2.9490    1.1120    2.5790 C   0  0  0  0  0  0  0  0  0  0  0  0
    3.7660    2.2130    2.8220 C   0  0  0  0  0  0  0  0  0  0  0  0
    4.7400    2.2500    1.8870 N   0  0  0  0  0  0  0  0  0  0  0  0
    4.6010    1.2230    1.0420 C   0  0  0  0  0  0  0  0  0  0  0  0
    5.3270    0.8180   -0.0540 C   0  0  0  0  0  0  0  0  0  0  0  0
    4.9680   -0.3150   -0.7640 C   0  0  0  0  0  0  0  0  0  0  0  0
    3.8590   -1.0500   -0.3640 C   0  0  0  0  0  0  0  0  0  0  0  0
    3.1770   -0.6030    0.7260 C   0  0  0  0  0  0  0  0  0  0  0  0
    3.4810    0.5090    1.4710 C   0  0  0  0  0  0  0  0  0  0  0  0
    0.0510    0.6640    1.5160 C   0  0  0  0  0  0  0  0  0  0  0  0
    0.5430    1.1140    0.4480 O   0  0  0  0  0  0  0  0  0  0  0  0
   -1.5010    0.8020    3.5220 H   0  0  0  0  0  0  0  0  0  0  0  0
   -0.3110   -0.4210    3.8720 H   0  0  0  0  0  0  0  0  0  0  0  0
    0.3750    2.2610    2.9290 H   0  0  0  0  0  0  0  0  0  0  0  0
    1.7510   -0.3930    3.5530 H   0  0  0  0  0  0  0  0  0  0  0  0
    1.8250    1.1350    4.4170 H   0  0  0  0  0  0  0  0  0  0  0  0
    3.6860    2.9480    3.6060 H   0  0  0  0  0  0  0  0  0  0  0  0
    5.5210    2.9580    1.7900 H   0  0  0  0  0  0  0  0  0  0  0  0
    6.2100    1.3710   -0.4030 H   0  0  0  0  0  0  0  0  0  0  0  0
    5.5060   -0.6700   -1.6260 H   0  0  0  0  0  0  0  0  0  0  0  0
    3.5590   -1.9500   -0.9130 H   0  0  0  0  0  0  0  0  0  0  0  0
    2.3140   -1.1770    1.0350 H   0  0  0  0  0  0  0  0  0  0  0  0
   -0.9390   -0.3710    1.3280 N   0  0  0  0  0  0  0  0  0  0  0  0
   -1.3020   -0.8180    0.0160 C   0  0  1  0  0  0  0  0  0  0  0  0
   -0.9030   -2.2590   -0.1230 C   0  0  0  0  0  0  0  0  0  0  0  0
   -1.5380   -3.1620    0.8410 C   0  0  0  0  0  0  0  0  0  0  0  0
   -1.2070   -4.3910    0.7440 O   0  0  0  0  0  0  0  0  0  0  0  0
   -2.7480   -0.7140   -0.2610 C   0  0  0  0  0  0  0  0  0  0  0  0
   -3.5980   -0.2880    0.5390 O   0  0  0  0  0  0  0  0  0  0  0  0
   -2.4330   -2.8350    1.8180 O   0  0  0  0  0  0  0  0  0  0  0  0
   -1.3810   -0.7840    2.1690 H   0  0  0  0  0  0  0  0  0  0  0  0
   -0.7700   -0.2600   -0.7760 H   0  0  0  0  0  0  0  0  0  0  0  0
   -1.1480   -2.6210   -1.1430 H   0  0  0  0  0  0  0  0  0  0  0  0
    0.2080   -2.3950   -0.0270 H   0  0  0  0  0  0  0  0  0  0  0  0
   -3.0730   -3.4570    2.2670 H   0  0  0  0  0  0  0  0  0  0  0  0
   -3.2330   -1.1320   -1.5480 N   0  0  0  0  0  0  0  0  0  0  0  0
   -4.6340   -1.0600   -1.8890 C   0  0  0  0  0  0  0  0  0  0  0  0
   -5.4870   -1.8560   -1.0120 C   0  0  0  0  0  0  0  0  0  0  0  0
   -6.7220   -1.8830   -1.1880 O   0  0  0  0  0  0  0  0  0  0  0  0
   -4.9410   -2.5850    0.0190 O   0  0  0  0  0  0  0  0  0  0  0  0
   -2.5650   -1.4940   -2.2480 H   0  0  0  0  0  0  0  0  0  0  0  0
   -4.9690    0.0220   -1.9420 H   0  0  0  0  0  0  0  0  0  0  0  0
   -4.7520   -1.4140   -2.9380 H   0  0  0  0  0  0  0  0  0  0  0  0
  1 16  1  0  0  0  0
  2 17  1  1  0  0  0
  2  3  1  0  0  0  0
  2  1  1  0  0  0  0
  3 18  1  0  0  0  0
  3 19  1  0  0  0  0
  4  5  2  0  0  0  0
  4  3  1  0  0  0  0
  5 20  1  0  0  0  0
  6  5  1  0  0  0  0
  7 12  1  0  0  0  0
  7  6  1  0  0  0  0
  8  7  2  0  0  0  0
  9 10  2  0  0  0  0
  9  8  1  0  0  0  0
 10 11  1  0  0  0  0
 11 25  1  0  0  0  0
 11 12  2  0  0  0  0
 12  4  1  0  0  0  0
 13  2  1  0  0  0  0
 14 13  2  0  0  0  0
 15  1  1  0  0  0  0
 21  6  1  0  0  0  0
 22  8  1  0  0  0  0
 23  9  1  0  0  0  0
 24 10  1  0  0  0  0
 26 13  1  0  0  0  0
 26 34  1  0  0  0  0
 27 35  1  6  0  0  0
 27 26  1  0  0  0  0
 28 37  1  0  0  0  0
 28 27  1  0  0  0  0
 28 29  1  0  0  0  0
 29 33  1  0  0  0  0
 30 29  2  0  0  0  0
 31 27  1  0  0  0  0
 31 32  2  0  0  0  0
 33 38  1  0  0  0  0
 36 28  1  0  0  0  0
 39 31  1  0  0  0  0
 40 39  1  0  0  0  0
 40 41  1  0  0  0  0
 41 43  1  0  0  0  0
 42 41  2  0  0  0  0
 44 39  1  0  0  0  0
 45 40  1  0  0  0  0
 46 40  1  0  0  0  0
M  END
$$$$
