WDP.pdb
 OpenBabel07022419163D

 53 55  0  0  1  0  0  0  0  0999 V2000
    2.3270    0.6640   -1.2160 N   0  0  0  0  0  0  0  0  0  0  0  0
    2.5930   -0.6350   -0.6460 C   0  0  1  0  0  0  0  0  0  0  0  0
    3.6540   -0.6680    0.3950 C   0  0  0  0  0  0  0  0  0  0  0  0
    3.4360    0.1490    1.5800 C   0  0  0  0  0  0  0  0  0  0  0  0
    2.9760   -0.3500    2.7890 C   0  0  0  0  0  0  0  0  0  0  0  0
    2.8600    0.6480    3.6760 N   0  0  0  0  0  0  0  0  0  0  0  0
    3.2440    1.7770    3.0380 C   0  0  0  0  0  0  0  0  0  0  0  0
    3.3360    3.1020    3.4490 C   0  0  0  0  0  0  0  0  0  0  0  0
    3.7650    4.1120    2.6200 C   0  0  0  0  0  0  0  0  0  0  0  0
    4.1160    3.7800    1.3280 C   0  0  0  0  0  0  0  0  0  0  0  0
    4.0440    2.4830    0.8700 C   0  0  0  0  0  0  0  0  0  0  0  0
    3.6070    1.4860    1.7290 C   0  0  0  0  0  0  0  0  0  0  0  0
    1.3320   -1.2460   -0.1030 C   0  0  0  0  0  0  0  0  0  0  0  0
    1.3380   -2.3800    0.4380 O   0  0  0  0  0  0  0  0  0  0  0  0
    1.5730    0.5110   -1.9500 H   0  0  0  0  0  0  0  0  0  0  0  0
    3.1770    0.9130   -1.7930 H   0  0  0  0  0  0  0  0  0  0  0  0
    2.9770   -1.2650   -1.5030 H   0  0  0  0  0  0  0  0  0  0  0  0
    4.6250   -0.3810   -0.1080 H   0  0  0  0  0  0  0  0  0  0  0  0
    3.8190   -1.7520    0.6600 H   0  0  0  0  0  0  0  0  0  0  0  0
    2.7260   -1.3850    3.0470 H   0  0  0  0  0  0  0  0  0  0  0  0
    2.5440    0.6190    4.6710 H   0  0  0  0  0  0  0  0  0  0  0  0
    3.0440    3.3070    4.4860 H   0  0  0  0  0  0  0  0  0  0  0  0
    3.8240    5.1320    2.9700 H   0  0  0  0  0  0  0  0  0  0  0  0
    4.4630    4.5350    0.6280 H   0  0  0  0  0  0  0  0  0  0  0  0
    4.3290    2.2210   -0.1470 H   0  0  0  0  0  0  0  0  0  0  0  0
    0.1040   -0.5650   -0.1860 N   0  0  0  0  0  0  0  0  0  0  0  0
   -1.1650   -1.1550    0.3470 C   0  0  1  0  0  0  0  0  0  0  0  0
   -1.6420   -0.1970    1.4270 C   0  0  0  0  0  0  0  0  0  0  0  0
   -2.8780   -0.6420    2.0320 C   0  0  0  0  0  0  0  0  0  0  0  0
   -4.0360   -0.3200    1.6160 O   0  0  0  0  0  0  0  0  0  0  0  0
   -2.0910   -1.1850   -0.8010 C   0  0  0  0  0  0  0  0  0  0  0  0
   -1.8470   -0.3210   -1.7380 O   0  0  0  0  0  0  0  0  0  0  0  0
   -2.8750   -1.4820    3.1480 O   0  0  0  0  0  0  0  0  0  0  0  0
    0.0350    0.3690   -0.6200 H   0  0  0  0  0  0  0  0  0  0  0  0
   -1.0150   -2.1280    0.7860 H   0  0  0  0  0  0  0  0  0  0  0  0
   -1.7710    0.8320    1.0330 H   0  0  0  0  0  0  0  0  0  0  0  0
   -0.8410   -0.1520    2.2010 H   0  0  0  0  0  0  0  0  0  0  0  0
   -3.6720   -1.4550    3.7840 H   0  0  0  0  0  0  0  0  0  0  0  0
   -3.1820   -2.0690   -0.9380 N   0  0  0  0  0  0  0  0  0  0  0  0
   -4.1050   -1.9570   -2.0910 C   0  0  0  0  0  0  0  0  0  0  0  0
   -4.5630   -3.3850   -2.3050 C   0  0  0  0  0  0  0  0  0  0  0  0
   -4.8320   -3.7890   -0.8560 C   0  0  0  0  0  0  0  0  0  0  0  0
   -3.5930   -3.1960   -0.1640 C   0  0  1  0  0  0  0  0  0  0  0  0
   -2.5910   -4.2960   -0.1870 C   0  0  0  0  0  0  0  0  0  0  0  0
   -2.8110   -5.3200    0.4870 O   0  0  0  0  0  0  0  0  0  0  0  0
   -1.4400   -4.2030   -0.9320 O   0  0  0  0  0  0  0  0  0  0  0  0
   -3.6170   -1.5180   -2.9600 H   0  0  0  0  0  0  0  0  0  0  0  0
   -4.9830   -1.3910   -1.7170 H   0  0  0  0  0  0  0  0  0  0  0  0
   -3.8110   -4.0230   -2.7730 H   0  0  0  0  0  0  0  0  0  0  0  0
   -5.4960   -3.3930   -2.9030 H   0  0  0  0  0  0  0  0  0  0  0  0
   -5.7370   -3.3010   -0.4870 H   0  0  0  0  0  0  0  0  0  0  0  0
   -4.8550   -4.8940   -0.7440 H   0  0  0  0  0  0  0  0  0  0  0  0
   -3.8780   -2.9110    0.8490 H   0  0  0  0  0  0  0  0  0  0  0  0
  1  2  1  0  0  0  0
  2 17  1  6  0  0  0
  2 13  1  0  0  0  0
  2  3  1  0  0  0  0
  3 19  1  0  0  0  0
  3  4  1  0  0  0  0
  4 12  1  0  0  0  0
  4  5  2  0  0  0  0
  5 20  1  0  0  0  0
  5  6  1  0  0  0  0
  6 21  1  0  0  0  0
  7  8  1  0  0  0  0
  7  6  1  0  0  0  0
  8 22  1  0  0  0  0
  9 23  1  0  0  0  0
  9  8  2  0  0  0  0
 10  9  1  0  0  0  0
 11 10  2  0  0  0  0
 11 12  1  0  0  0  0
 12  7  2  0  0  0  0
 13 14  2  0  0  0  0
 15  1  1  0  0  0  0
 16  1  1  0  0  0  0
 18  3  1  0  0  0  0
 24 10  1  0  0  0  0
 25 11  1  0  0  0  0
 26 13  1  0  0  0  0
 26 27  1  0  0  0  0
 27 35  1  1  0  0  0
 27 28  1  0  0  0  0
 28 29  1  0  0  0  0
 28 37  1  0  0  0  0
 29 33  1  0  0  0  0
 30 29  2  0  0  0  0
 31 27  1  0  0  0  0
 32 31  2  0  0  0  0
 33 38  1  0  0  0  0
 34 26  1  0  0  0  0
 36 28  1  0  0  0  0
 39 31  1  0  0  0  0
 39 43  1  0  0  0  0
 40 48  1  0  0  0  0
 40 39  1  0  0  0  0
 41 40  1  0  0  0  0
 41 42  1  0  0  0  0
 42 52  1  0  0  0  0
 42 51  1  0  0  0  0
 42 43  1  0  0  0  0
 43 53  1  1  0  0  0
 44 43  1  0  0  0  0
 44 45  1  0  0  0  0
 46 44  2  0  0  0  0
 47 40  1  0  0  0  0
 49 41  1  0  0  0  0
 50 41  1  0  0  0  0
M  END
$$$$
