WDR.pdb
 OpenBabel07022419153D

 62 63  0  0  1  0  0  0  0  0999 V2000
    2.8730    1.3200    1.0430 N   0  0  0  0  0  0  0  0  0  0  0  0
    1.9420    1.5690    2.1010 C   0  0  1  0  0  0  0  0  0  0  0  0
    1.7870    2.9980    2.5040 C   0  0  0  0  0  0  0  0  0  0  0  0
    3.0110    3.6590    2.9810 C   0  0  0  0  0  0  0  0  0  0  0  0
    3.3760    3.8850    4.3020 C   0  0  0  0  0  0  0  0  0  0  0  0
    4.5660    4.4960    4.3090 N   0  0  0  0  0  0  0  0  0  0  0  0
    5.0180    4.6910    3.0410 C   0  0  0  0  0  0  0  0  0  0  0  0
    6.1430    5.2570    2.5030 C   0  0  0  0  0  0  0  0  0  0  0  0
    6.3320    5.3190    1.1470 C   0  0  0  0  0  0  0  0  0  0  0  0
    5.3740    4.8040    0.3060 C   0  0  0  0  0  0  0  0  0  0  0  0
    4.2510    4.2400    0.8640 C   0  0  0  0  0  0  0  0  0  0  0  0
    4.0410    4.1660    2.2210 C   0  0  0  0  0  0  0  0  0  0  0  0
    0.5700    1.0650    1.7490 C   0  0  0  0  0  0  0  0  0  0  0  0
   -0.3300    1.1970    2.5910 O   0  0  0  0  0  0  0  0  0  0  0  0
    3.8430    1.4350    1.4530 H   0  0  0  0  0  0  0  0  0  0  0  0
    2.8220    0.2720    0.8580 H   0  0  0  0  0  0  0  0  0  0  0  0
    2.2570    0.9420    2.9690 H   0  0  0  0  0  0  0  0  0  0  0  0
    1.2760    3.5800    1.6820 H   0  0  0  0  0  0  0  0  0  0  0  0
    1.0210    3.0190    3.3350 H   0  0  0  0  0  0  0  0  0  0  0  0
    2.7960    3.6140    5.1640 H   0  0  0  0  0  0  0  0  0  0  0  0
    5.1570    4.8240    5.1310 H   0  0  0  0  0  0  0  0  0  0  0  0
    6.9090    5.6690    3.1420 H   0  0  0  0  0  0  0  0  0  0  0  0
    7.2090    5.7590    0.6920 H   0  0  0  0  0  0  0  0  0  0  0  0
    5.5100    4.8470   -0.7590 H   0  0  0  0  0  0  0  0  0  0  0  0
    3.5220    3.8540    0.1960 H   0  0  0  0  0  0  0  0  0  0  0  0
    0.2870    0.4570    0.5050 N   0  0  0  0  0  0  0  0  0  0  0  0
   -1.0040   -0.0340    0.1330 C   0  0  1  0  0  0  0  0  0  0  0  0
   -1.6120    0.7130   -1.0200 C   0  0  0  0  0  0  0  0  0  0  0  0
   -0.8030    0.6500   -2.2540 C   0  0  0  0  0  0  0  0  0  0  0  0
   -1.1700    1.2540   -3.2910 O   0  0  0  0  0  0  0  0  0  0  0  0
   -0.9530   -1.4960   -0.0990 C   0  0  0  0  0  0  0  0  0  0  0  0
    0.1510   -2.1110    0.0540 O   0  0  0  0  0  0  0  0  0  0  0  0
    0.3810   -0.0620   -2.3440 O   0  0  0  0  0  0  0  0  0  0  0  0
    1.0670    0.3680   -0.1650 H   0  0  0  0  0  0  0  0  0  0  0  0
   -1.6860    0.1460    1.0070 H   0  0  0  0  0  0  0  0  0  0  0  0
   -2.6270    0.3580   -1.2100 H   0  0  0  0  0  0  0  0  0  0  0  0
   -1.6570    1.7890   -0.7100 H   0  0  0  0  0  0  0  0  0  0  0  0
    1.0990    0.3320   -2.9520 H   0  0  0  0  0  0  0  0  0  0  0  0
   -6.9340   -5.7900   -0.8250 N   0  0  0  0  0  0  0  0  0  0  0  0
   -5.7870   -6.6520   -0.6840 C   0  0  0  0  0  0  0  0  0  0  0  0
   -5.7720   -7.6810    0.0820 N   0  0  0  0  0  0  0  0  0  0  0  0
   -4.5880   -6.3730   -1.4210 N   0  0  0  0  0  0  0  0  0  0  0  0
   -3.2950   -6.6790   -0.8420 C   0  0  0  0  0  0  0  0  0  0  0  0
   -2.9260   -5.8500    0.3130 C   0  0  0  0  0  0  0  0  0  0  0  0
   -2.8840   -4.3990    0.2480 C   0  0  0  0  0  0  0  0  0  0  0  0
   -1.9510   -3.7530   -0.7080 C   0  0  2  0  0  0  0  0  0  0  0  0
   -2.0660   -2.2650   -0.4850 N   0  0  0  0  0  0  0  0  0  0  0  0
   -2.2970   -3.8680   -2.1370 C   0  0  0  0  0  0  0  0  0  0  0  0
   -2.1620   -4.9020   -2.7810 O   0  0  0  0  0  0  0  0  0  0  0  0
   -2.8170   -2.7640   -2.8620 O   0  0  0  0  0  0  0  0  0  0  0  0
   -7.4440   -5.5090    0.0250 H   0  0  0  0  0  0  0  0  0  0  0  0
   -7.1860   -5.4980   -1.7750 H   0  0  0  0  0  0  0  0  0  0  0  0
   -6.6120   -7.9400    0.6480 H   0  0  0  0  0  0  0  0  0  0  0  0
   -4.6530   -5.9540   -2.3600 H   0  0  0  0  0  0  0  0  0  0  0  0
   -2.5070   -6.9660   -1.5400 H   0  0  0  0  0  0  0  0  0  0  0  0
   -3.5290   -7.7360   -0.3530 H   0  0  0  0  0  0  0  0  0  0  0  0
   -3.5740   -6.1850    1.2080 H   0  0  0  0  0  0  0  0  0  0  0  0
   -1.8880   -6.2240    0.6480 H   0  0  0  0  0  0  0  0  0  0  0  0
   -2.5840   -4.0080    1.2770 H   0  0  0  0  0  0  0  0  0  0  0  0
   -3.9280   -3.9410    0.1470 H   0  0  0  0  0  0  0  0  0  0  0  0
   -0.9290   -4.0930   -0.5300 H   0  0  0  0  0  0  0  0  0  0  0  0
   -2.9800   -1.8310   -0.6240 H   0  0  0  0  0  0  0  0  0  0  0  0
  1 15  1  0  0  0  0
  1  2  1  0  0  0  0
  2  3  1  0  0  0  0
  2 17  1  1  0  0  0
  3  4  1  0  0  0  0
  3 19  1  0  0  0  0
  4  5  2  0  0  0  0
  5  6  1  0  0  0  0
  5 20  1  0  0  0  0
  6 21  1  0  0  0  0
  7  6  1  0  0  0  0
  8  7  1  0  0  0  0
  8 22  1  0  0  0  0
  9  8  2  0  0  0  0
 10 11  2  0  0  0  0
 10  9  1  0  0  0  0
 11 12  1  0  0  0  0
 12  4  1  0  0  0  0
 12  7  2  0  0  0  0
 13  2  1  0  0  0  0
 13 14  2  0  0  0  0
 16  1  1  0  0  0  0
 18  3  1  0  0  0  0
 23  9  1  0  0  0  0
 24 10  1  0  0  0  0
 25 11  1  0  0  0  0
 26 13  1  0  0  0  0
 27 26  1  0  0  0  0
 27 35  1  1  0  0  0
 28 37  1  0  0  0  0
 28 27  1  0  0  0  0
 29 28  1  0  0  0  0
 30 29  2  0  0  0  0
 31 32  2  0  0  0  0
 31 27  1  0  0  0  0
 33 29  1  0  0  0  0
 34 26  1  0  0  0  0
 36 28  1  0  0  0  0
 38 33  1  0  0  0  0
 39 40  1  0  0  0  0
 39 51  1  0  0  0  0
 40 41  2  0  0  0  0
 41 53  1  0  0  0  0
 42 43  1  0  0  0  0
 42 40  1  0  0  0  0
 43 56  1  0  0  0  0
 43 44  1  0  0  0  0
 44 58  1  0  0  0  0
 44 57  1  0  0  0  0
 45 44  1  0  0  0  0
 45 59  1  0  0  0  0
 46 61  1  1  0  0  0
 46 47  1  0  0  0  0
 46 45  1  0  0  0  0
 47 31  1  0  0  0  0
 48 46  1  0  0  0  0
 49 48  1  0  0  0  0
 50 48  2  0  0  0  0
 52 39  1  0  0  0  0
 54 42  1  0  0  0  0
 55 43  1  0  0  0  0
 60 45  1  0  0  0  0
 62 47  1  0  0  0  0
M  END
$$$$
