WDW.pdb
 OpenBabel07022419163D

 63 66  0  0  1  0  0  0  0  0999 V2000
    0.5360    1.8270    2.0240 N   0  0  0  0  0  0  0  0  0  0  0  0
   -0.2570    0.6660    2.3430 C   0  0  1  0  0  0  0  0  0  0  0  0
   -1.5330    1.0470    3.0060 C   0  0  0  0  0  0  0  0  0  0  0  0
   -1.4270    1.7780    4.2580 C   0  0  0  0  0  0  0  0  0  0  0  0
   -1.5350    1.1920    5.5080 C   0  0  0  0  0  0  0  0  0  0  0  0
   -1.3690    2.1170    6.4630 N   0  0  0  0  0  0  0  0  0  0  0  0
   -1.1520    3.3170    5.8420 C   0  0  0  0  0  0  0  0  0  0  0  0
   -0.9300    4.5860    6.3430 C   0  0  0  0  0  0  0  0  0  0  0  0
   -0.7430    5.6560    5.4870 C   0  0  0  0  0  0  0  0  0  0  0  0
   -0.7810    5.4400    4.1420 C   0  0  0  0  0  0  0  0  0  0  0  0
   -0.9980    4.2020    3.6200 C   0  0  0  0  0  0  0  0  0  0  0  0
   -1.1870    3.1180    4.4750 C   0  0  0  0  0  0  0  0  0  0  0  0
   -0.5240   -0.1570    1.1120 C   0  0  0  0  0  0  0  0  0  0  0  0
   -1.2030   -1.2230    1.1860 O   0  0  0  0  0  0  0  0  0  0  0  0
    1.4170    1.5370    1.5020 H   0  0  0  0  0  0  0  0  0  0  0  0
    0.9320    2.1560    2.9580 H   0  0  0  0  0  0  0  0  0  0  0  0
    0.3850    0.0310    3.0190 H   0  0  0  0  0  0  0  0  0  0  0  0
   -2.1520    0.1160    3.0880 H   0  0  0  0  0  0  0  0  0  0  0  0
   -2.1070    1.6730    2.2640 H   0  0  0  0  0  0  0  0  0  0  0  0
   -1.7240    0.1430    5.7530 H   0  0  0  0  0  0  0  0  0  0  0  0
   -1.3900    2.0080    7.5010 H   0  0  0  0  0  0  0  0  0  0  0  0
   -0.9020    4.7470    7.4060 H   0  0  0  0  0  0  0  0  0  0  0  0
   -0.5670    6.6620    5.8740 H   0  0  0  0  0  0  0  0  0  0  0  0
   -0.6390    6.2600    3.4210 H   0  0  0  0  0  0  0  0  0  0  0  0
   -1.0370    4.0230    2.5320 H   0  0  0  0  0  0  0  0  0  0  0  0
   -0.0530    0.1960   -0.1540 N   0  0  0  0  0  0  0  0  0  0  0  0
   -0.2660   -0.5320   -1.3870 C   0  0  1  0  0  0  0  0  0  0  0  0
   -0.8890    0.3810   -2.3800 C   0  0  0  0  0  0  0  0  0  0  0  0
   -2.1920    0.9220   -1.9420 C   0  0  0  0  0  0  0  0  0  0  0  0
   -2.6430    0.5820   -0.8280 O   0  0  0  0  0  0  0  0  0  0  0  0
    0.9190   -1.2430   -1.8520 C   0  0  0  0  0  0  0  0  0  0  0  0
    1.9740   -1.1720   -1.1870 O   0  0  0  0  0  0  0  0  0  0  0  0
   -2.9550    1.7930   -2.7010 O   0  0  0  0  0  0  0  0  0  0  0  0
    0.5240    1.0830   -0.2630 H   0  0  0  0  0  0  0  0  0  0  0  0
   -1.0130   -1.3370   -1.1260 H   0  0  0  0  0  0  0  0  0  0  0  0
   -0.9410   -0.0490   -3.4090 H   0  0  0  0  0  0  0  0  0  0  0  0
   -0.2370    1.2980   -2.5260 H   0  0  0  0  0  0  0  0  0  0  0  0
   -3.8470    2.1710   -2.3950 H   0  0  0  0  0  0  0  0  0  0  0  0
    0.9420   -2.0200   -3.0350 N   0  0  0  0  0  0  0  0  0  0  0  0
    2.1140   -2.7280   -3.5000 C   0  0  1  0  0  0  0  0  0  0  0  0
    1.8990   -4.2380   -3.4750 C   0  0  0  0  0  0  0  0  0  0  0  0
    1.6120   -4.7710   -2.1420 C   0  0  0  0  0  0  0  0  0  0  0  0
    2.5630   -5.3780   -1.3170 C   0  0  0  0  0  0  0  0  0  0  0  0
    1.9930   -5.7290   -0.1720 N   0  0  0  0  0  0  0  0  0  0  0  0
    0.7060   -5.3720   -0.2250 C   0  0  0  0  0  0  0  0  0  0  0  0
   -0.2930   -5.5360    0.7330 C   0  0  0  0  0  0  0  0  0  0  0  0
   -1.5840   -5.0960    0.4750 C   0  0  0  0  0  0  0  0  0  0  0  0
   -1.8540   -4.4920   -0.7520 C   0  0  0  0  0  0  0  0  0  0  0  0
   -0.8400   -4.3460   -1.6760 C   0  0  0  0  0  0  0  0  0  0  0  0
    0.4390   -4.7790   -1.4270 C   0  0  0  0  0  0  0  0  0  0  0  0
    2.4090   -2.3020   -4.8800 C   0  0  0  0  0  0  0  0  0  0  0  0
    3.3790   -2.7490   -5.5510 O   0  0  0  0  0  0  0  0  0  0  0  0
    1.5940   -1.3640   -5.4880 O   0  0  0  0  0  0  0  0  0  0  0  0
    0.0980   -2.1200   -3.6510 H   0  0  0  0  0  0  0  0  0  0  0  0
    3.0050   -2.5050   -2.8630 H   0  0  0  0  0  0  0  0  0  0  0  0
    1.0670   -4.5100   -4.1610 H   0  0  0  0  0  0  0  0  0  0  0  0
    2.8080   -4.7170   -3.8760 H   0  0  0  0  0  0  0  0  0  0  0  0
    3.5940   -5.5280   -1.5890 H   0  0  0  0  0  0  0  0  0  0  0  0
    2.5090   -6.2100    0.6250 H   0  0  0  0  0  0  0  0  0  0  0  0
   -0.0770   -6.0040    1.6780 H   0  0  0  0  0  0  0  0  0  0  0  0
   -2.3550   -5.2290    1.2300 H   0  0  0  0  0  0  0  0  0  0  0  0
   -2.8730   -4.1680   -0.9020 H   0  0  0  0  0  0  0  0  0  0  0  0
   -1.0680   -3.8870   -2.6210 H   0  0  0  0  0  0  0  0  0  0  0  0
  1  2  1  0  0  0  0
  1 16  1  0  0  0  0
  2  3  1  0  0  0  0
  2 17  1  1  0  0  0
  3 18  1  0  0  0  0
  3  4  1  0  0  0  0
  4 12  1  0  0  0  0
  4  5  2  0  0  0  0
  5 20  1  0  0  0  0
  5  6  1  0  0  0  0
  6 21  1  0  0  0  0
  7  8  1  0  0  0  0
  7  6  1  0  0  0  0
  8 22  1  0  0  0  0
  9 23  1  0  0  0  0
  9  8  2  0  0  0  0
 10  9  1  0  0  0  0
 11 10  2  0  0  0  0
 11 12  1  0  0  0  0
 12  7  2  0  0  0  0
 13 14  2  0  0  0  0
 13  2  1  0  0  0  0
 15  1  1  0  0  0  0
 19  3  1  0  0  0  0
 24 10  1  0  0  0  0
 25 11  1  0  0  0  0
 26 13  1  0  0  0  0
 27 35  1  1  0  0  0
 27 26  1  0  0  0  0
 28 29  1  0  0  0  0
 28 27  1  0  0  0  0
 29 30  2  0  0  0  0
 31 27  1  0  0  0  0
 31 32  2  0  0  0  0
 33 38  1  0  0  0  0
 33 29  1  0  0  0  0
 34 26  1  0  0  0  0
 36 28  1  0  0  0  0
 37 28  1  0  0  0  0
 39 31  1  0  0  0  0
 40 41  1  0  0  0  0
 40 39  1  0  0  0  0
 40 55  1  1  0  0  0
 41 42  1  0  0  0  0
 42 50  1  0  0  0  0
 42 43  2  0  0  0  0
 43 44  1  0  0  0  0
 44 59  1  0  0  0  0
 45 44  1  0  0  0  0
 45 46  1  0  0  0  0
 46 60  1  0  0  0  0
 47 46  2  0  0  0  0
 47 61  1  0  0  0  0
 48 47  1  0  0  0  0
 49 50  1  0  0  0  0
 49 48  2  0  0  0  0
 50 45  2  0  0  0  0
 51 40  1  0  0  0  0
 52 51  2  0  0  0  0
 53 51  1  0  0  0  0
 54 39  1  0  0  0  0
 56 41  1  0  0  0  0
 57 41  1  0  0  0  0
 58 43  1  0  0  0  0
 62 48  1  0  0  0  0
 63 49  1  0  0  0  0
M  END
$$$$
