WEA.pdb
 OpenBabel07022419163D

 52 53  0  0  1  0  0  0  0  0999 V2000
   -0.9190    2.7210   -1.2540 N   0  0  0  0  0  0  0  0  0  0  0  0
   -0.0950    1.5760   -0.8000 C   0  0  1  0  0  0  0  0  0  0  0  0
    1.0610    2.0640   -0.0930 C   0  0  0  0  0  0  0  0  0  0  0  0
    2.0590    1.1540    0.4330 C   0  0  0  0  0  0  0  0  0  0  0  0
    2.4540   -0.0640   -0.0780 C   0  0  0  0  0  0  0  0  0  0  0  0
    3.4050   -0.5350    0.7430 N   0  0  0  0  0  0  0  0  0  0  0  0
    3.6430    0.3130    1.7510 C   0  0  0  0  0  0  0  0  0  0  0  0
    4.5150    0.3070    2.8350 C   0  0  0  0  0  0  0  0  0  0  0  0
    4.5620    1.3480    3.7380 C   0  0  0  0  0  0  0  0  0  0  0  0
    3.7240    2.4330    3.5710 C   0  0  0  0  0  0  0  0  0  0  0  0
    2.8660    2.4240    2.4930 C   0  0  0  0  0  0  0  0  0  0  0  0
    2.8070    1.3740    1.5690 C   0  0  0  0  0  0  0  0  0  0  0  0
   -1.0210    0.6010   -0.2620 C   0  0  0  0  0  0  0  0  0  0  0  0
   -2.1300    0.5480   -0.9430 O   0  0  0  0  0  0  0  0  0  0  0  0
   -0.9740    3.3980   -0.4320 H   0  0  0  0  0  0  0  0  0  0  0  0
   -1.9120    2.4210   -1.4080 H   0  0  0  0  0  0  0  0  0  0  0  0
    0.2530    1.1390   -1.8130 H   0  0  0  0  0  0  0  0  0  0  0  0
    1.6190    2.7860   -0.7730 H   0  0  0  0  0  0  0  0  0  0  0  0
    0.7200    2.7440    0.7430 H   0  0  0  0  0  0  0  0  0  0  0  0
    2.0550   -0.5570   -0.9840 H   0  0  0  0  0  0  0  0  0  0  0  0
    3.9130   -1.4470    0.6320 H   0  0  0  0  0  0  0  0  0  0  0  0
    5.1950   -0.5330    2.9900 H   0  0  0  0  0  0  0  0  0  0  0  0
    5.2540    1.3500    4.5850 H   0  0  0  0  0  0  0  0  0  0  0  0
    3.7240    3.2870    4.2620 H   0  0  0  0  0  0  0  0  0  0  0  0
    2.2150    3.2830    2.3750 H   0  0  0  0  0  0  0  0  0  0  0  0
   -0.8290   -0.2270    0.8570 N   0  0  0  0  0  0  0  0  0  0  0  0
   -1.8510   -1.1780    1.3070 C   0  0  1  0  0  0  0  0  0  0  0  0
   -3.1090   -0.4600    1.5230 C   0  0  0  0  0  0  0  0  0  0  0  0
   -4.3290   -1.1460    1.9800 C   0  0  0  0  0  0  0  0  0  0  0  0
   -4.9430   -2.1560    1.1030 C   0  0  0  0  0  0  0  0  0  0  0  0
   -5.4950   -3.1990    1.5380 O   0  0  0  0  0  0  0  0  0  0  0  0
   -1.7770   -2.4260    0.5850 C   0  0  0  0  0  0  0  0  0  0  0  0
   -2.5450   -3.3740    0.7740 O   0  0  0  0  0  0  0  0  0  0  0  0
   -4.9260   -1.9660   -0.2950 O   0  0  0  0  0  0  0  0  0  0  0  0
    0.0500   -0.1620    1.3820 H   0  0  0  0  0  0  0  0  0  0  0  0
   -1.4810   -1.4370    2.3860 H   0  0  0  0  0  0  0  0  0  0  0  0
   -3.4490    0.2210    0.6760 H   0  0  0  0  0  0  0  0  0  0  0  0
   -2.8870    0.3430    2.3260 H   0  0  0  0  0  0  0  0  0  0  0  0
   -5.1230   -0.3350    2.0710 H   0  0  0  0  0  0  0  0  0  0  0  0
   -4.2660   -1.5160    3.0410 H   0  0  0  0  0  0  0  0  0  0  0  0
   -5.4970   -2.6140   -0.8530 H   0  0  0  0  0  0  0  0  0  0  0  0
   -0.1260   -3.6120   -2.5580 C   0  0  0  0  0  0  0  0  0  0  0  0
   -0.6710   -3.8730   -1.1800 C   0  0  2  0  0  0  0  0  0  0  0  0
   -0.7630   -2.6460   -0.4320 N   0  0  0  0  0  0  0  0  0  0  0  0
    0.2080   -4.8690   -0.4820 C   0  0  0  0  0  0  0  0  0  0  0  0
    0.3700   -5.9960   -1.0060 O   0  0  0  0  0  0  0  0  0  0  0  0
    0.8050   -4.5320    0.6920 O   0  0  0  0  0  0  0  0  0  0  0  0
   -0.8720   -3.0480   -3.1710 H   0  0  0  0  0  0  0  0  0  0  0  0
    0.7560   -2.9140   -2.4690 H   0  0  0  0  0  0  0  0  0  0  0  0
    0.1370   -4.5430   -3.1010 H   0  0  0  0  0  0  0  0  0  0  0  0
   -1.7040   -4.2930   -1.2400 H   0  0  0  0  0  0  0  0  0  0  0  0
   -0.0740   -1.9070   -0.6340 H   0  0  0  0  0  0  0  0  0  0  0  0
  1  2  1  0  0  0  0
  1 15  1  0  0  0  0
  2 17  1  6  0  0  0
  2 13  1  0  0  0  0
  2  3  1  0  0  0  0
  3  4  1  0  0  0  0
  3 19  1  0  0  0  0
  4 12  1  0  0  0  0
  5  4  2  0  0  0  0
  5  6  1  0  0  0  0
  6  7  1  0  0  0  0
  7  8  1  0  0  0  0
  8 22  1  0  0  0  0
  8  9  2  0  0  0  0
  9 23  1  0  0  0  0
 10  9  1  0  0  0  0
 10 24  1  0  0  0  0
 11 10  2  0  0  0  0
 12  7  2  0  0  0  0
 12 11  1  0  0  0  0
 13 26  1  0  0  0  0
 14 13  2  0  0  0  0
 16  1  1  0  0  0  0
 18  3  1  0  0  0  0
 20  5  1  0  0  0  0
 21  6  1  0  0  0  0
 25 11  1  0  0  0  0
 26 27  1  0  0  0  0
 26 35  1  0  0  0  0
 27 28  1  0  0  0  0
 27 36  1  1  0  0  0
 28 29  1  0  0  0  0
 28 38  1  0  0  0  0
 29 39  1  0  0  0  0
 29 40  1  0  0  0  0
 30 31  2  0  0  0  0
 30 29  1  0  0  0  0
 32 33  2  0  0  0  0
 32 27  1  0  0  0  0
 34 30  1  0  0  0  0
 37 28  1  0  0  0  0
 41 34  1  0  0  0  0
 42 49  1  0  0  0  0
 42 43  1  0  0  0  0
 43 51  1  6  0  0  0
 43 45  1  0  0  0  0
 43 44  1  0  0  0  0
 44 32  1  0  0  0  0
 45 47  1  0  0  0  0
 46 45  2  0  0  0  0
 48 42  1  0  0  0  0
 50 42  1  0  0  0  0
 52 44  1  0  0  0  0
M  END
$$$$
