WED.pdb
 OpenBabel07022419163D

 55 56  0  0  1  0  0  0  0  0999 V2000
    0.5980    2.4850    2.8050 N   0  0  0  0  0  0  0  0  0  0  0  0
    0.0310    1.9810    1.5930 C   0  0  1  0  0  0  0  0  0  0  0  0
    1.0470    1.9930    0.5000 C   0  0  0  0  0  0  0  0  0  0  0  0
    2.2570    1.1960    0.7540 C   0  0  0  0  0  0  0  0  0  0  0  0
    2.5200   -0.0910    0.2890 C   0  0  0  0  0  0  0  0  0  0  0  0
    3.7240   -0.4920    0.7560 N   0  0  0  0  0  0  0  0  0  0  0  0
    4.2440    0.4810    1.5010 C   0  0  0  0  0  0  0  0  0  0  0  0
    5.4530    0.5380    2.1800 C   0  0  0  0  0  0  0  0  0  0  0  0
    5.7660    1.6810    2.8830 C   0  0  0  0  0  0  0  0  0  0  0  0
    4.9230    2.7580    2.9310 C   0  0  0  0  0  0  0  0  0  0  0  0
    3.7180    2.6660    2.2370 C   0  0  0  0  0  0  0  0  0  0  0  0
    3.3620    1.5440    1.5220 C   0  0  0  0  0  0  0  0  0  0  0  0
   -0.6590    0.6860    1.7820 C   0  0  0  0  0  0  0  0  0  0  0  0
   -0.6230    0.1650    2.9240 O   0  0  0  0  0  0  0  0  0  0  0  0
   -0.0790    3.0960    3.3400 H   0  0  0  0  0  0  0  0  0  0  0  0
    1.0080    1.7530    3.4180 H   0  0  0  0  0  0  0  0  0  0  0  0
   -0.7780    2.7060    1.3090 H   0  0  0  0  0  0  0  0  0  0  0  0
    0.5830    1.6590   -0.4700 H   0  0  0  0  0  0  0  0  0  0  0  0
    1.3260    3.0740    0.3400 H   0  0  0  0  0  0  0  0  0  0  0  0
    1.9190   -0.7180   -0.3380 H   0  0  0  0  0  0  0  0  0  0  0  0
    4.1930   -1.4150    0.5760 H   0  0  0  0  0  0  0  0  0  0  0  0
    6.1540   -0.2820    2.1760 H   0  0  0  0  0  0  0  0  0  0  0  0
    6.7150    1.7620    3.4330 H   0  0  0  0  0  0  0  0  0  0  0  0
    5.1930    3.6470    3.4910 H   0  0  0  0  0  0  0  0  0  0  0  0
    3.0620    3.5210    2.2690 H   0  0  0  0  0  0  0  0  0  0  0  0
   -1.3550    0.0080    0.7540 N   0  0  0  0  0  0  0  0  0  0  0  0
   -2.0290   -1.2530    0.9580 C   0  0  1  0  0  0  0  0  0  0  0  0
   -3.5100   -1.0690    0.8590 C   0  0  0  0  0  0  0  0  0  0  0  0
   -3.9980   -0.5500   -0.4370 C   0  0  0  0  0  0  0  0  0  0  0  0
   -5.4740   -0.3940   -0.4370 C   0  0  0  0  0  0  0  0  0  0  0  0
   -6.0930   -0.7100    0.6090 O   0  0  0  0  0  0  0  0  0  0  0  0
   -1.4470   -2.2870    0.1090 C   0  0  0  0  0  0  0  0  0  0  0  0
   -0.4800   -1.9870   -0.6230 O   0  0  0  0  0  0  0  0  0  0  0  0
   -6.2040    0.0700   -1.4970 O   0  0  0  0  0  0  0  0  0  0  0  0
   -1.3740    0.4500   -0.1900 H   0  0  0  0  0  0  0  0  0  0  0  0
   -1.7970   -1.5470    2.0290 H   0  0  0  0  0  0  0  0  0  0  0  0
   -4.0170   -2.0470    1.0530 H   0  0  0  0  0  0  0  0  0  0  0  0
   -3.8250   -0.4050    1.6900 H   0  0  0  0  0  0  0  0  0  0  0  0
   -3.8060   -1.3090   -1.2550 H   0  0  0  0  0  0  0  0  0  0  0  0
   -3.5580    0.4040   -0.7560 H   0  0  0  0  0  0  0  0  0  0  0  0
   -7.2070    0.1880   -1.5150 H   0  0  0  0  0  0  0  0  0  0  0  0
   -1.9200   -3.6230    0.0680 N   0  0  0  0  0  0  0  0  0  0  0  0
   -1.3080   -4.6000   -0.7680 C   0  0  1  0  0  0  0  0  0  0  0  0
   -1.6500   -4.5670   -2.2120 C   0  0  0  0  0  0  0  0  0  0  0  0
   -1.3190   -3.3550   -2.9480 C   0  0  0  0  0  0  0  0  0  0  0  0
   -0.1380   -3.1990   -3.4210 O   0  0  0  0  0  0  0  0  0  0  0  0
    0.1670   -4.7220   -0.5780 C   0  0  0  0  0  0  0  0  0  0  0  0
    0.7290   -4.0440    0.2950 O   0  0  0  0  0  0  0  0  0  0  0  0
   -2.1810   -2.3020   -3.2060 O   0  0  0  0  0  0  0  0  0  0  0  0
    0.8790   -5.5820   -1.3710 O   0  0  0  0  0  0  0  0  0  0  0  0
   -2.7600   -3.8800    0.6910 H   0  0  0  0  0  0  0  0  0  0  0  0
   -1.6720   -5.6350   -0.4060 H   0  0  0  0  0  0  0  0  0  0  0  0
   -2.7240   -4.8250   -2.3500 H   0  0  0  0  0  0  0  0  0  0  0  0
   -1.0590   -5.4060   -2.6890 H   0  0  0  0  0  0  0  0  0  0  0  0
   -1.7910   -1.3500   -3.1860 H   0  0  0  0  0  0  0  0  0  0  0  0
  1 15  1  0  0  0  0
  1 16  1  0  0  0  0
  2 17  1  6  0  0  0
  2 13  1  0  0  0  0
  2  1  1  0  0  0  0
  3  4  1  0  0  0  0
  3  2  1  0  0  0  0
  4 12  1  0  0  0  0
  5  4  2  0  0  0  0
  5  6  1  0  0  0  0
  6  7  1  0  0  0  0
  7 12  2  0  0  0  0
  7  8  1  0  0  0  0
  8  9  2  0  0  0  0
  9 10  1  0  0  0  0
  9 23  1  0  0  0  0
 10 24  1  0  0  0  0
 11 25  1  0  0  0  0
 11 10  2  0  0  0  0
 12 11  1  0  0  0  0
 13 14  2  0  0  0  0
 18  3  1  0  0  0  0
 19  3  1  0  0  0  0
 20  5  1  0  0  0  0
 21  6  1  0  0  0  0
 22  8  1  0  0  0  0
 26 27  1  0  0  0  0
 26 13  1  0  0  0  0
 27 36  1  1  0  0  0
 28 27  1  0  0  0  0
 28 37  1  0  0  0  0
 28 38  1  0  0  0  0
 29 28  1  0  0  0  0
 30 29  1  0  0  0  0
 30 31  2  0  0  0  0
 32 27  1  0  0  0  0
 33 32  2  0  0  0  0
 34 30  1  0  0  0  0
 35 26  1  0  0  0  0
 39 29  1  0  0  0  0
 40 29  1  0  0  0  0
 41 34  1  0  0  0  0
 42 32  1  0  0  0  0
 42 51  1  0  0  0  0
 43 47  1  0  0  0  0
 43 52  1  1  0  0  0
 43 42  1  0  0  0  0
 44 43  1  0  0  0  0
 45 44  1  0  0  0  0
 46 45  2  0  0  0  0
 47 48  1  0  0  0  0
 49 55  1  0  0  0  0
 49 45  1  0  0  0  0
 50 47  2  0  0  0  0
 53 44  1  0  0  0  0
 54 44  1  0  0  0  0
M  END
$$$$
