WEG.pdb
 OpenBabel07022419163D

 49 50  0  0  1  0  0  0  0  0999 V2000
   -0.2340    0.3100   -1.6860 N   0  0  0  0  0  0  0  0  0  0  0  0
    0.7130    0.4320   -0.6100 C   0  0  1  0  0  0  0  0  0  0  0  0
    1.2590    1.8360   -0.4660 C   0  0  0  0  0  0  0  0  0  0  0  0
    2.2230    1.8700    0.6610 C   0  0  0  0  0  0  0  0  0  0  0  0
    2.0280    2.3890    1.9260 C   0  0  0  0  0  0  0  0  0  0  0  0
    3.1570    2.2170    2.6380 N   0  0  0  0  0  0  0  0  0  0  0  0
    4.0910    1.6060    1.8950 C   0  0  0  0  0  0  0  0  0  0  0  0
    5.3840    1.2150    2.1640 C   0  0  0  0  0  0  0  0  0  0  0  0
    6.1330    0.5920    1.1940 C   0  0  0  0  0  0  0  0  0  0  0  0
    5.5680    0.3600   -0.0650 C   0  0  0  0  0  0  0  0  0  0  0  0
    4.2760    0.7490   -0.3370 C   0  0  0  0  0  0  0  0  0  0  0  0
    3.5170    1.3780    0.6410 C   0  0  0  0  0  0  0  0  0  0  0  0
    0.1550   -0.0930    0.6770 C   0  0  0  0  0  0  0  0  0  0  0  0
    0.7890   -0.0720    1.7400 O   0  0  0  0  0  0  0  0  0  0  0  0
    0.2910    0.4670   -2.5750 H   0  0  0  0  0  0  0  0  0  0  0  0
   -1.0540    0.9400   -1.5840 H   0  0  0  0  0  0  0  0  0  0  0  0
    1.5820   -0.2070   -0.8870 H   0  0  0  0  0  0  0  0  0  0  0  0
    0.4670    2.6010   -0.3490 H   0  0  0  0  0  0  0  0  0  0  0  0
    1.8430    2.0560   -1.3860 H   0  0  0  0  0  0  0  0  0  0  0  0
    1.1170    2.8560    2.2850 H   0  0  0  0  0  0  0  0  0  0  0  0
    3.2690    2.5210    3.6180 H   0  0  0  0  0  0  0  0  0  0  0  0
    5.8140    1.3970    3.1350 H   0  0  0  0  0  0  0  0  0  0  0  0
    7.1590    0.2600    1.3390 H   0  0  0  0  0  0  0  0  0  0  0  0
    6.1720   -0.1380   -0.8380 H   0  0  0  0  0  0  0  0  0  0  0  0
    3.8230    0.5760   -1.3050 H   0  0  0  0  0  0  0  0  0  0  0  0
   -1.1420   -0.6310    0.6770 N   0  0  0  0  0  0  0  0  0  0  0  0
   -1.8360   -1.1780    1.8160 C   0  0  1  0  0  0  0  0  0  0  0  0
   -3.0170   -0.4170    2.2480 C   0  0  0  0  0  0  0  0  0  0  0  0
   -4.1200   -0.1690    1.3150 C   0  0  0  0  0  0  0  0  0  0  0  0
   -4.8470   -1.2670    0.7220 C   0  0  0  0  0  0  0  0  0  0  0  0
   -4.6940   -2.4960    0.8750 O   0  0  0  0  0  0  0  0  0  0  0  0
   -1.9650   -2.6270    1.7130 C   0  0  0  0  0  0  0  0  0  0  0  0
   -2.4420   -3.3810    2.6010 O   0  0  0  0  0  0  0  0  0  0  0  0
   -5.8930   -0.9070   -0.1680 O   0  0  0  0  0  0  0  0  0  0  0  0
   -1.6760   -0.6440   -0.2330 H   0  0  0  0  0  0  0  0  0  0  0  0
   -1.0730   -1.0360    2.6780 H   0  0  0  0  0  0  0  0  0  0  0  0
   -3.4560   -0.9960    3.1250 H   0  0  0  0  0  0  0  0  0  0  0  0
   -2.7200    0.5470    2.7320 H   0  0  0  0  0  0  0  0  0  0  0  0
   -3.8590    0.5380    0.4790 H   0  0  0  0  0  0  0  0  0  0  0  0
   -4.8930    0.4460    1.8910 H   0  0  0  0  0  0  0  0  0  0  0  0
   -6.3300   -1.5970   -0.7570 H   0  0  0  0  0  0  0  0  0  0  0  0
   -1.5190   -3.2850    0.5100 N   0  0  0  0  0  0  0  0  0  0  0  0
   -1.6330   -4.7240    0.3800 C   0  0  0  0  0  0  0  0  0  0  0  0
   -1.0950   -5.0990   -0.9460 C   0  0  0  0  0  0  0  0  0  0  0  0
   -1.0930   -6.3040   -1.2800 O   0  0  0  0  0  0  0  0  0  0  0  0
   -0.5940   -4.1660   -1.8340 O   0  0  0  0  0  0  0  0  0  0  0  0
   -1.1120   -2.6960   -0.2590 H   0  0  0  0  0  0  0  0  0  0  0  0
   -2.7180   -5.0360    0.3690 H   0  0  0  0  0  0  0  0  0  0  0  0
   -1.0760   -5.2540    1.1790 H   0  0  0  0  0  0  0  0  0  0  0  0
  1 16  1  0  0  0  0
  1  2  1  0  0  0  0
  2 17  1  6  0  0  0
  2  3  1  0  0  0  0
  2 13  1  0  0  0  0
  3 18  1  0  0  0  0
  3  4  1  0  0  0  0
  4  5  2  0  0  0  0
  5 20  1  0  0  0  0
  5  6  1  0  0  0  0
  6 21  1  0  0  0  0
  7  8  1  0  0  0  0
  7  6  1  0  0  0  0
  8 22  1  0  0  0  0
  9 23  1  0  0  0  0
  9  8  2  0  0  0  0
 10  9  1  0  0  0  0
 11 10  2  0  0  0  0
 11 12  1  0  0  0  0
 12  4  1  0  0  0  0
 12  7  2  0  0  0  0
 13 26  1  0  0  0  0
 13 14  2  0  0  0  0
 15  1  1  0  0  0  0
 19  3  1  0  0  0  0
 24 10  1  0  0  0  0
 25 11  1  0  0  0  0
 26 27  1  0  0  0  0
 27 28  1  0  0  0  0
 27 36  1  1  0  0  0
 28 38  1  0  0  0  0
 28 37  1  0  0  0  0
 29 40  1  0  0  0  0
 29 28  1  0  0  0  0
 30 31  2  0  0  0  0
 30 29  1  0  0  0  0
 32 27  1  0  0  0  0
 32 33  2  0  0  0  0
 34 30  1  0  0  0  0
 35 26  1  0  0  0  0
 39 29  1  0  0  0  0
 41 34  1  0  0  0  0
 42 32  1  0  0  0  0
 43 42  1  0  0  0  0
 43 49  1  0  0  0  0
 44 43  1  0  0  0  0
 45 44  1  0  0  0  0
 46 44  2  0  0  0  0
 47 42  1  0  0  0  0
 48 43  1  0  0  0  0
M  END
$$$$
