WEI.pdb
 OpenBabel07022419163D

 61 62  0  0  1  0  0  0  0  0999 V2000
   -0.4480    0.1580    4.1470 N   0  0  0  0  0  0  0  0  0  0  0  0
   -0.2100    0.3480    2.7180 C   0  0  1  0  0  0  0  0  0  0  0  0
    0.8520   -0.5720    2.1870 C   0  0  0  0  0  0  0  0  0  0  0  0
    2.1500   -0.3550    2.8470 C   0  0  0  0  0  0  0  0  0  0  0  0
    2.7200   -1.1110    3.8330 C   0  0  0  0  0  0  0  0  0  0  0  0
    3.9200   -0.5550    4.1860 N   0  0  0  0  0  0  0  0  0  0  0  0
    4.1340    0.5570    3.4350 C   0  0  0  0  0  0  0  0  0  0  0  0
    5.1780    1.4440    3.4070 C   0  0  0  0  0  0  0  0  0  0  0  0
    5.1490    2.5030    2.5240 C   0  0  0  0  0  0  0  0  0  0  0  0
    4.0700    2.6630    1.6760 C   0  0  0  0  0  0  0  0  0  0  0  0
    3.0310    1.7500    1.7310 C   0  0  0  0  0  0  0  0  0  0  0  0
    3.0300    0.6840    2.5990 C   0  0  0  0  0  0  0  0  0  0  0  0
   -1.4430    0.2160    1.9080 C   0  0  0  0  0  0  0  0  0  0  0  0
   -2.5440    0.0270    2.5120 O   0  0  0  0  0  0  0  0  0  0  0  0
   -0.5150    1.1060    4.6320 H   0  0  0  0  0  0  0  0  0  0  0  0
    0.4240   -0.2580    4.5510 H   0  0  0  0  0  0  0  0  0  0  0  0
    0.2230    1.3860    2.6180 H   0  0  0  0  0  0  0  0  0  0  0  0
    0.9430   -0.3130    1.0820 H   0  0  0  0  0  0  0  0  0  0  0  0
    0.4740   -1.5990    2.2060 H   0  0  0  0  0  0  0  0  0  0  0  0
    2.3520   -2.0070    4.3090 H   0  0  0  0  0  0  0  0  0  0  0  0
    4.5820   -0.9080    4.9080 H   0  0  0  0  0  0  0  0  0  0  0  0
    6.0360    1.3550    4.0510 H   0  0  0  0  0  0  0  0  0  0  0  0
    5.9570    3.2310    2.4600 H   0  0  0  0  0  0  0  0  0  0  0  0
    4.0840    3.5020    0.9980 H   0  0  0  0  0  0  0  0  0  0  0  0
    2.1730    1.8740    1.0640 H   0  0  0  0  0  0  0  0  0  0  0  0
   -1.4750    0.2870    0.5140 N   0  0  0  0  0  0  0  0  0  0  0  0
   -2.6980    0.1770   -0.3080 C   0  0  1  0  0  0  0  0  0  0  0  0
   -2.7330    1.4360   -1.1220 C   0  0  0  0  0  0  0  0  0  0  0  0
   -3.8890    1.5800   -2.0480 C   0  0  0  0  0  0  0  0  0  0  0  0
   -3.8570    2.8720   -2.7970 C   0  0  0  0  0  0  0  0  0  0  0  0
   -4.6960    3.0120   -3.7230 O   0  0  0  0  0  0  0  0  0  0  0  0
   -2.5650   -1.0170   -1.1430 C   0  0  0  0  0  0  0  0  0  0  0  0
   -3.3920   -1.2420   -2.0620 O   0  0  0  0  0  0  0  0  0  0  0  0
   -2.9900    3.9050   -2.5540 O   0  0  0  0  0  0  0  0  0  0  0  0
   -0.5920    0.4250   -0.0310 H   0  0  0  0  0  0  0  0  0  0  0  0
   -3.5720    0.1050    0.3860 H   0  0  0  0  0  0  0  0  0  0  0  0
   -1.7660    1.6240   -1.6400 H   0  0  0  0  0  0  0  0  0  0  0  0
   -2.7880    2.2750   -0.3640 H   0  0  0  0  0  0  0  0  0  0  0  0
   -4.8540    1.5600   -1.4920 H   0  0  0  0  0  0  0  0  0  0  0  0
   -3.9500    0.7940   -2.8260 H   0  0  0  0  0  0  0  0  0  0  0  0
   -3.2790    4.8830   -2.7690 H   0  0  0  0  0  0  0  0  0  0  0  0
   -0.0590   -4.0730    0.7770 C   0  0  0  0  0  0  0  0  0  0  0  0
   -0.3710   -4.8890   -0.4440 C   0  0  0  0  0  0  0  0  0  0  0  0
   -0.4100   -4.1230   -1.7180 C   0  0  2  0  0  0  0  0  0  0  0  0
    0.9500   -3.4530   -1.9840 C   0  0  0  0  0  0  0  0  0  0  0  0
   -1.4820   -3.1370   -1.8970 C   0  0  2  0  0  0  0  0  0  0  0  0
   -1.5310   -2.0110   -1.0100 N   0  0  0  0  0  0  0  0  0  0  0  0
   -2.7820   -3.9780   -1.6170 C   0  0  0  0  0  0  0  0  0  0  0  0
   -2.9850   -5.0150   -2.2610 O   0  0  0  0  0  0  0  0  0  0  0  0
   -3.6620   -3.5450   -0.6660 O   0  0  0  0  0  0  0  0  0  0  0  0
    0.7680   -3.3670    0.6250 H   0  0  0  0  0  0  0  0  0  0  0  0
    0.2510   -4.8190    1.5850 H   0  0  0  0  0  0  0  0  0  0  0  0
   -0.9670   -3.6270    1.1860 H   0  0  0  0  0  0  0  0  0  0  0  0
    0.4680   -5.6510   -0.5040 H   0  0  0  0  0  0  0  0  0  0  0  0
   -1.2700   -5.5200   -0.2830 H   0  0  0  0  0  0  0  0  0  0  0  0
   -0.4690   -4.8980   -2.5490 H   0  0  0  0  0  0  0  0  0  0  0  0
    1.7150   -4.2510   -1.8900 H   0  0  0  0  0  0  0  0  0  0  0  0
    0.8650   -3.0810   -3.0440 H   0  0  0  0  0  0  0  0  0  0  0  0
    1.1070   -2.6150   -1.3100 H   0  0  0  0  0  0  0  0  0  0  0  0
   -1.6880   -2.8820   -2.9700 H   0  0  0  0  0  0  0  0  0  0  0  0
   -0.8210   -1.8810   -0.2790 H   0  0  0  0  0  0  0  0  0  0  0  0
  1 16  1  0  0  0  0
  1 15  1  0  0  0  0
  2 17  1  6  0  0  0
  2  1  1  0  0  0  0
  3 19  1  0  0  0  0
  3  2  1  0  0  0  0
  3  4  1  0  0  0  0
  4  5  2  0  0  0  0
  5  6  1  0  0  0  0
  5 20  1  0  0  0  0
  6 21  1  0  0  0  0
  7  6  1  0  0  0  0
  8  7  1  0  0  0  0
  8 22  1  0  0  0  0
  9  8  2  0  0  0  0
 10 11  2  0  0  0  0
 10  9  1  0  0  0  0
 11 12  1  0  0  0  0
 12  4  1  0  0  0  0
 12  7  2  0  0  0  0
 13 14  2  0  0  0  0
 13  2  1  0  0  0  0
 18  3  1  0  0  0  0
 23  9  1  0  0  0  0
 24 10  1  0  0  0  0
 25 11  1  0  0  0  0
 26 13  1  0  0  0  0
 27 36  1  1  0  0  0
 27 26  1  0  0  0  0
 28 38  1  0  0  0  0
 28 27  1  0  0  0  0
 29 39  1  0  0  0  0
 29 28  1  0  0  0  0
 30 34  1  0  0  0  0
 30 29  1  0  0  0  0
 31 30  2  0  0  0  0
 32 47  1  0  0  0  0
 32 27  1  0  0  0  0
 33 32  2  0  0  0  0
 35 26  1  0  0  0  0
 37 28  1  0  0  0  0
 40 29  1  0  0  0  0
 41 34  1  0  0  0  0
 42 53  1  0  0  0  0
 42 52  1  0  0  0  0
 43 55  1  0  0  0  0
 43 42  1  0  0  0  0
 44 56  1  6  0  0  0
 44 43  1  0  0  0  0
 45 57  1  0  0  0  0
 45 44  1  0  0  0  0
 45 59  1  0  0  0  0
 46 60  1  6  0  0  0
 46 44  1  0  0  0  0
 46 48  1  0  0  0  0
 46 47  1  0  0  0  0
 47 61  1  0  0  0  0
 48 50  1  0  0  0  0
 49 48  2  0  0  0  0
 51 42  1  0  0  0  0
 54 43  1  0  0  0  0
 58 45  1  0  0  0  0
M  END
$$$$
