WEK.pdb
 OpenBabel07022419163D

 63 64  0  0  1  0  0  0  0  0999 V2000
    0.7560    1.0550    5.3690 N   0  0  0  0  0  0  0  0  0  0  0  0
    0.2120    1.6790    4.1390 C   0  0  1  0  0  0  0  0  0  0  0  0
    1.2950    2.4750    3.5380 C   0  0  0  0  0  0  0  0  0  0  0  0
    2.4990    1.6770    3.1950 C   0  0  0  0  0  0  0  0  0  0  0  0
    3.6290    1.5040    4.0140 C   0  0  0  0  0  0  0  0  0  0  0  0
    4.4810    0.6980    3.3950 N   0  0  0  0  0  0  0  0  0  0  0  0
    4.0120    0.3080    2.2020 C   0  0  0  0  0  0  0  0  0  0  0  0
    4.5130   -0.4930    1.2070 C   0  0  0  0  0  0  0  0  0  0  0  0
    3.7800   -0.7020    0.0490 C   0  0  0  0  0  0  0  0  0  0  0  0
    2.5570   -0.1130   -0.1070 C   0  0  0  0  0  0  0  0  0  0  0  0
    2.0760    0.6890    0.9140 C   0  0  0  0  0  0  0  0  0  0  0  0
    2.7760    0.9160    2.0740 C   0  0  0  0  0  0  0  0  0  0  0  0
   -0.3890    0.6410    3.3020 C   0  0  0  0  0  0  0  0  0  0  0  0
   -0.1910   -0.6110    3.5410 O   0  0  0  0  0  0  0  0  0  0  0  0
    1.2640    0.1970    5.0460 H   0  0  0  0  0  0  0  0  0  0  0  0
    1.3270    1.7470    5.8670 H   0  0  0  0  0  0  0  0  0  0  0  0
   -0.5770    2.3810    4.5590 H   0  0  0  0  0  0  0  0  0  0  0  0
    1.6430    3.2500    4.2850 H   0  0  0  0  0  0  0  0  0  0  0  0
    0.9750    3.0900    2.6660 H   0  0  0  0  0  0  0  0  0  0  0  0
    3.7510    1.9630    4.9800 H   0  0  0  0  0  0  0  0  0  0  0  0
    5.4310    0.3620    3.7350 H   0  0  0  0  0  0  0  0  0  0  0  0
    5.4790   -0.9830    1.2840 H   0  0  0  0  0  0  0  0  0  0  0  0
    4.1440   -1.3280   -0.7570 H   0  0  0  0  0  0  0  0  0  0  0  0
    1.9380   -0.2220   -0.9700 H   0  0  0  0  0  0  0  0  0  0  0  0
    1.1210    1.1680    0.8090 H   0  0  0  0  0  0  0  0  0  0  0  0
   -1.2210    0.8880    2.1970 N   0  0  0  0  0  0  0  0  0  0  0  0
   -1.8180   -0.2210    1.4170 C   0  0  1  0  0  0  0  0  0  0  0  0
   -3.2640   -0.3040    1.8870 C   0  0  0  0  0  0  0  0  0  0  0  0
   -4.0300   -1.3860    1.2360 C   0  0  0  0  0  0  0  0  0  0  0  0
   -3.4730   -2.7320    1.4910 C   0  0  0  0  0  0  0  0  0  0  0  0
   -3.9200   -3.7010    0.8390 O   0  0  0  0  0  0  0  0  0  0  0  0
   -1.7720    0.0760   -0.0050 C   0  0  0  0  0  0  0  0  0  0  0  0
   -1.4160    1.2640   -0.3720 O   0  0  0  0  0  0  0  0  0  0  0  0
   -2.4880   -2.9270    2.4210 O   0  0  0  0  0  0  0  0  0  0  0  0
   -1.4510    1.8360    1.8800 H   0  0  0  0  0  0  0  0  0  0  0  0
   -1.3150   -1.1280    1.7640 H   0  0  0  0  0  0  0  0  0  0  0  0
   -3.2380   -0.4420    2.9940 H   0  0  0  0  0  0  0  0  0  0  0  0
   -3.7060    0.7060    1.6570 H   0  0  0  0  0  0  0  0  0  0  0  0
   -4.2320   -1.2840    0.1640 H   0  0  0  0  0  0  0  0  0  0  0  0
   -5.0970   -1.3570    1.6870 H   0  0  0  0  0  0  0  0  0  0  0  0
   -2.3880   -3.7740    2.9340 H   0  0  0  0  0  0  0  0  0  0  0  0
   -2.0690   -0.7780   -1.0820 N   0  0  0  0  0  0  0  0  0  0  0  0
   -2.0010   -0.3890   -2.4880 C   0  0  1  0  0  0  0  0  0  0  0  0
   -1.2200   -1.4470   -3.2150 C   0  0  0  0  0  0  0  0  0  0  0  0
    0.1750   -1.6420   -2.7370 C   0  0  0  0  0  0  0  0  0  0  0  0
    0.8200   -2.7380   -3.5590 C   0  0  0  0  0  0  0  0  0  0  0  0
    0.1280   -4.0590   -3.4640 C   0  0  0  0  0  0  0  0  0  0  0  0
    0.0750   -4.5880   -2.1150 N   0  0  0  0  0  0  0  0  0  0  0  0
   -3.3260   -0.2420   -3.0990 C   0  0  0  0  0  0  0  0  0  0  0  0
   -4.3500   -0.4270   -2.4050 O   0  0  0  0  0  0  0  0  0  0  0  0
   -3.4870    0.0970   -4.4240 O   0  0  0  0  0  0  0  0  0  0  0  0
   -2.3230   -1.7490   -0.9060 H   0  0  0  0  0  0  0  0  0  0  0  0
   -1.4840    0.5790   -2.5970 H   0  0  0  0  0  0  0  0  0  0  0  0
   -1.7900   -2.4110   -3.2310 H   0  0  0  0  0  0  0  0  0  0  0  0
   -1.1820   -1.1440   -4.3020 H   0  0  0  0  0  0  0  0  0  0  0  0
    0.7680   -0.7120   -2.9940 H   0  0  0  0  0  0  0  0  0  0  0  0
    0.2720   -1.7790   -1.6610 H   0  0  0  0  0  0  0  0  0  0  0  0
    0.7470   -2.4190   -4.6320 H   0  0  0  0  0  0  0  0  0  0  0  0
    1.8850   -2.8810   -3.3150 H   0  0  0  0  0  0  0  0  0  0  0  0
   -0.8590   -4.0740   -3.9420 H   0  0  0  0  0  0  0  0  0  0  0  0
    0.7660   -4.7830   -4.0540 H   0  0  0  0  0  0  0  0  0  0  0  0
   -0.7040   -4.2100   -1.5460 H   0  0  0  0  0  0  0  0  0  0  0  0
    1.0060   -4.5830   -1.6630 H   0  0  0  0  0  0  0  0  0  0  0  0
  1 16  1  0  0  0  0
  2 17  1  1  0  0  0
  2  1  1  0  0  0  0
  3  2  1  0  0  0  0
  3 18  1  0  0  0  0
  4  3  1  0  0  0  0
  4  5  2  0  0  0  0
  5 20  1  0  0  0  0
  6 21  1  0  0  0  0
  6  5  1  0  0  0  0
  7  6  1  0  0  0  0
  8 22  1  0  0  0  0
  8  7  2  0  0  0  0
  9  8  1  0  0  0  0
 10  9  2  0  0  0  0
 10 11  1  0  0  0  0
 11 12  2  0  0  0  0
 12  7  1  0  0  0  0
 12  4  1  0  0  0  0
 13 14  2  0  0  0  0
 13  2  1  0  0  0  0
 15  1  1  0  0  0  0
 19  3  1  0  0  0  0
 23  9  1  0  0  0  0
 24 10  1  0  0  0  0
 25 11  1  0  0  0  0
 26 13  1  0  0  0  0
 27 36  1  1  0  0  0
 27 28  1  0  0  0  0
 27 26  1  0  0  0  0
 28 37  1  0  0  0  0
 29 30  1  0  0  0  0
 29 40  1  0  0  0  0
 29 28  1  0  0  0  0
 30 34  1  0  0  0  0
 31 30  2  0  0  0  0
 32 27  1  0  0  0  0
 33 32  2  0  0  0  0
 34 41  1  0  0  0  0
 35 26  1  0  0  0  0
 38 28  1  0  0  0  0
 39 29  1  0  0  0  0
 42 52  1  0  0  0  0
 42 32  1  0  0  0  0
 43 53  1  6  0  0  0
 43 42  1  0  0  0  0
 44 45  1  0  0  0  0
 44 43  1  0  0  0  0
 45 57  1  0  0  0  0
 46 47  1  0  0  0  0
 46 59  1  0  0  0  0
 46 45  1  0  0  0  0
 47 48  1  0  0  0  0
 48 63  1  0  0  0  0
 48 62  1  0  0  0  0
 49 43  1  0  0  0  0
 49 50  1  0  0  0  0
 51 49  2  0  0  0  0
 54 44  1  0  0  0  0
 55 44  1  0  0  0  0
 56 45  1  0  0  0  0
 58 46  1  0  0  0  0
 60 47  1  0  0  0  0
 61 47  1  0  0  0  0
M  END
$$$$
