WEM.pdb
 OpenBabel07022419163D

 59 60  0  0  1  0  0  0  0  0999 V2000
   -0.0920    3.2710    0.2560 N   0  0  0  0  0  0  0  0  0  0  0  0
   -0.4030    1.9100   -0.0650 C   0  0  1  0  0  0  0  0  0  0  0  0
    0.7550    1.3100   -0.8440 C   0  0  0  0  0  0  0  0  0  0  0  0
    2.0310    1.3380   -0.0930 C   0  0  0  0  0  0  0  0  0  0  0  0
    2.5550    0.3020    0.6390 C   0  0  0  0  0  0  0  0  0  0  0  0
    3.7150    0.6750    1.2260 N   0  0  0  0  0  0  0  0  0  0  0  0
    3.9550    1.9530    0.8810 C   0  0  0  0  0  0  0  0  0  0  0  0
    5.0020    2.7880    1.2110 C   0  0  0  0  0  0  0  0  0  0  0  0
    5.0410    4.0690    0.7300 C   0  0  0  0  0  0  0  0  0  0  0  0
    4.0340    4.5210   -0.0830 C   0  0  0  0  0  0  0  0  0  0  0  0
    2.9880    3.6770   -0.4080 C   0  0  0  0  0  0  0  0  0  0  0  0
    2.9160    2.3820    0.0580 C   0  0  0  0  0  0  0  0  0  0  0  0
   -0.6760    1.0720    1.1610 C   0  0  0  0  0  0  0  0  0  0  0  0
   -0.4090    1.6290    2.2570 O   0  0  0  0  0  0  0  0  0  0  0  0
   -0.9090    3.9080    0.2890 H   0  0  0  0  0  0  0  0  0  0  0  0
    0.4110    3.3520    1.1480 H   0  0  0  0  0  0  0  0  0  0  0  0
   -1.2800    1.8890   -0.7170 H   0  0  0  0  0  0  0  0  0  0  0  0
    0.4740    0.2770   -1.1330 H   0  0  0  0  0  0  0  0  0  0  0  0
    0.8370    1.9010   -1.7780 H   0  0  0  0  0  0  0  0  0  0  0  0
    2.1420   -0.6880    0.7660 H   0  0  0  0  0  0  0  0  0  0  0  0
    4.3370    0.1010    1.8420 H   0  0  0  0  0  0  0  0  0  0  0  0
    5.8240    2.4700    1.8540 H   0  0  0  0  0  0  0  0  0  0  0  0
    5.8750    4.7320    0.9930 H   0  0  0  0  0  0  0  0  0  0  0  0
    4.0310    5.5400   -0.4880 H   0  0  0  0  0  0  0  0  0  0  0  0
    2.1840    4.0110   -1.0590 H   0  0  0  0  0  0  0  0  0  0  0  0
   -1.1950   -0.2390    1.0530 N   0  0  0  0  0  0  0  0  0  0  0  0
   -1.4410   -1.0100    2.2260 C   0  0  1  0  0  0  0  0  0  0  0  0
   -2.8100   -0.9380    2.8160 C   0  0  0  0  0  0  0  0  0  0  0  0
   -3.9680   -1.3470    2.0180 C   0  0  0  0  0  0  0  0  0  0  0  0
   -4.3040   -0.5970    0.8160 C   0  0  0  0  0  0  0  0  0  0  0  0
   -3.7540    0.4640    0.4540 O   0  0  0  0  0  0  0  0  0  0  0  0
   -0.9600   -2.4160    2.1040 C   0  0  0  0  0  0  0  0  0  0  0  0
   -1.0760   -3.2160    3.0830 O   0  0  0  0  0  0  0  0  0  0  0  0
   -5.3250   -1.0960   -0.0120 O   0  0  0  0  0  0  0  0  0  0  0  0
   -1.3770   -0.6420    0.1180 H   0  0  0  0  0  0  0  0  0  0  0  0
   -0.7890   -0.5400    3.0410 H   0  0  0  0  0  0  0  0  0  0  0  0
   -2.9890    0.0950    3.2040 H   0  0  0  0  0  0  0  0  0  0  0  0
   -2.7850   -1.5750    3.7340 H   0  0  0  0  0  0  0  0  0  0  0  0
   -4.8750   -1.2300    2.7010 H   0  0  0  0  0  0  0  0  0  0  0  0
   -4.0010   -2.4720    1.8290 H   0  0  0  0  0  0  0  0  0  0  0  0
   -5.3830   -0.7400   -0.9490 H   0  0  0  0  0  0  0  0  0  0  0  0
   -3.3850   -5.2260   -2.4110 C   0  0  0  0  0  0  0  0  0  0  0  0
   -1.6140   -5.3710   -2.7330 S   0  0  0  0  0  0  0  0  0  0  0  0
   -0.6330   -4.4920   -1.4960 C   0  0  0  0  0  0  0  0  0  0  0  0
   -0.7670   -5.1300   -0.1290 C   0  0  0  0  0  0  0  0  0  0  0  0
    0.0830   -4.3430    0.8690 C   0  0  2  0  0  0  0  0  0  0  0  0
   -0.3600   -2.9640    0.9380 N   0  0  0  0  0  0  0  0  0  0  0  0
    1.4660   -4.3960    0.3440 C   0  0  0  0  0  0  0  0  0  0  0  0
    2.0720   -5.5060    0.2060 O   0  0  0  0  0  0  0  0  0  0  0  0
    2.2030   -3.2830   -0.0320 O   0  0  0  0  0  0  0  0  0  0  0  0
   -3.8180   -4.2990   -2.8210 H   0  0  0  0  0  0  0  0  0  0  0  0
   -3.8850   -6.0790   -2.9350 H   0  0  0  0  0  0  0  0  0  0  0  0
   -3.6350   -5.3220   -1.3360 H   0  0  0  0  0  0  0  0  0  0  0  0
    0.4160   -4.4870   -1.8180 H   0  0  0  0  0  0  0  0  0  0  0  0
   -0.9940   -3.4520   -1.4440 H   0  0  0  0  0  0  0  0  0  0  0  0
   -0.3020   -6.1310   -0.1910 H   0  0  0  0  0  0  0  0  0  0  0  0
   -1.8000   -5.2440    0.1910 H   0  0  0  0  0  0  0  0  0  0  0  0
   -0.0470   -4.8600    1.8460 H   0  0  0  0  0  0  0  0  0  0  0  0
   -0.2370   -2.3660    0.1180 H   0  0  0  0  0  0  0  0  0  0  0  0
  1 15  1  0  0  0  0
  1 16  1  0  0  0  0
  2 17  1  6  0  0  0
  2  1  1  0  0  0  0
  2 13  1  0  0  0  0
  3  4  1  0  0  0  0
  3  2  1  0  0  0  0
  4 12  1  0  0  0  0
  4  5  2  0  0  0  0
  5 20  1  0  0  0  0
  5  6  1  0  0  0  0
  6 21  1  0  0  0  0
  7  8  1  0  0  0  0
  7  6  1  0  0  0  0
  8 22  1  0  0  0  0
  9 23  1  0  0  0  0
  9  8  2  0  0  0  0
 10  9  1  0  0  0  0
 11 10  2  0  0  0  0
 11 12  1  0  0  0  0
 12  7  2  0  0  0  0
 13 14  2  0  0  0  0
 18  3  1  0  0  0  0
 19  3  1  0  0  0  0
 24 10  1  0  0  0  0
 25 11  1  0  0  0  0
 26 13  1  0  0  0  0
 26 27  1  0  0  0  0
 27 28  1  0  0  0  0
 27 36  1  1  0  0  0
 28 37  1  0  0  0  0
 28 38  1  0  0  0  0
 29 39  1  0  0  0  0
 29 28  1  0  0  0  0
 30 29  1  0  0  0  0
 31 30  2  0  0  0  0
 32 27  1  0  0  0  0
 32 33  2  0  0  0  0
 34 30  1  0  0  0  0
 35 26  1  0  0  0  0
 40 29  1  0  0  0  0
 41 34  1  0  0  0  0
 42 53  1  0  0  0  0
 43 42  1  0  0  0  0
 43 44  1  0  0  0  0
 44 55  1  0  0  0  0
 44 45  1  0  0  0  0
 45 57  1  0  0  0  0
 45 46  1  0  0  0  0
 46 47  1  0  0  0  0
 46 58  1  1  0  0  0
 47 32  1  0  0  0  0
 48 46  1  0  0  0  0
 49 48  1  0  0  0  0
 50 48  2  0  0  0  0
 51 42  1  0  0  0  0
 52 42  1  0  0  0  0
 54 44  1  0  0  0  0
 56 45  1  0  0  0  0
 59 47  1  0  0  0  0
M  END
$$$$
