WEP.pdb
 OpenBabel07022419163D

 56 58  0  0  1  0  0  0  0  0999 V2000
   -1.6620    1.2550   -1.2790 N   0  0  0  0  0  0  0  0  0  0  0  0
   -0.3700    1.3210   -0.5880 C   0  0  1  0  0  0  0  0  0  0  0  0
   -0.3060    2.5670    0.2450 C   0  0  0  0  0  0  0  0  0  0  0  0
    0.9900    2.6430    0.9420 C   0  0  0  0  0  0  0  0  0  0  0  0
    1.2990    2.3900    2.2590 C   0  0  0  0  0  0  0  0  0  0  0  0
    2.6150    2.5970    2.4140 N   0  0  0  0  0  0  0  0  0  0  0  0
    3.1920    2.9740    1.2690 C   0  0  0  0  0  0  0  0  0  0  0  0
    4.4990    3.2930    0.9410 C   0  0  0  0  0  0  0  0  0  0  0  0
    4.7920    3.6550   -0.3570 C   0  0  0  0  0  0  0  0  0  0  0  0
    3.7560    3.6810   -1.2830 C   0  0  0  0  0  0  0  0  0  0  0  0
    2.4630    3.3690   -0.9770 C   0  0  0  0  0  0  0  0  0  0  0  0
    2.1790    3.0060    0.3370 C   0  0  0  0  0  0  0  0  0  0  0  0
   -0.2750    0.1430    0.3410 C   0  0  0  0  0  0  0  0  0  0  0  0
    0.7640   -0.0350    1.0270 O   0  0  0  0  0  0  0  0  0  0  0  0
   -1.5110    1.8120   -2.1640 H   0  0  0  0  0  0  0  0  0  0  0  0
   -2.3340    1.8380   -0.7130 H   0  0  0  0  0  0  0  0  0  0  0  0
    0.4700    1.3360   -1.3060 H   0  0  0  0  0  0  0  0  0  0  0  0
   -1.1020    2.5620    1.0170 H   0  0  0  0  0  0  0  0  0  0  0  0
   -0.5200    3.4300   -0.4100 H   0  0  0  0  0  0  0  0  0  0  0  0
    0.5960    2.0810    3.0220 H   0  0  0  0  0  0  0  0  0  0  0  0
    3.1780    2.4910    3.3060 H   0  0  0  0  0  0  0  0  0  0  0  0
    5.3050    3.2740    1.6540 H   0  0  0  0  0  0  0  0  0  0  0  0
    5.7840    3.9150   -0.6760 H   0  0  0  0  0  0  0  0  0  0  0  0
    3.9570    3.9630   -2.3140 H   0  0  0  0  0  0  0  0  0  0  0  0
    1.6540    3.3920   -1.7100 H   0  0  0  0  0  0  0  0  0  0  0  0
   -1.3530   -0.7750    0.4540 N   0  0  0  0  0  0  0  0  0  0  0  0
   -1.2920   -1.9120    1.3360 C   0  0  1  0  0  0  0  0  0  0  0  0
   -2.4550   -1.8190    2.2620 C   0  0  0  0  0  0  0  0  0  0  0  0
   -2.5910   -2.9120    3.2780 C   0  0  0  0  0  0  0  0  0  0  0  0
   -3.8040   -2.6100    4.1220 C   0  0  0  0  0  0  0  0  0  0  0  0
   -4.4500   -1.5740    3.8620 O   0  0  0  0  0  0  0  0  0  0  0  0
   -1.0510   -3.2040    0.6990 C   0  0  0  0  0  0  0  0  0  0  0  0
   -0.9610   -4.2290    1.4820 O   0  0  0  0  0  0  0  0  0  0  0  0
   -4.2110   -3.4270    5.1490 O   0  0  0  0  0  0  0  0  0  0  0  0
   -2.2110   -0.5610   -0.1310 H   0  0  0  0  0  0  0  0  0  0  0  0
   -0.3730   -1.7090    1.9890 H   0  0  0  0  0  0  0  0  0  0  0  0
   -3.4150   -1.6020    1.7400 H   0  0  0  0  0  0  0  0  0  0  0  0
   -2.2830   -0.8740    2.8660 H   0  0  0  0  0  0  0  0  0  0  0  0
   -1.7430   -2.8870    3.9910 H   0  0  0  0  0  0  0  0  0  0  0  0
   -2.6970   -3.9310    2.8440 H   0  0  0  0  0  0  0  0  0  0  0  0
   -5.1530   -3.4070    5.5380 H   0  0  0  0  0  0  0  0  0  0  0  0
   -0.9000   -3.4820   -0.6790 N   0  0  0  0  0  0  0  0  0  0  0  0
   -0.9450   -2.6500   -1.8570 C   0  0  0  0  0  0  0  0  0  0  0  0
   -1.2380   -3.5910   -3.0370 C   0  0  0  0  0  0  0  0  0  0  0  0
   -0.3970   -4.7730   -2.6270 C   0  0  0  0  0  0  0  0  0  0  0  0
   -0.6260   -4.8460   -1.1630 C   0  0  1  0  0  0  0  0  0  0  0  0
    0.5530   -5.4290   -0.5090 C   0  0  0  0  0  0  0  0  0  0  0  0
    0.8550   -6.6120   -0.8010 O   0  0  0  0  0  0  0  0  0  0  0  0
    1.3540   -4.7670    0.4020 O   0  0  0  0  0  0  0  0  0  0  0  0
    0.0700   -2.2220   -2.0950 H   0  0  0  0  0  0  0  0  0  0  0  0
   -1.7350   -1.9100   -1.8930 H   0  0  0  0  0  0  0  0  0  0  0  0
   -0.8550   -3.2150   -3.9840 H   0  0  0  0  0  0  0  0  0  0  0  0
   -2.2900   -3.9030   -3.0390 H   0  0  0  0  0  0  0  0  0  0  0  0
   -0.7240   -5.7060   -3.1340 H   0  0  0  0  0  0  0  0  0  0  0  0
    0.7000   -4.5850   -2.7930 H   0  0  0  0  0  0  0  0  0  0  0  0
   -1.5100   -5.4670   -0.9520 H   0  0  0  0  0  0  0  0  0  0  0  0
  1 16  1  0  0  0  0
  1  2  1  0  0  0  0
  2 17  1  6  0  0  0
  2  3  1  0  0  0  0
  2 13  1  0  0  0  0
  3  4  1  0  0  0  0
  3 18  1  0  0  0  0
  4  5  2  0  0  0  0
  5  6  1  0  0  0  0
  5 20  1  0  0  0  0
  6 21  1  0  0  0  0
  7  6  1  0  0  0  0
  8  7  1  0  0  0  0
  8 22  1  0  0  0  0
  9  8  2  0  0  0  0
 10 11  2  0  0  0  0
 10  9  1  0  0  0  0
 11 12  1  0  0  0  0
 12  4  1  0  0  0  0
 12  7  2  0  0  0  0
 13 26  1  0  0  0  0
 13 14  2  0  0  0  0
 15  1  1  0  0  0  0
 19  3  1  0  0  0  0
 23  9  1  0  0  0  0
 24 10  1  0  0  0  0
 25 11  1  0  0  0  0
 26 27  1  0  0  0  0
 27 36  1  1  0  0  0
 27 28  1  0  0  0  0
 28 38  1  0  0  0  0
 28 29  1  0  0  0  0
 29 39  1  0  0  0  0
 29 30  1  0  0  0  0
 30 34  1  0  0  0  0
 31 30  2  0  0  0  0
 32 27  1  0  0  0  0
 32 33  2  0  0  0  0
 34 41  1  0  0  0  0
 35 26  1  0  0  0  0
 37 28  1  0  0  0  0
 40 29  1  0  0  0  0
 42 32  1  0  0  0  0
 43 42  1  0  0  0  0
 44 45  1  0  0  0  0
 44 43  1  0  0  0  0
 45 46  1  0  0  0  0
 46 56  1  1  0  0  0
 46 42  1  0  0  0  0
 46 47  1  0  0  0  0
 47 49  1  0  0  0  0
 48 47  2  0  0  0  0
 50 43  1  0  0  0  0
 51 43  1  0  0  0  0
 52 44  1  0  0  0  0
 53 44  1  0  0  0  0
 54 45  1  0  0  0  0
 55 45  1  0  0  0  0
M  END
$$$$
