WEQ.pdb
 OpenBabel07022419163D

 59 60  0  0  1  0  0  0  0  0999 V2000
    1.3970    1.2120    4.3370 N   0  0  0  0  0  0  0  0  0  0  0  0
    1.0490    2.0740    3.1870 C   0  0  1  0  0  0  0  0  0  0  0  0
    2.2780    2.5350    2.5320 C   0  0  0  0  0  0  0  0  0  0  0  0
    3.2140    1.5550    2.0000 C   0  0  0  0  0  0  0  0  0  0  0  0
    4.2800    0.9900    2.7350 C   0  0  0  0  0  0  0  0  0  0  0  0
    4.9190    0.0920    1.9840 N   0  0  0  0  0  0  0  0  0  0  0  0
    4.3070    0.0480    0.7740 C   0  0  0  0  0  0  0  0  0  0  0  0
    4.5650   -0.6810   -0.3630 C   0  0  0  0  0  0  0  0  0  0  0  0
    3.8220   -0.5600   -1.5190 C   0  0  0  0  0  0  0  0  0  0  0  0
    2.7800    0.3450   -1.4920 C   0  0  0  0  0  0  0  0  0  0  0  0
    2.5040    1.0800   -0.3720 C   0  0  0  0  0  0  0  0  0  0  0  0
    3.2610    0.9420    0.7740 C   0  0  0  0  0  0  0  0  0  0  0  0
    0.0120    1.4600    2.3590 C   0  0  0  0  0  0  0  0  0  0  0  0
   -0.4290    1.9750    1.3000 O   0  0  0  0  0  0  0  0  0  0  0  0
    2.0290    1.8010    4.9440 H   0  0  0  0  0  0  0  0  0  0  0  0
    1.9910    0.4320    3.9860 H   0  0  0  0  0  0  0  0  0  0  0  0
    0.5590    2.9720    3.7490 H   0  0  0  0  0  0  0  0  0  0  0  0
    2.8400    3.1670    3.3050 H   0  0  0  0  0  0  0  0  0  0  0  0
    2.0190    3.3290    1.7590 H   0  0  0  0  0  0  0  0  0  0  0  0
    4.5530    1.2320    3.7480 H   0  0  0  0  0  0  0  0  0  0  0  0
    5.7470   -0.5040    2.2220 H   0  0  0  0  0  0  0  0  0  0  0  0
    5.3900   -1.3980   -0.3850 H   0  0  0  0  0  0  0  0  0  0  0  0
    4.0430   -1.1490   -2.4110 H   0  0  0  0  0  0  0  0  0  0  0  0
    2.1480    0.4970   -2.3640 H   0  0  0  0  0  0  0  0  0  0  0  0
    1.6750    1.7920   -0.3890 H   0  0  0  0  0  0  0  0  0  0  0  0
   -0.5620    0.2070    2.7540 N   0  0  0  0  0  0  0  0  0  0  0  0
   -1.6120   -0.5010    2.0740 C   0  0  1  0  0  0  0  0  0  0  0  0
   -2.8310    0.3660    2.1740 C   0  0  0  0  0  0  0  0  0  0  0  0
   -4.0940   -0.1270    1.5920 C   0  0  0  0  0  0  0  0  0  0  0  0
   -4.6020   -1.3880    2.1940 C   0  0  0  0  0  0  0  0  0  0  0  0
   -5.6780   -1.8440    1.7010 O   0  0  0  0  0  0  0  0  0  0  0  0
   -1.2820   -0.7940    0.6650 C   0  0  0  0  0  0  0  0  0  0  0  0
   -0.2320   -0.3040    0.1190 O   0  0  0  0  0  0  0  0  0  0  0  0
   -3.9920   -2.0700    3.2250 O   0  0  0  0  0  0  0  0  0  0  0  0
   -0.1570   -0.2220    3.6360 H   0  0  0  0  0  0  0  0  0  0  0  0
   -1.8320   -1.4260    2.6530 H   0  0  0  0  0  0  0  0  0  0  0  0
   -3.0180    0.4970    3.2850 H   0  0  0  0  0  0  0  0  0  0  0  0
   -2.6010    1.3520    1.7120 H   0  0  0  0  0  0  0  0  0  0  0  0
   -4.1670   -0.1750    0.5060 H   0  0  0  0  0  0  0  0  0  0  0  0
   -4.8870    0.6480    1.8780 H   0  0  0  0  0  0  0  0  0  0  0  0
   -4.4300   -2.8890    3.6040 H   0  0  0  0  0  0  0  0  0  0  0  0
   -0.1700   -5.9530   -4.1070 N   0  0  0  0  0  0  0  0  0  0  0  0
   -0.6170   -5.2340   -2.9670 C   0  0  0  0  0  0  0  0  0  0  0  0
   -0.7970   -5.8680   -1.9090 O   0  0  0  0  0  0  0  0  0  0  0  0
   -0.8680   -3.7530   -3.0310 C   0  0  0  0  0  0  0  0  0  0  0  0
   -1.3260   -3.3090   -1.6890 C   0  0  0  0  0  0  0  0  0  0  0  0
   -1.6120   -1.8220   -1.5830 C   0  0  2  0  0  0  0  0  0  0  0  0
   -2.0370   -1.6120   -0.2100 N   0  0  0  0  0  0  0  0  0  0  0  0
   -2.6540   -1.3650   -2.5260 C   0  0  0  0  0  0  0  0  0  0  0  0
   -2.4650   -1.4360   -3.7730 O   0  0  0  0  0  0  0  0  0  0  0  0
   -3.8810   -0.8410   -2.1210 O   0  0  0  0  0  0  0  0  0  0  0  0
    0.7900   -5.8640   -4.4880 H   0  0  0  0  0  0  0  0  0  0  0  0
   -0.8330   -6.5920   -4.5770 H   0  0  0  0  0  0  0  0  0  0  0  0
    0.0930   -3.2630   -3.2610 H   0  0  0  0  0  0  0  0  0  0  0  0
   -1.6290   -3.5820   -3.8210 H   0  0  0  0  0  0  0  0  0  0  0  0
   -0.5350   -3.5230   -0.9400 H   0  0  0  0  0  0  0  0  0  0  0  0
   -2.2690   -3.8280   -1.3780 H   0  0  0  0  0  0  0  0  0  0  0  0
   -0.6900   -1.2450   -1.8160 H   0  0  0  0  0  0  0  0  0  0  0  0
   -2.8960   -2.0960    0.0880 H   0  0  0  0  0  0  0  0  0  0  0  0
  1 15  1  0  0  0  0
  2 17  1  1  0  0  0
  2  1  1  0  0  0  0
  3  2  1  0  0  0  0
  3 18  1  0  0  0  0
  4  3  1  0  0  0  0
  4  5  2  0  0  0  0
  5 20  1  0  0  0  0
  6 21  1  0  0  0  0
  6  5  1  0  0  0  0
  7  6  1  0  0  0  0
  8  7  2  0  0  0  0
  9 10  2  0  0  0  0
  9  8  1  0  0  0  0
 10 11  1  0  0  0  0
 11 12  2  0  0  0  0
 12  7  1  0  0  0  0
 12  4  1  0  0  0  0
 13 26  1  0  0  0  0
 13  2  1  0  0  0  0
 14 13  2  0  0  0  0
 16  1  1  0  0  0  0
 19  3  1  0  0  0  0
 22  8  1  0  0  0  0
 23  9  1  0  0  0  0
 24 10  1  0  0  0  0
 25 11  1  0  0  0  0
 26 35  1  0  0  0  0
 27 28  1  0  0  0  0
 27 36  1  1  0  0  0
 27 26  1  0  0  0  0
 28 37  1  0  0  0  0
 29 40  1  0  0  0  0
 29 28  1  0  0  0  0
 29 30  1  0  0  0  0
 30 34  1  0  0  0  0
 31 30  2  0  0  0  0
 32 27  1  0  0  0  0
 33 32  2  0  0  0  0
 34 41  1  0  0  0  0
 38 28  1  0  0  0  0
 39 29  1  0  0  0  0
 42 43  1  0  0  0  0
 43 44  2  0  0  0  0
 45 43  1  0  0  0  0
 45 46  1  0  0  0  0
 46 47  1  0  0  0  0
 46 57  1  0  0  0  0
 46 56  1  0  0  0  0
 47 58  1  6  0  0  0
 47 48  1  0  0  0  0
 48 59  1  0  0  0  0
 48 32  1  0  0  0  0
 49 51  1  0  0  0  0
 49 47  1  0  0  0  0
 50 49  2  0  0  0  0
 52 42  1  0  0  0  0
 53 42  1  0  0  0  0
 54 45  1  0  0  0  0
 55 45  1  0  0  0  0
M  END
$$$$
