WES.pdb
 OpenBabel07022419163D

 53 54  0  0  1  0  0  0  0  0999 V2000
    0.7640    1.9910   -1.7570 N   0  0  0  0  0  0  0  0  0  0  0  0
   -0.0410    0.8460   -1.3610 C   0  0  1  0  0  0  0  0  0  0  0  0
    0.6130   -0.3890   -1.8180 C   0  0  0  0  0  0  0  0  0  0  0  0
    1.9460   -0.7280   -1.3740 C   0  0  0  0  0  0  0  0  0  0  0  0
    2.2510   -1.6370   -0.3450 C   0  0  0  0  0  0  0  0  0  0  0  0
    3.5590   -1.7250   -0.1520 N   0  0  0  0  0  0  0  0  0  0  0  0
    4.1540   -0.9020   -1.0220 C   0  0  0  0  0  0  0  0  0  0  0  0
    5.4890   -0.6040   -1.2620 C   0  0  0  0  0  0  0  0  0  0  0  0
    5.8590    0.2910   -2.2360 C   0  0  0  0  0  0  0  0  0  0  0  0
    4.8710    0.8940   -2.9780 C   0  0  0  0  0  0  0  0  0  0  0  0
    3.5330    0.6340   -2.7810 C   0  0  0  0  0  0  0  0  0  0  0  0
    3.1780   -0.2640   -1.8010 C   0  0  0  0  0  0  0  0  0  0  0  0
   -0.4460    0.9910    0.0040 C   0  0  0  0  0  0  0  0  0  0  0  0
    0.1320    1.9080    0.6930 O   0  0  0  0  0  0  0  0  0  0  0  0
    0.4160    2.8910   -1.3130 H   0  0  0  0  0  0  0  0  0  0  0  0
    0.6670    2.1320   -2.7780 H   0  0  0  0  0  0  0  0  0  0  0  0
   -0.9790    0.9590   -1.9980 H   0  0  0  0  0  0  0  0  0  0  0  0
    0.6240   -0.3700   -2.9440 H   0  0  0  0  0  0  0  0  0  0  0  0
   -0.0720   -1.2610   -1.5860 H   0  0  0  0  0  0  0  0  0  0  0  0
    1.4770   -2.1760    0.1940 H   0  0  0  0  0  0  0  0  0  0  0  0
    4.0420   -2.3210    0.5430 H   0  0  0  0  0  0  0  0  0  0  0  0
    6.2590   -1.0890   -0.6700 H   0  0  0  0  0  0  0  0  0  0  0  0
    6.9110    0.5370   -2.4400 H   0  0  0  0  0  0  0  0  0  0  0  0
    5.1240    1.6100   -3.7600 H   0  0  0  0  0  0  0  0  0  0  0  0
    2.7520    1.0910   -3.3640 H   0  0  0  0  0  0  0  0  0  0  0  0
   -1.4050    0.2890    0.7720 N   0  0  0  0  0  0  0  0  0  0  0  0
   -1.7530    0.4870    2.1080 C   0  0  1  0  0  0  0  0  0  0  0  0
   -2.8630    1.3390    2.5580 C   0  0  0  0  0  0  0  0  0  0  0  0
   -4.2260    0.9760    2.0740 C   0  0  0  0  0  0  0  0  0  0  0  0
   -4.4440    1.0610    0.6210 C   0  0  0  0  0  0  0  0  0  0  0  0
   -3.6200    1.4800   -0.2290 O   0  0  0  0  0  0  0  0  0  0  0  0
   -1.7280   -0.8090    2.8210 C   0  0  0  0  0  0  0  0  0  0  0  0
   -2.0580   -0.9100    4.0550 O   0  0  0  0  0  0  0  0  0  0  0  0
   -5.6710    0.6510    0.0510 O   0  0  0  0  0  0  0  0  0  0  0  0
   -1.8850   -0.4760    0.2510 H   0  0  0  0  0  0  0  0  0  0  0  0
   -0.8270    1.0560    2.5280 H   0  0  0  0  0  0  0  0  0  0  0  0
   -2.7480    2.4270    2.3850 H   0  0  0  0  0  0  0  0  0  0  0  0
   -2.9320    1.2950    3.6920 H   0  0  0  0  0  0  0  0  0  0  0  0
   -5.0250    1.6460    2.5280 H   0  0  0  0  0  0  0  0  0  0  0  0
   -4.5550   -0.0360    2.4190 H   0  0  0  0  0  0  0  0  0  0  0  0
   -5.7480    0.4160   -0.9170 H   0  0  0  0  0  0  0  0  0  0  0  0
   -2.2490   -5.4420    3.0190 O   0  0  0  0  0  0  0  0  0  0  0  0
   -2.3240   -4.2600    2.2860 C   0  0  0  0  0  0  0  0  0  0  0  0
   -1.3350   -3.2910    2.9120 C   0  0  2  0  0  0  0  0  0  0  0  0
   -1.3430   -2.0180    2.2020 N   0  0  0  0  0  0  0  0  0  0  0  0
    0.0030   -3.8590    3.0720 C   0  0  0  0  0  0  0  0  0  0  0  0
    1.0030   -3.2580    2.6390 O   0  0  0  0  0  0  0  0  0  0  0  0
    0.1810   -5.0720    3.7070 O   0  0  0  0  0  0  0  0  0  0  0  0
   -2.2390   -5.2840    4.0010 H   0  0  0  0  0  0  0  0  0  0  0  0
   -3.3600   -3.8450    2.4120 H   0  0  0  0  0  0  0  0  0  0  0  0
   -2.1000   -4.5020    1.2350 H   0  0  0  0  0  0  0  0  0  0  0  0
   -1.7560   -3.0790    3.9420 H   0  0  0  0  0  0  0  0  0  0  0  0
   -1.0470   -2.0470    1.2100 H   0  0  0  0  0  0  0  0  0  0  0  0
  1  2  1  0  0  0  0
  1 15  1  0  0  0  0
  2 17  1  6  0  0  0
  2 13  1  0  0  0  0
  3 19  1  0  0  0  0
  3  4  1  0  0  0  0
  3  2  1  0  0  0  0
  4  5  2  0  0  0  0
  5  6  1  0  0  0  0
  5 20  1  0  0  0  0
  6 21  1  0  0  0  0
  7  6  1  0  0  0  0
  8  7  1  0  0  0  0
  8 22  1  0  0  0  0
  9  8  2  0  0  0  0
 10 11  2  0  0  0  0
 10  9  1  0  0  0  0
 11 12  1  0  0  0  0
 12  4  1  0  0  0  0
 12  7  2  0  0  0  0
 13 14  2  0  0  0  0
 13 26  1  0  0  0  0
 16  1  1  0  0  0  0
 18  3  1  0  0  0  0
 23  9  1  0  0  0  0
 24 10  1  0  0  0  0
 25 11  1  0  0  0  0
 26 27  1  0  0  0  0
 27 36  1  1  0  0  0
 27 28  1  0  0  0  0
 27 32  1  0  0  0  0
 28 38  1  0  0  0  0
 29 40  1  0  0  0  0
 29 39  1  0  0  0  0
 29 28  1  0  0  0  0
 30 29  1  0  0  0  0
 31 30  2  0  0  0  0
 32 33  2  0  0  0  0
 34 30  1  0  0  0  0
 35 26  1  0  0  0  0
 37 28  1  0  0  0  0
 41 34  1  0  0  0  0
 42 49  1  0  0  0  0
 43 50  1  0  0  0  0
 43 44  1  0  0  0  0
 43 42  1  0  0  0  0
 44 46  1  0  0  0  0
 44 52  1  1  0  0  0
 45 32  1  0  0  0  0
 45 44  1  0  0  0  0
 46 48  1  0  0  0  0
 47 46  2  0  0  0  0
 51 43  1  0  0  0  0
 53 45  1  0  0  0  0
M  END
$$$$
