WET.pdb
 OpenBabel07022419163D

 56 57  0  0  1  0  0  0  0  0999 V2000
    0.4860    1.7420    1.1080 N   0  0  0  0  0  0  0  0  0  0  0  0
    1.2280    0.5810    1.5650 C   0  0  1  0  0  0  0  0  0  0  0  0
    1.4080    0.6880    3.0570 C   0  0  0  0  0  0  0  0  0  0  0  0
    2.1570    1.9210    3.4120 C   0  0  0  0  0  0  0  0  0  0  0  0
    1.6290    3.0950    3.9460 C   0  0  0  0  0  0  0  0  0  0  0  0
    2.6200    3.9790    4.1280 N   0  0  0  0  0  0  0  0  0  0  0  0
    3.7830    3.4270    3.7310 C   0  0  0  0  0  0  0  0  0  0  0  0
    5.0790    3.9260    3.7150 C   0  0  0  0  0  0  0  0  0  0  0  0
    6.1260    3.1280    3.2410 C   0  0  0  0  0  0  0  0  0  0  0  0
    5.8300    1.8590    2.8010 C   0  0  0  0  0  0  0  0  0  0  0  0
    4.5500    1.3310    2.8030 C   0  0  0  0  0  0  0  0  0  0  0  0
    3.5230    2.1480    3.2810 C   0  0  0  0  0  0  0  0  0  0  0  0
    0.5060   -0.6200    1.1480 C   0  0  0  0  0  0  0  0  0  0  0  0
    0.9860   -1.7450    1.4690 O   0  0  0  0  0  0  0  0  0  0  0  0
    0.6330    2.5810    1.6870 H   0  0  0  0  0  0  0  0  0  0  0  0
    0.7600    1.8920    0.1120 H   0  0  0  0  0  0  0  0  0  0  0  0
    2.2280    0.6010    1.0660 H   0  0  0  0  0  0  0  0  0  0  0  0
    0.4350    0.6960    3.5700 H   0  0  0  0  0  0  0  0  0  0  0  0
    1.9980   -0.1630    3.4340 H   0  0  0  0  0  0  0  0  0  0  0  0
    0.5880    3.2680    4.1780 H   0  0  0  0  0  0  0  0  0  0  0  0
    2.4950    4.9460    4.5200 H   0  0  0  0  0  0  0  0  0  0  0  0
    5.2900    4.9220    4.0650 H   0  0  0  0  0  0  0  0  0  0  0  0
    7.1360    3.5140    3.2290 H   0  0  0  0  0  0  0  0  0  0  0  0
    6.6530    1.2470    2.4340 H   0  0  0  0  0  0  0  0  0  0  0  0
    4.3240    0.3290    2.4540 H   0  0  0  0  0  0  0  0  0  0  0  0
   -0.6980   -0.6430    0.4070 N   0  0  0  0  0  0  0  0  0  0  0  0
   -1.4240   -1.7890   -0.0140 C   0  0  1  0  0  0  0  0  0  0  0  0
   -2.8060   -1.9150    0.5240 C   0  0  0  0  0  0  0  0  0  0  0  0
   -2.8400   -1.9850    2.0230 C   0  0  0  0  0  0  0  0  0  0  0  0
   -4.2470   -2.1080    2.4620 C   0  0  0  0  0  0  0  0  0  0  0  0
   -5.1560   -2.1320    1.6000 O   0  0  0  0  0  0  0  0  0  0  0  0
   -1.4110   -1.9680   -1.4900 C   0  0  0  0  0  0  0  0  0  0  0  0
   -0.7660   -1.1210   -2.1610 O   0  0  0  0  0  0  0  0  0  0  0  0
   -4.6150   -2.1980    3.7920 O   0  0  0  0  0  0  0  0  0  0  0  0
   -1.0880    0.3140    0.1460 H   0  0  0  0  0  0  0  0  0  0  0  0
   -0.8550   -2.6910    0.3700 H   0  0  0  0  0  0  0  0  0  0  0  0
   -3.5220   -1.1770    0.1100 H   0  0  0  0  0  0  0  0  0  0  0  0
   -3.1930   -2.9140    0.1670 H   0  0  0  0  0  0  0  0  0  0  0  0
   -2.4090   -1.0930    2.5160 H   0  0  0  0  0  0  0  0  0  0  0  0
   -2.2300   -2.8940    2.2980 H   0  0  0  0  0  0  0  0  0  0  0  0
   -5.5980   -2.0920    4.0890 H   0  0  0  0  0  0  0  0  0  0  0  0
   -1.6820   -4.7290   -5.4930 C   0  0  0  0  0  0  0  0  0  0  0  0
   -1.6790   -4.6210   -3.9780 C   0  0  1  0  0  0  0  0  0  0  0  0
   -0.4000   -4.8680   -3.4810 O   0  0  0  0  0  0  0  0  0  0  0  0
   -2.0600   -3.1990   -3.6050 C   0  0  2  0  0  0  0  0  0  0  0  0
   -2.0590   -3.0030   -2.1770 N   0  0  0  0  0  0  0  0  0  0  0  0
   -3.4650   -3.0090   -4.0820 C   0  0  0  0  0  0  0  0  0  0  0  0
   -4.3750   -2.7350   -3.2910 O   0  0  0  0  0  0  0  0  0  0  0  0
   -3.7550   -3.1420   -5.4390 O   0  0  0  0  0  0  0  0  0  0  0  0
   -2.6500   -5.1600   -5.8340 H   0  0  0  0  0  0  0  0  0  0  0  0
   -1.4860   -3.7880   -6.0040 H   0  0  0  0  0  0  0  0  0  0  0  0
   -0.8750   -5.4530   -5.7890 H   0  0  0  0  0  0  0  0  0  0  0  0
   -2.4510   -5.2810   -3.5160 H   0  0  0  0  0  0  0  0  0  0  0  0
    0.0270   -5.5580   -4.0430 H   0  0  0  0  0  0  0  0  0  0  0  0
   -1.4590   -2.4590   -4.1460 H   0  0  0  0  0  0  0  0  0  0  0  0
   -2.5990   -3.7080   -1.6060 H   0  0  0  0  0  0  0  0  0  0  0  0
  1  2  1  0  0  0  0
  1 15  1  0  0  0  0
  2 17  1  6  0  0  0
  2  3  1  0  0  0  0
  3  4  1  0  0  0  0
  3 19  1  0  0  0  0
  3 18  1  0  0  0  0
  4  5  2  0  0  0  0
  5  6  1  0  0  0  0
  5 20  1  0  0  0  0
  6 21  1  0  0  0  0
  7  6  1  0  0  0  0
  8  7  1  0  0  0  0
  8 22  1  0  0  0  0
  9  8  2  0  0  0  0
 10 11  2  0  0  0  0
 10  9  1  0  0  0  0
 11 12  1  0  0  0  0
 12  4  1  0  0  0  0
 12  7  2  0  0  0  0
 13 14  2  0  0  0  0
 13  2  1  0  0  0  0
 16  1  1  0  0  0  0
 23  9  1  0  0  0  0
 24 10  1  0  0  0  0
 25 11  1  0  0  0  0
 26 13  1  0  0  0  0
 27 36  1  1  0  0  0
 27 26  1  0  0  0  0
 27 28  1  0  0  0  0
 28 29  1  0  0  0  0
 29 40  1  0  0  0  0
 29 30  1  0  0  0  0
 29 39  1  0  0  0  0
 30 34  1  0  0  0  0
 31 30  2  0  0  0  0
 32 27  1  0  0  0  0
 33 32  2  0  0  0  0
 34 41  1  0  0  0  0
 35 26  1  0  0  0  0
 37 28  1  0  0  0  0
 38 28  1  0  0  0  0
 42 43  1  0  0  0  0
 43 45  1  0  0  0  0
 43 53  1  1  0  0  0
 43 44  1  0  0  0  0
 45 55  1  6  0  0  0
 45 46  1  0  0  0  0
 46 56  1  0  0  0  0
 46 32  1  0  0  0  0
 47 45  1  0  0  0  0
 47 48  1  0  0  0  0
 49 47  2  0  0  0  0
 50 42  1  0  0  0  0
 51 42  1  0  0  0  0
 52 42  1  0  0  0  0
 54 44  1  0  0  0  0
M  END
$$$$
