WFC.pdb
 OpenBabel07022419183D

 57 59  0  0  1  0  0  0  0  0999 V2000
    0.5110    1.3130    3.8760 N   0  0  0  0  0  0  0  0  0  0  0  0
    0.2710    0.8670    2.5400 C   0  0  1  0  0  0  0  0  0  0  0  0
    1.3730   -0.0440    2.0440 C   0  0  0  0  0  0  0  0  0  0  0  0
    2.6870    0.6060    2.0370 C   0  0  0  0  0  0  0  0  0  0  0  0
    3.7020    0.4030    2.9440 C   0  0  0  0  0  0  0  0  0  0  0  0
    4.7390    1.1760    2.5990 N   0  0  0  0  0  0  0  0  0  0  0  0
    4.4570    1.8900    1.4960 C   0  0  0  0  0  0  0  0  0  0  0  0
    5.1760    2.8110    0.7570 C   0  0  0  0  0  0  0  0  0  0  0  0
    4.6540    3.4080   -0.3490 C   0  0  0  0  0  0  0  0  0  0  0  0
    3.3500    3.0540   -0.7180 C   0  0  0  0  0  0  0  0  0  0  0  0
    2.6270    2.1390    0.0110 C   0  0  0  0  0  0  0  0  0  0  0  0
    3.1560    1.5330    1.1320 C   0  0  0  0  0  0  0  0  0  0  0  0
   -0.9980    0.1150    2.4800 C   0  0  0  0  0  0  0  0  0  0  0  0
   -1.6640   -0.0310    3.5320 O   0  0  0  0  0  0  0  0  0  0  0  0
    1.0700    2.1970    3.9220 H   0  0  0  0  0  0  0  0  0  0  0  0
   -0.3900    1.5180    4.3560 H   0  0  0  0  0  0  0  0  0  0  0  0
    0.1480    1.7620    1.8960 H   0  0  0  0  0  0  0  0  0  0  0  0
    1.0700   -0.4270    1.0490 H   0  0  0  0  0  0  0  0  0  0  0  0
    1.3720   -0.9350    2.7190 H   0  0  0  0  0  0  0  0  0  0  0  0
    3.6870   -0.2660    3.8040 H   0  0  0  0  0  0  0  0  0  0  0  0
    5.6490    1.2260    3.1130 H   0  0  0  0  0  0  0  0  0  0  0  0
    6.1910    3.0820    1.0490 H   0  0  0  0  0  0  0  0  0  0  0  0
    5.2230    4.1310   -0.9260 H   0  0  0  0  0  0  0  0  0  0  0  0
    2.9790    3.5560   -1.6040 H   0  0  0  0  0  0  0  0  0  0  0  0
    1.6260    1.9010   -0.3140 H   0  0  0  0  0  0  0  0  0  0  0  0
   -1.5310   -0.4660    1.3000 N   0  0  0  0  0  0  0  0  0  0  0  0
   -2.7860   -1.1930    1.3130 C   0  0  1  0  0  0  0  0  0  0  0  0
   -3.8220   -0.5110    0.4490 C   0  0  0  0  0  0  0  0  0  0  0  0
   -3.3510   -0.4200   -0.9820 C   0  0  0  0  0  0  0  0  0  0  0  0
   -3.6270   -1.4150   -1.8800 C   0  0  0  0  0  0  0  0  0  0  0  0
   -3.2040   -1.3390   -3.1770 C   0  0  0  0  0  0  0  0  0  0  0  0
   -2.4850   -0.2320   -3.5770 C   0  0  0  0  0  0  0  0  0  0  0  0
   -2.1900    0.7880   -2.6970 C   0  0  0  0  0  0  0  0  0  0  0  0
   -2.6330    0.6790   -1.3960 C   0  0  0  0  0  0  0  0  0  0  0  0
   -2.5780   -2.6070    0.9080 C   0  0  0  0  0  0  0  0  0  0  0  0
   -3.5400   -3.4110    0.8640 O   0  0  0  0  0  0  0  0  0  0  0  0
   -0.9740   -0.3460    0.4120 H   0  0  0  0  0  0  0  0  0  0  0  0
   -3.1600   -1.1850    2.3580 H   0  0  0  0  0  0  0  0  0  0  0  0
   -4.7880   -1.0230    0.4920 H   0  0  0  0  0  0  0  0  0  0  0  0
   -3.9490    0.5330    0.7940 H   0  0  0  0  0  0  0  0  0  0  0  0
   -4.2030   -2.3010   -1.5580 H   0  0  0  0  0  0  0  0  0  0  0  0
   -3.4270   -2.1450   -3.9050 H   0  0  0  0  0  0  0  0  0  0  0  0
   -2.1400   -0.1630   -4.6210 H   0  0  0  0  0  0  0  0  0  0  0  0
   -1.6180    1.6630   -3.0260 H   0  0  0  0  0  0  0  0  0  0  0  0
   -2.4100    1.4810   -0.6700 H   0  0  0  0  0  0  0  0  0  0  0  0
   -1.2990   -3.1170    0.5530 N   0  0  0  0  0  0  0  0  0  0  0  0
   -1.0770   -4.4850    0.1590 C   0  0  1  0  0  0  0  0  0  0  0  0
   -0.7070   -4.4460   -1.3310 C   0  0  0  0  0  0  0  0  0  0  0  0
   -0.4060   -6.1260   -1.9250 S   0  0  0  0  0  0  0  0  0  0  0  0
   -0.0380   -5.1560    0.9420 C   0  0  0  0  0  0  0  0  0  0  0  0
    0.5730   -4.5510    1.8600 O   0  0  0  0  0  0  0  0  0  0  0  0
    0.3230   -6.4750    0.7170 O   0  0  0  0  0  0  0  0  0  0  0  0
   -0.4970   -2.4700    0.5810 H   0  0  0  0  0  0  0  0  0  0  0  0
   -2.0520   -5.0210    0.2080 H   0  0  0  0  0  0  0  0  0  0  0  0
    0.2500   -3.8910   -1.3990 H   0  0  0  0  0  0  0  0  0  0  0  0
   -1.4770   -3.9260   -1.8990 H   0  0  0  0  0  0  0  0  0  0  0  0
   -1.3670   -7.0030   -1.3880 H   0  0  0  0  0  0  0  0  0  0  0  0
  1 15  1  0  0  0  0
  1 16  1  0  0  0  0
  2 17  1  6  0  0  0
  2  1  1  0  0  0  0
  3  2  1  0  0  0  0
  3 19  1  0  0  0  0
  4  3  1  0  0  0  0
  4  5  2  0  0  0  0
  5 20  1  0  0  0  0
  6  5  1  0  0  0  0
  6 21  1  0  0  0  0
  7  6  1  0  0  0  0
  8 22  1  0  0  0  0
  8  7  2  0  0  0  0
  9  8  1  0  0  0  0
 10  9  2  0  0  0  0
 10 11  1  0  0  0  0
 11 12  2  0  0  0  0
 12  7  1  0  0  0  0
 12  4  1  0  0  0  0
 13  2  1  0  0  0  0
 13 14  2  0  0  0  0
 18  3  1  0  0  0  0
 23  9  1  0  0  0  0
 24 10  1  0  0  0  0
 25 11  1  0  0  0  0
 26 27  1  0  0  0  0
 26 13  1  0  0  0  0
 27 38  1  1  0  0  0
 28 39  1  0  0  0  0
 28 40  1  0  0  0  0
 28 27  1  0  0  0  0
 29 28  1  0  0  0  0
 30 41  1  0  0  0  0
 30 29  2  0  0  0  0
 31 30  1  0  0  0  0
 32 31  2  0  0  0  0
 32 33  1  0  0  0  0
 33 34  2  0  0  0  0
 34 29  1  0  0  0  0
 34 45  1  0  0  0  0
 35 27  1  0  0  0  0
 36 35  2  0  0  0  0
 37 26  1  0  0  0  0
 42 31  1  0  0  0  0
 43 32  1  0  0  0  0
 44 33  1  0  0  0  0
 46 53  1  0  0  0  0
 46 35  1  0  0  0  0
 47 54  1  1  0  0  0
 47 46  1  0  0  0  0
 47 50  1  0  0  0  0
 48 47  1  0  0  0  0
 49 57  1  0  0  0  0
 49 48  1  0  0  0  0
 50 51  1  0  0  0  0
 52 50  2  0  0  0  0
 55 48  1  0  0  0  0
 56 48  1  0  0  0  0
M  END
$$$$
