WFE.pdb
 OpenBabel07022419183D

 62 64  0  0  1  0  0  0  0  0999 V2000
    2.8040   -3.1620    1.8600 N   0  0  0  0  0  0  0  0  0  0  0  0
    2.5220   -1.8520    2.4850 C   0  0  1  0  0  0  0  0  0  0  0  0
    3.8020   -1.0810    2.4690 C   0  0  0  0  0  0  0  0  0  0  0  0
    3.7180    0.2630    3.0300 C   0  0  0  0  0  0  0  0  0  0  0  0
    4.0180    0.6560    4.3390 C   0  0  0  0  0  0  0  0  0  0  0  0
    3.7930    1.9600    4.4830 N   0  0  0  0  0  0  0  0  0  0  0  0
    3.3540    2.4550    3.3240 C   0  0  0  0  0  0  0  0  0  0  0  0
    2.9930    3.7180    2.9290 C   0  0  0  0  0  0  0  0  0  0  0  0
    2.5790    3.9600    1.6280 C   0  0  0  0  0  0  0  0  0  0  0  0
    2.5260    2.9290    0.7160 C   0  0  0  0  0  0  0  0  0  0  0  0
    2.8870    1.6830    1.1250 C   0  0  0  0  0  0  0  0  0  0  0  0
    3.2990    1.4290    2.4110 C   0  0  0  0  0  0  0  0  0  0  0  0
    1.3720   -1.2510    1.8250 C   0  0  0  0  0  0  0  0  0  0  0  0
    0.7380   -0.2560    2.3080 O   0  0  0  0  0  0  0  0  0  0  0  0
    3.6260   -3.5830    2.3520 H   0  0  0  0  0  0  0  0  0  0  0  0
    1.9490   -3.7750    1.9950 H   0  0  0  0  0  0  0  0  0  0  0  0
    2.3120   -2.0590    3.5830 H   0  0  0  0  0  0  0  0  0  0  0  0
    4.5310   -1.6500    3.1070 H   0  0  0  0  0  0  0  0  0  0  0  0
    4.2230   -1.0760    1.4360 H   0  0  0  0  0  0  0  0  0  0  0  0
    4.3730   -0.0260    5.0750 H   0  0  0  0  0  0  0  0  0  0  0  0
    3.9270    2.5450    5.3570 H   0  0  0  0  0  0  0  0  0  0  0  0
    3.0270    4.5410    3.6280 H   0  0  0  0  0  0  0  0  0  0  0  0
    2.2960    4.9500    1.3210 H   0  0  0  0  0  0  0  0  0  0  0  0
    2.2030    3.1050   -0.3100 H   0  0  0  0  0  0  0  0  0  0  0  0
    2.8500    0.8540    0.4080 H   0  0  0  0  0  0  0  0  0  0  0  0
    0.9040   -1.7570    0.6000 N   0  0  0  0  0  0  0  0  0  0  0  0
   -0.2570   -1.1960   -0.1250 C   0  0  1  0  0  0  0  0  0  0  0  0
    0.2910   -0.6670   -1.3830 C   0  0  0  0  0  0  0  0  0  0  0  0
   -0.6030   -0.0350   -2.3410 C   0  0  0  0  0  0  0  0  0  0  0  0
   -0.9750    1.2770   -2.3260 C   0  0  0  0  0  0  0  0  0  0  0  0
   -1.8000    1.7780   -3.2900 C   0  0  0  0  0  0  0  0  0  0  0  0
   -2.2690    0.9640   -4.2930 C   0  0  0  0  0  0  0  0  0  0  0  0
   -1.9150   -0.3630   -4.3400 C   0  0  0  0  0  0  0  0  0  0  0  0
   -1.0810   -0.8430   -3.3550 C   0  0  0  0  0  0  0  0  0  0  0  0
   -1.2750   -2.2300   -0.1700 C   0  0  0  0  0  0  0  0  0  0  0  0
   -0.9670   -3.3780    0.3130 O   0  0  0  0  0  0  0  0  0  0  0  0
    1.3730   -2.5650    0.1520 H   0  0  0  0  0  0  0  0  0  0  0  0
   -0.5860   -0.3420    0.5420 H   0  0  0  0  0  0  0  0  0  0  0  0
    1.0540    0.1160   -1.0910 H   0  0  0  0  0  0  0  0  0  0  0  0
    0.9270   -1.4610   -1.8770 H   0  0  0  0  0  0  0  0  0  0  0  0
   -0.5940    1.8990   -1.5280 H   0  0  0  0  0  0  0  0  0  0  0  0
   -2.1080    2.8290   -3.2920 H   0  0  0  0  0  0  0  0  0  0  0  0
   -2.9350    1.3490   -5.0790 H   0  0  0  0  0  0  0  0  0  0  0  0
   -2.2980   -0.9900   -5.1440 H   0  0  0  0  0  0  0  0  0  0  0  0
   -0.8250   -1.9050   -3.4310 H   0  0  0  0  0  0  0  0  0  0  0  0
   -2.5980   -2.0990   -0.6970 N   0  0  0  0  0  0  0  0  0  0  0  0
   -3.4790   -3.2060   -0.6530 C   0  0  1  0  0  0  0  0  0  0  0  0
   -4.6820   -3.1230    0.2120 C   0  0  0  0  0  0  0  0  0  0  0  0
   -4.5160   -2.9390    1.6590 C   0  0  0  0  0  0  0  0  0  0  0  0
   -3.8930   -1.6740    2.0870 C   0  0  0  0  0  0  0  0  0  0  0  0
   -3.6140   -0.7030    1.3620 O   0  0  0  0  0  0  0  0  0  0  0  0
   -3.8910   -3.5990   -2.0470 C   0  0  0  0  0  0  0  0  0  0  0  0
   -4.6690   -4.5820   -2.1460 O   0  0  0  0  0  0  0  0  0  0  0  0
   -3.5480   -1.4780    3.4530 O   0  0  0  0  0  0  0  0  0  0  0  0
   -3.4740   -2.9600   -3.1760 O   0  0  0  0  0  0  0  0  0  0  0  0
   -2.8330   -1.1580   -1.1110 H   0  0  0  0  0  0  0  0  0  0  0  0
   -2.9150   -4.1320   -0.2950 H   0  0  0  0  0  0  0  0  0  0  0  0
   -5.2470   -4.0990    0.0660 H   0  0  0  0  0  0  0  0  0  0  0  0
   -5.4240   -2.3650   -0.1820 H   0  0  0  0  0  0  0  0  0  0  0  0
   -5.5130   -2.9790    2.2100 H   0  0  0  0  0  0  0  0  0  0  0  0
   -3.9720   -3.8140    2.1500 H   0  0  0  0  0  0  0  0  0  0  0  0
   -3.3490   -0.5630    3.8010 H   0  0  0  0  0  0  0  0  0  0  0  0
  1 16  1  0  0  0  0
  1 15  1  0  0  0  0
  1  2  1  0  0  0  0
  2 17  1  1  0  0  0
  3  2  1  0  0  0  0
  3  4  1  0  0  0  0
  3 18  1  0  0  0  0
  4  5  2  0  0  0  0
  5  6  1  0  0  0  0
  5 20  1  0  0  0  0
  6 21  1  0  0  0  0
  7  6  1  0  0  0  0
  8  7  1  0  0  0  0
  8 22  1  0  0  0  0
  9  8  2  0  0  0  0
 10 11  2  0  0  0  0
 10  9  1  0  0  0  0
 11 12  1  0  0  0  0
 12  4  1  0  0  0  0
 12  7  2  0  0  0  0
 13 14  2  0  0  0  0
 13  2  1  0  0  0  0
 19  3  1  0  0  0  0
 23  9  1  0  0  0  0
 24 10  1  0  0  0  0
 25 11  1  0  0  0  0
 26 13  1  0  0  0  0
 27 38  1  1  0  0  0
 27 26  1  0  0  0  0
 28 39  1  0  0  0  0
 28 27  1  0  0  0  0
 29 30  1  0  0  0  0
 29 28  1  0  0  0  0
 30 41  1  0  0  0  0
 31 30  2  0  0  0  0
 32 31  1  0  0  0  0
 33 32  2  0  0  0  0
 33 34  1  0  0  0  0
 34 29  2  0  0  0  0
 35 27  1  0  0  0  0
 35 36  2  0  0  0  0
 37 26  1  0  0  0  0
 40 28  1  0  0  0  0
 42 31  1  0  0  0  0
 43 32  1  0  0  0  0
 44 33  1  0  0  0  0
 45 34  1  0  0  0  0
 46 47  1  0  0  0  0
 46 35  1  0  0  0  0
 47 57  1  1  0  0  0
 47 48  1  0  0  0  0
 48 49  1  0  0  0  0
 49 50  1  0  0  0  0
 49 61  1  0  0  0  0
 49 60  1  0  0  0  0
 50 54  1  0  0  0  0
 51 50  2  0  0  0  0
 52 47  1  0  0  0  0
 53 52  1  0  0  0  0
 54 62  1  0  0  0  0
 55 52  2  0  0  0  0
 56 46  1  0  0  0  0
 58 48  1  0  0  0  0
 59 48  1  0  0  0  0
M  END
$$$$
