WFH.pdb
 OpenBabel07022419183D

 63 66  0  0  1  0  0  0  0  0999 V2000
    2.3140   -0.4620    3.9780 N   0  0  0  0  0  0  0  0  0  0  0  0
    1.5160    0.6770    3.4800 C   0  0  1  0  0  0  0  0  0  0  0  0
    2.4770    1.8070    3.2690 C   0  0  0  0  0  0  0  0  0  0  0  0
    1.8970    3.0640    2.7560 C   0  0  0  0  0  0  0  0  0  0  0  0
    1.4740    4.1560    3.5320 C   0  0  0  0  0  0  0  0  0  0  0  0
    0.9820    5.1020    2.7370 N   0  0  0  0  0  0  0  0  0  0  0  0
    1.0440    4.7190    1.4410 C   0  0  0  0  0  0  0  0  0  0  0  0
    0.6730    5.3580    0.2710 C   0  0  0  0  0  0  0  0  0  0  0  0
    0.8670    4.7330   -0.9410 C   0  0  0  0  0  0  0  0  0  0  0  0
    1.4350    3.4700   -0.9420 C   0  0  0  0  0  0  0  0  0  0  0  0
    1.7940    2.8590    0.2350 C   0  0  0  0  0  0  0  0  0  0  0  0
    1.6150    3.4490    1.4560 C   0  0  0  0  0  0  0  0  0  0  0  0
    0.7830    0.3050    2.2600 C   0  0  0  0  0  0  0  0  0  0  0  0
   -0.1430    1.0480    1.8450 O   0  0  0  0  0  0  0  0  0  0  0  0
    3.0070   -0.1170    4.6770 H   0  0  0  0  0  0  0  0  0  0  0  0
    1.6650   -1.0870    4.4800 H   0  0  0  0  0  0  0  0  0  0  0  0
    0.7820    0.9760    4.2780 H   0  0  0  0  0  0  0  0  0  0  0  0
    3.2840    1.5330    2.5400 H   0  0  0  0  0  0  0  0  0  0  0  0
    2.9890    2.0890    4.2300 H   0  0  0  0  0  0  0  0  0  0  0  0
    1.5700    4.1510    4.6210 H   0  0  0  0  0  0  0  0  0  0  0  0
    0.6080    6.0080    3.1020 H   0  0  0  0  0  0  0  0  0  0  0  0
    0.2300    6.3440    0.2700 H   0  0  0  0  0  0  0  0  0  0  0  0
    0.5880    5.2050   -1.8860 H   0  0  0  0  0  0  0  0  0  0  0  0
    1.5990    2.9550   -1.8800 H   0  0  0  0  0  0  0  0  0  0  0  0
    2.2470    1.8540    0.2510 H   0  0  0  0  0  0  0  0  0  0  0  0
    1.1050   -0.8800    1.5420 N   0  0  0  0  0  0  0  0  0  0  0  0
    0.3900   -1.2860    0.3070 C   0  0  1  0  0  0  0  0  0  0  0  0
    1.3770   -1.2870   -0.8020 C   0  0  0  0  0  0  0  0  0  0  0  0
    0.8920   -1.6630   -2.1360 C   0  0  0  0  0  0  0  0  0  0  0  0
    1.0200   -2.9500   -2.6400 C   0  0  0  0  0  0  0  0  0  0  0  0
    0.5640   -3.3180   -3.8740 C   0  0  0  0  0  0  0  0  0  0  0  0
   -0.0560   -2.4020   -4.6910 C   0  0  0  0  0  0  0  0  0  0  0  0
   -0.2000   -1.1130   -4.2230 C   0  0  0  0  0  0  0  0  0  0  0  0
    0.2590   -0.7440   -2.9800 C   0  0  0  0  0  0  0  0  0  0  0  0
   -0.3020   -2.5300    0.6240 C   0  0  0  0  0  0  0  0  0  0  0  0
   -0.1200   -3.0600    1.7810 O   0  0  0  0  0  0  0  0  0  0  0  0
    1.8790   -1.4630    1.9270 H   0  0  0  0  0  0  0  0  0  0  0  0
   -0.3180   -0.4370    0.1260 H   0  0  0  0  0  0  0  0  0  0  0  0
    1.7410   -0.2150   -0.8880 H   0  0  0  0  0  0  0  0  0  0  0  0
    2.3260   -1.8330   -0.5340 H   0  0  0  0  0  0  0  0  0  0  0  0
    1.5090   -3.7050   -2.0260 H   0  0  0  0  0  0  0  0  0  0  0  0
    0.6850   -4.3510   -4.2350 H   0  0  0  0  0  0  0  0  0  0  0  0
   -0.4090   -2.7120   -5.6650 H   0  0  0  0  0  0  0  0  0  0  0  0
   -0.6840   -0.4000   -4.8620 H   0  0  0  0  0  0  0  0  0  0  0  0
    0.1490    0.2840   -2.5970 H   0  0  0  0  0  0  0  0  0  0  0  0
   -1.1950   -3.2710   -0.2030 N   0  0  0  0  0  0  0  0  0  0  0  0
   -1.8330   -4.4810    0.2310 C   0  0  1  0  0  0  0  0  0  0  0  0
   -3.3340   -4.4690    0.0640 C   0  0  0  0  0  0  0  0  0  0  0  0
   -4.0240   -3.4060    0.7970 C   0  0  0  0  0  0  0  0  0  0  0  0
   -4.5120   -3.4660    2.0770 C   0  0  0  0  0  0  0  0  0  0  0  0
   -5.0700   -2.2970    2.3750 N   0  0  0  0  0  0  0  0  0  0  0  0
   -4.9290   -1.5170    1.2860 C   0  0  0  0  0  0  0  0  0  0  0  0
   -4.2920   -2.1870    0.3180 N   0  0  0  0  0  0  0  0  0  0  0  0
   -1.3320   -5.6550   -0.5200 C   0  0  0  0  0  0  0  0  0  0  0  0
   -1.7950   -6.8270   -0.2740 O   0  0  0  0  0  0  0  0  0  0  0  0
   -0.3690   -5.6110   -1.5080 O   0  0  0  0  0  0  0  0  0  0  0  0
   -1.3760   -2.8810   -1.1480 H   0  0  0  0  0  0  0  0  0  0  0  0
   -1.6030   -4.7130    1.3090 H   0  0  0  0  0  0  0  0  0  0  0  0
   -3.7240   -5.4940    0.3240 H   0  0  0  0  0  0  0  0  0  0  0  0
   -3.5880   -4.3510   -1.0230 H   0  0  0  0  0  0  0  0  0  0  0  0
   -4.4760   -4.3100    2.7850 H   0  0  0  0  0  0  0  0  0  0  0  0
   -5.5380   -2.0120    3.2820 H   0  0  0  0  0  0  0  0  0  0  0  0
   -5.3080   -0.4870    1.2630 H   0  0  0  0  0  0  0  0  0  0  0  0
  1 16  1  0  0  0  0
  1 15  1  0  0  0  0
  2  1  1  0  0  0  0
  2 17  1  1  0  0  0
  3  2  1  0  0  0  0
  3 19  1  0  0  0  0
  4  3  1  0  0  0  0
  4  5  2  0  0  0  0
  5 20  1  0  0  0  0
  6 21  1  0  0  0  0
  6  5  1  0  0  0  0
  7 12  1  0  0  0  0
  7  6  1  0  0  0  0
  8  7  2  0  0  0  0
  9  8  1  0  0  0  0
 10  9  2  0  0  0  0
 10 11  1  0  0  0  0
 11 25  1  0  0  0  0
 11 12  2  0  0  0  0
 12  4  1  0  0  0  0
 13  2  1  0  0  0  0
 14 13  2  0  0  0  0
 18  3  1  0  0  0  0
 22  8  1  0  0  0  0
 23  9  1  0  0  0  0
 24 10  1  0  0  0  0
 26 37  1  0  0  0  0
 26 13  1  0  0  0  0
 27 38  1  6  0  0  0
 27 35  1  0  0  0  0
 27 26  1  0  0  0  0
 28 40  1  0  0  0  0
 28 27  1  0  0  0  0
 29 28  1  0  0  0  0
 30 29  1  0  0  0  0
 30 41  1  0  0  0  0
 31 30  2  0  0  0  0
 32 33  2  0  0  0  0
 32 31  1  0  0  0  0
 33 34  1  0  0  0  0
 34 45  1  0  0  0  0
 34 29  2  0  0  0  0
 35 36  2  0  0  0  0
 39 28  1  0  0  0  0
 42 31  1  0  0  0  0
 43 32  1  0  0  0  0
 44 33  1  0  0  0  0
 46 47  1  0  0  0  0
 46 35  1  0  0  0  0
 47 58  1  1  0  0  0
 48 47  1  0  0  0  0
 48 59  1  0  0  0  0
 48 49  1  0  0  0  0
 49 50  2  0  0  0  0
 50 51  1  0  0  0  0
 50 61  1  0  0  0  0
 51 62  1  0  0  0  0
 52 51  1  0  0  0  0
 53 49  1  0  0  0  0
 53 52  2  0  0  0  0
 54 55  1  0  0  0  0
 54 47  1  0  0  0  0
 56 54  2  0  0  0  0
 57 46  1  0  0  0  0
 60 48  1  0  0  0  0
 63 52  1  0  0  0  0
M  END
$$$$
