WFK.pdb
 OpenBabel07022419183D

 67 69  0  0  1  0  0  0  0  0999 V2000
    0.5040   -1.4190    4.5980 N   0  0  0  0  0  0  0  0  0  0  0  0
    1.1680   -1.4520    3.2850 C   0  0  1  0  0  0  0  0  0  0  0  0
    0.9880   -2.8630    2.7830 C   0  0  0  0  0  0  0  0  0  0  0  0
   -0.4270   -3.2730    2.6660 C   0  0  0  0  0  0  0  0  0  0  0  0
   -1.1220   -3.9700    3.6700 C   0  0  0  0  0  0  0  0  0  0  0  0
   -2.3800   -4.1360    3.2540 N   0  0  0  0  0  0  0  0  0  0  0  0
   -2.5790   -3.5950    2.0300 C   0  0  0  0  0  0  0  0  0  0  0  0
   -3.6870   -3.5260    1.2010 C   0  0  0  0  0  0  0  0  0  0  0  0
   -3.5950   -2.9140   -0.0210 C   0  0  0  0  0  0  0  0  0  0  0  0
   -2.3850   -2.3780   -0.3920 C   0  0  0  0  0  0  0  0  0  0  0  0
   -1.2770   -2.4470    0.4360 C   0  0  0  0  0  0  0  0  0  0  0  0
   -1.3430   -3.0580    1.6740 C   0  0  0  0  0  0  0  0  0  0  0  0
    0.5790   -0.4990    2.3400 C   0  0  0  0  0  0  0  0  0  0  0  0
   -0.5690   -0.0500    2.5750 O   0  0  0  0  0  0  0  0  0  0  0  0
    1.0980   -1.9340    5.2820 H   0  0  0  0  0  0  0  0  0  0  0  0
    0.4400   -0.4250    4.9400 H   0  0  0  0  0  0  0  0  0  0  0  0
    2.2610   -1.2870    3.4370 H   0  0  0  0  0  0  0  0  0  0  0  0
    1.5770   -3.5950    3.3740 H   0  0  0  0  0  0  0  0  0  0  0  0
    1.4260   -2.8610    1.7390 H   0  0  0  0  0  0  0  0  0  0  0  0
   -0.7050   -4.3150    4.6240 H   0  0  0  0  0  0  0  0  0  0  0  0
   -3.1620   -4.6240    3.7810 H   0  0  0  0  0  0  0  0  0  0  0  0
   -4.6030   -3.9620    1.5450 H   0  0  0  0  0  0  0  0  0  0  0  0
   -4.4210   -2.8270   -0.7100 H   0  0  0  0  0  0  0  0  0  0  0  0
   -2.2550   -1.8820   -1.3510 H   0  0  0  0  0  0  0  0  0  0  0  0
   -0.3300   -2.0500    0.1470 H   0  0  0  0  0  0  0  0  0  0  0  0
    1.2350   -0.0420    1.1610 N   0  0  0  0  0  0  0  0  0  0  0  0
    0.6410    0.9090    0.2300 C   0  0  1  0  0  0  0  0  0  0  0  0
    1.2040    2.2960    0.4570 C   0  0  0  0  0  0  0  0  0  0  0  0
    2.6700    2.3770    0.2920 C   0  0  0  0  0  0  0  0  0  0  0  0
    3.1690    2.6720   -0.9520 C   0  0  0  0  0  0  0  0  0  0  0  0
    4.5230    2.7580   -1.1620 C   0  0  0  0  0  0  0  0  0  0  0  0
    5.4340    2.5500   -0.1230 C   0  0  0  0  0  0  0  0  0  0  0  0
    4.8940    2.2570    1.1050 C   0  0  0  0  0  0  0  0  0  0  0  0
    3.5400    2.1710    1.3130 C   0  0  0  0  0  0  0  0  0  0  0  0
    0.6390    0.4590   -1.1600 C   0  0  0  0  0  0  0  0  0  0  0  0
    1.2210   -0.6150   -1.5470 O   0  0  0  0  0  0  0  0  0  0  0  0
    2.1880   -0.4200    0.9740 H   0  0  0  0  0  0  0  0  0  0  0  0
   -0.4290    1.0310    0.5500 H   0  0  0  0  0  0  0  0  0  0  0  0
    0.9630    2.5740    1.5000 H   0  0  0  0  0  0  0  0  0  0  0  0
    0.6950    2.9810   -0.2190 H   0  0  0  0  0  0  0  0  0  0  0  0
    2.5110    2.8430   -1.7830 H   0  0  0  0  0  0  0  0  0  0  0  0
    4.8720    2.9950   -2.1670 H   0  0  0  0  0  0  0  0  0  0  0  0
    6.4890    2.6250   -0.3210 H   0  0  0  0  0  0  0  0  0  0  0  0
    5.6150    2.0940    1.9160 H   0  0  0  0  0  0  0  0  0  0  0  0
    3.1570    1.9380    2.2950 H   0  0  0  0  0  0  0  0  0  0  0  0
   -0.0050    1.1510   -2.2190 N   0  0  0  0  0  0  0  0  0  0  0  0
   -0.0320    0.7370   -3.5780 C   0  0  1  0  0  0  0  0  0  0  0  0
   -1.3630    0.2110   -4.0510 C   0  0  0  0  0  0  0  0  0  0  0  0
   -2.4680    1.1930   -3.9470 C   0  0  0  0  0  0  0  0  0  0  0  0
   -3.8040    0.6820   -4.3770 C   0  0  0  0  0  0  0  0  0  0  0  0
   -3.9220    0.2190   -5.7830 C   0  0  0  0  0  0  0  0  0  0  0  0
   -3.0600   -0.8870   -6.1120 N   0  0  0  0  0  0  0  0  0  0  0  0
    0.5010    1.7950   -4.4440 C   0  0  0  0  0  0  0  0  0  0  0  0
    0.8680    2.8800   -3.9350 O   0  0  0  0  0  0  0  0  0  0  0  0
    0.6380    1.6970   -5.8170 O   0  0  0  0  0  0  0  0  0  0  0  0
   -0.4970    2.0360   -1.9720 H   0  0  0  0  0  0  0  0  0  0  0  0
    0.6630   -0.1290   -3.6650 H   0  0  0  0  0  0  0  0  0  0  0  0
   -1.5260   -0.7780   -3.6340 H   0  0  0  0  0  0  0  0  0  0  0  0
   -1.2010    0.0450   -5.1630 H   0  0  0  0  0  0  0  0  0  0  0  0
   -2.5750    1.6670   -2.9520 H   0  0  0  0  0  0  0  0  0  0  0  0
   -2.2460    2.0720   -4.6300 H   0  0  0  0  0  0  0  0  0  0  0  0
   -4.1960   -0.1000   -3.6700 H   0  0  0  0  0  0  0  0  0  0  0  0
   -4.5210    1.5530   -4.2630 H   0  0  0  0  0  0  0  0  0  0  0  0
   -4.9710   -0.1330   -6.0150 H   0  0  0  0  0  0  0  0  0  0  0  0
   -3.7810    1.0610   -6.5240 H   0  0  0  0  0  0  0  0  0  0  0  0
   -3.5530   -1.7850   -5.9470 H   0  0  0  0  0  0  0  0  0  0  0  0
   -2.7360   -0.8790   -7.1010 H   0  0  0  0  0  0  0  0  0  0  0  0
  1 16  1  0  0  0  0
  1 15  1  0  0  0  0
  2 17  1  1  0  0  0
  2  1  1  0  0  0  0
  3  2  1  0  0  0  0
  3 18  1  0  0  0  0
  4  3  1  0  0  0  0
  4  5  2  0  0  0  0
  5 20  1  0  0  0  0
  6  5  1  0  0  0  0
  6 21  1  0  0  0  0
  7  6  1  0  0  0  0
  8 22  1  0  0  0  0
  8  7  2  0  0  0  0
  9  8  1  0  0  0  0
 10  9  2  0  0  0  0
 10 11  1  0  0  0  0
 11 12  2  0  0  0  0
 12  7  1  0  0  0  0
 12  4  1  0  0  0  0
 13 14  2  0  0  0  0
 13  2  1  0  0  0  0
 19  3  1  0  0  0  0
 23  9  1  0  0  0  0
 24 10  1  0  0  0  0
 25 11  1  0  0  0  0
 26 13  1  0  0  0  0
 27 28  1  0  0  0  0
 27 38  1  1  0  0  0
 27 26  1  0  0  0  0
 28 39  1  0  0  0  0
 29 28  1  0  0  0  0
 29 34  1  0  0  0  0
 30 29  2  0  0  0  0
 31 30  1  0  0  0  0
 31 32  2  0  0  0  0
 32 33  1  0  0  0  0
 33 34  2  0  0  0  0
 33 44  1  0  0  0  0
 34 45  1  0  0  0  0
 35 27  1  0  0  0  0
 36 35  2  0  0  0  0
 37 26  1  0  0  0  0
 40 28  1  0  0  0  0
 41 30  1  0  0  0  0
 42 31  1  0  0  0  0
 43 32  1  0  0  0  0
 46 56  1  0  0  0  0
 46 35  1  0  0  0  0
 47 57  1  6  0  0  0
 47 46  1  0  0  0  0
 48 49  1  0  0  0  0
 48 58  1  0  0  0  0
 48 47  1  0  0  0  0
 49 60  1  0  0  0  0
 50 63  1  0  0  0  0
 50 49  1  0  0  0  0
 50 62  1  0  0  0  0
 51 50  1  0  0  0  0
 52 66  1  0  0  0  0
 52 51  1  0  0  0  0
 53 54  1  0  0  0  0
 53 47  1  0  0  0  0
 55 53  2  0  0  0  0
 59 48  1  0  0  0  0
 61 49  1  0  0  0  0
 64 51  1  0  0  0  0
 65 51  1  0  0  0  0
 67 52  1  0  0  0  0
M  END
$$$$
