WFN.pdb
 OpenBabel07022419183D

 60 62  0  0  1  0  0  0  0  0999 V2000
    0.4510   -1.4300    5.0800 N   0  0  0  0  0  0  0  0  0  0  0  0
   -0.0080   -0.4220    4.0720 C   0  0  1  0  0  0  0  0  0  0  0  0
    1.0880    0.5730    3.9680 C   0  0  0  0  0  0  0  0  0  0  0  0
    2.4060    0.0800    3.5630 C   0  0  0  0  0  0  0  0  0  0  0  0
    3.4060   -0.3270    4.4580 C   0  0  0  0  0  0  0  0  0  0  0  0
    4.4430   -0.7560    3.7280 N   0  0  0  0  0  0  0  0  0  0  0  0
    4.1750   -0.6510    2.4200 C   0  0  0  0  0  0  0  0  0  0  0  0
    4.9110   -0.9440    1.2710 C   0  0  0  0  0  0  0  0  0  0  0  0
    4.3870   -0.7180    0.0370 C   0  0  0  0  0  0  0  0  0  0  0  0
    3.1240   -0.1980   -0.0720 C   0  0  0  0  0  0  0  0  0  0  0  0
    2.3790    0.0990    1.0320 C   0  0  0  0  0  0  0  0  0  0  0  0
    2.9210   -0.1360    2.3050 C   0  0  0  0  0  0  0  0  0  0  0  0
   -0.4500   -1.0900    2.8710 C   0  0  0  0  0  0  0  0  0  0  0  0
   -0.3020   -2.3570    2.8210 O   0  0  0  0  0  0  0  0  0  0  0  0
    1.2480   -1.9200    4.5690 H   0  0  0  0  0  0  0  0  0  0  0  0
   -0.2970   -2.1620    5.1390 H   0  0  0  0  0  0  0  0  0  0  0  0
   -0.8800    0.1240    4.5840 H   0  0  0  0  0  0  0  0  0  0  0  0
    0.7600    1.3320    3.1820 H   0  0  0  0  0  0  0  0  0  0  0  0
    1.1720    1.1700    4.9150 H   0  0  0  0  0  0  0  0  0  0  0  0
    3.3630   -0.3050    5.5580 H   0  0  0  0  0  0  0  0  0  0  0  0
    5.3740   -1.1370    4.0600 H   0  0  0  0  0  0  0  0  0  0  0  0
    5.9080   -1.3540    1.3920 H   0  0  0  0  0  0  0  0  0  0  0  0
    5.0160   -0.9710   -0.8280 H   0  0  0  0  0  0  0  0  0  0  0  0
    2.6850   -0.0100   -1.0420 H   0  0  0  0  0  0  0  0  0  0  0  0
    1.3800    0.5330    1.0170 H   0  0  0  0  0  0  0  0  0  0  0  0
   -1.0560   -0.4920    1.7110 N   0  0  0  0  0  0  0  0  0  0  0  0
   -1.5030   -1.2770    0.6020 C   0  0  1  0  0  0  0  0  0  0  0  0
   -3.0420   -1.1960    0.5470 C   0  0  0  0  0  0  0  0  0  0  0  0
   -3.5160    0.1740    0.3730 C   0  0  0  0  0  0  0  0  0  0  0  0
   -3.8160    1.0010    1.4250 C   0  0  0  0  0  0  0  0  0  0  0  0
   -4.2540    2.3000    1.1930 C   0  0  0  0  0  0  0  0  0  0  0  0
   -4.3960    2.7850   -0.1000 C   0  0  0  0  0  0  0  0  0  0  0  0
   -4.0940    1.9540   -1.1570 C   0  0  0  0  0  0  0  0  0  0  0  0
   -3.6600    0.6660   -0.9060 C   0  0  0  0  0  0  0  0  0  0  0  0
   -0.9090   -1.0700   -0.7050 C   0  0  0  0  0  0  0  0  0  0  0  0
   -0.1190   -0.1510   -1.0250 O   0  0  0  0  0  0  0  0  0  0  0  0
   -1.1550    0.5250    1.7130 H   0  0  0  0  0  0  0  0  0  0  0  0
   -1.3160   -2.3500    0.8640 H   0  0  0  0  0  0  0  0  0  0  0  0
   -3.3790   -1.5550    1.5420 H   0  0  0  0  0  0  0  0  0  0  0  0
   -3.3880   -1.9000   -0.2070 H   0  0  0  0  0  0  0  0  0  0  0  0
   -3.7320    0.7010    2.4600 H   0  0  0  0  0  0  0  0  0  0  0  0
   -4.4870    2.9400    2.0270 H   0  0  0  0  0  0  0  0  0  0  0  0
   -4.7450    3.8160   -0.2710 H   0  0  0  0  0  0  0  0  0  0  0  0
   -4.1930    2.2950   -2.1800 H   0  0  0  0  0  0  0  0  0  0  0  0
   -3.4360    0.0610   -1.7670 H   0  0  0  0  0  0  0  0  0  0  0  0
    2.1360   -4.4570   -2.8810 N   0  0  0  0  0  0  0  0  0  0  0  0
    1.3230   -3.3060   -2.6140 C   0  0  0  0  0  0  0  0  0  0  0  0
    1.6340   -2.5990   -1.6270 O   0  0  0  0  0  0  0  0  0  0  0  0
    0.1980   -3.0450   -3.5080 C   0  0  0  0  0  0  0  0  0  0  0  0
   -0.6330   -1.8200   -3.1010 C   0  0  2  0  0  0  0  0  0  0  0  0
   -1.1950   -1.9680   -1.8090 N   0  0  0  0  0  0  0  0  0  0  0  0
   -1.7240   -1.6710   -4.0990 C   0  0  0  0  0  0  0  0  0  0  0  0
   -1.4460   -1.4840   -5.3090 O   0  0  0  0  0  0  0  0  0  0  0  0
   -3.0430   -1.7360   -3.7210 O   0  0  0  0  0  0  0  0  0  0  0  0
    2.5230   -4.6960   -3.8090 H   0  0  0  0  0  0  0  0  0  0  0  0
    2.3320   -5.0780   -2.0600 H   0  0  0  0  0  0  0  0  0  0  0  0
    0.5860   -2.9070   -4.5440 H   0  0  0  0  0  0  0  0  0  0  0  0
   -0.5300   -3.8960   -3.5810 H   0  0  0  0  0  0  0  0  0  0  0  0
    0.0370   -0.9490   -3.2160 H   0  0  0  0  0  0  0  0  0  0  0  0
   -1.8480   -2.7510   -1.6190 H   0  0  0  0  0  0  0  0  0  0  0  0
  1 16  1  0  0  0  0
  2 17  1  1  0  0  0
  2  1  1  0  0  0  0
  3  2  1  0  0  0  0
  3 19  1  0  0  0  0
  4  3  1  0  0  0  0
  4  5  2  0  0  0  0
  5 20  1  0  0  0  0
  6 21  1  0  0  0  0
  6  5  1  0  0  0  0
  7  6  1  0  0  0  0
  8 22  1  0  0  0  0
  8  7  2  0  0  0  0
  9  8  1  0  0  0  0
 10  9  2  0  0  0  0
 10 11  1  0  0  0  0
 11 12  2  0  0  0  0
 12  7  1  0  0  0  0
 12  4  1  0  0  0  0
 13  2  1  0  0  0  0
 14 13  2  0  0  0  0
 15  1  1  0  0  0  0
 18  3  1  0  0  0  0
 23  9  1  0  0  0  0
 24 10  1  0  0  0  0
 25 11  1  0  0  0  0
 26 37  1  0  0  0  0
 26 13  1  0  0  0  0
 27 38  1  1  0  0  0
 27 26  1  0  0  0  0
 28 27  1  0  0  0  0
 28 39  1  0  0  0  0
 29 28  1  0  0  0  0
 29 30  1  0  0  0  0
 30 41  1  0  0  0  0
 31 30  2  0  0  0  0
 31 42  1  0  0  0  0
 32 31  1  0  0  0  0
 33 34  1  0  0  0  0
 33 32  2  0  0  0  0
 34 29  2  0  0  0  0
 35 27  1  0  0  0  0
 36 35  2  0  0  0  0
 40 28  1  0  0  0  0
 43 32  1  0  0  0  0
 44 33  1  0  0  0  0
 45 34  1  0  0  0  0
 46 47  1  0  0  0  0
 46 56  1  0  0  0  0
 47 48  2  0  0  0  0
 49 50  1  0  0  0  0
 49 47  1  0  0  0  0
 50 59  1  6  0  0  0
 50 51  1  0  0  0  0
 51 60  1  0  0  0  0
 51 35  1  0  0  0  0
 52 54  1  0  0  0  0
 52 50  1  0  0  0  0
 53 52  2  0  0  0  0
 55 46  1  0  0  0  0
 57 49  1  0  0  0  0
 58 49  1  0  0  0  0
M  END
$$$$
