WFT.pdb
 OpenBabel07022419183D

 60 62  0  0  1  0  0  0  0  0999 V2000
    2.1910    0.2100    1.0950 N   0  0  0  0  0  0  0  0  0  0  0  0
    1.5680   -0.2390    2.2970 C   0  0  1  0  0  0  0  0  0  0  0  0
    1.3190    0.8980    3.2520 C   0  0  0  0  0  0  0  0  0  0  0  0
    2.5680    1.5870    3.6370 C   0  0  0  0  0  0  0  0  0  0  0  0
    3.2880    1.3360    4.8120 C   0  0  0  0  0  0  0  0  0  0  0  0
    4.3790    2.1190    4.8200 N   0  0  0  0  0  0  0  0  0  0  0  0
    4.4250    2.8820    3.7110 C   0  0  0  0  0  0  0  0  0  0  0  0
    5.3390    3.8460    3.2670 C   0  0  0  0  0  0  0  0  0  0  0  0
    5.1250    4.4920    2.0690 C   0  0  0  0  0  0  0  0  0  0  0  0
    4.0070    4.1760    1.3210 C   0  0  0  0  0  0  0  0  0  0  0  0
    3.1120    3.2120    1.7870 C   0  0  0  0  0  0  0  0  0  0  0  0
    3.3010    2.5500    2.9800 C   0  0  0  0  0  0  0  0  0  0  0  0
    0.2600   -0.9110    2.0480 C   0  0  0  0  0  0  0  0  0  0  0  0
   -0.3810   -1.4390    3.0150 O   0  0  0  0  0  0  0  0  0  0  0  0
    2.0760   -0.5470    0.3550 H   0  0  0  0  0  0  0  0  0  0  0  0
    3.2220    0.4070    1.2270 H   0  0  0  0  0  0  0  0  0  0  0  0
    2.2320   -1.0160    2.7460 H   0  0  0  0  0  0  0  0  0  0  0  0
    0.8840    0.4400    4.1670 H   0  0  0  0  0  0  0  0  0  0  0  0
    0.6100    1.6400    2.8240 H   0  0  0  0  0  0  0  0  0  0  0  0
    3.0050    0.6230    5.5870 H   0  0  0  0  0  0  0  0  0  0  0  0
    5.0880    2.1250    5.5920 H   0  0  0  0  0  0  0  0  0  0  0  0
    6.2040    4.0820    3.8550 H   0  0  0  0  0  0  0  0  0  0  0  0
    5.7940    5.2410    1.6760 H   0  0  0  0  0  0  0  0  0  0  0  0
    3.7970    4.6490    0.3870 H   0  0  0  0  0  0  0  0  0  0  0  0
    2.2250    2.9560    1.2180 H   0  0  0  0  0  0  0  0  0  0  0  0
   -0.3610   -1.0200    0.7840 N   0  0  0  0  0  0  0  0  0  0  0  0
   -1.6320   -1.6750    0.5560 C   0  0  1  0  0  0  0  0  0  0  0  0
   -2.7210   -0.7650    0.1680 C   0  0  0  0  0  0  0  0  0  0  0  0
   -2.5950    0.0290   -1.0290 C   0  0  0  0  0  0  0  0  0  0  0  0
   -3.0020   -0.3310   -2.2890 C   0  0  0  0  0  0  0  0  0  0  0  0
   -2.8220    0.5170   -3.3490 C   0  0  0  0  0  0  0  0  0  0  0  0
   -2.2210    1.7690   -3.1840 C   0  0  0  0  0  0  0  0  0  0  0  0
   -1.8090    2.1380   -1.9200 C   0  0  0  0  0  0  0  0  0  0  0  0
   -1.9900    1.2930   -0.8670 C   0  0  0  0  0  0  0  0  0  0  0  0
   -1.4320   -2.8720   -0.2460 C   0  0  0  0  0  0  0  0  0  0  0  0
   -0.2730   -3.1870   -0.6260 O   0  0  0  0  0  0  0  0  0  0  0  0
    0.1170   -0.6030   -0.0430 H   0  0  0  0  0  0  0  0  0  0  0  0
   -1.9280   -2.0570    1.5860 H   0  0  0  0  0  0  0  0  0  0  0  0
   -2.9460   -0.0970    1.0260 H   0  0  0  0  0  0  0  0  0  0  0  0
   -3.6550   -1.3960    0.0510 H   0  0  0  0  0  0  0  0  0  0  0  0
   -3.4570   -1.2770   -2.4200 H   0  0  0  0  0  0  0  0  0  0  0  0
   -3.1390    0.2480   -4.3610 H   0  0  0  0  0  0  0  0  0  0  0  0
   -2.0790    2.4380   -4.0210 H   0  0  0  0  0  0  0  0  0  0  0  0
   -1.3360    3.1230   -1.7880 H   0  0  0  0  0  0  0  0  0  0  0  0
   -1.6500    1.6290    0.1070 H   0  0  0  0  0  0  0  0  0  0  0  0
   -2.1370   -7.4110   -1.3400 C   0  0  0  0  0  0  0  0  0  0  0  0
   -2.5140   -6.1440   -0.6040 C   0  0  1  0  0  0  0  0  0  0  0  0
   -1.7120   -6.0670    0.5410 O   0  0  0  0  0  0  0  0  0  0  0  0
   -2.1800   -4.9140   -1.4420 C   0  0  2  0  0  0  0  0  0  0  0  0
   -2.4850   -3.7540   -0.6510 N   0  0  0  0  0  0  0  0  0  0  0  0
   -2.8990   -4.9390   -2.7350 C   0  0  0  0  0  0  0  0  0  0  0  0
   -2.7550   -5.8680   -3.5690 O   0  0  0  0  0  0  0  0  0  0  0  0
   -3.7680   -3.9190   -3.0730 O   0  0  0  0  0  0  0  0  0  0  0  0
   -1.9020   -8.2390   -0.6400 H   0  0  0  0  0  0  0  0  0  0  0  0
   -1.2350   -7.2200   -1.9700 H   0  0  0  0  0  0  0  0  0  0  0  0
   -3.0020   -7.7500   -1.9650 H   0  0  0  0  0  0  0  0  0  0  0  0
   -3.5680   -6.1490   -0.2880 H   0  0  0  0  0  0  0  0  0  0  0  0
   -0.7640   -6.0800    0.2550 H   0  0  0  0  0  0  0  0  0  0  0  0
   -1.0970   -4.9740   -1.6610 H   0  0  0  0  0  0  0  0  0  0  0  0
   -3.4490   -3.5220   -0.3560 H   0  0  0  0  0  0  0  0  0  0  0  0
  1 16  1  0  0  0  0
  1  2  1  0  0  0  0
  2 17  1  1  0  0  0
  2  3  1  0  0  0  0
  3  4  1  0  0  0  0
  3 18  1  0  0  0  0
  4  5  2  0  0  0  0
  5  6  1  0  0  0  0
  5 20  1  0  0  0  0
  6 21  1  0  0  0  0
  7  6  1  0  0  0  0
  8  7  1  0  0  0  0
  8 22  1  0  0  0  0
  9  8  2  0  0  0  0
 10 11  2  0  0  0  0
 10  9  1  0  0  0  0
 11 12  1  0  0  0  0
 12  4  1  0  0  0  0
 12  7  2  0  0  0  0
 13  2  1  0  0  0  0
 13 14  2  0  0  0  0
 15  1  1  0  0  0  0
 19  3  1  0  0  0  0
 23  9  1  0  0  0  0
 24 10  1  0  0  0  0
 25 11  1  0  0  0  0
 26 13  1  0  0  0  0
 27 26  1  0  0  0  0
 27 38  1  1  0  0  0
 28 27  1  0  0  0  0
 28 39  1  0  0  0  0
 29 34  1  0  0  0  0
 29 28  1  0  0  0  0
 30 29  2  0  0  0  0
 31 32  2  0  0  0  0
 31 30  1  0  0  0  0
 32 33  1  0  0  0  0
 33 44  1  0  0  0  0
 33 34  2  0  0  0  0
 34 45  1  0  0  0  0
 35 27  1  0  0  0  0
 36 35  2  0  0  0  0
 37 26  1  0  0  0  0
 40 28  1  0  0  0  0
 41 30  1  0  0  0  0
 42 31  1  0  0  0  0
 43 32  1  0  0  0  0
 46 54  1  0  0  0  0
 46 47  1  0  0  0  0
 47 57  1  1  0  0  0
 47 48  1  0  0  0  0
 49 59  1  6  0  0  0
 49 50  1  0  0  0  0
 49 47  1  0  0  0  0
 50 60  1  0  0  0  0
 50 35  1  0  0  0  0
 51 49  1  0  0  0  0
 52 51  2  0  0  0  0
 53 51  1  0  0  0  0
 55 46  1  0  0  0  0
 56 46  1  0  0  0  0
 58 48  1  0  0  0  0
M  END
$$$$
