WFV.pdb
 OpenBabel07022419183D

 62 64  0  0  1  0  0  0  0  0999 V2000
    0.1040    2.1260    4.4550 N   0  0  0  0  0  0  0  0  0  0  0  0
    0.4200    1.3670    3.1850 C   0  0  1  0  0  0  0  0  0  0  0  0
    1.8030    0.8520    3.3670 C   0  0  0  0  0  0  0  0  0  0  0  0
    2.4150    0.0750    2.3160 C   0  0  0  0  0  0  0  0  0  0  0  0
    2.7120   -1.2940    2.2860 C   0  0  0  0  0  0  0  0  0  0  0  0
    3.3300   -1.6010    1.1370 N   0  0  0  0  0  0  0  0  0  0  0  0
    3.4510   -0.4690    0.4020 C   0  0  0  0  0  0  0  0  0  0  0  0
    4.0030   -0.2170   -0.8520 C   0  0  0  0  0  0  0  0  0  0  0  0
    4.0140    1.0430   -1.4150 C   0  0  0  0  0  0  0  0  0  0  0  0
    3.4540    2.0680   -0.6940 C   0  0  0  0  0  0  0  0  0  0  0  0
    2.9060    1.8360    0.5420 C   0  0  0  0  0  0  0  0  0  0  0  0
    2.8910    0.5640    1.1190 C   0  0  0  0  0  0  0  0  0  0  0  0
   -0.5770    0.2870    3.0530 C   0  0  0  0  0  0  0  0  0  0  0  0
   -1.1000   -0.2850    4.0400 O   0  0  0  0  0  0  0  0  0  0  0  0
   -0.7310    2.7370    4.2430 H   0  0  0  0  0  0  0  0  0  0  0  0
    0.9300    2.7950    4.5140 H   0  0  0  0  0  0  0  0  0  0  0  0
    0.3000    2.1310    2.3930 H   0  0  0  0  0  0  0  0  0  0  0  0
    1.8120    0.2620    4.3180 H   0  0  0  0  0  0  0  0  0  0  0  0
    2.4470    1.7610    3.6060 H   0  0  0  0  0  0  0  0  0  0  0  0
    2.4700   -2.0040    3.0880 H   0  0  0  0  0  0  0  0  0  0  0  0
    3.6820   -2.5280    0.8300 H   0  0  0  0  0  0  0  0  0  0  0  0
    4.4370   -1.0700   -1.3860 H   0  0  0  0  0  0  0  0  0  0  0  0
    4.4580    1.1980   -2.4020 H   0  0  0  0  0  0  0  0  0  0  0  0
    3.4400    3.0700   -1.0950 H   0  0  0  0  0  0  0  0  0  0  0  0
    2.4550    2.6160    1.1400 H   0  0  0  0  0  0  0  0  0  0  0  0
   -0.9940   -0.1370    1.7670 N   0  0  0  0  0  0  0  0  0  0  0  0
   -1.9620   -1.1470    1.5200 C   0  0  1  0  0  0  0  0  0  0  0  0
   -3.3820   -0.6360    1.5170 C   0  0  0  0  0  0  0  0  0  0  0  0
   -3.7040    0.3840    0.5390 C   0  0  0  0  0  0  0  0  0  0  0  0
   -3.5180    1.7490    0.7340 C   0  0  0  0  0  0  0  0  0  0  0  0
   -3.8360    2.7080   -0.1910 C   0  0  0  0  0  0  0  0  0  0  0  0
   -4.3800    2.2650   -1.3980 C   0  0  0  0  0  0  0  0  0  0  0  0
   -4.5860    0.9270   -1.6440 C   0  0  0  0  0  0  0  0  0  0  0  0
   -4.2450    0.0100   -0.6740 C   0  0  0  0  0  0  0  0  0  0  0  0
   -1.7020   -1.9980    0.3560 C   0  0  0  0  0  0  0  0  0  0  0  0
   -2.5500   -2.9060    0.0140 O   0  0  0  0  0  0  0  0  0  0  0  0
   -0.5560    0.3260    0.9440 H   0  0  0  0  0  0  0  0  0  0  0  0
   -1.9490   -1.8160    2.4360 H   0  0  0  0  0  0  0  0  0  0  0  0
   -3.6430   -0.3400    2.5750 H   0  0  0  0  0  0  0  0  0  0  0  0
   -4.0240   -1.5210    1.3230 H   0  0  0  0  0  0  0  0  0  0  0  0
   -3.1020    2.0520    1.6620 H   0  0  0  0  0  0  0  0  0  0  0  0
   -3.6780    3.7640   -0.0060 H   0  0  0  0  0  0  0  0  0  0  0  0
   -4.6420    3.0160   -2.1520 H   0  0  0  0  0  0  0  0  0  0  0  0
   -5.0080    0.6500   -2.5940 H   0  0  0  0  0  0  0  0  0  0  0  0
   -4.4320   -1.0300   -0.9030 H   0  0  0  0  0  0  0  0  0  0  0  0
   -0.3610   -4.9300   -0.2810 C   0  0  0  0  0  0  0  0  0  0  0  0
    0.3060   -4.0400   -1.2900 C   0  0  0  0  0  0  0  0  0  0  0  0
    1.6980   -3.7350   -0.7820 C   0  0  0  0  0  0  0  0  0  0  0  0
   -0.3760   -2.7710   -1.6050 C   0  0  2  0  0  0  0  0  0  0  0  0
   -0.5540   -1.9250   -0.4830 N   0  0  0  0  0  0  0  0  0  0  0  0
   -1.5240   -2.9010   -2.5320 C   0  0  0  0  0  0  0  0  0  0  0  0
   -2.5880   -2.2670   -2.4340 O   0  0  0  0  0  0  0  0  0  0  0  0
   -1.4730   -3.7890   -3.6270 O   0  0  0  0  0  0  0  0  0  0  0  0
    0.3010   -5.8390   -0.1600 H   0  0  0  0  0  0  0  0  0  0  0  0
   -1.3470   -5.2970   -0.5380 H   0  0  0  0  0  0  0  0  0  0  0  0
   -0.4020   -4.4480    0.7130 H   0  0  0  0  0  0  0  0  0  0  0  0
    0.4510   -4.5900   -2.2720 H   0  0  0  0  0  0  0  0  0  0  0  0
    2.0360   -2.7160   -1.0770 H   0  0  0  0  0  0  0  0  0  0  0  0
    1.6560   -3.7400    0.3270 H   0  0  0  0  0  0  0  0  0  0  0  0
    2.4320   -4.5200   -1.0660 H   0  0  0  0  0  0  0  0  0  0  0  0
    0.3800   -2.1930   -2.2690 H   0  0  0  0  0  0  0  0  0  0  0  0
    0.1820   -1.1920   -0.2220 H   0  0  0  0  0  0  0  0  0  0  0  0
  1 16  1  0  0  0  0
  2 17  1  6  0  0  0
  2  3  1  0  0  0  0
  2  1  1  0  0  0  0
  3 19  1  0  0  0  0
  3 18  1  0  0  0  0
  4  3  1  0  0  0  0
  5  4  2  0  0  0  0
  5 20  1  0  0  0  0
  6  5  1  0  0  0  0
  7 12  1  0  0  0  0
  7  6  1  0  0  0  0
  8  7  2  0  0  0  0
  9  8  1  0  0  0  0
  9 10  2  0  0  0  0
 10 11  1  0  0  0  0
 11 12  2  0  0  0  0
 11 25  1  0  0  0  0
 12  4  1  0  0  0  0
 13  2  1  0  0  0  0
 13 14  2  0  0  0  0
 15  1  1  0  0  0  0
 21  6  1  0  0  0  0
 22  8  1  0  0  0  0
 23  9  1  0  0  0  0
 24 10  1  0  0  0  0
 26 13  1  0  0  0  0
 27 26  1  0  0  0  0
 27 38  1  1  0  0  0
 28 27  1  0  0  0  0
 28 39  1  0  0  0  0
 29 30  1  0  0  0  0
 29 28  1  0  0  0  0
 30 41  1  0  0  0  0
 31 42  1  0  0  0  0
 31 30  2  0  0  0  0
 32 31  1  0  0  0  0
 33 32  2  0  0  0  0
 33 34  1  0  0  0  0
 34 29  2  0  0  0  0
 35 27  1  0  0  0  0
 36 35  2  0  0  0  0
 37 26  1  0  0  0  0
 40 28  1  0  0  0  0
 43 32  1  0  0  0  0
 44 33  1  0  0  0  0
 45 34  1  0  0  0  0
 46 54  1  0  0  0  0
 46 56  1  0  0  0  0
 47 48  1  0  0  0  0
 47 46  1  0  0  0  0
 48 59  1  0  0  0  0
 49 61  1  6  0  0  0
 49 47  1  0  0  0  0
 49 50  1  0  0  0  0
 50 62  1  0  0  0  0
 50 35  1  0  0  0  0
 51 52  1  0  0  0  0
 51 49  1  0  0  0  0
 53 51  2  0  0  0  0
 55 46  1  0  0  0  0
 57 47  1  0  0  0  0
 58 48  1  0  0  0  0
 60 48  1  0  0  0  0
M  END
$$$$
