WFW.pdb
 OpenBabel07022419183D

 70 74  0  0  1  0  0  0  0  0999 V2000
    0.5740   -4.7890    2.1390 N   0  0  0  0  0  0  0  0  0  0  0  0
    0.3990   -3.4410    2.6750 C   0  0  1  0  0  0  0  0  0  0  0  0
    1.7240   -2.9970    3.1520 C   0  0  0  0  0  0  0  0  0  0  0  0
    2.7530   -3.0000    2.0670 C   0  0  0  0  0  0  0  0  0  0  0  0
    3.6650   -4.0400    1.8960 C   0  0  0  0  0  0  0  0  0  0  0  0
    4.4250   -3.7570    0.8380 N   0  0  0  0  0  0  0  0  0  0  0  0
    4.0390   -2.5790    0.3240 C   0  0  0  0  0  0  0  0  0  0  0  0
    4.5030   -1.8340   -0.7650 C   0  0  0  0  0  0  0  0  0  0  0  0
    3.9020   -0.6370   -1.0460 C   0  0  0  0  0  0  0  0  0  0  0  0
    2.8660   -0.1530   -0.2940 C   0  0  0  0  0  0  0  0  0  0  0  0
    2.4110   -0.8920    0.7800 C   0  0  0  0  0  0  0  0  0  0  0  0
    3.0090   -2.0990    1.0720 C   0  0  0  0  0  0  0  0  0  0  0  0
   -0.3470   -2.6310    1.7440 C   0  0  0  0  0  0  0  0  0  0  0  0
   -0.4820   -3.0490    0.5510 O   0  0  0  0  0  0  0  0  0  0  0  0
    0.7320   -5.4860    2.8820 H   0  0  0  0  0  0  0  0  0  0  0  0
    1.2130   -4.8320    1.3370 H   0  0  0  0  0  0  0  0  0  0  0  0
   -0.2520   -3.5860    3.5850 H   0  0  0  0  0  0  0  0  0  0  0  0
    2.0660   -3.7190    3.9210 H   0  0  0  0  0  0  0  0  0  0  0  0
    1.7120   -2.0150    3.6800 H   0  0  0  0  0  0  0  0  0  0  0  0
    3.7450   -4.9400    2.5240 H   0  0  0  0  0  0  0  0  0  0  0  0
    5.2110   -4.3710    0.4650 H   0  0  0  0  0  0  0  0  0  0  0  0
    5.3190   -2.2220   -1.3520 H   0  0  0  0  0  0  0  0  0  0  0  0
    4.2580   -0.0420   -1.8990 H   0  0  0  0  0  0  0  0  0  0  0  0
    2.4190    0.7830   -0.5360 H   0  0  0  0  0  0  0  0  0  0  0  0
    1.6120   -0.5510    1.3930 H   0  0  0  0  0  0  0  0  0  0  0  0
   -0.9770   -1.3810    2.0180 N   0  0  0  0  0  0  0  0  0  0  0  0
   -1.7290   -0.6010    1.0820 C   0  0  1  0  0  0  0  0  0  0  0  0
   -3.2340   -0.7500    1.3270 C   0  0  0  0  0  0  0  0  0  0  0  0
   -3.5790   -2.1660    1.1790 C   0  0  0  0  0  0  0  0  0  0  0  0
   -3.9550   -2.6870   -0.0310 C   0  0  0  0  0  0  0  0  0  0  0  0
   -4.2720   -4.0220   -0.1350 C   0  0  0  0  0  0  0  0  0  0  0  0
   -4.2170   -4.8540    0.9680 C   0  0  0  0  0  0  0  0  0  0  0  0
   -3.8400   -4.3330    2.1830 C   0  0  0  0  0  0  0  0  0  0  0  0
   -3.5270   -3.0010    2.2690 C   0  0  0  0  0  0  0  0  0  0  0  0
   -1.3290    0.8100    1.1590 C   0  0  0  0  0  0  0  0  0  0  0  0
   -0.4050    1.1620    1.9250 O   0  0  0  0  0  0  0  0  0  0  0  0
   -0.8690   -1.0220    2.9900 H   0  0  0  0  0  0  0  0  0  0  0  0
   -1.5880   -1.0000    0.0570 H   0  0  0  0  0  0  0  0  0  0  0  0
   -3.5500   -0.3080    2.2690 H   0  0  0  0  0  0  0  0  0  0  0  0
   -3.7370   -0.1910    0.5020 H   0  0  0  0  0  0  0  0  0  0  0  0
   -4.0190   -2.0880   -0.9400 H   0  0  0  0  0  0  0  0  0  0  0  0
   -4.5790   -4.4990   -1.0650 H   0  0  0  0  0  0  0  0  0  0  0  0
   -4.4690   -5.9050    0.8800 H   0  0  0  0  0  0  0  0  0  0  0  0
   -3.7980   -5.0020    3.0540 H   0  0  0  0  0  0  0  0  0  0  0  0
   -3.2330   -2.6410    3.2570 H   0  0  0  0  0  0  0  0  0  0  0  0
   -1.9620    1.8370    0.3820 N   0  0  0  0  0  0  0  0  0  0  0  0
   -1.5880    3.2100    0.4460 C   0  0  1  0  0  0  0  0  0  0  0  0
   -1.2950    3.8820   -0.8620 C   0  0  0  0  0  0  0  0  0  0  0  0
   -0.1840    3.2460   -1.5930 C   0  0  0  0  0  0  0  0  0  0  0  0
    1.1380    3.7170   -1.5310 C   0  0  0  0  0  0  0  0  0  0  0  0
    1.8520    2.8780   -2.2900 N   0  0  0  0  0  0  0  0  0  0  0  0
    1.0770    1.9200   -2.8210 C   0  0  0  0  0  0  0  0  0  0  0  0
    1.3670    0.8580   -3.6600 C   0  0  0  0  0  0  0  0  0  0  0  0
    0.3510    0.0170   -4.0640 C   0  0  0  0  0  0  0  0  0  0  0  0
   -0.9600    0.2100   -3.6490 C   0  0  0  0  0  0  0  0  0  0  0  0
   -1.2430    1.2720   -2.8110 C   0  0  0  0  0  0  0  0  0  0  0  0
   -0.2280    2.1210   -2.3990 C   0  0  0  0  0  0  0  0  0  0  0  0
   -2.6680    4.0340    1.1090 C   0  0  0  0  0  0  0  0  0  0  0  0
   -3.7150    3.4630    1.5040 O   0  0  0  0  0  0  0  0  0  0  0  0
   -2.5530    5.3950    1.3020 O   0  0  0  0  0  0  0  0  0  0  0  0
   -2.7340    1.5000   -0.2270 H   0  0  0  0  0  0  0  0  0  0  0  0
   -0.6970    3.3830    1.1050 H   0  0  0  0  0  0  0  0  0  0  0  0
   -2.2140    3.9450   -1.4990 H   0  0  0  0  0  0  0  0  0  0  0  0
   -0.9920    4.9520   -0.6580 H   0  0  0  0  0  0  0  0  0  0  0  0
    1.4780    4.5830   -0.9760 H   0  0  0  0  0  0  0  0  0  0  0  0
    2.9010    2.9750   -2.4430 H   0  0  0  0  0  0  0  0  0  0  0  0
    2.4040    0.7320   -3.9680 H   0  0  0  0  0  0  0  0  0  0  0  0
    0.5860   -0.8030   -4.7130 H   0  0  0  0  0  0  0  0  0  0  0  0
   -1.7320   -0.4650   -3.9830 H   0  0  0  0  0  0  0  0  0  0  0  0
   -2.2490    1.4450   -2.4900 H   0  0  0  0  0  0  0  0  0  0  0  0
  1  2  1  0  0  0  0
  1 15  1  0  0  0  0
  2  3  1  0  0  0  0
  2 17  1  1  0  0  0
  3 19  1  0  0  0  0
  3 18  1  0  0  0  0
  4  3  1  0  0  0  0
  5  4  2  0  0  0  0
  5 20  1  0  0  0  0
  6  5  1  0  0  0  0
  7  6  1  0  0  0  0
  7 12  1  0  0  0  0
  8  7  2  0  0  0  0
  9  8  1  0  0  0  0
  9 10  2  0  0  0  0
 10 11  1  0  0  0  0
 11 12  2  0  0  0  0
 11 25  1  0  0  0  0
 12  4  1  0  0  0  0
 13 26  1  0  0  0  0
 13  2  1  0  0  0  0
 14 13  2  0  0  0  0
 16  1  1  0  0  0  0
 21  6  1  0  0  0  0
 22  8  1  0  0  0  0
 23  9  1  0  0  0  0
 24 10  1  0  0  0  0
 26 37  1  0  0  0  0
 27 38  1  6  0  0  0
 27 35  1  0  0  0  0
 27 28  1  0  0  0  0
 27 26  1  0  0  0  0
 28 39  1  0  0  0  0
 29 28  1  0  0  0  0
 29 34  1  0  0  0  0
 30 29  2  0  0  0  0
 31 30  1  0  0  0  0
 31 32  2  0  0  0  0
 32 33  1  0  0  0  0
 33 34  2  0  0  0  0
 33 44  1  0  0  0  0
 34 45  1  0  0  0  0
 35 36  2  0  0  0  0
 40 28  1  0  0  0  0
 41 30  1  0  0  0  0
 42 31  1  0  0  0  0
 43 32  1  0  0  0  0
 46 47  1  0  0  0  0
 46 35  1  0  0  0  0
 47 62  1  1  0  0  0
 47 58  1  0  0  0  0
 48 64  1  0  0  0  0
 48 47  1  0  0  0  0
 49 50  2  0  0  0  0
 49 48  1  0  0  0  0
 50 65  1  0  0  0  0
 51 50  1  0  0  0  0
 52 57  1  0  0  0  0
 52 51  1  0  0  0  0
 53 52  2  0  0  0  0
 54 53  1  0  0  0  0
 54 55  2  0  0  0  0
 55 56  1  0  0  0  0
 56 70  1  0  0  0  0
 56 57  2  0  0  0  0
 57 49  1  0  0  0  0
 58 60  2  0  0  0  0
 58 59  1  0  0  0  0
 61 46  1  0  0  0  0
 63 48  1  0  0  0  0
 66 51  1  0  0  0  0
 67 53  1  0  0  0  0
 68 54  1  0  0  0  0
 69 55  1  0  0  0  0
M  END
$$$$
