WGD.pdb
 OpenBabel07022419163D

 46 47  0  0  1  0  0  0  0  0999 V2000
   -0.5150    0.6620    3.3350 N   0  0  0  0  0  0  0  0  0  0  0  0
   -0.8480    1.0180    1.9650 C   0  0  1  0  0  0  0  0  0  0  0  0
   -0.3920    2.4430    1.7620 C   0  0  0  0  0  0  0  0  0  0  0  0
    1.0350    2.6800    1.9800 C   0  0  0  0  0  0  0  0  0  0  0  0
    1.5410    3.1340    3.2000 C   0  0  0  0  0  0  0  0  0  0  0  0
    2.8760    3.2190    3.1240 N   0  0  0  0  0  0  0  0  0  0  0  0
    3.2670    2.8380    1.8960 C   0  0  0  0  0  0  0  0  0  0  0  0
    4.5020    2.7490    1.2990 C   0  0  0  0  0  0  0  0  0  0  0  0
    4.6260    2.3260   -0.0170 C   0  0  0  0  0  0  0  0  0  0  0  0
    3.5140    1.9910   -0.7440 C   0  0  0  0  0  0  0  0  0  0  0  0
    2.2750    2.0810   -0.1430 C   0  0  0  0  0  0  0  0  0  0  0  0
    2.1190    2.5000    1.1740 C   0  0  0  0  0  0  0  0  0  0  0  0
   -0.2310    0.1470    0.9550 C   0  0  0  0  0  0  0  0  0  0  0  0
   -0.6390    0.2130   -0.2390 O   0  0  0  0  0  0  0  0  0  0  0  0
   -1.2860    0.7970    4.0010 H   0  0  0  0  0  0  0  0  0  0  0  0
    0.4120    0.9840    3.6340 H   0  0  0  0  0  0  0  0  0  0  0  0
   -1.9600    1.0450    1.8760 H   0  0  0  0  0  0  0  0  0  0  0  0
   -0.7170    2.7280    0.7260 H   0  0  0  0  0  0  0  0  0  0  0  0
   -1.0410    3.0660    2.4250 H   0  0  0  0  0  0  0  0  0  0  0  0
    0.9810    3.3870    4.0910 H   0  0  0  0  0  0  0  0  0  0  0  0
    3.5610    3.5230    3.8550 H   0  0  0  0  0  0  0  0  0  0  0  0
    5.4050    2.9990    1.8220 H   0  0  0  0  0  0  0  0  0  0  0  0
    5.6160    2.2630   -0.4680 H   0  0  0  0  0  0  0  0  0  0  0  0
    3.5940    1.6600   -1.7720 H   0  0  0  0  0  0  0  0  0  0  0  0
    1.3920    1.8380   -0.7050 H   0  0  0  0  0  0  0  0  0  0  0  0
    0.8080   -0.7740    1.2450 N   0  0  0  0  0  0  0  0  0  0  0  0
    1.4120   -1.6390    0.2710 C   0  0  0  0  0  0  0  0  0  0  0  0
    0.4200   -2.5930   -0.2720 C   0  0  0  0  0  0  0  0  0  0  0  0
    0.7580   -3.4220   -1.1870 O   0  0  0  0  0  0  0  0  0  0  0  0
    1.1210   -0.7850    2.2520 H   0  0  0  0  0  0  0  0  0  0  0  0
    1.7830   -1.0360   -0.5830 H   0  0  0  0  0  0  0  0  0  0  0  0
    2.2320   -2.2600    0.7140 H   0  0  0  0  0  0  0  0  0  0  0  0
   -0.9320   -2.6860    0.1400 N   0  0  0  0  0  0  0  0  0  0  0  0
   -1.8520   -3.6780   -0.4690 C   0  0  1  0  0  0  0  0  0  0  0  0
   -2.4190   -4.5550    0.5970 C   0  0  0  0  0  0  0  0  0  0  0  0
   -3.2930   -5.5870    0.0300 C   0  0  0  0  0  0  0  0  0  0  0  0
   -3.4420   -5.8030   -1.1920 O   0  0  0  0  0  0  0  0  0  0  0  0
   -2.9870   -2.8980   -1.0810 C   0  0  0  0  0  0  0  0  0  0  0  0
   -3.0080   -1.6290   -0.9780 O   0  0  0  0  0  0  0  0  0  0  0  0
   -4.0560   -6.4390    0.8650 O   0  0  0  0  0  0  0  0  0  0  0  0
   -4.0370   -3.4520   -1.7660 O   0  0  0  0  0  0  0  0  0  0  0  0
   -1.3330   -2.0950    0.8770 H   0  0  0  0  0  0  0  0  0  0  0  0
   -1.3070   -4.2560   -1.2110 H   0  0  0  0  0  0  0  0  0  0  0  0
   -1.6000   -5.0330    1.1840 H   0  0  0  0  0  0  0  0  0  0  0  0
   -3.0490   -3.9350    1.3060 H   0  0  0  0  0  0  0  0  0  0  0  0
   -4.9520   -6.7970    0.5210 H   0  0  0  0  0  0  0  0  0  0  0  0
  1 16  1  0  0  0  0
  1 15  1  0  0  0  0
  2 17  1  6  0  0  0
  2  1  1  0  0  0  0
  3  2  1  0  0  0  0
  3  4  1  0  0  0  0
  3 19  1  0  0  0  0
  4  5  2  0  0  0  0
  5 20  1  0  0  0  0
  6  5  1  0  0  0  0
  6 21  1  0  0  0  0
  7  6  1  0  0  0  0
  8 22  1  0  0  0  0
  8  7  1  0  0  0  0
  9  8  2  0  0  0  0
 10 11  2  0  0  0  0
 10  9  1  0  0  0  0
 11 12  1  0  0  0  0
 12  7  2  0  0  0  0
 12  4  1  0  0  0  0
 13 26  1  0  0  0  0
 13  2  1  0  0  0  0
 14 13  2  0  0  0  0
 18  3  1  0  0  0  0
 23  9  1  0  0  0  0
 24 10  1  0  0  0  0
 25 11  1  0  0  0  0
 26 30  1  0  0  0  0
 27 32  1  0  0  0  0
 27 26  1  0  0  0  0
 28 33  1  0  0  0  0
 28 27  1  0  0  0  0
 29 28  2  0  0  0  0
 31 27  1  0  0  0  0
 33 42  1  0  0  0  0
 34 43  1  6  0  0  0
 34 33  1  0  0  0  0
 34 35  1  0  0  0  0
 35 44  1  0  0  0  0
 35 45  1  0  0  0  0
 36 35  1  0  0  0  0
 36 40  1  0  0  0  0
 37 36  2  0  0  0  0
 38 39  1  0  0  0  0
 38 34  1  0  0  0  0
 41 38  2  0  0  0  0
 46 40  1  0  0  0  0
M  END
$$$$
