WGE.pdb
 OpenBabel07022419163D

 49 50  0  0  1  0  0  0  0  0999 V2000
   -0.0810    4.8070    1.8390 N   0  0  0  0  0  0  0  0  0  0  0  0
    0.4420    3.5780    1.2200 C   0  0  1  0  0  0  0  0  0  0  0  0
    1.7840    3.3020    1.8280 C   0  0  0  0  0  0  0  0  0  0  0  0
    2.4930    2.1130    1.3800 C   0  0  0  0  0  0  0  0  0  0  0  0
    3.4760    2.0240    0.4120 C   0  0  0  0  0  0  0  0  0  0  0  0
    3.8900    0.7620    0.2610 N   0  0  0  0  0  0  0  0  0  0  0  0
    3.1750   -0.0010    1.1390 C   0  0  0  0  0  0  0  0  0  0  0  0
    3.2080   -1.3560    1.4110 C   0  0  0  0  0  0  0  0  0  0  0  0
    2.3820   -1.8920    2.3730 C   0  0  0  0  0  0  0  0  0  0  0  0
    1.5060   -1.0830    3.0820 C   0  0  0  0  0  0  0  0  0  0  0  0
    1.4910    0.2530    2.7950 C   0  0  0  0  0  0  0  0  0  0  0  0
    2.3090    0.8070    1.8380 C   0  0  0  0  0  0  0  0  0  0  0  0
   -0.5300    2.5030    1.2980 C   0  0  0  0  0  0  0  0  0  0  0  0
   -1.5010    2.6070    2.1320 O   0  0  0  0  0  0  0  0  0  0  0  0
    0.4470    5.6040    1.4700 H   0  0  0  0  0  0  0  0  0  0  0  0
   -1.0670    4.8750    1.4890 H   0  0  0  0  0  0  0  0  0  0  0  0
    0.6510    3.8940    0.1570 H   0  0  0  0  0  0  0  0  0  0  0  0
    1.7150    3.3170    2.9480 H   0  0  0  0  0  0  0  0  0  0  0  0
    2.4480    4.1960    1.6020 H   0  0  0  0  0  0  0  0  0  0  0  0
    3.8940    2.8510   -0.1790 H   0  0  0  0  0  0  0  0  0  0  0  0
    4.6230    0.3750   -0.3920 H   0  0  0  0  0  0  0  0  0  0  0  0
    3.9040   -1.9890    0.8450 H   0  0  0  0  0  0  0  0  0  0  0  0
    2.3950   -2.9500    2.6050 H   0  0  0  0  0  0  0  0  0  0  0  0
    0.8490   -1.5260    3.8500 H   0  0  0  0  0  0  0  0  0  0  0  0
    0.8130    0.9320    3.3310 H   0  0  0  0  0  0  0  0  0  0  0  0
   -0.5510    1.3050    0.5340 N   0  0  0  0  0  0  0  0  0  0  0  0
   -1.6000    0.3320    0.7200 C   0  0  0  0  0  0  0  0  0  0  0  0
   -1.3710   -0.7830   -0.2280 C   0  0  0  0  0  0  0  0  0  0  0  0
   -0.3750   -0.7510   -0.9860 O   0  0  0  0  0  0  0  0  0  0  0  0
    0.2150    1.1620   -0.1540 H   0  0  0  0  0  0  0  0  0  0  0  0
   -2.6120    0.7980    0.5690 H   0  0  0  0  0  0  0  0  0  0  0  0
   -1.6350   -0.0570    1.7610 H   0  0  0  0  0  0  0  0  0  0  0  0
   -2.2300   -1.9020   -0.3300 N   0  0  0  0  0  0  0  0  0  0  0  0
   -2.0650   -3.0170   -1.2390 C   0  0  1  0  0  0  0  0  0  0  0  0
   -2.2690   -4.2820   -0.4460 C   0  0  0  0  0  0  0  0  0  0  0  0
   -1.3190   -4.4870    0.6810 C   0  0  0  0  0  0  0  0  0  0  0  0
    0.0930   -4.5730    0.2830 C   0  0  0  0  0  0  0  0  0  0  0  0
    0.9690   -4.7710    1.1560 O   0  0  0  0  0  0  0  0  0  0  0  0
   -3.1320   -3.0190   -2.2860 C   0  0  0  0  0  0  0  0  0  0  0  0
   -4.0410   -2.1600   -2.3580 O   0  0  0  0  0  0  0  0  0  0  0  0
    0.5020   -4.4430   -1.0310 O   0  0  0  0  0  0  0  0  0  0  0  0
   -3.1080   -4.0320   -3.2260 O   0  0  0  0  0  0  0  0  0  0  0  0
   -3.0550   -1.9240    0.3060 H   0  0  0  0  0  0  0  0  0  0  0  0
   -1.1180   -2.9710   -1.7970 H   0  0  0  0  0  0  0  0  0  0  0  0
   -2.3510   -5.1640   -1.1150 H   0  0  0  0  0  0  0  0  0  0  0  0
   -3.2960   -4.1890    0.0160 H   0  0  0  0  0  0  0  0  0  0  0  0
   -1.5860   -5.4830    1.1400 H   0  0  0  0  0  0  0  0  0  0  0  0
   -1.4870   -3.7630    1.5150 H   0  0  0  0  0  0  0  0  0  0  0  0
    1.4820   -4.2310   -1.1990 H   0  0  0  0  0  0  0  0  0  0  0  0
  2 17  1  6  0  0  0
  2 13  1  0  0  0  0
  2  3  1  0  0  0  0
  2  1  1  0  0  0  0
  3 18  1  0  0  0  0
  4  3  1  0  0  0  0
  4 12  1  0  0  0  0
  5  4  2  0  0  0  0
  6  5  1  0  0  0  0
  6  7  1  0  0  0  0
  7  8  2  0  0  0  0
  7 12  1  0  0  0  0
  8  9  1  0  0  0  0
  9 23  1  0  0  0  0
  9 10  2  0  0  0  0
 10 24  1  0  0  0  0
 11 10  1  0  0  0  0
 11 25  1  0  0  0  0
 12 11  2  0  0  0  0
 13 14  2  0  0  0  0
 15  1  1  0  0  0  0
 16  1  1  0  0  0  0
 19  3  1  0  0  0  0
 20  5  1  0  0  0  0
 21  6  1  0  0  0  0
 22  8  1  0  0  0  0
 26 27  1  0  0  0  0
 26 13  1  0  0  0  0
 27 32  1  0  0  0  0
 28 27  1  0  0  0  0
 29 28  2  0  0  0  0
 30 26  1  0  0  0  0
 31 27  1  0  0  0  0
 33 28  1  0  0  0  0
 33 43  1  0  0  0  0
 34 44  1  6  0  0  0
 34 35  1  0  0  0  0
 34 33  1  0  0  0  0
 35 46  1  0  0  0  0
 35 36  1  0  0  0  0
 36 47  1  0  0  0  0
 36 48  1  0  0  0  0
 37 36  1  0  0  0  0
 37 38  2  0  0  0  0
 39 34  1  0  0  0  0
 40 39  1  0  0  0  0
 41 37  1  0  0  0  0
 42 39  2  0  0  0  0
 45 35  1  0  0  0  0
 49 41  1  0  0  0  0
M  END
$$$$
