WGH.pdb
 OpenBabel07022419163D

 50 52  0  0  1  0  0  0  0  0999 V2000
    1.4460    3.1000    0.4430 N   0  0  0  0  0  0  0  0  0  0  0  0
    0.7260    1.8920    0.2220 C   0  0  1  0  0  0  0  0  0  0  0  0
    1.5390    0.7030   -0.1690 C   0  0  0  0  0  0  0  0  0  0  0  0
    2.5640    0.3040    0.8180 C   0  0  0  0  0  0  0  0  0  0  0  0
    2.4940   -0.7000    1.7740 C   0  0  0  0  0  0  0  0  0  0  0  0
    3.6330   -0.7200    2.4920 N   0  0  0  0  0  0  0  0  0  0  0  0
    4.4680    0.2380    2.0480 C   0  0  0  0  0  0  0  0  0  0  0  0
    5.7320    0.6480    2.4040 C   0  0  0  0  0  0  0  0  0  0  0  0
    6.3830    1.6870    1.7570 C   0  0  0  0  0  0  0  0  0  0  0  0
    5.7520    2.3370    0.7220 C   0  0  0  0  0  0  0  0  0  0  0  0
    4.4760    1.9180    0.3680 C   0  0  0  0  0  0  0  0  0  0  0  0
    3.8230    0.8810    1.0120 C   0  0  0  0  0  0  0  0  0  0  0  0
   -0.0860    1.5540    1.4410 C   0  0  0  0  0  0  0  0  0  0  0  0
   -0.0750    2.2350    2.4880 O   0  0  0  0  0  0  0  0  0  0  0  0
    1.4700    3.7270   -0.3840 H   0  0  0  0  0  0  0  0  0  0  0  0
    1.0310    3.5980    1.2860 H   0  0  0  0  0  0  0  0  0  0  0  0
   -0.0200    2.1110   -0.5870 H   0  0  0  0  0  0  0  0  0  0  0  0
    0.8540   -0.1640   -0.2750 H   0  0  0  0  0  0  0  0  0  0  0  0
    1.9970    0.8340   -1.1820 H   0  0  0  0  0  0  0  0  0  0  0  0
    1.6340   -1.3420    1.8870 H   0  0  0  0  0  0  0  0  0  0  0  0
    3.8890   -1.3540    3.2790 H   0  0  0  0  0  0  0  0  0  0  0  0
    6.2070    0.1140    3.2280 H   0  0  0  0  0  0  0  0  0  0  0  0
    7.3800    1.9930    2.0560 H   0  0  0  0  0  0  0  0  0  0  0  0
    6.1940    3.1570    0.1660 H   0  0  0  0  0  0  0  0  0  0  0  0
    3.9390    2.3990   -0.4540 H   0  0  0  0  0  0  0  0  0  0  0  0
   -0.9490    0.3880    1.4660 N   0  0  0  0  0  0  0  0  0  0  0  0
   -1.7190    0.0800    2.6390 C   0  0  0  0  0  0  0  0  0  0  0  0
   -2.5140   -1.1180    2.4670 C   0  0  0  0  0  0  0  0  0  0  0  0
   -3.2440   -1.4850    3.4520 O   0  0  0  0  0  0  0  0  0  0  0  0
   -0.9640   -0.1720    0.6110 H   0  0  0  0  0  0  0  0  0  0  0  0
   -1.0670    0.0430    3.5570 H   0  0  0  0  0  0  0  0  0  0  0  0
   -2.4410    0.9340    2.8610 H   0  0  0  0  0  0  0  0  0  0  0  0
   -2.5590   -1.9110    1.3270 N   0  0  0  0  0  0  0  0  0  0  0  0
   -3.3900   -3.1120    1.2190 C   0  0  1  0  0  0  0  0  0  0  0  0
   -4.4370   -2.9510    0.1420 C   0  0  0  0  0  0  0  0  0  0  0  0
   -3.8550   -2.7100   -1.1860 C   0  0  0  0  0  0  0  0  0  0  0  0
   -3.4910   -3.6250   -2.1420 C   0  0  0  0  0  0  0  0  0  0  0  0
   -3.0010   -2.9630   -3.2060 N   0  0  0  0  0  0  0  0  0  0  0  0
   -3.0520   -1.6360   -2.9300 C   0  0  0  0  0  0  0  0  0  0  0  0
   -3.5740   -1.5010   -1.6990 N   0  0  0  0  0  0  0  0  0  0  0  0
   -2.5840   -4.3360    1.0630 C   0  0  0  0  0  0  0  0  0  0  0  0
   -1.3400   -4.3250    1.0360 O   0  0  0  0  0  0  0  0  0  0  0  0
   -3.2400   -5.5410    0.9420 O   0  0  0  0  0  0  0  0  0  0  0  0
   -2.0100   -1.7180    0.4620 H   0  0  0  0  0  0  0  0  0  0  0  0
   -3.9270   -3.2030    2.1870 H   0  0  0  0  0  0  0  0  0  0  0  0
   -5.0110   -3.9000    0.1130 H   0  0  0  0  0  0  0  0  0  0  0  0
   -5.1280   -2.1640    0.4730 H   0  0  0  0  0  0  0  0  0  0  0  0
   -3.5570   -4.7100   -2.1140 H   0  0  0  0  0  0  0  0  0  0  0  0
   -2.6430   -3.3920   -4.0890 H   0  0  0  0  0  0  0  0  0  0  0  0
   -2.7330   -0.8350   -3.5800 H   0  0  0  0  0  0  0  0  0  0  0  0
  1 16  1  0  0  0  0
  2 17  1  6  0  0  0
  2  1  1  0  0  0  0
  2 13  1  0  0  0  0
  3  2  1  0  0  0  0
  3  4  1  0  0  0  0
  4 12  1  0  0  0  0
  4  5  2  0  0  0  0
  5 20  1  0  0  0  0
  5  6  1  0  0  0  0
  6 21  1  0  0  0  0
  7  8  1  0  0  0  0
  7  6  1  0  0  0  0
  8 22  1  0  0  0  0
  9 23  1  0  0  0  0
  9  8  2  0  0  0  0
 10  9  1  0  0  0  0
 11 10  2  0  0  0  0
 11 12  1  0  0  0  0
 12  7  2  0  0  0  0
 13 26  1  0  0  0  0
 13 14  2  0  0  0  0
 15  1  1  0  0  0  0
 18  3  1  0  0  0  0
 19  3  1  0  0  0  0
 24 10  1  0  0  0  0
 25 11  1  0  0  0  0
 26 27  1  0  0  0  0
 27 32  1  0  0  0  0
 27 31  1  0  0  0  0
 28 27  1  0  0  0  0
 28 29  2  0  0  0  0
 30 26  1  0  0  0  0
 33 28  1  0  0  0  0
 34 33  1  0  0  0  0
 34 45  1  1  0  0  0
 35 47  1  0  0  0  0
 35 34  1  0  0  0  0
 36 35  1  0  0  0  0
 37 48  1  0  0  0  0
 37 36  2  0  0  0  0
 38 39  1  0  0  0  0
 38 37  1  0  0  0  0
 39 40  2  0  0  0  0
 40 36  1  0  0  0  0
 41 34  1  0  0  0  0
 42 41  1  0  0  0  0
 43 41  2  0  0  0  0
 44 33  1  0  0  0  0
 46 35  1  0  0  0  0
 49 38  1  0  0  0  0
 50 39  1  0  0  0  0
M  END
$$$$
