WGR.pdb
 OpenBabel07022419163D

 56 57  0  0  1  0  0  0  0  0999 V2000
    1.9580    2.0600    0.6430 N   0  0  0  0  0  0  0  0  0  0  0  0
    1.2520    0.8940    1.0880 C   0  0  1  0  0  0  0  0  0  0  0  0
    1.0890    0.8460    2.6050 C   0  0  0  0  0  0  0  0  0  0  0  0
    2.3660    0.8330    3.3180 C   0  0  0  0  0  0  0  0  0  0  0  0
    3.0190    1.8500    4.0030 C   0  0  0  0  0  0  0  0  0  0  0  0
    4.1770    1.3810    4.5050 N   0  0  0  0  0  0  0  0  0  0  0  0
    4.3170    0.0660    4.1730 C   0  0  0  0  0  0  0  0  0  0  0  0
    5.2860   -0.8790    4.4200 C   0  0  0  0  0  0  0  0  0  0  0  0
    5.1440   -2.1630    3.9380 C   0  0  0  0  0  0  0  0  0  0  0  0
    4.0480   -2.5460    3.2040 C   0  0  0  0  0  0  0  0  0  0  0  0
    3.0800   -1.5810    2.9640 C   0  0  0  0  0  0  0  0  0  0  0  0
    3.1920   -0.2790    3.4340 C   0  0  0  0  0  0  0  0  0  0  0  0
   -0.0640    0.8410    0.4100 C   0  0  0  0  0  0  0  0  0  0  0  0
   -0.8940   -0.0900    0.6590 O   0  0  0  0  0  0  0  0  0  0  0  0
    1.5300    2.8830    1.1610 H   0  0  0  0  0  0  0  0  0  0  0  0
    2.9470    2.0000    1.0370 H   0  0  0  0  0  0  0  0  0  0  0  0
    1.7850   -0.0540    0.8250 H   0  0  0  0  0  0  0  0  0  0  0  0
    0.4570   -0.0020    2.9050 H   0  0  0  0  0  0  0  0  0  0  0  0
    0.5260    1.7710    2.9280 H   0  0  0  0  0  0  0  0  0  0  0  0
    2.6010    2.8470    4.0800 H   0  0  0  0  0  0  0  0  0  0  0  0
    4.8820    1.9120    5.0650 H   0  0  0  0  0  0  0  0  0  0  0  0
    6.1510   -0.5920    4.9950 H   0  0  0  0  0  0  0  0  0  0  0  0
    5.9140   -2.9250    4.1310 H   0  0  0  0  0  0  0  0  0  0  0  0
    3.8900   -3.5390    2.8040 H   0  0  0  0  0  0  0  0  0  0  0  0
    2.1820   -1.8130    2.3910 H   0  0  0  0  0  0  0  0  0  0  0  0
   -0.4670    1.8260   -0.5520 N   0  0  0  0  0  0  0  0  0  0  0  0
   -1.7510    1.7340   -1.1960 C   0  0  0  0  0  0  0  0  0  0  0  0
   -1.8250    0.5220   -2.0230 C   0  0  0  0  0  0  0  0  0  0  0  0
   -2.9280    0.2910   -2.5750 O   0  0  0  0  0  0  0  0  0  0  0  0
    0.1950    2.6260   -0.7850 H   0  0  0  0  0  0  0  0  0  0  0  0
   -2.5680    1.7480   -0.4240 H   0  0  0  0  0  0  0  0  0  0  0  0
   -1.9080    2.6510   -1.8200 H   0  0  0  0  0  0  0  0  0  0  0  0
   -5.6590   -3.2850    1.4880 N   0  0  0  0  0  0  0  0  0  0  0  0
   -4.8760   -2.8180    0.4000 C   0  0  0  0  0  0  0  0  0  0  0  0
   -4.5720   -1.5930    0.3240 N   0  0  0  0  0  0  0  0  0  0  0  0
   -4.4210   -3.7040   -0.6150 N   0  0  0  0  0  0  0  0  0  0  0  0
   -3.8590   -3.2960   -1.8550 C   0  0  0  0  0  0  0  0  0  0  0  0
   -2.5120   -2.6340   -1.7260 C   0  0  0  0  0  0  0  0  0  0  0  0
   -2.0270   -2.2540   -3.1020 C   0  0  0  0  0  0  0  0  0  0  0  0
   -0.6690   -1.5550   -2.9420 C   0  0  2  0  0  0  0  0  0  0  0  0
   -0.7270   -0.3260   -2.1900 N   0  0  0  0  0  0  0  0  0  0  0  0
    0.1050   -1.4870   -4.1730 C   0  0  0  0  0  0  0  0  0  0  0  0
    0.2460   -2.4870   -4.9220 O   0  0  0  0  0  0  0  0  0  0  0  0
    0.7410   -0.3040   -4.5990 O   0  0  0  0  0  0  0  0  0  0  0  0
   -6.3590   -4.0420    1.3520 H   0  0  0  0  0  0  0  0  0  0  0  0
   -5.5500   -2.8820    2.4410 H   0  0  0  0  0  0  0  0  0  0  0  0
   -4.8830   -0.9190    1.0440 H   0  0  0  0  0  0  0  0  0  0  0  0
   -4.5140   -4.7240   -0.4170 H   0  0  0  0  0  0  0  0  0  0  0  0
   -3.8480   -4.1510   -2.5580 H   0  0  0  0  0  0  0  0  0  0  0  0
   -4.5370   -2.5370   -2.3090 H   0  0  0  0  0  0  0  0  0  0  0  0
   -1.7420   -3.3760   -1.3590 H   0  0  0  0  0  0  0  0  0  0  0  0
   -2.5720   -1.7630   -1.0900 H   0  0  0  0  0  0  0  0  0  0  0  0
   -1.7730   -3.1910   -3.6860 H   0  0  0  0  0  0  0  0  0  0  0  0
   -2.7560   -1.6560   -3.6510 H   0  0  0  0  0  0  0  0  0  0  0  0
   -0.1520   -2.2980   -2.2010 H   0  0  0  0  0  0  0  0  0  0  0  0
    0.2360   -0.0780   -1.7550 H   0  0  0  0  0  0  0  0  0  0  0  0
  1 16  1  0  0  0  0
  1  2  1  0  0  0  0
  1 15  1  0  0  0  0
  2 17  1  6  0  0  0
  2  3  1  0  0  0  0
  3 18  1  0  0  0  0
  3 19  1  0  0  0  0
  3  4  1  0  0  0  0
  4 12  1  0  0  0  0
  4  5  2  0  0  0  0
  5 20  1  0  0  0  0
  5  6  1  0  0  0  0
  6 21  1  0  0  0  0
  7  8  1  0  0  0  0
  7  6  1  0  0  0  0
  8 22  1  0  0  0  0
  9 23  1  0  0  0  0
  9  8  2  0  0  0  0
 10  9  1  0  0  0  0
 11 10  2  0  0  0  0
 11 12  1  0  0  0  0
 12  7  2  0  0  0  0
 13 14  2  0  0  0  0
 13  2  1  0  0  0  0
 24 10  1  0  0  0  0
 25 11  1  0  0  0  0
 26 13  1  0  0  0  0
 27 26  1  0  0  0  0
 27 31  1  0  0  0  0
 28 27  1  0  0  0  0
 29 28  2  0  0  0  0
 30 26  1  0  0  0  0
 32 27  1  0  0  0  0
 33 46  1  0  0  0  0
 34 33  1  0  0  0  0
 35 34  2  0  0  0  0
 35 47  1  0  0  0  0
 36 48  1  0  0  0  0
 36 34  1  0  0  0  0
 37 38  1  0  0  0  0
 37 36  1  0  0  0  0
 38 51  1  0  0  0  0
 38 52  1  0  0  0  0
 39 40  1  0  0  0  0
 39 38  1  0  0  0  0
 40 55  1  1  0  0  0
 40 41  1  0  0  0  0
 41 28  1  0  0  0  0
 41 56  1  0  0  0  0
 42 40  1  0  0  0  0
 43 42  2  0  0  0  0
 44 42  1  0  0  0  0
 45 33  1  0  0  0  0
 49 37  1  0  0  0  0
 50 37  1  0  0  0  0
 53 39  1  0  0  0  0
 54 39  1  0  0  0  0
M  END
$$$$
