WGS.pdb
 OpenBabel07022419163D

 44 45  0  0  1  0  0  0  0  0999 V2000
    1.1670   -3.2030    2.1580 N   0  0  0  0  0  0  0  0  0  0  0  0
    1.9650   -1.9960    2.0930 C   0  0  1  0  0  0  0  0  0  0  0  0
    2.4820   -1.7080    0.7330 C   0  0  0  0  0  0  0  0  0  0  0  0
    1.5120   -1.5240   -0.3370 C   0  0  0  0  0  0  0  0  0  0  0  0
    1.0690   -0.3170   -0.8680 C   0  0  0  0  0  0  0  0  0  0  0  0
    0.1600   -0.5790   -1.8300 N   0  0  0  0  0  0  0  0  0  0  0  0
    0.0070   -1.8970   -1.9350 C   0  0  0  0  0  0  0  0  0  0  0  0
   -0.7940   -2.6500   -2.7690 C   0  0  0  0  0  0  0  0  0  0  0  0
   -0.7940   -4.0330   -2.7170 C   0  0  0  0  0  0  0  0  0  0  0  0
    0.0270   -4.6760   -1.8090 C   0  0  0  0  0  0  0  0  0  0  0  0
    0.8190   -3.9050   -0.9860 C   0  0  0  0  0  0  0  0  0  0  0  0
    0.8470   -2.5250   -1.0070 C   0  0  0  0  0  0  0  0  0  0  0  0
    1.3860   -0.8600    2.8300 C   0  0  0  0  0  0  0  0  0  0  0  0
    1.9920    0.2320    2.9130 O   0  0  0  0  0  0  0  0  0  0  0  0
    0.8910   -3.3820    3.1740 H   0  0  0  0  0  0  0  0  0  0  0  0
    1.8550   -4.0010    1.9830 H   0  0  0  0  0  0  0  0  0  0  0  0
    2.9010   -2.2740    2.7050 H   0  0  0  0  0  0  0  0  0  0  0  0
    3.1500   -2.5850    0.4650 H   0  0  0  0  0  0  0  0  0  0  0  0
    3.1920   -0.8420    0.7210 H   0  0  0  0  0  0  0  0  0  0  0  0
    1.3630    0.6810   -0.5990 H   0  0  0  0  0  0  0  0  0  0  0  0
   -0.3360    0.1640   -2.3950 H   0  0  0  0  0  0  0  0  0  0  0  0
   -1.4310   -2.1410   -3.4750 H   0  0  0  0  0  0  0  0  0  0  0  0
   -1.4240   -4.6200   -3.3720 H   0  0  0  0  0  0  0  0  0  0  0  0
    0.0280   -5.7580   -1.7670 H   0  0  0  0  0  0  0  0  0  0  0  0
    1.4560   -4.4340   -0.2970 H   0  0  0  0  0  0  0  0  0  0  0  0
    0.1340   -0.9760    3.4650 N   0  0  0  0  0  0  0  0  0  0  0  0
   -0.4390    0.1070    4.1960 C   0  0  0  0  0  0  0  0  0  0  0  0
   -0.7490    1.3320    3.4320 C   0  0  0  0  0  0  0  0  0  0  0  0
   -1.2390    2.3540    4.0490 O   0  0  0  0  0  0  0  0  0  0  0  0
   -0.4110   -1.8820    3.4070 H   0  0  0  0  0  0  0  0  0  0  0  0
    0.2070    0.4260    5.0570 H   0  0  0  0  0  0  0  0  0  0  0  0
   -1.4470   -0.2300    4.6030 H   0  0  0  0  0  0  0  0  0  0  0  0
    1.2140    3.7340    1.9610 O   0  0  0  0  0  0  0  0  0  0  0  0
    0.3340    3.4730    0.9200 C   0  0  0  0  0  0  0  0  0  0  0  0
   -0.9160    2.8000    1.4060 C   0  0  2  0  0  0  0  0  0  0  0  0
   -0.5690    1.5310    2.0460 N   0  0  0  0  0  0  0  0  0  0  0  0
   -1.9170    2.6240    0.3480 C   0  0  0  0  0  0  0  0  0  0  0  0
   -2.2920    3.6580   -0.2700 O   0  0  0  0  0  0  0  0  0  0  0  0
   -2.4820    1.4180   -0.0250 O   0  0  0  0  0  0  0  0  0  0  0  0
    2.0190    4.1660    1.5900 H   0  0  0  0  0  0  0  0  0  0  0  0
    0.0180    4.4190    0.4080 H   0  0  0  0  0  0  0  0  0  0  0  0
    0.8750    2.8710    0.1650 H   0  0  0  0  0  0  0  0  0  0  0  0
   -1.3590    3.4950    2.1700 H   0  0  0  0  0  0  0  0  0  0  0  0
   -0.1950    0.7530    1.4760 H   0  0  0  0  0  0  0  0  0  0  0  0
  1 15  1  0  0  0  0
  2  1  1  0  0  0  0
  2 17  1  1  0  0  0
  2 13  1  0  0  0  0
  3  2  1  0  0  0  0
  4  3  1  0  0  0  0
  5 20  1  0  0  0  0
  5  4  2  0  0  0  0
  6  5  1  0  0  0  0
  7  6  1  0  0  0  0
  7 12  1  0  0  0  0
  8  9  1  0  0  0  0
  8  7  2  0  0  0  0
  9 10  2  0  0  0  0
 10 24  1  0  0  0  0
 10 11  1  0  0  0  0
 11 25  1  0  0  0  0
 12 11  2  0  0  0  0
 12  4  1  0  0  0  0
 13 14  2  0  0  0  0
 13 26  1  0  0  0  0
 16  1  1  0  0  0  0
 18  3  1  0  0  0  0
 19  3  1  0  0  0  0
 21  6  1  0  0  0  0
 22  8  1  0  0  0  0
 23  9  1  0  0  0  0
 26 27  1  0  0  0  0
 27 32  1  0  0  0  0
 27 31  1  0  0  0  0
 28 29  2  0  0  0  0
 28 27  1  0  0  0  0
 30 26  1  0  0  0  0
 34 35  1  0  0  0  0
 34 33  1  0  0  0  0
 35 36  1  0  0  0  0
 35 43  1  1  0  0  0
 36 28  1  0  0  0  0
 37 35  1  0  0  0  0
 38 37  2  0  0  0  0
 39 37  1  0  0  0  0
 40 33  1  0  0  0  0
 41 34  1  0  0  0  0
 42 34  1  0  0  0  0
 44 36  1  0  0  0  0
M  END
$$$$
