WGT.pdb
 OpenBabel07022419163D

 47 48  0  0  1  0  0  0  0  0999 V2000
    0.6880   -0.1390    4.2120 N   0  0  0  0  0  0  0  0  0  0  0  0
    1.1900   -0.0690    2.8540 C   0  0  1  0  0  0  0  0  0  0  0  0
    1.4790   -1.4160    2.2750 C   0  0  0  0  0  0  0  0  0  0  0  0
    2.0060   -1.3130    0.8970 C   0  0  0  0  0  0  0  0  0  0  0  0
    1.3680   -1.5670   -0.2930 C   0  0  0  0  0  0  0  0  0  0  0  0
    2.2340   -1.3430   -1.3100 N   0  0  0  0  0  0  0  0  0  0  0  0
    3.4240   -0.9500   -0.8260 C   0  0  0  0  0  0  0  0  0  0  0  0
    4.6200   -0.6060   -1.4550 C   0  0  0  0  0  0  0  0  0  0  0  0
    5.6910   -0.2370   -0.6800 C   0  0  0  0  0  0  0  0  0  0  0  0
    5.5540   -0.2170    0.6910 C   0  0  0  0  0  0  0  0  0  0  0  0
    4.3690   -0.5580    1.3180 C   0  0  0  0  0  0  0  0  0  0  0  0
    3.3030   -0.9250    0.5380 C   0  0  0  0  0  0  0  0  0  0  0  0
    0.2430    0.7550    2.0550 C   0  0  0  0  0  0  0  0  0  0  0  0
    0.3460    0.7530    0.8150 O   0  0  0  0  0  0  0  0  0  0  0  0
    1.2490   -0.8370    4.7260 H   0  0  0  0  0  0  0  0  0  0  0  0
    0.8680    0.7930    4.6550 H   0  0  0  0  0  0  0  0  0  0  0  0
    2.1740    0.4910    2.9520 H   0  0  0  0  0  0  0  0  0  0  0  0
    2.2750   -1.9000    2.8820 H   0  0  0  0  0  0  0  0  0  0  0  0
    0.5720   -2.0580    2.2830 H   0  0  0  0  0  0  0  0  0  0  0  0
    0.3520   -1.8920   -0.4220 H   0  0  0  0  0  0  0  0  0  0  0  0
    2.0200   -1.4560   -2.3260 H   0  0  0  0  0  0  0  0  0  0  0  0
    4.6760   -0.6370   -2.5160 H   0  0  0  0  0  0  0  0  0  0  0  0
    6.6400    0.0370   -1.1590 H   0  0  0  0  0  0  0  0  0  0  0  0
    6.4040    0.0740    1.2760 H   0  0  0  0  0  0  0  0  0  0  0  0
    4.2580   -0.5460    2.3930 H   0  0  0  0  0  0  0  0  0  0  0  0
   -0.7570    1.5320    2.6740 N   0  0  0  0  0  0  0  0  0  0  0  0
   -1.6720    2.3200    1.9120 C   0  0  0  0  0  0  0  0  0  0  0  0
   -2.5550    1.5030    1.0630 C   0  0  0  0  0  0  0  0  0  0  0  0
   -3.3910    2.1000    0.3000 O   0  0  0  0  0  0  0  0  0  0  0  0
   -0.8400    1.5370    3.7350 H   0  0  0  0  0  0  0  0  0  0  0  0
   -2.2640    2.9810    2.6060 H   0  0  0  0  0  0  0  0  0  0  0  0
   -1.1420    3.0360    1.2250 H   0  0  0  0  0  0  0  0  0  0  0  0
   -3.5560   -2.2750   -1.7060 C   0  0  0  0  0  0  0  0  0  0  0  0
   -2.6230   -1.4900   -0.7730 C   0  0  1  0  0  0  0  0  0  0  0  0
   -1.8180   -0.6930   -1.5800 O   0  0  0  0  0  0  0  0  0  0  0  0
   -3.4600   -0.6630    0.1720 C   0  0  2  0  0  0  0  0  0  0  0  0
   -2.5650    0.1080    1.0190 N   0  0  0  0  0  0  0  0  0  0  0  0
   -4.3420   -1.5440    0.9340 C   0  0  0  0  0  0  0  0  0  0  0  0
   -4.2870   -1.5940    2.1840 O   0  0  0  0  0  0  0  0  0  0  0  0
   -5.2620   -2.3440    0.2830 O   0  0  0  0  0  0  0  0  0  0  0  0
   -3.7400   -3.2630   -1.2290 H   0  0  0  0  0  0  0  0  0  0  0  0
   -4.4640   -1.6810   -1.8680 H   0  0  0  0  0  0  0  0  0  0  0  0
   -3.0310   -2.3960   -2.6830 H   0  0  0  0  0  0  0  0  0  0  0  0
   -1.9860   -2.1770   -0.1950 H   0  0  0  0  0  0  0  0  0  0  0  0
   -1.4900   -1.1600   -2.3700 H   0  0  0  0  0  0  0  0  0  0  0  0
   -4.0940    0.0450   -0.4210 H   0  0  0  0  0  0  0  0  0  0  0  0
   -1.9170   -0.4380    1.6200 H   0  0  0  0  0  0  0  0  0  0  0  0
  1 16  1  0  0  0  0
  1 15  1  0  0  0  0
  2 17  1  1  0  0  0
  2  1  1  0  0  0  0
  3 19  1  0  0  0  0
  3  2  1  0  0  0  0
  3 18  1  0  0  0  0
  4  3  1  0  0  0  0
  5  4  2  0  0  0  0
  6  7  1  0  0  0  0
  6  5  1  0  0  0  0
  7 12  1  0  0  0  0
  8  7  2  0  0  0  0
  8  9  1  0  0  0  0
  9 10  2  0  0  0  0
 10 24  1  0  0  0  0
 10 11  1  0  0  0  0
 11 25  1  0  0  0  0
 12  4  1  0  0  0  0
 12 11  2  0  0  0  0
 13 26  1  0  0  0  0
 13  2  1  0  0  0  0
 14 13  2  0  0  0  0
 20  5  1  0  0  0  0
 21  6  1  0  0  0  0
 22  8  1  0  0  0  0
 23  9  1  0  0  0  0
 26 30  1  0  0  0  0
 27 31  1  0  0  0  0
 27 26  1  0  0  0  0
 28 27  1  0  0  0  0
 29 28  2  0  0  0  0
 32 27  1  0  0  0  0
 33 41  1  0  0  0  0
 33 34  1  0  0  0  0
 34 44  1  1  0  0  0
 34 36  1  0  0  0  0
 35 34  1  0  0  0  0
 36 46  1  6  0  0  0
 36 38  1  0  0  0  0
 36 37  1  0  0  0  0
 37 28  1  0  0  0  0
 37 47  1  0  0  0  0
 38 39  1  0  0  0  0
 40 38  2  0  0  0  0
 42 33  1  0  0  0  0
 43 33  1  0  0  0  0
 45 35  1  0  0  0  0
M  END
$$$$
