WGV.pdb
 OpenBabel07022419163D

 49 50  0  0  1  0  0  0  0  0999 V2000
    1.6910   -1.9090    3.5120 N   0  0  0  0  0  0  0  0  0  0  0  0
    1.9160   -1.1640    2.3140 C   0  0  1  0  0  0  0  0  0  0  0  0
    2.0570   -2.0660    1.1120 C   0  0  0  0  0  0  0  0  0  0  0  0
    2.2960   -1.2920   -0.1270 C   0  0  0  0  0  0  0  0  0  0  0  0
    1.3750   -1.0420   -1.1210 C   0  0  0  0  0  0  0  0  0  0  0  0
    2.0200   -0.3090   -2.0470 N   0  0  0  0  0  0  0  0  0  0  0  0
    3.2940   -0.0920   -1.6790 C   0  0  0  0  0  0  0  0  0  0  0  0
    4.3530    0.5960   -2.2790 C   0  0  0  0  0  0  0  0  0  0  0  0
    5.5540    0.6360   -1.6400 C   0  0  0  0  0  0  0  0  0  0  0  0
    5.7880    0.0250   -0.4090 C   0  0  0  0  0  0  0  0  0  0  0  0
    4.7430   -0.6470    0.1710 C   0  0  0  0  0  0  0  0  0  0  0  0
    3.5220   -0.7010   -0.4560 C   0  0  0  0  0  0  0  0  0  0  0  0
    0.8840   -0.1020    2.1250 C   0  0  0  0  0  0  0  0  0  0  0  0
    0.9130    0.5860    1.0730 O   0  0  0  0  0  0  0  0  0  0  0  0
    0.8250   -2.4670    3.5190 H   0  0  0  0  0  0  0  0  0  0  0  0
    1.8740   -1.3600    4.3710 H   0  0  0  0  0  0  0  0  0  0  0  0
    2.9210   -0.6620    2.4340 H   0  0  0  0  0  0  0  0  0  0  0  0
    2.9180   -2.7300    1.3160 H   0  0  0  0  0  0  0  0  0  0  0  0
    1.1620   -2.7150    0.9920 H   0  0  0  0  0  0  0  0  0  0  0  0
    0.3410   -1.3660   -1.1570 H   0  0  0  0  0  0  0  0  0  0  0  0
    1.5610    0.0380   -2.9410 H   0  0  0  0  0  0  0  0  0  0  0  0
    4.2200    1.0830   -3.2290 H   0  0  0  0  0  0  0  0  0  0  0  0
    6.3930    1.1720   -2.0990 H   0  0  0  0  0  0  0  0  0  0  0  0
    6.7620    0.0860    0.0600 H   0  0  0  0  0  0  0  0  0  0  0  0
    4.8690   -1.1340    1.1170 H   0  0  0  0  0  0  0  0  0  0  0  0
   -0.1200    0.1610    3.0790 N   0  0  0  0  0  0  0  0  0  0  0  0
   -1.1130    1.1720    2.8930 C   0  0  0  0  0  0  0  0  0  0  0  0
   -2.0200    0.9180    1.7710 C   0  0  0  0  0  0  0  0  0  0  0  0
   -2.9130    1.7610    1.4370 O   0  0  0  0  0  0  0  0  0  0  0  0
   -0.1140   -0.4320    3.9610 H   0  0  0  0  0  0  0  0  0  0  0  0
   -0.5540    2.1310    2.7090 H   0  0  0  0  0  0  0  0  0  0  0  0
   -1.7020    1.3340    3.8490 H   0  0  0  0  0  0  0  0  0  0  0  0
   -3.2490   -2.8470    0.7760 C   0  0  0  0  0  0  0  0  0  0  0  0
   -3.8680   -1.5670    0.1970 C   0  0  0  0  0  0  0  0  0  0  0  0
   -4.8360   -1.0570    1.2040 C   0  0  0  0  0  0  0  0  0  0  0  0
   -2.7350   -0.6430   -0.0990 C   0  0  2  0  0  0  0  0  0  0  0  0
   -1.9350   -0.2800    1.0240 N   0  0  0  0  0  0  0  0  0  0  0  0
   -3.0490    0.4330   -1.0630 C   0  0  0  0  0  0  0  0  0  0  0  0
   -3.8590    0.1820   -1.9850 O   0  0  0  0  0  0  0  0  0  0  0  0
   -2.4870    1.6710   -0.9800 O   0  0  0  0  0  0  0  0  0  0  0  0
   -4.0870   -3.4990    1.0630 H   0  0  0  0  0  0  0  0  0  0  0  0
   -2.5430   -3.3110    0.0600 H   0  0  0  0  0  0  0  0  0  0  0  0
   -2.6840   -2.5950    1.7170 H   0  0  0  0  0  0  0  0  0  0  0  0
   -4.3490   -1.8540   -0.7440 H   0  0  0  0  0  0  0  0  0  0  0  0
   -4.5530   -1.3240    2.2560 H   0  0  0  0  0  0  0  0  0  0  0  0
   -5.0240    0.0190    1.1850 H   0  0  0  0  0  0  0  0  0  0  0  0
   -5.8230   -1.5650    1.0350 H   0  0  0  0  0  0  0  0  0  0  0  0
   -2.0060   -1.2930   -0.7410 H   0  0  0  0  0  0  0  0  0  0  0  0
   -1.2040   -0.9930    1.3660 H   0  0  0  0  0  0  0  0  0  0  0  0
  1 15  1  0  0  0  0
  1 16  1  0  0  0  0
  2 17  1  1  0  0  0
  2  1  1  0  0  0  0
  3 18  1  0  0  0  0
  3  2  1  0  0  0  0
  4  3  1  0  0  0  0
  5  4  2  0  0  0  0
  6  7  1  0  0  0  0
  6  5  1  0  0  0  0
  7 12  1  0  0  0  0
  8  7  2  0  0  0  0
  8  9  1  0  0  0  0
  9 10  2  0  0  0  0
 10 24  1  0  0  0  0
 10 11  1  0  0  0  0
 11 25  1  0  0  0  0
 12  4  1  0  0  0  0
 12 11  2  0  0  0  0
 13  2  1  0  0  0  0
 13 26  1  0  0  0  0
 14 13  2  0  0  0  0
 19  3  1  0  0  0  0
 20  5  1  0  0  0  0
 21  6  1  0  0  0  0
 22  8  1  0  0  0  0
 23  9  1  0  0  0  0
 26 30  1  0  0  0  0
 27 26  1  0  0  0  0
 27 32  1  0  0  0  0
 28 27  1  0  0  0  0
 29 28  2  0  0  0  0
 31 27  1  0  0  0  0
 33 41  1  0  0  0  0
 33 43  1  0  0  0  0
 34 33  1  0  0  0  0
 34 35  1  0  0  0  0
 35 45  1  0  0  0  0
 36 48  1  6  0  0  0
 36 34  1  0  0  0  0
 36 37  1  0  0  0  0
 37 49  1  0  0  0  0
 37 28  1  0  0  0  0
 38 40  1  0  0  0  0
 38 36  1  0  0  0  0
 39 38  2  0  0  0  0
 42 33  1  0  0  0  0
 44 34  1  0  0  0  0
 46 35  1  0  0  0  0
 47 35  1  0  0  0  0
M  END
$$$$
