WGY.pdb
 OpenBabel07022419163D

 54 56  0  0  1  0  0  0  0  0999 V2000
    2.7390   -1.3170    0.2870 N   0  0  0  0  0  0  0  0  0  0  0  0
    2.1650   -1.0800    1.5880 C   0  0  1  0  0  0  0  0  0  0  0  0
    2.8680   -0.0650    2.4200 C   0  0  0  0  0  0  0  0  0  0  0  0
    2.9560    1.2840    1.8640 C   0  0  0  0  0  0  0  0  0  0  0  0
    2.1740    2.3780    2.1600 C   0  0  0  0  0  0  0  0  0  0  0  0
    2.5500    3.4320    1.4260 N   0  0  0  0  0  0  0  0  0  0  0  0
    3.5860    3.0490    0.6360 C   0  0  0  0  0  0  0  0  0  0  0  0
    4.3420    3.7580   -0.3050 C   0  0  0  0  0  0  0  0  0  0  0  0
    5.3710    3.1640   -1.0030 C   0  0  0  0  0  0  0  0  0  0  0  0
    5.6120    1.8360   -0.7220 C   0  0  0  0  0  0  0  0  0  0  0  0
    4.8800    1.1270    0.1980 C   0  0  0  0  0  0  0  0  0  0  0  0
    3.8500    1.7260    0.8940 C   0  0  0  0  0  0  0  0  0  0  0  0
    0.7180   -0.7800    1.4090 C   0  0  0  0  0  0  0  0  0  0  0  0
    0.2550   -0.7480    0.2500 O   0  0  0  0  0  0  0  0  0  0  0  0
    2.2770   -2.1750   -0.0950 H   0  0  0  0  0  0  0  0  0  0  0  0
    2.5710   -0.5630   -0.3950 H   0  0  0  0  0  0  0  0  0  0  0  0
    2.2960   -2.0620    2.1390 H   0  0  0  0  0  0  0  0  0  0  0  0
    2.3410   -0.0020    3.4040 H   0  0  0  0  0  0  0  0  0  0  0  0
    3.8760   -0.4930    2.6770 H   0  0  0  0  0  0  0  0  0  0  0  0
    1.3470    2.4280    2.8870 H   0  0  0  0  0  0  0  0  0  0  0  0
    2.1540    4.4100    1.4170 H   0  0  0  0  0  0  0  0  0  0  0  0
    4.0980    4.7980   -0.4750 H   0  0  0  0  0  0  0  0  0  0  0  0
    5.9590    3.7060   -1.7310 H   0  0  0  0  0  0  0  0  0  0  0  0
    6.4350    1.3650   -1.2810 H   0  0  0  0  0  0  0  0  0  0  0  0
    5.0960    0.0900    0.4030 H   0  0  0  0  0  0  0  0  0  0  0  0
   -0.1580   -0.5310    2.4700 N   0  0  0  0  0  0  0  0  0  0  0  0
   -1.5620   -0.2510    2.4320 C   0  0  0  0  0  0  0  0  0  0  0  0
   -2.3350   -1.3730    1.9390 C   0  0  0  0  0  0  0  0  0  0  0  0
   -3.6040   -1.2250    1.8680 O   0  0  0  0  0  0  0  0  0  0  0  0
    0.2930   -0.5560    3.4370 H   0  0  0  0  0  0  0  0  0  0  0  0
   -1.9300    0.1050    3.4440 H   0  0  0  0  0  0  0  0  0  0  0  0
   -1.7670    0.6290    1.7510 H   0  0  0  0  0  0  0  0  0  0  0  0
   -4.9450    0.8180   -2.8090 O   0  0  0  0  0  0  0  0  0  0  0  0
   -4.3630   -0.2990   -2.2230 C   0  0  0  0  0  0  0  0  0  0  0  0
   -5.1820   -1.2660   -1.6850 C   0  0  0  0  0  0  0  0  0  0  0  0
   -4.6420   -2.3880   -1.0950 C   0  0  0  0  0  0  0  0  0  0  0  0
   -3.2570   -2.5980   -1.0130 C   0  0  0  0  0  0  0  0  0  0  0  0
   -2.7420   -3.8390   -0.3930 C   0  0  0  0  0  0  0  0  0  0  0  0
   -2.7090   -3.6930    1.0900 C   0  0  2  0  0  0  0  0  0  0  0  0
   -1.8420   -2.6210    1.5330 N   0  0  0  0  0  0  0  0  0  0  0  0
   -2.4100   -4.9660    1.7790 C   0  0  0  0  0  0  0  0  0  0  0  0
   -1.4890   -4.9930    2.6290 O   0  0  0  0  0  0  0  0  0  0  0  0
   -2.4670   -1.6150   -1.5600 C   0  0  0  0  0  0  0  0  0  0  0  0
   -2.9980   -0.4830   -2.1560 C   0  0  0  0  0  0  0  0  0  0  0  0
   -3.1150   -6.1260    1.5120 O   0  0  0  0  0  0  0  0  0  0  0  0
   -5.7380    0.6950   -3.4420 H   0  0  0  0  0  0  0  0  0  0  0  0
   -6.2670   -1.1810   -1.7060 H   0  0  0  0  0  0  0  0  0  0  0  0
   -5.2880   -3.1500   -0.6710 H   0  0  0  0  0  0  0  0  0  0  0  0
   -1.6960   -4.0090   -0.7390 H   0  0  0  0  0  0  0  0  0  0  0  0
   -3.4190   -4.6530   -0.7340 H   0  0  0  0  0  0  0  0  0  0  0  0
   -3.7770   -3.3780    1.3630 H   0  0  0  0  0  0  0  0  0  0  0  0
   -0.7910   -2.7780    1.5720 H   0  0  0  0  0  0  0  0  0  0  0  0
   -1.3970   -1.7280   -1.5470 H   0  0  0  0  0  0  0  0  0  0  0  0
   -2.3640    0.2720   -2.5760 H   0  0  0  0  0  0  0  0  0  0  0  0
  1  2  1  0  0  0  0
  2 17  1  1  0  0  0
  2  3  1  0  0  0  0
  3 19  1  0  0  0  0
  3 18  1  0  0  0  0
  4  5  2  0  0  0  0
  4  3  1  0  0  0  0
  5 20  1  0  0  0  0
  6  5  1  0  0  0  0
  7 12  1  0  0  0  0
  7  6  1  0  0  0  0
  8  7  2  0  0  0  0
  9 10  2  0  0  0  0
  9  8  1  0  0  0  0
 10 11  1  0  0  0  0
 11 25  1  0  0  0  0
 11 12  2  0  0  0  0
 12  4  1  0  0  0  0
 13  2  1  0  0  0  0
 13 26  1  0  0  0  0
 14 13  2  0  0  0  0
 15  1  1  0  0  0  0
 16  1  1  0  0  0  0
 21  6  1  0  0  0  0
 22  8  1  0  0  0  0
 23  9  1  0  0  0  0
 24 10  1  0  0  0  0
 26 30  1  0  0  0  0
 27 26  1  0  0  0  0
 27 31  1  0  0  0  0
 28 27  1  0  0  0  0
 29 28  2  0  0  0  0
 32 27  1  0  0  0  0
 33 34  1  0  0  0  0
 34 44  2  0  0  0  0
 34 35  1  0  0  0  0
 35 36  2  0  0  0  0
 36 37  1  0  0  0  0
 36 48  1  0  0  0  0
 37 38  1  0  0  0  0
 38 39  1  0  0  0  0
 39 51  1  1  0  0  0
 39 40  1  0  0  0  0
 39 41  1  0  0  0  0
 40 52  1  0  0  0  0
 40 28  1  0  0  0  0
 41 42  1  0  0  0  0
 43 53  1  0  0  0  0
 43 37  2  0  0  0  0
 44 43  1  0  0  0  0
 45 41  2  0  0  0  0
 46 33  1  0  0  0  0
 47 35  1  0  0  0  0
 49 38  1  0  0  0  0
 50 38  1  0  0  0  0
 54 44  1  0  0  0  0
M  END
$$$$
