WHC.pdb
 OpenBabel07022419173D

 54 56  0  0  1  0  0  0  0  0999 V2000
    2.4710   -0.9290   -0.9300 N   0  0  0  0  0  0  0  0  0  0  0  0
    2.4300   -1.8650    0.1310 C   0  0  1  0  0  0  0  0  0  0  0  0
    3.4160   -1.4520    1.2290 C   0  0  0  0  0  0  0  0  0  0  0  0
    3.1070   -0.1150    1.7830 C   0  0  0  0  0  0  0  0  0  0  0  0
    2.3810    0.1420    2.9520 C   0  0  0  0  0  0  0  0  0  0  0  0
    2.2790    1.4690    3.1110 N   0  0  0  0  0  0  0  0  0  0  0  0
    2.9030    2.1340    2.1040 C   0  0  0  0  0  0  0  0  0  0  0  0
    3.0720    3.4770    1.8380 C   0  0  0  0  0  0  0  0  0  0  0  0
    3.7730    3.8790    0.7260 C   0  0  0  0  0  0  0  0  0  0  0  0
    4.2810    2.8870   -0.0850 C   0  0  0  0  0  0  0  0  0  0  0  0
    4.1170    1.5360    0.1710 C   0  0  0  0  0  0  0  0  0  0  0  0
    3.4170    1.1270    1.2810 C   0  0  0  0  0  0  0  0  0  0  0  0
    1.1220   -1.9980    0.8190 C   0  0  0  0  0  0  0  0  0  0  0  0
    1.0560   -2.8440    1.7500 O   0  0  0  0  0  0  0  0  0  0  0  0
    1.6090   -0.7340   -1.4400 H   0  0  0  0  0  0  0  0  0  0  0  0
    3.2810   -1.1600   -1.5840 H   0  0  0  0  0  0  0  0  0  0  0  0
    2.7460   -2.8610   -0.2940 H   0  0  0  0  0  0  0  0  0  0  0  0
    3.4400   -2.2050    2.0420 H   0  0  0  0  0  0  0  0  0  0  0  0
    4.4440   -1.4190    0.7830 H   0  0  0  0  0  0  0  0  0  0  0  0
    1.9950   -0.6490    3.5780 H   0  0  0  0  0  0  0  0  0  0  0  0
    1.7990    1.9820    3.8820 H   0  0  0  0  0  0  0  0  0  0  0  0
    2.6600    4.2200    2.4960 H   0  0  0  0  0  0  0  0  0  0  0  0
    3.9200    4.9290    0.4930 H   0  0  0  0  0  0  0  0  0  0  0  0
    4.8430    3.1360   -0.9770 H   0  0  0  0  0  0  0  0  0  0  0  0
    4.5380    0.7770   -0.4760 H   0  0  0  0  0  0  0  0  0  0  0  0
   -0.0430   -1.2680    0.5230 N   0  0  0  0  0  0  0  0  0  0  0  0
   -1.3040   -1.4340    1.2240 C   0  0  1  0  0  0  0  0  0  0  0  0
   -1.7490   -0.1590    1.8730 C   0  0  0  0  0  0  0  0  0  0  0  0
   -3.0210   -0.3330    2.5810 C   0  0  0  0  0  0  0  0  0  0  0  0
   -4.3130   -0.1470    2.1320 C   0  0  0  0  0  0  0  0  0  0  0  0
   -5.1680   -0.4140    3.1350 N   0  0  0  0  0  0  0  0  0  0  0  0
   -4.4230   -0.7620    4.1990 C   0  0  0  0  0  0  0  0  0  0  0  0
   -3.1240   -0.7140    3.8700 N   0  0  0  0  0  0  0  0  0  0  0  0
   -2.2910   -1.9420    0.2380 C   0  0  0  0  0  0  0  0  0  0  0  0
   -3.4750   -2.2260    0.5420 O   0  0  0  0  0  0  0  0  0  0  0  0
   -0.0030   -0.5640   -0.2430 H   0  0  0  0  0  0  0  0  0  0  0  0
   -1.2330   -2.2080    2.0200 H   0  0  0  0  0  0  0  0  0  0  0  0
   -1.7750    0.6970    1.1630 H   0  0  0  0  0  0  0  0  0  0  0  0
   -0.9650    0.1050    2.6310 H   0  0  0  0  0  0  0  0  0  0  0  0
   -4.6280    0.1590    1.1650 H   0  0  0  0  0  0  0  0  0  0  0  0
   -6.2160   -0.3670    3.1130 H   0  0  0  0  0  0  0  0  0  0  0  0
   -4.8170   -1.0410    5.1840 H   0  0  0  0  0  0  0  0  0  0  0  0
   -1.9400   -2.1380   -1.1360 N   0  0  0  0  0  0  0  0  0  0  0  0
   -2.9060   -2.6280   -2.0720 C   0  0  1  0  0  0  0  0  0  0  0  0
   -3.1730   -1.6370   -3.1800 C   0  0  0  0  0  0  0  0  0  0  0  0
   -1.7100   -1.2350   -4.1370 S   0  0  0  0  0  0  0  0  0  0  0  0
   -2.4530   -3.9380   -2.6040 C   0  0  0  0  0  0  0  0  0  0  0  0
   -3.1210   -4.5890   -3.4500 O   0  0  0  0  0  0  0  0  0  0  0  0
   -1.2560   -4.4970   -2.1760 O   0  0  0  0  0  0  0  0  0  0  0  0
   -0.9570   -1.9150   -1.4440 H   0  0  0  0  0  0  0  0  0  0  0  0
   -3.8740   -2.8040   -1.5520 H   0  0  0  0  0  0  0  0  0  0  0  0
   -3.5710   -0.7100   -2.7240 H   0  0  0  0  0  0  0  0  0  0  0  0
   -3.9600   -2.0690   -3.8180 H   0  0  0  0  0  0  0  0  0  0  0  0
   -0.7090   -2.1780   -3.9380 H   0  0  0  0  0  0  0  0  0  0  0  0
  1  2  1  0  0  0  0
  2 17  1  6  0  0  0
  2 13  1  0  0  0  0
  2  3  1  0  0  0  0
  3  4  1  0  0  0  0
  3 18  1  0  0  0  0
  4  5  2  0  0  0  0
  5  6  1  0  0  0  0
  5 20  1  0  0  0  0
  6 21  1  0  0  0  0
  7  6  1  0  0  0  0
  8  7  1  0  0  0  0
  8 22  1  0  0  0  0
  9  8  2  0  0  0  0
 10 11  2  0  0  0  0
 10  9  1  0  0  0  0
 11 12  1  0  0  0  0
 12  4  1  0  0  0  0
 12  7  2  0  0  0  0
 13 14  2  0  0  0  0
 15  1  1  0  0  0  0
 16  1  1  0  0  0  0
 19  3  1  0  0  0  0
 23  9  1  0  0  0  0
 24 10  1  0  0  0  0
 25 11  1  0  0  0  0
 26 13  1  0  0  0  0
 26 27  1  0  0  0  0
 27 28  1  0  0  0  0
 27 37  1  1  0  0  0
 28 29  1  0  0  0  0
 28 39  1  0  0  0  0
 29 33  1  0  0  0  0
 30 29  2  0  0  0  0
 30 31  1  0  0  0  0
 31 32  1  0  0  0  0
 32 42  1  0  0  0  0
 33 32  2  0  0  0  0
 34 35  2  0  0  0  0
 34 27  1  0  0  0  0
 36 26  1  0  0  0  0
 38 28  1  0  0  0  0
 40 30  1  0  0  0  0
 41 31  1  0  0  0  0
 43 34  1  0  0  0  0
 44 51  1  1  0  0  0
 44 43  1  0  0  0  0
 45 52  1  0  0  0  0
 45 44  1  0  0  0  0
 46 54  1  0  0  0  0
 46 45  1  0  0  0  0
 47 49  1  0  0  0  0
 47 44  1  0  0  0  0
 48 47  2  0  0  0  0
 50 43  1  0  0  0  0
 53 45  1  0  0  0  0
M  END
$$$$
