WHE.pdb
 OpenBabel07022419173D

 59 61  0  0  1  0  0  0  0  0999 V2000
    1.9270    0.8490    1.8950 N   0  0  0  0  0  0  0  0  0  0  0  0
    2.5630    0.0530    0.8910 C   0  0  1  0  0  0  0  0  0  0  0  0
    2.9760   -1.3210    1.2940 C   0  0  0  0  0  0  0  0  0  0  0  0
    1.8650   -2.1970    1.7530 C   0  0  0  0  0  0  0  0  0  0  0  0
    1.2070   -3.1700    0.9930 C   0  0  0  0  0  0  0  0  0  0  0  0
    0.2570   -3.7290    1.7520 N   0  0  0  0  0  0  0  0  0  0  0  0
    0.2450   -3.1740    2.9930 C   0  0  0  0  0  0  0  0  0  0  0  0
   -0.5550   -3.4340    4.1120 C   0  0  0  0  0  0  0  0  0  0  0  0
   -0.3310   -2.7060    5.2620 C   0  0  0  0  0  0  0  0  0  0  0  0
    0.6710   -1.7630    5.2430 C   0  0  0  0  0  0  0  0  0  0  0  0
    1.4580   -1.5060    4.1440 C   0  0  0  0  0  0  0  0  0  0  0  0
    1.2430   -2.2290    2.9830 C   0  0  0  0  0  0  0  0  0  0  0  0
    1.7620    0.0390   -0.3810 C   0  0  0  0  0  0  0  0  0  0  0  0
    2.1890   -0.7010   -1.2840 O   0  0  0  0  0  0  0  0  0  0  0  0
    0.9780    0.5480    2.1810 H   0  0  0  0  0  0  0  0  0  0  0  0
    2.5520    1.0920    2.6820 H   0  0  0  0  0  0  0  0  0  0  0  0
    3.5060    0.5960    0.6170 H   0  0  0  0  0  0  0  0  0  0  0  0
    3.5170   -1.7810    0.4510 H   0  0  0  0  0  0  0  0  0  0  0  0
    3.6450   -1.2050    2.1940 H   0  0  0  0  0  0  0  0  0  0  0  0
    1.4840   -3.3790   -0.0410 H   0  0  0  0  0  0  0  0  0  0  0  0
   -0.3930   -4.4740    1.4730 H   0  0  0  0  0  0  0  0  0  0  0  0
   -1.3170   -4.1870    4.0480 H   0  0  0  0  0  0  0  0  0  0  0  0
   -0.9350   -2.8760    6.1700 H   0  0  0  0  0  0  0  0  0  0  0  0
    0.8440   -1.1890    6.1470 H   0  0  0  0  0  0  0  0  0  0  0  0
    2.2430   -0.7690    4.1370 H   0  0  0  0  0  0  0  0  0  0  0  0
    0.6170    0.8510   -0.4360 N   0  0  0  0  0  0  0  0  0  0  0  0
   -0.2590    1.0020   -1.5410 C   0  0  1  0  0  0  0  0  0  0  0  0
    0.1100    0.2070   -2.7880 C   0  0  0  0  0  0  0  0  0  0  0  0
    1.3860    0.6600   -3.3910 C   0  0  0  0  0  0  0  0  0  0  0  0
    1.9460    0.0400   -4.5150 C   0  0  0  0  0  0  0  0  0  0  0  0
    3.1050    0.6970   -4.7960 N   0  0  0  0  0  0  0  0  0  0  0  0
    3.2750    1.6810   -3.9020 C   0  0  0  0  0  0  0  0  0  0  0  0
    2.2410    1.6320   -3.0850 N   0  0  0  0  0  0  0  0  0  0  0  0
   -1.6900    0.9510   -1.2410 C   0  0  0  0  0  0  0  0  0  0  0  0
   -2.0840    0.7350   -0.0440 O   0  0  0  0  0  0  0  0  0  0  0  0
    0.3700    1.4240    0.4500 H   0  0  0  0  0  0  0  0  0  0  0  0
   -0.0380    2.0980   -1.9210 H   0  0  0  0  0  0  0  0  0  0  0  0
    0.2330   -0.8850   -2.5270 H   0  0  0  0  0  0  0  0  0  0  0  0
   -0.6840    0.3400   -3.5420 H   0  0  0  0  0  0  0  0  0  0  0  0
    1.5530   -0.8040   -5.0730 H   0  0  0  0  0  0  0  0  0  0  0  0
    3.7730    0.4910   -5.5730 H   0  0  0  0  0  0  0  0  0  0  0  0
    4.1020    2.3640   -3.8750 H   0  0  0  0  0  0  0  0  0  0  0  0
   -2.6600    1.1370   -2.2520 N   0  0  0  0  0  0  0  0  0  0  0  0
   -4.0800    1.0890   -1.9850 C   0  0  1  0  0  0  0  0  0  0  0  0
   -4.6960    2.3840   -2.4340 C   0  0  0  0  0  0  0  0  0  0  0  0
   -4.5040    2.6470   -3.8960 C   0  0  0  0  0  0  0  0  0  0  0  0
   -5.1520    3.9370   -4.2510 C   0  0  0  0  0  0  0  0  0  0  0  0
   -5.1140    4.3680   -5.4340 O   0  0  0  0  0  0  0  0  0  0  0  0
   -4.7110   -0.0860   -2.6470 C   0  0  0  0  0  0  0  0  0  0  0  0
   -5.9460   -0.2340   -2.4920 O   0  0  0  0  0  0  0  0  0  0  0  0
   -5.8190    4.7190   -3.3220 O   0  0  0  0  0  0  0  0  0  0  0  0
   -4.0260   -1.0100   -3.4070 O   0  0  0  0  0  0  0  0  0  0  0  0
   -2.3620    1.3210   -3.2250 H   0  0  0  0  0  0  0  0  0  0  0  0
   -4.2320    0.9350   -0.8980 H   0  0  0  0  0  0  0  0  0  0  0  0
   -5.8010    2.3690   -2.2120 H   0  0  0  0  0  0  0  0  0  0  0  0
   -4.2980    3.2470   -1.8670 H   0  0  0  0  0  0  0  0  0  0  0  0
   -3.4340    2.7680   -4.1690 H   0  0  0  0  0  0  0  0  0  0  0  0
   -4.9550    1.8420   -4.5320 H   0  0  0  0  0  0  0  0  0  0  0  0
   -5.9300    5.7100   -3.3760 H   0  0  0  0  0  0  0  0  0  0  0  0
  1 15  1  0  0  0  0
  1 16  1  0  0  0  0
  2 17  1  6  0  0  0
  2  3  1  0  0  0  0
  2  1  1  0  0  0  0
  3  4  1  0  0  0  0
  3 19  1  0  0  0  0
  4 12  1  0  0  0  0
  5  6  1  0  0  0  0
  5  4  2  0  0  0  0
  6  7  1  0  0  0  0
  7  8  1  0  0  0  0
  8  9  2  0  0  0  0
  9 23  1  0  0  0  0
 10  9  1  0  0  0  0
 10 24  1  0  0  0  0
 11 10  2  0  0  0  0
 12  7  2  0  0  0  0
 12 11  1  0  0  0  0
 13  2  1  0  0  0  0
 14 13  2  0  0  0  0
 18  3  1  0  0  0  0
 20  5  1  0  0  0  0
 21  6  1  0  0  0  0
 22  8  1  0  0  0  0
 25 11  1  0  0  0  0
 26 13  1  0  0  0  0
 26 36  1  0  0  0  0
 27 37  1  6  0  0  0
 27 34  1  0  0  0  0
 27 26  1  0  0  0  0
 28 38  1  0  0  0  0
 28 27  1  0  0  0  0
 29 33  1  0  0  0  0
 29 28  1  0  0  0  0
 30 29  2  0  0  0  0
 31 30  1  0  0  0  0
 31 32  1  0  0  0  0
 32 42  1  0  0  0  0
 32 33  2  0  0  0  0
 34 35  2  0  0  0  0
 39 28  1  0  0  0  0
 40 30  1  0  0  0  0
 41 31  1  0  0  0  0
 43 44  1  0  0  0  0
 43 34  1  0  0  0  0
 44 54  1  1  0  0  0
 45 55  1  0  0  0  0
 45 44  1  0  0  0  0
 45 56  1  0  0  0  0
 46 45  1  0  0  0  0
 47 46  1  0  0  0  0
 47 51  1  0  0  0  0
 48 47  2  0  0  0  0
 49 50  1  0  0  0  0
 49 44  1  0  0  0  0
 52 49  2  0  0  0  0
 53 43  1  0  0  0  0
 57 46  1  0  0  0  0
 58 46  1  0  0  0  0
 59 51  1  0  0  0  0
M  END
$$$$
