WHK.pdb
 OpenBabel07022419173D

 64 66  0  0  1  0  0  0  0  0999 V2000
    3.3110   -3.4300    3.5700 N   0  0  0  0  0  0  0  0  0  0  0  0
    2.1740   -2.4890    3.5280 C   0  0  1  0  0  0  0  0  0  0  0  0
    2.5340   -1.1750    4.0720 C   0  0  0  0  0  0  0  0  0  0  0  0
    3.6230   -0.4320    3.4510 C   0  0  0  0  0  0  0  0  0  0  0  0
    4.9680   -0.4380    3.8100 C   0  0  0  0  0  0  0  0  0  0  0  0
    5.6660    0.3370    2.9670 N   0  0  0  0  0  0  0  0  0  0  0  0
    4.7960    0.8400    2.0770 C   0  0  0  0  0  0  0  0  0  0  0  0
    4.9270    1.6980    0.9970 C   0  0  0  0  0  0  0  0  0  0  0  0
    3.8580    2.0900    0.2240 C   0  0  0  0  0  0  0  0  0  0  0  0
    2.6010    1.6200    0.5210 C   0  0  0  0  0  0  0  0  0  0  0  0
    2.4370    0.7760    1.5740 C   0  0  0  0  0  0  0  0  0  0  0  0
    3.5230    0.3850    2.3470 C   0  0  0  0  0  0  0  0  0  0  0  0
    1.4280   -2.6650    2.3060 C   0  0  0  0  0  0  0  0  0  0  0  0
    1.9170   -3.4970    1.4460 O   0  0  0  0  0  0  0  0  0  0  0  0
    3.8690   -3.3600    2.6900 H   0  0  0  0  0  0  0  0  0  0  0  0
    2.8990   -4.4000    3.5460 H   0  0  0  0  0  0  0  0  0  0  0  0
    1.5050   -2.9560    4.3640 H   0  0  0  0  0  0  0  0  0  0  0  0
    2.8050   -1.3260    5.1610 H   0  0  0  0  0  0  0  0  0  0  0  0
    1.5910   -0.5690    4.1420 H   0  0  0  0  0  0  0  0  0  0  0  0
    5.4390   -0.9650    4.6270 H   0  0  0  0  0  0  0  0  0  0  0  0
    6.6830    0.5590    2.9380 H   0  0  0  0  0  0  0  0  0  0  0  0
    5.9290    2.0780    0.7550 H   0  0  0  0  0  0  0  0  0  0  0  0
    3.9710    2.7660   -0.6240 H   0  0  0  0  0  0  0  0  0  0  0  0
    1.7370    1.9260   -0.0910 H   0  0  0  0  0  0  0  0  0  0  0  0
    1.4780    0.4070    1.8470 H   0  0  0  0  0  0  0  0  0  0  0  0
    0.2100   -2.0670    1.8920 N   0  0  0  0  0  0  0  0  0  0  0  0
   -0.4160   -2.4040    0.6540 C   0  0  1  0  0  0  0  0  0  0  0  0
   -1.6550   -3.2580    0.8720 C   0  0  0  0  0  0  0  0  0  0  0  0
   -2.6880   -2.5890    1.7030 C   0  0  0  0  0  0  0  0  0  0  0  0
   -3.7260   -1.7960    1.3060 C   0  0  0  0  0  0  0  0  0  0  0  0
   -4.4060   -1.4150    2.3860 N   0  0  0  0  0  0  0  0  0  0  0  0
   -3.8270   -1.9460    3.4730 C   0  0  0  0  0  0  0  0  0  0  0  0
   -2.7780   -2.6620    3.0450 N   0  0  0  0  0  0  0  0  0  0  0  0
   -0.6430   -1.2700   -0.2330 C   0  0  0  0  0  0  0  0  0  0  0  0
   -0.3450   -0.1340    0.1410 O   0  0  0  0  0  0  0  0  0  0  0  0
   -0.1820   -1.3610    2.5760 H   0  0  0  0  0  0  0  0  0  0  0  0
    0.2830   -3.1020    0.0990 H   0  0  0  0  0  0  0  0  0  0  0  0
   -1.3090   -4.1650    1.4360 H   0  0  0  0  0  0  0  0  0  0  0  0
   -2.0550   -3.5460   -0.0920 H   0  0  0  0  0  0  0  0  0  0  0  0
   -3.9560   -1.5220    0.2920 H   0  0  0  0  0  0  0  0  0  0  0  0
   -5.2740   -0.7880    2.4230 H   0  0  0  0  0  0  0  0  0  0  0  0
   -4.1620   -1.8110    4.5080 H   0  0  0  0  0  0  0  0  0  0  0  0
   -1.2010   -1.5370   -1.5020 N   0  0  0  0  0  0  0  0  0  0  0  0
   -1.5220   -0.6270   -2.5230 C   0  0  1  0  0  0  0  0  0  0  0  0
   -1.5670    0.8340   -2.2470 C   0  0  0  0  0  0  0  0  0  0  0  0
   -2.5710    1.3440   -1.2920 C   0  0  0  0  0  0  0  0  0  0  0  0
   -4.0170    1.0910   -1.6370 C   0  0  0  0  0  0  0  0  0  0  0  0
   -4.4590    1.7480   -2.9000 C   0  0  0  0  0  0  0  0  0  0  0  0
   -3.7510    1.2840   -4.0490 N   0  0  0  0  0  0  0  0  0  0  0  0
   -0.8280   -0.8740   -3.8010 C   0  0  0  0  0  0  0  0  0  0  0  0
   -0.0460   -1.8630   -3.8510 O   0  0  0  0  0  0  0  0  0  0  0  0
   -1.0560   -0.0350   -4.8620 O   0  0  0  0  0  0  0  0  0  0  0  0
   -1.4050   -2.5650   -1.7240 H   0  0  0  0  0  0  0  0  0  0  0  0
   -2.6560   -0.8710   -2.7390 H   0  0  0  0  0  0  0  0  0  0  0  0
   -1.6430    1.3850   -3.2060 H   0  0  0  0  0  0  0  0  0  0  0  0
   -0.5000    1.0800   -1.8710 H   0  0  0  0  0  0  0  0  0  0  0  0
   -2.4490    1.0980   -0.2390 H   0  0  0  0  0  0  0  0  0  0  0  0
   -2.4300    2.4970   -1.2860 H   0  0  0  0  0  0  0  0  0  0  0  0
   -4.2310   -0.0060   -1.6810 H   0  0  0  0  0  0  0  0  0  0  0  0
   -4.6860    1.5080   -0.8230 H   0  0  0  0  0  0  0  0  0  0  0  0
   -4.2380    2.8510   -2.7580 H   0  0  0  0  0  0  0  0  0  0  0  0
   -5.5700    1.6940   -3.0320 H   0  0  0  0  0  0  0  0  0  0  0  0
   -4.3590    0.6660   -4.6700 H   0  0  0  0  0  0  0  0  0  0  0  0
   -3.4250    2.1080   -4.6270 H   0  0  0  0  0  0  0  0  0  0  0  0
  2  1  1  0  0  0  0
  2  3  1  0  0  0  0
  2 17  1  1  0  0  0
  3 19  1  0  0  0  0
  3 18  1  0  0  0  0
  4  5  2  0  0  0  0
  4  3  1  0  0  0  0
  5 20  1  0  0  0  0
  6  5  1  0  0  0  0
  7 12  1  0  0  0  0
  7  6  1  0  0  0  0
  8  7  2  0  0  0  0
  9 10  2  0  0  0  0
  9  8  1  0  0  0  0
 10 11  1  0  0  0  0
 11 25  1  0  0  0  0
 11 12  2  0  0  0  0
 12  4  1  0  0  0  0
 13  2  1  0  0  0  0
 14 13  2  0  0  0  0
 15  1  1  0  0  0  0
 16  1  1  0  0  0  0
 21  6  1  0  0  0  0
 22  8  1  0  0  0  0
 23  9  1  0  0  0  0
 24 10  1  0  0  0  0
 26 13  1  0  0  0  0
 26 36  1  0  0  0  0
 27 37  1  6  0  0  0
 27 28  1  0  0  0  0
 27 26  1  0  0  0  0
 28 38  1  0  0  0  0
 28 29  1  0  0  0  0
 29 33  1  0  0  0  0
 30 29  2  0  0  0  0
 30 31  1  0  0  0  0
 31 41  1  0  0  0  0
 31 32  1  0  0  0  0
 32 42  1  0  0  0  0
 33 32  2  0  0  0  0
 34 35  2  0  0  0  0
 34 27  1  0  0  0  0
 39 28  1  0  0  0  0
 40 30  1  0  0  0  0
 43 34  1  0  0  0  0
 44 54  1  6  0  0  0
 44 45  1  0  0  0  0
 44 43  1  0  0  0  0
 45 56  1  0  0  0  0
 45 46  1  0  0  0  0
 46 58  1  0  0  0  0
 46 57  1  0  0  0  0
 47 46  1  0  0  0  0
 47 60  1  0  0  0  0
 48 61  1  0  0  0  0
 48 47  1  0  0  0  0
 49 48  1  0  0  0  0
 50 44  1  0  0  0  0
 51 50  1  0  0  0  0
 52 50  2  0  0  0  0
 53 43  1  0  0  0  0
 55 45  1  0  0  0  0
 59 47  1  0  0  0  0
 62 48  1  0  0  0  0
 63 49  1  0  0  0  0
 64 49  1  0  0  0  0
M  END
$$$$
