WHM.pdb
 OpenBabel07022419173D

 60 62  0  0  1  0  0  0  0  0999 V2000
    0.9000    0.8830    0.5350 N   0  0  0  0  0  0  0  0  0  0  0  0
    1.5190    0.4630    1.7620 C   0  0  1  0  0  0  0  0  0  0  0  0
    1.8100    1.5800    2.6960 C   0  0  0  0  0  0  0  0  0  0  0  0
    2.7270    2.5650    2.0830 C   0  0  0  0  0  0  0  0  0  0  0  0
    4.1170    2.6120    2.2990 C   0  0  0  0  0  0  0  0  0  0  0  0
    4.6400    3.6110    1.5740 N   0  0  0  0  0  0  0  0  0  0  0  0
    3.6770    4.2490    0.8720 C   0  0  0  0  0  0  0  0  0  0  0  0
    3.7110    5.3250    0.0020 C   0  0  0  0  0  0  0  0  0  0  0  0
    2.5540    5.7850   -0.5780 C   0  0  0  0  0  0  0  0  0  0  0  0
    1.3830    5.1410   -0.2620 C   0  0  0  0  0  0  0  0  0  0  0  0
    1.3330    4.0600    0.6100 C   0  0  0  0  0  0  0  0  0  0  0  0
    2.4940    3.5930    1.1950 C   0  0  0  0  0  0  0  0  0  0  0  0
    0.8110   -0.6670    2.4250 C   0  0  0  0  0  0  0  0  0  0  0  0
    1.2920   -1.1850    3.4770 O   0  0  0  0  0  0  0  0  0  0  0  0
    0.5940    0.0060    0.0450 H   0  0  0  0  0  0  0  0  0  0  0  0
    1.6390    1.3050   -0.1080 H   0  0  0  0  0  0  0  0  0  0  0  0
    2.5190    0.0210    1.4550 H   0  0  0  0  0  0  0  0  0  0  0  0
    2.2650    1.1820    3.6280 H   0  0  0  0  0  0  0  0  0  0  0  0
    0.8610    2.1270    2.9230 H   0  0  0  0  0  0  0  0  0  0  0  0
    4.6240    1.9290    2.9560 H   0  0  0  0  0  0  0  0  0  0  0  0
    5.6460    3.8730    1.5420 H   0  0  0  0  0  0  0  0  0  0  0  0
    4.6320    5.8320   -0.2460 H   0  0  0  0  0  0  0  0  0  0  0  0
    2.5580    6.6360   -1.2690 H   0  0  0  0  0  0  0  0  0  0  0  0
    0.4470    5.4940   -0.7140 H   0  0  0  0  0  0  0  0  0  0  0  0
    0.4110    3.5660    0.8570 H   0  0  0  0  0  0  0  0  0  0  0  0
   -0.4030   -1.2410    1.9710 N   0  0  0  0  0  0  0  0  0  0  0  0
   -1.0350   -2.3580    2.6890 C   0  0  1  0  0  0  0  0  0  0  0  0
   -2.3760   -1.9730    3.2150 C   0  0  0  0  0  0  0  0  0  0  0  0
   -3.3610   -1.5570    2.2250 C   0  0  0  0  0  0  0  0  0  0  0  0
   -4.2470   -2.4150    1.5860 C   0  0  0  0  0  0  0  0  0  0  0  0
   -5.0030   -1.6940    0.7450 N   0  0  0  0  0  0  0  0  0  0  0  0
   -4.5870   -0.4240    0.8690 C   0  0  0  0  0  0  0  0  0  0  0  0
   -3.5930   -0.3350    1.7630 N   0  0  0  0  0  0  0  0  0  0  0  0
   -1.0720   -3.5630    1.8070 C   0  0  0  0  0  0  0  0  0  0  0  0
   -1.5540   -4.6580    2.2020 O   0  0  0  0  0  0  0  0  0  0  0  0
   -0.8620   -0.8680    1.1170 H   0  0  0  0  0  0  0  0  0  0  0  0
   -0.4160   -2.6420    3.5720 H   0  0  0  0  0  0  0  0  0  0  0  0
   -2.7520   -2.7680    3.8740 H   0  0  0  0  0  0  0  0  0  0  0  0
   -2.1980   -1.0870    3.8920 H   0  0  0  0  0  0  0  0  0  0  0  0
   -4.3070   -3.5000    1.7520 H   0  0  0  0  0  0  0  0  0  0  0  0
   -5.7620   -2.0620    0.1240 H   0  0  0  0  0  0  0  0  0  0  0  0
   -5.0410    0.3920    0.2860 H   0  0  0  0  0  0  0  0  0  0  0  0
   -1.9570   -3.6990   -4.7660 C   0  0  0  0  0  0  0  0  0  0  0  0
   -2.7620   -5.0550   -3.8670 S   0  0  0  0  0  0  0  0  0  0  0  0
   -1.6100   -5.5890   -2.5420 C   0  0  0  0  0  0  0  0  0  0  0  0
   -1.5030   -4.4510   -1.5830 C   0  0  0  0  0  0  0  0  0  0  0  0
   -0.5930   -4.7110   -0.4010 C   0  0  2  0  0  0  0  0  0  0  0  0
   -0.5660   -3.5340    0.4770 N   0  0  0  0  0  0  0  0  0  0  0  0
    0.8010   -4.9870   -0.7670 C   0  0  0  0  0  0  0  0  0  0  0  0
    1.0600   -5.9670   -1.4940 O   0  0  0  0  0  0  0  0  0  0  0  0
    1.8510   -4.2020   -0.3390 O   0  0  0  0  0  0  0  0  0  0  0  0
   -2.4620   -3.4950   -5.7390 H   0  0  0  0  0  0  0  0  0  0  0  0
   -0.8990   -3.9210   -4.9160 H   0  0  0  0  0  0  0  0  0  0  0  0
   -2.0530   -2.7670   -4.1600 H   0  0  0  0  0  0  0  0  0  0  0  0
   -2.0810   -6.4900   -2.1010 H   0  0  0  0  0  0  0  0  0  0  0  0
   -0.6650   -5.9130   -3.0030 H   0  0  0  0  0  0  0  0  0  0  0  0
   -2.5430   -4.2630   -1.2000 H   0  0  0  0  0  0  0  0  0  0  0  0
   -1.2120   -3.5000   -2.0720 H   0  0  0  0  0  0  0  0  0  0  0  0
   -1.0130   -5.5850    0.1240 H   0  0  0  0  0  0  0  0  0  0  0  0
   -0.1680   -2.6290    0.1450 H   0  0  0  0  0  0  0  0  0  0  0  0
  1  2  1  0  0  0  0
  2 17  1  6  0  0  0
  2 13  1  0  0  0  0
  2  3  1  0  0  0  0
  3 19  1  0  0  0  0
  3 18  1  0  0  0  0
  4  5  2  0  0  0  0
  4  3  1  0  0  0  0
  5 20  1  0  0  0  0
  6  5  1  0  0  0  0
  7 12  1  0  0  0  0
  7  6  1  0  0  0  0
  8  7  2  0  0  0  0
  9 10  2  0  0  0  0
  9  8  1  0  0  0  0
 10 11  1  0  0  0  0
 11 25  1  0  0  0  0
 11 12  2  0  0  0  0
 12  4  1  0  0  0  0
 13 14  2  0  0  0  0
 15  1  1  0  0  0  0
 16  1  1  0  0  0  0
 21  6  1  0  0  0  0
 22  8  1  0  0  0  0
 23  9  1  0  0  0  0
 24 10  1  0  0  0  0
 26 13  1  0  0  0  0
 26 27  1  0  0  0  0
 27 28  1  0  0  0  0
 27 37  1  1  0  0  0
 28 38  1  0  0  0  0
 28 39  1  0  0  0  0
 29 28  1  0  0  0  0
 30 40  1  0  0  0  0
 30 29  2  0  0  0  0
 31 32  1  0  0  0  0
 31 30  1  0  0  0  0
 32 33  2  0  0  0  0
 33 29  1  0  0  0  0
 34 35  2  0  0  0  0
 34 27  1  0  0  0  0
 36 26  1  0  0  0  0
 41 31  1  0  0  0  0
 42 32  1  0  0  0  0
 43 54  1  0  0  0  0
 43 44  1  0  0  0  0
 44 45  1  0  0  0  0
 45 55  1  0  0  0  0
 45 46  1  0  0  0  0
 46 57  1  0  0  0  0
 46 47  1  0  0  0  0
 47 59  1  1  0  0  0
 47 48  1  0  0  0  0
 48 34  1  0  0  0  0
 49 47  1  0  0  0  0
 49 51  1  0  0  0  0
 50 49  2  0  0  0  0
 52 43  1  0  0  0  0
 53 43  1  0  0  0  0
 56 45  1  0  0  0  0
 58 46  1  0  0  0  0
 60 48  1  0  0  0  0
M  END
$$$$
