WHS.pdb
 OpenBabel07022419173D

 54 56  0  0  1  0  0  0  0  0999 V2000
    0.3730    1.3070    4.5460 N   0  0  0  0  0  0  0  0  0  0  0  0
   -0.3500    1.3250    3.2740 C   0  0  1  0  0  0  0  0  0  0  0  0
    0.3960    2.3530    2.4140 C   0  0  0  0  0  0  0  0  0  0  0  0
    1.8200    1.9900    2.2210 C   0  0  0  0  0  0  0  0  0  0  0  0
    2.8880    2.4580    3.0110 C   0  0  0  0  0  0  0  0  0  0  0  0
    4.0250    1.8930    2.5950 N   0  0  0  0  0  0  0  0  0  0  0  0
    3.7830    1.0590    1.5550 C   0  0  0  0  0  0  0  0  0  0  0  0
    4.6530    0.2800    0.8170 C   0  0  0  0  0  0  0  0  0  0  0  0
    4.1320   -0.4800   -0.2100 C   0  0  0  0  0  0  0  0  0  0  0  0
    2.7790   -0.4200   -0.4440 C   0  0  0  0  0  0  0  0  0  0  0  0
    1.9060    0.3610    0.2960 C   0  0  0  0  0  0  0  0  0  0  0  0
    2.4210    1.1300    1.3350 C   0  0  0  0  0  0  0  0  0  0  0  0
   -0.3220    0.0050    2.6320 C   0  0  0  0  0  0  0  0  0  0  0  0
    0.5570   -0.8570    2.9900 O   0  0  0  0  0  0  0  0  0  0  0  0
   -0.2180    1.6850    5.3260 H   0  0  0  0  0  0  0  0  0  0  0  0
    0.8020    0.3880    4.7390 H   0  0  0  0  0  0  0  0  0  0  0  0
   -1.3600    1.7370    3.4300 H   0  0  0  0  0  0  0  0  0  0  0  0
    0.3810    3.3410    2.9310 H   0  0  0  0  0  0  0  0  0  0  0  0
   -0.0890    2.4810    1.4340 H   0  0  0  0  0  0  0  0  0  0  0  0
    2.7240    3.1700    3.8140 H   0  0  0  0  0  0  0  0  0  0  0  0
    4.9700    2.0620    3.0030 H   0  0  0  0  0  0  0  0  0  0  0  0
    5.7150    0.2210    0.9880 H   0  0  0  0  0  0  0  0  0  0  0  0
    4.7780   -1.1190   -0.8280 H   0  0  0  0  0  0  0  0  0  0  0  0
    2.3830   -1.0220   -1.2590 H   0  0  0  0  0  0  0  0  0  0  0  0
    0.8650    0.4150    0.0980 H   0  0  0  0  0  0  0  0  0  0  0  0
   -1.2220   -0.4030    1.6160 N   0  0  0  0  0  0  0  0  0  0  0  0
   -1.0910   -1.7240    1.0440 C   0  0  1  0  0  0  0  0  0  0  0  0
   -2.2280   -2.5570    1.6380 C   0  0  0  0  0  0  0  0  0  0  0  0
   -2.2040   -3.9390    1.1290 C   0  0  0  0  0  0  0  0  0  0  0  0
   -2.8100   -4.5010    0.0140 C   0  0  0  0  0  0  0  0  0  0  0  0
   -2.4890   -5.8140   -0.0360 N   0  0  0  0  0  0  0  0  0  0  0  0
   -1.7030   -6.0780    1.0160 C   0  0  0  0  0  0  0  0  0  0  0  0
   -1.5290   -4.9670    1.7130 N   0  0  0  0  0  0  0  0  0  0  0  0
   -1.1220   -1.7560   -0.4230 C   0  0  0  0  0  0  0  0  0  0  0  0
   -0.8840   -2.8180   -1.0280 O   0  0  0  0  0  0  0  0  0  0  0  0
   -1.9640    0.2230    1.2800 H   0  0  0  0  0  0  0  0  0  0  0  0
   -0.1480   -2.2220    1.3840 H   0  0  0  0  0  0  0  0  0  0  0  0
   -3.2200   -2.1190    1.3950 H   0  0  0  0  0  0  0  0  0  0  0  0
   -2.1360   -2.5450    2.7430 H   0  0  0  0  0  0  0  0  0  0  0  0
   -3.4320   -3.9530   -0.6780 H   0  0  0  0  0  0  0  0  0  0  0  0
   -2.7900   -6.4970   -0.7550 H   0  0  0  0  0  0  0  0  0  0  0  0
   -1.2830   -7.0400    1.2490 H   0  0  0  0  0  0  0  0  0  0  0  0
   -2.9170   -0.6460   -4.5190 O   0  0  0  0  0  0  0  0  0  0  0  0
   -2.8780   -0.5850   -3.1350 C   0  0  0  0  0  0  0  0  0  0  0  0
   -1.4460   -0.6630   -2.6160 C   0  0  2  0  0  0  0  0  0  0  0  0
   -1.4240   -0.5950   -1.1690 N   0  0  0  0  0  0  0  0  0  0  0  0
   -0.6070    0.4050   -3.1720 C   0  0  0  0  0  0  0  0  0  0  0  0
   -0.4210    0.5700   -4.4090 O   0  0  0  0  0  0  0  0  0  0  0  0
    0.0280    1.2980   -2.3140 O   0  0  0  0  0  0  0  0  0  0  0  0
   -2.7420   -1.5860   -4.7820 H   0  0  0  0  0  0  0  0  0  0  0  0
   -3.4180    0.3010   -2.7460 H   0  0  0  0  0  0  0  0  0  0  0  0
   -3.4430   -1.4720   -2.7750 H   0  0  0  0  0  0  0  0  0  0  0  0
   -1.0620   -1.6370   -2.9660 H   0  0  0  0  0  0  0  0  0  0  0  0
   -1.6380    0.3280   -0.7270 H   0  0  0  0  0  0  0  0  0  0  0  0
  1 16  1  0  0  0  0
  1 15  1  0  0  0  0
  2 17  1  1  0  0  0
  2  1  1  0  0  0  0
  3 18  1  0  0  0  0
  3  2  1  0  0  0  0
  4  3  1  0  0  0  0
  4  5  2  0  0  0  0
  5 20  1  0  0  0  0
  6 21  1  0  0  0  0
  6  5  1  0  0  0  0
  7  6  1  0  0  0  0
  8 22  1  0  0  0  0
  8  7  2  0  0  0  0
  9  8  1  0  0  0  0
 10  9  2  0  0  0  0
 10 11  1  0  0  0  0
 11 12  2  0  0  0  0
 12  7  1  0  0  0  0
 12  4  1  0  0  0  0
 13 14  2  0  0  0  0
 13  2  1  0  0  0  0
 19  3  1  0  0  0  0
 23  9  1  0  0  0  0
 24 10  1  0  0  0  0
 25 11  1  0  0  0  0
 26 13  1  0  0  0  0
 27 37  1  1  0  0  0
 27 26  1  0  0  0  0
 27 28  1  0  0  0  0
 28 39  1  0  0  0  0
 29 28  1  0  0  0  0
 29 33  1  0  0  0  0
 30 29  2  0  0  0  0
 31 30  1  0  0  0  0
 31 32  1  0  0  0  0
 32 42  1  0  0  0  0
 32 33  2  0  0  0  0
 34 27  1  0  0  0  0
 35 34  2  0  0  0  0
 36 26  1  0  0  0  0
 38 28  1  0  0  0  0
 40 30  1  0  0  0  0
 41 31  1  0  0  0  0
 43 44  1  0  0  0  0
 44 52  1  0  0  0  0
 44 51  1  0  0  0  0
 44 45  1  0  0  0  0
 45 53  1  6  0  0  0
 45 46  1  0  0  0  0
 46 54  1  0  0  0  0
 46 34  1  0  0  0  0
 47 45  1  0  0  0  0
 47 49  1  0  0  0  0
 48 47  2  0  0  0  0
 50 43  1  0  0  0  0
M  END
$$$$
