WHT.pdb
 OpenBabel07022419173D

 57 59  0  0  1  0  0  0  0  0999 V2000
    0.1860    0.1930    4.4720 N   0  0  0  0  0  0  0  0  0  0  0  0
    0.3820    0.2350    3.0480 C   0  0  1  0  0  0  0  0  0  0  0  0
    1.6230   -0.5480    2.6400 C   0  0  0  0  0  0  0  0  0  0  0  0
    2.8270    0.0250    3.2920 C   0  0  0  0  0  0  0  0  0  0  0  0
    3.5320   -0.4610    4.3800 C   0  0  0  0  0  0  0  0  0  0  0  0
    4.5440    0.3910    4.6160 N   0  0  0  0  0  0  0  0  0  0  0  0
    4.4990    1.4010    3.7070 C   0  0  0  0  0  0  0  0  0  0  0  0
    5.2900    2.5200    3.5000 C   0  0  0  0  0  0  0  0  0  0  0  0
    5.0100    3.3950    2.4820 C   0  0  0  0  0  0  0  0  0  0  0  0
    3.9410    3.1710    1.6540 C   0  0  0  0  0  0  0  0  0  0  0  0
    3.1340    2.0760    1.8240 C   0  0  0  0  0  0  0  0  0  0  0  0
    3.4320    1.1970    2.8640 C   0  0  0  0  0  0  0  0  0  0  0  0
   -0.7940   -0.2840    2.3020 C   0  0  0  0  0  0  0  0  0  0  0  0
   -1.8150   -0.6940    2.9520 O   0  0  0  0  0  0  0  0  0  0  0  0
    1.1030    0.0780    4.9580 H   0  0  0  0  0  0  0  0  0  0  0  0
   -0.2110    1.1020    4.8050 H   0  0  0  0  0  0  0  0  0  0  0  0
    0.5920    1.3000    2.7900 H   0  0  0  0  0  0  0  0  0  0  0  0
    1.7200   -0.5020    1.5360 H   0  0  0  0  0  0  0  0  0  0  0  0
    1.4620   -1.5960    2.9640 H   0  0  0  0  0  0  0  0  0  0  0  0
    3.2850   -1.3630    4.9190 H   0  0  0  0  0  0  0  0  0  0  0  0
    5.2510    0.3070    5.3610 H   0  0  0  0  0  0  0  0  0  0  0  0
    6.1290    2.6860    4.1580 H   0  0  0  0  0  0  0  0  0  0  0  0
    5.6280    4.2670    2.3240 H   0  0  0  0  0  0  0  0  0  0  0  0
    3.7080    3.8440    0.8550 H   0  0  0  0  0  0  0  0  0  0  0  0
    2.2770    1.8640    1.1880 H   0  0  0  0  0  0  0  0  0  0  0  0
   -0.7920   -0.3270    0.8860 N   0  0  0  0  0  0  0  0  0  0  0  0
   -1.9140   -0.8220    0.1520 C   0  0  1  0  0  0  0  0  0  0  0  0
   -2.5570    0.2670   -0.6750 C   0  0  0  0  0  0  0  0  0  0  0  0
   -1.6120    0.8610   -1.6570 C   0  0  0  0  0  0  0  0  0  0  0  0
   -1.3910    0.4490   -2.9470 C   0  0  0  0  0  0  0  0  0  0  0  0
   -0.4640    1.2370   -3.5180 N   0  0  0  0  0  0  0  0  0  0  0  0
   -0.1130    2.1350   -2.5810 C   0  0  0  0  0  0  0  0  0  0  0  0
   -0.7990    1.9080   -1.4730 N   0  0  0  0  0  0  0  0  0  0  0  0
   -1.6170   -2.0120   -0.6640 C   0  0  0  0  0  0  0  0  0  0  0  0
   -0.4440   -2.5200   -0.7290 O   0  0  0  0  0  0  0  0  0  0  0  0
    0.0920    0.0320    0.4230 H   0  0  0  0  0  0  0  0  0  0  0  0
   -2.7070   -1.1270    0.8960 H   0  0  0  0  0  0  0  0  0  0  0  0
   -3.3980   -0.1870   -1.2360 H   0  0  0  0  0  0  0  0  0  0  0  0
   -2.9940    1.0290   -0.0000 H   0  0  0  0  0  0  0  0  0  0  0  0
   -1.8490   -0.3630   -3.4780 H   0  0  0  0  0  0  0  0  0  0  0  0
   -0.0480    1.2260   -4.4740 H   0  0  0  0  0  0  0  0  0  0  0  0
    0.6260    2.9470   -2.6800 H   0  0  0  0  0  0  0  0  0  0  0  0
   -2.7050   -5.2810   -0.2490 C   0  0  0  0  0  0  0  0  0  0  0  0
   -3.0400   -5.0830   -1.7010 C   0  0  1  0  0  0  0  0  0  0  0  0
   -4.4180   -4.8580   -1.7770 O   0  0  0  0  0  0  0  0  0  0  0  0
   -2.2740   -3.8630   -2.2280 C   0  0  2  0  0  0  0  0  0  0  0  0
   -2.5980   -2.6930   -1.4380 N   0  0  0  0  0  0  0  0  0  0  0  0
   -2.7880   -3.6410   -3.5990 C   0  0  0  0  0  0  0  0  0  0  0  0
   -3.3930   -2.5800   -3.8770 O   0  0  0  0  0  0  0  0  0  0  0  0
   -2.6260   -4.5740   -4.6160 O   0  0  0  0  0  0  0  0  0  0  0  0
   -1.6390   -5.1900   -0.0490 H   0  0  0  0  0  0  0  0  0  0  0  0
   -3.0940   -6.2830    0.0410 H   0  0  0  0  0  0  0  0  0  0  0  0
   -3.2810   -4.5000    0.3170 H   0  0  0  0  0  0  0  0  0  0  0  0
   -2.8060   -5.9380   -2.3400 H   0  0  0  0  0  0  0  0  0  0  0  0
   -4.6350   -4.0250   -2.2680 H   0  0  0  0  0  0  0  0  0  0  0  0
   -1.1950   -4.0810   -2.1850 H   0  0  0  0  0  0  0  0  0  0  0  0
   -3.5600   -2.3260   -1.4230 H   0  0  0  0  0  0  0  0  0  0  0  0
  1 16  1  0  0  0  0
  1 15  1  0  0  0  0
  2 17  1  6  0  0  0
  2  1  1  0  0  0  0
  3 19  1  0  0  0  0
  3  2  1  0  0  0  0
  3  4  1  0  0  0  0
  4  5  2  0  0  0  0
  5  6  1  0  0  0  0
  5 20  1  0  0  0  0
  6 21  1  0  0  0  0
  7  6  1  0  0  0  0
  8  7  1  0  0  0  0
  8 22  1  0  0  0  0
  9  8  2  0  0  0  0
 10 11  2  0  0  0  0
 10  9  1  0  0  0  0
 11 12  1  0  0  0  0
 12  4  1  0  0  0  0
 12  7  2  0  0  0  0
 13 14  2  0  0  0  0
 13  2  1  0  0  0  0
 18  3  1  0  0  0  0
 23  9  1  0  0  0  0
 24 10  1  0  0  0  0
 25 11  1  0  0  0  0
 26 13  1  0  0  0  0
 27 26  1  0  0  0  0
 27 37  1  1  0  0  0
 28 39  1  0  0  0  0
 28 27  1  0  0  0  0
 29 33  1  0  0  0  0
 29 28  1  0  0  0  0
 30 29  2  0  0  0  0
 31 30  1  0  0  0  0
 31 32  1  0  0  0  0
 32 33  2  0  0  0  0
 34 27  1  0  0  0  0
 35 34  2  0  0  0  0
 36 26  1  0  0  0  0
 38 28  1  0  0  0  0
 40 30  1  0  0  0  0
 41 31  1  0  0  0  0
 42 32  1  0  0  0  0
 43 51  1  0  0  0  0
 43 52  1  0  0  0  0
 43 53  1  0  0  0  0
 44 54  1  6  0  0  0
 44 43  1  0  0  0  0
 45 44  1  0  0  0  0
 46 56  1  6  0  0  0
 46 44  1  0  0  0  0
 46 47  1  0  0  0  0
 47 57  1  0  0  0  0
 47 34  1  0  0  0  0
 48 46  1  0  0  0  0
 49 48  1  0  0  0  0
 50 48  2  0  0  0  0
 55 45  1  0  0  0  0
M  END
$$$$
