WHW.pdb
 OpenBabel07022419173D

 67 71  0  0  1  0  0  0  0  0999 V2000
   -0.0410    1.9610    5.0400 N   0  0  0  0  0  0  0  0  0  0  0  0
    0.3790    1.3250    3.7530 C   0  0  1  0  0  0  0  0  0  0  0  0
    1.6490    0.6250    4.0800 C   0  0  0  0  0  0  0  0  0  0  0  0
    2.3190   -0.0950    3.0100 C   0  0  0  0  0  0  0  0  0  0  0  0
    2.4040   -1.4580    2.8340 C   0  0  0  0  0  0  0  0  0  0  0  0
    3.1370   -1.6970    1.7290 N   0  0  0  0  0  0  0  0  0  0  0  0
    3.5430   -0.5440    1.1620 C   0  0  0  0  0  0  0  0  0  0  0  0
    4.3030   -0.3050    0.0350 C   0  0  0  0  0  0  0  0  0  0  0  0
    4.5690    1.0020   -0.3140 C   0  0  0  0  0  0  0  0  0  0  0  0
    4.0710    2.0370    0.4680 C   0  0  0  0  0  0  0  0  0  0  0  0
    3.3160    1.7630    1.5850 C   0  0  0  0  0  0  0  0  0  0  0  0
    3.0340    0.4630    1.9600 C   0  0  0  0  0  0  0  0  0  0  0  0
   -0.7580    0.4980    3.3560 C   0  0  0  0  0  0  0  0  0  0  0  0
   -1.6850    0.2200    4.1510 O   0  0  0  0  0  0  0  0  0  0  0  0
   -0.2700    1.1200    5.6420 H   0  0  0  0  0  0  0  0  0  0  0  0
   -0.9770    2.4040    4.8300 H   0  0  0  0  0  0  0  0  0  0  0  0
    0.5710    2.1380    3.0130 H   0  0  0  0  0  0  0  0  0  0  0  0
    1.4520   -0.0380    4.9780 H   0  0  0  0  0  0  0  0  0  0  0  0
    2.3600    1.4020    4.4500 H   0  0  0  0  0  0  0  0  0  0  0  0
    1.9540   -2.2170    3.4800 H   0  0  0  0  0  0  0  0  0  0  0  0
    3.3670   -2.6410    1.3540 H   0  0  0  0  0  0  0  0  0  0  0  0
    4.6970   -1.1050   -0.5820 H   0  0  0  0  0  0  0  0  0  0  0  0
    5.1720    1.2180   -1.2070 H   0  0  0  0  0  0  0  0  0  0  0  0
    4.2940    3.0420    0.1710 H   0  0  0  0  0  0  0  0  0  0  0  0
    2.9120    2.5560    2.2180 H   0  0  0  0  0  0  0  0  0  0  0  0
   -0.8520   -0.0170    2.0340 N   0  0  0  0  0  0  0  0  0  0  0  0
   -2.0080   -0.8150    1.6850 C   0  0  1  0  0  0  0  0  0  0  0  0
   -2.9130    0.1540    0.8950 C   0  0  0  0  0  0  0  0  0  0  0  0
   -4.1570   -0.4760    0.4480 C   0  0  0  0  0  0  0  0  0  0  0  0
   -4.4250   -1.1420   -0.7260 C   0  0  0  0  0  0  0  0  0  0  0  0
   -5.7040   -1.5610   -0.7280 N   0  0  0  0  0  0  0  0  0  0  0  0
   -6.2480   -1.1690    0.4280 C   0  0  0  0  0  0  0  0  0  0  0  0
   -5.3300   -0.5140    1.1480 N   0  0  0  0  0  0  0  0  0  0  0  0
   -1.6460   -1.9690    0.8870 C   0  0  0  0  0  0  0  0  0  0  0  0
   -2.5940   -2.7720    0.5160 O   0  0  0  0  0  0  0  0  0  0  0  0
   -0.1240    0.1720    1.3250 H   0  0  0  0  0  0  0  0  0  0  0  0
   -2.6240   -1.0380    2.5980 H   0  0  0  0  0  0  0  0  0  0  0  0
   -3.1600    1.0330    1.5230 H   0  0  0  0  0  0  0  0  0  0  0  0
   -2.3470    0.5460    0.0240 H   0  0  0  0  0  0  0  0  0  0  0  0
   -3.6990   -1.3070   -1.5400 H   0  0  0  0  0  0  0  0  0  0  0  0
   -6.1620   -2.1020   -1.5210 H   0  0  0  0  0  0  0  0  0  0  0  0
   -7.2600   -1.3520    0.7280 H   0  0  0  0  0  0  0  0  0  0  0  0
   -0.3190   -2.2690    0.4860 N   0  0  0  0  0  0  0  0  0  0  0  0
   -0.0890   -3.4390   -0.3140 C   0  0  1  0  0  0  0  0  0  0  0  0
    0.5900   -3.1890   -1.6300 C   0  0  0  0  0  0  0  0  0  0  0  0
   -0.1270   -2.2930   -2.5400 C   0  0  0  0  0  0  0  0  0  0  0  0
   -0.9660   -2.6560   -3.5660 C   0  0  0  0  0  0  0  0  0  0  0  0
   -1.4410   -1.5400   -4.1190 N   0  0  0  0  0  0  0  0  0  0  0  0
   -0.9460   -0.4550   -3.4940 C   0  0  0  0  0  0  0  0  0  0  0  0
   -1.1350    0.8910   -3.7080 C   0  0  0  0  0  0  0  0  0  0  0  0
   -0.4790    1.8270   -2.9070 C   0  0  0  0  0  0  0  0  0  0  0  0
    0.3590    1.3770   -1.9030 C   0  0  0  0  0  0  0  0  0  0  0  0
    0.5390    0.0300   -1.7010 C   0  0  0  0  0  0  0  0  0  0  0  0
   -0.1150   -0.9180   -2.4970 C   0  0  0  0  0  0  0  0  0  0  0  0
    0.7400   -4.4420    0.4350 C   0  0  0  0  0  0  0  0  0  0  0  0
    1.0350   -5.5090   -0.1550 O   0  0  0  0  0  0  0  0  0  0  0  0
    1.1760   -4.2420    1.7140 O   0  0  0  0  0  0  0  0  0  0  0  0
    0.4570   -1.6570    0.7770 H   0  0  0  0  0  0  0  0  0  0  0  0
   -1.0700   -3.9880   -0.4780 H   0  0  0  0  0  0  0  0  0  0  0  0
    0.6880   -4.1750   -2.1330 H   0  0  0  0  0  0  0  0  0  0  0  0
    1.6270   -2.8510   -1.4110 H   0  0  0  0  0  0  0  0  0  0  0  0
   -1.1930   -3.6530   -3.8630 H   0  0  0  0  0  0  0  0  0  0  0  0
   -2.1160   -1.4570   -4.9350 H   0  0  0  0  0  0  0  0  0  0  0  0
   -1.7790    1.2990   -4.4790 H   0  0  0  0  0  0  0  0  0  0  0  0
   -0.5910    2.8890   -3.0300 H   0  0  0  0  0  0  0  0  0  0  0  0
    0.8890    2.0750   -1.2580 H   0  0  0  0  0  0  0  0  0  0  0  0
    1.2050   -0.2690   -0.9220 H   0  0  0  0  0  0  0  0  0  0  0  0
  1 15  1  0  0  0  0
  2 17  1  6  0  0  0
  2  3  1  0  0  0  0
  2  1  1  0  0  0  0
  3 19  1  0  0  0  0
  3 18  1  0  0  0  0
  4  3  1  0  0  0  0
  5  4  2  0  0  0  0
  5 20  1  0  0  0  0
  6  5  1  0  0  0  0
  7  6  1  0  0  0  0
  7 12  1  0  0  0  0
  8  7  2  0  0  0  0
  9  8  1  0  0  0  0
  9 10  2  0  0  0  0
 10 11  1  0  0  0  0
 11 12  2  0  0  0  0
 11 25  1  0  0  0  0
 12  4  1  0  0  0  0
 13  2  1  0  0  0  0
 13 14  2  0  0  0  0
 16  1  1  0  0  0  0
 21  6  1  0  0  0  0
 22  8  1  0  0  0  0
 23  9  1  0  0  0  0
 24 10  1  0  0  0  0
 26 13  1  0  0  0  0
 27 26  1  0  0  0  0
 27 37  1  1  0  0  0
 28 38  1  0  0  0  0
 28 27  1  0  0  0  0
 29 28  1  0  0  0  0
 29 33  1  0  0  0  0
 30 29  2  0  0  0  0
 31 30  1  0  0  0  0
 31 32  1  0  0  0  0
 32 42  1  0  0  0  0
 32 33  2  0  0  0  0
 34 27  1  0  0  0  0
 35 34  2  0  0  0  0
 36 26  1  0  0  0  0
 39 28  1  0  0  0  0
 40 30  1  0  0  0  0
 41 31  1  0  0  0  0
 43 58  1  0  0  0  0
 43 34  1  0  0  0  0
 44 59  1  6  0  0  0
 44 55  1  0  0  0  0
 44 43  1  0  0  0  0
 45 61  1  0  0  0  0
 45 44  1  0  0  0  0
 46 54  1  0  0  0  0
 46 45  1  0  0  0  0
 47 46  2  0  0  0  0
 48 47  1  0  0  0  0
 48 49  1  0  0  0  0
 49 54  1  0  0  0  0
 50 49  2  0  0  0  0
 50 51  1  0  0  0  0
 51 52  2  0  0  0  0
 52 53  1  0  0  0  0
 52 66  1  0  0  0  0
 53 67  1  0  0  0  0
 54 53  2  0  0  0  0
 55 57  1  0  0  0  0
 56 55  2  0  0  0  0
 60 45  1  0  0  0  0
 62 47  1  0  0  0  0
 63 48  1  0  0  0  0
 64 50  1  0  0  0  0
 65 51  1  0  0  0  0
M  END
$$$$
