WIA.pdb
 OpenBabel07022419173D

 55 56  0  0  1  0  0  0  0  0999 V2000
   -0.3500    1.4610    3.3180 N   0  0  0  0  0  0  0  0  0  0  0  0
   -0.5870    2.1220    2.0380 C   0  0  1  0  0  0  0  0  0  0  0  0
    0.4840    3.1180    1.8190 C   0  0  0  0  0  0  0  0  0  0  0  0
    1.8710    2.5950    1.7930 C   0  0  0  0  0  0  0  0  0  0  0  0
    2.7490    2.5530    2.8800 C   0  0  0  0  0  0  0  0  0  0  0  0
    3.8740    1.9830    2.4690 N   0  0  0  0  0  0  0  0  0  0  0  0
    3.8260    1.6310    1.1670 C   0  0  0  0  0  0  0  0  0  0  0  0
    4.7330    1.0370    0.3230 C   0  0  0  0  0  0  0  0  0  0  0  0
    4.4140    0.8050   -0.9890 C   0  0  0  0  0  0  0  0  0  0  0  0
    3.1490    1.1850   -1.4510 C   0  0  0  0  0  0  0  0  0  0  0  0
    2.2570    1.7780   -0.5860 C   0  0  0  0  0  0  0  0  0  0  0  0
    2.5490    2.0250    0.7450 C   0  0  0  0  0  0  0  0  0  0  0  0
   -0.9030    1.1930    0.9510 C   0  0  0  0  0  0  0  0  0  0  0  0
   -1.2090    1.6470   -0.1630 O   0  0  0  0  0  0  0  0  0  0  0  0
   -1.1770    0.9580    3.6600 H   0  0  0  0  0  0  0  0  0  0  0  0
    0.5260    0.8910    3.3090 H   0  0  0  0  0  0  0  0  0  0  0  0
   -1.5360    2.7300    2.2360 H   0  0  0  0  0  0  0  0  0  0  0  0
    0.4590    3.8860    2.6480 H   0  0  0  0  0  0  0  0  0  0  0  0
    0.3130    3.7520    0.9000 H   0  0  0  0  0  0  0  0  0  0  0  0
    2.4930    2.9360    3.8620 H   0  0  0  0  0  0  0  0  0  0  0  0
    4.7340    1.8030    3.0520 H   0  0  0  0  0  0  0  0  0  0  0  0
    5.6920    0.7570    0.6980 H   0  0  0  0  0  0  0  0  0  0  0  0
    5.0780    0.3420   -1.7070 H   0  0  0  0  0  0  0  0  0  0  0  0
    2.8650    1.0170   -2.4810 H   0  0  0  0  0  0  0  0  0  0  0  0
    1.2830    2.0880   -0.9300 H   0  0  0  0  0  0  0  0  0  0  0  0
    2.3700   -2.4610   -0.3790 C   0  0  0  0  0  0  0  0  0  0  0  0
    1.2520   -1.4460   -0.3210 C   0  0  0  0  0  0  0  0  0  0  0  0
   -0.0650   -2.1800   -0.0520 C   0  0  2  0  0  0  0  0  0  0  0  0
   -0.3050   -3.1690   -1.1830 C   0  0  0  0  0  0  0  0  0  0  0  0
   -1.1970   -1.1670    0.0480 C   0  0  2  0  0  0  0  0  0  0  0  0
   -0.8730   -0.2270    1.1410 N   0  0  0  0  0  0  0  0  0  0  0  0
   -2.4370   -1.8940    0.4220 C   0  0  0  0  0  0  0  0  0  0  0  0
   -2.9000   -1.7260    1.6080 O   0  0  0  0  0  0  0  0  0  0  0  0
    3.2700   -2.0890    0.1340 H   0  0  0  0  0  0  0  0  0  0  0  0
    2.0390   -3.3650    0.1710 H   0  0  0  0  0  0  0  0  0  0  0  0
    2.5670   -2.7800   -1.4230 H   0  0  0  0  0  0  0  0  0  0  0  0
    1.4850   -0.7700    0.5210 H   0  0  0  0  0  0  0  0  0  0  0  0
    1.1150   -0.8690   -1.2370 H   0  0  0  0  0  0  0  0  0  0  0  0
    0.0480   -2.7730    0.8740 H   0  0  0  0  0  0  0  0  0  0  0  0
    0.7080   -3.6180   -1.4620 H   0  0  0  0  0  0  0  0  0  0  0  0
   -0.8700   -4.0420   -0.8120 H   0  0  0  0  0  0  0  0  0  0  0  0
   -0.6880   -2.7160   -2.0950 H   0  0  0  0  0  0  0  0  0  0  0  0
   -1.3200   -0.6090   -0.8680 H   0  0  0  0  0  0  0  0  0  0  0  0
   -0.6190   -0.5900    2.0630 H   0  0  0  0  0  0  0  0  0  0  0  0
   -5.6120   -2.9390   -0.6910 C   0  0  0  0  0  0  0  0  0  0  0  0
   -4.3950   -3.4250    0.0780 C   0  0  2  0  0  0  0  0  0  0  0  0
   -3.1890   -2.7620   -0.3820 N   0  0  0  0  0  0  0  0  0  0  0  0
   -4.2790   -4.8710   -0.1630 C   0  0  0  0  0  0  0  0  0  0  0  0
   -3.2520   -5.3350   -0.7020 O   0  0  0  0  0  0  0  0  0  0  0  0
   -5.3030   -5.7640    0.1990 O   0  0  0  0  0  0  0  0  0  0  0  0
   -6.0730   -2.0620   -0.2130 H   0  0  0  0  0  0  0  0  0  0  0  0
   -6.3540   -3.7610   -0.6690 H   0  0  0  0  0  0  0  0  0  0  0  0
   -5.3630   -2.7650   -1.7710 H   0  0  0  0  0  0  0  0  0  0  0  0
   -4.6090   -3.2340    1.1330 H   0  0  0  0  0  0  0  0  0  0  0  0
   -2.8880   -2.9400   -1.3580 H   0  0  0  0  0  0  0  0  0  0  0  0
  1 15  1  0  0  0  0
  2 17  1  1  0  0  0
  2  1  1  0  0  0  0
  3  2  1  0  0  0  0
  3 18  1  0  0  0  0
  4  3  1  0  0  0  0
  4  5  2  0  0  0  0
  5 20  1  0  0  0  0
  6  5  1  0  0  0  0
  6 21  1  0  0  0  0
  7  6  1  0  0  0  0
  8 22  1  0  0  0  0
  8  7  2  0  0  0  0
  9  8  1  0  0  0  0
 10  9  2  0  0  0  0
 10 11  1  0  0  0  0
 11 12  2  0  0  0  0
 12  7  1  0  0  0  0
 12  4  1  0  0  0  0
 13 31  1  0  0  0  0
 13  2  1  0  0  0  0
 14 13  2  0  0  0  0
 16  1  1  0  0  0  0
 19  3  1  0  0  0  0
 23  9  1  0  0  0  0
 24 10  1  0  0  0  0
 25 11  1  0  0  0  0
 26 27  1  0  0  0  0
 26 34  1  0  0  0  0
 26 35  1  0  0  0  0
 27 28  1  0  0  0  0
 27 37  1  0  0  0  0
 28 30  1  0  0  0  0
 28 39  1  1  0  0  0
 29 41  1  0  0  0  0
 29 28  1  0  0  0  0
 30 43  1  6  0  0  0
 30 32  1  0  0  0  0
 30 31  1  0  0  0  0
 31 44  1  0  0  0  0
 32 33  2  0  0  0  0
 36 26  1  0  0  0  0
 38 27  1  0  0  0  0
 40 29  1  0  0  0  0
 42 29  1  0  0  0  0
 45 52  1  0  0  0  0
 45 51  1  0  0  0  0
 45 46  1  0  0  0  0
 46 54  1  1  0  0  0
 47 46  1  0  0  0  0
 47 32  1  0  0  0  0
 48 46  1  0  0  0  0
 48 50  1  0  0  0  0
 49 48  2  0  0  0  0
 53 45  1  0  0  0  0
 55 47  1  0  0  0  0
M  END
$$$$
