WID.pdb
 OpenBabel07022419173D

 58 59  0  0  1  0  0  0  0  0999 V2000
    0.6160    2.4090    2.3110 N   0  0  0  0  0  0  0  0  0  0  0  0
    0.4620    1.4130    1.2460 C   0  0  1  0  0  0  0  0  0  0  0  0
    1.5990    0.4060    1.4780 C   0  0  0  0  0  0  0  0  0  0  0  0
    2.9130    1.1000    1.3910 C   0  0  0  0  0  0  0  0  0  0  0  0
    3.7180    1.4640    2.4590 C   0  0  0  0  0  0  0  0  0  0  0  0
    4.8050    2.0640    2.0040 N   0  0  0  0  0  0  0  0  0  0  0  0
    4.7950    2.1360    0.6530 C   0  0  0  0  0  0  0  0  0  0  0  0
    5.6770    2.6510   -0.2720 C   0  0  0  0  0  0  0  0  0  0  0  0
    5.3860    2.5710   -1.6160 C   0  0  0  0  0  0  0  0  0  0  0  0
    4.2010    1.9680   -1.9990 C   0  0  0  0  0  0  0  0  0  0  0  0
    3.3230    1.4530   -1.0670 C   0  0  0  0  0  0  0  0  0  0  0  0
    3.6030    1.5280    0.2710 C   0  0  0  0  0  0  0  0  0  0  0  0
   -0.8490    0.7440    1.4430 C   0  0  0  0  0  0  0  0  0  0  0  0
   -1.6070    1.0470    2.4180 O   0  0  0  0  0  0  0  0  0  0  0  0
   -0.2040    3.0690    2.3340 H   0  0  0  0  0  0  0  0  0  0  0  0
    0.5950    1.9040    3.2380 H   0  0  0  0  0  0  0  0  0  0  0  0
    0.5440    1.9070    0.2690 H   0  0  0  0  0  0  0  0  0  0  0  0
    1.4740    0.0130    2.4890 H   0  0  0  0  0  0  0  0  0  0  0  0
    1.5190   -0.4440    0.7640 H   0  0  0  0  0  0  0  0  0  0  0  0
    3.4690    1.2750    3.5000 H   0  0  0  0  0  0  0  0  0  0  0  0
    5.5880    2.4450    2.5860 H   0  0  0  0  0  0  0  0  0  0  0  0
    6.6040    3.1240    0.0160 H   0  0  0  0  0  0  0  0  0  0  0  0
    6.0780    2.9780   -2.3740 H   0  0  0  0  0  0  0  0  0  0  0  0
    3.9250    1.8830   -3.0430 H   0  0  0  0  0  0  0  0  0  0  0  0
    2.3900    0.9780   -1.3420 H   0  0  0  0  0  0  0  0  0  0  0  0
   -5.6470   -0.7210    0.9970 C   0  0  0  0  0  0  0  0  0  0  0  0
   -4.9220   -1.1800   -0.2400 C   0  0  0  0  0  0  0  0  0  0  0  0
   -3.5590   -0.5990   -0.3750 C   0  0  2  0  0  0  0  0  0  0  0  0
   -2.9590   -1.1570   -1.6660 C   0  0  0  0  0  0  0  0  0  0  0  0
   -2.6400   -0.8860    0.8090 C   0  0  2  0  0  0  0  0  0  0  0  0
   -1.3360   -0.2590    0.5700 N   0  0  0  0  0  0  0  0  0  0  0  0
   -2.4410   -2.3560    0.9850 C   0  0  0  0  0  0  0  0  0  0  0  0
   -3.4430   -3.0720    1.2350 O   0  0  0  0  0  0  0  0  0  0  0  0
   -5.5690   -1.4550    1.8180 H   0  0  0  0  0  0  0  0  0  0  0  0
   -5.3750    0.2930    1.3260 H   0  0  0  0  0  0  0  0  0  0  0  0
   -6.7430   -0.6780    0.7450 H   0  0  0  0  0  0  0  0  0  0  0  0
   -4.9090   -2.2570   -0.3390 H   0  0  0  0  0  0  0  0  0  0  0  0
   -5.5140   -0.7900   -1.1190 H   0  0  0  0  0  0  0  0  0  0  0  0
   -3.6500    0.5080   -0.4930 H   0  0  0  0  0  0  0  0  0  0  0  0
   -2.5030   -0.3490   -2.2380 H   0  0  0  0  0  0  0  0  0  0  0  0
   -2.2230   -1.9730   -1.4380 H   0  0  0  0  0  0  0  0  0  0  0  0
   -3.7250   -1.6330   -2.3130 H   0  0  0  0  0  0  0  0  0  0  0  0
   -3.1310   -0.5050    1.7060 H   0  0  0  0  0  0  0  0  0  0  0  0
   -0.7840   -0.5710   -0.2500 H   0  0  0  0  0  0  0  0  0  0  0  0
   -1.1590   -2.9580    0.8770 N   0  0  0  0  0  0  0  0  0  0  0  0
   -0.9270   -4.3780    1.0390 C   0  0  1  0  0  0  0  0  0  0  0  0
   -0.4850   -4.9370   -0.3230 C   0  0  0  0  0  0  0  0  0  0  0  0
    0.7540   -4.2750   -0.7750 C   0  0  0  0  0  0  0  0  0  0  0  0
    1.7930   -4.2460   -0.0570 O   0  0  0  0  0  0  0  0  0  0  0  0
    0.1560   -4.6030    2.0170 C   0  0  0  0  0  0  0  0  0  0  0  0
    0.7270   -3.6270    2.5530 O   0  0  0  0  0  0  0  0  0  0  0  0
    0.7810   -3.6570   -2.0430 O   0  0  0  0  0  0  0  0  0  0  0  0
    0.5480   -5.8970    2.3490 O   0  0  0  0  0  0  0  0  0  0  0  0
   -0.3410   -2.3520    0.6700 H   0  0  0  0  0  0  0  0  0  0  0  0
   -1.8620   -4.9240    1.2960 H   0  0  0  0  0  0  0  0  0  0  0  0
   -0.3150   -6.0270   -0.2170 H   0  0  0  0  0  0  0  0  0  0  0  0
   -1.3000   -4.7730   -1.0440 H   0  0  0  0  0  0  0  0  0  0  0  0
    1.3780   -2.8250   -2.1490 H   0  0  0  0  0  0  0  0  0  0  0  0
  1 15  1  0  0  0  0
  1 16  1  0  0  0  0
  2 17  1  6  0  0  0
  2 13  1  0  0  0  0
  2  3  1  0  0  0  0
  2  1  1  0  0  0  0
  3 18  1  0  0  0  0
  4  3  1  0  0  0  0
  4  5  2  0  0  0  0
  5 20  1  0  0  0  0
  6  5  1  0  0  0  0
  6 21  1  0  0  0  0
  7  6  1  0  0  0  0
  8 22  1  0  0  0  0
  8  7  2  0  0  0  0
  9  8  1  0  0  0  0
 10  9  2  0  0  0  0
 10 11  1  0  0  0  0
 11 12  2  0  0  0  0
 12  7  1  0  0  0  0
 12  4  1  0  0  0  0
 13 14  2  0  0  0  0
 19  3  1  0  0  0  0
 23  9  1  0  0  0  0
 24 10  1  0  0  0  0
 25 11  1  0  0  0  0
 26 35  1  0  0  0  0
 26 34  1  0  0  0  0
 27 26  1  0  0  0  0
 28 39  1  6  0  0  0
 28 27  1  0  0  0  0
 28 30  1  0  0  0  0
 29 41  1  0  0  0  0
 29 28  1  0  0  0  0
 30 32  1  0  0  0  0
 30 43  1  1  0  0  0
 31 30  1  0  0  0  0
 31 13  1  0  0  0  0
 32 33  2  0  0  0  0
 36 26  1  0  0  0  0
 37 27  1  0  0  0  0
 38 27  1  0  0  0  0
 40 29  1  0  0  0  0
 42 29  1  0  0  0  0
 44 31  1  0  0  0  0
 45 32  1  0  0  0  0
 45 46  1  0  0  0  0
 46 55  1  1  0  0  0
 46 50  1  0  0  0  0
 47 56  1  0  0  0  0
 47 46  1  0  0  0  0
 48 47  1  0  0  0  0
 48 49  2  0  0  0  0
 50 53  2  0  0  0  0
 50 51  1  0  0  0  0
 52 48  1  0  0  0  0
 54 45  1  0  0  0  0
 57 47  1  0  0  0  0
 58 52  1  0  0  0  0
M  END
$$$$
