WIM.pdb
 OpenBabel07022419173D

 62 63  0  0  1  0  0  0  0  0999 V2000
    2.1100   -0.1040   -0.8490 N   0  0  0  0  0  0  0  0  0  0  0  0
    2.2480   -1.1680    0.0830 C   0  0  1  0  0  0  0  0  0  0  0  0
    3.4210   -0.9940    0.9800 C   0  0  0  0  0  0  0  0  0  0  0  0
    3.4130    0.2260    1.8060 C   0  0  0  0  0  0  0  0  0  0  0  0
    3.0480    0.3210    3.1270 C   0  0  0  0  0  0  0  0  0  0  0  0
    3.1470    1.6010    3.5460 N   0  0  0  0  0  0  0  0  0  0  0  0
    3.5740    2.3460    2.5120 C   0  0  0  0  0  0  0  0  0  0  0  0
    3.8440    3.7010    2.4020 C   0  0  0  0  0  0  0  0  0  0  0  0
    4.2830    4.2590    1.2380 C   0  0  0  0  0  0  0  0  0  0  0  0
    4.4590    3.4300    0.1410 C   0  0  0  0  0  0  0  0  0  0  0  0
    4.1900    2.0730    0.2450 C   0  0  0  0  0  0  0  0  0  0  0  0
    3.7450    1.5000    1.4170 C   0  0  0  0  0  0  0  0  0  0  0  0
    0.9940   -1.4830    0.8130 C   0  0  0  0  0  0  0  0  0  0  0  0
    1.0050   -2.4040    1.6700 O   0  0  0  0  0  0  0  0  0  0  0  0
    1.6080   -0.4440   -1.7000 H   0  0  0  0  0  0  0  0  0  0  0  0
    1.6380    0.6990   -0.3940 H   0  0  0  0  0  0  0  0  0  0  0  0
    2.4590   -2.0970   -0.5280 H   0  0  0  0  0  0  0  0  0  0  0  0
    3.5170   -1.9190    1.6120 H   0  0  0  0  0  0  0  0  0  0  0  0
    4.3380   -1.0390    0.3220 H   0  0  0  0  0  0  0  0  0  0  0  0
    2.7240   -0.5270    3.7420 H   0  0  0  0  0  0  0  0  0  0  0  0
    2.9260    1.9310    4.5070 H   0  0  0  0  0  0  0  0  0  0  0  0
    3.7070    4.3570    3.2640 H   0  0  0  0  0  0  0  0  0  0  0  0
    4.5030    5.3190    1.1260 H   0  0  0  0  0  0  0  0  0  0  0  0
    4.8070    3.8610   -0.7880 H   0  0  0  0  0  0  0  0  0  0  0  0
    4.3480    1.4740   -0.6280 H   0  0  0  0  0  0  0  0  0  0  0  0
   -3.3720    1.0900    0.3250 C   0  0  0  0  0  0  0  0  0  0  0  0
   -2.4010    1.2180    1.4610 C   0  0  0  0  0  0  0  0  0  0  0  0
   -2.0330   -0.0470    2.1430 C   0  0  2  0  0  0  0  0  0  0  0  0
   -1.0430    0.2630    3.3050 C   0  0  0  0  0  0  0  0  0  0  0  0
   -1.4480   -1.1150    1.3160 C   0  0  2  0  0  0  0  0  0  0  0  0
   -0.2410   -0.8060    0.6080 N   0  0  0  0  0  0  0  0  0  0  0  0
   -2.4120   -1.7350    0.3840 C   0  0  0  0  0  0  0  0  0  0  0  0
   -3.5520   -1.9730    0.8400 O   0  0  0  0  0  0  0  0  0  0  0  0
   -3.7140    2.0990   -0.0340 H   0  0  0  0  0  0  0  0  0  0  0  0
   -2.9810    0.4850   -0.4920 H   0  0  0  0  0  0  0  0  0  0  0  0
   -4.3140    0.6150    0.7010 H   0  0  0  0  0  0  0  0  0  0  0  0
   -2.7210    2.0040    2.1880 H   0  0  0  0  0  0  0  0  0  0  0  0
   -1.4660    1.6450    1.0100 H   0  0  0  0  0  0  0  0  0  0  0  0
   -2.9470   -0.4030    2.7050 H   0  0  0  0  0  0  0  0  0  0  0  0
   -0.6740   -0.7200    3.6570 H   0  0  0  0  0  0  0  0  0  0  0  0
   -0.2680    0.9570    2.9810 H   0  0  0  0  0  0  0  0  0  0  0  0
   -1.5920    0.7200    4.1500 H   0  0  0  0  0  0  0  0  0  0  0  0
   -1.2270   -1.9730    2.0590 H   0  0  0  0  0  0  0  0  0  0  0  0
   -0.2410   -0.0440   -0.1050 H   0  0  0  0  0  0  0  0  0  0  0  0
   -0.8550   -5.3150   -1.8900 C   0  0  0  0  0  0  0  0  0  0  0  0
   -2.5020   -5.8690   -1.5130 S   0  0  0  0  0  0  0  0  0  0  0  0
   -3.5050   -4.7280   -0.5510 C   0  0  0  0  0  0  0  0  0  0  0  0
   -3.9750   -3.5750   -1.3660 C   0  0  0  0  0  0  0  0  0  0  0  0
   -2.9100   -2.6890   -1.9470 C   0  0  2  0  0  0  0  0  0  0  0  0
   -2.1040   -2.0630   -0.9490 N   0  0  0  0  0  0  0  0  0  0  0  0
   -3.4450   -1.7740   -2.9770 C   0  0  0  0  0  0  0  0  0  0  0  0
   -3.1660   -0.5600   -2.9650 O   0  0  0  0  0  0  0  0  0  0  0  0
   -4.2690   -2.2540   -3.9810 O   0  0  0  0  0  0  0  0  0  0  0  0
   -0.1630   -6.1860   -1.6070 H   0  0  0  0  0  0  0  0  0  0  0  0
   -0.5340   -4.4460   -1.2670 H   0  0  0  0  0  0  0  0  0  0  0  0
   -0.6970   -5.1330   -2.9670 H   0  0  0  0  0  0  0  0  0  0  0  0
   -4.3830   -5.2610   -0.0830 H   0  0  0  0  0  0  0  0  0  0  0  0
   -2.8630   -4.3620    0.3140 H   0  0  0  0  0  0  0  0  0  0  0  0
   -4.7310   -2.9910   -0.7640 H   0  0  0  0  0  0  0  0  0  0  0  0
   -4.5730   -3.9810   -2.2680 H   0  0  0  0  0  0  0  0  0  0  0  0
   -2.2400   -3.4690   -2.4970 H   0  0  0  0  0  0  0  0  0  0  0  0
   -1.0920   -1.7810   -1.2190 H   0  0  0  0  0  0  0  0  0  0  0  0
  1 16  1  0  0  0  0
  1  2  1  0  0  0  0
  2 17  1  6  0  0  0
  2 13  1  0  0  0  0
  2  3  1  0  0  0  0
  3 18  1  0  0  0  0
  3  4  1  0  0  0  0
  4  5  2  0  0  0  0
  5  6  1  0  0  0  0
  5 20  1  0  0  0  0
  6 21  1  0  0  0  0
  7  6  1  0  0  0  0
  8  7  1  0  0  0  0
  8 22  1  0  0  0  0
  9  8  2  0  0  0  0
 10 11  2  0  0  0  0
 10  9  1  0  0  0  0
 11 12  1  0  0  0  0
 12  4  1  0  0  0  0
 12  7  2  0  0  0  0
 13 14  2  0  0  0  0
 15  1  1  0  0  0  0
 19  3  1  0  0  0  0
 23  9  1  0  0  0  0
 24 10  1  0  0  0  0
 25 11  1  0  0  0  0
 26 36  1  0  0  0  0
 26 27  1  0  0  0  0
 27 28  1  0  0  0  0
 27 37  1  0  0  0  0
 28 39  1  1  0  0  0
 28 29  1  0  0  0  0
 29 40  1  0  0  0  0
 29 42  1  0  0  0  0
 30 43  1  1  0  0  0
 30 28  1  0  0  0  0
 31 13  1  0  0  0  0
 31 30  1  0  0  0  0
 32 33  2  0  0  0  0
 32 30  1  0  0  0  0
 34 26  1  0  0  0  0
 35 26  1  0  0  0  0
 38 27  1  0  0  0  0
 41 29  1  0  0  0  0
 44 31  1  0  0  0  0
 45 54  1  0  0  0  0
 45 46  1  0  0  0  0
 45 55  1  0  0  0  0
 46 47  1  0  0  0  0
 47 57  1  0  0  0  0
 47 58  1  0  0  0  0
 48 59  1  0  0  0  0
 48 47  1  0  0  0  0
 49 61  1  6  0  0  0
 49 48  1  0  0  0  0
 49 50  1  0  0  0  0
 50 32  1  0  0  0  0
 51 52  1  0  0  0  0
 51 49  1  0  0  0  0
 53 51  2  0  0  0  0
 56 45  1  0  0  0  0
 60 48  1  0  0  0  0
 62 50  1  0  0  0  0
M  END
$$$$
