WIP.pdb
 OpenBabel07022419173D

 59 61  0  0  1  0  0  0  0  0999 V2000
   -0.2690    2.1410   -1.6380 N   0  0  0  0  0  0  0  0  0  0  0  0
   -0.6910    0.7460   -1.4890 C   0  0  1  0  0  0  0  0  0  0  0  0
    0.2970   -0.0870   -2.2330 C   0  0  0  0  0  0  0  0  0  0  0  0
    1.6960    0.0300   -1.7960 C   0  0  0  0  0  0  0  0  0  0  0  0
    2.3590   -0.7850   -0.9130 C   0  0  0  0  0  0  0  0  0  0  0  0
    3.6080   -0.3240   -0.7440 N   0  0  0  0  0  0  0  0  0  0  0  0
    3.7660    0.7820   -1.5070 C   0  0  0  0  0  0  0  0  0  0  0  0
    4.8790    1.6200   -1.6890 C   0  0  0  0  0  0  0  0  0  0  0  0
    4.8120    2.6990   -2.5410 C   0  0  0  0  0  0  0  0  0  0  0  0
    3.6180    2.9100   -3.1940 C   0  0  0  0  0  0  0  0  0  0  0  0
    2.5110    2.1060   -3.0350 C   0  0  0  0  0  0  0  0  0  0  0  0
    2.5890    1.0210   -2.1720 C   0  0  0  0  0  0  0  0  0  0  0  0
   -0.8950    0.4200   -0.0770 C   0  0  0  0  0  0  0  0  0  0  0  0
   -0.3390    1.1350    0.8370 O   0  0  0  0  0  0  0  0  0  0  0  0
   -0.6260    2.6770   -0.8120 H   0  0  0  0  0  0  0  0  0  0  0  0
   -0.6330    2.5440   -2.5230 H   0  0  0  0  0  0  0  0  0  0  0  0
   -1.6830    0.6650   -1.9960 H   0  0  0  0  0  0  0  0  0  0  0  0
    0.3040    0.2280   -3.3260 H   0  0  0  0  0  0  0  0  0  0  0  0
   -0.0190   -1.1440   -2.2670 H   0  0  0  0  0  0  0  0  0  0  0  0
    1.9930   -1.6860   -0.3910 H   0  0  0  0  0  0  0  0  0  0  0  0
    4.3680   -0.7300   -0.1260 H   0  0  0  0  0  0  0  0  0  0  0  0
    5.7880    1.3840   -1.1350 H   0  0  0  0  0  0  0  0  0  0  0  0
    5.6880    3.3420   -2.6720 H   0  0  0  0  0  0  0  0  0  0  0  0
    3.5820    3.7750   -3.8710 H   0  0  0  0  0  0  0  0  0  0  0  0
    1.5920    2.2810   -3.5680 H   0  0  0  0  0  0  0  0  0  0  0  0
   -2.9620    1.8460    2.5870 C   0  0  0  0  0  0  0  0  0  0  0  0
   -3.7290    0.7760    1.8990 C   0  0  0  0  0  0  0  0  0  0  0  0
   -3.3120   -0.6390    2.2360 C   0  0  2  0  0  0  0  0  0  0  0  0
   -3.4640   -0.8780    3.7180 C   0  0  0  0  0  0  0  0  0  0  0  0
   -1.8460   -0.8920    1.8610 C   0  0  2  0  0  0  0  0  0  0  0  0
   -1.6920   -0.6590    0.4230 N   0  0  0  0  0  0  0  0  0  0  0  0
   -1.3500   -2.1690    2.3380 C   0  0  0  0  0  0  0  0  0  0  0  0
   -1.4030   -2.3790    3.6060 O   0  0  0  0  0  0  0  0  0  0  0  0
   -3.6340    2.5620    3.1370 H   0  0  0  0  0  0  0  0  0  0  0  0
   -2.1660    1.5190    3.2530 H   0  0  0  0  0  0  0  0  0  0  0  0
   -2.5000    2.5040    1.7920 H   0  0  0  0  0  0  0  0  0  0  0  0
   -3.7510    0.8880    0.7940 H   0  0  0  0  0  0  0  0  0  0  0  0
   -4.8030    0.8600    2.2250 H   0  0  0  0  0  0  0  0  0  0  0  0
   -3.9870   -1.2880    1.6400 H   0  0  0  0  0  0  0  0  0  0  0  0
   -2.5580   -0.5520    4.2670 H   0  0  0  0  0  0  0  0  0  0  0  0
   -3.6070   -1.9510    3.8830 H   0  0  0  0  0  0  0  0  0  0  0  0
   -4.3260   -0.2830    4.1330 H   0  0  0  0  0  0  0  0  0  0  0  0
   -1.3040   -0.0690    2.3690 H   0  0  0  0  0  0  0  0  0  0  0  0
   -2.1680   -1.2410   -0.2970 H   0  0  0  0  0  0  0  0  0  0  0  0
   -0.7950   -3.2500    1.5510 N   0  0  0  0  0  0  0  0  0  0  0  0
   -0.5800   -3.3460    0.1710 C   0  0  0  0  0  0  0  0  0  0  0  0
    0.2850   -4.5150   -0.1090 C   0  0  0  0  0  0  0  0  0  0  0  0
   -0.0920   -5.4330    1.0510 C   0  0  0  0  0  0  0  0  0  0  0  0
   -0.3710   -4.4800    2.1770 C   0  0  1  0  0  0  0  0  0  0  0  0
    0.8410   -4.2690    3.0190 C   0  0  0  0  0  0  0  0  0  0  0  0
    1.3240   -3.1170    3.0890 O   0  0  0  0  0  0  0  0  0  0  0  0
    1.4340   -5.2920    3.7140 O   0  0  0  0  0  0  0  0  0  0  0  0
   -1.5760   -3.5490   -0.3180 H   0  0  0  0  0  0  0  0  0  0  0  0
   -0.2250   -2.4200   -0.3240 H   0  0  0  0  0  0  0  0  0  0  0  0
    1.3610   -4.2200   -0.0590 H   0  0  0  0  0  0  0  0  0  0  0  0
    0.0430   -5.0290   -1.0640 H   0  0  0  0  0  0  0  0  0  0  0  0
   -0.9900   -6.0240    0.7920 H   0  0  0  0  0  0  0  0  0  0  0  0
    0.7590   -6.1130    1.2680 H   0  0  0  0  0  0  0  0  0  0  0  0
   -1.2280   -4.8350    2.7970 H   0  0  0  0  0  0  0  0  0  0  0  0
  1  2  1  0  0  0  0
  1 15  1  0  0  0  0
  2 17  1  6  0  0  0
  2 13  1  0  0  0  0
  3  4  1  0  0  0  0
  3  2  1  0  0  0  0
  4  5  2  0  0  0  0
  5  6  1  0  0  0  0
  5 20  1  0  0  0  0
  6 21  1  0  0  0  0
  7  6  1  0  0  0  0
  8  7  1  0  0  0  0
  8 22  1  0  0  0  0
  9  8  2  0  0  0  0
 10 11  2  0  0  0  0
 10  9  1  0  0  0  0
 11 12  1  0  0  0  0
 12  4  1  0  0  0  0
 12  7  2  0  0  0  0
 13 31  1  0  0  0  0
 13 14  2  0  0  0  0
 16  1  1  0  0  0  0
 18  3  1  0  0  0  0
 19  3  1  0  0  0  0
 23  9  1  0  0  0  0
 24 10  1  0  0  0  0
 25 11  1  0  0  0  0
 26 34  1  0  0  0  0
 26 35  1  0  0  0  0
 27 38  1  0  0  0  0
 27 28  1  0  0  0  0
 27 26  1  0  0  0  0
 28 39  1  6  0  0  0
 28 29  1  0  0  0  0
 29 41  1  0  0  0  0
 29 42  1  0  0  0  0
 29 40  1  0  0  0  0
 30 28  1  0  0  0  0
 30 32  1  0  0  0  0
 30 43  1  1  0  0  0
 31 30  1  0  0  0  0
 32 33  2  0  0  0  0
 36 26  1  0  0  0  0
 37 27  1  0  0  0  0
 44 31  1  0  0  0  0
 45 49  1  0  0  0  0
 45 32  1  0  0  0  0
 46 45  1  0  0  0  0
 47 55  1  0  0  0  0
 47 46  1  0  0  0  0
 47 48  1  0  0  0  0
 48 58  1  0  0  0  0
 48 49  1  0  0  0  0
 49 59  1  1  0  0  0
 49 50  1  0  0  0  0
 50 51  2  0  0  0  0
 50 52  1  0  0  0  0
 53 46  1  0  0  0  0
 54 46  1  0  0  0  0
 56 47  1  0  0  0  0
 57 48  1  0  0  0  0
M  END
$$$$
