WIQ.pdb
 OpenBabel07022419173D

 62 63  0  0  1  0  0  0  0  0999 V2000
    1.2130    2.4800    3.1050 N   0  0  0  0  0  0  0  0  0  0  0  0
    0.5150    1.7770    2.0740 C   0  0  1  0  0  0  0  0  0  0  0  0
    1.5080    1.0630    1.1620 C   0  0  0  0  0  0  0  0  0  0  0  0
    2.4480    1.9870    0.5070 C   0  0  0  0  0  0  0  0  0  0  0  0
    3.7870    2.2290    0.8250 C   0  0  0  0  0  0  0  0  0  0  0  0
    4.2900    3.1470   -0.0170 N   0  0  0  0  0  0  0  0  0  0  0  0
    3.3230    3.5320   -0.8950 C   0  0  0  0  0  0  0  0  0  0  0  0
    3.3050    4.4310   -1.9510 C   0  0  0  0  0  0  0  0  0  0  0  0
    2.1790    4.6480   -2.7070 C   0  0  0  0  0  0  0  0  0  0  0  0
    1.0410    3.9400   -2.3930 C   0  0  0  0  0  0  0  0  0  0  0  0
    1.0480    3.0440   -1.3470 C   0  0  0  0  0  0  0  0  0  0  0  0
    2.1900    2.8160   -0.5710 C   0  0  0  0  0  0  0  0  0  0  0  0
   -0.3680    0.6960    2.6480 C   0  0  0  0  0  0  0  0  0  0  0  0
   -0.3880    0.4710    3.8850 O   0  0  0  0  0  0  0  0  0  0  0  0
    2.1990    2.1700    3.1190 H   0  0  0  0  0  0  0  0  0  0  0  0
    0.7370    2.3070    4.0070 H   0  0  0  0  0  0  0  0  0  0  0  0
   -0.0830    2.4510    1.4660 H   0  0  0  0  0  0  0  0  0  0  0  0
    2.0830    0.3280    1.7930 H   0  0  0  0  0  0  0  0  0  0  0  0
    0.9480    0.5180    0.3760 H   0  0  0  0  0  0  0  0  0  0  0  0
    4.3060    1.7240    1.6430 H   0  0  0  0  0  0  0  0  0  0  0  0
    5.2590    3.5410   -0.0430 H   0  0  0  0  0  0  0  0  0  0  0  0
    4.2280    4.9590   -2.1510 H   0  0  0  0  0  0  0  0  0  0  0  0
    2.1670    5.3580   -3.5380 H   0  0  0  0  0  0  0  0  0  0  0  0
    0.1260    4.0880   -2.9760 H   0  0  0  0  0  0  0  0  0  0  0  0
    0.1760    2.4620   -1.0610 H   0  0  0  0  0  0  0  0  0  0  0  0
   -5.8130   -1.5270    2.7270 C   0  0  0  0  0  0  0  0  0  0  0  0
   -4.3380   -1.9250    2.7590 C   0  0  0  0  0  0  0  0  0  0  0  0
   -3.4890   -0.8330    2.1590 C   0  0  2  0  0  0  0  0  0  0  0  0
   -3.9130   -0.6390    0.7310 C   0  0  0  0  0  0  0  0  0  0  0  0
   -2.0470   -1.1350    2.3660 C   0  0  2  0  0  0  0  0  0  0  0  0
   -1.1950   -0.0890    1.8000 N   0  0  0  0  0  0  0  0  0  0  0  0
   -1.6500   -2.4120    1.7290 C   0  0  0  0  0  0  0  0  0  0  0  0
   -2.1730   -3.5370    2.0460 O   0  0  0  0  0  0  0  0  0  0  0  0
   -5.9270   -0.6570    3.3770 H   0  0  0  0  0  0  0  0  0  0  0  0
   -6.1730   -1.3980    1.7070 H   0  0  0  0  0  0  0  0  0  0  0  0
   -6.3600   -2.3980    3.1660 H   0  0  0  0  0  0  0  0  0  0  0  0
   -4.3100   -2.8710    2.1450 H   0  0  0  0  0  0  0  0  0  0  0  0
   -4.0880   -2.1930    3.7860 H   0  0  0  0  0  0  0  0  0  0  0  0
   -3.7790    0.1060    2.7030 H   0  0  0  0  0  0  0  0  0  0  0  0
   -3.2360    0.0070    0.1560 H   0  0  0  0  0  0  0  0  0  0  0  0
   -4.0800   -1.6060    0.1950 H   0  0  0  0  0  0  0  0  0  0  0  0
   -4.8970   -0.1280    0.7510 H   0  0  0  0  0  0  0  0  0  0  0  0
   -1.8710   -1.1430    3.4650 H   0  0  0  0  0  0  0  0  0  0  0  0
   -1.1550    0.1310    0.7820 H   0  0  0  0  0  0  0  0  0  0  0  0
    1.8660   -6.1520   -2.7450 N   0  0  0  0  0  0  0  0  0  0  0  0
    1.2260   -4.9230   -2.4600 C   0  0  0  0  0  0  0  0  0  0  0  0
    1.8930   -3.8220   -2.4260 O   0  0  0  0  0  0  0  0  0  0  0  0
   -0.2200   -4.7900   -2.1910 C   0  0  0  0  0  0  0  0  0  0  0  0
   -0.6300   -3.6320   -1.3640 C   0  0  0  0  0  0  0  0  0  0  0  0
   -0.2330   -3.7000    0.0570 C   0  0  2  0  0  0  0  0  0  0  0  0
   -0.6670   -2.4480    0.7340 N   0  0  0  0  0  0  0  0  0  0  0  0
    1.1680   -3.8740    0.3240 C   0  0  0  0  0  0  0  0  0  0  0  0
    1.8780   -2.9180    0.7220 O   0  0  0  0  0  0  0  0  0  0  0  0
    1.8040   -5.0930    0.1710 O   0  0  0  0  0  0  0  0  0  0  0  0
    2.8410   -6.2970   -2.4340 H   0  0  0  0  0  0  0  0  0  0  0  0
    1.3770   -6.8960   -3.2550 H   0  0  0  0  0  0  0  0  0  0  0  0
   -0.7570   -4.8030   -3.1950 H   0  0  0  0  0  0  0  0  0  0  0  0
   -0.5280   -5.7720   -1.7400 H   0  0  0  0  0  0  0  0  0  0  0  0
   -1.7700   -3.5630   -1.4660 H   0  0  0  0  0  0  0  0  0  0  0  0
   -0.2320   -2.6960   -1.8710 H   0  0  0  0  0  0  0  0  0  0  0  0
   -0.8670   -4.5350    0.5190 H   0  0  0  0  0  0  0  0  0  0  0  0
   -0.1820   -1.5940    0.4100 H   0  0  0  0  0  0  0  0  0  0  0  0
  1 15  1  0  0  0  0
  1 16  1  0  0  0  0
  2 17  1  6  0  0  0
  2 13  1  0  0  0  0
  2  1  1  0  0  0  0
  3 18  1  0  0  0  0
  3  2  1  0  0  0  0
  4  5  2  0  0  0  0
  4  3  1  0  0  0  0
  5 20  1  0  0  0  0
  6  5  1  0  0  0  0
  7 12  1  0  0  0  0
  7  6  1  0  0  0  0
  8  7  2  0  0  0  0
  9 10  2  0  0  0  0
  9  8  1  0  0  0  0
 10 11  1  0  0  0  0
 11 25  1  0  0  0  0
 11 12  2  0  0  0  0
 12  4  1  0  0  0  0
 13 14  2  0  0  0  0
 19  3  1  0  0  0  0
 21  6  1  0  0  0  0
 22  8  1  0  0  0  0
 23  9  1  0  0  0  0
 24 10  1  0  0  0  0
 26 27  1  0  0  0  0
 26 36  1  0  0  0  0
 26 34  1  0  0  0  0
 27 38  1  0  0  0  0
 28 30  1  0  0  0  0
 28 39  1  1  0  0  0
 28 27  1  0  0  0  0
 29 42  1  0  0  0  0
 29 28  1  0  0  0  0
 30 43  1  1  0  0  0
 31 30  1  0  0  0  0
 31 13  1  0  0  0  0
 32 33  2  0  0  0  0
 32 30  1  0  0  0  0
 35 26  1  0  0  0  0
 37 27  1  0  0  0  0
 40 29  1  0  0  0  0
 41 29  1  0  0  0  0
 44 31  1  0  0  0  0
 45 46  1  0  0  0  0
 45 55  1  0  0  0  0
 46 47  2  0  0  0  0
 46 48  1  0  0  0  0
 48 58  1  0  0  0  0
 48 49  1  0  0  0  0
 49 50  1  0  0  0  0
 50 52  1  0  0  0  0
 50 61  1  1  0  0  0
 50 51  1  0  0  0  0
 51 32  1  0  0  0  0
 52 53  1  0  0  0  0
 54 52  2  0  0  0  0
 56 45  1  0  0  0  0
 57 48  1  0  0  0  0
 59 49  1  0  0  0  0
 60 49  1  0  0  0  0
 62 51  1  0  0  0  0
M  END
$$$$
