WKA.pdb
 OpenBabel07022419173D

 57 58  0  0  1  0  0  0  0  0999 V2000
   -0.4060    2.8600    0.5720 N   0  0  0  0  0  0  0  0  0  0  0  0
    0.7970    2.4430   -0.0690 C   0  0  1  0  0  0  0  0  0  0  0  0
    1.9720    2.7970    0.7990 C   0  0  0  0  0  0  0  0  0  0  0  0
    1.9270    2.1770    2.1150 C   0  0  0  0  0  0  0  0  0  0  0  0
    0.9650    1.4140    2.6910 C   0  0  0  0  0  0  0  0  0  0  0  0
    1.3630    1.0620    3.9420 N   0  0  0  0  0  0  0  0  0  0  0  0
    2.5740    1.5960    4.1690 C   0  0  0  0  0  0  0  0  0  0  0  0
    3.3880    1.5210    5.2950 C   0  0  0  0  0  0  0  0  0  0  0  0
    4.6110    2.1660    5.2940 C   0  0  0  0  0  0  0  0  0  0  0  0
    4.9940    2.8700    4.1740 C   0  0  0  0  0  0  0  0  0  0  0  0
    4.1710    2.9370    3.0530 C   0  0  0  0  0  0  0  0  0  0  0  0
    2.9620    2.3010    3.0520 C   0  0  0  0  0  0  0  0  0  0  0  0
    0.8290    0.9960   -0.4210 C   0  0  0  0  0  0  0  0  0  0  0  0
    1.9110    0.5040   -0.8760 O   0  0  0  0  0  0  0  0  0  0  0  0
   -0.3330    3.7020    1.1450 H   0  0  0  0  0  0  0  0  0  0  0  0
   -1.2890    2.6550    0.1090 H   0  0  0  0  0  0  0  0  0  0  0  0
    0.8470    3.0050   -1.0490 H   0  0  0  0  0  0  0  0  0  0  0  0
    2.9100    2.5760    0.2410 H   0  0  0  0  0  0  0  0  0  0  0  0
    1.9300    3.9200    0.9130 H   0  0  0  0  0  0  0  0  0  0  0  0
    0.0270    1.1090    2.2850 H   0  0  0  0  0  0  0  0  0  0  0  0
    0.7990    0.4720    4.5980 H   0  0  0  0  0  0  0  0  0  0  0  0
    3.0760    0.9700    6.1590 H   0  0  0  0  0  0  0  0  0  0  0  0
    5.2390    2.1030    6.1740 H   0  0  0  0  0  0  0  0  0  0  0  0
    5.9610    3.3650    4.2110 H   0  0  0  0  0  0  0  0  0  0  0  0
    4.5150    3.4960    2.2100 H   0  0  0  0  0  0  0  0  0  0  0  0
   -0.2960    0.1490   -0.2730 N   0  0  0  0  0  0  0  0  0  0  0  0
   -0.2560   -1.2250   -0.6140 C   0  0  1  0  0  0  0  0  0  0  0  0
   -0.4890   -2.1440    0.5370 C   0  0  0  0  0  0  0  0  0  0  0  0
   -1.7110   -2.0230    1.3250 C   0  0  0  0  0  0  0  0  0  0  0  0
   -3.0450   -2.2010    0.7320 C   0  0  0  0  0  0  0  0  0  0  0  0
   -3.3750   -3.5250    0.1470 C   0  0  0  0  0  0  0  0  0  0  0  0
   -3.2890   -4.6080    1.1350 N   0  0  0  0  0  0  0  0  0  0  0  0
   -1.0800   -1.5970   -1.7670 C   0  0  0  0  0  0  0  0  0  0  0  0
   -1.9490   -0.8540   -2.2870 O   0  0  0  0  0  0  0  0  0  0  0  0
   -1.1520    0.5870    0.0990 H   0  0  0  0  0  0  0  0  0  0  0  0
    0.8190   -1.4150   -0.9800 H   0  0  0  0  0  0  0  0  0  0  0  0
    0.3900   -2.0100    1.2350 H   0  0  0  0  0  0  0  0  0  0  0  0
   -0.3810   -3.2180    0.2060 H   0  0  0  0  0  0  0  0  0  0  0  0
   -1.7250   -1.1080    1.9970 H   0  0  0  0  0  0  0  0  0  0  0  0
   -1.6380   -2.8420    2.1280 H   0  0  0  0  0  0  0  0  0  0  0  0
   -3.8280   -2.0270    1.5440 H   0  0  0  0  0  0  0  0  0  0  0  0
   -3.3290   -1.4310   -0.0230 H   0  0  0  0  0  0  0  0  0  0  0  0
   -2.9240   -3.7890   -0.7970 H   0  0  0  0  0  0  0  0  0  0  0  0
   -4.4940   -3.4830   -0.0760 H   0  0  0  0  0  0  0  0  0  0  0  0
   -3.1850   -5.4820    0.5480 H   0  0  0  0  0  0  0  0  0  0  0  0
   -4.1540   -4.6430    1.7190 H   0  0  0  0  0  0  0  0  0  0  0  0
   -0.9230   -3.0720   -4.8240 C   0  0  0  0  0  0  0  0  0  0  0  0
   -1.7380   -3.2200   -3.5270 C   0  0  2  0  0  0  0  0  0  0  0  0
   -0.9140   -2.8930   -2.3890 N   0  0  0  0  0  0  0  0  0  0  0  0
   -2.1360   -4.6350   -3.4640 C   0  0  0  0  0  0  0  0  0  0  0  0
   -2.9160   -5.1360   -4.3160 O   0  0  0  0  0  0  0  0  0  0  0  0
   -1.6610   -5.4640   -2.4650 O   0  0  0  0  0  0  0  0  0  0  0  0
   -1.5660   -2.7910   -5.6650 H   0  0  0  0  0  0  0  0  0  0  0  0
   -0.1350   -2.3230   -4.5900 H   0  0  0  0  0  0  0  0  0  0  0  0
   -0.4110   -4.0250   -5.0210 H   0  0  0  0  0  0  0  0  0  0  0  0
   -2.6070   -2.5440   -3.6310 H   0  0  0  0  0  0  0  0  0  0  0  0
   -0.2250   -3.5910   -2.0460 H   0  0  0  0  0  0  0  0  0  0  0  0
  1 15  1  0  0  0  0
  2 17  1  6  0  0  0
  2  1  1  0  0  0  0
  2  3  1  0  0  0  0
  3 19  1  0  0  0  0
  3  4  1  0  0  0  0
  4  5  2  0  0  0  0
  4 12  1  0  0  0  0
  5  6  1  0  0  0  0
  6  7  1  0  0  0  0
  6 21  1  0  0  0  0
  7  8  1  0  0  0  0
  8 22  1  0  0  0  0
  9  8  2  0  0  0  0
  9 23  1  0  0  0  0
 10 24  1  0  0  0  0
 10  9  1  0  0  0  0
 11 10  2  0  0  0  0
 12 11  1  0  0  0  0
 12  7  2  0  0  0  0
 13 26  1  0  0  0  0
 13  2  1  0  0  0  0
 14 13  2  0  0  0  0
 16  1  1  0  0  0  0
 18  3  1  0  0  0  0
 20  5  1  0  0  0  0
 25 11  1  0  0  0  0
 26 35  1  0  0  0  0
 27 36  1  6  0  0  0
 27 26  1  0  0  0  0
 27 28  1  0  0  0  0
 28 37  1  0  0  0  0
 28 29  1  0  0  0  0
 29 39  1  0  0  0  0
 29 40  1  0  0  0  0
 30 29  1  0  0  0  0
 30 41  1  0  0  0  0
 31 30  1  0  0  0  0
 31 32  1  0  0  0  0
 32 46  1  0  0  0  0
 33 27  1  0  0  0  0
 34 33  2  0  0  0  0
 38 28  1  0  0  0  0
 42 30  1  0  0  0  0
 43 31  1  0  0  0  0
 44 31  1  0  0  0  0
 45 32  1  0  0  0  0
 47 54  1  0  0  0  0
 47 48  1  0  0  0  0
 48 56  1  6  0  0  0
 48 50  1  0  0  0  0
 48 49  1  0  0  0  0
 49 57  1  0  0  0  0
 49 33  1  0  0  0  0
 50 52  1  0  0  0  0
 51 50  2  0  0  0  0
 53 47  1  0  0  0  0
 55 47  1  0  0  0  0
M  END
$$$$
