WKD.pdb
 OpenBabel07022419173D

 60 61  0  0  1  0  0  0  0  0999 V2000
    2.1920   -1.0780    1.0430 N   0  0  0  0  0  0  0  0  0  0  0  0
    1.7500   -0.5870    2.2970 C   0  0  1  0  0  0  0  0  0  0  0  0
    2.4170    0.7210    2.6230 C   0  0  0  0  0  0  0  0  0  0  0  0
    2.1400    1.7720    1.6210 C   0  0  0  0  0  0  0  0  0  0  0  0
    1.1690    2.7810    1.7200 C   0  0  0  0  0  0  0  0  0  0  0  0
    1.1940    3.5360    0.6160 N   0  0  0  0  0  0  0  0  0  0  0  0
    2.1380    3.0930   -0.2360 C   0  0  0  0  0  0  0  0  0  0  0  0
    2.5240    3.5570   -1.4750 C   0  0  0  0  0  0  0  0  0  0  0  0
    3.5430    2.9160   -2.1470 C   0  0  0  0  0  0  0  0  0  0  0  0
    4.1310    1.8310   -1.5340 C   0  0  0  0  0  0  0  0  0  0  0  0
    3.7470    1.3620   -0.2910 C   0  0  0  0  0  0  0  0  0  0  0  0
    2.7280    1.9940    0.3890 C   0  0  0  0  0  0  0  0  0  0  0  0
    0.2550   -0.4710    2.3340 C   0  0  0  0  0  0  0  0  0  0  0  0
   -0.3080    0.0890    3.2980 O   0  0  0  0  0  0  0  0  0  0  0  0
    1.7540   -0.6810    0.2070 H   0  0  0  0  0  0  0  0  0  0  0  0
    2.3650   -2.1050    1.0130 H   0  0  0  0  0  0  0  0  0  0  0  0
    2.0560   -1.3740    3.0640 H   0  0  0  0  0  0  0  0  0  0  0  0
    3.5200    0.5040    2.6610 H   0  0  0  0  0  0  0  0  0  0  0  0
    2.0630    1.0900    3.6160 H   0  0  0  0  0  0  0  0  0  0  0  0
    0.5280    2.8660    2.6030 H   0  0  0  0  0  0  0  0  0  0  0  0
    0.5790    4.3630    0.4120 H   0  0  0  0  0  0  0  0  0  0  0  0
    2.0630    4.4070   -1.9540 H   0  0  0  0  0  0  0  0  0  0  0  0
    3.8740    3.2580   -3.1310 H   0  0  0  0  0  0  0  0  0  0  0  0
    4.9390    1.2990   -2.0300 H   0  0  0  0  0  0  0  0  0  0  0  0
    4.2310    0.5160    0.1670 H   0  0  0  0  0  0  0  0  0  0  0  0
   -0.5870   -0.9870    1.2900 N   0  0  0  0  0  0  0  0  0  0  0  0
   -2.0090   -0.8700    1.3330 C   0  0  1  0  0  0  0  0  0  0  0  0
   -2.6960   -0.1000    0.2870 C   0  0  0  0  0  0  0  0  0  0  0  0
   -2.6330   -0.4960   -1.1250 C   0  0  0  0  0  0  0  0  0  0  0  0
   -1.3420   -0.5630   -1.8310 C   0  0  0  0  0  0  0  0  0  0  0  0
   -0.5560    0.7390   -1.8450 C   0  0  0  0  0  0  0  0  0  0  0  0
    0.6780    0.5150   -2.5790 N   0  0  0  0  0  0  0  0  0  0  0  0
   -2.6450   -2.2320    1.5290 C   0  0  0  0  0  0  0  0  0  0  0  0
   -3.8860   -2.2710    1.5640 O   0  0  0  0  0  0  0  0  0  0  0  0
   -0.1040   -1.4550    0.5210 H   0  0  0  0  0  0  0  0  0  0  0  0
   -2.2220   -0.3090    2.3140 H   0  0  0  0  0  0  0  0  0  0  0  0
   -3.8110   -0.0670    0.5550 H   0  0  0  0  0  0  0  0  0  0  0  0
   -2.4160    0.9900    0.4340 H   0  0  0  0  0  0  0  0  0  0  0  0
   -3.3390    0.0980   -1.7750 H   0  0  0  0  0  0  0  0  0  0  0  0
   -3.0850   -1.5380   -1.1910 H   0  0  0  0  0  0  0  0  0  0  0  0
   -1.6270   -0.7010   -2.9480 H   0  0  0  0  0  0  0  0  0  0  0  0
   -0.6980   -1.4280   -1.6280 H   0  0  0  0  0  0  0  0  0  0  0  0
   -1.1130    1.5270   -2.3890 H   0  0  0  0  0  0  0  0  0  0  0  0
   -0.2910    1.0910   -0.8420 H   0  0  0  0  0  0  0  0  0  0  0  0
    1.1680    1.3850   -2.7970 H   0  0  0  0  0  0  0  0  0  0  0  0
    1.2990   -0.1400   -2.0820 H   0  0  0  0  0  0  0  0  0  0  0  0
   -1.8410   -3.3760    1.6640 N   0  0  0  0  0  0  0  0  0  0  0  0
   -2.4130   -4.7140    1.8590 C   0  0  1  0  0  0  0  0  0  0  0  0
   -1.8000   -5.6610    0.8870 C   0  0  0  0  0  0  0  0  0  0  0  0
   -1.9960   -5.3360   -0.5240 C   0  0  0  0  0  0  0  0  0  0  0  0
   -1.4880   -6.0880   -1.3930 O   0  0  0  0  0  0  0  0  0  0  0  0
   -2.0430   -5.1930    3.2440 C   0  0  0  0  0  0  0  0  0  0  0  0
   -1.3590   -4.4900    4.0250 O   0  0  0  0  0  0  0  0  0  0  0  0
   -2.7120   -4.2410   -0.9820 O   0  0  0  0  0  0  0  0  0  0  0  0
   -2.4600   -6.4330    3.6790 O   0  0  0  0  0  0  0  0  0  0  0  0
   -0.8020   -3.2440    1.6190 H   0  0  0  0  0  0  0  0  0  0  0  0
   -3.5000   -4.6480    1.8330 H   0  0  0  0  0  0  0  0  0  0  0  0
   -0.7110   -5.7350    1.0980 H   0  0  0  0  0  0  0  0  0  0  0  0
   -2.1970   -6.6960    1.0750 H   0  0  0  0  0  0  0  0  0  0  0  0
   -2.7420   -4.0240   -1.9820 H   0  0  0  0  0  0  0  0  0  0  0  0
  1  2  1  0  0  0  0
  2 13  1  0  0  0  0
  2  3  1  0  0  0  0
  2 17  1  1  0  0  0
  3 18  1  0  0  0  0
  3 19  1  0  0  0  0
  4  5  2  0  0  0  0
  4  3  1  0  0  0  0
  5 20  1  0  0  0  0
  6  5  1  0  0  0  0
  7 12  1  0  0  0  0
  7  6  1  0  0  0  0
  8  7  2  0  0  0  0
  9 10  2  0  0  0  0
  9  8  1  0  0  0  0
 10 11  1  0  0  0  0
 11 25  1  0  0  0  0
 11 12  2  0  0  0  0
 12  4  1  0  0  0  0
 13 14  2  0  0  0  0
 15  1  1  0  0  0  0
 16  1  1  0  0  0  0
 21  6  1  0  0  0  0
 22  8  1  0  0  0  0
 23  9  1  0  0  0  0
 24 10  1  0  0  0  0
 26 27  1  0  0  0  0
 26 13  1  0  0  0  0
 27 33  1  0  0  0  0
 27 36  1  1  0  0  0
 28 38  1  0  0  0  0
 28 37  1  0  0  0  0
 28 27  1  0  0  0  0
 29 28  1  0  0  0  0
 30 42  1  0  0  0  0
 30 29  1  0  0  0  0
 31 30  1  0  0  0  0
 31 44  1  0  0  0  0
 32 46  1  0  0  0  0
 32 31  1  0  0  0  0
 33 34  2  0  0  0  0
 33 47  1  0  0  0  0
 35 26  1  0  0  0  0
 39 29  1  0  0  0  0
 40 29  1  0  0  0  0
 41 30  1  0  0  0  0
 43 31  1  0  0  0  0
 45 32  1  0  0  0  0
 47 48  1  0  0  0  0
 48 57  1  6  0  0  0
 48 52  1  0  0  0  0
 49 59  1  0  0  0  0
 49 58  1  0  0  0  0
 49 48  1  0  0  0  0
 50 49  1  0  0  0  0
 51 50  2  0  0  0  0
 52 55  2  0  0  0  0
 52 53  1  0  0  0  0
 54 50  1  0  0  0  0
 56 47  1  0  0  0  0
 60 54  1  0  0  0  0
M  END
$$$$
