WKE.pdb
 OpenBabel07022419173D

 63 64  0  0  1  0  0  0  0  0999 V2000
    1.0780   -2.1020    4.8320 N   0  0  0  0  0  0  0  0  0  0  0  0
    0.3120   -0.9660    4.1880 C   0  0  1  0  0  0  0  0  0  0  0  0
    1.1780    0.1950    4.0780 C   0  0  0  0  0  0  0  0  0  0  0  0
    2.3990    0.1430    3.2830 C   0  0  0  0  0  0  0  0  0  0  0  0
    3.6000   -0.4430    3.6910 C   0  0  0  0  0  0  0  0  0  0  0  0
    4.4280   -0.3450    2.6490 N   0  0  0  0  0  0  0  0  0  0  0  0
    3.8350    0.2610    1.6160 C   0  0  0  0  0  0  0  0  0  0  0  0
    4.2900    0.6190    0.3420 C   0  0  0  0  0  0  0  0  0  0  0  0
    3.4800    1.2880   -0.5450 C   0  0  0  0  0  0  0  0  0  0  0  0
    2.1940    1.6000   -0.1440 C   0  0  0  0  0  0  0  0  0  0  0  0
    1.7180    1.2610    1.1010 C   0  0  0  0  0  0  0  0  0  0  0  0
    2.5570    0.5790    1.9880 C   0  0  0  0  0  0  0  0  0  0  0  0
   -0.4370   -1.5840    3.1330 C   0  0  0  0  0  0  0  0  0  0  0  0
   -0.6100   -2.8860    3.1870 O   0  0  0  0  0  0  0  0  0  0  0  0
    1.6940   -2.4320    4.0470 H   0  0  0  0  0  0  0  0  0  0  0  0
    0.2960   -2.8090    4.9770 H   0  0  0  0  0  0  0  0  0  0  0  0
   -0.4430   -0.7270    5.0470 H   0  0  0  0  0  0  0  0  0  0  0  0
    0.6270    1.1500    3.8070 H   0  0  0  0  0  0  0  0  0  0  0  0
    1.5270    0.4500    5.1420 H   0  0  0  0  0  0  0  0  0  0  0  0
    3.8190   -0.8950    4.6730 H   0  0  0  0  0  0  0  0  0  0  0  0
    5.4140   -0.6830    2.5980 H   0  0  0  0  0  0  0  0  0  0  0  0
    5.3000    0.3510    0.0660 H   0  0  0  0  0  0  0  0  0  0  0  0
    3.8270    1.5650   -1.5300 H   0  0  0  0  0  0  0  0  0  0  0  0
    1.5630    2.1350   -0.8620 H   0  0  0  0  0  0  0  0  0  0  0  0
    0.7170    1.5170    1.4150 H   0  0  0  0  0  0  0  0  0  0  0  0
   -1.0670   -1.0390    1.9810 N   0  0  0  0  0  0  0  0  0  0  0  0
   -1.8320   -1.8720    1.0670 C   0  0  1  0  0  0  0  0  0  0  0  0
   -3.1830   -1.1780    0.9330 C   0  0  0  0  0  0  0  0  0  0  0  0
   -4.1390   -1.8840    0.0650 C   0  0  0  0  0  0  0  0  0  0  0  0
   -5.4630   -1.1760    0.0090 C   0  0  0  0  0  0  0  0  0  0  0  0
   -5.4770    0.1910   -0.5570 C   0  0  0  0  0  0  0  0  0  0  0  0
   -4.7110    1.1930    0.0930 N   0  0  0  0  0  0  0  0  0  0  0  0
   -1.1610   -2.1870   -0.1700 C   0  0  0  0  0  0  0  0  0  0  0  0
   -1.7290   -2.9260   -1.0550 O   0  0  0  0  0  0  0  0  0  0  0  0
   -0.9780   -0.0240    1.8040 H   0  0  0  0  0  0  0  0  0  0  0  0
   -2.0300   -2.8360    1.6260 H   0  0  0  0  0  0  0  0  0  0  0  0
   -2.9610   -0.1330    0.6370 H   0  0  0  0  0  0  0  0  0  0  0  0
   -3.6000   -1.1450    1.9590 H   0  0  0  0  0  0  0  0  0  0  0  0
   -3.8010   -2.0670   -0.9790 H   0  0  0  0  0  0  0  0  0  0  0  0
   -4.3650   -2.9310    0.4450 H   0  0  0  0  0  0  0  0  0  0  0  0
   -6.2320   -1.7800   -0.5360 H   0  0  0  0  0  0  0  0  0  0  0  0
   -5.9140   -1.0880    1.0490 H   0  0  0  0  0  0  0  0  0  0  0  0
   -5.1610    0.0860   -1.6440 H   0  0  0  0  0  0  0  0  0  0  0  0
   -6.5490    0.5020   -0.6440 H   0  0  0  0  0  0  0  0  0  0  0  0
   -5.3350    1.9480    0.4900 H   0  0  0  0  0  0  0  0  0  0  0  0
   -4.0290    1.6350   -0.5860 H   0  0  0  0  0  0  0  0  0  0  0  0
    0.1300   -1.7420   -0.5260 N   0  0  0  0  0  0  0  0  0  0  0  0
    0.7180   -2.1280   -1.7970 C   0  0  1  0  0  0  0  0  0  0  0  0
    1.0210   -0.9310   -2.6470 C   0  0  0  0  0  0  0  0  0  0  0  0
   -0.2520   -0.1590   -2.9300 C   0  0  0  0  0  0  0  0  0  0  0  0
    0.0800    1.0330   -3.7580 C   0  0  0  0  0  0  0  0  0  0  0  0
   -0.8750    1.7410   -4.1700 O   0  0  0  0  0  0  0  0  0  0  0  0
    1.9460   -2.9490   -1.5700 C   0  0  0  0  0  0  0  0  0  0  0  0
    2.2760   -3.1840   -0.3830 O   0  0  0  0  0  0  0  0  0  0  0  0
    1.3910    1.3310   -4.0490 O   0  0  0  0  0  0  0  0  0  0  0  0
    2.7020   -3.4360   -2.6170 O   0  0  0  0  0  0  0  0  0  0  0  0
    0.7100   -1.1400    0.0930 H   0  0  0  0  0  0  0  0  0  0  0  0
    0.0050   -2.7790   -2.3460 H   0  0  0  0  0  0  0  0  0  0  0  0
    1.3650   -1.2700   -3.6670 H   0  0  0  0  0  0  0  0  0  0  0  0
    1.7970   -0.2670   -2.2620 H   0  0  0  0  0  0  0  0  0  0  0  0
   -0.9550   -0.7910   -3.5050 H   0  0  0  0  0  0  0  0  0  0  0  0
   -0.7530    0.1360   -1.9700 H   0  0  0  0  0  0  0  0  0  0  0  0
    1.6550    2.3050   -4.1290 H   0  0  0  0  0  0  0  0  0  0  0  0
  1 16  1  0  0  0  0
  2  1  1  0  0  0  0
  2 17  1  1  0  0  0
  3  2  1  0  0  0  0
  3 19  1  0  0  0  0
  4  5  2  0  0  0  0
  4  3  1  0  0  0  0
  5 20  1  0  0  0  0
  6  5  1  0  0  0  0
  7 12  1  0  0  0  0
  7  6  1  0  0  0  0
  8  7  2  0  0  0  0
  9 10  2  0  0  0  0
  9  8  1  0  0  0  0
 10 11  1  0  0  0  0
 11 25  1  0  0  0  0
 11 12  2  0  0  0  0
 12  4  1  0  0  0  0
 13 14  2  0  0  0  0
 13  2  1  0  0  0  0
 15  1  1  0  0  0  0
 18  3  1  0  0  0  0
 21  6  1  0  0  0  0
 22  8  1  0  0  0  0
 23  9  1  0  0  0  0
 24 10  1  0  0  0  0
 26 13  1  0  0  0  0
 27 36  1  1  0  0  0
 27 26  1  0  0  0  0
 28 27  1  0  0  0  0
 28 38  1  0  0  0  0
 29 40  1  0  0  0  0
 29 28  1  0  0  0  0
 30 29  1  0  0  0  0
 30 42  1  0  0  0  0
 31 30  1  0  0  0  0
 31 32  1  0  0  0  0
 32 45  1  0  0  0  0
 33 27  1  0  0  0  0
 34 33  2  0  0  0  0
 35 26  1  0  0  0  0
 37 28  1  0  0  0  0
 39 29  1  0  0  0  0
 41 30  1  0  0  0  0
 43 31  1  0  0  0  0
 44 31  1  0  0  0  0
 46 32  1  0  0  0  0
 47 33  1  0  0  0  0
 47 57  1  0  0  0  0
 48 58  1  6  0  0  0
 48 53  1  0  0  0  0
 48 47  1  0  0  0  0
 49 60  1  0  0  0  0
 49 48  1  0  0  0  0
 50 49  1  0  0  0  0
 50 62  1  0  0  0  0
 51 50  1  0  0  0  0
 52 51  2  0  0  0  0
 53 54  1  0  0  0  0
 55 51  1  0  0  0  0
 56 53  2  0  0  0  0
 59 49  1  0  0  0  0
 61 50  1  0  0  0  0
 63 55  1  0  0  0  0
M  END
$$$$
