WKF.pdb
 OpenBabel07022419173D

 67 69  0  0  1  0  0  0  0  0999 V2000
    1.5080   -0.1160    3.9430 N   0  0  0  0  0  0  0  0  0  0  0  0
    1.7950    0.8090    2.8410 C   0  0  1  0  0  0  0  0  0  0  0  0
    3.2810    0.9330    2.7090 C   0  0  0  0  0  0  0  0  0  0  0  0
    3.7060    1.8220    1.6180 C   0  0  0  0  0  0  0  0  0  0  0  0
    4.0000    3.1800    1.7600 C   0  0  0  0  0  0  0  0  0  0  0  0
    4.3250    3.7160    0.5820 N   0  0  0  0  0  0  0  0  0  0  0  0
    4.2560    2.7380   -0.3560 C   0  0  0  0  0  0  0  0  0  0  0  0
    4.4970    2.7220   -1.7100 C   0  0  0  0  0  0  0  0  0  0  0  0
    4.3690    1.5750   -2.4450 C   0  0  0  0  0  0  0  0  0  0  0  0
    3.9940    0.4200   -1.8190 C   0  0  0  0  0  0  0  0  0  0  0  0
    3.7440    0.3930   -0.4740 C   0  0  0  0  0  0  0  0  0  0  0  0
    3.8720    1.5570    0.2800 C   0  0  0  0  0  0  0  0  0  0  0  0
    1.0280    0.5090    1.6520 C   0  0  0  0  0  0  0  0  0  0  0  0
    1.0050    1.3360    0.6760 O   0  0  0  0  0  0  0  0  0  0  0  0
    1.8430    0.2520    4.8550 H   0  0  0  0  0  0  0  0  0  0  0  0
    1.8970   -1.0670    3.7260 H   0  0  0  0  0  0  0  0  0  0  0  0
    1.4510    1.8130    3.2520 H   0  0  0  0  0  0  0  0  0  0  0  0
    3.7480    1.3060    3.6560 H   0  0  0  0  0  0  0  0  0  0  0  0
    3.7490   -0.0650    2.4950 H   0  0  0  0  0  0  0  0  0  0  0  0
    3.9600    3.7020    2.7170 H   0  0  0  0  0  0  0  0  0  0  0  0
    4.5910    4.7180    0.3900 H   0  0  0  0  0  0  0  0  0  0  0  0
    4.7970    3.6650   -2.1890 H   0  0  0  0  0  0  0  0  0  0  0  0
    4.5660    1.5940   -3.5160 H   0  0  0  0  0  0  0  0  0  0  0  0
    3.8800   -0.5180   -2.3690 H   0  0  0  0  0  0  0  0  0  0  0  0
    3.4470   -0.5080    0.0390 H   0  0  0  0  0  0  0  0  0  0  0  0
    0.2620   -0.6680    1.4510 N   0  0  0  0  0  0  0  0  0  0  0  0
   -0.5050   -0.9290    0.2150 C   0  0  1  0  0  0  0  0  0  0  0  0
   -0.0060   -2.2140   -0.2980 C   0  0  0  0  0  0  0  0  0  0  0  0
   -0.5230   -2.8000   -1.5260 C   0  0  0  0  0  0  0  0  0  0  0  0
   -0.3700   -2.0270   -2.7840 C   0  0  0  0  0  0  0  0  0  0  0  0
    1.0750   -1.7390   -3.1360 C   0  0  0  0  0  0  0  0  0  0  0  0
    1.1380   -0.9810   -4.3730 N   0  0  0  0  0  0  0  0  0  0  0  0
   -1.9510   -0.8630    0.5460 C   0  0  0  0  0  0  0  0  0  0  0  0
   -2.2390   -0.6770    1.7800 O   0  0  0  0  0  0  0  0  0  0  0  0
    0.2310   -1.3850    2.1960 H   0  0  0  0  0  0  0  0  0  0  0  0
   -0.2700   -0.1060   -0.4680 H   0  0  0  0  0  0  0  0  0  0  0  0
   -0.1350   -2.9810    0.5300 H   0  0  0  0  0  0  0  0  0  0  0  0
    1.1150   -2.1260   -0.3660 H   0  0  0  0  0  0  0  0  0  0  0  0
   -1.5650   -3.1610   -1.4290 H   0  0  0  0  0  0  0  0  0  0  0  0
    0.0620   -3.7670   -1.6990 H   0  0  0  0  0  0  0  0  0  0  0  0
   -0.9130   -1.0940   -2.8750 H   0  0  0  0  0  0  0  0  0  0  0  0
   -0.7470   -2.6910   -3.6220 H   0  0  0  0  0  0  0  0  0  0  0  0
    1.6630   -2.6660   -3.3020 H   0  0  0  0  0  0  0  0  0  0  0  0
    1.5720   -1.2010   -2.3020 H   0  0  0  0  0  0  0  0  0  0  0  0
    0.4120   -0.2240   -4.3900 H   0  0  0  0  0  0  0  0  0  0  0  0
    2.0900   -0.6370   -4.5670 H   0  0  0  0  0  0  0  0  0  0  0  0
   -3.0170   -0.9810   -0.3500 N   0  0  0  0  0  0  0  0  0  0  0  0
   -4.4150   -0.9060   -0.0220 C   0  0  1  0  0  0  0  0  0  0  0  0
   -5.0510   -2.2000    0.3540 C   0  0  0  0  0  0  0  0  0  0  0  0
   -4.4120   -2.8230    1.5520 C   0  0  0  0  0  0  0  0  0  0  0  0
   -4.8290   -2.5580    2.8240 C   0  0  0  0  0  0  0  0  0  0  0  0
   -4.2200   -3.1440    3.9000 C   0  0  0  0  0  0  0  0  0  0  0  0
   -3.1660   -4.0140    3.6770 C   0  0  0  0  0  0  0  0  0  0  0  0
   -2.7210   -4.3020    2.4060 C   0  0  0  0  0  0  0  0  0  0  0  0
   -3.3650   -3.6890    1.3460 C   0  0  0  0  0  0  0  0  0  0  0  0
   -4.7750    0.2170    0.8830 C   0  0  0  0  0  0  0  0  0  0  0  0
   -5.9520    0.3100    1.3070 O   0  0  0  0  0  0  0  0  0  0  0  0
   -3.8660    1.1680    1.2770 O   0  0  0  0  0  0  0  0  0  0  0  0
   -2.7330   -1.1350   -1.3690 H   0  0  0  0  0  0  0  0  0  0  0  0
   -4.9480   -0.5840   -1.0000 H   0  0  0  0  0  0  0  0  0  0  0  0
   -5.0620   -2.9380   -0.4590 H   0  0  0  0  0  0  0  0  0  0  0  0
   -6.1060   -2.0090    0.6250 H   0  0  0  0  0  0  0  0  0  0  0  0
   -5.6570   -1.8720    2.9660 H   0  0  0  0  0  0  0  0  0  0  0  0
   -4.5200   -2.9610    4.9280 H   0  0  0  0  0  0  0  0  0  0  0  0
   -2.6890   -4.4740    4.5420 H   0  0  0  0  0  0  0  0  0  0  0  0
   -1.8870   -4.9930    2.2490 H   0  0  0  0  0  0  0  0  0  0  0  0
   -3.0070   -3.9210    0.3300 H   0  0  0  0  0  0  0  0  0  0  0  0
  1 15  1  0  0  0  0
  2 17  1  1  0  0  0
  2  1  1  0  0  0  0
  3  2  1  0  0  0  0
  3 18  1  0  0  0  0
  4  5  2  0  0  0  0
  4  3  1  0  0  0  0
  5 20  1  0  0  0  0
  6  5  1  0  0  0  0
  7 12  1  0  0  0  0
  7  6  1  0  0  0  0
  8  7  2  0  0  0  0
  9 10  2  0  0  0  0
  9  8  1  0  0  0  0
 10 11  1  0  0  0  0
 11 25  1  0  0  0  0
 11 12  2  0  0  0  0
 12  4  1  0  0  0  0
 13  2  1  0  0  0  0
 14 13  2  0  0  0  0
 16  1  1  0  0  0  0
 19  3  1  0  0  0  0
 21  6  1  0  0  0  0
 22  8  1  0  0  0  0
 23  9  1  0  0  0  0
 24 10  1  0  0  0  0
 26 13  1  0  0  0  0
 26 35  1  0  0  0  0
 27 36  1  6  0  0  0
 27 33  1  0  0  0  0
 27 26  1  0  0  0  0
 28 27  1  0  0  0  0
 28 37  1  0  0  0  0
 29 39  1  0  0  0  0
 29 28  1  0  0  0  0
 30 29  1  0  0  0  0
 31 30  1  0  0  0  0
 31 44  1  0  0  0  0
 32 31  1  0  0  0  0
 33 34  2  0  0  0  0
 38 28  1  0  0  0  0
 40 29  1  0  0  0  0
 41 30  1  0  0  0  0
 42 30  1  0  0  0  0
 43 31  1  0  0  0  0
 45 32  1  0  0  0  0
 46 32  1  0  0  0  0
 47 48  1  0  0  0  0
 47 33  1  0  0  0  0
 48 60  1  6  0  0  0
 48 49  1  0  0  0  0
 48 56  1  0  0  0  0
 49 62  1  0  0  0  0
 49 50  1  0  0  0  0
 50 51  1  0  0  0  0
 51 63  1  0  0  0  0
 51 52  2  0  0  0  0
 52 64  1  0  0  0  0
 53 52  1  0  0  0  0
 53 65  1  0  0  0  0
 54 53  2  0  0  0  0
 55 50  2  0  0  0  0
 55 54  1  0  0  0  0
 56 58  2  0  0  0  0
 56 57  1  0  0  0  0
 59 47  1  0  0  0  0
 61 49  1  0  0  0  0
 66 54  1  0  0  0  0
 67 55  1  0  0  0  0
M  END
$$$$
