WKH.pdb
 OpenBabel07022419173D

 64 66  0  0  1  0  0  0  0  0999 V2000
    2.6430   -2.0340    0.1540 N   0  0  0  0  0  0  0  0  0  0  0  0
    2.1630   -2.3180    1.4750 C   0  0  1  0  0  0  0  0  0  0  0  0
    2.7450   -1.3970    2.5000 C   0  0  0  0  0  0  0  0  0  0  0  0
    4.2050   -1.4140    2.6220 C   0  0  0  0  0  0  0  0  0  0  0  0
    4.9060   -2.1140    3.5870 C   0  0  0  0  0  0  0  0  0  0  0  0
    6.2400   -1.9110    3.3790 N   0  0  0  0  0  0  0  0  0  0  0  0
    6.3930   -1.1030    2.3110 C   0  0  0  0  0  0  0  0  0  0  0  0
    7.5440   -0.6140    1.7250 C   0  0  0  0  0  0  0  0  0  0  0  0
    7.4340    0.2190    0.6250 C   0  0  0  0  0  0  0  0  0  0  0  0
    6.1850    0.5510    0.1270 C   0  0  0  0  0  0  0  0  0  0  0  0
    5.0640    0.0410    0.7420 C   0  0  0  0  0  0  0  0  0  0  0  0
    5.1470   -0.7930    1.8410 C   0  0  0  0  0  0  0  0  0  0  0  0
    0.6630   -2.1370    1.4880 C   0  0  0  0  0  0  0  0  0  0  0  0
    0.0010   -2.4560    2.5180 O   0  0  0  0  0  0  0  0  0  0  0  0
    3.6570   -2.3640    0.1500 H   0  0  0  0  0  0  0  0  0  0  0  0
    2.1440   -2.6390   -0.5570 H   0  0  0  0  0  0  0  0  0  0  0  0
    2.3970   -3.3800    1.7200 H   0  0  0  0  0  0  0  0  0  0  0  0
    2.4050   -0.3590    2.1980 H   0  0  0  0  0  0  0  0  0  0  0  0
    2.2230   -1.5630    3.4690 H   0  0  0  0  0  0  0  0  0  0  0  0
    4.5220   -2.7330    4.3940 H   0  0  0  0  0  0  0  0  0  0  0  0
    7.0010   -2.3340    3.9760 H   0  0  0  0  0  0  0  0  0  0  0  0
    8.5370   -0.8590    2.0960 H   0  0  0  0  0  0  0  0  0  0  0  0
    8.2990    0.6420    0.1120 H   0  0  0  0  0  0  0  0  0  0  0  0
    6.0480    1.1960   -0.7270 H   0  0  0  0  0  0  0  0  0  0  0  0
    4.0940    0.3230    0.3300 H   0  0  0  0  0  0  0  0  0  0  0  0
    0.0070   -1.6150    0.3610 N   0  0  0  0  0  0  0  0  0  0  0  0
   -1.4270   -1.4050    0.2130 C   0  0  1  0  0  0  0  0  0  0  0  0
   -2.2760   -2.3150    1.0520 C   0  0  0  0  0  0  0  0  0  0  0  0
   -2.2100   -3.7700    0.8110 C   0  0  0  0  0  0  0  0  0  0  0  0
   -2.7140   -4.3690   -0.4360 C   0  0  0  0  0  0  0  0  0  0  0  0
   -2.1760   -4.0180   -1.7560 C   0  0  0  0  0  0  0  0  0  0  0  0
   -0.7630   -4.1970   -1.9340 N   0  0  0  0  0  0  0  0  0  0  0  0
   -1.8020    0.0040    0.2790 C   0  0  0  0  0  0  0  0  0  0  0  0
   -0.9740    0.9520    0.4690 O   0  0  0  0  0  0  0  0  0  0  0  0
    0.6430   -1.3460   -0.4570 H   0  0  0  0  0  0  0  0  0  0  0  0
   -1.6080   -1.7970   -0.8380 H   0  0  0  0  0  0  0  0  0  0  0  0
   -2.2200   -2.0490    2.1410 H   0  0  0  0  0  0  0  0  0  0  0  0
   -3.3520   -2.0060    0.7740 H   0  0  0  0  0  0  0  0  0  0  0  0
   -1.1330   -4.1660    0.9600 H   0  0  0  0  0  0  0  0  0  0  0  0
   -2.7750   -4.3040    1.6560 H   0  0  0  0  0  0  0  0  0  0  0  0
   -2.6800   -5.5150   -0.3590 H   0  0  0  0  0  0  0  0  0  0  0  0
   -3.8490   -4.1990   -0.4800 H   0  0  0  0  0  0  0  0  0  0  0  0
   -2.6030   -4.8460   -2.4840 H   0  0  0  0  0  0  0  0  0  0  0  0
   -2.5640   -3.1060   -2.1790 H   0  0  0  0  0  0  0  0  0  0  0  0
   -0.5340   -5.2030   -1.8580 H   0  0  0  0  0  0  0  0  0  0  0  0
   -0.4370   -3.7590   -2.8170 H   0  0  0  0  0  0  0  0  0  0  0  0
   -3.1520    0.4090    0.1270 N   0  0  0  0  0  0  0  0  0  0  0  0
   -3.5120    1.8700    0.1990 C   0  0  1  0  0  0  0  0  0  0  0  0
   -4.1700    2.1030   -1.1290 C   0  0  0  0  0  0  0  0  0  0  0  0
   -4.5800    3.4770   -1.4190 C   0  0  0  0  0  0  0  0  0  0  0  0
   -4.3860    4.6630   -0.7620 C   0  0  0  0  0  0  0  0  0  0  0  0
   -4.9260    5.6920   -1.4800 N   0  0  0  0  0  0  0  0  0  0  0  0
   -5.4460    5.1380   -2.5710 C   0  0  0  0  0  0  0  0  0  0  0  0
   -5.2550    3.8170   -2.5640 N   0  0  0  0  0  0  0  0  0  0  0  0
   -4.5370    1.9640    1.2980 C   0  0  0  0  0  0  0  0  0  0  0  0
   -4.8930    0.9180    1.9380 O   0  0  0  0  0  0  0  0  0  0  0  0
   -5.1360    3.1300    1.6730 O   0  0  0  0  0  0  0  0  0  0  0  0
   -3.9400   -0.2500   -0.0360 H   0  0  0  0  0  0  0  0  0  0  0  0
   -2.6360    2.4590    0.3870 H   0  0  0  0  0  0  0  0  0  0  0  0
   -5.0860    1.4620   -1.2090 H   0  0  0  0  0  0  0  0  0  0  0  0
   -3.4450    1.7370   -1.9170 H   0  0  0  0  0  0  0  0  0  0  0  0
   -3.8650    4.7890    0.1710 H   0  0  0  0  0  0  0  0  0  0  0  0
   -4.9000    6.6830   -1.1750 H   0  0  0  0  0  0  0  0  0  0  0  0
   -5.9570    5.7370   -3.3450 H   0  0  0  0  0  0  0  0  0  0  0  0
  1  2  1  0  0  0  0
  2 13  1  0  0  0  0
  2 17  1  1  0  0  0
  2  3  1  0  0  0  0
  3  4  1  0  0  0  0
  3 19  1  0  0  0  0
  4  5  2  0  0  0  0
  5 20  1  0  0  0  0
  6  5  1  0  0  0  0
  6 21  1  0  0  0  0
  7  6  1  0  0  0  0
  8 22  1  0  0  0  0
  8  7  2  0  0  0  0
  9  8  1  0  0  0  0
 10  9  2  0  0  0  0
 10 11  1  0  0  0  0
 11 12  2  0  0  0  0
 12  7  1  0  0  0  0
 12  4  1  0  0  0  0
 13 14  2  0  0  0  0
 15  1  1  0  0  0  0
 16  1  1  0  0  0  0
 18  3  1  0  0  0  0
 23  9  1  0  0  0  0
 24 10  1  0  0  0  0
 25 11  1  0  0  0  0
 26 13  1  0  0  0  0
 27 36  1  6  0  0  0
 27 33  1  0  0  0  0
 27 26  1  0  0  0  0
 27 28  1  0  0  0  0
 28 37  1  0  0  0  0
 29 39  1  0  0  0  0
 29 28  1  0  0  0  0
 29 40  1  0  0  0  0
 30 41  1  0  0  0  0
 30 29  1  0  0  0  0
 31 30  1  0  0  0  0
 32 45  1  0  0  0  0
 32 31  1  0  0  0  0
 33 34  2  0  0  0  0
 35 26  1  0  0  0  0
 38 28  1  0  0  0  0
 42 30  1  0  0  0  0
 43 31  1  0  0  0  0
 44 31  1  0  0  0  0
 46 32  1  0  0  0  0
 47 48  1  0  0  0  0
 47 33  1  0  0  0  0
 48 59  1  1  0  0  0
 48 55  1  0  0  0  0
 49 48  1  0  0  0  0
 50 49  1  0  0  0  0
 50 51  2  0  0  0  0
 51 62  1  0  0  0  0
 52 63  1  0  0  0  0
 52 51  1  0  0  0  0
 53 54  2  0  0  0  0
 53 52  1  0  0  0  0
 54 50  1  0  0  0  0
 55 57  2  0  0  0  0
 55 56  1  0  0  0  0
 58 47  1  0  0  0  0
 60 49  1  0  0  0  0
 61 49  1  0  0  0  0
 64 53  1  0  0  0  0
M  END
$$$$
