WKI.pdb
 OpenBabel07022419173D

 66 67  0  0  1  0  0  0  0  0999 V2000
    2.2710   -0.9180    0.6100 N   0  0  0  0  0  0  0  0  0  0  0  0
    2.1900   -0.6800    2.0120 C   0  0  1  0  0  0  0  0  0  0  0  0
    3.0710    0.4030    2.5440 C   0  0  0  0  0  0  0  0  0  0  0  0
    2.7580    1.6850    1.9020 C   0  0  0  0  0  0  0  0  0  0  0  0
    1.9630    2.7120    2.4090 C   0  0  0  0  0  0  0  0  0  0  0  0
    1.9030    3.7080    1.5230 N   0  0  0  0  0  0  0  0  0  0  0  0
    2.6250    3.4110    0.4260 C   0  0  0  0  0  0  0  0  0  0  0  0
    2.8570    4.1300   -0.7270 C   0  0  0  0  0  0  0  0  0  0  0  0
    3.6550    3.6040   -1.7200 C   0  0  0  0  0  0  0  0  0  0  0  0
    4.1850    2.3590   -1.4950 C   0  0  0  0  0  0  0  0  0  0  0  0
    3.9550    1.6340   -0.3390 C   0  0  0  0  0  0  0  0  0  0  0  0
    3.1630    2.1510    0.6510 C   0  0  0  0  0  0  0  0  0  0  0  0
    0.8060   -0.4420    2.4890 C   0  0  0  0  0  0  0  0  0  0  0  0
    0.5540   -0.0990    3.6700 O   0  0  0  0  0  0  0  0  0  0  0  0
    1.7470   -0.1770    0.0960 H   0  0  0  0  0  0  0  0  0  0  0  0
    1.9080   -1.8430    0.3100 H   0  0  0  0  0  0  0  0  0  0  0  0
    2.5810   -1.6470    2.5010 H   0  0  0  0  0  0  0  0  0  0  0  0
    4.1560    0.1910    2.3740 H   0  0  0  0  0  0  0  0  0  0  0  0
    2.9640    0.5210    3.6460 H   0  0  0  0  0  0  0  0  0  0  0  0
    1.4880    2.6500    3.3910 H   0  0  0  0  0  0  0  0  0  0  0  0
    1.3660    4.5900    1.6770 H   0  0  0  0  0  0  0  0  0  0  0  0
    2.4270    5.1110   -0.8820 H   0  0  0  0  0  0  0  0  0  0  0  0
    3.8600    4.1460   -2.6470 H   0  0  0  0  0  0  0  0  0  0  0  0
    4.8150    1.9210   -2.2560 H   0  0  0  0  0  0  0  0  0  0  0  0
    4.3920    0.6560   -0.1850 H   0  0  0  0  0  0  0  0  0  0  0  0
   -0.3380   -0.5980    1.5980 N   0  0  0  0  0  0  0  0  0  0  0  0
   -1.6580   -0.3660    2.0700 C   0  0  1  0  0  0  0  0  0  0  0  0
   -2.3610    0.7450    1.3950 C   0  0  0  0  0  0  0  0  0  0  0  0
   -2.6630    0.7120   -0.0370 C   0  0  0  0  0  0  0  0  0  0  0  0
   -1.5690    0.6030   -1.0350 C   0  0  0  0  0  0  0  0  0  0  0  0
   -0.5210    1.6820   -0.9570 C   0  0  0  0  0  0  0  0  0  0  0  0
    0.4480    1.3870   -2.0150 N   0  0  0  0  0  0  0  0  0  0  0  0
   -2.5040   -1.6090    1.9920 C   0  0  0  0  0  0  0  0  0  0  0  0
   -3.6860   -1.5400    2.3740 O   0  0  0  0  0  0  0  0  0  0  0  0
   -0.0620   -0.8970    0.6510 H   0  0  0  0  0  0  0  0  0  0  0  0
   -1.6420   -0.1460    3.1850 H   0  0  0  0  0  0  0  0  0  0  0  0
   -3.3120    0.9880    2.0000 H   0  0  0  0  0  0  0  0  0  0  0  0
   -1.7660    1.7190    1.5640 H   0  0  0  0  0  0  0  0  0  0  0  0
   -3.4100   -0.0870   -0.3190 H   0  0  0  0  0  0  0  0  0  0  0  0
   -3.2460    1.6740   -0.2660 H   0  0  0  0  0  0  0  0  0  0  0  0
   -1.2000   -0.4010   -1.1490 H   0  0  0  0  0  0  0  0  0  0  0  0
   -2.1110    0.7780   -2.0550 H   0  0  0  0  0  0  0  0  0  0  0  0
   -0.9700    2.6640   -1.2120 H   0  0  0  0  0  0  0  0  0  0  0  0
   -0.0650    1.7750    0.0290 H   0  0  0  0  0  0  0  0  0  0  0  0
    1.3470    1.8660   -1.7910 H   0  0  0  0  0  0  0  0  0  0  0  0
    0.6520    0.3540   -1.9930 H   0  0  0  0  0  0  0  0  0  0  0  0
   -1.1150   -5.5680   -1.7280 C   0  0  0  0  0  0  0  0  0  0  0  0
   -1.1530   -4.8950   -0.3750 C   0  0  0  0  0  0  0  0  0  0  0  0
   -2.5900   -4.5670   -0.0010 C   0  0  2  0  0  0  0  0  0  0  0  0
   -3.1420   -3.6480   -1.0440 C   0  0  0  0  0  0  0  0  0  0  0  0
   -2.6660   -3.9850    1.3960 C   0  0  2  0  0  0  0  0  0  0  0  0
   -1.8950   -2.7780    1.4870 N   0  0  0  0  0  0  0  0  0  0  0  0
   -2.0330   -4.9900    2.3160 C   0  0  0  0  0  0  0  0  0  0  0  0
   -2.4960   -6.1570    2.4480 O   0  0  0  0  0  0  0  0  0  0  0  0
   -0.9050   -4.6850    3.0720 O   0  0  0  0  0  0  0  0  0  0  0  0
   -1.9090   -5.1690   -2.4100 H   0  0  0  0  0  0  0  0  0  0  0  0
   -1.3460   -6.6630   -1.6330 H   0  0  0  0  0  0  0  0  0  0  0  0
   -0.1070   -5.4670   -2.2010 H   0  0  0  0  0  0  0  0  0  0  0  0
   -0.5430   -3.9640   -0.4560 H   0  0  0  0  0  0  0  0  0  0  0  0
   -0.7430   -5.6020    0.3740 H   0  0  0  0  0  0  0  0  0  0  0  0
   -3.1470   -5.5360   -0.0160 H   0  0  0  0  0  0  0  0  0  0  0  0
   -3.8420   -2.8950   -0.6300 H   0  0  0  0  0  0  0  0  0  0  0  0
   -3.7150   -4.2050   -1.8190 H   0  0  0  0  0  0  0  0  0  0  0  0
   -2.3460   -3.0550   -1.5710 H   0  0  0  0  0  0  0  0  0  0  0  0
   -3.7010   -3.8680    1.7400 H   0  0  0  0  0  0  0  0  0  0  0  0
   -0.9010   -2.7700    1.1830 H   0  0  0  0  0  0  0  0  0  0  0  0
  1  2  1  0  0  0  0
  2 13  1  0  0  0  0
  2 17  1  1  0  0  0
  2  3  1  0  0  0  0
  3 19  1  0  0  0  0
  4  5  2  0  0  0  0
  4  3  1  0  0  0  0
  5 20  1  0  0  0  0
  6 21  1  0  0  0  0
  6  5  1  0  0  0  0
  7 12  1  0  0  0  0
  7  6  1  0  0  0  0
  8  7  2  0  0  0  0
  9 10  2  0  0  0  0
  9  8  1  0  0  0  0
 10 11  1  0  0  0  0
 11 25  1  0  0  0  0
 11 12  2  0  0  0  0
 12  4  1  0  0  0  0
 13 14  2  0  0  0  0
 15  1  1  0  0  0  0
 16  1  1  0  0  0  0
 18  3  1  0  0  0  0
 22  8  1  0  0  0  0
 23  9  1  0  0  0  0
 24 10  1  0  0  0  0
 26 27  1  0  0  0  0
 26 13  1  0  0  0  0
 27 36  1  1  0  0  0
 28 38  1  0  0  0  0
 28 37  1  0  0  0  0
 28 27  1  0  0  0  0
 29 28  1  0  0  0  0
 30 31  1  0  0  0  0
 30 29  1  0  0  0  0
 31 44  1  0  0  0  0
 32 46  1  0  0  0  0
 32 45  1  0  0  0  0
 32 31  1  0  0  0  0
 33 27  1  0  0  0  0
 33 34  2  0  0  0  0
 35 26  1  0  0  0  0
 39 29  1  0  0  0  0
 40 29  1  0  0  0  0
 41 30  1  0  0  0  0
 42 30  1  0  0  0  0
 43 31  1  0  0  0  0
 47 57  1  0  0  0  0
 47 48  1  0  0  0  0
 48 49  1  0  0  0  0
 48 60  1  0  0  0  0
 49 61  1  6  0  0  0
 49 51  1  0  0  0  0
 50 62  1  0  0  0  0
 50 49  1  0  0  0  0
 51 52  1  0  0  0  0
 51 65  1  1  0  0  0
 51 53  1  0  0  0  0
 52 33  1  0  0  0  0
 53 54  2  0  0  0  0
 53 55  1  0  0  0  0
 56 47  1  0  0  0  0
 58 47  1  0  0  0  0
 59 48  1  0  0  0  0
 63 50  1  0  0  0  0
 64 50  1  0  0  0  0
 66 52  1  0  0  0  0
M  END
$$$$
