WKL.pdb
 OpenBabel07022419173D

 66 67  0  0  1  0  0  0  0  0999 V2000
    2.4720   -0.5730    0.8970 N   0  0  0  0  0  0  0  0  0  0  0  0
    2.2910   -0.1850    2.2710 C   0  0  1  0  0  0  0  0  0  0  0  0
    3.1490    0.9690    2.6830 C   0  0  0  0  0  0  0  0  0  0  0  0
    2.8780    2.1690    1.8650 C   0  0  0  0  0  0  0  0  0  0  0  0
    2.0540    3.2100    2.2440 C   0  0  0  0  0  0  0  0  0  0  0  0
    2.0180    4.1260    1.2520 N   0  0  0  0  0  0  0  0  0  0  0  0
    2.7890    3.7380    0.2210 C   0  0  0  0  0  0  0  0  0  0  0  0
    3.0750    4.3290   -0.9910 C   0  0  0  0  0  0  0  0  0  0  0  0
    3.9260    3.6970   -1.8690 C   0  0  0  0  0  0  0  0  0  0  0  0
    4.4660    2.4850   -1.5010 C   0  0  0  0  0  0  0  0  0  0  0  0
    4.1740    1.8930   -0.2780 C   0  0  0  0  0  0  0  0  0  0  0  0
    3.3290    2.5110    0.6020 C   0  0  0  0  0  0  0  0  0  0  0  0
    0.8740   -0.0150    2.6130 C   0  0  0  0  0  0  0  0  0  0  0  0
    0.4920    0.4230    3.7410 O   0  0  0  0  0  0  0  0  0  0  0  0
    2.0320    0.0320    0.1980 H   0  0  0  0  0  0  0  0  0  0  0  0
    3.3720   -1.0000    0.6690 H   0  0  0  0  0  0  0  0  0  0  0  0
    2.7300   -1.0740    2.8580 H   0  0  0  0  0  0  0  0  0  0  0  0
    4.2450    0.7440    2.5330 H   0  0  0  0  0  0  0  0  0  0  0  0
    3.0720    1.1990    3.7660 H   0  0  0  0  0  0  0  0  0  0  0  0
    1.5410    3.2410    3.1950 H   0  0  0  0  0  0  0  0  0  0  0  0
    1.4610    5.0080    1.3020 H   0  0  0  0  0  0  0  0  0  0  0  0
    2.6600    5.2790   -1.2950 H   0  0  0  0  0  0  0  0  0  0  0  0
    4.1710    4.1470   -2.8430 H   0  0  0  0  0  0  0  0  0  0  0  0
    5.1430    1.9710   -2.1850 H   0  0  0  0  0  0  0  0  0  0  0  0
    4.6060    0.9440    0.0060 H   0  0  0  0  0  0  0  0  0  0  0  0
   -0.1430   -0.3570    1.6390 N   0  0  0  0  0  0  0  0  0  0  0  0
   -1.5340   -0.1970    1.9680 C   0  0  1  0  0  0  0  0  0  0  0  0
   -2.2370    0.7880    1.1190 C   0  0  0  0  0  0  0  0  0  0  0  0
   -2.3680    0.5990   -0.3250 C   0  0  0  0  0  0  0  0  0  0  0  0
   -1.1850    0.5020   -1.1960 C   0  0  0  0  0  0  0  0  0  0  0  0
   -0.2540    1.6990   -1.1400 C   0  0  0  0  0  0  0  0  0  0  0  0
    0.8340    1.3820   -2.0790 N   0  0  0  0  0  0  0  0  0  0  0  0
   -2.2710   -1.4960    1.8610 C   0  0  0  0  0  0  0  0  0  0  0  0
   -3.4850   -1.5350    2.1120 O   0  0  0  0  0  0  0  0  0  0  0  0
    0.2380   -0.7180    0.7490 H   0  0  0  0  0  0  0  0  0  0  0  0
   -1.5770    0.1450    3.0350 H   0  0  0  0  0  0  0  0  0  0  0  0
   -3.2590    0.9430    1.6190 H   0  0  0  0  0  0  0  0  0  0  0  0
   -1.7450    1.7930    1.3540 H   0  0  0  0  0  0  0  0  0  0  0  0
   -3.0550   -0.2430   -0.6140 H   0  0  0  0  0  0  0  0  0  0  0  0
   -2.9530    1.5080   -0.7040 H   0  0  0  0  0  0  0  0  0  0  0  0
   -0.6730   -0.4650   -1.2760 H   0  0  0  0  0  0  0  0  0  0  0  0
   -1.6250    0.6020   -2.2710 H   0  0  0  0  0  0  0  0  0  0  0  0
   -0.7500    2.6010   -1.5520 H   0  0  0  0  0  0  0  0  0  0  0  0
    0.1150    1.9190   -0.1390 H   0  0  0  0  0  0  0  0  0  0  0  0
    1.6500    1.9150   -1.7210 H   0  0  0  0  0  0  0  0  0  0  0  0
    1.0510    0.3640   -1.9970 H   0  0  0  0  0  0  0  0  0  0  0  0
   -2.5470   -5.9880   -1.8670 C   0  0  0  0  0  0  0  0  0  0  0  0
   -2.7900   -5.7000   -0.3840 C   0  0  0  0  0  0  0  0  0  0  0  0
   -4.2520   -5.7310   -0.1050 C   0  0  0  0  0  0  0  0  0  0  0  0
   -2.1410   -4.3870   -0.0590 C   0  0  0  0  0  0  0  0  0  0  0  0
   -2.2920   -3.9610    1.3650 C   0  0  2  0  0  0  0  0  0  0  0  0
   -1.5960   -2.6680    1.4790 N   0  0  0  0  0  0  0  0  0  0  0  0
   -1.6980   -4.9220    2.3370 C   0  0  0  0  0  0  0  0  0  0  0  0
   -2.1070   -6.1010    2.4530 O   0  0  0  0  0  0  0  0  0  0  0  0
   -0.6410   -4.5580    3.1830 O   0  0  0  0  0  0  0  0  0  0  0  0
   -3.1110   -5.2640   -2.5090 H   0  0  0  0  0  0  0  0  0  0  0  0
   -2.8590   -7.0150   -2.1070 H   0  0  0  0  0  0  0  0  0  0  0  0
   -1.4550   -5.8780   -2.0980 H   0  0  0  0  0  0  0  0  0  0  0  0
   -2.2710   -6.5070    0.1610 H   0  0  0  0  0  0  0  0  0  0  0  0
   -4.6550   -6.6820   -0.5480 H   0  0  0  0  0  0  0  0  0  0  0  0
   -4.4210   -5.8170    0.9890 H   0  0  0  0  0  0  0  0  0  0  0  0
   -4.7990   -4.9130   -0.5710 H   0  0  0  0  0  0  0  0  0  0  0  0
   -2.6250   -3.5990   -0.6820 H   0  0  0  0  0  0  0  0  0  0  0  0
   -1.0680   -4.3580   -0.3100 H   0  0  0  0  0  0  0  0  0  0  0  0
   -3.3520   -3.8610    1.6140 H   0  0  0  0  0  0  0  0  0  0  0  0
   -0.5750   -2.5910    1.2770 H   0  0  0  0  0  0  0  0  0  0  0  0
  1  2  1  0  0  0  0
  2 13  1  0  0  0  0
  2  3  1  0  0  0  0
  2 17  1  1  0  0  0
  3 19  1  0  0  0  0
  4  5  2  0  0  0  0
  4  3  1  0  0  0  0
  5 20  1  0  0  0  0
  6 21  1  0  0  0  0
  6  5  1  0  0  0  0
  7 12  1  0  0  0  0
  7  6  1  0  0  0  0
  8  7  2  0  0  0  0
  9 10  2  0  0  0  0
  9  8  1  0  0  0  0
 10 11  1  0  0  0  0
 11 25  1  0  0  0  0
 11 12  2  0  0  0  0
 12  4  1  0  0  0  0
 13 14  2  0  0  0  0
 15  1  1  0  0  0  0
 16  1  1  0  0  0  0
 18  3  1  0  0  0  0
 22  8  1  0  0  0  0
 23  9  1  0  0  0  0
 24 10  1  0  0  0  0
 26 27  1  0  0  0  0
 26 13  1  0  0  0  0
 27 36  1  1  0  0  0
 28 38  1  0  0  0  0
 28 37  1  0  0  0  0
 28 27  1  0  0  0  0
 29 28  1  0  0  0  0
 30 31  1  0  0  0  0
 30 29  1  0  0  0  0
 31 44  1  0  0  0  0
 32 46  1  0  0  0  0
 32 45  1  0  0  0  0
 32 31  1  0  0  0  0
 33 27  1  0  0  0  0
 33 34  2  0  0  0  0
 35 26  1  0  0  0  0
 39 29  1  0  0  0  0
 40 29  1  0  0  0  0
 41 30  1  0  0  0  0
 42 30  1  0  0  0  0
 43 31  1  0  0  0  0
 47 48  1  0  0  0  0
 48 49  1  0  0  0  0
 48 50  1  0  0  0  0
 48 59  1  0  0  0  0
 49 61  1  0  0  0  0
 50 51  1  0  0  0  0
 51 52  1  0  0  0  0
 51 65  1  1  0  0  0
 51 53  1  0  0  0  0
 52 33  1  0  0  0  0
 53 54  2  0  0  0  0
 53 55  1  0  0  0  0
 56 47  1  0  0  0  0
 57 47  1  0  0  0  0
 58 47  1  0  0  0  0
 60 49  1  0  0  0  0
 62 49  1  0  0  0  0
 63 50  1  0  0  0  0
 64 50  1  0  0  0  0
 66 52  1  0  0  0  0
M  END
$$$$
