WKM.pdb
 OpenBabel07022419173D

 64 65  0  0  1  0  0  0  0  0999 V2000
    3.4330   -1.0930    1.4500 N   0  0  0  0  0  0  0  0  0  0  0  0
    2.7420   -0.7630    2.6450 C   0  0  1  0  0  0  0  0  0  0  0  0
    3.3270    0.3200    3.4860 C   0  0  0  0  0  0  0  0  0  0  0  0
    3.3990    1.5720    2.7270 C   0  0  0  0  0  0  0  0  0  0  0  0
    2.4970    2.6430    2.7770 C   0  0  0  0  0  0  0  0  0  0  0  0
    2.9060    3.5640    1.9260 N   0  0  0  0  0  0  0  0  0  0  0  0
    4.0320    3.1950    1.2940 C   0  0  0  0  0  0  0  0  0  0  0  0
    4.7860    3.8450    0.3490 C   0  0  0  0  0  0  0  0  0  0  0  0
    5.9130    3.2180   -0.1220 C   0  0  0  0  0  0  0  0  0  0  0  0
    6.2510    1.9590    0.3670 C   0  0  0  0  0  0  0  0  0  0  0  0
    5.4830    1.3320    1.3070 C   0  0  0  0  0  0  0  0  0  0  0  0
    4.3510    1.9490    1.7880 C   0  0  0  0  0  0  0  0  0  0  0  0
    1.2780   -0.5240    2.4170 C   0  0  0  0  0  0  0  0  0  0  0  0
    0.6030   -0.2140    3.4330 O   0  0  0  0  0  0  0  0  0  0  0  0
    3.3740   -2.1160    1.1980 H   0  0  0  0  0  0  0  0  0  0  0  0
    3.2920   -0.4740    0.6470 H   0  0  0  0  0  0  0  0  0  0  0  0
    2.7590   -1.6950    3.2880 H   0  0  0  0  0  0  0  0  0  0  0  0
    4.3410    0.0560    3.8730 H   0  0  0  0  0  0  0  0  0  0  0  0
    2.6560    0.4680    4.3580 H   0  0  0  0  0  0  0  0  0  0  0  0
    1.6400    2.6110    3.4430 H   0  0  0  0  0  0  0  0  0  0  0  0
    2.3980    4.4830    1.7670 H   0  0  0  0  0  0  0  0  0  0  0  0
    4.5430    4.8290   -0.0490 H   0  0  0  0  0  0  0  0  0  0  0  0
    6.5260    3.7080   -0.8680 H   0  0  0  0  0  0  0  0  0  0  0  0
    7.1470    1.4560   -0.0050 H   0  0  0  0  0  0  0  0  0  0  0  0
    5.7430    0.3520    1.7040 H   0  0  0  0  0  0  0  0  0  0  0  0
    0.6680   -0.6270    1.1820 N   0  0  0  0  0  0  0  0  0  0  0  0
   -0.8240   -0.3760    0.9840 C   0  0  1  0  0  0  0  0  0  0  0  0
   -0.8190    0.7790    0.0370 C   0  0  0  0  0  0  0  0  0  0  0  0
   -2.0080    1.4330   -0.4620 C   0  0  0  0  0  0  0  0  0  0  0  0
   -2.9920    0.7240   -1.3070 C   0  0  0  0  0  0  0  0  0  0  0  0
   -4.1350    1.6880   -1.7310 C   0  0  0  0  0  0  0  0  0  0  0  0
   -5.0290    0.8980   -2.5450 N   0  0  0  0  0  0  0  0  0  0  0  0
   -1.3290   -1.6460    0.4610 C   0  0  0  0  0  0  0  0  0  0  0  0
   -0.5160   -2.4090   -0.1350 O   0  0  0  0  0  0  0  0  0  0  0  0
    1.1710   -0.8760    0.3270 H   0  0  0  0  0  0  0  0  0  0  0  0
   -1.2520   -0.1060    1.9690 H   0  0  0  0  0  0  0  0  0  0  0  0
   -0.0320    1.5490    0.3870 H   0  0  0  0  0  0  0  0  0  0  0  0
   -0.2550    0.3700   -0.8920 H   0  0  0  0  0  0  0  0  0  0  0  0
   -1.6490    2.3290   -1.0890 H   0  0  0  0  0  0  0  0  0  0  0  0
   -2.5550    1.9780    0.3750 H   0  0  0  0  0  0  0  0  0  0  0  0
   -2.4790    0.3970   -2.2450 H   0  0  0  0  0  0  0  0  0  0  0  0
   -3.5440   -0.0950   -0.8310 H   0  0  0  0  0  0  0  0  0  0  0  0
   -4.6900    2.0100   -0.8290 H   0  0  0  0  0  0  0  0  0  0  0  0
   -3.7380    2.5720   -2.2300 H   0  0  0  0  0  0  0  0  0  0  0  0
   -5.4820    1.5510   -3.2200 H   0  0  0  0  0  0  0  0  0  0  0  0
   -4.4310    0.2600   -3.1250 H   0  0  0  0  0  0  0  0  0  0  0  0
   -1.9150   -5.6430   -2.1420 C   0  0  0  0  0  0  0  0  0  0  0  0
   -1.9890   -6.4390   -0.5650 S   0  0  0  0  0  0  0  0  0  0  0  0
   -3.1660   -5.8090    0.6170 C   0  0  0  0  0  0  0  0  0  0  0  0
   -2.9070   -4.4350    1.1350 C   0  0  0  0  0  0  0  0  0  0  0  0
   -2.9840   -3.4140    0.0110 C   0  0  2  0  0  0  0  0  0  0  0  0
   -2.6610   -2.0850    0.5890 N   0  0  0  0  0  0  0  0  0  0  0  0
   -4.3530   -3.3380   -0.4930 C   0  0  0  0  0  0  0  0  0  0  0  0
   -4.9200   -4.2760   -1.1390 O   0  0  0  0  0  0  0  0  0  0  0  0
   -5.0990   -2.1640   -0.2540 O   0  0  0  0  0  0  0  0  0  0  0  0
   -2.7900   -5.1030   -2.4920 H   0  0  0  0  0  0  0  0  0  0  0  0
   -1.7230   -6.4480   -2.9180 H   0  0  0  0  0  0  0  0  0  0  0  0
   -0.9810   -5.0210   -2.1830 H   0  0  0  0  0  0  0  0  0  0  0  0
   -3.2040   -6.5570    1.4810 H   0  0  0  0  0  0  0  0  0  0  0  0
   -4.1910   -5.9390    0.1610 H   0  0  0  0  0  0  0  0  0  0  0  0
   -3.6610   -4.2320    1.9230 H   0  0  0  0  0  0  0  0  0  0  0  0
   -1.9100   -4.4140    1.5920 H   0  0  0  0  0  0  0  0  0  0  0  0
   -2.2080   -3.6630   -0.6930 H   0  0  0  0  0  0  0  0  0  0  0  0
   -3.4060   -1.5120    1.0740 H   0  0  0  0  0  0  0  0  0  0  0  0
  1  2  1  0  0  0  0
  2 17  1  1  0  0  0
  2  3  1  0  0  0  0
  3 18  1  0  0  0  0
  3 19  1  0  0  0  0
  4  5  2  0  0  0  0
  4  3  1  0  0  0  0
  5 20  1  0  0  0  0
  6  5  1  0  0  0  0
  7 12  1  0  0  0  0
  7  6  1  0  0  0  0
  8  7  2  0  0  0  0
  9  8  1  0  0  0  0
  9 10  2  0  0  0  0
 10 11  1  0  0  0  0
 11 25  1  0  0  0  0
 11 12  2  0  0  0  0
 12  4  1  0  0  0  0
 13  2  1  0  0  0  0
 13 14  2  0  0  0  0
 15  1  1  0  0  0  0
 16  1  1  0  0  0  0
 21  6  1  0  0  0  0
 22  8  1  0  0  0  0
 23  9  1  0  0  0  0
 24 10  1  0  0  0  0
 26 13  1  0  0  0  0
 27 26  1  0  0  0  0
 27 36  1  1  0  0  0
 28 37  1  0  0  0  0
 28 27  1  0  0  0  0
 29 28  1  0  0  0  0
 29 40  1  0  0  0  0
 30 42  1  0  0  0  0
 30 29  1  0  0  0  0
 31 30  1  0  0  0  0
 31 43  1  0  0  0  0
 32 31  1  0  0  0  0
 33 52  1  0  0  0  0
 33 27  1  0  0  0  0
 34 33  2  0  0  0  0
 35 26  1  0  0  0  0
 38 28  1  0  0  0  0
 39 29  1  0  0  0  0
 41 30  1  0  0  0  0
 44 31  1  0  0  0  0
 45 32  1  0  0  0  0
 46 32  1  0  0  0  0
 47 48  1  0  0  0  0
 48 49  1  0  0  0  0
 49 50  1  0  0  0  0
 49 59  1  0  0  0  0
 50 62  1  0  0  0  0
 50 61  1  0  0  0  0
 51 63  1  6  0  0  0
 51 52  1  0  0  0  0
 51 50  1  0  0  0  0
 52 64  1  0  0  0  0
 53 55  1  0  0  0  0
 53 51  1  0  0  0  0
 54 53  2  0  0  0  0
 56 47  1  0  0  0  0
 57 47  1  0  0  0  0
 58 47  1  0  0  0  0
 60 49  1  0  0  0  0
M  END
$$$$
