WKQ.pdb
 OpenBabel07022419173D

 64 65  0  0  1  0  0  0  0  0999 V2000
    1.5100    0.1610    3.7040 N   0  0  0  0  0  0  0  0  0  0  0  0
    1.5440    1.4260    2.9850 C   0  0  1  0  0  0  0  0  0  0  0  0
    2.9850    1.7940    2.7620 C   0  0  0  0  0  0  0  0  0  0  0  0
    3.7570    0.7960    1.9980 C   0  0  0  0  0  0  0  0  0  0  0  0
    4.5870   -0.1990    2.5400 C   0  0  0  0  0  0  0  0  0  0  0  0
    5.0900   -0.9320    1.5470 N   0  0  0  0  0  0  0  0  0  0  0  0
    4.6280   -0.4640    0.3580 C   0  0  0  0  0  0  0  0  0  0  0  0
    4.8680   -0.8830   -0.9500 C   0  0  0  0  0  0  0  0  0  0  0  0
    4.2810   -0.2290   -2.0080 C   0  0  0  0  0  0  0  0  0  0  0  0
    3.4600    0.8390   -1.7130 C   0  0  0  0  0  0  0  0  0  0  0  0
    3.2130    1.2640   -0.4380 C   0  0  0  0  0  0  0  0  0  0  0  0
    3.8070    0.6010    0.6340 C   0  0  0  0  0  0  0  0  0  0  0  0
    0.6700    1.4880    1.8260 C   0  0  0  0  0  0  0  0  0  0  0  0
    0.4630    2.5960    1.2640 O   0  0  0  0  0  0  0  0  0  0  0  0
    2.3930   -0.0770    4.1650 H   0  0  0  0  0  0  0  0  0  0  0  0
    0.6500    0.0040    4.2350 H   0  0  0  0  0  0  0  0  0  0  0  0
    1.1660    2.1760    3.7520 H   0  0  0  0  0  0  0  0  0  0  0  0
    2.9910    2.7890    2.2620 H   0  0  0  0  0  0  0  0  0  0  0  0
    3.4910    1.9210    3.7400 H   0  0  0  0  0  0  0  0  0  0  0  0
    4.7500   -0.3000    3.6150 H   0  0  0  0  0  0  0  0  0  0  0  0
    5.7520   -1.7600    1.6370 H   0  0  0  0  0  0  0  0  0  0  0  0
    5.5220   -1.7260   -1.1090 H   0  0  0  0  0  0  0  0  0  0  0  0
    4.4670   -0.5550   -3.0260 H   0  0  0  0  0  0  0  0  0  0  0  0
    2.9810    1.3770   -2.5450 H   0  0  0  0  0  0  0  0  0  0  0  0
    2.5810    2.1020   -0.2540 H   0  0  0  0  0  0  0  0  0  0  0  0
    0.0100    0.3560    1.2590 N   0  0  0  0  0  0  0  0  0  0  0  0
   -0.8680    0.4640    0.0820 C   0  0  1  0  0  0  0  0  0  0  0  0
   -0.3080   -0.4980   -0.9310 C   0  0  0  0  0  0  0  0  0  0  0  0
   -1.0560   -0.5500   -2.2270 C   0  0  0  0  0  0  0  0  0  0  0  0
   -0.4040   -1.5410   -3.1640 C   0  0  0  0  0  0  0  0  0  0  0  0
   -1.1010   -1.6460   -4.4830 C   0  0  0  0  0  0  0  0  0  0  0  0
   -1.1660   -0.4450   -5.2280 N   0  0  0  0  0  0  0  0  0  0  0  0
   -2.2180    0.0720    0.5640 C   0  0  0  0  0  0  0  0  0  0  0  0
   -3.2240    0.0640   -0.2110 O   0  0  0  0  0  0  0  0  0  0  0  0
    0.1770   -0.5630    1.7210 H   0  0  0  0  0  0  0  0  0  0  0  0
   -0.9210    1.4980   -0.2650 H   0  0  0  0  0  0  0  0  0  0  0  0
   -0.4130   -1.5190   -0.4560 H   0  0  0  0  0  0  0  0  0  0  0  0
    0.7820   -0.3640   -1.0630 H   0  0  0  0  0  0  0  0  0  0  0  0
   -0.9530    0.4550   -2.7120 H   0  0  0  0  0  0  0  0  0  0  0  0
   -2.1190   -0.7290   -2.0850 H   0  0  0  0  0  0  0  0  0  0  0  0
   -0.4450   -2.5300   -2.6610 H   0  0  0  0  0  0  0  0  0  0  0  0
    0.6690   -1.2890   -3.2840 H   0  0  0  0  0  0  0  0  0  0  0  0
   -2.1190   -2.0670   -4.3700 H   0  0  0  0  0  0  0  0  0  0  0  0
   -0.5320   -2.3970   -5.0940 H   0  0  0  0  0  0  0  0  0  0  0  0
   -0.2770   -0.0380   -5.5240 H   0  0  0  0  0  0  0  0  0  0  0  0
   -1.9710   -0.3160   -5.8430 H   0  0  0  0  0  0  0  0  0  0  0  0
   -3.7890   -4.3970   -0.0720 N   0  0  0  0  0  0  0  0  0  0  0  0
   -4.1800   -3.3460    0.8340 C   0  0  0  0  0  0  0  0  0  0  0  0
   -5.1770   -2.6640    0.5040 O   0  0  0  0  0  0  0  0  0  0  0  0
   -3.3900   -3.1600    2.0530 C   0  0  0  0  0  0  0  0  0  0  0  0
   -3.8340   -2.0530    2.9390 C   0  0  0  0  0  0  0  0  0  0  0  0
   -3.8230   -0.6930    2.3390 C   0  0  2  0  0  0  0  0  0  0  0  0
   -2.4930   -0.3170    1.9050 N   0  0  0  0  0  0  0  0  0  0  0  0
   -4.3390    0.2590    3.3680 C   0  0  0  0  0  0  0  0  0  0  0  0
   -3.6530    1.2340    3.7570 O   0  0  0  0  0  0  0  0  0  0  0  0
   -5.5970    0.0900    3.9240 O   0  0  0  0  0  0  0  0  0  0  0  0
   -4.0350   -4.3850   -1.0860 H   0  0  0  0  0  0  0  0  0  0  0  0
   -3.2350   -5.2270    0.2580 H   0  0  0  0  0  0  0  0  0  0  0  0
   -2.3170   -3.0450    1.8150 H   0  0  0  0  0  0  0  0  0  0  0  0
   -3.4650   -4.1080    2.6580 H   0  0  0  0  0  0  0  0  0  0  0  0
   -4.8740   -2.2690    3.3090 H   0  0  0  0  0  0  0  0  0  0  0  0
   -3.1870   -2.0640    3.8430 H   0  0  0  0  0  0  0  0  0  0  0  0
   -4.5550   -0.6530    1.5070 H   0  0  0  0  0  0  0  0  0  0  0  0
   -1.6980   -0.3240    2.5770 H   0  0  0  0  0  0  0  0  0  0  0  0
  1 15  1  0  0  0  0
  1 16  1  0  0  0  0
  2  1  1  0  0  0  0
  2 17  1  1  0  0  0
  3  2  1  0  0  0  0
  3 19  1  0  0  0  0
  4  5  2  0  0  0  0
  4  3  1  0  0  0  0
  5 20  1  0  0  0  0
  6 21  1  0  0  0  0
  6  5  1  0  0  0  0
  7 12  1  0  0  0  0
  7  6  1  0  0  0  0
  8  7  2  0  0  0  0
  9 10  2  0  0  0  0
  9  8  1  0  0  0  0
 10 11  1  0  0  0  0
 11 25  1  0  0  0  0
 11 12  2  0  0  0  0
 12  4  1  0  0  0  0
 13  2  1  0  0  0  0
 14 13  2  0  0  0  0
 18  3  1  0  0  0  0
 22  8  1  0  0  0  0
 23  9  1  0  0  0  0
 24 10  1  0  0  0  0
 26 35  1  0  0  0  0
 26 13  1  0  0  0  0
 27 36  1  6  0  0  0
 27 33  1  0  0  0  0
 27 26  1  0  0  0  0
 28 37  1  0  0  0  0
 28 27  1  0  0  0  0
 29 40  1  0  0  0  0
 29 28  1  0  0  0  0
 30 41  1  0  0  0  0
 30 29  1  0  0  0  0
 31 43  1  0  0  0  0
 31 30  1  0  0  0  0
 32 31  1  0  0  0  0
 33 53  1  0  0  0  0
 34 33  2  0  0  0  0
 38 28  1  0  0  0  0
 39 29  1  0  0  0  0
 42 30  1  0  0  0  0
 44 31  1  0  0  0  0
 45 32  1  0  0  0  0
 46 32  1  0  0  0  0
 47 58  1  0  0  0  0
 47 48  1  0  0  0  0
 48 50  1  0  0  0  0
 49 48  2  0  0  0  0
 50 60  1  0  0  0  0
 50 51  1  0  0  0  0
 51 61  1  0  0  0  0
 51 62  1  0  0  0  0
 52 63  1  6  0  0  0
 52 51  1  0  0  0  0
 52 54  1  0  0  0  0
 53 52  1  0  0  0  0
 53 64  1  0  0  0  0
 54 55  2  0  0  0  0
 54 56  1  0  0  0  0
 57 47  1  0  0  0  0
 59 50  1  0  0  0  0
M  END
$$$$
