WKS.pdb
 OpenBabel07022419173D

 58 59  0  0  1  0  0  0  0  0999 V2000
    1.7240    2.7930    1.1250 N   0  0  0  0  0  0  0  0  0  0  0  0
    1.3970    1.6910    0.2150 C   0  0  1  0  0  0  0  0  0  0  0  0
    2.4990    0.7070    0.0440 C   0  0  0  0  0  0  0  0  0  0  0  0
    2.9910    0.0370    1.2400 C   0  0  0  0  0  0  0  0  0  0  0  0
    2.7010   -1.2350    1.6830 C   0  0  0  0  0  0  0  0  0  0  0  0
    3.3360   -1.4890    2.8330 N   0  0  0  0  0  0  0  0  0  0  0  0
    4.0510   -0.3860    3.1560 C   0  0  0  0  0  0  0  0  0  0  0  0
    4.8940   -0.1130    4.2390 C   0  0  0  0  0  0  0  0  0  0  0  0
    5.5530    1.0860    4.3900 C   0  0  0  0  0  0  0  0  0  0  0  0
    5.3460    2.0290    3.4100 C   0  0  0  0  0  0  0  0  0  0  0  0
    4.5160    1.7700    2.3370 C   0  0  0  0  0  0  0  0  0  0  0  0
    3.8570    0.5740    2.1870 C   0  0  0  0  0  0  0  0  0  0  0  0
    0.0610    1.1590    0.4980 C   0  0  0  0  0  0  0  0  0  0  0  0
   -0.5330    1.5730    1.5390 O   0  0  0  0  0  0  0  0  0  0  0  0
    1.4520    2.5960    2.1010 H   0  0  0  0  0  0  0  0  0  0  0  0
    1.3750    3.7090    0.7820 H   0  0  0  0  0  0  0  0  0  0  0  0
    1.3520    2.2340   -0.8080 H   0  0  0  0  0  0  0  0  0  0  0  0
    2.0940   -0.0850   -0.6640 H   0  0  0  0  0  0  0  0  0  0  0  0
    3.3430    1.1490   -0.5750 H   0  0  0  0  0  0  0  0  0  0  0  0
    2.0560   -1.9650    1.1860 H   0  0  0  0  0  0  0  0  0  0  0  0
    3.3320   -2.3550    3.4340 H   0  0  0  0  0  0  0  0  0  0  0  0
    5.0390   -0.8720    4.9940 H   0  0  0  0  0  0  0  0  0  0  0  0
    6.2010    1.2660    5.2440 H   0  0  0  0  0  0  0  0  0  0  0  0
    5.8480    3.0060    3.4770 H   0  0  0  0  0  0  0  0  0  0  0  0
    4.3700    2.5190    1.5520 H   0  0  0  0  0  0  0  0  0  0  0  0
   -0.6360    0.2310   -0.2890 N   0  0  0  0  0  0  0  0  0  0  0  0
   -2.0020   -0.2130    0.0740 C   0  0  1  0  0  0  0  0  0  0  0  0
   -2.8500    0.3840   -0.9670 C   0  0  0  0  0  0  0  0  0  0  0  0
   -4.2840    0.2860   -1.0620 C   0  0  0  0  0  0  0  0  0  0  0  0
   -5.0050   -0.9890   -1.2170 C   0  0  0  0  0  0  0  0  0  0  0  0
   -4.6410   -1.8270   -2.3880 C   0  0  0  0  0  0  0  0  0  0  0  0
   -4.8780   -1.1120   -3.6520 N   0  0  0  0  0  0  0  0  0  0  0  0
   -1.9740   -1.6250    0.3200 C   0  0  0  0  0  0  0  0  0  0  0  0
   -2.9060   -2.3820    0.6830 O   0  0  0  0  0  0  0  0  0  0  0  0
   -0.2170   -0.1580   -1.1410 H   0  0  0  0  0  0  0  0  0  0  0  0
   -2.2020    0.2870    1.0720 H   0  0  0  0  0  0  0  0  0  0  0  0
   -2.3910    0.1190   -1.9970 H   0  0  0  0  0  0  0  0  0  0  0  0
   -2.5450    1.4990   -0.9570 H   0  0  0  0  0  0  0  0  0  0  0  0
   -4.6040    0.9030   -1.9820 H   0  0  0  0  0  0  0  0  0  0  0  0
   -4.7880    0.9420   -0.2580 H   0  0  0  0  0  0  0  0  0  0  0  0
   -5.0830   -1.5360   -0.2790 H   0  0  0  0  0  0  0  0  0  0  0  0
   -6.1370   -0.7620   -1.4230 H   0  0  0  0  0  0  0  0  0  0  0  0
   -3.6590   -2.2930   -2.3690 H   0  0  0  0  0  0  0  0  0  0  0  0
   -5.3840   -2.6810   -2.4190 H   0  0  0  0  0  0  0  0  0  0  0  0
   -4.1460   -0.3930   -3.8200 H   0  0  0  0  0  0  0  0  0  0  0  0
   -5.8390   -0.7710   -3.7240 H   0  0  0  0  0  0  0  0  0  0  0  0
   -0.4720   -4.2760   -1.9080 O   0  0  0  0  0  0  0  0  0  0  0  0
    0.1610   -4.4920   -0.6700 C   0  0  0  0  0  0  0  0  0  0  0  0
   -0.6340   -3.7670    0.3640 C   0  0  2  0  0  0  0  0  0  0  0  0
   -0.7320   -2.3390    0.1440 N   0  0  0  0  0  0  0  0  0  0  0  0
   -0.1530   -4.0140    1.7580 C   0  0  0  0  0  0  0  0  0  0  0  0
    0.0740   -3.1140    2.5990 O   0  0  0  0  0  0  0  0  0  0  0  0
    0.0590   -5.3280    2.1630 O   0  0  0  0  0  0  0  0  0  0  0  0
    0.0110   -3.5850   -2.4340 H   0  0  0  0  0  0  0  0  0  0  0  0
    1.2090   -4.2020   -0.7110 H   0  0  0  0  0  0  0  0  0  0  0  0
    0.0060   -5.5910   -0.4730 H   0  0  0  0  0  0  0  0  0  0  0  0
   -1.7020   -4.1500    0.3880 H   0  0  0  0  0  0  0  0  0  0  0  0
    0.1370   -1.8590   -0.1520 H   0  0  0  0  0  0  0  0  0  0  0  0
  1 15  1  0  0  0  0
  2 17  1  6  0  0  0
  2 13  1  0  0  0  0
  2  1  1  0  0  0  0
  3  2  1  0  0  0  0
  3  4  1  0  0  0  0
  4  5  2  0  0  0  0
  4 12  1  0  0  0  0
  5  6  1  0  0  0  0
  6  7  1  0  0  0  0
  6 21  1  0  0  0  0
  7  8  1  0  0  0  0
  8  9  2  0  0  0  0
  8 22  1  0  0  0  0
  9 23  1  0  0  0  0
 10 24  1  0  0  0  0
 10  9  1  0  0  0  0
 11 10  2  0  0  0  0
 12 11  1  0  0  0  0
 12  7  2  0  0  0  0
 13 14  2  0  0  0  0
 16  1  1  0  0  0  0
 18  3  1  0  0  0  0
 19  3  1  0  0  0  0
 20  5  1  0  0  0  0
 25 11  1  0  0  0  0
 26 27  1  0  0  0  0
 26 13  1  0  0  0  0
 27 33  1  0  0  0  0
 27 36  1  1  0  0  0
 28 38  1  0  0  0  0
 28 27  1  0  0  0  0
 29 28  1  0  0  0  0
 29 40  1  0  0  0  0
 30 29  1  0  0  0  0
 30 41  1  0  0  0  0
 31 43  1  0  0  0  0
 31 30  1  0  0  0  0
 32 31  1  0  0  0  0
 33 34  2  0  0  0  0
 35 26  1  0  0  0  0
 37 28  1  0  0  0  0
 39 29  1  0  0  0  0
 42 30  1  0  0  0  0
 44 31  1  0  0  0  0
 45 32  1  0  0  0  0
 46 32  1  0  0  0  0
 47 48  1  0  0  0  0
 48 56  1  0  0  0  0
 48 49  1  0  0  0  0
 49 57  1  6  0  0  0
 49 51  1  0  0  0  0
 50 33  1  0  0  0  0
 50 49  1  0  0  0  0
 51 53  2  0  0  0  0
 51 52  1  0  0  0  0
 54 47  1  0  0  0  0
 55 48  1  0  0  0  0
 58 50  1  0  0  0  0
M  END
$$$$
