WKV.pdb
 OpenBabel07022419173D

 63 64  0  0  1  0  0  0  0  0999 V2000
    1.9100   -1.0250    3.3320 N   0  0  0  0  0  0  0  0  0  0  0  0
    1.4440    0.3570    3.1160 C   0  0  1  0  0  0  0  0  0  0  0  0
    2.6400    1.2160    2.8300 C   0  0  0  0  0  0  0  0  0  0  0  0
    2.3660    2.6230    2.5640 C   0  0  0  0  0  0  0  0  0  0  0  0
    2.3720    3.6510    3.4920 C   0  0  0  0  0  0  0  0  0  0  0  0
    2.0400    4.7810    2.8640 N   0  0  0  0  0  0  0  0  0  0  0  0
    1.8160    4.5440    1.5630 C   0  0  0  0  0  0  0  0  0  0  0  0
    1.4630    5.3640    0.4930 C   0  0  0  0  0  0  0  0  0  0  0  0
    1.3100    4.8550   -0.7770 C   0  0  0  0  0  0  0  0  0  0  0  0
    1.5160    3.5030   -0.9610 C   0  0  0  0  0  0  0  0  0  0  0  0
    1.8620    2.6710    0.0690 C   0  0  0  0  0  0  0  0  0  0  0  0
    2.0110    3.2050    1.3440 C   0  0  0  0  0  0  0  0  0  0  0  0
    0.4140    0.4240    2.0830 C   0  0  0  0  0  0  0  0  0  0  0  0
   -0.3290    1.4340    1.9000 O   0  0  0  0  0  0  0  0  0  0  0  0
    2.7350   -1.1590    2.6930 H   0  0  0  0  0  0  0  0  0  0  0  0
    2.3020   -1.1240    4.3000 H   0  0  0  0  0  0  0  0  0  0  0  0
    1.0540    0.6550    4.1290 H   0  0  0  0  0  0  0  0  0  0  0  0
    3.3670    1.1850    3.6810 H   0  0  0  0  0  0  0  0  0  0  0  0
    3.2280    0.7440    1.9810 H   0  0  0  0  0  0  0  0  0  0  0  0
    2.6090    3.5640    4.5650 H   0  0  0  0  0  0  0  0  0  0  0  0
    1.9640    5.7240    3.3180 H   0  0  0  0  0  0  0  0  0  0  0  0
    1.3150    6.4230    0.7070 H   0  0  0  0  0  0  0  0  0  0  0  0
    1.0340    5.5050   -1.6080 H   0  0  0  0  0  0  0  0  0  0  0  0
    1.3870    3.1290   -1.9800 H   0  0  0  0  0  0  0  0  0  0  0  0
    2.0130    1.6300   -0.1160 H   0  0  0  0  0  0  0  0  0  0  0  0
    0.1860   -0.6670    1.2100 N   0  0  0  0  0  0  0  0  0  0  0  0
   -0.8240   -0.6770    0.1560 C   0  0  1  0  0  0  0  0  0  0  0  0
   -0.1040   -0.7480   -1.1620 C   0  0  0  0  0  0  0  0  0  0  0  0
   -1.0320   -0.7580   -2.3460 C   0  0  0  0  0  0  0  0  0  0  0  0
   -0.2240   -0.7990   -3.6530 C   0  0  0  0  0  0  0  0  0  0  0  0
   -1.2020   -0.8090   -4.7960 C   0  0  0  0  0  0  0  0  0  0  0  0
   -0.4640   -0.8470   -6.0600 N   0  0  0  0  0  0  0  0  0  0  0  0
   -1.7640   -1.7840    0.3200 C   0  0  0  0  0  0  0  0  0  0  0  0
   -2.7550   -1.9790   -0.4200 O   0  0  0  0  0  0  0  0  0  0  0  0
    0.7640   -1.5150    1.3160 H   0  0  0  0  0  0  0  0  0  0  0  0
   -1.3140    0.3260    0.2060 H   0  0  0  0  0  0  0  0  0  0  0  0
    0.5470   -1.6750   -1.1850 H   0  0  0  0  0  0  0  0  0  0  0  0
    0.5560    0.1520   -1.3100 H   0  0  0  0  0  0  0  0  0  0  0  0
   -1.7220   -1.6270   -2.3780 H   0  0  0  0  0  0  0  0  0  0  0  0
   -1.6510    0.1540   -2.3940 H   0  0  0  0  0  0  0  0  0  0  0  0
    0.3510   -1.7390   -3.6350 H   0  0  0  0  0  0  0  0  0  0  0  0
    0.3930    0.1120   -3.7440 H   0  0  0  0  0  0  0  0  0  0  0  0
   -1.8820    0.0530   -4.7320 H   0  0  0  0  0  0  0  0  0  0  0  0
   -1.8120   -1.7560   -4.7920 H   0  0  0  0  0  0  0  0  0  0  0  0
   -0.2660    0.1160   -6.3570 H   0  0  0  0  0  0  0  0  0  0  0  0
    0.4350   -1.3550   -5.9490 H   0  0  0  0  0  0  0  0  0  0  0  0
   -1.1760   -5.4490    0.1540 C   0  0  0  0  0  0  0  0  0  0  0  0
   -1.8540   -5.2130    1.4970 C   0  0  0  0  0  0  0  0  0  0  0  0
   -2.9140   -6.2860    1.6380 C   0  0  0  0  0  0  0  0  0  0  0  0
   -2.5320   -3.8640    1.5600 C   0  0  2  0  0  0  0  0  0  0  0  0
   -1.6290   -2.7690    1.3710 N   0  0  0  0  0  0  0  0  0  0  0  0
   -3.1660   -3.7380    2.8830 C   0  0  0  0  0  0  0  0  0  0  0  0
   -3.9950   -4.5900    3.2560 O   0  0  0  0  0  0  0  0  0  0  0  0
   -2.8550   -2.6900    3.7150 O   0  0  0  0  0  0  0  0  0  0  0  0
   -1.7070   -4.9690   -0.6700 H   0  0  0  0  0  0  0  0  0  0  0  0
   -1.1400   -6.5450   -0.0820 H   0  0  0  0  0  0  0  0  0  0  0  0
   -0.1190   -5.1130    0.1560 H   0  0  0  0  0  0  0  0  0  0  0  0
   -1.1390   -5.3550    2.3320 H   0  0  0  0  0  0  0  0  0  0  0  0
   -2.9440   -6.7260    2.6420 H   0  0  0  0  0  0  0  0  0  0  0  0
   -2.7260   -7.1470    0.9360 H   0  0  0  0  0  0  0  0  0  0  0  0
   -3.9000   -5.8730    1.3060 H   0  0  0  0  0  0  0  0  0  0  0  0
   -3.3500   -3.8900    0.8120 H   0  0  0  0  0  0  0  0  0  0  0  0
   -0.8160   -2.6440    2.0100 H   0  0  0  0  0  0  0  0  0  0  0  0
  1 16  1  0  0  0  0
  2  1  1  0  0  0  0
  2 17  1  1  0  0  0
  3  2  1  0  0  0  0
  3 18  1  0  0  0  0
  4  3  1  0  0  0  0
  4  5  2  0  0  0  0
  5 20  1  0  0  0  0
  6 21  1  0  0  0  0
  6  5  1  0  0  0  0
  7  6  1  0  0  0  0
  8 22  1  0  0  0  0
  8  7  2  0  0  0  0
  9  8  1  0  0  0  0
 10  9  2  0  0  0  0
 10 11  1  0  0  0  0
 11 12  2  0  0  0  0
 12  7  1  0  0  0  0
 12  4  1  0  0  0  0
 13  2  1  0  0  0  0
 14 13  2  0  0  0  0
 15  1  1  0  0  0  0
 19  3  1  0  0  0  0
 23  9  1  0  0  0  0
 24 10  1  0  0  0  0
 25 11  1  0  0  0  0
 26 35  1  0  0  0  0
 26 13  1  0  0  0  0
 27 36  1  1  0  0  0
 27 33  1  0  0  0  0
 27 26  1  0  0  0  0
 28 27  1  0  0  0  0
 29 28  1  0  0  0  0
 30 41  1  0  0  0  0
 30 29  1  0  0  0  0
 31 44  1  0  0  0  0
 31 43  1  0  0  0  0
 31 30  1  0  0  0  0
 32 46  1  0  0  0  0
 32 31  1  0  0  0  0
 33 51  1  0  0  0  0
 34 33  2  0  0  0  0
 37 28  1  0  0  0  0
 38 28  1  0  0  0  0
 39 29  1  0  0  0  0
 40 29  1  0  0  0  0
 42 30  1  0  0  0  0
 45 32  1  0  0  0  0
 47 57  1  0  0  0  0
 47 48  1  0  0  0  0
 48 50  1  0  0  0  0
 48 49  1  0  0  0  0
 48 58  1  0  0  0  0
 49 59  1  0  0  0  0
 50 62  1  6  0  0  0
 50 52  1  0  0  0  0
 51 50  1  0  0  0  0
 51 63  1  0  0  0  0
 52 53  2  0  0  0  0
 52 54  1  0  0  0  0
 55 47  1  0  0  0  0
 56 47  1  0  0  0  0
 60 49  1  0  0  0  0
 61 49  1  0  0  0  0
M  END
$$$$
