WKW.pdb
 OpenBabel07022419173D

 71 74  0  0  1  0  0  0  0  0999 V2000
    5.0830   -2.1150    1.8830 N   0  0  0  0  0  0  0  0  0  0  0  0
    4.0800   -1.0400    2.0470 C   0  0  1  0  0  0  0  0  0  0  0  0
    4.5590    0.0710    1.1760 C   0  0  0  0  0  0  0  0  0  0  0  0
    3.7390    1.2880    1.1320 C   0  0  0  0  0  0  0  0  0  0  0  0
    3.9530    2.3880    1.9460 C   0  0  0  0  0  0  0  0  0  0  0  0
    3.0250    3.2980    1.6650 N   0  0  0  0  0  0  0  0  0  0  0  0
    2.2130    2.8420    0.7010 C   0  0  0  0  0  0  0  0  0  0  0  0
    1.1370    3.4100    0.0630 C   0  0  0  0  0  0  0  0  0  0  0  0
    0.5160    2.6800   -0.9240 C   0  0  0  0  0  0  0  0  0  0  0  0
    0.9090    1.4180   -1.3070 C   0  0  0  0  0  0  0  0  0  0  0  0
    1.9970    0.8500   -0.6570 C   0  0  0  0  0  0  0  0  0  0  0  0
    2.6310    1.5810    0.3410 C   0  0  0  0  0  0  0  0  0  0  0  0
    2.7860   -1.5970    1.7000 C   0  0  0  0  0  0  0  0  0  0  0  0
    2.7480   -2.6610    0.9910 O   0  0  0  0  0  0  0  0  0  0  0  0
    4.6010   -3.0460    1.9500 H   0  0  0  0  0  0  0  0  0  0  0  0
    5.8430   -2.0140    2.5940 H   0  0  0  0  0  0  0  0  0  0  0  0
    4.1180   -0.6860    3.1270 H   0  0  0  0  0  0  0  0  0  0  0  0
    4.7230   -0.2970    0.1230 H   0  0  0  0  0  0  0  0  0  0  0  0
    5.6010    0.3960    1.4980 H   0  0  0  0  0  0  0  0  0  0  0  0
    4.7560    2.4540    2.6780 H   0  0  0  0  0  0  0  0  0  0  0  0
    2.9880    4.2300    2.1660 H   0  0  0  0  0  0  0  0  0  0  0  0
    0.8070    4.3840    0.3370 H   0  0  0  0  0  0  0  0  0  0  0  0
   -0.3310    3.1780   -1.3980 H   0  0  0  0  0  0  0  0  0  0  0  0
    0.3880    0.9010   -2.0810 H   0  0  0  0  0  0  0  0  0  0  0  0
    2.3530   -0.1370   -0.9120 H   0  0  0  0  0  0  0  0  0  0  0  0
    1.5050   -1.0870    2.0790 N   0  0  0  0  0  0  0  0  0  0  0  0
    0.2820   -1.8180    1.6620 C   0  0  1  0  0  0  0  0  0  0  0  0
   -0.0880   -2.6390    2.8780 C   0  0  0  0  0  0  0  0  0  0  0  0
   -1.2660   -3.5150    2.7760 C   0  0  0  0  0  0  0  0  0  0  0  0
   -1.1260   -4.5830    1.6950 C   0  0  0  0  0  0  0  0  0  0  0  0
   -2.4090   -5.3920    1.7050 C   0  0  0  0  0  0  0  0  0  0  0  0
   -3.5090   -4.5030    1.4220 N   0  0  0  0  0  0  0  0  0  0  0  0
   -0.7190   -0.8590    1.2470 C   0  0  0  0  0  0  0  0  0  0  0  0
   -0.4560    0.3780    1.3780 O   0  0  0  0  0  0  0  0  0  0  0  0
    1.4740   -0.2170    2.6360 H   0  0  0  0  0  0  0  0  0  0  0  0
    0.5480   -2.5110    0.8620 H   0  0  0  0  0  0  0  0  0  0  0  0
    0.8090   -3.3000    3.0660 H   0  0  0  0  0  0  0  0  0  0  0  0
   -0.1000   -1.9440    3.7410 H   0  0  0  0  0  0  0  0  0  0  0  0
   -2.2470   -3.0590    2.6820 H   0  0  0  0  0  0  0  0  0  0  0  0
   -1.2620   -4.1440    3.7360 H   0  0  0  0  0  0  0  0  0  0  0  0
   -1.0150   -4.1160    0.7240 H   0  0  0  0  0  0  0  0  0  0  0  0
   -0.2640   -5.2560    1.9260 H   0  0  0  0  0  0  0  0  0  0  0  0
   -2.5360   -5.7270    2.7760 H   0  0  0  0  0  0  0  0  0  0  0  0
   -2.3590   -6.2560    1.0330 H   0  0  0  0  0  0  0  0  0  0  0  0
   -3.5480   -4.2480    0.4180 H   0  0  0  0  0  0  0  0  0  0  0  0
   -4.3910   -4.9520    1.7080 H   0  0  0  0  0  0  0  0  0  0  0  0
   -1.9890   -1.1530    0.6960 N   0  0  0  0  0  0  0  0  0  0  0  0
   -2.8750   -0.0690    0.3310 C   0  0  1  0  0  0  0  0  0  0  0  0
   -3.6890   -0.3490   -0.8760 C   0  0  0  0  0  0  0  0  0  0  0  0
   -2.9590   -0.6190   -2.1160 C   0  0  0  0  0  0  0  0  0  0  0  0
   -2.7400   -1.8640   -2.6580 C   0  0  0  0  0  0  0  0  0  0  0  0
   -2.0350   -1.6840   -3.7770 N   0  0  0  0  0  0  0  0  0  0  0  0
   -1.7950   -0.3730   -3.9720 C   0  0  0  0  0  0  0  0  0  0  0  0
   -1.1320    0.3220   -4.9540 C   0  0  0  0  0  0  0  0  0  0  0  0
   -1.0200    1.7140   -4.9380 C   0  0  0  0  0  0  0  0  0  0  0  0
   -1.5980    2.4050   -3.8970 C   0  0  0  0  0  0  0  0  0  0  0  0
   -2.2680    1.6980   -2.9050 C   0  0  0  0  0  0  0  0  0  0  0  0
   -2.3720    0.3260   -2.9310 C   0  0  0  0  0  0  0  0  0  0  0  0
   -3.8780    0.1080    1.4650 C   0  0  0  0  0  0  0  0  0  0  0  0
   -4.7700    0.9910    1.4050 O   0  0  0  0  0  0  0  0  0  0  0  0
   -3.8180   -0.7020    2.5740 O   0  0  0  0  0  0  0  0  0  0  0  0
   -2.2670   -2.1560    0.5490 H   0  0  0  0  0  0  0  0  0  0  0  0
   -2.3180    0.8530    0.2580 H   0  0  0  0  0  0  0  0  0  0  0  0
   -4.4570   -1.1530   -0.6840 H   0  0  0  0  0  0  0  0  0  0  0  0
   -4.3310    0.5660   -1.0500 H   0  0  0  0  0  0  0  0  0  0  0  0
   -3.0770   -2.7930   -2.2480 H   0  0  0  0  0  0  0  0  0  0  0  0
   -1.6790   -2.4090   -4.4620 H   0  0  0  0  0  0  0  0  0  0  0  0
   -0.6720   -0.1810   -5.7760 H   0  0  0  0  0  0  0  0  0  0  0  0
   -0.5090    2.2590   -5.6940 H   0  0  0  0  0  0  0  0  0  0  0  0
   -1.5350    3.4780   -3.8460 H   0  0  0  0  0  0  0  0  0  0  0  0
   -2.7090    2.2650   -2.1040 H   0  0  0  0  0  0  0  0  0  0  0  0
  1 15  1  0  0  0  0
  1  2  1  0  0  0  0
  1 16  1  0  0  0  0
  2 17  1  1  0  0  0
  3 19  1  0  0  0  0
  3  2  1  0  0  0  0
  4  3  1  0  0  0  0
  4  5  2  0  0  0  0
  5 20  1  0  0  0  0
  6  5  1  0  0  0  0
  6 21  1  0  0  0  0
  7  6  1  0  0  0  0
  8 22  1  0  0  0  0
  8  7  2  0  0  0  0
  9  8  1  0  0  0  0
 10  9  2  0  0  0  0
 10 11  1  0  0  0  0
 11 12  2  0  0  0  0
 12  7  1  0  0  0  0
 12  4  1  0  0  0  0
 13  2  1  0  0  0  0
 13 26  1  0  0  0  0
 14 13  2  0  0  0  0
 18  3  1  0  0  0  0
 23  9  1  0  0  0  0
 24 10  1  0  0  0  0
 25 11  1  0  0  0  0
 26 35  1  0  0  0  0
 27 36  1  6  0  0  0
 27 26  1  0  0  0  0
 27 28  1  0  0  0  0
 28 37  1  0  0  0  0
 28 38  1  0  0  0  0
 29 28  1  0  0  0  0
 29 40  1  0  0  0  0
 30 31  1  0  0  0  0
 30 42  1  0  0  0  0
 30 29  1  0  0  0  0
 31 43  1  0  0  0  0
 32 31  1  0  0  0  0
 32 46  1  0  0  0  0
 33 34  2  0  0  0  0
 33 27  1  0  0  0  0
 39 29  1  0  0  0  0
 41 30  1  0  0  0  0
 44 31  1  0  0  0  0
 45 32  1  0  0  0  0
 47 33  1  0  0  0  0
 48 63  1  6  0  0  0
 48 47  1  0  0  0  0
 48 59  1  0  0  0  0
 49 64  1  0  0  0  0
 49 48  1  0  0  0  0
 50 49  1  0  0  0  0
 51 66  1  0  0  0  0
 51 50  2  0  0  0  0
 52 51  1  0  0  0  0
 53 52  1  0  0  0  0
 53 58  1  0  0  0  0
 54 55  1  0  0  0  0
 54 53  2  0  0  0  0
 55 56  2  0  0  0  0
 56 70  1  0  0  0  0
 56 57  1  0  0  0  0
 57 71  1  0  0  0  0
 58 57  2  0  0  0  0
 58 50  1  0  0  0  0
 59 61  1  0  0  0  0
 60 59  2  0  0  0  0
 62 47  1  0  0  0  0
 65 49  1  0  0  0  0
 67 52  1  0  0  0  0
 68 54  1  0  0  0  0
 69 55  1  0  0  0  0
M  END
$$$$
