WKY.pdb
 OpenBabel07022419173D

 68 70  0  0  1  0  0  0  0  0999 V2000
    1.0470    0.8340    4.2360 N   0  0  0  0  0  0  0  0  0  0  0  0
    1.4630    1.7250    3.1290 C   0  0  1  0  0  0  0  0  0  0  0  0
    2.9540    1.6960    3.0790 C   0  0  0  0  0  0  0  0  0  0  0  0
    3.5540    2.5100    2.0380 C   0  0  0  0  0  0  0  0  0  0  0  0
    3.9250    3.8440    2.1270 C   0  0  0  0  0  0  0  0  0  0  0  0
    4.4030    4.2770    0.9530 N   0  0  0  0  0  0  0  0  0  0  0  0
    4.3620    3.2440    0.0610 C   0  0  0  0  0  0  0  0  0  0  0  0
    4.7630    3.1870   -1.2630 C   0  0  0  0  0  0  0  0  0  0  0  0
    4.6350    1.9950   -1.9300 C   0  0  0  0  0  0  0  0  0  0  0  0
    4.1150    0.8910   -1.2820 C   0  0  0  0  0  0  0  0  0  0  0  0
    3.7200    0.9550    0.0270 C   0  0  0  0  0  0  0  0  0  0  0  0
    3.8390    2.1470    0.7230 C   0  0  0  0  0  0  0  0  0  0  0  0
    0.8490    1.2520    1.8910 C   0  0  0  0  0  0  0  0  0  0  0  0
    0.9010    1.9380    0.8650 O   0  0  0  0  0  0  0  0  0  0  0  0
    1.5350   -0.0700    4.1910 H   0  0  0  0  0  0  0  0  0  0  0  0
    0.0260    0.7590    4.2740 H   0  0  0  0  0  0  0  0  0  0  0  0
    1.0730    2.7350    3.4240 H   0  0  0  0  0  0  0  0  0  0  0  0
    3.3090    2.0210    4.0960 H   0  0  0  0  0  0  0  0  0  0  0  0
    3.2980    0.6280    2.9420 H   0  0  0  0  0  0  0  0  0  0  0  0
    3.8190    4.4080    3.0490 H   0  0  0  0  0  0  0  0  0  0  0  0
    4.7590    5.2450    0.7230 H   0  0  0  0  0  0  0  0  0  0  0  0
    5.1610    4.0800   -1.7180 H   0  0  0  0  0  0  0  0  0  0  0  0
    4.9400    1.9330   -2.9550 H   0  0  0  0  0  0  0  0  0  0  0  0
    4.0500   -0.0190   -1.8800 H   0  0  0  0  0  0  0  0  0  0  0  0
    3.3150    0.1060    0.5440 H   0  0  0  0  0  0  0  0  0  0  0  0
    0.1880    0.0050    1.8630 N   0  0  0  0  0  0  0  0  0  0  0  0
   -0.4700   -0.5230    0.6260 C   0  0  1  0  0  0  0  0  0  0  0  0
    0.2010   -1.8280    0.3470 C   0  0  0  0  0  0  0  0  0  0  0  0
   -0.2200   -2.5880   -0.8460 C   0  0  0  0  0  0  0  0  0  0  0  0
   -0.0130   -1.8240   -2.1230 C   0  0  0  0  0  0  0  0  0  0  0  0
    1.4510   -1.4950   -2.3370 C   0  0  0  0  0  0  0  0  0  0  0  0
    1.6090   -0.7640   -3.6050 N   0  0  0  0  0  0  0  0  0  0  0  0
   -1.9160   -0.5530    0.8690 C   0  0  0  0  0  0  0  0  0  0  0  0
   -2.3530   -0.2250    2.0330 O   0  0  0  0  0  0  0  0  0  0  0  0
    0.1570   -0.5630    2.7290 H   0  0  0  0  0  0  0  0  0  0  0  0
   -0.2120    0.2000   -0.1680 H   0  0  0  0  0  0  0  0  0  0  0  0
    1.3040   -1.5760    0.2640 H   0  0  0  0  0  0  0  0  0  0  0  0
    0.2050   -2.4850    1.2820 H   0  0  0  0  0  0  0  0  0  0  0  0
    0.4510   -3.5230   -0.9060 H   0  0  0  0  0  0  0  0  0  0  0  0
   -1.2370   -2.9740   -0.7570 H   0  0  0  0  0  0  0  0  0  0  0  0
   -0.3820   -2.4240   -2.9740 H   0  0  0  0  0  0  0  0  0  0  0  0
   -0.5650   -0.8500   -2.0460 H   0  0  0  0  0  0  0  0  0  0  0  0
    1.8520   -0.8820   -1.5180 H   0  0  0  0  0  0  0  0  0  0  0  0
    2.0420   -2.4160   -2.4160 H   0  0  0  0  0  0  0  0  0  0  0  0
    2.5020   -0.2690   -3.6770 H   0  0  0  0  0  0  0  0  0  0  0  0
    1.5300   -1.4680   -4.3780 H   0  0  0  0  0  0  0  0  0  0  0  0
   -3.6620   -7.1420   -0.5650 O   0  0  0  0  0  0  0  0  0  0  0  0
   -3.9020   -5.8510   -0.1100 C   0  0  0  0  0  0  0  0  0  0  0  0
   -5.0950   -5.2350   -0.3880 C   0  0  0  0  0  0  0  0  0  0  0  0
   -5.3310   -3.9590    0.0630 C   0  0  0  0  0  0  0  0  0  0  0  0
   -4.3860   -3.2560    0.8050 C   0  0  0  0  0  0  0  0  0  0  0  0
   -4.6690   -1.8910    1.2950 C   0  0  0  0  0  0  0  0  0  0  0  0
   -4.3110   -0.8770    0.2860 C   0  0  2  0  0  0  0  0  0  0  0  0
   -2.9150   -0.9040   -0.0600 N   0  0  0  0  0  0  0  0  0  0  0  0
   -4.6600    0.5080    0.7110 C   0  0  0  0  0  0  0  0  0  0  0  0
   -5.8240    0.7480    1.0910 O   0  0  0  0  0  0  0  0  0  0  0  0
   -3.2030   -3.9140    1.0610 C   0  0  0  0  0  0  0  0  0  0  0  0
   -2.9420   -5.1840    0.6240 C   0  0  0  0  0  0  0  0  0  0  0  0
   -3.7330    1.5200    0.6890 O   0  0  0  0  0  0  0  0  0  0  0  0
   -3.6790   -7.9460    0.0670 H   0  0  0  0  0  0  0  0  0  0  0  0
   -5.8430   -5.7770   -0.9690 H   0  0  0  0  0  0  0  0  0  0  0  0
   -6.2880   -3.4680   -0.1620 H   0  0  0  0  0  0  0  0  0  0  0  0
   -4.0780   -1.7430    2.2320 H   0  0  0  0  0  0  0  0  0  0  0  0
   -5.7570   -1.8060    1.5990 H   0  0  0  0  0  0  0  0  0  0  0  0
   -4.9170   -1.0960   -0.6460 H   0  0  0  0  0  0  0  0  0  0  0  0
   -2.6430   -1.1860   -1.0490 H   0  0  0  0  0  0  0  0  0  0  0  0
   -2.4280   -3.4240    1.6330 H   0  0  0  0  0  0  0  0  0  0  0  0
   -2.0090   -5.6930    0.8290 H   0  0  0  0  0  0  0  0  0  0  0  0
  1 16  1  0  0  0  0
  2 17  1  1  0  0  0
  2  1  1  0  0  0  0
  3  2  1  0  0  0  0
  3 18  1  0  0  0  0
  4  5  2  0  0  0  0
  4  3  1  0  0  0  0
  5 20  1  0  0  0  0
  6  5  1  0  0  0  0
  7 12  1  0  0  0  0
  7  6  1  0  0  0  0
  8  7  2  0  0  0  0
  9 10  2  0  0  0  0
  9  8  1  0  0  0  0
 10 11  1  0  0  0  0
 11 25  1  0  0  0  0
 11 12  2  0  0  0  0
 12  4  1  0  0  0  0
 13  2  1  0  0  0  0
 14 13  2  0  0  0  0
 15  1  1  0  0  0  0
 19  3  1  0  0  0  0
 21  6  1  0  0  0  0
 22  8  1  0  0  0  0
 23  9  1  0  0  0  0
 24 10  1  0  0  0  0
 26 13  1  0  0  0  0
 26 35  1  0  0  0  0
 27 36  1  6  0  0  0
 27 33  1  0  0  0  0
 27 26  1  0  0  0  0
 28 27  1  0  0  0  0
 28 38  1  0  0  0  0
 29 40  1  0  0  0  0
 29 28  1  0  0  0  0
 30 42  1  0  0  0  0
 30 29  1  0  0  0  0
 31 30  1  0  0  0  0
 31 43  1  0  0  0  0
 32 31  1  0  0  0  0
 33 34  2  0  0  0  0
 37 28  1  0  0  0  0
 39 29  1  0  0  0  0
 41 30  1  0  0  0  0
 44 31  1  0  0  0  0
 45 32  1  0  0  0  0
 46 32  1  0  0  0  0
 47 48  1  0  0  0  0
 47 60  1  0  0  0  0
 48 58  1  0  0  0  0
 49 48  2  0  0  0  0
 49 50  1  0  0  0  0
 50 51  2  0  0  0  0
 51 57  1  0  0  0  0
 51 52  1  0  0  0  0
 52 64  1  0  0  0  0
 52 63  1  0  0  0  0
 53 65  1  6  0  0  0
 53 55  1  0  0  0  0
 53 52  1  0  0  0  0
 54 53  1  0  0  0  0
 54 33  1  0  0  0  0
 55 56  1  0  0  0  0
 57 67  1  0  0  0  0
 58 68  1  0  0  0  0
 58 57  2  0  0  0  0
 59 55  2  0  0  0  0
 61 49  1  0  0  0  0
 62 50  1  0  0  0  0
 66 54  1  0  0  0  0
M  END
$$$$
