WLA.pdb
 OpenBabel07022419173D

 55 56  0  0  1  0  0  0  0  0999 V2000
    2.2430    2.5590    1.0570 N   0  0  0  0  0  0  0  0  0  0  0  0
    0.9740    2.0740    0.6350 C   0  0  1  0  0  0  0  0  0  0  0  0
    0.8560    2.0190   -0.8630 C   0  0  0  0  0  0  0  0  0  0  0  0
    1.8500    1.1570   -1.5250 C   0  0  0  0  0  0  0  0  0  0  0  0
    1.7130   -0.1450   -1.9700 C   0  0  0  0  0  0  0  0  0  0  0  0
    2.8880   -0.5430   -2.4840 N   0  0  0  0  0  0  0  0  0  0  0  0
    3.7890    0.4480   -2.3930 C   0  0  0  0  0  0  0  0  0  0  0  0
    5.1160    0.4830   -2.7990 C   0  0  0  0  0  0  0  0  0  0  0  0
    5.8400    1.6390   -2.5990 C   0  0  0  0  0  0  0  0  0  0  0  0
    5.2440    2.7290   -2.0080 C   0  0  0  0  0  0  0  0  0  0  0  0
    3.9230    2.6550   -1.6180 C   0  0  0  0  0  0  0  0  0  0  0  0
    3.1510    1.5150   -1.7960 C   0  0  0  0  0  0  0  0  0  0  0  0
    0.6190    0.7810    1.2740 C   0  0  0  0  0  0  0  0  0  0  0  0
    1.4710    0.2670    2.0100 O   0  0  0  0  0  0  0  0  0  0  0  0
    2.3030    3.6010    1.0180 H   0  0  0  0  0  0  0  0  0  0  0  0
    2.4750    2.2500    2.0240 H   0  0  0  0  0  0  0  0  0  0  0  0
    0.1670    2.7950    0.9610 H   0  0  0  0  0  0  0  0  0  0  0  0
   -0.1700    1.7750   -1.1890 H   0  0  0  0  0  0  0  0  0  0  0  0
    1.0470    3.0610   -1.2280 H   0  0  0  0  0  0  0  0  0  0  0  0
    0.7980   -0.7230   -1.9040 H   0  0  0  0  0  0  0  0  0  0  0  0
    3.1080   -1.4930   -2.9080 H   0  0  0  0  0  0  0  0  0  0  0  0
    5.5860   -0.3830   -3.2670 H   0  0  0  0  0  0  0  0  0  0  0  0
    6.8810    1.6480   -2.9230 H   0  0  0  0  0  0  0  0  0  0  0  0
    5.8170    3.6530   -1.8470 H   0  0  0  0  0  0  0  0  0  0  0  0
    3.4910    3.5280   -1.1710 H   0  0  0  0  0  0  0  0  0  0  0  0
   -4.0480   -0.3160    3.8340 C   0  0  0  0  0  0  0  0  0  0  0  0
   -3.2620   -0.3480    2.5240 C   0  0  0  0  0  0  0  0  0  0  0  0
   -4.1310   -1.0720    1.5360 C   0  0  0  0  0  0  0  0  0  0  0  0
   -1.9670   -0.9710    2.8210 C   0  0  0  0  0  0  0  0  0  0  0  0
   -0.9930   -1.1260    1.6900 C   0  0  2  0  0  0  0  0  0  0  0  0
   -0.6260    0.1290    1.0790 N   0  0  0  0  0  0  0  0  0  0  0  0
   -1.2840   -2.2020    0.7420 C   0  0  0  0  0  0  0  0  0  0  0  0
   -1.2750   -2.0490   -0.5280 O   0  0  0  0  0  0  0  0  0  0  0  0
   -3.4430    0.2870    4.5620 H   0  0  0  0  0  0  0  0  0  0  0  0
   -4.3000   -1.3120    4.1990 H   0  0  0  0  0  0  0  0  0  0  0  0
   -4.9870    0.2560    3.6730 H   0  0  0  0  0  0  0  0  0  0  0  0
   -3.1660    0.7500    2.2620 H   0  0  0  0  0  0  0  0  0  0  0  0
   -5.1960   -0.6970    1.5750 H   0  0  0  0  0  0  0  0  0  0  0  0
   -4.2060   -2.1250    1.8750 H   0  0  0  0  0  0  0  0  0  0  0  0
   -3.8220   -0.9520    0.4870 H   0  0  0  0  0  0  0  0  0  0  0  0
   -2.1330   -1.9780    3.2570 H   0  0  0  0  0  0  0  0  0  0  0  0
   -1.4680   -0.3690    3.6080 H   0  0  0  0  0  0  0  0  0  0  0  0
   -0.0690   -1.4560    2.2300 H   0  0  0  0  0  0  0  0  0  0  0  0
   -1.2800    0.6570    0.4290 H   0  0  0  0  0  0  0  0  0  0  0  0
   -0.8140   -5.6580    0.2130 C   0  0  0  0  0  0  0  0  0  0  0  0
   -1.8950   -4.5980    0.2020 C   0  0  2  0  0  0  0  0  0  0  0  0
   -1.6080   -3.5340    1.1400 N   0  0  0  0  0  0  0  0  0  0  0  0
   -3.1780   -5.2330    0.5570 C   0  0  0  0  0  0  0  0  0  0  0  0
   -3.6640   -6.1890   -0.1070 O   0  0  0  0  0  0  0  0  0  0  0  0
   -3.9490   -4.8290    1.6510 O   0  0  0  0  0  0  0  0  0  0  0  0
   -0.3490   -5.7850   -0.8040 H   0  0  0  0  0  0  0  0  0  0  0  0
   -0.0480   -5.4770    0.9890 H   0  0  0  0  0  0  0  0  0  0  0  0
   -1.2850   -6.6330    0.4360 H   0  0  0  0  0  0  0  0  0  0  0  0
   -1.8910   -4.1450   -0.8180 H   0  0  0  0  0  0  0  0  0  0  0  0
   -1.6350   -3.7460    2.1800 H   0  0  0  0  0  0  0  0  0  0  0  0
  1 16  1  0  0  0  0
  2 17  1  1  0  0  0
  2  1  1  0  0  0  0
  2 13  1  0  0  0  0
  3  2  1  0  0  0  0
  4  3  1  0  0  0  0
  5 20  1  0  0  0  0
  5  4  2  0  0  0  0
  6  7  1  0  0  0  0
  6  5  1  0  0  0  0
  7 12  1  0  0  0  0
  8  9  1  0  0  0  0
  8  7  2  0  0  0  0
  9 10  2  0  0  0  0
 10 24  1  0  0  0  0
 10 11  1  0  0  0  0
 11 25  1  0  0  0  0
 12 11  2  0  0  0  0
 12  4  1  0  0  0  0
 13 14  2  0  0  0  0
 15  1  1  0  0  0  0
 18  3  1  0  0  0  0
 19  3  1  0  0  0  0
 21  6  1  0  0  0  0
 22  8  1  0  0  0  0
 23  9  1  0  0  0  0
 26 35  1  0  0  0  0
 26 34  1  0  0  0  0
 27 29  1  0  0  0  0
 27 26  1  0  0  0  0
 28 38  1  0  0  0  0
 28 39  1  0  0  0  0
 28 27  1  0  0  0  0
 29 41  1  0  0  0  0
 29 42  1  0  0  0  0
 30 43  1  1  0  0  0
 30 29  1  0  0  0  0
 31 13  1  0  0  0  0
 31 30  1  0  0  0  0
 32 47  1  0  0  0  0
 32 30  1  0  0  0  0
 33 32  2  0  0  0  0
 36 26  1  0  0  0  0
 37 27  1  0  0  0  0
 40 28  1  0  0  0  0
 44 31  1  0  0  0  0
 45 53  1  0  0  0  0
 45 52  1  0  0  0  0
 46 54  1  6  0  0  0
 46 45  1  0  0  0  0
 46 48  1  0  0  0  0
 46 47  1  0  0  0  0
 47 55  1  0  0  0  0
 48 50  1  0  0  0  0
 49 48  2  0  0  0  0
 51 45  1  0  0  0  0
M  END
$$$$
