WLC.pdb
 OpenBabel07022419173D

 56 57  0  0  1  0  0  0  0  0999 V2000
    1.2870   -0.8550    1.9460 N   0  0  0  0  0  0  0  0  0  0  0  0
    0.7530    0.0540    0.9720 C   0  0  1  0  0  0  0  0  0  0  0  0
    1.5390   -0.1980   -0.3210 C   0  0  0  0  0  0  0  0  0  0  0  0
    2.9900    0.0510   -0.1190 C   0  0  0  0  0  0  0  0  0  0  0  0
    3.9870   -0.9140    0.0280 C   0  0  0  0  0  0  0  0  0  0  0  0
    5.1620   -0.2990    0.1900 N   0  0  0  0  0  0  0  0  0  0  0  0
    5.0170    1.0460    0.1600 C   0  0  0  0  0  0  0  0  0  0  0  0
    5.9070    2.0920    0.2790 C   0  0  0  0  0  0  0  0  0  0  0  0
    5.4660    3.3960    0.2070 C   0  0  0  0  0  0  0  0  0  0  0  0
    4.1180    3.6210    0.0160 C   0  0  0  0  0  0  0  0  0  0  0  0
    3.2250    2.5630   -0.1030 C   0  0  0  0  0  0  0  0  0  0  0  0
    3.6580    1.2550   -0.0320 C   0  0  0  0  0  0  0  0  0  0  0  0
   -0.6770   -0.1920    0.6740 C   0  0  0  0  0  0  0  0  0  0  0  0
   -1.2430    0.5470   -0.1380 O   0  0  0  0  0  0  0  0  0  0  0  0
    0.6820   -0.8750    2.7970 H   0  0  0  0  0  0  0  0  0  0  0  0
    1.4780   -1.8040    1.5540 H   0  0  0  0  0  0  0  0  0  0  0  0
    0.9360    1.1030    1.2790 H   0  0  0  0  0  0  0  0  0  0  0  0
    1.4260   -1.2470   -0.6450 H   0  0  0  0  0  0  0  0  0  0  0  0
    1.1960    0.4770   -1.1290 H   0  0  0  0  0  0  0  0  0  0  0  0
    3.7690   -1.9750    0.0040 H   0  0  0  0  0  0  0  0  0  0  0  0
    6.0600   -0.8160    0.3190 H   0  0  0  0  0  0  0  0  0  0  0  0
    6.9650    1.9370    0.4290 H   0  0  0  0  0  0  0  0  0  0  0  0
    6.1570    4.2450    0.2990 H   0  0  0  0  0  0  0  0  0  0  0  0
    3.7370    4.6290   -0.0450 H   0  0  0  0  0  0  0  0  0  0  0  0
    2.1620    2.7090   -0.2540 H   0  0  0  0  0  0  0  0  0  0  0  0
   -2.7530    1.2340    2.5920 C   0  0  0  0  0  0  0  0  0  0  0  0
   -3.9310    0.5160    2.0650 C   0  0  0  0  0  0  0  0  0  0  0  0
   -4.4640   -0.3350    3.2370 C   0  0  0  0  0  0  0  0  0  0  0  0
   -3.7640   -0.3610    0.8770 C   0  0  0  0  0  0  0  0  0  0  0  0
   -2.7950   -1.4920    1.0220 C   0  0  2  0  0  0  0  0  0  0  0  0
   -1.4420   -1.2210    1.2580 N   0  0  0  0  0  0  0  0  0  0  0  0
   -2.9590   -2.5350   -0.0040 C   0  0  0  0  0  0  0  0  0  0  0  0
   -4.1340   -2.9030   -0.3210 O   0  0  0  0  0  0  0  0  0  0  0  0
   -1.9970    0.5910    3.0920 H   0  0  0  0  0  0  0  0  0  0  0  0
   -2.2750    1.9650    1.9210 H   0  0  0  0  0  0  0  0  0  0  0  0
   -3.1400    1.8800    3.4480 H   0  0  0  0  0  0  0  0  0  0  0  0
   -4.7390    1.2890    1.8910 H   0  0  0  0  0  0  0  0  0  0  0  0
   -4.9960   -1.1890    2.7860 H   0  0  0  0  0  0  0  0  0  0  0  0
   -3.5520   -0.7570    3.7220 H   0  0  0  0  0  0  0  0  0  0  0  0
   -5.0730    0.2700    3.9140 H   0  0  0  0  0  0  0  0  0  0  0  0
   -3.6400    0.2010   -0.0790 H   0  0  0  0  0  0  0  0  0  0  0  0
   -4.7700   -0.8670    0.7310 H   0  0  0  0  0  0  0  0  0  0  0  0
   -3.1770   -1.9710    2.0040 H   0  0  0  0  0  0  0  0  0  0  0  0
   -0.9140   -1.8400    1.9380 H   0  0  0  0  0  0  0  0  0  0  0  0
   -1.8870   -3.1670   -0.6730 N   0  0  0  0  0  0  0  0  0  0  0  0
   -2.0900   -4.1880   -1.6760 C   0  0  1  0  0  0  0  0  0  0  0  0
   -1.6790   -3.7080   -3.0530 C   0  0  0  0  0  0  0  0  0  0  0  0
    0.0840   -3.2510   -3.0790 S   0  0  0  0  0  0  0  0  0  0  0  0
   -1.4780   -5.4680   -1.3290 C   0  0  0  0  0  0  0  0  0  0  0  0
   -1.5690   -6.4400   -2.1060 O   0  0  0  0  0  0  0  0  0  0  0  0
   -0.7940   -5.6200   -0.1430 O   0  0  0  0  0  0  0  0  0  0  0  0
   -0.9180   -2.8480   -0.3950 H   0  0  0  0  0  0  0  0  0  0  0  0
   -3.2060   -4.3490   -1.7500 H   0  0  0  0  0  0  0  0  0  0  0  0
   -1.8060   -4.5220   -3.7940 H   0  0  0  0  0  0  0  0  0  0  0  0
   -2.3230   -2.8670   -3.3830 H   0  0  0  0  0  0  0  0  0  0  0  0
    0.4970   -2.8470   -4.3400 H   0  0  0  0  0  0  0  0  0  0  0  0
  1 15  1  0  0  0  0
  2 17  1  1  0  0  0
  2  1  1  0  0  0  0
  3  4  1  0  0  0  0
  3  2  1  0  0  0  0
  4 12  1  0  0  0  0
  4  5  2  0  0  0  0
  5  6  1  0  0  0  0
  6 21  1  0  0  0  0
  7  6  1  0  0  0  0
  7  8  1  0  0  0  0
  8 22  1  0  0  0  0
  9  8  2  0  0  0  0
  9 23  1  0  0  0  0
 10  9  1  0  0  0  0
 11 12  1  0  0  0  0
 11 10  2  0  0  0  0
 12  7  2  0  0  0  0
 13  2  1  0  0  0  0
 13 31  1  0  0  0  0
 14 13  2  0  0  0  0
 16  1  1  0  0  0  0
 18  3  1  0  0  0  0
 19  3  1  0  0  0  0
 20  5  1  0  0  0  0
 24 10  1  0  0  0  0
 25 11  1  0  0  0  0
 26 34  1  0  0  0  0
 26 36  1  0  0  0  0
 27 26  1  0  0  0  0
 27 28  1  0  0  0  0
 28 39  1  0  0  0  0
 28 40  1  0  0  0  0
 29 30  1  0  0  0  0
 29 27  1  0  0  0  0
 30 31  1  0  0  0  0
 30 43  1  1  0  0  0
 31 44  1  0  0  0  0
 32 30  1  0  0  0  0
 33 32  2  0  0  0  0
 35 26  1  0  0  0  0
 37 27  1  0  0  0  0
 38 28  1  0  0  0  0
 41 29  1  0  0  0  0
 42 29  1  0  0  0  0
 45 52  1  0  0  0  0
 45 32  1  0  0  0  0
 46 53  1  6  0  0  0
 46 49  1  0  0  0  0
 46 45  1  0  0  0  0
 47 46  1  0  0  0  0
 48 47  1  0  0  0  0
 49 51  1  0  0  0  0
 50 49  2  0  0  0  0
 54 47  1  0  0  0  0
 55 47  1  0  0  0  0
 56 48  1  0  0  0  0
M  END
$$$$
