WLI.pdb
 OpenBabel07022419173D

 64 65  0  0  1  0  0  0  0  0999 V2000
    1.7120    3.5150   -0.2000 N   0  0  0  0  0  0  0  0  0  0  0  0
    0.7190    2.5910   -0.6510 C   0  0  1  0  0  0  0  0  0  0  0  0
    1.2960    1.5150   -1.5830 C   0  0  0  0  0  0  0  0  0  0  0  0
    2.3470    0.7980   -0.7890 C   0  0  0  0  0  0  0  0  0  0  0  0
    2.1400   -0.3950   -0.0970 C   0  0  0  0  0  0  0  0  0  0  0  0
    3.2610   -0.7220    0.5220 N   0  0  0  0  0  0  0  0  0  0  0  0
    4.2220    0.1970    0.2800 C   0  0  0  0  0  0  0  0  0  0  0  0
    5.5370    0.3140    0.6790 C   0  0  0  0  0  0  0  0  0  0  0  0
    6.3000    1.3820    0.2630 C   0  0  0  0  0  0  0  0  0  0  0  0
    5.7090    2.3140   -0.5540 C   0  0  0  0  0  0  0  0  0  0  0  0
    4.4100    2.2230   -0.9630 C   0  0  0  0  0  0  0  0  0  0  0  0
    3.6450    1.1600   -0.5500 C   0  0  0  0  0  0  0  0  0  0  0  0
    0.0180    1.9160    0.4850 C   0  0  0  0  0  0  0  0  0  0  0  0
    0.4030    2.0240    1.6570 O   0  0  0  0  0  0  0  0  0  0  0  0
    1.8190    3.5840    0.8140 H   0  0  0  0  0  0  0  0  0  0  0  0
    1.7550    4.4070   -0.7180 H   0  0  0  0  0  0  0  0  0  0  0  0
   -0.0180    3.1710   -1.2440 H   0  0  0  0  0  0  0  0  0  0  0  0
    0.4950    0.8100   -1.8390 H   0  0  0  0  0  0  0  0  0  0  0  0
    1.8040    1.9590   -2.4420 H   0  0  0  0  0  0  0  0  0  0  0  0
    1.1970   -0.9050   -0.1130 H   0  0  0  0  0  0  0  0  0  0  0  0
    3.4240   -1.5610    1.1210 H   0  0  0  0  0  0  0  0  0  0  0  0
    5.9770   -0.4360    1.3240 H   0  0  0  0  0  0  0  0  0  0  0  0
    7.3350    1.4780    0.5730 H   0  0  0  0  0  0  0  0  0  0  0  0
    6.2880    3.1570   -0.8910 H   0  0  0  0  0  0  0  0  0  0  0  0
    3.9600    2.9620   -1.6210 H   0  0  0  0  0  0  0  0  0  0  0  0
   -3.7930    0.7840    3.7070 C   0  0  0  0  0  0  0  0  0  0  0  0
   -4.2200    0.6530    2.2570 C   0  0  0  0  0  0  0  0  0  0  0  0
   -4.9190   -0.6290    2.0360 C   0  0  0  0  0  0  0  0  0  0  0  0
   -3.2080    1.0940    1.2830 C   0  0  0  0  0  0  0  0  0  0  0  0
   -1.8640    0.4440    1.2760 C   0  0  2  0  0  0  0  0  0  0  0  0
   -1.1280    1.1310    0.1970 N   0  0  0  0  0  0  0  0  0  0  0  0
   -1.9060   -1.0000    0.9260 C   0  0  0  0  0  0  0  0  0  0  0  0
   -2.3690   -1.8320    1.7870 O   0  0  0  0  0  0  0  0  0  0  0  0
   -3.2590   -0.1470    4.0140 H   0  0  0  0  0  0  0  0  0  0  0  0
   -3.1610    1.6820    3.8340 H   0  0  0  0  0  0  0  0  0  0  0  0
   -4.6780    0.8910    4.3420 H   0  0  0  0  0  0  0  0  0  0  0  0
   -5.0550    1.4600    2.1750 H   0  0  0  0  0  0  0  0  0  0  0  0
   -4.8170   -1.0660    1.0220 H   0  0  0  0  0  0  0  0  0  0  0  0
   -4.7710   -1.3780    2.8630 H   0  0  0  0  0  0  0  0  0  0  0  0
   -6.0440   -0.4400    2.1070 H   0  0  0  0  0  0  0  0  0  0  0  0
   -3.0800    2.2130    1.4360 H   0  0  0  0  0  0  0  0  0  0  0  0
   -3.6620    1.0490    0.2490 H   0  0  0  0  0  0  0  0  0  0  0  0
   -1.2970    0.6310    2.2170 H   0  0  0  0  0  0  0  0  0  0  0  0
   -1.4770    1.0360   -0.7640 H   0  0  0  0  0  0  0  0  0  0  0  0
    1.0900   -4.1360    0.4340 C   0  0  0  0  0  0  0  0  0  0  0  0
   -0.1600   -3.9340    1.2650 C   0  0  0  0  0  0  0  0  0  0  0  0
   -1.4120   -3.9610    0.4470 C   0  0  2  0  0  0  0  0  0  0  0  0
   -1.4290   -5.3520   -0.2250 C   0  0  0  0  0  0  0  0  0  0  0  0
   -1.4990   -2.9480   -0.6480 C   0  0  2  0  0  0  0  0  0  0  0  0
   -1.4800   -1.5690   -0.2840 N   0  0  0  0  0  0  0  0  0  0  0  0
   -2.4870   -3.2460   -1.6990 C   0  0  0  0  0  0  0  0  0  0  0  0
   -2.6780   -4.3760   -2.1800 O   0  0  0  0  0  0  0  0  0  0  0  0
   -3.2870   -2.2200   -2.2240 O   0  0  0  0  0  0  0  0  0  0  0  0
    1.7290   -4.8920    0.9810 H   0  0  0  0  0  0  0  0  0  0  0  0
    1.6520   -3.1790    0.4410 H   0  0  0  0  0  0  0  0  0  0  0  0
    0.8730   -4.5110   -0.5640 H   0  0  0  0  0  0  0  0  0  0  0  0
   -0.2550   -4.8110    1.9790 H   0  0  0  0  0  0  0  0  0  0  0  0
   -0.0920   -3.0590    1.9140 H   0  0  0  0  0  0  0  0  0  0  0  0
   -2.2670   -3.9730    1.1530 H   0  0  0  0  0  0  0  0  0  0  0  0
   -0.8660   -6.0710    0.4240 H   0  0  0  0  0  0  0  0  0  0  0  0
   -2.4480   -5.7430   -0.3120 H   0  0  0  0  0  0  0  0  0  0  0  0
   -0.8660   -5.3270   -1.1760 H   0  0  0  0  0  0  0  0  0  0  0  0
   -0.4580   -3.1040   -1.1650 H   0  0  0  0  0  0  0  0  0  0  0  0
   -1.1020   -0.8650   -0.9980 H   0  0  0  0  0  0  0  0  0  0  0  0
  1 15  1  0  0  0  0
  2 17  1  6  0  0  0
  2  1  1  0  0  0  0
  2 13  1  0  0  0  0
  3  4  1  0  0  0  0
  3  2  1  0  0  0  0
  4 12  1  0  0  0  0
  4  5  2  0  0  0  0
  5  6  1  0  0  0  0
  6 21  1  0  0  0  0
  7  6  1  0  0  0  0
  7  8  1  0  0  0  0
  8 22  1  0  0  0  0
  9 23  1  0  0  0  0
  9  8  2  0  0  0  0
 10  9  1  0  0  0  0
 11 10  2  0  0  0  0
 11 12  1  0  0  0  0
 12  7  2  0  0  0  0
 13 14  2  0  0  0  0
 16  1  1  0  0  0  0
 18  3  1  0  0  0  0
 19  3  1  0  0  0  0
 20  5  1  0  0  0  0
 24 10  1  0  0  0  0
 25 11  1  0  0  0  0
 26 35  1  0  0  0  0
 26 34  1  0  0  0  0
 26 36  1  0  0  0  0
 27 26  1  0  0  0  0
 28 40  1  0  0  0  0
 28 27  1  0  0  0  0
 28 39  1  0  0  0  0
 29 41  1  0  0  0  0
 29 27  1  0  0  0  0
 30 29  1  0  0  0  0
 30 43  1  1  0  0  0
 31 13  1  0  0  0  0
 31 30  1  0  0  0  0
 32 30  1  0  0  0  0
 32 33  2  0  0  0  0
 37 27  1  0  0  0  0
 38 28  1  0  0  0  0
 42 29  1  0  0  0  0
 44 31  1  0  0  0  0
 45 55  1  0  0  0  0
 45 54  1  0  0  0  0
 45 46  1  0  0  0  0
 46 58  1  0  0  0  0
 46 57  1  0  0  0  0
 47 59  1  1  0  0  0
 47 46  1  0  0  0  0
 48 60  1  0  0  0  0
 48 47  1  0  0  0  0
 49 63  1  6  0  0  0
 49 50  1  0  0  0  0
 49 47  1  0  0  0  0
 50 32  1  0  0  0  0
 51 49  1  0  0  0  0
 52 51  1  0  0  0  0
 53 51  2  0  0  0  0
 56 45  1  0  0  0  0
 61 48  1  0  0  0  0
 62 48  1  0  0  0  0
 64 50  1  0  0  0  0
M  END
$$$$
