WLL.pdb
 OpenBabel07022419173D

 64 65  0  0  1  0  0  0  0  0999 V2000
    1.6390    1.9070    0.9920 N   0  0  0  0  0  0  0  0  0  0  0  0
    2.0380    0.5320    1.1050 C   0  0  1  0  0  0  0  0  0  0  0  0
    2.7590    0.3290    2.4210 C   0  0  0  0  0  0  0  0  0  0  0  0
    3.9580    1.1760    2.5080 C   0  0  0  0  0  0  0  0  0  0  0  0
    4.1460    2.3430    3.2250 C   0  0  0  0  0  0  0  0  0  0  0  0
    5.3950    2.7860    3.0170 N   0  0  0  0  0  0  0  0  0  0  0  0
    6.0700    1.9570    2.1780 C   0  0  0  0  0  0  0  0  0  0  0  0
    7.3460    1.9650    1.6620 C   0  0  0  0  0  0  0  0  0  0  0  0
    7.7460    0.9620    0.8160 C   0  0  0  0  0  0  0  0  0  0  0  0
    6.8320   -0.0440    0.5050 C   0  0  0  0  0  0  0  0  0  0  0  0
    5.5560   -0.0600    1.0150 C   0  0  0  0  0  0  0  0  0  0  0  0
    5.1640    0.9500    1.8620 C   0  0  0  0  0  0  0  0  0  0  0  0
    0.8690   -0.3930    1.1050 C   0  0  0  0  0  0  0  0  0  0  0  0
    1.0710   -1.6360    1.2050 O   0  0  0  0  0  0  0  0  0  0  0  0
    0.9920    2.1020    0.2180 H   0  0  0  0  0  0  0  0  0  0  0  0
    1.4520    2.3860    1.8760 H   0  0  0  0  0  0  0  0  0  0  0  0
    2.7120    0.3100    0.2580 H   0  0  0  0  0  0  0  0  0  0  0  0
    2.0550    0.6450    3.2170 H   0  0  0  0  0  0  0  0  0  0  0  0
    3.0840   -0.7330    2.5450 H   0  0  0  0  0  0  0  0  0  0  0  0
    3.3740    2.7980    3.8490 H   0  0  0  0  0  0  0  0  0  0  0  0
    5.8120    3.6420    3.4280 H   0  0  0  0  0  0  0  0  0  0  0  0
    8.0290    2.7520    1.9190 H   0  0  0  0  0  0  0  0  0  0  0  0
    8.7400    0.9140    0.3780 H   0  0  0  0  0  0  0  0  0  0  0  0
    7.1060   -0.8550   -0.1590 H   0  0  0  0  0  0  0  0  0  0  0  0
    4.8260   -0.8380    0.7830 H   0  0  0  0  0  0  0  0  0  0  0  0
   -3.9560   -0.8840    4.0680 C   0  0  0  0  0  0  0  0  0  0  0  0
   -3.4750   -1.3680    2.6680 C   0  0  0  0  0  0  0  0  0  0  0  0
   -4.6790   -1.1540    1.7900 C   0  0  0  0  0  0  0  0  0  0  0  0
   -2.2760   -0.5980    2.2760 C   0  0  0  0  0  0  0  0  0  0  0  0
   -1.6010   -0.9250    1.0050 C   0  0  2  0  0  0  0  0  0  0  0  0
   -0.4530    0.0600    0.9980 N   0  0  0  0  0  0  0  0  0  0  0  0
   -2.2810   -0.8210   -0.2690 C   0  0  0  0  0  0  0  0  0  0  0  0
   -2.0500    0.2210   -0.9810 O   0  0  0  0  0  0  0  0  0  0  0  0
   -4.4730    0.0750    3.9840 H   0  0  0  0  0  0  0  0  0  0  0  0
   -4.6580   -1.6490    4.4160 H   0  0  0  0  0  0  0  0  0  0  0  0
   -3.0890   -0.8300    4.7260 H   0  0  0  0  0  0  0  0  0  0  0  0
   -3.2540   -2.4300    2.7670 H   0  0  0  0  0  0  0  0  0  0  0  0
   -4.9740   -2.1430    1.3440 H   0  0  0  0  0  0  0  0  0  0  0  0
   -5.5570   -0.8890    2.4500 H   0  0  0  0  0  0  0  0  0  0  0  0
   -4.5530   -0.3490    1.0590 H   0  0  0  0  0  0  0  0  0  0  0  0
   -1.5420   -0.6630    3.1450 H   0  0  0  0  0  0  0  0  0  0  0  0
   -2.5510    0.5150    2.3250 H   0  0  0  0  0  0  0  0  0  0  0  0
   -1.0960   -1.9300    1.1140 H   0  0  0  0  0  0  0  0  0  0  0  0
   -0.7170    1.0340    0.9140 H   0  0  0  0  0  0  0  0  0  0  0  0
   -1.3230   -1.6900   -4.0480 C   0  0  0  0  0  0  0  0  0  0  0  0
   -2.0380   -2.8990   -3.4520 C   0  0  0  0  0  0  0  0  0  0  0  0
   -1.2900   -3.4840   -2.2840 C   0  0  0  0  0  0  0  0  0  0  0  0
   -3.4630   -2.6520   -3.1360 C   0  0  0  0  0  0  0  0  0  0  0  0
   -3.7540   -1.5430   -2.1460 C   0  0  2  0  0  0  0  0  0  0  0  0
   -3.1760   -1.7490   -0.8480 N   0  0  0  0  0  0  0  0  0  0  0  0
   -5.2130   -1.3230   -2.1290 C   0  0  0  0  0  0  0  0  0  0  0  0
   -5.7390   -1.1040   -3.2790 O   0  0  0  0  0  0  0  0  0  0  0  0
   -6.0360   -1.3330   -1.0280 O   0  0  0  0  0  0  0  0  0  0  0  0
   -1.2300   -0.8830   -3.3260 H   0  0  0  0  0  0  0  0  0  0  0  0
   -0.2760   -2.0100   -4.2930 H   0  0  0  0  0  0  0  0  0  0  0  0
   -1.7830   -1.4060   -4.9940 H   0  0  0  0  0  0  0  0  0  0  0  0
   -1.9890   -3.6580   -4.3140 H   0  0  0  0  0  0  0  0  0  0  0  0
   -2.0020   -4.0050   -1.6120 H   0  0  0  0  0  0  0  0  0  0  0  0
   -0.7280   -2.7050   -1.7280 H   0  0  0  0  0  0  0  0  0  0  0  0
   -0.5850   -4.2540   -2.7000 H   0  0  0  0  0  0  0  0  0  0  0  0
   -3.9320   -3.5860   -2.7780 H   0  0  0  0  0  0  0  0  0  0  0  0
   -3.9790   -2.3960   -4.1000 H   0  0  0  0  0  0  0  0  0  0  0  0
   -3.3170   -0.5760   -2.5520 H   0  0  0  0  0  0  0  0  0  0  0  0
   -3.4290   -2.6300   -0.3290 H   0  0  0  0  0  0  0  0  0  0  0  0
  1  2  1  0  0  0  0
  1 16  1  0  0  0  0
  2 17  1  6  0  0  0
  2 13  1  0  0  0  0
  2  3  1  0  0  0  0
  3  4  1  0  0  0  0
  3 19  1  0  0  0  0
  3 18  1  0  0  0  0
  4  5  2  0  0  0  0
  5 20  1  0  0  0  0
  6  5  1  0  0  0  0
  6 21  1  0  0  0  0
  7  6  1  0  0  0  0
  8 22  1  0  0  0  0
  8  7  2  0  0  0  0
  9  8  1  0  0  0  0
 10  9  2  0  0  0  0
 10 11  1  0  0  0  0
 11 12  2  0  0  0  0
 12  7  1  0  0  0  0
 12  4  1  0  0  0  0
 13 14  2  0  0  0  0
 15  1  1  0  0  0  0
 23  9  1  0  0  0  0
 24 10  1  0  0  0  0
 25 11  1  0  0  0  0
 26 35  1  0  0  0  0
 26 36  1  0  0  0  0
 27 37  1  0  0  0  0
 27 26  1  0  0  0  0
 28 39  1  0  0  0  0
 28 27  1  0  0  0  0
 29 42  1  0  0  0  0
 29 27  1  0  0  0  0
 29 41  1  0  0  0  0
 30 43  1  1  0  0  0
 30 29  1  0  0  0  0
 31 30  1  0  0  0  0
 31 13  1  0  0  0  0
 32 30  1  0  0  0  0
 33 32  2  0  0  0  0
 34 26  1  0  0  0  0
 38 28  1  0  0  0  0
 40 28  1  0  0  0  0
 44 31  1  0  0  0  0
 45 46  1  0  0  0  0
 45 54  1  0  0  0  0
 46 48  1  0  0  0  0
 46 47  1  0  0  0  0
 47 59  1  0  0  0  0
 47 58  1  0  0  0  0
 48 61  1  0  0  0  0
 48 49  1  0  0  0  0
 49 63  1  6  0  0  0
 49 51  1  0  0  0  0
 49 50  1  0  0  0  0
 50 64  1  0  0  0  0
 50 32  1  0  0  0  0
 51 53  1  0  0  0  0
 52 51  2  0  0  0  0
 55 45  1  0  0  0  0
 56 45  1  0  0  0  0
 57 46  1  0  0  0  0
 60 47  1  0  0  0  0
 62 48  1  0  0  0  0
M  END
$$$$
