WLP.pdb
 OpenBabel07022419173D

 59 61  0  0  1  0  0  0  0  0999 V2000
    2.5150   -1.9770    0.7010 N   0  0  0  0  0  0  0  0  0  0  0  0
    2.0290   -2.1060    2.0350 C   0  0  1  0  0  0  0  0  0  0  0  0
    2.7690   -1.2880    3.0630 C   0  0  0  0  0  0  0  0  0  0  0  0
    2.7560    0.1510    2.8470 C   0  0  0  0  0  0  0  0  0  0  0  0
    1.9310    1.0420    3.4870 C   0  0  0  0  0  0  0  0  0  0  0  0
    2.1740    2.2750    3.0280 N   0  0  0  0  0  0  0  0  0  0  0  0
    3.1600    2.2080    2.0840 C   0  0  0  0  0  0  0  0  0  0  0  0
    3.7570    3.2080    1.3280 C   0  0  0  0  0  0  0  0  0  0  0  0
    4.7500    2.9010    0.4250 C   0  0  0  0  0  0  0  0  0  0  0  0
    5.1040    1.5640    0.3240 C   0  0  0  0  0  0  0  0  0  0  0  0
    4.5220    0.5670    1.0650 C   0  0  0  0  0  0  0  0  0  0  0  0
    3.5250    0.8810    1.9690 C   0  0  0  0  0  0  0  0  0  0  0  0
    0.5490   -1.8240    2.1070 C   0  0  0  0  0  0  0  0  0  0  0  0
   -0.0640   -1.8730    3.1990 O   0  0  0  0  0  0  0  0  0  0  0  0
    3.4170   -2.4250    0.5170 H   0  0  0  0  0  0  0  0  0  0  0  0
    2.3150   -1.0960    0.2220 H   0  0  0  0  0  0  0  0  0  0  0  0
    2.1690   -3.1770    2.3380 H   0  0  0  0  0  0  0  0  0  0  0  0
    2.3660   -1.5960    4.0590 H   0  0  0  0  0  0  0  0  0  0  0  0
    3.8240   -1.6590    3.0530 H   0  0  0  0  0  0  0  0  0  0  0  0
    1.1720    0.8540    4.2580 H   0  0  0  0  0  0  0  0  0  0  0  0
    1.6980    3.1610    3.3310 H   0  0  0  0  0  0  0  0  0  0  0  0
    3.4450    4.2550    1.4390 H   0  0  0  0  0  0  0  0  0  0  0  0
    5.2150    3.6840   -0.1660 H   0  0  0  0  0  0  0  0  0  0  0  0
    5.8900    1.3370   -0.3920 H   0  0  0  0  0  0  0  0  0  0  0  0
    4.8130   -0.4750    0.9810 H   0  0  0  0  0  0  0  0  0  0  0  0
   -2.9390    2.3700    0.2420 C   0  0  0  0  0  0  0  0  0  0  0  0
   -3.1450    0.8350    0.4940 C   0  0  0  0  0  0  0  0  0  0  0  0
   -3.9060    0.4190   -0.7640 C   0  0  0  0  0  0  0  0  0  0  0  0
   -1.8030    0.2440    0.6080 C   0  0  0  0  0  0  0  0  0  0  0  0
   -1.6280   -1.2080    0.9620 C   0  0  2  0  0  0  0  0  0  0  0  0
   -0.1920   -1.4930    0.9280 N   0  0  0  0  0  0  0  0  0  0  0  0
   -2.5180   -2.0850    0.2430 C   0  0  0  0  0  0  0  0  0  0  0  0
   -3.7960   -1.8890    0.6250 O   0  0  0  0  0  0  0  0  0  0  0  0
   -3.9350    2.8190    0.4070 H   0  0  0  0  0  0  0  0  0  0  0  0
   -2.5720    2.4410   -0.7870 H   0  0  0  0  0  0  0  0  0  0  0  0
   -2.1990    2.7370    0.9840 H   0  0  0  0  0  0  0  0  0  0  0  0
   -3.7580    0.7000    1.3820 H   0  0  0  0  0  0  0  0  0  0  0  0
   -4.9400    0.1340   -0.5810 H   0  0  0  0  0  0  0  0  0  0  0  0
   -3.9440    1.3460   -1.4310 H   0  0  0  0  0  0  0  0  0  0  0  0
   -3.3190   -0.2860   -1.3680 H   0  0  0  0  0  0  0  0  0  0  0  0
   -1.1740    0.8280    1.3440 H   0  0  0  0  0  0  0  0  0  0  0  0
   -1.2760    0.4660   -0.3830 H   0  0  0  0  0  0  0  0  0  0  0  0
   -1.9100   -1.2890    2.0750 H   0  0  0  0  0  0  0  0  0  0  0  0
    0.3130   -1.4390    0.0200 H   0  0  0  0  0  0  0  0  0  0  0  0
   -2.4180   -3.0550   -0.7240 N   0  0  0  0  0  0  0  0  0  0  0  0
   -3.7040   -3.6520   -1.3360 C   0  0  0  0  0  0  0  0  0  0  0  0
   -3.3840   -3.2980   -2.7920 C   0  0  0  0  0  0  0  0  0  0  0  0
   -1.8550   -3.4380   -2.9310 C   0  0  0  0  0  0  0  0  0  0  0  0
   -1.4990   -3.8260   -1.4990 C   0  0  1  0  0  0  0  0  0  0  0  0
   -0.1290   -3.9600   -1.1630 C   0  0  0  0  0  0  0  0  0  0  0  0
    0.7840   -3.7900   -2.0420 O   0  0  0  0  0  0  0  0  0  0  0  0
    0.3120   -4.2870    0.1010 O   0  0  0  0  0  0  0  0  0  0  0  0
   -4.5660   -3.1400   -0.9330 H   0  0  0  0  0  0  0  0  0  0  0  0
   -3.6330   -4.7360   -1.1810 H   0  0  0  0  0  0  0  0  0  0  0  0
   -3.6960   -2.2610   -3.0080 H   0  0  0  0  0  0  0  0  0  0  0  0
   -3.8250   -4.0250   -3.4960 H   0  0  0  0  0  0  0  0  0  0  0  0
   -1.5730   -4.2190   -3.6500 H   0  0  0  0  0  0  0  0  0  0  0  0
   -1.3960   -2.4920   -3.2270 H   0  0  0  0  0  0  0  0  0  0  0  0
   -1.9090   -4.9430   -1.4820 H   0  0  0  0  0  0  0  0  0  0  0  0
  1  2  1  0  0  0  0
  2 13  1  0  0  0  0
  2 17  1  1  0  0  0
  2  3  1  0  0  0  0
  3 18  1  0  0  0  0
  4  3  1  0  0  0  0
  4  5  2  0  0  0  0
  5 20  1  0  0  0  0
  6 21  1  0  0  0  0
  6  5  1  0  0  0  0
  7  6  1  0  0  0  0
  8 22  1  0  0  0  0
  8  7  2  0  0  0  0
  9  8  1  0  0  0  0
 10  9  2  0  0  0  0
 10 11  1  0  0  0  0
 11 12  2  0  0  0  0
 12  7  1  0  0  0  0
 12  4  1  0  0  0  0
 13 14  2  0  0  0  0
 15  1  1  0  0  0  0
 16  1  1  0  0  0  0
 19  3  1  0  0  0  0
 23  9  1  0  0  0  0
 24 10  1  0  0  0  0
 25 11  1  0  0  0  0
 26 34  1  0  0  0  0
 26 27  1  0  0  0  0
 26 36  1  0  0  0  0
 27 29  1  0  0  0  0
 27 37  1  0  0  0  0
 28 38  1  0  0  0  0
 28 27  1  0  0  0  0
 29 30  1  0  0  0  0
 29 41  1  0  0  0  0
 30 43  1  1  0  0  0
 31 30  1  0  0  0  0
 31 13  1  0  0  0  0
 32 33  2  0  0  0  0
 32 30  1  0  0  0  0
 35 26  1  0  0  0  0
 39 28  1  0  0  0  0
 40 28  1  0  0  0  0
 42 29  1  0  0  0  0
 44 31  1  0  0  0  0
 45 32  1  0  0  0  0
 46 54  1  0  0  0  0
 46 53  1  0  0  0  0
 46 45  1  0  0  0  0
 47 46  1  0  0  0  0
 48 47  1  0  0  0  0
 48 49  1  0  0  0  0
 49 59  1  1  0  0  0
 49 50  1  0  0  0  0
 49 45  1  0  0  0  0
 50 52  1  0  0  0  0
 51 50  2  0  0  0  0
 55 47  1  0  0  0  0
 56 47  1  0  0  0  0
 57 48  1  0  0  0  0
 58 48  1  0  0  0  0
M  END
$$$$
