WLQ.pdb
 OpenBabel07022419173D

 62 63  0  0  1  0  0  0  0  0999 V2000
    1.7800    0.7010   -4.3690 N   0  0  0  0  0  0  0  0  0  0  0  0
    0.6100    0.9450   -3.5840 C   0  0  1  0  0  0  0  0  0  0  0  0
   -0.4870   -0.0720   -3.7410 C   0  0  0  0  0  0  0  0  0  0  0  0
   -0.9580   -0.1450   -5.1430 C   0  0  0  0  0  0  0  0  0  0  0  0
   -2.1050    0.4740   -5.6350 C   0  0  0  0  0  0  0  0  0  0  0  0
   -2.2070    0.2110   -6.9460 N   0  0  0  0  0  0  0  0  0  0  0  0
   -1.1770   -0.5640   -7.3730 C   0  0  0  0  0  0  0  0  0  0  0  0
   -0.8380   -1.0960   -8.5970 C   0  0  0  0  0  0  0  0  0  0  0  0
    0.2860   -1.8660   -8.7430 C   0  0  0  0  0  0  0  0  0  0  0  0
    1.0590   -2.0870   -7.6220 C   0  0  0  0  0  0  0  0  0  0  0  0
    0.7160   -1.5520   -6.3940 C   0  0  0  0  0  0  0  0  0  0  0  0
   -0.4020   -0.7790   -6.2280 C   0  0  0  0  0  0  0  0  0  0  0  0
    0.9990    1.0050   -2.1480 C   0  0  0  0  0  0  0  0  0  0  0  0
    2.1920    0.7930   -1.8280 O   0  0  0  0  0  0  0  0  0  0  0  0
    2.5060    0.1400   -3.8540 H   0  0  0  0  0  0  0  0  0  0  0  0
    2.1940    1.6180   -4.6470 H   0  0  0  0  0  0  0  0  0  0  0  0
    0.2230    1.9540   -3.8570 H   0  0  0  0  0  0  0  0  0  0  0  0
   -0.0470   -1.0550   -3.4380 H   0  0  0  0  0  0  0  0  0  0  0  0
   -1.2850    0.1780   -3.0420 H   0  0  0  0  0  0  0  0  0  0  0  0
   -2.7850    1.0590   -5.0530 H   0  0  0  0  0  0  0  0  0  0  0  0
   -2.9720    0.5490   -7.5710 H   0  0  0  0  0  0  0  0  0  0  0  0
   -1.4590   -0.9070   -9.4540 H   0  0  0  0  0  0  0  0  0  0  0  0
    0.5760   -2.3000   -9.7090 H   0  0  0  0  0  0  0  0  0  0  0  0
    1.9490   -2.6870   -7.6970 H   0  0  0  0  0  0  0  0  0  0  0  0
    1.3340   -1.7450   -5.5180 H   0  0  0  0  0  0  0  0  0  0  0  0
   -0.8100    4.7950    1.3800 C   0  0  0  0  0  0  0  0  0  0  0  0
   -0.9870    3.3990    0.7610 C   0  0  0  0  0  0  0  0  0  0  0  0
   -2.0740    2.7400    1.5790 C   0  0  0  0  0  0  0  0  0  0  0  0
    0.3370    2.7370    0.8380 C   0  0  0  0  0  0  0  0  0  0  0  0
    0.4350    1.3550    0.2920 C   0  0  2  0  0  0  0  0  0  0  0  0
    0.0770    1.2910   -1.1190 N   0  0  0  0  0  0  0  0  0  0  0  0
   -0.2750    0.3260    1.0780 C   0  0  0  0  0  0  0  0  0  0  0  0
   -1.1030   -0.4400    0.4760 O   0  0  0  0  0  0  0  0  0  0  0  0
   -0.0600    4.7640    2.1970 H   0  0  0  0  0  0  0  0  0  0  0  0
   -0.4130    5.4770    0.6130 H   0  0  0  0  0  0  0  0  0  0  0  0
   -1.7660    5.1480    1.8290 H   0  0  0  0  0  0  0  0  0  0  0  0
   -1.3600    3.5670   -0.2600 H   0  0  0  0  0  0  0  0  0  0  0  0
   -1.6590    2.5140    2.5790 H   0  0  0  0  0  0  0  0  0  0  0  0
   -2.8760    3.5350    1.6780 H   0  0  0  0  0  0  0  0  0  0  0  0
   -2.4670    1.8440    1.0810 H   0  0  0  0  0  0  0  0  0  0  0  0
    0.6510    2.7130    1.9220 H   0  0  0  0  0  0  0  0  0  0  0  0
    1.0690    3.3790    0.2870 H   0  0  0  0  0  0  0  0  0  0  0  0
    1.5350    1.0770    0.3920 H   0  0  0  0  0  0  0  0  0  0  0  0
   -0.9140    1.4660   -1.3880 H   0  0  0  0  0  0  0  0  0  0  0  0
    0.2080   -5.2960    5.3820 N   0  0  0  0  0  0  0  0  0  0  0  0
    0.5690   -4.1500    4.6530 C   0  0  0  0  0  0  0  0  0  0  0  0
    1.7680   -4.0190    4.2620 O   0  0  0  0  0  0  0  0  0  0  0  0
   -0.4720   -3.1200    4.3630 C   0  0  0  0  0  0  0  0  0  0  0  0
    0.1590   -2.0000    3.5960 C   0  0  0  0  0  0  0  0  0  0  0  0
   -0.8130   -0.9030    3.2120 C   0  0  2  0  0  0  0  0  0  0  0  0
   -0.0830    0.1430    2.4650 N   0  0  0  0  0  0  0  0  0  0  0  0
   -1.4960   -0.3500    4.3720 C   0  0  0  0  0  0  0  0  0  0  0  0
   -1.3910    0.8700    4.7350 O   0  0  0  0  0  0  0  0  0  0  0  0
   -2.3210   -1.1260    5.1660 O   0  0  0  0  0  0  0  0  0  0  0  0
   -0.7470   -5.3510    5.7990 H   0  0  0  0  0  0  0  0  0  0  0  0
    0.8900   -6.1040    5.5130 H   0  0  0  0  0  0  0  0  0  0  0  0
   -1.3280   -3.5100    3.8050 H   0  0  0  0  0  0  0  0  0  0  0  0
   -0.7530   -2.7340    5.3880 H   0  0  0  0  0  0  0  0  0  0  0  0
    0.6880   -2.4160    2.7320 H   0  0  0  0  0  0  0  0  0  0  0  0
    0.9580   -1.5570    4.2580 H   0  0  0  0  0  0  0  0  0  0  0  0
   -1.5330   -1.3600    2.5210 H   0  0  0  0  0  0  0  0  0  0  0  0
    0.5860    0.7570    2.9710 H   0  0  0  0  0  0  0  0  0  0  0  0
  1 15  1  0  0  0  0
  1  2  1  0  0  0  0
  2 17  1  6  0  0  0
  2 13  1  0  0  0  0
  3  2  1  0  0  0  0
  3 18  1  0  0  0  0
  3 19  1  0  0  0  0
  4  3  1  0  0  0  0
  5  4  2  0  0  0  0
  5 20  1  0  0  0  0
  6  5  1  0  0  0  0
  7  6  1  0  0  0  0
  7 12  1  0  0  0  0
  8  7  2  0  0  0  0
  9  8  1  0  0  0  0
  9 10  2  0  0  0  0
 10 11  1  0  0  0  0
 11 12  2  0  0  0  0
 11 25  1  0  0  0  0
 12  4  1  0  0  0  0
 13 14  2  0  0  0  0
 13 31  1  0  0  0  0
 16  1  1  0  0  0  0
 21  6  1  0  0  0  0
 22  8  1  0  0  0  0
 23  9  1  0  0  0  0
 24 10  1  0  0  0  0
 26 36  1  0  0  0  0
 26 34  1  0  0  0  0
 27 29  1  0  0  0  0
 27 26  1  0  0  0  0
 27 28  1  0  0  0  0
 28 39  1  0  0  0  0
 28 38  1  0  0  0  0
 29 41  1  0  0  0  0
 30 43  1  1  0  0  0
 30 29  1  0  0  0  0
 30 32  1  0  0  0  0
 31 30  1  0  0  0  0
 32 51  1  0  0  0  0
 33 32  2  0  0  0  0
 35 26  1  0  0  0  0
 37 27  1  0  0  0  0
 40 28  1  0  0  0  0
 42 29  1  0  0  0  0
 44 31  1  0  0  0  0
 45 56  1  0  0  0  0
 45 55  1  0  0  0  0
 46 45  1  0  0  0  0
 47 46  2  0  0  0  0
 48 46  1  0  0  0  0
 48 58  1  0  0  0  0
 49 60  1  0  0  0  0
 49 48  1  0  0  0  0
 50 61  1  6  0  0  0
 50 49  1  0  0  0  0
 50 52  1  0  0  0  0
 51 62  1  0  0  0  0
 51 50  1  0  0  0  0
 52 53  2  0  0  0  0
 52 54  1  0  0  0  0
 57 48  1  0  0  0  0
 59 49  1  0  0  0  0
M  END
$$$$
