WLR.pdb
 OpenBabel07022419173D

 68 69  0  0  1  0  0  0  0  0999 V2000
    3.0250   -0.5860   -3.3860 N   0  0  0  0  0  0  0  0  0  0  0  0
    2.2090   -1.0410   -2.2700 C   0  0  1  0  0  0  0  0  0  0  0  0
    2.8140   -1.0380   -0.9770 C   0  0  0  0  0  0  0  0  0  0  0  0
    3.3460    0.0800   -0.2650 C   0  0  0  0  0  0  0  0  0  0  0  0
    4.0370   -0.1330    0.9430 C   0  0  0  0  0  0  0  0  0  0  0  0
    4.4410    1.0240    1.4200 N   0  0  0  0  0  0  0  0  0  0  0  0
    4.0750    2.0410    0.6190 C   0  0  0  0  0  0  0  0  0  0  0  0
    4.2450    3.3910    0.6650 C   0  0  0  0  0  0  0  0  0  0  0  0
    3.7340    4.1730   -0.3380 C   0  0  0  0  0  0  0  0  0  0  0  0
    3.0440    3.5780   -1.3980 C   0  0  0  0  0  0  0  0  0  0  0  0
    2.8840    2.2100   -1.4260 C   0  0  0  0  0  0  0  0  0  0  0  0
    3.3990    1.4440   -0.4190 C   0  0  0  0  0  0  0  0  0  0  0  0
    0.7950   -0.6200   -2.3900 C   0  0  0  0  0  0  0  0  0  0  0  0
    0.4960    0.1470   -3.3380 O   0  0  0  0  0  0  0  0  0  0  0  0
    3.9440   -1.0330   -3.3790 H   0  0  0  0  0  0  0  0  0  0  0  0
    2.5180   -0.6480   -4.2930 H   0  0  0  0  0  0  0  0  0  0  0  0
    2.1110   -2.1550   -2.5410 H   0  0  0  0  0  0  0  0  0  0  0  0
    2.0660   -1.5340   -0.2690 H   0  0  0  0  0  0  0  0  0  0  0  0
    3.6320   -1.8400   -0.9970 H   0  0  0  0  0  0  0  0  0  0  0  0
    4.2360   -1.0810    1.4510 H   0  0  0  0  0  0  0  0  0  0  0  0
    4.9770    1.1800    2.3000 H   0  0  0  0  0  0  0  0  0  0  0  0
    4.7900    3.8010    1.5130 H   0  0  0  0  0  0  0  0  0  0  0  0
    3.8850    5.2420   -0.2740 H   0  0  0  0  0  0  0  0  0  0  0  0
    2.6610    4.2370   -2.1630 H   0  0  0  0  0  0  0  0  0  0  0  0
    2.3660    1.7770   -2.2160 H   0  0  0  0  0  0  0  0  0  0  0  0
   -3.6210   -3.7850   -2.3110 C   0  0  0  0  0  0  0  0  0  0  0  0
   -2.6470   -2.9220   -1.4800 C   0  0  0  0  0  0  0  0  0  0  0  0
   -3.3830   -2.7420   -0.1490 C   0  0  0  0  0  0  0  0  0  0  0  0
   -2.5170   -1.6390   -2.1950 C   0  0  0  0  0  0  0  0  0  0  0  0
   -1.6280   -0.5960   -1.6370 C   0  0  2  0  0  0  0  0  0  0  0  0
   -0.2440   -1.0160   -1.5180 N   0  0  0  0  0  0  0  0  0  0  0  0
   -2.0990    0.1340   -0.4620 C   0  0  0  0  0  0  0  0  0  0  0  0
   -3.2650    0.5680   -0.3040 O   0  0  0  0  0  0  0  0  0  0  0  0
   -3.6960   -4.7400   -1.7320 H   0  0  0  0  0  0  0  0  0  0  0  0
   -4.6300   -3.3480   -2.3260 H   0  0  0  0  0  0  0  0  0  0  0  0
   -3.2030   -4.0110   -3.3020 H   0  0  0  0  0  0  0  0  0  0  0  0
   -1.7490   -3.5270   -1.3700 H   0  0  0  0  0  0  0  0  0  0  0  0
   -2.6770   -2.5270    0.6690 H   0  0  0  0  0  0  0  0  0  0  0  0
   -3.8850   -3.7090    0.1530 H   0  0  0  0  0  0  0  0  0  0  0  0
   -4.2070   -2.0120   -0.2500 H   0  0  0  0  0  0  0  0  0  0  0  0
   -3.5580   -1.2310   -2.3400 H   0  0  0  0  0  0  0  0  0  0  0  0
   -2.1850   -1.8560   -3.2530 H   0  0  0  0  0  0  0  0  0  0  0  0
   -1.5760    0.1940   -2.4660 H   0  0  0  0  0  0  0  0  0  0  0  0
    0.0540   -1.6690   -0.7330 H   0  0  0  0  0  0  0  0  0  0  0  0
   -2.8400   -4.9090    3.1120 N   0  0  0  0  0  0  0  0  0  0  0  0
   -1.9730   -3.8630    3.5050 C   0  0  0  0  0  0  0  0  0  0  0  0
   -0.7820   -3.7780    3.0110 N   0  0  0  0  0  0  0  0  0  0  0  0
   -2.3280   -2.8620    4.4390 N   0  0  0  0  0  0  0  0  0  0  0  0
   -1.5820   -1.6310    4.4930 C   0  0  0  0  0  0  0  0  0  0  0  0
   -1.8930   -0.8950    3.1770 C   0  0  0  0  0  0  0  0  0  0  0  0
   -1.1850    0.4130    3.1020 C   0  0  0  0  0  0  0  0  0  0  0  0
   -1.5240    1.1030    1.8150 C   0  0  2  0  0  0  0  0  0  0  0  0
   -1.1810    0.3990    0.6240 N   0  0  0  0  0  0  0  0  0  0  0  0
   -0.8340    2.4470    1.8440 C   0  0  0  0  0  0  0  0  0  0  0  0
   -0.1060    2.7220    0.8610 O   0  0  0  0  0  0  0  0  0  0  0  0
   -1.0150    3.3010    2.9080 O   0  0  0  0  0  0  0  0  0  0  0  0
   -3.8730   -4.8580    3.1920 H   0  0  0  0  0  0  0  0  0  0  0  0
   -2.4320   -5.7810    2.7210 H   0  0  0  0  0  0  0  0  0  0  0  0
   -0.4850   -4.4980    2.3200 H   0  0  0  0  0  0  0  0  0  0  0  0
   -3.1240   -3.0100    5.0840 H   0  0  0  0  0  0  0  0  0  0  0  0
   -1.8940   -1.0430    5.3600 H   0  0  0  0  0  0  0  0  0  0  0  0
   -0.4830   -1.8050    4.4620 H   0  0  0  0  0  0  0  0  0  0  0  0
   -2.9780   -0.8400    3.0920 H   0  0  0  0  0  0  0  0  0  0  0  0
   -1.4090   -1.5650    2.4020 H   0  0  0  0  0  0  0  0  0  0  0  0
   -0.0970    0.2500    3.2310 H   0  0  0  0  0  0  0  0  0  0  0  0
   -1.5450    1.0670    3.9380 H   0  0  0  0  0  0  0  0  0  0  0  0
   -2.6290    1.3200    1.8290 H   0  0  0  0  0  0  0  0  0  0  0  0
   -0.2110    0.0370    0.4950 H   0  0  0  0  0  0  0  0  0  0  0  0
  1 15  1  0  0  0  0
  1  2  1  0  0  0  0
  2 17  1  6  0  0  0
  2  3  1  0  0  0  0
  3 18  1  0  0  0  0
  3  4  1  0  0  0  0
  4  5  2  0  0  0  0
  5  6  1  0  0  0  0
  5 20  1  0  0  0  0
  6 21  1  0  0  0  0
  7  8  1  0  0  0  0
  7  6  1  0  0  0  0
  8 22  1  0  0  0  0
  9 23  1  0  0  0  0
  9  8  2  0  0  0  0
 10  9  1  0  0  0  0
 11 10  2  0  0  0  0
 11 12  1  0  0  0  0
 12  4  1  0  0  0  0
 12  7  2  0  0  0  0
 13  2  1  0  0  0  0
 13 31  1  0  0  0  0
 14 13  2  0  0  0  0
 16  1  1  0  0  0  0
 19  3  1  0  0  0  0
 24 10  1  0  0  0  0
 25 11  1  0  0  0  0
 26 34  1  0  0  0  0
 26 27  1  0  0  0  0
 27 37  1  0  0  0  0
 27 28  1  0  0  0  0
 28 39  1  0  0  0  0
 28 38  1  0  0  0  0
 29 30  1  0  0  0  0
 29 27  1  0  0  0  0
 30 43  1  6  0  0  0
 30 31  1  0  0  0  0
 30 32  1  0  0  0  0
 31 44  1  0  0  0  0
 32 33  2  0  0  0  0
 32 53  1  0  0  0  0
 35 26  1  0  0  0  0
 36 26  1  0  0  0  0
 40 28  1  0  0  0  0
 41 29  1  0  0  0  0
 42 29  1  0  0  0  0
 45 57  1  0  0  0  0
 45 46  1  0  0  0  0
 46 48  1  0  0  0  0
 47 46  2  0  0  0  0
 48 49  1  0  0  0  0
 48 60  1  0  0  0  0
 49 61  1  0  0  0  0
 50 49  1  0  0  0  0
 51 50  1  0  0  0  0
 51 65  1  0  0  0  0
 51 66  1  0  0  0  0
 52 67  1  6  0  0  0
 52 54  1  0  0  0  0
 52 51  1  0  0  0  0
 53 52  1  0  0  0  0
 54 56  1  0  0  0  0
 55 54  2  0  0  0  0
 58 45  1  0  0  0  0
 59 47  1  0  0  0  0
 62 49  1  0  0  0  0
 63 50  1  0  0  0  0
 64 50  1  0  0  0  0
 68 53  1  0  0  0  0
M  END
$$$$
