WLV.pdb
 OpenBabel07022419173D

 61 62  0  0  1  0  0  0  0  0999 V2000
    2.5470   -1.4320    0.5230 N   0  0  0  0  0  0  0  0  0  0  0  0
    2.2390   -1.5080    1.9280 C   0  0  1  0  0  0  0  0  0  0  0  0
    3.0950   -0.5960    2.7660 C   0  0  0  0  0  0  0  0  0  0  0  0
    2.9980    0.8230    2.4490 C   0  0  0  0  0  0  0  0  0  0  0  0
    2.2210    1.7600    3.1260 C   0  0  0  0  0  0  0  0  0  0  0  0
    2.3520    2.9620    2.5480 N   0  0  0  0  0  0  0  0  0  0  0  0
    3.2050    2.8320    1.4990 C   0  0  0  0  0  0  0  0  0  0  0  0
    3.6940    3.7430    0.5710 C   0  0  0  0  0  0  0  0  0  0  0  0
    4.5740    3.3960   -0.4280 C   0  0  0  0  0  0  0  0  0  0  0  0
    4.9600    2.0700   -0.4680 C   0  0  0  0  0  0  0  0  0  0  0  0
    4.4930    1.1310    0.4420 C   0  0  0  0  0  0  0  0  0  0  0  0
    3.6110    1.5110    1.4300 C   0  0  0  0  0  0  0  0  0  0  0  0
    0.7810   -1.2490    2.1760 C   0  0  0  0  0  0  0  0  0  0  0  0
    0.3120   -1.2780    3.3420 O   0  0  0  0  0  0  0  0  0  0  0  0
    1.8890   -2.0730    0.0150 H   0  0  0  0  0  0  0  0  0  0  0  0
    3.4940   -1.9030    0.4090 H   0  0  0  0  0  0  0  0  0  0  0  0
    2.4930   -2.5680    2.2300 H   0  0  0  0  0  0  0  0  0  0  0  0
    2.7900   -0.7600    3.8420 H   0  0  0  0  0  0  0  0  0  0  0  0
    4.1690   -0.9340    2.7540 H   0  0  0  0  0  0  0  0  0  0  0  0
    1.5870    1.5950    3.9950 H   0  0  0  0  0  0  0  0  0  0  0  0
    1.9170    3.8770    2.7920 H   0  0  0  0  0  0  0  0  0  0  0  0
    3.3580    4.7820    0.6450 H   0  0  0  0  0  0  0  0  0  0  0  0
    4.9350    4.1250   -1.1340 H   0  0  0  0  0  0  0  0  0  0  0  0
    5.6600    1.7300   -1.2400 H   0  0  0  0  0  0  0  0  0  0  0  0
    4.8060    0.1020    0.4090 H   0  0  0  0  0  0  0  0  0  0  0  0
   -3.7240    1.3550    2.2990 C   0  0  0  0  0  0  0  0  0  0  0  0
   -3.1770    1.2090    0.8930 C   0  0  0  0  0  0  0  0  0  0  0  0
   -4.2060    0.7280   -0.0590 C   0  0  0  0  0  0  0  0  0  0  0  0
   -1.8200    0.6300    0.8120 C   0  0  0  0  0  0  0  0  0  0  0  0
   -1.5630   -0.7100    1.3790 C   0  0  2  0  0  0  0  0  0  0  0  0
   -0.1210   -0.9650    1.1280 N   0  0  0  0  0  0  0  0  0  0  0  0
   -2.2830   -1.8240    0.7390 C   0  0  0  0  0  0  0  0  0  0  0  0
   -3.5270   -1.9350    0.8580 O   0  0  0  0  0  0  0  0  0  0  0  0
   -4.8080    1.5750    2.1950 H   0  0  0  0  0  0  0  0  0  0  0  0
   -3.2190    2.1680    2.8270 H   0  0  0  0  0  0  0  0  0  0  0  0
   -3.6550    0.4070    2.8800 H   0  0  0  0  0  0  0  0  0  0  0  0
   -3.0130    2.3210    0.5890 H   0  0  0  0  0  0  0  0  0  0  0  0
   -3.8060    0.0980   -0.8650 H   0  0  0  0  0  0  0  0  0  0  0  0
   -5.0400    0.2460    0.5260 H   0  0  0  0  0  0  0  0  0  0  0  0
   -4.7540    1.6100   -0.5380 H   0  0  0  0  0  0  0  0  0  0  0  0
   -1.1250    1.3560    1.3220 H   0  0  0  0  0  0  0  0  0  0  0  0
   -1.5390    0.5930   -0.2710 H   0  0  0  0  0  0  0  0  0  0  0  0
   -1.6880   -0.7290    2.4930 H   0  0  0  0  0  0  0  0  0  0  0  0
    0.2150   -0.9220    0.1480 H   0  0  0  0  0  0  0  0  0  0  0  0
   -2.7800   -2.6150   -2.7600 C   0  0  0  0  0  0  0  0  0  0  0  0
   -2.2850   -3.8860   -2.1400 C   0  0  0  0  0  0  0  0  0  0  0  0
   -0.8770   -4.1470   -2.6130 C   0  0  0  0  0  0  0  0  0  0  0  0
   -2.3900   -3.8740   -0.6310 C   0  0  2  0  0  0  0  0  0  0  0  0
   -1.6350   -2.8220   -0.0360 N   0  0  0  0  0  0  0  0  0  0  0  0
   -1.9090   -5.2000   -0.1280 C   0  0  0  0  0  0  0  0  0  0  0  0
   -0.9670   -5.2360    0.6970 O   0  0  0  0  0  0  0  0  0  0  0  0
   -2.5250   -6.3640   -0.5960 O   0  0  0  0  0  0  0  0  0  0  0  0
   -3.5570   -2.1090   -2.1510 H   0  0  0  0  0  0  0  0  0  0  0  0
   -3.2550   -2.8580   -3.7370 H   0  0  0  0  0  0  0  0  0  0  0  0
   -1.9490   -1.9040   -3.0010 H   0  0  0  0  0  0  0  0  0  0  0  0
   -2.9180   -4.7210   -2.5060 H   0  0  0  0  0  0  0  0  0  0  0  0
   -0.9400   -4.6330   -3.6080 H   0  0  0  0  0  0  0  0  0  0  0  0
   -0.2570   -3.2300   -2.6320 H   0  0  0  0  0  0  0  0  0  0  0  0
   -0.3760   -4.9050   -1.9450 H   0  0  0  0  0  0  0  0  0  0  0  0
   -3.4580   -3.7470   -0.3730 H   0  0  0  0  0  0  0  0  0  0  0  0
   -0.5790   -2.7390   -0.1400 H   0  0  0  0  0  0  0  0  0  0  0  0
  1  2  1  0  0  0  0
  2 13  1  0  0  0  0
  2 17  1  1  0  0  0
  2  3  1  0  0  0  0
  3 18  1  0  0  0  0
  4  3  1  0  0  0  0
  4  5  2  0  0  0  0
  5 20  1  0  0  0  0
  6 21  1  0  0  0  0
  6  5  1  0  0  0  0
  7  6  1  0  0  0  0
  8 22  1  0  0  0  0
  8  7  2  0  0  0  0
  9  8  1  0  0  0  0
 10  9  2  0  0  0  0
 10 11  1  0  0  0  0
 11 12  2  0  0  0  0
 12  7  1  0  0  0  0
 12  4  1  0  0  0  0
 13 14  2  0  0  0  0
 15  1  1  0  0  0  0
 16  1  1  0  0  0  0
 19  3  1  0  0  0  0
 23  9  1  0  0  0  0
 24 10  1  0  0  0  0
 25 11  1  0  0  0  0
 26 35  1  0  0  0  0
 26 36  1  0  0  0  0
 27 26  1  0  0  0  0
 28 39  1  0  0  0  0
 28 27  1  0  0  0  0
 29 27  1  0  0  0  0
 29 41  1  0  0  0  0
 29 30  1  0  0  0  0
 30 43  1  1  0  0  0
 31 30  1  0  0  0  0
 31 13  1  0  0  0  0
 32 33  2  0  0  0  0
 32 30  1  0  0  0  0
 34 26  1  0  0  0  0
 37 27  1  0  0  0  0
 38 28  1  0  0  0  0
 40 28  1  0  0  0  0
 42 29  1  0  0  0  0
 44 31  1  0  0  0  0
 45 53  1  0  0  0  0
 45 46  1  0  0  0  0
 46 48  1  0  0  0  0
 47 46  1  0  0  0  0
 47 59  1  0  0  0  0
 48 60  1  1  0  0  0
 48 50  1  0  0  0  0
 48 49  1  0  0  0  0
 49 32  1  0  0  0  0
 50 51  1  0  0  0  0
 52 50  2  0  0  0  0
 54 45  1  0  0  0  0
 55 45  1  0  0  0  0
 56 46  1  0  0  0  0
 57 47  1  0  0  0  0
 58 47  1  0  0  0  0
 61 49  1  0  0  0  0
M  END
$$$$
