WLY.pdb
 OpenBabel07022419173D

 66 68  0  0  1  0  0  0  0  0999 V2000
    2.4050   -0.2380    3.0890 N   0  0  0  0  0  0  0  0  0  0  0  0
    2.3660    0.9030    2.1570 C   0  0  1  0  0  0  0  0  0  0  0  0
    3.7260    0.9560    1.5280 C   0  0  0  0  0  0  0  0  0  0  0  0
    3.9050    2.0210    0.5350 C   0  0  0  0  0  0  0  0  0  0  0  0
    4.4190    3.2930    0.8150 C   0  0  0  0  0  0  0  0  0  0  0  0
    4.4050    4.0090   -0.3130 N   0  0  0  0  0  0  0  0  0  0  0  0
    3.9090    3.2780   -1.3290 C   0  0  0  0  0  0  0  0  0  0  0  0
    3.7030    3.5470   -2.6720 C   0  0  0  0  0  0  0  0  0  0  0  0
    3.1870    2.5940   -3.5140 C   0  0  0  0  0  0  0  0  0  0  0  0
    2.8740    1.3550   -3.0010 C   0  0  0  0  0  0  0  0  0  0  0  0
    3.0780    1.0900   -1.6690 C   0  0  0  0  0  0  0  0  0  0  0  0
    3.6010    2.0480   -0.7990 C   0  0  0  0  0  0  0  0  0  0  0  0
    1.2800    0.7880    1.1960 C   0  0  0  0  0  0  0  0  0  0  0  0
    0.9790    1.8140    0.5160 O   0  0  0  0  0  0  0  0  0  0  0  0
    2.8340   -1.0700    2.6270 H   0  0  0  0  0  0  0  0  0  0  0  0
    2.9270    0.0350    3.9600 H   0  0  0  0  0  0  0  0  0  0  0  0
    2.2520    1.7930    2.8340 H   0  0  0  0  0  0  0  0  0  0  0  0
    3.9640   -0.0270    1.0120 H   0  0  0  0  0  0  0  0  0  0  0  0
    4.5350    1.0560    2.3040 H   0  0  0  0  0  0  0  0  0  0  0  0
    4.7500    3.5730    1.8020 H   0  0  0  0  0  0  0  0  0  0  0  0
    4.7280    4.9920   -0.4080 H   0  0  0  0  0  0  0  0  0  0  0  0
    3.9530    4.5080   -3.0410 H   0  0  0  0  0  0  0  0  0  0  0  0
    3.0160    2.7850   -4.5820 H   0  0  0  0  0  0  0  0  0  0  0  0
    2.4690    0.6030   -3.6600 H   0  0  0  0  0  0  0  0  0  0  0  0
    2.8420    0.1240   -1.2330 H   0  0  0  0  0  0  0  0  0  0  0  0
   -2.4500   -2.2810   -1.9950 C   0  0  0  0  0  0  0  0  0  0  0  0
   -1.0940   -1.6960   -2.2350 C   0  0  0  0  0  0  0  0  0  0  0  0
   -1.2990   -0.4990   -3.1650 C   0  0  0  0  0  0  0  0  0  0  0  0
   -0.2330   -1.3990   -1.0950 C   0  0  0  0  0  0  0  0  0  0  0  0
   -0.5820   -0.4230   -0.0550 C   0  0  2  0  0  0  0  0  0  0  0  0
    0.5280   -0.3710    0.9530 N   0  0  0  0  0  0  0  0  0  0  0  0
   -1.8230   -0.5870    0.7080 C   0  0  0  0  0  0  0  0  0  0  0  0
   -2.9560   -0.5470    0.1910 O   0  0  0  0  0  0  0  0  0  0  0  0
   -3.2970   -1.5890   -2.1970 H   0  0  0  0  0  0  0  0  0  0  0  0
   -2.6630   -3.1160   -2.7650 H   0  0  0  0  0  0  0  0  0  0  0  0
   -2.5060   -2.8330   -1.0450 H   0  0  0  0  0  0  0  0  0  0  0  0
   -0.5670   -2.4450   -2.9190 H   0  0  0  0  0  0  0  0  0  0  0  0
   -1.9920    0.2370   -2.7460 H   0  0  0  0  0  0  0  0  0  0  0  0
   -1.7760   -0.9110   -4.0820 H   0  0  0  0  0  0  0  0  0  0  0  0
   -0.3190   -0.0980   -3.4470 H   0  0  0  0  0  0  0  0  0  0  0  0
   -0.0080   -2.3800   -0.5540 H   0  0  0  0  0  0  0  0  0  0  0  0
    0.7720   -1.0390   -1.5210 H   0  0  0  0  0  0  0  0  0  0  0  0
   -0.5270    0.6070   -0.5290 H   0  0  0  0  0  0  0  0  0  0  0  0
    0.7540   -1.2330    1.4960 H   0  0  0  0  0  0  0  0  0  0  0  0
   -2.5550   -6.8280    0.2310 O   0  0  0  0  0  0  0  0  0  0  0  0
   -2.6910   -5.7140    1.0590 C   0  0  0  0  0  0  0  0  0  0  0  0
   -3.9580   -5.1790    1.3230 C   0  0  0  0  0  0  0  0  0  0  0  0
   -4.0750   -4.0760    2.1450 C   0  0  0  0  0  0  0  0  0  0  0  0
   -2.9920   -3.4600    2.7300 C   0  0  0  0  0  0  0  0  0  0  0  0
   -3.1130   -2.2680    3.6230 C   0  0  0  0  0  0  0  0  0  0  0  0
   -3.0540   -0.9660    2.8550 C   0  0  2  0  0  0  0  0  0  0  0  0
   -1.8240   -0.8080    2.1290 N   0  0  0  0  0  0  0  0  0  0  0  0
   -3.1460    0.1170    3.8660 C   0  0  0  0  0  0  0  0  0  0  0  0
   -4.1440    0.1700    4.6190 O   0  0  0  0  0  0  0  0  0  0  0  0
   -1.7490   -3.9890    2.4670 C   0  0  0  0  0  0  0  0  0  0  0  0
   -1.6230   -5.0860    1.6510 C   0  0  0  0  0  0  0  0  0  0  0  0
   -2.1490    1.0610    3.9860 O   0  0  0  0  0  0  0  0  0  0  0  0
   -2.1250   -7.6440    0.6880 H   0  0  0  0  0  0  0  0  0  0  0  0
   -4.7900   -5.6780    0.8550 H   0  0  0  0  0  0  0  0  0  0  0  0
   -5.0800   -3.6830    2.3300 H   0  0  0  0  0  0  0  0  0  0  0  0
   -4.1250   -2.3180    4.0820 H   0  0  0  0  0  0  0  0  0  0  0  0
   -2.3840   -2.3160    4.4470 H   0  0  0  0  0  0  0  0  0  0  0  0
   -3.9390   -0.9540    2.1710 H   0  0  0  0  0  0  0  0  0  0  0  0
   -0.9020   -0.8460    2.5980 H   0  0  0  0  0  0  0  0  0  0  0  0
   -0.8820   -3.5380    2.9030 H   0  0  0  0  0  0  0  0  0  0  0  0
   -0.6200   -5.4890    1.4570 H   0  0  0  0  0  0  0  0  0  0  0  0
  1 16  1  0  0  0  0
  2 17  1  1  0  0  0
  2  1  1  0  0  0  0
  3  2  1  0  0  0  0
  3 19  1  0  0  0  0
  4  5  2  0  0  0  0
  4  3  1  0  0  0  0
  5 20  1  0  0  0  0
  6  5  1  0  0  0  0
  7 12  1  0  0  0  0
  7  6  1  0  0  0  0
  8  7  2  0  0  0  0
  9 10  2  0  0  0  0
  9  8  1  0  0  0  0
 10 11  1  0  0  0  0
 11 25  1  0  0  0  0
 11 12  2  0  0  0  0
 12  4  1  0  0  0  0
 13  2  1  0  0  0  0
 14 13  2  0  0  0  0
 15  1  1  0  0  0  0
 18  3  1  0  0  0  0
 21  6  1  0  0  0  0
 22  8  1  0  0  0  0
 23  9  1  0  0  0  0
 24 10  1  0  0  0  0
 26 36  1  0  0  0  0
 27 26  1  0  0  0  0
 27 29  1  0  0  0  0
 28 38  1  0  0  0  0
 28 27  1  0  0  0  0
 29 41  1  0  0  0  0
 29 30  1  0  0  0  0
 30 43  1  6  0  0  0
 30 32  1  0  0  0  0
 30 31  1  0  0  0  0
 31 13  1  0  0  0  0
 31 44  1  0  0  0  0
 32 52  1  0  0  0  0
 33 32  2  0  0  0  0
 34 26  1  0  0  0  0
 35 26  1  0  0  0  0
 37 27  1  0  0  0  0
 39 28  1  0  0  0  0
 40 28  1  0  0  0  0
 42 29  1  0  0  0  0
 45 58  1  0  0  0  0
 45 46  1  0  0  0  0
 46 47  2  0  0  0  0
 46 56  1  0  0  0  0
 47 48  1  0  0  0  0
 48 60  1  0  0  0  0
 48 49  2  0  0  0  0
 49 50  1  0  0  0  0
 50 61  1  0  0  0  0
 50 62  1  0  0  0  0
 51 63  1  6  0  0  0
 51 50  1  0  0  0  0
 51 53  1  0  0  0  0
 52 64  1  0  0  0  0
 52 51  1  0  0  0  0
 53 57  2  0  0  0  0
 53 54  1  0  0  0  0
 55 49  1  0  0  0  0
 55 65  1  0  0  0  0
 56 55  2  0  0  0  0
 59 47  1  0  0  0  0
 66 56  1  0  0  0  0
M  END
$$$$
