WMA.pdb
 OpenBabel07022419173D

 53 54  0  0  1  0  0  0  0  0999 V2000
    0.9500   -0.7250   -0.5710 N   0  0  0  0  0  0  0  0  0  0  0  0
    0.9340   -0.4060    0.8320 C   0  0  1  0  0  0  0  0  0  0  0  0
    1.6160    0.8900    1.0930 C   0  0  0  0  0  0  0  0  0  0  0  0
    3.0200    0.8170    0.6430 C   0  0  0  0  0  0  0  0  0  0  0  0
    4.1150    0.5390    1.4500 C   0  0  0  0  0  0  0  0  0  0  0  0
    5.2270    0.5220    0.7010 N   0  0  0  0  0  0  0  0  0  0  0  0
    4.9070    0.7810   -0.5760 C   0  0  0  0  0  0  0  0  0  0  0  0
    5.6700    0.8830   -1.7160 C   0  0  0  0  0  0  0  0  0  0  0  0
    5.1090    1.1750   -2.9520 C   0  0  0  0  0  0  0  0  0  0  0  0
    3.7450    1.3600   -2.9930 C   0  0  0  0  0  0  0  0  0  0  0  0
    2.9830    1.2550   -1.8410 C   0  0  0  0  0  0  0  0  0  0  0  0
    3.5260    0.9690   -0.6270 C   0  0  0  0  0  0  0  0  0  0  0  0
   -0.4580   -0.4380    1.3820 C   0  0  0  0  0  0  0  0  0  0  0  0
   -0.5940   -0.1890    2.6140 O   0  0  0  0  0  0  0  0  0  0  0  0
    0.6250   -1.7110   -0.6760 H   0  0  0  0  0  0  0  0  0  0  0  0
    0.2640   -0.1180   -1.0460 H   0  0  0  0  0  0  0  0  0  0  0  0
    1.5270   -1.2010    1.3410 H   0  0  0  0  0  0  0  0  0  0  0  0
    1.1120    1.6970    0.5130 H   0  0  0  0  0  0  0  0  0  0  0  0
    1.5370    1.1980    2.1630 H   0  0  0  0  0  0  0  0  0  0  0  0
    4.1060    0.3580    2.5220 H   0  0  0  0  0  0  0  0  0  0  0  0
    6.2140    0.3430    1.0040 H   0  0  0  0  0  0  0  0  0  0  0  0
    6.7240    0.7360   -1.6630 H   0  0  0  0  0  0  0  0  0  0  0  0
    5.7140    1.2510   -3.8360 H   0  0  0  0  0  0  0  0  0  0  0  0
    3.3020    1.5890   -3.9580 H   0  0  0  0  0  0  0  0  0  0  0  0
    1.9220    1.4210   -1.9150 H   0  0  0  0  0  0  0  0  0  0  0  0
   -2.4750    2.4740    2.2870 C   0  0  0  0  0  0  0  0  0  0  0  0
   -3.8840    2.4320    1.2060 S   0  0  0  0  0  0  0  0  0  0  0  0
   -3.8500    1.2550   -0.1250 C   0  0  0  0  0  0  0  0  0  0  0  0
   -3.9920   -0.1760    0.2840 C   0  0  0  0  0  0  0  0  0  0  0  0
   -2.9580   -0.7470    1.1690 C   0  0  2  0  0  0  0  0  0  0  0  0
   -1.6030   -0.7230    0.6300 N   0  0  0  0  0  0  0  0  0  0  0  0
   -3.2790   -2.2130    1.4600 C   0  0  0  0  0  0  0  0  0  0  0  0
   -4.3910   -2.5330    1.9480 O   0  0  0  0  0  0  0  0  0  0  0  0
   -2.2900    3.5230    2.6580 H   0  0  0  0  0  0  0  0  0  0  0  0
   -1.5130    2.2130    1.7870 H   0  0  0  0  0  0  0  0  0  0  0  0
   -2.6260    1.7850    3.1320 H   0  0  0  0  0  0  0  0  0  0  0  0
   -4.6780    1.5500   -0.8460 H   0  0  0  0  0  0  0  0  0  0  0  0
   -2.9270    1.3930   -0.7820 H   0  0  0  0  0  0  0  0  0  0  0  0
   -4.9690   -0.2250    0.8710 H   0  0  0  0  0  0  0  0  0  0  0  0
   -4.2230   -0.8350   -0.6030 H   0  0  0  0  0  0  0  0  0  0  0  0
   -3.0030   -0.2990    2.1730 H   0  0  0  0  0  0  0  0  0  0  0  0
   -1.4830   -0.9350   -0.3890 H   0  0  0  0  0  0  0  0  0  0  0  0
   -2.5040   -5.3890    0.1710 C   0  0  0  0  0  0  0  0  0  0  0  0
   -2.6540   -4.6320    1.4710 C   0  0  2  0  0  0  0  0  0  0  0  0
   -2.3510   -3.2420    1.1950 N   0  0  0  0  0  0  0  0  0  0  0  0
   -1.6620   -5.2140    2.4290 C   0  0  0  0  0  0  0  0  0  0  0  0
   -1.7340   -6.3910    2.8020 O   0  0  0  0  0  0  0  0  0  0  0  0
   -0.6430   -4.3960    2.8990 O   0  0  0  0  0  0  0  0  0  0  0  0
   -2.6630   -6.4810    0.3000 H   0  0  0  0  0  0  0  0  0  0  0  0
   -3.1320   -4.9690   -0.6370 H   0  0  0  0  0  0  0  0  0  0  0  0
   -1.4430   -5.2470   -0.1590 H   0  0  0  0  0  0  0  0  0  0  0  0
   -3.6630   -4.7410    1.8970 H   0  0  0  0  0  0  0  0  0  0  0  0
   -1.4110   -3.0080    0.7850 H   0  0  0  0  0  0  0  0  0  0  0  0
  1  2  1  0  0  0  0
  2  3  1  0  0  0  0
  2 17  1  1  0  0  0
  2 13  1  0  0  0  0
  3 19  1  0  0  0  0
  4  3  1  0  0  0  0
  4  5  2  0  0  0  0
  5 20  1  0  0  0  0
  6 21  1  0  0  0  0
  6  5  1  0  0  0  0
  7  6  1  0  0  0  0
  8 22  1  0  0  0  0
  8  7  2  0  0  0  0
  9  8  1  0  0  0  0
 10  9  2  0  0  0  0
 10 11  1  0  0  0  0
 11 12  2  0  0  0  0
 12  7  1  0  0  0  0
 12  4  1  0  0  0  0
 13 14  2  0  0  0  0
 15  1  1  0  0  0  0
 16  1  1  0  0  0  0
 18  3  1  0  0  0  0
 23  9  1  0  0  0  0
 24 10  1  0  0  0  0
 25 11  1  0  0  0  0
 26 34  1  0  0  0  0
 26 36  1  0  0  0  0
 27 26  1  0  0  0  0
 28 29  1  0  0  0  0
 28 27  1  0  0  0  0
 29 39  1  0  0  0  0
 29 30  1  0  0  0  0
 30 32  1  0  0  0  0
 30 41  1  1  0  0  0
 31 30  1  0  0  0  0
 31 13  1  0  0  0  0
 32 33  2  0  0  0  0
 35 26  1  0  0  0  0
 37 28  1  0  0  0  0
 38 28  1  0  0  0  0
 40 29  1  0  0  0  0
 42 31  1  0  0  0  0
 43 49  1  0  0  0  0
 43 44  1  0  0  0  0
 44 52  1  1  0  0  0
 44 46  1  0  0  0  0
 45 32  1  0  0  0  0
 45 44  1  0  0  0  0
 46 47  2  0  0  0  0
 46 48  1  0  0  0  0
 50 43  1  0  0  0  0
 51 43  1  0  0  0  0
 53 45  1  0  0  0  0
M  END
$$$$
