WME.pdb
 OpenBabel07022419183D

 59 60  0  0  1  0  0  0  0  0999 V2000
    3.2450   -0.8090    0.0380 N   0  0  0  0  0  0  0  0  0  0  0  0
    2.5770   -0.8150    1.2860 C   0  0  1  0  0  0  0  0  0  0  0  0
    3.2110    0.0880    2.3330 C   0  0  0  0  0  0  0  0  0  0  0  0
    3.2410    1.4830    1.8340 C   0  0  0  0  0  0  0  0  0  0  0  0
    2.3350    2.4990    2.1150 C   0  0  0  0  0  0  0  0  0  0  0  0
    2.6950    3.5960    1.4550 N   0  0  0  0  0  0  0  0  0  0  0  0
    3.8220    3.3870    0.7190 C   0  0  0  0  0  0  0  0  0  0  0  0
    4.5690    4.1940   -0.1050 C   0  0  0  0  0  0  0  0  0  0  0  0
    5.6980    3.7280   -0.7380 C   0  0  0  0  0  0  0  0  0  0  0  0
    6.0280    2.3920   -0.4880 C   0  0  0  0  0  0  0  0  0  0  0  0
    5.2770    1.5900    0.3370 C   0  0  0  0  0  0  0  0  0  0  0  0
    4.1560    2.0580    0.9640 C   0  0  0  0  0  0  0  0  0  0  0  0
    1.1150   -0.7450    1.2580 C   0  0  0  0  0  0  0  0  0  0  0  0
    0.5340   -0.7550    2.4020 O   0  0  0  0  0  0  0  0  0  0  0  0
    4.1440   -1.3310    0.0140 H   0  0  0  0  0  0  0  0  0  0  0  0
    2.6630   -0.9020   -0.8040 H   0  0  0  0  0  0  0  0  0  0  0  0
    2.7930   -1.8680    1.7120 H   0  0  0  0  0  0  0  0  0  0  0  0
    4.2300   -0.2780    2.5310 H   0  0  0  0  0  0  0  0  0  0  0  0
    2.6030    0.0490    3.2670 H   0  0  0  0  0  0  0  0  0  0  0  0
    1.4760    2.3820    2.7780 H   0  0  0  0  0  0  0  0  0  0  0  0
    2.1990    4.5180    1.4720 H   0  0  0  0  0  0  0  0  0  0  0  0
    4.2810    5.2230   -0.2720 H   0  0  0  0  0  0  0  0  0  0  0  0
    6.3070    4.3340   -1.3940 H   0  0  0  0  0  0  0  0  0  0  0  0
    6.9140    2.0210   -0.9830 H   0  0  0  0  0  0  0  0  0  0  0  0
    5.5620    0.5510    0.5260 H   0  0  0  0  0  0  0  0  0  0  0  0
   -3.6140   -0.0870    2.6580 C   0  0  0  0  0  0  0  0  0  0  0  0
   -3.7050    1.2680    1.5170 S   0  0  0  0  0  0  0  0  0  0  0  0
   -3.1340    0.9890   -0.1480 C   0  0  0  0  0  0  0  0  0  0  0  0
   -1.6990    0.6650   -0.2590 C   0  0  0  0  0  0  0  0  0  0  0  0
   -1.2220   -0.6170    0.3270 C   0  0  2  0  0  0  0  0  0  0  0  0
    0.2670   -0.6720    0.1510 N   0  0  0  0  0  0  0  0  0  0  0  0
   -1.7000   -1.8050   -0.4460 C   0  0  0  0  0  0  0  0  0  0  0  0
   -0.8490   -2.4170   -1.1500 O   0  0  0  0  0  0  0  0  0  0  0  0
   -4.4400   -0.0200    3.4450 H   0  0  0  0  0  0  0  0  0  0  0  0
   -2.6680   -0.0040    3.2860 H   0  0  0  0  0  0  0  0  0  0  0  0
   -3.6040   -1.0860    2.2150 H   0  0  0  0  0  0  0  0  0  0  0  0
   -3.3330    1.9470   -0.7370 H   0  0  0  0  0  0  0  0  0  0  0  0
   -3.7580    0.2490   -0.7290 H   0  0  0  0  0  0  0  0  0  0  0  0
   -1.0980    1.5340    0.1550 H   0  0  0  0  0  0  0  0  0  0  0  0
   -1.3790    0.6600   -1.3470 H   0  0  0  0  0  0  0  0  0  0  0  0
   -1.4140   -0.6830    1.3880 H   0  0  0  0  0  0  0  0  0  0  0  0
    0.6540   -0.6560   -0.8020 H   0  0  0  0  0  0  0  0  0  0  0  0
   -3.0080   -2.3240   -0.4730 N   0  0  0  0  0  0  0  0  0  0  0  0
   -3.3560   -3.4940   -1.2880 C   0  0  1  0  0  0  0  0  0  0  0  0
   -3.4580   -4.7400   -0.4210 C   0  0  0  0  0  0  0  0  0  0  0  0
   -2.1080   -4.9700    0.2310 C   0  0  0  0  0  0  0  0  0  0  0  0
   -2.0410   -6.1360    1.1010 C   0  0  0  0  0  0  0  0  0  0  0  0
   -0.9150   -6.3370    1.6770 O   0  0  0  0  0  0  0  0  0  0  0  0
   -4.5740   -3.1840   -2.0350 C   0  0  0  0  0  0  0  0  0  0  0  0
   -5.1630   -2.0690   -1.9150 O   0  0  0  0  0  0  0  0  0  0  0  0
   -3.0330   -7.0430    1.3760 O   0  0  0  0  0  0  0  0  0  0  0  0
   -5.1390   -4.0920   -2.9130 O   0  0  0  0  0  0  0  0  0  0  0  0
   -3.7290   -1.8710    0.1050 H   0  0  0  0  0  0  0  0  0  0  0  0
   -2.5460   -3.7160   -2.0240 H   0  0  0  0  0  0  0  0  0  0  0  0
   -4.2820   -4.7450    0.2840 H   0  0  0  0  0  0  0  0  0  0  0  0
   -3.6050   -5.5910   -1.1150 H   0  0  0  0  0  0  0  0  0  0  0  0
   -1.3230   -5.0910   -0.5430 H   0  0  0  0  0  0  0  0  0  0  0  0
   -1.8610   -4.0550    0.8080 H   0  0  0  0  0  0  0  0  0  0  0  0
   -2.8600   -7.8370    2.0150 H   0  0  0  0  0  0  0  0  0  0  0  0
  1  2  1  0  0  0  0
  2 17  1  1  0  0  0
  2  3  1  0  0  0  0
  3 18  1  0  0  0  0
  3 19  1  0  0  0  0
  4  5  2  0  0  0  0
  4  3  1  0  0  0  0
  5 20  1  0  0  0  0
  6 21  1  0  0  0  0
  6  5  1  0  0  0  0
  7 12  1  0  0  0  0
  7  6  1  0  0  0  0
  8  7  2  0  0  0  0
  9 10  2  0  0  0  0
  9  8  1  0  0  0  0
 10 11  1  0  0  0  0
 11 25  1  0  0  0  0
 11 12  2  0  0  0  0
 12  4  1  0  0  0  0
 13  2  1  0  0  0  0
 13 14  2  0  0  0  0
 15  1  1  0  0  0  0
 16  1  1  0  0  0  0
 22  8  1  0  0  0  0
 23  9  1  0  0  0  0
 24 10  1  0  0  0  0
 26 35  1  0  0  0  0
 26 34  1  0  0  0  0
 27 26  1  0  0  0  0
 28 27  1  0  0  0  0
 29 28  1  0  0  0  0
 29 39  1  0  0  0  0
 29 30  1  0  0  0  0
 30 41  1  1  0  0  0
 31 30  1  0  0  0  0
 31 13  1  0  0  0  0
 32 30  1  0  0  0  0
 33 32  2  0  0  0  0
 36 26  1  0  0  0  0
 37 28  1  0  0  0  0
 38 28  1  0  0  0  0
 40 29  1  0  0  0  0
 42 31  1  0  0  0  0
 43 32  1  0  0  0  0
 43 53  1  0  0  0  0
 44 54  1  6  0  0  0
 44 43  1  0  0  0  0
 44 45  1  0  0  0  0
 45 46  1  0  0  0  0
 45 55  1  0  0  0  0
 46 58  1  0  0  0  0
 46 47  1  0  0  0  0
 47 51  1  0  0  0  0
 47 48  2  0  0  0  0
 49 50  1  0  0  0  0
 49 44  1  0  0  0  0
 51 59  1  0  0  0  0
 52 49  2  0  0  0  0
 56 45  1  0  0  0  0
 57 46  1  0  0  0  0
M  END
$$$$
