WMG.pdb
 OpenBabel07022419183D

 50 51  0  0  1  0  0  0  0  0999 V2000
   -0.4240   -0.7770    3.8080 N   0  0  0  0  0  0  0  0  0  0  0  0
   -0.2550    0.4460    2.9890 C   0  0  1  0  0  0  0  0  0  0  0  0
    1.0950    0.9640    3.3300 C   0  0  0  0  0  0  0  0  0  0  0  0
    1.5610    2.1610    2.6650 C   0  0  0  0  0  0  0  0  0  0  0  0
    1.5090    3.4480    3.1500 C   0  0  0  0  0  0  0  0  0  0  0  0
    2.0100    4.3090    2.2620 N   0  0  0  0  0  0  0  0  0  0  0  0
    2.4000    3.6010    1.1780 C   0  0  0  0  0  0  0  0  0  0  0  0
    2.9830    4.0070   -0.0030 C   0  0  0  0  0  0  0  0  0  0  0  0
    3.3060    3.0850   -0.9700 C   0  0  0  0  0  0  0  0  0  0  0  0
    3.0380    1.7540   -0.7410 C   0  0  0  0  0  0  0  0  0  0  0  0
    2.4580    1.3370    0.4290 C   0  0  0  0  0  0  0  0  0  0  0  0
    2.1300    2.2520    1.4040 C   0  0  0  0  0  0  0  0  0  0  0  0
   -0.5510    0.1720    1.5970 C   0  0  0  0  0  0  0  0  0  0  0  0
   -0.6680    1.1080    0.7710 O   0  0  0  0  0  0  0  0  0  0  0  0
    0.2860   -1.4580    3.4800 H   0  0  0  0  0  0  0  0  0  0  0  0
   -1.3940   -1.1050    3.8180 H   0  0  0  0  0  0  0  0  0  0  0  0
   -1.0050    1.1560    3.4640 H   0  0  0  0  0  0  0  0  0  0  0  0
    1.8150    0.1040    3.2580 H   0  0  0  0  0  0  0  0  0  0  0  0
    1.0740    1.1680    4.4470 H   0  0  0  0  0  0  0  0  0  0  0  0
    1.1150    3.7090    4.1170 H   0  0  0  0  0  0  0  0  0  0  0  0
    2.0960    5.3330    2.3570 H   0  0  0  0  0  0  0  0  0  0  0  0
    3.1930    5.0770   -0.1760 H   0  0  0  0  0  0  0  0  0  0  0  0
    3.7710    3.3970   -1.9180 H   0  0  0  0  0  0  0  0  0  0  0  0
    3.3130    1.0560   -1.5390 H   0  0  0  0  0  0  0  0  0  0  0  0
    2.2470    0.2920    0.6090 H   0  0  0  0  0  0  0  0  0  0  0  0
    2.0790   -4.5140    1.5840 C   0  0  0  0  0  0  0  0  0  0  0  0
    1.3700   -3.0010    0.9390 S   0  0  0  0  0  0  0  0  0  0  0  0
    0.6880   -3.1640   -0.7010 C   0  0  0  0  0  0  0  0  0  0  0  0
    0.1200   -1.8580   -1.1590 C   0  0  0  0  0  0  0  0  0  0  0  0
   -1.0170   -1.3900   -0.3080 C   0  0  2  0  0  0  0  0  0  0  0  0
   -0.7260   -1.1710    1.0810 N   0  0  0  0  0  0  0  0  0  0  0  0
   -2.1620   -2.3270   -0.4410 C   0  0  0  0  0  0  0  0  0  0  0  0
   -2.7190   -2.8050    0.5880 O   0  0  0  0  0  0  0  0  0  0  0  0
    1.4030   -5.3980    1.4460 H   0  0  0  0  0  0  0  0  0  0  0  0
    2.1660   -4.4010    2.6980 H   0  0  0  0  0  0  0  0  0  0  0  0
    3.1060   -4.7200    1.2240 H   0  0  0  0  0  0  0  0  0  0  0  0
   -0.0380   -4.0030   -0.7980 H   0  0  0  0  0  0  0  0  0  0  0  0
    1.4870   -3.4300   -1.4620 H   0  0  0  0  0  0  0  0  0  0  0  0
    0.9280   -1.0870   -1.2210 H   0  0  0  0  0  0  0  0  0  0  0  0
   -0.2910   -1.9430   -2.2090 H   0  0  0  0  0  0  0  0  0  0  0  0
   -1.3200   -0.3850   -0.7820 H   0  0  0  0  0  0  0  0  0  0  0  0
   -0.6580   -1.9720    1.7470 H   0  0  0  0  0  0  0  0  0  0  0  0
   -2.6870   -2.7320   -1.6920 N   0  0  0  0  0  0  0  0  0  0  0  0
   -3.8050   -3.6490   -1.7620 C   0  0  0  0  0  0  0  0  0  0  0  0
   -5.0060   -3.1420   -1.1020 C   0  0  0  0  0  0  0  0  0  0  0  0
   -4.9990   -2.0220   -0.5500 O   0  0  0  0  0  0  0  0  0  0  0  0
   -6.1590   -3.8960   -1.0810 O   0  0  0  0  0  0  0  0  0  0  0  0
   -2.2500   -2.3560   -2.5840 H   0  0  0  0  0  0  0  0  0  0  0  0
   -3.5040   -4.6630   -1.3670 H   0  0  0  0  0  0  0  0  0  0  0  0
   -4.0350   -3.8510   -2.8490 H   0  0  0  0  0  0  0  0  0  0  0  0
  1 16  1  0  0  0  0
  2  3  1  0  0  0  0
  2 17  1  1  0  0  0
  2  1  1  0  0  0  0
  3 19  1  0  0  0  0
  4  5  2  0  0  0  0
  4  3  1  0  0  0  0
  5 20  1  0  0  0  0
  6 21  1  0  0  0  0
  6  5  1  0  0  0  0
  7 12  1  0  0  0  0
  7  6  1  0  0  0  0
  8  7  2  0  0  0  0
  9 10  2  0  0  0  0
  9  8  1  0  0  0  0
 10 11  1  0  0  0  0
 11 25  1  0  0  0  0
 11 12  2  0  0  0  0
 12  4  1  0  0  0  0
 13  2  1  0  0  0  0
 14 13  2  0  0  0  0
 15  1  1  0  0  0  0
 18  3  1  0  0  0  0
 22  8  1  0  0  0  0
 23  9  1  0  0  0  0
 24 10  1  0  0  0  0
 26 35  1  0  0  0  0
 27 26  1  0  0  0  0
 28 27  1  0  0  0  0
 29 28  1  0  0  0  0
 29 30  1  0  0  0  0
 30 41  1  6  0  0  0
 30 31  1  0  0  0  0
 31 13  1  0  0  0  0
 31 42  1  0  0  0  0
 32 30  1  0  0  0  0
 32 33  2  0  0  0  0
 34 26  1  0  0  0  0
 36 26  1  0  0  0  0
 37 28  1  0  0  0  0
 38 28  1  0  0  0  0
 39 29  1  0  0  0  0
 40 29  1  0  0  0  0
 43 32  1  0  0  0  0
 44 43  1  0  0  0  0
 44 49  1  0  0  0  0
 44 45  1  0  0  0  0
 45 47  2  0  0  0  0
 45 46  1  0  0  0  0
 48 43  1  0  0  0  0
 50 44  1  0  0  0  0
M  END
$$$$
