WMH.pdb
 OpenBabel07022419183D

 60 62  0  0  1  0  0  0  0  0999 V2000
    0.6660    2.2070    3.8640 N   0  0  0  0  0  0  0  0  0  0  0  0
   -0.0110    1.9430    2.5680 C   0  0  1  0  0  0  0  0  0  0  0  0
    0.9200    2.5650    1.5530 C   0  0  0  0  0  0  0  0  0  0  0  0
    2.2470    1.9160    1.6700 C   0  0  0  0  0  0  0  0  0  0  0  0
    3.3110    2.3700    2.4620 C   0  0  0  0  0  0  0  0  0  0  0  0
    4.3190    1.4970    2.3530 N   0  0  0  0  0  0  0  0  0  0  0  0
    3.9750    0.4930    1.5290 C   0  0  0  0  0  0  0  0  0  0  0  0
    4.6670   -0.6020    1.1110 C   0  0  0  0  0  0  0  0  0  0  0  0
    4.1140   -1.5060    0.2390 C   0  0  0  0  0  0  0  0  0  0  0  0
    2.8330   -1.2470   -0.1870 C   0  0  0  0  0  0  0  0  0  0  0  0
    2.1250   -0.1460    0.2280 C   0  0  0  0  0  0  0  0  0  0  0  0
    2.6920    0.7520    1.1050 C   0  0  0  0  0  0  0  0  0  0  0  0
   -0.1280    0.5230    2.4010 C   0  0  0  0  0  0  0  0  0  0  0  0
    0.6210   -0.2560    3.0810 O   0  0  0  0  0  0  0  0  0  0  0  0
    1.4410    1.4950    3.9190 H   0  0  0  0  0  0  0  0  0  0  0  0
    0.0330    2.0270    4.6580 H   0  0  0  0  0  0  0  0  0  0  0  0
   -0.9650    2.5120    2.5430 H   0  0  0  0  0  0  0  0  0  0  0  0
    1.0740    3.6470    1.7620 H   0  0  0  0  0  0  0  0  0  0  0  0
    0.4720    2.4290    0.5300 H   0  0  0  0  0  0  0  0  0  0  0  0
    3.2830    3.2690    3.0430 H   0  0  0  0  0  0  0  0  0  0  0  0
    5.2460    1.5850    2.8410 H   0  0  0  0  0  0  0  0  0  0  0  0
    5.6820   -0.7970    1.4560 H   0  0  0  0  0  0  0  0  0  0  0  0
    4.6930   -2.3640   -0.0710 H   0  0  0  0  0  0  0  0  0  0  0  0
    2.4040   -1.9720   -0.8820 H   0  0  0  0  0  0  0  0  0  0  0  0
    1.1280    0.0410   -0.1350 H   0  0  0  0  0  0  0  0  0  0  0  0
   -4.0460    0.6080    3.4940 C   0  0  0  0  0  0  0  0  0  0  0  0
   -3.9570    0.0070    1.8080 S   0  0  0  0  0  0  0  0  0  0  0  0
   -3.6020   -1.7370    1.6960 C   0  0  0  0  0  0  0  0  0  0  0  0
   -2.2680   -2.1700    2.1620 C   0  0  0  0  0  0  0  0  0  0  0  0
   -1.0910   -1.5570    1.4120 C   0  0  2  0  0  0  0  0  0  0  0  0
   -1.0530   -0.1310    1.5050 N   0  0  0  0  0  0  0  0  0  0  0  0
   -1.1180   -2.0700   -0.0130 C   0  0  0  0  0  0  0  0  0  0  0  0
   -1.1320   -3.3040   -0.2100 O   0  0  0  0  0  0  0  0  0  0  0  0
   -3.6330   -0.1700    4.1670 H   0  0  0  0  0  0  0  0  0  0  0  0
   -5.1010    0.7910    3.7730 H   0  0  0  0  0  0  0  0  0  0  0  0
   -3.4260    1.5180    3.6640 H   0  0  0  0  0  0  0  0  0  0  0  0
   -4.3510   -2.2680    2.3490 H   0  0  0  0  0  0  0  0  0  0  0  0
   -3.8640   -2.0730    0.6710 H   0  0  0  0  0  0  0  0  0  0  0  0
   -2.1840   -3.2520    2.0790 H   0  0  0  0  0  0  0  0  0  0  0  0
   -2.1480   -1.8470    3.2180 H   0  0  0  0  0  0  0  0  0  0  0  0
   -0.2040   -1.9600    1.9690 H   0  0  0  0  0  0  0  0  0  0  0  0
   -1.6470    0.5490    0.9770 H   0  0  0  0  0  0  0  0  0  0  0  0
   -1.1300   -1.2400   -1.1280 N   0  0  0  0  0  0  0  0  0  0  0  0
   -1.1290   -1.4110   -2.5240 C   0  0  1  0  0  0  0  0  0  0  0  0
   -1.7090   -2.6130   -3.1800 C   0  0  0  0  0  0  0  0  0  0  0  0
   -0.9930   -3.8690   -2.9910 C   0  0  0  0  0  0  0  0  0  0  0  0
    0.2550   -4.1660   -2.4890 C   0  0  0  0  0  0  0  0  0  0  0  0
    0.5370   -5.4660   -2.6320 N   0  0  0  0  0  0  0  0  0  0  0  0
   -0.5370   -6.0140   -3.2300 C   0  0  0  0  0  0  0  0  0  0  0  0
   -1.4570   -5.0710   -3.4490 N   0  0  0  0  0  0  0  0  0  0  0  0
   -1.4400   -0.1950   -3.2940 C   0  0  0  0  0  0  0  0  0  0  0  0
   -1.4650   -0.2440   -4.5430 O   0  0  0  0  0  0  0  0  0  0  0  0
   -1.7100    1.0130   -2.6850 O   0  0  0  0  0  0  0  0  0  0  0  0
   -1.1460   -0.1660   -0.8080 H   0  0  0  0  0  0  0  0  0  0  0  0
    0.0340   -1.6780   -2.7000 H   0  0  0  0  0  0  0  0  0  0  0  0
   -2.8130   -2.7170   -2.9790 H   0  0  0  0  0  0  0  0  0  0  0  0
   -1.7020   -2.3780   -4.2960 H   0  0  0  0  0  0  0  0  0  0  0  0
    0.9120   -3.4370   -2.0410 H   0  0  0  0  0  0  0  0  0  0  0  0
    1.4020   -5.9940   -2.3510 H   0  0  0  0  0  0  0  0  0  0  0  0
   -0.6290   -7.0590   -3.4880 H   0  0  0  0  0  0  0  0  0  0  0  0
  1 15  1  0  0  0  0
  1 16  1  0  0  0  0
  2 17  1  6  0  0  0
  2  1  1  0  0  0  0
  3  4  1  0  0  0  0
  3 18  1  0  0  0  0
  3  2  1  0  0  0  0
  4  5  2  0  0  0  0
  5 20  1  0  0  0  0
  6  5  1  0  0  0  0
  6 21  1  0  0  0  0
  7  6  1  0  0  0  0
  8 22  1  0  0  0  0
  8  7  1  0  0  0  0
  9  8  2  0  0  0  0
 10 11  2  0  0  0  0
 10  9  1  0  0  0  0
 11 12  1  0  0  0  0
 12  7  2  0  0  0  0
 12  4  1  0  0  0  0
 13  2  1  0  0  0  0
 13 14  2  0  0  0  0
 19  3  1  0  0  0  0
 23  9  1  0  0  0  0
 24 10  1  0  0  0  0
 25 11  1  0  0  0  0
 26 36  1  0  0  0  0
 26 35  1  0  0  0  0
 26 34  1  0  0  0  0
 27 26  1  0  0  0  0
 28 27  1  0  0  0  0
 28 29  1  0  0  0  0
 28 37  1  0  0  0  0
 29 40  1  0  0  0  0
 30 31  1  0  0  0  0
 30 41  1  1  0  0  0
 30 29  1  0  0  0  0
 31 13  1  0  0  0  0
 32 30  1  0  0  0  0
 33 32  2  0  0  0  0
 38 28  1  0  0  0  0
 39 29  1  0  0  0  0
 42 31  1  0  0  0  0
 43 54  1  0  0  0  0
 43 32  1  0  0  0  0
 44 55  1  6  0  0  0
 44 43  1  0  0  0  0
 45 46  1  0  0  0  0
 45 56  1  0  0  0  0
 45 44  1  0  0  0  0
 46 47  2  0  0  0  0
 47 58  1  0  0  0  0
 48 47  1  0  0  0  0
 48 59  1  0  0  0  0
 49 48  1  0  0  0  0
 50 49  2  0  0  0  0
 50 46  1  0  0  0  0
 51 53  1  0  0  0  0
 51 44  1  0  0  0  0
 52 51  2  0  0  0  0
 57 45  1  0  0  0  0
 60 49  1  0  0  0  0
M  END
$$$$
