WMI.pdb
 OpenBabel07022419183D

 62 63  0  0  1  0  0  0  0  0999 V2000
    2.9310   -1.0470    0.8640 N   0  0  0  0  0  0  0  0  0  0  0  0
    1.8500   -0.8390    1.8010 C   0  0  1  0  0  0  0  0  0  0  0  0
    2.1690    0.3170    2.7150 C   0  0  0  0  0  0  0  0  0  0  0  0
    2.4130    1.5930    2.0460 C   0  0  0  0  0  0  0  0  0  0  0  0
    1.4950    2.6010    1.8750 C   0  0  0  0  0  0  0  0  0  0  0  0
    2.0750    3.5980    1.1910 N   0  0  0  0  0  0  0  0  0  0  0  0
    3.3460    3.2560    0.9180 C   0  0  0  0  0  0  0  0  0  0  0  0
    4.3690    3.9290    0.2470 C   0  0  0  0  0  0  0  0  0  0  0  0
    5.6170    3.3770    0.0930 C   0  0  0  0  0  0  0  0  0  0  0  0
    5.8300    2.1240    0.6290 C   0  0  0  0  0  0  0  0  0  0  0  0
    4.8400    1.4220    1.3030 C   0  0  0  0  0  0  0  0  0  0  0  0
    3.5780    2.0150    1.4400 C   0  0  0  0  0  0  0  0  0  0  0  0
    0.5750   -0.7330    1.0890 C   0  0  0  0  0  0  0  0  0  0  0  0
    0.5540   -0.4980   -0.1460 O   0  0  0  0  0  0  0  0  0  0  0  0
    2.9800   -2.0250    0.5160 H   0  0  0  0  0  0  0  0  0  0  0  0
    2.8910   -0.3740    0.0590 H   0  0  0  0  0  0  0  0  0  0  0  0
    1.8810   -1.7480    2.4790 H   0  0  0  0  0  0  0  0  0  0  0  0
    1.4070    0.3720    3.5320 H   0  0  0  0  0  0  0  0  0  0  0  0
    3.1230    0.0270    3.2420 H   0  0  0  0  0  0  0  0  0  0  0  0
    0.4580    2.6670    2.2020 H   0  0  0  0  0  0  0  0  0  0  0  0
    1.6360    4.5050    0.9030 H   0  0  0  0  0  0  0  0  0  0  0  0
    4.1410    4.9130   -0.1530 H   0  0  0  0  0  0  0  0  0  0  0  0
    6.4130    3.9010   -0.4300 H   0  0  0  0  0  0  0  0  0  0  0  0
    6.7990    1.6830    0.5160 H   0  0  0  0  0  0  0  0  0  0  0  0
    5.0260    0.4550    1.7220 H   0  0  0  0  0  0  0  0  0  0  0  0
   -2.2220    1.6250    5.2430 C   0  0  0  0  0  0  0  0  0  0  0  0
   -1.6080    1.1080    3.6160 S   0  0  0  0  0  0  0  0  0  0  0  0
   -3.0360    0.8910    2.5330 C   0  0  0  0  0  0  0  0  0  0  0  0
   -2.6950    0.4640    1.1430 C   0  0  0  0  0  0  0  0  0  0  0  0
   -1.9660   -0.8190    1.0970 C   0  0  2  0  0  0  0  0  0  0  0  0
   -0.7000   -0.8910    1.7470 N   0  0  0  0  0  0  0  0  0  0  0  0
   -2.0770   -1.5630   -0.1840 C   0  0  0  0  0  0  0  0  0  0  0  0
   -3.0310   -1.2480   -0.9230 O   0  0  0  0  0  0  0  0  0  0  0  0
   -1.4940    2.2810    5.7680 H   0  0  0  0  0  0  0  0  0  0  0  0
   -3.1950    2.1750    5.0940 H   0  0  0  0  0  0  0  0  0  0  0  0
   -2.4500    0.7700    5.9020 H   0  0  0  0  0  0  0  0  0  0  0  0
   -3.5790    1.8780    2.5290 H   0  0  0  0  0  0  0  0  0  0  0  0
   -3.7320    0.1950    3.0470 H   0  0  0  0  0  0  0  0  0  0  0  0
   -2.2010    1.3020    0.6170 H   0  0  0  0  0  0  0  0  0  0  0  0
   -3.6650    0.3140    0.6110 H   0  0  0  0  0  0  0  0  0  0  0  0
   -2.6370   -1.5260    1.7710 H   0  0  0  0  0  0  0  0  0  0  0  0
   -0.5990   -1.0720    2.7860 H   0  0  0  0  0  0  0  0  0  0  0  0
   -3.4420   -4.7990   -3.8700 C   0  0  0  0  0  0  0  0  0  0  0  0
   -2.3680   -5.2850   -2.9580 C   0  0  0  0  0  0  0  0  0  0  0  0
   -2.1200   -4.4720   -1.7320 C   0  0  2  0  0  0  0  0  0  0  0  0
   -3.4030   -4.3760   -0.9310 C   0  0  0  0  0  0  0  0  0  0  0  0
   -1.3070   -3.2610   -1.8400 C   0  0  2  0  0  0  0  0  0  0  0  0
   -1.1760   -2.5650   -0.5510 N   0  0  0  0  0  0  0  0  0  0  0  0
   -1.4700   -2.3630   -2.9810 C   0  0  0  0  0  0  0  0  0  0  0  0
   -1.5650   -2.7810   -4.1650 O   0  0  0  0  0  0  0  0  0  0  0  0
   -1.5350   -0.9550   -2.9040 O   0  0  0  0  0  0  0  0  0  0  0  0
   -4.3200   -5.5410   -3.8900 H   0  0  0  0  0  0  0  0  0  0  0  0
   -3.9270   -3.8580   -3.6020 H   0  0  0  0  0  0  0  0  0  0  0  0
   -3.0900   -4.8340   -4.9210 H   0  0  0  0  0  0  0  0  0  0  0  0
   -1.4250   -5.4990   -3.5240 H   0  0  0  0  0  0  0  0  0  0  0  0
   -2.6800   -6.3140   -2.5970 H   0  0  0  0  0  0  0  0  0  0  0  0
   -1.4390   -5.2030   -1.0970 H   0  0  0  0  0  0  0  0  0  0  0  0
   -3.1730   -3.8270    0.0060 H   0  0  0  0  0  0  0  0  0  0  0  0
   -4.2530   -4.0080   -1.4980 H   0  0  0  0  0  0  0  0  0  0  0  0
   -3.6860   -5.4130   -0.5840 H   0  0  0  0  0  0  0  0  0  0  0  0
   -0.2110   -3.6240   -1.9980 H   0  0  0  0  0  0  0  0  0  0  0  0
   -0.3960   -2.8660    0.1180 H   0  0  0  0  0  0  0  0  0  0  0  0
  1  2  1  0  0  0  0
  2 17  1  1  0  0  0
  2  3  1  0  0  0  0
  3 19  1  0  0  0  0
  3 18  1  0  0  0  0
  4  3  1  0  0  0  0
  5  4  2  0  0  0  0
  5 20  1  0  0  0  0
  6  5  1  0  0  0  0
  7  6  1  0  0  0  0
  7 12  1  0  0  0  0
  8  7  2  0  0  0  0
  9  8  1  0  0  0  0
  9 10  2  0  0  0  0
 10 11  1  0  0  0  0
 11 12  2  0  0  0  0
 11 25  1  0  0  0  0
 12  4  1  0  0  0  0
 13 31  1  0  0  0  0
 13  2  1  0  0  0  0
 14 13  2  0  0  0  0
 15  1  1  0  0  0  0
 16  1  1  0  0  0  0
 21  6  1  0  0  0  0
 22  8  1  0  0  0  0
 23  9  1  0  0  0  0
 24 10  1  0  0  0  0
 26 34  1  0  0  0  0
 26 36  1  0  0  0  0
 27 26  1  0  0  0  0
 28 38  1  0  0  0  0
 28 27  1  0  0  0  0
 29 28  1  0  0  0  0
 30 29  1  0  0  0  0
 30 31  1  0  0  0  0
 30 41  1  1  0  0  0
 31 42  1  0  0  0  0
 32 30  1  0  0  0  0
 33 32  2  0  0  0  0
 35 26  1  0  0  0  0
 37 28  1  0  0  0  0
 39 29  1  0  0  0  0
 40 29  1  0  0  0  0
 43 53  1  0  0  0  0
 43 44  1  0  0  0  0
 44 56  1  0  0  0  0
 44 45  1  0  0  0  0
 45 57  1  1  0  0  0
 45 46  1  0  0  0  0
 46 60  1  0  0  0  0
 46 58  1  0  0  0  0
 47 61  1  6  0  0  0
 47 45  1  0  0  0  0
 47 48  1  0  0  0  0
 48 32  1  0  0  0  0
 48 62  1  0  0  0  0
 49 51  1  0  0  0  0
 49 47  1  0  0  0  0
 50 49  2  0  0  0  0
 52 43  1  0  0  0  0
 54 43  1  0  0  0  0
 55 44  1  0  0  0  0
 59 46  1  0  0  0  0
M  END
$$$$
