WML.pdb
 OpenBabel07022419183D

 62 63  0  0  1  0  0  0  0  0999 V2000
    3.3930    0.9460    0.6650 N   0  0  0  0  0  0  0  0  0  0  0  0
    2.5080   -0.1350    0.9970 C   0  0  1  0  0  0  0  0  0  0  0  0
    2.8660   -0.6560    2.3760 C   0  0  0  0  0  0  0  0  0  0  0  0
    2.7720    0.4420    3.3700 C   0  0  0  0  0  0  0  0  0  0  0  0
    1.7490    0.8290    4.1700 C   0  0  0  0  0  0  0  0  0  0  0  0
    2.1560    1.9300    4.8160 N   0  0  0  0  0  0  0  0  0  0  0  0
    3.4080    2.2730    4.4710 C   0  0  0  0  0  0  0  0  0  0  0  0
    4.2730    3.3000    4.8420 C   0  0  0  0  0  0  0  0  0  0  0  0
    5.5270    3.3690    4.2910 C   0  0  0  0  0  0  0  0  0  0  0  0
    5.9690    2.4410    3.3620 C   0  0  0  0  0  0  0  0  0  0  0  0
    5.0890    1.4280    3.0110 C   0  0  0  0  0  0  0  0  0  0  0  0
    3.8240    1.3320    3.5440 C   0  0  0  0  0  0  0  0  0  0  0  0
    1.0850    0.2250    0.8730 C   0  0  0  0  0  0  0  0  0  0  0  0
    0.6330    1.2120    1.4780 O   0  0  0  0  0  0  0  0  0  0  0  0
    4.0090    0.7380   -0.1680 H   0  0  0  0  0  0  0  0  0  0  0  0
    2.9260    1.8710    0.6230 H   0  0  0  0  0  0  0  0  0  0  0  0
    2.7800   -0.9830    0.2990 H   0  0  0  0  0  0  0  0  0  0  0  0
    2.1360   -1.4590    2.6450 H   0  0  0  0  0  0  0  0  0  0  0  0
    3.8920   -1.0440    2.3140 H   0  0  0  0  0  0  0  0  0  0  0  0
    0.7880    0.3220    4.2490 H   0  0  0  0  0  0  0  0  0  0  0  0
    1.5740    2.4660    5.5200 H   0  0  0  0  0  0  0  0  0  0  0  0
    3.9420    4.0410    5.5710 H   0  0  0  0  0  0  0  0  0  0  0  0
    6.2180    4.1750    4.5690 H   0  0  0  0  0  0  0  0  0  0  0  0
    6.9500    2.4840    2.9340 H   0  0  0  0  0  0  0  0  0  0  0  0
    5.4200    0.6600    2.2990 H   0  0  0  0  0  0  0  0  0  0  0  0
   -1.9300    4.3680   -1.0820 C   0  0  0  0  0  0  0  0  0  0  0  0
   -2.6510    3.0530   -2.0990 S   0  0  0  0  0  0  0  0  0  0  0  0
   -2.7340    1.4850   -1.1580 C   0  0  0  0  0  0  0  0  0  0  0  0
   -1.3030    1.0820   -0.9060 C   0  0  0  0  0  0  0  0  0  0  0  0
   -1.2010   -0.2380   -0.0940 C   0  0  2  0  0  0  0  0  0  0  0  0
    0.1980   -0.5170    0.0710 N   0  0  0  0  0  0  0  0  0  0  0  0
   -2.0000   -1.2990   -0.6860 C   0  0  0  0  0  0  0  0  0  0  0  0
   -3.2870   -1.2170   -0.7040 O   0  0  0  0  0  0  0  0  0  0  0  0
   -0.8670    4.5500   -1.4190 H   0  0  0  0  0  0  0  0  0  0  0  0
   -1.9610    4.1190    0.0010 H   0  0  0  0  0  0  0  0  0  0  0  0
   -2.4620    5.3270   -1.2010 H   0  0  0  0  0  0  0  0  0  0  0  0
   -3.3010    0.8070   -1.7810 H   0  0  0  0  0  0  0  0  0  0  0  0
   -3.2010    1.7050   -0.1840 H   0  0  0  0  0  0  0  0  0  0  0  0
   -0.8770    1.8680   -0.2300 H   0  0  0  0  0  0  0  0  0  0  0  0
   -0.6830    1.0490   -1.8070 H   0  0  0  0  0  0  0  0  0  0  0  0
   -1.6570    0.0580    0.8840 H   0  0  0  0  0  0  0  0  0  0  0  0
    0.6380   -1.3280   -0.4200 H   0  0  0  0  0  0  0  0  0  0  0  0
   -4.4890   -6.3630   -0.4410 C   0  0  0  0  0  0  0  0  0  0  0  0
   -3.8720   -5.4380   -1.4780 C   0  0  0  0  0  0  0  0  0  0  0  0
   -3.0820   -6.3380   -2.4170 C   0  0  0  0  0  0  0  0  0  0  0  0
   -3.0050   -4.4010   -0.8470 C   0  0  0  0  0  0  0  0  0  0  0  0
   -2.3960   -3.5210   -1.8650 C   0  0  2  0  0  0  0  0  0  0  0  0
   -1.5280   -2.5090   -1.2860 N   0  0  0  0  0  0  0  0  0  0  0  0
   -3.2700   -2.9480   -2.8960 C   0  0  0  0  0  0  0  0  0  0  0  0
   -4.1310   -3.5330   -3.5710 O   0  0  0  0  0  0  0  0  0  0  0  0
   -3.1830   -1.5540   -3.2200 O   0  0  0  0  0  0  0  0  0  0  0  0
   -3.8020   -6.5740    0.3870 H   0  0  0  0  0  0  0  0  0  0  0  0
   -5.4570   -5.9140   -0.1140 H   0  0  0  0  0  0  0  0  0  0  0  0
   -4.7460   -7.3200   -0.9180 H   0  0  0  0  0  0  0  0  0  0  0  0
   -4.7180   -5.0150   -2.0690 H   0  0  0  0  0  0  0  0  0  0  0  0
   -3.7590   -7.1240   -2.8630 H   0  0  0  0  0  0  0  0  0  0  0  0
   -2.6430   -5.7940   -3.2750 H   0  0  0  0  0  0  0  0  0  0  0  0
   -2.2540   -6.8400   -1.9230 H   0  0  0  0  0  0  0  0  0  0  0  0
   -2.1300   -5.0110   -0.4180 H   0  0  0  0  0  0  0  0  0  0  0  0
   -3.5100   -3.8800   -0.0020 H   0  0  0  0  0  0  0  0  0  0  0  0
   -1.6900   -4.1990   -2.4560 H   0  0  0  0  0  0  0  0  0  0  0  0
   -0.4930   -2.6540   -1.3010 H   0  0  0  0  0  0  0  0  0  0  0  0
  1  2  1  0  0  0  0
  2 17  1  6  0  0  0
  2  3  1  0  0  0  0
  3 18  1  0  0  0  0
  3  4  1  0  0  0  0
  4 12  1  0  0  0  0
  4  5  2  0  0  0  0
  5 20  1  0  0  0  0
  5  6  1  0  0  0  0
  6 21  1  0  0  0  0
  7  6  1  0  0  0  0
  7  8  1  0  0  0  0
  8 22  1  0  0  0  0
  9 23  1  0  0  0  0
  9  8  2  0  0  0  0
 10  9  1  0  0  0  0
 11 10  2  0  0  0  0
 11 12  1  0  0  0  0
 12  7  2  0  0  0  0
 13  2  1  0  0  0  0
 13 14  2  0  0  0  0
 15  1  1  0  0  0  0
 16  1  1  0  0  0  0
 19  3  1  0  0  0  0
 24 10  1  0  0  0  0
 25 11  1  0  0  0  0
 26 35  1  0  0  0  0
 27 28  1  0  0  0  0
 27 26  1  0  0  0  0
 28 29  1  0  0  0  0
 28 38  1  0  0  0  0
 29 39  1  0  0  0  0
 29 30  1  0  0  0  0
 30 31  1  0  0  0  0
 30 41  1  1  0  0  0
 31 13  1  0  0  0  0
 32 30  1  0  0  0  0
 33 32  2  0  0  0  0
 34 26  1  0  0  0  0
 36 26  1  0  0  0  0
 37 28  1  0  0  0  0
 40 29  1  0  0  0  0
 42 31  1  0  0  0  0
 43 53  1  0  0  0  0
 43 52  1  0  0  0  0
 44 46  1  0  0  0  0
 44 43  1  0  0  0  0
 45 58  1  0  0  0  0
 45 44  1  0  0  0  0
 46 59  1  0  0  0  0
 46 60  1  0  0  0  0
 47 61  1  6  0  0  0
 47 48  1  0  0  0  0
 47 46  1  0  0  0  0
 48 32  1  0  0  0  0
 49 47  1  0  0  0  0
 50 49  2  0  0  0  0
 51 49  1  0  0  0  0
 54 43  1  0  0  0  0
 55 44  1  0  0  0  0
 56 45  1  0  0  0  0
 57 45  1  0  0  0  0
 62 48  1  0  0  0  0
M  END
$$$$
