WMM.pdb
 OpenBabel07022419183D

 60 61  0  0  1  0  0  0  0  0999 V2000
    2.9930    0.8000   -0.4830 N   0  0  0  0  0  0  0  0  0  0  0  0
    2.9130   -0.0750    0.6310 C   0  0  1  0  0  0  0  0  0  0  0  0
    3.7500    0.2400    1.7990 C   0  0  0  0  0  0  0  0  0  0  0  0
    3.5520    1.5010    2.4980 C   0  0  0  0  0  0  0  0  0  0  0  0
    2.9030    1.6700    3.7260 C   0  0  0  0  0  0  0  0  0  0  0  0
    2.9260    2.9700    4.0600 N   0  0  0  0  0  0  0  0  0  0  0  0
    3.5700    3.6560    3.0880 C   0  0  0  0  0  0  0  0  0  0  0  0
    3.8580    5.0180    2.9570 C   0  0  0  0  0  0  0  0  0  0  0  0
    4.5360    5.5340    1.8770 C   0  0  0  0  0  0  0  0  0  0  0  0
    4.9190    4.6100    0.9170 C   0  0  0  0  0  0  0  0  0  0  0  0
    4.6440    3.2650    1.0270 C   0  0  0  0  0  0  0  0  0  0  0  0
    3.9610    2.7560    2.1180 C   0  0  0  0  0  0  0  0  0  0  0  0
    1.4510   -0.2990    0.9670 C   0  0  0  0  0  0  0  0  0  0  0  0
    1.0070    0.0380    2.0820 O   0  0  0  0  0  0  0  0  0  0  0  0
    3.6610    0.5350   -1.2260 H   0  0  0  0  0  0  0  0  0  0  0  0
    2.0440    1.0670   -0.8220 H   0  0  0  0  0  0  0  0  0  0  0  0
    3.3020   -1.0830    0.2400 H   0  0  0  0  0  0  0  0  0  0  0  0
    3.6530   -0.6150    2.5460 H   0  0  0  0  0  0  0  0  0  0  0  0
    4.8300    0.1310    1.4550 H   0  0  0  0  0  0  0  0  0  0  0  0
    2.4520    0.8530    4.3120 H   0  0  0  0  0  0  0  0  0  0  0  0
    2.5270    3.4440    4.9200 H   0  0  0  0  0  0  0  0  0  0  0  0
    3.5310    5.7060    3.7480 H   0  0  0  0  0  0  0  0  0  0  0  0
    4.7730    6.5830    1.7530 H   0  0  0  0  0  0  0  0  0  0  0  0
    5.4510    4.9660    0.0470 H   0  0  0  0  0  0  0  0  0  0  0  0
    4.9520    2.5470    0.2720 H   0  0  0  0  0  0  0  0  0  0  0  0
   -3.6030    1.9040   -2.3230 C   0  0  0  0  0  0  0  0  0  0  0  0
   -3.8270    0.1310   -2.3450 S   0  0  0  0  0  0  0  0  0  0  0  0
   -3.0840   -0.6950   -0.8900 C   0  0  0  0  0  0  0  0  0  0  0  0
   -1.6010   -0.5380   -0.8980 C   0  0  0  0  0  0  0  0  0  0  0  0
   -0.8470   -1.1380    0.2380 C   0  0  2  0  0  0  0  0  0  0  0  0
    0.5940   -0.8900    0.0240 N   0  0  0  0  0  0  0  0  0  0  0  0
   -1.0240   -2.5960    0.4330 C   0  0  0  0  0  0  0  0  0  0  0  0
   -0.0320   -3.3240    0.1890 O   0  0  0  0  0  0  0  0  0  0  0  0
   -3.0870    2.2370   -3.2750 H   0  0  0  0  0  0  0  0  0  0  0  0
   -3.0200    2.3120   -1.5050 H   0  0  0  0  0  0  0  0  0  0  0  0
   -4.6030    2.4170   -2.4030 H   0  0  0  0  0  0  0  0  0  0  0  0
   -3.3940   -1.7690   -0.9900 H   0  0  0  0  0  0  0  0  0  0  0  0
   -3.5830   -0.2900    0.0000 H   0  0  0  0  0  0  0  0  0  0  0  0
   -1.4100    0.5730   -0.9700 H   0  0  0  0  0  0  0  0  0  0  0  0
   -1.2300   -1.0440   -1.8380 H   0  0  0  0  0  0  0  0  0  0  0  0
   -1.0970   -0.5700    1.1680 H   0  0  0  0  0  0  0  0  0  0  0  0
    1.0170   -1.1820   -0.8940 H   0  0  0  0  0  0  0  0  0  0  0  0
   -4.1020   -5.7310   -3.1640 C   0  0  0  0  0  0  0  0  0  0  0  0
   -5.1390   -5.9510   -1.6910 S   0  0  0  0  0  0  0  0  0  0  0  0
   -4.5410   -4.8430   -0.3440 C   0  0  0  0  0  0  0  0  0  0  0  0
   -3.1770   -5.3320    0.0200 C   0  0  0  0  0  0  0  0  0  0  0  0
   -2.4740   -4.5980    1.0930 C   0  0  2  0  0  0  0  0  0  0  0  0
   -2.2210   -3.2140    0.8760 N   0  0  0  0  0  0  0  0  0  0  0  0
   -1.3520   -5.4110    1.6040 C   0  0  0  0  0  0  0  0  0  0  0  0
   -0.2420   -5.0130    1.9760 O   0  0  0  0  0  0  0  0  0  0  0  0
   -1.6070   -6.7980    1.6640 O   0  0  0  0  0  0  0  0  0  0  0  0
   -4.7810   -5.6340   -4.0360 H   0  0  0  0  0  0  0  0  0  0  0  0
   -3.4880   -4.8220   -3.0140 H   0  0  0  0  0  0  0  0  0  0  0  0
   -3.4480   -6.6310   -3.3460 H   0  0  0  0  0  0  0  0  0  0  0  0
   -4.6020   -3.7970   -0.6560 H   0  0  0  0  0  0  0  0  0  0  0  0
   -5.2440   -4.9580    0.5060 H   0  0  0  0  0  0  0  0  0  0  0  0
   -3.2870   -6.4070    0.3180 H   0  0  0  0  0  0  0  0  0  0  0  0
   -2.5030   -5.3700   -0.8830 H   0  0  0  0  0  0  0  0  0  0  0  0
   -3.1790   -4.5930    2.0220 H   0  0  0  0  0  0  0  0  0  0  0  0
   -2.9860   -2.4840    1.0850 H   0  0  0  0  0  0  0  0  0  0  0  0
  1  2  1  0  0  0  0
  2 17  1  6  0  0  0
  2 13  1  0  0  0  0
  2  3  1  0  0  0  0
  3  4  1  0  0  0  0
  3 18  1  0  0  0  0
  4  5  2  0  0  0  0
  5  6  1  0  0  0  0
  5 20  1  0  0  0  0
  6 21  1  0  0  0  0
  7  6  1  0  0  0  0
  8  7  1  0  0  0  0
  8 22  1  0  0  0  0
  9  8  2  0  0  0  0
 10 11  2  0  0  0  0
 10  9  1  0  0  0  0
 11 12  1  0  0  0  0
 12  4  1  0  0  0  0
 12  7  2  0  0  0  0
 13 14  2  0  0  0  0
 15  1  1  0  0  0  0
 16  1  1  0  0  0  0
 19  3  1  0  0  0  0
 23  9  1  0  0  0  0
 24 10  1  0  0  0  0
 25 11  1  0  0  0  0
 26 35  1  0  0  0  0
 27 26  1  0  0  0  0
 27 28  1  0  0  0  0
 28 38  1  0  0  0  0
 29 28  1  0  0  0  0
 29 30  1  0  0  0  0
 30 32  1  0  0  0  0
 30 41  1  1  0  0  0
 31 30  1  0  0  0  0
 31 13  1  0  0  0  0
 32 48  1  0  0  0  0
 33 32  2  0  0  0  0
 34 26  1  0  0  0  0
 36 26  1  0  0  0  0
 37 28  1  0  0  0  0
 39 29  1  0  0  0  0
 40 29  1  0  0  0  0
 42 31  1  0  0  0  0
 43 53  1  0  0  0  0
 43 44  1  0  0  0  0
 44 45  1  0  0  0  0
 45 46  1  0  0  0  0
 45 56  1  0  0  0  0
 46 57  1  0  0  0  0
 46 47  1  0  0  0  0
 47 49  1  0  0  0  0
 47 59  1  1  0  0  0
 48 60  1  0  0  0  0
 48 47  1  0  0  0  0
 49 51  2  0  0  0  0
 49 50  1  0  0  0  0
 52 43  1  0  0  0  0
 54 43  1  0  0  0  0
 55 45  1  0  0  0  0
 58 46  1  0  0  0  0
M  END
$$$$
