WMN.pdb
 OpenBabel07022419173D

 57 58  0  0  1  0  0  0  0  0999 V2000
    2.0970    2.4640   -0.3070 N   0  0  0  0  0  0  0  0  0  0  0  0
    1.5760    1.1790   -0.7180 C   0  0  1  0  0  0  0  0  0  0  0  0
    2.5610    0.0430   -0.4560 C   0  0  0  0  0  0  0  0  0  0  0  0
    2.8870   -0.0580    0.9940 C   0  0  0  0  0  0  0  0  0  0  0  0
    2.3350   -0.8690    1.9490 C   0  0  0  0  0  0  0  0  0  0  0  0
    2.9000   -0.5910    3.1380 N   0  0  0  0  0  0  0  0  0  0  0  0
    3.8290    0.3940    3.0020 C   0  0  0  0  0  0  0  0  0  0  0  0
    4.6700    1.0080    3.9210 C   0  0  0  0  0  0  0  0  0  0  0  0
    5.5370    1.9910    3.4820 C   0  0  0  0  0  0  0  0  0  0  0  0
    5.5390    2.3290    2.1490 C   0  0  0  0  0  0  0  0  0  0  0  0
    4.7020    1.7210    1.2290 C   0  0  0  0  0  0  0  0  0  0  0  0
    3.8190    0.7260    1.6570 C   0  0  0  0  0  0  0  0  0  0  0  0
    0.3320    0.9380    0.0870 C   0  0  0  0  0  0  0  0  0  0  0  0
    0.0600    1.6590    1.0520 O   0  0  0  0  0  0  0  0  0  0  0  0
    1.7020    2.6830    0.6320 H   0  0  0  0  0  0  0  0  0  0  0  0
    1.7250    3.1820   -0.9630 H   0  0  0  0  0  0  0  0  0  0  0  0
    1.3950    1.2040   -1.7950 H   0  0  0  0  0  0  0  0  0  0  0  0
    2.0380   -0.8850   -0.7210 H   0  0  0  0  0  0  0  0  0  0  0  0
    3.4320    0.1770   -1.0850 H   0  0  0  0  0  0  0  0  0  0  0  0
    1.5580   -1.6210    1.7250 H   0  0  0  0  0  0  0  0  0  0  0  0
    2.6600   -1.0650    4.0410 H   0  0  0  0  0  0  0  0  0  0  0  0
    4.6190    0.6970    4.9520 H   0  0  0  0  0  0  0  0  0  0  0  0
    6.2070    2.4730    4.2180 H   0  0  0  0  0  0  0  0  0  0  0  0
    6.2320    3.1080    1.8540 H   0  0  0  0  0  0  0  0  0  0  0  0
    4.7100    1.9480    0.1830 H   0  0  0  0  0  0  0  0  0  0  0  0
   -5.3550    2.6520   -0.0020 C   0  0  0  0  0  0  0  0  0  0  0  0
   -5.6060    0.8540   -0.1950 S   0  0  0  0  0  0  0  0  0  0  0  0
   -4.1950   -0.0390    0.5720 C   0  0  0  0  0  0  0  0  0  0  0  0
   -2.9310    0.2430   -0.1970 C   0  0  0  0  0  0  0  0  0  0  0  0
   -1.7450   -0.4390    0.4830 C   0  0  2  0  0  0  0  0  0  0  0  0
   -0.5320   -0.1390   -0.2750 N   0  0  0  0  0  0  0  0  0  0  0  0
   -1.9550   -1.8770    0.5900 C   0  0  0  0  0  0  0  0  0  0  0  0
   -2.8970   -2.3750    1.3250 O   0  0  0  0  0  0  0  0  0  0  0  0
   -4.5910    2.9290   -0.7420 H   0  0  0  0  0  0  0  0  0  0  0  0
   -4.9810    2.8650    1.0220 H   0  0  0  0  0  0  0  0  0  0  0  0
   -6.2750    3.2310   -0.1850 H   0  0  0  0  0  0  0  0  0  0  0  0
   -4.1350    0.1870    1.6310 H   0  0  0  0  0  0  0  0  0  0  0  0
   -4.4420   -1.1190    0.4350 H   0  0  0  0  0  0  0  0  0  0  0  0
   -2.7940    1.3630   -0.1280 H   0  0  0  0  0  0  0  0  0  0  0  0
   -3.0550   -0.0720   -1.2450 H   0  0  0  0  0  0  0  0  0  0  0  0
   -1.6750    0.0410    1.4690 H   0  0  0  0  0  0  0  0  0  0  0  0
   -0.2620   -0.6880   -1.1130 H   0  0  0  0  0  0  0  0  0  0  0  0
   -2.9700   -4.5690   -3.4140 N   0  0  0  0  0  0  0  0  0  0  0  0
   -2.7610   -4.2990   -2.0600 C   0  0  0  0  0  0  0  0  0  0  0  0
   -3.5330   -3.4930   -1.4640 O   0  0  0  0  0  0  0  0  0  0  0  0
   -1.6660   -4.9170   -1.3160 C   0  0  0  0  0  0  0  0  0  0  0  0
   -1.4900   -4.2900    0.0630 C   0  0  2  0  0  0  0  0  0  0  0  0
   -1.1980   -2.8840   -0.0690 N   0  0  0  0  0  0  0  0  0  0  0  0
   -0.4600   -5.0600    0.7780 C   0  0  0  0  0  0  0  0  0  0  0  0
   -0.5750   -6.3110    0.9620 O   0  0  0  0  0  0  0  0  0  0  0  0
    0.6890   -4.4750    1.2920 O   0  0  0  0  0  0  0  0  0  0  0  0
   -2.4150   -5.2750   -3.9310 H   0  0  0  0  0  0  0  0  0  0  0  0
   -3.7170   -4.0340   -3.9310 H   0  0  0  0  0  0  0  0  0  0  0  0
   -1.8520   -5.9940   -1.1870 H   0  0  0  0  0  0  0  0  0  0  0  0
   -0.6730   -4.8120   -1.8130 H   0  0  0  0  0  0  0  0  0  0  0  0
   -2.4410   -4.4080    0.6060 H   0  0  0  0  0  0  0  0  0  0  0  0
   -0.4070   -2.5810   -0.6800 H   0  0  0  0  0  0  0  0  0  0  0  0
  1 15  1  0  0  0  0
  2 17  1  6  0  0  0
  2  3  1  0  0  0  0
  2  1  1  0  0  0  0
  2 13  1  0  0  0  0
  3  4  1  0  0  0  0
  4 12  1  0  0  0  0
  4  5  2  0  0  0  0
  5  6  1  0  0  0  0
  6 21  1  0  0  0  0
  7  6  1  0  0  0  0
  7  8  1  0  0  0  0
  8 22  1  0  0  0  0
  9  8  2  0  0  0  0
  9 23  1  0  0  0  0
 10  9  1  0  0  0  0
 11 12  1  0  0  0  0
 11 10  2  0  0  0  0
 12  7  2  0  0  0  0
 13 14  2  0  0  0  0
 16  1  1  0  0  0  0
 18  3  1  0  0  0  0
 19  3  1  0  0  0  0
 20  5  1  0  0  0  0
 24 10  1  0  0  0  0
 25 11  1  0  0  0  0
 26 35  1  0  0  0  0
 27 26  1  0  0  0  0
 27 28  1  0  0  0  0
 28 37  1  0  0  0  0
 29 39  1  0  0  0  0
 29 30  1  0  0  0  0
 29 28  1  0  0  0  0
 30 32  1  0  0  0  0
 30 41  1  1  0  0  0
 31 13  1  0  0  0  0
 31 30  1  0  0  0  0
 32 33  2  0  0  0  0
 34 26  1  0  0  0  0
 36 26  1  0  0  0  0
 38 28  1  0  0  0  0
 40 29  1  0  0  0  0
 42 31  1  0  0  0  0
 43 44  1  0  0  0  0
 44 45  2  0  0  0  0
 44 46  1  0  0  0  0
 46 54  1  0  0  0  0
 46 47  1  0  0  0  0
 47 56  1  1  0  0  0
 47 49  1  0  0  0  0
 48 47  1  0  0  0  0
 48 32  1  0  0  0  0
 49 50  2  0  0  0  0
 49 51  1  0  0  0  0
 52 43  1  0  0  0  0
 53 43  1  0  0  0  0
 55 46  1  0  0  0  0
 57 48  1  0  0  0  0
M  END
$$$$
