WMQ.pdb
 OpenBabel07022419183D

 60 61  0  0  1  0  0  0  0  0999 V2000
    2.6770   -1.2200    0.8550 N   0  0  0  0  0  0  0  0  0  0  0  0
    2.2660   -0.6100    2.0720 C   0  0  1  0  0  0  0  0  0  0  0  0
    2.9440    0.6830    2.3820 C   0  0  0  0  0  0  0  0  0  0  0  0
    2.7380    1.7400    1.3600 C   0  0  0  0  0  0  0  0  0  0  0  0
    1.8210    2.7940    1.4170 C   0  0  0  0  0  0  0  0  0  0  0  0
    1.9280    3.5110    0.2990 N   0  0  0  0  0  0  0  0  0  0  0  0
    2.8800    2.9870   -0.5110 C   0  0  0  0  0  0  0  0  0  0  0  0
    3.3410    3.3910   -1.7640 C   0  0  0  0  0  0  0  0  0  0  0  0
    4.3390    2.6770   -2.3830 C   0  0  0  0  0  0  0  0  0  0  0  0
    4.8460    1.5780   -1.7280 C   0  0  0  0  0  0  0  0  0  0  0  0
    4.3890    1.1800   -0.4910 C   0  0  0  0  0  0  0  0  0  0  0  0
    3.3780    1.8880    0.1530 C   0  0  0  0  0  0  0  0  0  0  0  0
    0.7670   -0.4430    2.1370 C   0  0  0  0  0  0  0  0  0  0  0  0
    0.2620    0.0970    3.1560 O   0  0  0  0  0  0  0  0  0  0  0  0
    2.3420   -2.2040    0.8220 H   0  0  0  0  0  0  0  0  0  0  0  0
    2.2700   -0.7260    0.0360 H   0  0  0  0  0  0  0  0  0  0  0  0
    2.5740   -1.3220    2.8980 H   0  0  0  0  0  0  0  0  0  0  0  0
    4.0350    0.4910    2.4680 H   0  0  0  0  0  0  0  0  0  0  0  0
    2.6170    1.0850    3.3440 H   0  0  0  0  0  0  0  0  0  0  0  0
    1.1520    2.9580    2.2560 H   0  0  0  0  0  0  0  0  0  0  0  0
    1.3680    4.3740    0.0430 H   0  0  0  0  0  0  0  0  0  0  0  0
    2.9370    4.2490   -2.2600 H   0  0  0  0  0  0  0  0  0  0  0  0
    4.7300    2.9590   -3.3640 H   0  0  0  0  0  0  0  0  0  0  0  0
    5.6370    0.9900   -2.1880 H   0  0  0  0  0  0  0  0  0  0  0  0
    4.7850    0.3260    0.0350 H   0  0  0  0  0  0  0  0  0  0  0  0
   -3.5820    2.8840    1.0500 C   0  0  0  0  0  0  0  0  0  0  0  0
   -1.8190    2.5040    0.9060 S   0  0  0  0  0  0  0  0  0  0  0  0
   -1.5010    1.2720   -0.3740 C   0  0  0  0  0  0  0  0  0  0  0  0
   -2.0740   -0.0730   -0.0380 C   0  0  0  0  0  0  0  0  0  0  0  0
   -1.5480   -0.6820    1.2140 C   0  0  2  0  0  0  0  0  0  0  0  0
   -0.0930   -0.8640    1.1080 N   0  0  0  0  0  0  0  0  0  0  0  0
   -2.1430   -2.0650    1.3020 C   0  0  0  0  0  0  0  0  0  0  0  0
   -3.3880   -2.2220    1.4110 O   0  0  0  0  0  0  0  0  0  0  0  0
   -3.7050    3.5840    1.8950 H   0  0  0  0  0  0  0  0  0  0  0  0
   -3.9490    3.4200    0.1280 H   0  0  0  0  0  0  0  0  0  0  0  0
   -4.2030    1.9920    1.1700 H   0  0  0  0  0  0  0  0  0  0  0  0
   -0.4150    1.1810   -0.5020 H   0  0  0  0  0  0  0  0  0  0  0  0
   -1.9250    1.5670   -1.3640 H   0  0  0  0  0  0  0  0  0  0  0  0
   -3.1880    0.0230    0.0720 H   0  0  0  0  0  0  0  0  0  0  0  0
   -1.9010   -0.7780   -0.8690 H   0  0  0  0  0  0  0  0  0  0  0  0
   -1.8060   -0.1880    2.1480 H   0  0  0  0  0  0  0  0  0  0  0  0
    0.3320   -1.3090    0.2700 H   0  0  0  0  0  0  0  0  0  0  0  0
   -4.0680   -3.9750   -2.3610 N   0  0  0  0  0  0  0  0  0  0  0  0
   -3.5100   -4.6420   -1.2450 C   0  0  0  0  0  0  0  0  0  0  0  0
   -4.2420   -5.1070   -0.3520 O   0  0  0  0  0  0  0  0  0  0  0  0
   -2.0450   -4.7740   -1.1630 C   0  0  0  0  0  0  0  0  0  0  0  0
   -1.5410   -5.3770    0.1210 C   0  0  0  0  0  0  0  0  0  0  0  0
   -1.8940   -4.5690    1.3490 C   0  0  2  0  0  0  0  0  0  0  0  0
   -1.3320   -3.2320    1.2650 N   0  0  0  0  0  0  0  0  0  0  0  0
   -1.3070   -5.2720    2.5190 C   0  0  0  0  0  0  0  0  0  0  0  0
   -0.4750   -4.6790    3.2230 O   0  0  0  0  0  0  0  0  0  0  0  0
   -1.7100   -6.5840    2.7930 O   0  0  0  0  0  0  0  0  0  0  0  0
   -4.8730   -3.3270   -2.3100 H   0  0  0  0  0  0  0  0  0  0  0  0
   -3.6440   -4.1450   -3.2970 H   0  0  0  0  0  0  0  0  0  0  0  0
   -1.5480   -3.7770   -1.2580 H   0  0  0  0  0  0  0  0  0  0  0  0
   -1.7340   -5.4100   -2.0320 H   0  0  0  0  0  0  0  0  0  0  0  0
   -1.8940   -6.4290    0.2130 H   0  0  0  0  0  0  0  0  0  0  0  0
   -0.4300   -5.4620    0.0030 H   0  0  0  0  0  0  0  0  0  0  0  0
   -2.9830   -4.5580    1.4700 H   0  0  0  0  0  0  0  0  0  0  0  0
   -0.3020   -3.1110    1.1740 H   0  0  0  0  0  0  0  0  0  0  0  0
  1  2  1  0  0  0  0
  2 13  1  0  0  0  0
  2  3  1  0  0  0  0
  2 17  1  1  0  0  0
  3 18  1  0  0  0  0
  3 19  1  0  0  0  0
  4  5  2  0  0  0  0
  4  3  1  0  0  0  0
  5 20  1  0  0  0  0
  6  5  1  0  0  0  0
  7 12  1  0  0  0  0
  7  6  1  0  0  0  0
  8  7  2  0  0  0  0
  9  8  1  0  0  0  0
  9 10  2  0  0  0  0
 10 11  1  0  0  0  0
 11 25  1  0  0  0  0
 11 12  2  0  0  0  0
 12  4  1  0  0  0  0
 13 14  2  0  0  0  0
 15  1  1  0  0  0  0
 16  1  1  0  0  0  0
 21  6  1  0  0  0  0
 22  8  1  0  0  0  0
 23  9  1  0  0  0  0
 24 10  1  0  0  0  0
 26 36  1  0  0  0  0
 26 34  1  0  0  0  0
 27 26  1  0  0  0  0
 28 29  1  0  0  0  0
 28 27  1  0  0  0  0
 29 39  1  0  0  0  0
 29 30  1  0  0  0  0
 30 32  1  0  0  0  0
 30 41  1  1  0  0  0
 31 30  1  0  0  0  0
 31 13  1  0  0  0  0
 32 33  2  0  0  0  0
 35 26  1  0  0  0  0
 37 28  1  0  0  0  0
 38 28  1  0  0  0  0
 40 29  1  0  0  0  0
 42 31  1  0  0  0  0
 43 53  1  0  0  0  0
 43 44  1  0  0  0  0
 44 46  1  0  0  0  0
 44 45  2  0  0  0  0
 46 47  1  0  0  0  0
 47 57  1  0  0  0  0
 47 48  1  0  0  0  0
 48 59  1  1  0  0  0
 48 50  1  0  0  0  0
 49 32  1  0  0  0  0
 49 48  1  0  0  0  0
 50 52  2  0  0  0  0
 50 51  1  0  0  0  0
 54 43  1  0  0  0  0
 55 46  1  0  0  0  0
 56 46  1  0  0  0  0
 58 47  1  0  0  0  0
 60 49  1  0  0  0  0
M  END
$$$$
