WMV.pdb
 OpenBabel07022419183D

 59 60  0  0  1  0  0  0  0  0999 V2000
    0.7740    0.8400    3.9200 N   0  0  0  0  0  0  0  0  0  0  0  0
    0.4930    0.4930    2.5430 C   0  0  1  0  0  0  0  0  0  0  0  0
    1.1390   -0.8720    2.2740 C   0  0  0  0  0  0  0  0  0  0  0  0
    2.6140   -0.7730    2.5000 C   0  0  0  0  0  0  0  0  0  0  0  0
    3.3030   -1.2500    3.6210 C   0  0  0  0  0  0  0  0  0  0  0  0
    4.6080   -0.9770    3.4700 N   0  0  0  0  0  0  0  0  0  0  0  0
    4.7890   -0.3390    2.2850 C   0  0  0  0  0  0  0  0  0  0  0  0
    5.9460    0.1330    1.7020 C   0  0  0  0  0  0  0  0  0  0  0  0
    5.8870    0.7580    0.4710 C   0  0  0  0  0  0  0  0  0  0  0  0
    4.6420    0.8790   -0.1220 C   0  0  0  0  0  0  0  0  0  0  0  0
    3.4830    0.4100    0.4550 C   0  0  0  0  0  0  0  0  0  0  0  0
    3.5670   -0.2110    1.6860 C   0  0  0  0  0  0  0  0  0  0  0  0
   -0.9700    0.2910    2.3440 C   0  0  0  0  0  0  0  0  0  0  0  0
   -1.7680    0.3960    3.3220 O   0  0  0  0  0  0  0  0  0  0  0  0
    1.0030    1.8530    4.0350 H   0  0  0  0  0  0  0  0  0  0  0  0
    0.0340    0.4960    4.5460 H   0  0  0  0  0  0  0  0  0  0  0  0
    0.9450    1.2010    1.8490 H   0  0  0  0  0  0  0  0  0  0  0  0
    0.7380   -1.6230    2.9570 H   0  0  0  0  0  0  0  0  0  0  0  0
    1.0040   -1.1440    1.2170 H   0  0  0  0  0  0  0  0  0  0  0  0
    2.8190   -1.7500    4.4530 H   0  0  0  0  0  0  0  0  0  0  0  0
    5.3470   -1.2290    4.1720 H   0  0  0  0  0  0  0  0  0  0  0  0
    6.9190    0.0380    2.1650 H   0  0  0  0  0  0  0  0  0  0  0  0
    6.7810    1.1340   -0.0030 H   0  0  0  0  0  0  0  0  0  0  0  0
    4.5960    1.3680   -1.0860 H   0  0  0  0  0  0  0  0  0  0  0  0
    2.5050    0.4950    0.0090 H   0  0  0  0  0  0  0  0  0  0  0  0
   -2.9010    3.9760   -1.4610 C   0  0  0  0  0  0  0  0  0  0  0  0
   -3.2990    2.4200   -2.2870 S   0  0  0  0  0  0  0  0  0  0  0  0
   -2.6470    1.0070   -1.3440 C   0  0  0  0  0  0  0  0  0  0  0  0
   -3.3840    0.9280   -0.0300 C   0  0  0  0  0  0  0  0  0  0  0  0
   -2.8930   -0.2290    0.8110 C   0  0  2  0  0  0  0  0  0  0  0  0
   -1.4800   -0.0210    1.0610 N   0  0  0  0  0  0  0  0  0  0  0  0
   -3.1630   -1.5350    0.1820 C   0  0  0  0  0  0  0  0  0  0  0  0
   -4.3560   -1.8340   -0.0790 O   0  0  0  0  0  0  0  0  0  0  0  0
   -1.8880    4.3430   -1.7070 H   0  0  0  0  0  0  0  0  0  0  0  0
   -2.9570    3.7950   -0.3650 H   0  0  0  0  0  0  0  0  0  0  0  0
   -3.6860    4.7600   -1.6700 H   0  0  0  0  0  0  0  0  0  0  0  0
   -1.5790    1.2690   -1.0940 H   0  0  0  0  0  0  0  0  0  0  0  0
   -2.7020    0.0760   -1.9240 H   0  0  0  0  0  0  0  0  0  0  0  0
   -4.4550    0.8700   -0.2530 H   0  0  0  0  0  0  0  0  0  0  0  0
   -3.1300    1.8520    0.5370 H   0  0  0  0  0  0  0  0  0  0  0  0
   -3.4110   -0.1270    1.7870 H   0  0  0  0  0  0  0  0  0  0  0  0
   -0.8300   -0.1060    0.2600 H   0  0  0  0  0  0  0  0  0  0  0  0
   -2.0490   -2.8140   -3.0530 C   0  0  0  0  0  0  0  0  0  0  0  0
   -1.6420   -3.8780   -2.0640 C   0  0  0  0  0  0  0  0  0  0  0  0
   -0.1590   -3.8570   -1.8890 C   0  0  0  0  0  0  0  0  0  0  0  0
   -2.3780   -3.7310   -0.7470 C   0  0  2  0  0  0  0  0  0  0  0  0
   -2.1140   -2.4470   -0.1290 N   0  0  0  0  0  0  0  0  0  0  0  0
   -1.9230   -4.8520    0.1160 C   0  0  0  0  0  0  0  0  0  0  0  0
   -2.0350   -6.0470   -0.1840 O   0  0  0  0  0  0  0  0  0  0  0  0
   -1.3390   -4.5310    1.3320 O   0  0  0  0  0  0  0  0  0  0  0  0
   -1.4020   -1.9050   -2.9920 H   0  0  0  0  0  0  0  0  0  0  0  0
   -3.1300   -2.5720   -3.0080 H   0  0  0  0  0  0  0  0  0  0  0  0
   -1.8590   -3.2420   -4.0740 H   0  0  0  0  0  0  0  0  0  0  0  0
   -1.9360   -4.8550   -2.4850 H   0  0  0  0  0  0  0  0  0  0  0  0
    0.1690   -3.0340   -1.2310 H   0  0  0  0  0  0  0  0  0  0  0  0
    0.2810   -3.6110   -2.9000 H   0  0  0  0  0  0  0  0  0  0  0  0
    0.2640   -4.8440   -1.5800 H   0  0  0  0  0  0  0  0  0  0  0  0
   -3.4680   -3.8740   -0.9140 H   0  0  0  0  0  0  0  0  0  0  0  0
   -1.1290   -2.1880    0.0930 H   0  0  0  0  0  0  0  0  0  0  0  0
  1 15  1  0  0  0  0
  1 16  1  0  0  0  0
  2 17  1  6  0  0  0
  2  1  1  0  0  0  0
  3  4  1  0  0  0  0
  3  2  1  0  0  0  0
  3 18  1  0  0  0  0
  4  5  2  0  0  0  0
  5 20  1  0  0  0  0
  6  5  1  0  0  0  0
  6 21  1  0  0  0  0
  7  6  1  0  0  0  0
  8 22  1  0  0  0  0
  8  7  1  0  0  0  0
  9  8  2  0  0  0  0
 10 11  2  0  0  0  0
 10  9  1  0  0  0  0
 11 12  1  0  0  0  0
 12  7  2  0  0  0  0
 12  4  1  0  0  0  0
 13  2  1  0  0  0  0
 13 14  2  0  0  0  0
 19  3  1  0  0  0  0
 23  9  1  0  0  0  0
 24 10  1  0  0  0  0
 25 11  1  0  0  0  0
 26 35  1  0  0  0  0
 27 26  1  0  0  0  0
 27 28  1  0  0  0  0
 28 37  1  0  0  0  0
 28 29  1  0  0  0  0
 29 40  1  0  0  0  0
 29 30  1  0  0  0  0
 30 31  1  0  0  0  0
 30 41  1  1  0  0  0
 31 13  1  0  0  0  0
 32 30  1  0  0  0  0
 33 32  2  0  0  0  0
 34 26  1  0  0  0  0
 36 26  1  0  0  0  0
 38 28  1  0  0  0  0
 39 29  1  0  0  0  0
 42 31  1  0  0  0  0
 43 52  1  0  0  0  0
 43 51  1  0  0  0  0
 43 44  1  0  0  0  0
 44 45  1  0  0  0  0
 44 46  1  0  0  0  0
 45 57  1  0  0  0  0
 45 55  1  0  0  0  0
 46 58  1  6  0  0  0
 46 47  1  0  0  0  0
 46 48  1  0  0  0  0
 47 59  1  0  0  0  0
 47 32  1  0  0  0  0
 48 50  1  0  0  0  0
 49 48  2  0  0  0  0
 53 43  1  0  0  0  0
 54 44  1  0  0  0  0
 56 45  1  0  0  0  0
M  END
$$$$
