WMW.pdb
 OpenBabel07022419183D

 67 70  0  0  1  0  0  0  0  0999 V2000
    1.7000    0.5090    3.9820 N   0  0  0  0  0  0  0  0  0  0  0  0
    0.9760    1.2770    2.9580 C   0  0  1  0  0  0  0  0  0  0  0  0
    1.7670    2.4880    2.6440 C   0  0  0  0  0  0  0  0  0  0  0  0
    1.2310    3.3950    1.6220 C   0  0  0  0  0  0  0  0  0  0  0  0
    0.4630    4.5270    1.8090 C   0  0  0  0  0  0  0  0  0  0  0  0
    0.1330    5.0860    0.6390 N   0  0  0  0  0  0  0  0  0  0  0  0
    0.6900    4.3150   -0.3260 C   0  0  0  0  0  0  0  0  0  0  0  0
    0.6890    4.4190   -1.7200 C   0  0  0  0  0  0  0  0  0  0  0  0
    1.3480    3.5090   -2.5190 C   0  0  0  0  0  0  0  0  0  0  0  0
    2.0280    2.4640   -1.9250 C   0  0  0  0  0  0  0  0  0  0  0  0
    2.0360    2.3510   -0.5580 C   0  0  0  0  0  0  0  0  0  0  0  0
    1.3710    3.2680    0.2450 C   0  0  0  0  0  0  0  0  0  0  0  0
    0.5570    0.4090    1.8720 C   0  0  0  0  0  0  0  0  0  0  0  0
   -0.2190    0.7870    0.9530 O   0  0  0  0  0  0  0  0  0  0  0  0
    1.0850   -0.2930    4.2310 H   0  0  0  0  0  0  0  0  0  0  0  0
    2.6130    0.2010    3.5780 H   0  0  0  0  0  0  0  0  0  0  0  0
    0.0410    1.6320    3.4750 H   0  0  0  0  0  0  0  0  0  0  0  0
    2.8450    2.2740    2.4450 H   0  0  0  0  0  0  0  0  0  0  0  0
    1.8040    3.0990    3.6000 H   0  0  0  0  0  0  0  0  0  0  0  0
    0.1540    4.9300    2.7870 H   0  0  0  0  0  0  0  0  0  0  0  0
   -0.4430    5.9540    0.4580 H   0  0  0  0  0  0  0  0  0  0  0  0
    0.1380    5.2610   -2.1620 H   0  0  0  0  0  0  0  0  0  0  0  0
    1.3260    3.6210   -3.6010 H   0  0  0  0  0  0  0  0  0  0  0  0
    2.5620    1.7250   -2.5400 H   0  0  0  0  0  0  0  0  0  0  0  0
    2.5530    1.5510   -0.0270 H   0  0  0  0  0  0  0  0  0  0  0  0
    5.0210   -3.2750   -0.3950 C   0  0  0  0  0  0  0  0  0  0  0  0
    3.9850   -2.3500   -1.5350 S   0  0  0  0  0  0  0  0  0  0  0  0
    2.6540   -1.4700   -0.6720 C   0  0  0  0  0  0  0  0  0  0  0  0
    1.6870   -2.4540   -0.0600 C   0  0  0  0  0  0  0  0  0  0  0  0
    0.5620   -1.8010    0.6660 C   0  0  2  0  0  0  0  0  0  0  0  0
    0.9930   -0.9620    1.7550 N   0  0  0  0  0  0  0  0  0  0  0  0
   -0.4090   -2.8340    1.1200 C   0  0  0  0  0  0  0  0  0  0  0  0
   -0.7650   -2.9300    2.3190 O   0  0  0  0  0  0  0  0  0  0  0  0
    4.4960   -3.5700    0.5370 H   0  0  0  0  0  0  0  0  0  0  0  0
    5.3830   -4.2260   -0.8680 H   0  0  0  0  0  0  0  0  0  0  0  0
    5.8790   -2.6300   -0.0800 H   0  0  0  0  0  0  0  0  0  0  0  0
    2.1530   -0.8360   -1.4340 H   0  0  0  0  0  0  0  0  0  0  0  0
    3.0810   -0.7850    0.0710 H   0  0  0  0  0  0  0  0  0  0  0  0
    1.2780   -3.0880   -0.8680 H   0  0  0  0  0  0  0  0  0  0  0  0
    2.2750   -3.0390    0.6930 H   0  0  0  0  0  0  0  0  0  0  0  0
   -0.0380   -1.1510   -0.0340 H   0  0  0  0  0  0  0  0  0  0  0  0
    1.6300   -1.3340    2.4790 H   0  0  0  0  0  0  0  0  0  0  0  0
   -0.9510   -3.7380    0.1700 N   0  0  0  0  0  0  0  0  0  0  0  0
   -1.8900   -4.7650    0.4830 C   0  0  1  0  0  0  0  0  0  0  0  0
   -3.2240   -4.5630   -0.2140 C   0  0  0  0  0  0  0  0  0  0  0  0
   -3.7830   -3.2620    0.2340 C   0  0  0  0  0  0  0  0  0  0  0  0
   -4.7130   -3.1620    1.2560 C   0  0  0  0  0  0  0  0  0  0  0  0
   -4.9750   -1.8640    1.4260 N   0  0  0  0  0  0  0  0  0  0  0  0
   -4.2770   -1.1050    0.5790 C   0  0  0  0  0  0  0  0  0  0  0  0
   -4.2160    0.2550    0.3720 C   0  0  0  0  0  0  0  0  0  0  0  0
   -3.3870    0.7690   -0.6110 C   0  0  0  0  0  0  0  0  0  0  0  0
   -2.6260   -0.1130   -1.3760 C   0  0  0  0  0  0  0  0  0  0  0  0
   -2.7040   -1.4720   -1.1500 C   0  0  0  0  0  0  0  0  0  0  0  0
   -3.5220   -1.9890   -0.1770 C   0  0  0  0  0  0  0  0  0  0  0  0
   -1.3890   -6.0940    0.0610 C   0  0  0  0  0  0  0  0  0  0  0  0
   -2.0280   -7.1450    0.2240 O   0  0  0  0  0  0  0  0  0  0  0  0
   -0.1450   -6.1640   -0.5450 O   0  0  0  0  0  0  0  0  0  0  0  0
   -0.6490   -3.6760   -0.8460 H   0  0  0  0  0  0  0  0  0  0  0  0
   -2.0630   -4.8410    1.5910 H   0  0  0  0  0  0  0  0  0  0  0  0
   -3.0440   -4.4650   -1.3060 H   0  0  0  0  0  0  0  0  0  0  0  0
   -3.9260   -5.3700   -0.0080 H   0  0  0  0  0  0  0  0  0  0  0  0
   -5.1550   -3.9760    1.8230 H   0  0  0  0  0  0  0  0  0  0  0  0
   -5.6420   -1.4740    2.1300 H   0  0  0  0  0  0  0  0  0  0  0  0
   -4.8180    0.9400    0.9780 H   0  0  0  0  0  0  0  0  0  0  0  0
   -3.3330    1.8310   -0.7790 H   0  0  0  0  0  0  0  0  0  0  0  0
   -1.9970    0.3400   -2.1290 H   0  0  0  0  0  0  0  0  0  0  0  0
   -2.1250   -2.1190   -1.7550 H   0  0  0  0  0  0  0  0  0  0  0  0
  1 15  1  0  0  0  0
  2 17  1  1  0  0  0
  2  1  1  0  0  0  0
  3  2  1  0  0  0  0
  3 19  1  0  0  0  0
  4  5  2  0  0  0  0
  4  3  1  0  0  0  0
  5 20  1  0  0  0  0
  6  5  1  0  0  0  0
  7 12  1  0  0  0  0
  7  6  1  0  0  0  0
  8  7  2  0  0  0  0
  9 10  2  0  0  0  0
  9  8  1  0  0  0  0
 10 11  1  0  0  0  0
 11 25  1  0  0  0  0
 11 12  2  0  0  0  0
 12  4  1  0  0  0  0
 13  2  1  0  0  0  0
 14 13  2  0  0  0  0
 16  1  1  0  0  0  0
 18  3  1  0  0  0  0
 21  6  1  0  0  0  0
 22  8  1  0  0  0  0
 23  9  1  0  0  0  0
 24 10  1  0  0  0  0
 26 36  1  0  0  0  0
 26 34  1  0  0  0  0
 27 28  1  0  0  0  0
 27 26  1  0  0  0  0
 28 29  1  0  0  0  0
 28 38  1  0  0  0  0
 29 30  1  0  0  0  0
 29 40  1  0  0  0  0
 30 41  1  6  0  0  0
 30 32  1  0  0  0  0
 30 31  1  0  0  0  0
 31 13  1  0  0  0  0
 31 42  1  0  0  0  0
 32 33  2  0  0  0  0
 35 26  1  0  0  0  0
 37 28  1  0  0  0  0
 39 29  1  0  0  0  0
 43 44  1  0  0  0  0
 43 32  1  0  0  0  0
 44 59  1  1  0  0  0
 45 61  1  0  0  0  0
 45 46  1  0  0  0  0
 45 44  1  0  0  0  0
 46 47  2  0  0  0  0
 47 48  1  0  0  0  0
 47 62  1  0  0  0  0
 48 63  1  0  0  0  0
 49 48  1  0  0  0  0
 50 49  1  0  0  0  0
 50 64  1  0  0  0  0
 51 50  2  0  0  0  0
 52 53  2  0  0  0  0
 52 51  1  0  0  0  0
 53 54  1  0  0  0  0
 54 46  1  0  0  0  0
 54 49  2  0  0  0  0
 55 56  1  0  0  0  0
 55 44  1  0  0  0  0
 57 55  2  0  0  0  0
 58 43  1  0  0  0  0
 60 45  1  0  0  0  0
 65 51  1  0  0  0  0
 66 52  1  0  0  0  0
 67 53  1  0  0  0  0
M  END
$$$$
