WMY.pdb
 OpenBabel07022419183D

 64 66  0  0  1  0  0  0  0  0999 V2000
    2.2920    0.8140    2.3010 N   0  0  0  0  0  0  0  0  0  0  0  0
    1.2250    0.1480    2.9510 C   0  0  1  0  0  0  0  0  0  0  0  0
    0.7630    0.8830    4.1830 C   0  0  0  0  0  0  0  0  0  0  0  0
    0.2770    2.2490    3.9280 C   0  0  0  0  0  0  0  0  0  0  0  0
   -1.0470    2.6450    3.7830 C   0  0  0  0  0  0  0  0  0  0  0  0
   -1.0700    3.9530    3.5330 N   0  0  0  0  0  0  0  0  0  0  0  0
    0.2070    4.4230    3.5120 C   0  0  0  0  0  0  0  0  0  0  0  0
    0.7120    5.6990    3.3010 C   0  0  0  0  0  0  0  0  0  0  0  0
    2.0620    5.9670    3.3270 C   0  0  0  0  0  0  0  0  0  0  0  0
    2.8950    4.8900    3.5780 C   0  0  0  0  0  0  0  0  0  0  0  0
    2.4160    3.6200    3.7890 C   0  0  0  0  0  0  0  0  0  0  0  0
    1.0510    3.3690    3.7570 C   0  0  0  0  0  0  0  0  0  0  0  0
    0.0770   -0.1450    2.0320 C   0  0  0  0  0  0  0  0  0  0  0  0
   -0.9680   -0.7120    2.4630 O   0  0  0  0  0  0  0  0  0  0  0  0
    2.9410    0.1220    1.8810 H   0  0  0  0  0  0  0  0  0  0  0  0
    2.0170    1.6020    1.7040 H   0  0  0  0  0  0  0  0  0  0  0  0
    1.5290   -0.8760    3.3250 H   0  0  0  0  0  0  0  0  0  0  0  0
   -0.0820    0.2940    4.6450 H   0  0  0  0  0  0  0  0  0  0  0  0
    1.5880    0.8500    4.9250 H   0  0  0  0  0  0  0  0  0  0  0  0
   -1.9070    1.9880    3.8620 H   0  0  0  0  0  0  0  0  0  0  0  0
   -1.9200    4.5690    3.3720 H   0  0  0  0  0  0  0  0  0  0  0  0
    0.0160    6.5090    3.1090 H   0  0  0  0  0  0  0  0  0  0  0  0
    2.4420    6.9730    3.1600 H   0  0  0  0  0  0  0  0  0  0  0  0
    3.9800    5.0550    3.6090 H   0  0  0  0  0  0  0  0  0  0  0  0
    3.0820    2.7810    3.9990 H   0  0  0  0  0  0  0  0  0  0  0  0
    1.1190    1.9630   -3.9030 C   0  0  0  0  0  0  0  0  0  0  0  0
   -0.0810    1.0140   -2.9150 S   0  0  0  0  0  0  0  0  0  0  0  0
   -0.6870    1.9980   -1.5410 C   0  0  0  0  0  0  0  0  0  0  0  0
   -1.6840    1.1570   -0.7540 C   0  0  0  0  0  0  0  0  0  0  0  0
   -1.0350   -0.1020   -0.2240 C   0  0  2  0  0  0  0  0  0  0  0  0
    0.0750    0.1810    0.6480 N   0  0  0  0  0  0  0  0  0  0  0  0
   -0.7460   -1.0860   -1.2770 C   0  0  0  0  0  0  0  0  0  0  0  0
    0.4090   -1.6030   -1.3980 O   0  0  0  0  0  0  0  0  0  0  0  0
    1.4080    1.3180   -4.7590 H   0  0  0  0  0  0  0  0  0  0  0  0
    1.9620    2.3190   -3.3070 H   0  0  0  0  0  0  0  0  0  0  0  0
    0.5260    2.8080   -4.3590 H   0  0  0  0  0  0  0  0  0  0  0  0
    0.1270    2.3640   -0.8810 H   0  0  0  0  0  0  0  0  0  0  0  0
   -1.1720    2.9000   -1.9660 H   0  0  0  0  0  0  0  0  0  0  0  0
   -2.0650    1.8020    0.0620 H   0  0  0  0  0  0  0  0  0  0  0  0
   -2.5560    0.9170   -1.3950 H   0  0  0  0  0  0  0  0  0  0  0  0
   -1.8180   -0.5820    0.4320 H   0  0  0  0  0  0  0  0  0  0  0  0
    0.9490    0.6570    0.2670 H   0  0  0  0  0  0  0  0  0  0  0  0
   -1.2700   -7.7860   -6.9040 O   0  0  0  0  0  0  0  0  0  0  0  0
   -1.4910   -6.7990   -5.9250 C   0  0  0  0  0  0  0  0  0  0  0  0
   -2.5260   -5.8950   -6.0480 C   0  0  0  0  0  0  0  0  0  0  0  0
   -2.7370   -4.9330   -5.0870 C   0  0  0  0  0  0  0  0  0  0  0  0
   -1.9220   -4.8390   -3.9700 C   0  0  0  0  0  0  0  0  0  0  0  0
   -2.1930   -3.7820   -2.9820 C   0  0  0  0  0  0  0  0  0  0  0  0
   -1.3780   -2.5040   -3.2390 C   0  0  2  0  0  0  0  0  0  0  0  0
   -1.7240   -1.5220   -2.2170 N   0  0  0  0  0  0  0  0  0  0  0  0
   -1.7420   -1.9490   -4.5490 C   0  0  0  0  0  0  0  0  0  0  0  0
   -1.5250   -2.5290   -5.6540 O   0  0  0  0  0  0  0  0  0  0  0  0
   -0.8930   -5.7420   -3.8520 C   0  0  0  0  0  0  0  0  0  0  0  0
   -0.6870   -6.7010   -4.8160 C   0  0  0  0  0  0  0  0  0  0  0  0
   -2.3640   -0.7160   -4.6260 O   0  0  0  0  0  0  0  0  0  0  0  0
   -1.6040   -8.7150   -6.6960 H   0  0  0  0  0  0  0  0  0  0  0  0
   -3.1510   -5.9910   -6.9360 H   0  0  0  0  0  0  0  0  0  0  0  0
   -3.5770   -4.2540   -5.2420 H   0  0  0  0  0  0  0  0  0  0  0  0
   -3.2770   -3.5510   -3.0090 H   0  0  0  0  0  0  0  0  0  0  0  0
   -1.9830   -4.1700   -1.9600 H   0  0  0  0  0  0  0  0  0  0  0  0
   -0.2980   -2.7500   -3.1670 H   0  0  0  0  0  0  0  0  0  0  0  0
   -2.6870   -1.1310   -2.1650 H   0  0  0  0  0  0  0  0  0  0  0  0
   -0.2480   -5.6750   -2.9780 H   0  0  0  0  0  0  0  0  0  0  0  0
    0.1430   -7.4160   -4.7040 H   0  0  0  0  0  0  0  0  0  0  0  0
  1  2  1  0  0  0  0
  2 17  1  1  0  0  0
  2  3  1  0  0  0  0
  3 18  1  0  0  0  0
  3 19  1  0  0  0  0
  4  3  1  0  0  0  0
  5 20  1  0  0  0  0
  5  4  2  0  0  0  0
  6  5  1  0  0  0  0
  7  6  1  0  0  0  0
  7 12  1  0  0  0  0
  8  9  1  0  0  0  0
  8  7  2  0  0  0  0
  9 10  2  0  0  0  0
 10 24  1  0  0  0  0
 10 11  1  0  0  0  0
 11 25  1  0  0  0  0
 12 11  2  0  0  0  0
 12  4  1  0  0  0  0
 13 14  2  0  0  0  0
 13  2  1  0  0  0  0
 15  1  1  0  0  0  0
 16  1  1  0  0  0  0
 21  6  1  0  0  0  0
 22  8  1  0  0  0  0
 23  9  1  0  0  0  0
 26 35  1  0  0  0  0
 26 27  1  0  0  0  0
 27 28  1  0  0  0  0
 28 37  1  0  0  0  0
 28 29  1  0  0  0  0
 29 30  1  0  0  0  0
 29 39  1  0  0  0  0
 30 41  1  1  0  0  0
 30 31  1  0  0  0  0
 31 13  1  0  0  0  0
 32 30  1  0  0  0  0
 33 32  2  0  0  0  0
 34 26  1  0  0  0  0
 36 26  1  0  0  0  0
 38 28  1  0  0  0  0
 40 29  1  0  0  0  0
 42 31  1  0  0  0  0
 43 56  1  0  0  0  0
 43 44  1  0  0  0  0
 44 54  1  0  0  0  0
 45 44  2  0  0  0  0
 45 46  1  0  0  0  0
 46 47  2  0  0  0  0
 47 53  1  0  0  0  0
 47 48  1  0  0  0  0
 48 60  1  0  0  0  0
 49 61  1  1  0  0  0
 49 48  1  0  0  0  0
 49 50  1  0  0  0  0
 50 62  1  0  0  0  0
 50 32  1  0  0  0  0
 51 49  1  0  0  0  0
 52 51  2  0  0  0  0
 53 63  1  0  0  0  0
 54 64  1  0  0  0  0
 54 53  2  0  0  0  0
 55 51  1  0  0  0  0
 57 45  1  0  0  0  0
 58 46  1  0  0  0  0
 59 48  1  0  0  0  0
M  END
$$$$
