WNE.pdb
 OpenBabel07022419153D

 56 57  0  0  1  0  0  0  0  0999 V2000
    2.1920   -1.3740    0.4560 N   0  0  0  0  0  0  0  0  0  0  0  0
    1.8560   -1.7130    1.7790 C   0  0  1  0  0  0  0  0  0  0  0  0
    2.7840   -1.1000    2.7660 C   0  0  0  0  0  0  0  0  0  0  0  0
    2.8500    0.3640    2.7650 C   0  0  0  0  0  0  0  0  0  0  0  0
    2.1660    1.1580    3.6790 C   0  0  0  0  0  0  0  0  0  0  0  0
    2.4390    2.4270    3.3670 N   0  0  0  0  0  0  0  0  0  0  0  0
    3.2620    2.4850    2.3030 C   0  0  0  0  0  0  0  0  0  0  0  0
    3.8320    3.5370    1.6070 C   0  0  0  0  0  0  0  0  0  0  0  0
    4.6490    3.2740    0.5460 C   0  0  0  0  0  0  0  0  0  0  0  0
    4.9390    1.9810    0.1290 C   0  0  0  0  0  0  0  0  0  0  0  0
    4.3660    0.9420    0.8300 C   0  0  0  0  0  0  0  0  0  0  0  0
    3.5300    1.1760    1.9120 C   0  0  0  0  0  0  0  0  0  0  0  0
    0.4190   -1.4940    2.1280 C   0  0  0  0  0  0  0  0  0  0  0  0
    0.0910   -1.7880    3.3060 O   0  0  0  0  0  0  0  0  0  0  0  0
    2.3140   -2.1330   -0.2160 H   0  0  0  0  0  0  0  0  0  0  0  0
    1.8810   -0.4750    0.0980 H   0  0  0  0  0  0  0  0  0  0  0  0
    1.9890   -2.8330    1.8780 H   0  0  0  0  0  0  0  0  0  0  0  0
    3.8190   -1.4680    2.5040 H   0  0  0  0  0  0  0  0  0  0  0  0
    2.5200   -1.5040    3.7780 H   0  0  0  0  0  0  0  0  0  0  0  0
    1.5340    0.7930    4.4860 H   0  0  0  0  0  0  0  0  0  0  0  0
    2.0530    3.2550    3.8950 H   0  0  0  0  0  0  0  0  0  0  0  0
    3.6010    4.5510    1.9380 H   0  0  0  0  0  0  0  0  0  0  0  0
    5.0830    4.0990    0.0170 H   0  0  0  0  0  0  0  0  0  0  0  0
    5.5990    1.8230   -0.7230 H   0  0  0  0  0  0  0  0  0  0  0  0
    4.6010   -0.0630    0.5070 H   0  0  0  0  0  0  0  0  0  0  0  0
   -2.5000    2.6160    0.0140 N   0  0  0  0  0  0  0  0  0  0  0  0
   -2.1730    1.2520    0.2190 C   0  0  0  0  0  0  0  0  0  0  0  0
   -1.7710    0.5780   -0.7570 O   0  0  0  0  0  0  0  0  0  0  0  0
   -2.3110    0.6670    1.5610 C   0  0  0  0  0  0  0  0  0  0  0  0
   -1.9120   -0.7980    1.6040 C   0  0  2  0  0  0  0  0  0  0  0  0
   -0.5320   -0.9910    1.2120 N   0  0  0  0  0  0  0  0  0  0  0  0
   -2.8680   -1.5350    0.7740 C   0  0  0  0  0  0  0  0  0  0  0  0
   -4.0930   -1.4050    1.0670 O   0  0  0  0  0  0  0  0  0  0  0  0
   -1.8300    3.3040   -0.4050 H   0  0  0  0  0  0  0  0  0  0  0  0
   -3.4450    2.9910    0.2820 H   0  0  0  0  0  0  0  0  0  0  0  0
   -3.3920    0.6830    1.8910 H   0  0  0  0  0  0  0  0  0  0  0  0
   -1.7770    1.2570    2.3420 H   0  0  0  0  0  0  0  0  0  0  0  0
   -2.0840   -1.1090    2.6650 H   0  0  0  0  0  0  0  0  0  0  0  0
   -0.1720   -0.7760    0.2600 H   0  0  0  0  0  0  0  0  0  0  0  0
   -2.5530   -2.3650   -0.3090 N   0  0  0  0  0  0  0  0  0  0  0  0
   -3.5350   -3.0870   -1.1190 C   0  0  1  0  0  0  0  0  0  0  0  0
   -3.6110   -2.6140   -2.5260 C   0  0  0  0  0  0  0  0  0  0  0  0
   -2.3800   -2.7000   -3.3460 C   0  0  0  0  0  0  0  0  0  0  0  0
   -1.8270   -4.0570   -3.5320 C   0  0  0  0  0  0  0  0  0  0  0  0
   -0.9450   -4.5200   -2.7680 O   0  0  0  0  0  0  0  0  0  0  0  0
   -3.2890   -4.5280   -0.9410 C   0  0  0  0  0  0  0  0  0  0  0  0
   -3.9680   -5.3690   -1.5700 O   0  0  0  0  0  0  0  0  0  0  0  0
   -2.3150   -4.8290   -4.5920 O   0  0  0  0  0  0  0  0  0  0  0  0
   -2.3130   -4.9820   -0.0800 O   0  0  0  0  0  0  0  0  0  0  0  0
   -1.5600   -2.4950   -0.5770 H   0  0  0  0  0  0  0  0  0  0  0  0
   -4.5610   -2.8190   -0.6730 H   0  0  0  0  0  0  0  0  0  0  0  0
   -4.4120   -3.2050   -3.0290 H   0  0  0  0  0  0  0  0  0  0  0  0
   -3.9490   -1.5560   -2.5140 H   0  0  0  0  0  0  0  0  0  0  0  0
   -2.6560   -2.3230   -4.3770 H   0  0  0  0  0  0  0  0  0  0  0  0
   -1.5900   -1.9850   -3.0160 H   0  0  0  0  0  0  0  0  0  0  0  0
   -2.0430   -5.8200   -4.6120 H   0  0  0  0  0  0  0  0  0  0  0  0
  1  2  1  0  0  0  0
  2 17  1  1  0  0  0
  2 13  1  0  0  0  0
  2  3  1  0  0  0  0
  3 19  1  0  0  0  0
  4  3  1  0  0  0  0
  4  5  2  0  0  0  0
  5 20  1  0  0  0  0
  6  5  1  0  0  0  0
  6 21  1  0  0  0  0
  7  6  1  0  0  0  0
  8 22  1  0  0  0  0
  8  7  2  0  0  0  0
  9  8  1  0  0  0  0
 10  9  2  0  0  0  0
 10 11  1  0  0  0  0
 11 12  2  0  0  0  0
 12  7  1  0  0  0  0
 12  4  1  0  0  0  0
 13 14  2  0  0  0  0
 15  1  1  0  0  0  0
 16  1  1  0  0  0  0
 18  3  1  0  0  0  0
 23  9  1  0  0  0  0
 24 10  1  0  0  0  0
 25 11  1  0  0  0  0
 26 27  1  0  0  0  0
 26 35  1  0  0  0  0
 27 29  1  0  0  0  0
 28 27  2  0  0  0  0
 29 30  1  0  0  0  0
 29 36  1  0  0  0  0
 29 37  1  0  0  0  0
 30 38  1  1  0  0  0
 31 30  1  0  0  0  0
 31 13  1  0  0  0  0
 32 33  2  0  0  0  0
 32 30  1  0  0  0  0
 34 26  1  0  0  0  0
 39 31  1  0  0  0  0
 40 32  1  0  0  0  0
 41 46  1  0  0  0  0
 41 51  1  1  0  0  0
 41 40  1  0  0  0  0
 42 53  1  0  0  0  0
 42 41  1  0  0  0  0
 43 55  1  0  0  0  0
 43 42  1  0  0  0  0
 44 43  1  0  0  0  0
 44 45  2  0  0  0  0
 46 49  1  0  0  0  0
 47 46  2  0  0  0  0
 48 44  1  0  0  0  0
 50 40  1  0  0  0  0
 52 42  1  0  0  0  0
 54 43  1  0  0  0  0
 56 48  1  0  0  0  0
M  END
$$$$
