WNF.pdb
 OpenBabel07022419153D

 60 62  0  0  1  0  0  0  0  0999 V2000
    1.4330   -1.4000    4.1740 N   0  0  0  0  0  0  0  0  0  0  0  0
    0.6430   -0.2050    3.7680 C   0  0  1  0  0  0  0  0  0  0  0  0
    1.5120    0.9470    3.5180 C   0  0  0  0  0  0  0  0  0  0  0  0
    2.5420    0.8630    2.4810 C   0  0  0  0  0  0  0  0  0  0  0  0
    3.8040    0.2810    2.6730 C   0  0  0  0  0  0  0  0  0  0  0  0
    4.4810    0.2920    1.5390 N   0  0  0  0  0  0  0  0  0  0  0  0
    3.6910    0.8750    0.5930 C   0  0  0  0  0  0  0  0  0  0  0  0
    3.9480    1.1420   -0.7280 C   0  0  0  0  0  0  0  0  0  0  0  0
    3.0070    1.7730   -1.4980 C   0  0  0  0  0  0  0  0  0  0  0  0
    1.8040    2.1380   -0.9390 C   0  0  0  0  0  0  0  0  0  0  0  0
    1.5480    1.8710    0.3790 C   0  0  0  0  0  0  0  0  0  0  0  0
    2.5010    1.2310    1.1530 C   0  0  0  0  0  0  0  0  0  0  0  0
   -0.3030   -0.5900    2.7480 C   0  0  0  0  0  0  0  0  0  0  0  0
   -0.4130   -1.8520    2.5160 O   0  0  0  0  0  0  0  0  0  0  0  0
    2.2130   -1.5130    3.4730 H   0  0  0  0  0  0  0  0  0  0  0  0
    0.7730   -2.2000    4.0640 H   0  0  0  0  0  0  0  0  0  0  0  0
    0.0860    0.0580    4.7490 H   0  0  0  0  0  0  0  0  0  0  0  0
    0.8310    1.8390    3.3040 H   0  0  0  0  0  0  0  0  0  0  0  0
    2.0160    1.2550    4.4840 H   0  0  0  0  0  0  0  0  0  0  0  0
    4.1870   -0.1260    3.6050 H   0  0  0  0  0  0  0  0  0  0  0  0
    5.4370   -0.0590    1.3360 H   0  0  0  0  0  0  0  0  0  0  0  0
    4.8870    0.8660   -1.1940 H   0  0  0  0  0  0  0  0  0  0  0  0
    3.2040    1.9860   -2.5410 H   0  0  0  0  0  0  0  0  0  0  0  0
    1.0780    2.6390   -1.5790 H   0  0  0  0  0  0  0  0  0  0  0  0
    0.6190    2.1560    0.8370 H   0  0  0  0  0  0  0  0  0  0  0  0
   -3.9000    0.1330    3.2520 N   0  0  0  0  0  0  0  0  0  0  0  0
   -4.1360    0.6240    1.9640 C   0  0  0  0  0  0  0  0  0  0  0  0
   -5.1770    1.3430    1.7890 O   0  0  0  0  0  0  0  0  0  0  0  0
   -3.2990    0.3980    0.7650 C   0  0  0  0  0  0  0  0  0  0  0  0
   -2.0730   -0.3820    1.0010 C   0  0  2  0  0  0  0  0  0  0  0  0
   -1.1500    0.2140    1.9540 N   0  0  0  0  0  0  0  0  0  0  0  0
   -1.4060   -0.7170   -0.3090 C   0  0  0  0  0  0  0  0  0  0  0  0
   -0.1740   -0.5340   -0.4680 O   0  0  0  0  0  0  0  0  0  0  0  0
   -4.5360   -0.5300    3.7330 H   0  0  0  0  0  0  0  0  0  0  0  0
   -3.0220    0.4620    3.7540 H   0  0  0  0  0  0  0  0  0  0  0  0
   -2.9660    1.4330    0.4380 H   0  0  0  0  0  0  0  0  0  0  0  0
   -3.8640    0.0120   -0.0860 H   0  0  0  0  0  0  0  0  0  0  0  0
   -2.3430   -1.3790    1.4860 H   0  0  0  0  0  0  0  0  0  0  0  0
   -1.0870    1.2370    2.0980 H   0  0  0  0  0  0  0  0  0  0  0  0
   -2.1490   -1.2510   -1.3960 N   0  0  0  0  0  0  0  0  0  0  0  0
   -1.4460   -1.5530   -2.6250 C   0  0  1  0  0  0  0  0  0  0  0  0
   -1.4300   -3.0410   -2.9050 C   0  0  0  0  0  0  0  0  0  0  0  0
   -0.7400   -3.6850   -1.7550 C   0  0  0  0  0  0  0  0  0  0  0  0
    0.6220   -3.8810   -1.7930 C   0  0  0  0  0  0  0  0  0  0  0  0
    1.2840   -4.4680   -0.7370 C   0  0  0  0  0  0  0  0  0  0  0  0
    0.6070   -4.8720    0.3760 C   0  0  0  0  0  0  0  0  0  0  0  0
   -0.7530   -4.6840    0.4310 C   0  0  0  0  0  0  0  0  0  0  0  0
   -1.4220   -4.0930   -0.6300 C   0  0  0  0  0  0  0  0  0  0  0  0
   -2.0210   -0.7490   -3.7100 C   0  0  0  0  0  0  0  0  0  0  0  0
   -1.5590   -0.8700   -4.8830 O   0  0  0  0  0  0  0  0  0  0  0  0
   -3.0610    0.1600   -3.5600 O   0  0  0  0  0  0  0  0  0  0  0  0
   -3.1900   -1.4240   -1.3010 H   0  0  0  0  0  0  0  0  0  0  0  0
   -0.3900   -1.2500   -2.5030 H   0  0  0  0  0  0  0  0  0  0  0  0
   -2.4090   -3.4460   -3.1370 H   0  0  0  0  0  0  0  0  0  0  0  0
   -0.7750   -3.1890   -3.7980 H   0  0  0  0  0  0  0  0  0  0  0  0
    1.1880   -3.5760   -2.6530 H   0  0  0  0  0  0  0  0  0  0  0  0
    2.3690   -4.6220   -0.7720 H   0  0  0  0  0  0  0  0  0  0  0  0
    1.1670   -5.3380    1.1990 H   0  0  0  0  0  0  0  0  0  0  0  0
   -1.2960   -4.9960    1.2960 H   0  0  0  0  0  0  0  0  0  0  0  0
   -2.4810   -3.9340   -0.6180 H   0  0  0  0  0  0  0  0  0  0  0  0
  2  1  1  0  0  0  0
  2 17  1  1  0  0  0
  3  2  1  0  0  0  0
  3 19  1  0  0  0  0
  4  5  2  0  0  0  0
  4  3  1  0  0  0  0
  5 20  1  0  0  0  0
  6  5  1  0  0  0  0
  7 12  1  0  0  0  0
  7  6  1  0  0  0  0
  8  7  2  0  0  0  0
  9 10  2  0  0  0  0
  9  8  1  0  0  0  0
 10 11  1  0  0  0  0
 11 25  1  0  0  0  0
 11 12  2  0  0  0  0
 12  4  1  0  0  0  0
 13  2  1  0  0  0  0
 14 13  2  0  0  0  0
 15  1  1  0  0  0  0
 16  1  1  0  0  0  0
 18  3  1  0  0  0  0
 21  6  1  0  0  0  0
 22  8  1  0  0  0  0
 23  9  1  0  0  0  0
 24 10  1  0  0  0  0
 26 34  1  0  0  0  0
 26 35  1  0  0  0  0
 27 26  1  0  0  0  0
 28 27  2  0  0  0  0
 29 30  1  0  0  0  0
 29 27  1  0  0  0  0
 30 38  1  1  0  0  0
 30 31  1  0  0  0  0
 31 39  1  0  0  0  0
 31 13  1  0  0  0  0
 32 30  1  0  0  0  0
 33 32  2  0  0  0  0
 36 29  1  0  0  0  0
 37 29  1  0  0  0  0
 40 52  1  0  0  0  0
 40 32  1  0  0  0  0
 41 53  1  1  0  0  0
 41 40  1  0  0  0  0
 42 41  1  0  0  0  0
 42 43  1  0  0  0  0
 43 48  1  0  0  0  0
 44 43  2  0  0  0  0
 44 45  1  0  0  0  0
 45 46  2  0  0  0  0
 46 47  1  0  0  0  0
 46 58  1  0  0  0  0
 47 59  1  0  0  0  0
 48 60  1  0  0  0  0
 48 47  2  0  0  0  0
 49 51  1  0  0  0  0
 49 41  1  0  0  0  0
 50 49  2  0  0  0  0
 54 42  1  0  0  0  0
 55 42  1  0  0  0  0
 56 44  1  0  0  0  0
 57 45  1  0  0  0  0
M  END
$$$$
