WNH.pdb
 OpenBabel07022419153D

 57 59  0  0  1  0  0  0  0  0999 V2000
    1.4040    0.0380    5.0190 N   0  0  0  0  0  0  0  0  0  0  0  0
    1.0170    0.7450    3.7960 C   0  0  1  0  0  0  0  0  0  0  0  0
    2.1820    1.3160    3.0950 C   0  0  0  0  0  0  0  0  0  0  0  0
    3.2430    0.3960    2.6790 C   0  0  0  0  0  0  0  0  0  0  0  0
    4.4130    0.1890    3.4300 C   0  0  0  0  0  0  0  0  0  0  0  0
    5.1270   -0.7060    2.7770 N   0  0  0  0  0  0  0  0  0  0  0  0
    4.5090   -1.1010    1.6490 C   0  0  0  0  0  0  0  0  0  0  0  0
    4.9070   -2.0130    0.6600 C   0  0  0  0  0  0  0  0  0  0  0  0
    4.0800   -2.2250   -0.4180 C   0  0  0  0  0  0  0  0  0  0  0  0
    2.8740   -1.5340   -0.5050 C   0  0  0  0  0  0  0  0  0  0  0  0
    2.5180   -0.6430    0.4930 C   0  0  0  0  0  0  0  0  0  0  0  0
    3.3280   -0.4110    1.5850 C   0  0  0  0  0  0  0  0  0  0  0  0
    0.1440   -0.1010    2.9990 C   0  0  0  0  0  0  0  0  0  0  0  0
    0.0410   -1.3590    3.1930 O   0  0  0  0  0  0  0  0  0  0  0  0
    1.2640   -0.9880    4.9400 H   0  0  0  0  0  0  0  0  0  0  0  0
    2.2950    0.3550    5.4060 H   0  0  0  0  0  0  0  0  0  0  0  0
    0.4100    1.6300    4.2180 H   0  0  0  0  0  0  0  0  0  0  0  0
    1.7950    1.8770    2.1890 H   0  0  0  0  0  0  0  0  0  0  0  0
    2.6310    2.1510    3.7140 H   0  0  0  0  0  0  0  0  0  0  0  0
    4.6850    0.6690    4.3700 H   0  0  0  0  0  0  0  0  0  0  0  0
    6.0610   -1.0670    3.0950 H   0  0  0  0  0  0  0  0  0  0  0  0
    5.8480   -2.5390    0.7460 H   0  0  0  0  0  0  0  0  0  0  0  0
    4.3430   -2.9170   -1.2090 H   0  0  0  0  0  0  0  0  0  0  0  0
    2.2340   -1.6970   -1.3480 H   0  0  0  0  0  0  0  0  0  0  0  0
    1.5870   -0.0950    0.4420 H   0  0  0  0  0  0  0  0  0  0  0  0
   -4.7900    1.3690    2.0490 N   0  0  0  0  0  0  0  0  0  0  0  0
   -3.4690    1.0900    1.6050 C   0  0  0  0  0  0  0  0  0  0  0  0
   -2.8160    2.0570    1.1360 O   0  0  0  0  0  0  0  0  0  0  0  0
   -2.9830   -0.2900    1.7290 C   0  0  0  0  0  0  0  0  0  0  0  0
   -1.5490   -0.4310    1.1970 C   0  0  2  0  0  0  0  0  0  0  0  0
   -0.6660    0.4290    1.9500 N   0  0  0  0  0  0  0  0  0  0  0  0
   -1.5110   -0.1220   -0.2490 C   0  0  0  0  0  0  0  0  0  0  0  0
   -0.7400    0.7330   -0.7420 O   0  0  0  0  0  0  0  0  0  0  0  0
   -4.9470    1.8370    2.9660 H   0  0  0  0  0  0  0  0  0  0  0  0
   -5.6350    1.1160    1.4710 H   0  0  0  0  0  0  0  0  0  0  0  0
   -2.9540   -0.6170    2.7860 H   0  0  0  0  0  0  0  0  0  0  0  0
   -3.6650   -0.9610    1.1780 H   0  0  0  0  0  0  0  0  0  0  0  0
   -1.2870   -1.4770    1.4510 H   0  0  0  0  0  0  0  0  0  0  0  0
   -0.6380    1.4550    1.7010 H   0  0  0  0  0  0  0  0  0  0  0  0
   -2.3890   -0.8100   -1.1680 N   0  0  0  0  0  0  0  0  0  0  0  0
   -2.4380   -0.5840   -2.5800 C   0  0  1  0  0  0  0  0  0  0  0  0
   -2.6330   -1.8710   -3.3180 C   0  0  0  0  0  0  0  0  0  0  0  0
   -1.5770   -2.8770   -3.1220 C   0  0  0  0  0  0  0  0  0  0  0  0
   -0.4230   -2.8210   -2.3740 C   0  0  0  0  0  0  0  0  0  0  0  0
    0.2490   -3.9840   -2.5000 N   0  0  0  0  0  0  0  0  0  0  0  0
   -0.4760   -4.7710   -3.3240 C   0  0  0  0  0  0  0  0  0  0  0  0
   -1.5640   -4.1160   -3.6960 N   0  0  0  0  0  0  0  0  0  0  0  0
   -3.5930    0.3300   -2.9220 C   0  0  0  0  0  0  0  0  0  0  0  0
   -4.3060    0.7460   -1.9920 O   0  0  0  0  0  0  0  0  0  0  0  0
   -3.8710    0.7060   -4.2170 O   0  0  0  0  0  0  0  0  0  0  0  0
   -3.0150   -1.5190   -0.7050 H   0  0  0  0  0  0  0  0  0  0  0  0
   -1.5590   -0.0630   -2.9830 H   0  0  0  0  0  0  0  0  0  0  0  0
   -3.6430   -2.3130   -3.1380 H   0  0  0  0  0  0  0  0  0  0  0  0
   -2.6580   -1.6400   -4.4290 H   0  0  0  0  0  0  0  0  0  0  0  0
   -0.0610   -2.0060   -1.7670 H   0  0  0  0  0  0  0  0  0  0  0  0
    1.1550   -4.2150   -2.0420 H   0  0  0  0  0  0  0  0  0  0  0  0
   -0.1760   -5.7820   -3.6120 H   0  0  0  0  0  0  0  0  0  0  0  0
  1 16  1  0  0  0  0
  2 17  1  1  0  0  0
  2  1  1  0  0  0  0
  3 19  1  0  0  0  0
  3  2  1  0  0  0  0
  4  3  1  0  0  0  0
  4  5  2  0  0  0  0
  5 20  1  0  0  0  0
  6 21  1  0  0  0  0
  6  5  1  0  0  0  0
  7  6  1  0  0  0  0
  8 22  1  0  0  0  0
  8  7  2  0  0  0  0
  9  8  1  0  0  0  0
 10  9  2  0  0  0  0
 10 11  1  0  0  0  0
 11 12  2  0  0  0  0
 12  7  1  0  0  0  0
 12  4  1  0  0  0  0
 13 14  2  0  0  0  0
 13  2  1  0  0  0  0
 15  1  1  0  0  0  0
 18  3  1  0  0  0  0
 23  9  1  0  0  0  0
 24 10  1  0  0  0  0
 25 11  1  0  0  0  0
 26 34  1  0  0  0  0
 27 29  1  0  0  0  0
 27 26  1  0  0  0  0
 28 27  2  0  0  0  0
 29 36  1  0  0  0  0
 30 38  1  1  0  0  0
 30 29  1  0  0  0  0
 30 31  1  0  0  0  0
 31 13  1  0  0  0  0
 32 30  1  0  0  0  0
 33 32  2  0  0  0  0
 35 26  1  0  0  0  0
 37 29  1  0  0  0  0
 39 31  1  0  0  0  0
 40 51  1  0  0  0  0
 40 32  1  0  0  0  0
 41 52  1  6  0  0  0
 41 40  1  0  0  0  0
 42 53  1  0  0  0  0
 42 43  1  0  0  0  0
 42 41  1  0  0  0  0
 43 44  2  0  0  0  0
 44 55  1  0  0  0  0
 45 44  1  0  0  0  0
 45 56  1  0  0  0  0
 46 45  1  0  0  0  0
 47 46  2  0  0  0  0
 47 43  1  0  0  0  0
 48 41  1  0  0  0  0
 48 49  1  0  0  0  0
 50 48  2  0  0  0  0
 54 42  1  0  0  0  0
 57 46  1  0  0  0  0
M  END
$$$$
