WNL.pdb
 OpenBabel07022419153D

 59 60  0  0  1  0  0  0  0  0999 V2000
    0.9060    1.0020   -1.0590 N   0  0  0  0  0  0  0  0  0  0  0  0
    2.1180    0.4690   -0.5280 C   0  0  1  0  0  0  0  0  0  0  0  0
    3.1680    1.4560   -0.1700 C   0  0  0  0  0  0  0  0  0  0  0  0
    2.8220    2.4550    0.8330 C   0  0  0  0  0  0  0  0  0  0  0  0
    3.2090    2.4170    2.1620 C   0  0  0  0  0  0  0  0  0  0  0  0
    2.6970    3.4970    2.7770 N   0  0  0  0  0  0  0  0  0  0  0  0
    1.9930    4.2400    1.9110 C   0  0  0  0  0  0  0  0  0  0  0  0
    1.3070    5.4170    2.0990 C   0  0  0  0  0  0  0  0  0  0  0  0
    0.6750    5.9530    1.0010 C   0  0  0  0  0  0  0  0  0  0  0  0
    0.7090    5.3640   -0.2390 C   0  0  0  0  0  0  0  0  0  0  0  0
    1.4070    4.1830   -0.3870 C   0  0  0  0  0  0  0  0  0  0  0  0
    2.0610    3.5950    0.6700 C   0  0  0  0  0  0  0  0  0  0  0  0
    1.9060   -0.5470    0.5430 C   0  0  0  0  0  0  0  0  0  0  0  0
    2.9290   -1.0420    1.0790 O   0  0  0  0  0  0  0  0  0  0  0  0
    1.1490    1.4100   -2.0130 H   0  0  0  0  0  0  0  0  0  0  0  0
    0.2880    0.1850   -1.3000 H   0  0  0  0  0  0  0  0  0  0  0  0
    2.5660   -0.1430   -1.3810 H   0  0  0  0  0  0  0  0  0  0  0  0
    4.0660    0.8750    0.1600 H   0  0  0  0  0  0  0  0  0  0  0  0
    3.5170    1.9510   -1.1230 H   0  0  0  0  0  0  0  0  0  0  0  0
    3.8170    1.6380    2.5910 H   0  0  0  0  0  0  0  0  0  0  0  0
    2.8250    3.7310    3.7840 H   0  0  0  0  0  0  0  0  0  0  0  0
    1.2440    5.9250    3.0380 H   0  0  0  0  0  0  0  0  0  0  0  0
    0.1110    6.8900    1.0820 H   0  0  0  0  0  0  0  0  0  0  0  0
    0.2110    5.7860   -1.1040 H   0  0  0  0  0  0  0  0  0  0  0  0
    1.4600    3.6920   -1.3550 H   0  0  0  0  0  0  0  0  0  0  0  0
   -0.5770    0.4860    4.7650 N   0  0  0  0  0  0  0  0  0  0  0  0
    0.0790   -0.2280    3.7400 C   0  0  0  0  0  0  0  0  0  0  0  0
    1.1960    0.1860    3.3450 O   0  0  0  0  0  0  0  0  0  0  0  0
   -0.4620   -1.4340    3.1000 C   0  0  0  0  0  0  0  0  0  0  0  0
    0.4480   -1.9830    2.0270 C   0  0  2  0  0  0  0  0  0  0  0  0
    0.6430   -0.9800    0.9800 N   0  0  0  0  0  0  0  0  0  0  0  0
   -0.3060   -3.1330    1.4210 C   0  0  0  0  0  0  0  0  0  0  0  0
   -0.5600   -4.0990    2.1780 O   0  0  0  0  0  0  0  0  0  0  0  0
   -0.0120    1.0140    5.4540 H   0  0  0  0  0  0  0  0  0  0  0  0
   -1.6090    0.5010    4.8540 H   0  0  0  0  0  0  0  0  0  0  0  0
   -1.4020   -1.1140    2.5640 H   0  0  0  0  0  0  0  0  0  0  0  0
   -0.7500   -2.2200    3.8190 H   0  0  0  0  0  0  0  0  0  0  0  0
    1.4110   -2.3250    2.4370 H   0  0  0  0  0  0  0  0  0  0  0  0
   -0.2030   -0.5600    0.5310 H   0  0  0  0  0  0  0  0  0  0  0  0
   -3.9520   -6.0770   -0.7570 C   0  0  0  0  0  0  0  0  0  0  0  0
   -3.6800   -4.8480   -1.5730 C   0  0  0  0  0  0  0  0  0  0  0  0
   -3.3870   -5.2010   -2.9890 C   0  0  0  0  0  0  0  0  0  0  0  0
   -2.8040   -3.8340   -0.9420 C   0  0  0  0  0  0  0  0  0  0  0  0
   -1.4640   -4.2930   -0.5160 C   0  0  2  0  0  0  0  0  0  0  0  0
   -0.7220   -3.1640    0.0860 N   0  0  0  0  0  0  0  0  0  0  0  0
   -0.5910   -4.8400   -1.5350 C   0  0  0  0  0  0  0  0  0  0  0  0
   -0.8040   -5.9230   -2.1170 O   0  0  0  0  0  0  0  0  0  0  0  0
    0.5810   -4.1670   -1.9440 O   0  0  0  0  0  0  0  0  0  0  0  0
   -4.9110   -6.5200   -1.1500 H   0  0  0  0  0  0  0  0  0  0  0  0
   -3.1850   -6.8710   -0.9650 H   0  0  0  0  0  0  0  0  0  0  0  0
   -4.0970   -5.8890    0.3040 H   0  0  0  0  0  0  0  0  0  0  0  0
   -4.7450   -4.3090   -1.6450 H   0  0  0  0  0  0  0  0  0  0  0  0
   -2.6120   -4.5630   -3.4540 H   0  0  0  0  0  0  0  0  0  0  0  0
   -4.3210   -5.0460   -3.6420 H   0  0  0  0  0  0  0  0  0  0  0  0
   -3.1810   -6.2840   -3.1660 H   0  0  0  0  0  0  0  0  0  0  0  0
   -3.3420   -3.2750   -0.1200 H   0  0  0  0  0  0  0  0  0  0  0  0
   -2.6640   -2.9980   -1.7140 H   0  0  0  0  0  0  0  0  0  0  0  0
   -1.6180   -5.0890    0.2540 H   0  0  0  0  0  0  0  0  0  0  0  0
   -0.4980   -2.3490   -0.5210 H   0  0  0  0  0  0  0  0  0  0  0  0
  1  2  1  0  0  0  0
  2 17  1  6  0  0  0
  2  3  1  0  0  0  0
  2 13  1  0  0  0  0
  3 18  1  0  0  0  0
  3  4  1  0  0  0  0
  4  5  2  0  0  0  0
  5 20  1  0  0  0  0
  5  6  1  0  0  0  0
  6 21  1  0  0  0  0
  7  8  1  0  0  0  0
  7  6  1  0  0  0  0
  8 22  1  0  0  0  0
  9 23  1  0  0  0  0
  9  8  2  0  0  0  0
 10  9  1  0  0  0  0
 11 10  2  0  0  0  0
 11 12  1  0  0  0  0
 12  4  1  0  0  0  0
 12  7  2  0  0  0  0
 13 31  1  0  0  0  0
 13 14  2  0  0  0  0
 15  1  1  0  0  0  0
 16  1  1  0  0  0  0
 19  3  1  0  0  0  0
 24 10  1  0  0  0  0
 25 11  1  0  0  0  0
 26 35  1  0  0  0  0
 26 34  1  0  0  0  0
 27 26  1  0  0  0  0
 28 27  2  0  0  0  0
 29 27  1  0  0  0  0
 29 37  1  0  0  0  0
 30 38  1  1  0  0  0
 30 29  1  0  0  0  0
 31 30  1  0  0  0  0
 32 30  1  0  0  0  0
 32 33  2  0  0  0  0
 36 29  1  0  0  0  0
 39 31  1  0  0  0  0
 40 51  1  0  0  0  0
 41 43  1  0  0  0  0
 41 40  1  0  0  0  0
 42 41  1  0  0  0  0
 43 44  1  0  0  0  0
 43 56  1  0  0  0  0
 44 45  1  0  0  0  0
 44 58  1  1  0  0  0
 45 32  1  0  0  0  0
 46 44  1  0  0  0  0
 47 46  2  0  0  0  0
 48 46  1  0  0  0  0
 49 40  1  0  0  0  0
 50 40  1  0  0  0  0
 52 41  1  0  0  0  0
 53 42  1  0  0  0  0
 54 42  1  0  0  0  0
 55 42  1  0  0  0  0
 57 43  1  0  0  0  0
 59 45  1  0  0  0  0
M  END
$$$$
