WNM.pdb
 OpenBabel07022419153D

 57 58  0  0  1  0  0  0  0  0999 V2000
    3.1320   -0.7100    0.1770 N   0  0  0  0  0  0  0  0  0  0  0  0
    2.8690   -1.3260    1.4550 C   0  0  1  0  0  0  0  0  0  0  0  0
    3.6330   -0.7340    2.5950 C   0  0  0  0  0  0  0  0  0  0  0  0
    3.3950    0.6930    2.8520 C   0  0  0  0  0  0  0  0  0  0  0  0
    2.5650    1.2400    3.8380 C   0  0  0  0  0  0  0  0  0  0  0  0
    2.6030    2.5700    3.7410 N   0  0  0  0  0  0  0  0  0  0  0  0
    3.4250    2.9440    2.7290 C   0  0  0  0  0  0  0  0  0  0  0  0
    3.7790    4.2050    2.2600 C   0  0  0  0  0  0  0  0  0  0  0  0
    4.6520    4.3210    1.2070 C   0  0  0  0  0  0  0  0  0  0  0  0
    5.1360    3.1530    0.6680 C   0  0  0  0  0  0  0  0  0  0  0  0
    4.7980    1.8990    1.1170 C   0  0  0  0  0  0  0  0  0  0  0  0
    3.9160    1.7840    2.1790 C   0  0  0  0  0  0  0  0  0  0  0  0
    1.3870   -1.3690    1.7240 C   0  0  0  0  0  0  0  0  0  0  0  0
    0.9670   -1.7650    2.8360 O   0  0  0  0  0  0  0  0  0  0  0  0
    2.6520    0.2080    0.1420 H   0  0  0  0  0  0  0  0  0  0  0  0
    2.7260   -1.3160   -0.5680 H   0  0  0  0  0  0  0  0  0  0  0  0
    3.2420   -2.3910    1.3320 H   0  0  0  0  0  0  0  0  0  0  0  0
    4.7160   -0.9760    2.5020 H   0  0  0  0  0  0  0  0  0  0  0  0
    3.3200   -1.2900    3.5290 H   0  0  0  0  0  0  0  0  0  0  0  0
    2.0100    0.6270    4.5360 H   0  0  0  0  0  0  0  0  0  0  0  0
    2.0970    3.2680    4.3280 H   0  0  0  0  0  0  0  0  0  0  0  0
    3.3790    5.0920    2.7090 H   0  0  0  0  0  0  0  0  0  0  0  0
    4.9530    5.3000    0.8110 H   0  0  0  0  0  0  0  0  0  0  0  0
    5.8320    3.2320   -0.1700 H   0  0  0  0  0  0  0  0  0  0  0  0
    5.1950    0.9970    0.6890 H   0  0  0  0  0  0  0  0  0  0  0  0
   -1.5440    2.7720    1.2410 N   0  0  0  0  0  0  0  0  0  0  0  0
   -1.0960    1.4480    1.4380 C   0  0  0  0  0  0  0  0  0  0  0  0
   -0.2880    1.2000    2.3580 O   0  0  0  0  0  0  0  0  0  0  0  0
   -1.5660    0.3620    0.5780 C   0  0  0  0  0  0  0  0  0  0  0  0
   -0.9820   -0.9790    0.8890 C   0  0  2  0  0  0  0  0  0  0  0  0
    0.4560   -0.9750    0.7510 N   0  0  0  0  0  0  0  0  0  0  0  0
   -1.5500   -1.9360   -0.1020 C   0  0  0  0  0  0  0  0  0  0  0  0
   -0.7830   -2.5590   -0.8450 O   0  0  0  0  0  0  0  0  0  0  0  0
   -1.2200    3.5510    1.8370 H   0  0  0  0  0  0  0  0  0  0  0  0
   -2.2160    2.9910    0.4820 H   0  0  0  0  0  0  0  0  0  0  0  0
   -1.3180    0.6370   -0.4780 H   0  0  0  0  0  0  0  0  0  0  0  0
   -2.6870    0.2510    0.5960 H   0  0  0  0  0  0  0  0  0  0  0  0
   -1.2320   -1.2790    1.9290 H   0  0  0  0  0  0  0  0  0  0  0  0
    0.8280   -0.6460   -0.1690 H   0  0  0  0  0  0  0  0  0  0  0  0
   -2.5690   -5.4100   -3.5180 C   0  0  0  0  0  0  0  0  0  0  0  0
   -3.6160   -6.2130   -2.3280 S   0  0  0  0  0  0  0  0  0  0  0  0
   -4.8230   -5.1930   -1.4970 C   0  0  0  0  0  0  0  0  0  0  0  0
   -4.2920   -4.1660   -0.5650 C   0  0  0  0  0  0  0  0  0  0  0  0
   -3.4880   -3.1200   -1.2230 C   0  0  2  0  0  0  0  0  0  0  0  0
   -2.9400   -2.1650   -0.2330 N   0  0  0  0  0  0  0  0  0  0  0  0
   -4.2640   -2.3100   -2.2310 C   0  0  0  0  0  0  0  0  0  0  0  0
   -4.2700   -1.0360   -2.0830 O   0  0  0  0  0  0  0  0  0  0  0  0
   -4.9560   -2.8090   -3.2760 O   0  0  0  0  0  0  0  0  0  0  0  0
   -2.4240   -6.0290   -4.4510 H   0  0  0  0  0  0  0  0  0  0  0  0
   -1.5710   -5.1570   -3.0840 H   0  0  0  0  0  0  0  0  0  0  0  0
   -3.0130   -4.4760   -3.8860 H   0  0  0  0  0  0  0  0  0  0  0  0
   -5.5710   -5.8540   -0.9220 H   0  0  0  0  0  0  0  0  0  0  0  0
   -5.5100   -4.7490   -2.2800 H   0  0  0  0  0  0  0  0  0  0  0  0
   -5.1670   -3.7710    0.0090 H   0  0  0  0  0  0  0  0  0  0  0  0
   -3.6260   -4.6690    0.1880 H   0  0  0  0  0  0  0  0  0  0  0  0
   -2.6410   -3.5560   -1.7470 H   0  0  0  0  0  0  0  0  0  0  0  0
   -3.5750   -1.6380    0.3940 H   0  0  0  0  0  0  0  0  0  0  0  0
  1  2  1  0  0  0  0
  2 17  1  6  0  0  0
  2 13  1  0  0  0  0
  2  3  1  0  0  0  0
  3  4  1  0  0  0  0
  3 19  1  0  0  0  0
  4  5  2  0  0  0  0
  5 20  1  0  0  0  0
  6  5  1  0  0  0  0
  6 21  1  0  0  0  0
  7  6  1  0  0  0  0
  8 22  1  0  0  0  0
  8  7  1  0  0  0  0
  9  8  2  0  0  0  0
 10 11  2  0  0  0  0
 10  9  1  0  0  0  0
 11 12  1  0  0  0  0
 12  7  2  0  0  0  0
 12  4  1  0  0  0  0
 13 14  2  0  0  0  0
 15  1  1  0  0  0  0
 16  1  1  0  0  0  0
 18  3  1  0  0  0  0
 23  9  1  0  0  0  0
 24 10  1  0  0  0  0
 25 11  1  0  0  0  0
 26 27  1  0  0  0  0
 26 34  1  0  0  0  0
 27 28  2  0  0  0  0
 29 37  1  0  0  0  0
 29 30  1  0  0  0  0
 29 27  1  0  0  0  0
 30 38  1  1  0  0  0
 31 30  1  0  0  0  0
 31 13  1  0  0  0  0
 32 30  1  0  0  0  0
 33 32  2  0  0  0  0
 35 26  1  0  0  0  0
 36 29  1  0  0  0  0
 39 31  1  0  0  0  0
 40 50  1  0  0  0  0
 40 41  1  0  0  0  0
 41 42  1  0  0  0  0
 42 52  1  0  0  0  0
 42 43  1  0  0  0  0
 43 54  1  0  0  0  0
 43 55  1  0  0  0  0
 44 56  1  6  0  0  0
 44 43  1  0  0  0  0
 44 45  1  0  0  0  0
 45 32  1  0  0  0  0
 45 57  1  0  0  0  0
 46 47  1  0  0  0  0
 46 44  1  0  0  0  0
 48 46  2  0  0  0  0
 49 40  1  0  0  0  0
 51 40  1  0  0  0  0
 53 42  1  0  0  0  0
M  END
$$$$
