WNR.pdb
 OpenBabel07022419153D

 63 64  0  0  1  0  0  0  0  0999 V2000
    0.6630   -2.3850    2.4230 N   0  0  0  0  0  0  0  0  0  0  0  0
    0.3420   -0.9960    2.3790 C   0  0  1  0  0  0  0  0  0  0  0  0
    1.2350   -0.1800    1.5070 C   0  0  0  0  0  0  0  0  0  0  0  0
    2.6580   -0.1820    1.8760 C   0  0  0  0  0  0  0  0  0  0  0  0
    3.2660    0.8680    2.5690 C   0  0  0  0  0  0  0  0  0  0  0  0
    4.5600    0.5640    2.7630 N   0  0  0  0  0  0  0  0  0  0  0  0
    4.8600   -0.6430    2.2350 C   0  0  0  0  0  0  0  0  0  0  0  0
    6.0070   -1.4000    2.1570 C   0  0  0  0  0  0  0  0  0  0  0  0
    6.0140   -2.6270    1.5350 C   0  0  0  0  0  0  0  0  0  0  0  0
    4.8280   -3.0720    0.9920 C   0  0  0  0  0  0  0  0  0  0  0  0
    3.6620   -2.3180    1.0630 C   0  0  0  0  0  0  0  0  0  0  0  0
    3.6620   -1.1010    1.6820 C   0  0  0  0  0  0  0  0  0  0  0  0
   -1.0660   -0.6850    2.0470 C   0  0  0  0  0  0  0  0  0  0  0  0
   -1.3590    0.5320    1.9610 O   0  0  0  0  0  0  0  0  0  0  0  0
    1.5450   -2.4580    3.0210 H   0  0  0  0  0  0  0  0  0  0  0  0
   -0.0280   -2.9780    2.8910 H   0  0  0  0  0  0  0  0  0  0  0  0
    0.4800   -0.5740    3.4280 H   0  0  0  0  0  0  0  0  0  0  0  0
    1.0690   -0.5240    0.4530 H   0  0  0  0  0  0  0  0  0  0  0  0
    0.8180    0.8700    1.5180 H   0  0  0  0  0  0  0  0  0  0  0  0
    2.8160    1.7790    2.9070 H   0  0  0  0  0  0  0  0  0  0  0  0
    5.2750    1.1490    3.2490 H   0  0  0  0  0  0  0  0  0  0  0  0
    6.9310   -1.0460    2.5840 H   0  0  0  0  0  0  0  0  0  0  0  0
    6.9120   -3.2310    1.4690 H   0  0  0  0  0  0  0  0  0  0  0  0
    4.7720   -4.0380    0.4850 H   0  0  0  0  0  0  0  0  0  0  0  0
    2.7510   -2.6850    0.6300 H   0  0  0  0  0  0  0  0  0  0  0  0
   -3.0360    0.1750    4.5910 N   0  0  0  0  0  0  0  0  0  0  0  0
   -3.8160    0.2870    3.4150 C   0  0  0  0  0  0  0  0  0  0  0  0
   -4.1080    1.4330    3.0010 O   0  0  0  0  0  0  0  0  0  0  0  0
   -4.2840   -0.8950    2.6830 C   0  0  0  0  0  0  0  0  0  0  0  0
   -3.4500   -1.3090    1.5150 C   0  0  2  0  0  0  0  0  0  0  0  0
   -2.0890   -1.6480    1.8270 N   0  0  0  0  0  0  0  0  0  0  0  0
   -3.6240   -0.4680    0.3050 C   0  0  0  0  0  0  0  0  0  0  0  0
   -4.7690    0.0600    0.0570 O   0  0  0  0  0  0  0  0  0  0  0  0
   -3.4070   -0.2670    5.4690 H   0  0  0  0  0  0  0  0  0  0  0  0
   -2.0630    0.5320    4.6180 H   0  0  0  0  0  0  0  0  0  0  0  0
   -5.3650   -0.7770    2.3780 H   0  0  0  0  0  0  0  0  0  0  0  0
   -4.3240   -1.7970    3.3670 H   0  0  0  0  0  0  0  0  0  0  0  0
   -3.9130   -2.3120    1.1850 H   0  0  0  0  0  0  0  0  0  0  0  0
   -1.7710   -2.6670    1.9110 H   0  0  0  0  0  0  0  0  0  0  0  0
   -0.8110   -2.8050   -2.2190 N   0  0  0  0  0  0  0  0  0  0  0  0
    0.0240   -1.7270   -2.5700 C   0  0  0  0  0  0  0  0  0  0  0  0
    1.2180   -1.6710   -2.0650 N   0  0  0  0  0  0  0  0  0  0  0  0
   -0.3790   -0.6800   -3.4740 N   0  0  0  0  0  0  0  0  0  0  0  0
    0.0800    0.6550   -3.2870 C   0  0  0  0  0  0  0  0  0  0  0  0
   -0.3780    1.4070   -2.1120 C   0  0  0  0  0  0  0  0  0  0  0  0
   -1.7970    1.7170   -1.9640 C   0  0  0  0  0  0  0  0  0  0  0  0
   -2.8160    0.6550   -1.8060 C   0  0  2  0  0  0  0  0  0  0  0  0
   -2.5970   -0.1940   -0.6300 N   0  0  0  0  0  0  0  0  0  0  0  0
   -3.2130   -0.0940   -2.9980 C   0  0  0  0  0  0  0  0  0  0  0  0
   -3.4200   -1.3340   -3.0660 O   0  0  0  0  0  0  0  0  0  0  0  0
   -3.3800    0.6320   -4.1750 O   0  0  0  0  0  0  0  0  0  0  0  0
   -1.3890   -3.3350   -2.9210 H   0  0  0  0  0  0  0  0  0  0  0  0
   -0.9090   -3.1510   -1.2260 H   0  0  0  0  0  0  0  0  0  0  0  0
    1.5600   -2.3960   -1.4180 H   0  0  0  0  0  0  0  0  0  0  0  0
   -0.9900   -1.0170   -4.2640 H   0  0  0  0  0  0  0  0  0  0  0  0
    1.2100    0.6360   -3.3670 H   0  0  0  0  0  0  0  0  0  0  0  0
   -0.2240    1.2290   -4.2370 H   0  0  0  0  0  0  0  0  0  0  0  0
    0.0470    0.8850   -1.1900 H   0  0  0  0  0  0  0  0  0  0  0  0
    0.2610    2.3660   -2.0950 H   0  0  0  0  0  0  0  0  0  0  0  0
   -1.9830    2.4470   -1.1050 H   0  0  0  0  0  0  0  0  0  0  0  0
   -2.1370    2.3040   -2.8990 H   0  0  0  0  0  0  0  0  0  0  0  0
   -3.8190    1.1940   -1.5060 H   0  0  0  0  0  0  0  0  0  0  0  0
   -1.6360   -0.6250   -0.4730 H   0  0  0  0  0  0  0  0  0  0  0  0
  1 16  1  0  0  0  0
  1 15  1  0  0  0  0
  2  1  1  0  0  0  0
  2 17  1  1  0  0  0
  3 19  1  0  0  0  0
  3  4  1  0  0  0  0
  3  2  1  0  0  0  0
  4  5  2  0  0  0  0
  5  6  1  0  0  0  0
  5 20  1  0  0  0  0
  6 21  1  0  0  0  0
  7  6  1  0  0  0  0
  8  7  1  0  0  0  0
  8 22  1  0  0  0  0
  9  8  2  0  0  0  0
 10 11  2  0  0  0  0
 10  9  1  0  0  0  0
 11 12  1  0  0  0  0
 12  4  1  0  0  0  0
 12  7  2  0  0  0  0
 13  2  1  0  0  0  0
 14 13  2  0  0  0  0
 18  3  1  0  0  0  0
 23  9  1  0  0  0  0
 24 10  1  0  0  0  0
 25 11  1  0  0  0  0
 26 35  1  0  0  0  0
 26 34  1  0  0  0  0
 27 26  1  0  0  0  0
 28 27  2  0  0  0  0
 29 37  1  0  0  0  0
 29 27  1  0  0  0  0
 30 38  1  6  0  0  0
 30 31  1  0  0  0  0
 30 29  1  0  0  0  0
 31 39  1  0  0  0  0
 31 13  1  0  0  0  0
 32 30  1  0  0  0  0
 33 32  2  0  0  0  0
 36 29  1  0  0  0  0
 40 53  1  0  0  0  0
 41 40  1  0  0  0  0
 41 42  2  0  0  0  0
 42 54  1  0  0  0  0
 43 44  1  0  0  0  0
 43 41  1  0  0  0  0
 44 45  1  0  0  0  0
 45 59  1  0  0  0  0
 45 46  1  0  0  0  0
 45 58  1  0  0  0  0
 46 47  1  0  0  0  0
 46 60  1  0  0  0  0
 47 62  1  1  0  0  0
 47 48  1  0  0  0  0
 48 63  1  0  0  0  0
 48 32  1  0  0  0  0
 49 47  1  0  0  0  0
 50 49  1  0  0  0  0
 51 49  2  0  0  0  0
 52 40  1  0  0  0  0
 55 43  1  0  0  0  0
 56 44  1  0  0  0  0
 57 44  1  0  0  0  0
 61 46  1  0  0  0  0
M  END
$$$$
