WNS.pdb
 OpenBabel07022419153D

 51 52  0  0  1  0  0  0  0  0999 V2000
   -1.0900    2.1990   -1.6310 N   0  0  0  0  0  0  0  0  0  0  0  0
   -0.7670    0.7990   -1.5370 C   0  0  1  0  0  0  0  0  0  0  0  0
    0.6820    0.4770   -1.5410 C   0  0  0  0  0  0  0  0  0  0  0  0
    1.5020    1.0500   -0.4870 C   0  0  0  0  0  0  0  0  0  0  0  0
    1.9430    0.4260    0.6720 C   0  0  0  0  0  0  0  0  0  0  0  0
    2.6600    1.2900    1.4040 N   0  0  0  0  0  0  0  0  0  0  0  0
    2.7080    2.4740    0.7590 C   0  0  0  0  0  0  0  0  0  0  0  0
    3.3150    3.6950    1.0670 C   0  0  0  0  0  0  0  0  0  0  0  0
    3.2330    4.7910    0.2340 C   0  0  0  0  0  0  0  0  0  0  0  0
    2.5160    4.6310   -0.9330 C   0  0  0  0  0  0  0  0  0  0  0  0
    1.9070    3.4420   -1.2620 C   0  0  0  0  0  0  0  0  0  0  0  0
    1.9940    2.3360   -0.4120 C   0  0  0  0  0  0  0  0  0  0  0  0
   -1.5860    0.1670   -0.5060 C   0  0  0  0  0  0  0  0  0  0  0  0
   -2.3640    0.8790    0.1800 O   0  0  0  0  0  0  0  0  0  0  0  0
   -2.0110    2.3650   -2.1000 H   0  0  0  0  0  0  0  0  0  0  0  0
   -1.1320    2.6790   -0.7120 H   0  0  0  0  0  0  0  0  0  0  0  0
   -1.1610    0.3680   -2.5240 H   0  0  0  0  0  0  0  0  0  0  0  0
    0.8000   -0.6420   -1.5470 H   0  0  0  0  0  0  0  0  0  0  0  0
    1.1300    0.7910   -2.5260 H   0  0  0  0  0  0  0  0  0  0  0  0
    1.7630   -0.5860    0.9710 H   0  0  0  0  0  0  0  0  0  0  0  0
    3.1340    1.1370    2.3320 H   0  0  0  0  0  0  0  0  0  0  0  0
    3.8700    3.7550    2.0090 H   0  0  0  0  0  0  0  0  0  0  0  0
    3.7100    5.7280    0.4900 H   0  0  0  0  0  0  0  0  0  0  0  0
    2.4210    5.4740   -1.6300 H   0  0  0  0  0  0  0  0  0  0  0  0
    1.3510    3.3000   -2.1760 H   0  0  0  0  0  0  0  0  0  0  0  0
   -4.0860   -4.5350   -1.2300 N   0  0  0  0  0  0  0  0  0  0  0  0
   -3.1560   -3.6920   -0.5770 C   0  0  0  0  0  0  0  0  0  0  0  0
   -1.9350   -3.9300   -0.7040 O   0  0  0  0  0  0  0  0  0  0  0  0
   -3.6100   -2.5660    0.2300 C   0  0  0  0  0  0  0  0  0  0  0  0
   -2.4520   -1.7720    0.8460 C   0  0  2  0  0  0  0  0  0  0  0  0
   -1.5950   -1.2340   -0.1880 N   0  0  0  0  0  0  0  0  0  0  0  0
   -1.7650   -2.5460    1.8790 C   0  0  0  0  0  0  0  0  0  0  0  0
   -2.4480   -3.0670    2.8270 O   0  0  0  0  0  0  0  0  0  0  0  0
   -3.8660   -5.5580   -1.4220 H   0  0  0  0  0  0  0  0  0  0  0  0
   -5.0220   -4.2230   -1.5580 H   0  0  0  0  0  0  0  0  0  0  0  0
   -4.2000   -1.8200   -0.3510 H   0  0  0  0  0  0  0  0  0  0  0  0
   -4.2360   -2.8760    1.1040 H   0  0  0  0  0  0  0  0  0  0  0  0
   -2.9810   -0.9140    1.3580 H   0  0  0  0  0  0  0  0  0  0  0  0
   -0.9540   -1.8220   -0.7410 H   0  0  0  0  0  0  0  0  0  0  0  0
    1.5550   -5.4770    3.4790 O   0  0  0  0  0  0  0  0  0  0  0  0
    1.0030   -4.7430    2.4460 C   0  0  0  0  0  0  0  0  0  0  0  0
    0.2130   -3.5690    2.9990 C   0  0  2  0  0  0  0  0  0  0  0  0
   -0.3720   -2.7900    1.9440 N   0  0  0  0  0  0  0  0  0  0  0  0
    1.1210   -2.7510    3.8420 C   0  0  0  0  0  0  0  0  0  0  0  0
    1.7500   -3.2110    4.8100 O   0  0  0  0  0  0  0  0  0  0  0  0
    1.2660   -1.4100    3.5260 O   0  0  0  0  0  0  0  0  0  0  0  0
    0.9770   -5.4910    4.2850 H   0  0  0  0  0  0  0  0  0  0  0  0
    1.8380   -4.3980    1.8080 H   0  0  0  0  0  0  0  0  0  0  0  0
    0.3110   -5.3910    1.8930 H   0  0  0  0  0  0  0  0  0  0  0  0
   -0.6130   -3.9650    3.6440 H   0  0  0  0  0  0  0  0  0  0  0  0
    0.2290   -2.3870    1.1950 H   0  0  0  0  0  0  0  0  0  0  0  0
  1  2  1  0  0  0  0
  1 16  1  0  0  0  0
  2 17  1  6  0  0  0
  2 13  1  0  0  0  0
  3  2  1  0  0  0  0
  3  4  1  0  0  0  0
  4 12  1  0  0  0  0
  4  5  2  0  0  0  0
  5 20  1  0  0  0  0
  5  6  1  0  0  0  0
  6 21  1  0  0  0  0
  7  8  1  0  0  0  0
  7  6  1  0  0  0  0
  8 22  1  0  0  0  0
  9 23  1  0  0  0  0
  9  8  2  0  0  0  0
 10  9  1  0  0  0  0
 11 10  2  0  0  0  0
 11 12  1  0  0  0  0
 12  7  2  0  0  0  0
 13 31  1  0  0  0  0
 13 14  2  0  0  0  0
 15  1  1  0  0  0  0
 18  3  1  0  0  0  0
 19  3  1  0  0  0  0
 24 10  1  0  0  0  0
 25 11  1  0  0  0  0
 26 27  1  0  0  0  0
 27 29  1  0  0  0  0
 28 27  2  0  0  0  0
 29 30  1  0  0  0  0
 29 37  1  0  0  0  0
 30 38  1  1  0  0  0
 30 32  1  0  0  0  0
 31 30  1  0  0  0  0
 32 43  1  0  0  0  0
 32 33  2  0  0  0  0
 34 26  1  0  0  0  0
 35 26  1  0  0  0  0
 36 29  1  0  0  0  0
 39 31  1  0  0  0  0
 40 47  1  0  0  0  0
 41 42  1  0  0  0  0
 41 40  1  0  0  0  0
 42 50  1  1  0  0  0
 42 44  1  0  0  0  0
 43 42  1  0  0  0  0
 44 45  1  0  0  0  0
 46 44  2  0  0  0  0
 48 41  1  0  0  0  0
 49 41  1  0  0  0  0
 51 43  1  0  0  0  0
M  END
$$$$
