WNT.pdb
 OpenBabel07022419153D

 54 55  0  0  1  0  0  0  0  0999 V2000
    1.2570    2.3430    0.1360 N   0  0  0  0  0  0  0  0  0  0  0  0
    0.6890    1.1440   -0.4000 C   0  0  1  0  0  0  0  0  0  0  0  0
    1.3180   -0.0810    0.1940 C   0  0  0  0  0  0  0  0  0  0  0  0
    2.7560   -0.2210   -0.0080 C   0  0  0  0  0  0  0  0  0  0  0  0
    3.3910   -1.0180   -0.9760 C   0  0  0  0  0  0  0  0  0  0  0  0
    4.7180   -0.8860   -0.8770 N   0  0  0  0  0  0  0  0  0  0  0  0
    4.9950   -0.0320    0.1200 C   0  0  0  0  0  0  0  0  0  0  0  0
    6.1920    0.4270    0.6200 C   0  0  0  0  0  0  0  0  0  0  0  0
    6.2080    1.3100    1.6750 C   0  0  0  0  0  0  0  0  0  0  0  0
    5.0180    1.7300    2.2240 C   0  0  0  0  0  0  0  0  0  0  0  0
    3.8070    1.2830    1.7380 C   0  0  0  0  0  0  0  0  0  0  0  0
    3.7870    0.3890    0.6680 C   0  0  0  0  0  0  0  0  0  0  0  0
   -0.7850    1.1710   -0.1120 C   0  0  0  0  0  0  0  0  0  0  0  0
   -1.3080    2.1580    0.4480 O   0  0  0  0  0  0  0  0  0  0  0  0
    0.5270    3.0530    0.4060 H   0  0  0  0  0  0  0  0  0  0  0  0
    1.9650    2.7660   -0.5090 H   0  0  0  0  0  0  0  0  0  0  0  0
    0.7540    1.1090   -1.5210 H   0  0  0  0  0  0  0  0  0  0  0  0
    0.7860   -0.9680   -0.2470 H   0  0  0  0  0  0  0  0  0  0  0  0
    1.1080   -0.1590    1.2840 H   0  0  0  0  0  0  0  0  0  0  0  0
    2.8390   -1.6260   -1.6690 H   0  0  0  0  0  0  0  0  0  0  0  0
    5.4310   -1.3610   -1.4680 H   0  0  0  0  0  0  0  0  0  0  0  0
    7.1350    0.0960    0.1860 H   0  0  0  0  0  0  0  0  0  0  0  0
    7.1600    1.6860    2.0870 H   0  0  0  0  0  0  0  0  0  0  0  0
    5.0520    2.4280    3.0580 H   0  0  0  0  0  0  0  0  0  0  0  0
    2.8920    1.6250    2.1980 H   0  0  0  0  0  0  0  0  0  0  0  0
   -4.8020    1.6800   -2.8680 N   0  0  0  0  0  0  0  0  0  0  0  0
   -3.6750    0.9490   -2.3810 C   0  0  0  0  0  0  0  0  0  0  0  0
   -2.5320    1.3220   -2.7830 O   0  0  0  0  0  0  0  0  0  0  0  0
   -3.8590   -0.1870   -1.4460 C   0  0  0  0  0  0  0  0  0  0  0  0
   -2.9950   -0.0150   -0.2440 C   0  0  2  0  0  0  0  0  0  0  0  0
   -1.5810    0.0700   -0.4770 N   0  0  0  0  0  0  0  0  0  0  0  0
   -3.3410   -1.0970    0.7140 C   0  0  0  0  0  0  0  0  0  0  0  0
   -4.5450   -1.2660    0.9960 O   0  0  0  0  0  0  0  0  0  0  0  0
   -5.7290    1.2390   -2.9460 H   0  0  0  0  0  0  0  0  0  0  0  0
   -4.7070    2.6840   -3.1550 H   0  0  0  0  0  0  0  0  0  0  0  0
   -4.9120   -0.1480   -1.0970 H   0  0  0  0  0  0  0  0  0  0  0  0
   -3.7480   -1.1700   -1.9410 H   0  0  0  0  0  0  0  0  0  0  0  0
   -3.3030    0.9390    0.2510 H   0  0  0  0  0  0  0  0  0  0  0  0
   -1.1310   -0.7470   -0.9480 H   0  0  0  0  0  0  0  0  0  0  0  0
   -0.9620   -4.3320    1.3310 C   0  0  0  0  0  0  0  0  0  0  0  0
   -2.4400   -4.3090    1.6210 C   0  0  1  0  0  0  0  0  0  0  0  0
   -2.7990   -5.3800    2.4340 O   0  0  0  0  0  0  0  0  0  0  0  0
   -2.7950   -2.9660    2.2330 C   0  0  2  0  0  0  0  0  0  0  0  0
   -2.3760   -1.9350    1.3120 N   0  0  0  0  0  0  0  0  0  0  0  0
   -2.1930   -2.8020    3.5700 C   0  0  0  0  0  0  0  0  0  0  0  0
   -2.4720   -3.6240    4.4720 O   0  0  0  0  0  0  0  0  0  0  0  0
   -1.3270   -1.7790    3.8800 O   0  0  0  0  0  0  0  0  0  0  0  0
   -0.6950   -3.6420    0.5100 H   0  0  0  0  0  0  0  0  0  0  0  0
   -0.6660   -5.3970    1.0730 H   0  0  0  0  0  0  0  0  0  0  0  0
   -0.4230   -4.0710    2.2690 H   0  0  0  0  0  0  0  0  0  0  0  0
   -2.9900   -4.4180    0.6670 H   0  0  0  0  0  0  0  0  0  0  0  0
   -2.9520   -6.2010    1.8980 H   0  0  0  0  0  0  0  0  0  0  0  0
   -3.9190   -2.9130    2.3390 H   0  0  0  0  0  0  0  0  0  0  0  0
   -1.3750   -1.8190    1.1020 H   0  0  0  0  0  0  0  0  0  0  0  0
  1 15  1  0  0  0  0
  2 17  1  6  0  0  0
  2 13  1  0  0  0  0
  2  1  1  0  0  0  0
  2  3  1  0  0  0  0
  3 19  1  0  0  0  0
  4  3  1  0  0  0  0
  4 12  1  0  0  0  0
  5  6  1  0  0  0  0
  5  4  2  0  0  0  0
  6  7  1  0  0  0  0
  7  8  2  0  0  0  0
  7 12  1  0  0  0  0
  8  9  1  0  0  0  0
  9 23  1  0  0  0  0
  9 10  2  0  0  0  0
 10 24  1  0  0  0  0
 11 25  1  0  0  0  0
 11 10  1  0  0  0  0
 12 11  2  0  0  0  0
 13 14  2  0  0  0  0
 16  1  1  0  0  0  0
 18  3  1  0  0  0  0
 20  5  1  0  0  0  0
 21  6  1  0  0  0  0
 22  8  1  0  0  0  0
 26 27  1  0  0  0  0
 27 29  1  0  0  0  0
 28 27  2  0  0  0  0
 29 36  1  0  0  0  0
 29 30  1  0  0  0  0
 30 38  1  1  0  0  0
 30 32  1  0  0  0  0
 31 30  1  0  0  0  0
 31 13  1  0  0  0  0
 32 33  2  0  0  0  0
 32 44  1  0  0  0  0
 34 26  1  0  0  0  0
 35 26  1  0  0  0  0
 37 29  1  0  0  0  0
 39 31  1  0  0  0  0
 40 41  1  0  0  0  0
 40 50  1  0  0  0  0
 41 51  1  6  0  0  0
 41 43  1  0  0  0  0
 41 42  1  0  0  0  0
 43 53  1  1  0  0  0
 43 45  1  0  0  0  0
 44 43  1  0  0  0  0
 45 47  2  0  0  0  0
 45 46  1  0  0  0  0
 48 40  1  0  0  0  0
 49 40  1  0  0  0  0
 52 42  1  0  0  0  0
 54 44  1  0  0  0  0
M  END
$$$$
