WNY.pdb
 OpenBabel07022419153D

 61 63  0  0  1  0  0  0  0  0999 V2000
    2.4530   -4.7420    3.4140 N   0  0  0  0  0  0  0  0  0  0  0  0
    2.1660   -3.3070    3.3940 C   0  0  1  0  0  0  0  0  0  0  0  0
    3.4780   -2.6550    3.0760 C   0  0  0  0  0  0  0  0  0  0  0  0
    3.4950   -1.2110    2.9580 C   0  0  0  0  0  0  0  0  0  0  0  0
    3.8310   -0.2710    3.8930 C   0  0  0  0  0  0  0  0  0  0  0  0
    3.6910    0.9550    3.3600 N   0  0  0  0  0  0  0  0  0  0  0  0
    3.2620    0.8420    2.0720 C   0  0  0  0  0  0  0  0  0  0  0  0
    2.9810    1.7720    1.0910 C   0  0  0  0  0  0  0  0  0  0  0  0
    2.5720    1.3700   -0.1650 C   0  0  0  0  0  0  0  0  0  0  0  0
    2.4530    0.0200   -0.4110 C   0  0  0  0  0  0  0  0  0  0  0  0
    2.7250   -0.9220    0.5490 C   0  0  0  0  0  0  0  0  0  0  0  0
    3.1350   -0.5010    1.8050 C   0  0  0  0  0  0  0  0  0  0  0  0
    1.0370   -2.9980    2.5250 C   0  0  0  0  0  0  0  0  0  0  0  0
    0.6530   -3.8550    1.6670 O   0  0  0  0  0  0  0  0  0  0  0  0
    3.4410   -4.9170    3.6910 H   0  0  0  0  0  0  0  0  0  0  0  0
    1.7560   -5.2600    3.9900 H   0  0  0  0  0  0  0  0  0  0  0  0
    1.9240   -3.0540    4.4630 H   0  0  0  0  0  0  0  0  0  0  0  0
    4.1760   -2.9470    3.9180 H   0  0  0  0  0  0  0  0  0  0  0  0
    3.9500   -3.1430    2.1810 H   0  0  0  0  0  0  0  0  0  0  0  0
    4.1690   -0.4310    4.9300 H   0  0  0  0  0  0  0  0  0  0  0  0
    3.8660    1.8940    3.8100 H   0  0  0  0  0  0  0  0  0  0  0  0
    3.0950    2.8300    1.3460 H   0  0  0  0  0  0  0  0  0  0  0  0
    2.3590    2.1250   -0.9180 H   0  0  0  0  0  0  0  0  0  0  0  0
    2.1380   -0.2960   -1.3920 H   0  0  0  0  0  0  0  0  0  0  0  0
    2.6230   -1.9640    0.3300 H   0  0  0  0  0  0  0  0  0  0  0  0
   -4.4910   -2.0200    2.8610 N   0  0  0  0  0  0  0  0  0  0  0  0
   -3.3780   -1.8550    1.9360 C   0  0  0  0  0  0  0  0  0  0  0  0
   -3.7250   -1.7000    0.7700 O   0  0  0  0  0  0  0  0  0  0  0  0
   -2.0710   -1.8920    2.4750 C   0  0  0  0  0  0  0  0  0  0  0  0
   -0.8430   -1.6120    1.6260 C   0  0  2  0  0  0  0  0  0  0  0  0
    0.3110   -1.7920    2.5670 N   0  0  0  0  0  0  0  0  0  0  0  0
   -0.7670   -0.2730    1.0590 C   0  0  0  0  0  0  0  0  0  0  0  0
   -0.0460    0.6460    1.5850 O   0  0  0  0  0  0  0  0  0  0  0  0
   -5.1780   -1.2490    2.8970 H   0  0  0  0  0  0  0  0  0  0  0  0
   -4.5700   -2.8830    3.4470 H   0  0  0  0  0  0  0  0  0  0  0  0
   -1.9160   -1.1740    3.3590 H   0  0  0  0  0  0  0  0  0  0  0  0
   -1.8780   -2.8890    3.0100 H   0  0  0  0  0  0  0  0  0  0  0  0
   -0.7500   -2.3860    0.8880 H   0  0  0  0  0  0  0  0  0  0  0  0
    0.5210   -1.0180    3.2060 H   0  0  0  0  0  0  0  0  0  0  0  0
   -3.9660   -1.9770   -5.3790 O   0  0  0  0  0  0  0  0  0  0  0  0
   -3.1930   -1.1670   -4.5620 C   0  0  0  0  0  0  0  0  0  0  0  0
   -2.1750   -1.7190   -3.8080 C   0  0  0  0  0  0  0  0  0  0  0  0
   -1.4260   -0.8890   -3.0070 C   0  0  0  0  0  0  0  0  0  0  0  0
   -1.6440    0.4790   -2.9200 C   0  0  0  0  0  0  0  0  0  0  0  0
   -0.8070    1.3450   -2.0360 C   0  0  0  0  0  0  0  0  0  0  0  0
   -1.3950    1.4700   -0.6470 C   0  0  2  0  0  0  0  0  0  0  0  0
   -1.4630    0.1120   -0.0940 N   0  0  0  0  0  0  0  0  0  0  0  0
   -2.7160    2.1090   -0.6620 C   0  0  0  0  0  0  0  0  0  0  0  0
   -3.7070    1.4810   -0.2320 O   0  0  0  0  0  0  0  0  0  0  0  0
   -2.6720    0.9930   -3.6900 C   0  0  0  0  0  0  0  0  0  0  0  0
   -3.4600    0.1990   -4.5170 C   0  0  0  0  0  0  0  0  0  0  0  0
   -2.8970    3.3910   -1.1380 O   0  0  0  0  0  0  0  0  0  0  0  0
   -4.1200   -2.9640   -5.1820 H   0  0  0  0  0  0  0  0  0  0  0  0
   -2.0130   -2.7840   -3.8830 H   0  0  0  0  0  0  0  0  0  0  0  0
   -0.6280   -1.3270   -2.4180 H   0  0  0  0  0  0  0  0  0  0  0  0
    0.2070    0.9170   -2.0270 H   0  0  0  0  0  0  0  0  0  0  0  0
   -0.7250    2.3410   -2.5310 H   0  0  0  0  0  0  0  0  0  0  0  0
   -0.6700    2.0170   -0.0100 H   0  0  0  0  0  0  0  0  0  0  0  0
   -2.0410   -0.5240   -0.6540 H   0  0  0  0  0  0  0  0  0  0  0  0
   -2.8800    2.0620   -3.6530 H   0  0  0  0  0  0  0  0  0  0  0  0
   -4.2610    0.5990   -5.1170 H   0  0  0  0  0  0  0  0  0  0  0  0
  1 15  1  0  0  0  0
  1 16  1  0  0  0  0
  2  1  1  0  0  0  0
  2 17  1  1  0  0  0
  3  2  1  0  0  0  0
  3 18  1  0  0  0  0
  4  3  1  0  0  0  0
  4  5  2  0  0  0  0
  5 20  1  0  0  0  0
  6 21  1  0  0  0  0
  6  5  1  0  0  0  0
  7  6  1  0  0  0  0
  8 22  1  0  0  0  0
  8  7  2  0  0  0  0
  9  8  1  0  0  0  0
 10  9  2  0  0  0  0
 10 11  1  0  0  0  0
 11 12  2  0  0  0  0
 12  7  1  0  0  0  0
 12  4  1  0  0  0  0
 13 31  1  0  0  0  0
 13  2  1  0  0  0  0
 14 13  2  0  0  0  0
 19  3  1  0  0  0  0
 23  9  1  0  0  0  0
 24 10  1  0  0  0  0
 25 11  1  0  0  0  0
 26 34  1  0  0  0  0
 26 35  1  0  0  0  0
 27 29  1  0  0  0  0
 27 26  1  0  0  0  0
 28 27  2  0  0  0  0
 29 37  1  0  0  0  0
 29 36  1  0  0  0  0
 30 38  1  6  0  0  0
 30 29  1  0  0  0  0
 30 31  1  0  0  0  0
 31 39  1  0  0  0  0
 32 33  2  0  0  0  0
 32 30  1  0  0  0  0
 40 53  1  0  0  0  0
 40 41  1  0  0  0  0
 41 51  2  0  0  0  0
 41 42  1  0  0  0  0
 42 43  2  0  0  0  0
 43 44  1  0  0  0  0
 43 55  1  0  0  0  0
 44 45  1  0  0  0  0
 45 56  1  0  0  0  0
 45 46  1  0  0  0  0
 46 47  1  0  0  0  0
 46 58  1  1  0  0  0
 47 32  1  0  0  0  0
 48 46  1  0  0  0  0
 48 49  1  0  0  0  0
 50 60  1  0  0  0  0
 50 44  2  0  0  0  0
 51 50  1  0  0  0  0
 52 48  2  0  0  0  0
 54 42  1  0  0  0  0
 57 45  1  0  0  0  0
 59 47  1  0  0  0  0
 61 51  1  0  0  0  0
M  END
$$$$
