WPH.pdb
 OpenBabel07022419183D

 57 60  0  0  1  0  0  0  0  0999 V2000
   -2.3140   -0.6610    4.4430 N   0  0  0  0  0  0  0  0  0  0  0  0
   -1.6370    0.2870    3.4740 C   0  0  1  0  0  0  0  0  0  0  0  0
   -0.2580    0.3730    3.9690 C   0  0  0  0  0  0  0  0  0  0  0  0
    0.7320    1.1910    3.2970 C   0  0  0  0  0  0  0  0  0  0  0  0
    0.9550    2.5540    3.5390 C   0  0  0  0  0  0  0  0  0  0  0  0
    1.8980    2.9850    2.7170 N   0  0  0  0  0  0  0  0  0  0  0  0
    2.3170    1.9820    1.9400 C   0  0  0  0  0  0  0  0  0  0  0  0
    3.2950    1.9670    0.9570 C   0  0  0  0  0  0  0  0  0  0  0  0
    3.5900    0.8180    0.2910 C   0  0  0  0  0  0  0  0  0  0  0  0
    2.8690   -0.3170    0.6440 C   0  0  0  0  0  0  0  0  0  0  0  0
    1.8960   -0.3060    1.6190 C   0  0  0  0  0  0  0  0  0  0  0  0
    1.5940    0.8530    2.2950 C   0  0  0  0  0  0  0  0  0  0  0  0
   -1.9890   -0.1560    2.1490 C   0  0  0  0  0  0  0  0  0  0  0  0
   -2.4010   -1.3710    2.0290 O   0  0  0  0  0  0  0  0  0  0  0  0
   -1.9800   -0.4610    5.3910 H   0  0  0  0  0  0  0  0  0  0  0  0
   -3.3390   -0.5810    4.3000 H   0  0  0  0  0  0  0  0  0  0  0  0
   -2.2180    1.2520    3.6920 H   0  0  0  0  0  0  0  0  0  0  0  0
    0.1930   -0.6770    4.0870 H   0  0  0  0  0  0  0  0  0  0  0  0
   -0.2380    0.7170    5.0650 H   0  0  0  0  0  0  0  0  0  0  0  0
    0.4010    3.1070    4.3010 H   0  0  0  0  0  0  0  0  0  0  0  0
    2.2510    3.9640    2.6900 H   0  0  0  0  0  0  0  0  0  0  0  0
    3.8490    2.8760    0.6980 H   0  0  0  0  0  0  0  0  0  0  0  0
    4.3520    0.7900   -0.4810 H   0  0  0  0  0  0  0  0  0  0  0  0
    3.1140   -1.2330    0.1130 H   0  0  0  0  0  0  0  0  0  0  0  0
    1.3340   -1.1990    1.9040 H   0  0  0  0  0  0  0  0  0  0  0  0
   -1.9470    0.6020    0.9580 N   0  0  0  0  0  0  0  0  0  0  0  0
   -1.4020    1.9650    0.8940 C   0  0  0  0  0  0  0  0  0  0  0  0
   -2.2160    2.6220   -0.2230 C   0  0  0  0  0  0  0  0  0  0  0  0
   -2.4590    1.4790   -1.1960 C   0  0  0  0  0  0  0  0  0  0  0  0
   -2.5070    0.2450   -0.3000 C   0  0  1  0  0  0  0  0  0  0  0  0
   -2.0500   -0.9620   -0.9690 C   0  0  0  0  0  0  0  0  0  0  0  0
   -2.6390   -1.4210   -2.0000 O   0  0  0  0  0  0  0  0  0  0  0  0
   -1.5490    2.4770    1.8530 H   0  0  0  0  0  0  0  0  0  0  0  0
   -0.3490    1.9340    0.6190 H   0  0  0  0  0  0  0  0  0  0  0  0
   -1.6490    3.4050   -0.7340 H   0  0  0  0  0  0  0  0  0  0  0  0
   -3.1170    3.0370    0.2190 H   0  0  0  0  0  0  0  0  0  0  0  0
   -3.4160    1.6790   -1.7090 H   0  0  0  0  0  0  0  0  0  0  0  0
   -1.6620    1.4190   -1.9590 H   0  0  0  0  0  0  0  0  0  0  0  0
   -3.6340    0.1410   -0.0900 H   0  0  0  0  0  0  0  0  0  0  0  0
   -0.9420   -1.6970   -0.5320 N   0  0  0  0  0  0  0  0  0  0  0  0
   -0.5120   -2.9140   -1.2120 C   0  0  1  0  0  0  0  0  0  0  0  0
    0.7970   -2.7530   -1.8900 C   0  0  0  0  0  0  0  0  0  0  0  0
    1.1830   -4.0090   -2.5650 C   0  0  0  0  0  0  0  0  0  0  0  0
    0.8590   -4.3700   -3.8760 C   0  0  0  0  0  0  0  0  0  0  0  0
    1.3630   -5.5680   -4.1750 N   0  0  0  0  0  0  0  0  0  0  0  0
    2.0130   -5.9960   -3.0780 C   0  0  0  0  0  0  0  0  0  0  0  0
    1.9110   -5.0650   -2.1020 N   0  0  0  0  0  0  0  0  0  0  0  0
   -0.5120   -4.0580   -0.3030 C   0  0  0  0  0  0  0  0  0  0  0  0
   -0.8280   -3.8340    0.9160 O   0  0  0  0  0  0  0  0  0  0  0  0
   -0.2130   -5.3580   -0.6030 O   0  0  0  0  0  0  0  0  0  0  0  0
   -0.3600   -1.4320    0.2810 H   0  0  0  0  0  0  0  0  0  0  0  0
   -1.2700   -3.1120   -2.0190 H   0  0  0  0  0  0  0  0  0  0  0  0
    1.5740   -2.5280   -1.1250 H   0  0  0  0  0  0  0  0  0  0  0  0
    0.7870   -1.9720   -2.6940 H   0  0  0  0  0  0  0  0  0  0  0  0
    0.2740   -3.7310   -4.5260 H   0  0  0  0  0  0  0  0  0  0  0  0
    1.2390   -6.0320   -5.1110 H   0  0  0  0  0  0  0  0  0  0  0  0
    2.5280   -6.9480   -3.0270 H   0  0  0  0  0  0  0  0  0  0  0  0
  1 15  1  0  0  0  0
  2 17  1  1  0  0  0
  2  3  1  0  0  0  0
  2  1  1  0  0  0  0
  3 18  1  0  0  0  0
  3 19  1  0  0  0  0
  4  5  2  0  0  0  0
  4  3  1  0  0  0  0
  5 20  1  0  0  0  0
  6  5  1  0  0  0  0
  7 12  1  0  0  0  0
  7  6  1  0  0  0  0
  8  7  2  0  0  0  0
  9 10  2  0  0  0  0
  9  8  1  0  0  0  0
 10 11  1  0  0  0  0
 11 25  1  0  0  0  0
 11 12  2  0  0  0  0
 12  4  1  0  0  0  0
 13  2  1  0  0  0  0
 14 13  2  0  0  0  0
 16  1  1  0  0  0  0
 21  6  1  0  0  0  0
 22  8  1  0  0  0  0
 23  9  1  0  0  0  0
 24 10  1  0  0  0  0
 26 13  1  0  0  0  0
 27 26  1  0  0  0  0
 27 33  1  0  0  0  0
 28 36  1  0  0  0  0
 28 27  1  0  0  0  0
 29 30  1  0  0  0  0
 29 28  1  0  0  0  0
 30 39  1  1  0  0  0
 30 26  1  0  0  0  0
 31 40  1  0  0  0  0
 31 30  1  0  0  0  0
 32 31  2  0  0  0  0
 34 27  1  0  0  0  0
 35 28  1  0  0  0  0
 37 29  1  0  0  0  0
 38 29  1  0  0  0  0
 40 51  1  0  0  0  0
 41 52  1  6  0  0  0
 41 40  1  0  0  0  0
 41 48  1  0  0  0  0
 42 41  1  0  0  0  0
 42 53  1  0  0  0  0
 43 47  1  0  0  0  0
 43 42  1  0  0  0  0
 44 43  2  0  0  0  0
 45 44  1  0  0  0  0
 45 46  1  0  0  0  0
 46 57  1  0  0  0  0
 46 47  2  0  0  0  0
 48 49  1  0  0  0  0
 50 48  2  0  0  0  0
 54 42  1  0  0  0  0
 55 44  1  0  0  0  0
 56 45  1  0  0  0  0
M  END
$$$$
