WPK.pdb
 OpenBabel07022419183D

 61 63  0  0  1  0  0  0  0  0999 V2000
    1.8070    1.0110   -0.7400 N   0  0  0  0  0  0  0  0  0  0  0  0
    0.8500    0.3020    0.0910 C   0  0  1  0  0  0  0  0  0  0  0  0
    1.6890   -0.5680    1.0190 C   0  0  0  0  0  0  0  0  0  0  0  0
    2.6090    0.2180    1.8680 C   0  0  0  0  0  0  0  0  0  0  0  0
    2.3120    0.6040    3.1780 C   0  0  0  0  0  0  0  0  0  0  0  0
    3.3360    1.3350    3.6550 N   0  0  0  0  0  0  0  0  0  0  0  0
    4.3110    1.4610    2.7250 C   0  0  0  0  0  0  0  0  0  0  0  0
    5.5310    2.0950    2.7410 C   0  0  0  0  0  0  0  0  0  0  0  0
    6.3500    2.0570    1.6390 C   0  0  0  0  0  0  0  0  0  0  0  0
    5.8960    1.3640    0.5410 C   0  0  0  0  0  0  0  0  0  0  0  0
    4.6660    0.7220    0.5200 C   0  0  0  0  0  0  0  0  0  0  0  0
    3.8480    0.7610    1.6180 C   0  0  0  0  0  0  0  0  0  0  0  0
    0.0510    1.3000    0.8400 C   0  0  0  0  0  0  0  0  0  0  0  0
    0.5070    2.4980    0.8490 O   0  0  0  0  0  0  0  0  0  0  0  0
    2.1470    0.4250   -1.5340 H   0  0  0  0  0  0  0  0  0  0  0  0
    1.3890    1.9100   -1.0510 H   0  0  0  0  0  0  0  0  0  0  0  0
    0.2070   -0.3280   -0.5250 H   0  0  0  0  0  0  0  0  0  0  0  0
    1.1270   -1.2820    1.6080 H   0  0  0  0  0  0  0  0  0  0  0  0
    2.3530   -1.1770    0.3310 H   0  0  0  0  0  0  0  0  0  0  0  0
    1.4080    0.3380    3.6830 H   0  0  0  0  0  0  0  0  0  0  0  0
    3.3790    1.7510    4.6070 H   0  0  0  0  0  0  0  0  0  0  0  0
    5.8670    2.6320    3.6100 H   0  0  0  0  0  0  0  0  0  0  0  0
    7.3230    2.5460    1.6100 H   0  0  0  0  0  0  0  0  0  0  0  0
    6.4960    1.2970   -0.3580 H   0  0  0  0  0  0  0  0  0  0  0  0
    4.3420    0.1720   -0.3540 H   0  0  0  0  0  0  0  0  0  0  0  0
   -1.1500    0.9800    1.5160 N   0  0  0  0  0  0  0  0  0  0  0  0
   -1.9300    1.9730    2.2760 C   0  0  0  0  0  0  0  0  0  0  0  0
   -2.3000    1.1150    3.4820 C   0  0  0  0  0  0  0  0  0  0  0  0
   -2.8090   -0.1300    2.7900 C   0  0  0  0  0  0  0  0  0  0  0  0
   -1.8580   -0.2450    1.6130 C   0  0  1  0  0  0  0  0  0  0  0  0
   -2.5870   -0.6010    0.3660 C   0  0  0  0  0  0  0  0  0  0  0  0
   -2.5580    0.1520   -0.6490 O   0  0  0  0  0  0  0  0  0  0  0  0
   -1.3460    2.8510    2.5400 H   0  0  0  0  0  0  0  0  0  0  0  0
   -2.8800    2.1740    1.7490 H   0  0  0  0  0  0  0  0  0  0  0  0
   -3.0790    1.5720    4.0920 H   0  0  0  0  0  0  0  0  0  0  0  0
   -1.3940    0.8270    4.0450 H   0  0  0  0  0  0  0  0  0  0  0  0
   -2.7070   -0.9670    3.5020 H   0  0  0  0  0  0  0  0  0  0  0  0
   -3.8610   -0.0530    2.4820 H   0  0  0  0  0  0  0  0  0  0  0  0
   -1.1780   -1.0710    1.8570 H   0  0  0  0  0  0  0  0  0  0  0  0
   -3.3420   -1.8000    0.2720 N   0  0  0  0  0  0  0  0  0  0  0  0
   -4.0670   -2.1860   -0.9170 C   0  0  1  0  0  0  0  0  0  0  0  0
   -3.4650   -3.4430   -1.5090 C   0  0  0  0  0  0  0  0  0  0  0  0
   -2.0100   -3.1730   -1.8700 C   0  0  0  0  0  0  0  0  0  0  0  0
   -1.3660   -4.4070   -2.4680 C   0  0  0  0  0  0  0  0  0  0  0  0
    0.0780   -4.1550   -2.8310 C   0  0  0  0  0  0  0  0  0  0  0  0
    0.8150   -3.7810   -1.6280 N   0  0  0  0  0  0  0  0  0  0  0  0
   -5.5010   -2.3550   -0.6640 C   0  0  0  0  0  0  0  0  0  0  0  0
   -5.9410   -2.1650    0.4810 O   0  0  0  0  0  0  0  0  0  0  0  0
   -6.3700   -2.7200   -1.6770 O   0  0  0  0  0  0  0  0  0  0  0  0
   -3.3690   -2.4190    1.0990 H   0  0  0  0  0  0  0  0  0  0  0  0
   -3.9560   -1.4060   -1.7230 H   0  0  0  0  0  0  0  0  0  0  0  0
   -3.4280   -4.2030   -0.6840 H   0  0  0  0  0  0  0  0  0  0  0  0
   -4.0420   -3.8070   -2.3590 H   0  0  0  0  0  0  0  0  0  0  0  0
   -2.0120   -2.3890   -2.6590 H   0  0  0  0  0  0  0  0  0  0  0  0
   -1.4480   -2.7790   -1.0160 H   0  0  0  0  0  0  0  0  0  0  0  0
   -1.8810   -4.7300   -3.3930 H   0  0  0  0  0  0  0  0  0  0  0  0
   -1.4190   -5.2530   -1.7540 H   0  0  0  0  0  0  0  0  0  0  0  0
    0.1730   -3.2980   -3.5280 H   0  0  0  0  0  0  0  0  0  0  0  0
    0.5670   -5.0130   -3.2850 H   0  0  0  0  0  0  0  0  0  0  0  0
    0.2440   -3.9220   -0.7630 H   0  0  0  0  0  0  0  0  0  0  0  0
    1.1490   -2.7960   -1.6550 H   0  0  0  0  0  0  0  0  0  0  0  0
  1  2  1  0  0  0  0
  2 17  1  6  0  0  0
  2 13  1  0  0  0  0
  2  3  1  0  0  0  0
  3 18  1  0  0  0  0
  3  4  1  0  0  0  0
  4  5  2  0  0  0  0
  5  6  1  0  0  0  0
  5 20  1  0  0  0  0
  6 21  1  0  0  0  0
  7  8  1  0  0  0  0
  7  6  1  0  0  0  0
  8 22  1  0  0  0  0
  9  8  2  0  0  0  0
 10  9  1  0  0  0  0
 11 10  2  0  0  0  0
 11 12  1  0  0  0  0
 12  4  1  0  0  0  0
 12  7  2  0  0  0  0
 13 14  2  0  0  0  0
 13 26  1  0  0  0  0
 15  1  1  0  0  0  0
 16  1  1  0  0  0  0
 19  3  1  0  0  0  0
 23  9  1  0  0  0  0
 24 10  1  0  0  0  0
 25 11  1  0  0  0  0
 26 30  1  0  0  0  0
 26 27  1  0  0  0  0
 27 33  1  0  0  0  0
 27 28  1  0  0  0  0
 28 36  1  0  0  0  0
 28 35  1  0  0  0  0
 29 28  1  0  0  0  0
 29 37  1  0  0  0  0
 30 39  1  1  0  0  0
 30 29  1  0  0  0  0
 31 30  1  0  0  0  0
 32 31  2  0  0  0  0
 34 27  1  0  0  0  0
 38 29  1  0  0  0  0
 40 31  1  0  0  0  0
 40 50  1  0  0  0  0
 41 51  1  6  0  0  0
 41 47  1  0  0  0  0
 41 40  1  0  0  0  0
 42 41  1  0  0  0  0
 42 52  1  0  0  0  0
 43 42  1  0  0  0  0
 43 55  1  0  0  0  0
 44 43  1  0  0  0  0
 44 57  1  0  0  0  0
 45 44  1  0  0  0  0
 45 46  1  0  0  0  0
 46 60  1  0  0  0  0
 47 48  1  0  0  0  0
 49 47  2  0  0  0  0
 53 42  1  0  0  0  0
 54 43  1  0  0  0  0
 56 44  1  0  0  0  0
 58 45  1  0  0  0  0
 59 45  1  0  0  0  0
 61 46  1  0  0  0  0
M  END
$$$$
