WPL.pdb
 OpenBabel07022419183D

 59 61  0  0  1  0  0  0  0  0999 V2000
    2.1970    0.0770    0.0380 N   0  0  0  0  0  0  0  0  0  0  0  0
    0.8120   -0.1100    0.4500 C   0  0  1  0  0  0  0  0  0  0  0  0
    0.8880   -0.6100    1.9000 C   0  0  0  0  0  0  0  0  0  0  0  0
    1.5990    0.3690    2.7770 C   0  0  0  0  0  0  0  0  0  0  0  0
    1.0220    1.3660    3.5520 C   0  0  0  0  0  0  0  0  0  0  0  0
    1.9820    2.0750    4.1630 N   0  0  0  0  0  0  0  0  0  0  0  0
    3.1560    1.5440    3.7900 C   0  0  0  0  0  0  0  0  0  0  0  0
    4.4490    1.8730    4.1240 C   0  0  0  0  0  0  0  0  0  0  0  0
    5.5380    1.1970    3.6450 C   0  0  0  0  0  0  0  0  0  0  0  0
    5.3320    0.1380    2.7890 C   0  0  0  0  0  0  0  0  0  0  0  0
    4.0640   -0.2300    2.4250 C   0  0  0  0  0  0  0  0  0  0  0  0
    2.9580    0.4720    2.9220 C   0  0  0  0  0  0  0  0  0  0  0  0
    0.0160    1.0940    0.3360 C   0  0  0  0  0  0  0  0  0  0  0  0
    0.6710    2.1900    0.5710 O   0  0  0  0  0  0  0  0  0  0  0  0
    2.3850   -0.2320   -0.9190 H   0  0  0  0  0  0  0  0  0  0  0  0
    2.5610    1.0150    0.2780 H   0  0  0  0  0  0  0  0  0  0  0  0
    0.4220   -0.9140   -0.1650 H   0  0  0  0  0  0  0  0  0  0  0  0
   -0.0840   -0.8740    2.3200 H   0  0  0  0  0  0  0  0  0  0  0  0
    1.5110   -1.5230    1.8680 H   0  0  0  0  0  0  0  0  0  0  0  0
   -0.0400    1.5210    3.6290 H   0  0  0  0  0  0  0  0  0  0  0  0
    1.7970    2.8850    4.8050 H   0  0  0  0  0  0  0  0  0  0  0  0
    4.5940    2.7190    4.8070 H   0  0  0  0  0  0  0  0  0  0  0  0
    6.5370    1.5100    3.9490 H   0  0  0  0  0  0  0  0  0  0  0  0
    6.1610   -0.4280    2.3850 H   0  0  0  0  0  0  0  0  0  0  0  0
    3.9040   -1.0700    1.7690 H   0  0  0  0  0  0  0  0  0  0  0  0
   -1.3270    1.1920    0.0100 N   0  0  0  0  0  0  0  0  0  0  0  0
   -1.9220    2.6100    0.0320 C   0  0  0  0  0  0  0  0  0  0  0  0
   -2.8090    2.6310   -1.1950 C   0  0  0  0  0  0  0  0  0  0  0  0
   -2.7160    1.2260   -1.7660 C   0  0  0  0  0  0  0  0  0  0  0  0
   -2.4500    0.4840   -0.4080 C   0  0  1  0  0  0  0  0  0  0  0  0
   -2.6690   -0.9030   -0.5230 C   0  0  0  0  0  0  0  0  0  0  0  0
   -3.6020   -1.2320   -1.3970 O   0  0  0  0  0  0  0  0  0  0  0  0
   -2.5210    2.6610    0.9360 H   0  0  0  0  0  0  0  0  0  0  0  0
   -1.1440    3.3400   -0.1180 H   0  0  0  0  0  0  0  0  0  0  0  0
   -2.4960    3.4070   -1.9200 H   0  0  0  0  0  0  0  0  0  0  0  0
   -3.8780    2.7750   -0.8970 H   0  0  0  0  0  0  0  0  0  0  0  0
   -3.6360    0.8700   -2.2210 H   0  0  0  0  0  0  0  0  0  0  0  0
   -1.8100    1.1670   -2.3970 H   0  0  0  0  0  0  0  0  0  0  0  0
   -3.3440    0.9020    0.2060 H   0  0  0  0  0  0  0  0  0  0  0  0
    0.5430   -4.4570   -2.2910 C   0  0  0  0  0  0  0  0  0  0  0  0
   -0.6610   -3.6150   -1.9010 C   0  0  0  0  0  0  0  0  0  0  0  0
   -1.5840   -3.6490   -3.1050 C   0  0  0  0  0  0  0  0  0  0  0  0
   -1.3420   -4.1870   -0.6730 C   0  0  0  0  0  0  0  0  0  0  0  0
   -2.5330   -3.4020   -0.2300 C   0  0  2  0  0  0  0  0  0  0  0  0
   -2.1160   -2.0400    0.0920 N   0  0  0  0  0  0  0  0  0  0  0  0
   -3.1230   -4.0640    0.9640 C   0  0  0  0  0  0  0  0  0  0  0  0
   -3.2310   -3.5110    2.0720 O   0  0  0  0  0  0  0  0  0  0  0  0
   -3.5680   -5.3670    0.8080 O   0  0  0  0  0  0  0  0  0  0  0  0
    0.1780   -5.3170   -2.8880 H   0  0  0  0  0  0  0  0  0  0  0  0
    1.1000   -4.8200   -1.4270 H   0  0  0  0  0  0  0  0  0  0  0  0
    1.1640   -3.8370   -2.9860 H   0  0  0  0  0  0  0  0  0  0  0  0
   -0.3810   -2.5600   -1.7200 H   0  0  0  0  0  0  0  0  0  0  0  0
   -1.5640   -4.6900   -3.5000 H   0  0  0  0  0  0  0  0  0  0  0  0
   -2.5890   -3.2760   -2.9160 H   0  0  0  0  0  0  0  0  0  0  0  0
   -1.0830   -3.0320   -3.9020 H   0  0  0  0  0  0  0  0  0  0  0  0
   -1.7280   -5.2010   -0.9900 H   0  0  0  0  0  0  0  0  0  0  0  0
   -0.6330   -4.3850    0.1420 H   0  0  0  0  0  0  0  0  0  0  0  0
   -3.3040   -3.4430   -1.0210 H   0  0  0  0  0  0  0  0  0  0  0  0
   -1.4120   -1.8960    0.8020 H   0  0  0  0  0  0  0  0  0  0  0  0
  1 16  1  0  0  0  0
  1  2  1  0  0  0  0
  2 17  1  6  0  0  0
  2  3  1  0  0  0  0
  3 18  1  0  0  0  0
  3  4  1  0  0  0  0
  4 12  1  0  0  0  0
  4  5  2  0  0  0  0
  5 20  1  0  0  0  0
  5  6  1  0  0  0  0
  6 21  1  0  0  0  0
  7  8  1  0  0  0  0
  7  6  1  0  0  0  0
  8 22  1  0  0  0  0
  9 23  1  0  0  0  0
  9  8  2  0  0  0  0
 10  9  1  0  0  0  0
 11 10  2  0  0  0  0
 11 12  1  0  0  0  0
 12  7  2  0  0  0  0
 13  2  1  0  0  0  0
 13 14  2  0  0  0  0
 15  1  1  0  0  0  0
 19  3  1  0  0  0  0
 24 10  1  0  0  0  0
 25 11  1  0  0  0  0
 26 27  1  0  0  0  0
 26 13  1  0  0  0  0
 27 33  1  0  0  0  0
 28 36  1  0  0  0  0
 28 27  1  0  0  0  0
 29 28  1  0  0  0  0
 29 30  1  0  0  0  0
 30 26  1  0  0  0  0
 30 39  1  1  0  0  0
 31 30  1  0  0  0  0
 31 45  1  0  0  0  0
 32 31  2  0  0  0  0
 34 27  1  0  0  0  0
 35 28  1  0  0  0  0
 37 29  1  0  0  0  0
 38 29  1  0  0  0  0
 40 41  1  0  0  0  0
 40 50  1  0  0  0  0
 41 52  1  0  0  0  0
 41 43  1  0  0  0  0
 42 54  1  0  0  0  0
 42 41  1  0  0  0  0
 43 44  1  0  0  0  0
 43 57  1  0  0  0  0
 44 58  1  6  0  0  0
 44 45  1  0  0  0  0
 44 46  1  0  0  0  0
 45 59  1  0  0  0  0
 46 47  1  0  0  0  0
 48 46  2  0  0  0  0
 49 40  1  0  0  0  0
 51 40  1  0  0  0  0
 53 42  1  0  0  0  0
 55 42  1  0  0  0  0
 56 43  1  0  0  0  0
M  END
$$$$
