WPQ.pdb
 OpenBabel07022419183D

 57 59  0  0  1  0  0  0  0  0999 V2000
   -1.3870   -1.7590    2.2560 N   0  0  0  0  0  0  0  0  0  0  0  0
   -0.2240   -0.9230    2.4640 C   0  0  1  0  0  0  0  0  0  0  0  0
    1.0300   -1.7060    2.1800 C   0  0  0  0  0  0  0  0  0  0  0  0
    2.2770   -0.9420    2.3400 C   0  0  0  0  0  0  0  0  0  0  0  0
    3.0180   -0.8430    3.5310 C   0  0  0  0  0  0  0  0  0  0  0  0
    4.0670   -0.0360    3.3330 N   0  0  0  0  0  0  0  0  0  0  0  0
    4.0860    0.4270    2.0620 C   0  0  0  0  0  0  0  0  0  0  0  0
    4.9630    1.2590    1.3890 C   0  0  0  0  0  0  0  0  0  0  0  0
    4.7420    1.5460    0.0640 C   0  0  0  0  0  0  0  0  0  0  0  0
    3.6460    0.9920   -0.5550 C   0  0  0  0  0  0  0  0  0  0  0  0
    2.7770    0.1670    0.1180 C   0  0  0  0  0  0  0  0  0  0  0  0
    2.9730   -0.1420    1.4580 C   0  0  0  0  0  0  0  0  0  0  0  0
   -0.3130    0.4270    1.9440 C   0  0  0  0  0  0  0  0  0  0  0  0
    0.6720    1.2110    2.1540 O   0  0  0  0  0  0  0  0  0  0  0  0
   -1.9240   -1.8420    3.1380 H   0  0  0  0  0  0  0  0  0  0  0  0
   -1.0730   -2.7510    2.0190 H   0  0  0  0  0  0  0  0  0  0  0  0
   -0.2100   -0.7780    3.6150 H   0  0  0  0  0  0  0  0  0  0  0  0
    1.0140   -2.5940    2.8580 H   0  0  0  0  0  0  0  0  0  0  0  0
    1.0300   -2.0650    1.1020 H   0  0  0  0  0  0  0  0  0  0  0  0
    2.7220   -1.3710    4.4330 H   0  0  0  0  0  0  0  0  0  0  0  0
    4.7790    0.2120    4.0480 H   0  0  0  0  0  0  0  0  0  0  0  0
    5.8250    1.6990    1.8630 H   0  0  0  0  0  0  0  0  0  0  0  0
    5.4050    2.1990   -0.5180 H   0  0  0  0  0  0  0  0  0  0  0  0
    3.4460    1.2030   -1.6100 H   0  0  0  0  0  0  0  0  0  0  0  0
    1.9130   -0.2890   -0.3400 H   0  0  0  0  0  0  0  0  0  0  0  0
   -1.4070    0.9660    1.2190 N   0  0  0  0  0  0  0  0  0  0  0  0
   -1.4870    2.3420    0.6740 C   0  0  0  0  0  0  0  0  0  0  0  0
   -2.9730    2.6320    0.9440 C   0  0  0  0  0  0  0  0  0  0  0  0
   -3.5920    1.3790    0.4160 C   0  0  0  0  0  0  0  0  0  0  0  0
   -2.6370    0.2940    0.9070 C   0  0  1  0  0  0  0  0  0  0  0  0
   -2.4490   -0.6260   -0.2620 C   0  0  0  0  0  0  0  0  0  0  0  0
   -3.4950   -1.2190   -0.6140 O   0  0  0  0  0  0  0  0  0  0  0  0
   -0.8200    3.0340    1.1830 H   0  0  0  0  0  0  0  0  0  0  0  0
   -1.3820    2.3120   -0.4270 H   0  0  0  0  0  0  0  0  0  0  0  0
   -3.3030    3.5490    0.4150 H   0  0  0  0  0  0  0  0  0  0  0  0
   -3.1710    2.7370    2.0170 H   0  0  0  0  0  0  0  0  0  0  0  0
   -4.6230    1.1920    0.7790 H   0  0  0  0  0  0  0  0  0  0  0  0
   -3.5140    1.4110   -0.6820 H   0  0  0  0  0  0  0  0  0  0  0  0
   -3.0230   -0.2000    1.8010 H   0  0  0  0  0  0  0  0  0  0  0  0
   -0.3770   -5.2640    0.4300 N   0  0  0  0  0  0  0  0  0  0  0  0
   -0.5830   -4.4700   -0.7260 C   0  0  0  0  0  0  0  0  0  0  0  0
    0.3290   -4.3740   -1.5650 O   0  0  0  0  0  0  0  0  0  0  0  0
   -1.8650   -3.7650   -0.9370 C   0  0  0  0  0  0  0  0  0  0  0  0
   -1.8860   -2.8100   -2.0750 C   0  0  0  0  0  0  0  0  0  0  0  0
   -0.9520   -1.6490   -1.9950 C   0  0  2  0  0  0  0  0  0  0  0  0
   -1.2190   -0.7920   -0.8890 N   0  0  0  0  0  0  0  0  0  0  0  0
   -0.8880   -0.8800   -3.2340 C   0  0  0  0  0  0  0  0  0  0  0  0
   -1.0650    0.3850   -3.1900 O   0  0  0  0  0  0  0  0  0  0  0  0
   -0.6480   -1.4020   -4.4930 O   0  0  0  0  0  0  0  0  0  0  0  0
   -1.1980   -5.6390    0.9900 H   0  0  0  0  0  0  0  0  0  0  0  0
    0.5640   -5.5230    0.7940 H   0  0  0  0  0  0  0  0  0  0  0  0
   -2.6190   -4.5950   -1.1390 H   0  0  0  0  0  0  0  0  0  0  0  0
   -2.2000   -3.3280    0.0090 H   0  0  0  0  0  0  0  0  0  0  0  0
   -1.5530   -3.4080   -3.0110 H   0  0  0  0  0  0  0  0  0  0  0  0
   -2.9030   -2.4850   -2.3370 H   0  0  0  0  0  0  0  0  0  0  0  0
    0.0720   -2.1520   -1.8220 H   0  0  0  0  0  0  0  0  0  0  0  0
   -0.4330   -0.1910   -0.4610 H   0  0  0  0  0  0  0  0  0  0  0  0
  1  2  1  0  0  0  0
  1 15  1  0  0  0  0
  2 17  1  1  0  0  0
  3  4  1  0  0  0  0
  3  2  1  0  0  0  0
  3 18  1  0  0  0  0
  4  5  2  0  0  0  0
  5 20  1  0  0  0  0
  6  5  1  0  0  0  0
  6 21  1  0  0  0  0
  7  6  1  0  0  0  0
  8 22  1  0  0  0  0
  8  7  2  0  0  0  0
  9  8  1  0  0  0  0
 10  9  2  0  0  0  0
 10 11  1  0  0  0  0
 11 12  2  0  0  0  0
 12  7  1  0  0  0  0
 12  4  1  0  0  0  0
 13 14  2  0  0  0  0
 13  2  1  0  0  0  0
 16  1  1  0  0  0  0
 19  3  1  0  0  0  0
 23  9  1  0  0  0  0
 24 10  1  0  0  0  0
 25 11  1  0  0  0  0
 26 13  1  0  0  0  0
 27 28  1  0  0  0  0
 27 33  1  0  0  0  0
 27 26  1  0  0  0  0
 28 36  1  0  0  0  0
 29 37  1  0  0  0  0
 29 30  1  0  0  0  0
 29 28  1  0  0  0  0
 30 26  1  0  0  0  0
 30 39  1  1  0  0  0
 31 30  1  0  0  0  0
 32 31  2  0  0  0  0
 34 27  1  0  0  0  0
 35 28  1  0  0  0  0
 38 29  1  0  0  0  0
 40 51  1  0  0  0  0
 40 50  1  0  0  0  0
 41 40  1  0  0  0  0
 42 41  2  0  0  0  0
 43 41  1  0  0  0  0
 43 53  1  0  0  0  0
 44 45  1  0  0  0  0
 44 43  1  0  0  0  0
 45 56  1  1  0  0  0
 45 46  1  0  0  0  0
 46 57  1  0  0  0  0
 46 31  1  0  0  0  0
 47 48  1  0  0  0  0
 47 45  1  0  0  0  0
 49 47  2  0  0  0  0
 52 43  1  0  0  0  0
 54 44  1  0  0  0  0
 55 44  1  0  0  0  0
M  END
$$$$
