WPR.pdb
 OpenBabel07022419183D

 63 65  0  0  1  0  0  0  0  0999 V2000
    0.0540    1.2720    4.8380 N   0  0  0  0  0  0  0  0  0  0  0  0
    0.9730    0.8040    3.8140 C   0  0  1  0  0  0  0  0  0  0  0  0
    1.9080   -0.1540    4.4820 C   0  0  0  0  0  0  0  0  0  0  0  0
    2.9160   -0.7570    3.6100 C   0  0  0  0  0  0  0  0  0  0  0  0
    4.2320   -0.2890    3.4690 C   0  0  0  0  0  0  0  0  0  0  0  0
    4.8740   -1.0700    2.5670 N   0  0  0  0  0  0  0  0  0  0  0  0
    4.0450   -2.0270    2.1090 C   0  0  0  0  0  0  0  0  0  0  0  0
    4.2490   -3.0420    1.2050 C   0  0  0  0  0  0  0  0  0  0  0  0
    3.2040   -3.8940    0.9370 C   0  0  0  0  0  0  0  0  0  0  0  0
    1.9700   -3.7460    1.5560 C   0  0  0  0  0  0  0  0  0  0  0  0
    1.8250   -2.7120    2.4520 C   0  0  0  0  0  0  0  0  0  0  0  0
    2.8380   -1.8310    2.7550 C   0  0  0  0  0  0  0  0  0  0  0  0
    0.2610    0.3020    2.6470 C   0  0  0  0  0  0  0  0  0  0  0  0
    0.9220    0.1770    1.5770 O   0  0  0  0  0  0  0  0  0  0  0  0
    0.4280    0.9980    5.7630 H   0  0  0  0  0  0  0  0  0  0  0  0
   -0.0560    2.2980    4.7680 H   0  0  0  0  0  0  0  0  0  0  0  0
    1.5410    1.7470    3.5030 H   0  0  0  0  0  0  0  0  0  0  0  0
    2.3470    0.3670    5.3610 H   0  0  0  0  0  0  0  0  0  0  0  0
    1.2510   -0.9560    4.9340 H   0  0  0  0  0  0  0  0  0  0  0  0
    4.6980    0.5460    3.9720 H   0  0  0  0  0  0  0  0  0  0  0  0
    5.8750   -0.9460    2.2670 H   0  0  0  0  0  0  0  0  0  0  0  0
    5.1840   -3.2010    0.6990 H   0  0  0  0  0  0  0  0  0  0  0  0
    3.2990   -4.7250    0.2270 H   0  0  0  0  0  0  0  0  0  0  0  0
    1.1400   -4.4230    1.3430 H   0  0  0  0  0  0  0  0  0  0  0  0
    0.8610   -2.5780    2.9520 H   0  0  0  0  0  0  0  0  0  0  0  0
   -1.1120   -0.0520    2.6310 N   0  0  0  0  0  0  0  0  0  0  0  0
   -1.9530   -0.0080    3.8220 C   0  0  0  0  0  0  0  0  0  0  0  0
   -3.1490   -0.8850    3.4110 C   0  0  0  0  0  0  0  0  0  0  0  0
   -3.2920   -0.4580    1.9760 C   0  0  0  0  0  0  0  0  0  0  0  0
   -1.8730   -0.4800    1.4800 C   0  0  1  0  0  0  0  0  0  0  0  0
   -1.6750    0.5080    0.3790 C   0  0  0  0  0  0  0  0  0  0  0  0
   -1.0050    1.5500    0.5740 O   0  0  0  0  0  0  0  0  0  0  0  0
   -2.3090    1.0140    4.0110 H   0  0  0  0  0  0  0  0  0  0  0  0
   -1.4620   -0.4540    4.7140 H   0  0  0  0  0  0  0  0  0  0  0  0
   -4.0250   -0.7020    4.0320 H   0  0  0  0  0  0  0  0  0  0  0  0
   -2.8290   -1.9590    3.3930 H   0  0  0  0  0  0  0  0  0  0  0  0
   -3.9610   -1.1180    1.3940 H   0  0  0  0  0  0  0  0  0  0  0  0
   -3.6380    0.5970    1.9900 H   0  0  0  0  0  0  0  0  0  0  0  0
   -1.5210   -1.4950    1.2040 H   0  0  0  0  0  0  0  0  0  0  0  0
   -2.2460   -2.8440   -4.6620 N   0  0  0  0  0  0  0  0  0  0  0  0
   -1.1260   -1.9980   -4.8590 C   0  0  0  0  0  0  0  0  0  0  0  0
   -1.0780   -1.1560   -5.8240 N   0  0  0  0  0  0  0  0  0  0  0  0
    0.0160   -2.0480   -3.9900 N   0  0  0  0  0  0  0  0  0  0  0  0
    0.7350   -0.8930   -3.5450 C   0  0  0  0  0  0  0  0  0  0  0  0
   -0.0290   -0.0920   -2.5570 C   0  0  0  0  0  0  0  0  0  0  0  0
   -1.3170    0.4220   -3.0940 C   0  0  0  0  0  0  0  0  0  0  0  0
   -2.0330    1.2820   -2.0120 C   0  0  2  0  0  0  0  0  0  0  0  0
   -2.2180    0.3240   -0.9110 N   0  0  0  0  0  0  0  0  0  0  0  0
   -3.3240    1.7110   -2.5630 C   0  0  0  0  0  0  0  0  0  0  0  0
   -4.3880    1.2600   -2.0930 O   0  0  0  0  0  0  0  0  0  0  0  0
   -3.3650    2.6150   -3.6010 O   0  0  0  0  0  0  0  0  0  0  0  0
   -3.0090   -2.8290   -5.3620 H   0  0  0  0  0  0  0  0  0  0  0  0
   -2.3250   -3.4720   -3.8450 H   0  0  0  0  0  0  0  0  0  0  0  0
   -1.7720   -0.9660   -6.5460 H   0  0  0  0  0  0  0  0  0  0  0  0
    0.3200   -3.0170   -3.6720 H   0  0  0  0  0  0  0  0  0  0  0  0
    1.7530   -1.1860   -3.1640 H   0  0  0  0  0  0  0  0  0  0  0  0
    0.8800   -0.2150   -4.4520 H   0  0  0  0  0  0  0  0  0  0  0  0
    0.5510    0.8000   -2.1870 H   0  0  0  0  0  0  0  0  0  0  0  0
   -0.2750   -0.7350   -1.6510 H   0  0  0  0  0  0  0  0  0  0  0  0
   -1.1860    0.9800   -4.0230 H   0  0  0  0  0  0  0  0  0  0  0  0
   -1.9920   -0.4510   -3.3070 H   0  0  0  0  0  0  0  0  0  0  0  0
   -1.4240    2.1420   -1.7330 H   0  0  0  0  0  0  0  0  0  0  0  0
   -2.7790   -0.5190   -1.1170 H   0  0  0  0  0  0  0  0  0  0  0  0
  1 15  1  0  0  0  0
  2 17  1  6  0  0  0
  2  3  1  0  0  0  0
  2  1  1  0  0  0  0
  3 19  1  0  0  0  0
  3 18  1  0  0  0  0
  4  3  1  0  0  0  0
  5  4  2  0  0  0  0
  5 20  1  0  0  0  0
  6  5  1  0  0  0  0
  7  6  1  0  0  0  0
  7 12  1  0  0  0  0
  8  7  2  0  0  0  0
  9  8  1  0  0  0  0
  9 10  2  0  0  0  0
 10 11  1  0  0  0  0
 11 12  2  0  0  0  0
 11 25  1  0  0  0  0
 12  4  1  0  0  0  0
 13  2  1  0  0  0  0
 14 13  2  0  0  0  0
 16  1  1  0  0  0  0
 21  6  1  0  0  0  0
 22  8  1  0  0  0  0
 23  9  1  0  0  0  0
 24 10  1  0  0  0  0
 26 13  1  0  0  0  0
 26 27  1  0  0  0  0
 27 33  1  0  0  0  0
 27 34  1  0  0  0  0
 28 27  1  0  0  0  0
 28 35  1  0  0  0  0
 29 38  1  0  0  0  0
 29 28  1  0  0  0  0
 30 39  1  6  0  0  0
 30 29  1  0  0  0  0
 30 26  1  0  0  0  0
 31 32  2  0  0  0  0
 31 30  1  0  0  0  0
 36 28  1  0  0  0  0
 37 29  1  0  0  0  0
 40 53  1  0  0  0  0
 41 40  1  0  0  0  0
 41 43  1  0  0  0  0
 42 41  2  0  0  0  0
 43 55  1  0  0  0  0
 43 44  1  0  0  0  0
 44 56  1  0  0  0  0
 44 45  1  0  0  0  0
 45 58  1  0  0  0  0
 45 59  1  0  0  0  0
 46 45  1  0  0  0  0
 46 47  1  0  0  0  0
 47 62  1  1  0  0  0
 47 48  1  0  0  0  0
 48 31  1  0  0  0  0
 49 50  1  0  0  0  0
 49 47  1  0  0  0  0
 51 49  2  0  0  0  0
 52 40  1  0  0  0  0
 54 42  1  0  0  0  0
 57 44  1  0  0  0  0
 60 46  1  0  0  0  0
 61 46  1  0  0  0  0
 63 48  1  0  0  0  0
M  END
$$$$
