WPT.pdb
 OpenBabel07022419183D

 54 56  0  0  1  0  0  0  0  0999 V2000
   -1.9230    3.7130    0.2410 N   0  0  0  0  0  0  0  0  0  0  0  0
   -1.0790    2.4850    0.1160 C   0  0  1  0  0  0  0  0  0  0  0  0
    0.1530    2.9790   -0.5620 C   0  0  0  0  0  0  0  0  0  0  0  0
    1.2120    2.0110   -0.8490 C   0  0  0  0  0  0  0  0  0  0  0  0
    1.4400    1.3840   -2.0750 C   0  0  0  0  0  0  0  0  0  0  0  0
    2.4820    0.5710   -1.9180 N   0  0  0  0  0  0  0  0  0  0  0  0
    2.9560    0.6200   -0.6740 C   0  0  0  0  0  0  0  0  0  0  0  0
    4.0290   -0.0510   -0.0720 C   0  0  0  0  0  0  0  0  0  0  0  0
    4.2630    0.2350    1.2520 C   0  0  0  0  0  0  0  0  0  0  0  0
    3.4990    1.1270    1.9670 C   0  0  0  0  0  0  0  0  0  0  0  0
    2.4520    1.7730    1.3560 C   0  0  0  0  0  0  0  0  0  0  0  0
    2.1710    1.5170    0.0090 C   0  0  0  0  0  0  0  0  0  0  0  0
   -0.9370    1.9740    1.4710 C   0  0  0  0  0  0  0  0  0  0  0  0
   -1.0960    2.7960    2.4290 O   0  0  0  0  0  0  0  0  0  0  0  0
   -2.5820    3.5870    1.0420 H   0  0  0  0  0  0  0  0  0  0  0  0
   -1.3480    4.5580    0.3010 H   0  0  0  0  0  0  0  0  0  0  0  0
   -1.6270    1.8260   -0.5740 H   0  0  0  0  0  0  0  0  0  0  0  0
   -0.1630    3.4350   -1.5450 H   0  0  0  0  0  0  0  0  0  0  0  0
    0.5880    3.8190    0.0250 H   0  0  0  0  0  0  0  0  0  0  0  0
    0.8540    1.5490   -2.9840 H   0  0  0  0  0  0  0  0  0  0  0  0
    2.9170   -0.0560   -2.6630 H   0  0  0  0  0  0  0  0  0  0  0  0
    4.6200   -0.7480   -0.6440 H   0  0  0  0  0  0  0  0  0  0  0  0
    5.1020   -0.2850    1.7370 H   0  0  0  0  0  0  0  0  0  0  0  0
    3.7220    1.3170    2.9980 H   0  0  0  0  0  0  0  0  0  0  0  0
    1.8270    2.4920    1.8770 H   0  0  0  0  0  0  0  0  0  0  0  0
   -0.6360    0.6200    1.8390 N   0  0  0  0  0  0  0  0  0  0  0  0
   -0.4990    0.1800    3.2130 C   0  0  0  0  0  0  0  0  0  0  0  0
    0.6030   -0.8290    3.1410 C   0  0  0  0  0  0  0  0  0  0  0  0
    0.7010   -1.2590    1.7120 C   0  0  0  0  0  0  0  0  0  0  0  0
   -0.4420   -0.5520    1.0230 C   0  0  1  0  0  0  0  0  0  0  0  0
   -1.6200   -1.4770    1.1080 C   0  0  0  0  0  0  0  0  0  0  0  0
   -2.6440   -1.2630    1.7670 O   0  0  0  0  0  0  0  0  0  0  0  0
   -0.2700    1.0260    3.8970 H   0  0  0  0  0  0  0  0  0  0  0  0
   -1.4830   -0.2540    3.5140 H   0  0  0  0  0  0  0  0  0  0  0  0
    1.5520   -0.3540    3.5170 H   0  0  0  0  0  0  0  0  0  0  0  0
    0.4410   -1.6940    3.8280 H   0  0  0  0  0  0  0  0  0  0  0  0
    0.5270   -2.3640    1.6830 H   0  0  0  0  0  0  0  0  0  0  0  0
    1.6800   -1.0830    1.2590 H   0  0  0  0  0  0  0  0  0  0  0  0
   -0.2100   -0.3280   -0.0390 H   0  0  0  0  0  0  0  0  0  0  0  0
   -1.8950   -4.3260   -1.9790 C   0  0  0  0  0  0  0  0  0  0  0  0
   -3.0350   -3.8810   -1.0900 C   0  0  1  0  0  0  0  0  0  0  0  0
   -4.0530   -4.8250   -1.1780 O   0  0  0  0  0  0  0  0  0  0  0  0
   -2.5760   -3.6870    0.3410 C   0  0  2  0  0  0  0  0  0  0  0  0
   -1.5230   -2.6940    0.3600 N   0  0  0  0  0  0  0  0  0  0  0  0
   -2.0740   -5.0120    0.8050 C   0  0  0  0  0  0  0  0  0  0  0  0
   -2.8990   -5.9570    0.8340 O   0  0  0  0  0  0  0  0  0  0  0  0
   -0.7870   -5.2580    1.1960 O   0  0  0  0  0  0  0  0  0  0  0  0
   -1.6730   -3.5980   -2.7860 H   0  0  0  0  0  0  0  0  0  0  0  0
   -0.9620   -4.5110   -1.4030 H   0  0  0  0  0  0  0  0  0  0  0  0
   -2.1380   -5.2880   -2.4720 H   0  0  0  0  0  0  0  0  0  0  0  0
   -3.3960   -2.9140   -1.4790 H   0  0  0  0  0  0  0  0  0  0  0  0
   -3.6430   -5.7050   -1.3660 H   0  0  0  0  0  0  0  0  0  0  0  0
   -3.4470   -3.4070    0.9430 H   0  0  0  0  0  0  0  0  0  0  0  0
   -0.6650   -2.8920   -0.2030 H   0  0  0  0  0  0  0  0  0  0  0  0
  1 16  1  0  0  0  0
  1 15  1  0  0  0  0
  2 17  1  6  0  0  0
  2  1  1  0  0  0  0
  2 13  1  0  0  0  0
  3 19  1  0  0  0  0
  3  2  1  0  0  0  0
  4  3  1  0  0  0  0
  4 12  1  0  0  0  0
  5  6  1  0  0  0  0
  5  4  2  0  0  0  0
  6  7  1  0  0  0  0
  7  8  2  0  0  0  0
  7 12  1  0  0  0  0
  8  9  1  0  0  0  0
  9 23  1  0  0  0  0
  9 10  2  0  0  0  0
 10 24  1  0  0  0  0
 11 25  1  0  0  0  0
 11 10  1  0  0  0  0
 12 11  2  0  0  0  0
 13 26  1  0  0  0  0
 13 14  2  0  0  0  0
 18  3  1  0  0  0  0
 20  5  1  0  0  0  0
 21  6  1  0  0  0  0
 22  8  1  0  0  0  0
 26 27  1  0  0  0  0
 27 34  1  0  0  0  0
 27 33  1  0  0  0  0
 28 27  1  0  0  0  0
 28 35  1  0  0  0  0
 28 36  1  0  0  0  0
 29 28  1  0  0  0  0
 30 39  1  6  0  0  0
 30 31  1  0  0  0  0
 30 29  1  0  0  0  0
 30 26  1  0  0  0  0
 31 32  2  0  0  0  0
 37 29  1  0  0  0  0
 38 29  1  0  0  0  0
 40 49  1  0  0  0  0
 40 41  1  0  0  0  0
 41 51  1  6  0  0  0
 41 43  1  0  0  0  0
 42 41  1  0  0  0  0
 43 44  1  0  0  0  0
 43 45  1  0  0  0  0
 43 53  1  1  0  0  0
 44 31  1  0  0  0  0
 45 46  2  0  0  0  0
 45 47  1  0  0  0  0
 48 40  1  0  0  0  0
 50 40  1  0  0  0  0
 52 42  1  0  0  0  0
 54 44  1  0  0  0  0
M  END
$$$$
