WPW.pdb
 OpenBabel07022419183D

 64 68  0  0  1  0  0  0  0  0999 V2000
    3.1640   -2.6330   -1.0700 N   0  0  0  0  0  0  0  0  0  0  0  0
    3.0830   -1.5610   -0.0780 C   0  0  1  0  0  0  0  0  0  0  0  0
    4.4350   -0.9540    0.0280 C   0  0  0  0  0  0  0  0  0  0  0  0
    4.5740    0.1740    0.9680 C   0  0  0  0  0  0  0  0  0  0  0  0
    5.0460    0.1150    2.2780 C   0  0  0  0  0  0  0  0  0  0  0  0
    4.9900    1.3560    2.7790 N   0  0  0  0  0  0  0  0  0  0  0  0
    4.5010    2.2060    1.8410 C   0  0  0  0  0  0  0  0  0  0  0  0
    4.2660    3.5890    1.8850 C   0  0  0  0  0  0  0  0  0  0  0  0
    3.7670    4.2630    0.7950 C   0  0  0  0  0  0  0  0  0  0  0  0
    3.5130    3.5090   -0.3300 C   0  0  0  0  0  0  0  0  0  0  0  0
    3.7330    2.1540   -0.4010 C   0  0  0  0  0  0  0  0  0  0  0  0
    4.2340    1.4900    0.7020 C   0  0  0  0  0  0  0  0  0  0  0  0
    1.9540   -0.6570   -0.2680 C   0  0  0  0  0  0  0  0  0  0  0  0
    1.5950    0.1130    0.7010 O   0  0  0  0  0  0  0  0  0  0  0  0
    4.0380   -3.1700   -0.8760 H   0  0  0  0  0  0  0  0  0  0  0  0
    2.3680   -3.2980   -0.9540 H   0  0  0  0  0  0  0  0  0  0  0  0
    2.9020   -2.1060    0.8880 H   0  0  0  0  0  0  0  0  0  0  0  0
    5.1170   -1.7730    0.4120 H   0  0  0  0  0  0  0  0  0  0  0  0
    4.8810   -0.6930   -0.9590 H   0  0  0  0  0  0  0  0  0  0  0  0
    5.3940   -0.7790    2.7910 H   0  0  0  0  0  0  0  0  0  0  0  0
    5.2740    1.6690    3.7550 H   0  0  0  0  0  0  0  0  0  0  0  0
    4.4870    4.1150    2.7960 H   0  0  0  0  0  0  0  0  0  0  0  0
    3.5890    5.3320    0.8400 H   0  0  0  0  0  0  0  0  0  0  0  0
    3.1150    4.0760   -1.1860 H   0  0  0  0  0  0  0  0  0  0  0  0
    3.5290    1.5820   -1.2890 H   0  0  0  0  0  0  0  0  0  0  0  0
    1.1900   -0.5460   -1.4570 N   0  0  0  0  0  0  0  0  0  0  0  0
    1.4640   -1.3070   -2.6590 C   0  0  0  0  0  0  0  0  0  0  0  0
    0.8610   -0.4470   -3.7810 C   0  0  0  0  0  0  0  0  0  0  0  0
   -0.3320    0.1310   -3.0940 C   0  0  0  0  0  0  0  0  0  0  0  0
    0.0670    0.2960   -1.6740 C   0  0  1  0  0  0  0  0  0  0  0  0
   -1.0610    0.0480   -0.7380 C   0  0  0  0  0  0  0  0  0  0  0  0
   -2.0220    0.8580   -0.7690 O   0  0  0  0  0  0  0  0  0  0  0  0
    2.5550   -1.3150   -2.8990 H   0  0  0  0  0  0  0  0  0  0  0  0
    0.9740   -2.2750   -2.7130 H   0  0  0  0  0  0  0  0  0  0  0  0
    0.5670   -1.0890   -4.6400 H   0  0  0  0  0  0  0  0  0  0  0  0
    1.5610    0.3480   -4.0440 H   0  0  0  0  0  0  0  0  0  0  0  0
   -1.1760   -0.6150   -3.1880 H   0  0  0  0  0  0  0  0  0  0  0  0
   -0.6470    1.1090   -3.5430 H   0  0  0  0  0  0  0  0  0  0  0  0
    0.4280    1.3620   -1.5590 H   0  0  0  0  0  0  0  0  0  0  0  0
   -1.1380   -1.0250    0.1820 N   0  0  0  0  0  0  0  0  0  0  0  0
   -2.2990   -1.1850    1.0740 C   0  0  1  0  0  0  0  0  0  0  0  0
   -2.9120   -2.5660    0.8480 C   0  0  0  0  0  0  0  0  0  0  0  0
   -4.0790   -2.7460    1.7330 C   0  0  0  0  0  0  0  0  0  0  0  0
   -4.1810   -3.4870    2.9000 C   0  0  0  0  0  0  0  0  0  0  0  0
   -5.4250   -3.3770    3.3930 N   0  0  0  0  0  0  0  0  0  0  0  0
   -6.1750   -2.5810    2.5920 C   0  0  0  0  0  0  0  0  0  0  0  0
   -7.4760   -2.1600    2.6460 C   0  0  0  0  0  0  0  0  0  0  0  0
   -7.9660   -1.3390    1.6710 C   0  0  0  0  0  0  0  0  0  0  0  0
   -7.1440   -0.9410    0.6380 C   0  0  0  0  0  0  0  0  0  0  0  0
   -5.8340   -1.3590    0.5740 C   0  0  0  0  0  0  0  0  0  0  0  0
   -5.3390   -2.1910    1.5640 C   0  0  0  0  0  0  0  0  0  0  0  0
   -1.8020   -1.1230    2.4690 C   0  0  0  0  0  0  0  0  0  0  0  0
   -2.5690   -1.2330    3.4660 O   0  0  0  0  0  0  0  0  0  0  0  0
   -0.4470   -0.9390    2.7820 O   0  0  0  0  0  0  0  0  0  0  0  0
   -0.3500   -1.7050    0.2070 H   0  0  0  0  0  0  0  0  0  0  0  0
   -3.0240   -0.3870    0.9250 H   0  0  0  0  0  0  0  0  0  0  0  0
   -2.1700   -3.3610    0.9300 H   0  0  0  0  0  0  0  0  0  0  0  0
   -3.2760   -2.5830   -0.2170 H   0  0  0  0  0  0  0  0  0  0  0  0
   -3.3360   -4.0460    3.2950 H   0  0  0  0  0  0  0  0  0  0  0  0
   -5.7560   -3.8400    4.2620 H   0  0  0  0  0  0  0  0  0  0  0  0
   -8.1090   -2.4720    3.4490 H   0  0  0  0  0  0  0  0  0  0  0  0
   -8.9880   -0.9800    1.6720 H   0  0  0  0  0  0  0  0  0  0  0  0
   -7.5570   -0.2790   -0.1380 H   0  0  0  0  0  0  0  0  0  0  0  0
   -5.2060   -1.0360   -0.2430 H   0  0  0  0  0  0  0  0  0  0  0  0
  1 16  1  0  0  0  0
  1 15  1  0  0  0  0
  1  2  1  0  0  0  0
  2  3  1  0  0  0  0
  2 17  1  1  0  0  0
  3 18  1  0  0  0  0
  3  4  1  0  0  0  0
  4  5  2  0  0  0  0
  5  6  1  0  0  0  0
  5 20  1  0  0  0  0
  6 21  1  0  0  0  0
  7  8  1  0  0  0  0
  7  6  1  0  0  0  0
  8 22  1  0  0  0  0
  9 23  1  0  0  0  0
  9  8  2  0  0  0  0
 10  9  1  0  0  0  0
 11 10  2  0  0  0  0
 11 12  1  0  0  0  0
 12  4  1  0  0  0  0
 12  7  2  0  0  0  0
 13  2  1  0  0  0  0
 13 14  2  0  0  0  0
 19  3  1  0  0  0  0
 24 10  1  0  0  0  0
 25 11  1  0  0  0  0
 26 13  1  0  0  0  0
 27 26  1  0  0  0  0
 28 29  1  0  0  0  0
 28 27  1  0  0  0  0
 29 30  1  0  0  0  0
 30 39  1  1  0  0  0
 30 26  1  0  0  0  0
 30 31  1  0  0  0  0
 31 40  1  0  0  0  0
 32 31  2  0  0  0  0
 33 27  1  0  0  0  0
 34 27  1  0  0  0  0
 35 28  1  0  0  0  0
 36 28  1  0  0  0  0
 37 29  1  0  0  0  0
 38 29  1  0  0  0  0
 40 55  1  0  0  0  0
 40 41  1  0  0  0  0
 41 56  1  6  0  0  0
 41 52  1  0  0  0  0
 42 57  1  0  0  0  0
 42 41  1  0  0  0  0
 42 43  1  0  0  0  0
 43 44  2  0  0  0  0
 44 59  1  0  0  0  0
 44 45  1  0  0  0  0
 45 60  1  0  0  0  0
 46 47  1  0  0  0  0
 46 45  1  0  0  0  0
 47 61  1  0  0  0  0
 48 62  1  0  0  0  0
 48 47  2  0  0  0  0
 49 48  1  0  0  0  0
 50 49  2  0  0  0  0
 50 51  1  0  0  0  0
 51 43  1  0  0  0  0
 51 46  2  0  0  0  0
 52 54  2  0  0  0  0
 52 53  1  0  0  0  0
 58 42  1  0  0  0  0
 63 49  1  0  0  0  0
 64 50  1  0  0  0  0
M  END
$$$$
