WQD.pdb
 OpenBabel07022419163D

 56 57  0  0  1  0  0  0  0  0999 V2000
    0.7450    1.5930    0.9720 N   0  0  0  0  0  0  0  0  0  0  0  0
    1.6180    0.5440    0.5250 C   0  0  1  0  0  0  0  0  0  0  0  0
    2.6290    0.1550    1.5830 C   0  0  0  0  0  0  0  0  0  0  0  0
    3.5020    1.2500    1.9940 C   0  0  0  0  0  0  0  0  0  0  0  0
    3.4100    1.9630    3.1670 C   0  0  0  0  0  0  0  0  0  0  0  0
    4.3850    2.8870    3.1870 N   0  0  0  0  0  0  0  0  0  0  0  0
    5.1080    2.7860    2.0500 C   0  0  0  0  0  0  0  0  0  0  0  0
    6.2050    3.4960    1.5900 C   0  0  0  0  0  0  0  0  0  0  0  0
    6.7810    3.1910    0.3540 C   0  0  0  0  0  0  0  0  0  0  0  0
    6.2160    2.1720   -0.3690 C   0  0  0  0  0  0  0  0  0  0  0  0
    5.1370    1.4540    0.0550 C   0  0  0  0  0  0  0  0  0  0  0  0
    4.5680    1.7650    1.2910 C   0  0  0  0  0  0  0  0  0  0  0  0
    0.8460   -0.7060    0.2080 C   0  0  0  0  0  0  0  0  0  0  0  0
    1.4280   -1.7500   -0.1820 O   0  0  0  0  0  0  0  0  0  0  0  0
    0.5710    1.4670    1.9960 H   0  0  0  0  0  0  0  0  0  0  0  0
    1.2090    2.5210    0.8570 H   0  0  0  0  0  0  0  0  0  0  0  0
    2.0780    0.8610   -0.4240 H   0  0  0  0  0  0  0  0  0  0  0  0
    3.2680   -0.6870    1.2500 H   0  0  0  0  0  0  0  0  0  0  0  0
    2.0520   -0.2000    2.4610 H   0  0  0  0  0  0  0  0  0  0  0  0
    2.6810    1.8330    3.9740 H   0  0  0  0  0  0  0  0  0  0  0  0
    4.5990    3.5890    3.9250 H   0  0  0  0  0  0  0  0  0  0  0  0
    6.6360    4.2950    2.1730 H   0  0  0  0  0  0  0  0  0  0  0  0
    7.6370    3.7290   -0.0280 H   0  0  0  0  0  0  0  0  0  0  0  0
    6.6700    1.9320   -1.3420 H   0  0  0  0  0  0  0  0  0  0  0  0
    4.6770    0.6540   -0.4890 H   0  0  0  0  0  0  0  0  0  0  0  0
   -2.7620   -0.0040    3.6580 N   0  0  0  0  0  0  0  0  0  0  0  0
   -1.9320   -0.9420    3.0070 C   0  0  0  0  0  0  0  0  0  0  0  0
   -0.6930   -0.7660    3.0660 O   0  0  0  0  0  0  0  0  0  0  0  0
   -2.4760   -2.0830    2.2910 C   0  0  0  0  0  0  0  0  0  0  0  0
   -1.6600   -2.7220    1.2500 C   0  0  0  0  0  0  0  0  0  0  0  0
   -1.3030   -1.9670    0.0290 C   0  0  2  0  0  0  0  0  0  0  0  0
   -0.5700   -0.7740    0.3310 N   0  0  0  0  0  0  0  0  0  0  0  0
   -2.3970   -1.7670   -0.9190 C   0  0  0  0  0  0  0  0  0  0  0  0
   -2.6400   -0.6430   -1.3800 O   0  0  0  0  0  0  0  0  0  0  0  0
   -2.3890    0.7720    4.2370 H   0  0  0  0  0  0  0  0  0  0  0  0
   -3.7920   -0.0870    3.5600 H   0  0  0  0  0  0  0  0  0  0  0  0
   -2.7750   -2.9090    3.0130 H   0  0  0  0  0  0  0  0  0  0  0  0
   -3.4760   -1.8280    1.8170 H   0  0  0  0  0  0  0  0  0  0  0  0
   -2.2000   -3.6660    0.9310 H   0  0  0  0  0  0  0  0  0  0  0  0
   -0.6930   -3.1380    1.6690 H   0  0  0  0  0  0  0  0  0  0  0  0
   -0.5780   -2.6750   -0.5270 H   0  0  0  0  0  0  0  0  0  0  0  0
   -1.0870    0.0920    0.6290 H   0  0  0  0  0  0  0  0  0  0  0  0
   -3.1920   -2.8730   -1.3150 N   0  0  0  0  0  0  0  0  0  0  0  0
   -4.2920   -2.7280   -2.2550 C   0  0  1  0  0  0  0  0  0  0  0  0
   -4.0760   -3.5200   -3.5030 C   0  0  0  0  0  0  0  0  0  0  0  0
   -3.9710   -4.9560   -3.2210 C   0  0  0  0  0  0  0  0  0  0  0  0
   -4.1280   -5.4120   -2.0800 O   0  0  0  0  0  0  0  0  0  0  0  0
   -5.5330   -3.2220   -1.6060 C   0  0  0  0  0  0  0  0  0  0  0  0
   -5.4750   -3.6560   -0.4410 O   0  0  0  0  0  0  0  0  0  0  0  0
   -3.6890   -5.8900   -4.2250 O   0  0  0  0  0  0  0  0  0  0  0  0
   -6.7580   -3.2250   -2.2350 O   0  0  0  0  0  0  0  0  0  0  0  0
   -3.0050   -3.8450   -0.9310 H   0  0  0  0  0  0  0  0  0  0  0  0
   -4.4020   -1.6330   -2.5110 H   0  0  0  0  0  0  0  0  0  0  0  0
   -4.9420   -3.4080   -4.2180 H   0  0  0  0  0  0  0  0  0  0  0  0
   -3.1900   -3.1520   -4.0860 H   0  0  0  0  0  0  0  0  0  0  0  0
   -3.0960   -6.6890   -4.0110 H   0  0  0  0  0  0  0  0  0  0  0  0
  1 15  1  0  0  0  0
  2 17  1  6  0  0  0
  2  1  1  0  0  0  0
  2  3  1  0  0  0  0
  3  4  1  0  0  0  0
  3 19  1  0  0  0  0
  4  5  2  0  0  0  0
  5  6  1  0  0  0  0
  5 20  1  0  0  0  0
  6 21  1  0  0  0  0
  7  6  1  0  0  0  0
  8  7  1  0  0  0  0
  8 22  1  0  0  0  0
  9  8  2  0  0  0  0
 10 11  2  0  0  0  0
 10  9  1  0  0  0  0
 11 12  1  0  0  0  0
 12  4  1  0  0  0  0
 12  7  2  0  0  0  0
 13 32  1  0  0  0  0
 13  2  1  0  0  0  0
 14 13  2  0  0  0  0
 16  1  1  0  0  0  0
 18  3  1  0  0  0  0
 23  9  1  0  0  0  0
 24 10  1  0  0  0  0
 25 11  1  0  0  0  0
 26 35  1  0  0  0  0
 27 28  2  0  0  0  0
 27 26  1  0  0  0  0
 29 27  1  0  0  0  0
 29 37  1  0  0  0  0
 30 40  1  0  0  0  0
 30 29  1  0  0  0  0
 31 41  1  6  0  0  0
 31 32  1  0  0  0  0
 31 30  1  0  0  0  0
 32 42  1  0  0  0  0
 33 31  1  0  0  0  0
 34 33  2  0  0  0  0
 36 26  1  0  0  0  0
 38 29  1  0  0  0  0
 39 30  1  0  0  0  0
 43 52  1  0  0  0  0
 43 33  1  0  0  0  0
 44 53  1  6  0  0  0
 44 48  1  0  0  0  0
 44 43  1  0  0  0  0
 45 46  1  0  0  0  0
 45 44  1  0  0  0  0
 46 47  2  0  0  0  0
 48 49  1  0  0  0  0
 50 56  1  0  0  0  0
 50 46  1  0  0  0  0
 51 48  2  0  0  0  0
 54 45  1  0  0  0  0
 55 45  1  0  0  0  0
M  END
$$$$
