WQF.pdb
 OpenBabel07022419163D

 63 65  0  0  1  0  0  0  0  0999 V2000
    1.0530    3.4920    1.6140 N   0  0  0  0  0  0  0  0  0  0  0  0
    1.9820    2.6790    0.8280 C   0  0  1  0  0  0  0  0  0  0  0  0
    3.1860    2.4350    1.6830 C   0  0  0  0  0  0  0  0  0  0  0  0
    4.2580    1.6200    1.1210 C   0  0  0  0  0  0  0  0  0  0  0  0
    5.3820    2.0670    0.4190 C   0  0  0  0  0  0  0  0  0  0  0  0
    6.1330    1.0390    0.0220 N   0  0  0  0  0  0  0  0  0  0  0  0
    5.5260   -0.0890    0.4500 C   0  0  0  0  0  0  0  0  0  0  0  0
    5.8920   -1.4380    0.3230 C   0  0  0  0  0  0  0  0  0  0  0  0
    5.1100   -2.4320    0.8690 C   0  0  0  0  0  0  0  0  0  0  0  0
    3.9570   -2.0700    1.5470 C   0  0  0  0  0  0  0  0  0  0  0  0
    3.5730   -0.7660    1.6880 C   0  0  0  0  0  0  0  0  0  0  0  0
    4.3770    0.2310    1.1260 C   0  0  0  0  0  0  0  0  0  0  0  0
    1.3160    1.4340    0.4420 C   0  0  0  0  0  0  0  0  0  0  0  0
    1.8050    0.6360   -0.4340 O   0  0  0  0  0  0  0  0  0  0  0  0
    1.4440    4.4530    1.7000 H   0  0  0  0  0  0  0  0  0  0  0  0
    0.9940    3.1080    2.5800 H   0  0  0  0  0  0  0  0  0  0  0  0
    2.2750    3.2780   -0.0970 H   0  0  0  0  0  0  0  0  0  0  0  0
    3.6220    3.4430    1.9600 H   0  0  0  0  0  0  0  0  0  0  0  0
    2.8080    1.9490    2.6190 H   0  0  0  0  0  0  0  0  0  0  0  0
    5.5860    3.1300    0.2400 H   0  0  0  0  0  0  0  0  0  0  0  0
    7.0410    1.0550   -0.5270 H   0  0  0  0  0  0  0  0  0  0  0  0
    6.7990   -1.6580   -0.2150 H   0  0  0  0  0  0  0  0  0  0  0  0
    5.4380   -3.4400    0.7410 H   0  0  0  0  0  0  0  0  0  0  0  0
    3.3720   -2.9050    1.9640 H   0  0  0  0  0  0  0  0  0  0  0  0
    2.6790   -0.4810    2.2120 H   0  0  0  0  0  0  0  0  0  0  0  0
   -1.6010    0.2120    5.0610 N   0  0  0  0  0  0  0  0  0  0  0  0
   -0.7710   -0.1350    3.9380 C   0  0  0  0  0  0  0  0  0  0  0  0
    0.3490    0.4310    3.9220 O   0  0  0  0  0  0  0  0  0  0  0  0
   -1.2920   -1.0720    2.9740 C   0  0  0  0  0  0  0  0  0  0  0  0
   -0.6640   -1.2430    1.6720 C   0  0  0  0  0  0  0  0  0  0  0  0
   -0.6050   -0.1490    0.6900 C   0  0  2  0  0  0  0  0  0  0  0  0
    0.0590    1.0590    1.0510 N   0  0  0  0  0  0  0  0  0  0  0  0
   -1.9290    0.1200    0.0240 C   0  0  0  0  0  0  0  0  0  0  0  0
   -2.2570    1.3230   -0.1000 O   0  0  0  0  0  0  0  0  0  0  0  0
   -2.0580    1.1440    5.1230 H   0  0  0  0  0  0  0  0  0  0  0  0
   -1.7080   -0.5220    5.7900 H   0  0  0  0  0  0  0  0  0  0  0  0
   -2.4020   -0.8490    2.8700 H   0  0  0  0  0  0  0  0  0  0  0  0
   -1.3160   -2.0860    3.4840 H   0  0  0  0  0  0  0  0  0  0  0  0
   -1.1710   -2.1150    1.1550 H   0  0  0  0  0  0  0  0  0  0  0  0
    0.3970   -1.6390    1.7790 H   0  0  0  0  0  0  0  0  0  0  0  0
   -0.0100   -0.5980   -0.1830 H   0  0  0  0  0  0  0  0  0  0  0  0
   -0.3010    1.7580    1.7410 H   0  0  0  0  0  0  0  0  0  0  0  0
   -2.7930   -0.8700   -0.4540 N   0  0  0  0  0  0  0  0  0  0  0  0
   -4.0660   -0.6220   -1.0970 C   0  0  1  0  0  0  0  0  0  0  0  0
   -4.0840   -1.0760   -2.5280 C   0  0  0  0  0  0  0  0  0  0  0  0
   -3.8330   -2.5200   -2.6840 C   0  0  0  0  0  0  0  0  0  0  0  0
   -2.5130   -2.9400   -2.8240 C   0  0  0  0  0  0  0  0  0  0  0  0
   -2.2770   -4.2870   -2.9710 C   0  0  0  0  0  0  0  0  0  0  0  0
   -3.3310   -5.1810   -2.9780 C   0  0  0  0  0  0  0  0  0  0  0  0
   -4.6350   -4.7640   -2.8400 C   0  0  0  0  0  0  0  0  0  0  0  0
   -4.8770   -3.4310   -2.6940 C   0  0  0  0  0  0  0  0  0  0  0  0
   -5.1980   -1.1740   -0.3550 C   0  0  0  0  0  0  0  0  0  0  0  0
   -6.3840   -1.0710   -0.7440 O   0  0  0  0  0  0  0  0  0  0  0  0
   -4.9620   -1.8470    0.8360 O   0  0  0  0  0  0  0  0  0  0  0  0
   -2.5130   -1.8680   -0.3470 H   0  0  0  0  0  0  0  0  0  0  0  0
   -4.1950    0.4940   -1.1160 H   0  0  0  0  0  0  0  0  0  0  0  0
   -3.3080   -0.5400   -3.1420 H   0  0  0  0  0  0  0  0  0  0  0  0
   -5.0530   -0.8020   -2.9920 H   0  0  0  0  0  0  0  0  0  0  0  0
   -1.6740   -2.2610   -2.8210 H   0  0  0  0  0  0  0  0  0  0  0  0
   -1.2820   -4.7050   -3.0850 H   0  0  0  0  0  0  0  0  0  0  0  0
   -3.1670   -6.2430   -3.0920 H   0  0  0  0  0  0  0  0  0  0  0  0
   -5.4820   -5.4300   -2.8400 H   0  0  0  0  0  0  0  0  0  0  0  0
   -5.8830   -3.0410   -2.5810 H   0  0  0  0  0  0  0  0  0  0  0  0
  1 15  1  0  0  0  0
  1 16  1  0  0  0  0
  2 17  1  6  0  0  0
  2  1  1  0  0  0  0
  2  3  1  0  0  0  0
  3 18  1  0  0  0  0
  3 19  1  0  0  0  0
  4 12  1  0  0  0  0
  4  3  1  0  0  0  0
  5  4  2  0  0  0  0
  6  5  1  0  0  0  0
  6  7  1  0  0  0  0
  7 12  1  0  0  0  0
  8  7  2  0  0  0  0
  8  9  1  0  0  0  0
  9 10  2  0  0  0  0
 10 11  1  0  0  0  0
 10 24  1  0  0  0  0
 11 25  1  0  0  0  0
 12 11  2  0  0  0  0
 13  2  1  0  0  0  0
 13 32  1  0  0  0  0
 14 13  2  0  0  0  0
 20  5  1  0  0  0  0
 21  6  1  0  0  0  0
 22  8  1  0  0  0  0
 23  9  1  0  0  0  0
 26 35  1  0  0  0  0
 26 36  1  0  0  0  0
 27 26  1  0  0  0  0
 28 27  2  0  0  0  0
 29 38  1  0  0  0  0
 29 27  1  0  0  0  0
 30 40  1  0  0  0  0
 30 29  1  0  0  0  0
 31 41  1  6  0  0  0
 31 32  1  0  0  0  0
 31 30  1  0  0  0  0
 32 42  1  0  0  0  0
 33 31  1  0  0  0  0
 34 33  2  0  0  0  0
 37 29  1  0  0  0  0
 39 30  1  0  0  0  0
 43 55  1  0  0  0  0
 43 33  1  0  0  0  0
 44 56  1  6  0  0  0
 44 43  1  0  0  0  0
 44 52  1  0  0  0  0
 45 44  1  0  0  0  0
 46 45  1  0  0  0  0
 47 59  1  0  0  0  0
 47 46  2  0  0  0  0
 48 47  1  0  0  0  0
 49 48  2  0  0  0  0
 49 50  1  0  0  0  0
 50 51  2  0  0  0  0
 51 46  1  0  0  0  0
 51 63  1  0  0  0  0
 52 54  1  0  0  0  0
 53 52  2  0  0  0  0
 57 45  1  0  0  0  0
 58 45  1  0  0  0  0
 60 48  1  0  0  0  0
 61 49  1  0  0  0  0
 62 50  1  0  0  0  0
M  END
$$$$
