WQI.pdb
 OpenBabel07022419163D

 62 63  0  0  1  0  0  0  0  0999 V2000
    1.2220    1.5020    0.5800 N   0  0  0  0  0  0  0  0  0  0  0  0
    0.9080    0.1680    1.0940 C   0  0  1  0  0  0  0  0  0  0  0  0
    1.2740    0.1220    2.5490 C   0  0  0  0  0  0  0  0  0  0  0  0
    2.7010    0.4040    2.8060 C   0  0  0  0  0  0  0  0  0  0  0  0
    3.2040    1.5740    3.3540 C   0  0  0  0  0  0  0  0  0  0  0  0
    4.5340    1.4900    3.4890 N   0  0  0  0  0  0  0  0  0  0  0  0
    4.9590    0.2850    3.0400 C   0  0  0  0  0  0  0  0  0  0  0  0
    6.2140   -0.2820    2.9680 C   0  0  0  0  0  0  0  0  0  0  0  0
    6.2980   -1.5490    2.4540 C   0  0  0  0  0  0  0  0  0  0  0  0
    5.1730   -2.2480    2.0180 C   0  0  0  0  0  0  0  0  0  0  0  0
    3.9070   -1.6540    2.1000 C   0  0  0  0  0  0  0  0  0  0  0  0
    3.8100   -0.3800    2.6170 C   0  0  0  0  0  0  0  0  0  0  0  0
   -0.5460   -0.1100    0.9090 C   0  0  0  0  0  0  0  0  0  0  0  0
   -1.2680    0.7970    0.3570 O   0  0  0  0  0  0  0  0  0  0  0  0
    0.4880    1.8170   -0.1100 H   0  0  0  0  0  0  0  0  0  0  0  0
    1.3590    2.1820    1.3650 H   0  0  0  0  0  0  0  0  0  0  0  0
    1.4910   -0.5550    0.5220 H   0  0  0  0  0  0  0  0  0  0  0  0
    0.9870   -0.8670    3.0130 H   0  0  0  0  0  0  0  0  0  0  0  0
    0.6450    0.9050    3.0450 H   0  0  0  0  0  0  0  0  0  0  0  0
    2.5580    2.3990    3.6150 H   0  0  0  0  0  0  0  0  0  0  0  0
    5.1280    2.2210    3.8740 H   0  0  0  0  0  0  0  0  0  0  0  0
    7.1200    0.1820    3.2860 H   0  0  0  0  0  0  0  0  0  0  0  0
    7.2920   -2.0280    2.3650 H   0  0  0  0  0  0  0  0  0  0  0  0
    5.2370   -3.2330    1.6260 H   0  0  0  0  0  0  0  0  0  0  0  0
    3.0290   -2.1270    1.7830 H   0  0  0  0  0  0  0  0  0  0  0  0
   -3.9460    2.4610    3.2740 N   0  0  0  0  0  0  0  0  0  0  0  0
   -3.8520    1.2900    2.4360 C   0  0  0  0  0  0  0  0  0  0  0  0
   -4.1130    1.4800    1.2400 O   0  0  0  0  0  0  0  0  0  0  0  0
   -3.4800    0.0290    3.0200 C   0  0  0  0  0  0  0  0  0  0  0  0
   -3.4710   -1.2350    2.2730 C   0  0  0  0  0  0  0  0  0  0  0  0
   -2.6220   -1.4630    1.1090 C   0  0  2  0  0  0  0  0  0  0  0  0
   -1.2050   -1.2970    1.3030 N   0  0  0  0  0  0  0  0  0  0  0  0
   -3.1240   -1.1060   -0.2380 C   0  0  0  0  0  0  0  0  0  0  0  0
   -4.3160   -0.7940   -0.4630 O   0  0  0  0  0  0  0  0  0  0  0  0
   -3.5060    3.3720    2.9950 H   0  0  0  0  0  0  0  0  0  0  0  0
   -4.4500    2.4390    4.1870 H   0  0  0  0  0  0  0  0  0  0  0  0
   -4.2220   -0.1420    3.8860 H   0  0  0  0  0  0  0  0  0  0  0  0
   -2.5070    0.1470    3.6400 H   0  0  0  0  0  0  0  0  0  0  0  0
   -3.2480   -2.0410    3.0800 H   0  0  0  0  0  0  0  0  0  0  0  0
   -4.5250   -1.5450    1.9780 H   0  0  0  0  0  0  0  0  0  0  0  0
   -2.6710   -2.6580    0.9840 H   0  0  0  0  0  0  0  0  0  0  0  0
   -0.6500   -2.0600    1.7610 H   0  0  0  0  0  0  0  0  0  0  0  0
   -0.3990   -3.7370   -4.1220 C   0  0  0  0  0  0  0  0  0  0  0  0
   -1.4900   -3.0360   -3.3050 C   0  0  0  0  0  0  0  0  0  0  0  0
   -1.3180   -1.5590   -3.4760 C   0  0  2  0  0  0  0  0  0  0  0  0
    0.0380   -1.1300   -2.9920 C   0  0  0  0  0  0  0  0  0  0  0  0
   -2.3640   -0.7880   -2.6710 C   0  0  2  0  0  0  0  0  0  0  0  0
   -2.2010   -1.1210   -1.3180 N   0  0  0  0  0  0  0  0  0  0  0  0
   -3.6720   -0.8980   -3.3220 C   0  0  0  0  0  0  0  0  0  0  0  0
   -3.7080   -0.5550   -4.5500 O   0  0  0  0  0  0  0  0  0  0  0  0
   -4.8300   -1.3150   -2.7670 O   0  0  0  0  0  0  0  0  0  0  0  0
   -0.8670   -4.6690   -4.4710 H   0  0  0  0  0  0  0  0  0  0  0  0
    0.4740   -3.9040   -3.4620 H   0  0  0  0  0  0  0  0  0  0  0  0
   -0.1670   -3.0480   -4.9810 H   0  0  0  0  0  0  0  0  0  0  0  0
   -2.4660   -3.4310   -3.6140 H   0  0  0  0  0  0  0  0  0  0  0  0
   -1.2890   -3.2760   -2.2240 H   0  0  0  0  0  0  0  0  0  0  0  0
   -1.4270   -1.2550   -4.5510 H   0  0  0  0  0  0  0  0  0  0  0  0
    0.0550   -0.0730   -2.5980 H   0  0  0  0  0  0  0  0  0  0  0  0
    0.7850   -1.2070   -3.8330 H   0  0  0  0  0  0  0  0  0  0  0  0
    0.4260   -1.8440   -2.2050 H   0  0  0  0  0  0  0  0  0  0  0  0
   -2.1250    0.3260   -2.7850 H   0  0  0  0  0  0  0  0  0  0  0  0
   -1.1890   -1.4550   -1.0310 H   0  0  0  0  0  0  0  0  0  0  0  0
  1  2  1  0  0  0  0
  1 16  1  0  0  0  0
  2 17  1  6  0  0  0
  2  3  1  0  0  0  0
  3  4  1  0  0  0  0
  3 18  1  0  0  0  0
  3 19  1  0  0  0  0
  4  5  2  0  0  0  0
  5  6  1  0  0  0  0
  5 20  1  0  0  0  0
  6 21  1  0  0  0  0
  7  6  1  0  0  0  0
  8  7  1  0  0  0  0
  8 22  1  0  0  0  0
  9  8  2  0  0  0  0
 10 11  2  0  0  0  0
 10  9  1  0  0  0  0
 11 12  1  0  0  0  0
 12  4  1  0  0  0  0
 12  7  2  0  0  0  0
 13  2  1  0  0  0  0
 13 32  1  0  0  0  0
 14 13  2  0  0  0  0
 15  1  1  0  0  0  0
 23  9  1  0  0  0  0
 24 10  1  0  0  0  0
 25 11  1  0  0  0  0
 26 36  1  0  0  0  0
 27 29  1  0  0  0  0
 27 26  1  0  0  0  0
 28 27  2  0  0  0  0
 29 38  1  0  0  0  0
 29 37  1  0  0  0  0
 30 29  1  0  0  0  0
 30 39  1  0  0  0  0
 31 41  1  6  0  0  0
 31 32  1  0  0  0  0
 31 30  1  0  0  0  0
 32 42  1  0  0  0  0
 33 31  1  0  0  0  0
 34 33  2  0  0  0  0
 35 26  1  0  0  0  0
 40 30  1  0  0  0  0
 43 53  1  0  0  0  0
 43 44  1  0  0  0  0
 44 56  1  0  0  0  0
 45 57  1  6  0  0  0
 45 44  1  0  0  0  0
 45 46  1  0  0  0  0
 45 47  1  0  0  0  0
 46 58  1  0  0  0  0
 46 60  1  0  0  0  0
 47 61  1  6  0  0  0
 47 48  1  0  0  0  0
 48 62  1  0  0  0  0
 48 33  1  0  0  0  0
 49 51  1  0  0  0  0
 49 47  1  0  0  0  0
 50 49  2  0  0  0  0
 52 43  1  0  0  0  0
 54 43  1  0  0  0  0
 55 44  1  0  0  0  0
 59 46  1  0  0  0  0
M  END
$$$$
