WQK.pdb
 OpenBabel07022419163D

 64 65  0  0  1  0  0  0  0  0999 V2000
    1.1730    2.3510    3.9040 N   0  0  0  0  0  0  0  0  0  0  0  0
    0.6180    2.6240    2.5540 C   0  0  1  0  0  0  0  0  0  0  0  0
    1.6570    3.0940    1.6470 C   0  0  0  0  0  0  0  0  0  0  0  0
    2.8110    2.2620    1.3630 C   0  0  0  0  0  0  0  0  0  0  0  0
    3.9920    2.1910    2.1030 C   0  0  0  0  0  0  0  0  0  0  0  0
    4.7670    1.2570    1.5340 N   0  0  0  0  0  0  0  0  0  0  0  0
    4.1800    0.7100    0.4690 C   0  0  0  0  0  0  0  0  0  0  0  0
    4.5640   -0.2480   -0.4440 C   0  0  0  0  0  0  0  0  0  0  0  0
    3.7380   -0.6190   -1.5100 C   0  0  0  0  0  0  0  0  0  0  0  0
    2.5140    0.0020   -1.6290 C   0  0  0  0  0  0  0  0  0  0  0  0
    2.1520    0.9520   -0.7080 C   0  0  0  0  0  0  0  0  0  0  0  0
    2.9510    1.3380    0.3590 C   0  0  0  0  0  0  0  0  0  0  0  0
   -0.3750    1.6270    2.2540 C   0  0  0  0  0  0  0  0  0  0  0  0
   -0.6680    0.7790    3.2010 O   0  0  0  0  0  0  0  0  0  0  0  0
    1.7650    1.4960    3.8620 H   0  0  0  0  0  0  0  0  0  0  0  0
    0.3400    2.0960    4.5000 H   0  0  0  0  0  0  0  0  0  0  0  0
    0.0080    3.6050    2.8080 H   0  0  0  0  0  0  0  0  0  0  0  0
    2.0600    4.0650    2.0660 H   0  0  0  0  0  0  0  0  0  0  0  0
    1.1770    3.3900    0.6730 H   0  0  0  0  0  0  0  0  0  0  0  0
    4.2520    2.7760    2.9850 H   0  0  0  0  0  0  0  0  0  0  0  0
    5.7330    0.9890    1.8890 H   0  0  0  0  0  0  0  0  0  0  0  0
    5.5140   -0.7640   -0.3930 H   0  0  0  0  0  0  0  0  0  0  0  0
    4.0100   -1.3590   -2.2350 H   0  0  0  0  0  0  0  0  0  0  0  0
    1.8370   -0.2620   -2.4560 H   0  0  0  0  0  0  0  0  0  0  0  0
    1.1960    1.4980   -0.7560 H   0  0  0  0  0  0  0  0  0  0  0  0
   -5.8980   -1.6880    2.0410 N   0  0  0  0  0  0  0  0  0  0  0  0
   -4.8250   -0.7140    2.0930 C   0  0  0  0  0  0  0  0  0  0  0  0
   -4.0990   -0.6780    3.0740 O   0  0  0  0  0  0  0  0  0  0  0  0
   -4.6670    0.1890    0.9490 C   0  0  0  0  0  0  0  0  0  0  0  0
   -3.4860    1.0770    0.9980 C   0  0  0  0  0  0  0  0  0  0  0  0
   -2.1470    0.3280    1.0370 C   0  0  2  0  0  0  0  0  0  0  0  0
   -1.1320    1.3930    1.0750 N   0  0  0  0  0  0  0  0  0  0  0  0
   -2.0300   -0.6740    0.0130 C   0  0  0  0  0  0  0  0  0  0  0  0
   -2.8490   -1.6700    0.0540 O   0  0  0  0  0  0  0  0  0  0  0  0
   -6.5010   -1.8140    2.8600 H   0  0  0  0  0  0  0  0  0  0  0  0
   -6.0110   -2.2200    1.1730 H   0  0  0  0  0  0  0  0  0  0  0  0
   -4.7540   -0.3820   -0.0150 H   0  0  0  0  0  0  0  0  0  0  0  0
   -5.5900    0.8600    0.9490 H   0  0  0  0  0  0  0  0  0  0  0  0
   -3.4670    1.8450    0.1920 H   0  0  0  0  0  0  0  0  0  0  0  0
   -3.5170    1.6450    1.9670 H   0  0  0  0  0  0  0  0  0  0  0  0
   -2.1590   -0.1690    2.0520 H   0  0  0  0  0  0  0  0  0  0  0  0
   -0.9290    2.0010    0.2690 H   0  0  0  0  0  0  0  0  0  0  0  0
   -1.1460   -0.7790   -1.0800 N   0  0  0  0  0  0  0  0  0  0  0  0
   -1.1500   -1.8310   -1.9960 C   0  0  1  0  0  0  0  0  0  0  0  0
   -0.7290   -3.1800   -1.6120 C   0  0  0  0  0  0  0  0  0  0  0  0
    0.7090   -3.1250   -1.1370 C   0  0  0  0  0  0  0  0  0  0  0  0
    1.2830   -4.4300   -0.7150 C   0  0  0  0  0  0  0  0  0  0  0  0
    0.4970   -5.0000    0.4370 C   0  0  0  0  0  0  0  0  0  0  0  0
    0.5670   -4.0430    1.5320 N   0  0  0  0  0  0  0  0  0  0  0  0
   -2.5040   -1.9070   -2.6210 C   0  0  0  0  0  0  0  0  0  0  0  0
   -2.7160   -2.8400   -3.4280 O   0  0  0  0  0  0  0  0  0  0  0  0
   -3.5060   -1.0090   -2.3530 O   0  0  0  0  0  0  0  0  0  0  0  0
   -0.4610   -0.0080   -1.2010 H   0  0  0  0  0  0  0  0  0  0  0  0
   -0.5240   -1.5080   -2.8940 H   0  0  0  0  0  0  0  0  0  0  0  0
   -0.7350   -3.8440   -2.5050 H   0  0  0  0  0  0  0  0  0  0  0  0
   -1.2990   -3.6980   -0.8480 H   0  0  0  0  0  0  0  0  0  0  0  0
    1.3680   -2.6260   -1.8790 H   0  0  0  0  0  0  0  0  0  0  0  0
    0.7530   -2.4460   -0.2330 H   0  0  0  0  0  0  0  0  0  0  0  0
    2.3050   -4.2300   -0.3310 H   0  0  0  0  0  0  0  0  0  0  0  0
    1.3010   -5.1280   -1.5780 H   0  0  0  0  0  0  0  0  0  0  0  0
   -0.5500   -5.2050    0.2340 H   0  0  0  0  0  0  0  0  0  0  0  0
    0.9580   -5.9830    0.7620 H   0  0  0  0  0  0  0  0  0  0  0  0
   -0.1120   -3.2850    1.4470 H   0  0  0  0  0  0  0  0  0  0  0  0
    1.5260   -3.6770    1.5620 H   0  0  0  0  0  0  0  0  0  0  0  0
  1 16  1  0  0  0  0
  2 17  1  1  0  0  0
  2  1  1  0  0  0  0
  3 18  1  0  0  0  0
  3  2  1  0  0  0  0
  4  3  1  0  0  0  0
  4  5  2  0  0  0  0
  5 20  1  0  0  0  0
  6 21  1  0  0  0  0
  6  5  1  0  0  0  0
  7  6  1  0  0  0  0
  8 22  1  0  0  0  0
  8  7  2  0  0  0  0
  9  8  1  0  0  0  0
 10  9  2  0  0  0  0
 10 11  1  0  0  0  0
 11 12  2  0  0  0  0
 12  7  1  0  0  0  0
 12  4  1  0  0  0  0
 13  2  1  0  0  0  0
 13 14  2  0  0  0  0
 15  1  1  0  0  0  0
 19  3  1  0  0  0  0
 23  9  1  0  0  0  0
 24 10  1  0  0  0  0
 25 11  1  0  0  0  0
 26 27  1  0  0  0  0
 26 35  1  0  0  0  0
 27 28  2  0  0  0  0
 29 38  1  0  0  0  0
 29 30  1  0  0  0  0
 29 27  1  0  0  0  0
 30 31  1  0  0  0  0
 30 40  1  0  0  0  0
 31 32  1  0  0  0  0
 31 41  1  1  0  0  0
 32 13  1  0  0  0  0
 33 34  2  0  0  0  0
 33 31  1  0  0  0  0
 36 26  1  0  0  0  0
 37 29  1  0  0  0  0
 39 30  1  0  0  0  0
 42 32  1  0  0  0  0
 43 33  1  0  0  0  0
 44 54  1  6  0  0  0
 44 45  1  0  0  0  0
 44 43  1  0  0  0  0
 45 46  1  0  0  0  0
 45 56  1  0  0  0  0
 46 47  1  0  0  0  0
 46 58  1  0  0  0  0
 47 59  1  0  0  0  0
 47 48  1  0  0  0  0
 48 62  1  0  0  0  0
 48 49  1  0  0  0  0
 49 64  1  0  0  0  0
 50 52  1  0  0  0  0
 50 44  1  0  0  0  0
 51 50  2  0  0  0  0
 53 43  1  0  0  0  0
 55 45  1  0  0  0  0
 57 46  1  0  0  0  0
 60 47  1  0  0  0  0
 61 48  1  0  0  0  0
 63 49  1  0  0  0  0
M  END
$$$$
