WQL.pdb
 OpenBabel07022419163D

 62 63  0  0  1  0  0  0  0  0999 V2000
    3.4030   -1.7970    3.4460 N   0  0  0  0  0  0  0  0  0  0  0  0
    2.2110   -1.0390    3.2410 C   0  0  1  0  0  0  0  0  0  0  0  0
    2.3870    0.3260    2.6780 C   0  0  0  0  0  0  0  0  0  0  0  0
    3.0380    0.3990    1.3620 C   0  0  0  0  0  0  0  0  0  0  0  0
    2.4470    0.5380    0.1260 C   0  0  0  0  0  0  0  0  0  0  0  0
    3.4010    0.5370   -0.8170 N   0  0  0  0  0  0  0  0  0  0  0  0
    4.6150    0.4000   -0.2240 C   0  0  0  0  0  0  0  0  0  0  0  0
    5.9080    0.3470   -0.7530 C   0  0  0  0  0  0  0  0  0  0  0  0
    7.0040    0.2070    0.0760 C   0  0  0  0  0  0  0  0  0  0  0  0
    6.7750    0.1240    1.4340 C   0  0  0  0  0  0  0  0  0  0  0  0
    5.5070    0.1750    1.9560 C   0  0  0  0  0  0  0  0  0  0  0  0
    4.4040    0.3140    1.1320 C   0  0  0  0  0  0  0  0  0  0  0  0
    1.1590   -1.8300    2.5220 C   0  0  0  0  0  0  0  0  0  0  0  0
    1.3710   -3.0070    2.1310 O   0  0  0  0  0  0  0  0  0  0  0  0
    3.3880   -2.4470    4.2360 H   0  0  0  0  0  0  0  0  0  0  0  0
    3.7360   -2.2160    2.5450 H   0  0  0  0  0  0  0  0  0  0  0  0
    1.7650   -0.8910    4.2740 H   0  0  0  0  0  0  0  0  0  0  0  0
    3.0440    0.9150    3.3810 H   0  0  0  0  0  0  0  0  0  0  0  0
    1.4280    0.8730    2.6640 H   0  0  0  0  0  0  0  0  0  0  0  0
    1.3640    0.6350   -0.0660 H   0  0  0  0  0  0  0  0  0  0  0  0
    3.2890    0.6240   -1.8540 H   0  0  0  0  0  0  0  0  0  0  0  0
    6.0420    0.4170   -1.8270 H   0  0  0  0  0  0  0  0  0  0  0  0
    8.0190    0.1650   -0.3300 H   0  0  0  0  0  0  0  0  0  0  0  0
    7.6280    0.0120    2.1220 H   0  0  0  0  0  0  0  0  0  0  0  0
    5.3130    0.1200    3.0280 H   0  0  0  0  0  0  0  0  0  0  0  0
   -2.5570    0.3690    4.7720 N   0  0  0  0  0  0  0  0  0  0  0  0
   -2.1910   -0.9060    4.2650 C   0  0  0  0  0  0  0  0  0  0  0  0
   -1.1480   -1.4210    4.7370 O   0  0  0  0  0  0  0  0  0  0  0  0
   -3.0160   -1.5650    3.2450 C   0  0  0  0  0  0  0  0  0  0  0  0
   -2.2600   -2.5640    2.4390 C   0  0  0  0  0  0  0  0  0  0  0  0
   -1.1700   -2.0010    1.5690 C   0  0  2  0  0  0  0  0  0  0  0  0
   -0.1320   -1.2780    2.2520 N   0  0  0  0  0  0  0  0  0  0  0  0
   -1.7310   -1.1000    0.5260 C   0  0  0  0  0  0  0  0  0  0  0  0
   -1.2840    0.0630    0.3570 O   0  0  0  0  0  0  0  0  0  0  0  0
   -2.4090    1.2530    4.2710 H   0  0  0  0  0  0  0  0  0  0  0  0
   -3.0080    0.4140    5.7200 H   0  0  0  0  0  0  0  0  0  0  0  0
   -3.5560   -0.8200    2.6020 H   0  0  0  0  0  0  0  0  0  0  0  0
   -3.8260   -2.1250    3.7960 H   0  0  0  0  0  0  0  0  0  0  0  0
   -1.7680   -3.2950    3.1530 H   0  0  0  0  0  0  0  0  0  0  0  0
   -2.9550   -3.2160    1.8550 H   0  0  0  0  0  0  0  0  0  0  0  0
   -0.7260   -2.9300    1.0750 H   0  0  0  0  0  0  0  0  0  0  0  0
   -0.2570   -0.2760    2.5730 H   0  0  0  0  0  0  0  0  0  0  0  0
   -3.3240   -1.4950   -5.0890 C   0  0  0  0  0  0  0  0  0  0  0  0
   -3.6480   -0.6190   -3.8710 C   0  0  0  0  0  0  0  0  0  0  0  0
   -3.0420    0.7310   -4.0640 C   0  0  0  0  0  0  0  0  0  0  0  0
   -3.1360   -1.3500   -2.6770 C   0  0  0  0  0  0  0  0  0  0  0  0
   -3.3640   -0.6360   -1.3610 C   0  0  2  0  0  0  0  0  0  0  0  0
   -2.7980   -1.5010   -0.3310 N   0  0  0  0  0  0  0  0  0  0  0  0
   -4.8060   -0.3970   -1.1140 C   0  0  0  0  0  0  0  0  0  0  0  0
   -5.3330   -0.9500   -0.1170 O   0  0  0  0  0  0  0  0  0  0  0  0
   -5.6080    0.3970   -1.9100 O   0  0  0  0  0  0  0  0  0  0  0  0
   -4.1990   -2.1190   -5.3690 H   0  0  0  0  0  0  0  0  0  0  0  0
   -3.0270   -0.9030   -5.9580 H   0  0  0  0  0  0  0  0  0  0  0  0
   -2.4850   -2.1930   -4.8610 H   0  0  0  0  0  0  0  0  0  0  0  0
   -4.7610   -0.5520   -3.8490 H   0  0  0  0  0  0  0  0  0  0  0  0
   -3.8550    1.4710   -4.2360 H   0  0  0  0  0  0  0  0  0  0  0  0
   -2.4160    0.7430   -4.9970 H   0  0  0  0  0  0  0  0  0  0  0  0
   -2.3560    1.0460   -3.2530 H   0  0  0  0  0  0  0  0  0  0  0  0
   -2.0670   -1.5700   -2.8480 H   0  0  0  0  0  0  0  0  0  0  0  0
   -3.6600   -2.3450   -2.6250 H   0  0  0  0  0  0  0  0  0  0  0  0
   -2.8580    0.3320   -1.4110 H   0  0  0  0  0  0  0  0  0  0  0  0
   -3.1650   -2.4660   -0.1860 H   0  0  0  0  0  0  0  0  0  0  0  0
  1 15  1  0  0  0  0
  2  1  1  0  0  0  0
  2 17  1  1  0  0  0
  3  2  1  0  0  0  0
  3 18  1  0  0  0  0
  4  3  1  0  0  0  0
  5  4  2  0  0  0  0
  6  7  1  0  0  0  0
  6  5  1  0  0  0  0
  7 12  1  0  0  0  0
  8  7  2  0  0  0  0
  8  9  1  0  0  0  0
  9 10  2  0  0  0  0
 10 11  1  0  0  0  0
 10 24  1  0  0  0  0
 11 25  1  0  0  0  0
 12  4  1  0  0  0  0
 12 11  2  0  0  0  0
 13  2  1  0  0  0  0
 14 13  2  0  0  0  0
 16  1  1  0  0  0  0
 19  3  1  0  0  0  0
 20  5  1  0  0  0  0
 21  6  1  0  0  0  0
 22  8  1  0  0  0  0
 23  9  1  0  0  0  0
 26 36  1  0  0  0  0
 27 28  2  0  0  0  0
 27 26  1  0  0  0  0
 29 38  1  0  0  0  0
 29 27  1  0  0  0  0
 30 39  1  0  0  0  0
 30 29  1  0  0  0  0
 31 41  1  6  0  0  0
 31 32  1  0  0  0  0
 31 30  1  0  0  0  0
 32 13  1  0  0  0  0
 32 42  1  0  0  0  0
 33 31  1  0  0  0  0
 34 33  2  0  0  0  0
 35 26  1  0  0  0  0
 37 29  1  0  0  0  0
 40 30  1  0  0  0  0
 43 54  1  0  0  0  0
 43 44  1  0  0  0  0
 44 55  1  0  0  0  0
 44 46  1  0  0  0  0
 45 44  1  0  0  0  0
 45 58  1  0  0  0  0
 46 60  1  0  0  0  0
 46 47  1  0  0  0  0
 47 61  1  6  0  0  0
 47 49  1  0  0  0  0
 47 48  1  0  0  0  0
 48 62  1  0  0  0  0
 48 33  1  0  0  0  0
 49 50  1  0  0  0  0
 51 49  2  0  0  0  0
 52 43  1  0  0  0  0
 53 43  1  0  0  0  0
 56 45  1  0  0  0  0
 57 45  1  0  0  0  0
 59 46  1  0  0  0  0
M  END
$$$$
