WQM.pdb
 OpenBabel07022419163D

 60 61  0  0  1  0  0  0  0  0999 V2000
    0.6350    2.2680    1.0440 N   0  0  0  0  0  0  0  0  0  0  0  0
    1.6170    1.2330    1.0300 C   0  0  1  0  0  0  0  0  0  0  0  0
    2.5330    1.3530    2.2520 C   0  0  0  0  0  0  0  0  0  0  0  0
    3.2420    2.6430    2.2830 C   0  0  0  0  0  0  0  0  0  0  0  0
    2.9950    3.7400    3.0640 C   0  0  0  0  0  0  0  0  0  0  0  0
    3.8940    4.6820    2.7490 N   0  0  0  0  0  0  0  0  0  0  0  0
    4.7170    4.2220    1.7840 C   0  0  0  0  0  0  0  0  0  0  0  0
    5.7960    4.8460    1.1480 C   0  0  0  0  0  0  0  0  0  0  0  0
    6.4800    4.1480    0.1840 C   0  0  0  0  0  0  0  0  0  0  0  0
    6.0900    2.8640   -0.1270 C   0  0  0  0  0  0  0  0  0  0  0  0
    5.0280    2.2670    0.5080 C   0  0  0  0  0  0  0  0  0  0  0  0
    4.3190    2.9430    1.4830 C   0  0  0  0  0  0  0  0  0  0  0  0
    1.0320   -0.1310    1.1120 C   0  0  0  0  0  0  0  0  0  0  0  0
    1.8320   -1.1170    1.1110 O   0  0  0  0  0  0  0  0  0  0  0  0
    1.1170    3.1600    0.7550 H   0  0  0  0  0  0  0  0  0  0  0  0
   -0.1900    2.0910    0.4630 H   0  0  0  0  0  0  0  0  0  0  0  0
    2.2190    1.3570    0.0950 H   0  0  0  0  0  0  0  0  0  0  0  0
    3.2120    0.4740    2.2020 H   0  0  0  0  0  0  0  0  0  0  0  0
    1.8730    1.1920    3.1290 H   0  0  0  0  0  0  0  0  0  0  0  0
    2.1970    3.7830    3.7930 H   0  0  0  0  0  0  0  0  0  0  0  0
    3.9660    5.6460    3.1780 H   0  0  0  0  0  0  0  0  0  0  0  0
    6.0880    5.8570    1.4070 H   0  0  0  0  0  0  0  0  0  0  0  0
    7.3320    4.6180   -0.3300 H   0  0  0  0  0  0  0  0  0  0  0  0
    6.6560    2.3480   -0.8930 H   0  0  0  0  0  0  0  0  0  0  0  0
    4.7120    1.2590    0.2730 H   0  0  0  0  0  0  0  0  0  0  0  0
   -4.6660    0.0210    2.3310 N   0  0  0  0  0  0  0  0  0  0  0  0
   -3.7010   -1.0320    2.1760 C   0  0  0  0  0  0  0  0  0  0  0  0
   -3.9670   -1.9080    1.3530 O   0  0  0  0  0  0  0  0  0  0  0  0
   -2.5120   -0.9710    2.9980 C   0  0  0  0  0  0  0  0  0  0  0  0
   -1.4410   -1.9320    2.6030 C   0  0  0  0  0  0  0  0  0  0  0  0
   -0.8580   -1.7980    1.2700 C   0  0  2  0  0  0  0  0  0  0  0  0
   -0.3360   -0.4170    1.1900 N   0  0  0  0  0  0  0  0  0  0  0  0
   -1.5570   -2.0960    0.0600 C   0  0  0  0  0  0  0  0  0  0  0  0
   -1.8270   -1.1800   -0.7620 O   0  0  0  0  0  0  0  0  0  0  0  0
   -4.5560    0.9680    1.9140 H   0  0  0  0  0  0  0  0  0  0  0  0
   -5.5100   -0.1770    2.8850 H   0  0  0  0  0  0  0  0  0  0  0  0
   -2.7890   -1.2480    4.0770 H   0  0  0  0  0  0  0  0  0  0  0  0
   -2.0970    0.0800    3.0730 H   0  0  0  0  0  0  0  0  0  0  0  0
   -1.8300   -2.9470    2.8540 H   0  0  0  0  0  0  0  0  0  0  0  0
   -0.6200   -1.7880    3.3790 H   0  0  0  0  0  0  0  0  0  0  0  0
    0.0690   -2.4950    1.2580 H   0  0  0  0  0  0  0  0  0  0  0  0
   -1.0120    0.3740    1.1920 H   0  0  0  0  0  0  0  0  0  0  0  0
   -3.3380   -7.5180   -3.2660 C   0  0  0  0  0  0  0  0  0  0  0  0
   -3.7690   -5.8630   -3.8730 S   0  0  0  0  0  0  0  0  0  0  0  0
   -2.3520   -4.7590   -3.8510 C   0  0  0  0  0  0  0  0  0  0  0  0
   -1.8210   -4.4160   -2.5100 C   0  0  0  0  0  0  0  0  0  0  0  0
   -2.7050   -3.6500   -1.5970 C   0  0  2  0  0  0  0  0  0  0  0  0
   -1.9930   -3.4080   -0.3250 N   0  0  0  0  0  0  0  0  0  0  0  0
   -3.9930   -4.2410   -1.2480 C   0  0  0  0  0  0  0  0  0  0  0  0
   -4.9420   -4.4040   -2.0320 O   0  0  0  0  0  0  0  0  0  0  0  0
   -4.2450   -4.6860    0.0710 O   0  0  0  0  0  0  0  0  0  0  0  0
   -3.5420   -8.2730   -4.0430 H   0  0  0  0  0  0  0  0  0  0  0  0
   -3.9530   -7.7640   -2.3810 H   0  0  0  0  0  0  0  0  0  0  0  0
   -2.2430   -7.5480   -2.9920 H   0  0  0  0  0  0  0  0  0  0  0  0
   -2.6590   -3.8270   -4.4230 H   0  0  0  0  0  0  0  0  0  0  0  0
   -1.5490   -5.2280   -4.5070 H   0  0  0  0  0  0  0  0  0  0  0  0
   -1.5140   -5.4060   -2.0360 H   0  0  0  0  0  0  0  0  0  0  0  0
   -0.8590   -3.8350   -2.7020 H   0  0  0  0  0  0  0  0  0  0  0  0
   -2.8780   -2.6390   -2.0310 H   0  0  0  0  0  0  0  0  0  0  0  0
   -1.7770   -4.1640    0.3420 H   0  0  0  0  0  0  0  0  0  0  0  0
  2 17  1  6  0  0  0
  2  1  1  0  0  0  0
  2 13  1  0  0  0  0
  2  3  1  0  0  0  0
  3  4  1  0  0  0  0
  3 19  1  0  0  0  0
  4  5  2  0  0  0  0
  5 20  1  0  0  0  0
  6  5  1  0  0  0  0
  6 21  1  0  0  0  0
  7  6  1  0  0  0  0
  8 22  1  0  0  0  0
  8  7  2  0  0  0  0
  9  8  1  0  0  0  0
 10  9  2  0  0  0  0
 10 11  1  0  0  0  0
 11 12  2  0  0  0  0
 12  7  1  0  0  0  0
 12  4  1  0  0  0  0
 13 32  1  0  0  0  0
 14 13  2  0  0  0  0
 15  1  1  0  0  0  0
 16  1  1  0  0  0  0
 18  3  1  0  0  0  0
 23  9  1  0  0  0  0
 24 10  1  0  0  0  0
 25 11  1  0  0  0  0
 26 36  1  0  0  0  0
 27 26  1  0  0  0  0
 27 29  1  0  0  0  0
 28 27  2  0  0  0  0
 29 38  1  0  0  0  0
 29 37  1  0  0  0  0
 30 39  1  0  0  0  0
 30 29  1  0  0  0  0
 30 40  1  0  0  0  0
 31 41  1  6  0  0  0
 31 30  1  0  0  0  0
 32 42  1  0  0  0  0
 32 31  1  0  0  0  0
 33 31  1  0  0  0  0
 34 33  2  0  0  0  0
 35 26  1  0  0  0  0
 43 54  1  0  0  0  0
 43 53  1  0  0  0  0
 44 45  1  0  0  0  0
 44 43  1  0  0  0  0
 45 46  1  0  0  0  0
 46 57  1  0  0  0  0
 46 47  1  0  0  0  0
 47 59  1  6  0  0  0
 47 49  1  0  0  0  0
 47 48  1  0  0  0  0
 48 33  1  0  0  0  0
 48 60  1  0  0  0  0
 49 51  1  0  0  0  0
 50 49  2  0  0  0  0
 52 43  1  0  0  0  0
 55 45  1  0  0  0  0
 56 45  1  0  0  0  0
 58 46  1  0  0  0  0
M  END
$$$$
