WQN.pdb
 OpenBabel07022419163D

 57 58  0  0  1  0  0  0  0  0999 V2000
    2.3440   -2.6590    3.1260 N   0  0  0  0  0  0  0  0  0  0  0  0
    1.4600   -1.5320    2.9760 C   0  0  1  0  0  0  0  0  0  0  0  0
    2.1440   -0.2400    2.6370 C   0  0  0  0  0  0  0  0  0  0  0  0
    2.9090   -0.2230    1.4020 C   0  0  0  0  0  0  0  0  0  0  0  0
    2.4500    0.3170    0.2190 C   0  0  0  0  0  0  0  0  0  0  0  0
    3.3850    0.1560   -0.7290 N   0  0  0  0  0  0  0  0  0  0  0  0
    4.4530   -0.4860   -0.1740 C   0  0  0  0  0  0  0  0  0  0  0  0
    5.6680   -0.8940   -0.6790 C   0  0  0  0  0  0  0  0  0  0  0  0
    6.6060   -1.5320    0.0920 C   0  0  0  0  0  0  0  0  0  0  0  0
    6.2880   -1.7560    1.4130 C   0  0  0  0  0  0  0  0  0  0  0  0
    5.1040   -1.3760    1.9690 C   0  0  0  0  0  0  0  0  0  0  0  0
    4.1670   -0.7280    1.1580 C   0  0  0  0  0  0  0  0  0  0  0  0
    0.4050   -1.8960    2.0040 C   0  0  0  0  0  0  0  0  0  0  0  0
    0.4440   -3.0310    1.4780 O   0  0  0  0  0  0  0  0  0  0  0  0
    2.4930   -3.0870    2.1790 H   0  0  0  0  0  0  0  0  0  0  0  0
    1.8740   -3.3930    3.7010 H   0  0  0  0  0  0  0  0  0  0  0  0
    1.0070   -1.3490    4.0030 H   0  0  0  0  0  0  0  0  0  0  0  0
    2.8680   -0.0450    3.4820 H   0  0  0  0  0  0  0  0  0  0  0  0
    1.3930    0.5680    2.7220 H   0  0  0  0  0  0  0  0  0  0  0  0
    1.5070    0.8060    0.0100 H   0  0  0  0  0  0  0  0  0  0  0  0
    3.3660    0.4470   -1.7390 H   0  0  0  0  0  0  0  0  0  0  0  0
    5.8790   -0.6960   -1.7340 H   0  0  0  0  0  0  0  0  0  0  0  0
    7.5600   -1.8480   -0.3220 H   0  0  0  0  0  0  0  0  0  0  0  0
    7.0100   -2.2640    2.0680 H   0  0  0  0  0  0  0  0  0  0  0  0
    4.8540   -1.5460    3.0140 H   0  0  0  0  0  0  0  0  0  0  0  0
   -3.2320    0.7690    4.1470 N   0  0  0  0  0  0  0  0  0  0  0  0
   -2.8920   -0.4440    3.5000 C   0  0  0  0  0  0  0  0  0  0  0  0
   -1.9790   -1.1470    4.0470 O   0  0  0  0  0  0  0  0  0  0  0  0
   -3.6060   -0.7910    2.2770 C   0  0  0  0  0  0  0  0  0  0  0  0
   -2.9700   -1.7520    1.3560 C   0  0  0  0  0  0  0  0  0  0  0  0
   -1.6900   -1.3420    0.6980 C   0  0  2  0  0  0  0  0  0  0  0  0
   -0.6650   -1.0410    1.6160 N   0  0  0  0  0  0  0  0  0  0  0  0
   -1.8810   -0.3500   -0.3750 C   0  0  0  0  0  0  0  0  0  0  0  0
   -1.1930    0.6980   -0.4760 O   0  0  0  0  0  0  0  0  0  0  0  0
   -3.0000    1.6750    3.7070 H   0  0  0  0  0  0  0  0  0  0  0  0
   -3.7130    0.7570    5.0590 H   0  0  0  0  0  0  0  0  0  0  0  0
   -3.9500    0.1430    1.7370 H   0  0  0  0  0  0  0  0  0  0  0  0
   -4.5930   -1.2550    2.5900 H   0  0  0  0  0  0  0  0  0  0  0  0
   -3.7450   -2.0240    0.5700 H   0  0  0  0  0  0  0  0  0  0  0  0
   -2.8560   -2.7220    1.9170 H   0  0  0  0  0  0  0  0  0  0  0  0
   -1.3530   -2.3000    0.1640 H   0  0  0  0  0  0  0  0  0  0  0  0
   -0.6570   -0.0760    2.0560 H   0  0  0  0  0  0  0  0  0  0  0  0
   -0.4870   -0.7370   -3.1760 N   0  0  0  0  0  0  0  0  0  0  0  0
   -1.5770   -0.7310   -4.0590 C   0  0  0  0  0  0  0  0  0  0  0  0
   -1.3690   -1.2440   -5.2090 O   0  0  0  0  0  0  0  0  0  0  0  0
   -2.9180   -0.2040   -3.8080 C   0  0  0  0  0  0  0  0  0  0  0  0
   -3.1120    0.3940   -2.4460 C   0  0  2  0  0  0  0  0  0  0  0  0
   -2.8810   -0.5490   -1.3670 N   0  0  0  0  0  0  0  0  0  0  0  0
   -4.4760    0.9750   -2.3730 C   0  0  0  0  0  0  0  0  0  0  0  0
   -4.8670    1.8120   -3.2200 O   0  0  0  0  0  0  0  0  0  0  0  0
   -5.3310    0.5910   -1.3590 O   0  0  0  0  0  0  0  0  0  0  0  0
    0.2170    0.0280   -3.0980 H   0  0  0  0  0  0  0  0  0  0  0  0
   -0.3590   -1.5600   -2.5470 H   0  0  0  0  0  0  0  0  0  0  0  0
   -3.0740    0.6440   -4.5360 H   0  0  0  0  0  0  0  0  0  0  0  0
   -3.7270   -0.9340   -4.0700 H   0  0  0  0  0  0  0  0  0  0  0  0
   -2.3400    1.2010   -2.3260 H   0  0  0  0  0  0  0  0  0  0  0  0
   -3.5070   -1.4090   -1.3540 H   0  0  0  0  0  0  0  0  0  0  0  0
  1 16  1  0  0  0  0
  2  1  1  0  0  0  0
  2 17  1  1  0  0  0
  3 19  1  0  0  0  0
  3  2  1  0  0  0  0
  3 18  1  0  0  0  0
  4  3  1  0  0  0  0
  5  4  2  0  0  0  0
  6  7  1  0  0  0  0
  6  5  1  0  0  0  0
  7 12  1  0  0  0  0
  8  7  2  0  0  0  0
  8  9  1  0  0  0  0
  9 10  2  0  0  0  0
 10 11  1  0  0  0  0
 10 24  1  0  0  0  0
 11 25  1  0  0  0  0
 12  4  1  0  0  0  0
 12 11  2  0  0  0  0
 13  2  1  0  0  0  0
 14 13  2  0  0  0  0
 15  1  1  0  0  0  0
 20  5  1  0  0  0  0
 21  6  1  0  0  0  0
 22  8  1  0  0  0  0
 23  9  1  0  0  0  0
 26 36  1  0  0  0  0
 27 28  2  0  0  0  0
 27 26  1  0  0  0  0
 29 38  1  0  0  0  0
 29 27  1  0  0  0  0
 30 40  1  0  0  0  0
 30 29  1  0  0  0  0
 31 41  1  6  0  0  0
 31 30  1  0  0  0  0
 31 32  1  0  0  0  0
 32 13  1  0  0  0  0
 32 42  1  0  0  0  0
 33 31  1  0  0  0  0
 34 33  2  0  0  0  0
 35 26  1  0  0  0  0
 37 29  1  0  0  0  0
 39 30  1  0  0  0  0
 43 52  1  0  0  0  0
 43 53  1  0  0  0  0
 44 46  1  0  0  0  0
 44 43  1  0  0  0  0
 45 44  2  0  0  0  0
 46 47  1  0  0  0  0
 47 49  1  0  0  0  0
 47 56  1  1  0  0  0
 47 48  1  0  0  0  0
 48 57  1  0  0  0  0
 48 33  1  0  0  0  0
 49 51  1  0  0  0  0
 50 49  2  0  0  0  0
 54 46  1  0  0  0  0
 55 46  1  0  0  0  0
M  END
$$$$
