WQQ.pdb
 OpenBabel07022419163D

 60 61  0  0  1  0  0  0  0  0999 V2000
    1.7760   -0.2180    1.3370 N   0  0  0  0  0  0  0  0  0  0  0  0
    0.6950    0.1860    2.1860 C   0  0  1  0  0  0  0  0  0  0  0  0
    1.0620    1.3570    3.0260 C   0  0  0  0  0  0  0  0  0  0  0  0
    2.2170    1.1450    3.9300 C   0  0  0  0  0  0  0  0  0  0  0  0
    2.1690    0.8070    5.2860 C   0  0  0  0  0  0  0  0  0  0  0  0
    3.4120    0.6740    5.7550 N   0  0  0  0  0  0  0  0  0  0  0  0
    4.3110    0.9100    4.7690 C   0  0  0  0  0  0  0  0  0  0  0  0
    5.6870    0.9130    4.7120 C   0  0  0  0  0  0  0  0  0  0  0  0
    6.3340    1.2070    3.5410 C   0  0  0  0  0  0  0  0  0  0  0  0
    5.6240    1.5070    2.3850 C   0  0  0  0  0  0  0  0  0  0  0  0
    4.2490    1.4990    2.4570 C   0  0  0  0  0  0  0  0  0  0  0  0
    3.5770    1.2040    3.6320 C   0  0  0  0  0  0  0  0  0  0  0  0
   -0.5940    0.3570    1.4750 C   0  0  0  0  0  0  0  0  0  0  0  0
   -1.6320    0.6490    2.1530 O   0  0  0  0  0  0  0  0  0  0  0  0
    2.4810   -0.6970    1.9540 H   0  0  0  0  0  0  0  0  0  0  0  0
    1.3860   -0.8970    0.6350 H   0  0  0  0  0  0  0  0  0  0  0  0
    0.5370   -0.6760    2.9030 H   0  0  0  0  0  0  0  0  0  0  0  0
    0.2110    1.6820    3.6930 H   0  0  0  0  0  0  0  0  0  0  0  0
    1.2940    2.2730    2.4290 H   0  0  0  0  0  0  0  0  0  0  0  0
    1.2790    0.6710    5.8760 H   0  0  0  0  0  0  0  0  0  0  0  0
    3.7310    0.4280    6.7200 H   0  0  0  0  0  0  0  0  0  0  0  0
    6.2740    0.6880    5.5770 H   0  0  0  0  0  0  0  0  0  0  0  0
    7.4290    1.2200    3.4560 H   0  0  0  0  0  0  0  0  0  0  0  0
    6.1550    1.7400    1.4530 H   0  0  0  0  0  0  0  0  0  0  0  0
    3.6750    1.7390    1.5730 H   0  0  0  0  0  0  0  0  0  0  0  0
   -5.8220    2.1420   -1.8370 N   0  0  0  0  0  0  0  0  0  0  0  0
   -4.4600    2.1110   -1.3530 C   0  0  0  0  0  0  0  0  0  0  0  0
   -4.2310    2.4290   -0.1640 O   0  0  0  0  0  0  0  0  0  0  0  0
   -3.3590    1.7100   -2.2580 C   0  0  0  0  0  0  0  0  0  0  0  0
   -2.0430    1.4840   -1.5790 C   0  0  0  0  0  0  0  0  0  0  0  0
   -2.1140    0.4040   -0.5630 C   0  0  2  0  0  0  0  0  0  0  0  0
   -0.7890    0.2240    0.0840 N   0  0  0  0  0  0  0  0  0  0  0  0
   -2.4650   -0.9170   -1.1010 C   0  0  0  0  0  0  0  0  0  0  0  0
   -3.5570   -1.0870   -1.6750 O   0  0  0  0  0  0  0  0  0  0  0  0
   -6.5780    1.9370   -1.1500 H   0  0  0  0  0  0  0  0  0  0  0  0
   -6.0540    2.3580   -2.8290 H   0  0  0  0  0  0  0  0  0  0  0  0
   -3.6560    0.8140   -2.8380 H   0  0  0  0  0  0  0  0  0  0  0  0
   -3.2410    2.5000   -3.0760 H   0  0  0  0  0  0  0  0  0  0  0  0
   -1.6130    2.4300   -1.1740 H   0  0  0  0  0  0  0  0  0  0  0  0
   -1.3460    1.1200   -2.3940 H   0  0  0  0  0  0  0  0  0  0  0  0
   -2.8600    0.6800    0.2120 H   0  0  0  0  0  0  0  0  0  0  0  0
    0.0180   -0.0030   -0.5220 H   0  0  0  0  0  0  0  0  0  0  0  0
   -0.9680   -7.3760   -2.5310 N   0  0  0  0  0  0  0  0  0  0  0  0
   -0.5360   -6.0220   -2.3650 C   0  0  0  0  0  0  0  0  0  0  0  0
    0.2570   -5.7010   -1.4080 O   0  0  0  0  0  0  0  0  0  0  0  0
   -0.9570   -4.9330   -3.2650 C   0  0  0  0  0  0  0  0  0  0  0  0
   -0.9120   -3.6140   -2.5940 C   0  0  0  0  0  0  0  0  0  0  0  0
   -1.8970   -3.3690   -1.5090 C   0  0  2  0  0  0  0  0  0  0  0  0
   -1.5950   -2.0120   -0.9850 N   0  0  0  0  0  0  0  0  0  0  0  0
   -2.0690   -4.3270   -0.4520 C   0  0  0  0  0  0  0  0  0  0  0  0
   -2.5350   -5.4900   -0.6000 O   0  0  0  0  0  0  0  0  0  0  0  0
   -1.6980   -3.9730    0.8670 O   0  0  0  0  0  0  0  0  0  0  0  0
   -1.9200   -7.6590   -2.2600 H   0  0  0  0  0  0  0  0  0  0  0  0
   -0.3210   -8.0660   -2.9240 H   0  0  0  0  0  0  0  0  0  0  0  0
   -1.9900   -5.1740   -3.6410 H   0  0  0  0  0  0  0  0  0  0  0  0
   -0.3100   -4.9270   -4.1890 H   0  0  0  0  0  0  0  0  0  0  0  0
    0.1080   -3.4250   -2.1590 H   0  0  0  0  0  0  0  0  0  0  0  0
   -1.0460   -2.8260   -3.4050 H   0  0  0  0  0  0  0  0  0  0  0  0
   -2.9230   -3.1960   -1.9950 H   0  0  0  0  0  0  0  0  0  0  0  0
   -0.6680   -1.9030   -0.5040 H   0  0  0  0  0  0  0  0  0  0  0  0
  1 15  1  0  0  0  0
  1  2  1  0  0  0  0
  2 17  1  1  0  0  0
  2  3  1  0  0  0  0
  3 18  1  0  0  0  0
  3  4  1  0  0  0  0
  4  5  2  0  0  0  0
  5  6  1  0  0  0  0
  5 20  1  0  0  0  0
  6 21  1  0  0  0  0
  7  6  1  0  0  0  0
  8  7  1  0  0  0  0
  8 22  1  0  0  0  0
  9  8  2  0  0  0  0
 10 11  2  0  0  0  0
 10  9  1  0  0  0  0
 11 12  1  0  0  0  0
 12  4  1  0  0  0  0
 12  7  2  0  0  0  0
 13 14  2  0  0  0  0
 13  2  1  0  0  0  0
 16  1  1  0  0  0  0
 19  3  1  0  0  0  0
 23  9  1  0  0  0  0
 24 10  1  0  0  0  0
 25 11  1  0  0  0  0
 26 27  1  0  0  0  0
 26 35  1  0  0  0  0
 27 28  2  0  0  0  0
 29 30  1  0  0  0  0
 29 27  1  0  0  0  0
 30 39  1  0  0  0  0
 30 31  1  0  0  0  0
 31 32  1  0  0  0  0
 31 41  1  1  0  0  0
 32 13  1  0  0  0  0
 33 49  1  0  0  0  0
 33 31  1  0  0  0  0
 34 33  2  0  0  0  0
 36 26  1  0  0  0  0
 37 29  1  0  0  0  0
 38 29  1  0  0  0  0
 40 30  1  0  0  0  0
 42 32  1  0  0  0  0
 43 44  1  0  0  0  0
 43 53  1  0  0  0  0
 44 45  2  0  0  0  0
 46 47  1  0  0  0  0
 46 44  1  0  0  0  0
 47 57  1  0  0  0  0
 47 48  1  0  0  0  0
 48 59  1  6  0  0  0
 48 49  1  0  0  0  0
 48 50  1  0  0  0  0
 49 60  1  0  0  0  0
 50 52  1  0  0  0  0
 51 50  2  0  0  0  0
 54 43  1  0  0  0  0
 55 46  1  0  0  0  0
 56 46  1  0  0  0  0
 58 47  1  0  0  0  0
M  END
$$$$
