WQS.pdb
 OpenBabel07022419173D

 54 55  0  0  1  0  0  0  0  0999 V2000
    1.7400   -0.4610   -0.7770 N   0  0  0  0  0  0  0  0  0  0  0  0
    0.8230   -0.4660    0.3470 C   0  0  1  0  0  0  0  0  0  0  0  0
    0.9660    0.7020    1.2450 C   0  0  0  0  0  0  0  0  0  0  0  0
    2.2900    0.8580    1.8790 C   0  0  0  0  0  0  0  0  0  0  0  0
    2.6740    0.4700    3.1670 C   0  0  0  0  0  0  0  0  0  0  0  0
    3.9670    0.7630    3.3450 N   0  0  0  0  0  0  0  0  0  0  0  0
    4.4790    1.3370    2.2310 C   0  0  0  0  0  0  0  0  0  0  0  0
    5.7420    1.8070    1.9480 C   0  0  0  0  0  0  0  0  0  0  0  0
    5.9880    2.3590    0.7140 C   0  0  0  0  0  0  0  0  0  0  0  0
    4.9540    2.4230   -0.2000 C   0  0  0  0  0  0  0  0  0  0  0  0
    3.6970    1.9560    0.0790 C   0  0  0  0  0  0  0  0  0  0  0  0
    3.4200    1.3940    1.3120 C   0  0  0  0  0  0  0  0  0  0  0  0
   -0.5600   -0.7240   -0.0610 C   0  0  0  0  0  0  0  0  0  0  0  0
   -0.8760   -0.8770   -1.2920 O   0  0  0  0  0  0  0  0  0  0  0  0
    1.4200   -1.1630   -1.4740 H   0  0  0  0  0  0  0  0  0  0  0  0
    2.6690   -0.7990   -0.4130 H   0  0  0  0  0  0  0  0  0  0  0  0
    1.1100   -1.3750    0.9820 H   0  0  0  0  0  0  0  0  0  0  0  0
    0.2380    0.5820    2.0830 H   0  0  0  0  0  0  0  0  0  0  0  0
    0.7010    1.6090    0.6360 H   0  0  0  0  0  0  0  0  0  0  0  0
    1.9640    0.0060    3.8530 H   0  0  0  0  0  0  0  0  0  0  0  0
    4.5140    0.5860    4.2030 H   0  0  0  0  0  0  0  0  0  0  0  0
    6.5550    1.7630    2.6530 H   0  0  0  0  0  0  0  0  0  0  0  0
    6.9780    2.7520    0.4290 H   0  0  0  0  0  0  0  0  0  0  0  0
    5.1490    2.8570   -1.1690 H   0  0  0  0  0  0  0  0  0  0  0  0
    2.8780    2.0140   -0.6350 H   0  0  0  0  0  0  0  0  0  0  0  0
   -3.2170    2.5700    2.8580 N   0  0  0  0  0  0  0  0  0  0  0  0
   -3.0520    1.8160    1.6400 C   0  0  0  0  0  0  0  0  0  0  0  0
   -1.9540    1.9030    1.0700 O   0  0  0  0  0  0  0  0  0  0  0  0
   -4.1730    1.0120    1.1600 C   0  0  0  0  0  0  0  0  0  0  0  0
   -3.8560   -0.0340    0.1460 C   0  0  0  0  0  0  0  0  0  0  0  0
   -2.9720   -1.1280    0.5090 C   0  0  2  0  0  0  0  0  0  0  0  0
   -1.6310   -0.8280    0.8770 N   0  0  0  0  0  0  0  0  0  0  0  0
   -3.1040   -2.3120   -0.3990 C   0  0  0  0  0  0  0  0  0  0  0  0
   -4.1970   -2.4810   -0.9860 O   0  0  0  0  0  0  0  0  0  0  0  0
   -3.1080    3.6030    2.8350 H   0  0  0  0  0  0  0  0  0  0  0  0
   -3.4410    2.1270    3.7660 H   0  0  0  0  0  0  0  0  0  0  0  0
   -4.7210    0.5010    1.9970 H   0  0  0  0  0  0  0  0  0  0  0  0
   -4.9170    1.7370    0.6910 H   0  0  0  0  0  0  0  0  0  0  0  0
   -4.8120   -0.4720   -0.2730 H   0  0  0  0  0  0  0  0  0  0  0  0
   -3.4610    0.5510   -0.7580 H   0  0  0  0  0  0  0  0  0  0  0  0
   -3.4180   -1.5220    1.5410 H   0  0  0  0  0  0  0  0  0  0  0  0
   -1.3530   -0.6620    1.8700 H   0  0  0  0  0  0  0  0  0  0  0  0
    0.0450   -4.3000   -2.2590 O   0  0  0  0  0  0  0  0  0  0  0  0
   -1.2710   -4.3080   -2.6910 C   0  0  0  0  0  0  0  0  0  0  0  0
   -2.2350   -4.3850   -1.5250 C   0  0  2  0  0  0  0  0  0  0  0  0
   -2.0770   -3.2490   -0.6280 N   0  0  0  0  0  0  0  0  0  0  0  0
   -2.0080   -5.6080   -0.7180 C   0  0  0  0  0  0  0  0  0  0  0  0
   -2.0950   -6.7170   -1.2880 O   0  0  0  0  0  0  0  0  0  0  0  0
   -1.7050   -5.5930    0.6340 O   0  0  0  0  0  0  0  0  0  0  0  0
    0.0840   -4.8560   -1.4430 H   0  0  0  0  0  0  0  0  0  0  0  0
   -1.4740   -5.2220   -3.3100 H   0  0  0  0  0  0  0  0  0  0  0  0
   -1.4710   -3.4520   -3.3450 H   0  0  0  0  0  0  0  0  0  0  0  0
   -3.2640   -4.3710   -1.9750 H   0  0  0  0  0  0  0  0  0  0  0  0
   -1.1630   -3.1730   -0.1360 H   0  0  0  0  0  0  0  0  0  0  0  0
  1 16  1  0  0  0  0
  1  2  1  0  0  0  0
  2 17  1  1  0  0  0
  2  3  1  0  0  0  0
  3  4  1  0  0  0  0
  3 18  1  0  0  0  0
  4  5  2  0  0  0  0
  5  6  1  0  0  0  0
  5 20  1  0  0  0  0
  6 21  1  0  0  0  0
  7  6  1  0  0  0  0
  8  7  1  0  0  0  0
  8 22  1  0  0  0  0
  9  8  2  0  0  0  0
 10 11  2  0  0  0  0
 10  9  1  0  0  0  0
 11 12  1  0  0  0  0
 12  4  1  0  0  0  0
 12  7  2  0  0  0  0
 13  2  1  0  0  0  0
 13 32  1  0  0  0  0
 14 13  2  0  0  0  0
 15  1  1  0  0  0  0
 19  3  1  0  0  0  0
 23  9  1  0  0  0  0
 24 10  1  0  0  0  0
 25 11  1  0  0  0  0
 26 36  1  0  0  0  0
 27 26  1  0  0  0  0
 28 27  2  0  0  0  0
 29 27  1  0  0  0  0
 29 37  1  0  0  0  0
 30 31  1  0  0  0  0
 30 29  1  0  0  0  0
 31 32  1  0  0  0  0
 31 41  1  1  0  0  0
 32 42  1  0  0  0  0
 33 31  1  0  0  0  0
 34 33  2  0  0  0  0
 35 26  1  0  0  0  0
 38 29  1  0  0  0  0
 39 30  1  0  0  0  0
 40 30  1  0  0  0  0
 43 50  1  0  0  0  0
 44 43  1  0  0  0  0
 44 45  1  0  0  0  0
 45 53  1  6  0  0  0
 45 47  1  0  0  0  0
 45 46  1  0  0  0  0
 46 33  1  0  0  0  0
 46 54  1  0  0  0  0
 47 49  1  0  0  0  0
 48 47  2  0  0  0  0
 51 44  1  0  0  0  0
 52 44  1  0  0  0  0
M  END
$$$$
