WQV.pdb
 OpenBabel07022419173D

 59 60  0  0  1  0  0  0  0  0999 V2000
    1.4870    0.1020    3.3940 N   0  0  0  0  0  0  0  0  0  0  0  0
    1.1480    0.3310    2.0110 C   0  0  1  0  0  0  0  0  0  0  0  0
    1.9020   -0.6310    1.1240 C   0  0  0  0  0  0  0  0  0  0  0  0
    3.3730   -0.3880    1.2760 C   0  0  0  0  0  0  0  0  0  0  0  0
    4.3230   -1.0560    1.9930 C   0  0  0  0  0  0  0  0  0  0  0  0
    5.5120   -0.4350    1.8120 N   0  0  0  0  0  0  0  0  0  0  0  0
    5.3780    0.6310    0.9920 C   0  0  0  0  0  0  0  0  0  0  0  0
    6.2680    1.5720    0.5020 C   0  0  0  0  0  0  0  0  0  0  0  0
    5.8280    2.5660   -0.3360 C   0  0  0  0  0  0  0  0  0  0  0  0
    4.4940    2.5980   -0.6750 C   0  0  0  0  0  0  0  0  0  0  0  0
    3.6160    1.6660   -0.1910 C   0  0  0  0  0  0  0  0  0  0  0  0
    4.0380    0.6710    0.6490 C   0  0  0  0  0  0  0  0  0  0  0  0
   -0.3270    0.2400    1.8320 C   0  0  0  0  0  0  0  0  0  0  0  0
   -1.1070    0.0430    2.8120 O   0  0  0  0  0  0  0  0  0  0  0  0
    0.9340    0.7230    4.0410 H   0  0  0  0  0  0  0  0  0  0  0  0
    2.5030    0.2330    3.5550 H   0  0  0  0  0  0  0  0  0  0  0  0
    1.4920    1.3740    1.7090 H   0  0  0  0  0  0  0  0  0  0  0  0
    1.6770   -1.6760    1.4810 H   0  0  0  0  0  0  0  0  0  0  0  0
    1.6180   -0.5970    0.0760 H   0  0  0  0  0  0  0  0  0  0  0  0
    4.1550   -1.9200    2.6000 H   0  0  0  0  0  0  0  0  0  0  0  0
    6.4410   -0.7050    2.2370 H   0  0  0  0  0  0  0  0  0  0  0  0
    7.3010    1.5450    0.7700 H   0  0  0  0  0  0  0  0  0  0  0  0
    6.5040    3.3290   -0.7390 H   0  0  0  0  0  0  0  0  0  0  0  0
    4.1500    3.3680   -1.3340 H   0  0  0  0  0  0  0  0  0  0  0  0
    2.5470    1.6670   -0.4500 H   0  0  0  0  0  0  0  0  0  0  0  0
   -6.4870    1.4780    0.8230 N   0  0  0  0  0  0  0  0  0  0  0  0
   -5.0800    1.5910    0.6810 C   0  0  0  0  0  0  0  0  0  0  0  0
   -4.4370    1.7510    1.7500 O   0  0  0  0  0  0  0  0  0  0  0  0
   -4.3540    1.5360   -0.6080 C   0  0  0  0  0  0  0  0  0  0  0  0
   -2.8600    1.4990   -0.4070 C   0  0  0  0  0  0  0  0  0  0  0  0
   -2.3480    0.3180    0.3340 C   0  0  2  0  0  0  0  0  0  0  0  0
   -0.9240    0.3690    0.5520 N   0  0  0  0  0  0  0  0  0  0  0  0
   -2.5710   -0.9890   -0.3990 C   0  0  0  0  0  0  0  0  0  0  0  0
   -3.4930   -1.1930   -1.1940 O   0  0  0  0  0  0  0  0  0  0  0  0
   -7.0550    0.7010    0.4220 H   0  0  0  0  0  0  0  0  0  0  0  0
   -7.0650    2.1960    1.3670 H   0  0  0  0  0  0  0  0  0  0  0  0
   -4.7210    0.6890   -1.1920 H   0  0  0  0  0  0  0  0  0  0  0  0
   -4.6060    2.5030   -1.1350 H   0  0  0  0  0  0  0  0  0  0  0  0
   -2.4440    1.4170   -1.4680 H   0  0  0  0  0  0  0  0  0  0  0  0
   -2.4680    2.4540   -0.0310 H   0  0  0  0  0  0  0  0  0  0  0  0
   -2.9210    0.1790    1.2640 H   0  0  0  0  0  0  0  0  0  0  0  0
   -0.2610    0.5130   -0.2680 H   0  0  0  0  0  0  0  0  0  0  0  0
   -0.4010   -4.5690    0.8780 C   0  0  0  0  0  0  0  0  0  0  0  0
   -0.5930   -4.2250   -0.6060 C   0  0  0  0  0  0  0  0  0  0  0  0
   -0.6770   -5.4360   -1.4760 C   0  0  0  0  0  0  0  0  0  0  0  0
   -1.7500   -3.3450   -0.8280 C   0  0  2  0  0  0  0  0  0  0  0  0
   -1.6700   -2.0500   -0.1570 N   0  0  0  0  0  0  0  0  0  0  0  0
   -3.0740   -4.0080   -0.4690 C   0  0  0  0  0  0  0  0  0  0  0  0
   -3.8580   -3.3960    0.2870 O   0  0  0  0  0  0  0  0  0  0  0  0
   -3.3830   -5.2460   -0.9650 O   0  0  0  0  0  0  0  0  0  0  0  0
   -1.4170   -4.8550    1.2380 H   0  0  0  0  0  0  0  0  0  0  0  0
    0.3300   -5.3940    0.9380 H   0  0  0  0  0  0  0  0  0  0  0  0
    0.0340   -3.6990    1.3730 H   0  0  0  0  0  0  0  0  0  0  0  0
    0.3460   -3.6570   -0.8750 H   0  0  0  0  0  0  0  0  0  0  0  0
    0.3750   -5.7730   -1.7050 H   0  0  0  0  0  0  0  0  0  0  0  0
   -1.1340   -5.1700   -2.4430 H   0  0  0  0  0  0  0  0  0  0  0  0
   -1.1880   -6.3140   -0.9900 H   0  0  0  0  0  0  0  0  0  0  0  0
   -1.9010   -3.1130   -1.8900 H   0  0  0  0  0  0  0  0  0  0  0  0
   -0.8910   -1.9250    0.5460 H   0  0  0  0  0  0  0  0  0  0  0  0
  1 16  1  0  0  0  0
  1 15  1  0  0  0  0
  2 17  1  6  0  0  0
  2  1  1  0  0  0  0
  3  4  1  0  0  0  0
  3 18  1  0  0  0  0
  3  2  1  0  0  0  0
  4  5  2  0  0  0  0
  5 20  1  0  0  0  0
  6  5  1  0  0  0  0
  6 21  1  0  0  0  0
  7  6  1  0  0  0  0
  8 22  1  0  0  0  0
  8  7  2  0  0  0  0
  9  8  1  0  0  0  0
 10  9  2  0  0  0  0
 10 11  1  0  0  0  0
 11 12  2  0  0  0  0
 12  7  1  0  0  0  0
 12  4  1  0  0  0  0
 13  2  1  0  0  0  0
 13 14  2  0  0  0  0
 19  3  1  0  0  0  0
 23  9  1  0  0  0  0
 24 10  1  0  0  0  0
 25 11  1  0  0  0  0
 26 36  1  0  0  0  0
 27 26  1  0  0  0  0
 27 28  2  0  0  0  0
 29 30  1  0  0  0  0
 29 27  1  0  0  0  0
 30 40  1  0  0  0  0
 30 31  1  0  0  0  0
 31 32  1  0  0  0  0
 31 41  1  1  0  0  0
 32 13  1  0  0  0  0
 33 47  1  0  0  0  0
 33 31  1  0  0  0  0
 34 33  2  0  0  0  0
 35 26  1  0  0  0  0
 37 29  1  0  0  0  0
 38 29  1  0  0  0  0
 39 30  1  0  0  0  0
 42 32  1  0  0  0  0
 43 52  1  0  0  0  0
 43 51  1  0  0  0  0
 43 53  1  0  0  0  0
 44 43  1  0  0  0  0
 45 57  1  0  0  0  0
 45 44  1  0  0  0  0
 46 58  1  6  0  0  0
 46 44  1  0  0  0  0
 46 48  1  0  0  0  0
 46 47  1  0  0  0  0
 47 59  1  0  0  0  0
 48 49  1  0  0  0  0
 50 48  2  0  0  0  0
 54 44  1  0  0  0  0
 55 45  1  0  0  0  0
 56 45  1  0  0  0  0
M  END
$$$$
