WQW.pdb
 OpenBabel07022419173D

 67 70  0  0  1  0  0  0  0  0999 V2000
    4.2720   -2.3970   -1.6000 N   0  0  0  0  0  0  0  0  0  0  0  0
    3.9260   -1.0170   -1.2610 C   0  0  1  0  0  0  0  0  0  0  0  0
    4.3620   -0.1660   -2.3870 C   0  0  0  0  0  0  0  0  0  0  0  0
    4.0640    1.2700   -2.2160 C   0  0  0  0  0  0  0  0  0  0  0  0
    4.9320    2.2600   -1.7300 C   0  0  0  0  0  0  0  0  0  0  0  0
    4.2890    3.4340   -1.7020 N   0  0  0  0  0  0  0  0  0  0  0  0
    3.0060    3.2910   -2.1510 C   0  0  0  0  0  0  0  0  0  0  0  0
    1.9800    4.1980   -2.3150 C   0  0  0  0  0  0  0  0  0  0  0  0
    0.7690    3.7860   -2.8100 C   0  0  0  0  0  0  0  0  0  0  0  0
    0.6330    2.4530   -3.1280 C   0  0  0  0  0  0  0  0  0  0  0  0
    1.6540    1.5450   -2.9650 C   0  0  0  0  0  0  0  0  0  0  0  0
    2.8840    1.9530   -2.4640 C   0  0  0  0  0  0  0  0  0  0  0  0
    2.5620   -0.8840   -0.7740 C   0  0  0  0  0  0  0  0  0  0  0  0
    2.1950    0.1930   -0.1860 O   0  0  0  0  0  0  0  0  0  0  0  0
    4.3870   -2.9750   -0.7170 H   0  0  0  0  0  0  0  0  0  0  0  0
    3.5950   -2.8200   -2.2650 H   0  0  0  0  0  0  0  0  0  0  0  0
    4.6160   -0.7760   -0.3920 H   0  0  0  0  0  0  0  0  0  0  0  0
    3.9860   -0.5320   -3.3780 H   0  0  0  0  0  0  0  0  0  0  0  0
    5.4800   -0.2870   -2.4820 H   0  0  0  0  0  0  0  0  0  0  0  0
    5.9470    2.0160   -1.4470 H   0  0  0  0  0  0  0  0  0  0  0  0
    4.7150    4.3280   -1.3800 H   0  0  0  0  0  0  0  0  0  0  0  0
    2.1040    5.2350   -2.0620 H   0  0  0  0  0  0  0  0  0  0  0  0
   -0.0690    4.4850   -2.9530 H   0  0  0  0  0  0  0  0  0  0  0  0
   -0.3280    2.1130   -3.5240 H   0  0  0  0  0  0  0  0  0  0  0  0
    1.5560    0.4970   -3.2110 H   0  0  0  0  0  0  0  0  0  0  0  0
   -3.9290   -0.0770   -0.4500 N   0  0  0  0  0  0  0  0  0  0  0  0
   -2.5700   -0.3020   -0.7380 C   0  0  0  0  0  0  0  0  0  0  0  0
   -1.7270    0.5760   -0.4580 O   0  0  0  0  0  0  0  0  0  0  0  0
   -2.1440   -1.5580   -1.3630 C   0  0  0  0  0  0  0  0  0  0  0  0
   -0.6890   -1.7220   -1.5800 C   0  0  0  0  0  0  0  0  0  0  0  0
    0.1960   -1.6780   -0.3780 C   0  0  2  0  0  0  0  0  0  0  0  0
    1.5570   -1.8670   -0.8890 N   0  0  0  0  0  0  0  0  0  0  0  0
   -0.0340   -2.7610    0.6000 C   0  0  0  0  0  0  0  0  0  0  0  0
    0.8440   -3.6540    0.7280 O   0  0  0  0  0  0  0  0  0  0  0  0
   -4.6390   -0.1060   -1.1980 H   0  0  0  0  0  0  0  0  0  0  0  0
   -4.2230    0.1200    0.5200 H   0  0  0  0  0  0  0  0  0  0  0  0
   -2.6360   -1.5730   -2.3870 H   0  0  0  0  0  0  0  0  0  0  0  0
   -2.5690   -2.4600   -0.8690 H   0  0  0  0  0  0  0  0  0  0  0  0
   -0.5190   -2.6470   -2.1810 H   0  0  0  0  0  0  0  0  0  0  0  0
   -0.3530   -0.8930   -2.2720 H   0  0  0  0  0  0  0  0  0  0  0  0
    0.1400   -0.6700    0.0910 H   0  0  0  0  0  0  0  0  0  0  0  0
    1.7630   -2.7620   -1.3480 H   0  0  0  0  0  0  0  0  0  0  0  0
   -1.1730   -2.8980    1.4340 N   0  0  0  0  0  0  0  0  0  0  0  0
   -1.3720   -3.9580    2.3670 C   0  0  1  0  0  0  0  0  0  0  0  0
   -1.3040   -3.4870    3.7980 C   0  0  0  0  0  0  0  0  0  0  0  0
   -2.2750   -2.4740    4.1830 C   0  0  0  0  0  0  0  0  0  0  0  0
   -3.4770   -2.7000    4.8510 C   0  0  0  0  0  0  0  0  0  0  0  0
   -4.1150   -1.5370    5.0180 N   0  0  0  0  0  0  0  0  0  0  0  0
   -3.3750   -0.5310    4.4800 C   0  0  0  0  0  0  0  0  0  0  0  0
   -3.6150    0.8300    4.4150 C   0  0  0  0  0  0  0  0  0  0  0  0
   -2.6970    1.6670    3.8180 C   0  0  0  0  0  0  0  0  0  0  0  0
   -1.5570    1.0920    3.3020 C   0  0  0  0  0  0  0  0  0  0  0  0
   -1.3140   -0.2620    3.3630 C   0  0  0  0  0  0  0  0  0  0  0  0
   -2.2300   -1.1180    3.9620 C   0  0  0  0  0  0  0  0  0  0  0  0
   -2.6430   -4.7050    2.1240 C   0  0  0  0  0  0  0  0  0  0  0  0
   -3.4300   -4.4280    1.2060 O   0  0  0  0  0  0  0  0  0  0  0  0
   -2.9300   -5.7540    2.9850 O   0  0  0  0  0  0  0  0  0  0  0  0
   -1.9140   -2.1720    1.3540 H   0  0  0  0  0  0  0  0  0  0  0  0
   -0.5600   -4.7420    2.2960 H   0  0  0  0  0  0  0  0  0  0  0  0
   -1.4880   -4.4190    4.4160 H   0  0  0  0  0  0  0  0  0  0  0  0
   -0.2470   -3.1990    4.0380 H   0  0  0  0  0  0  0  0  0  0  0  0
   -3.8680   -3.6520    5.1980 H   0  0  0  0  0  0  0  0  0  0  0  0
   -5.0510   -1.4180    5.4940 H   0  0  0  0  0  0  0  0  0  0  0  0
   -4.5390    1.2390    4.8410 H   0  0  0  0  0  0  0  0  0  0  0  0
   -2.8440    2.7290    3.7470 H   0  0  0  0  0  0  0  0  0  0  0  0
   -0.8090    1.7410    2.8200 H   0  0  0  0  0  0  0  0  0  0  0  0
   -0.4040   -0.6950    2.9510 H   0  0  0  0  0  0  0  0  0  0  0  0
  1  2  1  0  0  0  0
  1 15  1  0  0  0  0
  2 13  1  0  0  0  0
  2 17  1  1  0  0  0
  3  4  1  0  0  0  0
  3  2  1  0  0  0  0
  4  5  2  0  0  0  0
  5  6  1  0  0  0  0
  5 20  1  0  0  0  0
  6 21  1  0  0  0  0
  7  6  1  0  0  0  0
  8  7  1  0  0  0  0
  8 22  1  0  0  0  0
  9  8  2  0  0  0  0
 10 11  2  0  0  0  0
 10  9  1  0  0  0  0
 11 12  1  0  0  0  0
 12  4  1  0  0  0  0
 12  7  2  0  0  0  0
 13 14  2  0  0  0  0
 16  1  1  0  0  0  0
 18  3  1  0  0  0  0
 19  3  1  0  0  0  0
 23  9  1  0  0  0  0
 24 10  1  0  0  0  0
 25 11  1  0  0  0  0
 26 36  1  0  0  0  0
 27 28  2  0  0  0  0
 27 26  1  0  0  0  0
 29 38  1  0  0  0  0
 29 27  1  0  0  0  0
 30 29  1  0  0  0  0
 30 31  1  0  0  0  0
 31 41  1  1  0  0  0
 31 33  1  0  0  0  0
 32 13  1  0  0  0  0
 32 31  1  0  0  0  0
 33 34  2  0  0  0  0
 33 43  1  0  0  0  0
 35 26  1  0  0  0  0
 37 29  1  0  0  0  0
 39 30  1  0  0  0  0
 40 30  1  0  0  0  0
 42 32  1  0  0  0  0
 43 44  1  0  0  0  0
 44 59  1  6  0  0  0
 44 45  1  0  0  0  0
 45 61  1  0  0  0  0
 45 46  1  0  0  0  0
 45 60  1  0  0  0  0
 46 47  2  0  0  0  0
 47 48  1  0  0  0  0
 47 62  1  0  0  0  0
 48 63  1  0  0  0  0
 49 48  1  0  0  0  0
 50 49  1  0  0  0  0
 50 64  1  0  0  0  0
 51 50  2  0  0  0  0
 52 53  2  0  0  0  0
 52 51  1  0  0  0  0
 53 54  1  0  0  0  0
 54 46  1  0  0  0  0
 54 49  2  0  0  0  0
 55 44  1  0  0  0  0
 55 57  1  0  0  0  0
 56 55  2  0  0  0  0
 58 43  1  0  0  0  0
 65 51  1  0  0  0  0
 66 52  1  0  0  0  0
 67 53  1  0  0  0  0
M  END
$$$$
