WRG.pdb
 OpenBabel07022419153D

 56 57  0  0  1  0  0  0  0  0999 V2000
    1.5020    1.2410    0.8330 N   0  0  0  0  0  0  0  0  0  0  0  0
    1.6540   -0.1980    0.7590 C   0  0  1  0  0  0  0  0  0  0  0  0
    1.8140   -0.8410    2.0790 C   0  0  0  0  0  0  0  0  0  0  0  0
    2.9040   -0.4520    2.9480 C   0  0  0  0  0  0  0  0  0  0  0  0
    2.8460   -0.7440    4.3320 C   0  0  0  0  0  0  0  0  0  0  0  0
    3.9570   -0.2920    4.9110 N   0  0  0  0  0  0  0  0  0  0  0  0
    4.7400    0.2820    3.9750 C   0  0  0  0  0  0  0  0  0  0  0  0
    5.9770    0.9000    4.0410 C   0  0  0  0  0  0  0  0  0  0  0  0
    6.5780    1.4210    2.9180 C   0  0  0  0  0  0  0  0  0  0  0  0
    5.9330    1.3240    1.7080 C   0  0  0  0  0  0  0  0  0  0  0  0
    4.6930    0.7120    1.6000 C   0  0  0  0  0  0  0  0  0  0  0  0
    4.1050    0.1960    2.7340 C   0  0  0  0  0  0  0  0  0  0  0  0
    0.3320   -0.6590    0.1280 C   0  0  0  0  0  0  0  0  0  0  0  0
   -0.5150    0.1850   -0.1880 O   0  0  0  0  0  0  0  0  0  0  0  0
    0.7830    1.4240    1.5680 H   0  0  0  0  0  0  0  0  0  0  0  0
    1.0690    1.5440   -0.0690 H   0  0  0  0  0  0  0  0  0  0  0  0
    2.4280   -0.5560    0.0640 H   0  0  0  0  0  0  0  0  0  0  0  0
    1.7500   -1.9730    1.9510 H   0  0  0  0  0  0  0  0  0  0  0  0
    0.8430   -0.6370    2.6430 H   0  0  0  0  0  0  0  0  0  0  0  0
    2.0410   -1.2480    4.8380 H   0  0  0  0  0  0  0  0  0  0  0  0
    4.2280   -0.3450    5.9130 H   0  0  0  0  0  0  0  0  0  0  0  0
    6.4640    0.9630    5.0140 H   0  0  0  0  0  0  0  0  0  0  0  0
    7.5570    1.9120    2.9640 H   0  0  0  0  0  0  0  0  0  0  0  0
    6.3490    1.7140    0.7760 H   0  0  0  0  0  0  0  0  0  0  0  0
    4.1830    0.6310    0.6710 H   0  0  0  0  0  0  0  0  0  0  0  0
   -4.8480    1.6850    0.5270 N   0  0  0  0  0  0  0  0  0  0  0  0
   -5.1120    0.3150    0.2090 C   0  0  0  0  0  0  0  0  0  0  0  0
   -5.7190   -0.0320   -0.8740 N   0  0  0  0  0  0  0  0  0  0  0  0
   -4.6990   -0.7000    1.1070 N   0  0  0  0  0  0  0  0  0  0  0  0
   -4.7460   -2.0960    0.8090 C   0  0  0  0  0  0  0  0  0  0  0  0
   -3.7230   -2.4770   -0.2870 C   0  0  0  0  0  0  0  0  0  0  0  0
   -2.3500   -2.1180    0.1930 C   0  0  0  0  0  0  0  0  0  0  0  0
   -1.2220   -2.4660   -0.7030 C   0  0  2  0  0  0  0  0  0  0  0  0
    0.0560   -2.0220   -0.1000 N   0  0  0  0  0  0  0  0  0  0  0  0
   -1.2790   -1.9860   -2.0840 C   0  0  0  0  0  0  0  0  0  0  0  0
   -0.4140   -1.1380   -2.4940 O   0  0  0  0  0  0  0  0  0  0  0  0
   -5.4030    2.4130    0.0430 H   0  0  0  0  0  0  0  0  0  0  0  0
   -4.1200    1.9040    1.2220 H   0  0  0  0  0  0  0  0  0  0  0  0
   -6.0160    0.7370   -1.5220 H   0  0  0  0  0  0  0  0  0  0  0  0
   -4.3340   -0.4060    2.0550 H   0  0  0  0  0  0  0  0  0  0  0  0
   -5.7390   -2.3160    0.3220 H   0  0  0  0  0  0  0  0  0  0  0  0
   -4.5920   -2.7240    1.6940 H   0  0  0  0  0  0  0  0  0  0  0  0
   -4.0140   -1.9080   -1.2030 H   0  0  0  0  0  0  0  0  0  0  0  0
   -3.8750   -3.5430   -0.4920 H   0  0  0  0  0  0  0  0  0  0  0  0
   -2.3440   -1.0510    0.5270 H   0  0  0  0  0  0  0  0  0  0  0  0
   -2.2290   -2.6810    1.1710 H   0  0  0  0  0  0  0  0  0  0  0  0
   -1.1780   -3.5870   -0.7490 H   0  0  0  0  0  0  0  0  0  0  0  0
    0.7780   -2.7190    0.1670 H   0  0  0  0  0  0  0  0  0  0  0  0
   -2.2240   -2.3760   -3.0670 N   0  0  0  0  0  0  0  0  0  0  0  0
   -2.2080   -1.8410   -4.4240 C   0  0  0  0  0  0  0  0  0  0  0  0
   -0.9040   -2.1990   -5.0280 C   0  0  0  0  0  0  0  0  0  0  0  0
   -0.6320   -1.8570   -6.2190 O   0  0  0  0  0  0  0  0  0  0  0  0
    0.0940   -2.9110   -4.3710 O   0  0  0  0  0  0  0  0  0  0  0  0
   -2.9470   -3.0780   -2.8360 H   0  0  0  0  0  0  0  0  0  0  0  0
   -2.2240   -0.7210   -4.3700 H   0  0  0  0  0  0  0  0  0  0  0  0
   -3.0570   -2.2300   -5.0120 H   0  0  0  0  0  0  0  0  0  0  0  0
  1 15  1  0  0  0  0
  2 17  1  6  0  0  0
  2  1  1  0  0  0  0
  2  3  1  0  0  0  0
  3 19  1  0  0  0  0
  3  4  1  0  0  0  0
  4  5  2  0  0  0  0
  5 20  1  0  0  0  0
  5  6  1  0  0  0  0
  6 21  1  0  0  0  0
  7  8  1  0  0  0  0
  7  6  1  0  0  0  0
  8 22  1  0  0  0  0
  9 23  1  0  0  0  0
  9  8  2  0  0  0  0
 10  9  1  0  0  0  0
 11 10  2  0  0  0  0
 11 12  1  0  0  0  0
 12  4  1  0  0  0  0
 12  7  2  0  0  0  0
 13  2  1  0  0  0  0
 14 13  2  0  0  0  0
 16  1  1  0  0  0  0
 18  3  1  0  0  0  0
 24 10  1  0  0  0  0
 25 11  1  0  0  0  0
 26 38  1  0  0  0  0
 27 26  1  0  0  0  0
 27 29  1  0  0  0  0
 28 27  2  0  0  0  0
 29 40  1  0  0  0  0
 30 29  1  0  0  0  0
 30 42  1  0  0  0  0
 31 32  1  0  0  0  0
 31 30  1  0  0  0  0
 32 45  1  0  0  0  0
 32 46  1  0  0  0  0
 33 47  1  6  0  0  0
 33 34  1  0  0  0  0
 33 32  1  0  0  0  0
 34 13  1  0  0  0  0
 34 48  1  0  0  0  0
 35 33  1  0  0  0  0
 36 35  2  0  0  0  0
 37 26  1  0  0  0  0
 39 28  1  0  0  0  0
 41 30  1  0  0  0  0
 43 31  1  0  0  0  0
 44 31  1  0  0  0  0
 49 54  1  0  0  0  0
 49 35  1  0  0  0  0
 50 55  1  0  0  0  0
 50 49  1  0  0  0  0
 51 50  1  0  0  0  0
 51 53  1  0  0  0  0
 52 51  2  0  0  0  0
 56 50  1  0  0  0  0
M  END
$$$$
