WRH.pdb
 OpenBabel07022419153D

 66 68  0  0  1  0  0  0  0  0999 V2000
   -0.0070    0.6450    4.4970 N   0  0  0  0  0  0  0  0  0  0  0  0
    0.0360    0.6270    3.0490 C   0  0  1  0  0  0  0  0  0  0  0  0
    1.5120    0.8710    2.6940 C   0  0  0  0  0  0  0  0  0  0  0  0
    1.9560    2.1940    3.2420 C   0  0  0  0  0  0  0  0  0  0  0  0
    2.7440    2.4270    4.3640 C   0  0  0  0  0  0  0  0  0  0  0  0
    2.9170    3.7660    4.5230 N   0  0  0  0  0  0  0  0  0  0  0  0
    2.2640    4.4160    3.5370 C   0  0  0  0  0  0  0  0  0  0  0  0
    2.1470    5.7660    3.2770 C   0  0  0  0  0  0  0  0  0  0  0  0
    1.4080    6.1780    2.1820 C   0  0  0  0  0  0  0  0  0  0  0  0
    0.8050    5.2330    1.3760 C   0  0  0  0  0  0  0  0  0  0  0  0
    0.9400    3.8950    1.6610 C   0  0  0  0  0  0  0  0  0  0  0  0
    1.6700    3.4550    2.7440 C   0  0  0  0  0  0  0  0  0  0  0  0
   -0.3110   -0.7310    2.5730 C   0  0  0  0  0  0  0  0  0  0  0  0
   -0.5420   -1.6300    3.4250 O   0  0  0  0  0  0  0  0  0  0  0  0
    0.5760    1.3990    4.9190 H   0  0  0  0  0  0  0  0  0  0  0  0
    0.2330   -0.2510    4.9350 H   0  0  0  0  0  0  0  0  0  0  0  0
   -0.5570    1.4240    2.6050 H   0  0  0  0  0  0  0  0  0  0  0  0
    2.1540    0.0770    3.1480 H   0  0  0  0  0  0  0  0  0  0  0  0
    1.6680    0.8850    1.6060 H   0  0  0  0  0  0  0  0  0  0  0  0
    3.1380    1.6200    4.9870 H   0  0  0  0  0  0  0  0  0  0  0  0
    3.4770    4.1740    5.3040 H   0  0  0  0  0  0  0  0  0  0  0  0
    2.6020    6.5390    3.8810 H   0  0  0  0  0  0  0  0  0  0  0  0
    1.2950    7.2430    1.9480 H   0  0  0  0  0  0  0  0  0  0  0  0
    0.2240    5.5370    0.5170 H   0  0  0  0  0  0  0  0  0  0  0  0
    0.4770    3.1290    1.0450 H   0  0  0  0  0  0  0  0  0  0  0  0
   -5.7550    0.0220    0.5690 N   0  0  0  0  0  0  0  0  0  0  0  0
   -4.8380   -0.2900   -0.4640 C   0  0  0  0  0  0  0  0  0  0  0  0
   -4.2230    0.6560   -1.1300 N   0  0  0  0  0  0  0  0  0  0  0  0
   -4.6030   -1.6570   -0.7580 N   0  0  0  0  0  0  0  0  0  0  0  0
   -3.5970   -2.0720   -1.7030 C   0  0  0  0  0  0  0  0  0  0  0  0
   -2.1860   -1.7770   -1.1700 C   0  0  0  0  0  0  0  0  0  0  0  0
   -2.0340   -2.5350    0.0980 C   0  0  0  0  0  0  0  0  0  0  0  0
   -0.7350   -2.4020    0.8080 C   0  0  2  0  0  0  0  0  0  0  0  0
   -0.3970   -1.0770    1.2010 N   0  0  0  0  0  0  0  0  0  0  0  0
    0.4230   -3.0410    0.1280 C   0  0  0  0  0  0  0  0  0  0  0  0
    1.4820   -2.3610    0.0380 O   0  0  0  0  0  0  0  0  0  0  0  0
   -5.6500    0.9310    1.0590 H   0  0  0  0  0  0  0  0  0  0  0  0
   -6.5150   -0.6320    0.8380 H   0  0  0  0  0  0  0  0  0  0  0  0
   -4.4220    1.6400   -0.8860 H   0  0  0  0  0  0  0  0  0  0  0  0
   -5.1830   -2.3670   -0.2670 H   0  0  0  0  0  0  0  0  0  0  0  0
   -3.7020   -3.1710   -1.8980 H   0  0  0  0  0  0  0  0  0  0  0  0
   -3.6950   -1.5750   -2.6890 H   0  0  0  0  0  0  0  0  0  0  0  0
   -1.4470   -1.9980   -1.9360 H   0  0  0  0  0  0  0  0  0  0  0  0
   -2.1670   -0.6800   -0.9960 H   0  0  0  0  0  0  0  0  0  0  0  0
   -2.2550   -3.6120   -0.0370 H   0  0  0  0  0  0  0  0  0  0  0  0
   -2.8240   -2.1660    0.8020 H   0  0  0  0  0  0  0  0  0  0  0  0
   -0.8600   -3.0160    1.7590 H   0  0  0  0  0  0  0  0  0  0  0  0
   -0.2010   -0.3120    0.5100 H   0  0  0  0  0  0  0  0  0  0  0  0
    0.2970   -4.3460   -0.3730 N   0  0  0  0  0  0  0  0  0  0  0  0
    1.3110   -5.0570   -1.0350 C   0  0  1  0  0  0  0  0  0  0  0  0
    2.2600   -4.2680   -1.9140 C   0  0  0  0  0  0  0  0  0  0  0  0
    1.6240   -3.5830   -3.0440 C   0  0  0  0  0  0  0  0  0  0  0  0
    1.1160   -2.3270   -3.1820 C   0  0  0  0  0  0  0  0  0  0  0  0
    0.6520   -2.1710   -4.4430 N   0  0  0  0  0  0  0  0  0  0  0  0
    0.8610   -3.3100   -5.1030 C   0  0  0  0  0  0  0  0  0  0  0  0
    1.4470   -4.1780   -4.2770 N   0  0  0  0  0  0  0  0  0  0  0  0
    2.1040   -5.8670   -0.0970 C   0  0  0  0  0  0  0  0  0  0  0  0
    1.8050   -5.8360    1.1280 O   0  0  0  0  0  0  0  0  0  0  0  0
    3.1700   -6.6680   -0.5010 O   0  0  0  0  0  0  0  0  0  0  0  0
   -0.6400   -4.8260   -0.2370 H   0  0  0  0  0  0  0  0  0  0  0  0
    0.8370   -5.8100   -1.7780 H   0  0  0  0  0  0  0  0  0  0  0  0
    2.8660   -3.5700   -1.3090 H   0  0  0  0  0  0  0  0  0  0  0  0
    3.0060   -5.0040   -2.3560 H   0  0  0  0  0  0  0  0  0  0  0  0
    1.0730   -1.5620   -2.4480 H   0  0  0  0  0  0  0  0  0  0  0  0
    0.2040   -1.3010   -4.8370 H   0  0  0  0  0  0  0  0  0  0  0  0
    0.5950   -3.4850   -6.1300 H   0  0  0  0  0  0  0  0  0  0  0  0
  1 15  1  0  0  0  0
  1 16  1  0  0  0  0
  2 17  1  6  0  0  0
  2  1  1  0  0  0  0
  3  2  1  0  0  0  0
  3 18  1  0  0  0  0
  3  4  1  0  0  0  0
  4  5  2  0  0  0  0
  5  6  1  0  0  0  0
  5 20  1  0  0  0  0
  6 21  1  0  0  0  0
  7  6  1  0  0  0  0
  8  7  1  0  0  0  0
  8 22  1  0  0  0  0
  9  8  2  0  0  0  0
 10 11  2  0  0  0  0
 10  9  1  0  0  0  0
 11 12  1  0  0  0  0
 12  4  1  0  0  0  0
 12  7  2  0  0  0  0
 13  2  1  0  0  0  0
 13 14  2  0  0  0  0
 19  3  1  0  0  0  0
 23  9  1  0  0  0  0
 24 10  1  0  0  0  0
 25 11  1  0  0  0  0
 26 38  1  0  0  0  0
 26 37  1  0  0  0  0
 27 26  1  0  0  0  0
 28 39  1  0  0  0  0
 28 27  2  0  0  0  0
 29 27  1  0  0  0  0
 29 40  1  0  0  0  0
 30 31  1  0  0  0  0
 30 29  1  0  0  0  0
 31 44  1  0  0  0  0
 31 32  1  0  0  0  0
 32 46  1  0  0  0  0
 32 33  1  0  0  0  0
 33 34  1  0  0  0  0
 33 47  1  1  0  0  0
 34 13  1  0  0  0  0
 35 33  1  0  0  0  0
 36 35  2  0  0  0  0
 41 30  1  0  0  0  0
 42 30  1  0  0  0  0
 43 31  1  0  0  0  0
 45 32  1  0  0  0  0
 48 34  1  0  0  0  0
 49 60  1  0  0  0  0
 49 35  1  0  0  0  0
 50 61  1  6  0  0  0
 50 49  1  0  0  0  0
 50 57  1  0  0  0  0
 51 62  1  0  0  0  0
 51 50  1  0  0  0  0
 52 51  1  0  0  0  0
 53 52  2  0  0  0  0
 53 64  1  0  0  0  0
 54 53  1  0  0  0  0
 55 54  1  0  0  0  0
 55 56  2  0  0  0  0
 56 52  1  0  0  0  0
 57 58  1  0  0  0  0
 59 57  2  0  0  0  0
 63 51  1  0  0  0  0
 65 54  1  0  0  0  0
 66 55  1  0  0  0  0
M  END
$$$$
