WRM.pdb
 OpenBabel07022419153D

 66 67  0  0  1  0  0  0  0  0999 V2000
    3.6000   -0.2740   -1.8660 N   0  0  0  0  0  0  0  0  0  0  0  0
    2.7010   -0.7320   -0.8340 C   0  0  1  0  0  0  0  0  0  0  0  0
    2.5620    0.1930    0.3290 C   0  0  0  0  0  0  0  0  0  0  0  0
    3.8170    0.4690    1.0540 C   0  0  0  0  0  0  0  0  0  0  0  0
    4.1900   -0.1300    2.2490 C   0  0  0  0  0  0  0  0  0  0  0  0
    5.4110    0.3400    2.6350 N   0  0  0  0  0  0  0  0  0  0  0  0
    5.8230    1.2210    1.7200 C   0  0  0  0  0  0  0  0  0  0  0  0
    6.9580    1.9820    1.6190 C   0  0  0  0  0  0  0  0  0  0  0  0
    7.1800    2.8500    0.5670 C   0  0  0  0  0  0  0  0  0  0  0  0
    6.1970    2.9370   -0.4150 C   0  0  0  0  0  0  0  0  0  0  0  0
    5.0480    2.1770   -0.3290 C   0  0  0  0  0  0  0  0  0  0  0  0
    4.8600    1.3130    0.7450 C   0  0  0  0  0  0  0  0  0  0  0  0
    1.3530   -1.0120   -1.4450 C   0  0  0  0  0  0  0  0  0  0  0  0
    1.1840   -0.8610   -2.6620 O   0  0  0  0  0  0  0  0  0  0  0  0
    4.5480   -0.6850   -1.7190 H   0  0  0  0  0  0  0  0  0  0  0  0
    3.2140   -0.6380   -2.7850 H   0  0  0  0  0  0  0  0  0  0  0  0
    3.1040   -1.6920   -0.4540 H   0  0  0  0  0  0  0  0  0  0  0  0
    2.1900    1.2050   -0.0180 H   0  0  0  0  0  0  0  0  0  0  0  0
    1.7570   -0.1670    1.0110 H   0  0  0  0  0  0  0  0  0  0  0  0
    3.6370   -0.8620    2.8250 H   0  0  0  0  0  0  0  0  0  0  0  0
    5.9040    0.0360    3.5090 H   0  0  0  0  0  0  0  0  0  0  0  0
    7.7160    1.8970    2.4040 H   0  0  0  0  0  0  0  0  0  0  0  0
    8.0650    3.4570    0.4640 H   0  0  0  0  0  0  0  0  0  0  0  0
    6.3730    3.6150   -1.2350 H   0  0  0  0  0  0  0  0  0  0  0  0
    4.3150    2.2830   -1.1130 H   0  0  0  0  0  0  0  0  0  0  0  0
   -4.1310   -5.1790    2.4950 N   0  0  0  0  0  0  0  0  0  0  0  0
   -4.1140   -4.7590    1.1370 C   0  0  0  0  0  0  0  0  0  0  0  0
   -5.0020   -3.9310    0.7440 N   0  0  0  0  0  0  0  0  0  0  0  0
   -3.1360   -5.2510    0.2310 N   0  0  0  0  0  0  0  0  0  0  0  0
   -3.1590   -4.9410   -1.1600 C   0  0  0  0  0  0  0  0  0  0  0  0
   -2.8510   -3.4540   -1.4450 C   0  0  0  0  0  0  0  0  0  0  0  0
   -1.4970   -3.1280   -0.9250 C   0  0  0  0  0  0  0  0  0  0  0  0
   -1.0690   -1.7400   -1.1670 C   0  0  2  0  0  0  0  0  0  0  0  0
    0.2620   -1.4490   -0.6540 N   0  0  0  0  0  0  0  0  0  0  0  0
   -2.0180   -0.6640   -0.8070 C   0  0  0  0  0  0  0  0  0  0  0  0
   -3.2260   -0.6340   -1.1190 O   0  0  0  0  0  0  0  0  0  0  0  0
   -3.5320   -6.0030    2.7650 H   0  0  0  0  0  0  0  0  0  0  0  0
   -4.7000   -4.7150    3.2260 H   0  0  0  0  0  0  0  0  0  0  0  0
   -5.7370   -3.5480    1.3690 H   0  0  0  0  0  0  0  0  0  0  0  0
   -2.3880   -5.8590    0.6380 H   0  0  0  0  0  0  0  0  0  0  0  0
   -2.3470   -5.5020   -1.6660 H   0  0  0  0  0  0  0  0  0  0  0  0
   -4.1050   -5.2110   -1.6720 H   0  0  0  0  0  0  0  0  0  0  0  0
   -2.9200   -3.3510   -2.5460 H   0  0  0  0  0  0  0  0  0  0  0  0
   -3.6780   -2.8370   -1.0180 H   0  0  0  0  0  0  0  0  0  0  0  0
   -1.4720   -3.4530    0.1350 H   0  0  0  0  0  0  0  0  0  0  0  0
   -0.7550   -3.7880   -1.4630 H   0  0  0  0  0  0  0  0  0  0  0  0
   -0.9590   -1.6260   -2.2910 H   0  0  0  0  0  0  0  0  0  0  0  0
    0.4510   -1.5650    0.3670 H   0  0  0  0  0  0  0  0  0  0  0  0
   -4.8820   -1.2630    3.4440 C   0  0  0  0  0  0  0  0  0  0  0  0
   -4.5210    0.1200    2.3330 S   0  0  0  0  0  0  0  0  0  0  0  0
   -2.8230    0.6580    2.6630 C   0  0  0  0  0  0  0  0  0  0  0  0
   -2.4240    1.8220    1.8060 C   0  0  0  0  0  0  0  0  0  0  0  0
   -2.4710    1.5590    0.3360 C   0  0  2  0  0  0  0  0  0  0  0  0
   -1.5800    0.4790   -0.0350 N   0  0  0  0  0  0  0  0  0  0  0  0
   -2.0320    2.8100   -0.3400 C   0  0  0  0  0  0  0  0  0  0  0  0
   -2.6660    3.8700   -0.1530 O   0  0  0  0  0  0  0  0  0  0  0  0
   -0.9270    2.7820   -1.1660 O   0  0  0  0  0  0  0  0  0  0  0  0
   -4.6090   -2.2150    2.9560 H   0  0  0  0  0  0  0  0  0  0  0  0
   -4.3450   -1.1520    4.4230 H   0  0  0  0  0  0  0  0  0  0  0  0
   -5.9860   -1.3000    3.6860 H   0  0  0  0  0  0  0  0  0  0  0  0
   -2.7670    0.9140    3.7300 H   0  0  0  0  0  0  0  0  0  0  0  0
   -2.1380   -0.1900    2.4890 H   0  0  0  0  0  0  0  0  0  0  0  0
   -3.1510    2.6640    2.0040 H   0  0  0  0  0  0  0  0  0  0  0  0
   -1.4410    2.2180    2.0910 H   0  0  0  0  0  0  0  0  0  0  0  0
   -3.5150    1.3460   -0.0050 H   0  0  0  0  0  0  0  0  0  0  0  0
   -0.5910    0.5260    0.2630 H   0  0  0  0  0  0  0  0  0  0  0  0
  1 15  1  0  0  0  0
  1  2  1  0  0  0  0
  2 17  1  1  0  0  0
  2  3  1  0  0  0  0
  3 19  1  0  0  0  0
  3  4  1  0  0  0  0
  4  5  2  0  0  0  0
  5  6  1  0  0  0  0
  5 20  1  0  0  0  0
  6 21  1  0  0  0  0
  7  6  1  0  0  0  0
  8  7  1  0  0  0  0
  8 22  1  0  0  0  0
  9  8  2  0  0  0  0
 10 11  2  0  0  0  0
 10  9  1  0  0  0  0
 11 12  1  0  0  0  0
 12  4  1  0  0  0  0
 12  7  2  0  0  0  0
 13  2  1  0  0  0  0
 13 34  1  0  0  0  0
 14 13  2  0  0  0  0
 16  1  1  0  0  0  0
 18  3  1  0  0  0  0
 23  9  1  0  0  0  0
 24 10  1  0  0  0  0
 25 11  1  0  0  0  0
 26 37  1  0  0  0  0
 26 38  1  0  0  0  0
 27 26  1  0  0  0  0
 28 27  2  0  0  0  0
 28 39  1  0  0  0  0
 29 40  1  0  0  0  0
 29 27  1  0  0  0  0
 30 29  1  0  0  0  0
 31 30  1  0  0  0  0
 31 44  1  0  0  0  0
 31 32  1  0  0  0  0
 32 45  1  0  0  0  0
 33 47  1  6  0  0  0
 33 32  1  0  0  0  0
 33 35  1  0  0  0  0
 33 34  1  0  0  0  0
 34 48  1  0  0  0  0
 35 54  1  0  0  0  0
 36 35  2  0  0  0  0
 41 30  1  0  0  0  0
 42 30  1  0  0  0  0
 43 31  1  0  0  0  0
 46 32  1  0  0  0  0
 49 60  1  0  0  0  0
 49 59  1  0  0  0  0
 50 51  1  0  0  0  0
 50 49  1  0  0  0  0
 51 61  1  0  0  0  0
 52 63  1  0  0  0  0
 52 64  1  0  0  0  0
 52 51  1  0  0  0  0
 53 65  1  6  0  0  0
 53 52  1  0  0  0  0
 54 66  1  0  0  0  0
 54 53  1  0  0  0  0
 55 56  1  0  0  0  0
 55 53  1  0  0  0  0
 57 55  2  0  0  0  0
 58 49  1  0  0  0  0
 62 51  1  0  0  0  0
M  END
$$$$
