WRP.pdb
 OpenBabel07022419153D

 63 65  0  0  1  0  0  0  0  0999 V2000
   -0.5730    4.0230    0.6330 N   0  0  0  0  0  0  0  0  0  0  0  0
    0.1300    2.6980    0.4670 C   0  0  1  0  0  0  0  0  0  0  0  0
    1.3950    2.9100    1.2430 C   0  0  0  0  0  0  0  0  0  0  0  0
    2.3530    1.8310    1.3100 C   0  0  0  0  0  0  0  0  0  0  0  0
    2.6050    1.0160    2.4230 C   0  0  0  0  0  0  0  0  0  0  0  0
    3.5850    0.1600    2.1000 N   0  0  0  0  0  0  0  0  0  0  0  0
    3.9950    0.3570    0.8460 C   0  0  0  0  0  0  0  0  0  0  0  0
    4.9550   -0.2310    0.0330 C   0  0  0  0  0  0  0  0  0  0  0  0
    5.1780    0.1810   -1.2540 C   0  0  0  0  0  0  0  0  0  0  0  0
    4.3920    1.2250   -1.7170 C   0  0  0  0  0  0  0  0  0  0  0  0
    3.4300    1.8430   -0.9620 C   0  0  0  0  0  0  0  0  0  0  0  0
    3.2410    1.3910    0.3370 C   0  0  0  0  0  0  0  0  0  0  0  0
   -0.8010    1.7190    1.0630 C   0  0  0  0  0  0  0  0  0  0  0  0
   -1.5600    2.0320    2.0470 O   0  0  0  0  0  0  0  0  0  0  0  0
   -0.2470    4.6630   -0.1280 H   0  0  0  0  0  0  0  0  0  0  0  0
   -1.5930    3.8580    0.6150 H   0  0  0  0  0  0  0  0  0  0  0  0
    0.2850    2.5720   -0.6150 H   0  0  0  0  0  0  0  0  0  0  0  0
    1.0830    3.2030    2.2940 H   0  0  0  0  0  0  0  0  0  0  0  0
    1.9330    3.8370    0.8800 H   0  0  0  0  0  0  0  0  0  0  0  0
    2.0770    1.0940    3.3680 H   0  0  0  0  0  0  0  0  0  0  0  0
    3.9650   -0.5550    2.7550 H   0  0  0  0  0  0  0  0  0  0  0  0
    5.5470   -1.0520    0.4540 H   0  0  0  0  0  0  0  0  0  0  0  0
    5.9220   -0.2600   -1.9100 H   0  0  0  0  0  0  0  0  0  0  0  0
    4.5520    1.5720   -2.7440 H   0  0  0  0  0  0  0  0  0  0  0  0
    2.8250    2.6710   -1.3670 H   0  0  0  0  0  0  0  0  0  0  0  0
   -6.0700   -3.0480    0.8500 N   0  0  0  0  0  0  0  0  0  0  0  0
   -5.8280   -2.0330   -0.0780 C   0  0  0  0  0  0  0  0  0  0  0  0
   -6.2980   -0.8400    0.1630 N   0  0  0  0  0  0  0  0  0  0  0  0
   -5.1020   -2.1890   -1.2830 N   0  0  0  0  0  0  0  0  0  0  0  0
   -4.1580   -1.2330   -1.7900 C   0  0  0  0  0  0  0  0  0  0  0  0
   -2.8820   -1.1110   -1.0130 C   0  0  0  0  0  0  0  0  0  0  0  0
   -3.1570   -0.6730    0.3910 C   0  0  0  0  0  0  0  0  0  0  0  0
   -1.8410   -0.5510    1.1760 C   0  0  2  0  0  0  0  0  0  0  0  0
   -0.9490    0.3780    0.6120 N   0  0  0  0  0  0  0  0  0  0  0  0
   -1.3910   -1.9130    1.3830 C   0  0  0  0  0  0  0  0  0  0  0  0
   -2.3220   -2.6910    1.8810 O   0  0  0  0  0  0  0  0  0  0  0  0
   -5.5100   -3.0190    1.7520 H   0  0  0  0  0  0  0  0  0  0  0  0
   -6.7510   -3.8390    0.7490 H   0  0  0  0  0  0  0  0  0  0  0  0
   -6.8440   -0.6300    1.0210 H   0  0  0  0  0  0  0  0  0  0  0  0
   -5.3120   -3.1020   -1.8020 H   0  0  0  0  0  0  0  0  0  0  0  0
   -3.9540   -1.5250   -2.8640 H   0  0  0  0  0  0  0  0  0  0  0  0
   -4.6680   -0.2320   -1.9070 H   0  0  0  0  0  0  0  0  0  0  0  0
   -2.4880   -2.1710   -0.9240 H   0  0  0  0  0  0  0  0  0  0  0  0
   -2.1300   -0.4800   -1.5300 H   0  0  0  0  0  0  0  0  0  0  0  0
   -3.6880   -1.5020    0.8980 H   0  0  0  0  0  0  0  0  0  0  0  0
   -3.7670    0.2200    0.4900 H   0  0  0  0  0  0  0  0  0  0  0  0
   -2.2010   -0.0990    2.1560 H   0  0  0  0  0  0  0  0  0  0  0  0
   -0.3690    0.0890   -0.2000 H   0  0  0  0  0  0  0  0  0  0  0  0
   -0.1580   -2.5460    1.1480 N   0  0  0  0  0  0  0  0  0  0  0  0
   -0.0160   -4.0000    1.4200 C   0  0  0  0  0  0  0  0  0  0  0  0
    1.3010   -3.9810    2.1830 C   0  0  0  0  0  0  0  0  0  0  0  0
    2.1250   -2.9960    1.3440 C   0  0  0  0  0  0  0  0  0  0  0  0
    1.1180   -2.1300    0.6710 C   0  0  1  0  0  0  0  0  0  0  0  0
    1.2530   -2.3710   -0.8140 C   0  0  0  0  0  0  0  0  0  0  0  0
    0.2780   -2.8620   -1.4470 O   0  0  0  0  0  0  0  0  0  0  0  0
    2.4000   -2.0790   -1.5200 O   0  0  0  0  0  0  0  0  0  0  0  0
   -0.8390   -4.4040    2.0000 H   0  0  0  0  0  0  0  0  0  0  0  0
    0.1450   -4.4560    0.4250 H   0  0  0  0  0  0  0  0  0  0  0  0
    1.8220   -4.9530    2.1630 H   0  0  0  0  0  0  0  0  0  0  0  0
    1.1130   -3.5610    3.1690 H   0  0  0  0  0  0  0  0  0  0  0  0
    2.8510   -2.5110    1.9870 H   0  0  0  0  0  0  0  0  0  0  0  0
    2.7390   -3.5800    0.5940 H   0  0  0  0  0  0  0  0  0  0  0  0
    1.3450   -1.0450    0.8000 H   0  0  0  0  0  0  0  0  0  0  0  0
  2 17  1  6  0  0  0
  2  1  1  0  0  0  0
  2 13  1  0  0  0  0
  2  3  1  0  0  0  0
  3  4  1  0  0  0  0
  3 18  1  0  0  0  0
  4  5  2  0  0  0  0
  5 20  1  0  0  0  0
  6  5  1  0  0  0  0
  6 21  1  0  0  0  0
  7  6  1  0  0  0  0
  8 22  1  0  0  0  0
  8  7  2  0  0  0  0
  9  8  1  0  0  0  0
 10  9  2  0  0  0  0
 10 11  1  0  0  0  0
 11 12  2  0  0  0  0
 12  7  1  0  0  0  0
 12  4  1  0  0  0  0
 13 14  2  0  0  0  0
 15  1  1  0  0  0  0
 16  1  1  0  0  0  0
 19  3  1  0  0  0  0
 23  9  1  0  0  0  0
 24 10  1  0  0  0  0
 25 11  1  0  0  0  0
 26 37  1  0  0  0  0
 27 28  2  0  0  0  0
 27 26  1  0  0  0  0
 28 39  1  0  0  0  0
 29 27  1  0  0  0  0
 30 29  1  0  0  0  0
 30 31  1  0  0  0  0
 31 43  1  0  0  0  0
 31 32  1  0  0  0  0
 32 46  1  0  0  0  0
 32 45  1  0  0  0  0
 32 33  1  0  0  0  0
 33 35  1  0  0  0  0
 33 47  1  1  0  0  0
 34 13  1  0  0  0  0
 34 33  1  0  0  0  0
 35 36  2  0  0  0  0
 38 26  1  0  0  0  0
 40 29  1  0  0  0  0
 41 30  1  0  0  0  0
 42 30  1  0  0  0  0
 44 31  1  0  0  0  0
 48 34  1  0  0  0  0
 49 35  1  0  0  0  0
 49 50  1  0  0  0  0
 50 57  1  0  0  0  0
 50 51  1  0  0  0  0
 51 60  1  0  0  0  0
 52 61  1  0  0  0  0
 52 51  1  0  0  0  0
 53 63  1  1  0  0  0
 53 49  1  0  0  0  0
 53 52  1  0  0  0  0
 54 53  1  0  0  0  0
 55 54  1  0  0  0  0
 56 54  2  0  0  0  0
 58 50  1  0  0  0  0
 59 51  1  0  0  0  0
 62 52  1  0  0  0  0
M  END
$$$$
