WRQ.pdb
 OpenBabel07022419153D

 66 67  0  0  1  0  0  0  0  0999 V2000
    0.3640    1.5000    4.3590 N   0  0  0  0  0  0  0  0  0  0  0  0
    1.6430    1.2820    3.6340 C   0  0  1  0  0  0  0  0  0  0  0  0
    2.4120    0.3390    4.5000 C   0  0  0  0  0  0  0  0  0  0  0  0
    3.7290   -0.0600    4.0070 C   0  0  0  0  0  0  0  0  0  0  0  0
    4.9290    0.5740    4.3220 C   0  0  0  0  0  0  0  0  0  0  0  0
    5.8970   -0.0560    3.6510 N   0  0  0  0  0  0  0  0  0  0  0  0
    5.3870   -1.0640    2.9210 C   0  0  0  0  0  0  0  0  0  0  0  0
    6.0000   -1.9910    2.0890 C   0  0  0  0  0  0  0  0  0  0  0  0
    5.2600   -2.9480    1.4600 C   0  0  0  0  0  0  0  0  0  0  0  0
    3.9050   -2.9610    1.6770 C   0  0  0  0  0  0  0  0  0  0  0  0
    3.2990   -2.0510    2.4930 C   0  0  0  0  0  0  0  0  0  0  0  0
    4.0360   -1.0660    3.1440 C   0  0  0  0  0  0  0  0  0  0  0  0
    1.3070    0.7190    2.3310 C   0  0  0  0  0  0  0  0  0  0  0  0
    2.1240    0.6040    1.3740 O   0  0  0  0  0  0  0  0  0  0  0  0
   -0.0080    0.5740    4.6770 H   0  0  0  0  0  0  0  0  0  0  0  0
   -0.3100    1.9920    3.7490 H   0  0  0  0  0  0  0  0  0  0  0  0
    2.1490    2.2770    3.5600 H   0  0  0  0  0  0  0  0  0  0  0  0
    1.7950   -0.6030    4.6270 H   0  0  0  0  0  0  0  0  0  0  0  0
    2.5540    0.7430    5.5390 H   0  0  0  0  0  0  0  0  0  0  0  0
    5.0610    1.4260    4.9900 H   0  0  0  0  0  0  0  0  0  0  0  0
    6.9200    0.1910    3.6800 H   0  0  0  0  0  0  0  0  0  0  0  0
    7.0700   -1.9870    1.9130 H   0  0  0  0  0  0  0  0  0  0  0  0
    5.6730   -3.6960    0.8020 H   0  0  0  0  0  0  0  0  0  0  0  0
    3.3060   -3.7170    1.1830 H   0  0  0  0  0  0  0  0  0  0  0  0
    2.2390   -2.0510    2.6720 H   0  0  0  0  0  0  0  0  0  0  0  0
   -4.7150   -3.1900    1.7860 N   0  0  0  0  0  0  0  0  0  0  0  0
   -3.7930   -3.6100    0.7920 C   0  0  0  0  0  0  0  0  0  0  0  0
   -4.1810   -3.6560   -0.4340 N   0  0  0  0  0  0  0  0  0  0  0  0
   -2.4650   -3.9740    1.1430 N   0  0  0  0  0  0  0  0  0  0  0  0
   -1.4040   -3.9430    0.1740 C   0  0  0  0  0  0  0  0  0  0  0  0
   -1.1230   -2.4770   -0.2000 C   0  0  0  0  0  0  0  0  0  0  0  0
   -0.7160   -1.7570    1.0450 C   0  0  0  0  0  0  0  0  0  0  0  0
   -0.3660   -0.3210    0.7390 C   0  0  2  0  0  0  0  0  0  0  0  0
   -0.0070    0.2470    2.0420 N   0  0  0  0  0  0  0  0  0  0  0  0
   -1.4360    0.4220    0.0980 C   0  0  0  0  0  0  0  0  0  0  0  0
   -2.0570    1.3050    0.7890 O   0  0  0  0  0  0  0  0  0  0  0  0
   -5.2480   -2.2930    1.6140 H   0  0  0  0  0  0  0  0  0  0  0  0
   -4.8640   -3.7480    2.6640 H   0  0  0  0  0  0  0  0  0  0  0  0
   -3.5300   -3.9590   -1.1880 H   0  0  0  0  0  0  0  0  0  0  0  0
   -2.2980   -4.2680    2.1480 H   0  0  0  0  0  0  0  0  0  0  0  0
   -1.6350   -4.5440   -0.7140 H   0  0  0  0  0  0  0  0  0  0  0  0
   -0.4620   -4.3600    0.5980 H   0  0  0  0  0  0  0  0  0  0  0  0
   -2.1340   -2.1100   -0.5640 H   0  0  0  0  0  0  0  0  0  0  0  0
   -0.4260   -2.4210   -1.0420 H   0  0  0  0  0  0  0  0  0  0  0  0
   -1.6140   -1.7350    1.7120 H   0  0  0  0  0  0  0  0  0  0  0  0
    0.1430   -2.2410    1.5590 H   0  0  0  0  0  0  0  0  0  0  0  0
    0.5810   -0.3440    0.1520 H   0  0  0  0  0  0  0  0  0  0  0  0
   -0.7740    0.2830    2.7400 H   0  0  0  0  0  0  0  0  0  0  0  0
   -0.7420    1.2410   -6.2620 N   0  0  0  0  0  0  0  0  0  0  0  0
   -1.3060    1.8500   -5.1070 C   0  0  0  0  0  0  0  0  0  0  0  0
   -1.3280    3.1010   -5.0570 O   0  0  0  0  0  0  0  0  0  0  0  0
   -1.8410    0.9780   -4.0180 C   0  0  0  0  0  0  0  0  0  0  0  0
   -2.3950    1.8740   -2.9430 C   0  0  0  0  0  0  0  0  0  0  0  0
   -2.9710    1.0890   -1.7830 C   0  0  2  0  0  0  0  0  0  0  0  0
   -1.8830    0.2900   -1.2280 N   0  0  0  0  0  0  0  0  0  0  0  0
   -4.1270    0.2850   -2.1880 C   0  0  0  0  0  0  0  0  0  0  0  0
   -4.1230   -0.9510   -2.0450 O   0  0  0  0  0  0  0  0  0  0  0  0
   -5.2330    0.8980   -2.7340 O   0  0  0  0  0  0  0  0  0  0  0  0
   -0.2370    0.3220   -6.2500 H   0  0  0  0  0  0  0  0  0  0  0  0
   -0.7970    1.6830   -7.2260 H   0  0  0  0  0  0  0  0  0  0  0  0
   -2.6400    0.3540   -4.4940 H   0  0  0  0  0  0  0  0  0  0  0  0
   -1.0030    0.3450   -3.7070 H   0  0  0  0  0  0  0  0  0  0  0  0
   -1.5450    2.4950   -2.5760 H   0  0  0  0  0  0  0  0  0  0  0  0
   -3.1800    2.5030   -3.4030 H   0  0  0  0  0  0  0  0  0  0  0  0
   -3.3460    1.8280   -1.0330 H   0  0  0  0  0  0  0  0  0  0  0  0
   -1.4290   -0.3760   -1.8550 H   0  0  0  0  0  0  0  0  0  0  0  0
  1 15  1  0  0  0  0
  2 17  1  6  0  0  0
  2  1  1  0  0  0  0
  2  3  1  0  0  0  0
  3 18  1  0  0  0  0
  3 19  1  0  0  0  0
  4  5  2  0  0  0  0
  4  3  1  0  0  0  0
  5 20  1  0  0  0  0
  6 21  1  0  0  0  0
  6  5  1  0  0  0  0
  7 12  1  0  0  0  0
  7  6  1  0  0  0  0
  8  7  2  0  0  0  0
  9 10  2  0  0  0  0
  9  8  1  0  0  0  0
 10 11  1  0  0  0  0
 11 25  1  0  0  0  0
 11 12  2  0  0  0  0
 12  4  1  0  0  0  0
 13  2  1  0  0  0  0
 14 13  2  0  0  0  0
 16  1  1  0  0  0  0
 22  8  1  0  0  0  0
 23  9  1  0  0  0  0
 24 10  1  0  0  0  0
 26 38  1  0  0  0  0
 27 29  1  0  0  0  0
 27 26  1  0  0  0  0
 28 27  2  0  0  0  0
 29 40  1  0  0  0  0
 30 42  1  0  0  0  0
 30 29  1  0  0  0  0
 31 30  1  0  0  0  0
 31 32  1  0  0  0  0
 32 46  1  0  0  0  0
 32 45  1  0  0  0  0
 33 47  1  6  0  0  0
 33 32  1  0  0  0  0
 33 34  1  0  0  0  0
 34 13  1  0  0  0  0
 34 48  1  0  0  0  0
 35 33  1  0  0  0  0
 35 36  2  0  0  0  0
 37 26  1  0  0  0  0
 39 28  1  0  0  0  0
 41 30  1  0  0  0  0
 43 31  1  0  0  0  0
 44 31  1  0  0  0  0
 49 59  1  0  0  0  0
 49 50  1  0  0  0  0
 50 51  2  0  0  0  0
 50 52  1  0  0  0  0
 52 62  1  0  0  0  0
 52 53  1  0  0  0  0
 53 63  1  0  0  0  0
 53 54  1  0  0  0  0
 54 55  1  0  0  0  0
 54 65  1  1  0  0  0
 55 35  1  0  0  0  0
 56 57  1  0  0  0  0
 56 54  1  0  0  0  0
 58 56  2  0  0  0  0
 60 49  1  0  0  0  0
 61 52  1  0  0  0  0
 64 53  1  0  0  0  0
 66 55  1  0  0  0  0
M  END
$$$$
