WRS.pdb
 OpenBabel07022419153D

 60 61  0  0  1  0  0  0  0  0999 V2000
    2.8330   -1.3420    0.7870 N   0  0  0  0  0  0  0  0  0  0  0  0
    2.1400   -1.0800    2.0250 C   0  0  1  0  0  0  0  0  0  0  0  0
    2.4910    0.2070    2.6910 C   0  0  0  0  0  0  0  0  0  0  0  0
    2.2310    1.4150    1.8990 C   0  0  0  0  0  0  0  0  0  0  0  0
    1.1300    2.2740    2.0110 C   0  0  0  0  0  0  0  0  0  0  0  0
    1.2510    3.2360    1.1120 N   0  0  0  0  0  0  0  0  0  0  0  0
    2.3840    3.0840    0.3830 C   0  0  0  0  0  0  0  0  0  0  0  0
    2.9140    3.8390   -0.6450 C   0  0  0  0  0  0  0  0  0  0  0  0
    4.1060    3.4600   -1.2180 C   0  0  0  0  0  0  0  0  0  0  0  0
    4.7100    2.3250   -0.7210 C   0  0  0  0  0  0  0  0  0  0  0  0
    4.1800    1.5720    0.3040 C   0  0  0  0  0  0  0  0  0  0  0  0
    2.9960    1.9380    0.8820 C   0  0  0  0  0  0  0  0  0  0  0  0
    0.6880   -1.2330    1.7810 C   0  0  0  0  0  0  0  0  0  0  0  0
   -0.1780   -1.0290    2.6920 O   0  0  0  0  0  0  0  0  0  0  0  0
    2.7650   -2.3660    0.5950 H   0  0  0  0  0  0  0  0  0  0  0  0
    2.4990   -0.7520    0.0200 H   0  0  0  0  0  0  0  0  0  0  0  0
    2.4190   -1.9520    2.6960 H   0  0  0  0  0  0  0  0  0  0  0  0
    3.5940    0.1920    2.8950 H   0  0  0  0  0  0  0  0  0  0  0  0
    2.0120    0.2710    3.6810 H   0  0  0  0  0  0  0  0  0  0  0  0
    0.3350    2.1080    2.7510 H   0  0  0  0  0  0  0  0  0  0  0  0
    0.5640    4.0170    0.9750 H   0  0  0  0  0  0  0  0  0  0  0  0
    2.3840    4.7150   -0.9810 H   0  0  0  0  0  0  0  0  0  0  0  0
    4.5660    4.0220   -2.0310 H   0  0  0  0  0  0  0  0  0  0  0  0
    5.6570    2.0340   -1.1840 H   0  0  0  0  0  0  0  0  0  0  0  0
    4.6990    0.6950    0.6580 H   0  0  0  0  0  0  0  0  0  0  0  0
   -4.1930    2.6440    2.3430 N   0  0  0  0  0  0  0  0  0  0  0  0
   -4.4480    1.3470    1.7980 C   0  0  0  0  0  0  0  0  0  0  0  0
   -5.3430    0.5730    2.3080 N   0  0  0  0  0  0  0  0  0  0  0  0
   -3.7130    0.8720    0.6670 N   0  0  0  0  0  0  0  0  0  0  0  0
   -4.0090   -0.4420    0.1120 C   0  0  0  0  0  0  0  0  0  0  0  0
   -3.1320   -0.7530   -1.0660 C   0  0  0  0  0  0  0  0  0  0  0  0
   -1.6720   -0.7530   -0.7300 C   0  0  0  0  0  0  0  0  0  0  0  0
   -1.2920   -1.7590    0.3190 C   0  0  2  0  0  0  0  0  0  0  0  0
    0.1560   -1.6190    0.5200 N   0  0  0  0  0  0  0  0  0  0  0  0
   -1.6300   -3.1550   -0.0750 C   0  0  0  0  0  0  0  0  0  0  0  0
   -2.8120   -3.5140   -0.3030 O   0  0  0  0  0  0  0  0  0  0  0  0
   -3.2540    3.0810    2.3360 H   0  0  0  0  0  0  0  0  0  0  0  0
   -4.9800    3.1660    2.7620 H   0  0  0  0  0  0  0  0  0  0  0  0
   -5.5200   -0.3540    1.9120 H   0  0  0  0  0  0  0  0  0  0  0  0
   -2.9790    1.4780    0.2630 H   0  0  0  0  0  0  0  0  0  0  0  0
   -5.0600   -0.4030   -0.2510 H   0  0  0  0  0  0  0  0  0  0  0  0
   -3.9740   -1.2140    0.8960 H   0  0  0  0  0  0  0  0  0  0  0  0
   -3.4810   -1.6590   -1.5550 H   0  0  0  0  0  0  0  0  0  0  0  0
   -3.2850    0.0830   -1.8030 H   0  0  0  0  0  0  0  0  0  0  0  0
   -1.1250   -0.9870   -1.6830 H   0  0  0  0  0  0  0  0  0  0  0  0
   -1.3320    0.2350   -0.4180 H   0  0  0  0  0  0  0  0  0  0  0  0
   -1.7970   -1.5130    1.2660 H   0  0  0  0  0  0  0  0  0  0  0  0
    0.8010   -1.8080   -0.2840 H   0  0  0  0  0  0  0  0  0  0  0  0
   -0.5520   -4.8420   -2.8750 O   0  0  0  0  0  0  0  0  0  0  0  0
   -0.0380   -5.6570   -1.8960 C   0  0  0  0  0  0  0  0  0  0  0  0
   -0.7690   -5.4740   -0.5640 C   0  0  2  0  0  0  0  0  0  0  0  0
   -0.5960   -4.0910   -0.1930 N   0  0  0  0  0  0  0  0  0  0  0  0
   -0.2620   -6.4130    0.4380 C   0  0  0  0  0  0  0  0  0  0  0  0
   -0.3490   -7.6500    0.2390 O   0  0  0  0  0  0  0  0  0  0  0  0
    0.3260   -6.0080    1.6290 O   0  0  0  0  0  0  0  0  0  0  0  0
    0.1160   -4.5350   -3.5410 H   0  0  0  0  0  0  0  0  0  0  0  0
    1.0290   -5.3330   -1.7130 H   0  0  0  0  0  0  0  0  0  0  0  0
    0.0200   -6.7170   -2.1640 H   0  0  0  0  0  0  0  0  0  0  0  0
   -1.8330   -5.7270   -0.7540 H   0  0  0  0  0  0  0  0  0  0  0  0
    0.3940   -3.7850    0.0000 H   0  0  0  0  0  0  0  0  0  0  0  0
  1  2  1  0  0  0  0
  2  3  1  0  0  0  0
  2 17  1  1  0  0  0
  3 18  1  0  0  0  0
  3 19  1  0  0  0  0
  4  5  2  0  0  0  0
  4  3  1  0  0  0  0
  5 20  1  0  0  0  0
  6  5  1  0  0  0  0
  7 12  1  0  0  0  0
  7  6  1  0  0  0  0
  8  7  2  0  0  0  0
  9 10  2  0  0  0  0
  9  8  1  0  0  0  0
 10 11  1  0  0  0  0
 11 25  1  0  0  0  0
 11 12  2  0  0  0  0
 12  4  1  0  0  0  0
 13  2  1  0  0  0  0
 13 14  2  0  0  0  0
 15  1  1  0  0  0  0
 16  1  1  0  0  0  0
 21  6  1  0  0  0  0
 22  8  1  0  0  0  0
 23  9  1  0  0  0  0
 24 10  1  0  0  0  0
 26 38  1  0  0  0  0
 27 28  2  0  0  0  0
 27 26  1  0  0  0  0
 29 27  1  0  0  0  0
 30 29  1  0  0  0  0
 30 42  1  0  0  0  0
 31 32  1  0  0  0  0
 31 30  1  0  0  0  0
 32 46  1  0  0  0  0
 32 33  1  0  0  0  0
 33 34  1  0  0  0  0
 33 47  1  1  0  0  0
 34 13  1  0  0  0  0
 35 33  1  0  0  0  0
 36 35  2  0  0  0  0
 37 26  1  0  0  0  0
 39 28  1  0  0  0  0
 40 29  1  0  0  0  0
 41 30  1  0  0  0  0
 43 31  1  0  0  0  0
 44 31  1  0  0  0  0
 45 32  1  0  0  0  0
 48 34  1  0  0  0  0
 49 50  1  0  0  0  0
 50 57  1  0  0  0  0
 50 51  1  0  0  0  0
 51 59  1  6  0  0  0
 51 52  1  0  0  0  0
 51 53  1  0  0  0  0
 52 35  1  0  0  0  0
 52 60  1  0  0  0  0
 53 55  1  0  0  0  0
 54 53  2  0  0  0  0
 56 49  1  0  0  0  0
 58 50  1  0  0  0  0
M  END
$$$$
