WRT.pdb
 OpenBabel07022419153D

 63 64  0  0  1  0  0  0  0  0999 V2000
    1.3330    1.4980    3.4480 N   0  0  0  0  0  0  0  0  0  0  0  0
    0.3290    2.3380    2.7810 C   0  0  1  0  0  0  0  0  0  0  0  0
    0.9300    3.6210    2.3140 C   0  0  0  0  0  0  0  0  0  0  0  0
    2.0380    3.5300    1.3830 C   0  0  0  0  0  0  0  0  0  0  0  0
    3.3900    3.6300    1.7510 C   0  0  0  0  0  0  0  0  0  0  0  0
    4.1500    3.4770    0.6630 N   0  0  0  0  0  0  0  0  0  0  0  0
    3.3590    3.2810   -0.4170 C   0  0  0  0  0  0  0  0  0  0  0  0
    3.6920    3.0850   -1.7460 C   0  0  0  0  0  0  0  0  0  0  0  0
    2.6940    2.9120   -2.6860 C   0  0  0  0  0  0  0  0  0  0  0  0
    1.4060    2.9460   -2.2500 C   0  0  0  0  0  0  0  0  0  0  0  0
    1.0630    3.1400   -0.9350 C   0  0  0  0  0  0  0  0  0  0  0  0
    2.0490    3.3160    0.0350 C   0  0  0  0  0  0  0  0  0  0  0  0
   -0.4190    1.5590    1.7980 C   0  0  0  0  0  0  0  0  0  0  0  0
   -1.4770    1.9940    1.2490 O   0  0  0  0  0  0  0  0  0  0  0  0
    1.5920    2.0280    4.3250 H   0  0  0  0  0  0  0  0  0  0  0  0
    2.1810    1.5360    2.8360 H   0  0  0  0  0  0  0  0  0  0  0  0
   -0.3910    2.6300    3.6120 H   0  0  0  0  0  0  0  0  0  0  0  0
    1.1970    4.1910    3.2560 H   0  0  0  0  0  0  0  0  0  0  0  0
    0.0720    4.2120    1.8690 H   0  0  0  0  0  0  0  0  0  0  0  0
    3.7910    3.8000    2.7400 H   0  0  0  0  0  0  0  0  0  0  0  0
    5.2070    3.5000    0.6150 H   0  0  0  0  0  0  0  0  0  0  0  0
    4.7430    3.0630   -2.0710 H   0  0  0  0  0  0  0  0  0  0  0  0
    2.9460    2.7560   -3.7340 H   0  0  0  0  0  0  0  0  0  0  0  0
    0.5920    2.8140   -2.9680 H   0  0  0  0  0  0  0  0  0  0  0  0
    0.0470    3.1760   -0.5860 H   0  0  0  0  0  0  0  0  0  0  0  0
   -4.5960   -2.2860   -1.2180 N   0  0  0  0  0  0  0  0  0  0  0  0
   -3.4590   -2.1890   -2.0670 C   0  0  0  0  0  0  0  0  0  0  0  0
   -3.4920   -1.4970   -3.1380 N   0  0  0  0  0  0  0  0  0  0  0  0
   -2.2820   -2.9040   -1.6580 N   0  0  0  0  0  0  0  0  0  0  0  0
   -1.0100   -2.6280   -2.2190 C   0  0  0  0  0  0  0  0  0  0  0  0
   -0.3610   -1.3600   -1.9960 C   0  0  0  0  0  0  0  0  0  0  0  0
    0.1180   -0.7690   -0.7460 C   0  0  0  0  0  0  0  0  0  0  0  0
   -0.7160   -0.5630    0.4210 C   0  0  2  0  0  0  0  0  0  0  0  0
    0.0390    0.2830    1.4390 N   0  0  0  0  0  0  0  0  0  0  0  0
   -1.0990   -1.6790    1.3000 C   0  0  0  0  0  0  0  0  0  0  0  0
   -1.6740   -1.2690    2.3910 O   0  0  0  0  0  0  0  0  0  0  0  0
   -4.6870   -1.7780   -0.3150 H   0  0  0  0  0  0  0  0  0  0  0  0
   -5.3890   -2.8970   -1.5050 H   0  0  0  0  0  0  0  0  0  0  0  0
   -4.3630   -0.9920   -3.3990 H   0  0  0  0  0  0  0  0  0  0  0  0
   -2.4170   -3.6420   -0.9560 H   0  0  0  0  0  0  0  0  0  0  0  0
   -0.3090   -3.4680   -1.9730 H   0  0  0  0  0  0  0  0  0  0  0  0
   -1.1260   -2.7400   -3.3580 H   0  0  0  0  0  0  0  0  0  0  0  0
   -0.9200   -0.5030   -2.5480 H   0  0  0  0  0  0  0  0  0  0  0  0
    0.5950   -1.3910   -2.6770 H   0  0  0  0  0  0  0  0  0  0  0  0
    0.4760    0.2880   -1.0490 H   0  0  0  0  0  0  0  0  0  0  0  0
    1.1490   -1.2060   -0.4730 H   0  0  0  0  0  0  0  0  0  0  0  0
   -1.6010    0.0370    0.1980 H   0  0  0  0  0  0  0  0  0  0  0  0
    0.8930   -0.1350    1.8420 H   0  0  0  0  0  0  0  0  0  0  0  0
   -1.4100   -5.9330    0.8020 C   0  0  0  0  0  0  0  0  0  0  0  0
   -2.3010   -5.0620    1.6810 C   0  0  1  0  0  0  0  0  0  0  0  0
   -2.7270   -5.8650    2.7460 O   0  0  0  0  0  0  0  0  0  0  0  0
   -1.4490   -3.9490    2.2430 C   0  0  2  0  0  0  0  0  0  0  0  0
   -0.9560   -3.0440    1.1900 N   0  0  0  0  0  0  0  0  0  0  0  0
   -0.3020   -4.6030    2.9220 C   0  0  0  0  0  0  0  0  0  0  0  0
   -0.4920   -5.4140    3.8530 O   0  0  0  0  0  0  0  0  0  0  0  0
    0.9760   -4.3150    2.5270 O   0  0  0  0  0  0  0  0  0  0  0  0
   -1.0260   -5.3360   -0.0390 H   0  0  0  0  0  0  0  0  0  0  0  0
   -0.5760   -6.3150    1.4250 H   0  0  0  0  0  0  0  0  0  0  0  0
   -1.9960   -6.8110    0.4320 H   0  0  0  0  0  0  0  0  0  0  0  0
   -3.1380   -4.6610    1.0980 H   0  0  0  0  0  0  0  0  0  0  0  0
   -3.0000   -5.3520    3.5240 H   0  0  0  0  0  0  0  0  0  0  0  0
   -1.9820   -3.3570    3.0110 H   0  0  0  0  0  0  0  0  0  0  0  0
   -0.4760   -3.4280    0.3780 H   0  0  0  0  0  0  0  0  0  0  0  0
  1 15  1  0  0  0  0
  2  1  1  0  0  0  0
  2 17  1  1  0  0  0
  3  2  1  0  0  0  0
  3 18  1  0  0  0  0
  4  5  2  0  0  0  0
  4  3  1  0  0  0  0
  5 20  1  0  0  0  0
  6  5  1  0  0  0  0
  7 12  1  0  0  0  0
  7  6  1  0  0  0  0
  8  7  2  0  0  0  0
  9 10  2  0  0  0  0
  9  8  1  0  0  0  0
 10 11  1  0  0  0  0
 11 25  1  0  0  0  0
 11 12  2  0  0  0  0
 12  4  1  0  0  0  0
 13  2  1  0  0  0  0
 14 13  2  0  0  0  0
 16  1  1  0  0  0  0
 19  3  1  0  0  0  0
 21  6  1  0  0  0  0
 22  8  1  0  0  0  0
 23  9  1  0  0  0  0
 24 10  1  0  0  0  0
 26 37  1  0  0  0  0
 27 29  1  0  0  0  0
 27 26  1  0  0  0  0
 28 27  2  0  0  0  0
 29 40  1  0  0  0  0
 30 31  1  0  0  0  0
 30 41  1  0  0  0  0
 30 29  1  0  0  0  0
 31 32  1  0  0  0  0
 32 46  1  0  0  0  0
 32 33  1  0  0  0  0
 33 47  1  6  0  0  0
 33 35  1  0  0  0  0
 33 34  1  0  0  0  0
 34 13  1  0  0  0  0
 34 48  1  0  0  0  0
 35 36  2  0  0  0  0
 38 26  1  0  0  0  0
 39 28  1  0  0  0  0
 42 30  1  0  0  0  0
 43 31  1  0  0  0  0
 44 31  1  0  0  0  0
 45 32  1  0  0  0  0
 49 58  1  0  0  0  0
 49 50  1  0  0  0  0
 50 60  1  6  0  0  0
 50 52  1  0  0  0  0
 50 51  1  0  0  0  0
 51 61  1  0  0  0  0
 52 54  1  0  0  0  0
 52 62  1  1  0  0  0
 53 35  1  0  0  0  0
 53 52  1  0  0  0  0
 54 55  1  0  0  0  0
 56 54  2  0  0  0  0
 57 49  1  0  0  0  0
 59 49  1  0  0  0  0
 63 53  1  0  0  0  0
M  END
$$$$
