WRV.pdb
 OpenBabel07022419153D

 65 66  0  0  1  0  0  0  0  0999 V2000
    1.4780    2.3290    4.0920 N   0  0  0  0  0  0  0  0  0  0  0  0
    1.1630    2.6210    2.6830 C   0  0  1  0  0  0  0  0  0  0  0  0
    2.4050    2.8570    1.9540 C   0  0  0  0  0  0  0  0  0  0  0  0
    3.3980    1.7810    1.9300 C   0  0  0  0  0  0  0  0  0  0  0  0
    4.4220    1.6670    2.8810 C   0  0  0  0  0  0  0  0  0  0  0  0
    5.1390    0.5600    2.6120 N   0  0  0  0  0  0  0  0  0  0  0  0
    4.6460   -0.0610    1.5360 C   0  0  0  0  0  0  0  0  0  0  0  0
    5.0520   -1.1950    0.8860 C   0  0  0  0  0  0  0  0  0  0  0  0
    4.3570   -1.6030   -0.2430 C   0  0  0  0  0  0  0  0  0  0  0  0
    3.2780   -0.8620   -0.6840 C   0  0  0  0  0  0  0  0  0  0  0  0
    2.9010    0.2650   -0.0080 C   0  0  0  0  0  0  0  0  0  0  0  0
    3.5690    0.6970    1.1170 C   0  0  0  0  0  0  0  0  0  0  0  0
    0.0920    1.7840    2.1830 C   0  0  0  0  0  0  0  0  0  0  0  0
   -0.5660    1.0440    3.0340 O   0  0  0  0  0  0  0  0  0  0  0  0
    0.6490    2.0550    4.6280 H   0  0  0  0  0  0  0  0  0  0  0  0
    2.2750    1.6600    4.1590 H   0  0  0  0  0  0  0  0  0  0  0  0
    0.6750    3.6700    2.7930 H   0  0  0  0  0  0  0  0  0  0  0  0
    2.9580    3.7710    2.3570 H   0  0  0  0  0  0  0  0  0  0  0  0
    2.2080    3.1590    0.8620 H   0  0  0  0  0  0  0  0  0  0  0  0
    4.6020    2.3530    3.6910 H   0  0  0  0  0  0  0  0  0  0  0  0
    5.9720    0.2450    3.1830 H   0  0  0  0  0  0  0  0  0  0  0  0
    5.9110   -1.7540    1.2670 H   0  0  0  0  0  0  0  0  0  0  0  0
    4.6430   -2.4880   -0.7840 H   0  0  0  0  0  0  0  0  0  0  0  0
    2.7210   -1.1450   -1.5580 H   0  0  0  0  0  0  0  0  0  0  0  0
    2.0490    0.8690   -0.3380 H   0  0  0  0  0  0  0  0  0  0  0  0
   -4.7220   -2.4380    1.5850 N   0  0  0  0  0  0  0  0  0  0  0  0
   -4.9250   -1.4310    0.6250 C   0  0  0  0  0  0  0  0  0  0  0  0
   -5.8630   -0.5610    0.8030 N   0  0  0  0  0  0  0  0  0  0  0  0
   -4.0860   -1.3830   -0.5450 N   0  0  0  0  0  0  0  0  0  0  0  0
   -4.1850   -0.2090   -1.3490 C   0  0  0  0  0  0  0  0  0  0  0  0
   -3.7340    1.0470   -0.7830 C   0  0  0  0  0  0  0  0  0  0  0  0
   -2.4040    1.4780   -0.3950 C   0  0  0  0  0  0  0  0  0  0  0  0
   -1.5290    0.7800    0.5250 C   0  0  2  0  0  0  0  0  0  0  0  0
   -0.3500    1.6650    0.8690 N   0  0  0  0  0  0  0  0  0  0  0  0
   -0.8320   -0.4520    0.1570 C   0  0  0  0  0  0  0  0  0  0  0  0
    0.0980   -0.7720    1.0090 O   0  0  0  0  0  0  0  0  0  0  0  0
   -4.5780   -2.1110    2.5830 H   0  0  0  0  0  0  0  0  0  0  0  0
   -4.7090   -3.4690    1.3510 H   0  0  0  0  0  0  0  0  0  0  0  0
   -6.4680   -0.5980    1.6490 H   0  0  0  0  0  0  0  0  0  0  0  0
   -3.4840   -2.1860   -0.7610 H   0  0  0  0  0  0  0  0  0  0  0  0
   -5.2890   -0.1000   -1.6740 H   0  0  0  0  0  0  0  0  0  0  0  0
   -3.6930   -0.3780   -2.3440 H   0  0  0  0  0  0  0  0  0  0  0  0
   -4.4450    1.3430    0.1070 H   0  0  0  0  0  0  0  0  0  0  0  0
   -4.1210    1.8800   -1.5300 H   0  0  0  0  0  0  0  0  0  0  0  0
   -2.5600    2.5310    0.0880 H   0  0  0  0  0  0  0  0  0  0  0  0
   -1.8200    1.8420   -1.3310 H   0  0  0  0  0  0  0  0  0  0  0  0
   -2.0120    0.5910    1.4980 H   0  0  0  0  0  0  0  0  0  0  0  0
    0.0820    2.1530    0.0980 H   0  0  0  0  0  0  0  0  0  0  0  0
   -0.0080   -4.9790   -0.9640 C   0  0  0  0  0  0  0  0  0  0  0  0
   -0.9330   -3.7900   -0.7960 C   0  0  0  0  0  0  0  0  0  0  0  0
   -1.4130   -3.8620    0.6410 C   0  0  0  0  0  0  0  0  0  0  0  0
   -0.0970   -2.5430   -1.0340 C   0  0  2  0  0  0  0  0  0  0  0  0
   -0.9380   -1.3390   -0.8950 N   0  0  0  0  0  0  0  0  0  0  0  0
    0.4410   -2.6430   -2.4030 C   0  0  0  0  0  0  0  0  0  0  0  0
    0.1890   -1.8110   -3.3240 O   0  0  0  0  0  0  0  0  0  0  0  0
    1.2730   -3.7010   -2.7220 O   0  0  0  0  0  0  0  0  0  0  0  0
    1.0140   -4.7720   -0.6600 H   0  0  0  0  0  0  0  0  0  0  0  0
   -0.4100   -5.8160   -0.3190 H   0  0  0  0  0  0  0  0  0  0  0  0
   -0.1020   -5.4170   -2.0020 H   0  0  0  0  0  0  0  0  0  0  0  0
   -1.7940   -3.7940   -1.4580 H   0  0  0  0  0  0  0  0  0  0  0  0
   -1.9740   -4.8160    0.7390 H   0  0  0  0  0  0  0  0  0  0  0  0
   -0.5270   -3.9710    1.3370 H   0  0  0  0  0  0  0  0  0  0  0  0
   -2.0740   -3.0530    0.9430 H   0  0  0  0  0  0  0  0  0  0  0  0
    0.7460   -2.5370   -0.3240 H   0  0  0  0  0  0  0  0  0  0  0  0
   -1.6030   -1.1520   -1.6570 H   0  0  0  0  0  0  0  0  0  0  0  0
  1 16  1  0  0  0  0
  1 15  1  0  0  0  0
  2 17  1  1  0  0  0
  2  1  1  0  0  0  0
  3 18  1  0  0  0  0
  3  2  1  0  0  0  0
  4  3  1  0  0  0  0
  4  5  2  0  0  0  0
  5 20  1  0  0  0  0
  6  5  1  0  0  0  0
  6 21  1  0  0  0  0
  7  6  1  0  0  0  0
  8 22  1  0  0  0  0
  8  7  2  0  0  0  0
  9  8  1  0  0  0  0
 10  9  2  0  0  0  0
 10 11  1  0  0  0  0
 11 12  2  0  0  0  0
 12  7  1  0  0  0  0
 12  4  1  0  0  0  0
 13  2  1  0  0  0  0
 13 14  2  0  0  0  0
 19  3  1  0  0  0  0
 23  9  1  0  0  0  0
 24 10  1  0  0  0  0
 25 11  1  0  0  0  0
 26 37  1  0  0  0  0
 27 28  2  0  0  0  0
 27 26  1  0  0  0  0
 28 39  1  0  0  0  0
 29 27  1  0  0  0  0
 30 31  1  0  0  0  0
 30 29  1  0  0  0  0
 31 32  1  0  0  0  0
 31 43  1  0  0  0  0
 32 45  1  0  0  0  0
 32 33  1  0  0  0  0
 33 34  1  0  0  0  0
 33 47  1  1  0  0  0
 34 13  1  0  0  0  0
 35 33  1  0  0  0  0
 35 36  2  0  0  0  0
 38 26  1  0  0  0  0
 40 29  1  0  0  0  0
 41 30  1  0  0  0  0
 42 30  1  0  0  0  0
 44 31  1  0  0  0  0
 46 32  1  0  0  0  0
 48 34  1  0  0  0  0
 49 50  1  0  0  0  0
 49 57  1  0  0  0  0
 49 58  1  0  0  0  0
 50 51  1  0  0  0  0
 51 61  1  0  0  0  0
 51 63  1  0  0  0  0
 51 62  1  0  0  0  0
 52 53  1  0  0  0  0
 52 50  1  0  0  0  0
 52 64  1  1  0  0  0
 53 35  1  0  0  0  0
 54 52  1  0  0  0  0
 55 54  2  0  0  0  0
 56 54  1  0  0  0  0
 59 49  1  0  0  0  0
 60 50  1  0  0  0  0
 65 53  1  0  0  0  0
M  END
$$$$
