WSD.pdb
 OpenBabel07022419183D

 50 51  0  0  1  0  0  0  0  0999 V2000
   -1.4150    2.6700   -1.3850 N   0  0  0  0  0  0  0  0  0  0  0  0
   -0.0840    2.0710   -1.3530 C   0  0  1  0  0  0  0  0  0  0  0  0
    0.8410    3.1550   -0.8840 C   0  0  0  0  0  0  0  0  0  0  0  0
    2.2600    2.7750   -0.7450 C   0  0  0  0  0  0  0  0  0  0  0  0
    3.2910    2.9440   -1.6640 C   0  0  0  0  0  0  0  0  0  0  0  0
    4.4270    2.4380   -1.1610 N   0  0  0  0  0  0  0  0  0  0  0  0
    4.2140    1.9310    0.0660 C   0  0  0  0  0  0  0  0  0  0  0  0
    5.0660    1.3220    0.9760 C   0  0  0  0  0  0  0  0  0  0  0  0
    4.5630    0.9000    2.2020 C   0  0  0  0  0  0  0  0  0  0  0  0
    3.2280    1.0870    2.5090 C   0  0  0  0  0  0  0  0  0  0  0  0
    2.4230    1.6960    1.5720 C   0  0  0  0  0  0  0  0  0  0  0  0
    2.8750    2.1330    0.3360 C   0  0  0  0  0  0  0  0  0  0  0  0
   -0.0120    0.8310   -0.6030 C   0  0  0  0  0  0  0  0  0  0  0  0
    1.0040    0.0780   -0.7140 O   0  0  0  0  0  0  0  0  0  0  0  0
   -1.9660    2.3130   -2.2050 H   0  0  0  0  0  0  0  0  0  0  0  0
   -1.3490    3.7030   -1.5250 H   0  0  0  0  0  0  0  0  0  0  0  0
    0.1730    1.9210   -2.4500 H   0  0  0  0  0  0  0  0  0  0  0  0
    0.7550    4.0390   -1.5580 H   0  0  0  0  0  0  0  0  0  0  0  0
    0.4830    3.5150    0.1080 H   0  0  0  0  0  0  0  0  0  0  0  0
    3.1260    3.4240   -2.6280 H   0  0  0  0  0  0  0  0  0  0  0  0
    5.3640    2.4250   -1.6350 H   0  0  0  0  0  0  0  0  0  0  0  0
    6.1080    1.1850    0.7160 H   0  0  0  0  0  0  0  0  0  0  0  0
    5.2390    0.4220    2.9120 H   0  0  0  0  0  0  0  0  0  0  0  0
    2.8900    0.7410    3.4730 H   0  0  0  0  0  0  0  0  0  0  0  0
    1.3780    1.8440    1.8070 H   0  0  0  0  0  0  0  0  0  0  0  0
   -1.9900   -0.1100    2.9780 O   0  0  0  0  0  0  0  0  0  0  0  0
   -0.8210   -0.6990    2.5030 C   0  0  0  0  0  0  0  0  0  0  0  0
   -0.8550   -0.9170    1.0030 C   0  0  2  0  0  0  0  0  0  0  0  0
   -1.0190    0.3430    0.2950 N   0  0  0  0  0  0  0  0  0  0  0  0
   -1.9420   -1.8460    0.6240 C   0  0  0  0  0  0  0  0  0  0  0  0
   -2.8120   -1.4720   -0.1960 O   0  0  0  0  0  0  0  0  0  0  0  0
   -2.2340   -0.5670    3.8340 H   0  0  0  0  0  0  0  0  0  0  0  0
   -0.6400   -1.6610    3.0240 H   0  0  0  0  0  0  0  0  0  0  0  0
    0.0100   -0.0320    2.8000 H   0  0  0  0  0  0  0  0  0  0  0  0
    0.1050   -1.4080    0.7400 H   0  0  0  0  0  0  0  0  0  0  0  0
   -1.8650    0.9410    0.4050 H   0  0  0  0  0  0  0  0  0  0  0  0
   -2.0490   -3.1620    1.1520 N   0  0  0  0  0  0  0  0  0  0  0  0
   -3.1370   -4.0520    0.7540 C   0  0  1  0  0  0  0  0  0  0  0  0
   -2.5800   -5.3020    0.1170 C   0  0  0  0  0  0  0  0  0  0  0  0
   -1.7060   -6.0840    0.9990 C   0  0  0  0  0  0  0  0  0  0  0  0
   -1.4860   -5.7320    2.1700 O   0  0  0  0  0  0  0  0  0  0  0  0
   -3.8710   -4.4440    1.9730 C   0  0  0  0  0  0  0  0  0  0  0  0
   -4.8700   -5.2190    1.9060 O   0  0  0  0  0  0  0  0  0  0  0  0
   -1.0880   -7.2570    0.5490 O   0  0  0  0  0  0  0  0  0  0  0  0
   -3.5220   -3.9970    3.2400 O   0  0  0  0  0  0  0  0  0  0  0  0
   -1.3190   -3.4590    1.8330 H   0  0  0  0  0  0  0  0  0  0  0  0
   -3.8180   -3.5480    0.0370 H   0  0  0  0  0  0  0  0  0  0  0  0
   -1.9900   -4.9610   -0.7760 H   0  0  0  0  0  0  0  0  0  0  0  0
   -3.3920   -5.9510   -0.2870 H   0  0  0  0  0  0  0  0  0  0  0  0
   -0.1210   -7.4780    0.8230 H   0  0  0  0  0  0  0  0  0  0  0  0
  1  2  1  0  0  0  0
  2 17  1  6  0  0  0
  2  3  1  0  0  0  0
  2 13  1  0  0  0  0
  3  4  1  0  0  0  0
  3 19  1  0  0  0  0
  4 12  1  0  0  0  0
  5  6  1  0  0  0  0
  5  4  2  0  0  0  0
  6  7  1  0  0  0  0
  7 12  2  0  0  0  0
  7  8  1  0  0  0  0
  8  9  2  0  0  0  0
  9 10  1  0  0  0  0
  9 23  1  0  0  0  0
 10 24  1  0  0  0  0
 11 25  1  0  0  0  0
 11 10  2  0  0  0  0
 12 11  1  0  0  0  0
 13 29  1  0  0  0  0
 14 13  2  0  0  0  0
 15  1  1  0  0  0  0
 16  1  1  0  0  0  0
 18  3  1  0  0  0  0
 20  5  1  0  0  0  0
 21  6  1  0  0  0  0
 22  8  1  0  0  0  0
 26 32  1  0  0  0  0
 27 34  1  0  0  0  0
 27 26  1  0  0  0  0
 27 33  1  0  0  0  0
 28 35  1  6  0  0  0
 28 27  1  0  0  0  0
 29 36  1  0  0  0  0
 29 28  1  0  0  0  0
 30 28  1  0  0  0  0
 30 37  1  0  0  0  0
 31 30  2  0  0  0  0
 37 46  1  0  0  0  0
 38 47  1  6  0  0  0
 38 37  1  0  0  0  0
 38 42  1  0  0  0  0
 39 38  1  0  0  0  0
 39 40  1  0  0  0  0
 40 41  2  0  0  0  0
 42 45  1  0  0  0  0
 43 42  2  0  0  0  0
 44 50  1  0  0  0  0
 44 40  1  0  0  0  0
 48 39  1  0  0  0  0
 49 39  1  0  0  0  0
M  END
$$$$
