WSH.pdb
 OpenBabel07022419183D

 54 56  0  0  1  0  0  0  0  0999 V2000
    3.6860    1.4560   -0.6950 N   0  0  0  0  0  0  0  0  0  0  0  0
    2.7740    0.3610   -0.8790 C   0  0  1  0  0  0  0  0  0  0  0  0
    2.8130   -0.5200    0.3790 C   0  0  0  0  0  0  0  0  0  0  0  0
    2.4240    0.3040    1.5550 C   0  0  0  0  0  0  0  0  0  0  0  0
    1.1540    0.4240    2.0680 C   0  0  0  0  0  0  0  0  0  0  0  0
    1.1850    1.2960    3.0830 N   0  0  0  0  0  0  0  0  0  0  0  0
    2.4480    1.7610    3.2610 C   0  0  0  0  0  0  0  0  0  0  0  0
    3.0250    2.6420    4.1400 C   0  0  0  0  0  0  0  0  0  0  0  0
    4.3740    2.9220    4.0920 C   0  0  0  0  0  0  0  0  0  0  0  0
    5.1480    2.2980    3.1360 C   0  0  0  0  0  0  0  0  0  0  0  0
    4.5790    1.3980    2.2310 C   0  0  0  0  0  0  0  0  0  0  0  0
    3.2300    1.1310    2.2940 C   0  0  0  0  0  0  0  0  0  0  0  0
    1.4050    0.8990   -1.0700 C   0  0  0  0  0  0  0  0  0  0  0  0
    1.1940    2.1080   -0.8800 O   0  0  0  0  0  0  0  0  0  0  0  0
    4.6640    1.2230   -0.9860 H   0  0  0  0  0  0  0  0  0  0  0  0
    3.3360    2.3610   -1.1110 H   0  0  0  0  0  0  0  0  0  0  0  0
    3.0920   -0.3090   -1.7130 H   0  0  0  0  0  0  0  0  0  0  0  0
    3.8350   -0.9180    0.4520 H   0  0  0  0  0  0  0  0  0  0  0  0
    2.1140   -1.3660    0.2600 H   0  0  0  0  0  0  0  0  0  0  0  0
    0.3200   -0.1270    1.6590 H   0  0  0  0  0  0  0  0  0  0  0  0
    0.3550    1.5710    3.6450 H   0  0  0  0  0  0  0  0  0  0  0  0
    2.4060    3.1260    4.8840 H   0  0  0  0  0  0  0  0  0  0  0  0
    4.7810    3.6230    4.8060 H   0  0  0  0  0  0  0  0  0  0  0  0
    6.2080    2.5000    3.0750 H   0  0  0  0  0  0  0  0  0  0  0  0
    5.1830    0.8970    1.4910 H   0  0  0  0  0  0  0  0  0  0  0  0
   -0.5500    1.5560   -3.7350 O   0  0  0  0  0  0  0  0  0  0  0  0
   -1.3910    0.6460   -3.1370 C   0  0  0  0  0  0  0  0  0  0  0  0
   -1.0350    0.5210   -1.6590 C   0  0  2  0  0  0  0  0  0  0  0  0
    0.3090    0.0810   -1.4660 N   0  0  0  0  0  0  0  0  0  0  0  0
   -1.9950   -0.4070   -1.0220 C   0  0  0  0  0  0  0  0  0  0  0  0
   -3.2200   -0.1070   -1.0980 O   0  0  0  0  0  0  0  0  0  0  0  0
   -0.5810    2.3880   -3.1850 H   0  0  0  0  0  0  0  0  0  0  0  0
   -2.4230    1.0820   -3.1660 H   0  0  0  0  0  0  0  0  0  0  0  0
   -1.4580   -0.3270   -3.6380 H   0  0  0  0  0  0  0  0  0  0  0  0
   -1.1510    1.5320   -1.2480 H   0  0  0  0  0  0  0  0  0  0  0  0
    0.5580   -0.9410   -1.6220 H   0  0  0  0  0  0  0  0  0  0  0  0
   -1.6660   -1.5960   -0.3420 N   0  0  0  0  0  0  0  0  0  0  0  0
   -2.6860   -2.4340    0.2360 C   0  0  1  0  0  0  0  0  0  0  0  0
   -2.8670   -3.7220   -0.5040 C   0  0  0  0  0  0  0  0  0  0  0  0
   -3.9100   -4.5380    0.1300 C   0  0  0  0  0  0  0  0  0  0  0  0
   -5.2650   -4.5080   -0.1230 C   0  0  0  0  0  0  0  0  0  0  0  0
   -5.9120   -5.4160    0.6680 N   0  0  0  0  0  0  0  0  0  0  0  0
   -4.9550   -6.0080    1.4110 C   0  0  0  0  0  0  0  0  0  0  0  0
   -3.7590   -5.4830    1.0900 N   0  0  0  0  0  0  0  0  0  0  0  0
   -2.5130   -2.6440    1.6800 C   0  0  0  0  0  0  0  0  0  0  0  0
   -3.3420   -3.2850    2.3640 O   0  0  0  0  0  0  0  0  0  0  0  0
   -1.4000   -2.1230    2.3240 O   0  0  0  0  0  0  0  0  0  0  0  0
   -0.6640   -1.8530   -0.2670 H   0  0  0  0  0  0  0  0  0  0  0  0
   -3.6690   -1.8960    0.0990 H   0  0  0  0  0  0  0  0  0  0  0  0
   -1.9520   -4.3410   -0.5530 H   0  0  0  0  0  0  0  0  0  0  0  0
   -3.1570   -3.5390   -1.5710 H   0  0  0  0  0  0  0  0  0  0  0  0
   -5.7880   -3.8700   -0.8400 H   0  0  0  0  0  0  0  0  0  0  0  0
   -6.9310   -5.5920    0.6720 H   0  0  0  0  0  0  0  0  0  0  0  0
   -5.1790   -6.7850    2.1400 H   0  0  0  0  0  0  0  0  0  0  0  0
  2 17  1  6  0  0  0
  2  1  1  0  0  0  0
  2  3  1  0  0  0  0
  3 18  1  0  0  0  0
  3  4  1  0  0  0  0
  4  5  2  0  0  0  0
  4 12  1  0  0  0  0
  5  6  1  0  0  0  0
  6  7  1  0  0  0  0
  6 21  1  0  0  0  0
  7  8  1  0  0  0  0
  8 22  1  0  0  0  0
  9  8  2  0  0  0  0
  9 23  1  0  0  0  0
 10  9  1  0  0  0  0
 11 12  1  0  0  0  0
 11 10  2  0  0  0  0
 12  7  2  0  0  0  0
 13 14  2  0  0  0  0
 13  2  1  0  0  0  0
 15  1  1  0  0  0  0
 16  1  1  0  0  0  0
 19  3  1  0  0  0  0
 20  5  1  0  0  0  0
 24 10  1  0  0  0  0
 25 11  1  0  0  0  0
 26 32  1  0  0  0  0
 26 27  1  0  0  0  0
 27 28  1  0  0  0  0
 28 29  1  0  0  0  0
 28 35  1  1  0  0  0
 28 30  1  0  0  0  0
 29 13  1  0  0  0  0
 30 37  1  0  0  0  0
 31 30  2  0  0  0  0
 33 27  1  0  0  0  0
 34 27  1  0  0  0  0
 36 29  1  0  0  0  0
 37 48  1  0  0  0  0
 37 38  1  0  0  0  0
 38 49  1  6  0  0  0
 38 45  1  0  0  0  0
 39 40  1  0  0  0  0
 39 38  1  0  0  0  0
 40 44  1  0  0  0  0
 41 40  2  0  0  0  0
 41 42  1  0  0  0  0
 42 53  1  0  0  0  0
 42 43  1  0  0  0  0
 43 54  1  0  0  0  0
 44 43  2  0  0  0  0
 45 47  2  0  0  0  0
 45 46  1  0  0  0  0
 50 39  1  0  0  0  0
 51 39  1  0  0  0  0
 52 41  1  0  0  0  0
M  END
$$$$
