WSI.pdb
 OpenBabel07022419183D

 56 57  0  0  1  0  0  0  0  0999 V2000
   -0.2510    4.5940    0.7610 N   0  0  0  0  0  0  0  0  0  0  0  0
    0.1500    3.2200    0.4170 C   0  0  1  0  0  0  0  0  0  0  0  0
    1.6530    3.2470    0.3230 C   0  0  0  0  0  0  0  0  0  0  0  0
    2.3160    1.9740    0.0210 C   0  0  0  0  0  0  0  0  0  0  0  0
    2.7350    1.5390   -1.2440 C   0  0  0  0  0  0  0  0  0  0  0  0
    3.2940    0.3220   -1.1470 N   0  0  0  0  0  0  0  0  0  0  0  0
    3.2740   -0.0880    0.1280 C   0  0  0  0  0  0  0  0  0  0  0  0
    3.7140   -1.2180    0.7820 C   0  0  0  0  0  0  0  0  0  0  0  0
    3.5770   -1.3800    2.1430 C   0  0  0  0  0  0  0  0  0  0  0  0
    2.9780   -0.3770    2.8890 C   0  0  0  0  0  0  0  0  0  0  0  0
    2.5460    0.7450    2.2080 C   0  0  0  0  0  0  0  0  0  0  0  0
    2.6730    0.9250    0.8540 C   0  0  0  0  0  0  0  0  0  0  0  0
   -0.3010    2.2240    1.3640 C   0  0  0  0  0  0  0  0  0  0  0  0
   -0.4150    2.4800    2.6020 O   0  0  0  0  0  0  0  0  0  0  0  0
   -1.2850    4.6400    0.8690 H   0  0  0  0  0  0  0  0  0  0  0  0
    0.1490    5.2740    0.0980 H   0  0  0  0  0  0  0  0  0  0  0  0
   -0.2270    3.0780   -0.6180 H   0  0  0  0  0  0  0  0  0  0  0  0
    1.9850    3.9790   -0.4810 H   0  0  0  0  0  0  0  0  0  0  0  0
    2.0780    3.7150    1.2560 H   0  0  0  0  0  0  0  0  0  0  0  0
    2.6100    2.1200   -2.1400 H   0  0  0  0  0  0  0  0  0  0  0  0
    3.6800   -0.2080   -1.9500 H   0  0  0  0  0  0  0  0  0  0  0  0
    4.1900   -2.0350    0.2520 H   0  0  0  0  0  0  0  0  0  0  0  0
    3.9110   -2.2510    2.6740 H   0  0  0  0  0  0  0  0  0  0  0  0
    2.8610   -0.4880    3.9620 H   0  0  0  0  0  0  0  0  0  0  0  0
    2.0940    1.5250    2.7890 H   0  0  0  0  0  0  0  0  0  0  0  0
   -3.3520    0.0020    1.1250 O   0  0  0  0  0  0  0  0  0  0  0  0
   -2.5960    0.1030    2.2740 C   0  0  0  0  0  0  0  0  0  0  0  0
   -1.0940   -0.0940    1.9280 C   0  0  2  0  0  0  0  0  0  0  0  0
   -0.6630    0.8780    1.0020 N   0  0  0  0  0  0  0  0  0  0  0  0
   -1.0170   -1.4580    1.4120 C   0  0  0  0  0  0  0  0  0  0  0  0
   -1.2910   -2.3770    2.2560 O   0  0  0  0  0  0  0  0  0  0  0  0
   -3.5320    0.8820    0.6880 H   0  0  0  0  0  0  0  0  0  0  0  0
   -2.7520    1.0030    2.8660 H   0  0  0  0  0  0  0  0  0  0  0  0
   -2.8360   -0.7690    2.9180 H   0  0  0  0  0  0  0  0  0  0  0  0
   -0.6160    0.0860    2.9240 H   0  0  0  0  0  0  0  0  0  0  0  0
   -0.5860    0.6770   -0.0120 H   0  0  0  0  0  0  0  0  0  0  0  0
   -4.2870   -3.8980   -1.3260 C   0  0  0  0  0  0  0  0  0  0  0  0
   -3.1630   -3.4150   -0.4720 C   0  0  0  0  0  0  0  0  0  0  0  0
   -1.8200   -3.7150   -1.1040 C   0  0  2  0  0  0  0  0  0  0  0  0
   -1.7490   -5.2230   -1.2590 C   0  0  0  0  0  0  0  0  0  0  0  0
   -0.6730   -3.3110   -0.1920 C   0  0  2  0  0  0  0  0  0  0  0  0
   -0.6860   -1.8890    0.1130 N   0  0  0  0  0  0  0  0  0  0  0  0
    0.6230   -3.6360   -0.8160 C   0  0  0  0  0  0  0  0  0  0  0  0
    0.8500   -4.8350   -1.1160 O   0  0  0  0  0  0  0  0  0  0  0  0
    1.6030   -2.7040   -1.0910 O   0  0  0  0  0  0  0  0  0  0  0  0
   -4.7950   -4.7380   -0.8240 H   0  0  0  0  0  0  0  0  0  0  0  0
   -3.9290   -4.2890   -2.3030 H   0  0  0  0  0  0  0  0  0  0  0  0
   -5.0260   -3.1050   -1.5660 H   0  0  0  0  0  0  0  0  0  0  0  0
   -3.2880   -2.3320   -0.2650 H   0  0  0  0  0  0  0  0  0  0  0  0
   -3.2110   -3.9200    0.5130 H   0  0  0  0  0  0  0  0  0  0  0  0
   -1.7280   -3.2890   -2.1140 H   0  0  0  0  0  0  0  0  0  0  0  0
   -2.7690   -5.6680   -1.3090 H   0  0  0  0  0  0  0  0  0  0  0  0
   -1.2790   -5.6410   -0.3560 H   0  0  0  0  0  0  0  0  0  0  0  0
   -1.2200   -5.5140   -2.1980 H   0  0  0  0  0  0  0  0  0  0  0  0
   -0.7910   -3.9270    0.7180 H   0  0  0  0  0  0  0  0  0  0  0  0
   -0.4550   -1.1800   -0.6080 H   0  0  0  0  0  0  0  0  0  0  0  0
  1 15  1  0  0  0  0
  2 17  1  6  0  0  0
  2  1  1  0  0  0  0
  2 13  1  0  0  0  0
  3  2  1  0  0  0  0
  3 19  1  0  0  0  0
  4  3  1  0  0  0  0
  4 12  1  0  0  0  0
  5  6  1  0  0  0  0
  5  4  2  0  0  0  0
  6  7  1  0  0  0  0
  7  8  2  0  0  0  0
  7 12  1  0  0  0  0
  8  9  1  0  0  0  0
  9 23  1  0  0  0  0
  9 10  2  0  0  0  0
 10 24  1  0  0  0  0
 11 25  1  0  0  0  0
 11 10  1  0  0  0  0
 12 11  2  0  0  0  0
 13 14  2  0  0  0  0
 16  1  1  0  0  0  0
 18  3  1  0  0  0  0
 20  5  1  0  0  0  0
 21  6  1  0  0  0  0
 22  8  1  0  0  0  0
 26 27  1  0  0  0  0
 27 33  1  0  0  0  0
 27 34  1  0  0  0  0
 28 27  1  0  0  0  0
 28 35  1  1  0  0  0
 29 13  1  0  0  0  0
 29 28  1  0  0  0  0
 30 28  1  0  0  0  0
 30 31  2  0  0  0  0
 32 26  1  0  0  0  0
 36 29  1  0  0  0  0
 37 46  1  0  0  0  0
 37 38  1  0  0  0  0
 38 49  1  0  0  0  0
 38 50  1  0  0  0  0
 39 51  1  6  0  0  0
 39 38  1  0  0  0  0
 39 41  1  0  0  0  0
 40 39  1  0  0  0  0
 40 53  1  0  0  0  0
 41 42  1  0  0  0  0
 41 55  1  1  0  0  0
 42 30  1  0  0  0  0
 43 41  1  0  0  0  0
 44 43  2  0  0  0  0
 45 43  1  0  0  0  0
 47 37  1  0  0  0  0
 48 37  1  0  0  0  0
 52 40  1  0  0  0  0
 54 40  1  0  0  0  0
 56 42  1  0  0  0  0
M  END
$$$$
