WSL.pdb
 OpenBabel07022419183D

 56 57  0  0  1  0  0  0  0  0999 V2000
    0.2430    1.5120   -1.3470 N   0  0  0  0  0  0  0  0  0  0  0  0
    1.5770    1.1050   -0.8150 C   0  0  1  0  0  0  0  0  0  0  0  0
    2.2290    2.2860   -0.2320 C   0  0  0  0  0  0  0  0  0  0  0  0
    3.5510    2.1540    0.3700 C   0  0  0  0  0  0  0  0  0  0  0  0
    4.7830    2.4060   -0.2130 C   0  0  0  0  0  0  0  0  0  0  0  0
    5.7490    2.1360    0.6690 N   0  0  0  0  0  0  0  0  0  0  0  0
    5.2240    1.7130    1.8270 C   0  0  0  0  0  0  0  0  0  0  0  0
    5.7520    1.3240    3.0350 C   0  0  0  0  0  0  0  0  0  0  0  0
    4.9620    0.9310    4.1100 C   0  0  0  0  0  0  0  0  0  0  0  0
    3.5980    0.9440    3.9210 C   0  0  0  0  0  0  0  0  0  0  0  0
    3.0900    1.3320    2.7170 C   0  0  0  0  0  0  0  0  0  0  0  0
    3.8460    1.7230    1.6420 C   0  0  0  0  0  0  0  0  0  0  0  0
    1.2820   -0.0380    0.0540 C   0  0  0  0  0  0  0  0  0  0  0  0
    2.2410   -0.7260    0.5110 O   0  0  0  0  0  0  0  0  0  0  0  0
   -0.0770    0.8780   -2.0850 H   0  0  0  0  0  0  0  0  0  0  0  0
    0.3050    2.5090   -1.6830 H   0  0  0  0  0  0  0  0  0  0  0  0
    2.0930    0.7840   -1.7740 H   0  0  0  0  0  0  0  0  0  0  0  0
    2.3630    3.0190   -1.0950 H   0  0  0  0  0  0  0  0  0  0  0  0
    1.5270    2.8990    0.4250 H   0  0  0  0  0  0  0  0  0  0  0  0
    4.9360    2.7590   -1.2100 H   0  0  0  0  0  0  0  0  0  0  0  0
    6.7920    2.2260    0.5280 H   0  0  0  0  0  0  0  0  0  0  0  0
    6.8390    1.3170    3.1770 H   0  0  0  0  0  0  0  0  0  0  0  0
    5.4070    0.6270    5.0570 H   0  0  0  0  0  0  0  0  0  0  0  0
    2.9230    0.6520    4.7130 H   0  0  0  0  0  0  0  0  0  0  0  0
    2.0170    1.3390    2.5790 H   0  0  0  0  0  0  0  0  0  0  0  0
   -1.2510   -2.0090    3.4790 O   0  0  0  0  0  0  0  0  0  0  0  0
   -0.9170   -1.0290    2.5740 C   0  0  0  0  0  0  0  0  0  0  0  0
   -0.3020   -1.5870    1.3000 C   0  0  2  0  0  0  0  0  0  0  0  0
   -0.0010   -0.4640    0.4440 N   0  0  0  0  0  0  0  0  0  0  0  0
   -1.1740   -2.5880    0.6630 C   0  0  0  0  0  0  0  0  0  0  0  0
   -1.4910   -3.5970    1.3450 O   0  0  0  0  0  0  0  0  0  0  0  0
   -0.7660   -1.9290    4.3520 H   0  0  0  0  0  0  0  0  0  0  0  0
   -0.2340   -0.3120    3.0700 H   0  0  0  0  0  0  0  0  0  0  0  0
   -1.8500   -0.4580    2.3480 H   0  0  0  0  0  0  0  0  0  0  0  0
    0.6870   -2.0150    1.6040 H   0  0  0  0  0  0  0  0  0  0  0  0
   -0.8290    0.0640    0.0940 H   0  0  0  0  0  0  0  0  0  0  0  0
   -5.0210   -3.2990    0.3550 C   0  0  0  0  0  0  0  0  0  0  0  0
   -4.6680   -2.2990   -0.7110 C   0  0  0  0  0  0  0  0  0  0  0  0
   -5.9860   -1.8590   -1.3630 C   0  0  0  0  0  0  0  0  0  0  0  0
   -3.8220   -2.9330   -1.8030 C   0  0  0  0  0  0  0  0  0  0  0  0
   -2.5360   -3.4840   -1.2760 C   0  0  2  0  0  0  0  0  0  0  0  0
   -1.6860   -2.5100   -0.6550 N   0  0  0  0  0  0  0  0  0  0  0  0
   -1.7900   -4.0670   -2.4310 C   0  0  0  0  0  0  0  0  0  0  0  0
   -0.6250   -3.6860   -2.7080 O   0  0  0  0  0  0  0  0  0  0  0  0
   -2.3450   -5.0450   -3.2440 O   0  0  0  0  0  0  0  0  0  0  0  0
   -4.2830   -3.3420    1.1820 H   0  0  0  0  0  0  0  0  0  0  0  0
   -5.1130   -4.3010   -0.1420 H   0  0  0  0  0  0  0  0  0  0  0  0
   -6.0280   -3.0430    0.7410 H   0  0  0  0  0  0  0  0  0  0  0  0
   -4.1550   -1.4290   -0.2730 H   0  0  0  0  0  0  0  0  0  0  0  0
   -5.8250   -0.9720   -2.0180 H   0  0  0  0  0  0  0  0  0  0  0  0
   -6.3190   -2.7290   -2.0010 H   0  0  0  0  0  0  0  0  0  0  0  0
   -6.7820   -1.7020   -0.6100 H   0  0  0  0  0  0  0  0  0  0  0  0
   -4.4200   -3.8200   -2.1670 H   0  0  0  0  0  0  0  0  0  0  0  0
   -3.7140   -2.2640   -2.6550 H   0  0  0  0  0  0  0  0  0  0  0  0
   -2.7800   -4.3360   -0.6000 H   0  0  0  0  0  0  0  0  0  0  0  0
   -1.4160   -1.6640   -1.2180 H   0  0  0  0  0  0  0  0  0  0  0  0
  1  2  1  0  0  0  0
  2 17  1  6  0  0  0
  2  3  1  0  0  0  0
  2 13  1  0  0  0  0
  3  4  1  0  0  0  0
  3 19  1  0  0  0  0
  4 12  1  0  0  0  0
  5  4  2  0  0  0  0
  5  6  1  0  0  0  0
  6  7  1  0  0  0  0
  7  8  1  0  0  0  0
  8 22  1  0  0  0  0
  8  9  2  0  0  0  0
  9 23  1  0  0  0  0
 10  9  1  0  0  0  0
 10 24  1  0  0  0  0
 11 10  2  0  0  0  0
 12  7  2  0  0  0  0
 12 11  1  0  0  0  0
 13 29  1  0  0  0  0
 13 14  2  0  0  0  0
 15  1  1  0  0  0  0
 16  1  1  0  0  0  0
 18  3  1  0  0  0  0
 20  5  1  0  0  0  0
 21  6  1  0  0  0  0
 25 11  1  0  0  0  0
 26 32  1  0  0  0  0
 27 33  1  0  0  0  0
 27 26  1  0  0  0  0
 28 35  1  1  0  0  0
 28 27  1  0  0  0  0
 29 28  1  0  0  0  0
 30 28  1  0  0  0  0
 30 31  2  0  0  0  0
 34 27  1  0  0  0  0
 36 29  1  0  0  0  0
 37 48  1  0  0  0  0
 37 46  1  0  0  0  0
 38 49  1  0  0  0  0
 38 37  1  0  0  0  0
 39 38  1  0  0  0  0
 39 52  1  0  0  0  0
 40 41  1  0  0  0  0
 40 38  1  0  0  0  0
 41 42  1  0  0  0  0
 41 55  1  1  0  0  0
 42 30  1  0  0  0  0
 43 41  1  0  0  0  0
 44 43  1  0  0  0  0
 45 43  2  0  0  0  0
 47 37  1  0  0  0  0
 50 39  1  0  0  0  0
 51 39  1  0  0  0  0
 53 40  1  0  0  0  0
 54 40  1  0  0  0  0
 56 42  1  0  0  0  0
M  END
$$$$
