WSM.pdb
 OpenBabel07022419183D

 54 55  0  0  1  0  0  0  0  0999 V2000
   -0.0500    1.7940   -4.1510 N   0  0  0  0  0  0  0  0  0  0  0  0
    0.6590    1.5040   -2.8820 C   0  0  1  0  0  0  0  0  0  0  0  0
    0.5500    2.7470   -2.0850 C   0  0  0  0  0  0  0  0  0  0  0  0
    1.1340    2.7950   -0.7570 C   0  0  0  0  0  0  0  0  0  0  0  0
    2.4320    3.1840   -0.4250 C   0  0  0  0  0  0  0  0  0  0  0  0
    2.5970    3.0600    0.8940 N   0  0  0  0  0  0  0  0  0  0  0  0
    1.4840    2.6130    1.4590 C   0  0  0  0  0  0  0  0  0  0  0  0
    1.1880    2.3660    2.7920 C   0  0  0  0  0  0  0  0  0  0  0  0
   -0.0870    1.9280    3.1350 C   0  0  0  0  0  0  0  0  0  0  0  0
   -1.0320    1.7480    2.1480 C   0  0  0  0  0  0  0  0  0  0  0  0
   -0.6930    2.0050    0.8410 C   0  0  0  0  0  0  0  0  0  0  0  0
    0.5600    2.4410    0.4460 C   0  0  0  0  0  0  0  0  0  0  0  0
    0.2830    0.2210   -2.3470 C   0  0  0  0  0  0  0  0  0  0  0  0
   -0.6970   -0.3970   -2.8790 O   0  0  0  0  0  0  0  0  0  0  0  0
   -0.7670    2.5380   -4.0160 H   0  0  0  0  0  0  0  0  0  0  0  0
   -0.4290    0.9280   -4.5680 H   0  0  0  0  0  0  0  0  0  0  0  0
    1.7510    1.4890   -3.2460 H   0  0  0  0  0  0  0  0  0  0  0  0
    0.9890    3.6140   -2.6710 H   0  0  0  0  0  0  0  0  0  0  0  0
   -0.5500    3.0480   -2.0320 H   0  0  0  0  0  0  0  0  0  0  0  0
    3.1590    3.5240   -1.1450 H   0  0  0  0  0  0  0  0  0  0  0  0
    3.4750    3.2830    1.4080 H   0  0  0  0  0  0  0  0  0  0  0  0
    1.9320    2.5090    3.5470 H   0  0  0  0  0  0  0  0  0  0  0  0
   -0.3540    1.7260    4.1570 H   0  0  0  0  0  0  0  0  0  0  0  0
   -2.0400    1.4090    2.4300 H   0  0  0  0  0  0  0  0  0  0  0  0
   -1.4350    1.8610    0.0790 H   0  0  0  0  0  0  0  0  0  0  0  0
    2.6790   -2.6260   -0.6240 O   0  0  0  0  0  0  0  0  0  0  0  0
    1.4430   -2.8730   -1.2320 C   0  0  0  0  0  0  0  0  0  0  0  0
    0.4340   -1.7900   -0.8640 C   0  0  2  0  0  0  0  0  0  0  0  0
    0.8720   -0.4990   -1.2760 N   0  0  0  0  0  0  0  0  0  0  0  0
    0.0990   -1.9660    0.5440 C   0  0  0  0  0  0  0  0  0  0  0  0
    0.2170   -1.0720    1.4160 O   0  0  0  0  0  0  0  0  0  0  0  0
    3.2710   -3.3710   -0.8930 H   0  0  0  0  0  0  0  0  0  0  0  0
    1.0730   -3.8120   -0.7850 H   0  0  0  0  0  0  0  0  0  0  0  0
    1.5030   -3.0420   -2.3150 H   0  0  0  0  0  0  0  0  0  0  0  0
   -0.4670   -2.0530   -1.4790 H   0  0  0  0  0  0  0  0  0  0  0  0
    1.6640   -0.0480   -0.7740 H   0  0  0  0  0  0  0  0  0  0  0  0
   -3.1780   -1.2030    2.1390 C   0  0  0  0  0  0  0  0  0  0  0  0
   -4.0380   -2.7410    2.4540 S   0  0  0  0  0  0  0  0  0  0  0  0
   -3.1490   -4.1420    1.7740 C   0  0  0  0  0  0  0  0  0  0  0  0
   -1.8690   -4.4670    2.4300 C   0  0  0  0  0  0  0  0  0  0  0  0
   -0.7660   -3.4780    2.3970 C   0  0  2  0  0  0  0  0  0  0  0  0
   -0.3990   -3.2100    1.0160 N   0  0  0  0  0  0  0  0  0  0  0  0
    0.4310   -4.2000    2.9910 C   0  0  0  0  0  0  0  0  0  0  0  0
    1.4100   -4.4250    2.2730 O   0  0  0  0  0  0  0  0  0  0  0  0
    0.4210   -4.5960    4.3090 O   0  0  0  0  0  0  0  0  0  0  0  0
   -2.6210   -0.9140    3.0630 H   0  0  0  0  0  0  0  0  0  0  0  0
   -3.9800   -0.4110    1.9720 H   0  0  0  0  0  0  0  0  0  0  0  0
   -2.5360   -1.2060    1.2600 H   0  0  0  0  0  0  0  0  0  0  0  0
   -3.0710   -4.0840    0.6560 H   0  0  0  0  0  0  0  0  0  0  0  0
   -3.8260   -5.0400    1.9290 H   0  0  0  0  0  0  0  0  0  0  0  0
   -2.0950   -4.7990    3.4870 H   0  0  0  0  0  0  0  0  0  0  0  0
   -1.4580   -5.4180    1.9640 H   0  0  0  0  0  0  0  0  0  0  0  0
   -0.9200   -2.5450    2.9510 H   0  0  0  0  0  0  0  0  0  0  0  0
   -0.5330   -4.0100    0.3620 H   0  0  0  0  0  0  0  0  0  0  0  0
  1 15  1  0  0  0  0
  1  2  1  0  0  0  0
  2 17  1  6  0  0  0
  2 13  1  0  0  0  0
  2  3  1  0  0  0  0
  3 19  1  0  0  0  0
  3  4  1  0  0  0  0
  4  5  2  0  0  0  0
  4 12  1  0  0  0  0
  5  6  1  0  0  0  0
  6 21  1  0  0  0  0
  6  7  1  0  0  0  0
  7  8  1  0  0  0  0
  8  9  2  0  0  0  0
  8 22  1  0  0  0  0
  9 23  1  0  0  0  0
 10 24  1  0  0  0  0
 10  9  1  0  0  0  0
 11 10  2  0  0  0  0
 12 11  1  0  0  0  0
 12  7  2  0  0  0  0
 13 29  1  0  0  0  0
 14 13  2  0  0  0  0
 16  1  1  0  0  0  0
 18  3  1  0  0  0  0
 20  5  1  0  0  0  0
 25 11  1  0  0  0  0
 27 28  1  0  0  0  0
 27 33  1  0  0  0  0
 27 26  1  0  0  0  0
 28 35  1  6  0  0  0
 28 30  1  0  0  0  0
 29 28  1  0  0  0  0
 29 36  1  0  0  0  0
 30 42  1  0  0  0  0
 30 31  2  0  0  0  0
 32 26  1  0  0  0  0
 34 27  1  0  0  0  0
 37 38  1  0  0  0  0
 37 46  1  0  0  0  0
 39 50  1  0  0  0  0
 39 40  1  0  0  0  0
 39 38  1  0  0  0  0
 40 51  1  0  0  0  0
 41 40  1  0  0  0  0
 41 53  1  1  0  0  0
 41 43  1  0  0  0  0
 42 41  1  0  0  0  0
 43 45  1  0  0  0  0
 44 43  2  0  0  0  0
 47 37  1  0  0  0  0
 48 37  1  0  0  0  0
 49 39  1  0  0  0  0
 52 40  1  0  0  0  0
 54 42  1  0  0  0  0
M  END
$$$$
