WSP.pdb
 OpenBabel07022419183D

 51 53  0  0  1  0  0  0  0  0999 V2000
    2.7110   -0.9700   -0.0450 N   0  0  0  0  0  0  0  0  0  0  0  0
    1.7510   -0.5650    0.9260 C   0  0  1  0  0  0  0  0  0  0  0  0
    2.0770    0.8050    1.4620 C   0  0  0  0  0  0  0  0  0  0  0  0
    3.4240    0.7590    2.0820 C   0  0  0  0  0  0  0  0  0  0  0  0
    3.7130    0.5800    3.4210 C   0  0  0  0  0  0  0  0  0  0  0  0
    5.0240    0.5610    3.5770 N   0  0  0  0  0  0  0  0  0  0  0  0
    5.6610    0.7190    2.4040 C   0  0  0  0  0  0  0  0  0  0  0  0
    6.9950    0.7740    2.0730 C   0  0  0  0  0  0  0  0  0  0  0  0
    7.3840    0.9600    0.7680 C   0  0  0  0  0  0  0  0  0  0  0  0
    6.3910    1.0870   -0.1740 C   0  0  0  0  0  0  0  0  0  0  0  0
    5.0360    1.0350    0.1390 C   0  0  0  0  0  0  0  0  0  0  0  0
    4.6600    0.8470    1.4460 C   0  0  0  0  0  0  0  0  0  0  0  0
    0.3630   -0.5790    0.3490 C   0  0  0  0  0  0  0  0  0  0  0  0
    0.2530   -0.9450   -0.8330 O   0  0  0  0  0  0  0  0  0  0  0  0
    3.4170   -1.6500    0.2680 H   0  0  0  0  0  0  0  0  0  0  0  0
    2.3030   -1.1960   -0.9760 H   0  0  0  0  0  0  0  0  0  0  0  0
    1.7160   -1.2390    1.8160 H   0  0  0  0  0  0  0  0  0  0  0  0
    1.3580    1.0800    2.2780 H   0  0  0  0  0  0  0  0  0  0  0  0
    2.0380    1.5610    0.6430 H   0  0  0  0  0  0  0  0  0  0  0  0
    2.9520    0.4770    4.1790 H   0  0  0  0  0  0  0  0  0  0  0  0
    5.5520    0.4400    4.4790 H   0  0  0  0  0  0  0  0  0  0  0  0
    7.7800    0.6750    2.8070 H   0  0  0  0  0  0  0  0  0  0  0  0
    8.4460    1.0070    0.4820 H   0  0  0  0  0  0  0  0  0  0  0  0
    6.6520    1.2380   -1.2240 H   0  0  0  0  0  0  0  0  0  0  0  0
    4.2900    1.1520   -0.6270 H   0  0  0  0  0  0  0  0  0  0  0  0
   -3.4300    0.7780   -1.1280 O   0  0  0  0  0  0  0  0  0  0  0  0
   -2.1650    0.6900   -0.6030 C   0  0  0  0  0  0  0  0  0  0  0  0
   -2.1340   -0.1630    0.6610 C   0  0  2  0  0  0  0  0  0  0  0  0
   -0.7360   -0.1900    1.1350 N   0  0  0  0  0  0  0  0  0  0  0  0
   -2.5280   -1.5620    0.4410 C   0  0  0  0  0  0  0  0  0  0  0  0
   -1.5900   -2.4240    0.2590 O   0  0  0  0  0  0  0  0  0  0  0  0
   -3.6110    1.6820   -1.5210 H   0  0  0  0  0  0  0  0  0  0  0  0
   -1.8940    1.7380   -0.2680 H   0  0  0  0  0  0  0  0  0  0  0  0
   -1.4750    0.3450   -1.3850 H   0  0  0  0  0  0  0  0  0  0  0  0
   -2.7570    0.3270    1.4020 H   0  0  0  0  0  0  0  0  0  0  0  0
   -0.5720    0.1010    2.1180 H   0  0  0  0  0  0  0  0  0  0  0  0
   -3.8680   -1.9760    0.4290 N   0  0  0  0  0  0  0  0  0  0  0  0
   -4.9890   -1.0680    0.7610 C   0  0  0  0  0  0  0  0  0  0  0  0
   -5.9290   -1.3240   -0.3860 C   0  0  0  0  0  0  0  0  0  0  0  0
   -5.5570   -2.7070   -0.9110 C   0  0  0  0  0  0  0  0  0  0  0  0
   -4.5370   -3.1990    0.1450 C   0  0  1  0  0  0  0  0  0  0  0  0
   -3.8270   -4.3520   -0.3260 C   0  0  0  0  0  0  0  0  0  0  0  0
   -2.6390   -4.4100   -0.6220 O   0  0  0  0  0  0  0  0  0  0  0  0
   -4.5470   -5.5630   -0.4760 O   0  0  0  0  0  0  0  0  0  0  0  0
   -4.7070   -0.0520    0.9520 H   0  0  0  0  0  0  0  0  0  0  0  0
   -5.4140   -1.5620    1.7010 H   0  0  0  0  0  0  0  0  0  0  0  0
   -5.7560   -0.5630   -1.1680 H   0  0  0  0  0  0  0  0  0  0  0  0
   -6.9940   -1.3060   -0.0540 H   0  0  0  0  0  0  0  0  0  0  0  0
   -5.0850   -2.6710   -1.8960 H   0  0  0  0  0  0  0  0  0  0  0  0
   -6.4240   -3.3930   -0.8510 H   0  0  0  0  0  0  0  0  0  0  0  0
   -5.1510   -3.4490    1.0630 H   0  0  0  0  0  0  0  0  0  0  0  0
  1 15  1  0  0  0  0
  1  2  1  0  0  0  0
  2  3  1  0  0  0  0
  2 17  1  1  0  0  0
  3  4  1  0  0  0  0
  3 18  1  0  0  0  0
  4  5  2  0  0  0  0
  5  6  1  0  0  0  0
  5 20  1  0  0  0  0
  6 21  1  0  0  0  0
  7  6  1  0  0  0  0
  8  7  1  0  0  0  0
  8 22  1  0  0  0  0
  9  8  2  0  0  0  0
 10 11  2  0  0  0  0
 10  9  1  0  0  0  0
 11 12  1  0  0  0  0
 12  4  1  0  0  0  0
 12  7  2  0  0  0  0
 13  2  1  0  0  0  0
 13 29  1  0  0  0  0
 14 13  2  0  0  0  0
 16  1  1  0  0  0  0
 19  3  1  0  0  0  0
 23  9  1  0  0  0  0
 24 10  1  0  0  0  0
 25 11  1  0  0  0  0
 26 27  1  0  0  0  0
 27 33  1  0  0  0  0
 27 28  1  0  0  0  0
 28 29  1  0  0  0  0
 28 35  1  1  0  0  0
 29 36  1  0  0  0  0
 30 28  1  0  0  0  0
 31 30  2  0  0  0  0
 32 26  1  0  0  0  0
 34 27  1  0  0  0  0
 37 30  1  0  0  0  0
 37 38  1  0  0  0  0
 38 45  1  0  0  0  0
 38 46  1  0  0  0  0
 39 48  1  0  0  0  0
 39 38  1  0  0  0  0
 40 50  1  0  0  0  0
 40 39  1  0  0  0  0
 40 41  1  0  0  0  0
 41 37  1  0  0  0  0
 41 51  1  1  0  0  0
 42 41  1  0  0  0  0
 43 42  2  0  0  0  0
 44 42  1  0  0  0  0
 47 39  1  0  0  0  0
 49 40  1  0  0  0  0
M  END
$$$$
