WSQ.pdb
 OpenBabel07022419183D

 54 55  0  0  1  0  0  0  0  0999 V2000
    2.9770    2.0390   -0.7220 N   0  0  0  0  0  0  0  0  0  0  0  0
    2.0510    0.9700   -1.0490 C   0  0  1  0  0  0  0  0  0  0  0  0
    2.5170   -0.3880   -0.6840 C   0  0  0  0  0  0  0  0  0  0  0  0
    2.8140   -0.6650    0.7080 C   0  0  0  0  0  0  0  0  0  0  0  0
    1.9980   -1.3270    1.6090 C   0  0  0  0  0  0  0  0  0  0  0  0
    2.5740   -1.3960    2.8170 N   0  0  0  0  0  0  0  0  0  0  0  0
    3.7830   -0.7740    2.7150 C   0  0  0  0  0  0  0  0  0  0  0  0
    4.7950   -0.5510    3.6340 C   0  0  0  0  0  0  0  0  0  0  0  0
    5.9700    0.1060    3.3280 C   0  0  0  0  0  0  0  0  0  0  0  0
    6.0800    0.5390    2.0200 C   0  0  0  0  0  0  0  0  0  0  0  0
    5.1130    0.3450    1.0760 C   0  0  0  0  0  0  0  0  0  0  0  0
    3.9410   -0.3190    1.4170 C   0  0  0  0  0  0  0  0  0  0  0  0
    0.7070    1.3530   -0.6300 C   0  0  0  0  0  0  0  0  0  0  0  0
    0.5330    2.4620   -0.0110 O   0  0  0  0  0  0  0  0  0  0  0  0
    3.7760    2.0870   -1.3910 H   0  0  0  0  0  0  0  0  0  0  0  0
    2.5010    2.9550   -0.6060 H   0  0  0  0  0  0  0  0  0  0  0  0
    2.0420    0.9870   -2.1950 H   0  0  0  0  0  0  0  0  0  0  0  0
    1.7550   -1.1460   -1.0350 H   0  0  0  0  0  0  0  0  0  0  0  0
    3.4320   -0.6430   -1.2960 H   0  0  0  0  0  0  0  0  0  0  0  0
    1.0120   -1.7580    1.4130 H   0  0  0  0  0  0  0  0  0  0  0  0
    2.2480   -1.8160    3.7110 H   0  0  0  0  0  0  0  0  0  0  0  0
    4.6600   -0.9120    4.6500 H   0  0  0  0  0  0  0  0  0  0  0  0
    6.7500    0.2670    4.0720 H   0  0  0  0  0  0  0  0  0  0  0  0
    6.9890    1.0690    1.7090 H   0  0  0  0  0  0  0  0  0  0  0  0
    5.2060    0.6760    0.0500 H   0  0  0  0  0  0  0  0  0  0  0  0
   -3.8970    1.8530   -1.0570 O   0  0  0  0  0  0  0  0  0  0  0  0
   -2.6840    1.4130   -1.5820 C   0  0  0  0  0  0  0  0  0  0  0  0
   -1.7840    1.0920   -0.3920 C   0  0  2  0  0  0  0  0  0  0  0  0
   -0.4920    0.6230   -0.8320 N   0  0  0  0  0  0  0  0  0  0  0  0
   -2.4710    0.0230    0.3520 C   0  0  0  0  0  0  0  0  0  0  0  0
   -3.6280    0.3190    0.7980 O   0  0  0  0  0  0  0  0  0  0  0  0
   -3.8140    2.6890   -0.5550 H   0  0  0  0  0  0  0  0  0  0  0  0
   -2.2720    2.2080   -2.2050 H   0  0  0  0  0  0  0  0  0  0  0  0
   -2.9010    0.4760   -2.1320 H   0  0  0  0  0  0  0  0  0  0  0  0
   -1.7120    2.0380    0.1860 H   0  0  0  0  0  0  0  0  0  0  0  0
   -0.4340   -0.2830   -1.3160 H   0  0  0  0  0  0  0  0  0  0  0  0
   -5.8450   -2.4880   -1.8070 N   0  0  0  0  0  0  0  0  0  0  0  0
   -5.0910   -2.7800   -0.6290 C   0  0  0  0  0  0  0  0  0  0  0  0
   -5.6300   -2.5220    0.4670 O   0  0  0  0  0  0  0  0  0  0  0  0
   -3.7460   -3.3570   -0.6750 C   0  0  0  0  0  0  0  0  0  0  0  0
   -3.0480   -3.4740    0.6310 C   0  0  0  0  0  0  0  0  0  0  0  0
   -2.8030   -2.1980    1.3610 C   0  0  2  0  0  0  0  0  0  0  0  0
   -1.9900   -1.2680    0.6150 N   0  0  0  0  0  0  0  0  0  0  0  0
   -2.2100   -2.4670    2.7110 C   0  0  0  0  0  0  0  0  0  0  0  0
   -2.7790   -3.2770    3.4970 O   0  0  0  0  0  0  0  0  0  0  0  0
   -1.0540   -1.8790    3.1790 O   0  0  0  0  0  0  0  0  0  0  0  0
   -6.8740   -2.5260   -1.8370 H   0  0  0  0  0  0  0  0  0  0  0  0
   -5.2690   -2.2260   -2.6600 H   0  0  0  0  0  0  0  0  0  0  0  0
   -3.8720   -4.4120   -1.0610 H   0  0  0  0  0  0  0  0  0  0  0  0
   -3.1380   -2.8600   -1.4620 H   0  0  0  0  0  0  0  0  0  0  0  0
   -2.0330   -3.9130    0.4130 H   0  0  0  0  0  0  0  0  0  0  0  0
   -3.6190   -4.2040    1.2570 H   0  0  0  0  0  0  0  0  0  0  0  0
   -3.7980   -1.7300    1.5960 H   0  0  0  0  0  0  0  0  0  0  0  0
   -1.0660   -1.5430    0.2740 H   0  0  0  0  0  0  0  0  0  0  0  0
  1 16  1  0  0  0  0
  2 17  1  6  0  0  0
  2  1  1  0  0  0  0
  2  3  1  0  0  0  0
  2 13  1  0  0  0  0
  3  4  1  0  0  0  0
  4 12  1  0  0  0  0
  4  5  2  0  0  0  0
  5  6  1  0  0  0  0
  6 21  1  0  0  0  0
  7  6  1  0  0  0  0
  7  8  1  0  0  0  0
  8 22  1  0  0  0  0
  9  8  2  0  0  0  0
  9 23  1  0  0  0  0
 10  9  1  0  0  0  0
 11 12  1  0  0  0  0
 11 10  2  0  0  0  0
 12  7  2  0  0  0  0
 13 14  2  0  0  0  0
 15  1  1  0  0  0  0
 18  3  1  0  0  0  0
 19  3  1  0  0  0  0
 20  5  1  0  0  0  0
 24 10  1  0  0  0  0
 25 11  1  0  0  0  0
 26 32  1  0  0  0  0
 27 26  1  0  0  0  0
 27 28  1  0  0  0  0
 28 35  1  1  0  0  0
 28 30  1  0  0  0  0
 29 13  1  0  0  0  0
 29 28  1  0  0  0  0
 30 43  1  0  0  0  0
 30 31  2  0  0  0  0
 33 27  1  0  0  0  0
 34 27  1  0  0  0  0
 36 29  1  0  0  0  0
 37 38  1  0  0  0  0
 38 39  2  0  0  0  0
 40 38  1  0  0  0  0
 40 41  1  0  0  0  0
 41 52  1  0  0  0  0
 41 42  1  0  0  0  0
 42 53  1  1  0  0  0
 42 44  1  0  0  0  0
 43 42  1  0  0  0  0
 44 46  2  0  0  0  0
 44 45  1  0  0  0  0
 47 37  1  0  0  0  0
 48 37  1  0  0  0  0
 49 40  1  0  0  0  0
 50 40  1  0  0  0  0
 51 41  1  0  0  0  0
 54 43  1  0  0  0  0
M  END
$$$$
