WTC.pdb
 OpenBabel07022419183D

 51 52  0  0  1  0  0  0  0  0999 V2000
    1.2550    1.0050    0.9220 N   0  0  0  0  0  0  0  0  0  0  0  0
    1.3760    0.1470   -0.2180 C   0  0  1  0  0  0  0  0  0  0  0  0
    2.7210   -0.4980   -0.3910 C   0  0  0  0  0  0  0  0  0  0  0  0
    3.8410    0.4330   -0.5620 C   0  0  0  0  0  0  0  0  0  0  0  0
    4.4280    0.8050   -1.7830 C   0  0  0  0  0  0  0  0  0  0  0  0
    5.4190    1.6830   -1.5790 N   0  0  0  0  0  0  0  0  0  0  0  0
    5.5280    1.9220   -0.2590 C   0  0  0  0  0  0  0  0  0  0  0  0
    6.3760    2.7210    0.4740 C   0  0  0  0  0  0  0  0  0  0  0  0
    6.2830    2.7790    1.8640 C   0  0  0  0  0  0  0  0  0  0  0  0
    5.3270    2.0250    2.5130 C   0  0  0  0  0  0  0  0  0  0  0  0
    4.4930    1.2370    1.7570 C   0  0  0  0  0  0  0  0  0  0  0  0
    4.5520    1.1510    0.3770 C   0  0  0  0  0  0  0  0  0  0  0  0
    0.2970   -0.8980   -0.2150 C   0  0  0  0  0  0  0  0  0  0  0  0
    0.3160   -1.7830   -1.1290 O   0  0  0  0  0  0  0  0  0  0  0  0
    1.8500    1.8460    0.8590 H   0  0  0  0  0  0  0  0  0  0  0  0
    1.4310    0.5230    1.8120 H   0  0  0  0  0  0  0  0  0  0  0  0
    1.2130    0.8340   -1.1150 H   0  0  0  0  0  0  0  0  0  0  0  0
    2.6810   -1.1530   -1.3100 H   0  0  0  0  0  0  0  0  0  0  0  0
    2.9290   -1.1260    0.5070 H   0  0  0  0  0  0  0  0  0  0  0  0
    4.1310    0.4410   -2.7590 H   0  0  0  0  0  0  0  0  0  0  0  0
    6.0270    2.1230   -2.3190 H   0  0  0  0  0  0  0  0  0  0  0  0
    7.1260    3.3130   -0.0460 H   0  0  0  0  0  0  0  0  0  0  0  0
    6.9480    3.4050    2.4460 H   0  0  0  0  0  0  0  0  0  0  0  0
    5.2390    2.0590    3.6120 H   0  0  0  0  0  0  0  0  0  0  0  0
    3.7430    0.6400    2.2720 H   0  0  0  0  0  0  0  0  0  0  0  0
   -0.6860   -3.2220    2.6330 C   0  0  0  0  0  0  0  0  0  0  0  0
   -1.9400   -2.4980    2.1530 C   0  0  1  0  0  0  0  0  0  0  0  0
   -2.2830   -1.6190    3.1750 O   0  0  0  0  0  0  0  0  0  0  0  0
   -1.7270   -1.8330    0.8380 C   0  0  2  0  0  0  0  0  0  0  0  0
   -0.6840   -0.8450    0.8020 N   0  0  0  0  0  0  0  0  0  0  0  0
   -3.0160   -1.2620    0.2920 C   0  0  0  0  0  0  0  0  0  0  0  0
   -3.1200   -0.0820   -0.1210 O   0  0  0  0  0  0  0  0  0  0  0  0
    0.0270   -2.5270    3.1340 H   0  0  0  0  0  0  0  0  0  0  0  0
   -0.9210   -4.0630    3.3170 H   0  0  0  0  0  0  0  0  0  0  0  0
   -0.1640   -3.6050    1.7280 H   0  0  0  0  0  0  0  0  0  0  0  0
   -2.7300   -3.2580    2.0430 H   0  0  0  0  0  0  0  0  0  0  0  0
   -1.4960   -1.3480    3.7110 H   0  0  0  0  0  0  0  0  0  0  0  0
   -1.4680   -2.6300    0.0960 H   0  0  0  0  0  0  0  0  0  0  0  0
   -0.6890   -0.1050    1.5490 H   0  0  0  0  0  0  0  0  0  0  0  0
   -4.1880   -2.0630    0.2250 N   0  0  0  0  0  0  0  0  0  0  0  0
   -5.4560   -1.5800   -0.2890 C   0  0  1  0  0  0  0  0  0  0  0  0
   -5.8870   -2.4150   -1.4980 C   0  0  0  0  0  0  0  0  0  0  0  0
   -6.0860   -4.1530   -1.0610 S   0  0  0  0  0  0  0  0  0  0  0  0
   -6.4830   -1.7860    0.7500 C   0  0  0  0  0  0  0  0  0  0  0  0
   -7.6630   -1.4210    0.5260 O   0  0  0  0  0  0  0  0  0  0  0  0
   -6.1580   -2.3730    1.9560 O   0  0  0  0  0  0  0  0  0  0  0  0
   -4.1160   -3.0490    0.5660 H   0  0  0  0  0  0  0  0  0  0  0  0
   -5.3760   -0.5260   -0.6290 H   0  0  0  0  0  0  0  0  0  0  0  0
   -5.1830   -2.2900   -2.3440 H   0  0  0  0  0  0  0  0  0  0  0  0
   -6.8790   -2.0230   -1.8120 H   0  0  0  0  0  0  0  0  0  0  0  0
   -5.0590   -4.6540   -0.2700 H   0  0  0  0  0  0  0  0  0  0  0  0
  1 16  1  0  0  0  0
  2 17  1  6  0  0  0
  2 13  1  0  0  0  0
  2  1  1  0  0  0  0
  3  2  1  0  0  0  0
  3 19  1  0  0  0  0
  4  3  1  0  0  0  0
  4 12  1  0  0  0  0
  5  6  1  0  0  0  0
  5  4  2  0  0  0  0
  6  7  1  0  0  0  0
  7 12  2  0  0  0  0
  7  8  1  0  0  0  0
  8  9  2  0  0  0  0
  9 23  1  0  0  0  0
  9 10  1  0  0  0  0
 10 24  1  0  0  0  0
 11 25  1  0  0  0  0
 11 10  2  0  0  0  0
 12 11  1  0  0  0  0
 13 30  1  0  0  0  0
 14 13  2  0  0  0  0
 15  1  1  0  0  0  0
 18  3  1  0  0  0  0
 20  5  1  0  0  0  0
 21  6  1  0  0  0  0
 22  8  1  0  0  0  0
 26 33  1  0  0  0  0
 26 34  1  0  0  0  0
 27 36  1  6  0  0  0
 27 26  1  0  0  0  0
 27 28  1  0  0  0  0
 28 37  1  0  0  0  0
 29 38  1  6  0  0  0
 29 27  1  0  0  0  0
 30 29  1  0  0  0  0
 30 39  1  0  0  0  0
 31 29  1  0  0  0  0
 32 31  2  0  0  0  0
 35 26  1  0  0  0  0
 40 31  1  0  0  0  0
 40 47  1  0  0  0  0
 41 48  1  6  0  0  0
 41 40  1  0  0  0  0
 41 44  1  0  0  0  0
 42 43  1  0  0  0  0
 42 41  1  0  0  0  0
 43 51  1  0  0  0  0
 44 46  1  0  0  0  0
 45 44  2  0  0  0  0
 49 42  1  0  0  0  0
 50 42  1  0  0  0  0
M  END
$$$$
