WTH.pdb
 OpenBabel07022419183D

 57 59  0  0  1  0  0  0  0  0999 V2000
    3.2200   -0.8770    0.5030 N   0  0  0  0  0  0  0  0  0  0  0  0
    2.9650   -0.5000    1.8520 C   0  0  1  0  0  0  0  0  0  0  0  0
    3.6660    0.7170    2.3470 C   0  0  0  0  0  0  0  0  0  0  0  0
    3.3550    1.9600    1.5890 C   0  0  0  0  0  0  0  0  0  0  0  0
    2.4580    2.9540    1.9350 C   0  0  0  0  0  0  0  0  0  0  0  0
    2.4690    3.8700    0.9750 N   0  0  0  0  0  0  0  0  0  0  0  0
    3.3380    3.5310   -0.0040 C   0  0  0  0  0  0  0  0  0  0  0  0
    3.6970    4.1630   -1.1930 C   0  0  0  0  0  0  0  0  0  0  0  0
    4.6360    3.5740   -2.0080 C   0  0  0  0  0  0  0  0  0  0  0  0
    5.2010    2.3760   -1.6330 C   0  0  0  0  0  0  0  0  0  0  0  0
    4.8390    1.7600   -0.4560 C   0  0  0  0  0  0  0  0  0  0  0  0
    3.8950    2.3280    0.3850 C   0  0  0  0  0  0  0  0  0  0  0  0
    1.5070   -0.3750    2.1470 C   0  0  0  0  0  0  0  0  0  0  0  0
    1.1340   -0.0510    3.3140 O   0  0  0  0  0  0  0  0  0  0  0  0
    2.5860   -1.7070    0.3000 H   0  0  0  0  0  0  0  0  0  0  0  0
    4.1800   -1.2590    0.3500 H   0  0  0  0  0  0  0  0  0  0  0  0
    3.3150   -1.3570    2.4930 H   0  0  0  0  0  0  0  0  0  0  0  0
    3.3300    0.8980    3.3960 H   0  0  0  0  0  0  0  0  0  0  0  0
    4.7590    0.5390    2.4040 H   0  0  0  0  0  0  0  0  0  0  0  0
    1.8590    2.9860    2.8180 H   0  0  0  0  0  0  0  0  0  0  0  0
    1.9040    4.7580    0.9220 H   0  0  0  0  0  0  0  0  0  0  0  0
    3.2440    5.1000   -1.4690 H   0  0  0  0  0  0  0  0  0  0  0  0
    4.9420    4.0460   -2.9530 H   0  0  0  0  0  0  0  0  0  0  0  0
    5.9370    1.9260   -2.2820 H   0  0  0  0  0  0  0  0  0  0  0  0
    5.2830    0.8140   -0.1380 H   0  0  0  0  0  0  0  0  0  0  0  0
   -2.8560    1.0240    0.7900 C   0  0  0  0  0  0  0  0  0  0  0  0
   -1.4160    0.6650    0.6170 C   0  0  1  0  0  0  0  0  0  0  0  0
   -0.6770    1.8040    0.9750 O   0  0  0  0  0  0  0  0  0  0  0  0
   -0.9450   -0.4730    1.4990 C   0  0  2  0  0  0  0  0  0  0  0  0
    0.4910   -0.5960    1.2030 N   0  0  0  0  0  0  0  0  0  0  0  0
   -1.5510   -1.7790    1.1500 C   0  0  0  0  0  0  0  0  0  0  0  0
   -0.8310   -2.6890    0.6350 O   0  0  0  0  0  0  0  0  0  0  0  0
   -2.9780    2.0490    0.3520 H   0  0  0  0  0  0  0  0  0  0  0  0
   -3.2130    0.9880    1.8290 H   0  0  0  0  0  0  0  0  0  0  0  0
   -3.4620    0.3580    0.1440 H   0  0  0  0  0  0  0  0  0  0  0  0
   -1.2110    0.4530   -0.4490 H   0  0  0  0  0  0  0  0  0  0  0  0
   -0.4010    2.3080    0.1690 H   0  0  0  0  0  0  0  0  0  0  0  0
   -1.1100   -0.1840    2.5410 H   0  0  0  0  0  0  0  0  0  0  0  0
    0.7380   -0.8620    0.2350 H   0  0  0  0  0  0  0  0  0  0  0  0
   -2.9100   -2.1030    1.3520 N   0  0  0  0  0  0  0  0  0  0  0  0
   -3.4750   -3.4330    0.9870 C   0  0  1  0  0  0  0  0  0  0  0  0
   -3.5710   -3.5020   -0.4890 C   0  0  0  0  0  0  0  0  0  0  0  0
   -4.1240   -4.6920   -1.1000 C   0  0  0  0  0  0  0  0  0  0  0  0
   -4.2430   -4.8490   -2.4650 C   0  0  0  0  0  0  0  0  0  0  0  0
   -4.7870   -6.0380   -2.7060 N   0  0  0  0  0  0  0  0  0  0  0  0
   -5.0020   -6.6110   -1.5100 C   0  0  0  0  0  0  0  0  0  0  0  0
   -4.5980   -5.7890   -0.5320 N   0  0  0  0  0  0  0  0  0  0  0  0
   -2.7090   -4.4870    1.6560 C   0  0  0  0  0  0  0  0  0  0  0  0
   -3.0030   -5.6830    1.4750 O   0  0  0  0  0  0  0  0  0  0  0  0
   -1.6320   -4.2640    2.5180 O   0  0  0  0  0  0  0  0  0  0  0  0
   -3.5140   -1.3680    1.7770 H   0  0  0  0  0  0  0  0  0  0  0  0
   -4.4920   -3.4460    1.4300 H   0  0  0  0  0  0  0  0  0  0  0  0
   -2.5030   -3.4160   -0.8760 H   0  0  0  0  0  0  0  0  0  0  0  0
   -4.0360   -2.5560   -0.8890 H   0  0  0  0  0  0  0  0  0  0  0  0
   -3.9480   -4.1340   -3.2480 H   0  0  0  0  0  0  0  0  0  0  0  0
   -4.9950   -6.4260   -3.6620 H   0  0  0  0  0  0  0  0  0  0  0  0
   -5.4450   -7.5990   -1.4300 H   0  0  0  0  0  0  0  0  0  0  0  0
  1  2  1  0  0  0  0
  2 13  1  0  0  0  0
  2  3  1  0  0  0  0
  2 17  1  1  0  0  0
  3 19  1  0  0  0  0
  3 18  1  0  0  0  0
  4  5  2  0  0  0  0
  4  3  1  0  0  0  0
  5 20  1  0  0  0  0
  6  5  1  0  0  0  0
  7 12  1  0  0  0  0
  7  6  1  0  0  0  0
  8  7  2  0  0  0  0
  9 10  2  0  0  0  0
  9  8  1  0  0  0  0
 10 11  1  0  0  0  0
 11 25  1  0  0  0  0
 11 12  2  0  0  0  0
 12  4  1  0  0  0  0
 13 14  2  0  0  0  0
 15  1  1  0  0  0  0
 16  1  1  0  0  0  0
 21  6  1  0  0  0  0
 22  8  1  0  0  0  0
 23  9  1  0  0  0  0
 24 10  1  0  0  0  0
 26 34  1  0  0  0  0
 27 36  1  6  0  0  0
 27 26  1  0  0  0  0
 27 28  1  0  0  0  0
 27 29  1  0  0  0  0
 29 38  1  1  0  0  0
 30 29  1  0  0  0  0
 30 13  1  0  0  0  0
 31 40  1  0  0  0  0
 31 29  1  0  0  0  0
 32 31  2  0  0  0  0
 33 26  1  0  0  0  0
 35 26  1  0  0  0  0
 37 28  1  0  0  0  0
 39 30  1  0  0  0  0
 40 51  1  0  0  0  0
 41 40  1  0  0  0  0
 41 52  1  1  0  0  0
 41 48  1  0  0  0  0
 42 41  1  0  0  0  0
 43 47  1  0  0  0  0
 43 42  1  0  0  0  0
 44 43  2  0  0  0  0
 45 44  1  0  0  0  0
 45 46  1  0  0  0  0
 46 57  1  0  0  0  0
 46 47  2  0  0  0  0
 48 50  1  0  0  0  0
 49 48  2  0  0  0  0
 53 42  1  0  0  0  0
 54 42  1  0  0  0  0
 55 44  1  0  0  0  0
 56 45  1  0  0  0  0
M  END
$$$$
