WTM.pdb
 OpenBabel07022419183D

 57 58  0  0  1  0  0  0  0  0999 V2000
    1.4710   -1.2680   -2.1660 N   0  0  0  0  0  0  0  0  0  0  0  0
    2.1280   -1.0120   -0.8660 C   0  0  1  0  0  0  0  0  0  0  0  0
    3.1750    0.0400   -1.0460 C   0  0  0  0  0  0  0  0  0  0  0  0
    3.9220    0.4470    0.1460 C   0  0  0  0  0  0  0  0  0  0  0  0
    5.1180   -0.0690    0.6060 C   0  0  0  0  0  0  0  0  0  0  0  0
    5.4470    0.5440    1.7450 N   0  0  0  0  0  0  0  0  0  0  0  0
    4.5050    1.4580    2.0620 C   0  0  0  0  0  0  0  0  0  0  0  0
    4.3630    2.3610    3.1050 C   0  0  0  0  0  0  0  0  0  0  0  0
    3.2880    3.2240    3.1900 C   0  0  0  0  0  0  0  0  0  0  0  0
    2.3420    3.1620    2.1920 C   0  0  0  0  0  0  0  0  0  0  0  0
    2.4620    2.2770    1.1520 C   0  0  0  0  0  0  0  0  0  0  0  0
    3.5560    1.4070    1.0780 C   0  0  0  0  0  0  0  0  0  0  0  0
    1.1560   -0.7410    0.1830 C   0  0  0  0  0  0  0  0  0  0  0  0
    1.4720   -0.6660    1.3990 O   0  0  0  0  0  0  0  0  0  0  0  0
    2.1790   -1.6300   -2.8330 H   0  0  0  0  0  0  0  0  0  0  0  0
    1.1160   -0.3670   -2.5650 H   0  0  0  0  0  0  0  0  0  0  0  0
    2.6930   -1.9670   -0.6870 H   0  0  0  0  0  0  0  0  0  0  0  0
    2.6860    0.9310   -1.5140 H   0  0  0  0  0  0  0  0  0  0  0  0
    3.9460   -0.2610   -1.8070 H   0  0  0  0  0  0  0  0  0  0  0  0
    5.7010   -0.8390    0.1350 H   0  0  0  0  0  0  0  0  0  0  0  0
    6.2940    0.3940    2.3610 H   0  0  0  0  0  0  0  0  0  0  0  0
    5.1330    2.3720    3.8640 H   0  0  0  0  0  0  0  0  0  0  0  0
    3.2250    3.9190    4.0360 H   0  0  0  0  0  0  0  0  0  0  0  0
    1.4730    3.8290    2.2190 H   0  0  0  0  0  0  0  0  0  0  0  0
    1.7230    2.2210    0.3590 H   0  0  0  0  0  0  0  0  0  0  0  0
   -1.4350    2.2240    0.7590 C   0  0  0  0  0  0  0  0  0  0  0  0
   -2.0780    0.8780    0.7920 C   0  0  1  0  0  0  0  0  0  0  0  0
   -2.8820    0.6990   -0.3430 O   0  0  0  0  0  0  0  0  0  0  0  0
   -1.1660   -0.2760    1.0020 C   0  0  2  0  0  0  0  0  0  0  0  0
   -0.2480   -0.5380   -0.0850 N   0  0  0  0  0  0  0  0  0  0  0  0
   -2.0170   -1.5160    1.1870 C   0  0  0  0  0  0  0  0  0  0  0  0
   -2.9020   -1.5760    2.0790 O   0  0  0  0  0  0  0  0  0  0  0  0
   -0.6270    2.3010   -0.0100 H   0  0  0  0  0  0  0  0  0  0  0  0
   -0.9920    2.5200    1.7300 H   0  0  0  0  0  0  0  0  0  0  0  0
   -2.2560    2.9640    0.5350 H   0  0  0  0  0  0  0  0  0  0  0  0
   -2.8010    0.8890    1.6590 H   0  0  0  0  0  0  0  0  0  0  0  0
   -3.6970    1.2520   -0.2020 H   0  0  0  0  0  0  0  0  0  0  0  0
   -0.6160   -0.1420    1.9540 H   0  0  0  0  0  0  0  0  0  0  0  0
   -0.5480   -0.5880   -1.0660 H   0  0  0  0  0  0  0  0  0  0  0  0
   -5.4930   -2.0790    0.0150 C   0  0  0  0  0  0  0  0  0  0  0  0
   -5.3140   -3.1750   -1.3780 S   0  0  0  0  0  0  0  0  0  0  0  0
   -3.6540   -3.5710   -1.8640 C   0  0  0  0  0  0  0  0  0  0  0  0
   -2.8510   -4.4080   -0.9450 C   0  0  0  0  0  0  0  0  0  0  0  0
   -2.5690   -3.8710    0.4200 C   0  0  2  0  0  0  0  0  0  0  0  0
   -1.8390   -2.6400    0.3630 N   0  0  0  0  0  0  0  0  0  0  0  0
   -1.6570   -4.9010    1.0580 C   0  0  0  0  0  0  0  0  0  0  0  0
   -2.0050   -6.0740    1.2510 O   0  0  0  0  0  0  0  0  0  0  0  0
   -0.3960   -4.4890    1.4260 O   0  0  0  0  0  0  0  0  0  0  0  0
   -5.5470   -2.6630    0.9530 H   0  0  0  0  0  0  0  0  0  0  0  0
   -4.6940   -1.3150    0.0810 H   0  0  0  0  0  0  0  0  0  0  0  0
   -6.4700   -1.4980   -0.0260 H   0  0  0  0  0  0  0  0  0  0  0  0
   -3.7280   -4.1490   -2.8380 H   0  0  0  0  0  0  0  0  0  0  0  0
   -3.0570   -2.6590   -2.1700 H   0  0  0  0  0  0  0  0  0  0  0  0
   -3.2220   -5.4770   -0.8950 H   0  0  0  0  0  0  0  0  0  0  0  0
   -1.8350   -4.5300   -1.4440 H   0  0  0  0  0  0  0  0  0  0  0  0
   -3.4530   -3.7460    1.0750 H   0  0  0  0  0  0  0  0  0  0  0  0
   -1.0810   -2.5470   -0.3720 H   0  0  0  0  0  0  0  0  0  0  0  0
  1  2  1  0  0  0  0
  2 17  1  1  0  0  0
  2 13  1  0  0  0  0
  3  2  1  0  0  0  0
  3  4  1  0  0  0  0
  4  5  2  0  0  0  0
  4 12  1  0  0  0  0
  5  6  1  0  0  0  0
  6  7  1  0  0  0  0
  6 21  1  0  0  0  0
  7  8  1  0  0  0  0
  8  9  2  0  0  0  0
  8 22  1  0  0  0  0
  9 23  1  0  0  0  0
 10 24  1  0  0  0  0
 10  9  1  0  0  0  0
 11 10  2  0  0  0  0
 12 11  1  0  0  0  0
 12  7  2  0  0  0  0
 13 14  2  0  0  0  0
 15  1  1  0  0  0  0
 16  1  1  0  0  0  0
 18  3  1  0  0  0  0
 19  3  1  0  0  0  0
 20  5  1  0  0  0  0
 25 11  1  0  0  0  0
 26 27  1  0  0  0  0
 26 34  1  0  0  0  0
 27 29  1  0  0  0  0
 27 36  1  1  0  0  0
 28 37  1  0  0  0  0
 28 27  1  0  0  0  0
 29 31  1  0  0  0  0
 29 38  1  1  0  0  0
 30 13  1  0  0  0  0
 30 29  1  0  0  0  0
 31 32  2  0  0  0  0
 33 26  1  0  0  0  0
 35 26  1  0  0  0  0
 39 30  1  0  0  0  0
 40 50  1  0  0  0  0
 40 49  1  0  0  0  0
 41 40  1  0  0  0  0
 42 41  1  0  0  0  0
 42 43  1  0  0  0  0
 43 54  1  0  0  0  0
 43 44  1  0  0  0  0
 44 46  1  0  0  0  0
 44 56  1  1  0  0  0
 45 44  1  0  0  0  0
 45 31  1  0  0  0  0
 46 47  2  0  0  0  0
 46 48  1  0  0  0  0
 51 40  1  0  0  0  0
 52 42  1  0  0  0  0
 53 42  1  0  0  0  0
 55 43  1  0  0  0  0
 57 45  1  0  0  0  0
M  END
$$$$
