WTP.pdb
 OpenBabel07022419183D

 54 56  0  0  1  0  0  0  0  0999 V2000
   -0.8210    1.2230   -1.8290 N   0  0  0  0  0  0  0  0  0  0  0  0
    0.4470    0.7570   -1.2660 C   0  0  1  0  0  0  0  0  0  0  0  0
    1.4260    1.8590   -1.2040 C   0  0  0  0  0  0  0  0  0  0  0  0
    2.7280    1.4680   -0.6420 C   0  0  0  0  0  0  0  0  0  0  0  0
    3.8090    0.9350   -1.3660 C   0  0  0  0  0  0  0  0  0  0  0  0
    4.8110    0.6440   -0.5390 N   0  0  0  0  0  0  0  0  0  0  0  0
    4.4490    0.9620    0.7340 C   0  0  0  0  0  0  0  0  0  0  0  0
    5.1140    0.8800    1.9370 C   0  0  0  0  0  0  0  0  0  0  0  0
    4.5470    1.2950    3.1210 C   0  0  0  0  0  0  0  0  0  0  0  0
    3.2530    1.8030    3.0190 C   0  0  0  0  0  0  0  0  0  0  0  0
    2.5620    1.8990    1.8460 C   0  0  0  0  0  0  0  0  0  0  0  0
    3.1650    1.4710    0.6730 C   0  0  0  0  0  0  0  0  0  0  0  0
    0.2410    0.0070   -0.0290 C   0  0  0  0  0  0  0  0  0  0  0  0
    1.1250   -0.5310    0.6690 O   0  0  0  0  0  0  0  0  0  0  0  0
   -1.4200    0.3980   -2.0540 H   0  0  0  0  0  0  0  0  0  0  0  0
   -0.5600    1.6440   -2.7630 H   0  0  0  0  0  0  0  0  0  0  0  0
    0.8380    0.0440   -2.0740 H   0  0  0  0  0  0  0  0  0  0  0  0
    1.6240    2.2620   -2.2380 H   0  0  0  0  0  0  0  0  0  0  0  0
    0.9990    2.6770   -0.5670 H   0  0  0  0  0  0  0  0  0  0  0  0
    3.7740    0.8060   -2.4370 H   0  0  0  0  0  0  0  0  0  0  0  0
    5.7390    0.2400   -0.7680 H   0  0  0  0  0  0  0  0  0  0  0  0
    6.1250    0.4760    1.9800 H   0  0  0  0  0  0  0  0  0  0  0  0
    5.0620    1.2350    4.0710 H   0  0  0  0  0  0  0  0  0  0  0  0
    2.7450    2.1500    3.9280 H   0  0  0  0  0  0  0  0  0  0  0  0
    1.5540    2.2980    1.7760 H   0  0  0  0  0  0  0  0  0  0  0  0
   -1.6230    1.1770    3.1400 C   0  0  0  0  0  0  0  0  0  0  0  0
   -2.2450   -0.0970    2.6790 C   0  0  1  0  0  0  0  0  0  0  0  0
   -3.4800    0.2070    2.1060 O   0  0  0  0  0  0  0  0  0  0  0  0
   -1.3770   -0.8900    1.7120 C   0  0  2  0  0  0  0  0  0  0  0  0
   -1.1000   -0.1860    0.5180 N   0  0  0  0  0  0  0  0  0  0  0  0
   -2.0610   -2.1520    1.4850 C   0  0  0  0  0  0  0  0  0  0  0  0
   -2.3940   -2.7690    2.5830 O   0  0  0  0  0  0  0  0  0  0  0  0
   -0.5290    1.1440    3.2710 H   0  0  0  0  0  0  0  0  0  0  0  0
   -1.9420    2.0500    2.5200 H   0  0  0  0  0  0  0  0  0  0  0  0
   -2.0360    1.3970    4.1590 H   0  0  0  0  0  0  0  0  0  0  0  0
   -2.4340   -0.7490    3.5480 H   0  0  0  0  0  0  0  0  0  0  0  0
   -3.3560    0.7140    1.2510 H   0  0  0  0  0  0  0  0  0  0  0  0
   -0.4480   -1.1440    2.2990 H   0  0  0  0  0  0  0  0  0  0  0  0
   -1.8580    0.2520   -0.0500 H   0  0  0  0  0  0  0  0  0  0  0  0
   -2.4210   -2.8200    0.3050 N   0  0  0  0  0  0  0  0  0  0  0  0
   -2.1500   -2.3780   -1.0370 C   0  0  0  0  0  0  0  0  0  0  0  0
   -2.5180   -3.5720   -1.9230 C   0  0  0  0  0  0  0  0  0  0  0  0
   -3.6890   -4.1180   -1.1430 C   0  0  0  0  0  0  0  0  0  0  0  0
   -3.1470   -4.1010    0.2540 C   0  0  1  0  0  0  0  0  0  0  0  0
   -2.1600   -5.1680    0.5390 C   0  0  0  0  0  0  0  0  0  0  0  0
   -2.5170   -6.3900    0.5110 O   0  0  0  0  0  0  0  0  0  0  0  0
   -0.8390   -4.8660    0.8400 O   0  0  0  0  0  0  0  0  0  0  0  0
   -2.7090   -1.4940   -1.3570 H   0  0  0  0  0  0  0  0  0  0  0  0
   -1.0330   -2.2290   -1.1010 H   0  0  0  0  0  0  0  0  0  0  0  0
   -2.8190   -3.2410   -2.9290 H   0  0  0  0  0  0  0  0  0  0  0  0
   -1.6930   -4.2840   -1.9170 H   0  0  0  0  0  0  0  0  0  0  0  0
   -3.9670   -5.1410   -1.4790 H   0  0  0  0  0  0  0  0  0  0  0  0
   -4.5700   -3.4420   -1.1700 H   0  0  0  0  0  0  0  0  0  0  0  0
   -3.9610   -4.0920    1.0240 H   0  0  0  0  0  0  0  0  0  0  0  0
  1  2  1  0  0  0  0
  2 17  1  6  0  0  0
  2  3  1  0  0  0  0
  2 13  1  0  0  0  0
  3  4  1  0  0  0  0
  3 19  1  0  0  0  0
  4 12  1  0  0  0  0
  5  4  2  0  0  0  0
  5  6  1  0  0  0  0
  6  7  1  0  0  0  0
  7  8  1  0  0  0  0
  8 22  1  0  0  0  0
  8  9  2  0  0  0  0
  9 23  1  0  0  0  0
 10  9  1  0  0  0  0
 10 24  1  0  0  0  0
 11 10  2  0  0  0  0
 12  7  2  0  0  0  0
 12 11  1  0  0  0  0
 13 30  1  0  0  0  0
 13 14  2  0  0  0  0
 15  1  1  0  0  0  0
 16  1  1  0  0  0  0
 18  3  1  0  0  0  0
 20  5  1  0  0  0  0
 21  6  1  0  0  0  0
 25 11  1  0  0  0  0
 26 33  1  0  0  0  0
 26 35  1  0  0  0  0
 27 26  1  0  0  0  0
 27 36  1  1  0  0  0
 28 27  1  0  0  0  0
 29 38  1  1  0  0  0
 29 27  1  0  0  0  0
 30 29  1  0  0  0  0
 31 29  1  0  0  0  0
 31 32  2  0  0  0  0
 34 26  1  0  0  0  0
 37 28  1  0  0  0  0
 39 30  1  0  0  0  0
 40 31  1  0  0  0  0
 41 40  1  0  0  0  0
 42 51  1  0  0  0  0
 42 43  1  0  0  0  0
 42 41  1  0  0  0  0
 43 44  1  0  0  0  0
 44 40  1  0  0  0  0
 44 45  1  0  0  0  0
 44 54  1  1  0  0  0
 45 47  1  0  0  0  0
 46 45  2  0  0  0  0
 48 41  1  0  0  0  0
 49 41  1  0  0  0  0
 50 42  1  0  0  0  0
 52 43  1  0  0  0  0
 53 43  1  0  0  0  0
M  END
$$$$
