WTQ.pdb
 OpenBabel07022419183D

 57 58  0  0  1  0  0  0  0  0999 V2000
    0.8990    0.1630    2.8780 N   0  0  0  0  0  0  0  0  0  0  0  0
    0.9220    0.4950    1.4800 C   0  0  1  0  0  0  0  0  0  0  0  0
    2.0340   -0.2860    0.8330 C   0  0  0  0  0  0  0  0  0  0  0  0
    3.3020    0.1230    1.5090 C   0  0  0  0  0  0  0  0  0  0  0  0
    4.0450   -0.5620    2.4510 C   0  0  0  0  0  0  0  0  0  0  0  0
    5.1190    0.1690    2.7960 N   0  0  0  0  0  0  0  0  0  0  0  0
    5.1310    1.3300    2.1180 C   0  0  0  0  0  0  0  0  0  0  0  0
    6.0020    2.4120    2.1090 C   0  0  0  0  0  0  0  0  0  0  0  0
    5.7790    3.5060    1.3000 C   0  0  0  0  0  0  0  0  0  0  0  0
    4.6560    3.4900    0.4960 C   0  0  0  0  0  0  0  0  0  0  0  0
    3.7830    2.4020    0.5080 C   0  0  0  0  0  0  0  0  0  0  0  0
    4.0060    1.3150    1.3140 C   0  0  0  0  0  0  0  0  0  0  0  0
   -0.3870    0.3160    0.8220 C   0  0  0  0  0  0  0  0  0  0  0  0
   -0.4600    0.5820   -0.3970 O   0  0  0  0  0  0  0  0  0  0  0  0
    0.1580    0.6670    3.4110 H   0  0  0  0  0  0  0  0  0  0  0  0
    1.8170    0.1700    3.3270 H   0  0  0  0  0  0  0  0  0  0  0  0
    1.2050    1.5730    1.4030 H   0  0  0  0  0  0  0  0  0  0  0  0
    1.9350   -1.3900    1.0100 H   0  0  0  0  0  0  0  0  0  0  0  0
    2.1080   -0.1060   -0.2640 H   0  0  0  0  0  0  0  0  0  0  0  0
    3.7550   -1.5510    2.8260 H   0  0  0  0  0  0  0  0  0  0  0  0
    5.8220   -0.1530    3.4960 H   0  0  0  0  0  0  0  0  0  0  0  0
    6.8860    2.4350    2.7350 H   0  0  0  0  0  0  0  0  0  0  0  0
    6.4460    4.3690    1.2710 H   0  0  0  0  0  0  0  0  0  0  0  0
    4.4130    4.3160   -0.1690 H   0  0  0  0  0  0  0  0  0  0  0  0
    2.8910    2.3770   -0.1220 H   0  0  0  0  0  0  0  0  0  0  0  0
   -2.9650    2.0160   -0.1140 C   0  0  0  0  0  0  0  0  0  0  0  0
   -3.6120    0.9010    0.6140 C   0  0  1  0  0  0  0  0  0  0  0  0
   -4.8480    0.5620    0.0220 O   0  0  0  0  0  0  0  0  0  0  0  0
   -2.8330   -0.3190    0.8890 C   0  0  2  0  0  0  0  0  0  0  0  0
   -1.5470   -0.1360    1.4960 N   0  0  0  0  0  0  0  0  0  0  0  0
   -2.7360   -1.2980   -0.2210 C   0  0  0  0  0  0  0  0  0  0  0  0
   -3.6850   -1.4230   -1.0430 O   0  0  0  0  0  0  0  0  0  0  0  0
   -2.1510    2.5080    0.4550 H   0  0  0  0  0  0  0  0  0  0  0  0
   -2.7170    1.8370   -1.1700 H   0  0  0  0  0  0  0  0  0  0  0  0
   -3.7600    2.8350   -0.1710 H   0  0  0  0  0  0  0  0  0  0  0  0
   -3.9210    1.3280    1.6200 H   0  0  0  0  0  0  0  0  0  0  0  0
   -5.3090   -0.1290    0.5450 H   0  0  0  0  0  0  0  0  0  0  0  0
   -3.4580   -0.8540    1.7300 H   0  0  0  0  0  0  0  0  0  0  0  0
   -1.3870   -0.3390    2.5370 H   0  0  0  0  0  0  0  0  0  0  0  0
   -3.6100   -6.3030    0.4610 N   0  0  0  0  0  0  0  0  0  0  0  0
   -2.9330   -5.6290   -0.5870 C   0  0  0  0  0  0  0  0  0  0  0  0
   -1.8530   -6.0770   -1.0070 O   0  0  0  0  0  0  0  0  0  0  0  0
   -3.5280   -4.3960   -1.1710 C   0  0  0  0  0  0  0  0  0  0  0  0
   -2.5920   -3.6570   -2.0520 C   0  0  0  0  0  0  0  0  0  0  0  0
   -1.3660   -3.1060   -1.3890 C   0  0  2  0  0  0  0  0  0  0  0  0
   -1.5990   -2.1020   -0.3750 N   0  0  0  0  0  0  0  0  0  0  0  0
   -0.2990   -2.8230   -2.3280 C   0  0  0  0  0  0  0  0  0  0  0  0
    0.0120   -3.6220   -3.2760 O   0  0  0  0  0  0  0  0  0  0  0  0
    0.4780   -1.6690   -2.2820 O   0  0  0  0  0  0  0  0  0  0  0  0
   -4.4870   -6.8460    0.3210 H   0  0  0  0  0  0  0  0  0  0  0  0
   -3.2000   -6.2440    1.4170 H   0  0  0  0  0  0  0  0  0  0  0  0
   -4.3820   -4.7420   -1.8390 H   0  0  0  0  0  0  0  0  0  0  0  0
   -4.0170   -3.8570   -0.3640 H   0  0  0  0  0  0  0  0  0  0  0  0
   -2.1950   -4.4130   -2.8050 H   0  0  0  0  0  0  0  0  0  0  0  0
   -3.1290   -2.9290   -2.6980 H   0  0  0  0  0  0  0  0  0  0  0  0
   -1.0240   -4.0200   -0.7540 H   0  0  0  0  0  0  0  0  0  0  0  0
   -0.8290   -1.9680    0.3620 H   0  0  0  0  0  0  0  0  0  0  0  0
  1 16  1  0  0  0  0
  1 15  1  0  0  0  0
  2 17  1  6  0  0  0
  2  1  1  0  0  0  0
  3 18  1  0  0  0  0
  3  2  1  0  0  0  0
  3  4  1  0  0  0  0
  4  5  2  0  0  0  0
  5  6  1  0  0  0  0
  5 20  1  0  0  0  0
  6 21  1  0  0  0  0
  7  6  1  0  0  0  0
  8  7  1  0  0  0  0
  8 22  1  0  0  0  0
  9  8  2  0  0  0  0
 10 11  2  0  0  0  0
 10  9  1  0  0  0  0
 11 12  1  0  0  0  0
 12  4  1  0  0  0  0
 12  7  2  0  0  0  0
 13  2  1  0  0  0  0
 13 30  1  0  0  0  0
 14 13  2  0  0  0  0
 19  3  1  0  0  0  0
 23  9  1  0  0  0  0
 24 10  1  0  0  0  0
 25 11  1  0  0  0  0
 26 33  1  0  0  0  0
 26 27  1  0  0  0  0
 27 29  1  0  0  0  0
 27 36  1  1  0  0  0
 28 37  1  0  0  0  0
 28 27  1  0  0  0  0
 29 30  1  0  0  0  0
 29 38  1  1  0  0  0
 30 39  1  0  0  0  0
 31 29  1  0  0  0  0
 32 31  2  0  0  0  0
 34 26  1  0  0  0  0
 35 26  1  0  0  0  0
 40 51  1  0  0  0  0
 41 40  1  0  0  0  0
 42 41  2  0  0  0  0
 43 41  1  0  0  0  0
 43 53  1  0  0  0  0
 44 45  1  0  0  0  0
 44 43  1  0  0  0  0
 45 56  1  1  0  0  0
 45 46  1  0  0  0  0
 46 31  1  0  0  0  0
 46 57  1  0  0  0  0
 47 49  1  0  0  0  0
 47 45  1  0  0  0  0
 48 47  2  0  0  0  0
 50 40  1  0  0  0  0
 52 43  1  0  0  0  0
 54 44  1  0  0  0  0
 55 44  1  0  0  0  0
M  END
$$$$
