WTR.pdb
 OpenBabel07022419183D

 63 64  0  0  1  0  0  0  0  0999 V2000
    3.3170   -0.2080    1.9330 N   0  0  0  0  0  0  0  0  0  0  0  0
    2.2980   -0.3850    2.9340 C   0  0  1  0  0  0  0  0  0  0  0  0
    2.3350    0.7040    3.9750 C   0  0  0  0  0  0  0  0  0  0  0  0
    3.6030    0.8110    4.7220 C   0  0  0  0  0  0  0  0  0  0  0  0
    3.8390    0.2850    6.0050 C   0  0  0  0  0  0  0  0  0  0  0  0
    5.0940    0.5640    6.3530 N   0  0  0  0  0  0  0  0  0  0  0  0
    5.7180    1.2540    5.3680 C   0  0  0  0  0  0  0  0  0  0  0  0
    7.0100    1.7640    5.2790 C   0  0  0  0  0  0  0  0  0  0  0  0
    7.3850    2.4500    4.1420 C   0  0  0  0  0  0  0  0  0  0  0  0
    6.4500    2.5980    3.1330 C   0  0  0  0  0  0  0  0  0  0  0  0
    5.1900    2.0990    3.2230 C   0  0  0  0  0  0  0  0  0  0  0  0
    4.7890    1.4020    4.3630 C   0  0  0  0  0  0  0  0  0  0  0  0
    0.9270   -0.3440    2.3300 C   0  0  0  0  0  0  0  0  0  0  0  0
   -0.0700   -0.6020    3.0670 O   0  0  0  0  0  0  0  0  0  0  0  0
    3.1130   -0.7940    1.0670 H   0  0  0  0  0  0  0  0  0  0  0  0
    4.2540   -0.4630    2.3250 H   0  0  0  0  0  0  0  0  0  0  0  0
    2.4470   -1.3710    3.4270 H   0  0  0  0  0  0  0  0  0  0  0  0
    2.1400    1.7100    3.5130 H   0  0  0  0  0  0  0  0  0  0  0  0
    1.4620    0.5630    4.6650 H   0  0  0  0  0  0  0  0  0  0  0  0
    3.1190   -0.2590    6.6120 H   0  0  0  0  0  0  0  0  0  0  0  0
    5.5630    0.3000    7.2590 H   0  0  0  0  0  0  0  0  0  0  0  0
    7.6920    1.6220    6.0860 H   0  0  0  0  0  0  0  0  0  0  0  0
    8.3590    2.8640    4.0160 H   0  0  0  0  0  0  0  0  0  0  0  0
    6.7690    3.1450    2.2420 H   0  0  0  0  0  0  0  0  0  0  0  0
    4.4820    2.2370    2.4220 H   0  0  0  0  0  0  0  0  0  0  0  0
   -1.2780    2.0420    1.6220 C   0  0  0  0  0  0  0  0  0  0  0  0
   -1.1650    1.4300    0.2430 C   0  0  1  0  0  0  0  0  0  0  0  0
   -0.3780    2.1580   -0.6100 O   0  0  0  0  0  0  0  0  0  0  0  0
   -0.6790    0.0000    0.4300 C   0  0  2  0  0  0  0  0  0  0  0  0
    0.6640   -0.0300    0.9720 N   0  0  0  0  0  0  0  0  0  0  0  0
   -0.8110   -0.7910   -0.8050 C   0  0  0  0  0  0  0  0  0  0  0  0
    0.1810   -1.4050   -1.3250 O   0  0  0  0  0  0  0  0  0  0  0  0
   -2.0210    1.4500    2.2160 H   0  0  0  0  0  0  0  0  0  0  0  0
   -1.7220    3.0720    1.5760 H   0  0  0  0  0  0  0  0  0  0  0  0
   -0.3450    2.0080    2.1930 H   0  0  0  0  0  0  0  0  0  0  0  0
   -2.1800    1.3700   -0.1780 H   0  0  0  0  0  0  0  0  0  0  0  0
    0.2920    1.5210   -1.0200 H   0  0  0  0  0  0  0  0  0  0  0  0
   -1.3470   -0.4070    1.2100 H   0  0  0  0  0  0  0  0  0  0  0  0
    1.5030    0.1840    0.3660 H   0  0  0  0  0  0  0  0  0  0  0  0
   -7.8980   -3.9020   -3.4900 N   0  0  0  0  0  0  0  0  0  0  0  0
   -6.4950   -3.7520   -3.6610 C   0  0  0  0  0  0  0  0  0  0  0  0
   -5.9970   -3.0660   -4.6490 N   0  0  0  0  0  0  0  0  0  0  0  0
   -5.5520   -4.3400   -2.7680 N   0  0  0  0  0  0  0  0  0  0  0  0
   -4.2640   -4.8550   -3.1680 C   0  0  0  0  0  0  0  0  0  0  0  0
   -3.2890   -3.7880   -3.6130 C   0  0  0  0  0  0  0  0  0  0  0  0
   -3.0760   -2.8480   -2.4640 C   0  0  0  0  0  0  0  0  0  0  0  0
   -2.1120   -1.7320   -2.7500 C   0  0  2  0  0  0  0  0  0  0  0  0
   -2.0400   -0.9350   -1.5140 N   0  0  0  0  0  0  0  0  0  0  0  0
   -2.6080   -0.8970   -3.8710 C   0  0  0  0  0  0  0  0  0  0  0  0
   -2.9020    0.3170   -3.6120 O   0  0  0  0  0  0  0  0  0  0  0  0
   -2.7830   -1.3000   -5.1610 O   0  0  0  0  0  0  0  0  0  0  0  0
   -8.3500   -4.7250   -3.9440 H   0  0  0  0  0  0  0  0  0  0  0  0
   -8.5120   -3.2580   -2.9490 H   0  0  0  0  0  0  0  0  0  0  0  0
   -6.6640   -2.6310   -5.3090 H   0  0  0  0  0  0  0  0  0  0  0  0
   -5.8320   -4.3970   -1.7460 H   0  0  0  0  0  0  0  0  0  0  0  0
   -3.8430   -5.4660   -2.3400 H   0  0  0  0  0  0  0  0  0  0  0  0
   -4.4590   -5.5860   -4.0090 H   0  0  0  0  0  0  0  0  0  0  0  0
   -3.6650   -3.3420   -4.5300 H   0  0  0  0  0  0  0  0  0  0  0  0
   -2.3420   -4.3110   -3.8830 H   0  0  0  0  0  0  0  0  0  0  0  0
   -4.0420   -2.4120   -2.1730 H   0  0  0  0  0  0  0  0  0  0  0  0
   -2.6270   -3.4610   -1.6370 H   0  0  0  0  0  0  0  0  0  0  0  0
   -1.1000   -2.1110   -3.0080 H   0  0  0  0  0  0  0  0  0  0  0  0
   -2.8890   -0.4700   -1.1490 H   0  0  0  0  0  0  0  0  0  0  0  0
  1 16  1  0  0  0  0
  1  2  1  0  0  0  0
  2 17  1  1  0  0  0
  2  3  1  0  0  0  0
  3 19  1  0  0  0  0
  3  4  1  0  0  0  0
  4  5  2  0  0  0  0
  5  6  1  0  0  0  0
  5 20  1  0  0  0  0
  6 21  1  0  0  0  0
  7  6  1  0  0  0  0
  8  7  1  0  0  0  0
  8 22  1  0  0  0  0
  9  8  2  0  0  0  0
 10 11  2  0  0  0  0
 10  9  1  0  0  0  0
 11 12  1  0  0  0  0
 12  4  1  0  0  0  0
 12  7  2  0  0  0  0
 13  2  1  0  0  0  0
 13 14  2  0  0  0  0
 15  1  1  0  0  0  0
 18  3  1  0  0  0  0
 23  9  1  0  0  0  0
 24 10  1  0  0  0  0
 25 11  1  0  0  0  0
 26 35  1  0  0  0  0
 26 33  1  0  0  0  0
 27 36  1  6  0  0  0
 27 29  1  0  0  0  0
 27 26  1  0  0  0  0
 28 27  1  0  0  0  0
 29 30  1  0  0  0  0
 29 38  1  1  0  0  0
 30 13  1  0  0  0  0
 31 29  1  0  0  0  0
 32 31  2  0  0  0  0
 34 26  1  0  0  0  0
 37 28  1  0  0  0  0
 39 30  1  0  0  0  0
 40 53  1  0  0  0  0
 41 40  1  0  0  0  0
 41 43  1  0  0  0  0
 42 41  2  0  0  0  0
 43 55  1  0  0  0  0
 44 43  1  0  0  0  0
 44 56  1  0  0  0  0
 45 44  1  0  0  0  0
 45 46  1  0  0  0  0
 46 60  1  0  0  0  0
 46 61  1  0  0  0  0
 47 62  1  6  0  0  0
 47 46  1  0  0  0  0
 47 48  1  0  0  0  0
 48 63  1  0  0  0  0
 48 31  1  0  0  0  0
 49 50  1  0  0  0  0
 49 47  1  0  0  0  0
 51 49  2  0  0  0  0
 52 40  1  0  0  0  0
 54 42  1  0  0  0  0
 57 44  1  0  0  0  0
 58 45  1  0  0  0  0
 59 45  1  0  0  0  0
M  END
$$$$
