WTV.pdb
 OpenBabel07022419193D

 56 57  0  0  1  0  0  0  0  0999 V2000
    0.9830    1.4830   -0.8310 N   0  0  0  0  0  0  0  0  0  0  0  0
    1.8460    0.3510   -0.8020 C   0  0  1  0  0  0  0  0  0  0  0  0
    3.1220    0.7280   -0.0830 C   0  0  0  0  0  0  0  0  0  0  0  0
    2.9090    1.1730    1.3020 C   0  0  0  0  0  0  0  0  0  0  0  0
    1.7480    1.3510    2.0160 C   0  0  0  0  0  0  0  0  0  0  0  0
    2.0290    1.7800    3.2630 N   0  0  0  0  0  0  0  0  0  0  0  0
    3.3700    1.8800    3.3570 C   0  0  0  0  0  0  0  0  0  0  0  0
    4.1770    2.2790    4.4300 C   0  0  0  0  0  0  0  0  0  0  0  0
    5.5390    2.2910    4.2490 C   0  0  0  0  0  0  0  0  0  0  0  0
    6.0920    1.9240    3.0580 C   0  0  0  0  0  0  0  0  0  0  0  0
    5.2920    1.5310    2.0040 C   0  0  0  0  0  0  0  0  0  0  0  0
    3.9380    1.5110    2.1590 C   0  0  0  0  0  0  0  0  0  0  0  0
    1.3030   -0.8740   -0.2180 C   0  0  0  0  0  0  0  0  0  0  0  0
    2.1100   -1.8660   -0.1340 O   0  0  0  0  0  0  0  0  0  0  0  0
    1.4180    2.3690   -0.4950 H   0  0  0  0  0  0  0  0  0  0  0  0
   -0.0040    1.3470   -0.6350 H   0  0  0  0  0  0  0  0  0  0  0  0
    2.1670    0.1860   -1.8740 H   0  0  0  0  0  0  0  0  0  0  0  0
    3.7670   -0.1900   -0.0810 H   0  0  0  0  0  0  0  0  0  0  0  0
    3.6530    1.5550   -0.6320 H   0  0  0  0  0  0  0  0  0  0  0  0
    0.7550    1.1810    1.6460 H   0  0  0  0  0  0  0  0  0  0  0  0
    1.3040    1.9830    3.9850 H   0  0  0  0  0  0  0  0  0  0  0  0
    3.6940    2.5620    5.3560 H   0  0  0  0  0  0  0  0  0  0  0  0
    6.1410    2.6090    5.1100 H   0  0  0  0  0  0  0  0  0  0  0  0
    7.1500    1.9330    2.9190 H   0  0  0  0  0  0  0  0  0  0  0  0
    5.7920    1.2470    1.0740 H   0  0  0  0  0  0  0  0  0  0  0  0
   -1.9430   -1.3110    2.4720 C   0  0  0  0  0  0  0  0  0  0  0  0
   -0.8020   -2.2620    2.2640 C   0  0  1  0  0  0  0  0  0  0  0  0
   -1.1860   -3.4890    2.7950 O   0  0  0  0  0  0  0  0  0  0  0  0
   -0.3960   -2.3850    0.8190 C   0  0  2  0  0  0  0  0  0  0  0  0
    0.0070   -1.1040    0.2620 N   0  0  0  0  0  0  0  0  0  0  0  0
   -1.5220   -2.9900    0.0720 C   0  0  0  0  0  0  0  0  0  0  0  0
   -1.9750   -4.0980    0.4500 O   0  0  0  0  0  0  0  0  0  0  0  0
   -2.2420   -1.4060    3.5520 H   0  0  0  0  0  0  0  0  0  0  0  0
   -2.8390   -1.5340    1.8860 H   0  0  0  0  0  0  0  0  0  0  0  0
   -1.6430   -0.2300    2.3760 H   0  0  0  0  0  0  0  0  0  0  0  0
    0.0380   -1.8900    2.9070 H   0  0  0  0  0  0  0  0  0  0  0  0
   -0.3840   -4.0490    3.0390 H   0  0  0  0  0  0  0  0  0  0  0  0
    0.5070   -3.0600    0.7960 H   0  0  0  0  0  0  0  0  0  0  0  0
   -0.6850   -0.3270    0.2150 H   0  0  0  0  0  0  0  0  0  0  0  0
   -4.2520   -0.8620   -2.5150 C   0  0  0  0  0  0  0  0  0  0  0  0
   -4.4740   -2.1700   -1.8190 C   0  0  0  0  0  0  0  0  0  0  0  0
   -5.5430   -2.9410   -2.5600 C   0  0  0  0  0  0  0  0  0  0  0  0
   -3.2410   -3.0290   -1.7650 C   0  0  2  0  0  0  0  0  0  0  0  0
   -2.1420   -2.4000   -1.0660 N   0  0  0  0  0  0  0  0  0  0  0  0
   -2.7630   -3.3860   -3.1400 C   0  0  0  0  0  0  0  0  0  0  0  0
   -1.5890   -3.1200   -3.4950 O   0  0  0  0  0  0  0  0  0  0  0  0
   -3.5880   -4.0150   -4.0590 O   0  0  0  0  0  0  0  0  0  0  0  0
   -4.2580   -0.9920   -3.6230 H   0  0  0  0  0  0  0  0  0  0  0  0
   -3.3070   -0.3650   -2.2530 H   0  0  0  0  0  0  0  0  0  0  0  0
   -5.1390   -0.2060   -2.2940 H   0  0  0  0  0  0  0  0  0  0  0  0
   -4.8090   -2.0210   -0.7700 H   0  0  0  0  0  0  0  0  0  0  0  0
   -5.4650   -2.6960   -3.6520 H   0  0  0  0  0  0  0  0  0  0  0  0
   -5.4350   -4.0320   -2.4690 H   0  0  0  0  0  0  0  0  0  0  0  0
   -6.5660   -2.6270   -2.2620 H   0  0  0  0  0  0  0  0  0  0  0  0
   -3.5400   -3.9920   -1.2670 H   0  0  0  0  0  0  0  0  0  0  0  0
   -1.7820   -1.4820   -1.3950 H   0  0  0  0  0  0  0  0  0  0  0  0
  1  2  1  0  0  0  0
  1 16  1  0  0  0  0
  1 15  1  0  0  0  0
  2 17  1  6  0  0  0
  2 13  1  0  0  0  0
  2  3  1  0  0  0  0
  3 18  1  0  0  0  0
  3  4  1  0  0  0  0
  4  5  2  0  0  0  0
  4 12  1  0  0  0  0
  5  6  1  0  0  0  0
  6  7  1  0  0  0  0
  6 21  1  0  0  0  0
  7  8  1  0  0  0  0
  8 22  1  0  0  0  0
  9  8  2  0  0  0  0
  9 23  1  0  0  0  0
 10  9  1  0  0  0  0
 11 12  1  0  0  0  0
 11 10  2  0  0  0  0
 12  7  2  0  0  0  0
 13 14  2  0  0  0  0
 13 30  1  0  0  0  0
 19  3  1  0  0  0  0
 20  5  1  0  0  0  0
 24 10  1  0  0  0  0
 25 11  1  0  0  0  0
 26 33  1  0  0  0  0
 27 26  1  0  0  0  0
 27 28  1  0  0  0  0
 27 36  1  1  0  0  0
 28 37  1  0  0  0  0
 29 38  1  6  0  0  0
 29 27  1  0  0  0  0
 30 29  1  0  0  0  0
 31 32  2  0  0  0  0
 31 29  1  0  0  0  0
 34 26  1  0  0  0  0
 35 26  1  0  0  0  0
 39 30  1  0  0  0  0
 40 50  1  0  0  0  0
 40 49  1  0  0  0  0
 40 41  1  0  0  0  0
 41 43  1  0  0  0  0
 41 51  1  0  0  0  0
 42 53  1  0  0  0  0
 42 54  1  0  0  0  0
 42 41  1  0  0  0  0
 43 55  1  1  0  0  0
 43 44  1  0  0  0  0
 44 31  1  0  0  0  0
 45 43  1  0  0  0  0
 46 45  1  0  0  0  0
 47 45  2  0  0  0  0
 48 40  1  0  0  0  0
 52 42  1  0  0  0  0
 56 44  1  0  0  0  0
M  END
$$$$
