WTW.pdb
 OpenBabel07022419193D

 64 67  0  0  1  0  0  0  0  0999 V2000
    3.8090   -3.5420    1.9410 N   0  0  0  0  0  0  0  0  0  0  0  0
    2.9850   -2.3800    1.7600 C   0  0  1  0  0  0  0  0  0  0  0  0
    3.7490   -1.3150    0.9950 C   0  0  0  0  0  0  0  0  0  0  0  0
    4.9530   -0.9550    1.7910 C   0  0  0  0  0  0  0  0  0  0  0  0
    6.2490   -1.3660    1.5950 C   0  0  0  0  0  0  0  0  0  0  0  0
    7.0420   -0.8210    2.5460 N   0  0  0  0  0  0  0  0  0  0  0  0
    6.2360   -0.0700    3.3330 C   0  0  0  0  0  0  0  0  0  0  0  0
    6.5180    0.7070    4.4500 C   0  0  0  0  0  0  0  0  0  0  0  0
    5.5440    1.4070    5.1200 C   0  0  0  0  0  0  0  0  0  0  0  0
    4.2460    1.3270    4.6560 C   0  0  0  0  0  0  0  0  0  0  0  0
    3.9240    0.5700    3.5540 C   0  0  0  0  0  0  0  0  0  0  0  0
    4.9360   -0.1310    2.8930 C   0  0  0  0  0  0  0  0  0  0  0  0
    1.7160   -2.7410    1.0740 C   0  0  0  0  0  0  0  0  0  0  0  0
    1.5520   -3.9280    0.7100 O   0  0  0  0  0  0  0  0  0  0  0  0
    4.7270   -3.2210    2.3250 H   0  0  0  0  0  0  0  0  0  0  0  0
    3.4370   -4.2440    2.6160 H   0  0  0  0  0  0  0  0  0  0  0  0
    2.7060   -2.0020    2.7700 H   0  0  0  0  0  0  0  0  0  0  0  0
    3.1250   -0.4190    0.8090 H   0  0  0  0  0  0  0  0  0  0  0  0
    4.0790   -1.7720    0.0560 H   0  0  0  0  0  0  0  0  0  0  0  0
    6.6380   -2.0170    0.8280 H   0  0  0  0  0  0  0  0  0  0  0  0
    8.0610   -0.9320    2.6800 H   0  0  0  0  0  0  0  0  0  0  0  0
    7.5440    0.7700    4.8120 H   0  0  0  0  0  0  0  0  0  0  0  0
    5.7500    2.0200    6.0000 H   0  0  0  0  0  0  0  0  0  0  0  0
    3.4380    1.8660    5.1570 H   0  0  0  0  0  0  0  0  0  0  0  0
    2.9190    0.5050    3.1890 H   0  0  0  0  0  0  0  0  0  0  0  0
   -2.9810   -2.6530    0.6260 C   0  0  0  0  0  0  0  0  0  0  0  0
   -1.6640   -2.2070    1.2150 C   0  0  1  0  0  0  0  0  0  0  0  0
   -1.2930   -3.0900    2.2420 O   0  0  0  0  0  0  0  0  0  0  0  0
   -0.5740   -2.2080    0.1280 C   0  0  2  0  0  0  0  0  0  0  0  0
    0.6890   -1.8160    0.8160 N   0  0  0  0  0  0  0  0  0  0  0  0
   -0.9100   -1.1560   -0.8480 C   0  0  0  0  0  0  0  0  0  0  0  0
   -0.2000   -0.0910   -0.7890 O   0  0  0  0  0  0  0  0  0  0  0  0
   -3.6580   -3.0470    1.4340 H   0  0  0  0  0  0  0  0  0  0  0  0
   -2.7750   -3.4180   -0.1200 H   0  0  0  0  0  0  0  0  0  0  0  0
   -3.4760   -1.7740    0.1700 H   0  0  0  0  0  0  0  0  0  0  0  0
   -1.7850   -1.1830    1.5970 H   0  0  0  0  0  0  0  0  0  0  0  0
   -2.0360   -3.6910    2.3990 H   0  0  0  0  0  0  0  0  0  0  0  0
   -0.5000   -3.2190   -0.2280 H   0  0  0  0  0  0  0  0  0  0  0  0
    0.7870   -0.8380    1.0970 H   0  0  0  0  0  0  0  0  0  0  0  0
   -1.9000   -1.1640   -1.8340 N   0  0  0  0  0  0  0  0  0  0  0  0
   -2.1700   -0.0850   -2.7530 C   0  0  1  0  0  0  0  0  0  0  0  0
   -2.5930    1.1760   -2.1350 C   0  0  0  0  0  0  0  0  0  0  0  0
   -3.8120    1.1460   -1.3320 C   0  0  0  0  0  0  0  0  0  0  0  0
   -3.8400    1.1540    0.0430 C   0  0  0  0  0  0  0  0  0  0  0  0
   -5.1150    1.1180    0.4350 N   0  0  0  0  0  0  0  0  0  0  0  0
   -5.8930    1.0880   -0.6620 C   0  0  0  0  0  0  0  0  0  0  0  0
   -7.2800    1.0470   -0.7620 C   0  0  0  0  0  0  0  0  0  0  0  0
   -7.8430    1.0230   -2.0200 C   0  0  0  0  0  0  0  0  0  0  0  0
   -7.0510    1.0380   -3.1570 C   0  0  0  0  0  0  0  0  0  0  0  0
   -5.6810    1.0790   -3.0630 C   0  0  0  0  0  0  0  0  0  0  0  0
   -5.1020    1.1030   -1.7910 C   0  0  0  0  0  0  0  0  0  0  0  0
   -0.8860    0.1840   -3.5020 C   0  0  0  0  0  0  0  0  0  0  0  0
   -0.8010    1.0960   -4.3700 O   0  0  0  0  0  0  0  0  0  0  0  0
    0.2680   -0.5480   -3.2880 O   0  0  0  0  0  0  0  0  0  0  0  0
   -2.4810   -2.0210   -1.9280 H   0  0  0  0  0  0  0  0  0  0  0  0
   -2.8430   -0.4690   -3.5550 H   0  0  0  0  0  0  0  0  0  0  0  0
   -2.7390    1.9460   -2.9330 H   0  0  0  0  0  0  0  0  0  0  0  0
   -1.7280    1.5700   -1.5280 H   0  0  0  0  0  0  0  0  0  0  0  0
   -2.9660    1.1860    0.7240 H   0  0  0  0  0  0  0  0  0  0  0  0
   -5.4410    1.1150    1.4470 H   0  0  0  0  0  0  0  0  0  0  0  0
   -7.8540    1.0360    0.1590 H   0  0  0  0  0  0  0  0  0  0  0  0
   -8.9270    0.9920   -2.0810 H   0  0  0  0  0  0  0  0  0  0  0  0
   -7.5570    1.0170   -4.1070 H   0  0  0  0  0  0  0  0  0  0  0  0
   -5.0500    1.0900   -3.9320 H   0  0  0  0  0  0  0  0  0  0  0  0
  1 15  1  0  0  0  0
  1 16  1  0  0  0  0
  2  1  1  0  0  0  0
  2 17  1  1  0  0  0
  3  2  1  0  0  0  0
  3  4  1  0  0  0  0
  4 12  1  0  0  0  0
  5  4  2  0  0  0  0
  5  6  1  0  0  0  0
  6 21  1  0  0  0  0
  6  7  1  0  0  0  0
  7  8  1  0  0  0  0
  8 22  1  0  0  0  0
  8  9  2  0  0  0  0
  9 23  1  0  0  0  0
 10  9  1  0  0  0  0
 10 24  1  0  0  0  0
 11 10  2  0  0  0  0
 12  7  2  0  0  0  0
 12 11  1  0  0  0  0
 13  2  1  0  0  0  0
 14 13  2  0  0  0  0
 18  3  1  0  0  0  0
 19  3  1  0  0  0  0
 20  5  1  0  0  0  0
 25 11  1  0  0  0  0
 26 27  1  0  0  0  0
 26 33  1  0  0  0  0
 27 36  1  1  0  0  0
 27 28  1  0  0  0  0
 28 37  1  0  0  0  0
 29 38  1  6  0  0  0
 29 30  1  0  0  0  0
 29 27  1  0  0  0  0
 30 13  1  0  0  0  0
 30 39  1  0  0  0  0
 31 32  2  0  0  0  0
 31 29  1  0  0  0  0
 34 26  1  0  0  0  0
 35 26  1  0  0  0  0
 40 31  1  0  0  0  0
 41 56  1  6  0  0  0
 41 42  1  0  0  0  0
 41 40  1  0  0  0  0
 42 58  1  0  0  0  0
 42 43  1  0  0  0  0
 43 44  2  0  0  0  0
 44 45  1  0  0  0  0
 44 59  1  0  0  0  0
 45 60  1  0  0  0  0
 46 45  1  0  0  0  0
 47 46  1  0  0  0  0
 47 61  1  0  0  0  0
 48 47  2  0  0  0  0
 49 50  2  0  0  0  0
 49 48  1  0  0  0  0
 50 51  1  0  0  0  0
 51 43  1  0  0  0  0
 51 46  2  0  0  0  0
 52 54  1  0  0  0  0
 52 41  1  0  0  0  0
 53 52  2  0  0  0  0
 55 40  1  0  0  0  0
 57 42  1  0  0  0  0
 62 48  1  0  0  0  0
 63 49  1  0  0  0  0
 64 50  1  0  0  0  0
M  END
$$$$
