WVC.pdb
 OpenBabel07022419193D

 53 54  0  0  1  0  0  0  0  0999 V2000
   -0.9760    1.3860   -1.2330 N   0  0  0  0  0  0  0  0  0  0  0  0
    0.2910    0.9680   -0.6490 C   0  0  1  0  0  0  0  0  0  0  0  0
    1.1850    2.1260   -0.3350 C   0  0  0  0  0  0  0  0  0  0  0  0
    2.4460    1.6080    0.2490 C   0  0  0  0  0  0  0  0  0  0  0  0
    2.8390    1.6220    1.5710 C   0  0  0  0  0  0  0  0  0  0  0  0
    4.0710    1.0460    1.6790 N   0  0  0  0  0  0  0  0  0  0  0  0
    4.4840    0.6610    0.4630 C   0  0  0  0  0  0  0  0  0  0  0  0
    5.6410    0.0430    0.0670 C   0  0  0  0  0  0  0  0  0  0  0  0
    5.8200   -0.2500   -1.2890 C   0  0  0  0  0  0  0  0  0  0  0  0
    4.8260    0.0920   -2.1780 C   0  0  0  0  0  0  0  0  0  0  0  0
    3.6700    0.7130   -1.7560 C   0  0  0  0  0  0  0  0  0  0  0  0
    3.5010    0.9980   -0.4260 C   0  0  0  0  0  0  0  0  0  0  0  0
    0.0690    0.0720    0.5180 C   0  0  0  0  0  0  0  0  0  0  0  0
    0.9950   -0.3940    1.2160 O   0  0  0  0  0  0  0  0  0  0  0  0
   -1.5060    2.0330   -0.6320 H   0  0  0  0  0  0  0  0  0  0  0  0
   -1.4830    0.5570   -1.5570 H   0  0  0  0  0  0  0  0  0  0  0  0
    0.7950    0.3490   -1.4200 H   0  0  0  0  0  0  0  0  0  0  0  0
    1.3640    2.6740   -1.2890 H   0  0  0  0  0  0  0  0  0  0  0  0
    0.7210    2.8620    0.3500 H   0  0  0  0  0  0  0  0  0  0  0  0
    2.2690    2.0210    2.3860 H   0  0  0  0  0  0  0  0  0  0  0  0
    4.5610    0.9510    2.6010 H   0  0  0  0  0  0  0  0  0  0  0  0
    6.4300   -0.2350    0.7310 H   0  0  0  0  0  0  0  0  0  0  0  0
    6.7150   -0.7370   -1.6510 H   0  0  0  0  0  0  0  0  0  0  0  0
    4.9360   -0.1240   -3.2420 H   0  0  0  0  0  0  0  0  0  0  0  0
    2.8730    0.9920   -2.4320 H   0  0  0  0  0  0  0  0  0  0  0  0
   -1.8590    0.6440    3.6130 C   0  0  0  0  0  0  0  0  0  0  0  0
   -2.5080   -0.6140    3.0210 C   0  0  0  0  0  0  0  0  0  0  0  0
   -2.5970   -1.5990    4.1730 C   0  0  0  0  0  0  0  0  0  0  0  0
   -1.5720   -1.1630    2.0090 C   0  0  2  0  0  0  0  0  0  0  0  0
   -1.2400   -0.3220    0.9220 N   0  0  0  0  0  0  0  0  0  0  0  0
   -2.1230   -2.4270    1.4840 C   0  0  0  0  0  0  0  0  0  0  0  0
   -2.4870   -3.3080    2.2880 O   0  0  0  0  0  0  0  0  0  0  0  0
   -2.3250    1.5580    3.2040 H   0  0  0  0  0  0  0  0  0  0  0  0
   -2.0190    0.6850    4.7170 H   0  0  0  0  0  0  0  0  0  0  0  0
   -0.7580    0.6150    3.4730 H   0  0  0  0  0  0  0  0  0  0  0  0
   -3.5240   -0.4370    2.6830 H   0  0  0  0  0  0  0  0  0  0  0  0
   -2.6570   -1.0570    5.1560 H   0  0  0  0  0  0  0  0  0  0  0  0
   -1.7050   -2.2540    4.2330 H   0  0  0  0  0  0  0  0  0  0  0  0
   -3.5230   -2.2330    4.0820 H   0  0  0  0  0  0  0  0  0  0  0  0
   -0.6120   -1.4410    2.5360 H   0  0  0  0  0  0  0  0  0  0  0  0
   -2.0410    0.0620    0.3420 H   0  0  0  0  0  0  0  0  0  0  0  0
   -2.2410   -2.6500    0.0990 N   0  0  0  0  0  0  0  0  0  0  0  0
   -2.7780   -3.8810   -0.4610 C   0  0  1  0  0  0  0  0  0  0  0  0
   -3.9850   -3.5370   -1.3440 C   0  0  0  0  0  0  0  0  0  0  0  0
   -5.2890   -2.7150   -0.4160 S   0  0  0  0  0  0  0  0  0  0  0  0
   -1.7700   -4.4730   -1.3640 C   0  0  0  0  0  0  0  0  0  0  0  0
   -2.0260   -5.5410   -1.9550 O   0  0  0  0  0  0  0  0  0  0  0  0
   -0.5610   -3.8260   -1.5330 O   0  0  0  0  0  0  0  0  0  0  0  0
   -1.9120   -1.8600   -0.5250 H   0  0  0  0  0  0  0  0  0  0  0  0
   -3.0840   -4.5600    0.3470 H   0  0  0  0  0  0  0  0  0  0  0  0
   -4.4170   -4.4930   -1.7400 H   0  0  0  0  0  0  0  0  0  0  0  0
   -3.6540   -2.9730   -2.2350 H   0  0  0  0  0  0  0  0  0  0  0  0
   -5.6070   -1.5160   -1.1200 H   0  0  0  0  0  0  0  0  0  0  0  0
  1  2  1  0  0  0  0
  1 15  1  0  0  0  0
  2 17  1  6  0  0  0
  2  3  1  0  0  0  0
  2 13  1  0  0  0  0
  3  4  1  0  0  0  0
  3 19  1  0  0  0  0
  4  5  2  0  0  0  0
  5  6  1  0  0  0  0
  5 20  1  0  0  0  0
  6 21  1  0  0  0  0
  7  6  1  0  0  0  0
  8  7  1  0  0  0  0
  8 22  1  0  0  0  0
  9  8  2  0  0  0  0
 10 11  2  0  0  0  0
 10  9  1  0  0  0  0
 11 12  1  0  0  0  0
 12  4  1  0  0  0  0
 12  7  2  0  0  0  0
 13 30  1  0  0  0  0
 13 14  2  0  0  0  0
 16  1  1  0  0  0  0
 18  3  1  0  0  0  0
 23  9  1  0  0  0  0
 24 10  1  0  0  0  0
 25 11  1  0  0  0  0
 26 34  1  0  0  0  0
 27 26  1  0  0  0  0
 27 28  1  0  0  0  0
 28 38  1  0  0  0  0
 28 37  1  0  0  0  0
 29 40  1  1  0  0  0
 29 27  1  0  0  0  0
 30 29  1  0  0  0  0
 31 29  1  0  0  0  0
 31 32  2  0  0  0  0
 33 26  1  0  0  0  0
 35 26  1  0  0  0  0
 36 27  1  0  0  0  0
 39 28  1  0  0  0  0
 41 30  1  0  0  0  0
 42 31  1  0  0  0  0
 43 42  1  0  0  0  0
 43 50  1  1  0  0  0
 44 43  1  0  0  0  0
 44 45  1  0  0  0  0
 46 43  1  0  0  0  0
 47 46  2  0  0  0  0
 48 46  1  0  0  0  0
 49 42  1  0  0  0  0
 51 44  1  0  0  0  0
 52 44  1  0  0  0  0
 53 45  1  0  0  0  0
M  END
$$$$
