WVD.pdb
 OpenBabel07022419193D

 55 56  0  0  1  0  0  0  0  0999 V2000
    2.3100    0.0300   -2.3400 N   0  0  0  0  0  0  0  0  0  0  0  0
    2.7000   -0.3760   -0.9830 C   0  0  1  0  0  0  0  0  0  0  0  0
    3.5160    0.7020   -0.3660 C   0  0  0  0  0  0  0  0  0  0  0  0
    3.9850    0.5000    1.0030 C   0  0  0  0  0  0  0  0  0  0  0  0
    5.2140   -0.0340    1.4150 C   0  0  0  0  0  0  0  0  0  0  0  0
    5.2420   -0.0740    2.7460 N   0  0  0  0  0  0  0  0  0  0  0  0
    4.0870    0.4080    3.2580 C   0  0  0  0  0  0  0  0  0  0  0  0
    3.6930    0.5660    4.5810 C   0  0  0  0  0  0  0  0  0  0  0  0
    2.4380    1.1170    4.8390 C   0  0  0  0  0  0  0  0  0  0  0  0
    1.6450    1.4810    3.7750 C   0  0  0  0  0  0  0  0  0  0  0  0
    2.0590    1.3140    2.4780 C   0  0  0  0  0  0  0  0  0  0  0  0
    3.3130    0.7630    2.1920 C   0  0  0  0  0  0  0  0  0  0  0  0
    1.5430   -0.7480   -0.1630 C   0  0  0  0  0  0  0  0  0  0  0  0
    1.7390   -1.3710    0.9110 O   0  0  0  0  0  0  0  0  0  0  0  0
    1.5920   -0.6130   -2.7440 H   0  0  0  0  0  0  0  0  0  0  0  0
    1.8800    0.9810   -2.3050 H   0  0  0  0  0  0  0  0  0  0  0  0
    3.3060   -1.3290   -1.1030 H   0  0  0  0  0  0  0  0  0  0  0  0
    4.4520    0.8610   -0.9890 H   0  0  0  0  0  0  0  0  0  0  0  0
    2.9730    1.6810   -0.3900 H   0  0  0  0  0  0  0  0  0  0  0  0
    5.9840   -0.3490    0.7360 H   0  0  0  0  0  0  0  0  0  0  0  0
    6.0250   -0.4220    3.3390 H   0  0  0  0  0  0  0  0  0  0  0  0
    4.2990    0.2890    5.4300 H   0  0  0  0  0  0  0  0  0  0  0  0
    2.1080    1.2510    5.8490 H   0  0  0  0  0  0  0  0  0  0  0  0
    0.6600    1.9150    3.9340 H   0  0  0  0  0  0  0  0  0  0  0  0
    1.4750    1.5850    1.5990 H   0  0  0  0  0  0  0  0  0  0  0  0
   -2.1890    1.2170   -0.3280 C   0  0  0  0  0  0  0  0  0  0  0  0
   -1.6540    0.3980    0.8040 C   0  0  0  0  0  0  0  0  0  0  0  0
   -2.6130    0.1170    1.9020 C   0  0  0  0  0  0  0  0  0  0  0  0
   -0.9340   -0.8430    0.3280 C   0  0  2  0  0  0  0  0  0  0  0  0
    0.2030   -0.4450   -0.5150 N   0  0  0  0  0  0  0  0  0  0  0  0
   -1.8160   -1.6980   -0.5580 C   0  0  0  0  0  0  0  0  0  0  0  0
   -1.5230   -1.7930   -1.7610 O   0  0  0  0  0  0  0  0  0  0  0  0
   -1.5050    2.0430   -0.6010 H   0  0  0  0  0  0  0  0  0  0  0  0
   -3.1380    1.7060    0.0330 H   0  0  0  0  0  0  0  0  0  0  0  0
   -2.3930    0.6140   -1.2390 H   0  0  0  0  0  0  0  0  0  0  0  0
   -0.8280    1.0300    1.2670 H   0  0  0  0  0  0  0  0  0  0  0  0
   -2.2150   -0.6900    2.5430 H   0  0  0  0  0  0  0  0  0  0  0  0
   -2.6720    1.0170    2.5930 H   0  0  0  0  0  0  0  0  0  0  0  0
   -3.6580   -0.0590    1.5910 H   0  0  0  0  0  0  0  0  0  0  0  0
   -0.5780   -1.3960    1.1890 H   0  0  0  0  0  0  0  0  0  0  0  0
   -0.0170    0.0700   -1.3870 H   0  0  0  0  0  0  0  0  0  0  0  0
   -2.9370   -2.3800   -0.0760 N   0  0  0  0  0  0  0  0  0  0  0  0
   -3.9030   -3.1950   -0.7130 C   0  0  1  0  0  0  0  0  0  0  0  0
   -3.6860   -3.5170   -2.1770 C   0  0  0  0  0  0  0  0  0  0  0  0
   -3.7600   -2.3540   -3.0710 C   0  0  0  0  0  0  0  0  0  0  0  0
   -4.1980   -1.2370   -2.7120 O   0  0  0  0  0  0  0  0  0  0  0  0
   -4.1210   -4.4210    0.0260 C   0  0  0  0  0  0  0  0  0  0  0  0
   -4.9410   -5.2930   -0.3460 O   0  0  0  0  0  0  0  0  0  0  0  0
   -3.3240   -2.4990   -4.3820 O   0  0  0  0  0  0  0  0  0  0  0  0
   -3.4270   -4.7200    1.2150 O   0  0  0  0  0  0  0  0  0  0  0  0
   -3.0780   -2.2610    0.9960 H   0  0  0  0  0  0  0  0  0  0  0  0
   -4.9070   -2.6090   -0.7680 H   0  0  0  0  0  0  0  0  0  0  0  0
   -2.7280   -4.0970   -2.3170 H   0  0  0  0  0  0  0  0  0  0  0  0
   -4.4840   -4.2290   -2.4740 H   0  0  0  0  0  0  0  0  0  0  0  0
   -3.4930   -1.7380   -5.0460 H   0  0  0  0  0  0  0  0  0  0  0  0
  1 16  1  0  0  0  0
  1  2  1  0  0  0  0
  2 17  1  6  0  0  0
  2  3  1  0  0  0  0
  2 13  1  0  0  0  0
  3  4  1  0  0  0  0
  4  5  2  0  0  0  0
  4 12  1  0  0  0  0
  5  6  1  0  0  0  0
  6  7  1  0  0  0  0
  6 21  1  0  0  0  0
  7  8  1  0  0  0  0
  8  9  2  0  0  0  0
  8 22  1  0  0  0  0
  9 23  1  0  0  0  0
 10 24  1  0  0  0  0
 10  9  1  0  0  0  0
 11 10  2  0  0  0  0
 12 11  1  0  0  0  0
 12  7  2  0  0  0  0
 13 14  2  0  0  0  0
 15  1  1  0  0  0  0
 18  3  1  0  0  0  0
 19  3  1  0  0  0  0
 20  5  1  0  0  0  0
 25 11  1  0  0  0  0
 26 34  1  0  0  0  0
 26 27  1  0  0  0  0
 27 36  1  0  0  0  0
 27 28  1  0  0  0  0
 28 37  1  0  0  0  0
 28 38  1  0  0  0  0
 29 27  1  0  0  0  0
 29 40  1  1  0  0  0
 30 13  1  0  0  0  0
 30 29  1  0  0  0  0
 31 42  1  0  0  0  0
 31 29  1  0  0  0  0
 32 31  2  0  0  0  0
 33 26  1  0  0  0  0
 35 26  1  0  0  0  0
 39 28  1  0  0  0  0
 41 30  1  0  0  0  0
 42 51  1  0  0  0  0
 43 52  1  1  0  0  0
 43 42  1  0  0  0  0
 43 47  1  0  0  0  0
 44 43  1  0  0  0  0
 45 46  2  0  0  0  0
 45 44  1  0  0  0  0
 47 50  1  0  0  0  0
 48 47  2  0  0  0  0
 49 45  1  0  0  0  0
 53 44  1  0  0  0  0
 54 44  1  0  0  0  0
 55 49  1  0  0  0  0
M  END
$$$$
