WVE.pdb
 OpenBabel07022419193D

 58 59  0  0  1  0  0  0  0  0999 V2000
    2.3150    1.2050    3.4690 N   0  0  0  0  0  0  0  0  0  0  0  0
    1.5070    1.1490    2.2750 C   0  0  1  0  0  0  0  0  0  0  0  0
    2.3560    0.8910    1.0490 C   0  0  0  0  0  0  0  0  0  0  0  0
    3.3660    1.9620    0.8560 C   0  0  0  0  0  0  0  0  0  0  0  0
    4.7320    1.9040    1.1280 C   0  0  0  0  0  0  0  0  0  0  0  0
    5.2990    3.0740    0.8190 N   0  0  0  0  0  0  0  0  0  0  0  0
    4.3600    3.9390    0.3410 C   0  0  0  0  0  0  0  0  0  0  0  0
    4.4300    5.2380   -0.1050 C   0  0  0  0  0  0  0  0  0  0  0  0
    3.2760    5.8660   -0.5390 C   0  0  0  0  0  0  0  0  0  0  0  0
    2.0900    5.1810   -0.5160 C   0  0  0  0  0  0  0  0  0  0  0  0
    2.0310    3.8810   -0.0670 C   0  0  0  0  0  0  0  0  0  0  0  0
    3.1680    3.2420    0.3680 C   0  0  0  0  0  0  0  0  0  0  0  0
    0.4310    0.1410    2.4230 C   0  0  0  0  0  0  0  0  0  0  0  0
    0.3630   -0.4990    3.4830 O   0  0  0  0  0  0  0  0  0  0  0  0
    2.1910    2.1000    3.9930 H   0  0  0  0  0  0  0  0  0  0  0  0
    2.1110    0.3700    4.0780 H   0  0  0  0  0  0  0  0  0  0  0  0
    1.0310    2.1570    2.1210 H   0  0  0  0  0  0  0  0  0  0  0  0
    2.9260   -0.0520    1.2460 H   0  0  0  0  0  0  0  0  0  0  0  0
    1.7750    0.8160    0.1330 H   0  0  0  0  0  0  0  0  0  0  0  0
    5.2520    1.0440    1.5270 H   0  0  0  0  0  0  0  0  0  0  0  0
    6.3100    3.3340    0.9130 H   0  0  0  0  0  0  0  0  0  0  0  0
    5.3710    5.7690   -0.1190 H   0  0  0  0  0  0  0  0  0  0  0  0
    3.2820    6.8900   -0.9000 H   0  0  0  0  0  0  0  0  0  0  0  0
    1.1580    5.6220   -0.8430 H   0  0  0  0  0  0  0  0  0  0  0  0
    1.0830    3.3320   -0.0480 H   0  0  0  0  0  0  0  0  0  0  0  0
   -3.2030    0.3300    0.1910 C   0  0  0  0  0  0  0  0  0  0  0  0
   -2.9260   -0.4300    1.4400 C   0  0  0  0  0  0  0  0  0  0  0  0
   -4.0310   -1.4150    1.6710 C   0  0  0  0  0  0  0  0  0  0  0  0
   -1.5930   -1.1010    1.5070 C   0  0  2  0  0  0  0  0  0  0  0  0
   -0.5060   -0.1200    1.4250 N   0  0  0  0  0  0  0  0  0  0  0  0
   -1.3190   -2.0610    0.4140 C   0  0  0  0  0  0  0  0  0  0  0  0
   -0.3720   -1.8290   -0.4350 O   0  0  0  0  0  0  0  0  0  0  0  0
   -3.8320    1.2380    0.4170 H   0  0  0  0  0  0  0  0  0  0  0  0
   -2.3240    0.6940   -0.3460 H   0  0  0  0  0  0  0  0  0  0  0  0
   -3.8140   -0.2420   -0.5540 H   0  0  0  0  0  0  0  0  0  0  0  0
   -2.9740    0.2520    2.3480 H   0  0  0  0  0  0  0  0  0  0  0  0
   -3.7340   -2.2360    2.3660 H   0  0  0  0  0  0  0  0  0  0  0  0
   -4.9600   -0.9080    2.0550 H   0  0  0  0  0  0  0  0  0  0  0  0
   -4.3180   -1.8770    0.7060 H   0  0  0  0  0  0  0  0  0  0  0  0
   -1.4860   -1.5550    2.5030 H   0  0  0  0  0  0  0  0  0  0  0  0
   -0.4570    0.4120    0.5330 H   0  0  0  0  0  0  0  0  0  0  0  0
   -1.9900   -3.2700    0.1620 N   0  0  0  0  0  0  0  0  0  0  0  0
   -1.6500   -4.1710   -0.9580 C   0  0  1  0  0  0  0  0  0  0  0  0
   -1.2750   -5.5170   -0.4520 C   0  0  0  0  0  0  0  0  0  0  0  0
   -0.9160   -6.4280   -1.5930 C   0  0  0  0  0  0  0  0  0  0  0  0
   -0.5060   -7.7860   -1.0560 C   0  0  0  0  0  0  0  0  0  0  0  0
   -0.1700   -8.7070   -1.8030 O   0  0  0  0  0  0  0  0  0  0  0  0
   -2.8640   -4.2680   -1.7880 C   0  0  0  0  0  0  0  0  0  0  0  0
   -2.9370   -4.8870   -2.8730 O   0  0  0  0  0  0  0  0  0  0  0  0
   -0.5130   -7.9840    0.3140 O   0  0  0  0  0  0  0  0  0  0  0  0
   -4.0300   -3.6420   -1.3710 O   0  0  0  0  0  0  0  0  0  0  0  0
   -2.7520   -3.5980    0.7610 H   0  0  0  0  0  0  0  0  0  0  0  0
   -0.8100   -3.6910   -1.5030 H   0  0  0  0  0  0  0  0  0  0  0  0
   -0.4080   -5.4850    0.2390 H   0  0  0  0  0  0  0  0  0  0  0  0
   -2.1720   -5.9770    0.0360 H   0  0  0  0  0  0  0  0  0  0  0  0
   -0.0830   -6.0800   -2.2060 H   0  0  0  0  0  0  0  0  0  0  0  0
   -1.8000   -6.6920   -2.2450 H   0  0  0  0  0  0  0  0  0  0  0  0
    0.1300   -8.6260    0.7710 H   0  0  0  0  0  0  0  0  0  0  0  0
  1 15  1  0  0  0  0
  1 16  1  0  0  0  0
  2 17  1  6  0  0  0
  2 13  1  0  0  0  0
  2  1  1  0  0  0  0
  3 18  1  0  0  0  0
  3  2  1  0  0  0  0
  4  3  1  0  0  0  0
  4  5  2  0  0  0  0
  5 20  1  0  0  0  0
  6 21  1  0  0  0  0
  6  5  1  0  0  0  0
  7 12  1  0  0  0  0
  7  6  1  0  0  0  0
  8  7  2  0  0  0  0
  9 10  2  0  0  0  0
  9  8  1  0  0  0  0
 10 11  1  0  0  0  0
 11 25  1  0  0  0  0
 11 12  2  0  0  0  0
 12  4  1  0  0  0  0
 13 14  2  0  0  0  0
 19  3  1  0  0  0  0
 22  8  1  0  0  0  0
 23  9  1  0  0  0  0
 24 10  1  0  0  0  0
 26 33  1  0  0  0  0
 26 27  1  0  0  0  0
 27 29  1  0  0  0  0
 27 28  1  0  0  0  0
 27 36  1  0  0  0  0
 28 38  1  0  0  0  0
 28 37  1  0  0  0  0
 29 40  1  1  0  0  0
 30 29  1  0  0  0  0
 30 13  1  0  0  0  0
 31 29  1  0  0  0  0
 32 31  2  0  0  0  0
 34 26  1  0  0  0  0
 35 26  1  0  0  0  0
 39 28  1  0  0  0  0
 41 30  1  0  0  0  0
 42 31  1  0  0  0  0
 42 52  1  0  0  0  0
 43 53  1  6  0  0  0
 43 44  1  0  0  0  0
 43 42  1  0  0  0  0
 44 55  1  0  0  0  0
 44 54  1  0  0  0  0
 45 46  1  0  0  0  0
 45 44  1  0  0  0  0
 46 50  1  0  0  0  0
 47 46  2  0  0  0  0
 48 51  1  0  0  0  0
 48 43  1  0  0  0  0
 49 48  2  0  0  0  0
 50 58  1  0  0  0  0
 56 45  1  0  0  0  0
 57 45  1  0  0  0  0
M  END
$$$$
