WVF.pdb
 OpenBabel07022419193D

 62 64  0  0  1  0  0  0  0  0999 V2000
    1.4150    1.1680    2.2070 N   0  0  0  0  0  0  0  0  0  0  0  0
    1.3810   -0.2810    2.1680 C   0  0  1  0  0  0  0  0  0  0  0  0
    1.6580   -0.9130    3.5040 C   0  0  0  0  0  0  0  0  0  0  0  0
    2.9860   -0.5440    4.0160 C   0  0  0  0  0  0  0  0  0  0  0  0
    3.2390    0.3740    5.0190 C   0  0  0  0  0  0  0  0  0  0  0  0
    4.5640    0.4630    5.2330 N   0  0  0  0  0  0  0  0  0  0  0  0
    5.1980   -0.3780    4.3920 C   0  0  0  0  0  0  0  0  0  0  0  0
    6.5260   -0.6890    4.1790 C   0  0  0  0  0  0  0  0  0  0  0  0
    6.9240   -1.6140    3.2270 C   0  0  0  0  0  0  0  0  0  0  0  0
    5.9260   -2.2320    2.4770 C   0  0  0  0  0  0  0  0  0  0  0  0
    4.5940   -1.9410    2.6680 C   0  0  0  0  0  0  0  0  0  0  0  0
    4.2200   -1.0170    3.6210 C   0  0  0  0  0  0  0  0  0  0  0  0
    0.1160   -0.7900    1.5980 C   0  0  0  0  0  0  0  0  0  0  0  0
   -0.0120   -2.0420    1.5200 O   0  0  0  0  0  0  0  0  0  0  0  0
    2.3760    1.4520    2.4950 H   0  0  0  0  0  0  0  0  0  0  0  0
    1.3150    1.4880    1.2130 H   0  0  0  0  0  0  0  0  0  0  0  0
    2.1840   -0.5720    1.4290 H   0  0  0  0  0  0  0  0  0  0  0  0
    0.8750   -0.5720    4.2120 H   0  0  0  0  0  0  0  0  0  0  0  0
    1.5880   -2.0070    3.3660 H   0  0  0  0  0  0  0  0  0  0  0  0
    2.5080    0.9570    5.5770 H   0  0  0  0  0  0  0  0  0  0  0  0
    5.0690    1.0640    5.9210 H   0  0  0  0  0  0  0  0  0  0  0  0
    7.2980   -0.1950    4.7760 H   0  0  0  0  0  0  0  0  0  0  0  0
    7.9770   -1.8380    3.0830 H   0  0  0  0  0  0  0  0  0  0  0  0
    6.2530   -2.9550    1.7350 H   0  0  0  0  0  0  0  0  0  0  0  0
    3.8570   -2.4470    2.0610 H   0  0  0  0  0  0  0  0  0  0  0  0
   -4.6760   -0.6290    1.0850 C   0  0  0  0  0  0  0  0  0  0  0  0
   -3.3300   -0.1640    1.4950 C   0  0  0  0  0  0  0  0  0  0  0  0
   -3.4120    1.3630    1.6330 C   0  0  0  0  0  0  0  0  0  0  0  0
   -2.1930   -0.5280    0.5750 C   0  0  2  0  0  0  0  0  0  0  0  0
   -0.9360    0.0090    1.1430 N   0  0  0  0  0  0  0  0  0  0  0  0
   -2.3550   -0.0600   -0.8110 C   0  0  0  0  0  0  0  0  0  0  0  0
   -1.5080    0.7710   -1.3040 O   0  0  0  0  0  0  0  0  0  0  0  0
   -4.7580   -1.7010    0.8290 H   0  0  0  0  0  0  0  0  0  0  0  0
   -5.3290   -0.5360    2.0140 H   0  0  0  0  0  0  0  0  0  0  0  0
   -5.2060    0.0480    0.3620 H   0  0  0  0  0  0  0  0  0  0  0  0
   -3.1430   -0.5190    2.5360 H   0  0  0  0  0  0  0  0  0  0  0  0
   -4.4190    1.5870    2.0590 H   0  0  0  0  0  0  0  0  0  0  0  0
   -2.6680    1.7380    2.3480 H   0  0  0  0  0  0  0  0  0  0  0  0
   -3.3460    1.8350    0.6280 H   0  0  0  0  0  0  0  0  0  0  0  0
   -2.0770   -1.6250    0.6060 H   0  0  0  0  0  0  0  0  0  0  0  0
   -0.8670    1.0390    1.1910 H   0  0  0  0  0  0  0  0  0  0  0  0
   -3.3900   -0.4470   -1.6980 N   0  0  0  0  0  0  0  0  0  0  0  0
   -3.4440    0.0880   -3.0470 C   0  0  1  0  0  0  0  0  0  0  0  0
   -3.2460   -1.1140   -3.9780 C   0  0  0  0  0  0  0  0  0  0  0  0
   -1.9350   -1.7650   -3.7180 C   0  0  0  0  0  0  0  0  0  0  0  0
   -1.9000   -2.7720   -2.7750 C   0  0  0  0  0  0  0  0  0  0  0  0
   -0.7430   -3.4440   -2.4520 C   0  0  0  0  0  0  0  0  0  0  0  0
    0.4190   -3.0960   -3.0940 C   0  0  0  0  0  0  0  0  0  0  0  0
    0.3800   -2.0900   -4.0340 C   0  0  0  0  0  0  0  0  0  0  0  0
   -0.7820   -1.4230   -4.3520 C   0  0  0  0  0  0  0  0  0  0  0  0
   -4.7360    0.7310   -3.3430 C   0  0  0  0  0  0  0  0  0  0  0  0
   -5.6310    0.7630   -2.4640 O   0  0  0  0  0  0  0  0  0  0  0  0
   -5.0330    1.3170   -4.5600 O   0  0  0  0  0  0  0  0  0  0  0  0
   -4.1070   -1.1280   -1.3690 H   0  0  0  0  0  0  0  0  0  0  0  0
   -2.6370    0.7870   -3.2620 H   0  0  0  0  0  0  0  0  0  0  0  0
   -4.0320   -1.8760   -3.8170 H   0  0  0  0  0  0  0  0  0  0  0  0
   -3.3160   -0.7840   -5.0380 H   0  0  0  0  0  0  0  0  0  0  0  0
   -2.8270   -3.0460   -2.2670 H   0  0  0  0  0  0  0  0  0  0  0  0
   -0.7310   -4.2430   -1.7000 H   0  0  0  0  0  0  0  0  0  0  0  0
    1.3290   -3.6310   -2.8330 H   0  0  0  0  0  0  0  0  0  0  0  0
    1.3330   -1.8390   -4.5290 H   0  0  0  0  0  0  0  0  0  0  0  0
   -0.7980   -0.6320   -5.0950 H   0  0  0  0  0  0  0  0  0  0  0  0
  1 15  1  0  0  0  0
  2 17  1  6  0  0  0
  2  1  1  0  0  0  0
  2  3  1  0  0  0  0
  3  4  1  0  0  0  0
  3 18  1  0  0  0  0
  4  5  2  0  0  0  0
  5  6  1  0  0  0  0
  5 20  1  0  0  0  0
  6 21  1  0  0  0  0
  7  6  1  0  0  0  0
  8  7  1  0  0  0  0
  8 22  1  0  0  0  0
  9  8  2  0  0  0  0
 10 11  2  0  0  0  0
 10  9  1  0  0  0  0
 11 12  1  0  0  0  0
 12  4  1  0  0  0  0
 12  7  2  0  0  0  0
 13  2  1  0  0  0  0
 14 13  2  0  0  0  0
 16  1  1  0  0  0  0
 19  3  1  0  0  0  0
 23  9  1  0  0  0  0
 24 10  1  0  0  0  0
 25 11  1  0  0  0  0
 26 27  1  0  0  0  0
 26 34  1  0  0  0  0
 27 28  1  0  0  0  0
 27 36  1  0  0  0  0
 28 37  1  0  0  0  0
 28 38  1  0  0  0  0
 29 40  1  6  0  0  0
 29 30  1  0  0  0  0
 29 27  1  0  0  0  0
 30 41  1  0  0  0  0
 30 13  1  0  0  0  0
 31 29  1  0  0  0  0
 32 31  2  0  0  0  0
 33 26  1  0  0  0  0
 35 26  1  0  0  0  0
 39 28  1  0  0  0  0
 42 54  1  0  0  0  0
 42 31  1  0  0  0  0
 43 55  1  6  0  0  0
 43 42  1  0  0  0  0
 44 56  1  0  0  0  0
 44 45  1  0  0  0  0
 44 43  1  0  0  0  0
 45 46  1  0  0  0  0
 46 47  2  0  0  0  0
 46 58  1  0  0  0  0
 47 59  1  0  0  0  0
 48 60  1  0  0  0  0
 48 47  1  0  0  0  0
 49 48  2  0  0  0  0
 50 49  1  0  0  0  0
 50 45  2  0  0  0  0
 51 43  1  0  0  0  0
 51 52  1  0  0  0  0
 53 51  2  0  0  0  0
 57 44  1  0  0  0  0
 61 49  1  0  0  0  0
 62 50  1  0  0  0  0
M  END
$$$$
