WVH.pdb
 OpenBabel07022419193D

 59 61  0  0  1  0  0  0  0  0999 V2000
    1.2630   -1.7740    1.6790 N   0  0  0  0  0  0  0  0  0  0  0  0
    0.4760   -1.2620    2.7720 C   0  0  1  0  0  0  0  0  0  0  0  0
    1.2750   -0.5670    3.8110 C   0  0  0  0  0  0  0  0  0  0  0  0
    2.0450    0.5970    3.3810 C   0  0  0  0  0  0  0  0  0  0  0  0
    1.6210    1.9150    3.5820 C   0  0  0  0  0  0  0  0  0  0  0  0
    2.5350    2.7420    3.0660 N   0  0  0  0  0  0  0  0  0  0  0  0
    3.5440    2.0640    2.5310 C   0  0  0  0  0  0  0  0  0  0  0  0
    4.6990    2.4700    1.8980 C   0  0  0  0  0  0  0  0  0  0  0  0
    5.5900    1.5230    1.4400 C   0  0  0  0  0  0  0  0  0  0  0  0
    5.2850    0.1930    1.6370 C   0  0  0  0  0  0  0  0  0  0  0  0
    4.1300   -0.2190    2.2700 C   0  0  0  0  0  0  0  0  0  0  0  0
    3.2470    0.7090    2.7240 C   0  0  0  0  0  0  0  0  0  0  0  0
   -0.6580   -0.4710    2.2500 C   0  0  0  0  0  0  0  0  0  0  0  0
   -1.4910    0.1090    3.0160 O   0  0  0  0  0  0  0  0  0  0  0  0
    1.6500   -1.0320    1.0890 H   0  0  0  0  0  0  0  0  0  0  0  0
    1.9330   -2.5070    1.9060 H   0  0  0  0  0  0  0  0  0  0  0  0
   -0.0110   -2.1890    3.2190 H   0  0  0  0  0  0  0  0  0  0  0  0
    0.5610   -0.3150    4.6510 H   0  0  0  0  0  0  0  0  0  0  0  0
    1.9310   -1.3580    4.2890 H   0  0  0  0  0  0  0  0  0  0  0  0
    0.7040    2.2390    4.0750 H   0  0  0  0  0  0  0  0  0  0  0  0
    2.4730    3.7930    3.0760 H   0  0  0  0  0  0  0  0  0  0  0  0
    4.9470    3.5080    1.7390 H   0  0  0  0  0  0  0  0  0  0  0  0
    6.5250    1.8010    0.9280 H   0  0  0  0  0  0  0  0  0  0  0  0
    5.9740   -0.5550    1.2830 H   0  0  0  0  0  0  0  0  0  0  0  0
    3.9020   -1.2590    2.4210 H   0  0  0  0  0  0  0  0  0  0  0  0
   -2.6080    2.4570   -1.0210 C   0  0  0  0  0  0  0  0  0  0  0  0
   -1.4610    1.6520   -0.4490 C   0  0  0  0  0  0  0  0  0  0  0  0
   -0.4920    1.3300   -1.5380 C   0  0  0  0  0  0  0  0  0  0  0  0
   -1.9650    0.4420    0.2980 C   0  0  2  0  0  0  0  0  0  0  0  0
   -0.8520   -0.3330    0.8510 N   0  0  0  0  0  0  0  0  0  0  0  0
   -2.8600   -0.4010   -0.5040 C   0  0  0  0  0  0  0  0  0  0  0  0
   -3.8650    0.0850   -1.0490 O   0  0  0  0  0  0  0  0  0  0  0  0
   -2.8240    2.0400   -2.0410 H   0  0  0  0  0  0  0  0  0  0  0  0
   -2.2870    3.5140   -1.1090 H   0  0  0  0  0  0  0  0  0  0  0  0
   -3.5340    2.3650   -0.4330 H   0  0  0  0  0  0  0  0  0  0  0  0
   -0.9440    2.3130    0.2970 H   0  0  0  0  0  0  0  0  0  0  0  0
   -0.9860    1.3960   -2.5510 H   0  0  0  0  0  0  0  0  0  0  0  0
    0.0610    0.3930   -1.4100 H   0  0  0  0  0  0  0  0  0  0  0  0
    0.2920    2.1420   -1.5810 H   0  0  0  0  0  0  0  0  0  0  0  0
   -2.5400    0.8280    1.1640 H   0  0  0  0  0  0  0  0  0  0  0  0
   -0.1630   -0.8140    0.2240 H   0  0  0  0  0  0  0  0  0  0  0  0
   -2.5790   -1.7760   -0.6610 N   0  0  0  0  0  0  0  0  0  0  0  0
   -3.4510   -2.6190   -1.4490 C   0  0  1  0  0  0  0  0  0  0  0  0
   -2.7700   -3.2410   -2.6190 C   0  0  0  0  0  0  0  0  0  0  0  0
   -1.6230   -4.1080   -2.2510 C   0  0  0  0  0  0  0  0  0  0  0  0
   -0.8430   -4.7850   -3.1540 C   0  0  0  0  0  0  0  0  0  0  0  0
    0.0850   -5.4550   -2.4550 N   0  0  0  0  0  0  0  0  0  0  0  0
   -0.1090   -5.2040   -1.1550 C   0  0  0  0  0  0  0  0  0  0  0  0
   -1.1530   -4.3810   -1.0340 N   0  0  0  0  0  0  0  0  0  0  0  0
   -4.0580   -3.7080   -0.6310 C   0  0  0  0  0  0  0  0  0  0  0  0
   -4.8330   -4.4920   -1.2400 O   0  0  0  0  0  0  0  0  0  0  0  0
   -3.8060   -3.8750    0.7120 O   0  0  0  0  0  0  0  0  0  0  0  0
   -1.7390   -2.2310   -0.2170 H   0  0  0  0  0  0  0  0  0  0  0  0
   -4.3010   -2.0180   -1.8480 H   0  0  0  0  0  0  0  0  0  0  0  0
   -2.3690   -2.4400   -3.3010 H   0  0  0  0  0  0  0  0  0  0  0  0
   -3.5180   -3.7950   -3.2150 H   0  0  0  0  0  0  0  0  0  0  0  0
   -0.9210   -4.8060   -4.2300 H   0  0  0  0  0  0  0  0  0  0  0  0
    0.8610   -6.0870   -2.8140 H   0  0  0  0  0  0  0  0  0  0  0  0
    0.5080   -5.6240   -0.3450 H   0  0  0  0  0  0  0  0  0  0  0  0
  1 16  1  0  0  0  0
  1  2  1  0  0  0  0
  2 17  1  1  0  0  0
  2  3  1  0  0  0  0
  3 19  1  0  0  0  0
  3 18  1  0  0  0  0
  4  5  2  0  0  0  0
  4  3  1  0  0  0  0
  5 20  1  0  0  0  0
  6 21  1  0  0  0  0
  6  5  1  0  0  0  0
  7 12  1  0  0  0  0
  7  6  1  0  0  0  0
  8  7  2  0  0  0  0
  9 10  2  0  0  0  0
  9  8  1  0  0  0  0
 10 11  1  0  0  0  0
 11 25  1  0  0  0  0
 11 12  2  0  0  0  0
 12  4  1  0  0  0  0
 13  2  1  0  0  0  0
 13 14  2  0  0  0  0
 15  1  1  0  0  0  0
 22  8  1  0  0  0  0
 23  9  1  0  0  0  0
 24 10  1  0  0  0  0
 26 27  1  0  0  0  0
 26 35  1  0  0  0  0
 27 36  1  0  0  0  0
 27 29  1  0  0  0  0
 28 38  1  0  0  0  0
 28 27  1  0  0  0  0
 29 30  1  0  0  0  0
 29 40  1  1  0  0  0
 30 13  1  0  0  0  0
 31 29  1  0  0  0  0
 32 31  2  0  0  0  0
 33 26  1  0  0  0  0
 34 26  1  0  0  0  0
 37 28  1  0  0  0  0
 39 28  1  0  0  0  0
 41 30  1  0  0  0  0
 42 31  1  0  0  0  0
 42 53  1  0  0  0  0
 43 54  1  6  0  0  0
 43 42  1  0  0  0  0
 43 50  1  0  0  0  0
 44 45  1  0  0  0  0
 44 43  1  0  0  0  0
 45 49  1  0  0  0  0
 46 47  1  0  0  0  0
 46 45  2  0  0  0  0
 47 48  1  0  0  0  0
 48 49  2  0  0  0  0
 48 59  1  0  0  0  0
 50 52  1  0  0  0  0
 51 50  2  0  0  0  0
 55 44  1  0  0  0  0
 56 44  1  0  0  0  0
 57 46  1  0  0  0  0
 58 47  1  0  0  0  0
M  END
$$$$
