WVI.pdb
 OpenBabel07022419193D

 61 62  0  0  1  0  0  0  0  0999 V2000
    2.2360    1.3770   -3.7510 N   0  0  0  0  0  0  0  0  0  0  0  0
    2.1200    0.6250   -2.4600 C   0  0  1  0  0  0  0  0  0  0  0  0
    3.3060    1.0990   -1.6790 C   0  0  0  0  0  0  0  0  0  0  0  0
    3.5120    0.5740   -0.3420 C   0  0  0  0  0  0  0  0  0  0  0  0
    4.3720   -0.4580    0.0100 C   0  0  0  0  0  0  0  0  0  0  0  0
    4.2980   -0.6570    1.3310 N   0  0  0  0  0  0  0  0  0  0  0  0
    3.4130    0.2190    1.8460 C   0  0  0  0  0  0  0  0  0  0  0  0
    3.0180    0.3990    3.1540 C   0  0  0  0  0  0  0  0  0  0  0  0
    2.1050    1.3680    3.4650 C   0  0  0  0  0  0  0  0  0  0  0  0
    1.5960    2.1490    2.4550 C   0  0  0  0  0  0  0  0  0  0  0  0
    1.9790    1.9810    1.1500 C   0  0  0  0  0  0  0  0  0  0  0  0
    2.9010    1.0020    0.8400 C   0  0  0  0  0  0  0  0  0  0  0  0
    0.8340    0.9020   -1.8430 C   0  0  0  0  0  0  0  0  0  0  0  0
    0.3140    2.0640   -1.9810 O   0  0  0  0  0  0  0  0  0  0  0  0
    2.8190    0.8400   -4.4210 H   0  0  0  0  0  0  0  0  0  0  0  0
    1.2760    1.4950   -4.1580 H   0  0  0  0  0  0  0  0  0  0  0  0
    2.2880   -0.4280   -2.7420 H   0  0  0  0  0  0  0  0  0  0  0  0
    4.2380    0.8430   -2.2760 H   0  0  0  0  0  0  0  0  0  0  0  0
    3.3440    2.2280   -1.6660 H   0  0  0  0  0  0  0  0  0  0  0  0
    4.9840   -0.9860   -0.7120 H   0  0  0  0  0  0  0  0  0  0  0  0
    4.8420   -1.3780    1.8750 H   0  0  0  0  0  0  0  0  0  0  0  0
    3.4370   -0.2320    3.9320 H   0  0  0  0  0  0  0  0  0  0  0  0
    1.7670    1.5410    4.4890 H   0  0  0  0  0  0  0  0  0  0  0  0
    0.8630    2.9320    2.6700 H   0  0  0  0  0  0  0  0  0  0  0  0
    1.5800    2.6030    0.3570 H   0  0  0  0  0  0  0  0  0  0  0  0
   -3.6660    0.2120   -1.1410 C   0  0  0  0  0  0  0  0  0  0  0  0
   -2.2730   -0.1250   -1.5850 C   0  0  0  0  0  0  0  0  0  0  0  0
   -1.9570    0.3950   -2.9420 C   0  0  0  0  0  0  0  0  0  0  0  0
   -1.2310    0.3580   -0.5180 C   0  0  2  0  0  0  0  0  0  0  0  0
    0.0490   -0.0220   -1.0760 N   0  0  0  0  0  0  0  0  0  0  0  0
   -1.6320   -0.3960    0.6830 C   0  0  0  0  0  0  0  0  0  0  0  0
   -2.7290   -0.0450    1.2420 O   0  0  0  0  0  0  0  0  0  0  0  0
   -3.6980    1.1490   -0.5100 H   0  0  0  0  0  0  0  0  0  0  0  0
   -4.1580   -0.5800   -0.5450 H   0  0  0  0  0  0  0  0  0  0  0  0
   -4.3370    0.3960   -2.0230 H   0  0  0  0  0  0  0  0  0  0  0  0
   -2.1860   -1.2350   -1.5700 H   0  0  0  0  0  0  0  0  0  0  0  0
   -2.7180   -0.0680   -3.6400 H   0  0  0  0  0  0  0  0  0  0  0  0
   -2.1240    1.4770   -3.0310 H   0  0  0  0  0  0  0  0  0  0  0  0
   -0.9680    0.0430   -3.2790 H   0  0  0  0  0  0  0  0  0  0  0  0
   -1.3870    1.4510   -0.4710 H   0  0  0  0  0  0  0  0  0  0  0  0
    0.4180   -0.9660   -0.9300 H   0  0  0  0  0  0  0  0  0  0  0  0
   -4.1590   -3.2200    1.4560 C   0  0  0  0  0  0  0  0  0  0  0  0
   -2.8070   -3.6020    0.9210 C   0  0  0  0  0  0  0  0  0  0  0  0
   -1.7590   -3.5870    2.0070 C   0  0  2  0  0  0  0  0  0  0  0  0
   -2.0630   -4.5260    3.1220 C   0  0  0  0  0  0  0  0  0  0  0  0
   -1.4520   -2.1580    2.4760 C   0  0  2  0  0  0  0  0  0  0  0  0
   -0.9610   -1.4630    1.2930 N   0  0  0  0  0  0  0  0  0  0  0  0
   -0.5130   -2.1610    3.6000 C   0  0  0  0  0  0  0  0  0  0  0  0
    0.6050   -1.6350    3.5540 O   0  0  0  0  0  0  0  0  0  0  0  0
   -0.8540   -2.7790    4.8110 O   0  0  0  0  0  0  0  0  0  0  0  0
   -4.2140   -3.3290    2.5620 H   0  0  0  0  0  0  0  0  0  0  0  0
   -4.9480   -3.8800    1.0020 H   0  0  0  0  0  0  0  0  0  0  0  0
   -4.4400   -2.1850    1.1980 H   0  0  0  0  0  0  0  0  0  0  0  0
   -2.7920   -4.6170    0.4720 H   0  0  0  0  0  0  0  0  0  0  0  0
   -2.5070   -2.9010    0.1230 H   0  0  0  0  0  0  0  0  0  0  0  0
   -0.8260   -3.9990    1.5070 H   0  0  0  0  0  0  0  0  0  0  0  0
   -2.4340   -5.4670    2.6690 H   0  0  0  0  0  0  0  0  0  0  0  0
   -1.1250   -4.7970    3.6580 H   0  0  0  0  0  0  0  0  0  0  0  0
   -2.7980   -4.1300    3.8530 H   0  0  0  0  0  0  0  0  0  0  0  0
   -2.4100   -1.7480    2.8300 H   0  0  0  0  0  0  0  0  0  0  0  0
   -0.0590   -1.7670    0.8690 H   0  0  0  0  0  0  0  0  0  0  0  0
  1  2  1  0  0  0  0
  2 17  1  6  0  0  0
  2 13  1  0  0  0  0
  2  3  1  0  0  0  0
  3 19  1  0  0  0  0
  3  4  1  0  0  0  0
  4  5  2  0  0  0  0
  4 12  1  0  0  0  0
  5  6  1  0  0  0  0
  6  7  1  0  0  0  0
  6 21  1  0  0  0  0
  7  8  1  0  0  0  0
  8  9  2  0  0  0  0
  8 22  1  0  0  0  0
  9 23  1  0  0  0  0
 10 24  1  0  0  0  0
 10  9  1  0  0  0  0
 11 10  2  0  0  0  0
 12 11  1  0  0  0  0
 12  7  2  0  0  0  0
 13 30  1  0  0  0  0
 14 13  2  0  0  0  0
 15  1  1  0  0  0  0
 16  1  1  0  0  0  0
 18  3  1  0  0  0  0
 20  5  1  0  0  0  0
 25 11  1  0  0  0  0
 26 34  1  0  0  0  0
 26 33  1  0  0  0  0
 27 36  1  0  0  0  0
 27 26  1  0  0  0  0
 27 29  1  0  0  0  0
 28 27  1  0  0  0  0
 29 40  1  1  0  0  0
 29 31  1  0  0  0  0
 30 41  1  0  0  0  0
 30 29  1  0  0  0  0
 31 32  2  0  0  0  0
 31 47  1  0  0  0  0
 35 26  1  0  0  0  0
 37 28  1  0  0  0  0
 38 28  1  0  0  0  0
 39 28  1  0  0  0  0
 42 51  1  0  0  0  0
 43 42  1  0  0  0  0
 43 44  1  0  0  0  0
 44 56  1  6  0  0  0
 44 46  1  0  0  0  0
 44 45  1  0  0  0  0
 45 58  1  0  0  0  0
 45 59  1  0  0  0  0
 46 60  1  1  0  0  0
 46 48  1  0  0  0  0
 47 46  1  0  0  0  0
 48 50  1  0  0  0  0
 49 48  2  0  0  0  0
 52 42  1  0  0  0  0
 53 42  1  0  0  0  0
 54 43  1  0  0  0  0
 55 43  1  0  0  0  0
 57 45  1  0  0  0  0
 61 47  1  0  0  0  0
M  END
$$$$
