WVR.pdb
 OpenBabel07022419193D

 65 66  0  0  1  0  0  0  0  0999 V2000
    1.8140    1.1140    1.6490 N   0  0  0  0  0  0  0  0  0  0  0  0
    1.7520    0.5270    2.9680 C   0  0  1  0  0  0  0  0  0  0  0  0
    1.7280    1.6460    3.9840 C   0  0  0  0  0  0  0  0  0  0  0  0
    2.9140    2.5290    3.9370 C   0  0  0  0  0  0  0  0  0  0  0  0
    4.0350    2.4200    4.7810 C   0  0  0  0  0  0  0  0  0  0  0  0
    4.9250    3.3660    4.4480 N   0  0  0  0  0  0  0  0  0  0  0  0
    4.4510    4.1000    3.4210 C   0  0  0  0  0  0  0  0  0  0  0  0
    4.9730    5.1690    2.7360 C   0  0  0  0  0  0  0  0  0  0  0  0
    4.2720    5.7600    1.7140 C   0  0  0  0  0  0  0  0  0  0  0  0
    3.0320    5.2330    1.4110 C   0  0  0  0  0  0  0  0  0  0  0  0
    2.4770    4.1700    2.0680 C   0  0  0  0  0  0  0  0  0  0  0  0
    3.2020    3.5790    3.1060 C   0  0  0  0  0  0  0  0  0  0  0  0
    0.6110   -0.3920    3.1540 C   0  0  0  0  0  0  0  0  0  0  0  0
    0.5280   -1.1780    4.1430 O   0  0  0  0  0  0  0  0  0  0  0  0
    2.8110    1.3980    1.4520 H   0  0  0  0  0  0  0  0  0  0  0  0
    1.5330    0.4010    0.9230 H   0  0  0  0  0  0  0  0  0  0  0  0
    2.7020   -0.0730    3.0750 H   0  0  0  0  0  0  0  0  0  0  0  0
    0.7970    2.2570    3.8680 H   0  0  0  0  0  0  0  0  0  0  0  0
    1.6940    1.1870    4.9990 H   0  0  0  0  0  0  0  0  0  0  0  0
    4.1080    1.6780    5.5480 H   0  0  0  0  0  0  0  0  0  0  0  0
    5.8610    3.5530    4.8830 H   0  0  0  0  0  0  0  0  0  0  0  0
    5.9450    5.5420    3.0100 H   0  0  0  0  0  0  0  0  0  0  0  0
    4.7100    6.5920    1.2010 H   0  0  0  0  0  0  0  0  0  0  0  0
    2.5140    5.7420    0.5850 H   0  0  0  0  0  0  0  0  0  0  0  0
    1.4970    3.8160    1.7840 H   0  0  0  0  0  0  0  0  0  0  0  0
   -4.0780   -1.3630    2.6440 C   0  0  0  0  0  0  0  0  0  0  0  0
   -2.8580   -0.4790    2.5540 C   0  0  0  0  0  0  0  0  0  0  0  0
   -3.1100    0.5350    1.4600 C   0  0  0  0  0  0  0  0  0  0  0  0
   -1.5960   -1.2750    2.3050 C   0  0  2  0  0  0  0  0  0  0  0  0
   -0.4350   -0.4130    2.2180 N   0  0  0  0  0  0  0  0  0  0  0  0
   -1.7440   -2.1510    1.1250 C   0  0  0  0  0  0  0  0  0  0  0  0
   -2.7000   -2.9580    1.1180 O   0  0  0  0  0  0  0  0  0  0  0  0
   -3.8920   -2.3350    3.1460 H   0  0  0  0  0  0  0  0  0  0  0  0
   -4.8220   -0.8260    3.2810 H   0  0  0  0  0  0  0  0  0  0  0  0
   -4.5870   -1.4770    1.6600 H   0  0  0  0  0  0  0  0  0  0  0  0
   -2.7840    0.0810    3.5070 H   0  0  0  0  0  0  0  0  0  0  0  0
   -4.1230    0.9710    1.5950 H   0  0  0  0  0  0  0  0  0  0  0  0
   -2.3980    1.3610    1.4710 H   0  0  0  0  0  0  0  0  0  0  0  0
   -3.1570   -0.0160    0.4850 H   0  0  0  0  0  0  0  0  0  0  0  0
   -1.4520   -1.9340    3.1810 H   0  0  0  0  0  0  0  0  0  0  0  0
   -0.3970    0.2330    1.3990 H   0  0  0  0  0  0  0  0  0  0  0  0
   -1.8320   -5.6940   -6.5060 N   0  0  0  0  0  0  0  0  0  0  0  0
   -2.1370   -5.6250   -5.1030 C   0  0  0  0  0  0  0  0  0  0  0  0
   -1.5230   -6.4290   -4.3170 N   0  0  0  0  0  0  0  0  0  0  0  0
   -3.0830   -4.7090   -4.5900 N   0  0  0  0  0  0  0  0  0  0  0  0
   -2.8610   -3.9880   -3.3550 C   0  0  0  0  0  0  0  0  0  0  0  0
   -1.7370   -2.9840   -3.5710 C   0  0  0  0  0  0  0  0  0  0  0  0
   -1.4800   -2.1910   -2.3330 C   0  0  0  0  0  0  0  0  0  0  0  0
   -1.0830   -3.0430   -1.1490 C   0  0  2  0  0  0  0  0  0  0  0  0
   -0.8760   -2.1270    0.0160 N   0  0  0  0  0  0  0  0  0  0  0  0
    0.1490   -3.8050   -1.3780 C   0  0  0  0  0  0  0  0  0  0  0  0
    1.1870   -3.5700   -0.6750 O   0  0  0  0  0  0  0  0  0  0  0  0
    0.2450   -4.7790   -2.3260 O   0  0  0  0  0  0  0  0  0  0  0  0
   -1.7460   -6.6310   -6.9360 H   0  0  0  0  0  0  0  0  0  0  0  0
   -1.6940   -4.8580   -7.1000 H   0  0  0  0  0  0  0  0  0  0  0  0
   -1.7080   -6.4170   -3.3090 H   0  0  0  0  0  0  0  0  0  0  0  0
   -3.9660   -4.5690   -5.1580 H   0  0  0  0  0  0  0  0  0  0  0  0
   -2.5710   -4.7220   -2.5850 H   0  0  0  0  0  0  0  0  0  0  0  0
   -3.7770   -3.5010   -2.9840 H   0  0  0  0  0  0  0  0  0  0  0  0
   -0.8180   -3.5200   -3.8600 H   0  0  0  0  0  0  0  0  0  0  0  0
   -1.9870   -2.3130   -4.4360 H   0  0  0  0  0  0  0  0  0  0  0  0
   -2.3580   -1.5430   -2.0770 H   0  0  0  0  0  0  0  0  0  0  0  0
   -0.6640   -1.4680   -2.5650 H   0  0  0  0  0  0  0  0  0  0  0  0
   -1.9040   -3.7150   -0.9090 H   0  0  0  0  0  0  0  0  0  0  0  0
   -0.0730   -1.4720   -0.0190 H   0  0  0  0  0  0  0  0  0  0  0  0
  1  2  1  0  0  0  0
  2 17  1  1  0  0  0
  2 13  1  0  0  0  0
  2  3  1  0  0  0  0
  3 19  1  0  0  0  0
  4  3  1  0  0  0  0
  4  5  2  0  0  0  0
  5 20  1  0  0  0  0
  6  5  1  0  0  0  0
  6 21  1  0  0  0  0
  7  6  1  0  0  0  0
  8 22  1  0  0  0  0
  8  7  2  0  0  0  0
  9  8  1  0  0  0  0
 10  9  2  0  0  0  0
 10 11  1  0  0  0  0
 11 12  2  0  0  0  0
 12  7  1  0  0  0  0
 12  4  1  0  0  0  0
 13 14  2  0  0  0  0
 15  1  1  0  0  0  0
 16  1  1  0  0  0  0
 18  3  1  0  0  0  0
 23  9  1  0  0  0  0
 24 10  1  0  0  0  0
 25 11  1  0  0  0  0
 26 33  1  0  0  0  0
 26 34  1  0  0  0  0
 27 26  1  0  0  0  0
 27 36  1  0  0  0  0
 28 38  1  0  0  0  0
 28 37  1  0  0  0  0
 28 27  1  0  0  0  0
 29 27  1  0  0  0  0
 29 40  1  1  0  0  0
 30 29  1  0  0  0  0
 30 13  1  0  0  0  0
 31 29  1  0  0  0  0
 32 31  2  0  0  0  0
 35 26  1  0  0  0  0
 39 28  1  0  0  0  0
 41 30  1  0  0  0  0
 42 43  1  0  0  0  0
 43 45  1  0  0  0  0
 43 44  2  0  0  0  0
 44 56  1  0  0  0  0
 45 46  1  0  0  0  0
 46 59  1  0  0  0  0
 46 58  1  0  0  0  0
 47 46  1  0  0  0  0
 47 48  1  0  0  0  0
 48 62  1  0  0  0  0
 48 49  1  0  0  0  0
 49 64  1  1  0  0  0
 49 50  1  0  0  0  0
 50 31  1  0  0  0  0
 51 49  1  0  0  0  0
 51 52  1  0  0  0  0
 53 51  2  0  0  0  0
 54 42  1  0  0  0  0
 55 42  1  0  0  0  0
 57 45  1  0  0  0  0
 60 47  1  0  0  0  0
 61 47  1  0  0  0  0
 63 48  1  0  0  0  0
 65 50  1  0  0  0  0
M  END
$$$$
