WWC.pdb
 OpenBabel07022419193D

 61 64  0  0  1  0  0  0  0  0999 V2000
    1.1860   -0.9780    4.3280 N   0  0  0  0  0  0  0  0  0  0  0  0
    1.7160   -0.1840    3.2270 C   0  0  1  0  0  0  0  0  0  0  0  0
    3.1170   -0.6600    2.9680 C   0  0  0  0  0  0  0  0  0  0  0  0
    3.8370   -0.0100    1.8760 C   0  0  0  0  0  0  0  0  0  0  0  0
    4.6510    1.1130    1.9620 C   0  0  0  0  0  0  0  0  0  0  0  0
    5.1060    1.4490    0.7500 N   0  0  0  0  0  0  0  0  0  0  0  0
    4.6160    0.5750   -0.1430 C   0  0  0  0  0  0  0  0  0  0  0  0
    4.7940    0.4670   -1.5260 C   0  0  0  0  0  0  0  0  0  0  0  0
    4.1840   -0.5530   -2.2160 C   0  0  0  0  0  0  0  0  0  0  0  0
    3.4000   -1.4640   -1.5430 C   0  0  0  0  0  0  0  0  0  0  0  0
    3.2260   -1.3560   -0.1910 C   0  0  0  0  0  0  0  0  0  0  0  0
    3.8300   -0.3390    0.5110 C   0  0  0  0  0  0  0  0  0  0  0  0
    0.8910   -0.2110    2.0260 C   0  0  0  0  0  0  0  0  0  0  0  0
    1.1570    0.5670    1.0660 O   0  0  0  0  0  0  0  0  0  0  0  0
    0.2230   -0.6280    4.5220 H   0  0  0  0  0  0  0  0  0  0  0  0
    1.1870   -1.9880    4.0660 H   0  0  0  0  0  0  0  0  0  0  0  0
    1.8040    0.8750    3.6150 H   0  0  0  0  0  0  0  0  0  0  0  0
    3.7280   -0.4920    3.9100 H   0  0  0  0  0  0  0  0  0  0  0  0
    3.0970   -1.7860    2.8040 H   0  0  0  0  0  0  0  0  0  0  0  0
    4.9010    1.6660    2.8590 H   0  0  0  0  0  0  0  0  0  0  0  0
    5.7480    2.2700    0.5260 H   0  0  0  0  0  0  0  0  0  0  0  0
    5.4280    1.2160   -2.0240 H   0  0  0  0  0  0  0  0  0  0  0  0
    4.3480   -0.6000   -3.2880 H   0  0  0  0  0  0  0  0  0  0  0  0
    2.9300   -2.2680   -2.1340 H   0  0  0  0  0  0  0  0  0  0  0  0
    2.6170   -2.0640    0.3270 H   0  0  0  0  0  0  0  0  0  0  0  0
   -0.2270   -1.0590    1.8180 N   0  0  0  0  0  0  0  0  0  0  0  0
   -1.0050   -1.0450    0.5960 C   0  0  1  0  0  0  0  0  0  0  0  0
   -1.2180   -2.4700    0.1770 C   0  0  0  0  0  0  0  0  0  0  0  0
   -2.0040   -2.5740   -1.0650 C   0  0  0  0  0  0  0  0  0  0  0  0
   -3.3450   -2.9360   -1.2090 C   0  0  0  0  0  0  0  0  0  0  0  0
   -3.6560   -2.9070   -2.5150 N   0  0  0  0  0  0  0  0  0  0  0  0
   -2.5780   -2.5420   -3.2400 C   0  0  0  0  0  0  0  0  0  0  0  0
   -2.3680   -2.3650   -4.5830 C   0  0  0  0  0  0  0  0  0  0  0  0
   -1.1080   -1.9750   -5.0160 C   0  0  0  0  0  0  0  0  0  0  0  0
   -0.0520   -1.7560   -4.1390 C   0  0  0  0  0  0  0  0  0  0  0  0
   -0.2880   -1.9410   -2.7950 C   0  0  0  0  0  0  0  0  0  0  0  0
   -1.5500   -2.3320   -2.3590 C   0  0  0  0  0  0  0  0  0  0  0  0
   -2.3360   -0.4160    0.8000 C   0  0  0  0  0  0  0  0  0  0  0  0
   -3.1170   -0.3310   -0.1740 O   0  0  0  0  0  0  0  0  0  0  0  0
   -0.4840   -1.7120    2.5880 H   0  0  0  0  0  0  0  0  0  0  0  0
   -0.5300   -0.4900   -0.2150 H   0  0  0  0  0  0  0  0  0  0  0  0
   -0.2500   -3.0320    0.0680 H   0  0  0  0  0  0  0  0  0  0  0  0
   -1.8320   -2.9450    1.0000 H   0  0  0  0  0  0  0  0  0  0  0  0
   -3.9780   -3.1870   -0.3650 H   0  0  0  0  0  0  0  0  0  0  0  0
   -4.5770   -3.1260   -2.9500 H   0  0  0  0  0  0  0  0  0  0  0  0
   -3.1800   -2.5280   -5.3130 H   0  0  0  0  0  0  0  0  0  0  0  0
   -0.9310   -1.8310   -6.0930 H   0  0  0  0  0  0  0  0  0  0  0  0
    0.9310   -1.4470   -4.5280 H   0  0  0  0  0  0  0  0  0  0  0  0
    0.5060   -1.7800   -2.0830 H   0  0  0  0  0  0  0  0  0  0  0  0
   -2.7640    0.0930    2.0330 N   0  0  0  0  0  0  0  0  0  0  0  0
   -4.0060    0.7160    2.3110 C   0  0  1  0  0  0  0  0  0  0  0  0
   -4.9190   -0.0190    3.2470 C   0  0  0  0  0  0  0  0  0  0  0  0
   -4.2000   -0.2970    4.8800 S   0  0  0  0  0  0  0  0  0  0  0  0
   -3.8040    2.0820    2.7930 C   0  0  0  0  0  0  0  0  0  0  0  0
   -4.7680    2.8590    3.0900 O   0  0  0  0  0  0  0  0  0  0  0  0
   -2.5150    2.5700    2.9390 O   0  0  0  0  0  0  0  0  0  0  0  0
   -2.0780   -0.0030    2.8370 H   0  0  0  0  0  0  0  0  0  0  0  0
   -4.5690    0.7750    1.3350 H   0  0  0  0  0  0  0  0  0  0  0  0
   -5.3860   -0.9320    2.8130 H   0  0  0  0  0  0  0  0  0  0  0  0
   -5.7950    0.6820    3.4100 H   0  0  0  0  0  0  0  0  0  0  0  0
   -5.2610   -0.5830    5.7630 H   0  0  0  0  0  0  0  0  0  0  0  0
  1 15  1  0  0  0  0
  2 17  1  1  0  0  0
  2  1  1  0  0  0  0
  3  2  1  0  0  0  0
  3 18  1  0  0  0  0
  4  5  2  0  0  0  0
  4  3  1  0  0  0  0
  5 20  1  0  0  0  0
  6  5  1  0  0  0  0
  7 12  1  0  0  0  0
  7  6  1  0  0  0  0
  8  7  2  0  0  0  0
  9 10  2  0  0  0  0
  9  8  1  0  0  0  0
 10 11  1  0  0  0  0
 11 25  1  0  0  0  0
 11 12  2  0  0  0  0
 12  4  1  0  0  0  0
 13  2  1  0  0  0  0
 14 13  2  0  0  0  0
 16  1  1  0  0  0  0
 19  3  1  0  0  0  0
 21  6  1  0  0  0  0
 22  8  1  0  0  0  0
 23  9  1  0  0  0  0
 24 10  1  0  0  0  0
 26 13  1  0  0  0  0
 26 40  1  0  0  0  0
 27 41  1  6  0  0  0
 27 38  1  0  0  0  0
 27 26  1  0  0  0  0
 28 27  1  0  0  0  0
 28 43  1  0  0  0  0
 29 28  1  0  0  0  0
 30 29  2  0  0  0  0
 30 44  1  0  0  0  0
 31 30  1  0  0  0  0
 32 31  1  0  0  0  0
 32 37  1  0  0  0  0
 33 32  2  0  0  0  0
 34 33  1  0  0  0  0
 34 35  2  0  0  0  0
 35 36  1  0  0  0  0
 36 37  2  0  0  0  0
 36 49  1  0  0  0  0
 37 29  1  0  0  0  0
 38 50  1  0  0  0  0
 39 38  2  0  0  0  0
 42 28  1  0  0  0  0
 45 31  1  0  0  0  0
 46 33  1  0  0  0  0
 47 34  1  0  0  0  0
 48 35  1  0  0  0  0
 50 51  1  0  0  0  0
 50 57  1  0  0  0  0
 51 58  1  6  0  0  0
 51 54  1  0  0  0  0
 51 52  1  0  0  0  0
 52 60  1  0  0  0  0
 52 53  1  0  0  0  0
 53 61  1  0  0  0  0
 54 56  2  0  0  0  0
 54 55  1  0  0  0  0
 59 52  1  0  0  0  0
M  END
$$$$
