WWF.pdb
 OpenBabel07022419193D

 70 74  0  0  1  0  0  0  0  0999 V2000
   -0.6650   -1.7290    3.4890 N   0  0  0  0  0  0  0  0  0  0  0  0
    0.6670   -1.5760    2.9370 C   0  0  1  0  0  0  0  0  0  0  0  0
    1.6870   -2.5180    3.3900 C   0  0  0  0  0  0  0  0  0  0  0  0
    1.5080   -3.9490    3.2210 C   0  0  0  0  0  0  0  0  0  0  0  0
    0.9500   -4.8240    4.2050 C   0  0  0  0  0  0  0  0  0  0  0  0
    0.8880   -6.0640    3.7510 N   0  0  0  0  0  0  0  0  0  0  0  0
    1.3870   -6.0640    2.4810 C   0  0  0  0  0  0  0  0  0  0  0  0
    1.5540   -7.1010    1.5860 C   0  0  0  0  0  0  0  0  0  0  0  0
    2.1200   -6.8490    0.3250 C   0  0  0  0  0  0  0  0  0  0  0  0
    2.5010   -5.5750   -0.0040 C   0  0  0  0  0  0  0  0  0  0  0  0
    2.3180   -4.5430    0.9250 C   0  0  0  0  0  0  0  0  0  0  0  0
    1.7620   -4.7780    2.1650 C   0  0  0  0  0  0  0  0  0  0  0  0
    0.6580   -1.1350    1.5420 C   0  0  0  0  0  0  0  0  0  0  0  0
    1.6320   -1.1860    0.7660 O   0  0  0  0  0  0  0  0  0  0  0  0
   -0.6400   -2.2460    4.4070 H   0  0  0  0  0  0  0  0  0  0  0  0
   -1.1750   -0.8330    3.5990 H   0  0  0  0  0  0  0  0  0  0  0  0
    0.9910   -0.5680    3.5170 H   0  0  0  0  0  0  0  0  0  0  0  0
    2.6540   -2.2520    2.8370 H   0  0  0  0  0  0  0  0  0  0  0  0
    2.0130   -2.3190    4.4680 H   0  0  0  0  0  0  0  0  0  0  0  0
    0.6440   -4.4480    5.1740 H   0  0  0  0  0  0  0  0  0  0  0  0
    0.5360   -6.9180    4.2300 H   0  0  0  0  0  0  0  0  0  0  0  0
    1.2640   -8.0990    1.8240 H   0  0  0  0  0  0  0  0  0  0  0  0
    2.2640   -7.6480   -0.3990 H   0  0  0  0  0  0  0  0  0  0  0  0
    2.9450   -5.3370   -0.9700 H   0  0  0  0  0  0  0  0  0  0  0  0
    2.6400   -3.5720    0.6420 H   0  0  0  0  0  0  0  0  0  0  0  0
   -0.5540   -0.5770    0.9730 N   0  0  0  0  0  0  0  0  0  0  0  0
   -0.5900   -0.1160   -0.4070 C   0  0  1  0  0  0  0  0  0  0  0  0
   -1.5360   -0.9040   -1.2730 C   0  0  0  0  0  0  0  0  0  0  0  0
   -1.1660   -2.3170   -1.3650 C   0  0  0  0  0  0  0  0  0  0  0  0
   -0.4990   -2.9220   -2.4640 C   0  0  0  0  0  0  0  0  0  0  0  0
   -0.3310   -4.2220   -2.2500 N   0  0  0  0  0  0  0  0  0  0  0  0
   -0.8540   -4.5300   -1.0490 C   0  0  0  0  0  0  0  0  0  0  0  0
   -0.9230   -5.7670   -0.3970 C   0  0  0  0  0  0  0  0  0  0  0  0
   -1.5360   -5.7850    0.8340 C   0  0  0  0  0  0  0  0  0  0  0  0
   -2.0640   -4.6540    1.4220 C   0  0  0  0  0  0  0  0  0  0  0  0
   -1.9740   -3.4610    0.7490 C   0  0  0  0  0  0  0  0  0  0  0  0
   -1.3690   -3.3740   -0.4960 C   0  0  0  0  0  0  0  0  0  0  0  0
   -1.0390    1.3440   -0.3840 C   0  0  0  0  0  0  0  0  0  0  0  0
   -1.6430    1.7810    0.6010 O   0  0  0  0  0  0  0  0  0  0  0  0
   -1.3670   -0.4990    1.6100 H   0  0  0  0  0  0  0  0  0  0  0  0
    0.4180   -0.2250   -0.8280 H   0  0  0  0  0  0  0  0  0  0  0  0
   -1.4910   -0.4230   -2.2830 H   0  0  0  0  0  0  0  0  0  0  0  0
   -2.5880   -0.8400   -0.9040 H   0  0  0  0  0  0  0  0  0  0  0  0
   -0.2100   -2.3080   -3.3150 H   0  0  0  0  0  0  0  0  0  0  0  0
    0.1250   -4.8890   -2.9030 H   0  0  0  0  0  0  0  0  0  0  0  0
   -0.5020   -6.6100   -0.8860 H   0  0  0  0  0  0  0  0  0  0  0  0
   -1.5970   -6.7270    1.3420 H   0  0  0  0  0  0  0  0  0  0  0  0
   -2.5390   -4.6660    2.3860 H   0  0  0  0  0  0  0  0  0  0  0  0
   -2.3930   -2.5560    1.1690 H   0  0  0  0  0  0  0  0  0  0  0  0
   -0.7580    2.1890   -1.4750 N   0  0  0  0  0  0  0  0  0  0  0  0
   -1.1080    3.5670   -1.6270 C   0  0  1  0  0  0  0  0  0  0  0  0
   -0.7520    4.3890   -0.3690 C   0  0  0  0  0  0  0  0  0  0  0  0
   -1.0950    5.8010   -0.6830 C   0  0  0  0  0  0  0  0  0  0  0  0
   -0.0690    6.6690   -1.0210 C   0  0  0  0  0  0  0  0  0  0  0  0
   -0.2530    7.9870   -1.3670 C   0  0  0  0  0  0  0  0  0  0  0  0
   -1.5480    8.4930   -1.3800 C   0  0  0  0  0  0  0  0  0  0  0  0
   -2.5890    7.6680   -1.0510 C   0  0  0  0  0  0  0  0  0  0  0  0
   -2.3720    6.3120   -0.6990 C   0  0  0  0  0  0  0  0  0  0  0  0
   -0.6150    4.2160   -2.8040 C   0  0  0  0  0  0  0  0  0  0  0  0
   -0.9180    5.3850   -3.2140 O   0  0  0  0  0  0  0  0  0  0  0  0
    0.3110    3.5780   -3.6720 O   0  0  0  0  0  0  0  0  0  0  0  0
   -0.2170    1.7200   -2.2800 H   0  0  0  0  0  0  0  0  0  0  0  0
   -2.2500    3.6200   -1.5750 H   0  0  0  0  0  0  0  0  0  0  0  0
    0.3120    4.2970   -0.1160 H   0  0  0  0  0  0  0  0  0  0  0  0
   -1.4040    4.1080    0.4960 H   0  0  0  0  0  0  0  0  0  0  0  0
    0.9520    6.2570   -1.0070 H   0  0  0  0  0  0  0  0  0  0  0  0
    0.5430    8.6720   -1.6320 H   0  0  0  0  0  0  0  0  0  0  0  0
   -1.7070    9.5260   -1.6540 H   0  0  0  0  0  0  0  0  0  0  0  0
   -3.6090    8.0270   -1.0670 H   0  0  0  0  0  0  0  0  0  0  0  0
   -3.1980    5.6650   -0.4400 H   0  0  0  0  0  0  0  0  0  0  0  0
  1 16  1  0  0  0  0
  1 15  1  0  0  0  0
  2  3  1  0  0  0  0
  2  1  1  0  0  0  0
  2 17  1  1  0  0  0
  3 19  1  0  0  0  0
  4  3  1  0  0  0  0
  4  5  2  0  0  0  0
  5 20  1  0  0  0  0
  6  5  1  0  0  0  0
  6 21  1  0  0  0  0
  7  6  1  0  0  0  0
  8 22  1  0  0  0  0
  8  7  2  0  0  0  0
  9  8  1  0  0  0  0
 10  9  2  0  0  0  0
 10 11  1  0  0  0  0
 11 12  2  0  0  0  0
 12  7  1  0  0  0  0
 12  4  1  0  0  0  0
 13  2  1  0  0  0  0
 14 13  2  0  0  0  0
 18  3  1  0  0  0  0
 23  9  1  0  0  0  0
 24 10  1  0  0  0  0
 25 11  1  0  0  0  0
 26 13  1  0  0  0  0
 26 40  1  0  0  0  0
 27 41  1  6  0  0  0
 27 38  1  0  0  0  0
 27 26  1  0  0  0  0
 28 43  1  0  0  0  0
 28 27  1  0  0  0  0
 29 28  1  0  0  0  0
 29 37  1  0  0  0  0
 30 31  1  0  0  0  0
 30 29  2  0  0  0  0
 31 32  1  0  0  0  0
 32 37  2  0  0  0  0
 32 33  1  0  0  0  0
 33 34  2  0  0  0  0
 34 47  1  0  0  0  0
 34 35  1  0  0  0  0
 35 48  1  0  0  0  0
 36 49  1  0  0  0  0
 36 35  2  0  0  0  0
 37 36  1  0  0  0  0
 38 39  2  0  0  0  0
 42 28  1  0  0  0  0
 44 30  1  0  0  0  0
 45 31  1  0  0  0  0
 46 33  1  0  0  0  0
 50 38  1  0  0  0  0
 51 63  1  6  0  0  0
 51 50  1  0  0  0  0
 51 52  1  0  0  0  0
 52 64  1  0  0  0  0
 52 65  1  0  0  0  0
 53 52  1  0  0  0  0
 54 66  1  0  0  0  0
 54 53  2  0  0  0  0
 55 54  1  0  0  0  0
 56 55  2  0  0  0  0
 56 57  1  0  0  0  0
 57 58  2  0  0  0  0
 58 53  1  0  0  0  0
 58 70  1  0  0  0  0
 59 51  1  0  0  0  0
 60 59  1  0  0  0  0
 61 59  2  0  0  0  0
 62 50  1  0  0  0  0
 67 55  1  0  0  0  0
 68 56  1  0  0  0  0
 69 57  1  0  0  0  0
M  END
$$$$
