WWK.pdb
 OpenBabel07022419193D

 71 74  0  0  1  0  0  0  0  0999 V2000
    1.8420    1.4500    1.8790 N   0  0  0  0  0  0  0  0  0  0  0  0
    2.4320    0.2530    1.3080 C   0  0  1  0  0  0  0  0  0  0  0  0
    3.6450   -0.1410    2.1030 C   0  0  0  0  0  0  0  0  0  0  0  0
    4.6660    0.9270    2.1040 C   0  0  0  0  0  0  0  0  0  0  0  0
    5.0000    1.8070    3.1280 C   0  0  0  0  0  0  0  0  0  0  0  0
    5.9840    2.6070    2.6900 N   0  0  0  0  0  0  0  0  0  0  0  0
    6.3090    2.2950    1.4370 C   0  0  0  0  0  0  0  0  0  0  0  0
    7.2410    2.8080    0.5420 C   0  0  0  0  0  0  0  0  0  0  0  0
    7.3850    2.3010   -0.7320 C   0  0  0  0  0  0  0  0  0  0  0  0
    6.5710    1.2480   -1.1260 C   0  0  0  0  0  0  0  0  0  0  0  0
    5.6430    0.7410   -0.2260 C   0  0  0  0  0  0  0  0  0  0  0  0
    5.4990    1.2490    1.0500 C   0  0  0  0  0  0  0  0  0  0  0  0
    1.4040   -0.7910    1.2510 C   0  0  0  0  0  0  0  0  0  0  0  0
    1.7800   -1.9510    0.8820 O   0  0  0  0  0  0  0  0  0  0  0  0
    1.3690    1.1900    2.7750 H   0  0  0  0  0  0  0  0  0  0  0  0
    2.5580    2.1910    2.0550 H   0  0  0  0  0  0  0  0  0  0  0  0
    2.8040    0.4740    0.2630 H   0  0  0  0  0  0  0  0  0  0  0  0
    3.4280   -0.4100    3.1430 H   0  0  0  0  0  0  0  0  0  0  0  0
    4.0610   -1.0670    1.6080 H   0  0  0  0  0  0  0  0  0  0  0  0
    4.5370    1.8320    4.1030 H   0  0  0  0  0  0  0  0  0  0  0  0
    6.4250    3.3550    3.2410 H   0  0  0  0  0  0  0  0  0  0  0  0
    7.8750    3.6400    0.8700 H   0  0  0  0  0  0  0  0  0  0  0  0
    8.1300    2.7220   -1.4240 H   0  0  0  0  0  0  0  0  0  0  0  0
    6.6670    0.8390   -2.1180 H   0  0  0  0  0  0  0  0  0  0  0  0
    5.0200   -0.0720   -0.5410 H   0  0  0  0  0  0  0  0  0  0  0  0
    0.0350   -0.6110    1.5720 N   0  0  0  0  0  0  0  0  0  0  0  0
   -0.8670   -1.7190    1.4780 C   0  0  1  0  0  0  0  0  0  0  0  0
   -1.7890   -1.8570    2.6330 C   0  0  0  0  0  0  0  0  0  0  0  0
   -2.6980   -3.0220    2.4790 C   0  0  0  0  0  0  0  0  0  0  0  0
   -4.0510   -2.9990    2.1290 C   0  0  0  0  0  0  0  0  0  0  0  0
   -4.5100   -4.2600    2.0990 N   0  0  0  0  0  0  0  0  0  0  0  0
   -3.5380   -5.1280    2.4100 C   0  0  0  0  0  0  0  0  0  0  0  0
   -3.4660   -6.5020    2.5240 C   0  0  0  0  0  0  0  0  0  0  0  0
   -2.2820   -7.1180    2.8710 C   0  0  0  0  0  0  0  0  0  0  0  0
   -1.1650   -6.3370    3.1040 C   0  0  0  0  0  0  0  0  0  0  0  0
   -1.2080   -4.9660    2.9980 C   0  0  0  0  0  0  0  0  0  0  0  0
   -2.4120   -4.3610    2.6460 C   0  0  0  0  0  0  0  0  0  0  0  0
   -1.6770   -1.4830    0.2310 C   0  0  0  0  0  0  0  0  0  0  0  0
   -2.5290   -2.3610   -0.0480 O   0  0  0  0  0  0  0  0  0  0  0  0
   -0.2770    0.3410    1.8740 H   0  0  0  0  0  0  0  0  0  0  0  0
   -0.2810   -2.6490    1.3090 H   0  0  0  0  0  0  0  0  0  0  0  0
   -2.4240   -0.9500    2.7440 H   0  0  0  0  0  0  0  0  0  0  0  0
   -1.2480   -1.9700    3.6080 H   0  0  0  0  0  0  0  0  0  0  0  0
   -4.6120   -2.1160    1.9240 H   0  0  0  0  0  0  0  0  0  0  0  0
   -5.4980   -4.5740    1.8650 H   0  0  0  0  0  0  0  0  0  0  0  0
   -4.3210   -7.1370    2.3490 H   0  0  0  0  0  0  0  0  0  0  0  0
   -2.2020   -8.2120    2.9680 H   0  0  0  0  0  0  0  0  0  0  0  0
   -0.2090   -6.8040    3.3810 H   0  0  0  0  0  0  0  0  0  0  0  0
   -0.3520   -4.3290    3.1730 H   0  0  0  0  0  0  0  0  0  0  0  0
   -1.5060   -0.3510   -0.5930 N   0  0  0  0  0  0  0  0  0  0  0  0
   -2.2790   -0.1150   -1.8030 C   0  0  1  0  0  0  0  0  0  0  0  0
   -2.9340    1.2190   -1.6760 C   0  0  0  0  0  0  0  0  0  0  0  0
   -3.7930    1.6070   -2.8500 C   0  0  0  0  0  0  0  0  0  0  0  0
   -4.9110    0.6070   -3.0450 C   0  0  0  0  0  0  0  0  0  0  0  0
   -5.7810    0.9810   -4.2220 C   0  0  0  0  0  0  0  0  0  0  0  0
   -5.0440    1.0260   -5.4540 N   0  0  0  0  0  0  0  0  0  0  0  0
   -1.3940   -0.2290   -2.9960 C   0  0  0  0  0  0  0  0  0  0  0  0
   -1.9090   -0.0580   -4.1250 O   0  0  0  0  0  0  0  0  0  0  0  0
   -0.0480   -0.5110   -2.9450 O   0  0  0  0  0  0  0  0  0  0  0  0
   -0.7980    0.3590   -0.3340 H   0  0  0  0  0  0  0  0  0  0  0  0
   -3.0130   -0.9430   -1.9030 H   0  0  0  0  0  0  0  0  0  0  0  0
   -3.5690    1.2020   -0.7740 H   0  0  0  0  0  0  0  0  0  0  0  0
   -2.1460    1.9860   -1.5360 H   0  0  0  0  0  0  0  0  0  0  0  0
   -3.2480    1.8030   -3.7690 H   0  0  0  0  0  0  0  0  0  0  0  0
   -4.2960    2.5740   -2.5660 H   0  0  0  0  0  0  0  0  0  0  0  0
   -4.4790   -0.3940   -3.2430 H   0  0  0  0  0  0  0  0  0  0  0  0
   -5.5350    0.5190   -2.1170 H   0  0  0  0  0  0  0  0  0  0  0  0
   -6.6420    0.3010   -4.3260 H   0  0  0  0  0  0  0  0  0  0  0  0
   -6.1800    2.0110   -4.0430 H   0  0  0  0  0  0  0  0  0  0  0  0
   -5.6760    0.9310   -6.2970 H   0  0  0  0  0  0  0  0  0  0  0  0
   -4.2620    0.3300   -5.4930 H   0  0  0  0  0  0  0  0  0  0  0  0
  1 16  1  0  0  0  0
  1 15  1  0  0  0  0
  2 17  1  6  0  0  0
  2  1  1  0  0  0  0
  2  3  1  0  0  0  0
  3  4  1  0  0  0  0
  3 18  1  0  0  0  0
  4  5  2  0  0  0  0
  5 20  1  0  0  0  0
  6  5  1  0  0  0  0
  6 21  1  0  0  0  0
  7  6  1  0  0  0  0
  8 22  1  0  0  0  0
  8  7  2  0  0  0  0
  9  8  1  0  0  0  0
 10  9  2  0  0  0  0
 10 11  1  0  0  0  0
 11 12  2  0  0  0  0
 12  7  1  0  0  0  0
 12  4  1  0  0  0  0
 13  2  1  0  0  0  0
 13 26  1  0  0  0  0
 14 13  2  0  0  0  0
 19  3  1  0  0  0  0
 23  9  1  0  0  0  0
 24 10  1  0  0  0  0
 25 11  1  0  0  0  0
 26 40  1  0  0  0  0
 27 41  1  6  0  0  0
 27 26  1  0  0  0  0
 27 28  1  0  0  0  0
 28 42  1  0  0  0  0
 28 43  1  0  0  0  0
 29 28  1  0  0  0  0
 29 37  1  0  0  0  0
 30 29  2  0  0  0  0
 31 30  1  0  0  0  0
 31 32  1  0  0  0  0
 32 33  2  0  0  0  0
 32 37  1  0  0  0  0
 33 34  1  0  0  0  0
 34 47  1  0  0  0  0
 34 35  2  0  0  0  0
 35 48  1  0  0  0  0
 36 35  1  0  0  0  0
 36 49  1  0  0  0  0
 37 36  2  0  0  0  0
 38 27  1  0  0  0  0
 39 38  2  0  0  0  0
 44 30  1  0  0  0  0
 45 31  1  0  0  0  0
 46 33  1  0  0  0  0
 50 60  1  0  0  0  0
 50 38  1  0  0  0  0
 51 61  1  6  0  0  0
 51 52  1  0  0  0  0
 51 50  1  0  0  0  0
 52 63  1  0  0  0  0
 52 62  1  0  0  0  0
 53 65  1  0  0  0  0
 53 52  1  0  0  0  0
 54 53  1  0  0  0  0
 54 67  1  0  0  0  0
 55 69  1  0  0  0  0
 55 54  1  0  0  0  0
 56 55  1  0  0  0  0
 57 59  1  0  0  0  0
 57 51  1  0  0  0  0
 58 57  2  0  0  0  0
 64 53  1  0  0  0  0
 66 54  1  0  0  0  0
 68 55  1  0  0  0  0
 70 56  1  0  0  0  0
 71 56  1  0  0  0  0
M  END
$$$$
