WWL.pdb
 OpenBabel07022419193D

 69 72  0  0  1  0  0  0  0  0999 V2000
    2.7660    2.2330    2.4270 N   0  0  0  0  0  0  0  0  0  0  0  0
    1.7740    1.2760    2.0630 C   0  0  1  0  0  0  0  0  0  0  0  0
    0.5790    1.8310    1.3450 C   0  0  0  0  0  0  0  0  0  0  0  0
   -0.1710    2.8460    2.1350 C   0  0  0  0  0  0  0  0  0  0  0  0
   -1.3510    2.6270    2.8500 C   0  0  0  0  0  0  0  0  0  0  0  0
   -1.7160    3.7710    3.4460 N   0  0  0  0  0  0  0  0  0  0  0  0
   -0.8510    4.7510    3.1750 C   0  0  0  0  0  0  0  0  0  0  0  0
   -0.8230    6.0730    3.5610 C   0  0  0  0  0  0  0  0  0  0  0  0
    0.2160    6.8550    3.1090 C   0  0  0  0  0  0  0  0  0  0  0  0
    1.2020    6.3050    2.2820 C   0  0  0  0  0  0  0  0  0  0  0  0
    1.1480    4.9780    1.9120 C   0  0  0  0  0  0  0  0  0  0  0  0
    0.1220    4.1760    2.3510 C   0  0  0  0  0  0  0  0  0  0  0  0
    2.3330    0.1680    1.2290 C   0  0  0  0  0  0  0  0  0  0  0  0
    3.5430    0.1520    0.8800 O   0  0  0  0  0  0  0  0  0  0  0  0
    2.9000    2.3450    3.4570 H   0  0  0  0  0  0  0  0  0  0  0  0
    3.6800    1.9500    2.0280 H   0  0  0  0  0  0  0  0  0  0  0  0
    1.4600    0.7690    3.0230 H   0  0  0  0  0  0  0  0  0  0  0  0
    0.8750    2.2510    0.3410 H   0  0  0  0  0  0  0  0  0  0  0  0
   -0.0990    0.9920    1.1000 H   0  0  0  0  0  0  0  0  0  0  0  0
   -1.8420    1.6710    2.8800 H   0  0  0  0  0  0  0  0  0  0  0  0
   -2.5730    3.9130    4.0590 H   0  0  0  0  0  0  0  0  0  0  0  0
   -1.5860    6.5110    4.2040 H   0  0  0  0  0  0  0  0  0  0  0  0
    0.2270    7.8810    3.4150 H   0  0  0  0  0  0  0  0  0  0  0  0
    1.9850    6.9470    1.9560 H   0  0  0  0  0  0  0  0  0  0  0  0
    1.9190    4.5850    1.2700 H   0  0  0  0  0  0  0  0  0  0  0  0
    1.5090   -0.8980    0.8120 N   0  0  0  0  0  0  0  0  0  0  0  0
    2.0270   -1.9980   -0.0020 C   0  0  1  0  0  0  0  0  0  0  0  0
    2.0770   -3.2700    0.7740 C   0  0  0  0  0  0  0  0  0  0  0  0
    0.7900   -3.7510    1.3240 C   0  0  0  0  0  0  0  0  0  0  0  0
    0.2610   -3.3980    2.5700 C   0  0  0  0  0  0  0  0  0  0  0  0
   -0.9260   -3.9830    2.6810 N   0  0  0  0  0  0  0  0  0  0  0  0
   -1.2240   -4.7050    1.5890 C   0  0  0  0  0  0  0  0  0  0  0  0
   -2.3120   -5.4860    1.2690 C   0  0  0  0  0  0  0  0  0  0  0  0
   -2.3550   -6.1610    0.0620 C   0  0  0  0  0  0  0  0  0  0  0  0
   -1.2780   -6.0140   -0.7810 C   0  0  0  0  0  0  0  0  0  0  0  0
   -0.1900   -5.2430   -0.4800 C   0  0  0  0  0  0  0  0  0  0  0  0
   -0.1530   -4.5660    0.7340 C   0  0  0  0  0  0  0  0  0  0  0  0
    1.3710   -2.1090   -1.2910 C   0  0  0  0  0  0  0  0  0  0  0  0
    1.7260   -3.0090   -2.0890 O   0  0  0  0  0  0  0  0  0  0  0  0
    0.5050   -0.9420    1.0670 H   0  0  0  0  0  0  0  0  0  0  0  0
    3.1420   -1.7410   -0.1760 H   0  0  0  0  0  0  0  0  0  0  0  0
    2.5900   -4.0920    0.2170 H   0  0  0  0  0  0  0  0  0  0  0  0
    2.7290   -3.0700    1.6800 H   0  0  0  0  0  0  0  0  0  0  0  0
    0.7280   -2.7750    3.2910 H   0  0  0  0  0  0  0  0  0  0  0  0
   -1.6130   -3.9370    3.4920 H   0  0  0  0  0  0  0  0  0  0  0  0
   -3.1620   -5.5990    1.9400 H   0  0  0  0  0  0  0  0  0  0  0  0
   -3.2240   -6.7640   -0.1580 H   0  0  0  0  0  0  0  0  0  0  0  0
   -1.3260   -6.5490   -1.7210 H   0  0  0  0  0  0  0  0  0  0  0  0
    0.6180   -5.1790   -1.1600 H   0  0  0  0  0  0  0  0  0  0  0  0
   -2.5560   -3.4500   -2.5770 C   0  0  0  0  0  0  0  0  0  0  0  0
   -2.6330   -1.9840   -2.2970 C   0  0  0  0  0  0  0  0  0  0  0  0
   -2.4860   -1.6640   -0.8230 C   0  0  0  0  0  0  0  0  0  0  0  0
   -1.7260   -1.1470   -3.1050 C   0  0  0  0  0  0  0  0  0  0  0  0
   -0.2690   -1.3860   -2.9990 C   0  0  2  0  0  0  0  0  0  0  0  0
    0.3210   -1.2210   -1.7130 N   0  0  0  0  0  0  0  0  0  0  0  0
    0.3770   -0.3760   -3.9360 C   0  0  0  0  0  0  0  0  0  0  0  0
    1.2600    0.3990   -3.5080 O   0  0  0  0  0  0  0  0  0  0  0  0
    0.0200   -0.2790   -5.2680 O   0  0  0  0  0  0  0  0  0  0  0  0
   -1.5390   -3.8400   -2.6570 H   0  0  0  0  0  0  0  0  0  0  0  0
   -3.0670   -3.9670   -1.7400 H   0  0  0  0  0  0  0  0  0  0  0  0
   -3.1770   -3.6530   -3.4750 H   0  0  0  0  0  0  0  0  0  0  0  0
   -3.6870   -1.6650   -2.5530 H   0  0  0  0  0  0  0  0  0  0  0  0
   -2.3070   -0.5940   -0.6680 H   0  0  0  0  0  0  0  0  0  0  0  0
   -1.7010   -2.3020   -0.4140 H   0  0  0  0  0  0  0  0  0  0  0  0
   -3.4250   -1.9120   -0.2550 H   0  0  0  0  0  0  0  0  0  0  0  0
   -1.9860   -1.2140   -4.1980 H   0  0  0  0  0  0  0  0  0  0  0  0
   -1.9220   -0.0720   -2.8490 H   0  0  0  0  0  0  0  0  0  0  0  0
   -0.0120   -2.3630   -3.4740 H   0  0  0  0  0  0  0  0  0  0  0  0
    0.0600   -0.4940   -1.0180 H   0  0  0  0  0  0  0  0  0  0  0  0
  1 15  1  0  0  0  0
  2  1  1  0  0  0  0
  2 17  1  1  0  0  0
  3  2  1  0  0  0  0
  3  4  1  0  0  0  0
  4 12  1  0  0  0  0
  4  5  2  0  0  0  0
  5 20  1  0  0  0  0
  5  6  1  0  0  0  0
  6 21  1  0  0  0  0
  7  6  1  0  0  0  0
  7  8  1  0  0  0  0
  8 22  1  0  0  0  0
  9 23  1  0  0  0  0
  9  8  2  0  0  0  0
 10  9  1  0  0  0  0
 11 10  2  0  0  0  0
 11 12  1  0  0  0  0
 12  7  2  0  0  0  0
 13  2  1  0  0  0  0
 14 13  2  0  0  0  0
 16  1  1  0  0  0  0
 18  3  1  0  0  0  0
 19  3  1  0  0  0  0
 24 10  1  0  0  0  0
 25 11  1  0  0  0  0
 26 40  1  0  0  0  0
 26 13  1  0  0  0  0
 27 41  1  6  0  0  0
 27 28  1  0  0  0  0
 27 26  1  0  0  0  0
 28 29  1  0  0  0  0
 28 43  1  0  0  0  0
 29 30  2  0  0  0  0
 30 31  1  0  0  0  0
 30 44  1  0  0  0  0
 31 45  1  0  0  0  0
 32 31  1  0  0  0  0
 33 32  1  0  0  0  0
 33 46  1  0  0  0  0
 34 33  2  0  0  0  0
 35 36  2  0  0  0  0
 35 34  1  0  0  0  0
 36 37  1  0  0  0  0
 37 29  1  0  0  0  0
 37 32  2  0  0  0  0
 38 27  1  0  0  0  0
 39 38  2  0  0  0  0
 42 28  1  0  0  0  0
 47 34  1  0  0  0  0
 48 35  1  0  0  0  0
 49 36  1  0  0  0  0
 50 51  1  0  0  0  0
 50 60  1  0  0  0  0
 51 52  1  0  0  0  0
 52 63  1  0  0  0  0
 52 64  1  0  0  0  0
 52 65  1  0  0  0  0
 53 54  1  0  0  0  0
 53 67  1  0  0  0  0
 53 51  1  0  0  0  0
 54 68  1  6  0  0  0
 54 55  1  0  0  0  0
 55 38  1  0  0  0  0
 55 69  1  0  0  0  0
 56 57  1  0  0  0  0
 56 54  1  0  0  0  0
 58 56  2  0  0  0  0
 59 50  1  0  0  0  0
 61 50  1  0  0  0  0
 62 51  1  0  0  0  0
 66 53  1  0  0  0  0
M  END
$$$$
