WWR.pdb
 OpenBabel07022419193D

 73 76  0  0  1  0  0  0  0  0999 V2000
    0.4370   -1.1940    4.3990 N   0  0  0  0  0  0  0  0  0  0  0  0
    0.3950   -0.0740    3.4620 C   0  0  1  0  0  0  0  0  0  0  0  0
    1.5950    0.7620    3.7100 C   0  0  0  0  0  0  0  0  0  0  0  0
    1.7910    1.9480    2.8830 C   0  0  0  0  0  0  0  0  0  0  0  0
    1.2840    3.2210    3.1800 C   0  0  0  0  0  0  0  0  0  0  0  0
    1.5920    4.0740    2.2050 N   0  0  0  0  0  0  0  0  0  0  0  0
    2.2840    3.3890    1.2860 C   0  0  0  0  0  0  0  0  0  0  0  0
    2.8490    3.8260    0.0860 C   0  0  0  0  0  0  0  0  0  0  0  0
    3.5350    2.9380   -0.6830 C   0  0  0  0  0  0  0  0  0  0  0  0
    3.6980    1.6240   -0.3300 C   0  0  0  0  0  0  0  0  0  0  0  0
    3.1350    1.2150    0.8520 C   0  0  0  0  0  0  0  0  0  0  0  0
    2.4270    2.0680    1.6730 C   0  0  0  0  0  0  0  0  0  0  0  0
    0.1040   -0.4700    2.0870 C   0  0  0  0  0  0  0  0  0  0  0  0
    0.1020    0.4090    1.2040 O   0  0  0  0  0  0  0  0  0  0  0  0
    1.0800   -1.9420    4.0760 H   0  0  0  0  0  0  0  0  0  0  0  0
   -0.4850   -1.4980    4.7230 H   0  0  0  0  0  0  0  0  0  0  0  0
   -0.5010    0.5510    3.7980 H   0  0  0  0  0  0  0  0  0  0  0  0
    1.4940    1.1510    4.7790 H   0  0  0  0  0  0  0  0  0  0  0  0
    2.5450    0.1530    3.7110 H   0  0  0  0  0  0  0  0  0  0  0  0
    0.7350    3.4400    4.0710 H   0  0  0  0  0  0  0  0  0  0  0  0
    1.3480    5.0730    2.1620 H   0  0  0  0  0  0  0  0  0  0  0  0
    2.7530    4.8470   -0.2420 H   0  0  0  0  0  0  0  0  0  0  0  0
    3.9860    3.2720   -1.6320 H   0  0  0  0  0  0  0  0  0  0  0  0
    4.2600    0.9430   -0.9780 H   0  0  0  0  0  0  0  0  0  0  0  0
    3.2280    0.1820    1.1880 H   0  0  0  0  0  0  0  0  0  0  0  0
   -0.1860   -1.8140    1.7180 N   0  0  0  0  0  0  0  0  0  0  0  0
   -0.4950   -2.2910    0.4200 C   0  0  1  0  0  0  0  0  0  0  0  0
   -1.9820   -2.1940    0.1880 C   0  0  0  0  0  0  0  0  0  0  0  0
   -2.6600   -3.0330    1.2110 C   0  0  0  0  0  0  0  0  0  0  0  0
   -3.2640   -2.5500    2.3470 C   0  0  0  0  0  0  0  0  0  0  0  0
   -3.7660   -3.5680    3.0730 N   0  0  0  0  0  0  0  0  0  0  0  0
   -3.4710   -4.6920    2.3830 C   0  0  0  0  0  0  0  0  0  0  0  0
   -3.7650   -6.0050    2.6920 C   0  0  0  0  0  0  0  0  0  0  0  0
   -3.3430   -6.9730    1.7920 C   0  0  0  0  0  0  0  0  0  0  0  0
   -2.6630   -6.6620    0.6420 C   0  0  0  0  0  0  0  0  0  0  0  0
   -2.3640   -5.3560    0.3240 C   0  0  0  0  0  0  0  0  0  0  0  0
   -2.7870   -4.3810    1.2260 C   0  0  0  0  0  0  0  0  0  0  0  0
    0.3510   -1.7930   -0.6580 C   0  0  0  0  0  0  0  0  0  0  0  0
    1.3420   -1.0770   -0.3840 O   0  0  0  0  0  0  0  0  0  0  0  0
   -0.1580   -2.5030    2.5520 H   0  0  0  0  0  0  0  0  0  0  0  0
   -0.1940   -3.4140    0.4620 H   0  0  0  0  0  0  0  0  0  0  0  0
   -2.3130   -2.5410   -0.7930 H   0  0  0  0  0  0  0  0  0  0  0  0
   -2.2610   -1.1330    0.3470 H   0  0  0  0  0  0  0  0  0  0  0  0
   -3.3510   -1.5170    2.6570 H   0  0  0  0  0  0  0  0  0  0  0  0
   -4.2860   -3.5380    3.9950 H   0  0  0  0  0  0  0  0  0  0  0  0
   -4.2910   -6.2860    3.5760 H   0  0  0  0  0  0  0  0  0  0  0  0
   -3.5430   -8.0240    1.9810 H   0  0  0  0  0  0  0  0  0  0  0  0
   -2.3300   -7.4240   -0.0670 H   0  0  0  0  0  0  0  0  0  0  0  0
   -1.8290   -5.1000   -0.5840 H   0  0  0  0  0  0  0  0  0  0  0  0
   -1.3650    3.2860   -0.8400 N   0  0  0  0  0  0  0  0  0  0  0  0
   -1.3620    2.4770   -2.0220 C   0  0  0  0  0  0  0  0  0  0  0  0
   -1.2660    3.0320   -3.1770 N   0  0  0  0  0  0  0  0  0  0  0  0
   -1.4640    1.0620   -1.9520 N   0  0  0  0  0  0  0  0  0  0  0  0
   -1.6480    0.2820   -3.1300 C   0  0  0  0  0  0  0  0  0  0  0  0
   -0.4980    0.2400   -4.0760 C   0  0  0  0  0  0  0  0  0  0  0  0
    0.7830   -0.3050   -3.5780 C   0  0  0  0  0  0  0  0  0  0  0  0
    0.8410   -1.7000   -3.1180 C   0  0  2  0  0  0  0  0  0  0  0  0
    0.0500   -2.1270   -2.0310 N   0  0  0  0  0  0  0  0  0  0  0  0
    2.2940   -2.0550   -2.9040 C   0  0  0  0  0  0  0  0  0  0  0  0
    2.5840   -2.7050   -1.8800 O   0  0  0  0  0  0  0  0  0  0  0  0
    3.2920   -1.6920   -3.7820 O   0  0  0  0  0  0  0  0  0  0  0  0
   -0.6870    3.1090   -0.0810 H   0  0  0  0  0  0  0  0  0  0  0  0
   -2.0630    4.0480   -0.7690 H   0  0  0  0  0  0  0  0  0  0  0  0
   -1.1920    4.0700   -3.2230 H   0  0  0  0  0  0  0  0  0  0  0  0
   -1.4030    0.6090   -1.0120 H   0  0  0  0  0  0  0  0  0  0  0  0
   -1.9100   -0.7590   -2.8260 H   0  0  0  0  0  0  0  0  0  0  0  0
   -2.5400    0.6580   -3.7320 H   0  0  0  0  0  0  0  0  0  0  0  0
   -0.2810    1.3050   -4.4020 H   0  0  0  0  0  0  0  0  0  0  0  0
   -0.7860   -0.2640   -5.0410 H   0  0  0  0  0  0  0  0  0  0  0  0
    1.2120    0.4270   -2.8410 H   0  0  0  0  0  0  0  0  0  0  0  0
    1.5180   -0.2260   -4.4450 H   0  0  0  0  0  0  0  0  0  0  0  0
    0.6050   -2.3420   -4.0520 H   0  0  0  0  0  0  0  0  0  0  0  0
   -0.7910   -2.7180   -2.1720 H   0  0  0  0  0  0  0  0  0  0  0  0
  1 16  1  0  0  0  0
  2  3  1  0  0  0  0
  2 17  1  1  0  0  0
  2  1  1  0  0  0  0
  3 19  1  0  0  0  0
  3 18  1  0  0  0  0
  4  5  2  0  0  0  0
  4  3  1  0  0  0  0
  5 20  1  0  0  0  0
  6  5  1  0  0  0  0
  7 12  1  0  0  0  0
  7  6  1  0  0  0  0
  8  7  2  0  0  0  0
  9 10  2  0  0  0  0
  9  8  1  0  0  0  0
 10 11  1  0  0  0  0
 11 25  1  0  0  0  0
 11 12  2  0  0  0  0
 12  4  1  0  0  0  0
 13  2  1  0  0  0  0
 14 13  2  0  0  0  0
 15  1  1  0  0  0  0
 21  6  1  0  0  0  0
 22  8  1  0  0  0  0
 23  9  1  0  0  0  0
 24 10  1  0  0  0  0
 26 13  1  0  0  0  0
 26 40  1  0  0  0  0
 27 41  1  1  0  0  0
 27 26  1  0  0  0  0
 28 43  1  0  0  0  0
 28 27  1  0  0  0  0
 28 29  1  0  0  0  0
 29 37  1  0  0  0  0
 29 30  2  0  0  0  0
 30 44  1  0  0  0  0
 30 31  1  0  0  0  0
 31 45  1  0  0  0  0
 32 33  1  0  0  0  0
 32 31  1  0  0  0  0
 33 46  1  0  0  0  0
 34 47  1  0  0  0  0
 34 33  2  0  0  0  0
 35 34  1  0  0  0  0
 36 35  2  0  0  0  0
 36 37  1  0  0  0  0
 37 32  2  0  0  0  0
 38 39  2  0  0  0  0
 38 27  1  0  0  0  0
 42 28  1  0  0  0  0
 48 35  1  0  0  0  0
 49 36  1  0  0  0  0
 50 63  1  0  0  0  0
 50 62  1  0  0  0  0
 51 53  1  0  0  0  0
 51 50  1  0  0  0  0
 52 51  2  0  0  0  0
 53 65  1  0  0  0  0
 54 66  1  0  0  0  0
 54 53  1  0  0  0  0
 55 56  1  0  0  0  0
 55 54  1  0  0  0  0
 56 57  1  0  0  0  0
 56 70  1  0  0  0  0
 57 72  1  6  0  0  0
 57 59  1  0  0  0  0
 57 58  1  0  0  0  0
 58 38  1  0  0  0  0
 59 60  1  0  0  0  0
 61 59  2  0  0  0  0
 64 52  1  0  0  0  0
 67 54  1  0  0  0  0
 68 55  1  0  0  0  0
 69 55  1  0  0  0  0
 71 56  1  0  0  0  0
 73 58  1  0  0  0  0
M  END
$$$$
