WWW.pdb
 OpenBabel07022419193D

 74 79  0  0  1  0  0  0  0  0999 V2000
   -2.4540   -2.5020    3.8370 N   0  0  0  0  0  0  0  0  0  0  0  0
   -1.8760   -3.2800    2.7350 C   0  0  1  0  0  0  0  0  0  0  0  0
   -2.9760   -4.0990    2.1460 C   0  0  0  0  0  0  0  0  0  0  0  0
   -2.5450   -4.9290    1.0080 C   0  0  0  0  0  0  0  0  0  0  0  0
   -2.0280   -6.2310    1.1010 C   0  0  0  0  0  0  0  0  0  0  0  0
   -1.6880   -6.6430   -0.1290 N   0  0  0  0  0  0  0  0  0  0  0  0
   -1.9510   -5.6920   -1.0280 C   0  0  0  0  0  0  0  0  0  0  0  0
   -1.8130   -5.6120   -2.3810 C   0  0  0  0  0  0  0  0  0  0  0  0
   -2.1930   -4.4890   -3.1090 C   0  0  0  0  0  0  0  0  0  0  0  0
   -2.7270   -3.4230   -2.4250 C   0  0  0  0  0  0  0  0  0  0  0  0
   -2.8640   -3.5060   -1.0610 C   0  0  0  0  0  0  0  0  0  0  0  0
   -2.4830   -4.6300   -0.3250 C   0  0  0  0  0  0  0  0  0  0  0  0
   -1.0860   -2.4710    1.8380 C   0  0  0  0  0  0  0  0  0  0  0  0
   -0.5050   -2.8670    0.8010 O   0  0  0  0  0  0  0  0  0  0  0  0
   -2.4330   -3.0220    4.7290 H   0  0  0  0  0  0  0  0  0  0  0  0
   -3.4350   -2.2730    3.5510 H   0  0  0  0  0  0  0  0  0  0  0  0
   -1.1860   -4.0490    3.2340 H   0  0  0  0  0  0  0  0  0  0  0  0
   -3.7310   -3.3550    1.7500 H   0  0  0  0  0  0  0  0  0  0  0  0
   -3.4800   -4.7070    2.9360 H   0  0  0  0  0  0  0  0  0  0  0  0
   -1.9130   -6.8200    1.9940 H   0  0  0  0  0  0  0  0  0  0  0  0
   -1.2780   -7.5830   -0.3260 H   0  0  0  0  0  0  0  0  0  0  0  0
   -1.3900   -6.4310   -2.9870 H   0  0  0  0  0  0  0  0  0  0  0  0
   -2.0710   -4.4570   -4.1790 H   0  0  0  0  0  0  0  0  0  0  0  0
   -3.0320   -2.5360   -2.9810 H   0  0  0  0  0  0  0  0  0  0  0  0
   -3.2850   -2.6730   -0.5200 H   0  0  0  0  0  0  0  0  0  0  0  0
   -0.9320   -1.0540    2.1470 N   0  0  0  0  0  0  0  0  0  0  0  0
   -0.1670   -0.2170    1.2910 C   0  0  1  0  0  0  0  0  0  0  0  0
   -0.8880    0.9900    0.8490 C   0  0  0  0  0  0  0  0  0  0  0  0
   -2.1130    0.6420    0.1000 C   0  0  0  0  0  0  0  0  0  0  0  0
   -2.2160    0.5250   -1.3020 C   0  0  0  0  0  0  0  0  0  0  0  0
   -3.4580    0.1660   -1.6390 N   0  0  0  0  0  0  0  0  0  0  0  0
   -4.1980    0.0360   -0.5270 C   0  0  0  0  0  0  0  0  0  0  0  0
   -5.5300   -0.3060   -0.3620 C   0  0  0  0  0  0  0  0  0  0  0  0
   -6.0460   -0.3530    0.9130 C   0  0  0  0  0  0  0  0  0  0  0  0
   -5.2500   -0.0640    1.9970 C   0  0  0  0  0  0  0  0  0  0  0  0
   -3.9240    0.2750    1.8290 C   0  0  0  0  0  0  0  0  0  0  0  0
   -3.3800    0.3280    0.5580 C   0  0  0  0  0  0  0  0  0  0  0  0
    1.1800    0.1000    1.8760 C   0  0  0  0  0  0  0  0  0  0  0  0
    1.4610   -0.3670    3.0070 O   0  0  0  0  0  0  0  0  0  0  0  0
   -1.3780   -0.6840    3.0160 H   0  0  0  0  0  0  0  0  0  0  0  0
    0.0710   -0.8160    0.3550 H   0  0  0  0  0  0  0  0  0  0  0  0
   -1.1900    1.5510    1.7900 H   0  0  0  0  0  0  0  0  0  0  0  0
   -0.2680    1.6820    0.2300 H   0  0  0  0  0  0  0  0  0  0  0  0
   -1.3720    0.7130   -1.9590 H   0  0  0  0  0  0  0  0  0  0  0  0
   -3.8160    0.0070   -2.5980 H   0  0  0  0  0  0  0  0  0  0  0  0
   -6.1290   -0.5270   -1.2410 H   0  0  0  0  0  0  0  0  0  0  0  0
   -7.0980   -0.6260    1.0090 H   0  0  0  0  0  0  0  0  0  0  0  0
   -5.6820   -0.1070    2.9920 H   0  0  0  0  0  0  0  0  0  0  0  0
   -3.2880    0.5210    2.6720 H   0  0  0  0  0  0  0  0  0  0  0  0
    2.1240    0.8920    1.2090 N   0  0  0  0  0  0  0  0  0  0  0  0
    3.4320    1.2220    1.7370 C   0  0  1  0  0  0  0  0  0  0  0  0
    4.5450    0.6540    0.9510 C   0  0  0  0  0  0  0  0  0  0  0  0
    4.6270    1.0110   -0.4700 C   0  0  0  0  0  0  0  0  0  0  0  0
    4.1550    0.2510   -1.5410 C   0  0  0  0  0  0  0  0  0  0  0  0
    4.3690    0.9010   -2.6690 N   0  0  0  0  0  0  0  0  0  0  0  0
    4.9760    2.0910   -2.4140 C   0  0  0  0  0  0  0  0  0  0  0  0
    5.3870    3.0800   -3.2800 C   0  0  0  0  0  0  0  0  0  0  0  0
    5.9920    4.1980   -2.7680 C   0  0  0  0  0  0  0  0  0  0  0  0
    6.1610    4.2780   -1.4040 C   0  0  0  0  0  0  0  0  0  0  0  0
    5.7530    3.2940   -0.5370 C   0  0  0  0  0  0  0  0  0  0  0  0
    5.1370    2.1560   -1.0280 C   0  0  0  0  0  0  0  0  0  0  0  0
    3.5140    2.6350    2.0940 C   0  0  0  0  0  0  0  0  0  0  0  0
    4.4880    3.1520    2.6950 O   0  0  0  0  0  0  0  0  0  0  0  0
    2.4740    3.5330    1.7780 O   0  0  0  0  0  0  0  0  0  0  0  0
    1.8400    1.2610    0.2560 H   0  0  0  0  0  0  0  0  0  0  0  0
    3.4730    0.6640    2.7430 H   0  0  0  0  0  0  0  0  0  0  0  0
    4.6240   -0.4560    1.1190 H   0  0  0  0  0  0  0  0  0  0  0  0
    5.5000    1.0370    1.4250 H   0  0  0  0  0  0  0  0  0  0  0  0
    3.6980   -0.7130   -1.3920 H   0  0  0  0  0  0  0  0  0  0  0  0
    4.1240    0.5870   -3.6490 H   0  0  0  0  0  0  0  0  0  0  0  0
    5.2510    3.0090   -4.3470 H   0  0  0  0  0  0  0  0  0  0  0  0
    6.3420    5.0220   -3.4030 H   0  0  0  0  0  0  0  0  0  0  0  0
    6.6340    5.1460   -0.9740 H   0  0  0  0  0  0  0  0  0  0  0  0
    5.9040    3.3570    0.5270 H   0  0  0  0  0  0  0  0  0  0  0  0
  1 15  1  0  0  0  0
  2 17  1  1  0  0  0
  2  1  1  0  0  0  0
  3  2  1  0  0  0  0
  3 19  1  0  0  0  0
  4  5  2  0  0  0  0
  4  3  1  0  0  0  0
  5 20  1  0  0  0  0
  6  5  1  0  0  0  0
  7 12  1  0  0  0  0
  7  6  1  0  0  0  0
  8  7  2  0  0  0  0
  9 10  2  0  0  0  0
  9  8  1  0  0  0  0
 10 11  1  0  0  0  0
 11 25  1  0  0  0  0
 11 12  2  0  0  0  0
 12  4  1  0  0  0  0
 13 26  1  0  0  0  0
 13  2  1  0  0  0  0
 14 13  2  0  0  0  0
 16  1  1  0  0  0  0
 18  3  1  0  0  0  0
 21  6  1  0  0  0  0
 22  8  1  0  0  0  0
 23  9  1  0  0  0  0
 24 10  1  0  0  0  0
 26 40  1  0  0  0  0
 27 41  1  6  0  0  0
 27 38  1  0  0  0  0
 27 26  1  0  0  0  0
 28 27  1  0  0  0  0
 28 42  1  0  0  0  0
 29 37  1  0  0  0  0
 29 28  1  0  0  0  0
 30 29  2  0  0  0  0
 31 30  1  0  0  0  0
 31 32  1  0  0  0  0
 32 33  2  0  0  0  0
 32 37  1  0  0  0  0
 33 34  1  0  0  0  0
 34 47  1  0  0  0  0
 34 35  2  0  0  0  0
 35 48  1  0  0  0  0
 36 35  1  0  0  0  0
 36 49  1  0  0  0  0
 37 36  2  0  0  0  0
 38 39  2  0  0  0  0
 43 28  1  0  0  0  0
 44 30  1  0  0  0  0
 45 31  1  0  0  0  0
 46 33  1  0  0  0  0
 50 51  1  0  0  0  0
 50 38  1  0  0  0  0
 51 62  1  0  0  0  0
 51 66  1  1  0  0  0
 52 67  1  0  0  0  0
 52 68  1  0  0  0  0
 52 51  1  0  0  0  0
 53 52  1  0  0  0  0
 54 69  1  0  0  0  0
 54 53  2  0  0  0  0
 55 56  1  0  0  0  0
 55 54  1  0  0  0  0
 56 61  1  0  0  0  0
 57 58  1  0  0  0  0
 57 56  2  0  0  0  0
 58 59  2  0  0  0  0
 59 73  1  0  0  0  0
 59 60  1  0  0  0  0
 60 74  1  0  0  0  0
 61 60  2  0  0  0  0
 61 53  1  0  0  0  0
 62 63  1  0  0  0  0
 64 62  2  0  0  0  0
 65 50  1  0  0  0  0
 70 55  1  0  0  0  0
 71 57  1  0  0  0  0
 72 58  1  0  0  0  0
M  END
$$$$
