WWY.pdb
 OpenBabel07022419193D

 71 75  0  0  1  0  0  0  0  0999 V2000
   -1.0150   -0.8830    3.1090 N   0  0  0  0  0  0  0  0  0  0  0  0
   -0.0380   -1.8640    2.6310 C   0  0  1  0  0  0  0  0  0  0  0  0
   -0.5350   -3.2560    2.8270 C   0  0  0  0  0  0  0  0  0  0  0  0
    0.3760   -4.3010    2.3610 C   0  0  0  0  0  0  0  0  0  0  0  0
    1.3600   -4.9170    3.1460 C   0  0  0  0  0  0  0  0  0  0  0  0
    2.0500   -5.7970    2.4140 N   0  0  0  0  0  0  0  0  0  0  0  0
    1.5520   -5.7920    1.1480 C   0  0  0  0  0  0  0  0  0  0  0  0
    1.8980   -6.5240    0.0250 C   0  0  0  0  0  0  0  0  0  0  0  0
    1.2080   -6.3350   -1.1370 C   0  0  0  0  0  0  0  0  0  0  0  0
    0.1810   -5.4200   -1.1690 C   0  0  0  0  0  0  0  0  0  0  0  0
   -0.1660   -4.6910   -0.0640 C   0  0  0  0  0  0  0  0  0  0  0  0
    0.5240   -4.8690    1.1240 C   0  0  0  0  0  0  0  0  0  0  0  0
    0.4370   -1.5120    1.2860 C   0  0  0  0  0  0  0  0  0  0  0  0
    1.3680   -2.1420    0.7310 O   0  0  0  0  0  0  0  0  0  0  0  0
   -1.2230   -1.0820    4.1050 H   0  0  0  0  0  0  0  0  0  0  0  0
   -0.5520    0.0470    3.0340 H   0  0  0  0  0  0  0  0  0  0  0  0
    0.8860   -1.7820    3.3010 H   0  0  0  0  0  0  0  0  0  0  0  0
   -1.5500   -3.4090    2.3660 H   0  0  0  0  0  0  0  0  0  0  0  0
   -0.6900   -3.3860    3.9360 H   0  0  0  0  0  0  0  0  0  0  0  0
    1.5210   -4.6980    4.1860 H   0  0  0  0  0  0  0  0  0  0  0  0
    2.8340   -6.4010    2.7150 H   0  0  0  0  0  0  0  0  0  0  0  0
    2.7150   -7.2310    0.1100 H   0  0  0  0  0  0  0  0  0  0  0  0
    1.4870   -6.9210   -2.0270 H   0  0  0  0  0  0  0  0  0  0  0  0
   -0.3480   -5.2930   -2.1030 H   0  0  0  0  0  0  0  0  0  0  0  0
   -0.9590   -3.9720   -0.0540 H   0  0  0  0  0  0  0  0  0  0  0  0
   -0.1240   -0.4390    0.5360 N   0  0  0  0  0  0  0  0  0  0  0  0
    0.3500   -0.1200   -0.7560 C   0  0  1  0  0  0  0  0  0  0  0  0
   -0.6590   -0.0510   -1.8580 C   0  0  0  0  0  0  0  0  0  0  0  0
   -1.4050   -1.3060   -2.1110 C   0  0  0  0  0  0  0  0  0  0  0  0
   -1.1420   -2.2540   -3.0960 C   0  0  0  0  0  0  0  0  0  0  0  0
   -2.0240   -3.2460   -2.9870 N   0  0  0  0  0  0  0  0  0  0  0  0
   -2.8800   -3.0050   -1.9610 C   0  0  0  0  0  0  0  0  0  0  0  0
   -3.9590   -3.7440   -1.4740 C   0  0  0  0  0  0  0  0  0  0  0  0
   -4.6850   -3.2700   -0.4100 C   0  0  0  0  0  0  0  0  0  0  0  0
   -4.2950   -2.0640    0.1280 C   0  0  0  0  0  0  0  0  0  0  0  0
   -3.2330   -1.3360   -0.3500 C   0  0  0  0  0  0  0  0  0  0  0  0
   -2.5010   -1.8000   -1.4110 C   0  0  0  0  0  0  0  0  0  0  0  0
    1.2380    1.0890   -0.7510 C   0  0  0  0  0  0  0  0  0  0  0  0
    1.7280    1.5180   -1.8190 O   0  0  0  0  0  0  0  0  0  0  0  0
   -0.8820    0.1050    0.9750 H   0  0  0  0  0  0  0  0  0  0  0  0
    1.0660   -0.9470   -1.0760 H   0  0  0  0  0  0  0  0  0  0  0  0
   -1.3690    0.8020   -1.7360 H   0  0  0  0  0  0  0  0  0  0  0  0
   -0.0750    0.1570   -2.8060 H   0  0  0  0  0  0  0  0  0  0  0  0
   -0.3210   -2.1280   -3.8060 H   0  0  0  0  0  0  0  0  0  0  0  0
   -2.0710   -4.1100   -3.6020 H   0  0  0  0  0  0  0  0  0  0  0  0
   -4.1980   -4.6730   -1.9480 H   0  0  0  0  0  0  0  0  0  0  0  0
   -5.5370   -3.8340   -0.0120 H   0  0  0  0  0  0  0  0  0  0  0  0
   -4.9020   -1.7180    0.9800 H   0  0  0  0  0  0  0  0  0  0  0  0
   -2.9800   -0.3990    0.1010 H   0  0  0  0  0  0  0  0  0  0  0  0
   -2.9160    5.8990   -1.5440 O   0  0  0  0  0  0  0  0  0  0  0  0
   -1.7900    5.4510   -0.8660 C   0  0  0  0  0  0  0  0  0  0  0  0
   -0.5320    5.9360   -1.1690 C   0  0  0  0  0  0  0  0  0  0  0  0
    0.6150    5.5310   -0.5340 C   0  0  0  0  0  0  0  0  0  0  0  0
    0.5250    4.5820    0.4710 C   0  0  0  0  0  0  0  0  0  0  0  0
    1.7300    4.1300    1.1700 C   0  0  0  0  0  0  0  0  0  0  0  0
    2.3940    2.9350    0.5230 C   0  0  2  0  0  0  0  0  0  0  0  0
    1.5490    1.7750    0.4510 N   0  0  0  0  0  0  0  0  0  0  0  0
    3.6430    2.6690    1.2860 C   0  0  0  0  0  0  0  0  0  0  0  0
    4.5200    3.5470    1.4660 O   0  0  0  0  0  0  0  0  0  0  0  0
   -0.7140    4.0740    0.8020 C   0  0  0  0  0  0  0  0  0  0  0  0
   -1.8470    4.5000    0.1460 C   0  0  0  0  0  0  0  0  0  0  0  0
    3.8790    1.4150    1.8340 O   0  0  0  0  0  0  0  0  0  0  0  0
   -3.5540    5.2070   -1.8870 H   0  0  0  0  0  0  0  0  0  0  0  0
   -0.4900    6.6820   -1.9650 H   0  0  0  0  0  0  0  0  0  0  0  0
    1.5920    5.9450   -0.8090 H   0  0  0  0  0  0  0  0  0  0  0  0
    1.4020    3.7950    2.1980 H   0  0  0  0  0  0  0  0  0  0  0  0
    2.4650    4.9270    1.3450 H   0  0  0  0  0  0  0  0  0  0  0  0
    2.7320    3.2540   -0.4860 H   0  0  0  0  0  0  0  0  0  0  0  0
    1.1350    1.4120    1.3380 H   0  0  0  0  0  0  0  0  0  0  0  0
   -0.8070    3.3190    1.5970 H   0  0  0  0  0  0  0  0  0  0  0  0
   -2.8290    4.0940    0.4120 H   0  0  0  0  0  0  0  0  0  0  0  0
  1 15  1  0  0  0  0
  2  3  1  0  0  0  0
  2  1  1  0  0  0  0
  2 17  1  1  0  0  0
  3 19  1  0  0  0  0
  4  3  1  0  0  0  0
  4  5  2  0  0  0  0
  5 20  1  0  0  0  0
  6 21  1  0  0  0  0
  6  5  1  0  0  0  0
  7  6  1  0  0  0  0
  8 22  1  0  0  0  0
  8  7  2  0  0  0  0
  9  8  1  0  0  0  0
 10  9  2  0  0  0  0
 10 11  1  0  0  0  0
 11 25  1  0  0  0  0
 11 12  2  0  0  0  0
 12  7  1  0  0  0  0
 12  4  1  0  0  0  0
 13  2  1  0  0  0  0
 14 13  2  0  0  0  0
 16  1  1  0  0  0  0
 18  3  1  0  0  0  0
 23  9  1  0  0  0  0
 24 10  1  0  0  0  0
 26 40  1  0  0  0  0
 26 13  1  0  0  0  0
 27 41  1  6  0  0  0
 27 38  1  0  0  0  0
 27 26  1  0  0  0  0
 28 42  1  0  0  0  0
 28 27  1  0  0  0  0
 29 28  1  0  0  0  0
 29 37  1  0  0  0  0
 30 31  1  0  0  0  0
 30 29  2  0  0  0  0
 31 32  1  0  0  0  0
 32 33  2  0  0  0  0
 32 37  1  0  0  0  0
 33 34  1  0  0  0  0
 34 47  1  0  0  0  0
 34 35  2  0  0  0  0
 35 48  1  0  0  0  0
 36 49  1  0  0  0  0
 36 35  1  0  0  0  0
 37 36  2  0  0  0  0
 38 57  1  0  0  0  0
 39 38  2  0  0  0  0
 43 28  1  0  0  0  0
 44 30  1  0  0  0  0
 45 31  1  0  0  0  0
 46 33  1  0  0  0  0
 50 51  1  0  0  0  0
 51 61  1  0  0  0  0
 52 51  2  0  0  0  0
 52 53  1  0  0  0  0
 53 54  2  0  0  0  0
 54 60  1  0  0  0  0
 54 55  1  0  0  0  0
 55 67  1  0  0  0  0
 55 66  1  0  0  0  0
 56 68  1  6  0  0  0
 56 55  1  0  0  0  0
 56 58  1  0  0  0  0
 57 56  1  0  0  0  0
 57 69  1  0  0  0  0
 58 59  2  0  0  0  0
 58 62  1  0  0  0  0
 60 70  1  0  0  0  0
 61 71  1  0  0  0  0
 61 60  2  0  0  0  0
 63 50  1  0  0  0  0
 64 52  1  0  0  0  0
 65 53  1  0  0  0  0
M  END
$$$$
