WYA.pdb
 OpenBabel07022419193D

 57 59  0  0  1  0  0  0  0  0999 V2000
    1.2690    1.2880    3.5350 N   0  0  0  0  0  0  0  0  0  0  0  0
    1.1070    0.7990    2.1800 C   0  0  1  0  0  0  0  0  0  0  0  0
    2.1990   -0.2020    1.9060 C   0  0  0  0  0  0  0  0  0  0  0  0
    3.5070    0.4800    2.0630 C   0  0  0  0  0  0  0  0  0  0  0  0
    4.4090    0.4050    3.1190 C   0  0  0  0  0  0  0  0  0  0  0  0
    5.4850    1.2020    2.8460 N   0  0  0  0  0  0  0  0  0  0  0  0
    5.3050    1.7850    1.6520 C   0  0  0  0  0  0  0  0  0  0  0  0
    6.0480    2.6580    0.9020 C   0  0  0  0  0  0  0  0  0  0  0  0
    5.6170    3.1140   -0.3330 C   0  0  0  0  0  0  0  0  0  0  0  0
    4.4000    2.6540   -0.7900 C   0  0  0  0  0  0  0  0  0  0  0  0
    3.6220    1.7750   -0.0650 C   0  0  0  0  0  0  0  0  0  0  0  0
    4.0940    1.3500    1.1600 C   0  0  0  0  0  0  0  0  0  0  0  0
   -0.2480    0.1960    2.0490 C   0  0  0  0  0  0  0  0  0  0  0  0
   -1.0450    0.1660    3.0220 O   0  0  0  0  0  0  0  0  0  0  0  0
    1.4630    2.2940    3.5970 H   0  0  0  0  0  0  0  0  0  0  0  0
    1.9020    0.6890    4.1020 H   0  0  0  0  0  0  0  0  0  0  0  0
    1.1680    1.6040    1.4260 H   0  0  0  0  0  0  0  0  0  0  0  0
    2.1000   -0.6590    0.8990 H   0  0  0  0  0  0  0  0  0  0  0  0
    2.1110   -1.0190    2.6330 H   0  0  0  0  0  0  0  0  0  0  0  0
    4.2530   -0.1920    3.9920 H   0  0  0  0  0  0  0  0  0  0  0  0
    6.2950    1.3280    3.4620 H   0  0  0  0  0  0  0  0  0  0  0  0
    7.0120    3.0410    1.2310 H   0  0  0  0  0  0  0  0  0  0  0  0
    6.2180    3.8080   -0.9180 H   0  0  0  0  0  0  0  0  0  0  0  0
    3.9940    2.9720   -1.7580 H   0  0  0  0  0  0  0  0  0  0  0  0
    2.6650    1.4140   -0.4300 H   0  0  0  0  0  0  0  0  0  0  0  0
   -8.0650   -1.6620   -1.3940 O   0  0  0  0  0  0  0  0  0  0  0  0
   -6.7540   -1.2640   -1.1320 C   0  0  0  0  0  0  0  0  0  0  0  0
   -6.4510   -0.4310   -0.0760 C   0  0  0  0  0  0  0  0  0  0  0  0
   -5.1510   -0.0430    0.1750 C   0  0  0  0  0  0  0  0  0  0  0  0
   -4.0960   -0.4720   -0.6210 C   0  0  0  0  0  0  0  0  0  0  0  0
   -2.7270   -0.0330   -0.3220 C   0  0  0  0  0  0  0  0  0  0  0  0
   -1.9940   -0.9620    0.6440 C   0  0  2  0  0  0  0  0  0  0  0  0
   -0.6700   -0.3600    0.8110 N   0  0  0  0  0  0  0  0  0  0  0  0
   -1.9110   -2.3440    0.1600 C   0  0  0  0  0  0  0  0  0  0  0  0
   -2.9720   -2.9940   -0.0200 O   0  0  0  0  0  0  0  0  0  0  0  0
   -4.4040   -1.3030   -1.6740 C   0  0  0  0  0  0  0  0  0  0  0  0
   -5.7100   -1.6920   -1.9250 C   0  0  0  0  0  0  0  0  0  0  0  0
   -8.7660   -0.9540   -1.6510 H   0  0  0  0  0  0  0  0  0  0  0  0
   -7.2780   -0.0940    0.5500 H   0  0  0  0  0  0  0  0  0  0  0  0
   -4.9090    0.6090    1.0010 H   0  0  0  0  0  0  0  0  0  0  0  0
   -2.7050    0.9750    0.1680 H   0  0  0  0  0  0  0  0  0  0  0  0
   -2.1140    0.1010   -1.2610 H   0  0  0  0  0  0  0  0  0  0  0  0
   -2.5160   -0.8830    1.6030 H   0  0  0  0  0  0  0  0  0  0  0  0
    0.0190   -0.3150    0.0260 H   0  0  0  0  0  0  0  0  0  0  0  0
   -3.6150   -1.6720   -2.3370 H   0  0  0  0  0  0  0  0  0  0  0  0
   -5.9310   -2.3450   -2.7560 H   0  0  0  0  0  0  0  0  0  0  0  0
    0.0670   -4.3330   -1.9880 C   0  0  0  0  0  0  0  0  0  0  0  0
   -0.5720   -4.3490   -0.5930 C   0  0  2  0  0  0  0  0  0  0  0  0
   -0.6930   -3.0050   -0.1210 N   0  0  0  0  0  0  0  0  0  0  0  0
    0.3620   -5.1000    0.2820 C   0  0  0  0  0  0  0  0  0  0  0  0
    0.9010   -4.5280    1.2610 O   0  0  0  0  0  0  0  0  0  0  0  0
    0.6150   -6.4330   -0.0130 O   0  0  0  0  0  0  0  0  0  0  0  0
   -0.7060   -4.4530   -2.7730 H   0  0  0  0  0  0  0  0  0  0  0  0
    0.7790   -5.1600   -2.0870 H   0  0  0  0  0  0  0  0  0  0  0  0
    0.5960   -3.3640   -2.1610 H   0  0  0  0  0  0  0  0  0  0  0  0
   -1.5490   -4.8570   -0.7210 H   0  0  0  0  0  0  0  0  0  0  0  0
    0.1920   -2.4640    0.0290 H   0  0  0  0  0  0  0  0  0  0  0  0
  1 15  1  0  0  0  0
  1 16  1  0  0  0  0
  2 17  1  6  0  0  0
  2  1  1  0  0  0  0
  3  4  1  0  0  0  0
  3  2  1  0  0  0  0
  3 19  1  0  0  0  0
  4  5  2  0  0  0  0
  5 20  1  0  0  0  0
  6  5  1  0  0  0  0
  6 21  1  0  0  0  0
  7  6  1  0  0  0  0
  8 22  1  0  0  0  0
  8  7  2  0  0  0  0
  9  8  1  0  0  0  0
 10  9  2  0  0  0  0
 10 11  1  0  0  0  0
 11 12  2  0  0  0  0
 12  7  1  0  0  0  0
 12  4  1  0  0  0  0
 13  2  1  0  0  0  0
 13 14  2  0  0  0  0
 18  3  1  0  0  0  0
 23  9  1  0  0  0  0
 24 10  1  0  0  0  0
 25 11  1  0  0  0  0
 26 27  1  0  0  0  0
 27 28  1  0  0  0  0
 28 29  2  0  0  0  0
 28 39  1  0  0  0  0
 29 40  1  0  0  0  0
 30 31  1  0  0  0  0
 30 29  1  0  0  0  0
 31 41  1  0  0  0  0
 31 32  1  0  0  0  0
 32 33  1  0  0  0  0
 32 43  1  1  0  0  0
 33 13  1  0  0  0  0
 34 32  1  0  0  0  0
 35 34  2  0  0  0  0
 36 30  2  0  0  0  0
 37 36  1  0  0  0  0
 37 27  2  0  0  0  0
 38 26  1  0  0  0  0
 42 31  1  0  0  0  0
 44 33  1  0  0  0  0
 45 36  1  0  0  0  0
 46 37  1  0  0  0  0
 47 48  1  0  0  0  0
 48 56  1  6  0  0  0
 48 49  1  0  0  0  0
 48 50  1  0  0  0  0
 49 57  1  0  0  0  0
 49 34  1  0  0  0  0
 50 51  1  0  0  0  0
 52 50  2  0  0  0  0
 53 47  1  0  0  0  0
 54 47  1  0  0  0  0
 55 47  1  0  0  0  0
M  END
$$$$
