WYE.pdb
 OpenBabel07022419193D

 63 65  0  0  1  0  0  0  0  0999 V2000
    1.1740   -0.4600    4.0620 N   0  0  0  0  0  0  0  0  0  0  0  0
    2.0880   -0.1370    2.9540 C   0  0  1  0  0  0  0  0  0  0  0  0
    3.4070   -0.7380    3.2390 C   0  0  0  0  0  0  0  0  0  0  0  0
    4.4340   -0.5230    2.2060 C   0  0  0  0  0  0  0  0  0  0  0  0
    5.4090    0.4810    2.1990 C   0  0  0  0  0  0  0  0  0  0  0  0
    6.1670    0.4080    1.1000 N   0  0  0  0  0  0  0  0  0  0  0  0
    5.7180   -0.6250    0.3750 C   0  0  0  0  0  0  0  0  0  0  0  0
    6.1310   -1.1600   -0.8330 C   0  0  0  0  0  0  0  0  0  0  0  0
    5.5170   -2.2560   -1.3950 C   0  0  0  0  0  0  0  0  0  0  0  0
    4.4590   -2.8460   -0.7440 C   0  0  0  0  0  0  0  0  0  0  0  0
    4.0580   -2.3160    0.4410 C   0  0  0  0  0  0  0  0  0  0  0  0
    4.6510   -1.2200    1.0290 C   0  0  0  0  0  0  0  0  0  0  0  0
    1.4840   -0.3230    1.6520 C   0  0  0  0  0  0  0  0  0  0  0  0
    2.0410    0.0830    0.6170 O   0  0  0  0  0  0  0  0  0  0  0  0
    0.9830   -1.4850    4.0910 H   0  0  0  0  0  0  0  0  0  0  0  0
    0.3380    0.1340    4.0680 H   0  0  0  0  0  0  0  0  0  0  0  0
    2.2260    0.9880    3.0740 H   0  0  0  0  0  0  0  0  0  0  0  0
    3.7970   -0.2160    4.1710 H   0  0  0  0  0  0  0  0  0  0  0  0
    3.3570   -1.8040    3.5690 H   0  0  0  0  0  0  0  0  0  0  0  0
    5.5550    1.2290    2.9620 H   0  0  0  0  0  0  0  0  0  0  0  0
    6.9710    1.0300    0.8310 H   0  0  0  0  0  0  0  0  0  0  0  0
    6.9720   -0.6720   -1.3260 H   0  0  0  0  0  0  0  0  0  0  0  0
    5.8700   -2.6410   -2.3380 H   0  0  0  0  0  0  0  0  0  0  0  0
    3.9310   -3.7170   -1.1370 H   0  0  0  0  0  0  0  0  0  0  0  0
    3.2200   -2.7660    0.9760 H   0  0  0  0  0  0  0  0  0  0  0  0
   -2.8160   -3.1000   -5.4150 O   0  0  0  0  0  0  0  0  0  0  0  0
   -2.2290   -2.9690   -4.1530 C   0  0  0  0  0  0  0  0  0  0  0  0
   -0.8740   -2.7840   -3.9930 C   0  0  0  0  0  0  0  0  0  0  0  0
   -0.3390   -2.6600   -2.7310 C   0  0  0  0  0  0  0  0  0  0  0  0
   -1.1180   -2.7130   -1.5690 C   0  0  0  0  0  0  0  0  0  0  0  0
   -0.5010   -2.5950   -0.2310 C   0  0  0  0  0  0  0  0  0  0  0  0
   -0.3860   -1.1630    0.1510 C   0  0  2  0  0  0  0  0  0  0  0  0
    0.2170   -0.9780    1.4600 N   0  0  0  0  0  0  0  0  0  0  0  0
   -1.6260   -0.3650    0.0110 C   0  0  0  0  0  0  0  0  0  0  0  0
   -2.3430   -0.3100   -1.0170 O   0  0  0  0  0  0  0  0  0  0  0  0
   -2.4760   -2.9010   -1.7680 C   0  0  0  0  0  0  0  0  0  0  0  0
   -3.0160   -3.0250   -3.0250 C   0  0  0  0  0  0  0  0  0  0  0  0
   -3.6890   -2.5830   -5.5970 H   0  0  0  0  0  0  0  0  0  0  0  0
   -0.2310   -2.7360   -4.8600 H   0  0  0  0  0  0  0  0  0  0  0  0
    0.7240   -2.5110   -2.5520 H   0  0  0  0  0  0  0  0  0  0  0  0
   -1.1100   -3.2000    0.4720 H   0  0  0  0  0  0  0  0  0  0  0  0
    0.5380   -2.9970   -0.3260 H   0  0  0  0  0  0  0  0  0  0  0  0
    0.3450   -0.6960   -0.5780 H   0  0  0  0  0  0  0  0  0  0  0  0
   -0.2320   -1.3080    2.3450 H   0  0  0  0  0  0  0  0  0  0  0  0
   -3.1390   -2.9520   -0.9020 H   0  0  0  0  0  0  0  0  0  0  0  0
   -4.0980   -3.1740   -3.1770 H   0  0  0  0  0  0  0  0  0  0  0  0
   -2.1100    0.4380    1.1010 N   0  0  0  0  0  0  0  0  0  0  0  0
   -3.3360    1.2370    0.9900 C   0  0  1  0  0  0  0  0  0  0  0  0
   -4.2200    0.8480    2.1460 C   0  0  0  0  0  0  0  0  0  0  0  0
   -5.5290    1.5540    2.2150 C   0  0  0  0  0  0  0  0  0  0  0  0
   -6.3590    1.2980    1.0400 C   0  0  0  0  0  0  0  0  0  0  0  0
   -5.9910    0.5120    0.1520 O   0  0  0  0  0  0  0  0  0  0  0  0
   -2.9630    2.6730    1.1060 C   0  0  0  0  0  0  0  0  0  0  0  0
   -1.7630    2.9720    1.2860 O   0  0  0  0  0  0  0  0  0  0  0  0
   -7.5870    1.9630    0.9370 O   0  0  0  0  0  0  0  0  0  0  0  0
   -3.8680    3.7090    1.0240 O   0  0  0  0  0  0  0  0  0  0  0  0
   -1.6040    0.4690    1.9880 H   0  0  0  0  0  0  0  0  0  0  0  0
   -3.8080    1.0850    0.0050 H   0  0  0  0  0  0  0  0  0  0  0  0
   -4.4030   -0.2540    2.1370 H   0  0  0  0  0  0  0  0  0  0  0  0
   -3.6400    1.1130    3.0750 H   0  0  0  0  0  0  0  0  0  0  0  0
   -6.0660    1.1350    3.1100 H   0  0  0  0  0  0  0  0  0  0  0  0
   -5.3910    2.6580    2.3970 H   0  0  0  0  0  0  0  0  0  0  0  0
   -8.2000    1.6160    0.1980 H   0  0  0  0  0  0  0  0  0  0  0  0
  1 16  1  0  0  0  0
  1 15  1  0  0  0  0
  2 17  1  1  0  0  0
  2  3  1  0  0  0  0
  2  1  1  0  0  0  0
  3 19  1  0  0  0  0
  3 18  1  0  0  0  0
  4  3  1  0  0  0  0
  5  4  2  0  0  0  0
  5 20  1  0  0  0  0
  6  5  1  0  0  0  0
  7 12  1  0  0  0  0
  7  6  1  0  0  0  0
  8  7  2  0  0  0  0
  9  8  1  0  0  0  0
  9 10  2  0  0  0  0
 10 11  1  0  0  0  0
 11 25  1  0  0  0  0
 11 12  2  0  0  0  0
 12  4  1  0  0  0  0
 13  2  1  0  0  0  0
 14 13  2  0  0  0  0
 21  6  1  0  0  0  0
 22  8  1  0  0  0  0
 23  9  1  0  0  0  0
 24 10  1  0  0  0  0
 26 27  1  0  0  0  0
 27 28  2  0  0  0  0
 27 37  1  0  0  0  0
 28 29  1  0  0  0  0
 29 40  1  0  0  0  0
 29 30  2  0  0  0  0
 30 31  1  0  0  0  0
 31 32  1  0  0  0  0
 31 41  1  0  0  0  0
 32 43  1  6  0  0  0
 32 33  1  0  0  0  0
 33 13  1  0  0  0  0
 33 44  1  0  0  0  0
 34 32  1  0  0  0  0
 34 47  1  0  0  0  0
 35 34  2  0  0  0  0
 36 30  1  0  0  0  0
 36 45  1  0  0  0  0
 37 36  2  0  0  0  0
 38 26  1  0  0  0  0
 39 28  1  0  0  0  0
 42 31  1  0  0  0  0
 46 37  1  0  0  0  0
 47 57  1  0  0  0  0
 48 58  1  6  0  0  0
 48 47  1  0  0  0  0
 48 53  1  0  0  0  0
 48 49  1  0  0  0  0
 49 50  1  0  0  0  0
 49 60  1  0  0  0  0
 50 62  1  0  0  0  0
 50 61  1  0  0  0  0
 51 50  1  0  0  0  0
 52 51  2  0  0  0  0
 53 54  1  0  0  0  0
 55 51  1  0  0  0  0
 56 53  2  0  0  0  0
 59 49  1  0  0  0  0
 63 55  1  0  0  0  0
M  END
$$$$
