WYI.pdb
 OpenBabel07022419193D

 66 68  0  0  1  0  0  0  0  0999 V2000
    3.4320   -0.2720   -2.5400 N   0  0  0  0  0  0  0  0  0  0  0  0
    2.7850   -0.9410   -1.4360 C   0  0  1  0  0  0  0  0  0  0  0  0
    3.2240   -0.4330   -0.0950 C   0  0  0  0  0  0  0  0  0  0  0  0
    4.6750   -0.5810    0.1700 C   0  0  0  0  0  0  0  0  0  0  0  0
    5.2660   -1.6010    0.9300 C   0  0  0  0  0  0  0  0  0  0  0  0
    6.5950   -1.4280    0.9370 N   0  0  0  0  0  0  0  0  0  0  0  0
    6.9300   -0.3410    0.2180 C   0  0  0  0  0  0  0  0  0  0  0  0
    8.1460    0.2440   -0.0650 C   0  0  0  0  0  0  0  0  0  0  0  0
    8.1520    1.3840   -0.8450 C   0  0  0  0  0  0  0  0  0  0  0  0
    6.9930    1.9410   -1.3380 C   0  0  0  0  0  0  0  0  0  0  0  0
    5.7950    1.3240   -1.0310 C   0  0  0  0  0  0  0  0  0  0  0  0
    5.7330    0.1900   -0.2610 C   0  0  0  0  0  0  0  0  0  0  0  0
    1.2980   -0.7650   -1.5130 C   0  0  0  0  0  0  0  0  0  0  0  0
    0.8020   -0.0970   -2.4510 O   0  0  0  0  0  0  0  0  0  0  0  0
    2.8890   -0.3580   -3.4270 H   0  0  0  0  0  0  0  0  0  0  0  0
    4.3520   -0.7360   -2.7010 H   0  0  0  0  0  0  0  0  0  0  0  0
    3.0440   -2.0340   -1.5560 H   0  0  0  0  0  0  0  0  0  0  0  0
    2.6360   -1.0100    0.6690 H   0  0  0  0  0  0  0  0  0  0  0  0
    2.8880    0.6280    0.0590 H   0  0  0  0  0  0  0  0  0  0  0  0
    4.7440   -2.4020    1.4340 H   0  0  0  0  0  0  0  0  0  0  0  0
    7.3300   -2.0210    1.4150 H   0  0  0  0  0  0  0  0  0  0  0  0
    9.0870   -0.1770    0.3140 H   0  0  0  0  0  0  0  0  0  0  0  0
    9.0850    1.8880   -1.1000 H   0  0  0  0  0  0  0  0  0  0  0  0
    6.9910    2.8460   -1.9570 H   0  0  0  0  0  0  0  0  0  0  0  0
    4.8810    1.7610   -1.4070 H   0  0  0  0  0  0  0  0  0  0  0  0
   -7.1890   -3.1180   -1.1510 O   0  0  0  0  0  0  0  0  0  0  0  0
   -5.8060   -2.9670   -1.1090 C   0  0  0  0  0  0  0  0  0  0  0  0
   -5.0880   -3.1830    0.0500 C   0  0  0  0  0  0  0  0  0  0  0  0
   -3.7200   -3.0290    0.0760 C   0  0  0  0  0  0  0  0  0  0  0  0
   -3.0240   -2.6530   -1.0540 C   0  0  0  0  0  0  0  0  0  0  0  0
   -1.5750   -2.5120   -0.9290 C   0  0  0  0  0  0  0  0  0  0  0  0
   -1.0450   -1.1540   -0.6300 C   0  0  2  0  0  0  0  0  0  0  0  0
    0.4240   -1.3300   -0.5550 N   0  0  0  0  0  0  0  0  0  0  0  0
   -1.5300   -0.5250    0.6040 C   0  0  0  0  0  0  0  0  0  0  0  0
   -0.7100   -0.3690    1.5350 O   0  0  0  0  0  0  0  0  0  0  0  0
   -3.7220   -2.4360   -2.2070 C   0  0  0  0  0  0  0  0  0  0  0  0
   -5.0790   -2.5900   -2.2320 C   0  0  0  0  0  0  0  0  0  0  0  0
   -7.7540   -2.3300   -1.5030 H   0  0  0  0  0  0  0  0  0  0  0  0
   -5.6640   -3.4820    0.9400 H   0  0  0  0  0  0  0  0  0  0  0  0
   -3.1820   -3.2140    1.0250 H   0  0  0  0  0  0  0  0  0  0  0  0
   -1.1410   -2.8040   -1.9310 H   0  0  0  0  0  0  0  0  0  0  0  0
   -1.1360   -3.2880   -0.2330 H   0  0  0  0  0  0  0  0  0  0  0  0
   -1.2140   -0.5160   -1.5380 H   0  0  0  0  0  0  0  0  0  0  0  0
    0.8520   -1.8880    0.2250 H   0  0  0  0  0  0  0  0  0  0  0  0
   -3.2060   -2.1430   -3.1040 H   0  0  0  0  0  0  0  0  0  0  0  0
   -5.6690   -2.4210   -3.1480 H   0  0  0  0  0  0  0  0  0  0  0  0
   -1.9150   -1.3140    4.8690 C   0  0  0  0  0  0  0  0  0  0  0  0
   -2.6590   -1.1090    3.5830 C   0  0  0  0  0  0  0  0  0  0  0  0
   -2.7460    0.3440    3.1870 C   0  0  2  0  0  0  0  0  0  0  0  0
   -3.4970    1.0790    4.2730 C   0  0  0  0  0  0  0  0  0  0  0  0
   -3.4760    0.4930    1.8900 C   0  0  2  0  0  0  0  0  0  0  0  0
   -2.8610   -0.1100    0.7380 N   0  0  0  0  0  0  0  0  0  0  0  0
   -3.9960    1.8430    1.6400 C   0  0  0  0  0  0  0  0  0  0  0  0
   -4.5800    2.5200    2.5130 O   0  0  0  0  0  0  0  0  0  0  0  0
   -3.8610    2.4540    0.3800 O   0  0  0  0  0  0  0  0  0  0  0  0
   -2.6120   -1.2540    5.7140 H   0  0  0  0  0  0  0  0  0  0  0  0
   -1.1030   -0.5510    4.9230 H   0  0  0  0  0  0  0  0  0  0  0  0
   -1.4190   -2.3050    4.9280 H   0  0  0  0  0  0  0  0  0  0  0  0
   -3.7340   -1.4650    3.8360 H   0  0  0  0  0  0  0  0  0  0  0  0
   -2.3860   -1.7860    2.7740 H   0  0  0  0  0  0  0  0  0  0  0  0
   -1.7370    0.8230    3.1680 H   0  0  0  0  0  0  0  0  0  0  0  0
   -3.1640    0.6420    5.2630 H   0  0  0  0  0  0  0  0  0  0  0  0
   -4.5880    0.9570    4.2310 H   0  0  0  0  0  0  0  0  0  0  0  0
   -3.2230    2.1520    4.3450 H   0  0  0  0  0  0  0  0  0  0  0  0
   -4.4090   -0.1940    2.0990 H   0  0  0  0  0  0  0  0  0  0  0  0
   -3.5430   -0.2170   -0.0870 H   0  0  0  0  0  0  0  0  0  0  0  0
  1  2  1  0  0  0  0
  2 17  1  6  0  0  0
  2  3  1  0  0  0  0
  3 19  1  0  0  0  0
  3  4  1  0  0  0  0
  3 18  1  0  0  0  0
  4  5  2  0  0  0  0
  5  6  1  0  0  0  0
  5 20  1  0  0  0  0
  6 21  1  0  0  0  0
  7  6  1  0  0  0  0
  8  7  1  0  0  0  0
  8 22  1  0  0  0  0
  9  8  2  0  0  0  0
 10 11  2  0  0  0  0
 10  9  1  0  0  0  0
 11 12  1  0  0  0  0
 12  4  1  0  0  0  0
 12  7  2  0  0  0  0
 13  2  1  0  0  0  0
 13 33  1  0  0  0  0
 14 13  2  0  0  0  0
 15  1  1  0  0  0  0
 16  1  1  0  0  0  0
 23  9  1  0  0  0  0
 24 10  1  0  0  0  0
 25 11  1  0  0  0  0
 26 27  1  0  0  0  0
 27 28  1  0  0  0  0
 28 29  2  0  0  0  0
 28 39  1  0  0  0  0
 29 40  1  0  0  0  0
 30 31  1  0  0  0  0
 30 29  1  0  0  0  0
 31 32  1  0  0  0  0
 31 42  1  0  0  0  0
 32 43  1  6  0  0  0
 32 33  1  0  0  0  0
 32 34  1  0  0  0  0
 33 44  1  0  0  0  0
 34 52  1  0  0  0  0
 34 35  2  0  0  0  0
 36 30  2  0  0  0  0
 37 36  1  0  0  0  0
 37 27  2  0  0  0  0
 38 26  1  0  0  0  0
 41 31  1  0  0  0  0
 45 36  1  0  0  0  0
 46 37  1  0  0  0  0
 47 57  1  0  0  0  0
 47 58  1  0  0  0  0
 47 56  1  0  0  0  0
 48 59  1  0  0  0  0
 48 47  1  0  0  0  0
 49 61  1  6  0  0  0
 49 48  1  0  0  0  0
 49 50  1  0  0  0  0
 50 64  1  0  0  0  0
 50 62  1  0  0  0  0
 51 65  1  1  0  0  0
 51 49  1  0  0  0  0
 52 51  1  0  0  0  0
 53 51  1  0  0  0  0
 53 54  1  0  0  0  0
 55 53  2  0  0  0  0
 60 48  1  0  0  0  0
 63 50  1  0  0  0  0
 66 52  1  0  0  0  0
M  END
$$$$
