WYK.pdb
 OpenBabel07022419193D

 68 70  0  0  1  0  0  0  0  0999 V2000
    2.4670    0.8630    2.6670 N   0  0  0  0  0  0  0  0  0  0  0  0
    1.1370    0.9790    3.2620 C   0  0  1  0  0  0  0  0  0  0  0  0
    0.9050    2.3950    3.7180 C   0  0  0  0  0  0  0  0  0  0  0  0
   -0.4130    2.6460    4.3080 C   0  0  0  0  0  0  0  0  0  0  0  0
   -0.7310    2.6310    5.6500 C   0  0  0  0  0  0  0  0  0  0  0  0
   -2.0420    2.8770    5.8090 N   0  0  0  0  0  0  0  0  0  0  0  0
   -2.5980    3.0570    4.5740 C   0  0  0  0  0  0  0  0  0  0  0  0
   -3.8940    3.3420    4.1800 C   0  0  0  0  0  0  0  0  0  0  0  0
   -4.2320    3.4960    2.8540 C   0  0  0  0  0  0  0  0  0  0  0  0
   -3.2340    3.3570    1.9190 C   0  0  0  0  0  0  0  0  0  0  0  0
   -1.9490    3.0740    2.3000 C   0  0  0  0  0  0  0  0  0  0  0  0
   -1.6050    2.9170    3.6390 C   0  0  0  0  0  0  0  0  0  0  0  0
    0.0760    0.4000    2.4530 C   0  0  0  0  0  0  0  0  0  0  0  0
   -1.0380    0.1630    2.9700 O   0  0  0  0  0  0  0  0  0  0  0  0
    2.5030    1.4160    1.7650 H   0  0  0  0  0  0  0  0  0  0  0  0
    2.5920   -0.1420    2.3890 H   0  0  0  0  0  0  0  0  0  0  0  0
    1.2160    0.3690    4.2200 H   0  0  0  0  0  0  0  0  0  0  0  0
    1.0560    3.0350    2.8090 H   0  0  0  0  0  0  0  0  0  0  0  0
    1.7000    2.7170    4.4360 H   0  0  0  0  0  0  0  0  0  0  0  0
   -0.0440    2.4500    6.4850 H   0  0  0  0  0  0  0  0  0  0  0  0
   -2.6090    2.9360    6.7010 H   0  0  0  0  0  0  0  0  0  0  0  0
   -4.6610    3.4450    4.9570 H   0  0  0  0  0  0  0  0  0  0  0  0
   -5.2650    3.7210    2.5590 H   0  0  0  0  0  0  0  0  0  0  0  0
   -3.4390    3.4680    0.8460 H   0  0  0  0  0  0  0  0  0  0  0  0
   -1.1510    2.9620    1.5660 H   0  0  0  0  0  0  0  0  0  0  0  0
   -5.6850   -1.7350   -3.7750 O   0  0  0  0  0  0  0  0  0  0  0  0
   -4.6170   -1.2050   -3.0450 C   0  0  0  0  0  0  0  0  0  0  0  0
   -3.3110   -1.3250   -3.4600 C   0  0  0  0  0  0  0  0  0  0  0  0
   -2.2850   -0.7870   -2.7100 C   0  0  0  0  0  0  0  0  0  0  0  0
   -2.5060   -0.1080   -1.5200 C   0  0  0  0  0  0  0  0  0  0  0  0
   -1.4060    0.4600   -0.7400 C   0  0  0  0  0  0  0  0  0  0  0  0
   -0.8890   -0.5070    0.2950 C   0  0  2  0  0  0  0  0  0  0  0  0
    0.2020    0.0670    1.0590 N   0  0  0  0  0  0  0  0  0  0  0  0
   -0.5650   -1.8460   -0.2240 C   0  0  0  0  0  0  0  0  0  0  0  0
   -1.3820   -2.5660   -0.8550 O   0  0  0  0  0  0  0  0  0  0  0  0
   -3.8240    0.0020   -1.1220 C   0  0  0  0  0  0  0  0  0  0  0  0
   -4.8600   -0.5390   -1.8750 C   0  0  0  0  0  0  0  0  0  0  0  0
   -5.5570   -1.8970   -4.7850 H   0  0  0  0  0  0  0  0  0  0  0  0
   -3.1250   -1.8520   -4.3850 H   0  0  0  0  0  0  0  0  0  0  0  0
   -1.2550   -0.8990   -3.0650 H   0  0  0  0  0  0  0  0  0  0  0  0
   -0.6350    0.8020   -1.4470 H   0  0  0  0  0  0  0  0  0  0  0  0
   -1.7360    1.3680   -0.1900 H   0  0  0  0  0  0  0  0  0  0  0  0
   -1.7330   -0.6320    1.0090 H   0  0  0  0  0  0  0  0  0  0  0  0
    1.1380    0.2690    0.6420 H   0  0  0  0  0  0  0  0  0  0  0  0
   -4.0400    0.5210   -0.2060 H   0  0  0  0  0  0  0  0  0  0  0  0
   -5.9000   -0.4510   -1.5560 H   0  0  0  0  0  0  0  0  0  0  0  0
    0.7390   -2.4440   -0.0480 N   0  0  0  0  0  0  0  0  0  0  0  0
    1.0370   -3.7590   -0.5640 C   0  0  1  0  0  0  0  0  0  0  0  0
    2.0620   -3.6680   -1.7110 C   0  0  0  0  0  0  0  0  0  0  0  0
    3.3170   -3.0550   -1.2110 C   0  0  0  0  0  0  0  0  0  0  0  0
    4.4110   -2.8620   -2.1970 C   0  0  0  0  0  0  0  0  0  0  0  0
    4.9360   -4.0800   -2.8680 C   0  0  0  0  0  0  0  0  0  0  0  0
    3.9220   -4.7570   -3.6240 N   0  0  0  0  0  0  0  0  0  0  0  0
    1.5610   -4.5840    0.5420 C   0  0  0  0  0  0  0  0  0  0  0  0
    1.6710   -4.1040    1.6760 O   0  0  0  0  0  0  0  0  0  0  0  0
    1.9340   -5.9090    0.3090 O   0  0  0  0  0  0  0  0  0  0  0  0
    1.4730   -1.9240    0.4550 H   0  0  0  0  0  0  0  0  0  0  0  0
    0.1210   -4.2360   -0.9860 H   0  0  0  0  0  0  0  0  0  0  0  0
    2.2620   -4.7280   -2.0150 H   0  0  0  0  0  0  0  0  0  0  0  0
    1.6550   -3.1340   -2.5690 H   0  0  0  0  0  0  0  0  0  0  0  0
    3.0420   -2.0260   -0.8420 H   0  0  0  0  0  0  0  0  0  0  0  0
    3.6990   -3.5610   -0.2820 H   0  0  0  0  0  0  0  0  0  0  0  0
    4.1460   -2.0460   -2.9090 H   0  0  0  0  0  0  0  0  0  0  0  0
    5.2800   -2.4290   -1.6110 H   0  0  0  0  0  0  0  0  0  0  0  0
    5.3790   -4.7460   -2.0850 H   0  0  0  0  0  0  0  0  0  0  0  0
    5.7430   -3.8180   -3.6140 H   0  0  0  0  0  0  0  0  0  0  0  0
    4.3780   -5.3390   -4.3450 H   0  0  0  0  0  0  0  0  0  0  0  0
    3.3210   -4.0550   -4.1170 H   0  0  0  0  0  0  0  0  0  0  0  0
  1  2  1  0  0  0  0
  2  3  1  0  0  0  0
  2 17  1  1  0  0  0
  3  4  1  0  0  0  0
  3 19  1  0  0  0  0
  4  5  2  0  0  0  0
  5  6  1  0  0  0  0
  5 20  1  0  0  0  0
  6 21  1  0  0  0  0
  7  6  1  0  0  0  0
  8  7  1  0  0  0  0
  8 22  1  0  0  0  0
  9  8  2  0  0  0  0
 10 11  2  0  0  0  0
 10  9  1  0  0  0  0
 11 12  1  0  0  0  0
 12  4  1  0  0  0  0
 12  7  2  0  0  0  0
 13 14  2  0  0  0  0
 13  2  1  0  0  0  0
 15  1  1  0  0  0  0
 16  1  1  0  0  0  0
 18  3  1  0  0  0  0
 23  9  1  0  0  0  0
 24 10  1  0  0  0  0
 25 11  1  0  0  0  0
 26 27  1  0  0  0  0
 27 37  1  0  0  0  0
 28 27  2  0  0  0  0
 28 29  1  0  0  0  0
 29 30  2  0  0  0  0
 30 36  1  0  0  0  0
 30 31  1  0  0  0  0
 31 42  1  0  0  0  0
 31 32  1  0  0  0  0
 32 43  1  1  0  0  0
 32 33  1  0  0  0  0
 33 13  1  0  0  0  0
 34 47  1  0  0  0  0
 34 32  1  0  0  0  0
 35 34  2  0  0  0  0
 36 45  1  0  0  0  0
 37 46  1  0  0  0  0
 37 36  2  0  0  0  0
 38 26  1  0  0  0  0
 39 28  1  0  0  0  0
 40 29  1  0  0  0  0
 41 31  1  0  0  0  0
 44 33  1  0  0  0  0
 47 57  1  0  0  0  0
 48 58  1  6  0  0  0
 48 47  1  0  0  0  0
 48 54  1  0  0  0  0
 49 50  1  0  0  0  0
 49 48  1  0  0  0  0
 50 61  1  0  0  0  0
 50 62  1  0  0  0  0
 51 64  1  0  0  0  0
 51 50  1  0  0  0  0
 52 51  1  0  0  0  0
 52 65  1  0  0  0  0
 53 52  1  0  0  0  0
 54 55  1  0  0  0  0
 56 54  2  0  0  0  0
 59 49  1  0  0  0  0
 60 49  1  0  0  0  0
 63 51  1  0  0  0  0
 66 52  1  0  0  0  0
 67 53  1  0  0  0  0
 68 53  1  0  0  0  0
M  END
$$$$
