WYS.pdb
 OpenBabel07022419193D

 58 60  0  0  1  0  0  0  0  0999 V2000
    0.4880   -0.6580    4.3210 N   0  0  0  0  0  0  0  0  0  0  0  0
   -0.0900    0.3300    3.4050 C   0  0  1  0  0  0  0  0  0  0  0  0
    0.8060    1.5170    3.3990 C   0  0  0  0  0  0  0  0  0  0  0  0
    2.1890    1.2590    2.9830 C   0  0  0  0  0  0  0  0  0  0  0  0
    3.2570    0.9290    3.8430 C   0  0  0  0  0  0  0  0  0  0  0  0
    4.3560    0.7130    3.1150 N   0  0  0  0  0  0  0  0  0  0  0  0
    4.0910    0.8830    1.7940 C   0  0  0  0  0  0  0  0  0  0  0  0
    4.8910    0.7900    0.6710 C   0  0  0  0  0  0  0  0  0  0  0  0
    4.3270    1.0440   -0.5500 C   0  0  0  0  0  0  0  0  0  0  0  0
    2.9810    1.3860   -0.6360 C   0  0  0  0  0  0  0  0  0  0  0  0
    2.2080    1.4730    0.4870 C   0  0  0  0  0  0  0  0  0  0  0  0
    2.7410    1.2230    1.7240 C   0  0  0  0  0  0  0  0  0  0  0  0
   -0.3640   -0.2280    2.0690 C   0  0  0  0  0  0  0  0  0  0  0  0
   -0.9680    0.4430    1.2010 O   0  0  0  0  0  0  0  0  0  0  0  0
    1.4370   -0.8950    3.9570 H   0  0  0  0  0  0  0  0  0  0  0  0
   -0.1490   -1.4760    4.3790 H   0  0  0  0  0  0  0  0  0  0  0  0
   -1.0640    0.6120    3.9200 H   0  0  0  0  0  0  0  0  0  0  0  0
    0.8290    1.9920    4.4300 H   0  0  0  0  0  0  0  0  0  0  0  0
    0.3880    2.3030    2.7200 H   0  0  0  0  0  0  0  0  0  0  0  0
    3.1250    0.8770    4.9160 H   0  0  0  0  0  0  0  0  0  0  0  0
    5.3060    0.4510    3.4650 H   0  0  0  0  0  0  0  0  0  0  0  0
    5.9330    0.5190    0.8000 H   0  0  0  0  0  0  0  0  0  0  0  0
    4.9400    0.9750   -1.4390 H   0  0  0  0  0  0  0  0  0  0  0  0
    2.5730    1.5810   -1.6240 H   0  0  0  0  0  0  0  0  0  0  0  0
    1.1800    1.7550    0.3740 H   0  0  0  0  0  0  0  0  0  0  0  0
   -5.8580    0.0680    1.7450 O   0  0  0  0  0  0  0  0  0  0  0  0
   -4.7370   -0.7380    1.4890 C   0  0  0  0  0  0  0  0  0  0  0  0
   -3.9890   -1.2280    2.5390 C   0  0  0  0  0  0  0  0  0  0  0  0
   -2.8910   -2.0200    2.2620 C   0  0  0  0  0  0  0  0  0  0  0  0
   -2.5270   -2.3300    0.9770 C   0  0  0  0  0  0  0  0  0  0  0  0
   -1.3290   -3.1830    0.6910 C   0  0  0  0  0  0  0  0  0  0  0  0
   -0.1130   -2.2570    0.5330 C   0  0  2  0  0  0  0  0  0  0  0  0
    0.0480   -1.5450    1.7320 N   0  0  0  0  0  0  0  0  0  0  0  0
   -0.1610   -1.5530   -0.7490 C   0  0  0  0  0  0  0  0  0  0  0  0
   -0.0550   -0.3280   -0.8910 O   0  0  0  0  0  0  0  0  0  0  0  0
   -3.2920   -1.8270   -0.0460 C   0  0  0  0  0  0  0  0  0  0  0  0
   -4.3960   -1.0330    0.1860 C   0  0  0  0  0  0  0  0  0  0  0  0
   -5.7110    0.9910    2.1460 H   0  0  0  0  0  0  0  0  0  0  0  0
   -4.2590   -0.9960    3.5530 H   0  0  0  0  0  0  0  0  0  0  0  0
   -2.2910   -2.4150    3.0750 H   0  0  0  0  0  0  0  0  0  0  0  0
   -1.1350   -3.8440    1.5450 H   0  0  0  0  0  0  0  0  0  0  0  0
   -1.4820   -3.7090   -0.2470 H   0  0  0  0  0  0  0  0  0  0  0  0
    0.7850   -2.9960    0.4870 H   0  0  0  0  0  0  0  0  0  0  0  0
    0.5590   -2.0670    2.5320 H   0  0  0  0  0  0  0  0  0  0  0  0
   -3.0330   -2.0520   -1.0760 H   0  0  0  0  0  0  0  0  0  0  0  0
   -4.9930   -0.6420   -0.6330 H   0  0  0  0  0  0  0  0  0  0  0  0
    0.9930   -1.4330   -5.2290 O   0  0  0  0  0  0  0  0  0  0  0  0
    0.9100   -1.9960   -3.9740 C   0  0  0  0  0  0  0  0  0  0  0  0
   -0.3920   -1.6330   -3.2720 C   0  0  2  0  0  0  0  0  0  0  0  0
   -0.3430   -2.2810   -1.9860 N   0  0  0  0  0  0  0  0  0  0  0  0
   -1.5620   -1.9600   -4.0840 C   0  0  0  0  0  0  0  0  0  0  0  0
   -1.7170   -1.4410   -5.2120 O   0  0  0  0  0  0  0  0  0  0  0  0
   -2.5080   -2.8430   -3.6180 O   0  0  0  0  0  0  0  0  0  0  0  0
    1.8600   -1.6990   -5.6150 H   0  0  0  0  0  0  0  0  0  0  0  0
    1.7590   -1.5880   -3.3730 H   0  0  0  0  0  0  0  0  0  0  0  0
    1.0170   -3.0900   -3.9630 H   0  0  0  0  0  0  0  0  0  0  0  0
   -0.3130   -0.5350   -3.0800 H   0  0  0  0  0  0  0  0  0  0  0  0
   -0.4370   -3.2990   -1.9230 H   0  0  0  0  0  0  0  0  0  0  0  0
  1 16  1  0  0  0  0
  2 17  1  1  0  0  0
  2  1  1  0  0  0  0
  3  2  1  0  0  0  0
  3 18  1  0  0  0  0
  4  3  1  0  0  0  0
  4  5  2  0  0  0  0
  5 20  1  0  0  0  0
  6 21  1  0  0  0  0
  6  5  1  0  0  0  0
  7  6  1  0  0  0  0
  8 22  1  0  0  0  0
  8  7  2  0  0  0  0
  9  8  1  0  0  0  0
 10  9  2  0  0  0  0
 10 11  1  0  0  0  0
 11 12  2  0  0  0  0
 12  7  1  0  0  0  0
 12  4  1  0  0  0  0
 13  2  1  0  0  0  0
 14 13  2  0  0  0  0
 15  1  1  0  0  0  0
 19  3  1  0  0  0  0
 23  9  1  0  0  0  0
 24 10  1  0  0  0  0
 25 11  1  0  0  0  0
 26 38  1  0  0  0  0
 27 26  1  0  0  0  0
 27 28  1  0  0  0  0
 28 39  1  0  0  0  0
 29 28  2  0  0  0  0
 29 40  1  0  0  0  0
 30 29  1  0  0  0  0
 31 30  1  0  0  0  0
 31 41  1  0  0  0  0
 32 43  1  6  0  0  0
 32 31  1  0  0  0  0
 32 33  1  0  0  0  0
 33 13  1  0  0  0  0
 33 44  1  0  0  0  0
 34 32  1  0  0  0  0
 35 34  2  0  0  0  0
 36 37  1  0  0  0  0
 36 30  2  0  0  0  0
 37 27  2  0  0  0  0
 42 31  1  0  0  0  0
 45 36  1  0  0  0  0
 46 37  1  0  0  0  0
 47 48  1  0  0  0  0
 48 56  1  0  0  0  0
 48 55  1  0  0  0  0
 48 49  1  0  0  0  0
 49 57  1  1  0  0  0
 49 50  1  0  0  0  0
 50 58  1  0  0  0  0
 50 34  1  0  0  0  0
 51 53  1  0  0  0  0
 51 49  1  0  0  0  0
 52 51  2  0  0  0  0
 54 47  1  0  0  0  0
M  END
$$$$
