WYW.pdb
 OpenBabel07022419193D

 71 75  0  0  1  0  0  0  0  0999 V2000
   -0.2670   -0.8970    3.6380 N   0  0  0  0  0  0  0  0  0  0  0  0
    0.5430   -1.9320    2.9950 C   0  0  1  0  0  0  0  0  0  0  0  0
    0.1780   -3.2900    3.4900 C   0  0  0  0  0  0  0  0  0  0  0  0
    0.9510   -4.3790    2.8600 C   0  0  0  0  0  0  0  0  0  0  0  0
    2.1650   -4.8870    3.3400 C   0  0  0  0  0  0  0  0  0  0  0  0
    2.5790   -5.8220    2.4910 N   0  0  0  0  0  0  0  0  0  0  0  0
    1.7210   -5.9720    1.4770 C   0  0  0  0  0  0  0  0  0  0  0  0
    1.6930   -6.8190    0.3620 C   0  0  0  0  0  0  0  0  0  0  0  0
    0.6390   -6.7360   -0.4910 C   0  0  0  0  0  0  0  0  0  0  0  0
   -0.4030   -5.8330   -0.2790 C   0  0  0  0  0  0  0  0  0  0  0  0
   -0.3850   -5.0020    0.8040 C   0  0  0  0  0  0  0  0  0  0  0  0
    0.6970   -5.0780    1.6890 C   0  0  0  0  0  0  0  0  0  0  0  0
    0.5970   -1.7580    1.5410 C   0  0  0  0  0  0  0  0  0  0  0  0
    1.3430   -2.4380    0.7970 O   0  0  0  0  0  0  0  0  0  0  0  0
   -1.2730   -1.0320    3.4870 H   0  0  0  0  0  0  0  0  0  0  0  0
    0.0730    0.0060    3.2950 H   0  0  0  0  0  0  0  0  0  0  0  0
    1.5890   -1.7200    3.3970 H   0  0  0  0  0  0  0  0  0  0  0  0
   -0.9010   -3.4580    3.2280 H   0  0  0  0  0  0  0  0  0  0  0  0
    0.2970   -3.2880    4.6010 H   0  0  0  0  0  0  0  0  0  0  0  0
    2.6270   -4.5250    4.2620 H   0  0  0  0  0  0  0  0  0  0  0  0
    3.4560   -6.3770    2.5890 H   0  0  0  0  0  0  0  0  0  0  0  0
    2.5280   -7.4890    0.2620 H   0  0  0  0  0  0  0  0  0  0  0  0
    0.6210   -7.3960   -1.3540 H   0  0  0  0  0  0  0  0  0  0  0  0
   -1.1910   -5.8490   -1.0130 H   0  0  0  0  0  0  0  0  0  0  0  0
   -1.1720   -4.3060    0.9800 H   0  0  0  0  0  0  0  0  0  0  0  0
   -4.8480   -5.0300   -0.5270 O   0  0  0  0  0  0  0  0  0  0  0  0
   -4.0180   -3.9230   -0.6830 C   0  0  0  0  0  0  0  0  0  0  0  0
   -4.0420   -2.8710    0.2020 C   0  0  0  0  0  0  0  0  0  0  0  0
   -3.2030   -1.7910    0.0110 C   0  0  0  0  0  0  0  0  0  0  0  0
   -2.3300   -1.7290   -1.0510 C   0  0  0  0  0  0  0  0  0  0  0  0
   -1.4680   -0.5680   -1.2190 C   0  0  0  0  0  0  0  0  0  0  0  0
   -0.1400   -0.6270   -0.5500 C   0  0  2  0  0  0  0  0  0  0  0  0
   -0.2110   -0.7810    0.8830 N   0  0  0  0  0  0  0  0  0  0  0  0
    0.6950    0.5850   -0.8820 C   0  0  0  0  0  0  0  0  0  0  0  0
    0.8950    0.9250   -2.0750 O   0  0  0  0  0  0  0  0  0  0  0  0
   -2.3070   -2.7820   -1.9360 C   0  0  0  0  0  0  0  0  0  0  0  0
   -3.1450   -3.8660   -1.7490 C   0  0  0  0  0  0  0  0  0  0  0  0
   -5.8410   -4.9690   -0.4350 H   0  0  0  0  0  0  0  0  0  0  0  0
   -4.7090   -2.8950    1.0320 H   0  0  0  0  0  0  0  0  0  0  0  0
   -3.2750   -0.9890    0.7540 H   0  0  0  0  0  0  0  0  0  0  0  0
   -1.3700   -0.3970   -2.3290 H   0  0  0  0  0  0  0  0  0  0  0  0
   -1.9650    0.3840   -0.8640 H   0  0  0  0  0  0  0  0  0  0  0  0
    0.4470   -1.4710   -1.0030 H   0  0  0  0  0  0  0  0  0  0  0  0
   -0.8330   -0.2080    1.4810 H   0  0  0  0  0  0  0  0  0  0  0  0
   -1.6450   -2.8100   -2.8000 H   0  0  0  0  0  0  0  0  0  0  0  0
   -3.1510   -4.7230   -2.4380 H   0  0  0  0  0  0  0  0  0  0  0  0
    1.2460    1.3250    0.1920 N   0  0  0  0  0  0  0  0  0  0  0  0
    2.0540    2.4880    0.0110 C   0  0  1  0  0  0  0  0  0  0  0  0
    1.3810    3.6770    0.6620 C   0  0  0  0  0  0  0  0  0  0  0  0
    0.0460    3.9610    0.0870 C   0  0  0  0  0  0  0  0  0  0  0  0
   -1.2130    3.7180    0.5770 C   0  0  0  0  0  0  0  0  0  0  0  0
   -2.1500    4.1460   -0.2870 N   0  0  0  0  0  0  0  0  0  0  0  0
   -1.5170    4.6740   -1.3500 C   0  0  0  0  0  0  0  0  0  0  0  0
   -1.9830    5.2520   -2.5160 C   0  0  0  0  0  0  0  0  0  0  0  0
   -1.1190    5.7380   -3.4990 C   0  0  0  0  0  0  0  0  0  0  0  0
    0.2500    5.6360   -3.2910 C   0  0  0  0  0  0  0  0  0  0  0  0
    0.7060    5.0590   -2.1270 C   0  0  0  0  0  0  0  0  0  0  0  0
   -0.1550    4.5770   -1.1550 C   0  0  0  0  0  0  0  0  0  0  0  0
    3.4050    2.3550    0.6250 C   0  0  0  0  0  0  0  0  0  0  0  0
    4.2350    3.2950    0.5540 O   0  0  0  0  0  0  0  0  0  0  0  0
    3.8230    1.2160    1.2950 O   0  0  0  0  0  0  0  0  0  0  0  0
    1.0450    0.9970    1.1570 H   0  0  0  0  0  0  0  0  0  0  0  0
    2.1930    2.7500   -1.0610 H   0  0  0  0  0  0  0  0  0  0  0  0
    2.0420    4.5670    0.6880 H   0  0  0  0  0  0  0  0  0  0  0  0
    1.2100    3.3930    1.7310 H   0  0  0  0  0  0  0  0  0  0  0  0
   -1.4100    3.2430    1.5330 H   0  0  0  0  0  0  0  0  0  0  0  0
   -3.1750    4.0570   -0.1070 H   0  0  0  0  0  0  0  0  0  0  0  0
   -3.0460    5.3140   -2.6430 H   0  0  0  0  0  0  0  0  0  0  0  0
   -1.5100    6.1850   -4.4020 H   0  0  0  0  0  0  0  0  0  0  0  0
    0.9230    6.0210   -4.0680 H   0  0  0  0  0  0  0  0  0  0  0  0
    1.7570    4.9680   -1.9420 H   0  0  0  0  0  0  0  0  0  0  0  0
  2 17  1  1  0  0  0
  2  3  1  0  0  0  0
  2  1  1  0  0  0  0
  3 19  1  0  0  0  0
  4  5  2  0  0  0  0
  4  3  1  0  0  0  0
  5 20  1  0  0  0  0
  6 21  1  0  0  0  0
  6  5  1  0  0  0  0
  7 12  1  0  0  0  0
  7  6  1  0  0  0  0
  8  7  2  0  0  0  0
  9 10  2  0  0  0  0
  9  8  1  0  0  0  0
 10 11  1  0  0  0  0
 11 25  1  0  0  0  0
 11 12  2  0  0  0  0
 12  4  1  0  0  0  0
 13  2  1  0  0  0  0
 14 13  2  0  0  0  0
 15  1  1  0  0  0  0
 16  1  1  0  0  0  0
 18  3  1  0  0  0  0
 22  8  1  0  0  0  0
 23  9  1  0  0  0  0
 24 10  1  0  0  0  0
 26 38  1  0  0  0  0
 27 26  1  0  0  0  0
 27 28  1  0  0  0  0
 28 39  1  0  0  0  0
 29 28  2  0  0  0  0
 29 40  1  0  0  0  0
 30 29  1  0  0  0  0
 31 30  1  0  0  0  0
 31 42  1  0  0  0  0
 31 32  1  0  0  0  0
 32 43  1  6  0  0  0
 32 33  1  0  0  0  0
 33 44  1  0  0  0  0
 33 13  1  0  0  0  0
 34 32  1  0  0  0  0
 34 47  1  0  0  0  0
 35 34  2  0  0  0  0
 36 37  1  0  0  0  0
 36 30  2  0  0  0  0
 37 27  2  0  0  0  0
 41 31  1  0  0  0  0
 45 36  1  0  0  0  0
 46 37  1  0  0  0  0
 47 62  1  0  0  0  0
 48 63  1  6  0  0  0
 48 47  1  0  0  0  0
 48 59  1  0  0  0  0
 48 49  1  0  0  0  0
 49 64  1  0  0  0  0
 49 65  1  0  0  0  0
 50 51  2  0  0  0  0
 50 49  1  0  0  0  0
 51 66  1  0  0  0  0
 52 67  1  0  0  0  0
 52 51  1  0  0  0  0
 53 58  1  0  0  0  0
 53 52  1  0  0  0  0
 54 53  2  0  0  0  0
 55 56  2  0  0  0  0
 55 54  1  0  0  0  0
 56 57  1  0  0  0  0
 57 71  1  0  0  0  0
 57 58  2  0  0  0  0
 58 50  1  0  0  0  0
 59 61  1  0  0  0  0
 60 59  2  0  0  0  0
 68 54  1  0  0  0  0
 69 55  1  0  0  0  0
 70 56  1  0  0  0  0
M  END
$$$$
