YAG.pdb
 OpenBabel07022419193D

 40 40  0  0  1  0  0  0  0  0999 V2000
    1.0910   -7.4160    2.4380 O   0  0  0  0  0  0  0  0  0  0  0  0
    1.3700   -6.1400    1.9560 C   0  0  0  0  0  0  0  0  0  0  0  0
    0.8800   -5.7830    0.7180 C   0  0  0  0  0  0  0  0  0  0  0  0
    1.1660   -4.5150    0.2560 C   0  0  0  0  0  0  0  0  0  0  0  0
    1.9110   -3.6010    0.9690 C   0  0  0  0  0  0  0  0  0  0  0  0
    2.2200   -2.2350    0.4720 C   0  0  0  0  0  0  0  0  0  0  0  0
    1.1040   -1.3320    0.9470 C   0  0  2  0  0  0  0  0  0  0  0  0
   -0.1270   -1.8240    0.3980 N   0  0  0  0  0  0  0  0  0  0  0  0
    1.3500    0.0910    0.5960 C   0  0  0  0  0  0  0  0  0  0  0  0
    2.3800    0.6920    0.9900 O   0  0  0  0  0  0  0  0  0  0  0  0
    2.3810   -4.0200    2.2190 C   0  0  0  0  0  0  0  0  0  0  0  0
    2.1160   -5.2720    2.7080 C   0  0  0  0  0  0  0  0  0  0  0  0
    0.8080   -7.4940    3.4210 H   0  0  0  0  0  0  0  0  0  0  0  0
    0.2810   -6.4800    0.1140 H   0  0  0  0  0  0  0  0  0  0  0  0
    0.7920   -4.1970   -0.7250 H   0  0  0  0  0  0  0  0  0  0  0  0
    2.2130   -2.2600   -0.6540 H   0  0  0  0  0  0  0  0  0  0  0  0
    3.2100   -1.9450    0.8630 H   0  0  0  0  0  0  0  0  0  0  0  0
    1.0680   -1.4080    2.0530 H   0  0  0  0  0  0  0  0  0  0  0  0
   -0.9210   -1.4280    0.9070 H   0  0  0  0  0  0  0  0  0  0  0  0
   -0.1220   -1.7020   -0.6190 H   0  0  0  0  0  0  0  0  0  0  0  0
    2.9700   -3.3000    2.7840 H   0  0  0  0  0  0  0  0  0  0  0  0
    2.4770   -5.5890    3.6630 H   0  0  0  0  0  0  0  0  0  0  0  0
    0.6850    2.3760   -2.0760 C   0  0  0  0  0  0  0  0  0  0  0  0
    0.5940    2.1980   -0.5770 C   0  0  2  0  0  0  0  0  0  0  0  0
    0.4270    0.8240   -0.1980 N   0  0  0  0  0  0  0  0  0  0  0  0
   -0.5050    3.0560   -0.0050 C   0  0  0  0  0  0  0  0  0  0  0  0
   -0.5320    4.2930   -0.2270 O   0  0  0  0  0  0  0  0  0  0  0  0
    1.6370    1.9160   -2.3950 H   0  0  0  0  0  0  0  0  0  0  0  0
    0.7580    3.4610   -2.2860 H   0  0  0  0  0  0  0  0  0  0  0  0
   -0.1860    1.9710   -2.6060 H   0  0  0  0  0  0  0  0  0  0  0  0
    1.5490    2.5640   -0.1460 H   0  0  0  0  0  0  0  0  0  0  0  0
   -0.4280    0.3140   -0.5210 H   0  0  0  0  0  0  0  0  0  0  0  0
   -1.5430    2.4930    0.8010 N   0  0  0  0  0  0  0  0  0  0  0  0
   -2.6050    3.2700    1.3640 C   0  0  0  0  0  0  0  0  0  0  0  0
   -2.1390    4.3320    2.2720 C   0  0  0  0  0  0  0  0  0  0  0  0
   -0.9160    4.5000    2.4990 O   0  0  0  0  0  0  0  0  0  0  0  0
   -3.0250    5.1850    2.9100 O   0  0  0  0  0  0  0  0  0  0  0  0
   -1.4790    1.4620    0.9580 H   0  0  0  0  0  0  0  0  0  0  0  0
   -3.2910    2.6010    1.9090 H   0  0  0  0  0  0  0  0  0  0  0  0
   -3.2290    3.7390    0.5490 H   0  0  0  0  0  0  0  0  0  0  0  0
  1 13  1  0  0  0  0
  2  1  1  0  0  0  0
  2 12  1  0  0  0  0
  3  2  2  0  0  0  0
  4  3  1  0  0  0  0
  4  5  2  0  0  0  0
  5 11  1  0  0  0  0
  6 17  1  0  0  0  0
  6  7  1  0  0  0  0
  6  5  1  0  0  0  0
  7 18  1  1  0  0  0
  8 19  1  0  0  0  0
  8  7  1  0  0  0  0
  9  7  1  0  0  0  0
  9 10  2  0  0  0  0
 11 12  2  0  0  0  0
 11 21  1  0  0  0  0
 12 22  1  0  0  0  0
 14  3  1  0  0  0  0
 15  4  1  0  0  0  0
 16  6  1  0  0  0  0
 20  8  1  0  0  0  0
 23 24  1  0  0  0  0
 24 25  1  0  0  0  0
 24 31  1  1  0  0  0
 24 26  1  0  0  0  0
 25  9  1  0  0  0  0
 26 33  1  0  0  0  0
 27 26  2  0  0  0  0
 28 23  1  0  0  0  0
 29 23  1  0  0  0  0
 30 23  1  0  0  0  0
 32 25  1  0  0  0  0
 33 38  1  0  0  0  0
 33 34  1  0  0  0  0
 34 39  1  0  0  0  0
 34 35  1  0  0  0  0
 35 36  2  0  0  0  0
 35 37  1  0  0  0  0
 40 34  1  0  0  0  0
M  END
$$$$
