YAI.pdb
 OpenBabel07022419193D

 52 52  0  0  1  0  0  0  0  0999 V2000
    1.4520   -4.1530   -1.4750 O   0  0  0  0  0  0  0  0  0  0  0  0
    1.9560   -2.8670   -1.3080 C   0  0  0  0  0  0  0  0  0  0  0  0
    1.2810   -1.7440   -1.7380 C   0  0  0  0  0  0  0  0  0  0  0  0
    1.7970   -0.4560   -1.5670 C   0  0  0  0  0  0  0  0  0  0  0  0
    3.0080   -0.2610   -0.9570 C   0  0  0  0  0  0  0  0  0  0  0  0
    3.6180    1.0840   -0.7300 C   0  0  0  0  0  0  0  0  0  0  0  0
    3.3450    1.6520    0.6290 C   0  0  2  0  0  0  0  0  0  0  0  0
    3.8750    0.6610    1.5900 N   0  0  0  0  0  0  0  0  0  0  0  0
    1.9790    1.9930    0.9630 C   0  0  0  0  0  0  0  0  0  0  0  0
    1.6570    3.2590    1.1010 O   0  0  0  0  0  0  0  0  0  0  0  0
    3.6990   -1.3910   -0.5190 C   0  0  0  0  0  0  0  0  0  0  0  0
    3.1820   -2.6650   -0.6930 C   0  0  0  0  0  0  0  0  0  0  0  0
    1.4010   -4.8190   -0.7000 H   0  0  0  0  0  0  0  0  0  0  0  0
    0.3260   -1.8790   -2.2190 H   0  0  0  0  0  0  0  0  0  0  0  0
    1.2470    0.4190   -1.9110 H   0  0  0  0  0  0  0  0  0  0  0  0
    4.7050    1.0170   -0.9010 H   0  0  0  0  0  0  0  0  0  0  0  0
    3.2140    1.7600   -1.5290 H   0  0  0  0  0  0  0  0  0  0  0  0
    4.0380    2.5490    0.7900 H   0  0  0  0  0  0  0  0  0  0  0  0
    4.0870    1.1970    2.5010 H   0  0  0  0  0  0  0  0  0  0  0  0
    3.0680    0.0270    1.8390 H   0  0  0  0  0  0  0  0  0  0  0  0
    4.6700   -1.2080   -0.0360 H   0  0  0  0  0  0  0  0  0  0  0  0
    3.7590   -3.5040   -0.3270 H   0  0  0  0  0  0  0  0  0  0  0  0
   -1.0180    2.2570    0.2360 C   0  0  0  0  0  0  0  0  0  0  0  0
   -0.4240    1.6540    1.5370 C   0  0  2  0  0  0  0  0  0  0  0  0
    0.8860    1.1350    1.1780 N   0  0  0  0  0  0  0  0  0  0  0  0
   -1.3900    0.7110    2.0320 C   0  0  0  0  0  0  0  0  0  0  0  0
   -2.4310    1.1890    2.6090 O   0  0  0  0  0  0  0  0  0  0  0  0
   -0.6680    1.6780   -0.6430 H   0  0  0  0  0  0  0  0  0  0  0  0
   -0.7470    3.3150    0.2180 H   0  0  0  0  0  0  0  0  0  0  0  0
   -2.1170    2.2110    0.3660 H   0  0  0  0  0  0  0  0  0  0  0  0
   -0.2720    2.5360    2.1720 H   0  0  0  0  0  0  0  0  0  0  0  0
    0.9940    0.1040    1.0880 H   0  0  0  0  0  0  0  0  0  0  0  0
   -2.2590   -1.9210   -0.8070 C   0  0  0  0  0  0  0  0  0  0  0  0
   -2.9140   -2.7270    0.2560 C   0  0  0  0  0  0  0  0  0  0  0  0
   -3.4180   -1.9650    1.4430 C   0  0  2  0  0  0  0  0  0  0  0  0
   -4.3880   -0.9320    0.9860 C   0  0  0  0  0  0  0  0  0  0  0  0
   -2.4060   -1.5480    2.4700 C   0  0  2  0  0  0  0  0  0  0  0  0
   -1.3480   -0.7050    1.9600 N   0  0  0  0  0  0  0  0  0  0  0  0
   -1.8680   -2.6870    3.2490 C   0  0  0  0  0  0  0  0  0  0  0  0
   -0.6260   -2.8200    3.3700 O   0  0  0  0  0  0  0  0  0  0  0  0
   -2.6680   -3.6280    3.8620 O   0  0  0  0  0  0  0  0  0  0  0  0
   -1.9680   -2.6730   -1.6130 H   0  0  0  0  0  0  0  0  0  0  0  0
   -1.4540   -1.2620   -0.5420 H   0  0  0  0  0  0  0  0  0  0  0  0
   -3.0240   -1.2770   -1.3500 H   0  0  0  0  0  0  0  0  0  0  0  0
   -2.2930   -3.6010    0.5540 H   0  0  0  0  0  0  0  0  0  0  0  0
   -3.8250   -3.1870   -0.2220 H   0  0  0  0  0  0  0  0  0  0  0  0
   -4.1080   -2.7570    1.9570 H   0  0  0  0  0  0  0  0  0  0  0  0
   -5.2420   -0.7760    1.6820 H   0  0  0  0  0  0  0  0  0  0  0  0
   -3.8990   -0.0060    0.7230 H   0  0  0  0  0  0  0  0  0  0  0  0
   -4.8680   -1.3180    0.0380 H   0  0  0  0  0  0  0  0  0  0  0  0
   -3.0180   -0.9310    3.2130 H   0  0  0  0  0  0  0  0  0  0  0  0
   -0.5030   -1.1460    1.5390 H   0  0  0  0  0  0  0  0  0  0  0  0
  1  2  1  0  0  0  0
  1 13  1  0  0  0  0
  2 12  1  0  0  0  0
  3  4  1  0  0  0  0
  3  2  2  0  0  0  0
  4  5  2  0  0  0  0
  5  6  1  0  0  0  0
  5 11  1  0  0  0  0
  6  7  1  0  0  0  0
  7 18  1  1  0  0  0
  7  9  1  0  0  0  0
  7  8  1  0  0  0  0
  8 20  1  0  0  0  0
  8 19  1  0  0  0  0
  9 10  2  0  0  0  0
  9 25  1  0  0  0  0
 11 21  1  0  0  0  0
 12 11  2  0  0  0  0
 12 22  1  0  0  0  0
 14  3  1  0  0  0  0
 15  4  1  0  0  0  0
 16  6  1  0  0  0  0
 17  6  1  0  0  0  0
 23 30  1  0  0  0  0
 23 24  1  0  0  0  0
 24 26  1  0  0  0  0
 24 31  1  1  0  0  0
 25 24  1  0  0  0  0
 26 27  2  0  0  0  0
 28 23  1  0  0  0  0
 29 23  1  0  0  0  0
 32 25  1  0  0  0  0
 33 43  1  0  0  0  0
 33 34  1  0  0  0  0
 34 45  1  0  0  0  0
 34 35  1  0  0  0  0
 35 47  1  1  0  0  0
 35 37  1  0  0  0  0
 36 35  1  0  0  0  0
 36 48  1  0  0  0  0
 37 51  1  1  0  0  0
 37 39  1  0  0  0  0
 38 26  1  0  0  0  0
 38 37  1  0  0  0  0
 39 40  2  0  0  0  0
 39 41  1  0  0  0  0
 42 33  1  0  0  0  0
 44 33  1  0  0  0  0
 46 34  1  0  0  0  0
 49 36  1  0  0  0  0
 50 36  1  0  0  0  0
 52 38  1  0  0  0  0
M  END
$$$$
