YAL.pdb
 OpenBabel07022419193D

 52 52  0  0  1  0  0  0  0  0999 V2000
    6.8370   -2.9950    1.8850 O   0  0  0  0  0  0  0  0  0  0  0  0
    6.1010   -1.8240    1.9130 C   0  0  0  0  0  0  0  0  0  0  0  0
    5.0670   -1.6160    2.7880 C   0  0  0  0  0  0  0  0  0  0  0  0
    4.3710   -0.4370    2.7730 C   0  0  0  0  0  0  0  0  0  0  0  0
    4.6510    0.5950    1.9010 C   0  0  0  0  0  0  0  0  0  0  0  0
    3.9270    1.8780    1.8450 C   0  0  0  0  0  0  0  0  0  0  0  0
    2.8300    1.7960    0.8270 C   0  0  2  0  0  0  0  0  0  0  0  0
    2.0950    3.0630    0.7540 N   0  0  0  0  0  0  0  0  0  0  0  0
    1.8920    0.7120    1.0830 C   0  0  0  0  0  0  0  0  0  0  0  0
    2.2710   -0.4880    1.0640 O   0  0  0  0  0  0  0  0  0  0  0  0
    5.7010    0.3890    1.0090 C   0  0  0  0  0  0  0  0  0  0  0  0
    6.4010   -0.7990    1.0260 C   0  0  0  0  0  0  0  0  0  0  0  0
    6.3920   -3.9150    1.7420 H   0  0  0  0  0  0  0  0  0  0  0  0
    4.8070   -2.3850    3.4870 H   0  0  0  0  0  0  0  0  0  0  0  0
    3.5410   -0.2630    3.4760 H   0  0  0  0  0  0  0  0  0  0  0  0
    4.6140    2.7100    1.5800 H   0  0  0  0  0  0  0  0  0  0  0  0
    3.4920    2.0830    2.8530 H   0  0  0  0  0  0  0  0  0  0  0  0
    3.3210    1.6670   -0.1670 H   0  0  0  0  0  0  0  0  0  0  0  0
    1.3280    2.9200    0.0740 H   0  0  0  0  0  0  0  0  0  0  0  0
    1.6800    3.2280    1.6950 H   0  0  0  0  0  0  0  0  0  0  0  0
    5.9500    1.1840    0.3060 H   0  0  0  0  0  0  0  0  0  0  0  0
    7.2220   -0.9640    0.3310 H   0  0  0  0  0  0  0  0  0  0  0  0
   -0.8550    0.0110    3.0590 C   0  0  0  0  0  0  0  0  0  0  0  0
   -0.3860   -0.1130    1.6140 C   0  0  2  0  0  0  0  0  0  0  0  0
    0.5250    0.9750    1.3630 N   0  0  0  0  0  0  0  0  0  0  0  0
   -1.5420   -0.1160    0.7090 C   0  0  0  0  0  0  0  0  0  0  0  0
   -1.6320    0.7860   -0.1620 O   0  0  0  0  0  0  0  0  0  0  0  0
   -0.4410   -0.7820    3.7040 H   0  0  0  0  0  0  0  0  0  0  0  0
   -1.9580   -0.0000    3.1160 H   0  0  0  0  0  0  0  0  0  0  0  0
   -0.5280    0.9800    3.5110 H   0  0  0  0  0  0  0  0  0  0  0  0
    0.1540   -1.0770    1.5490 H   0  0  0  0  0  0  0  0  0  0  0  0
    0.1410    1.9420    1.3960 H   0  0  0  0  0  0  0  0  0  0  0  0
   -4.4590   -3.9520   -2.5420 C   0  0  0  0  0  0  0  0  0  0  0  0
   -4.7230   -2.6200   -1.8570 C   0  0  0  0  0  0  0  0  0  0  0  0
   -4.8030   -1.5770   -2.9330 C   0  0  0  0  0  0  0  0  0  0  0  0
   -3.6110   -2.4020   -0.8830 C   0  0  0  0  0  0  0  0  0  0  0  0
   -3.7140   -1.1150   -0.1080 C   0  0  2  0  0  0  0  0  0  0  0  0
   -2.5660   -1.0860    0.7670 N   0  0  0  0  0  0  0  0  0  0  0  0
   -4.9200   -1.0080    0.7050 C   0  0  0  0  0  0  0  0  0  0  0  0
   -4.8210   -0.9130    1.9530 O   0  0  0  0  0  0  0  0  0  0  0  0
   -6.2150   -1.0020    0.2060 O   0  0  0  0  0  0  0  0  0  0  0  0
   -3.6220   -3.7850   -3.2510 H   0  0  0  0  0  0  0  0  0  0  0  0
   -4.0660   -4.6310   -1.7600 H   0  0  0  0  0  0  0  0  0  0  0  0
   -5.3530   -4.3460   -3.0480 H   0  0  0  0  0  0  0  0  0  0  0  0
   -5.7100   -2.6940   -1.3830 H   0  0  0  0  0  0  0  0  0  0  0  0
   -5.4510   -0.7200   -2.6800 H   0  0  0  0  0  0  0  0  0  0  0  0
   -5.2300   -2.0590   -3.8370 H   0  0  0  0  0  0  0  0  0  0  0  0
   -3.7780   -1.2320   -3.2150 H   0  0  0  0  0  0  0  0  0  0  0  0
   -3.6100   -3.2290   -0.1650 H   0  0  0  0  0  0  0  0  0  0  0  0
   -2.6570   -2.3590   -1.4500 H   0  0  0  0  0  0  0  0  0  0  0  0
   -3.5920   -0.2340   -0.7960 H   0  0  0  0  0  0  0  0  0  0  0  0
   -2.4950   -1.8310    1.4840 H   0  0  0  0  0  0  0  0  0  0  0  0
  1  2  1  0  0  0  0
  2  3  1  0  0  0  0
  3 14  1  0  0  0  0
  4  3  2  0  0  0  0
  4 15  1  0  0  0  0
  5  4  1  0  0  0  0
  6  5  1  0  0  0  0
  6 17  1  0  0  0  0
  7 18  1  6  0  0  0
  7  9  1  0  0  0  0
  7  6  1  0  0  0  0
  8  7  1  0  0  0  0
  8 20  1  0  0  0  0
  9 25  1  0  0  0  0
 10  9  2  0  0  0  0
 11 12  1  0  0  0  0
 11  5  2  0  0  0  0
 12  2  2  0  0  0  0
 13  1  1  0  0  0  0
 16  6  1  0  0  0  0
 19  8  1  0  0  0  0
 21 11  1  0  0  0  0
 22 12  1  0  0  0  0
 23 29  1  0  0  0  0
 23 30  1  0  0  0  0
 23 28  1  0  0  0  0
 24 31  1  6  0  0  0
 24 23  1  0  0  0  0
 25 32  1  0  0  0  0
 25 24  1  0  0  0  0
 26 38  1  0  0  0  0
 26 24  1  0  0  0  0
 27 26  2  0  0  0  0
 33 34  1  0  0  0  0
 33 43  1  0  0  0  0
 34 45  1  0  0  0  0
 34 36  1  0  0  0  0
 35 46  1  0  0  0  0
 35 34  1  0  0  0  0
 36 49  1  0  0  0  0
 36 37  1  0  0  0  0
 37 51  1  6  0  0  0
 37 39  1  0  0  0  0
 37 38  1  0  0  0  0
 38 52  1  0  0  0  0
 39 40  1  0  0  0  0
 41 39  2  0  0  0  0
 42 33  1  0  0  0  0
 44 33  1  0  0  0  0
 47 35  1  0  0  0  0
 48 35  1  0  0  0  0
 50 36  1  0  0  0  0
M  END
$$$$
