YAN.pdb
 OpenBabel07022419193D

 47 47  0  0  1  0  0  0  0  0999 V2000
    5.0670   -1.1610    5.8070 O   0  0  0  0  0  0  0  0  0  0  0  0
    4.6400   -1.1490    4.4830 C   0  0  0  0  0  0  0  0  0  0  0  0
    4.6440   -2.3220    3.7810 C   0  0  0  0  0  0  0  0  0  0  0  0
    4.2180   -2.3020    2.4670 C   0  0  0  0  0  0  0  0  0  0  0  0
    3.7860   -1.1300    1.8360 C   0  0  0  0  0  0  0  0  0  0  0  0
    3.3440   -1.1190    0.4350 C   0  0  0  0  0  0  0  0  0  0  0  0
    1.8900   -1.4100    0.2330 C   0  0  2  0  0  0  0  0  0  0  0  0
    1.6360   -1.3620   -1.2050 N   0  0  0  0  0  0  0  0  0  0  0  0
    1.0160   -0.4320    0.8760 C   0  0  0  0  0  0  0  0  0  0  0  0
    1.0290   -0.2460    2.1180 O   0  0  0  0  0  0  0  0  0  0  0  0
    3.8030    0.0160    2.5850 C   0  0  0  0  0  0  0  0  0  0  0  0
    4.2270    0.0350    3.9160 C   0  0  0  0  0  0  0  0  0  0  0  0
    5.7900   -1.7690    6.1200 H   0  0  0  0  0  0  0  0  0  0  0  0
    4.9760   -3.2640    4.2400 H   0  0  0  0  0  0  0  0  0  0  0  0
    4.1970   -3.1930    1.8610 H   0  0  0  0  0  0  0  0  0  0  0  0
    3.9840   -1.7530   -0.2210 H   0  0  0  0  0  0  0  0  0  0  0  0
    3.5230   -0.0700    0.0560 H   0  0  0  0  0  0  0  0  0  0  0  0
    1.7080   -2.4540    0.5600 H   0  0  0  0  0  0  0  0  0  0  0  0
    2.2480   -0.6280   -1.6640 H   0  0  0  0  0  0  0  0  0  0  0  0
    1.8820   -2.2560   -1.6710 H   0  0  0  0  0  0  0  0  0  0  0  0
    3.4780    0.9430    2.1220 H   0  0  0  0  0  0  0  0  0  0  0  0
    4.2190    0.9770    4.4670 H   0  0  0  0  0  0  0  0  0  0  0  0
   -0.5200    2.6920    0.2160 C   0  0  0  0  0  0  0  0  0  0  0  0
   -0.7550    1.3300    0.7770 C   0  0  2  0  0  0  0  0  0  0  0  0
    0.1070    0.3590    0.1240 N   0  0  0  0  0  0  0  0  0  0  0  0
   -2.1730    0.8940    0.7510 C   0  0  0  0  0  0  0  0  0  0  0  0
   -3.0730    1.6010    1.2550 O   0  0  0  0  0  0  0  0  0  0  0  0
   -0.9650    2.8450   -0.7800 H   0  0  0  0  0  0  0  0  0  0  0  0
   -0.8080    3.4470    0.9470 H   0  0  0  0  0  0  0  0  0  0  0  0
    0.5900    2.7820    0.0540 H   0  0  0  0  0  0  0  0  0  0  0  0
   -0.4900    1.3620    1.8740 H   0  0  0  0  0  0  0  0  0  0  0  0
    0.0270    0.2690   -0.9230 H   0  0  0  0  0  0  0  0  0  0  0  0
   -4.7590   -0.0530   -3.5350 N   0  0  0  0  0  0  0  0  0  0  0  0
   -4.3110    0.0090   -2.1910 C   0  0  0  0  0  0  0  0  0  0  0  0
   -3.8900    1.0950   -1.6910 O   0  0  0  0  0  0  0  0  0  0  0  0
   -4.3150   -1.1840   -1.3100 C   0  0  0  0  0  0  0  0  0  0  0  0
   -3.8430   -0.8620    0.0660 C   0  0  2  0  0  0  0  0  0  0  0  0
   -2.5000   -0.3430    0.1430 N   0  0  0  0  0  0  0  0  0  0  0  0
   -4.0070   -2.0590    0.9530 C   0  0  0  0  0  0  0  0  0  0  0  0
   -3.0610   -2.5060    1.6440 O   0  0  0  0  0  0  0  0  0  0  0  0
   -5.2270   -2.7000    1.0240 O   0  0  0  0  0  0  0  0  0  0  0  0
   -5.7640   -0.1600   -3.7290 H   0  0  0  0  0  0  0  0  0  0  0  0
   -4.0930    0.0100   -4.3100 H   0  0  0  0  0  0  0  0  0  0  0  0
   -3.7210   -1.9990   -1.7930 H   0  0  0  0  0  0  0  0  0  0  0  0
   -5.3770   -1.5400   -1.2550 H   0  0  0  0  0  0  0  0  0  0  0  0
   -4.5100   -0.0880    0.5180 H   0  0  0  0  0  0  0  0  0  0  0  0
   -1.7070   -0.8990   -0.2690 H   0  0  0  0  0  0  0  0  0  0  0  0
  1 13  1  0  0  0  0
  2  1  1  0  0  0  0
  3 14  1  0  0  0  0
  3  2  2  0  0  0  0
  4  3  1  0  0  0  0
  5  4  2  0  0  0  0
  5 11  1  0  0  0  0
  6  5  1  0  0  0  0
  7  6  1  0  0  0  0
  7 18  1  1  0  0  0
  7  9  1  0  0  0  0
  8  7  1  0  0  0  0
  9 10  2  0  0  0  0
 11 12  2  0  0  0  0
 12 22  1  0  0  0  0
 12  2  1  0  0  0  0
 15  4  1  0  0  0  0
 16  6  1  0  0  0  0
 17  6  1  0  0  0  0
 19  8  1  0  0  0  0
 20  8  1  0  0  0  0
 21 11  1  0  0  0  0
 23 24  1  0  0  0  0
 23 29  1  0  0  0  0
 24 31  1  1  0  0  0
 25 24  1  0  0  0  0
 25  9  1  0  0  0  0
 26 24  1  0  0  0  0
 26 27  2  0  0  0  0
 28 23  1  0  0  0  0
 30 23  1  0  0  0  0
 32 25  1  0  0  0  0
 33 34  1  0  0  0  0
 34 35  2  0  0  0  0
 34 36  1  0  0  0  0
 36 45  1  0  0  0  0
 36 37  1  0  0  0  0
 37 38  1  0  0  0  0
 37 46  1  1  0  0  0
 37 39  1  0  0  0  0
 38 26  1  0  0  0  0
 39 41  2  0  0  0  0
 39 40  1  0  0  0  0
 42 33  1  0  0  0  0
 43 33  1  0  0  0  0
 44 36  1  0  0  0  0
 47 38  1  0  0  0  0
M  END
$$$$
