YAR.pdb
 OpenBabel07022419193D

 56 56  0  0  1  0  0  0  0  0999 V2000
   -2.0240    1.9310    6.4860 O   0  0  0  0  0  0  0  0  0  0  0  0
   -0.8430    1.8300    5.7350 C   0  0  0  0  0  0  0  0  0  0  0  0
    0.1630    0.9850    6.1590 C   0  0  0  0  0  0  0  0  0  0  0  0
    1.3180    0.9060    5.3970 C   0  0  0  0  0  0  0  0  0  0  0  0
    1.5300    1.6130    4.2480 C   0  0  0  0  0  0  0  0  0  0  0  0
    2.7460    1.5360    3.4290 C   0  0  0  0  0  0  0  0  0  0  0  0
    2.7590    0.4980    2.3830 C   0  0  2  0  0  0  0  0  0  0  0  0
    4.0400    0.5620    1.6630 N   0  0  0  0  0  0  0  0  0  0  0  0
    1.6950    0.6280    1.3540 C   0  0  0  0  0  0  0  0  0  0  0  0
    0.4530    0.6780    1.6470 O   0  0  0  0  0  0  0  0  0  0  0  0
    0.5220    2.4550    3.8320 C   0  0  0  0  0  0  0  0  0  0  0  0
   -0.6580    2.5600    4.5770 C   0  0  0  0  0  0  0  0  0  0  0  0
   -2.8930    1.8960    5.9310 H   0  0  0  0  0  0  0  0  0  0  0  0
    0.0210    0.4170    7.0590 H   0  0  0  0  0  0  0  0  0  0  0  0
    2.0980    0.2500    5.7290 H   0  0  0  0  0  0  0  0  0  0  0  0
    3.6050    1.3920    4.1160 H   0  0  0  0  0  0  0  0  0  0  0  0
    2.9080    2.5330    2.9430 H   0  0  0  0  0  0  0  0  0  0  0  0
    2.6930   -0.5440    2.7560 H   0  0  0  0  0  0  0  0  0  0  0  0
    4.7460    1.0520    2.2770 H   0  0  0  0  0  0  0  0  0  0  0  0
    4.3860   -0.3730    1.3970 H   0  0  0  0  0  0  0  0  0  0  0  0
    0.5700    3.0780    2.9330 H   0  0  0  0  0  0  0  0  0  0  0  0
   -1.4600    3.2090    4.2720 H   0  0  0  0  0  0  0  0  0  0  0  0
    1.1470    1.9050   -2.0580 C   0  0  0  0  0  0  0  0  0  0  0  0
    0.9210    0.8400   -1.0510 C   0  0  2  0  0  0  0  0  0  0  0  0
    1.9640    0.7060   -0.0570 N   0  0  0  0  0  0  0  0  0  0  0  0
    0.5310   -0.4820   -1.6230 C   0  0  0  0  0  0  0  0  0  0  0  0
    1.0940   -1.4930   -1.1270 O   0  0  0  0  0  0  0  0  0  0  0  0
    0.1680    2.3470   -2.3400 H   0  0  0  0  0  0  0  0  0  0  0  0
    1.7090    2.7400   -1.5620 H   0  0  0  0  0  0  0  0  0  0  0  0
    1.7380    1.5790   -2.9400 H   0  0  0  0  0  0  0  0  0  0  0  0
   -0.0060    1.1300   -0.4520 H   0  0  0  0  0  0  0  0  0  0  0  0
    2.9790    0.6590   -0.3300 H   0  0  0  0  0  0  0  0  0  0  0  0
   -2.2470   -6.6010   -0.7270 N   0  0  0  0  0  0  0  0  0  0  0  0
   -2.5430   -5.2770   -0.3090 C   0  0  0  0  0  0  0  0  0  0  0  0
   -2.5300   -5.0260    0.9780 N   0  0  0  0  0  0  0  0  0  0  0  0
   -2.8380   -4.2740   -1.2610 N   0  0  0  0  0  0  0  0  0  0  0  0
   -2.6600   -2.8970   -0.9390 C   0  0  0  0  0  0  0  0  0  0  0  0
   -3.0130   -1.9630   -2.0540 C   0  0  0  0  0  0  0  0  0  0  0  0
   -2.2110   -2.1500   -3.3140 C   0  0  0  0  0  0  0  0  0  0  0  0
   -0.7340   -1.9480   -3.1340 C   0  0  2  0  0  0  0  0  0  0  0  0
   -0.4050   -0.6310   -2.6520 N   0  0  0  0  0  0  0  0  0  0  0  0
   -0.1060   -2.1800   -4.4880 C   0  0  0  0  0  0  0  0  0  0  0  0
    0.6000   -1.2840   -5.0110 O   0  0  0  0  0  0  0  0  0  0  0  0
   -0.3090   -3.3690   -5.1380 O   0  0  0  0  0  0  0  0  0  0  0  0
   -2.7490   -7.0740   -1.4930 H   0  0  0  0  0  0  0  0  0  0  0  0
   -1.4900   -7.1010   -0.2160 H   0  0  0  0  0  0  0  0  0  0  0  0
   -2.3170   -5.7580    1.6640 H   0  0  0  0  0  0  0  0  0  0  0  0
   -3.1890   -4.5620   -2.1930 H   0  0  0  0  0  0  0  0  0  0  0  0
   -1.6400   -2.7080   -0.5560 H   0  0  0  0  0  0  0  0  0  0  0  0
   -3.3380   -2.6440   -0.0820 H   0  0  0  0  0  0  0  0  0  0  0  0
   -4.0810   -2.1140   -2.3110 H   0  0  0  0  0  0  0  0  0  0  0  0
   -2.8830   -0.9070   -1.7100 H   0  0  0  0  0  0  0  0  0  0  0  0
   -2.3490   -3.2350   -3.6030 H   0  0  0  0  0  0  0  0  0  0  0  0
   -2.6590   -1.5670   -4.1130 H   0  0  0  0  0  0  0  0  0  0  0  0
   -0.3360   -2.7410   -2.4830 H   0  0  0  0  0  0  0  0  0  0  0  0
   -0.8630    0.1920   -3.0750 H   0  0  0  0  0  0  0  0  0  0  0  0
  2  3  1  0  0  0  0
  2  1  1  0  0  0  0
  3 14  1  0  0  0  0
  4 15  1  0  0  0  0
  4  3  2  0  0  0  0
  5  4  1  0  0  0  0
  6 16  1  0  0  0  0
  6  5  1  0  0  0  0
  7 18  1  1  0  0  0
  7  6  1  0  0  0  0
  8 19  1  0  0  0  0
  8  7  1  0  0  0  0
  9 10  2  0  0  0  0
  9  7  1  0  0  0  0
 11  5  2  0  0  0  0
 11 12  1  0  0  0  0
 12  2  2  0  0  0  0
 13  1  1  0  0  0  0
 17  6  1  0  0  0  0
 20  8  1  0  0  0  0
 21 11  1  0  0  0  0
 22 12  1  0  0  0  0
 23 29  1  0  0  0  0
 23 24  1  0  0  0  0
 24 31  1  1  0  0  0
 24 25  1  0  0  0  0
 25  9  1  0  0  0  0
 26 27  2  0  0  0  0
 26 24  1  0  0  0  0
 28 23  1  0  0  0  0
 30 23  1  0  0  0  0
 32 25  1  0  0  0  0
 33 34  1  0  0  0  0
 33 46  1  0  0  0  0
 34 35  2  0  0  0  0
 35 47  1  0  0  0  0
 36 37  1  0  0  0  0
 36 34  1  0  0  0  0
 37 49  1  0  0  0  0
 37 50  1  0  0  0  0
 38 52  1  0  0  0  0
 38 37  1  0  0  0  0
 39 40  1  0  0  0  0
 39 38  1  0  0  0  0
 40 41  1  0  0  0  0
 40 55  1  1  0  0  0
 41 26  1  0  0  0  0
 42 40  1  0  0  0  0
 43 42  1  0  0  0  0
 44 42  2  0  0  0  0
 45 33  1  0  0  0  0
 48 36  1  0  0  0  0
 51 38  1  0  0  0  0
 53 39  1  0  0  0  0
 54 39  1  0  0  0  0
 56 41  1  0  0  0  0
M  END
$$$$
