YAV.pdb
 OpenBabel07022419193D

 49 49  0  0  1  0  0  0  0  0999 V2000
    3.9390   -3.3330    5.7200 O   0  0  0  0  0  0  0  0  0  0  0  0
    4.0620   -2.4910    4.6430 C   0  0  0  0  0  0  0  0  0  0  0  0
    4.8460   -2.7330    3.5410 C   0  0  0  0  0  0  0  0  0  0  0  0
    4.9580   -1.8790    2.4710 C   0  0  0  0  0  0  0  0  0  0  0  0
    4.2310   -0.6970    2.5090 C   0  0  0  0  0  0  0  0  0  0  0  0
    4.3870    0.2050    1.3440 C   0  0  0  0  0  0  0  0  0  0  0  0
    3.4200   -0.1160    0.2560 C   0  0  2  0  0  0  0  0  0  0  0  0
    3.5740    0.7720   -0.8890 N   0  0  0  0  0  0  0  0  0  0  0  0
    2.0060   -0.2090    0.6790 C   0  0  0  0  0  0  0  0  0  0  0  0
    1.6770   -0.9740    1.5920 O   0  0  0  0  0  0  0  0  0  0  0  0
    3.4330   -0.4090    3.5850 C   0  0  0  0  0  0  0  0  0  0  0  0
    3.3530   -1.2900    4.6280 C   0  0  0  0  0  0  0  0  0  0  0  0
    3.6760   -4.3120    5.5820 H   0  0  0  0  0  0  0  0  0  0  0  0
    5.4170   -3.6640    3.5160 H   0  0  0  0  0  0  0  0  0  0  0  0
    5.6010   -2.1340    1.6270 H   0  0  0  0  0  0  0  0  0  0  0  0
    5.4060    0.0870    0.9180 H   0  0  0  0  0  0  0  0  0  0  0  0
    4.3340    1.2740    1.6710 H   0  0  0  0  0  0  0  0  0  0  0  0
    3.6940   -1.1390   -0.1310 H   0  0  0  0  0  0  0  0  0  0  0  0
    4.5260    1.1920   -0.9050 H   0  0  0  0  0  0  0  0  0  0  0  0
    3.4050    0.2430   -1.7790 H   0  0  0  0  0  0  0  0  0  0  0  0
    2.8790    0.5060    3.5990 H   0  0  0  0  0  0  0  0  0  0  0  0
    2.7250   -1.0740    5.4880 H   0  0  0  0  0  0  0  0  0  0  0  0
   -0.8520    1.8750    1.0030 C   0  0  0  0  0  0  0  0  0  0  0  0
   -0.3920    0.5430    0.3960 C   0  0  2  0  0  0  0  0  0  0  0  0
    0.9900    0.5650    0.0590 N   0  0  0  0  0  0  0  0  0  0  0  0
   -1.2750    0.1410   -0.7230 C   0  0  0  0  0  0  0  0  0  0  0  0
   -0.8160   -0.1490   -1.8560 O   0  0  0  0  0  0  0  0  0  0  0  0
   -1.7770    1.6440    1.5710 H   0  0  0  0  0  0  0  0  0  0  0  0
   -0.0820    2.1550    1.7290 H   0  0  0  0  0  0  0  0  0  0  0  0
   -1.0180    2.6360    0.2160 H   0  0  0  0  0  0  0  0  0  0  0  0
   -0.5190   -0.2000    1.2380 H   0  0  0  0  0  0  0  0  0  0  0  0
    1.3160    1.2050   -0.7170 H   0  0  0  0  0  0  0  0  0  0  0  0
   -3.4090   -2.7490   -1.1220 C   0  0  0  0  0  0  0  0  0  0  0  0
   -4.3090   -1.5730   -1.4030 C   0  0  0  0  0  0  0  0  0  0  0  0
   -5.3080   -1.4440   -0.3030 C   0  0  0  0  0  0  0  0  0  0  0  0
   -3.5110   -0.3220   -1.6560 C   0  0  2  0  0  0  0  0  0  0  0  0
   -2.6820    0.0670   -0.5660 N   0  0  0  0  0  0  0  0  0  0  0  0
   -4.4360    0.7760   -2.0890 C   0  0  0  0  0  0  0  0  0  0  0  0
   -4.4030    1.8800   -1.4900 O   0  0  0  0  0  0  0  0  0  0  0  0
   -5.3250    0.6100   -3.1280 O   0  0  0  0  0  0  0  0  0  0  0  0
   -4.0470   -3.6420   -0.9510 H   0  0  0  0  0  0  0  0  0  0  0  0
   -2.7720   -2.9380   -2.0010 H   0  0  0  0  0  0  0  0  0  0  0  0
   -2.7460   -2.5670   -0.2510 H   0  0  0  0  0  0  0  0  0  0  0  0
   -4.8590   -1.8070   -2.3480 H   0  0  0  0  0  0  0  0  0  0  0  0
   -4.9070   -1.4980    0.7080 H   0  0  0  0  0  0  0  0  0  0  0  0
   -6.0250   -2.3110   -0.4110 H   0  0  0  0  0  0  0  0  0  0  0  0
   -5.9440   -0.5400   -0.4760 H   0  0  0  0  0  0  0  0  0  0  0  0
   -2.8750   -0.5270   -2.5400 H   0  0  0  0  0  0  0  0  0  0  0  0
   -3.1460    0.2980    0.3660 H   0  0  0  0  0  0  0  0  0  0  0  0
  2  1  1  0  0  0  0
  3  2  2  0  0  0  0
  4  5  2  0  0  0  0
  4  3  1  0  0  0  0
  5 11  1  0  0  0  0
  6 17  1  0  0  0  0
  6  5  1  0  0  0  0
  7 18  1  6  0  0  0
  7  9  1  0  0  0  0
  7  6  1  0  0  0  0
  8  7  1  0  0  0  0
  9 10  2  0  0  0  0
 11 21  1  0  0  0  0
 11 12  2  0  0  0  0
 12  2  1  0  0  0  0
 12 22  1  0  0  0  0
 13  1  1  0  0  0  0
 14  3  1  0  0  0  0
 15  4  1  0  0  0  0
 16  6  1  0  0  0  0
 19  8  1  0  0  0  0
 20  8  1  0  0  0  0
 23 28  1  0  0  0  0
 23 29  1  0  0  0  0
 24 23  1  0  0  0  0
 24 31  1  1  0  0  0
 25 24  1  0  0  0  0
 25  9  1  0  0  0  0
 26 37  1  0  0  0  0
 26 24  1  0  0  0  0
 27 26  2  0  0  0  0
 30 23  1  0  0  0  0
 32 25  1  0  0  0  0
 33 41  1  0  0  0  0
 33 43  1  0  0  0  0
 34 33  1  0  0  0  0
 34 35  1  0  0  0  0
 35 45  1  0  0  0  0
 36 48  1  6  0  0  0
 36 34  1  0  0  0  0
 36 37  1  0  0  0  0
 37 49  1  0  0  0  0
 38 36  1  0  0  0  0
 38 39  1  0  0  0  0
 40 38  2  0  0  0  0
 42 33  1  0  0  0  0
 44 34  1  0  0  0  0
 46 35  1  0  0  0  0
 47 35  1  0  0  0  0
M  END
$$$$
