YCD.pdb
 OpenBabel07022419213D

 47 47  0  0  1  0  0  0  0  0999 V2000
    5.8890   -4.1020    2.4150 O   0  0  0  0  0  0  0  0  0  0  0  0
    5.1220   -3.4010    1.5010 C   0  0  0  0  0  0  0  0  0  0  0  0
    4.5050   -4.0950    0.4540 C   0  0  0  0  0  0  0  0  0  0  0  0
    3.7290   -3.4660   -0.4900 C   0  0  0  0  0  0  0  0  0  0  0  0
    3.5360   -2.0930   -0.4210 C   0  0  0  0  0  0  0  0  0  0  0  0
    2.7160   -1.4470   -1.4480 C   0  0  0  0  0  0  0  0  0  0  0  0
    1.2440   -1.4390   -1.1220 C   0  0  2  0  0  0  0  0  0  0  0  0
    0.4980   -0.7770   -2.1940 N   0  0  0  0  0  0  0  0  0  0  0  0
    1.0170   -0.7880    0.1720 C   0  0  0  0  0  0  0  0  0  0  0  0
    1.4990   -1.2430    1.2450 O   0  0  0  0  0  0  0  0  0  0  0  0
    4.1510   -1.4270    0.6160 C   0  0  0  0  0  0  0  0  0  0  0  0
    4.9300   -2.0380    1.5690 C   0  0  0  0  0  0  0  0  0  0  0  0
    5.6570   -5.0090    2.7810 H   0  0  0  0  0  0  0  0  0  0  0  0
    4.6710   -5.1700    0.4220 H   0  0  0  0  0  0  0  0  0  0  0  0
    3.2700   -4.0550   -1.2870 H   0  0  0  0  0  0  0  0  0  0  0  0
    2.9030   -2.0090   -2.4110 H   0  0  0  0  0  0  0  0  0  0  0  0
    3.0270   -0.3980   -1.6250 H   0  0  0  0  0  0  0  0  0  0  0  0
    0.9070   -2.5060   -1.1470 H   0  0  0  0  0  0  0  0  0  0  0  0
    0.8810    0.1850   -2.3610 H   0  0  0  0  0  0  0  0  0  0  0  0
   -0.5120   -0.7090   -1.9450 H   0  0  0  0  0  0  0  0  0  0  0  0
    4.0170   -0.3400    0.6890 H   0  0  0  0  0  0  0  0  0  0  0  0
    5.4100   -1.5130    2.3800 H   0  0  0  0  0  0  0  0  0  0  0  0
    0.2440    0.4020    0.3330 N   0  0  0  0  0  0  0  0  0  0  0  0
    0.0470    1.0090    1.6290 C   0  0  1  0  0  0  0  0  0  0  0  0
    0.4700    2.4390    1.6970 C   0  0  0  0  0  0  0  0  0  0  0  0
    2.2250    2.5790    1.3110 S   0  0  0  0  0  0  0  0  0  0  0  0
   -1.4110    0.9610    1.9960 C   0  0  0  0  0  0  0  0  0  0  0  0
   -1.8150    1.4340    3.0900 O   0  0  0  0  0  0  0  0  0  0  0  0
   -0.1940    0.8520   -0.4910 H   0  0  0  0  0  0  0  0  0  0  0  0
    0.5640    0.4410    2.4380 H   0  0  0  0  0  0  0  0  0  0  0  0
   -0.1610    3.1050    1.0840 H   0  0  0  0  0  0  0  0  0  0  0  0
    0.3410    2.7710    2.7510 H   0  0  0  0  0  0  0  0  0  0  0  0
    2.8900    1.4480    1.8240 H   0  0  0  0  0  0  0  0  0  0  0  0
   -2.3800    0.3900    1.1390 N   0  0  0  0  0  0  0  0  0  0  0  0
   -3.8060    0.3320    1.4770 C   0  0  1  0  0  0  0  0  0  0  0  0
   -4.5870    1.2150    0.5440 C   0  0  0  0  0  0  0  0  0  0  0  0
   -6.0200    1.1850    0.8470 C   0  0  0  0  0  0  0  0  0  0  0  0
   -6.7640    0.3440    0.3140 O   0  0  0  0  0  0  0  0  0  0  0  0
   -4.2840   -1.0340    1.6140 C   0  0  0  0  0  0  0  0  0  0  0  0
   -3.5130   -1.9990    1.4190 O   0  0  0  0  0  0  0  0  0  0  0  0
   -6.5540    2.0930    1.7280 O   0  0  0  0  0  0  0  0  0  0  0  0
   -5.5890   -1.2900    1.9590 O   0  0  0  0  0  0  0  0  0  0  0  0
   -2.0520   -0.0080    0.2210 H   0  0  0  0  0  0  0  0  0  0  0  0
   -3.8840    0.8150    2.4910 H   0  0  0  0  0  0  0  0  0  0  0  0
   -4.3620    1.0000   -0.5250 H   0  0  0  0  0  0  0  0  0  0  0  0
   -4.2300    2.2670    0.7550 H   0  0  0  0  0  0  0  0  0  0  0  0
   -7.5260    2.1500    1.9700 H   0  0  0  0  0  0  0  0  0  0  0  0
  1 13  1  0  0  0  0
  2 12  1  0  0  0  0
  2  1  1  0  0  0  0
  3  2  2  0  0  0  0
  4  5  2  0  0  0  0
  4  3  1  0  0  0  0
  5 11  1  0  0  0  0
  6  7  1  0  0  0  0
  6  5  1  0  0  0  0
  7 18  1  1  0  0  0
  7  9  1  0  0  0  0
  8 20  1  0  0  0  0
  8  7  1  0  0  0  0
  9 23  1  0  0  0  0
  9 10  2  0  0  0  0
 11 21  1  0  0  0  0
 11 12  2  0  0  0  0
 12 22  1  0  0  0  0
 14  3  1  0  0  0  0
 15  4  1  0  0  0  0
 16  6  1  0  0  0  0
 17  6  1  0  0  0  0
 19  8  1  0  0  0  0
 23 24  1  0  0  0  0
 24 25  1  0  0  0  0
 24 27  1  0  0  0  0
 24 30  1  1  0  0  0
 25 32  1  0  0  0  0
 26 25  1  0  0  0  0
 26 33  1  0  0  0  0
 27 28  2  0  0  0  0
 29 23  1  0  0  0  0
 31 25  1  0  0  0  0
 34 35  1  0  0  0  0
 34 27  1  0  0  0  0
 35 39  1  0  0  0  0
 35 44  1  1  0  0  0
 36 46  1  0  0  0  0
 36 37  1  0  0  0  0
 36 35  1  0  0  0  0
 37 41  1  0  0  0  0
 38 37  2  0  0  0  0
 39 42  1  0  0  0  0
 40 39  2  0  0  0  0
 41 47  1  0  0  0  0
 43 34  1  0  0  0  0
 45 36  1  0  0  0  0
M  END
$$$$
