YCH.pdb
 OpenBabel07022419213D

 51 52  0  0  1  0  0  0  0  0999 V2000
    2.3400    1.3050    6.4930 O   0  0  0  0  0  0  0  0  0  0  0  0
    2.5410    1.7020    5.1880 C   0  0  0  0  0  0  0  0  0  0  0  0
    3.0560    0.8040    4.2660 C   0  0  0  0  0  0  0  0  0  0  0  0
    3.2440    1.2340    2.9720 C   0  0  0  0  0  0  0  0  0  0  0  0
    2.9460    2.5110    2.5460 C   0  0  0  0  0  0  0  0  0  0  0  0
    3.1510    2.9680    1.1490 C   0  0  0  0  0  0  0  0  0  0  0  0
    1.9240    2.7270    0.2940 C   0  0  2  0  0  0  0  0  0  0  0  0
    0.8140    3.4570    0.8640 N   0  0  0  0  0  0  0  0  0  0  0  0
    1.6250    1.2970    0.1380 C   0  0  0  0  0  0  0  0  0  0  0  0
    2.5270    0.5620   -0.3530 O   0  0  0  0  0  0  0  0  0  0  0  0
    2.4360    3.3840    3.4760 C   0  0  0  0  0  0  0  0  0  0  0  0
    2.2340    2.9870    4.7830 C   0  0  0  0  0  0  0  0  0  0  0  0
    1.4710    0.9510    6.8640 H   0  0  0  0  0  0  0  0  0  0  0  0
    3.2940   -0.2000    4.5890 H   0  0  0  0  0  0  0  0  0  0  0  0
    3.6480    0.5380    2.2430 H   0  0  0  0  0  0  0  0  0  0  0  0
    3.4110    4.0430    1.0970 H   0  0  0  0  0  0  0  0  0  0  0  0
    3.9970    2.3870    0.7220 H   0  0  0  0  0  0  0  0  0  0  0  0
    2.1400    3.2160   -0.6950 H   0  0  0  0  0  0  0  0  0  0  0  0
    0.0220    3.4810    0.1760 H   0  0  0  0  0  0  0  0  0  0  0  0
    1.1300    4.4630    0.9620 H   0  0  0  0  0  0  0  0  0  0  0  0
    2.1720    4.4160    3.2210 H   0  0  0  0  0  0  0  0  0  0  0  0
    1.8280    3.6870    5.5160 H   0  0  0  0  0  0  0  0  0  0  0  0
    0.3980    0.6850    0.4970 N   0  0  0  0  0  0  0  0  0  0  0  0
    0.1380   -0.7260    0.3280 C   0  0  1  0  0  0  0  0  0  0  0  0
   -0.2170   -1.3570    1.6530 C   0  0  0  0  0  0  0  0  0  0  0  0
   -1.7080   -0.5170    2.2730 S   0  0  0  0  0  0  0  0  0  0  0  0
   -1.0300   -0.8960   -0.5750 C   0  0  0  0  0  0  0  0  0  0  0  0
   -1.6420    0.0780   -1.0750 O   0  0  0  0  0  0  0  0  0  0  0  0
   -0.3430    1.2970    0.9010 H   0  0  0  0  0  0  0  0  0  0  0  0
    0.9990   -1.2550   -0.1070 H   0  0  0  0  0  0  0  0  0  0  0  0
   -0.4570   -2.4180    1.5040 H   0  0  0  0  0  0  0  0  0  0  0  0
    0.5980   -1.2700    2.3900 H   0  0  0  0  0  0  0  0  0  0  0  0
   -1.3980    0.7800    2.7160 H   0  0  0  0  0  0  0  0  0  0  0  0
   -1.5130   -2.2110   -0.9190 N   0  0  0  0  0  0  0  0  0  0  0  0
   -2.6560   -2.3070   -1.8060 C   0  0  1  0  0  0  0  0  0  0  0  0
   -2.4100   -3.2220   -2.9790 C   0  0  0  0  0  0  0  0  0  0  0  0
   -2.1190   -4.5790   -2.4590 C   0  0  0  0  0  0  0  0  0  0  0  0
   -1.8320   -5.7050   -3.2450 C   0  0  0  0  0  0  0  0  0  0  0  0
   -1.6230   -6.7500   -2.4320 N   0  0  0  0  0  0  0  0  0  0  0  0
   -1.7630   -6.3470   -1.1680 C   0  0  0  0  0  0  0  0  0  0  0  0
   -2.0570   -5.0580   -1.2060 N   0  0  0  0  0  0  0  0  0  0  0  0
   -3.7600   -2.9570   -1.0090 C   0  0  0  0  0  0  0  0  0  0  0  0
   -3.6080   -3.3060    0.1860 O   0  0  0  0  0  0  0  0  0  0  0  0
   -4.9970   -3.1830   -1.6060 O   0  0  0  0  0  0  0  0  0  0  0  0
   -1.0440   -3.0580   -0.5340 H   0  0  0  0  0  0  0  0  0  0  0  0
   -3.0200   -1.3080   -2.1170 H   0  0  0  0  0  0  0  0  0  0  0  0
   -1.6010   -2.8460   -3.6420 H   0  0  0  0  0  0  0  0  0  0  0  0
   -3.3730   -3.2770   -3.5390 H   0  0  0  0  0  0  0  0  0  0  0  0
   -1.7960   -5.6840   -4.3280 H   0  0  0  0  0  0  0  0  0  0  0  0
   -1.3940   -7.7010   -2.7440 H   0  0  0  0  0  0  0  0  0  0  0  0
   -1.6690   -6.9110   -0.2420 H   0  0  0  0  0  0  0  0  0  0  0  0
  1 13  1  0  0  0  0
  2  1  1  0  0  0  0
  3 14  1  0  0  0  0
  3  2  2  0  0  0  0
  4  3  1  0  0  0  0
  5  4  2  0  0  0  0
  5 11  1  0  0  0  0
  6  5  1  0  0  0  0
  7 18  1  6  0  0  0
  7  8  1  0  0  0  0
  7  6  1  0  0  0  0
  8 20  1  0  0  0  0
  9  7  1  0  0  0  0
  9 23  1  0  0  0  0
 10  9  2  0  0  0  0
 11 12  2  0  0  0  0
 12  2  1  0  0  0  0
 12 22  1  0  0  0  0
 15  4  1  0  0  0  0
 16  6  1  0  0  0  0
 17  6  1  0  0  0  0
 19  8  1  0  0  0  0
 21 11  1  0  0  0  0
 23 29  1  0  0  0  0
 24 30  1  6  0  0  0
 24 23  1  0  0  0  0
 24 25  1  0  0  0  0
 25 26  1  0  0  0  0
 25 32  1  0  0  0  0
 26 33  1  0  0  0  0
 27 24  1  0  0  0  0
 28 27  2  0  0  0  0
 31 25  1  0  0  0  0
 34 27  1  0  0  0  0
 34 45  1  0  0  0  0
 35 46  1  6  0  0  0
 35 42  1  0  0  0  0
 35 34  1  0  0  0  0
 36 37  1  0  0  0  0
 36 35  1  0  0  0  0
 37 41  1  0  0  0  0
 38 37  2  0  0  0  0
 38 39  1  0  0  0  0
 39 40  1  0  0  0  0
 40 51  1  0  0  0  0
 41 40  2  0  0  0  0
 42 43  1  0  0  0  0
 44 42  2  0  0  0  0
 47 36  1  0  0  0  0
 48 36  1  0  0  0  0
 49 38  1  0  0  0  0
 50 39  1  0  0  0  0
M  END
$$$$
