YCM.pdb
 OpenBabel07022419213D

 51 51  0  0  1  0  0  0  0  0999 V2000
    7.0310   -2.9730    0.1410 O   0  0  0  0  0  0  0  0  0  0  0  0
    5.9530   -2.2170   -0.3250 C   0  0  0  0  0  0  0  0  0  0  0  0
    5.4390   -2.3490   -1.5930 C   0  0  0  0  0  0  0  0  0  0  0  0
    4.3800   -1.5790   -1.9910 C   0  0  0  0  0  0  0  0  0  0  0  0
    3.7800   -0.6430   -1.1540 C   0  0  0  0  0  0  0  0  0  0  0  0
    2.6440    0.1560   -1.6670 C   0  0  0  0  0  0  0  0  0  0  0  0
    1.3010   -0.5040   -1.4860 C   0  0  2  0  0  0  0  0  0  0  0  0
    0.3060    0.4030   -2.0340 N   0  0  0  0  0  0  0  0  0  0  0  0
    1.0550   -0.7070   -0.0450 C   0  0  0  0  0  0  0  0  0  0  0  0
    1.7600   -1.4940    0.6290 O   0  0  0  0  0  0  0  0  0  0  0  0
    4.2950   -0.5110    0.1150 C   0  0  0  0  0  0  0  0  0  0  0  0
    5.3570   -1.2890    0.5010 C   0  0  0  0  0  0  0  0  0  0  0  0
    6.9580   -3.9890    0.1330 H   0  0  0  0  0  0  0  0  0  0  0  0
    5.8770   -3.0660   -2.2740 H   0  0  0  0  0  0  0  0  0  0  0  0
    3.9680   -1.6770   -2.9900 H   0  0  0  0  0  0  0  0  0  0  0  0
    2.8390    0.3270   -2.7490 H   0  0  0  0  0  0  0  0  0  0  0  0
    2.6830    1.1360   -1.1630 H   0  0  0  0  0  0  0  0  0  0  0  0
    1.2490   -1.4450   -2.0650 H   0  0  0  0  0  0  0  0  0  0  0  0
    0.2670    0.3710   -3.0750 H   0  0  0  0  0  0  0  0  0  0  0  0
    0.4680    1.3590   -1.6540 H   0  0  0  0  0  0  0  0  0  0  0  0
    3.8740    0.2010    0.8000 H   0  0  0  0  0  0  0  0  0  0  0  0
    5.7580   -1.1770    1.5100 H   0  0  0  0  0  0  0  0  0  0  0  0
    0.0100   -0.0250    0.6570 N   0  0  0  0  0  0  0  0  0  0  0  0
   -0.2010   -0.2470    2.0630 C   0  0  1  0  0  0  0  0  0  0  0  0
    0.0680    0.9880    2.9120 C   0  0  0  0  0  0  0  0  0  0  0  0
    1.8250    1.4230    2.6140 S   0  0  0  0  0  0  0  0  0  0  0  0
   -1.5320   -0.8440    2.3290 C   0  0  0  0  0  0  0  0  0  0  0  0
   -1.7840   -1.1670    3.5440 O   0  0  0  0  0  0  0  0  0  0  0  0
   -0.5660    0.6220    0.0930 H   0  0  0  0  0  0  0  0  0  0  0  0
    0.5820   -0.9870    2.4210 H   0  0  0  0  0  0  0  0  0  0  0  0
   -0.5870    1.8330    2.6900 H   0  0  0  0  0  0  0  0  0  0  0  0
   -0.0290    0.6790    3.9610 H   0  0  0  0  0  0  0  0  0  0  0  0
    2.6200    0.9030    3.6460 H   0  0  0  0  0  0  0  0  0  0  0  0
   -3.2490    1.9610    1.5740 C   0  0  0  0  0  0  0  0  0  0  0  0
   -4.6830    1.4950    0.6390 S   0  0  0  0  0  0  0  0  0  0  0  0
   -5.5960    0.0800    1.2270 C   0  0  0  0  0  0  0  0  0  0  0  0
   -5.0000   -1.2430    1.0680 C   0  0  0  0  0  0  0  0  0  0  0  0
   -3.7350   -1.6640    1.6360 C   0  0  2  0  0  0  0  0  0  0  0  0
   -2.5040   -1.0650    1.3080 N   0  0  0  0  0  0  0  0  0  0  0  0
   -3.6240   -3.1630    1.3080 C   0  0  0  0  0  0  0  0  0  0  0  0
   -2.5430   -3.5850    0.8370 O   0  0  0  0  0  0  0  0  0  0  0  0
   -4.6770   -4.0140    1.5240 O   0  0  0  0  0  0  0  0  0  0  0  0
   -3.3340    3.0710    1.8090 H   0  0  0  0  0  0  0  0  0  0  0  0
   -2.2960    1.8580    1.0280 H   0  0  0  0  0  0  0  0  0  0  0  0
   -3.1810    1.4810    2.5750 H   0  0  0  0  0  0  0  0  0  0  0  0
   -6.5520    0.0740    0.5920 H   0  0  0  0  0  0  0  0  0  0  0  0
   -6.0400    0.2580    2.2510 H   0  0  0  0  0  0  0  0  0  0  0  0
   -5.7630   -2.0590    1.3580 H   0  0  0  0  0  0  0  0  0  0  0  0
   -4.9720   -1.4380   -0.0720 H   0  0  0  0  0  0  0  0  0  0  0  0
   -3.7940   -1.7110    2.7780 H   0  0  0  0  0  0  0  0  0  0  0  0
   -2.2030   -0.7460    0.3540 H   0  0  0  0  0  0  0  0  0  0  0  0
  2  1  1  0  0  0  0
  2 12  1  0  0  0  0
  3  2  2  0  0  0  0
  4  3  1  0  0  0  0
  4  5  2  0  0  0  0
  5 11  1  0  0  0  0
  6  7  1  0  0  0  0
  6 17  1  0  0  0  0
  6  5  1  0  0  0  0
  7 18  1  6  0  0  0
  7  9  1  0  0  0  0
  8 20  1  0  0  0  0
  8  7  1  0  0  0  0
  9 10  2  0  0  0  0
  9 23  1  0  0  0  0
 11 12  2  0  0  0  0
 11 21  1  0  0  0  0
 12 22  1  0  0  0  0
 13  1  1  0  0  0  0
 14  3  1  0  0  0  0
 15  4  1  0  0  0  0
 16  6  1  0  0  0  0
 19  8  1  0  0  0  0
 23 24  1  0  0  0  0
 24 27  1  0  0  0  0
 24 30  1  1  0  0  0
 24 25  1  0  0  0  0
 25 32  1  0  0  0  0
 26 25  1  0  0  0  0
 26 33  1  0  0  0  0
 27 28  2  0  0  0  0
 29 23  1  0  0  0  0
 31 25  1  0  0  0  0
 34 43  1  0  0  0  0
 34 45  1  0  0  0  0
 35 36  1  0  0  0  0
 35 34  1  0  0  0  0
 36 47  1  0  0  0  0
 37 36  1  0  0  0  0
 37 48  1  0  0  0  0
 37 38  1  0  0  0  0
 38 50  1  1  0  0  0
 39 38  1  0  0  0  0
 39 27  1  0  0  0  0
 40 42  1  0  0  0  0
 40 38  1  0  0  0  0
 41 40  2  0  0  0  0
 44 34  1  0  0  0  0
 46 36  1  0  0  0  0
 49 37  1  0  0  0  0
 51 39  1  0  0  0  0
M  END
$$$$
