YCN.pdb
 OpenBabel07022419213D

 48 48  0  0  1  0  0  0  0  0999 V2000
    3.3090   -4.8000   -2.0650 O   0  0  0  0  0  0  0  0  0  0  0  0
    2.9130   -3.4890   -1.7430 C   0  0  0  0  0  0  0  0  0  0  0  0
    1.7180   -3.2110   -1.0940 C   0  0  0  0  0  0  0  0  0  0  0  0
    1.3960   -1.9020   -0.8110 C   0  0  0  0  0  0  0  0  0  0  0  0
    2.2140   -0.8510   -1.1470 C   0  0  0  0  0  0  0  0  0  0  0  0
    1.8610    0.5350   -0.8380 C   0  0  0  0  0  0  0  0  0  0  0  0
    2.3490    0.9810    0.5160 C   0  0  2  0  0  0  0  0  0  0  0  0
    3.8080    0.8290    0.5350 N   0  0  0  0  0  0  0  0  0  0  0  0
    1.7480    0.2990    1.6500 C   0  0  0  0  0  0  0  0  0  0  0  0
    2.3840   -0.4600    2.4090 O   0  0  0  0  0  0  0  0  0  0  0  0
    3.3990   -1.1360   -1.7930 C   0  0  0  0  0  0  0  0  0  0  0  0
    3.7450   -2.4550   -2.0890 C   0  0  0  0  0  0  0  0  0  0  0  0
    3.3390   -5.4610   -1.2800 H   0  0  0  0  0  0  0  0  0  0  0  0
    1.0890   -4.0530   -0.8380 H   0  0  0  0  0  0  0  0  0  0  0  0
    0.4760   -1.6860   -0.3060 H   0  0  0  0  0  0  0  0  0  0  0  0
    2.3060    1.2060   -1.6020 H   0  0  0  0  0  0  0  0  0  0  0  0
    0.7670    0.7130   -0.8950 H   0  0  0  0  0  0  0  0  0  0  0  0
    2.1250    2.0760    0.6270 H   0  0  0  0  0  0  0  0  0  0  0  0
    4.2240    1.1770    1.4080 H   0  0  0  0  0  0  0  0  0  0  0  0
    4.2220    1.3130   -0.2970 H   0  0  0  0  0  0  0  0  0  0  0  0
    4.1220   -0.3590   -2.1000 H   0  0  0  0  0  0  0  0  0  0  0  0
    4.6730   -2.6830   -2.5980 H   0  0  0  0  0  0  0  0  0  0  0  0
    0.3610    0.4830    1.9530 N   0  0  0  0  0  0  0  0  0  0  0  0
   -0.2120   -0.1710    3.0590 C   0  0  1  0  0  0  0  0  0  0  0  0
   -0.3770    0.7180    4.2780 C   0  0  0  0  0  0  0  0  0  0  0  0
    1.2350    1.3600    4.8300 S   0  0  0  0  0  0  0  0  0  0  0  0
   -1.5220   -0.7640    2.7270 C   0  0  0  0  0  0  0  0  0  0  0  0
   -2.2320   -1.2920    3.6370 O   0  0  0  0  0  0  0  0  0  0  0  0
   -0.2560    1.1080    1.3590 H   0  0  0  0  0  0  0  0  0  0  0  0
    0.4700   -0.9880    3.3980 H   0  0  0  0  0  0  0  0  0  0  0  0
   -0.7320    0.0510    5.0990 H   0  0  0  0  0  0  0  0  0  0  0  0
   -1.1000    1.5190    4.1700 H   0  0  0  0  0  0  0  0  0  0  0  0
    2.0760    0.3340    5.2900 H   0  0  0  0  0  0  0  0  0  0  0  0
   -3.9330    2.1270    0.2820 N   0  0  0  0  0  0  0  0  0  0  0  0
   -4.3050    0.9210    0.9550 C   0  0  0  0  0  0  0  0  0  0  0  0
   -4.7630    0.9820    2.1380 O   0  0  0  0  0  0  0  0  0  0  0  0
   -4.1340   -0.3720    0.2300 C   0  0  0  0  0  0  0  0  0  0  0  0
   -3.3530   -1.3410    1.1010 C   0  0  2  0  0  0  0  0  0  0  0  0
   -2.0470   -0.7760    1.4060 N   0  0  0  0  0  0  0  0  0  0  0  0
   -3.1480   -2.5690    0.2810 C   0  0  0  0  0  0  0  0  0  0  0  0
   -4.1550   -3.2290   -0.1000 O   0  0  0  0  0  0  0  0  0  0  0  0
   -1.8920   -3.0180   -0.0800 O   0  0  0  0  0  0  0  0  0  0  0  0
   -3.3960    2.8320    0.8370 H   0  0  0  0  0  0  0  0  0  0  0  0
   -4.1700    2.3230   -0.7020 H   0  0  0  0  0  0  0  0  0  0  0  0
   -5.1400   -0.8040    0.0640 H   0  0  0  0  0  0  0  0  0  0  0  0
   -3.6680   -0.2100   -0.7530 H   0  0  0  0  0  0  0  0  0  0  0  0
   -3.8750   -1.5880    2.0330 H   0  0  0  0  0  0  0  0  0  0  0  0
   -1.5090   -0.3810    0.6100 H   0  0  0  0  0  0  0  0  0  0  0  0
  1  2  1  0  0  0  0
  1 13  1  0  0  0  0
  2  3  1  0  0  0  0
  3 14  1  0  0  0  0
  3  4  2  0  0  0  0
  4 15  1  0  0  0  0
  5  6  1  0  0  0  0
  5  4  1  0  0  0  0
  6  7  1  0  0  0  0
  7  8  1  0  0  0  0
  7 18  1  1  0  0  0
  7  9  1  0  0  0  0
  8 19  1  0  0  0  0
  9 23  1  0  0  0  0
  9 10  2  0  0  0  0
 11  5  2  0  0  0  0
 12 11  1  0  0  0  0
 12  2  2  0  0  0  0
 16  6  1  0  0  0  0
 17  6  1  0  0  0  0
 20  8  1  0  0  0  0
 21 11  1  0  0  0  0
 22 12  1  0  0  0  0
 23 24  1  0  0  0  0
 24 30  1  1  0  0  0
 24 25  1  0  0  0  0
 25 26  1  0  0  0  0
 25 31  1  0  0  0  0
 26 33  1  0  0  0  0
 27 24  1  0  0  0  0
 27 28  2  0  0  0  0
 29 23  1  0  0  0  0
 32 25  1  0  0  0  0
 34 43  1  0  0  0  0
 34 35  1  0  0  0  0
 35 36  2  0  0  0  0
 37 35  1  0  0  0  0
 37 38  1  0  0  0  0
 38 39  1  0  0  0  0
 38 47  1  1  0  0  0
 39 27  1  0  0  0  0
 40 38  1  0  0  0  0
 41 40  2  0  0  0  0
 42 40  1  0  0  0  0
 44 34  1  0  0  0  0
 45 37  1  0  0  0  0
 46 37  1  0  0  0  0
 48 39  1  0  0  0  0
M  END
$$$$
