YCQ.pdb
 OpenBabel07022419213D

 51 51  0  0  1  0  0  0  0  0999 V2000
    5.2000   -3.2850    5.1260 O   0  0  0  0  0  0  0  0  0  0  0  0
    4.8050   -2.9030    3.8390 C   0  0  0  0  0  0  0  0  0  0  0  0
    4.8990   -3.8180    2.8100 C   0  0  0  0  0  0  0  0  0  0  0  0
    4.4940   -3.3780    1.5650 C   0  0  0  0  0  0  0  0  0  0  0  0
    4.0210   -2.1070    1.3410 C   0  0  0  0  0  0  0  0  0  0  0  0
    3.6030   -1.6580   -0.0160 C   0  0  0  0  0  0  0  0  0  0  0  0
    2.1550   -1.9600   -0.3140 C   0  0  2  0  0  0  0  0  0  0  0  0
    1.9180   -1.4570   -1.6680 N   0  0  0  0  0  0  0  0  0  0  0  0
    1.2750   -1.3230    0.6670 C   0  0  0  0  0  0  0  0  0  0  0  0
    1.3050   -1.6960    1.8670 O   0  0  0  0  0  0  0  0  0  0  0  0
    3.9460   -1.2320    2.3950 C   0  0  0  0  0  0  0  0  0  0  0  0
    4.3380   -1.6260    3.6520 C   0  0  0  0  0  0  0  0  0  0  0  0
    4.8670   -4.1190    5.5590 H   0  0  0  0  0  0  0  0  0  0  0  0
    5.2690   -4.8110    2.9860 H   0  0  0  0  0  0  0  0  0  0  0  0
    4.5540   -4.0810    0.7170 H   0  0  0  0  0  0  0  0  0  0  0  0
    4.2310   -2.1580   -0.7760 H   0  0  0  0  0  0  0  0  0  0  0  0
    3.7730   -0.5570   -0.0760 H   0  0  0  0  0  0  0  0  0  0  0  0
    2.0540   -3.0570   -0.3690 H   0  0  0  0  0  0  0  0  0  0  0  0
    0.9020   -1.5590   -1.8630 H   0  0  0  0  0  0  0  0  0  0  0  0
    2.4190   -2.1310   -2.3020 H   0  0  0  0  0  0  0  0  0  0  0  0
    3.5710   -0.2000    2.2480 H   0  0  0  0  0  0  0  0  0  0  0  0
    4.2750   -0.9140    4.4980 H   0  0  0  0  0  0  0  0  0  0  0  0
    0.3550   -0.2840    0.3760 N   0  0  0  0  0  0  0  0  0  0  0  0
   -0.4940    0.3120    1.3850 C   0  0  1  0  0  0  0  0  0  0  0  0
   -0.1330    1.7840    1.5650 C   0  0  0  0  0  0  0  0  0  0  0  0
   -1.1820    2.5330    2.8160 S   0  0  0  0  0  0  0  0  0  0  0  0
   -1.9270    0.1380    1.0930 C   0  0  0  0  0  0  0  0  0  0  0  0
   -2.7930    0.6010    1.8770 O   0  0  0  0  0  0  0  0  0  0  0  0
    0.2920    0.0610   -0.6020 H   0  0  0  0  0  0  0  0  0  0  0  0
   -0.3040   -0.1680    2.3760 H   0  0  0  0  0  0  0  0  0  0  0  0
   -0.1030    2.3310    0.6220 H   0  0  0  0  0  0  0  0  0  0  0  0
    0.9170    1.7870    1.9670 H   0  0  0  0  0  0  0  0  0  0  0  0
   -1.3970    1.6160    3.8610 H   0  0  0  0  0  0  0  0  0  0  0  0
   -2.7460    3.3730   -1.0530 N   0  0  0  0  0  0  0  0  0  0  0  0
   -2.9730    2.0480   -1.4900 C   0  0  0  0  0  0  0  0  0  0  0  0
   -2.0140    1.3670   -1.8820 O   0  0  0  0  0  0  0  0  0  0  0  0
   -4.3310    1.5100   -1.4740 C   0  0  0  0  0  0  0  0  0  0  0  0
   -4.3920    0.0360   -1.4880 C   0  0  0  0  0  0  0  0  0  0  0  0
   -3.8220   -0.7080   -0.3360 C   0  0  2  0  0  0  0  0  0  0  0  0
   -2.4260   -0.5470   -0.0660 N   0  0  0  0  0  0  0  0  0  0  0  0
   -4.0990   -2.1480   -0.5470 C   0  0  0  0  0  0  0  0  0  0  0  0
   -3.1720   -2.9790   -0.4740 O   0  0  0  0  0  0  0  0  0  0  0  0
   -5.3790   -2.5710   -0.8260 O   0  0  0  0  0  0  0  0  0  0  0  0
   -1.9810    3.9640   -1.4240 H   0  0  0  0  0  0  0  0  0  0  0  0
   -3.3720    3.7710   -0.3290 H   0  0  0  0  0  0  0  0  0  0  0  0
   -4.9610    1.9660   -0.6660 H   0  0  0  0  0  0  0  0  0  0  0  0
   -4.8300    1.8680   -2.4280 H   0  0  0  0  0  0  0  0  0  0  0  0
   -3.9720   -0.3750   -2.4370 H   0  0  0  0  0  0  0  0  0  0  0  0
   -5.4840   -0.2680   -1.5420 H   0  0  0  0  0  0  0  0  0  0  0  0
   -4.4390   -0.3950    0.5670 H   0  0  0  0  0  0  0  0  0  0  0  0
   -1.7060   -0.9540   -0.7060 H   0  0  0  0  0  0  0  0  0  0  0  0
  1 13  1  0  0  0  0
  2  1  1  0  0  0  0
  3 14  1  0  0  0  0
  3  2  2  0  0  0  0
  4  3  1  0  0  0  0
  5  4  2  0  0  0  0
  5 11  1  0  0  0  0
  6  5  1  0  0  0  0
  7 18  1  1  0  0  0
  7  6  1  0  0  0  0
  7  9  1  0  0  0  0
  8  7  1  0  0  0  0
  9 10  2  0  0  0  0
 11 12  2  0  0  0  0
 12  2  1  0  0  0  0
 12 22  1  0  0  0  0
 15  4  1  0  0  0  0
 16  6  1  0  0  0  0
 17  6  1  0  0  0  0
 19  8  1  0  0  0  0
 20  8  1  0  0  0  0
 21 11  1  0  0  0  0
 23  9  1  0  0  0  0
 23 24  1  0  0  0  0
 24 25  1  0  0  0  0
 24 30  1  1  0  0  0
 25 32  1  0  0  0  0
 25 26  1  0  0  0  0
 26 33  1  0  0  0  0
 27 24  1  0  0  0  0
 27 28  2  0  0  0  0
 29 23  1  0  0  0  0
 31 25  1  0  0  0  0
 34 45  1  0  0  0  0
 35 37  1  0  0  0  0
 35 34  1  0  0  0  0
 36 35  2  0  0  0  0
 37 46  1  0  0  0  0
 38 37  1  0  0  0  0
 38 39  1  0  0  0  0
 39 40  1  0  0  0  0
 39 50  1  1  0  0  0
 40 27  1  0  0  0  0
 41 42  1  0  0  0  0
 41 39  1  0  0  0  0
 43 41  2  0  0  0  0
 44 34  1  0  0  0  0
 47 37  1  0  0  0  0
 48 38  1  0  0  0  0
 49 38  1  0  0  0  0
 51 40  1  0  0  0  0
M  END
$$$$
