YCS.pdb
 OpenBabel07022419213D

 45 45  0  0  1  0  0  0  0  0999 V2000
    3.7830   -5.6470    4.2730 O   0  0  0  0  0  0  0  0  0  0  0  0
    3.1610   -4.6380    3.5260 C   0  0  0  0  0  0  0  0  0  0  0  0
    1.8850   -4.2510    3.8810 C   0  0  0  0  0  0  0  0  0  0  0  0
    1.2430   -3.2660    3.1740 C   0  0  0  0  0  0  0  0  0  0  0  0
    1.8770   -2.6570    2.1000 C   0  0  0  0  0  0  0  0  0  0  0  0
    1.2370   -1.5970    1.3070 C   0  0  0  0  0  0  0  0  0  0  0  0
    1.5210   -0.2140    1.8620 C   0  0  2  0  0  0  0  0  0  0  0  0
    1.0530   -0.0600    3.1950 N   0  0  0  0  0  0  0  0  0  0  0  0
    0.8610    0.7840    0.9610 C   0  0  0  0  0  0  0  0  0  0  0  0
    1.1490    0.8010   -0.2560 O   0  0  0  0  0  0  0  0  0  0  0  0
    3.1520   -3.0450    1.7460 C   0  0  0  0  0  0  0  0  0  0  0  0
    3.7760   -4.0290    2.4630 C   0  0  0  0  0  0  0  0  0  0  0  0
    3.3040   -6.5240    4.3240 H   0  0  0  0  0  0  0  0  0  0  0  0
    1.3810   -4.7320    4.7320 H   0  0  0  0  0  0  0  0  0  0  0  0
    0.2560   -2.9550    3.4360 H   0  0  0  0  0  0  0  0  0  0  0  0
    1.5710   -1.6410    0.2510 H   0  0  0  0  0  0  0  0  0  0  0  0
    0.1210   -1.7160    1.2660 H   0  0  0  0  0  0  0  0  0  0  0  0
    2.6020   -0.0510    1.8300 H   0  0  0  0  0  0  0  0  0  0  0  0
    1.7310   -0.3180    3.9350 H   0  0  0  0  0  0  0  0  0  0  0  0
    0.0800   -0.3350    3.3720 H   0  0  0  0  0  0  0  0  0  0  0  0
    3.6570   -2.5750    0.9070 H   0  0  0  0  0  0  0  0  0  0  0  0
    4.7810   -4.3210    2.1700 H   0  0  0  0  0  0  0  0  0  0  0  0
   -0.0880    1.7180    1.4470 N   0  0  0  0  0  0  0  0  0  0  0  0
   -0.7790    2.6970    0.6930 C   0  0  1  0  0  0  0  0  0  0  0  0
   -0.0220    3.9320    0.3590 C   0  0  0  0  0  0  0  0  0  0  0  0
    1.4400    3.5420   -0.6160 S   0  0  0  0  0  0  0  0  0  0  0  0
   -1.4980    2.1610   -0.5160 C   0  0  0  0  0  0  0  0  0  0  0  0
   -1.9580    2.9550   -1.3750 O   0  0  0  0  0  0  0  0  0  0  0  0
   -0.2680    1.6410    2.4950 H   0  0  0  0  0  0  0  0  0  0  0  0
   -1.6520    3.0310    1.3890 H   0  0  0  0  0  0  0  0  0  0  0  0
   -0.7160    4.5900   -0.2180 H   0  0  0  0  0  0  0  0  0  0  0  0
    0.2780    4.4650    1.3030 H   0  0  0  0  0  0  0  0  0  0  0  0
    2.2920    4.6530   -0.5860 H   0  0  0  0  0  0  0  0  0  0  0  0
   -2.0570   -0.9940   -3.8910 O   0  0  0  0  0  0  0  0  0  0  0  0
   -1.4430   -0.5620   -2.7260 C   0  0  0  0  0  0  0  0  0  0  0  0
   -2.3870    0.3520   -1.9330 C   0  0  2  0  0  0  0  0  0  0  0  0
   -1.6760    0.7740   -0.7130 N   0  0  0  0  0  0  0  0  0  0  0  0
   -3.5750   -0.4440   -1.5800 C   0  0  0  0  0  0  0  0  0  0  0  0
   -4.3110   -0.8940   -2.4830 O   0  0  0  0  0  0  0  0  0  0  0  0
   -3.8900   -0.7020   -0.2660 O   0  0  0  0  0  0  0  0  0  0  0  0
   -2.3620   -1.9360   -3.8410 H   0  0  0  0  0  0  0  0  0  0  0  0
   -0.5180   -0.0100   -2.9360 H   0  0  0  0  0  0  0  0  0  0  0  0
   -1.2080   -1.4250   -2.0480 H   0  0  0  0  0  0  0  0  0  0  0  0
   -2.6870    1.2230   -2.5370 H   0  0  0  0  0  0  0  0  0  0  0  0
   -1.3500    0.0360   -0.0360 H   0  0  0  0  0  0  0  0  0  0  0  0
  1 13  1  0  0  0  0
  2  3  1  0  0  0  0
  2  1  1  0  0  0  0
  3 14  1  0  0  0  0
  4 15  1  0  0  0  0
  4  3  2  0  0  0  0
  5  4  1  0  0  0  0
  6  7  1  0  0  0  0
  6  5  1  0  0  0  0
  7 18  1  6  0  0  0
  7  8  1  0  0  0  0
  8 20  1  0  0  0  0
  8 19  1  0  0  0  0
  9 23  1  0  0  0  0
  9  7  1  0  0  0  0
 10  9  2  0  0  0  0
 11  5  2  0  0  0  0
 11 12  1  0  0  0  0
 12  2  2  0  0  0  0
 16  6  1  0  0  0  0
 17  6  1  0  0  0  0
 21 11  1  0  0  0  0
 22 12  1  0  0  0  0
 23 29  1  0  0  0  0
 24 30  1  1  0  0  0
 24 23  1  0  0  0  0
 25 24  1  0  0  0  0
 25 32  1  0  0  0  0
 26 33  1  0  0  0  0
 26 25  1  0  0  0  0
 27 24  1  0  0  0  0
 28 27  2  0  0  0  0
 31 25  1  0  0  0  0
 34 41  1  0  0  0  0
 34 35  1  0  0  0  0
 35 43  1  0  0  0  0
 35 36  1  0  0  0  0
 36 44  1  6  0  0  0
 36 38  1  0  0  0  0
 36 37  1  0  0  0  0
 37 27  1  0  0  0  0
 37 45  1  0  0  0  0
 38 40  1  0  0  0  0
 39 38  2  0  0  0  0
 42 35  1  0  0  0  0
M  END
$$$$
