YCV.pdb
 OpenBabel07022419213D

 50 50  0  0  1  0  0  0  0  0999 V2000
    6.9560   -2.0830    3.0350 O   0  0  0  0  0  0  0  0  0  0  0  0
    6.0310   -1.4030    2.2520 C   0  0  0  0  0  0  0  0  0  0  0  0
    5.0420   -0.6900    2.8960 C   0  0  0  0  0  0  0  0  0  0  0  0
    4.1230   -0.0150    2.1200 C   0  0  0  0  0  0  0  0  0  0  0  0
    4.1530   -0.0240    0.7410 C   0  0  0  0  0  0  0  0  0  0  0  0
    3.2080    0.6630   -0.1320 C   0  0  0  0  0  0  0  0  0  0  0  0
    2.0210   -0.1580   -0.5740 C   0  0  2  0  0  0  0  0  0  0  0  0
    1.2010    0.6900   -1.4260 N   0  0  0  0  0  0  0  0  0  0  0  0
    1.2880   -0.5890    0.6370 C   0  0  0  0  0  0  0  0  0  0  0  0
    1.8270   -1.3700    1.4300 O   0  0  0  0  0  0  0  0  0  0  0  0
    5.1720   -0.7590    0.1450 C   0  0  0  0  0  0  0  0  0  0  0  0
    6.1120   -1.4490    0.8800 C   0  0  0  0  0  0  0  0  0  0  0  0
    7.1360   -3.0850    2.8860 H   0  0  0  0  0  0  0  0  0  0  0  0
    5.0170   -0.6830    3.9850 H   0  0  0  0  0  0  0  0  0  0  0  0
    3.3580    0.5420    2.6190 H   0  0  0  0  0  0  0  0  0  0  0  0
    3.7640    1.0250   -1.0260 H   0  0  0  0  0  0  0  0  0  0  0  0
    2.7860    1.5300    0.4460 H   0  0  0  0  0  0  0  0  0  0  0  0
    2.3340   -1.0730   -1.1270 H   0  0  0  0  0  0  0  0  0  0  0  0
    1.6550    0.7280   -2.3780 H   0  0  0  0  0  0  0  0  0  0  0  0
    1.2080    1.6510   -1.0100 H   0  0  0  0  0  0  0  0  0  0  0  0
    5.2650   -0.8170   -0.9300 H   0  0  0  0  0  0  0  0  0  0  0  0
    6.9040   -2.0200    0.3820 H   0  0  0  0  0  0  0  0  0  0  0  0
   -0.0330   -0.1420    0.9430 N   0  0  0  0  0  0  0  0  0  0  0  0
   -0.7770   -0.5320    2.0990 C   0  0  1  0  0  0  0  0  0  0  0  0
   -1.0160    0.7410    2.9230 C   0  0  0  0  0  0  0  0  0  0  0  0
    0.5320    1.5050    3.4250 S   0  0  0  0  0  0  0  0  0  0  0  0
   -2.0940   -1.1250    1.7860 C   0  0  0  0  0  0  0  0  0  0  0  0
   -2.8380   -1.5050    2.7210 O   0  0  0  0  0  0  0  0  0  0  0  0
   -0.4680    0.5160    0.2610 H   0  0  0  0  0  0  0  0  0  0  0  0
   -0.2520   -1.2240    2.7680 H   0  0  0  0  0  0  0  0  0  0  0  0
   -1.6190    1.4730    2.3300 H   0  0  0  0  0  0  0  0  0  0  0  0
   -1.6190    0.4940    3.8180 H   0  0  0  0  0  0  0  0  0  0  0  0
    1.2880    0.5810    4.1570 H   0  0  0  0  0  0  0  0  0  0  0  0
   -4.1520   -0.3870   -1.8230 C   0  0  0  0  0  0  0  0  0  0  0  0
   -4.7190   -0.8630   -0.5270 C   0  0  0  0  0  0  0  0  0  0  0  0
   -4.9590    0.3230    0.3990 C   0  0  0  0  0  0  0  0  0  0  0  0
   -3.8800   -1.8840    0.1830 C   0  0  2  0  0  0  0  0  0  0  0  0
   -2.5850   -1.3000    0.4670 N   0  0  0  0  0  0  0  0  0  0  0  0
   -3.7020   -3.0490   -0.7260 C   0  0  0  0  0  0  0  0  0  0  0  0
   -2.5630   -3.3930   -1.1300 O   0  0  0  0  0  0  0  0  0  0  0  0
   -4.7890   -3.7950   -1.1590 O   0  0  0  0  0  0  0  0  0  0  0  0
   -4.7610   -0.7310   -2.6910 H   0  0  0  0  0  0  0  0  0  0  0  0
   -3.1230   -0.6890   -2.0290 H   0  0  0  0  0  0  0  0  0  0  0  0
   -4.1580    0.7350   -1.8420 H   0  0  0  0  0  0  0  0  0  0  0  0
   -5.7230   -1.3100   -0.7380 H   0  0  0  0  0  0  0  0  0  0  0  0
   -5.2080   -0.0750    1.4030 H   0  0  0  0  0  0  0  0  0  0  0  0
   -4.1070    1.0090    0.3980 H   0  0  0  0  0  0  0  0  0  0  0  0
   -5.8470    0.8560    0.0360 H   0  0  0  0  0  0  0  0  0  0  0  0
   -4.4220   -2.1680    1.1080 H   0  0  0  0  0  0  0  0  0  0  0  0
   -2.0120   -1.0040   -0.3520 H   0  0  0  0  0  0  0  0  0  0  0  0
  2  3  1  0  0  0  0
  2  1  1  0  0  0  0
  3 14  1  0  0  0  0
  4 15  1  0  0  0  0
  4  3  2  0  0  0  0
  5  4  1  0  0  0  0
  6 17  1  0  0  0  0
  6  5  1  0  0  0  0
  7 18  1  6  0  0  0
  7  6  1  0  0  0  0
  7  9  1  0  0  0  0
  8 20  1  0  0  0  0
  8  7  1  0  0  0  0
  9 23  1  0  0  0  0
  9 10  2  0  0  0  0
 11  5  2  0  0  0  0
 11 12  1  0  0  0  0
 12  2  2  0  0  0  0
 13  1  1  0  0  0  0
 16  6  1  0  0  0  0
 19  8  1  0  0  0  0
 21 11  1  0  0  0  0
 22 12  1  0  0  0  0
 23 24  1  0  0  0  0
 24 30  1  1  0  0  0
 24 25  1  0  0  0  0
 25 26  1  0  0  0  0
 25 32  1  0  0  0  0
 26 33  1  0  0  0  0
 27 24  1  0  0  0  0
 27 28  2  0  0  0  0
 29 23  1  0  0  0  0
 31 25  1  0  0  0  0
 34 35  1  0  0  0  0
 35 37  1  0  0  0  0
 35 36  1  0  0  0  0
 36 46  1  0  0  0  0
 37 38  1  0  0  0  0
 37 49  1  1  0  0  0
 38 27  1  0  0  0  0
 39 37  1  0  0  0  0
 40 39  1  0  0  0  0
 41 39  2  0  0  0  0
 42 34  1  0  0  0  0
 43 34  1  0  0  0  0
 44 34  1  0  0  0  0
 45 35  1  0  0  0  0
 47 36  1  0  0  0  0
 48 36  1  0  0  0  0
 50 38  1  0  0  0  0
M  END
$$$$
