YCW.pdb
 OpenBabel07022419213D

 58 60  0  0  1  0  0  0  0  0999 V2000
    2.3860   -2.3570    4.5050 O   0  0  0  0  0  0  0  0  0  0  0  0
    2.7030   -1.2730    3.7000 C   0  0  0  0  0  0  0  0  0  0  0  0
    2.4950   -1.3570    2.3540 C   0  0  0  0  0  0  0  0  0  0  0  0
    2.8270   -0.2490    1.5880 C   0  0  0  0  0  0  0  0  0  0  0  0
    3.3450    0.9040    2.1180 C   0  0  0  0  0  0  0  0  0  0  0  0
    3.6620    2.0170    1.2400 C   0  0  0  0  0  0  0  0  0  0  0  0
    2.5950    3.0180    1.0000 C   0  0  2  0  0  0  0  0  0  0  0  0
    2.1370    3.6770    2.2100 N   0  0  0  0  0  0  0  0  0  0  0  0
    1.4400    2.5600    0.2100 C   0  0  0  0  0  0  0  0  0  0  0  0
    1.6110    1.9520   -0.8770 O   0  0  0  0  0  0  0  0  0  0  0  0
    3.5410    0.9560    3.4670 C   0  0  0  0  0  0  0  0  0  0  0  0
    3.2190   -0.1310    4.2420 C   0  0  0  0  0  0  0  0  0  0  0  0
    1.7120   -2.1840    5.2670 H   0  0  0  0  0  0  0  0  0  0  0  0
    2.0870   -2.2540    1.9080 H   0  0  0  0  0  0  0  0  0  0  0  0
    2.6430   -0.3620    0.5110 H   0  0  0  0  0  0  0  0  0  0  0  0
    4.5420    2.5540    1.6490 H   0  0  0  0  0  0  0  0  0  0  0  0
    4.0040    1.6560    0.2270 H   0  0  0  0  0  0  0  0  0  0  0  0
    3.0820    3.8470    0.3980 H   0  0  0  0  0  0  0  0  0  0  0  0
    1.6880    4.5880    2.0290 H   0  0  0  0  0  0  0  0  0  0  0  0
    2.8620    3.6950    2.9550 H   0  0  0  0  0  0  0  0  0  0  0  0
    3.9430    1.8150    3.9820 H   0  0  0  0  0  0  0  0  0  0  0  0
    3.3690   -0.1110    5.3340 H   0  0  0  0  0  0  0  0  0  0  0  0
    0.0990    2.7760    0.6260 N   0  0  0  0  0  0  0  0  0  0  0  0
   -1.0580    2.3130   -0.1680 C   0  0  1  0  0  0  0  0  0  0  0  0
   -1.2150    3.1460   -1.3950 C   0  0  0  0  0  0  0  0  0  0  0  0
   -2.5970    2.7030   -2.4620 S   0  0  0  0  0  0  0  0  0  0  0  0
   -1.0140    0.8610   -0.3520 C   0  0  0  0  0  0  0  0  0  0  0  0
   -0.0170    0.1790    0.0950 O   0  0  0  0  0  0  0  0  0  0  0  0
   -0.0340    3.2920    1.5430 H   0  0  0  0  0  0  0  0  0  0  0  0
   -1.9430    2.5050    0.4760 H   0  0  0  0  0  0  0  0  0  0  0  0
   -1.3860    4.2370   -1.1380 H   0  0  0  0  0  0  0  0  0  0  0  0
   -0.2550    3.1960   -1.9960 H   0  0  0  0  0  0  0  0  0  0  0  0
   -2.3280    3.1730   -3.7630 H   0  0  0  0  0  0  0  0  0  0  0  0
   -1.9860    0.0550   -0.9950 N   0  0  0  0  0  0  0  0  0  0  0  0
   -1.8310   -1.3900   -1.1220 C   0  0  1  0  0  0  0  0  0  0  0  0
   -2.9500   -2.1240   -0.4150 C   0  0  0  0  0  0  0  0  0  0  0  0
   -2.7820   -3.6040   -0.5510 C   0  0  0  0  0  0  0  0  0  0  0  0
   -3.4680   -4.4710   -1.3680 C   0  0  0  0  0  0  0  0  0  0  0  0
   -3.0050   -5.7160   -1.1790 N   0  0  0  0  0  0  0  0  0  0  0  0
   -2.0260   -5.6630   -0.2470 C   0  0  0  0  0  0  0  0  0  0  0  0
   -1.2540   -6.6980    0.2750 C   0  0  0  0  0  0  0  0  0  0  0  0
   -0.3040   -6.4030    1.2270 C   0  0  0  0  0  0  0  0  0  0  0  0
   -0.1640   -5.0930    1.6190 C   0  0  0  0  0  0  0  0  0  0  0  0
   -0.9160   -4.0600    1.1160 C   0  0  0  0  0  0  0  0  0  0  0  0
   -1.8730   -4.3600    0.1550 C   0  0  0  0  0  0  0  0  0  0  0  0
   -1.7790   -1.7530   -2.5500 C   0  0  0  0  0  0  0  0  0  0  0  0
   -1.6500   -2.9220   -2.9730 O   0  0  0  0  0  0  0  0  0  0  0  0
   -1.8770   -0.7460   -3.4960 O   0  0  0  0  0  0  0  0  0  0  0  0
   -2.8230    0.5050   -1.3730 H   0  0  0  0  0  0  0  0  0  0  0  0
   -0.8770   -1.7240   -0.6620 H   0  0  0  0  0  0  0  0  0  0  0  0
   -2.9340   -1.8870    0.6670 H   0  0  0  0  0  0  0  0  0  0  0  0
   -3.9500   -1.8720   -0.7970 H   0  0  0  0  0  0  0  0  0  0  0  0
   -4.2550   -4.1360   -2.0430 H   0  0  0  0  0  0  0  0  0  0  0  0
   -3.3680   -6.5460   -1.6860 H   0  0  0  0  0  0  0  0  0  0  0  0
   -1.4040   -7.7100   -0.0670 H   0  0  0  0  0  0  0  0  0  0  0  0
    0.3230   -7.1980    1.6600 H   0  0  0  0  0  0  0  0  0  0  0  0
    0.5960   -4.8980    2.3730 H   0  0  0  0  0  0  0  0  0  0  0  0
   -0.8030   -3.0480    1.4220 H   0  0  0  0  0  0  0  0  0  0  0  0
  1 13  1  0  0  0  0
  2 12  1  0  0  0  0
  2  1  1  0  0  0  0
  3  2  2  0  0  0  0
  4  5  2  0  0  0  0
  4  3  1  0  0  0  0
  5 11  1  0  0  0  0
  6 16  1  0  0  0  0
  6  5  1  0  0  0  0
  7 18  1  6  0  0  0
  7  6  1  0  0  0  0
  7  8  1  0  0  0  0
  8 20  1  0  0  0  0
  9 23  1  0  0  0  0
  9  7  1  0  0  0  0
 10  9  2  0  0  0  0
 11 21  1  0  0  0  0
 11 12  2  0  0  0  0
 12 22  1  0  0  0  0
 14  3  1  0  0  0  0
 15  4  1  0  0  0  0
 17  6  1  0  0  0  0
 19  8  1  0  0  0  0
 23 29  1  0  0  0  0
 24 30  1  1  0  0  0
 24 23  1  0  0  0  0
 25 31  1  0  0  0  0
 25 24  1  0  0  0  0
 26 25  1  0  0  0  0
 27 24  1  0  0  0  0
 27 28  2  0  0  0  0
 32 25  1  0  0  0  0
 33 26  1  0  0  0  0
 34 27  1  0  0  0  0
 35 34  1  0  0  0  0
 35 50  1  1  0  0  0
 35 36  1  0  0  0  0
 36 51  1  0  0  0  0
 37 36  1  0  0  0  0
 37 45  1  0  0  0  0
 38 39  1  0  0  0  0
 38 37  2  0  0  0  0
 39 40  1  0  0  0  0
 40 45  2  0  0  0  0
 40 41  1  0  0  0  0
 41 42  2  0  0  0  0
 42 43  1  0  0  0  0
 42 56  1  0  0  0  0
 43 57  1  0  0  0  0
 44 58  1  0  0  0  0
 44 43  2  0  0  0  0
 45 44  1  0  0  0  0
 46 35  1  0  0  0  0
 47 46  1  0  0  0  0
 48 46  2  0  0  0  0
 49 34  1  0  0  0  0
 52 36  1  0  0  0  0
 53 38  1  0  0  0  0
 54 39  1  0  0  0  0
 55 41  1  0  0  0  0
M  END
$$$$
