YCY.pdb
 OpenBabel07022419213D

 55 56  0  0  1  0  0  0  0  0999 V2000
    1.2630    1.9290    6.1800 O   0  0  0  0  0  0  0  0  0  0  0  0
    1.9530    1.0050    5.4190 C   0  0  0  0  0  0  0  0  0  0  0  0
    1.4280   -0.2210    5.1550 C   0  0  0  0  0  0  0  0  0  0  0  0
    2.1830   -1.0970    4.3860 C   0  0  0  0  0  0  0  0  0  0  0  0
    3.4220   -0.7810    3.8800 C   0  0  0  0  0  0  0  0  0  0  0  0
    4.2040   -1.7770    3.0580 C   0  0  0  0  0  0  0  0  0  0  0  0
    3.9940   -1.6250    1.5790 C   0  0  2  0  0  0  0  0  0  0  0  0
    4.4210   -0.3190    1.0940 N   0  0  0  0  0  0  0  0  0  0  0  0
    2.5530   -1.7900    1.2740 C   0  0  0  0  0  0  0  0  0  0  0  0
    1.9820   -2.8660    1.6430 O   0  0  0  0  0  0  0  0  0  0  0  0
    3.9190    0.4650    4.1710 C   0  0  0  0  0  0  0  0  0  0  0  0
    3.2050    1.3520    4.9250 C   0  0  0  0  0  0  0  0  0  0  0  0
    0.9490    1.7570    7.1030 H   0  0  0  0  0  0  0  0  0  0  0  0
    0.4360   -0.5030    5.5310 H   0  0  0  0  0  0  0  0  0  0  0  0
    1.7600   -2.0880    4.1930 H   0  0  0  0  0  0  0  0  0  0  0  0
    5.2830   -1.6420    3.2900 H   0  0  0  0  0  0  0  0  0  0  0  0
    3.8400   -2.7780    3.3490 H   0  0  0  0  0  0  0  0  0  0  0  0
    4.6070   -2.3910    1.0510 H   0  0  0  0  0  0  0  0  0  0  0  0
    3.9150    0.4500    1.5830 H   0  0  0  0  0  0  0  0  0  0  0  0
    5.4430   -0.2050    1.0960 H   0  0  0  0  0  0  0  0  0  0  0  0
    4.8990    0.7530    3.7830 H   0  0  0  0  0  0  0  0  0  0  0  0
    3.5520    2.3540    5.1760 H   0  0  0  0  0  0  0  0  0  0  0  0
    1.8170   -0.8090    0.5950 N   0  0  0  0  0  0  0  0  0  0  0  0
    0.4360   -0.8260    0.2470 C   0  0  1  0  0  0  0  0  0  0  0  0
   -0.3600    0.3430    0.7030 C   0  0  0  0  0  0  0  0  0  0  0  0
    0.1280    1.9320    0.0930 S   0  0  0  0  0  0  0  0  0  0  0  0
    0.2070   -1.2460   -1.1800 C   0  0  0  0  0  0  0  0  0  0  0  0
    1.1660   -1.7150   -1.8530 O   0  0  0  0  0  0  0  0  0  0  0  0
    2.3930    0.0520    0.3080 H   0  0  0  0  0  0  0  0  0  0  0  0
    0.0070   -1.7250    0.8180 H   0  0  0  0  0  0  0  0  0  0  0  0
   -0.3590    0.2890    1.8360 H   0  0  0  0  0  0  0  0  0  0  0  0
   -1.4440    0.1940    0.4840 H   0  0  0  0  0  0  0  0  0  0  0  0
    0.7410    1.8740   -1.1540 H   0  0  0  0  0  0  0  0  0  0  0  0
   -7.0510   -1.5130    0.0240 O   0  0  0  0  0  0  0  0  0  0  0  0
   -5.9730   -1.3130   -0.8460 C   0  0  0  0  0  0  0  0  0  0  0  0
   -5.7170   -2.1670   -1.9050 C   0  0  0  0  0  0  0  0  0  0  0  0
   -4.6600   -1.9300   -2.7410 C   0  0  0  0  0  0  0  0  0  0  0  0
   -3.7970   -0.8480   -2.5900 C   0  0  0  0  0  0  0  0  0  0  0  0
   -2.6960   -0.6340   -3.5280 C   0  0  0  0  0  0  0  0  0  0  0  0
   -1.4880   -1.4730   -3.1090 C   0  0  2  0  0  0  0  0  0  0  0  0
   -1.0520   -1.1350   -1.8150 N   0  0  0  0  0  0  0  0  0  0  0  0
   -0.5210   -1.5290   -4.2110 C   0  0  0  0  0  0  0  0  0  0  0  0
    0.6820   -1.2830   -4.1480 O   0  0  0  0  0  0  0  0  0  0  0  0
   -4.0840    0.0070   -1.5070 C   0  0  0  0  0  0  0  0  0  0  0  0
   -5.1390   -0.2480   -0.6800 C   0  0  0  0  0  0  0  0  0  0  0  0
   -1.0480   -1.9020   -5.4780 O   0  0  0  0  0  0  0  0  0  0  0  0
   -7.6450   -0.7090    0.2070 H   0  0  0  0  0  0  0  0  0  0  0  0
   -6.3640   -3.0260   -2.0510 H   0  0  0  0  0  0  0  0  0  0  0  0
   -4.4300   -2.5660   -3.6140 H   0  0  0  0  0  0  0  0  0  0  0  0
   -2.9710   -0.9510   -4.5840 H   0  0  0  0  0  0  0  0  0  0  0  0
   -2.4490    0.4380   -3.5520 H   0  0  0  0  0  0  0  0  0  0  0  0
   -1.8630   -2.5490   -3.0500 H   0  0  0  0  0  0  0  0  0  0  0  0
   -1.8020   -0.7340   -1.1360 H   0  0  0  0  0  0  0  0  0  0  0  0
   -3.4550    0.8890   -1.3860 H   0  0  0  0  0  0  0  0  0  0  0  0
   -5.3270    0.4460    0.1570 H   0  0  0  0  0  0  0  0  0  0  0  0
  1 13  1  0  0  0  0
  2  1  1  0  0  0  0
  3  2  1  0  0  0  0
  3 14  1  0  0  0  0
  4  3  2  0  0  0  0
  5 11  2  0  0  0  0
  5  4  1  0  0  0  0
  6 16  1  0  0  0  0
  6 17  1  0  0  0  0
  6  5  1  0  0  0  0
  7 18  1  6  0  0  0
  7  6  1  0  0  0  0
  8 20  1  0  0  0  0
  8  7  1  0  0  0  0
  8 19  1  0  0  0  0
  9  7  1  0  0  0  0
  9 10  2  0  0  0  0
 11 12  1  0  0  0  0
 12 22  1  0  0  0  0
 12  2  2  0  0  0  0
 15  4  1  0  0  0  0
 21 11  1  0  0  0  0
 23  9  1  0  0  0  0
 24 23  1  0  0  0  0
 24 25  1  0  0  0  0
 24 30  1  1  0  0  0
 25 31  1  0  0  0  0
 26 25  1  0  0  0  0
 27 24  1  0  0  0  0
 28 27  2  0  0  0  0
 29 23  1  0  0  0  0
 32 25  1  0  0  0  0
 33 26  1  0  0  0  0
 34 47  1  0  0  0  0
 35 45  1  0  0  0  0
 35 34  1  0  0  0  0
 36 35  2  0  0  0  0
 37 38  2  0  0  0  0
 37 36  1  0  0  0  0
 38 44  1  0  0  0  0
 39 40  1  0  0  0  0
 39 38  1  0  0  0  0
 40 52  1  1  0  0  0
 40 41  1  0  0  0  0
 41 27  1  0  0  0  0
 41 53  1  0  0  0  0
 42 43  1  0  0  0  0
 42 40  1  0  0  0  0
 44 54  1  0  0  0  0
 44 45  2  0  0  0  0
 45 55  1  0  0  0  0
 46 42  2  0  0  0  0
 48 36  1  0  0  0  0
 49 37  1  0  0  0  0
 50 39  1  0  0  0  0
 51 39  1  0  0  0  0
M  END
$$$$
