YDC.pdb
 OpenBabel07022419203D

 47 47  0  0  1  0  0  0  0  0999 V2000
    2.7510   -1.2480    4.9560 O   0  0  0  0  0  0  0  0  0  0  0  0
    2.7170   -0.3930    3.8570 C   0  0  0  0  0  0  0  0  0  0  0  0
    1.5850    0.2800    3.4850 C   0  0  0  0  0  0  0  0  0  0  0  0
    1.5790    1.1190    2.3930 C   0  0  0  0  0  0  0  0  0  0  0  0
    2.6980    1.3310    1.6180 C   0  0  0  0  0  0  0  0  0  0  0  0
    2.7470    2.2290    0.4510 C   0  0  0  0  0  0  0  0  0  0  0  0
    2.4720    1.5470   -0.8410 C   0  0  2  0  0  0  0  0  0  0  0  0
    2.5750    2.5970   -1.8870 N   0  0  0  0  0  0  0  0  0  0  0  0
    1.1570    0.9080   -0.9810 C   0  0  0  0  0  0  0  0  0  0  0  0
    0.2970    1.5050   -1.7410 O   0  0  0  0  0  0  0  0  0  0  0  0
    3.8530    0.6470    1.9930 C   0  0  0  0  0  0  0  0  0  0  0  0
    3.8510   -0.1900    3.0840 C   0  0  0  0  0  0  0  0  0  0  0  0
    3.2310   -2.1310    4.9750 H   0  0  0  0  0  0  0  0  0  0  0  0
    0.6920    0.1190    4.0920 H   0  0  0  0  0  0  0  0  0  0  0  0
    0.6700    1.6380    2.1290 H   0  0  0  0  0  0  0  0  0  0  0  0
    2.0720    3.1020    0.6240 H   0  0  0  0  0  0  0  0  0  0  0  0
    3.7930    2.6500    0.4220 H   0  0  0  0  0  0  0  0  0  0  0  0
    3.3000    0.8400   -1.1010 H   0  0  0  0  0  0  0  0  0  0  0  0
    2.5570    2.1050   -2.8180 H   0  0  0  0  0  0  0  0  0  0  0  0
    1.7120    3.1730   -1.8490 H   0  0  0  0  0  0  0  0  0  0  0  0
    4.7330    0.8020    1.4000 H   0  0  0  0  0  0  0  0  0  0  0  0
    4.7470   -0.7350    3.3930 H   0  0  0  0  0  0  0  0  0  0  0  0
    0.7510   -0.2860   -0.3720 N   0  0  0  0  0  0  0  0  0  0  0  0
   -0.5810   -0.7790   -0.6260 C   0  0  1  0  0  0  0  0  0  0  0  0
   -0.4280   -2.1300   -1.3540 C   0  0  0  0  0  0  0  0  0  0  0  0
    0.3120   -1.9510   -2.6200 C   0  0  0  0  0  0  0  0  0  0  0  0
    1.4560   -1.4130   -2.5570 O   0  0  0  0  0  0  0  0  0  0  0  0
   -1.3400   -1.1080    0.6050 C   0  0  0  0  0  0  0  0  0  0  0  0
   -0.7650   -0.9900    1.7120 O   0  0  0  0  0  0  0  0  0  0  0  0
   -0.2860   -2.3790   -3.8000 O   0  0  0  0  0  0  0  0  0  0  0  0
    1.4360   -0.7750    0.2430 H   0  0  0  0  0  0  0  0  0  0  0  0
   -1.1290   -0.0770   -1.2720 H   0  0  0  0  0  0  0  0  0  0  0  0
    0.0660   -2.8240   -0.6430 H   0  0  0  0  0  0  0  0  0  0  0  0
   -1.4490   -2.5160   -1.5190 H   0  0  0  0  0  0  0  0  0  0  0  0
    0.0110   -1.9160   -4.6580 H   0  0  0  0  0  0  0  0  0  0  0  0
   -2.6740   -1.5460    0.6000 N   0  0  0  0  0  0  0  0  0  0  0  0
   -3.4360   -1.8670    1.7990 C   0  0  1  0  0  0  0  0  0  0  0  0
   -4.6030   -0.9100    1.9690 C   0  0  0  0  0  0  0  0  0  0  0  0
   -5.5010   -1.3540    3.4570 S   0  0  0  0  0  0  0  0  0  0  0  0
   -3.9820   -3.2290    1.6430 C   0  0  0  0  0  0  0  0  0  0  0  0
   -4.7010   -3.7060    2.5460 O   0  0  0  0  0  0  0  0  0  0  0  0
   -3.7080   -3.9740    0.5180 O   0  0  0  0  0  0  0  0  0  0  0  0
   -3.1500   -1.6510   -0.3160 H   0  0  0  0  0  0  0  0  0  0  0  0
   -2.8180   -1.7360    2.7180 H   0  0  0  0  0  0  0  0  0  0  0  0
   -4.2470    0.1340    2.0220 H   0  0  0  0  0  0  0  0  0  0  0  0
   -5.2870   -1.0220    1.1090 H   0  0  0  0  0  0  0  0  0  0  0  0
   -4.8020   -2.1940    4.3260 H   0  0  0  0  0  0  0  0  0  0  0  0
  1 13  1  0  0  0  0
  2  1  1  0  0  0  0
  3  2  1  0  0  0  0
  3 14  1  0  0  0  0
  4  3  2  0  0  0  0
  5 11  2  0  0  0  0
  5  4  1  0  0  0  0
  6 16  1  0  0  0  0
  6  5  1  0  0  0  0
  7 18  1  6  0  0  0
  7  6  1  0  0  0  0
  8 20  1  0  0  0  0
  8  7  1  0  0  0  0
  9  7  1  0  0  0  0
  9 23  1  0  0  0  0
 10  9  2  0  0  0  0
 11 12  1  0  0  0  0
 12 22  1  0  0  0  0
 12  2  2  0  0  0  0
 15  4  1  0  0  0  0
 17  6  1  0  0  0  0
 19  8  1  0  0  0  0
 21 11  1  0  0  0  0
 23 31  1  0  0  0  0
 24 32  1  6  0  0  0
 24 23  1  0  0  0  0
 24 28  1  0  0  0  0
 25 33  1  0  0  0  0
 25 24  1  0  0  0  0
 26 27  2  0  0  0  0
 26 25  1  0  0  0  0
 28 29  2  0  0  0  0
 30 26  1  0  0  0  0
 34 25  1  0  0  0  0
 35 30  1  0  0  0  0
 36 28  1  0  0  0  0
 36 37  1  0  0  0  0
 37 38  1  0  0  0  0
 37 44  1  1  0  0  0
 38 45  1  0  0  0  0
 38 39  1  0  0  0  0
 39 47  1  0  0  0  0
 40 37  1  0  0  0  0
 40 41  1  0  0  0  0
 42 40  2  0  0  0  0
 43 36  1  0  0  0  0
 46 38  1  0  0  0  0
M  END
$$$$
