YDI.pdb
 OpenBabel07022419203D

 55 55  0  0  1  0  0  0  0  0999 V2000
    4.0960   -1.5780    7.9280 O   0  0  0  0  0  0  0  0  0  0  0  0
    3.5340   -1.3020    6.6670 C   0  0  0  0  0  0  0  0  0  0  0  0
    3.8680   -2.1110    5.6080 C   0  0  0  0  0  0  0  0  0  0  0  0
    3.3200   -1.8550    4.3490 C   0  0  0  0  0  0  0  0  0  0  0  0
    2.4540   -0.8130    4.1400 C   0  0  0  0  0  0  0  0  0  0  0  0
    1.8850   -0.5470    2.8360 C   0  0  0  0  0  0  0  0  0  0  0  0
    2.6750    0.3780    1.9580 C   0  0  2  0  0  0  0  0  0  0  0  0
    2.8290    1.6760    2.5850 N   0  0  0  0  0  0  0  0  0  0  0  0
    1.9220    0.6000    0.6790 C   0  0  0  0  0  0  0  0  0  0  0  0
    1.5480    1.7450    0.3220 O   0  0  0  0  0  0  0  0  0  0  0  0
    2.1320   -0.0140    5.2110 C   0  0  0  0  0  0  0  0  0  0  0  0
    2.6700   -0.2560    6.4790 C   0  0  0  0  0  0  0  0  0  0  0  0
    3.9920   -2.5300    8.2720 H   0  0  0  0  0  0  0  0  0  0  0  0
    4.5450   -2.9470    5.7140 H   0  0  0  0  0  0  0  0  0  0  0  0
    3.5870   -2.4860    3.5440 H   0  0  0  0  0  0  0  0  0  0  0  0
    1.6570   -1.4970    2.3100 H   0  0  0  0  0  0  0  0  0  0  0  0
    0.8860   -0.0490    2.9880 H   0  0  0  0  0  0  0  0  0  0  0  0
    3.6600    0.0100    1.6850 H   0  0  0  0  0  0  0  0  0  0  0  0
    3.3230    2.2970    1.9050 H   0  0  0  0  0  0  0  0  0  0  0  0
    3.4520    1.5530    3.4070 H   0  0  0  0  0  0  0  0  0  0  0  0
    1.4520    0.8180    5.0840 H   0  0  0  0  0  0  0  0  0  0  0  0
    2.4260    0.3640    7.3300 H   0  0  0  0  0  0  0  0  0  0  0  0
    1.5950   -0.4690   -0.1910 N   0  0  0  0  0  0  0  0  0  0  0  0
    0.8500   -0.2370   -1.4510 C   0  0  1  0  0  0  0  0  0  0  0  0
    1.6730   -0.6790   -2.6130 C   0  0  0  0  0  0  0  0  0  0  0  0
    1.0140   -0.4670   -3.9110 C   0  0  0  0  0  0  0  0  0  0  0  0
    0.8430    0.7170   -4.3670 O   0  0  0  0  0  0  0  0  0  0  0  0
   -0.4240   -0.9800   -1.4070 C   0  0  0  0  0  0  0  0  0  0  0  0
   -0.6170   -1.7530   -0.4070 O   0  0  0  0  0  0  0  0  0  0  0  0
    0.5420   -1.4970   -4.7220 O   0  0  0  0  0  0  0  0  0  0  0  0
    1.8920   -1.4290    0.0750 H   0  0  0  0  0  0  0  0  0  0  0  0
    0.6610    0.8370   -1.5060 H   0  0  0  0  0  0  0  0  0  0  0  0
    2.7080   -0.2650   -2.5880 H   0  0  0  0  0  0  0  0  0  0  0  0
    1.8320   -1.7980   -2.5360 H   0  0  0  0  0  0  0  0  0  0  0  0
    0.1420   -1.3370   -5.6360 H   0  0  0  0  0  0  0  0  0  0  0  0
   -4.6990    0.9770   -0.4400 C   0  0  0  0  0  0  0  0  0  0  0  0
   -3.5130    0.0720   -0.7050 C   0  0  0  0  0  0  0  0  0  0  0  0
   -3.8100   -0.7670   -1.9280 C   0  0  2  0  0  0  0  0  0  0  0  0
   -5.0680   -1.5810   -1.6170 C   0  0  0  0  0  0  0  0  0  0  0  0
   -2.6410   -1.7180   -2.1670 C   0  0  2  0  0  0  0  0  0  0  0  0
   -1.4560   -0.9160   -2.3720 N   0  0  0  0  0  0  0  0  0  0  0  0
   -2.9810   -2.5810   -3.3180 C   0  0  0  0  0  0  0  0  0  0  0  0
   -2.3130   -2.6310   -4.3800 O   0  0  0  0  0  0  0  0  0  0  0  0
   -4.1020   -3.3950   -3.2470 O   0  0  0  0  0  0  0  0  0  0  0  0
   -5.3160    0.5800    0.4180 H   0  0  0  0  0  0  0  0  0  0  0  0
   -5.3610    0.9980   -1.3200 H   0  0  0  0  0  0  0  0  0  0  0  0
   -4.4230    2.0000   -0.1840 H   0  0  0  0  0  0  0  0  0  0  0  0
   -3.3720   -0.5560    0.1970 H   0  0  0  0  0  0  0  0  0  0  0  0
   -2.5760    0.6570   -0.8280 H   0  0  0  0  0  0  0  0  0  0  0  0
   -3.9430   -0.1000   -2.7920 H   0  0  0  0  0  0  0  0  0  0  0  0
   -4.7320   -2.5350   -1.1690 H   0  0  0  0  0  0  0  0  0  0  0  0
   -5.7120   -1.6820   -2.4910 H   0  0  0  0  0  0  0  0  0  0  0  0
   -5.6660   -1.0590   -0.8250 H   0  0  0  0  0  0  0  0  0  0  0  0
   -2.5860   -2.3400   -1.2640 H   0  0  0  0  0  0  0  0  0  0  0  0
   -1.3590   -0.2960   -3.2010 H   0  0  0  0  0  0  0  0  0  0  0  0
  1 13  1  0  0  0  0
  2  1  1  0  0  0  0
  3 14  1  0  0  0  0
  3  2  2  0  0  0  0
  4  3  1  0  0  0  0
  5  4  2  0  0  0  0
  5 11  1  0  0  0  0
  6 17  1  0  0  0  0
  6  5  1  0  0  0  0
  7 18  1  6  0  0  0
  7  8  1  0  0  0  0
  7  6  1  0  0  0  0
  8 20  1  0  0  0  0
  9  7  1  0  0  0  0
 10  9  2  0  0  0  0
 11 12  2  0  0  0  0
 12  2  1  0  0  0  0
 12 22  1  0  0  0  0
 15  4  1  0  0  0  0
 16  6  1  0  0  0  0
 19  8  1  0  0  0  0
 21 11  1  0  0  0  0
 23 31  1  0  0  0  0
 23  9  1  0  0  0  0
 24 32  1  6  0  0  0
 24 28  1  0  0  0  0
 24 23  1  0  0  0  0
 25 33  1  0  0  0  0
 25 34  1  0  0  0  0
 25 24  1  0  0  0  0
 26 25  1  0  0  0  0
 27 26  2  0  0  0  0
 28 29  2  0  0  0  0
 30 26  1  0  0  0  0
 35 30  1  0  0  0  0
 36 47  1  0  0  0  0
 36 45  1  0  0  0  0
 37 36  1  0  0  0  0
 37 48  1  0  0  0  0
 38 50  1  6  0  0  0
 38 39  1  0  0  0  0
 38 37  1  0  0  0  0
 39 51  1  0  0  0  0
 39 53  1  0  0  0  0
 40 38  1  0  0  0  0
 40 54  1  1  0  0  0
 41 40  1  0  0  0  0
 41 28  1  0  0  0  0
 42 44  1  0  0  0  0
 42 40  1  0  0  0  0
 43 42  2  0  0  0  0
 46 36  1  0  0  0  0
 49 37  1  0  0  0  0
 52 39  1  0  0  0  0
 55 41  1  0  0  0  0
M  END
$$$$
