YDK.pdb
 OpenBabel07022419203D

 57 57  0  0  1  0  0  0  0  0999 V2000
   -2.0050    2.4230   -1.3490 O   0  0  0  0  0  0  0  0  0  0  0  0
   -1.1270    2.3830   -0.2840 C   0  0  0  0  0  0  0  0  0  0  0  0
    0.1110    1.7690   -0.4610 C   0  0  0  0  0  0  0  0  0  0  0  0
    0.9850    1.7270    0.5910 C   0  0  0  0  0  0  0  0  0  0  0  0
    0.7130    2.2600    1.8260 C   0  0  0  0  0  0  0  0  0  0  0  0
    1.6650    2.2360    2.9390 C   0  0  0  0  0  0  0  0  0  0  0  0
    1.5830    1.1270    3.9070 C   0  0  2  0  0  0  0  0  0  0  0  0
    2.6550    1.4340    4.9170 N   0  0  0  0  0  0  0  0  0  0  0  0
    1.8810   -0.2290    3.4590 C   0  0  0  0  0  0  0  0  0  0  0  0
    2.9450   -0.8230    3.8700 O   0  0  0  0  0  0  0  0  0  0  0  0
   -0.5380    2.8720    1.9860 C   0  0  0  0  0  0  0  0  0  0  0  0
   -1.3970    2.9080    0.9370 C   0  0  0  0  0  0  0  0  0  0  0  0
   -2.0760    3.2190   -1.9550 H   0  0  0  0  0  0  0  0  0  0  0  0
    0.3950    1.3430   -1.3900 H   0  0  0  0  0  0  0  0  0  0  0  0
    1.9650    1.2440    0.4600 H   0  0  0  0  0  0  0  0  0  0  0  0
    1.6850    3.2300    3.4890 H   0  0  0  0  0  0  0  0  0  0  0  0
    2.7010    2.1990    2.4870 H   0  0  0  0  0  0  0  0  0  0  0  0
    0.6280    1.1230    4.5000 H   0  0  0  0  0  0  0  0  0  0  0  0
    3.5570    1.2460    4.4530 H   0  0  0  0  0  0  0  0  0  0  0  0
    2.6130    2.4790    5.0760 H   0  0  0  0  0  0  0  0  0  0  0  0
   -0.8000    3.3000    2.9210 H   0  0  0  0  0  0  0  0  0  0  0  0
   -2.3710    3.3860    1.0670 H   0  0  0  0  0  0  0  0  0  0  0  0
    1.0870   -1.0100    2.5850 N   0  0  0  0  0  0  0  0  0  0  0  0
    1.5250   -2.3970    2.2630 C   0  0  1  0  0  0  0  0  0  0  0  0
    0.6200   -3.2130    3.2060 C   0  0  0  0  0  0  0  0  0  0  0  0
    0.8210   -4.6460    3.1820 C   0  0  0  0  0  0  0  0  0  0  0  0
    1.7370   -5.2290    2.5690 O   0  0  0  0  0  0  0  0  0  0  0  0
    1.2070   -2.8000    0.8990 C   0  0  0  0  0  0  0  0  0  0  0  0
    1.5980   -3.9440    0.4560 O   0  0  0  0  0  0  0  0  0  0  0  0
   -0.0760   -5.4860    3.9010 O   0  0  0  0  0  0  0  0  0  0  0  0
    0.2260   -0.6130    2.1870 H   0  0  0  0  0  0  0  0  0  0  0  0
    2.5380   -2.5750    2.6170 H   0  0  0  0  0  0  0  0  0  0  0  0
    0.7090   -2.7780    4.2450 H   0  0  0  0  0  0  0  0  0  0  0  0
   -0.4480   -2.9810    2.9190 H   0  0  0  0  0  0  0  0  0  0  0  0
   -0.2300   -6.4360    3.5510 H   0  0  0  0  0  0  0  0  0  0  0  0
    0.4760   -2.0670   -0.0750 N   0  0  0  0  0  0  0  0  0  0  0  0
    0.2050   -2.5740   -1.4090 C   0  0  1  0  0  0  0  0  0  0  0  0
   -1.2280   -2.8980   -1.6280 C   0  0  0  0  0  0  0  0  0  0  0  0
   -2.2290   -1.8380   -1.4780 C   0  0  0  0  0  0  0  0  0  0  0  0
   -2.2060   -0.6740   -2.3900 C   0  0  0  0  0  0  0  0  0  0  0  0
   -2.4360   -0.9440   -3.8350 C   0  0  0  0  0  0  0  0  0  0  0  0
   -3.7340   -1.5460   -4.0950 N   0  0  0  0  0  0  0  0  0  0  0  0
    0.9140   -1.8830   -2.4890 C   0  0  0  0  0  0  0  0  0  0  0  0
    0.7640   -2.2830   -3.6640 O   0  0  0  0  0  0  0  0  0  0  0  0
    1.7490   -0.8050   -2.2790 O   0  0  0  0  0  0  0  0  0  0  0  0
    0.1300   -1.1240    0.2070 H   0  0  0  0  0  0  0  0  0  0  0  0
    0.7070   -3.6150   -1.4140 H   0  0  0  0  0  0  0  0  0  0  0  0
   -1.3080   -3.3700   -2.6350 H   0  0  0  0  0  0  0  0  0  0  0  0
   -1.4870   -3.7220   -0.9110 H   0  0  0  0  0  0  0  0  0  0  0  0
   -3.2480   -2.3230   -1.6050 H   0  0  0  0  0  0  0  0  0  0  0  0
   -2.2740   -1.4580   -0.4280 H   0  0  0  0  0  0  0  0  0  0  0  0
   -3.0540    0.0020   -2.0530 H   0  0  0  0  0  0  0  0  0  0  0  0
   -1.3000   -0.0490   -2.3090 H   0  0  0  0  0  0  0  0  0  0  0  0
   -2.4840    0.0640   -4.3440 H   0  0  0  0  0  0  0  0  0  0  0  0
   -1.6710   -1.5070   -4.3670 H   0  0  0  0  0  0  0  0  0  0  0  0
   -3.6180   -2.5740   -3.8570 H   0  0  0  0  0  0  0  0  0  0  0  0
   -3.9160   -1.5270   -5.1250 H   0  0  0  0  0  0  0  0  0  0  0  0
  1  2  1  0  0  0  0
  2 12  1  0  0  0  0
  3  2  2  0  0  0  0
  3  4  1  0  0  0  0
  4  5  2  0  0  0  0
  5 11  1  0  0  0  0
  5  6  1  0  0  0  0
  6 16  1  0  0  0  0
  6  7  1  0  0  0  0
  7 18  1  1  0  0  0
  7  8  1  0  0  0  0
  8 20  1  0  0  0  0
  9 10  2  0  0  0  0
  9  7  1  0  0  0  0
 11 21  1  0  0  0  0
 12 22  1  0  0  0  0
 12 11  2  0  0  0  0
 13  1  1  0  0  0  0
 14  3  1  0  0  0  0
 15  4  1  0  0  0  0
 17  6  1  0  0  0  0
 19  8  1  0  0  0  0
 23  9  1  0  0  0  0
 24 23  1  0  0  0  0
 24 32  1  1  0  0  0
 24 25  1  0  0  0  0
 25 33  1  0  0  0  0
 26 25  1  0  0  0  0
 26 30  1  0  0  0  0
 27 26  2  0  0  0  0
 28 24  1  0  0  0  0
 29 28  2  0  0  0  0
 31 23  1  0  0  0  0
 34 25  1  0  0  0  0
 35 30  1  0  0  0  0
 36 46  1  0  0  0  0
 36 28  1  0  0  0  0
 37 47  1  1  0  0  0
 37 36  1  0  0  0  0
 38 39  1  0  0  0  0
 38 37  1  0  0  0  0
 38 49  1  0  0  0  0
 39 51  1  0  0  0  0
 40 53  1  0  0  0  0
 40 52  1  0  0  0  0
 40 39  1  0  0  0  0
 41 40  1  0  0  0  0
 42 56  1  0  0  0  0
 42 41  1  0  0  0  0
 43 45  1  0  0  0  0
 43 37  1  0  0  0  0
 44 43  2  0  0  0  0
 48 38  1  0  0  0  0
 50 39  1  0  0  0  0
 54 41  1  0  0  0  0
 55 41  1  0  0  0  0
 57 42  1  0  0  0  0
M  END
$$$$
