YDN.pdb
 OpenBabel07022419203D

 50 50  0  0  1  0  0  0  0  0999 V2000
    0.3870   -3.8240    4.2280 O   0  0  0  0  0  0  0  0  0  0  0  0
    1.2990   -3.0700    3.5210 C   0  0  0  0  0  0  0  0  0  0  0  0
    2.2870   -3.6140    2.7440 C   0  0  0  0  0  0  0  0  0  0  0  0
    3.1810   -2.8310    2.0540 C   0  0  0  0  0  0  0  0  0  0  0  0
    3.1030   -1.4340    2.1270 C   0  0  0  0  0  0  0  0  0  0  0  0
    4.1230   -0.6790    1.4020 C   0  0  0  0  0  0  0  0  0  0  0  0
    3.6890   -0.4220   -0.0220 C   0  0  2  0  0  0  0  0  0  0  0  0
    4.8010    0.3360   -0.6840 N   0  0  0  0  0  0  0  0  0  0  0  0
    2.4990    0.4560    0.0160 C   0  0  0  0  0  0  0  0  0  0  0  0
    2.7590    1.7050    0.1140 O   0  0  0  0  0  0  0  0  0  0  0  0
    2.1180   -0.9070    2.8990 C   0  0  0  0  0  0  0  0  0  0  0  0
    1.2260   -1.7020    3.5890 C   0  0  0  0  0  0  0  0  0  0  0  0
   -0.3490   -3.4070    4.7620 H   0  0  0  0  0  0  0  0  0  0  0  0
    2.3560   -4.6860    2.6820 H   0  0  0  0  0  0  0  0  0  0  0  0
    3.9520   -3.2890    1.4450 H   0  0  0  0  0  0  0  0  0  0  0  0
    4.1600    0.3440    1.8930 H   0  0  0  0  0  0  0  0  0  0  0  0
    5.1310   -1.1480    1.4480 H   0  0  0  0  0  0  0  0  0  0  0  0
    3.5290   -1.3840   -0.5340 H   0  0  0  0  0  0  0  0  0  0  0  0
    5.6610   -0.1550   -0.3120 H   0  0  0  0  0  0  0  0  0  0  0  0
    4.7270    0.0160   -1.6890 H   0  0  0  0  0  0  0  0  0  0  0  0
    2.0370    0.1640    2.9700 H   0  0  0  0  0  0  0  0  0  0  0  0
    0.4460   -1.2610    4.2020 H   0  0  0  0  0  0  0  0  0  0  0  0
    1.1530    0.0160   -0.0550 N   0  0  0  0  0  0  0  0  0  0  0  0
    0.1440    1.0860   -0.0140 C   0  0  1  0  0  0  0  0  0  0  0  0
   -0.0210    1.5170   -1.5000 C   0  0  0  0  0  0  0  0  0  0  0  0
   -0.9320    2.6180   -1.6640 C   0  0  0  0  0  0  0  0  0  0  0  0
   -1.3960    3.3040   -0.7490 O   0  0  0  0  0  0  0  0  0  0  0  0
   -1.1610    0.6320    0.4320 C   0  0  0  0  0  0  0  0  0  0  0  0
   -2.0600    1.4740    0.6850 O   0  0  0  0  0  0  0  0  0  0  0  0
   -1.3480    2.9650   -2.9630 O   0  0  0  0  0  0  0  0  0  0  0  0
    0.9690   -0.9820   -0.1300 H   0  0  0  0  0  0  0  0  0  0  0  0
    0.4680    1.9900    0.4850 H   0  0  0  0  0  0  0  0  0  0  0  0
   -0.2610    0.6130   -2.1020 H   0  0  0  0  0  0  0  0  0  0  0  0
    0.9950    1.8390   -1.8800 H   0  0  0  0  0  0  0  0  0  0  0  0
   -1.8800    3.8090   -3.1150 H   0  0  0  0  0  0  0  0  0  0  0  0
   -4.9230   -0.1620   -1.5620 N   0  0  0  0  0  0  0  0  0  0  0  0
   -3.7370   -0.8740   -1.2390 C   0  0  0  0  0  0  0  0  0  0  0  0
   -2.6890   -0.7850   -1.9330 O   0  0  0  0  0  0  0  0  0  0  0  0
   -3.6930   -1.7710   -0.0390 C   0  0  0  0  0  0  0  0  0  0  0  0
   -2.9310   -1.0400    1.0610 C   0  0  2  0  0  0  0  0  0  0  0  0
   -1.5770   -0.7340    0.6250 N   0  0  0  0  0  0  0  0  0  0  0  0
   -2.8970   -1.8980    2.2430 C   0  0  0  0  0  0  0  0  0  0  0  0
   -1.8000   -2.2830    2.7130 O   0  0  0  0  0  0  0  0  0  0  0  0
   -4.0390   -2.3370    2.9130 O   0  0  0  0  0  0  0  0  0  0  0  0
   -5.8760   -0.6260   -1.4790 H   0  0  0  0  0  0  0  0  0  0  0  0
   -4.9260    0.8310   -1.8910 H   0  0  0  0  0  0  0  0  0  0  0  0
   -4.7340   -1.9210    0.3120 H   0  0  0  0  0  0  0  0  0  0  0  0
   -3.2670   -2.7440   -0.2860 H   0  0  0  0  0  0  0  0  0  0  0  0
   -3.5020   -0.1190    1.2900 H   0  0  0  0  0  0  0  0  0  0  0  0
   -0.8720   -1.4640    0.4390 H   0  0  0  0  0  0  0  0  0  0  0  0
  1 13  1  0  0  0  0
  2 12  1  0  0  0  0
  2  1  1  0  0  0  0
  3  2  2  0  0  0  0
  4  5  2  0  0  0  0
  4  3  1  0  0  0  0
  5 11  1  0  0  0  0
  6 17  1  0  0  0  0
  6 16  1  0  0  0  0
  6  5  1  0  0  0  0
  7 18  1  6  0  0  0
  7  9  1  0  0  0  0
  7  6  1  0  0  0  0
  8 19  1  0  0  0  0
  8  7  1  0  0  0  0
  9 10  2  0  0  0  0
 11 21  1  0  0  0  0
 11 12  2  0  0  0  0
 12 22  1  0  0  0  0
 14  3  1  0  0  0  0
 15  4  1  0  0  0  0
 20  8  1  0  0  0  0
 23 24  1  0  0  0  0
 23  9  1  0  0  0  0
 24 28  1  0  0  0  0
 24 32  1  1  0  0  0
 25 24  1  0  0  0  0
 26 25  1  0  0  0  0
 26 27  2  0  0  0  0
 28 41  1  0  0  0  0
 28 29  2  0  0  0  0
 30 26  1  0  0  0  0
 31 23  1  0  0  0  0
 33 25  1  0  0  0  0
 34 25  1  0  0  0  0
 35 30  1  0  0  0  0
 36 45  1  0  0  0  0
 36 37  1  0  0  0  0
 37 39  1  0  0  0  0
 38 37  2  0  0  0  0
 39 47  1  0  0  0  0
 39 40  1  0  0  0  0
 40 49  1  1  0  0  0
 40 42  1  0  0  0  0
 41 40  1  0  0  0  0
 42 43  2  0  0  0  0
 42 44  1  0  0  0  0
 46 36  1  0  0  0  0
 48 39  1  0  0  0  0
 50 41  1  0  0  0  0
M  END
$$$$
