YDP.pdb
 OpenBabel07022419203D

 50 51  0  0  1  0  0  0  0  0999 V2000
   -0.4590    5.6000   -0.8540 O   0  0  0  0  0  0  0  0  0  0  0  0
    0.3770    4.5870   -0.4040 C   0  0  0  0  0  0  0  0  0  0  0  0
   -0.0800    3.4700    0.2940 C   0  0  0  0  0  0  0  0  0  0  0  0
    0.7570    2.4700    0.7380 C   0  0  0  0  0  0  0  0  0  0  0  0
    2.1070    2.5390    0.5030 C   0  0  0  0  0  0  0  0  0  0  0  0
    3.0530    1.5130    0.9600 C   0  0  0  0  0  0  0  0  0  0  0  0
    3.3100    0.3860    0.0300 C   0  0  2  0  0  0  0  0  0  0  0  0
    3.8410    0.7670   -1.2590 N   0  0  0  0  0  0  0  0  0  0  0  0
    2.2380   -0.5940   -0.1330 C   0  0  0  0  0  0  0  0  0  0  0  0
    1.9140   -0.9930   -1.3100 O   0  0  0  0  0  0  0  0  0  0  0  0
    2.6070    3.6340   -0.1890 C   0  0  0  0  0  0  0  0  0  0  0  0
    1.7430    4.6100   -0.6150 C   0  0  0  0  0  0  0  0  0  0  0  0
   -1.0060    6.1380   -0.1970 H   0  0  0  0  0  0  0  0  0  0  0  0
   -1.1580    3.4330    0.4730 H   0  0  0  0  0  0  0  0  0  0  0  0
    0.3370    1.6170    1.2820 H   0  0  0  0  0  0  0  0  0  0  0  0
    4.0220    1.9670    1.2780 H   0  0  0  0  0  0  0  0  0  0  0  0
    2.6030    1.0540    1.8920 H   0  0  0  0  0  0  0  0  0  0  0  0
    4.1710   -0.2000    0.5110 H   0  0  0  0  0  0  0  0  0  0  0  0
    4.8380    1.0460   -1.1340 H   0  0  0  0  0  0  0  0  0  0  0  0
    3.6900    0.0250   -1.9610 H   0  0  0  0  0  0  0  0  0  0  0  0
    3.6910    3.7000   -0.3830 H   0  0  0  0  0  0  0  0  0  0  0  0
    2.1620    5.4720   -1.1630 H   0  0  0  0  0  0  0  0  0  0  0  0
    1.5100   -1.1580    0.9190 N   0  0  0  0  0  0  0  0  0  0  0  0
    0.4430   -2.1420    0.7710 C   0  0  1  0  0  0  0  0  0  0  0  0
    0.9870   -3.4170    1.4020 C   0  0  0  0  0  0  0  0  0  0  0  0
    1.3200   -3.2900    2.8190 C   0  0  0  0  0  0  0  0  0  0  0  0
    1.9020   -4.2540    3.3840 O   0  0  0  0  0  0  0  0  0  0  0  0
   -0.8100   -1.7090    1.3610 C   0  0  0  0  0  0  0  0  0  0  0  0
   -0.8140   -0.7080    2.1170 O   0  0  0  0  0  0  0  0  0  0  0  0
    1.0420   -2.1970    3.5830 O   0  0  0  0  0  0  0  0  0  0  0  0
    1.7350   -0.8590    1.8770 H   0  0  0  0  0  0  0  0  0  0  0  0
    0.3160   -2.3380   -0.2980 H   0  0  0  0  0  0  0  0  0  0  0  0
    1.9730   -3.5850    0.8640 H   0  0  0  0  0  0  0  0  0  0  0  0
    0.4090   -4.3090    1.2210 H   0  0  0  0  0  0  0  0  0  0  0  0
    1.5380   -1.9260    4.4240 H   0  0  0  0  0  0  0  0  0  0  0  0
   -2.0300   -2.3650    1.1180 N   0  0  0  0  0  0  0  0  0  0  0  0
   -3.3210   -1.9830    1.7250 C   0  0  0  0  0  0  0  0  0  0  0  0
   -4.0590   -3.2900    1.8740 C   0  0  0  0  0  0  0  0  0  0  0  0
   -3.3020   -4.3140    1.0980 C   0  0  0  0  0  0  0  0  0  0  0  0
   -2.3380   -3.4740    0.2580 C   0  0  1  0  0  0  0  0  0  0  0  0
   -3.1410   -3.0460   -0.9380 C   0  0  0  0  0  0  0  0  0  0  0  0
   -3.4220   -1.8390   -1.1270 O   0  0  0  0  0  0  0  0  0  0  0  0
   -3.6080   -3.9440   -1.8830 O   0  0  0  0  0  0  0  0  0  0  0  0
   -3.1350   -1.5220    2.7260 H   0  0  0  0  0  0  0  0  0  0  0  0
   -3.8370   -1.2570    1.0800 H   0  0  0  0  0  0  0  0  0  0  0  0
   -4.1500   -3.6280    2.9300 H   0  0  0  0  0  0  0  0  0  0  0  0
   -5.1170   -3.1870    1.4980 H   0  0  0  0  0  0  0  0  0  0  0  0
   -4.0070   -4.8600    0.4090 H   0  0  0  0  0  0  0  0  0  0  0  0
   -2.7770   -5.0610    1.7030 H   0  0  0  0  0  0  0  0  0  0  0  0
   -1.4700   -4.0540   -0.0440 H   0  0  0  0  0  0  0  0  0  0  0  0
  1  2  1  0  0  0  0
  1 13  1  0  0  0  0
  2  3  1  0  0  0  0
  3 14  1  0  0  0  0
  3  4  2  0  0  0  0
  4 15  1  0  0  0  0
  5  4  1  0  0  0  0
  5  6  1  0  0  0  0
  6 16  1  0  0  0  0
  6 17  1  0  0  0  0
  7 18  1  1  0  0  0
  7  6  1  0  0  0  0
  8 19  1  0  0  0  0
  8  7  1  0  0  0  0
  9  7  1  0  0  0  0
  9 23  1  0  0  0  0
 10  9  2  0  0  0  0
 11  5  2  0  0  0  0
 12  2  2  0  0  0  0
 12 11  1  0  0  0  0
 20  8  1  0  0  0  0
 21 11  1  0  0  0  0
 22 12  1  0  0  0  0
 23 31  1  0  0  0  0
 24 32  1  6  0  0  0
 24 23  1  0  0  0  0
 24 28  1  0  0  0  0
 24 25  1  0  0  0  0
 25 26  1  0  0  0  0
 26 27  2  0  0  0  0
 26 30  1  0  0  0  0
 28 29  2  0  0  0  0
 30 35  1  0  0  0  0
 33 25  1  0  0  0  0
 34 25  1  0  0  0  0
 36 28  1  0  0  0  0
 36 37  1  0  0  0  0
 37 38  1  0  0  0  0
 37 44  1  0  0  0  0
 38 46  1  0  0  0  0
 39 49  1  0  0  0  0
 39 38  1  0  0  0  0
 40 50  1  6  0  0  0
 40 39  1  0  0  0  0
 40 36  1  0  0  0  0
 41 40  1  0  0  0  0
 42 41  1  0  0  0  0
 43 41  2  0  0  0  0
 45 37  1  0  0  0  0
 47 38  1  0  0  0  0
 48 39  1  0  0  0  0
M  END
$$$$
