YDR.pdb
 OpenBabel07022419203D

 59 59  0  0  1  0  0  0  0  0999 V2000
   -0.8610    2.5530    6.3130 O   0  0  0  0  0  0  0  0  0  0  0  0
    0.1400    1.8320    5.6810 C   0  0  0  0  0  0  0  0  0  0  0  0
    1.3820    2.4110    5.5130 C   0  0  0  0  0  0  0  0  0  0  0  0
    2.4300    1.7670    4.8980 C   0  0  0  0  0  0  0  0  0  0  0  0
    2.2610    0.4770    4.4140 C   0  0  0  0  0  0  0  0  0  0  0  0
    3.3890   -0.2160    3.7540 C   0  0  0  0  0  0  0  0  0  0  0  0
    3.4290    0.0280    2.2570 C   0  0  2  0  0  0  0  0  0  0  0  0
    3.5680    1.4470    2.0400 N   0  0  0  0  0  0  0  0  0  0  0  0
    2.1740   -0.5160    1.6800 C   0  0  0  0  0  0  0  0  0  0  0  0
    1.9830   -1.7530    1.7960 O   0  0  0  0  0  0  0  0  0  0  0  0
    1.0200   -0.1080    4.5790 C   0  0  0  0  0  0  0  0  0  0  0  0
   -0.0160    0.5540    5.1980 C   0  0  0  0  0  0  0  0  0  0  0  0
   -1.0130    2.5040    7.3210 H   0  0  0  0  0  0  0  0  0  0  0  0
    1.5330    3.4180    5.8830 H   0  0  0  0  0  0  0  0  0  0  0  0
    3.3970    2.2790    4.7920 H   0  0  0  0  0  0  0  0  0  0  0  0
    3.2900   -1.3020    3.9820 H   0  0  0  0  0  0  0  0  0  0  0  0
    4.3210    0.1620    4.2460 H   0  0  0  0  0  0  0  0  0  0  0  0
    4.3010   -0.5220    1.8470 H   0  0  0  0  0  0  0  0  0  0  0  0
    4.5610    1.7400    2.1760 H   0  0  0  0  0  0  0  0  0  0  0  0
    3.3630    1.6820    1.0230 H   0  0  0  0  0  0  0  0  0  0  0  0
    0.8460   -1.1290    4.2110 H   0  0  0  0  0  0  0  0  0  0  0  0
   -0.9610    0.0550    5.3010 H   0  0  0  0  0  0  0  0  0  0  0  0
    1.2010    0.2650    1.0190 N   0  0  0  0  0  0  0  0  0  0  0  0
    0.0040   -0.3090    0.4770 C   0  0  1  0  0  0  0  0  0  0  0  0
   -1.2450    0.1830    1.1390 C   0  0  0  0  0  0  0  0  0  0  0  0
   -1.4640    1.6280    1.0480 C   0  0  0  0  0  0  0  0  0  0  0  0
   -0.6440    2.3470    0.4460 O   0  0  0  0  0  0  0  0  0  0  0  0
   -0.0430   -0.1620   -1.0170 C   0  0  0  0  0  0  0  0  0  0  0  0
    0.9020    0.4020   -1.6340 O   0  0  0  0  0  0  0  0  0  0  0  0
   -2.5740    2.2050    1.6240 O   0  0  0  0  0  0  0  0  0  0  0  0
    1.3680    1.2800    0.9290 H   0  0  0  0  0  0  0  0  0  0  0  0
    0.0300   -1.4220    0.6850 H   0  0  0  0  0  0  0  0  0  0  0  0
   -1.1950   -0.1450    2.2000 H   0  0  0  0  0  0  0  0  0  0  0  0
   -2.0950   -0.4010    0.6920 H   0  0  0  0  0  0  0  0  0  0  0  0
   -2.9090    3.1470    1.4140 H   0  0  0  0  0  0  0  0  0  0  0  0
   -0.0420   -6.4390   -1.9480 N   0  0  0  0  0  0  0  0  0  0  0  0
   -0.8170   -5.2820   -2.1890 C   0  0  0  0  0  0  0  0  0  0  0  0
   -1.2720   -4.6100   -1.2020 N   0  0  0  0  0  0  0  0  0  0  0  0
   -1.0840   -4.8780   -3.5210 N   0  0  0  0  0  0  0  0  0  0  0  0
   -2.2810   -4.1800   -3.8550 C   0  0  0  0  0  0  0  0  0  0  0  0
   -2.3370   -2.7860   -3.2760 C   0  0  0  0  0  0  0  0  0  0  0  0
   -1.1950   -1.9360   -3.7780 C   0  0  0  0  0  0  0  0  0  0  0  0
   -1.2380   -0.5390   -3.2000 C   0  0  2  0  0  0  0  0  0  0  0  0
   -1.1410   -0.6500   -1.7580 N   0  0  0  0  0  0  0  0  0  0  0  0
   -2.4560    0.1910   -3.6140 C   0  0  0  0  0  0  0  0  0  0  0  0
   -2.6710    0.3630   -4.8400 O   0  0  0  0  0  0  0  0  0  0  0  0
   -3.3910    0.7060   -2.7270 O   0  0  0  0  0  0  0  0  0  0  0  0
    0.7950   -6.6220   -2.5330 H   0  0  0  0  0  0  0  0  0  0  0  0
   -0.2770   -7.1190   -1.2030 H   0  0  0  0  0  0  0  0  0  0  0  0
   -1.0650   -4.9230   -0.2320 H   0  0  0  0  0  0  0  0  0  0  0  0
   -0.3840   -5.1030   -4.2530 H   0  0  0  0  0  0  0  0  0  0  0  0
   -2.3440   -4.0430   -4.9750 H   0  0  0  0  0  0  0  0  0  0  0  0
   -3.2220   -4.6870   -3.5610 H   0  0  0  0  0  0  0  0  0  0  0  0
   -3.2760   -2.3150   -3.6900 H   0  0  0  0  0  0  0  0  0  0  0  0
   -2.4560   -2.7860   -2.1940 H   0  0  0  0  0  0  0  0  0  0  0  0
   -0.2540   -2.4590   -3.5250 H   0  0  0  0  0  0  0  0  0  0  0  0
   -1.2310   -1.9120   -4.8930 H   0  0  0  0  0  0  0  0  0  0  0  0
   -0.3090   -0.0210   -3.5350 H   0  0  0  0  0  0  0  0  0  0  0  0
   -1.9040   -1.1060   -1.2130 H   0  0  0  0  0  0  0  0  0  0  0  0
  1 13  1  0  0  0  0
  2  1  1  0  0  0  0
  3  2  1  0  0  0  0
  3 14  1  0  0  0  0
  4  3  2  0  0  0  0
  5 11  2  0  0  0  0
  5  4  1  0  0  0  0
  6 16  1  0  0  0  0
  6 17  1  0  0  0  0
  6  5  1  0  0  0  0
  7 18  1  6  0  0  0
  7  6  1  0  0  0  0
  8 19  1  0  0  0  0
  8  7  1  0  0  0  0
  9 10  2  0  0  0  0
  9  7  1  0  0  0  0
 11 12  1  0  0  0  0
 12 22  1  0  0  0  0
 12  2  2  0  0  0  0
 15  4  1  0  0  0  0
 20  8  1  0  0  0  0
 21 11  1  0  0  0  0
 23  9  1  0  0  0  0
 24 32  1  1  0  0  0
 24 23  1  0  0  0  0
 24 25  1  0  0  0  0
 25 33  1  0  0  0  0
 26 25  1  0  0  0  0
 26 30  1  0  0  0  0
 27 26  2  0  0  0  0
 28 24  1  0  0  0  0
 29 28  2  0  0  0  0
 31 23  1  0  0  0  0
 34 25  1  0  0  0  0
 35 30  1  0  0  0  0
 36 49  1  0  0  0  0
 37 36  1  0  0  0  0
 37 38  2  0  0  0  0
 38 50  1  0  0  0  0
 39 37  1  0  0  0  0
 40 53  1  0  0  0  0
 40 39  1  0  0  0  0
 40 41  1  0  0  0  0
 41 55  1  0  0  0  0
 42 56  1  0  0  0  0
 42 41  1  0  0  0  0
 42 43  1  0  0  0  0
 43 58  1  6  0  0  0
 43 44  1  0  0  0  0
 44 59  1  0  0  0  0
 44 28  1  0  0  0  0
 45 43  1  0  0  0  0
 45 47  1  0  0  0  0
 46 45  2  0  0  0  0
 48 36  1  0  0  0  0
 51 39  1  0  0  0  0
 52 40  1  0  0  0  0
 54 41  1  0  0  0  0
 57 42  1  0  0  0  0
M  END
$$$$
